# Generated by pormake.
# Topology unm, (4)-cn, num edge types: 1
# Building blocks:
#     Node 0, Type 0, BuildingBlock: ICAMEG_clean_sbu_1, # of connection points: 4
#     Node 1, Type 0, BuildingBlock: ICAMEG_clean_sbu_1, # of connection points: 4
#     Node 2, Type 0, BuildingBlock: ICAMEG_clean_sbu_1, # of connection points: 4
#     Node 3, Type 0, BuildingBlock: ICAMEG_clean_sbu_1, # of connection points: 4
#     Node 4, Type 0, BuildingBlock: ICAMEG_clean_sbu_1, # of connection points: 4
#     Node 5, Type 0, BuildingBlock: ICAMEG_clean_sbu_1, # of connection points: 4
#     Node 6, Type 0, BuildingBlock: ICAMEG_clean_sbu_1, # of connection points: 4
#     Node 7, Type 0, BuildingBlock: ICAMEG_clean_sbu_1, # of connection points: 4
#     Edge 8, Type (0, 0), BuildingBlock: TEMPAE_clean_linker_10, # of connection points: 2
#     Edge 9, Type (0, 0), BuildingBlock: TEMPAE_clean_linker_10, # of connection points: 2
#     Edge 10, Type (0, 0), BuildingBlock: TEMPAE_clean_linker_10, # of connection points: 2
#     Edge 11, Type (0, 0), BuildingBlock: TEMPAE_clean_linker_10, # of connection points: 2
#     Edge 12, Type (0, 0), BuildingBlock: TEMPAE_clean_linker_10, # of connection points: 2
#     Edge 13, Type (0, 0), BuildingBlock: TEMPAE_clean_linker_10, # of connection points: 2
#     Edge 14, Type (0, 0), BuildingBlock: TEMPAE_clean_linker_10, # of connection points: 2
#     Edge 15, Type (0, 0), BuildingBlock: TEMPAE_clean_linker_10, # of connection points: 2
#     Edge 16, Type (0, 0), BuildingBlock: TEMPAE_clean_linker_10, # of connection points: 2
#     Edge 17, Type (0, 0), BuildingBlock: TEMPAE_clean_linker_10, # of connection points: 2
#     Edge 18, Type (0, 0), BuildingBlock: TEMPAE_clean_linker_10, # of connection points: 2
#     Edge 19, Type (0, 0), BuildingBlock: TEMPAE_clean_linker_10, # of connection points: 2
#     Edge 20, Type (0, 0), BuildingBlock: TEMPAE_clean_linker_10, # of connection points: 2
#     Edge 21, Type (0, 0), BuildingBlock: TEMPAE_clean_linker_10, # of connection points: 2
#     Edge 22, Type (0, 0), BuildingBlock: TEMPAE_clean_linker_10, # of connection points: 2
#     Edge 23, Type (0, 0), BuildingBlock: TEMPAE_clean_linker_10, # of connection points: 2
# Relax obj value: 0.084
# Max RMSD: 0.086
# Mean RMSD: 0.086
data_MOF--net-unm--node1-ICAMEG_clean_sbu_1--edge1-TEMPAE_clean_linker_10
_symmetry_space_group_name_H-M    P1
_symmetry_Int_Tables_number       1
_symmetry_cell_setting            triclinic
loop_
_symmetry_equiv_pos_as_xyz
'x, y, z'
_cell_length_a     25.598569
_cell_length_b     25.597257
_cell_length_c     51.182958
_cell_angle_alpha  89.986444
_cell_angle_beta   89.985241
_cell_angle_gamma 89.967001
loop_
_atom_site_label
_atom_site_type_symbol
_atom_site_fract_x
_atom_site_fract_y
_atom_site_fract_z
_atom_type_partial_charge
Co0 Co 0.19566 0.27383 0.14148 0.0
Co1 Co 0.2449 0.35902 0.18713 0.0
O2 O 0.25378 0.30798 0.15914 0.0
C3 C 0.25428 0.31785 0.09679 0.0
O4 O 0.25308 0.36317 0.1088 0.0
C5 C 0.32059 0.28251 0.20945 0.0
O6 O 0.28742 0.24489 0.20407 0.0
O7 O 0.19764 0.31086 0.20705 0.0
O8 O 0.15529 0.26973 0.17466 0.0
H9 H 0.14342 0.46584 0.25207 0.0
H10 H 0.30264 0.23112 0.1355 0.0
O11 O 0.23441 0.27763 0.10756 0.0
H12 H 0.19961 0.08919 0.17536 0.0
H13 H 0.11557 0.148 0.0774 0.0
H14 H 0.08018 0.2839 0.14335 0.0
H15 H 0.15817 0.17334 0.16427 0.0
H16 H 0.18811 0.19104 0.10068 0.0
O17 O 0.30845 0.32992 0.20491 0.0
H18 H 0.15454 0.40188 0.21649 0.0
H19 H 0.31892 0.42438 0.21807 0.0
H20 H 0.00651 0.24157 0.12072 0.0
H21 H 0.34558 0.14741 0.14606 0.0
H22 H 0.02399 0.17308 0.08746 0.0
H23 H 0.29398 0.07581 0.16623 0.0
O24 O 0.1618 0.34229 0.13408 0.0
H25 H 0.40374 0.40743 0.13467 0.0
H26 H 0.23809 0.47141 0.17205 0.0
H27 H 0.2934 0.53156 0.14655 0.0
H28 H 0.37698 0.49968 0.12771 0.0
H29 H 0.34698 0.34847 0.16007 0.0
H30 H 0.30959 0.48831 0.25384 0.0
H31 H 0.22133 0.50957 0.271 0.0
O32 O 0.18228 0.38972 0.16954 0.0
C33 C 0.15994 0.28277 0.19859 0.0
C34 C 0.18209 0.457 0.24472 0.0
C35 C 0.27535 0.46955 0.24574 0.0
N36 N 0.2373 0.40959 0.21511 0.0
C37 C 0.18863 0.42089 0.22453 0.0
C38 C 0.2804 0.4332 0.22554 0.0
C39 C 0.22581 0.48149 0.25535 0.0
C40 C 0.27984 0.19994 0.14403 0.0
N41 N 0.22794 0.207 0.14914 0.0
C42 C 0.3044 0.15272 0.15007 0.0
C43 C 0.27544 0.11258 0.16141 0.0
C44 C 0.22249 0.12008 0.16656 0.0
C45 C 0.19927 0.16785 0.16029 0.0
C46 C 0.10745 0.17771 0.09189 0.0
C47 C 0.08812 0.25391 0.12903 0.0
C48 C 0.14837 0.20228 0.1051 0.0
N49 N 0.13838 0.23965 0.12351 0.0
C50 C 0.04624 0.23018 0.11622 0.0
C51 C 0.05608 0.19179 0.09755 0.0
C52 C 0.15615 0.38239 0.14862 0.0
C53 C 0.36748 0.42182 0.14284 0.0
C54 C 0.27427 0.45717 0.16383 0.0
C55 C 0.30551 0.49146 0.14946 0.0
C56 C 0.35241 0.47356 0.13891 0.0
N57 N 0.28938 0.40652 0.16766 0.0
C58 C 0.33526 0.38866 0.15732 0.0
Co59 Co 0.23395 0.69809 0.64149 0.0
Co60 Co 0.14732 0.74748 0.68647 0.0
O61 O 0.19905 0.75622 0.6588 0.0
C62 C 0.1903 0.75612 0.59657 0.0
O63 O 0.14497 0.75507 0.60858 0.0
C64 C 0.22304 0.82313 0.70937 0.0
O65 O 0.26076 0.78961 0.70471 0.0
O66 O 0.19505 0.70042 0.70679 0.0
O67 O 0.2376 0.65817 0.67481 0.0
H68 H 0.03897 0.64643 0.75092 0.0
H69 H 0.27598 0.80529 0.63544 0.0
O70 O 0.23052 0.73641 0.60743 0.0
H71 H 0.41778 0.70358 0.67633 0.0
H72 H 0.36171 0.61803 0.57829 0.0
H73 H 0.22469 0.58257 0.64367 0.0
H74 H 0.33421 0.66148 0.66488 0.0
H75 H 0.31763 0.69058 0.60113 0.0
O76 O 0.17583 0.81123 0.70426 0.0
H77 H 0.10386 0.65732 0.71574 0.0
H78 H 0.08102 0.8217 0.71685 0.0
H79 H 0.26806 0.5089 0.62148 0.0
H80 H 0.35911 0.84889 0.64636 0.0
H81 H 0.33712 0.52641 0.58851 0.0
H82 H 0.43064 0.79795 0.66705 0.0
O83 O 0.16591 0.66372 0.63383 0.0
H84 H 0.09991 0.90579 0.63335 0.0
H85 H 0.03536 0.74039 0.6707 0.0
H86 H 0.97576 0.79539 0.6447 0.0
H87 H 0.00793 0.87885 0.62587 0.0
H88 H 0.15834 0.84934 0.65924 0.0
H89 H 0.01615 0.8126 0.75222 0.0
H90 H 0.99459 0.72445 0.7694 0.0
O91 O 0.11727 0.68469 0.66884 0.0
C92 C 0.22373 0.66287 0.69861 0.0
C93 C 0.04793 0.68504 0.74355 0.0
C94 C 0.03519 0.77831 0.74431 0.0
N95 N 0.09604 0.74006 0.71415 0.0
C96 C 0.08458 0.69145 0.72359 0.0
C97 C 0.07207 0.78323 0.72433 0.0
C98 C 0.02309 0.72884 0.75393 0.0
C99 C 0.30714 0.78278 0.6442 0.0
N100 N 0.30038 0.73087 0.64939 0.0
C101 C 0.35403 0.80771 0.65043 0.0
C102 C 0.39413 0.77912 0.66207 0.0
C103 C 0.38692 0.72618 0.6673 0.0
C104 C 0.33948 0.70257 0.66082 0.0
C105 C 0.33176 0.6099 0.59266 0.0
C106 C 0.25493 0.59053 0.62947 0.0
C107 C 0.3066 0.65082 0.60561 0.0
N108 N 0.26892 0.64082 0.62387 0.0
C109 C 0.27925 0.54864 0.61691 0.0
C110 C 0.31796 0.5585 0.59841 0.0
C111 C 0.12537 0.65821 0.64809 0.0
C112 C 0.08539 0.86959 0.64151 0.0
C113 C 0.04972 0.77652 0.66249 0.0
C114 C 0.01575 0.80758 0.64784 0.0
C115 C 0.03381 0.85442 0.63729 0.0
N116 N 0.10023 0.79174 0.66661 0.0
C117 C 0.11825 0.83755 0.65628 0.0
Co118 Co 0.8092 0.73079 0.14106 0.0
Co119 Co 0.75962 0.6454 0.18652 0.0
O120 O 0.75094 0.69657 0.15857 0.0
C121 C 0.75081 0.68724 0.09618 0.0
O122 O 0.752 0.64176 0.10805 0.0
C123 C 0.68389 0.72156 0.20916 0.0
O124 O 0.71746 0.75921 0.20451 0.0
O125 O 0.8066 0.69356 0.2066 0.0
O126 O 0.84933 0.73462 0.1743 0.0
H127 H 0.86053 0.53847 0.25162 0.0
H128 H 0.70225 0.77359 0.13511 0.0
O129 O 0.77064 0.72732 0.10709 0.0
H130 H 0.80526 0.91519 0.17522 0.0
H131 H 0.88985 0.85701 0.0773 0.0
H132 H 0.92466 0.72061 0.14309 0.0
H133 H 0.84669 0.83111 0.164 0.0
H134 H 0.81711 0.81387 0.1004 0.0
O135 O 0.69579 0.6743 0.20412 0.0
H136 H 0.84972 0.60255 0.21607 0.0
H137 H 0.68536 0.5798 0.21722 0.0
H138 H 0.99852 0.76302 0.12063 0.0
H139 H 0.65932 0.85724 0.14581 0.0
H140 H 0.98134 0.83177 0.08745 0.0
H141 H 0.71091 0.92867 0.1661 0.0
O142 O 0.84304 0.66233 0.1336 0.0
H143 H 0.60154 0.59698 0.13354 0.0
H144 H 0.76674 0.53307 0.17141 0.0
H145 H 0.71183 0.47293 0.14572 0.0
H146 H 0.62847 0.50477 0.12664 0.0
H147 H 0.6579 0.65594 0.15913 0.0
H148 H 0.69438 0.51575 0.25296 0.0
H149 H 0.78249 0.49455 0.27032 0.0
O150 O 0.82248 0.61492 0.16907 0.0
C151 C 0.84442 0.7216 0.19821 0.0
C152 C 0.82194 0.54727 0.24419 0.0
C153 C 0.72868 0.53459 0.24496 0.0
N154 N 0.76699 0.59472 0.21448 0.0
C155 C 0.81557 0.58346 0.22401 0.0
C156 C 0.7238 0.57101 0.22477 0.0
C157 C 0.77813 0.52269 0.25468 0.0
C158 C 0.72504 0.8047 0.14369 0.0
N159 N 0.77694 0.7976 0.1488 0.0
C160 C 0.70049 0.85189 0.1498 0.0
C161 C 0.72944 0.89193 0.16122 0.0
C162 C 0.78238 0.88438 0.16636 0.0
C163 C 0.8056 0.83665 0.16001 0.0
C164 C 0.89784 0.82719 0.09175 0.0
C165 C 0.91684 0.75071 0.1288 0.0
C166 C 0.85681 0.80256 0.10486 0.0
N167 N 0.86663 0.76505 0.12323 0.0
C168 C 0.95884 0.77449 0.11609 0.0
C169 C 0.94917 0.81302 0.09746 0.0
C170 C 0.84871 0.62226 0.14818 0.0
C171 C 0.6377 0.5826 0.14182 0.0
C172 C 0.73066 0.54729 0.16308 0.0
C173 C 0.69965 0.51301 0.14861 0.0
C174 C 0.65287 0.53089 0.13792 0.0
N175 N 0.71545 0.59792 0.16689 0.0
C176 C 0.6697 0.61576 0.15641 0.0
Co177 Co 0.77796 0.31169 0.64095 0.0
Co178 Co 0.86279 0.26234 0.68672 0.0
O179 O 0.8117 0.25346 0.65876 0.0
C180 C 0.82114 0.25208 0.59634 0.0
O181 O 0.86662 0.25314 0.60819 0.0
C182 C 0.78622 0.18712 0.70939 0.0
O183 O 0.74866 0.22057 0.7043 0.0
O184 O 0.81469 0.30986 0.70656 0.0
O185 O 0.77441 0.35256 0.674 0.0
H186 H 0.96974 0.36381 0.75153 0.0
H187 H 0.73427 0.20505 0.63548 0.0
O188 O 0.78119 0.27241 0.60717 0.0
H189 H 0.59348 0.31019 0.67506 0.0
H190 H 0.65256 0.39222 0.57674 0.0
H191 H 0.78917 0.42708 0.64236 0.0
H192 H 0.67795 0.35058 0.6637 0.0
H193 H 0.69501 0.31955 0.60025 0.0
O194 O 0.83359 0.19893 0.70457 0.0
H195 H 0.90577 0.35271 0.71597 0.0
H196 H 0.92802 0.18827 0.71778 0.0
H197 H 0.74746 0.50087 0.61949 0.0
H198 H 0.65022 0.16314 0.64632 0.0
H199 H 0.67861 0.48367 0.5864 0.0
H200 H 0.57918 0.21581 0.66635 0.0
O201 O 0.8467 0.34471 0.63334 0.0
H202 H 0.9109 0.10312 0.63448 0.0
H203 H 0.9752 0.26871 0.67167 0.0
H204 H 0.03526 0.21308 0.64627 0.0
H205 H 0.00322 0.12953 0.62753 0.0
H206 H 0.85203 0.16019 0.65977 0.0
H207 H 0.99196 0.19759 0.75353 0.0
H208 H 0.01336 0.28588 0.77056 0.0
O209 O 0.89361 0.32476 0.66906 0.0
C210 C 0.78713 0.34789 0.69797 0.0
C211 C 0.96085 0.32514 0.74424 0.0
C212 C 0.97326 0.23184 0.74538 0.0
N213 N 0.91336 0.26992 0.7147 0.0
C214 C 0.92473 0.31861 0.72406 0.0
C215 C 0.9369 0.2268 0.72519 0.0
C216 C 0.98527 0.2814 0.75492 0.0
C217 C 0.70334 0.2283 0.64395 0.0
N218 N 0.71089 0.28022 0.64883 0.0
C219 C 0.65592 0.20433 0.65014 0.0
C220 C 0.61611 0.23389 0.66141 0.0
C221 C 0.62411 0.28684 0.66632 0.0
C222 C 0.67206 0.30947 0.6599 0.0
C223 C 0.68242 0.40022 0.59116 0.0
C224 C 0.75902 0.41925 0.62811 0.0
C225 C 0.70666 0.35923 0.6045 0.0
N226 N 0.74423 0.36907 0.62282 0.0
C227 C 0.73564 0.46121 0.61517 0.0
C228 C 0.69705 0.45153 0.59659 0.0
C229 C 0.88663 0.35051 0.64798 0.0
C230 C 0.92536 0.13936 0.6426 0.0
C231 C 0.9609 0.23254 0.66349 0.0
C232 C 0.99513 0.20112 0.64918 0.0
C233 C 0.97714 0.15423 0.63868 0.0
N234 N 0.91021 0.21762 0.66733 0.0
C235 C 0.89226 0.17176 0.65703 0.0
Co236 Co 0.696 0.22685 0.36167 0.0
Co237 Co 0.74522 0.14176 0.31604 0.0
O238 O 0.75423 0.19318 0.34384 0.0
C239 C 0.75636 0.18486 0.40632 0.0
O240 O 0.7555 0.13916 0.39467 0.0
C241 C 0.82035 0.218 0.29304 0.0
O242 O 0.78686 0.25564 0.29793 0.0
O243 O 0.69761 0.18967 0.29614 0.0
O244 O 0.65468 0.22957 0.32873 0.0
H245 H 0.64343 0.03413 0.25164 0.0
H246 H 0.80239 0.27139 0.36662 0.0
O247 O 0.73569 0.22449 0.39535 0.0
H248 H 0.69576 0.41074 0.32677 0.0
H249 H 0.61538 0.35278 0.4256 0.0
H250 H 0.58069 0.21467 0.36074 0.0
H251 H 0.65611 0.32618 0.33862 0.0
H252 H 0.68805 0.31053 0.40201 0.0
O253 O 0.80856 0.17072 0.29806 0.0
H254 H 0.65471 0.09853 0.28699 0.0
H255 H 0.81912 0.07612 0.2851 0.0
H256 H 0.5069 0.25615 0.38372 0.0
H257 H 0.84356 0.35554 0.35527 0.0
H258 H 0.52402 0.32576 0.41643 0.0
H259 H 0.79013 0.42585 0.33511 0.0
O260 O 0.66358 0.15801 0.36967 0.0
H261 H 0.90464 0.09416 0.36824 0.0
H262 H 0.7389 0.02949 0.33139 0.0
H263 H 0.79465 0.96967 0.35687 0.0
H264 H 0.87828 1.0019 0.37544 0.0
H265 H 0.84745 0.15279 0.34288 0.0
H266 H 0.80962 0.01176 0.24955 0.0
H267 H 0.72125 0.99022 0.23266 0.0
O268 O 0.68287 0.11113 0.33386 0.0
C269 C 0.65935 0.21685 0.30476 0.0
C270 C 0.68213 0.04308 0.25886 0.0
C271 C 0.77541 0.03059 0.25767 0.0
N272 N 0.73749 0.09088 0.28821 0.0
C273 C 0.68877 0.07945 0.27893 0.0
C274 C 0.78056 0.06718 0.27775 0.0
C275 C 0.72581 0.0185 0.24821 0.0
C276 C 0.77881 0.302 0.35809 0.0
N277 N 0.72689 0.29401 0.35341 0.0
C278 C 0.80236 0.34949 0.35161 0.0
C279 C 0.77238 0.38889 0.34027 0.0
C280 C 0.71943 0.38043 0.33557 0.0
C281 C 0.69723 0.33243 0.34227 0.0
C282 C 0.60741 0.32259 0.41135 0.0
C283 C 0.58848 0.24516 0.37482 0.0
C284 C 0.6484 0.29847 0.39796 0.0
N285 N 0.6386 0.26049 0.37985 0.0
C286 C 0.54652 0.26841 0.38783 0.0
C287 C 0.55616 0.30741 0.40619 0.0
C288 C 0.65753 0.11807 0.35506 0.0
C289 C 0.86836 0.07961 0.36019 0.0
C290 C 0.7751 0.04388 0.33949 0.0
C291 C 0.80659 0.00978 0.35385 0.0
C292 C 0.85352 0.02787 0.36425 0.0
N293 N 0.79 0.09453 0.33552 0.0
C294 C 0.8359 0.11258 0.34572 0.0
Co295 Co 0.27456 0.19804 0.86114 0.0
Co296 Co 0.36141 0.24738 0.81629 0.0
O297 O 0.30942 0.25618 0.84384 0.0
C298 C 0.31732 0.25654 0.90612 0.0
O299 O 0.36285 0.25553 0.89431 0.0
C300 C 0.28588 0.32306 0.79316 0.0
O301 O 0.24812 0.28957 0.79773 0.0
O302 O 0.31388 0.2003 0.7959 0.0
O303 O 0.27148 0.1579 0.82788 0.0
H304 H 0.4704 0.14615 0.75216 0.0
H305 H 0.23198 0.30514 0.86686 0.0
O306 O 0.27737 0.23658 0.89514 0.0
H307 H 0.09115 0.20268 0.82573 0.0
H308 H 0.14638 0.1179 0.92407 0.0
H309 H 0.28437 0.08254 0.85919 0.0
H310 H 0.17475 0.16093 0.83752 0.0
H311 H 0.19042 0.19048 0.90125 0.0
O312 O 0.33304 0.31111 0.7984 0.0
H313 H 0.40517 0.15714 0.78718 0.0
H314 H 0.42794 0.3215 0.786 0.0
H315 H 0.24107 0.00885 0.88137 0.0
H316 H 0.14879 0.34839 0.85559 0.0
H317 H 0.17151 0.02631 0.91408 0.0
H318 H 0.07775 0.29707 0.83478 0.0
O319 O 0.34268 0.16394 0.86906 0.0
H320 H 0.40823 0.40575 0.86941 0.0
H321 H 0.47325 0.24029 0.83229 0.0
H322 H 0.53259 0.29532 0.85839 0.0
H323 H 0.50018 0.3788 0.8771 0.0
H324 H 0.35007 0.34927 0.84344 0.0
H325 H 0.49314 0.3123 0.7508 0.0
H326 H 0.51491 0.22411 0.73372 0.0
O327 O 0.39135 0.18461 0.83403 0.0
C328 C 0.28539 0.16263 0.80408 0.0
C329 C 0.46135 0.18478 0.75947 0.0
C330 C 0.47404 0.27804 0.75869 0.0
N331 N 0.41294 0.23988 0.78873 0.0
C332 C 0.42451 0.19125 0.77935 0.0
C333 C 0.43698 0.28302 0.77857 0.0
C334 C 0.48627 0.22854 0.74912 0.0
C335 C 0.20103 0.28247 0.85805 0.0
N336 N 0.20809 0.23055 0.85298 0.0
C337 C 0.15411 0.3072 0.85162 0.0
C338 C 0.11429 0.2784 0.83991 0.0
C339 C 0.12179 0.22544 0.83481 0.0
C340 C 0.16925 0.20204 0.84148 0.0
C341 C 0.17655 0.10979 0.90982 0.0
C342 C 0.25393 0.09048 0.87328 0.0
C343 C 0.20169 0.15072 0.89687 0.0
N344 N 0.23964 0.14075 0.87876 0.0
C345 C 0.22964 0.04858 0.88583 0.0
C346 C 0.19066 0.05841 0.9042 0.0
C347 C 0.38325 0.15831 0.85483 0.0
C348 C 0.42285 0.36953 0.86131 0.0
C349 C 0.45879 0.27643 0.84045 0.0
C350 C 0.49261 0.30751 0.85516 0.0
C351 C 0.47442 0.35436 0.86564 0.0
N352 N 0.4083 0.29164 0.83622 0.0
C353 C 0.39015 0.33747 0.84649 0.0
Co354 Co 0.30818 0.77302 0.36062 0.0
Co355 Co 0.25958 0.86065 0.3159 0.0
O356 O 0.25039 0.80851 0.34334 0.0
C357 C 0.25004 0.8164 0.40555 0.0
O358 O 0.25134 0.86183 0.39365 0.0
C359 C 0.18386 0.78546 0.29271 0.0
O360 O 0.21719 0.74762 0.29747 0.0
O361 O 0.30665 0.81308 0.29549 0.0
O362 O 0.34836 0.76967 0.32736 0.0
H363 H 0.36164 0.96974 0.25217 0.0
H364 H 0.20073 0.73148 0.36635 0.0
O365 O 0.26964 0.77619 0.39462 0.0
H366 H 0.30189 0.5898 0.32503 0.0
H367 H 0.38702 0.64384 0.42347 0.0
H368 H 0.42377 0.7817 0.35872 0.0
H369 H 0.34439 0.67294 0.33688 0.0
H370 H 0.3149 0.68868 0.40067 0.0
O371 O 0.19591 0.83263 0.29785 0.0
H372 H 0.35017 0.90426 0.28703 0.0
H373 H 0.18589 0.9277 0.28561 0.0
H374 H 0.49701 0.73758 0.38089 0.0
H375 H 0.15674 0.64878 0.35502 0.0
H376 H 0.47886 0.66809 0.41354 0.0
H377 H 0.2074 0.57731 0.33412 0.0
O378 O 0.34287 0.84075 0.3686 0.0
H379 H 0.10091 0.90783 0.3688 0.0
H380 H 0.26696 0.97231 0.33216 0.0
H381 H 0.21193 0.0317 0.35826 0.0
H382 H 0.12815 0.99958 0.37674 0.0
H383 H 0.15739 0.84959 0.34282 0.0
H384 H 0.19557 0.99317 0.25056 0.0
H385 H 0.28396 0.01473 0.23368 0.0
O386 O 0.32231 0.89016 0.3338 0.0
C387 C 0.34396 0.78404 0.30362 0.0
C388 C 0.32292 0.96078 0.25939 0.0
C389 C 0.22971 0.97386 0.25847 0.0
N390 N 0.26744 0.91235 0.28845 0.0
C391 C 0.31618 0.9238 0.27918 0.0
C392 C 0.22446 0.93665 0.27826 0.0
C393 C 0.27932 0.98597 0.24902 0.0
C394 C 0.22312 0.70034 0.3575 0.0
N395 N 0.27509 0.70691 0.35241 0.0
C396 C 0.19797 0.65369 0.35104 0.0
C397 C 0.2264 0.61363 0.33927 0.0
C398 C 0.27941 0.62063 0.33415 0.0
C399 C 0.30324 0.66783 0.34086 0.0
C400 C 0.39544 0.67397 0.40924 0.0
C401 C 0.41552 0.75128 0.37278 0.0
C402 C 0.35476 0.69956 0.3963 0.0
N403 N 0.36512 0.73746 0.37822 0.0
C404 C 0.45718 0.72653 0.38533 0.0
C405 C 0.44696 0.68759 0.40366 0.0
C406 C 0.34862 0.88154 0.35455 0.0
C407 C 0.13725 0.92233 0.3608 0.0
C408 C 0.23068 0.95796 0.34021 0.0
C409 C 0.19961 0.99182 0.35493 0.0
C410 C 0.1526 0.97378 0.36527 0.0
N411 N 0.21531 0.90758 0.33584 0.0
C412 C 0.16931 0.88959 0.34598 0.0
Co413 Co 0.73051 0.81146 0.86121 0.0
Co414 Co 0.64525 0.76238 0.8156 0.0
O415 O 0.69661 0.75334 0.84343 0.0
C416 C 0.68766 0.75161 0.90579 0.0
O417 O 0.64219 0.75255 0.89391 0.0
C418 C 0.72164 0.68712 0.79279 0.0
O419 O 0.75925 0.72046 0.79789 0.0
O420 O 0.69315 0.80994 0.79569 0.0
O421 O 0.7338 0.85244 0.82818 0.0
H422 H 0.53762 0.86424 0.75115 0.0
H423 H 0.77424 0.70474 0.86654 0.0
O424 O 0.72754 0.77208 0.89498 0.0
H425 H 0.91471 0.80981 0.82671 0.0
H426 H 0.85646 0.8916 0.92521 0.0
H427 H 0.71931 0.92686 0.8599 0.0
H428 H 0.83034 0.85028 0.83827 0.0
H429 H 0.81381 0.81906 0.90174 0.0
O430 O 0.6743 0.69903 0.79763 0.0
H431 H 0.60197 0.85292 0.78653 0.0
H432 H 0.57973 0.68851 0.78465 0.0
H433 H 0.76121 1.00052 0.88274 0.0
H434 H 0.85819 0.66276 0.8555 0.0
H435 H 0.83033 0.98311 0.91568 0.0
H436 H 0.92906 0.71539 0.83535 0.0
O437 O 0.66185 0.84453 0.869 0.0
H438 H 0.59767 0.60296 0.86781 0.0
H439 H 0.53299 0.7688 0.83095 0.0
H440 H 0.4732 0.71312 0.85645 0.0
H441 H 0.50543 0.62944 0.87503 0.0
H442 H 0.65628 0.66008 0.84243 0.0
H443 H 0.51542 0.69804 0.74907 0.0
H444 H 0.49383 0.78642 0.73216 0.0
O445 O 0.61458 0.82475 0.8334 0.0
C446 C 0.72083 0.84788 0.80424 0.0
C447 C 0.5466 0.82552 0.75839 0.0
C448 C 0.53421 0.73224 0.7572 0.0
N449 N 0.59441 0.77013 0.78775 0.0
C450 C 0.58294 0.81887 0.77847 0.0
C451 C 0.57077 0.72708 0.77729 0.0
C452 C 0.52208 0.78185 0.74773 0.0
C453 C 0.8051 0.72798 0.85802 0.0
N454 N 0.79751 0.77992 0.85318 0.0
C455 C 0.85246 0.70397 0.85171 0.0
C456 C 0.89218 0.7335 0.84037 0.0
C457 C 0.88415 0.78648 0.83551 0.0
C458 C 0.83625 0.80915 0.84204 0.0
C459 C 0.82648 0.89969 0.91086 0.0
C460 C 0.74958 0.91895 0.87408 0.0
C461 C 0.80213 0.85878 0.89755 0.0
N462 N 0.76441 0.86873 0.87931 0.0
C463 C 0.77307 0.96083 0.88701 0.0
C464 C 0.81181 0.95103 0.9055 0.0
C465 C 0.62176 0.8504 0.85448 0.0
C466 C 0.58312 0.63926 0.85976 0.0
C467 C 0.54738 0.73257 0.83905 0.0
C468 C 0.5133 0.70113 0.85342 0.0
C469 C 0.53139 0.65417 0.86383 0.0
N470 N 0.59803 0.71762 0.83507 0.0
C471 C 0.61608 0.67168 0.84527 0.0
C472 C 0.28054 0.26458 0.0581 0.0
C473 C 0.27346 0.31387 0.06955 0.0
C474 C 0.29267 0.25957 0.0315 0.0
C475 C 0.29749 0.30493 0.01586 0.0
C476 C 0.29267 0.35489 0.02751 0.0
C477 C 0.28092 0.35879 0.05428 0.0
C478 C 0.29805 0.20555 0.01993 0.0
C479 C 0.29737 0.40413 0.01145 0.0
C480 C 0.35749 0.28393 0.94867 0.0
C481 C 0.31281 0.27561 0.93336 0.0
C482 C 0.35324 0.29563 0.97543 0.0
C483 C 0.30315 0.29949 0.98703 0.0
C484 C 0.25797 0.29381 0.97134 0.0
C485 C 0.26334 0.28179 0.94476 0.0
C486 C 0.40231 0.3013 0.99153 0.0
C487 C 0.2038 0.29815 0.98287 0.0
H488 H 0.27535 0.22966 0.0698 0.0
H489 H 0.2755 0.39702 0.06297 0.0
H490 H 0.26551 0.19829 0.00608 0.0
H491 H 0.33504 0.20237 0.00874 0.0
H492 H 0.29748 0.1745 0.0351 0.0
H493 H 0.298 0.43979 0.02382 0.0
H494 H 0.33341 0.40316 0.99943 0.0
H495 H 0.26377 0.4069 0.99783 0.0
H496 H 0.39587 0.27926 0.94002 0.0
H497 H 0.22858 0.27593 0.93302 0.0
H498 H 0.40569 0.26774 0.00515 0.0
H499 H 0.40057 0.33729 0.00356 0.0
H500 H 0.438 0.30266 0.97919 0.0
H501 H 0.19709 0.26541 0.99668 0.0
H502 H 0.17285 0.29705 0.96767 0.0
H503 H 0.19989 0.33502 0.99409 0.0
C504 C 0.14924 0.78271 0.5541 0.0
C505 C 0.19423 0.77487 0.56926 0.0
C506 C 0.15296 0.7941 0.52729 0.0
C507 C 0.20284 0.79814 0.51548 0.0
C508 C 0.24832 0.79291 0.53099 0.0
C509 C 0.24347 0.78118 0.55764 0.0
C510 C 0.1036 0.79928 0.51137 0.0
C511 C 0.30226 0.79747 0.51923 0.0
C512 C 0.22466 0.76306 0.44438 0.0
C513 C 0.23123 0.81235 0.43285 0.0
C514 C 0.21294 0.75807 0.47102 0.0
C515 C 0.208 0.80347 0.48662 0.0
C516 C 0.21226 0.85341 0.4749 0.0
C517 C 0.22362 0.85727 0.44809 0.0
C518 C 0.20814 0.70407 0.48268 0.0
C519 C 0.20739 0.90269 0.49091 0.0
H520 H 0.11104 0.77792 0.56292 0.0
H521 H 0.27846 0.77568 0.56925 0.0
H522 H 0.10483 0.83521 0.49927 0.0
H523 H 0.10031 0.76561 0.49782 0.0
H524 H 0.06809 0.80045 0.52385 0.0
H525 H 0.33347 0.79661 0.53431 0.0
H526 H 0.30895 0.7647 0.50544 0.0
H527 H 0.30575 0.83431 0.50795 0.0
H528 H 0.22998 0.72812 0.4327 0.0
H529 H 0.22861 0.89551 0.43934 0.0
H530 H 0.17137 0.70072 0.49404 0.0
H531 H 0.24097 0.69707 0.4964 0.0
H532 H 0.20868 0.67297 0.46755 0.0
H533 H 0.17154 0.90153 0.50307 0.0
H534 H 0.2063 0.93829 0.4785 0.0
H535 H 0.24117 0.90575 0.50441 0.0
C536 C 0.72444 0.74106 0.05769 0.0
C537 C 0.73159 0.69161 0.06896 0.0
C538 C 0.71226 0.74648 0.03113 0.0
C539 C 0.70744 0.70135 0.01533 0.0
C540 C 0.71231 0.65122 0.02679 0.0
C541 C 0.72413 0.64692 0.05354 0.0
C542 C 0.70681 0.80067 0.01975 0.0
C543 C 0.70761 0.60222 0.01057 0.0
C544 C 0.64744 0.7234 0.94822 0.0
C545 C 0.69213 0.73201 0.93294 0.0
C546 C 0.65168 0.71126 0.97494 0.0
C547 C 0.70177 0.70723 0.98652 0.0
C548 C 0.74696 0.71319 0.97084 0.0
C549 C 0.7416 0.72566 0.94431 0.0
C550 C 0.60261 0.70531 0.99102 0.0
C551 C 0.80112 0.70869 0.98235 0.0
H552 H 0.72964 0.77581 0.06952 0.0
H553 H 0.72958 0.60856 0.06209 0.0
H554 H 0.73935 0.80817 0.00592 0.0
H555 H 0.66982 0.80398 0.00858 0.0
H556 H 0.70736 0.83148 0.03504 0.0
H557 H 0.70699 0.56637 0.02281 0.0
H558 H 0.67156 0.60336 0.99856 0.0
H559 H 0.7412 0.59966 0.99692 0.0
H560 H 0.60907 0.72821 0.9396 0.0
H561 H 0.77636 0.73175 0.93259 0.0
H562 H 0.59919 0.73867 0.00475 0.0
H563 H 0.60438 0.66915 0.00293 0.0
H564 H 0.56693 0.70409 0.97868 0.0
H565 H 0.80782 0.74122 0.99628 0.0
H566 H 0.83208 0.71004 0.96714 0.0
H567 H 0.80505 0.67165 0.99343 0.0
C568 C 0.78452 0.14558 0.44898 0.0
C569 C 0.77606 0.18992 0.43342 0.0
C570 C 0.79668 0.15043 0.47566 0.0
C571 C 0.80089 0.20078 0.48693 0.0
C572 C 0.7951 0.24561 0.47098 0.0
C573 C 0.78259 0.23964 0.44448 0.0
C574 C 0.80243 0.10173 0.49205 0.0
C575 C 0.79982 0.30003 0.48214 0.0
C576 C 0.76718 0.2253 0.55799 0.0
C577 C 0.81666 0.23237 0.56921 0.0
C578 C 0.7617 0.21257 0.53149 0.0
C579 C 0.8068 0.20714 0.5157 0.0
C580 C 0.85695 0.21198 0.52713 0.0
C581 C 0.86131 0.22433 0.55382 0.0
C582 C 0.70749 0.20718 0.52016 0.0
C583 C 0.90593 0.20665 0.51092 0.0
H584 H 0.77956 0.10702 0.44059 0.0
H585 H 0.77662 0.27414 0.43255 0.0
H586 H 0.83861 0.1036 0.50393 0.0
H587 H 0.76907 0.09883 0.50581 0.0
H588 H 0.8035 0.06574 0.47993 0.0
H589 H 0.79863 0.33061 0.46674 0.0
H590 H 0.7673 0.30726 0.49602 0.0
H591 H 0.83686 0.30404 0.4932 0.0
H592 H 0.73246 0.23095 0.5698 0.0
H593 H 0.89969 0.22974 0.56233 0.0
H594 H 0.704 0.16993 0.50922 0.0
H595 H 0.70015 0.23942 0.50613 0.0
H596 H 0.67669 0.20829 0.53545 0.0
H597 H 0.90466 0.17031 0.49914 0.0
H598 H 0.94178 0.2062 0.52315 0.0
H599 H 0.90858 0.23988 0.49706 0.0
C600 C 0.41349 0.30749 0.21802 0.0
C601 C 0.37319 0.27052 0.22015 0.0
C602 C 0.4631 0.29811 0.22875 0.0
C603 C 0.47259 0.25103 0.24247 0.0
C604 C 0.43251 0.21291 0.24412 0.0
C605 C 0.38344 0.22289 0.2327 0.0
C606 C 0.50486 0.33943 0.22611 0.0
C607 C 0.44065 0.16259 0.25897 0.0
C608 C 0.61168 0.21146 0.26151 0.0
C609 C 0.61458 0.22998 0.2873 0.0
C610 C 0.56613 0.21875 0.24641 0.0
C611 C 0.52223 0.24435 0.25749 0.0
C612 C 0.52542 0.26399 0.28326 0.0
C613 C 0.57149 0.25719 0.29762 0.0
C614 C 0.56461 0.19825 0.21879 0.0
C615 C 0.47956 0.29109 0.29603 0.0
H616 H 0.40621 0.34411 0.208 0.0
H617 H 0.35259 0.1941 0.23436 0.0
H618 H 0.51269 0.35721 0.24548 0.0
H619 H 0.54193 0.32172 0.21919 0.0
H620 H 0.49334 0.37098 0.21236 0.0
H621 H 0.40717 0.13534 0.25679 0.0
H622 H 0.47666 0.14269 0.25216 0.0
H623 H 0.4459 0.17131 0.28005 0.0
H624 H 0.64448 0.1903 0.2533 0.0
H625 H 0.57295 0.27207 0.31742 0.0
H626 H 0.55328 0.22996 0.20512 0.0
H627 H 0.53461 0.16718 0.21716 0.0
H628 H 0.60284 0.18197 0.21251 0.0
H629 H 0.4685 0.32625 0.28463 0.0
H630 H 0.48808 0.30324 0.31642 0.0
H631 H 0.44521 0.26466 0.29625 0.0
C632 C 0.19905 0.91688 0.71606 0.0
C633 C 0.23471 0.87588 0.7199 0.0
C634 C 0.20799 0.96671 0.72662 0.0
C635 C 0.2531 0.97566 0.74196 0.0
C636 C 0.28996 0.9348 0.74537 0.0
C637 C 0.28061 0.88555 0.73403 0.0
C638 C 0.16821 0.00932 0.72203 0.0
C639 C 0.33808 0.94237 0.762 0.0
C640 C 0.29395 0.11413 0.76123 0.0
C641 C 0.27222 0.11836 0.78634 0.0
C642 C 0.28721 0.06841 0.74621 0.0
C643 C 0.25875 0.02573 0.75669 0.0
C644 C 0.23559 0.03044 0.78167 0.0
C645 C 0.24204 0.07666 0.79596 0.0
C646 C 0.31154 0.06529 0.71941 0.0
C647 C 0.20525 0.98593 0.79377 0.0
H648 H 0.16383 0.90998 0.70483 0.0
H649 H 0.30835 0.8541 0.73702 0.0
H650 H 0.1477 0.01835 0.74059 0.0
H651 H 0.18781 0.04568 0.71546 0.0
H652 H 0.13859 0.99799 0.70722 0.0
H653 H 0.36468 0.90809 0.76125 0.0
H654 H 0.35991 0.97749 0.75555 0.0
H655 H 0.32633 0.94892 0.78261 0.0
H656 H 0.31741 0.14587 0.75358 0.0
H657 H 0.22463 0.07922 0.81521 0.0
H658 H 0.28173 0.05376 0.70477 0.0
H659 H 0.34235 0.03479 0.71925 0.0
H660 H 0.32927 0.10298 0.71331 0.0
H661 H 0.17173 0.97531 0.78113 0.0
H662 H 0.19015 0.99569 0.81353 0.0
H663 H 0.23061 0.95089 0.79539 0.0
C664 C 0.3928 0.7929 0.26088 0.0
C665 C 0.3883 0.77085 0.28591 0.0
C666 C 0.43861 0.78618 0.24592 0.0
C667 C 0.48113 0.75742 0.25637 0.0
C668 C 0.47616 0.73393 0.28126 0.0
C669 C 0.42984 0.74036 0.29549 0.0
C670 C 0.44201 0.81086 0.2192 0.0
C671 C 0.5205 0.70327 0.29334 0.0
C672 C 0.59006 0.69785 0.21567 0.0
C673 C 0.63111 0.73333 0.21966 0.0
C674 C 0.5402 0.70682 0.22621 0.0
C675 C 0.53128 0.75176 0.24169 0.0
C676 C 0.57221 0.78844 0.24526 0.0
C677 C 0.62148 0.77908 0.23393 0.0
C678 C 0.49752 0.66724 0.22145 0.0
C679 C 0.56468 0.83636 0.26204 0.0
H680 H 0.3612 0.8166 0.25325 0.0
H681 H 0.42707 0.7227 0.31468 0.0
H682 H 0.47258 0.84154 0.21919 0.0
H683 H 0.45356 0.78119 0.20448 0.0
H684 H 0.40441 0.82881 0.2131 0.0
H685 H 0.51054 0.68796 0.31304 0.0
H686 H 0.53111 0.66986 0.28061 0.0
H687 H 0.55558 0.72847 0.2951 0.0
H688 H 0.59694 0.66274 0.20433 0.0
H689 H 0.65298 0.80667 0.23704 0.0
H690 H 0.46126 0.68706 0.2149 0.0
H691 H 0.48833 0.64655 0.23993 0.0
H692 H 0.50887 0.63776 0.20656 0.0
H693 H 0.52966 0.85843 0.25563 0.0
H694 H 0.59904 0.86284 0.26144 0.0
H695 H 0.55796 0.82435 0.28261 0.0
C696 C 0.72746 0.1248 0.73348 0.0
C697 C 0.77423 0.13451 0.72007 0.0
C698 C 0.71764 0.0757 0.74489 0.0
C699 C 0.75497 0.03502 0.74232 0.0
C700 C 0.80109 0.04401 0.72773 0.0
C701 C 0.8104 0.09369 0.71706 0.0
C702 C 0.66841 0.06809 0.76069 0.0
C703 C 0.84147 1.00161 0.72408 0.0
C704 C 0.76309 0.93467 0.79679 0.0
C705 C 0.7342 0.89248 0.78673 0.0
C706 C 0.76996 0.98088 0.78252 0.0
C707 C 0.74856 0.98512 0.75714 0.0
C708 C 0.7213 0.94204 0.74629 0.0
C709 C 0.7141 0.89633 0.76127 0.0
C710 C 0.79895 0.02582 0.79503 0.0
C711 C 0.69884 0.94468 0.71907 0.0
H712 H 0.6993 0.1561 0.73582 0.0
H713 H 0.84633 0.10059 0.70638 0.0
H714 H 0.6473 0.03269 0.75403 0.0
H715 H 0.67871 0.062 0.78153 0.0
H716 H 0.64164 0.10216 0.75931 0.0
H717 H 0.87216 0.01293 0.7098 0.0
H718 H 0.86056 0.99296 0.74305 0.0
H719 H 0.82263 0.96503 0.71727 0.0
H720 H 0.77921 0.93245 0.81632 0.0
H721 H 0.69163 0.86422 0.75327 0.0
H722 H 0.77321 0.06066 0.79603 0.0
H723 H 0.83334 0.03655 0.78299 0.0
H724 H 0.81261 0.01645 0.8151 0.0
H725 H 0.66809 0.97518 0.71823 0.0
H726 H 0.68156 0.90688 0.71284 0.0
H727 H 0.72968 0.95594 0.70491 0.0
C728 C 0.91396 0.19396 0.28592 0.0
C729 C 0.87302 0.22982 0.28242 0.0
C730 C 0.96374 0.20309 0.27534 0.0
C731 C 0.97271 0.24866 0.26033 0.0
C732 C 0.9319 0.28568 0.25724 0.0
C733 C 0.88269 0.2761 0.26859 0.0
C734 C 0.00629 0.16308 0.27957 0.0
C735 C 0.93949 0.3343 0.24096 0.0
C736 C 0.11127 0.28996 0.24145 0.0
C737 C 0.11555 0.26909 0.21617 0.0
C738 C 0.06549 0.28279 0.25639 0.0
C739 C 0.02281 0.25476 0.24565 0.0
C740 C 0.02756 0.23244 0.22049 0.0
C741 C 0.07383 0.23933 0.20628 0.0
C742 C 0.06232 0.30623 0.28338 0.0
C743 C 0.98305 0.20257 0.20812 0.0
H744 H 0.90707 0.15843 0.29693 0.0
H745 H 0.85129 0.304 0.26586 0.0
H746 H 0.01533 0.14327 0.26083 0.0
H747 H 0.04266 0.1824 0.28632 0.0
H748 H 0.99491 0.13293 0.29411 0.0
H749 H 0.90521 0.36087 0.24189 0.0
H750 H 0.97459 0.35593 0.24759 0.0
H751 H 0.94611 0.32317 0.22027 0.0
H752 H 0.14303 0.31309 0.24933 0.0
H753 H 0.07643 0.22258 0.18688 0.0
H754 H 0.05083 0.27591 0.29778 0.0
H755 H 0.03178 0.33698 0.28379 0.0
H756 H 0.09998 0.32381 0.28962 0.0
H757 H 0.97235 0.16865 0.22049 0.0
H758 H 0.99286 0.18809 0.18825 0.0
H759 H 0.94806 0.22802 0.20668 0.0
C760 C 0.26748 0.57706 0.70675 0.0
C761 C 0.23708 0.61864 0.71635 0.0
C762 C 0.27396 0.53078 0.721 0.0
C763 C 0.2506 0.52588 0.74592 0.0
C764 C 0.22197 0.56847 0.7564 0.0
C765 C 0.21521 0.61425 0.74142 0.0
C766 C 0.30449 0.48637 0.7089 0.0
C767 C 0.19742 0.56516 0.78315 0.0
C768 C 0.22859 0.3856 0.76837 0.0
C769 C 0.27433 0.37584 0.78262 0.0
C770 C 0.21935 0.4349 0.75704 0.0
C771 C 0.25616 0.47572 0.76059 0.0
C772 C 0.30112 0.46666 0.77604 0.0
C773 C 0.30995 0.41678 0.78658 0.0
C774 C 0.1714 0.44259 0.7403 0.0
C775 C 0.34084 0.50922 0.78077 0.0
H776 H 0.28501 0.57975 0.68753 0.0
H777 H 0.19158 0.6459 0.74907 0.0
H778 H 0.33789 0.47565 0.72162 0.0
H779 H 0.2792 0.45135 0.70715 0.0
H780 H 0.3198 0.4963 0.68921 0.0
H781 H 0.17965 0.60282 0.78928 0.0
H782 H 0.16662 0.5347 0.78319 0.0
H783 H 0.22712 0.55348 0.79783 0.0
H784 H 0.20088 0.3542 0.76529 0.0
H785 H 0.34505 0.40981 0.79791 0.0
H786 H 0.18336 0.44933 0.71973 0.0
H787 H 0.14944 0.47764 0.74676 0.0
H788 H 0.14485 0.40829 0.74091 0.0
H789 H 0.36149 0.51837 0.76227 0.0
H790 H 0.37034 0.49778 0.79562 0.0
H791 H 0.32116 0.54554 0.78735 0.0
C792 C 0.12124 0.72771 0.2683 0.0
C793 C 0.13112 0.77393 0.28213 0.0
C794 C 0.07197 0.7183 0.25701 0.0
C795 C 0.03129 0.75546 0.26016 0.0
C796 C 0.04046 0.80097 0.27517 0.0
C797 C 0.09032 0.80992 0.28569 0.0
C798 C 0.06416 0.66974 0.24073 0.0
C799 C 0.99805 0.84109 0.27946 0.0
C800 C 0.93041 0.76511 0.20606 0.0
C801 C 0.88864 0.73529 0.21588 0.0
C802 C 0.97659 0.77196 0.22032 0.0
C803 C 0.9812 0.74958 0.24548 0.0
C804 C 0.93843 0.72156 0.25617 0.0
C805 C 0.89275 0.7144 0.24117 0.0
C806 C 0.02119 0.8018 0.208 0.0
C807 C 0.94145 0.69808 0.28316 0.0
H808 H 0.15253 0.6997 0.26553 0.0
H809 H 0.09737 0.84541 0.2967 0.0
H810 H 0.029 0.64822 0.24738 0.0
H811 H 0.05755 0.68093 0.22004 0.0
H812 H 0.09835 0.64305 0.24162 0.0
H813 H 0.00954 0.87112 0.29404 0.0
H814 H 0.98908 0.86105 0.26075 0.0
H815 H 0.96161 0.82187 0.2862 0.0
H816 H 0.92793 0.78189 0.18666 0.0
H817 H 0.86095 0.69124 0.249 0.0
H818 H 0.05612 0.77628 0.20653 0.0
H819 H 0.03195 0.83564 0.22041 0.0
H820 H 0.01145 0.81641 0.18814 0.0
H821 H 0.97178 0.66713 0.28356 0.0
H822 H 0.90367 0.68074 0.2894 0.0
H823 H 0.95313 0.7283 0.29756 0.0
C824 C 0.74493 0.43477 0.70536 0.0
C825 C 0.77365 0.39247 0.71547 0.0
C826 C 0.73802 0.48096 0.71962 0.0
C827 C 0.75918 0.48508 0.74506 0.0
C828 C 0.78624 0.44189 0.75597 0.0
C829 C 0.7935 0.39619 0.74098 0.0
C830 C 0.70925 0.52603 0.70706 0.0
C831 C 0.80844 0.44439 0.78324 0.0
C832 C 0.78043 0.62464 0.76879 0.0
C833 C 0.73356 0.63451 0.7821 0.0
C834 C 0.79023 0.57552 0.75739 0.0
C835 C 0.75277 0.53498 0.75987 0.0
C836 C 0.70654 0.54412 0.77435 0.0
C837 C 0.69726 0.59381 0.78501 0.0
C838 C 0.83959 0.56775 0.74171 0.0
C839 C 0.66601 0.50186 0.77791 0.0
H840 H 0.729 0.43264 0.68578 0.0
H841 H 0.81583 0.36399 0.74902 0.0
H842 H 0.73509 0.56078 0.70612 0.0
H843 H 0.69576 0.51675 0.68696 0.0
H844 H 0.67478 0.53686 0.71902 0.0
H845 H 0.82554 0.4065 0.7895 0.0
H846 H 0.83928 0.47475 0.78416 0.0
H847 H 0.7775 0.45576 0.79733 0.0
H848 H 0.80869 0.65584 0.76651 0.0
H849 H 0.66125 0.60082 0.79561 0.0
H850 H 0.82947 0.5617 0.72084 0.0
H851 H 0.86055 0.53227 0.74842 0.0
H852 H 0.86642 0.60172 0.74315 0.0
H853 H 0.64708 0.49331 0.75889 0.0
H854 H 0.63522 0.51328 0.79211 0.0
H855 H 0.68469 0.46521 0.78475 0.0
C856 C 0.89478 0.53785 0.15662 0.0
C857 C 0.89056 0.58409 0.142 0.0
C858 C 0.93784 0.50457 0.1538 0.0
C859 C 0.9779 0.51775 0.13592 0.0
C860 C 0.97267 0.56279 0.12006 0.0
C861 C 0.92896 0.59544 0.12325 0.0
C862 C 0.94176 0.45677 0.17103 0.0
C863 C 0.01456 0.57801 0.10076 0.0
C864 C 0.11007 0.46685 0.15696 0.0
C865 C 0.11442 0.42063 0.14235 0.0
C866 C 0.0671 0.50021 0.15399 0.0
C867 C 0.02727 0.48711 0.13598 0.0
C868 C 0.03264 0.44209 0.12014 0.0
C869 C 0.07626 0.40937 0.12347 0.0
C870 C 0.063 0.54799 0.17122 0.0
C871 C 0.991 0.42694 0.1007 0.0
H872 H 0.86525 0.52837 0.17104 0.0
H873 H 0.9261 0.63096 0.11181 0.0
H874 H 0.95047 0.42164 0.15912 0.0
H875 H 0.97437 0.46175 0.1851 0.0
H876 H 0.90531 0.44962 0.18227 0.0
H877 H 1.00177 0.61026 0.08771 0.0
H878 H 0.04992 0.59093 0.11149 0.0
H879 H 0.02593 0.54398 0.0886 0.0
H880 H 0.13941 0.47627 0.17147 0.0
H881 H 0.07922 0.37387 0.11203 0.0
H882 H 0.03023 0.543 0.1852 0.0
H883 H 0.05442 0.58314 0.15929 0.0
H884 H 0.09933 0.55511 0.18254 0.0
H885 H 0.9555 0.414 0.11132 0.0
H886 H 0.00395 0.39472 0.08768 0.0
H887 H 0.9798 0.461 0.08853 0.0
C888 C 0.97089 0.39666 0.65649 0.0
C889 C 0.92497 0.39207 0.64166 0.0
C890 C 0.00417 0.43966 0.65354 0.0
C891 C 0.99132 0.47923 0.63533 0.0
C892 C 0.9467 0.47353 0.61925 0.0
C893 C 0.91403 0.42992 0.62257 0.0
C894 C 0.05152 0.44411 0.67104 0.0
C895 C 0.93186 0.51487 0.59957 0.0
C896 C 0.04086 0.61206 0.656 0.0
C897 C 0.08751 0.61627 0.64172 0.0
C898 C 0.00783 0.56889 0.65302 0.0
C899 C 0.02168 0.52873 0.63533 0.0
C900 C 0.06714 0.53395 0.61978 0.0
C901 C 0.09953 0.57776 0.62312 0.0
C902 C 0.95957 0.56495 0.66993 0.0
C903 C 0.08307 0.49197 0.60067 0.0
H904 H 0.98007 0.36755 0.67116 0.0
H905 H 0.87878 0.42674 0.61095 0.0
H906 H 0.08691 0.45269 0.65929 0.0
H907 H 0.04605 0.477 0.6849 0.0
H908 H 0.05855 0.40792 0.68251 0.0
H909 H 0.90015 0.50158 0.58633 0.0
H910 H 0.91833 0.5504 0.60998 0.0
H911 H 0.96621 0.52615 0.58762 0.0
H912 H 0.03086 0.64167 0.67028 0.0
H913 H 0.13537 0.58062 0.61194 0.0
H914 H 0.96431 0.53249 0.68411 0.0
H915 H 0.92482 0.55601 0.6578 0.0
H916 H 0.95194 0.60148 0.68102 0.0
H917 H 0.09602 0.45679 0.61157 0.0
H918 H 0.11551 0.50483 0.58776 0.0
H919 H 0.0494 0.48026 0.58836 0.0
C920 C 0.61105 0.03398 0.34665 0.0
C921 C 0.616 0.07981 0.36151 0.0
C922 C 0.56788 1.00094 0.34963 0.0
C923 C 0.52851 0.01395 0.36792 0.0
C924 C 0.53464 0.0584 0.38409 0.0
C925 C 0.57841 0.09083 0.38073 0.0
C926 C 0.56299 0.95376 0.33204 0.0
C927 C 0.49355 0.07337 0.40387 0.0
C928 C 0.3953 0.9659 0.34707 0.0
C929 C 0.39073 0.91905 0.36115 0.0
C930 C 0.43871 0.99854 0.3502 0.0
C931 C 0.47873 0.98409 0.36785 0.0
C932 C 0.4731 0.93847 0.38324 0.0
C933 C 0.42907 0.90646 0.37974 0.0
C934 C 0.44308 0.047 0.33346 0.0
C935 C 0.5149 0.92191 0.40231 0.0
H936 H 0.63999 0.02472 0.3319 0.0
H937 H 0.58188 0.126 0.39238 0.0
H938 H 0.55409 0.91836 0.34372 0.0
H939 H 0.53014 0.95965 0.3182 0.0
H940 H 0.5991 0.94649 0.32055 0.0
H941 H 0.45817 0.08756 0.39355 0.0
H942 H 0.48186 0.03895 0.41567 0.0
H943 H 0.50728 0.10467 0.41724 0.0
H944 H 0.36581 0.97634 0.3328 0.0
H945 H 0.42591 0.87046 0.39078 0.0
H946 H 0.4755 0.04216 0.31926 0.0
H947 H 0.45236 0.0815 0.34572 0.0
H948 H 0.40662 0.05512 0.3224 0.0
H949 H 0.54989 0.90857 0.39139 0.0
H950 H 0.50165 0.88956 0.41518 0.0
H951 H 0.52705 0.95537 0.41467 0.0
C952 C 0.46781 0.11214 0.84702 0.0
C953 C 0.42113 0.11638 0.86128 0.0
C954 C 0.5008 0.0689 0.84999 0.0
C955 C 0.48688 0.0287 0.86764 0.0
C956 C 0.44143 0.03398 0.88319 0.0
C957 C 0.40906 0.07786 0.87986 0.0
C958 C 0.54906 0.06491 0.83307 0.0
C959 C 0.42543 0.99198 0.90227 0.0
C960 C 0.53743 0.89671 0.8462 0.0
C961 C 0.58344 0.89193 0.86095 0.0
C962 C 0.50417 0.93971 0.84928 0.0
C963 C 0.51712 0.9791 0.86756 0.0
C964 C 0.56182 0.97318 0.88358 0.0
C965 C 0.59448 0.92957 0.88011 0.0
C966 C 0.45674 0.9444 0.83185 0.0
C967 C 0.57676 0.0143 0.90334 0.0
H968 H 0.47786 0.14176 0.83276 0.0
H969 H 0.3732 0.08075 0.89103 0.0
H970 H 0.58379 0.05579 0.8452 0.0
H971 H 0.54426 0.03254 0.81886 0.0
H972 H 0.55675 0.10148 0.82203 0.0
H973 H 0.39312 0.00494 0.91524 0.0
H974 H 0.41227 0.95694 0.89136 0.0
H975 H 0.45913 0.98002 0.91453 0.0
H976 H 0.52817 0.86774 0.83148 0.0
H977 H 0.6298 0.92624 0.89167 0.0
H978 H 0.46221 0.97737 0.81803 0.0
H979 H 0.42142 0.953 0.84365 0.0
H980 H 0.44961 0.90831 0.82034 0.0
H981 H 0.59044 0.04985 0.89299 0.0
H982 H 0.60841 1.00076 0.91656 0.0
H983 H 0.54243 0.02566 0.91529 0.0
loop_
_geom_bond_atom_site_label_1
_geom_bond_atom_site_label_2
_geom_bond_distance
_geom_bond_site_symmetry_2
_ccdc_geom_bond_type
Co0 O2 2.143 . S
Co0 O8 2.074 . S
Co0 O11 2.093 . S
Co0 O24 2.097 . S
Co0 N41 2.151 . S
Co0 N49 2.214 . S
Co1 O2 2.160 . S
Co1 O7 2.058 . S
Co1 O17 2.057 . S
Co1 O32 2.037 . S
Co1 N36 2.145 . S
Co1 N57 2.257 . S
O2 Co0 2.143 . S
O2 Co1 2.160 . S
C3 O4 1.278 . S
C3 O11 1.224 . S
O4 C3 1.278 . S
C5 O6 1.245 . S
C5 O17 1.232 . S
O6 C5 1.245 . S
O7 Co1 2.058 . S
O7 C33 1.269 . S
O8 Co0 2.074 . S
O8 C33 1.257 . S
H9 C34 0.930 . S
H10 C40 0.930 . S
O11 Co0 2.093 . S
O11 C3 1.224 . S
H12 C44 0.929 . S
H13 C46 0.930 . S
H14 C47 0.930 . S
H15 C45 0.929 . S
H16 C48 0.928 . S
O17 Co1 2.057 . S
O17 C5 1.232 . S
H18 C37 0.929 . S
H19 C38 0.929 . S
H20 C50 0.931 . S
H21 C42 0.929 . S
H22 C51 0.930 . S
H23 C43 0.931 . S
O24 Co0 2.097 . S
O24 C52 1.214 . S
H25 C53 0.929 . S
H26 C54 0.929 . S
H27 C55 0.930 . S
H28 C56 0.929 . S
H29 C58 0.930 . S
H30 C35 0.930 . S
H31 C39 0.930 . S
O32 Co1 2.037 . S
O32 C52 1.234 . S
C33 O7 1.269 . S
C33 O8 1.257 . S
C34 H9 0.930 . S
C34 C37 1.388 . S
C34 C39 1.418 . S
C35 H30 0.930 . S
C35 C38 1.404 . S
C35 C39 1.353 . S
N36 Co1 2.145 . S
N36 C37 1.397 . S
N36 C38 1.334 . S
C37 H18 0.929 . S
C37 C34 1.388 . S
C37 N36 1.397 . S
C38 H19 0.929 . S
C38 C35 1.404 . S
C38 N36 1.334 . S
C39 H31 0.930 . S
C39 C34 1.418 . S
C39 C35 1.353 . S
C40 H10 0.930 . S
C40 N41 1.330 . S
C40 C42 1.446 . S
N41 Co0 2.151 . S
N41 C40 1.330 . S
N41 C45 1.418 . S
C42 H21 0.929 . S
C42 C40 1.446 . S
C42 C43 1.332 . S
C43 H23 0.931 . S
C43 C42 1.332 . S
C43 C44 1.267 . S
C44 H12 0.929 . S
C44 C43 1.267 . S
C44 C45 1.251 . S
C45 H15 0.929 . S
C45 N41 1.418 . S
C45 C44 1.251 . S
C46 H13 0.930 . S
C46 C48 1.406 . S
C46 C51 1.261 1_455 S
C47 H14 0.930 . S
C47 N49 1.325 . S
C47 C50 1.357 1_455 S
C48 H16 0.928 . S
C48 C46 1.406 . S
C48 N49 1.261 . S
N49 Co0 2.214 . S
N49 C47 1.325 . S
N49 C48 1.261 . S
C50 H20 0.931 . S
C50 C47 1.357 1_655 S
C50 C51 1.312 . S
C51 H22 0.930 . S
C51 C46 1.261 1_655 S
C51 C50 1.312 . S
C52 O24 1.214 . S
C52 O32 1.234 . S
C53 H25 0.929 . S
C53 C56 1.391 . S
C53 C58 1.391 . S
C54 H26 0.929 . S
C54 C55 1.390 . S
C54 N57 1.391 . S
C55 H27 0.930 . S
C55 C54 1.390 . S
C55 C56 1.392 . S
C56 H28 0.929 . S
C56 C53 1.391 . S
C56 C55 1.392 . S
N57 Co1 2.257 . S
N57 C54 1.391 . S
N57 C58 1.388 . S
C58 H29 0.930 . S
C58 C53 1.391 . S
C58 N57 1.388 . S
Co59 O61 2.143 . S
Co59 O67 2.074 . S
Co59 O70 2.093 . S
Co59 O83 2.097 . S
Co59 N100 2.151 . S
Co59 N108 2.214 . S
Co60 O61 2.160 . S
Co60 O66 2.058 . S
Co60 O76 2.057 . S
Co60 O91 2.037 . S
Co60 N95 2.145 . S
Co60 N116 2.257 . S
O61 Co59 2.143 . S
O61 Co60 2.160 . S
C62 O63 1.278 . S
C62 O70 1.224 . S
O63 C62 1.278 . S
C64 O65 1.245 . S
C64 O76 1.232 . S
O65 C64 1.245 . S
O66 Co60 2.058 . S
O66 C92 1.269 . S
O67 Co59 2.074 . S
O67 C92 1.257 . S
H68 C93 0.930 . S
H69 C99 0.930 . S
O70 Co59 2.093 . S
O70 C62 1.224 . S
H71 C103 0.929 . S
H72 C105 0.930 . S
H73 C106 0.930 . S
H74 C104 0.929 . S
H75 C107 0.928 . S
O76 Co60 2.057 . S
O76 C64 1.232 . S
H77 C96 0.929 . S
H78 C97 0.929 . S
H79 C109 0.931 . S
H80 C101 0.929 . S
H81 C110 0.930 . S
H82 C102 0.931 . S
O83 Co59 2.097 . S
O83 C111 1.214 . S
H84 C112 0.929 . S
H85 C113 0.929 . S
H86 C114 0.930 . S
H87 C115 0.929 1_655 S
H88 C117 0.930 . S
H89 C94 0.930 . S
H90 C98 0.930 1_655 S
O91 Co60 2.037 . S
O91 C111 1.234 . S
C92 O66 1.269 . S
C92 O67 1.257 . S
C93 H68 0.930 . S
C93 C96 1.388 . S
C93 C98 1.418 . S
C94 H89 0.930 . S
C94 C97 1.404 . S
C94 C98 1.353 . S
N95 Co60 2.145 . S
N95 C96 1.397 . S
N95 C97 1.334 . S
C96 H77 0.929 . S
C96 C93 1.388 . S
C96 N95 1.397 . S
C97 H78 0.929 . S
C97 C94 1.404 . S
C97 N95 1.334 . S
C98 H90 0.930 1_455 S
C98 C93 1.418 . S
C98 C94 1.353 . S
C99 H69 0.930 . S
C99 N100 1.330 . S
C99 C101 1.446 . S
N100 Co59 2.151 . S
N100 C99 1.330 . S
N100 C104 1.418 . S
C101 H80 0.929 . S
C101 C99 1.446 . S
C101 C102 1.332 . S
C102 H82 0.931 . S
C102 C101 1.332 . S
C102 C103 1.267 . S
C103 H71 0.929 . S
C103 C102 1.267 . S
C103 C104 1.251 . S
C104 H74 0.929 . S
C104 N100 1.418 . S
C104 C103 1.251 . S
C105 H72 0.930 . S
C105 C107 1.406 . S
C105 C110 1.261 . S
C106 H73 0.930 . S
C106 N108 1.325 . S
C106 C109 1.357 . S
C107 H75 0.928 . S
C107 C105 1.406 . S
C107 N108 1.261 . S
N108 Co59 2.214 . S
N108 C106 1.325 . S
N108 C107 1.261 . S
C109 H79 0.931 . S
C109 C106 1.357 . S
C109 C110 1.312 . S
C110 H81 0.930 . S
C110 C105 1.261 . S
C110 C109 1.312 . S
C111 O83 1.214 . S
C111 O91 1.234 . S
C112 H84 0.929 . S
C112 C115 1.391 . S
C112 C117 1.391 . S
C113 H85 0.929 . S
C113 C114 1.390 1_455 S
C113 N116 1.391 . S
C114 H86 0.930 . S
C114 C113 1.390 1_655 S
C114 C115 1.392 1_655 S
C115 H87 0.929 1_455 S
C115 C112 1.391 . S
C115 C114 1.392 1_455 S
N116 Co60 2.257 . S
N116 C113 1.391 . S
N116 C117 1.388 . S
C117 H88 0.930 . S
C117 C112 1.391 . S
C117 N116 1.388 . S
Co118 O120 2.143 . S
Co118 O126 2.074 . S
Co118 O129 2.093 . S
Co118 O142 2.097 . S
Co118 N159 2.151 . S
Co118 N167 2.214 . S
Co119 O120 2.160 . S
Co119 O125 2.058 . S
Co119 O135 2.057 . S
Co119 O150 2.037 . S
Co119 N154 2.145 . S
Co119 N175 2.257 . S
O120 Co118 2.143 . S
O120 Co119 2.160 . S
C121 O122 1.278 . S
C121 O129 1.224 . S
O122 C121 1.278 . S
C123 O124 1.245 . S
C123 O135 1.232 . S
O124 C123 1.245 . S
O125 Co119 2.058 . S
O125 C151 1.269 . S
O126 Co118 2.074 . S
O126 C151 1.257 . S
H127 C152 0.930 . S
H128 C158 0.930 . S
O129 Co118 2.093 . S
O129 C121 1.224 . S
H130 C162 0.929 . S
H131 C164 0.930 . S
H132 C165 0.930 . S
H133 C163 0.929 . S
H134 C166 0.928 . S
O135 Co119 2.057 . S
O135 C123 1.232 . S
H136 C155 0.929 . S
H137 C156 0.929 . S
H138 C168 0.931 . S
H139 C160 0.929 . S
H140 C169 0.930 . S
H141 C161 0.931 . S
O142 Co118 2.097 . S
O142 C170 1.214 . S
H143 C171 0.929 . S
H144 C172 0.929 . S
H145 C173 0.930 . S
H146 C174 0.929 . S
H147 C176 0.930 . S
H148 C153 0.930 . S
H149 C157 0.930 . S
O150 Co119 2.037 . S
O150 C170 1.234 . S
C151 O125 1.269 . S
C151 O126 1.257 . S
C152 H127 0.930 . S
C152 C155 1.388 . S
C152 C157 1.418 . S
C153 H148 0.930 . S
C153 C156 1.404 . S
C153 C157 1.353 . S
N154 Co119 2.145 . S
N154 C155 1.397 . S
N154 C156 1.334 . S
C155 H136 0.929 . S
C155 C152 1.388 . S
C155 N154 1.397 . S
C156 H137 0.929 . S
C156 C153 1.404 . S
C156 N154 1.334 . S
C157 H149 0.930 . S
C157 C152 1.418 . S
C157 C153 1.353 . S
C158 H128 0.930 . S
C158 N159 1.330 . S
C158 C160 1.446 . S
N159 Co118 2.151 . S
N159 C158 1.330 . S
N159 C163 1.418 . S
C160 H139 0.929 . S
C160 C158 1.446 . S
C160 C161 1.332 . S
C161 H141 0.931 . S
C161 C160 1.332 . S
C161 C162 1.267 . S
C162 H130 0.929 . S
C162 C161 1.267 . S
C162 C163 1.251 . S
C163 H133 0.929 . S
C163 N159 1.418 . S
C163 C162 1.251 . S
C164 H131 0.930 . S
C164 C166 1.406 . S
C164 C169 1.261 1_655 S
C165 H132 0.930 . S
C165 N167 1.325 . S
C165 C168 1.357 1_655 S
C166 H134 0.928 . S
C166 C164 1.406 . S
C166 N167 1.261 . S
N167 Co118 2.214 . S
N167 C165 1.325 . S
N167 C166 1.261 . S
C168 H138 0.931 . S
C168 C165 1.357 1_455 S
C168 C169 1.312 . S
C169 H140 0.930 . S
C169 C164 1.261 1_455 S
C169 C168 1.312 . S
C170 O142 1.214 . S
C170 O150 1.234 . S
C171 H143 0.929 . S
C171 C174 1.391 . S
C171 C176 1.391 . S
C172 H144 0.929 . S
C172 C173 1.390 . S
C172 N175 1.391 . S
C173 H145 0.930 . S
C173 C172 1.390 . S
C173 C174 1.392 . S
C174 H146 0.929 . S
C174 C171 1.391 . S
C174 C173 1.392 . S
N175 Co119 2.257 . S
N175 C172 1.391 . S
N175 C176 1.388 . S
C176 H147 0.930 . S
C176 C171 1.391 . S
C176 N175 1.388 . S
Co177 O179 2.143 . S
Co177 O185 2.074 . S
Co177 O188 2.093 . S
Co177 O201 2.097 . S
Co177 N218 2.151 . S
Co177 N226 2.214 . S
Co178 O179 2.160 . S
Co178 O184 2.058 . S
Co178 O194 2.057 . S
Co178 O209 2.037 . S
Co178 N213 2.145 . S
Co178 N234 2.257 . S
O179 Co177 2.143 . S
O179 Co178 2.160 . S
C180 O181 1.278 . S
C180 O188 1.224 . S
O181 C180 1.278 . S
C182 O183 1.245 . S
C182 O194 1.232 . S
O183 C182 1.245 . S
O184 Co178 2.058 . S
O184 C210 1.269 . S
O185 Co177 2.074 . S
O185 C210 1.257 . S
H186 C211 0.930 . S
H187 C217 0.930 . S
O188 Co177 2.093 . S
O188 C180 1.224 . S
H189 C221 0.929 . S
H190 C223 0.930 . S
H191 C224 0.930 . S
H192 C222 0.929 . S
H193 C225 0.928 . S
O194 Co178 2.057 . S
O194 C182 1.232 . S
H195 C214 0.929 . S
H196 C215 0.929 . S
H197 C227 0.931 . S
H198 C219 0.929 . S
H199 C228 0.930 . S
H200 C220 0.931 . S
O201 Co177 2.097 . S
O201 C229 1.214 . S
H202 C230 0.929 . S
H203 C231 0.929 . S
H204 C232 0.930 . S
H205 C233 0.929 1_455 S
H206 C235 0.930 . S
H207 C212 0.930 . S
H208 C216 0.930 1_455 S
O209 Co178 2.037 . S
O209 C229 1.234 . S
C210 O184 1.269 . S
C210 O185 1.257 . S
C211 H186 0.930 . S
C211 C214 1.388 . S
C211 C216 1.418 . S
C212 H207 0.930 . S
C212 C215 1.404 . S
C212 C216 1.353 . S
N213 Co178 2.145 . S
N213 C214 1.397 . S
N213 C215 1.334 . S
C214 H195 0.929 . S
C214 C211 1.388 . S
C214 N213 1.397 . S
C215 H196 0.929 . S
C215 C212 1.404 . S
C215 N213 1.334 . S
C216 H208 0.930 1_655 S
C216 C211 1.418 . S
C216 C212 1.353 . S
C217 H187 0.930 . S
C217 N218 1.330 . S
C217 C219 1.446 . S
N218 Co177 2.151 . S
N218 C217 1.330 . S
N218 C222 1.418 . S
C219 H198 0.929 . S
C219 C217 1.446 . S
C219 C220 1.332 . S
C220 H200 0.931 . S
C220 C219 1.332 . S
C220 C221 1.267 . S
C221 H189 0.929 . S
C221 C220 1.267 . S
C221 C222 1.251 . S
C222 H192 0.929 . S
C222 N218 1.418 . S
C222 C221 1.251 . S
C223 H190 0.930 . S
C223 C225 1.406 . S
C223 C228 1.261 . S
C224 H191 0.930 . S
C224 N226 1.325 . S
C224 C227 1.357 . S
C225 H193 0.928 . S
C225 C223 1.406 . S
C225 N226 1.261 . S
N226 Co177 2.214 . S
N226 C224 1.325 . S
N226 C225 1.261 . S
C227 H197 0.931 . S
C227 C224 1.357 . S
C227 C228 1.312 . S
C228 H199 0.930 . S
C228 C223 1.261 . S
C228 C227 1.312 . S
C229 O201 1.214 . S
C229 O209 1.234 . S
C230 H202 0.929 . S
C230 C233 1.391 . S
C230 C235 1.391 . S
C231 H203 0.929 . S
C231 C232 1.390 1_655 S
C231 N234 1.391 . S
C232 H204 0.930 . S
C232 C231 1.390 1_455 S
C232 C233 1.392 1_455 S
C233 H205 0.929 1_655 S
C233 C230 1.391 . S
C233 C232 1.392 1_655 S
N234 Co178 2.257 . S
N234 C231 1.391 . S
N234 C235 1.388 . S
C235 H206 0.930 . S
C235 C230 1.391 . S
C235 N234 1.388 . S
Co236 O238 2.143 . S
Co236 O244 2.074 . S
Co236 O247 2.093 . S
Co236 O260 2.097 . S
Co236 N277 2.151 . S
Co236 N285 2.214 . S
Co237 O238 2.160 . S
Co237 O243 2.058 . S
Co237 O253 2.057 . S
Co237 O268 2.037 . S
Co237 N272 2.145 . S
Co237 N293 2.257 . S
O238 Co236 2.143 . S
O238 Co237 2.160 . S
C239 O240 1.278 . S
C239 O247 1.224 . S
O240 C239 1.278 . S
C241 O242 1.245 . S
C241 O253 1.232 . S
O242 C241 1.245 . S
O243 Co237 2.058 . S
O243 C269 1.269 . S
O244 Co236 2.074 . S
O244 C269 1.257 . S
H245 C270 0.930 . S
H246 C276 0.930 . S
O247 Co236 2.093 . S
O247 C239 1.224 . S
H248 C280 0.929 . S
H249 C282 0.930 . S
H250 C283 0.930 . S
H251 C281 0.929 . S
H252 C284 0.928 . S
O253 Co237 2.057 . S
O253 C241 1.232 . S
H254 C273 0.929 . S
H255 C274 0.929 . S
H256 C286 0.931 . S
H257 C278 0.929 . S
H258 C287 0.930 . S
H259 C279 0.931 . S
O260 Co236 2.097 . S
O260 C288 1.214 . S
H261 C289 0.929 . S
H262 C290 0.929 . S
H263 C291 0.930 . S
H264 C292 0.929 1_565 S
H265 C294 0.930 . S
H266 C271 0.930 . S
H267 C275 0.930 1_565 S
O268 Co237 2.037 . S
O268 C288 1.234 . S
C269 O243 1.269 . S
C269 O244 1.257 . S
C270 H245 0.930 . S
C270 C273 1.388 . S
C270 C275 1.418 . S
C271 H266 0.930 . S
C271 C274 1.404 . S
C271 C275 1.353 . S
N272 Co237 2.145 . S
N272 C273 1.397 . S
N272 C274 1.334 . S
C273 H254 0.929 . S
C273 C270 1.388 . S
C273 N272 1.397 . S
C274 H255 0.929 . S
C274 C271 1.404 . S
C274 N272 1.334 . S
C275 H267 0.930 1_545 S
C275 C270 1.418 . S
C275 C271 1.353 . S
C276 H246 0.930 . S
C276 N277 1.330 . S
C276 C278 1.446 . S
N277 Co236 2.151 . S
N277 C276 1.330 . S
N277 C281 1.418 . S
C278 H257 0.929 . S
C278 C276 1.446 . S
C278 C279 1.332 . S
C279 H259 0.931 . S
C279 C278 1.332 . S
C279 C280 1.267 . S
C280 H248 0.929 . S
C280 C279 1.267 . S
C280 C281 1.251 . S
C281 H251 0.929 . S
C281 N277 1.418 . S
C281 C280 1.251 . S
C282 H249 0.930 . S
C282 C284 1.406 . S
C282 C287 1.261 . S
C283 H250 0.930 . S
C283 N285 1.325 . S
C283 C286 1.357 . S
C284 H252 0.928 . S
C284 C282 1.406 . S
C284 N285 1.261 . S
N285 Co236 2.214 . S
N285 C283 1.325 . S
N285 C284 1.261 . S
C286 H256 0.931 . S
C286 C283 1.357 . S
C286 C287 1.312 . S
C287 H258 0.930 . S
C287 C282 1.261 . S
C287 C286 1.312 . S
C288 O260 1.214 . S
C288 O268 1.234 . S
C289 H261 0.929 . S
C289 C292 1.391 . S
C289 C294 1.391 . S
C290 H262 0.929 . S
C290 C291 1.390 1_545 S
C290 N293 1.391 . S
C291 H263 0.930 . S
C291 C290 1.390 1_565 S
C291 C292 1.392 1_565 S
C292 H264 0.929 1_545 S
C292 C289 1.391 . S
C292 C291 1.392 1_545 S
N293 Co237 2.257 . S
N293 C290 1.391 . S
N293 C294 1.388 . S
C294 H265 0.930 . S
C294 C289 1.391 . S
C294 N293 1.388 . S
Co295 O297 2.143 . S
Co295 O303 2.074 . S
Co295 O306 2.093 . S
Co295 O319 2.097 . S
Co295 N336 2.151 . S
Co295 N344 2.214 . S
Co296 O297 2.160 . S
Co296 O302 2.058 . S
Co296 O312 2.057 . S
Co296 O327 2.037 . S
Co296 N331 2.145 . S
Co296 N352 2.257 . S
O297 Co295 2.143 . S
O297 Co296 2.160 . S
C298 O299 1.278 . S
C298 O306 1.224 . S
O299 C298 1.278 . S
C300 O301 1.245 . S
C300 O312 1.232 . S
O301 C300 1.245 . S
O302 Co296 2.058 . S
O302 C328 1.269 . S
O303 Co295 2.074 . S
O303 C328 1.257 . S
H304 C329 0.930 . S
H305 C335 0.930 . S
O306 Co295 2.093 . S
O306 C298 1.224 . S
H307 C339 0.929 . S
H308 C341 0.930 . S
H309 C342 0.930 . S
H310 C340 0.929 . S
H311 C343 0.928 . S
O312 Co296 2.057 . S
O312 C300 1.232 . S
H313 C332 0.929 . S
H314 C333 0.929 . S
H315 C345 0.931 . S
H316 C337 0.929 . S
H317 C346 0.930 . S
H318 C338 0.931 . S
O319 Co295 2.097 . S
O319 C347 1.214 . S
H320 C348 0.929 . S
H321 C349 0.929 . S
H322 C350 0.930 . S
H323 C351 0.929 . S
H324 C353 0.930 . S
H325 C330 0.930 . S
H326 C334 0.930 . S
O327 Co296 2.037 . S
O327 C347 1.234 . S
C328 O302 1.269 . S
C328 O303 1.257 . S
C329 H304 0.930 . S
C329 C332 1.388 . S
C329 C334 1.418 . S
C330 H325 0.930 . S
C330 C333 1.404 . S
C330 C334 1.353 . S
N331 Co296 2.145 . S
N331 C332 1.397 . S
N331 C333 1.334 . S
C332 H313 0.929 . S
C332 C329 1.388 . S
C332 N331 1.397 . S
C333 H314 0.929 . S
C333 C330 1.404 . S
C333 N331 1.334 . S
C334 H326 0.930 . S
C334 C329 1.418 . S
C334 C330 1.353 . S
C335 H305 0.930 . S
C335 N336 1.330 . S
C335 C337 1.446 . S
N336 Co295 2.151 . S
N336 C335 1.330 . S
N336 C340 1.418 . S
C337 H316 0.929 . S
C337 C335 1.446 . S
C337 C338 1.332 . S
C338 H318 0.931 . S
C338 C337 1.332 . S
C338 C339 1.267 . S
C339 H307 0.929 . S
C339 C338 1.267 . S
C339 C340 1.251 . S
C340 H310 0.929 . S
C340 N336 1.418 . S
C340 C339 1.251 . S
C341 H308 0.930 . S
C341 C343 1.406 . S
C341 C346 1.261 1_545 S
C342 H309 0.930 . S
C342 N344 1.325 . S
C342 C345 1.357 1_545 S
C343 H311 0.928 . S
C343 C341 1.406 . S
C343 N344 1.261 . S
N344 Co295 2.214 . S
N344 C342 1.325 . S
N344 C343 1.261 . S
C345 H315 0.931 . S
C345 C342 1.357 1_565 S
C345 C346 1.312 . S
C346 H317 0.930 . S
C346 C341 1.261 1_565 S
C346 C345 1.312 . S
C347 O319 1.214 . S
C347 O327 1.234 . S
C348 H320 0.929 . S
C348 C351 1.391 . S
C348 C353 1.391 . S
C349 H321 0.929 . S
C349 C350 1.390 . S
C349 N352 1.391 . S
C350 H322 0.930 . S
C350 C349 1.390 . S
C350 C351 1.392 . S
C351 H323 0.929 . S
C351 C348 1.391 . S
C351 C350 1.392 . S
N352 Co296 2.257 . S
N352 C349 1.391 . S
N352 C353 1.388 . S
C353 H324 0.930 . S
C353 C348 1.391 . S
C353 N352 1.388 . S
Co354 O356 2.143 . S
Co354 O362 2.074 . S
Co354 O365 2.093 . S
Co354 O378 2.097 . S
Co354 N395 2.151 . S
Co354 N403 2.214 . S
Co355 O356 2.160 . S
Co355 O361 2.058 . S
Co355 O371 2.057 . S
Co355 O386 2.037 . S
Co355 N390 2.145 . S
Co355 N411 2.257 . S
O356 Co354 2.143 . S
O356 Co355 2.160 . S
C357 O358 1.278 . S
C357 O365 1.224 . S
O358 C357 1.278 . S
C359 O360 1.245 . S
C359 O371 1.232 . S
O360 C359 1.245 . S
O361 Co355 2.058 . S
O361 C387 1.269 . S
O362 Co354 2.074 . S
O362 C387 1.257 . S
H363 C388 0.930 . S
H364 C394 0.930 . S
O365 Co354 2.093 . S
O365 C357 1.224 . S
H366 C398 0.929 . S
H367 C400 0.930 . S
H368 C401 0.930 . S
H369 C399 0.929 . S
H370 C402 0.928 . S
O371 Co355 2.057 . S
O371 C359 1.232 . S
H372 C391 0.929 . S
H373 C392 0.929 . S
H374 C404 0.931 . S
H375 C396 0.929 . S
H376 C405 0.930 . S
H377 C397 0.931 . S
O378 Co354 2.097 . S
O378 C406 1.214 . S
H379 C407 0.929 . S
H380 C408 0.929 . S
H381 C409 0.930 . S
H382 C410 0.929 1_545 S
H383 C412 0.930 . S
H384 C389 0.930 . S
H385 C393 0.930 1_545 S
O386 Co355 2.037 . S
O386 C406 1.234 . S
C387 O361 1.269 . S
C387 O362 1.257 . S
C388 H363 0.930 . S
C388 C391 1.388 . S
C388 C393 1.418 . S
C389 H384 0.930 . S
C389 C392 1.404 . S
C389 C393 1.353 . S
N390 Co355 2.145 . S
N390 C391 1.397 . S
N390 C392 1.334 . S
C391 H372 0.929 . S
C391 C388 1.388 . S
C391 N390 1.397 . S
C392 H373 0.929 . S
C392 C389 1.404 . S
C392 N390 1.334 . S
C393 H385 0.930 1_565 S
C393 C388 1.418 . S
C393 C389 1.353 . S
C394 H364 0.930 . S
C394 N395 1.330 . S
C394 C396 1.446 . S
N395 Co354 2.151 . S
N395 C394 1.330 . S
N395 C399 1.418 . S
C396 H375 0.929 . S
C396 C394 1.446 . S
C396 C397 1.332 . S
C397 H377 0.931 . S
C397 C396 1.332 . S
C397 C398 1.267 . S
C398 H366 0.929 . S
C398 C397 1.267 . S
C398 C399 1.251 . S
C399 H369 0.929 . S
C399 N395 1.418 . S
C399 C398 1.251 . S
C400 H367 0.930 . S
C400 C402 1.406 . S
C400 C405 1.261 . S
C401 H368 0.930 . S
C401 N403 1.325 . S
C401 C404 1.357 . S
C402 H370 0.928 . S
C402 C400 1.406 . S
C402 N403 1.261 . S
N403 Co354 2.214 . S
N403 C401 1.325 . S
N403 C402 1.261 . S
C404 H374 0.931 . S
C404 C401 1.357 . S
C404 C405 1.312 . S
C405 H376 0.930 . S
C405 C400 1.261 . S
C405 C404 1.312 . S
C406 O378 1.214 . S
C406 O386 1.234 . S
C407 H379 0.929 . S
C407 C410 1.391 . S
C407 C412 1.391 . S
C408 H380 0.929 . S
C408 C409 1.390 1_565 S
C408 N411 1.391 . S
C409 H381 0.930 . S
C409 C408 1.390 1_545 S
C409 C410 1.392 1_545 S
C410 H382 0.929 1_565 S
C410 C407 1.391 . S
C410 C409 1.392 1_565 S
N411 Co355 2.257 . S
N411 C408 1.391 . S
N411 C412 1.388 . S
C412 H383 0.930 . S
C412 C407 1.391 . S
C412 N411 1.388 . S
Co413 O415 2.143 . S
Co413 O421 2.074 . S
Co413 O424 2.093 . S
Co413 O437 2.097 . S
Co413 N454 2.151 . S
Co413 N462 2.214 . S
Co414 O415 2.160 . S
Co414 O420 2.058 . S
Co414 O430 2.057 . S
Co414 O445 2.037 . S
Co414 N449 2.145 . S
Co414 N470 2.257 . S
O415 Co413 2.143 . S
O415 Co414 2.160 . S
C416 O417 1.278 . S
C416 O424 1.224 . S
O417 C416 1.278 . S
C418 O419 1.245 . S
C418 O430 1.232 . S
O419 C418 1.245 . S
O420 Co414 2.058 . S
O420 C446 1.269 . S
O421 Co413 2.074 . S
O421 C446 1.257 . S
H422 C447 0.930 . S
H423 C453 0.930 . S
O424 Co413 2.093 . S
O424 C416 1.224 . S
H425 C457 0.929 . S
H426 C459 0.930 . S
H427 C460 0.930 . S
H428 C458 0.929 . S
H429 C461 0.928 . S
O430 Co414 2.057 . S
O430 C418 1.232 . S
H431 C450 0.929 . S
H432 C451 0.929 . S
H433 C463 0.931 . S
H434 C455 0.929 . S
H435 C464 0.930 . S
H436 C456 0.931 . S
O437 Co413 2.097 . S
O437 C465 1.214 . S
H438 C466 0.929 . S
H439 C467 0.929 . S
H440 C468 0.930 . S
H441 C469 0.929 . S
H442 C471 0.930 . S
H443 C448 0.930 . S
H444 C452 0.930 . S
O445 Co414 2.037 . S
O445 C465 1.234 . S
C446 O420 1.269 . S
C446 O421 1.257 . S
C447 H422 0.930 . S
C447 C450 1.388 . S
C447 C452 1.418 . S
C448 H443 0.930 . S
C448 C451 1.404 . S
C448 C452 1.353 . S
N449 Co414 2.145 . S
N449 C450 1.397 . S
N449 C451 1.334 . S
C450 H431 0.929 . S
C450 C447 1.388 . S
C450 N449 1.397 . S
C451 H432 0.929 . S
C451 C448 1.404 . S
C451 N449 1.334 . S
C452 H444 0.930 . S
C452 C447 1.418 . S
C452 C448 1.353 . S
C453 H423 0.930 . S
C453 N454 1.330 . S
C453 C455 1.446 . S
N454 Co413 2.151 . S
N454 C453 1.330 . S
N454 C458 1.418 . S
C455 H434 0.929 . S
C455 C453 1.446 . S
C455 C456 1.332 . S
C456 H436 0.931 . S
C456 C455 1.332 . S
C456 C457 1.267 . S
C457 H425 0.929 . S
C457 C456 1.267 . S
C457 C458 1.251 . S
C458 H428 0.929 . S
C458 N454 1.418 . S
C458 C457 1.251 . S
C459 H426 0.930 . S
C459 C461 1.406 . S
C459 C464 1.261 1_565 S
C460 H427 0.930 . S
C460 N462 1.325 . S
C460 C463 1.357 1_565 S
C461 H429 0.928 . S
C461 C459 1.406 . S
C461 N462 1.261 . S
N462 Co413 2.214 . S
N462 C460 1.325 . S
N462 C461 1.261 . S
C463 H433 0.931 . S
C463 C460 1.357 1_545 S
C463 C464 1.312 . S
C464 H435 0.930 . S
C464 C459 1.261 1_545 S
C464 C463 1.312 . S
C465 O437 1.214 . S
C465 O445 1.234 . S
C466 H438 0.929 . S
C466 C469 1.391 . S
C466 C471 1.391 . S
C467 H439 0.929 . S
C467 C468 1.390 . S
C467 N470 1.391 . S
C468 H440 0.930 . S
C468 C467 1.390 . S
C468 C469 1.392 . S
C469 H441 0.929 . S
C469 C466 1.391 . S
C469 C468 1.392 . S
N470 Co414 2.257 . S
N470 C467 1.391 . S
N470 C471 1.388 . S
C471 H442 0.930 . S
C471 C466 1.391 . S
C471 N470 1.388 . S
C472 C473 1.391 . S
C472 C474 1.394 . S
C472 H488 0.931 . S
C473 C472 1.391 . S
C473 C477 1.376 . S
C474 C472 1.394 . S
C474 C475 1.369 . S
C474 C478 1.531 . S
C475 C474 1.369 . S
C475 C476 1.410 . S
C475 C483 1.503 1_554 S
C476 C475 1.410 . S
C476 C477 1.392 . S
C476 C479 1.511 . S
C477 C473 1.376 . S
C477 C476 1.392 . S
C477 H489 0.929 . S
C478 C474 1.531 . S
C478 H490 0.960 . S
C478 H491 0.962 . S
C478 H492 0.960 . S
C479 C476 1.511 . S
C479 H493 0.961 . S
C479 H494 0.961 1_554 S
C479 H495 0.960 . S
C480 C481 1.370 . S
C480 C482 1.363 . S
C480 H496 0.931 . S
C481 C480 1.370 . S
C481 C485 1.408 . S
C482 C480 1.363 . S
C482 C483 1.370 . S
C482 C486 1.524 . S
C483 C475 1.503 1_556 S
C483 C482 1.370 . S
C483 C484 1.403 . S
C484 C483 1.403 . S
C484 C485 1.404 . S
C484 C487 1.539 . S
C485 C481 1.408 . S
C485 C484 1.404 . S
C485 H497 0.930 . S
C486 C482 1.524 . S
C486 H498 0.951 1_556 S
C486 H499 0.961 . S
C486 H500 0.961 . S
C487 C484 1.539 . S
C487 H501 0.958 . S
C487 H502 0.961 . S
C487 H503 0.961 1_556 S
H488 C472 0.931 . S
H489 C477 0.929 . S
H490 C478 0.960 . S
H491 C478 0.962 . S
H492 C478 0.960 . S
H493 C479 0.961 . S
H494 C479 0.961 1_556 S
H495 C479 0.960 . S
H496 C480 0.931 . S
H497 C485 0.930 . S
H498 C486 0.951 1_554 S
H499 C486 0.961 . S
H500 C486 0.961 . S
H501 C487 0.958 . S
H502 C487 0.961 . S
H503 C487 0.961 1_554 S
C504 C505 1.391 . S
C504 C506 1.394 . S
C504 H520 0.931 . S
C505 C504 1.391 . S
C505 C509 1.376 . S
C506 C504 1.394 . S
C506 C507 1.369 . S
C506 C510 1.531 . S
C507 C506 1.369 . S
C507 C508 1.410 . S
C507 C515 1.503 . S
C508 C507 1.410 . S
C508 C509 1.392 . S
C508 C511 1.511 . S
C509 C505 1.376 . S
C509 C508 1.392 . S
C509 H521 0.929 . S
C510 C506 1.531 . S
C510 H522 0.960 . S
C510 H523 0.962 . S
C510 H524 0.960 . S
C511 C508 1.511 . S
C511 H525 0.961 . S
C511 H526 0.961 . S
C511 H527 0.961 . S
C512 C513 1.370 . S
C512 C514 1.363 . S
C512 H528 0.931 . S
C513 C512 1.370 . S
C513 C517 1.408 . S
C514 C512 1.363 . S
C514 C515 1.370 . S
C514 C518 1.524 . S
C515 C507 1.503 . S
C515 C514 1.370 . S
C515 C516 1.403 . S
C516 C515 1.403 . S
C516 C517 1.404 . S
C516 C519 1.539 . S
C517 C513 1.408 . S
C517 C516 1.404 . S
C517 H529 0.930 . S
C518 C514 1.524 . S
C518 H530 0.956 . S
C518 H531 0.961 . S
C518 H532 0.961 . S
C519 C516 1.539 . S
C519 H533 0.958 . S
C519 H534 0.961 . S
C519 H535 0.960 . S
H520 C504 0.931 . S
H521 C509 0.929 . S
H522 C510 0.960 . S
H523 C510 0.962 . S
H524 C510 0.960 . S
H525 C511 0.961 . S
H526 C511 0.961 . S
H527 C511 0.961 . S
H528 C512 0.931 . S
H529 C517 0.930 . S
H530 C518 0.956 . S
H531 C518 0.961 . S
H532 C518 0.961 . S
H533 C519 0.958 . S
H534 C519 0.961 . S
H535 C519 0.960 . S
C536 C537 1.391 . S
C536 C538 1.394 . S
C536 H552 0.931 . S
C537 C536 1.391 . S
C537 C541 1.376 . S
C538 C536 1.394 . S
C538 C539 1.369 . S
C538 C542 1.531 . S
C539 C538 1.369 . S
C539 C540 1.410 . S
C539 C547 1.503 1_554 S
C540 C539 1.410 . S
C540 C541 1.392 . S
C540 C543 1.511 . S
C541 C537 1.376 . S
C541 C540 1.392 . S
C541 H553 0.929 . S
C542 C538 1.531 . S
C542 H554 0.960 . S
C542 H555 0.962 . S
C542 H556 0.960 . S
C543 C540 1.511 . S
C543 H557 0.961 . S
C543 H558 0.961 1_554 S
C543 H559 0.954 1_554 S
C544 C545 1.370 . S
C544 C546 1.363 . S
C544 H560 0.931 . S
C545 C544 1.370 . S
C545 C549 1.408 . S
C546 C544 1.363 . S
C546 C547 1.370 . S
C546 C550 1.524 . S
C547 C539 1.503 1_556 S
C547 C546 1.370 . S
C547 C548 1.403 . S
C548 C547 1.403 . S
C548 C549 1.404 . S
C548 C551 1.539 . S
C549 C545 1.408 . S
C549 C548 1.404 . S
C549 H561 0.930 . S
C550 C546 1.524 . S
C550 H562 0.956 1_556 S
C550 H563 0.961 . S
C550 H564 0.961 . S
C551 C548 1.539 . S
C551 H565 0.958 . S
C551 H566 0.961 . S
C551 H567 0.960 . S
H552 C536 0.931 . S
H553 C541 0.929 . S
H554 C542 0.960 . S
H555 C542 0.962 . S
H556 C542 0.960 . S
H557 C543 0.961 . S
H558 C543 0.961 1_556 S
H559 C543 0.954 1_556 S
H560 C544 0.931 . S
H561 C549 0.930 . S
H562 C550 0.956 1_554 S
H563 C550 0.961 . S
H564 C550 0.961 . S
H565 C551 0.958 . S
H566 C551 0.961 . S
H567 C551 0.960 . S
C568 C569 1.391 . S
C568 C570 1.394 . S
C568 H584 0.931 . S
C569 C568 1.391 . S
C569 C573 1.376 . S
C570 C568 1.394 . S
C570 C571 1.369 . S
C570 C574 1.531 . S
C571 C570 1.369 . S
C571 C572 1.410 . S
C571 C579 1.503 . S
C572 C571 1.410 . S
C572 C573 1.392 . S
C572 C575 1.511 . S
C573 C569 1.376 . S
C573 C572 1.392 . S
C573 H585 0.929 . S
C574 C570 1.531 . S
C574 H586 0.960 . S
C574 H587 0.962 . S
C574 H588 0.960 . S
C575 C572 1.511 . S
C575 H589 0.961 . S
C575 H590 0.961 . S
C575 H591 0.961 . S
C576 C577 1.370 . S
C576 C578 1.363 . S
C576 H592 0.931 . S
C577 C576 1.370 . S
C577 C581 1.408 . S
C578 C576 1.363 . S
C578 C579 1.370 . S
C578 C582 1.524 . S
C579 C571 1.503 . S
C579 C578 1.370 . S
C579 C580 1.403 . S
C580 C579 1.403 . S
C580 C581 1.404 . S
C580 C583 1.539 . S
C581 C577 1.408 . S
C581 C580 1.404 . S
C581 H593 0.930 . S
C582 C578 1.524 . S
C582 H594 0.956 . S
C582 H595 0.961 . S
C582 H596 0.961 . S
C583 C580 1.539 . S
C583 H597 0.958 . S
C583 H598 0.961 . S
C583 H599 0.960 . S
H584 C568 0.931 . S
H585 C573 0.929 . S
H586 C574 0.960 . S
H587 C574 0.962 . S
H588 C574 0.960 . S
H589 C575 0.961 . S
H590 C575 0.961 . S
H591 C575 0.961 . S
H592 C576 0.931 . S
H593 C581 0.930 . S
H594 C582 0.956 . S
H595 C582 0.961 . S
H596 C582 0.961 . S
H597 C583 0.958 . S
H598 C583 0.961 . S
H599 C583 0.960 . S
C600 C601 1.391 . S
C600 C602 1.394 . S
C600 H616 0.931 . S
C601 C600 1.391 . S
C601 C605 1.376 . S
C602 C600 1.394 . S
C602 C603 1.369 . S
C602 C606 1.531 . S
C603 C602 1.369 . S
C603 C604 1.410 . S
C603 C611 1.503 . S
C604 C603 1.410 . S
C604 C605 1.392 . S
C604 C607 1.511 . S
C605 C601 1.376 . S
C605 C604 1.392 . S
C605 H617 0.929 . S
C606 C602 1.531 . S
C606 H618 0.960 . S
C606 H619 0.962 . S
C606 H620 0.960 . S
C607 C604 1.511 . S
C607 H621 0.961 . S
C607 H622 0.961 . S
C607 H623 0.961 . S
C608 C609 1.370 . S
C608 C610 1.363 . S
C608 H624 0.931 . S
C609 C608 1.370 . S
C609 C613 1.408 . S
C610 C608 1.363 . S
C610 C611 1.370 . S
C610 C614 1.524 . S
C611 C603 1.503 . S
C611 C610 1.370 . S
C611 C612 1.403 . S
C612 C611 1.403 . S
C612 C613 1.404 . S
C612 C615 1.539 . S
C613 C609 1.408 . S
C613 C612 1.404 . S
C613 H625 0.930 . S
C614 C610 1.524 . S
C614 H626 0.956 . S
C614 H627 0.961 . S
C614 H628 0.961 . S
C615 C612 1.539 . S
C615 H629 0.958 . S
C615 H630 0.961 . S
C615 H631 0.960 . S
H616 C600 0.931 . S
H617 C605 0.929 . S
H618 C606 0.960 . S
H619 C606 0.962 . S
H620 C606 0.960 . S
H621 C607 0.961 . S
H622 C607 0.961 . S
H623 C607 0.961 . S
H624 C608 0.931 . S
H625 C613 0.930 . S
H626 C614 0.956 . S
H627 C614 0.961 . S
H628 C614 0.961 . S
H629 C615 0.958 . S
H630 C615 0.961 . S
H631 C615 0.960 . S
C632 C633 1.391 . S
C632 C634 1.394 . S
C632 H648 0.931 . S
C633 C632 1.391 . S
C633 C637 1.376 . S
C634 C632 1.394 . S
C634 C635 1.369 . S
C634 C638 1.531 . S
C635 C634 1.369 . S
C635 C636 1.410 . S
C635 C643 1.503 . S
C636 C635 1.410 . S
C636 C637 1.392 . S
C636 C639 1.511 . S
C637 C633 1.376 . S
C637 C636 1.392 . S
C637 H649 0.929 . S
C638 C634 1.531 . S
C638 H650 0.960 . S
C638 H651 0.962 1_565 S
C638 H652 0.960 . S
C639 C636 1.511 . S
C639 H653 0.961 . S
C639 H654 0.961 . S
C639 H655 0.961 . S
C640 C641 1.370 . S
C640 C642 1.363 . S
C640 H656 0.931 . S
C641 C640 1.370 . S
C641 C645 1.408 . S
C642 C640 1.363 . S
C642 C643 1.370 1_545 S
C642 C646 1.524 . S
C643 C635 1.503 . S
C643 C642 1.370 1_565 S
C643 C644 1.403 . S
C644 C643 1.403 . S
C644 C645 1.404 1_565 S
C644 C647 1.539 . S
C645 C641 1.408 . S
C645 C644 1.404 1_545 S
C645 H657 0.930 . S
C646 C642 1.524 . S
C646 H658 0.956 . S
C646 H659 0.961 . S
C646 H660 0.961 . S
C647 C644 1.539 . S
C647 H661 0.958 . S
C647 H662 0.961 . S
C647 H663 0.960 . S
H648 C632 0.931 . S
H649 C637 0.929 . S
H650 C638 0.960 . S
H651 C638 0.962 1_545 S
H652 C638 0.960 . S
H653 C639 0.961 . S
H654 C639 0.961 . S
H655 C639 0.961 . S
H656 C640 0.931 . S
H657 C645 0.930 . S
H658 C646 0.956 . S
H659 C646 0.961 . S
H660 C646 0.961 . S
H661 C647 0.958 . S
H662 C647 0.961 . S
H663 C647 0.960 . S
C664 C665 1.391 . S
C664 C666 1.394 . S
C664 H680 0.931 . S
C665 C664 1.391 . S
C665 C669 1.376 . S
C666 C664 1.394 . S
C666 C667 1.369 . S
C666 C670 1.531 . S
C667 C666 1.369 . S
C667 C668 1.410 . S
C667 C675 1.503 . S
C668 C667 1.410 . S
C668 C669 1.392 . S
C668 C671 1.511 . S
C669 C665 1.376 . S
C669 C668 1.392 . S
C669 H681 0.929 . S
C670 C666 1.531 . S
C670 H682 0.960 . S
C670 H683 0.962 . S
C670 H684 0.960 . S
C671 C668 1.511 . S
C671 H685 0.961 . S
C671 H686 0.961 . S
C671 H687 0.961 . S
C672 C673 1.370 . S
C672 C674 1.363 . S
C672 H688 0.931 . S
C673 C672 1.370 . S
C673 C677 1.408 . S
C674 C672 1.363 . S
C674 C675 1.370 . S
C674 C678 1.524 . S
C675 C667 1.503 . S
C675 C674 1.370 . S
C675 C676 1.403 . S
C676 C675 1.403 . S
C676 C677 1.404 . S
C676 C679 1.539 . S
C677 C673 1.408 . S
C677 C676 1.404 . S
C677 H689 0.930 . S
C678 C674 1.524 . S
C678 H690 0.956 . S
C678 H691 0.961 . S
C678 H692 0.961 . S
C679 C676 1.539 . S
C679 H693 0.958 . S
C679 H694 0.961 . S
C679 H695 0.960 . S
H680 C664 0.931 . S
H681 C669 0.929 . S
H682 C670 0.960 . S
H683 C670 0.962 . S
H684 C670 0.960 . S
H685 C671 0.961 . S
H686 C671 0.961 . S
H687 C671 0.961 . S
H688 C672 0.931 . S
H689 C677 0.930 . S
H690 C678 0.956 . S
H691 C678 0.961 . S
H692 C678 0.961 . S
H693 C679 0.958 . S
H694 C679 0.961 . S
H695 C679 0.960 . S
C696 C697 1.391 . S
C696 C698 1.394 . S
C696 H712 0.931 . S
C697 C696 1.391 . S
C697 C701 1.376 . S
C698 C696 1.394 . S
C698 C699 1.369 . S
C698 C702 1.531 . S
C699 C698 1.369 . S
C699 C700 1.410 . S
C699 C707 1.503 1_545 S
C700 C699 1.410 . S
C700 C701 1.392 . S
C700 C703 1.511 . S
C701 C697 1.376 . S
C701 C700 1.392 . S
C701 H713 0.929 . S
C702 C698 1.531 . S
C702 H714 0.960 1_545 S
C702 H715 0.962 . S
C702 H716 0.960 . S
C703 C700 1.511 . S
C703 H717 0.961 . S
C703 H718 0.961 . S
C703 H719 0.961 . S
C704 C705 1.370 . S
C704 C706 1.348 1_565 S
C704 H720 0.931 . S
C705 C704 1.370 . S
C705 C709 1.408 . S
C706 C704 1.348 1_545 S
C706 C707 1.368 1_545 S
C706 C710 1.542 . S
C707 C699 1.503 1_565 S
C707 C706 1.368 1_565 S
C707 C708 1.403 . S
C708 C707 1.403 . S
C708 C709 1.404 . S
C708 C711 1.539 . S
C709 C705 1.408 . S
C709 C708 1.404 . S
C709 H721 0.930 . S
C710 C706 1.542 . S
C710 H722 0.956 . S
C710 H723 0.961 . S
C710 H724 0.961 . S
C711 C708 1.539 . S
C711 H725 0.958 . S
C711 H726 0.961 . S
C711 H727 0.960 . S
H712 C696 0.931 . S
H713 C701 0.929 . S
H714 C702 0.960 1_565 S
H715 C702 0.962 . S
H716 C702 0.960 . S
H717 C703 0.961 . S
H718 C703 0.961 . S
H719 C703 0.961 . S
H720 C704 0.931 . S
H721 C709 0.930 . S
H722 C710 0.956 . S
H723 C710 0.961 . S
H724 C710 0.961 . S
H725 C711 0.958 . S
H726 C711 0.961 . S
H727 C711 0.960 . S
C728 C729 1.391 . S
C728 C730 1.394 . S
C728 H744 0.931 . S
C729 C728 1.391 . S
C729 C733 1.376 . S
C730 C728 1.394 . S
C730 C731 1.369 . S
C730 C734 1.531 . S
C731 C730 1.369 . S
C731 C732 1.410 . S
C731 C739 1.503 . S
C732 C731 1.410 . S
C732 C733 1.392 . S
C732 C735 1.511 . S
C733 C729 1.376 . S
C733 C732 1.392 . S
C733 H745 0.929 . S
C734 C730 1.531 . S
C734 H746 0.960 1_655 S
C734 H747 0.962 1_655 S
C734 H748 0.960 . S
C735 C732 1.511 . S
C735 H749 0.961 . S
C735 H750 0.961 . S
C735 H751 0.961 . S
C736 C737 1.370 . S
C736 C738 1.363 . S
C736 H752 0.931 . S
C737 C736 1.370 . S
C737 C741 1.408 . S
C738 C736 1.363 . S
C738 C739 1.370 1_455 S
C738 C742 1.524 . S
C739 C731 1.503 . S
C739 C738 1.370 1_655 S
C739 C740 1.403 1_655 S
C740 C739 1.403 1_455 S
C740 C741 1.404 . S
C740 C743 1.539 1_455 S
C741 C737 1.408 . S
C741 C740 1.404 . S
C741 H753 0.930 . S
C742 C738 1.524 . S
C742 H754 0.956 . S
C742 H755 0.961 1_455 S
C742 H756 0.961 . S
C743 C740 1.539 1_655 S
C743 H757 0.958 . S
C743 H758 0.961 . S
C743 H759 0.960 . S
H744 C728 0.931 . S
H745 C733 0.929 . S
H746 C734 0.960 1_455 S
H747 C734 0.962 1_455 S
H748 C734 0.960 . S
H749 C735 0.961 . S
H750 C735 0.961 . S
H751 C735 0.961 . S
H752 C736 0.931 . S
H753 C741 0.930 . S
H754 C742 0.956 . S
H755 C742 0.961 1_655 S
H756 C742 0.961 . S
H757 C743 0.958 . S
H758 C743 0.961 . S
H759 C743 0.960 . S
C760 C761 1.391 . S
C760 C762 1.394 . S
C760 H776 0.931 . S
C761 C760 1.391 . S
C761 C765 1.376 . S
C762 C760 1.394 . S
C762 C763 1.369 . S
C762 C766 1.531 . S
C763 C762 1.369 . S
C763 C764 1.410 . S
C763 C771 1.503 . S
C764 C763 1.410 . S
C764 C765 1.392 . S
C764 C767 1.511 . S
C765 C761 1.376 . S
C765 C764 1.392 . S
C765 H777 0.929 . S
C766 C762 1.531 . S
C766 H778 0.960 . S
C766 H779 0.962 . S
C766 H780 0.960 . S
C767 C764 1.511 . S
C767 H781 0.961 . S
C767 H782 0.961 . S
C767 H783 0.961 . S
C768 C769 1.370 . S
C768 C770 1.363 . S
C768 H784 0.931 . S
C769 C768 1.370 . S
C769 C773 1.408 . S
C770 C768 1.363 . S
C770 C771 1.370 . S
C770 C774 1.524 . S
C771 C763 1.503 . S
C771 C770 1.370 . S
C771 C772 1.403 . S
C772 C771 1.403 . S
C772 C773 1.404 . S
C772 C775 1.539 . S
C773 C769 1.408 . S
C773 C772 1.404 . S
C773 H785 0.930 . S
C774 C770 1.524 . S
C774 H786 0.956 . S
C774 H787 0.961 . S
C774 H788 0.961 . S
C775 C772 1.539 . S
C775 H789 0.958 . S
C775 H790 0.961 . S
C775 H791 0.960 . S
H776 C760 0.931 . S
H777 C765 0.929 . S
H778 C766 0.960 . S
H779 C766 0.962 . S
H780 C766 0.960 . S
H781 C767 0.961 . S
H782 C767 0.961 . S
H783 C767 0.961 . S
H784 C768 0.931 . S
H785 C773 0.930 . S
H786 C774 0.956 . S
H787 C774 0.961 . S
H788 C774 0.961 . S
H789 C775 0.958 . S
H790 C775 0.961 . S
H791 C775 0.960 . S
C792 C793 1.391 . S
C792 C794 1.394 . S
C792 H808 0.931 . S
C793 C792 1.391 . S
C793 C797 1.376 . S
C794 C792 1.394 . S
C794 C795 1.369 . S
C794 C798 1.531 . S
C795 C794 1.369 . S
C795 C796 1.410 . S
C795 C803 1.503 1_455 S
C796 C795 1.410 . S
C796 C797 1.392 . S
C796 C799 1.511 . S
C797 C793 1.376 . S
C797 C796 1.392 . S
C797 H809 0.929 . S
C798 C794 1.531 . S
C798 H810 0.960 . S
C798 H811 0.962 . S
C798 H812 0.960 . S
C799 C796 1.511 . S
C799 H813 0.961 . S
C799 H814 0.961 1_455 S
C799 H815 0.961 1_455 S
C800 C801 1.370 . S
C800 C802 1.350 1_655 S
C800 H816 0.931 . S
C801 C800 1.370 . S
C801 C805 1.408 . S
C802 C800 1.350 1_455 S
C802 C803 1.369 1_455 S
C802 C806 1.539 . S
C803 C795 1.503 1_655 S
C803 C802 1.369 1_655 S
C803 C804 1.403 . S
C804 C803 1.403 . S
C804 C805 1.404 . S
C804 C807 1.539 . S
C805 C801 1.408 . S
C805 C804 1.404 . S
C805 H817 0.930 . S
C806 C802 1.539 . S
C806 H818 0.956 . S
C806 H819 0.961 . S
C806 H820 0.961 . S
C807 C804 1.539 . S
C807 H821 0.958 . S
C807 H822 0.961 . S
C807 H823 0.960 . S
H808 C792 0.931 . S
H809 C797 0.929 . S
H810 C798 0.960 . S
H811 C798 0.962 . S
H812 C798 0.960 . S
H813 C799 0.961 . S
H814 C799 0.961 1_655 S
H815 C799 0.961 1_655 S
H816 C800 0.931 . S
H817 C805 0.930 . S
H818 C806 0.956 . S
H819 C806 0.961 . S
H820 C806 0.961 . S
H821 C807 0.958 . S
H822 C807 0.961 . S
H823 C807 0.960 . S
C824 C825 1.391 . S
C824 C826 1.394 . S
C824 H840 0.931 . S
C825 C824 1.391 . S
C825 C829 1.376 . S
C826 C824 1.394 . S
C826 C827 1.369 . S
C826 C830 1.531 . S
C827 C826 1.369 . S
C827 C828 1.410 . S
C827 C835 1.503 . S
C828 C827 1.410 . S
C828 C829 1.392 . S
C828 C831 1.511 . S
C829 C825 1.376 . S
C829 C828 1.392 . S
C829 H841 0.929 . S
C830 C826 1.531 . S
C830 H842 0.960 . S
C830 H843 0.962 . S
C830 H844 0.960 . S
C831 C828 1.511 . S
C831 H845 0.961 . S
C831 H846 0.961 . S
C831 H847 0.961 . S
C832 C833 1.370 . S
C832 C834 1.363 . S
C832 H848 0.931 . S
C833 C832 1.370 . S
C833 C837 1.408 . S
C834 C832 1.363 . S
C834 C835 1.370 . S
C834 C838 1.524 . S
C835 C827 1.503 . S
C835 C834 1.370 . S
C835 C836 1.403 . S
C836 C835 1.403 . S
C836 C837 1.404 . S
C836 C839 1.539 . S
C837 C833 1.408 . S
C837 C836 1.404 . S
C837 H849 0.930 . S
C838 C834 1.524 . S
C838 H850 0.956 . S
C838 H851 0.961 . S
C838 H852 0.961 . S
C839 C836 1.539 . S
C839 H853 0.958 . S
C839 H854 0.961 . S
C839 H855 0.960 . S
H840 C824 0.931 . S
H841 C829 0.929 . S
H842 C830 0.960 . S
H843 C830 0.962 . S
H844 C830 0.960 . S
H845 C831 0.961 . S
H846 C831 0.961 . S
H847 C831 0.961 . S
H848 C832 0.931 . S
H849 C837 0.930 . S
H850 C838 0.956 . S
H851 C838 0.961 . S
H852 C838 0.961 . S
H853 C839 0.958 . S
H854 C839 0.961 . S
H855 C839 0.960 . S
C856 C857 1.391 . S
C856 C858 1.394 . S
C856 H872 0.931 . S
C857 C856 1.391 . S
C857 C861 1.376 . S
C858 C856 1.394 . S
C858 C859 1.369 . S
C858 C862 1.531 . S
C859 C858 1.369 . S
C859 C860 1.410 . S
C859 C867 1.503 1_655 S
C860 C859 1.410 . S
C860 C861 1.392 . S
C860 C863 1.511 . S
C861 C857 1.376 . S
C861 C860 1.392 . S
C861 H873 0.929 . S
C862 C858 1.531 . S
C862 H874 0.960 1_655 S
C862 H875 0.962 1_655 S
C862 H876 0.960 . S
C863 C860 1.511 . S
C863 H877 0.961 . S
C863 H878 0.961 . S
C863 H879 0.961 . S
C864 C865 1.370 . S
C864 C866 1.363 . S
C864 H880 0.931 . S
C865 C864 1.370 . S
C865 C869 1.408 . S
C866 C864 1.363 . S
C866 C867 1.370 . S
C866 C870 1.524 . S
C867 C859 1.503 1_455 S
C867 C866 1.370 . S
C867 C868 1.403 . S
C868 C867 1.403 . S
C868 C869 1.404 . S
C868 C871 1.539 1_455 S
C869 C865 1.408 . S
C869 C868 1.404 . S
C869 H881 0.930 . S
C870 C866 1.524 . S
C870 H882 0.956 . S
C870 H883 0.961 . S
C870 H884 0.961 . S
C871 C868 1.539 1_655 S
C871 H885 0.958 . S
C871 H886 0.961 . S
C871 H887 0.960 . S
H872 C856 0.931 . S
H873 C861 0.929 . S
H874 C862 0.960 1_455 S
H875 C862 0.962 1_455 S
H876 C862 0.960 . S
H877 C863 0.961 . S
H878 C863 0.961 . S
H879 C863 0.961 . S
H880 C864 0.931 . S
H881 C869 0.930 . S
H882 C870 0.956 . S
H883 C870 0.961 . S
H884 C870 0.961 . S
H885 C871 0.958 . S
H886 C871 0.961 . S
H887 C871 0.960 . S
C888 C889 1.391 . S
C888 C890 1.394 1_655 S
C888 H904 0.931 . S
C889 C888 1.391 . S
C889 C893 1.376 . S
C890 C888 1.394 1_455 S
C890 C891 1.369 1_455 S
C890 C894 1.531 . S
C891 C890 1.369 1_655 S
C891 C892 1.410 . S
C891 C899 1.503 1_655 S
C892 C891 1.410 . S
C892 C893 1.392 . S
C892 C895 1.511 . S
C893 C889 1.376 . S
C893 C892 1.392 . S
C893 H905 0.929 . S
C894 C890 1.531 . S
C894 H906 0.960 . S
C894 H907 0.962 . S
C894 H908 0.960 . S
C895 C892 1.511 . S
C895 H909 0.961 . S
C895 H910 0.961 . S
C895 H911 0.961 . S
C896 C897 1.370 . S
C896 C898 1.363 . S
C896 H912 0.931 . S
C897 C896 1.370 . S
C897 C901 1.408 . S
C898 C896 1.363 . S
C898 C899 1.370 . S
C898 C902 1.524 . S
C899 C891 1.503 1_455 S
C899 C898 1.370 . S
C899 C900 1.403 . S
C900 C899 1.403 . S
C900 C901 1.404 . S
C900 C903 1.539 1_455 S
C901 C897 1.408 . S
C901 C900 1.404 . S
C901 H913 0.930 . S
C902 C898 1.524 . S
C902 H914 0.956 . S
C902 H915 0.961 . S
C902 H916 0.961 . S
C903 C900 1.539 1_655 S
C903 H917 0.958 . S
C903 H918 0.961 . S
C903 H919 0.960 . S
H904 C888 0.931 . S
H905 C893 0.929 . S
H906 C894 0.960 . S
H907 C894 0.962 . S
H908 C894 0.960 . S
H909 C895 0.961 . S
H910 C895 0.961 . S
H911 C895 0.961 . S
H912 C896 0.931 . S
H913 C901 0.930 . S
H914 C902 0.956 . S
H915 C902 0.961 . S
H916 C902 0.961 . S
H917 C903 0.958 . S
H918 C903 0.961 . S
H919 C903 0.960 . S
C920 C921 1.391 . S
C920 C922 1.394 1_545 S
C920 H936 0.931 1_545 S
C921 C920 1.391 . S
C921 C925 1.376 . S
C922 C920 1.394 1_565 S
C922 C923 1.369 1_565 S
C922 C926 1.531 . S
C923 C922 1.369 1_545 S
C923 C924 1.410 . S
C923 C931 1.503 1_545 S
C924 C923 1.410 . S
C924 C925 1.392 . S
C924 C927 1.511 . S
C925 C921 1.376 . S
C925 C924 1.392 . S
C925 H937 0.929 . S
C926 C922 1.531 . S
C926 H938 0.960 . S
C926 H939 0.962 . S
C926 H940 0.960 . S
C927 C924 1.511 . S
C927 H941 0.961 . S
C927 H942 0.961 . S
C927 H943 0.961 . S
C928 C929 1.370 . S
C928 C930 1.363 . S
C928 H944 0.931 . S
C929 C928 1.370 . S
C929 C933 1.408 . S
C930 C928 1.363 . S
C930 C931 1.370 . S
C930 C934 1.524 1_565 S
C931 C923 1.503 1_565 S
C931 C930 1.370 . S
C931 C932 1.403 . S
C932 C931 1.403 . S
C932 C933 1.404 . S
C932 C935 1.539 . S
C933 C929 1.408 . S
C933 C932 1.404 . S
C933 H945 0.930 . S
C934 C930 1.524 1_545 S
C934 H946 0.956 1_545 S
C934 H947 0.961 . S
C934 H948 0.961 . S
C935 C932 1.539 . S
C935 H949 0.958 . S
C935 H950 0.961 . S
C935 H951 0.960 . S
H936 C920 0.931 1_565 S
H937 C925 0.929 . S
H938 C926 0.960 . S
H939 C926 0.962 . S
H940 C926 0.960 . S
H941 C927 0.961 . S
H942 C927 0.961 . S
H943 C927 0.961 . S
H944 C928 0.931 . S
H945 C933 0.930 . S
H946 C934 0.956 1_565 S
H947 C934 0.961 . S
H948 C934 0.961 . S
H949 C935 0.958 . S
H950 C935 0.961 . S
H951 C935 0.960 . S
C952 C953 1.391 . S
C952 C954 1.394 . S
C952 H968 0.931 . S
C953 C952 1.391 . S
C953 C957 1.376 . S
C954 C952 1.394 . S
C954 C955 1.369 . S
C954 C958 1.531 . S
C955 C954 1.369 . S
C955 C956 1.410 . S
C955 C963 1.503 1_545 S
C956 C955 1.410 . S
C956 C957 1.392 . S
C956 C959 1.511 . S
C957 C953 1.376 . S
C957 C956 1.392 . S
C957 H969 0.929 . S
C958 C954 1.531 . S
C958 H970 0.960 . S
C958 H971 0.962 1_545 S
C958 H972 0.960 . S
C959 C956 1.511 . S
C959 H973 0.961 . S
C959 H974 0.940 1_545 S
C959 H975 0.961 . S
C960 C961 1.370 . S
C960 C962 1.363 . S
C960 H976 0.931 . S
C961 C960 1.370 . S
C961 C965 1.408 . S
C962 C960 1.363 . S
C962 C963 1.370 . S
C962 C966 1.524 . S
C963 C955 1.503 1_565 S
C963 C962 1.370 . S
C963 C964 1.403 . S
C964 C963 1.403 . S
C964 C965 1.404 . S
C964 C967 1.539 1_565 S
C965 C961 1.408 . S
C965 C964 1.404 . S
C965 H977 0.930 . S
C966 C962 1.524 . S
C966 H978 0.956 . S
C966 H979 0.961 . S
C966 H980 0.961 . S
C967 C964 1.539 1_545 S
C967 H981 0.958 . S
C967 H982 0.961 . S
C967 H983 0.960 . S
H968 C952 0.931 . S
H969 C957 0.929 . S
H970 C958 0.960 . S
H971 C958 0.962 1_565 S
H972 C958 0.960 . S
H973 C959 0.961 . S
H974 C959 0.940 1_565 S
H975 C959 0.961 . S
H976 C960 0.931 . S
H977 C965 0.930 . S
H978 C966 0.956 . S
H979 C966 0.961 . S
H980 C966 0.961 . S
H981 C967 0.958 . S
H982 C967 0.961 . S
H983 C967 0.960 . S
C473 C3 1.465 . S
C481 C298 1.468 . S
C505 C62 1.487 . S
C513 C357 1.464 . S
C537 C121 1.462 . S
C545 C416 1.469 . S
C569 C239 1.486 . S
C577 C180 1.463 . S
C601 C5 1.641 . S
C609 C269 1.636 . S
C633 C64 1.638 . S
C641 C328 1.638 . S
C665 C387 1.626 . S
C673 C123 1.648 . S
C697 C182 1.650 . S
C705 C446 1.646 . S
C729 C241 1.640 . S
C737 C33 1.640 . S
C761 C92 1.648 . S
C769 C300 1.652 . S
C793 C359 1.651 . S
C801 C151 1.643 . S
C825 C210 1.637 . S
C833 C418 1.647 . S
C857 C170 0.843 . S
C865 C52 0.798 . S
C889 C229 0.806 . S
C897 C111 0.826 . S
C921 C288 0.834 . S
C929 C406 0.816 . S
C953 C347 0.848 . S
C961 C465 0.799 . S
