# Generated by pormake.
# Topology utm, (3)-cn, num edge types: 1
# Building blocks:
#     Node 0, Type 0, BuildingBlock: WUSLED_clean_sbu_0, # of connection points: 3
#     Node 1, Type 0, BuildingBlock: WUSLED_clean_sbu_0, # of connection points: 3
#     Node 2, Type 0, BuildingBlock: WUSLED_clean_sbu_0, # of connection points: 3
#     Node 3, Type 0, BuildingBlock: WUSLED_clean_sbu_0, # of connection points: 3
#     Node 4, Type 0, BuildingBlock: WUSLED_clean_sbu_0, # of connection points: 3
#     Node 5, Type 0, BuildingBlock: WUSLED_clean_sbu_0, # of connection points: 3
#     Node 6, Type 0, BuildingBlock: WUSLED_clean_sbu_0, # of connection points: 3
#     Node 7, Type 0, BuildingBlock: WUSLED_clean_sbu_0, # of connection points: 3
#     Node 8, Type 0, BuildingBlock: WUSLED_clean_sbu_0, # of connection points: 3
#     Node 9, Type 0, BuildingBlock: WUSLED_clean_sbu_0, # of connection points: 3
#     Node 10, Type 0, BuildingBlock: WUSLED_clean_sbu_0, # of connection points: 3
#     Node 11, Type 0, BuildingBlock: WUSLED_clean_sbu_0, # of connection points: 3
#     Node 12, Type 0, BuildingBlock: WUSLED_clean_sbu_0, # of connection points: 3
#     Node 13, Type 0, BuildingBlock: WUSLED_clean_sbu_0, # of connection points: 3
#     Node 14, Type 0, BuildingBlock: WUSLED_clean_sbu_0, # of connection points: 3
#     Node 15, Type 0, BuildingBlock: WUSLED_clean_sbu_0, # of connection points: 3
#     Node 16, Type 0, BuildingBlock: WUSLED_clean_sbu_0, # of connection points: 3
#     Node 17, Type 0, BuildingBlock: WUSLED_clean_sbu_0, # of connection points: 3
#     Node 18, Type 0, BuildingBlock: WUSLED_clean_sbu_0, # of connection points: 3
#     Node 19, Type 0, BuildingBlock: WUSLED_clean_sbu_0, # of connection points: 3
#     Node 20, Type 0, BuildingBlock: WUSLED_clean_sbu_0, # of connection points: 3
#     Node 21, Type 0, BuildingBlock: WUSLED_clean_sbu_0, # of connection points: 3
#     Node 22, Type 0, BuildingBlock: WUSLED_clean_sbu_0, # of connection points: 3
#     Node 23, Type 0, BuildingBlock: WUSLED_clean_sbu_0, # of connection points: 3
#     Node 24, Type 0, BuildingBlock: WUSLED_clean_sbu_0, # of connection points: 3
#     Node 25, Type 0, BuildingBlock: WUSLED_clean_sbu_0, # of connection points: 3
#     Node 26, Type 0, BuildingBlock: WUSLED_clean_sbu_0, # of connection points: 3
#     Node 27, Type 0, BuildingBlock: WUSLED_clean_sbu_0, # of connection points: 3
#     Node 28, Type 0, BuildingBlock: WUSLED_clean_sbu_0, # of connection points: 3
#     Node 29, Type 0, BuildingBlock: WUSLED_clean_sbu_0, # of connection points: 3
#     Node 30, Type 0, BuildingBlock: WUSLED_clean_sbu_0, # of connection points: 3
#     Node 31, Type 0, BuildingBlock: WUSLED_clean_sbu_0, # of connection points: 3
#     Edge 32, Type (0, 0), BuildingBlock: UVAHIK_clean_linker_0, # of connection points: 2
#     Edge 33, Type (0, 0), BuildingBlock: UVAHIK_clean_linker_0, # of connection points: 2
#     Edge 34, Type (0, 0), BuildingBlock: UVAHIK_clean_linker_0, # of connection points: 2
#     Edge 35, Type (0, 0), BuildingBlock: UVAHIK_clean_linker_0, # of connection points: 2
#     Edge 36, Type (0, 0), BuildingBlock: UVAHIK_clean_linker_0, # of connection points: 2
#     Edge 37, Type (0, 0), BuildingBlock: UVAHIK_clean_linker_0, # of connection points: 2
#     Edge 38, Type (0, 0), BuildingBlock: UVAHIK_clean_linker_0, # of connection points: 2
#     Edge 39, Type (0, 0), BuildingBlock: UVAHIK_clean_linker_0, # of connection points: 2
#     Edge 40, Type (0, 0), BuildingBlock: UVAHIK_clean_linker_0, # of connection points: 2
#     Edge 41, Type (0, 0), BuildingBlock: UVAHIK_clean_linker_0, # of connection points: 2
#     Edge 42, Type (0, 0), BuildingBlock: UVAHIK_clean_linker_0, # of connection points: 2
#     Edge 43, Type (0, 0), BuildingBlock: UVAHIK_clean_linker_0, # of connection points: 2
#     Edge 44, Type (0, 0), BuildingBlock: UVAHIK_clean_linker_0, # of connection points: 2
#     Edge 45, Type (0, 0), BuildingBlock: UVAHIK_clean_linker_0, # of connection points: 2
#     Edge 46, Type (0, 0), BuildingBlock: UVAHIK_clean_linker_0, # of connection points: 2
#     Edge 47, Type (0, 0), BuildingBlock: UVAHIK_clean_linker_0, # of connection points: 2
#     Edge 48, Type (0, 0), BuildingBlock: UVAHIK_clean_linker_0, # of connection points: 2
#     Edge 49, Type (0, 0), BuildingBlock: UVAHIK_clean_linker_0, # of connection points: 2
#     Edge 50, Type (0, 0), BuildingBlock: UVAHIK_clean_linker_0, # of connection points: 2
#     Edge 51, Type (0, 0), BuildingBlock: UVAHIK_clean_linker_0, # of connection points: 2
#     Edge 52, Type (0, 0), BuildingBlock: UVAHIK_clean_linker_0, # of connection points: 2
#     Edge 53, Type (0, 0), BuildingBlock: UVAHIK_clean_linker_0, # of connection points: 2
#     Edge 54, Type (0, 0), BuildingBlock: UVAHIK_clean_linker_0, # of connection points: 2
#     Edge 55, Type (0, 0), BuildingBlock: UVAHIK_clean_linker_0, # of connection points: 2
#     Edge 56, Type (0, 0), BuildingBlock: UVAHIK_clean_linker_0, # of connection points: 2
#     Edge 57, Type (0, 0), BuildingBlock: UVAHIK_clean_linker_0, # of connection points: 2
#     Edge 58, Type (0, 0), BuildingBlock: UVAHIK_clean_linker_0, # of connection points: 2
#     Edge 59, Type (0, 0), BuildingBlock: UVAHIK_clean_linker_0, # of connection points: 2
#     Edge 60, Type (0, 0), BuildingBlock: UVAHIK_clean_linker_0, # of connection points: 2
#     Edge 61, Type (0, 0), BuildingBlock: UVAHIK_clean_linker_0, # of connection points: 2
#     Edge 62, Type (0, 0), BuildingBlock: UVAHIK_clean_linker_0, # of connection points: 2
#     Edge 63, Type (0, 0), BuildingBlock: UVAHIK_clean_linker_0, # of connection points: 2
#     Edge 64, Type (0, 0), BuildingBlock: UVAHIK_clean_linker_0, # of connection points: 2
#     Edge 65, Type (0, 0), BuildingBlock: UVAHIK_clean_linker_0, # of connection points: 2
#     Edge 66, Type (0, 0), BuildingBlock: UVAHIK_clean_linker_0, # of connection points: 2
#     Edge 67, Type (0, 0), BuildingBlock: UVAHIK_clean_linker_0, # of connection points: 2
#     Edge 68, Type (0, 0), BuildingBlock: UVAHIK_clean_linker_0, # of connection points: 2
#     Edge 69, Type (0, 0), BuildingBlock: UVAHIK_clean_linker_0, # of connection points: 2
#     Edge 70, Type (0, 0), BuildingBlock: UVAHIK_clean_linker_0, # of connection points: 2
#     Edge 71, Type (0, 0), BuildingBlock: UVAHIK_clean_linker_0, # of connection points: 2
#     Edge 72, Type (0, 0), BuildingBlock: UVAHIK_clean_linker_0, # of connection points: 2
#     Edge 73, Type (0, 0), BuildingBlock: UVAHIK_clean_linker_0, # of connection points: 2
#     Edge 74, Type (0, 0), BuildingBlock: UVAHIK_clean_linker_0, # of connection points: 2
#     Edge 75, Type (0, 0), BuildingBlock: UVAHIK_clean_linker_0, # of connection points: 2
#     Edge 76, Type (0, 0), BuildingBlock: UVAHIK_clean_linker_0, # of connection points: 2
#     Edge 77, Type (0, 0), BuildingBlock: UVAHIK_clean_linker_0, # of connection points: 2
#     Edge 78, Type (0, 0), BuildingBlock: UVAHIK_clean_linker_0, # of connection points: 2
#     Edge 79, Type (0, 0), BuildingBlock: UVAHIK_clean_linker_0, # of connection points: 2
# Relax obj value: 0.006
# Max RMSD: 0.009
# Mean RMSD: 0.009
data_MOF--net-utm--node1-WUSLED_clean_sbu_0--edge1-UVAHIK_clean_linker_0
_symmetry_space_group_name_H-M    P1
_symmetry_Int_Tables_number       1
_symmetry_cell_setting            triclinic
loop_
_symmetry_equiv_pos_as_xyz
'x, y, z'
_cell_length_a     119.38755
_cell_length_b     119.4469
_cell_length_c     94.013681
_cell_angle_alpha  89.980358
_cell_angle_beta   89.994139
_cell_angle_gamma 90.035929
loop_
_atom_site_label
_atom_site_type_symbol
_atom_site_fract_x
_atom_site_fract_y
_atom_site_fract_z
_atom_type_partial_charge
C0 C 0.18906 0.32298 0.15801 0.0
C1 C 0.18564 0.32481 0.14392 0.0
C2 C 0.17148 0.33804 0.15199 0.0
C3 C 0.17692 0.33224 0.14094 0.0
C4 C 0.17487 0.33606 0.16612 0.0
C5 C 0.1836 0.3286 0.16909 0.0
U6 U 0.21344 0.30592 0.14455 0.0
O7 O 0.23074 0.30433 0.15233 0.0
O8 O 0.22002 0.28945 0.15083 0.0
C9 C 0.22967 0.29359 0.15504 0.0
C10 C 0.1986 0.31558 0.16107 0.0
C11 C 0.23351 0.28996 0.16916 0.0
C12 C 0.23131 0.28902 0.19484 0.0
C13 C 0.22746 0.29259 0.18151 0.0
C14 C 0.24727 0.28019 0.18355 0.0
C15 C 0.24129 0.28279 0.19601 0.0
C16 C 0.24341 0.28374 0.17026 0.0
C17 C 0.2181 0.30576 0.10404 0.0
C18 C 0.2355 0.30283 0.0911 0.0
C19 C 0.21772 0.30151 0.07878 0.0
C20 C 0.2121 0.30381 0.09148 0.0
C21 C 0.2295 0.30118 0.07837 0.0
C22 C 0.22984 0.30507 0.10383 0.0
C23 C 0.21195 0.30901 0.11697 0.0
O24 O 0.19758 0.30523 0.15646 0.0
O25 O 0.20847 0.31995 0.15832 0.0
O26 O 0.21711 0.31599 0.12558 0.0
O27 O 0.20668 0.30091 0.12367 0.0
H28 H 0.18979 0.32055 0.13522 0.0
H29 H 0.17442 0.33344 0.12997 0.0
H30 H 0.17097 0.34048 0.17487 0.0
H31 H 0.18619 0.32733 0.18002 0.0
H32 H 0.22657 0.29127 0.20423 0.0
H33 H 0.2198 0.29742 0.18083 0.0
H34 H 0.25488 0.27527 0.18403 0.0
H35 H 0.24815 0.2816 0.16082 0.0
H36 H 0.24456 0.30274 0.09117 0.0
H37 H 0.21283 0.30006 0.06926 0.0
H38 H 0.20303 0.30424 0.09144 0.0
H39 H 0.23466 0.30651 0.11342 0.0
C40 C 0.95055 0.93894 0.40798 0.0
C41 C 0.94849 0.93567 0.39389 0.0
C42 C 0.93531 0.92147 0.40206 0.0
C43 C 0.94097 0.927 0.39095 0.0
C44 C 0.93752 0.92471 0.41619 0.0
C45 C 0.94507 0.93338 0.41911 0.0
U46 U 0.96756 0.96331 0.39441 0.0
O47 O 0.96935 0.98055 0.40226 0.0
O48 O 0.98416 0.96978 0.4004 0.0
C49 C 0.98011 0.97941 0.40479 0.0
C50 C 0.95805 0.94842 0.411 0.0
C51 C 0.9839 0.98312 0.41891 0.0
C52 C 0.98323 0.98212 0.44472 0.0
C53 C 0.97965 0.97828 0.43139 0.0
C54 C 0.9954 0.99558 0.43316 0.0
C55 C 0.99112 0.99086 0.44576 0.0
C56 C 0.99181 0.99175 0.41988 0.0
C57 C 0.9669 0.96806 0.35386 0.0
C58 C 0.97107 0.98537 0.34132 0.0
C59 C 0.9685 0.96814 0.32813 0.0
C60 C 0.9667 0.96237 0.34085 0.0
C61 C 0.97049 0.97975 0.32817 0.0
C62 C 0.9693 0.97957 0.35407 0.0
C63 C 0.96397 0.96192 0.36691 0.0
O64 O 0.96832 0.94738 0.40615 0.0
O65 O 0.9537 0.95832 0.40847 0.0
O66 O 0.95721 0.96712 0.37573 0.0
O67 O 0.97222 0.95668 0.37334 0.0
H68 H 0.95264 0.9399 0.38515 0.0
H69 H 0.9396 0.92463 0.37997 0.0
H70 H 0.93321 0.92073 0.42498 0.0
H71 H 0.94651 0.93586 0.43004 0.0
H72 H 0.97968 0.97837 0.45419 0.0
H73 H 0.97352 0.97161 0.43082 0.0
H74 H 1.00161 1.00218 0.43355 0.0
H75 H 0.99521 0.99554 0.41034 0.0
H76 H 0.97251 0.99432 0.34174 0.0
H77 H 0.9682 0.96352 0.31822 0.0
H78 H 0.96492 0.95348 0.34049 0.0
H79 H 0.96952 0.9841 0.36404 0.0
C80 C 0.33313 0.69993 0.6582 0.0
C81 C 0.33601 0.69697 0.64423 0.0
C82 C 0.35085 0.68483 0.65308 0.0
C83 C 0.3448 0.68951 0.64169 0.0
C84 C 0.34799 0.68794 0.66707 0.0
C85 C 0.33919 0.69542 0.66959 0.0
U86 U 0.30883 0.71686 0.64408 0.0
O87 O 0.29152 0.71861 0.65178 0.0
O88 O 0.30231 0.73344 0.65 0.0
C89 C 0.29264 0.72938 0.6543 0.0
C90 C 0.3236 0.70741 0.6609 0.0
C91 C 0.28884 0.73316 0.66837 0.0
C92 C 0.2909 0.73398 0.69407 0.0
C93 C 0.29473 0.73032 0.68077 0.0
C94 C 0.27529 0.74331 0.68264 0.0
C95 C 0.2811 0.7405 0.69516 0.0
C96 C 0.27913 0.73967 0.66938 0.0
C97 C 0.30416 0.71656 0.6036 0.0
C98 C 0.28675 0.71951 0.59071 0.0
C99 C 0.3045 0.72065 0.5783 0.0
C100 C 0.31014 0.71838 0.591 0.0
C101 C 0.29272 0.72105 0.57793 0.0
C102 C 0.29242 0.71732 0.60344 0.0
C103 C 0.31032 0.71342 0.61658 0.0
O104 O 0.32469 0.71766 0.65598 0.0
O105 O 0.31373 0.70303 0.6582 0.0
O106 O 0.30514 0.70656 0.62532 0.0
O107 O 0.31563 0.72157 0.62311 0.0
H108 H 0.33136 0.70034 0.6353 0.0
H109 H 0.34668 0.68719 0.63081 0.0
H110 H 0.35256 0.6846 0.67607 0.0
H111 H 0.33707 0.69763 0.68044 0.0
H112 H 0.29551 0.73157 0.7035 0.0
H113 H 0.30224 0.72526 0.68016 0.0
H114 H 0.26783 0.74845 0.68305 0.0
H115 H 0.27451 0.74196 0.6599 0.0
H116 H 0.27768 0.71967 0.59082 0.0
H117 H 0.30938 0.72201 0.56874 0.0
H118 H 0.31921 0.7179 0.59093 0.0
H119 H 0.28762 0.71598 0.61307 0.0
C120 C 0.57204 0.08382 0.90805 0.0
C121 C 0.57552 0.08632 0.89415 0.0
C122 C 0.58717 0.10155 0.903 0.0
C123 C 0.583 0.09511 0.89164 0.0
C124 C 0.58356 0.09906 0.91691 0.0
C125 C 0.57606 0.09027 0.9194 0.0
U126 U 0.5562 0.0587 0.89421 0.0
O127 O 0.55433 0.0417 0.90283 0.0
O128 O 0.53944 0.05209 0.89924 0.0
C129 C 0.54344 0.04268 0.90444 0.0
C130 C 0.56454 0.0743 0.91075 0.0
C131 C 0.53907 0.03929 0.9184 0.0
C132 C 0.53813 0.04135 0.94409 0.0
C133 C 0.54208 0.04501 0.93085 0.0
C134 C 0.52804 0.0263 0.9325 0.0
C135 C 0.53112 0.03189 0.94508 0.0
C136 C 0.53199 0.02997 0.9193 0.0
C137 C 0.559 0.05209 0.85432 0.0
C138 C 0.54646 0.0415 0.83896 0.0
C139 C 0.56609 0.04332 0.83282 0.0
C140 C 0.56786 0.04976 0.84501 0.0
C141 C 0.55537 0.03913 0.82964 0.0
C142 C 0.54827 0.04789 0.85125 0.0
C143 C 0.56123 0.05896 0.86703 0.0
O144 O 0.55457 0.07501 0.90489 0.0
O145 O 0.56918 0.06441 0.90913 0.0
O146 O 0.56764 0.05429 0.87672 0.0
O147 O 0.5527 0.06447 0.87244 0.0
H148 H 0.57254 0.08137 0.88526 0.0
H149 H 0.58571 0.0967 0.88083 0.0
H150 H 0.5865 0.10394 0.92587 0.0
H151 H 0.57346 0.08845 0.9302 0.0
H152 H 0.54074 0.04579 0.95357 0.0
H153 H 0.54759 0.05222 0.93034 0.0
H154 H 0.52252 0.01911 0.93283 0.0
H155 H 0.52956 0.02547 0.90978 0.0
H156 H 0.53814 0.0383 0.83685 0.0
H157 H 0.57309 0.04176 0.82577 0.0
H158 H 0.57619 0.05295 0.84716 0.0
H159 H 0.5413 0.04951 0.85832 0.0
C160 C 0.18903 0.69996 0.36805 0.0
C161 C 0.18585 0.69791 0.38218 0.0
C162 C 0.17155 0.68477 0.37417 0.0
C163 C 0.17718 0.69041 0.38521 0.0
C164 C 0.17472 0.68697 0.36001 0.0
C165 C 0.18339 0.69449 0.35699 0.0
U166 U 0.21356 0.71701 0.38117 0.0
O167 O 0.23068 0.7189 0.37287 0.0
O168 O 0.21987 0.73365 0.37508 0.0
C169 C 0.22947 0.72967 0.37047 0.0
C170 C 0.19847 0.70747 0.3649 0.0
C171 C 0.23301 0.73357 0.35634 0.0
C172 C 0.23159 0.73328 0.33055 0.0
C173 C 0.22795 0.72952 0.34389 0.0
C174 C 0.24531 0.74519 0.34202 0.0
C175 C 0.24033 0.74116 0.32946 0.0
C176 C 0.24168 0.74143 0.35531 0.0
C177 C 0.21921 0.7167 0.42133 0.0
C178 C 0.23669 0.72232 0.43249 0.0
C179 C 0.22033 0.71856 0.447 0.0
C180 C 0.21416 0.71613 0.43476 0.0
C181 C 0.23171 0.72155 0.44603 0.0
C182 C 0.23047 0.71994 0.42023 0.0
C183 C 0.21268 0.71349 0.40871 0.0
O184 O 0.19747 0.71773 0.3698 0.0
O185 O 0.20842 0.70313 0.36723 0.0
O186 O 0.21774 0.70671 0.39977 0.0
O187 O 0.20721 0.72162 0.40238 0.0
H188 H 0.19014 0.70205 0.39087 0.0
H189 H 0.17487 0.68905 0.39622 0.0
H190 H 0.17067 0.68268 0.35126 0.0
H191 H 0.18579 0.69593 0.34602 0.0
H192 H 0.2275 0.73009 0.3211 0.0
H193 H 0.2212 0.72347 0.34451 0.0
H194 H 0.25216 0.75114 0.34158 0.0
H195 H 0.2457 0.74461 0.36482 0.0
H196 H 0.24539 0.72472 0.43138 0.0
H197 H 0.21629 0.71776 0.45727 0.0
H198 H 0.20547 0.71363 0.4358 0.0
H199 H 0.23449 0.72049 0.40992 0.0
C200 C 0.57249 0.93923 0.61624 0.0
C201 C 0.57547 0.93625 0.63017 0.0
C202 C 0.58758 0.92146 0.62112 0.0
C203 C 0.58294 0.92744 0.63259 0.0
C204 C 0.58447 0.92444 0.60717 0.0
C205 C 0.57698 0.93325 0.60477 0.0
U206 U 0.55571 0.96337 0.63089 0.0
O207 O 0.55382 0.98073 0.6235 0.0
O208 O 0.53904 0.96991 0.62543 0.0
C209 C 0.54303 0.97961 0.62115 0.0
C210 C 0.56497 0.94877 0.61369 0.0
C211 C 0.53911 0.98345 0.60716 0.0
C212 C 0.53871 0.98192 0.58138 0.0
C213 C 0.54244 0.97803 0.59462 0.0
C214 C 0.52829 0.99666 0.59315 0.0
C215 C 0.53162 0.99132 0.58049 0.0
C216 C 0.53201 0.99275 0.60634 0.0
C217 C 0.55684 0.9674 0.67152 0.0
C218 C 0.55171 0.98426 0.68444 0.0
C219 C 0.55617 0.96725 0.69731 0.0
C220 C 0.55799 0.9617 0.68445 0.0
C221 C 0.5532 0.97865 0.69748 0.0
C222 C 0.55353 0.97867 0.67155 0.0
C223 C 0.55965 0.96151 0.65827 0.0
O224 O 0.55477 0.94763 0.61877 0.0
O225 O 0.56938 0.95862 0.61641 0.0
O226 O 0.56628 0.96693 0.64946 0.0
O227 O 0.55134 0.95635 0.65186 0.0
H228 H 0.57213 0.94083 0.63916 0.0
H229 H 0.58527 0.92548 0.64344 0.0
H230 H 0.58778 0.91993 0.59811 0.0
H231 H 0.57476 0.93545 0.59395 0.0
H232 H 0.54152 0.97769 0.57185 0.0
H233 H 0.54795 0.97083 0.59507 0.0
H234 H 0.5227 1.00379 0.59288 0.0
H235 H 0.52934 0.99701 0.61594 0.0
H236 H 0.5495 0.99305 0.6842 0.0
H237 H 0.55717 0.96263 0.70714 0.0
H238 H 0.56048 0.95298 0.68462 0.0
H239 H 0.55258 0.9832 0.66163 0.0
C240 C 0.33367 0.32188 0.86834 0.0
C241 C 0.33326 0.32922 0.87999 0.0
C242 C 0.35162 0.33672 0.87377 0.0
C243 C 0.34211 0.3366 0.88263 0.0
C244 C 0.35204 0.32921 0.86223 0.0
C245 C 0.34314 0.32188 0.85953 0.0
U246 U 0.30907 0.30484 0.88164 0.0
O247 O 0.29206 0.30265 0.87314 0.0
O248 O 0.303 0.28804 0.87586 0.0
C249 C 0.29342 0.29186 0.87098 0.0
C250 C 0.32432 0.31416 0.86542 0.0
C251 C 0.29007 0.28778 0.85686 0.0
C252 C 0.29152 0.28811 0.83107 0.0
C253 C 0.29507 0.29193 0.84442 0.0
C254 C 0.27804 0.2759 0.84251 0.0
C255 C 0.28293 0.28006 0.82996 0.0
C256 C 0.28158 0.27973 0.85582 0.0
C257 C 0.30299 0.3058 0.92171 0.0
C258 C 0.28548 0.30023 0.93284 0.0
C259 C 0.3018 0.30403 0.94739 0.0
C260 C 0.308 0.30641 0.93515 0.0
C261 C 0.29043 0.30102 0.94639 0.0
C262 C 0.29172 0.30256 0.92059 0.0
C263 C 0.30959 0.30886 0.90909 0.0
O264 O 0.32541 0.30405 0.87075 0.0
O265 O 0.31425 0.31838 0.86725 0.0
O266 O 0.30456 0.31543 0.89986 0.0
O267 O 0.31521 0.30067 0.90309 0.0
H268 H 0.32606 0.3293 0.887 0.0
H269 H 0.34138 0.34235 0.89148 0.0
H270 H 0.3593 0.32892 0.85532 0.0
H271 H 0.34364 0.3162 0.85057 0.0
H272 H 0.29555 0.2914 0.82163 0.0
H273 H 0.30167 0.29814 0.84505 0.0
H274 H 0.27131 0.26983 0.84206 0.0
H275 H 0.2776 0.27647 0.86532 0.0
H276 H 0.27678 0.29781 0.93172 0.0
H277 H 0.30583 0.30485 0.95766 0.0
H278 H 0.31669 0.30891 0.93621 0.0
H279 H 0.28772 0.30196 0.91027 0.0
C280 C 0.951 0.08326 0.11659 0.0
C281 C 0.94789 0.08609 0.13052 0.0
C282 C 0.93587 0.10098 0.12155 0.0
C283 C 0.94041 0.09488 0.13299 0.0
C284 C 0.93912 0.09817 0.10761 0.0
C285 C 0.94663 0.08937 0.10516 0.0
U286 U 0.9678 0.05899 0.13096 0.0
O287 O 0.96959 0.04167 0.12339 0.0
O288 O 0.98443 0.05243 0.12525 0.0
C289 C 0.98037 0.04278 0.12093 0.0
C290 C 0.95851 0.07373 0.11397 0.0
C291 C 0.9842 0.03897 0.10688 0.0
C292 C 0.98365 0.03987 0.08106 0.0
C293 C 0.98006 0.0438 0.09433 0.0
C294 C 0.99561 0.02633 0.09279 0.0
C295 C 0.99143 0.03103 0.08012 0.0
C296 C 0.99202 0.03027 0.10602 0.0
C297 C 0.96684 0.05452 0.1715 0.0
C298 C 0.97118 0.03729 0.18413 0.0
C299 C 0.96816 0.05448 0.19727 0.0
C300 C 0.9664 0.06021 0.18451 0.0
C301 C 0.97037 0.04291 0.19726 0.0
C302 C 0.96943 0.04306 0.17135 0.0
C303 C 0.964 0.0606 0.15839 0.0
O304 O 0.96872 0.07483 0.11903 0.0
O305 O 0.9541 0.06387 0.11661 0.0
O306 O 0.95728 0.05535 0.14955 0.0
O307 O 0.97231 0.06578 0.152 0.0
H308 H 0.95115 0.0814 0.13948 0.0
H309 H 0.93798 0.09671 0.14384 0.0
H310 H 0.9359 0.10278 0.09858 0.0
H311 H 0.94895 0.0873 0.09433 0.0
H312 H 0.98018 0.0436 0.07153 0.0
H313 H 0.974 0.05054 0.09481 0.0
H314 H 1.00174 0.01966 0.09248 0.0
H315 H 0.99534 0.02648 0.11561 0.0
H316 H 0.97277 0.02838 0.18374 0.0
H317 H 0.96769 0.0591 0.20716 0.0
H318 H 0.96447 0.06907 0.18482 0.0
H319 H 0.96984 0.03852 0.16138 0.0
C320 C 0.83514 0.7013 0.86844 0.0
C321 C 0.83841 0.69912 0.88251 0.0
C322 C 0.85283 0.68628 0.87415 0.0
C323 C 0.84718 0.6917 0.88534 0.0
C324 C 0.84957 0.68858 0.86005 0.0
C325 C 0.84079 0.69603 0.85724 0.0
U326 U 0.8106 0.71817 0.88195 0.0
O327 O 0.80424 0.73482 0.87602 0.0
O328 O 0.79345 0.72004 0.87379 0.0
C329 C 0.79464 0.73083 0.87144 0.0
C330 C 0.82564 0.70877 0.86549 0.0
C331 C 0.79105 0.73477 0.85735 0.0
C332 C 0.79229 0.73447 0.83154 0.0
C333 C 0.79597 0.73067 0.84484 0.0
C334 C 0.77882 0.74656 0.84317 0.0
C335 C 0.78366 0.74247 0.83055 0.0
C336 C 0.78248 0.74274 0.85642 0.0
C337 C 0.80526 0.71768 0.92231 0.0
C338 C 0.78766 0.72045 0.93485 0.0
C339 C 0.80523 0.72179 0.94761 0.0
C340 C 0.81106 0.71959 0.93503 0.0
C341 C 0.79345 0.72207 0.94774 0.0
C342 C 0.79351 0.71831 0.92224 0.0
C343 C 0.81162 0.71459 0.90947 0.0
O344 O 0.81573 0.70437 0.8679 0.0
O345 O 0.82664 0.71901 0.87045 0.0
O346 O 0.81707 0.72275 0.90314 0.0
O347 O 0.80657 0.70779 0.90054 0.0
H348 H 0.83412 0.70311 0.8913 0.0
H349 H 0.84957 0.69025 0.8963 0.0
H350 H 0.85363 0.68445 0.85119 0.0
H351 H 0.83832 0.69757 0.84632 0.0
H352 H 0.79628 0.73124 0.82205 0.0
H353 H 0.80264 0.72453 0.84538 0.0
H354 H 0.77205 0.75259 0.8428 0.0
H355 H 0.77857 0.74597 0.86598 0.0
H356 H 0.77859 0.7205 0.93456 0.0
H357 H 0.80998 0.72322 0.95726 0.0
H358 H 0.82013 0.71921 0.93528 0.0
H359 H 0.78884 0.71691 0.91252 0.0
C360 C 0.07082 0.08468 0.61817 0.0
C361 C 0.07315 0.08792 0.6322 0.0
C362 C 0.08589 0.10238 0.62368 0.0
C363 C 0.08059 0.09669 0.63493 0.0
C364 C 0.08343 0.09916 0.60961 0.0
C365 C 0.07596 0.09037 0.60689 0.0
U366 U 0.05443 0.06006 0.63218 0.0
O367 O 0.03774 0.05346 0.62681 0.0
O368 O 0.0526 0.04284 0.62426 0.0
C369 C 0.04177 0.0439 0.62215 0.0
C370 C 0.06337 0.07513 0.61535 0.0
C371 C 0.0377 0.04026 0.60813 0.0
C372 C 0.038 0.04129 0.58231 0.0
C373 C 0.04179 0.0451 0.59556 0.0
C374 C 0.02593 0.02788 0.59413 0.0
C375 C 0.03007 0.03258 0.58143 0.0
C376 C 0.02972 0.03169 0.60733 0.0
C377 C 0.05626 0.05514 0.6726 0.0
C378 C 0.04799 0.03931 0.685 0.0
C379 C 0.05893 0.05298 0.69803 0.0
C380 C 0.06072 0.05897 0.68548 0.0
C381 C 0.05265 0.04302 0.69793 0.0
C382 C 0.04981 0.04532 0.6724 0.0
C383 C 0.05879 0.06136 0.65952 0.0
O384 O 0.06788 0.06526 0.61761 0.0
O385 O 0.0532 0.07603 0.62062 0.0
O386 O 0.05032 0.06652 0.65348 0.0
O387 O 0.0653 0.05617 0.65038 0.0
H388 H 0.06926 0.08359 0.64105 0.0
H389 H 0.08215 0.09905 0.64588 0.0
H390 H 0.08747 0.10326 0.6007 0.0
H391 H 0.07431 0.08793 0.59599 0.0
H392 H 0.04144 0.04502 0.57276 0.0
H393 H 0.04797 0.05173 0.59599 0.0
H394 H 0.01969 0.0213 0.59387 0.0
H395 H 0.02645 0.0279 0.61695 0.0
H396 H 0.04317 0.03163 0.68456 0.0
H397 H 0.06248 0.05617 0.70783 0.0
H398 H 0.06569 0.06656 0.68581 0.0
H399 H 0.04633 0.04224 0.66251 0.0
C400 C 0.68782 0.32024 0.36845 0.0
C401 C 0.68776 0.3273 0.38038 0.0
C402 C 0.66955 0.33475 0.37346 0.0
C403 C 0.67876 0.33452 0.38282 0.0
C404 C 0.66959 0.3275 0.36164 0.0
C405 C 0.67865 0.32033 0.35915 0.0
U406 U 0.71265 0.30376 0.38215 0.0
O407 O 0.71927 0.2872 0.37634 0.0
O408 O 0.72984 0.30213 0.37398 0.0
C409 C 0.72882 0.29132 0.37171 0.0
C410 C 0.69739 0.31278 0.36568 0.0
C411 C 0.73249 0.28741 0.35765 0.0
C412 C 0.72993 0.28585 0.33207 0.0
C413 C 0.72616 0.28956 0.34537 0.0
C414 C 0.74636 0.27782 0.34323 0.0
C415 C 0.7401 0.27996 0.33084 0.0
C416 C 0.74258 0.28151 0.35649 0.0
C417 C 0.71815 0.30463 0.42245 0.0
C418 C 0.73583 0.30214 0.43492 0.0
C419 C 0.71831 0.30045 0.44774 0.0
C420 C 0.71242 0.30259 0.43519 0.0
C421 C 0.7301 0.30037 0.44782 0.0
C422 C 0.72991 0.30422 0.42234 0.0
C423 C 0.71169 0.30755 0.40962 0.0
O424 O 0.70732 0.31725 0.36779 0.0
O425 O 0.69649 0.30261 0.37091 0.0
O426 O 0.70634 0.29926 0.40344 0.0
O427 O 0.7166 0.31436 0.40056 0.0
H428 H 0.69474 0.32731 0.38775 0.0
H429 H 0.67913 0.34007 0.39191 0.0
H430 H 0.66258 0.3273 0.35434 0.0
H431 H 0.67851 0.31487 0.34996 0.0
H432 H 0.72496 0.28773 0.32273 0.0
H433 H 0.71836 0.29415 0.34608 0.0
H434 H 0.75414 0.27317 0.34272 0.0
H435 H 0.74755 0.27976 0.36587 0.0
H436 H 0.74489 0.30225 0.43459 0.0
H437 H 0.71361 0.2989 0.4574 0.0
H438 H 0.70334 0.3028 0.43548 0.0
H439 H 0.73453 0.30571 0.4126 0.0
C440 C 0.45141 0.93817 0.11837 0.0
C441 C 0.44939 0.93477 0.13242 0.0
C442 C 0.43663 0.92026 0.12403 0.0
C443 C 0.44208 0.92588 0.13522 0.0
C444 C 0.4388 0.92366 0.10995 0.0
C445 C 0.44612 0.93255 0.10716 0.0
U446 U 0.46808 0.96283 0.132 0.0
O447 O 0.48452 0.96959 0.12582 0.0
O448 O 0.46952 0.98011 0.12411 0.0
C449 C 0.48029 0.97916 0.12149 0.0
C450 C 0.45871 0.94782 0.11545 0.0
C451 C 0.48394 0.98296 0.10737 0.0
C452 C 0.48427 0.98112 0.08162 0.0
C453 C 0.48073 0.97727 0.09497 0.0
C454 C 0.49426 0.99634 0.09299 0.0
C455 C 0.49106 0.99073 0.08048 0.0
C456 C 0.49073 0.99249 0.10629 0.0
C457 C 0.46802 0.96776 0.17241 0.0
C458 C 0.47091 0.98531 0.18499 0.0
C459 C 0.47218 0.96771 0.1977 0.0
C460 C 0.46991 0.96192 0.18511 0.0
C461 C 0.47252 0.97949 0.19786 0.0
C462 C 0.46871 0.9795 0.17237 0.0
C463 C 0.46487 0.96145 0.15956 0.0
O464 O 0.45419 0.95762 0.11812 0.0
O465 O 0.46903 0.94695 0.12021 0.0
O466 O 0.47306 0.95624 0.15297 0.0
O467 O 0.45786 0.96645 0.15085 0.0
H468 H 0.4534 0.93904 0.14122 0.0
H469 H 0.44074 0.92339 0.14617 0.0
H470 H 0.43464 0.91963 0.10109 0.0
H471 H 0.44754 0.93513 0.09625 0.0
H472 H 0.48156 0.97666 0.0722 0.0
H473 H 0.47546 0.9699 0.09562 0.0
H474 H 0.49962 1.00365 0.09253 0.0
H475 H 0.49332 0.99695 0.11577 0.0
H476 H 0.47101 0.99438 0.18473 0.0
H477 H 0.47359 0.96295 0.20733 0.0
H478 H 0.46948 0.95286 0.18533 0.0
H479 H 0.46732 0.98419 0.16266 0.0
C480 C 0.8356 0.32036 0.65723 0.0
C481 C 0.83834 0.32352 0.64328 0.0
C482 C 0.85324 0.33559 0.65217 0.0
C483 C 0.84709 0.33106 0.64077 0.0
C484 C 0.85051 0.33229 0.66613 0.0
C485 C 0.84176 0.32474 0.66862 0.0
U486 U 0.81107 0.30356 0.64333 0.0
O487 O 0.80474 0.28684 0.64903 0.0
O488 O 0.79394 0.30157 0.65153 0.0
C489 C 0.79515 0.29077 0.65373 0.0
C490 C 0.82613 0.31279 0.65994 0.0
C491 C 0.79163 0.28673 0.66781 0.0
C492 C 0.79329 0.28662 0.69358 0.0
C493 C 0.79692 0.29046 0.68027 0.0
C494 C 0.77913 0.27526 0.68206 0.0
C495 C 0.78434 0.27898 0.69463 0.0
C496 C 0.78275 0.27911 0.66879 0.0
C497 C 0.80537 0.30446 0.60324 0.0
C498 C 0.7879 0.2987 0.59216 0.0
C499 C 0.80403 0.3031 0.57753 0.0
C500 C 0.81027 0.30541 0.58976 0.0
C501 C 0.79273 0.29984 0.57858 0.0
C502 C 0.79418 0.30096 0.6044 0.0
C503 C 0.81195 0.3075 0.61588 0.0
O504 O 0.8162 0.31718 0.65766 0.0
O505 O 0.82717 0.30264 0.65468 0.0
O506 O 0.81742 0.29927 0.62201 0.0
O507 O 0.80692 0.31416 0.62499 0.0
H508 H 0.83361 0.32026 0.63436 0.0
H509 H 0.84887 0.33352 0.62991 0.0
H510 H 0.85516 0.33551 0.67513 0.0
H511 H 0.83975 0.32237 0.67946 0.0
H512 H 0.79756 0.28956 0.70303 0.0
H513 H 0.80382 0.29634 0.67969 0.0
H514 H 0.77212 0.26952 0.68247 0.0
H515 H 0.77856 0.27618 0.65927 0.0
H516 H 0.77926 0.29608 0.59332 0.0
H517 H 0.80796 0.30418 0.56724 0.0
H518 H 0.8189 0.30811 0.58867 0.0
H519 H 0.79028 0.30011 0.61475 0.0
C520 C 0.45184 0.08492 0.40677 0.0
C521 C 0.44966 0.08814 0.39269 0.0
C522 C 0.43697 0.10272 0.40099 0.0
C523 C 0.44232 0.09697 0.38982 0.0
C524 C 0.43928 0.0995 0.4151 0.0
C525 C 0.44665 0.09067 0.41795 0.0
U526 U 0.4685 0.06018 0.39341 0.0
O527 O 0.48501 0.05357 0.39954 0.0
O528 O 0.47005 0.04301 0.40161 0.0
C529 C 0.48084 0.04403 0.40408 0.0
C530 C 0.4592 0.07534 0.40977 0.0
C531 C 0.48461 0.04037 0.41821 0.0
C532 C 0.48477 0.04216 0.44396 0.0
C533 C 0.48117 0.04593 0.43061 0.0
C534 C 0.4953 0.02731 0.4326 0.0
C535 C 0.49184 0.03277 0.44512 0.0
C536 C 0.49171 0.03108 0.41929 0.0
C537 C 0.46819 0.05457 0.35328 0.0
C538 C 0.47382 0.03703 0.34232 0.0
C539 C 0.4699 0.05323 0.32761 0.0
C540 C 0.46752 0.05949 0.33979 0.0
C541 C 0.47295 0.04188 0.32871 0.0
C542 C 0.4715 0.04333 0.35451 0.0
C543 C 0.46506 0.06117 0.36586 0.0
O544 O 0.45469 0.06549 0.40735 0.0
O545 O 0.46947 0.07621 0.40486 0.0
O546 O 0.47327 0.0665 0.37224 0.0
O547 O 0.45815 0.05623 0.37477 0.0
H548 H 0.45359 0.08377 0.38391 0.0
H549 H 0.44086 0.09932 0.37885 0.0
H550 H 0.4352 0.10363 0.42395 0.0
H551 H 0.44818 0.08823 0.42888 0.0
H552 H 0.48187 0.04649 0.45339 0.0
H553 H 0.47567 0.05312 0.42995 0.0
H554 H 0.50088 0.02018 0.43307 0.0
H555 H 0.49448 0.02672 0.40982 0.0
H556 H 0.47628 0.02836 0.34353 0.0
H557 H 0.46902 0.05718 0.3173 0.0
H558 H 0.46497 0.06815 0.33866 0.0
H559 H 0.47213 0.03941 0.36487 0.0
C560 C 0.68766 0.70177 0.15693 0.0
C561 C 0.68505 0.69853 0.14297 0.0
C562 C 0.67001 0.68658 0.15174 0.0
C563 C 0.6763 0.69102 0.14039 0.0
C564 C 0.67261 0.68996 0.1657 0.0
C565 C 0.68137 0.69749 0.16826 0.0
U566 U 0.71228 0.71854 0.14322 0.0
O567 O 0.71861 0.73525 0.14897 0.0
O568 O 0.72938 0.7205 0.15154 0.0
C569 C 0.72818 0.7313 0.15374 0.0
C570 C 0.69713 0.70932 0.15971 0.0
C571 C 0.73164 0.73533 0.16784 0.0
C572 C 0.72997 0.73535 0.19361 0.0
C573 C 0.72638 0.73152 0.18028 0.0
C574 C 0.74403 0.74688 0.18213 0.0
C575 C 0.73885 0.74307 0.19469 0.0
C576 C 0.74045 0.74304 0.16885 0.0
C577 C 0.71815 0.71769 0.10315 0.0
C578 C 0.7357 0.72331 0.09214 0.0
C579 C 0.71952 0.71923 0.07746 0.0
C580 C 0.71324 0.71691 0.08966 0.0
C581 C 0.73086 0.72234 0.07855 0.0
C582 C 0.72938 0.72104 0.10436 0.0
C583 C 0.71152 0.71465 0.11575 0.0
O584 O 0.70707 0.70492 0.15749 0.0
O585 O 0.69613 0.71947 0.15445 0.0
O586 O 0.70603 0.72287 0.12186 0.0
O587 O 0.71651 0.70797 0.12489 0.0
H588 H 0.68988 0.70172 0.13409 0.0
H589 H 0.67462 0.68849 0.12954 0.0
H590 H 0.66785 0.68681 0.17466 0.0
H591 H 0.68327 0.69991 0.1791 0.0
H592 H 0.72573 0.73234 0.20305 0.0
H593 H 0.71954 0.72558 0.17967 0.0
H594 H 0.75099 0.75269 0.18257 0.0
H595 H 0.74462 0.74603 0.15935 0.0
H596 H 0.74437 0.72581 0.09334 0.0
H597 H 0.71558 0.71828 0.06715 0.0
H598 H 0.70459 0.71433 0.08854 0.0
H599 H 0.73329 0.72177 0.11471 0.0
C600 C 0.07064 0.93758 0.90736 0.0
C601 C 0.07397 0.93491 0.89346 0.0
C602 C 0.08587 0.91993 0.90248 0.0
C603 C 0.08151 0.92616 0.89104 0.0
C604 C 0.0824 0.9226 0.91639 0.0
C605 C 0.07485 0.93135 0.9188 0.0
U606 U 0.05386 0.96198 0.89317 0.0
O607 O 0.03705 0.96822 0.89862 0.0
O608 O 0.05172 0.9791 0.90126 0.0
C609 C 0.04091 0.97782 0.90339 0.0
C610 C 0.06301 0.94701 0.90997 0.0
C611 C 0.03683 0.98125 0.91749 0.0
C612 C 0.0371 0.97982 0.94327 0.0
C613 C 0.04091 0.97623 0.92994 0.0
C614 C 0.02503 0.99338 0.93178 0.0
C615 C 0.02913 0.98846 0.94435 0.0
C616 C 0.02886 0.98981 0.91849 0.0
C617 C 0.05533 0.96736 0.85294 0.0
C618 C 0.04498 0.98205 0.84081 0.0
C619 C 0.05863 0.97101 0.8279 0.0
C620 C 0.06093 0.96492 0.84024 0.0
C621 C 0.05064 0.97967 0.82802 0.0
C622 C 0.04731 0.97594 0.85319 0.0
C623 C 0.05816 0.96099 0.86581 0.0
O624 O 0.06738 0.95695 0.90771 0.0
O625 O 0.05291 0.94591 0.90459 0.0
O626 O 0.04987 0.95553 0.87185 0.0
O627 O 0.06462 0.96622 0.87497 0.0
H628 H 0.07083 0.93968 0.88451 0.0
H629 H 0.08411 0.92444 0.88022 0.0
H630 H 0.08549 0.91789 0.92542 0.0
H631 H 0.07234 0.9333 0.92959 0.0
H632 H 0.04033 0.97576 0.95272 0.0
H633 H 0.04706 0.96958 0.92935 0.0
H634 H 0.01901 1.00016 0.93222 0.0
H635 H 0.02565 0.9938 0.90897 0.0
H636 H 0.03871 0.98859 0.84125 0.0
H637 H 0.0633 0.96908 0.81834 0.0
H638 H 0.06719 0.95836 0.8399 0.0
H639 H 0.04291 0.97794 0.86295 0.0
C640 C 0.68892 0.82231 0.65705 0.0
C641 C 0.68587 0.82447 0.64291 0.0
C642 C 0.6715 0.83752 0.65088 0.0
C643 C 0.67722 0.83198 0.63985 0.0
C644 C 0.67453 0.83522 0.66506 0.0
C645 C 0.68318 0.82768 0.6681 0.0
U646 U 0.71343 0.80524 0.64399 0.0
O647 O 0.73052 0.80329 0.65234 0.0
O648 O 0.71966 0.78857 0.65004 0.0
C649 C 0.72927 0.79252 0.6547 0.0
C650 C 0.69833 0.81477 0.66023 0.0
C651 C 0.73278 0.78856 0.66882 0.0
C652 C 0.73145 0.78891 0.69462 0.0
C653 C 0.72782 0.79271 0.68129 0.0
C654 C 0.74492 0.77676 0.68309 0.0
C655 C 0.74006 0.78089 0.69567 0.0
C656 C 0.74131 0.78057 0.66981 0.0
C657 C 0.71914 0.80564 0.60383 0.0
C658 C 0.73662 0.80006 0.59264 0.0
C659 C 0.72027 0.80383 0.57815 0.0
C660 C 0.71409 0.80623 0.5904 0.0
C661 C 0.73164 0.80085 0.57911 0.0
C662 C 0.73041 0.80241 0.60491 0.0
C663 C 0.71262 0.80882 0.61646 0.0
O664 O 0.69731 0.80452 0.6553 0.0
O665 O 0.7083 0.81909 0.65795 0.0
O666 O 0.71769 0.81557 0.62544 0.0
O667 O 0.7071 0.80069 0.62274 0.0
H668 H 0.69023 0.8204 0.63422 0.0
H669 H 0.67501 0.83343 0.62883 0.0
H670 H 0.67041 0.83943 0.6738 0.0
H671 H 0.68549 0.82615 0.67908 0.0
H672 H 0.72745 0.79218 0.70408 0.0
H673 H 0.72119 0.79887 0.6807 0.0
H674 H 0.75167 0.77071 0.6835 0.0
H675 H 0.74524 0.77731 0.66028 0.0
H676 H 0.74533 0.79766 0.59374 0.0
H677 H 0.71622 0.80465 0.56789 0.0
H678 H 0.70541 0.80873 0.58937 0.0
H679 H 0.73443 0.80184 0.61522 0.0
C680 C 0.44988 0.4396 0.90717 0.0
C681 C 0.44348 0.43955 0.89464 0.0
C682 C 0.43473 0.42198 0.90165 0.0
C683 C 0.43594 0.43086 0.89194 0.0
C684 C 0.4413 0.42196 0.91408 0.0
C685 C 0.44879 0.43073 0.91683 0.0
U686 U 0.46743 0.46356 0.89346 0.0
O687 O 0.46989 0.4807 0.90137 0.0
O688 O 0.48433 0.46945 0.89919 0.0
C689 C 0.48064 0.4792 0.90371 0.0
C690 C 0.45774 0.44882 0.91007 0.0
C691 C 0.48467 0.48275 0.91778 0.0
C692 C 0.48397 0.48192 0.9436 0.0
C693 C 0.48027 0.47812 0.93031 0.0
C694 C 0.49656 0.49491 0.93192 0.0
C695 C 0.49211 0.49044 0.94456 0.0
C696 C 0.49287 0.49111 0.91867 0.0
C697 C 0.4665 0.46857 0.85307 0.0
C698 C 0.47565 0.48411 0.84107 0.0
C699 C 0.46517 0.47045 0.82743 0.0
C700 C 0.46261 0.46467 0.83993 0.0
C701 C 0.47169 0.48026 0.82783 0.0
C702 C 0.47308 0.4783 0.8536 0.0
C703 C 0.4634 0.46246 0.86603 0.0
O704 O 0.46788 0.44747 0.90491 0.0
O705 O 0.45372 0.45892 0.90788 0.0
O706 O 0.45699 0.46793 0.87501 0.0
O707 O 0.47152 0.45689 0.87227 0.0
H708 H 0.44431 0.44626 0.88694 0.0
H709 H 0.43113 0.43102 0.88217 0.0
H710 H 0.4405 0.41527 0.9218 0.0
H711 H 0.45369 0.43061 0.92653 0.0
H712 H 0.48028 0.47837 0.95311 0.0
H713 H 0.47391 0.47166 0.9298 0.0
H714 H 0.50297 0.50133 0.93225 0.0
H715 H 0.49637 0.49475 0.90909 0.0
H716 H 0.48077 0.49158 0.84174 0.0
H717 H 0.46182 0.46735 0.81748 0.0
H718 H 0.45748 0.4572 0.83935 0.0
H719 H 0.47617 0.48141 0.8637 0.0
C720 C 0.83376 0.19933 0.15737 0.0
C721 C 0.83703 0.19742 0.14324 0.0
C722 C 0.85141 0.18438 0.15122 0.0
C723 C 0.84579 0.19004 0.1402 0.0
C724 C 0.84817 0.18645 0.16538 0.0
C725 C 0.8394 0.19385 0.16842 0.0
U726 U 0.80911 0.21616 0.14421 0.0
O727 O 0.79187 0.21761 0.15227 0.0
O728 O 0.80244 0.23259 0.15054 0.0
C729 C 0.79287 0.22837 0.15491 0.0
C730 C 0.82419 0.20666 0.16052 0.0
C731 C 0.78909 0.23201 0.16905 0.0
C732 C 0.7916 0.23336 0.19465 0.0
C733 C 0.79542 0.22979 0.1813 0.0
C734 C 0.77511 0.24134 0.18357 0.0
C735 C 0.78138 0.23916 0.19594 0.0
C736 C 0.77894 0.23779 0.17027 0.0
C737 C 0.80381 0.21627 0.10399 0.0
C738 C 0.78638 0.22202 0.09282 0.0
C739 C 0.80271 0.21816 0.07832 0.0
C740 C 0.80886 0.21568 0.09056 0.0
C741 C 0.79136 0.22124 0.07928 0.0
C742 C 0.79257 0.21959 0.10508 0.0
C743 C 0.81029 0.21302 0.11662 0.0
O744 O 0.82509 0.217 0.15583 0.0
O745 O 0.81433 0.20221 0.15796 0.0
O746 O 0.80528 0.20603 0.12535 0.0
O747 O 0.81557 0.22117 0.12319 0.0
H748 H 0.83273 0.20157 0.13457 0.0
H749 H 0.84816 0.18878 0.1292 0.0
H750 H 0.85222 0.18214 0.17411 0.0
H751 H 0.83693 0.19518 0.17938 0.0
H752 H 0.79658 0.23144 0.20397 0.0
H753 H 0.80327 0.22529 0.18054 0.0
H754 H 0.7673 0.24592 0.18414 0.0
H755 H 0.77396 0.2396 0.1609 0.0
H756 H 0.7777 0.22449 0.09392 0.0
H757 H 0.80676 0.21735 0.06806 0.0
H758 H 0.81753 0.21312 0.08953 0.0
H759 H 0.78855 0.22016 0.11539 0.0
C760 C 0.07227 0.58319 0.40874 0.0
C761 C 0.07543 0.586 0.39482 0.0
C762 C 0.08742 0.60091 0.4038 0.0
C763 C 0.08292 0.59478 0.39236 0.0
C764 C 0.08414 0.5981 0.41774 0.0
C765 C 0.07662 0.58931 0.42018 0.0
U766 U 0.0557 0.55879 0.3943 0.0
O767 O 0.05367 0.54157 0.40212 0.0
O768 O 0.03893 0.55234 0.39956 0.0
C769 C 0.04285 0.54274 0.40424 0.0
C770 C 0.0647 0.57369 0.41133 0.0
C771 C 0.03878 0.53919 0.4183 0.0
C772 C 0.03902 0.54051 0.4441 0.0
C773 C 0.04283 0.54417 0.4308 0.0
C774 C 0.02701 0.52694 0.4325 0.0
C775 C 0.03107 0.53182 0.44511 0.0
C776 C 0.03084 0.53059 0.41923 0.0
C777 C 0.05761 0.55414 0.35382 0.0
C778 C 0.04941 0.53841 0.34115 0.0
C779 C 0.06015 0.55237 0.32832 0.0
C780 C 0.06195 0.55819 0.34098 0.0
C781 C 0.05396 0.54234 0.32826 0.0
C782 C 0.05125 0.54426 0.35386 0.0
C783 C 0.06016 0.56021 0.367 0.0
O784 O 0.05459 0.57473 0.40596 0.0
O785 O 0.06914 0.56379 0.409 0.0
O786 O 0.06658 0.55489 0.37612 0.0
O787 O 0.05172 0.56542 0.37305 0.0
H788 H 0.07219 0.5813 0.38585 0.0
H789 H 0.08539 0.59661 0.38152 0.0
H790 H 0.08734 0.60273 0.42677 0.0
H791 H 0.07426 0.58724 0.431 0.0
H792 H 0.04222 0.54454 0.45358 0.0
H793 H 0.04895 0.55086 0.43026 0.0
H794 H 0.02101 0.52014 0.43287 0.0
H795 H 0.02765 0.52664 0.40968 0.0
H796 H 0.04467 0.53068 0.34147 0.0
H797 H 0.0636 0.55573 0.31856 0.0
H798 H 0.06685 0.56583 0.34077 0.0
H799 H 0.04786 0.54101 0.36372 0.0
C800 C 0.68929 0.20022 0.86791 0.0
C801 C 0.6858 0.19841 0.88197 0.0
C802 C 0.67167 0.18514 0.87384 0.0
C803 C 0.67706 0.19097 0.88491 0.0
C804 C 0.67515 0.18709 0.85973 0.0
C805 C 0.68389 0.19456 0.85681 0.0
U806 U 0.71376 0.21719 0.88137 0.0
O807 O 0.73098 0.21894 0.87338 0.0
O808 O 0.72023 0.23376 0.87528 0.0
C809 C 0.72985 0.22971 0.87086 0.0
C810 C 0.69881 0.20765 0.86488 0.0
C811 C 0.73353 0.23351 0.85674 0.0
C812 C 0.732 0.23342 0.83096 0.0
C813 C 0.72828 0.22972 0.84429 0.0
C814 C 0.7462 0.24475 0.84245 0.0
C815 C 0.74101 0.24099 0.82988 0.0
C816 C 0.74249 0.24104 0.85573 0.0
C817 C 0.71873 0.217 0.92183 0.0
C818 C 0.7362 0.21977 0.93467 0.0
C819 C 0.71848 0.22121 0.9471 0.0
C820 C 0.71279 0.21897 0.93443 0.0
C821 C 0.73027 0.22145 0.94744 0.0
C822 C 0.73048 0.2176 0.92196 0.0
C823 C 0.7125 0.21383 0.90891 0.0
O824 O 0.69782 0.21795 0.86966 0.0
O825 O 0.7087 0.20327 0.86745 0.0
O826 O 0.71762 0.20696 0.90014 0.0
O827 O 0.70714 0.22196 0.9024 0.0
H828 H 0.68991 0.2027 0.89069 0.0
H829 H 0.67451 0.1898 0.89587 0.0
H830 H 0.67129 0.18264 0.85097 0.0
H831 H 0.68653 0.19581 0.84589 0.0
H832 H 0.72774 0.23045 0.82151 0.0
H833 H 0.72131 0.22391 0.8449 0.0
H834 H 0.75326 0.25044 0.84201 0.0
H835 H 0.74665 0.24402 0.86525 0.0
H836 H 0.74526 0.2198 0.93454 0.0
H837 H 0.71364 0.22268 0.95665 0.0
H838 H 0.70372 0.21861 0.93452 0.0
H839 H 0.73525 0.21615 0.91234 0.0
C840 C 0.07207 0.43936 0.11726 0.0
C841 C 0.07535 0.43674 0.1312 0.0
C842 C 0.08726 0.42172 0.12236 0.0
C843 C 0.08287 0.42799 0.13373 0.0
C844 C 0.08385 0.42433 0.10841 0.0
C845 C 0.07632 0.43309 0.1059 0.0
U846 U 0.05524 0.46371 0.13136 0.0
O847 O 0.05312 0.48087 0.12334 0.0
O848 O 0.03844 0.46997 0.12585 0.0
C849 C 0.04232 0.47959 0.12115 0.0
C850 C 0.06446 0.44879 0.11457 0.0
C851 C 0.03829 0.48307 0.10705 0.0
C852 C 0.03864 0.48173 0.08125 0.0
C853 C 0.0424 0.47809 0.09458 0.0
C854 C 0.02653 0.49525 0.09275 0.0
C855 C 0.03066 0.49037 0.08017 0.0
C856 C 0.03031 0.49162 0.10604 0.0
C857 C 0.05664 0.46883 0.1717 0.0
C858 C 0.04618 0.48327 0.18414 0.0
C859 C 0.06002 0.47226 0.19676 0.0
C860 C 0.06234 0.46633 0.18431 0.0
C861 C 0.05192 0.48082 0.19685 0.0
C862 C 0.04853 0.47732 0.17164 0.0
C863 C 0.05947 0.46259 0.15873 0.0
O864 O 0.05433 0.44769 0.11986 0.0
O865 O 0.06881 0.45874 0.11687 0.0
O866 O 0.06594 0.46788 0.14964 0.0
O867 O 0.05118 0.45717 0.15262 0.0
H868 H 0.07219 0.44156 0.14011 0.0
H869 H 0.08543 0.42631 0.14458 0.0
H870 H 0.08697 0.41958 0.09944 0.0
H871 H 0.07386 0.435 0.09507 0.0
H872 H 0.0419 0.47771 0.0718 0.0
H873 H 0.04855 0.47144 0.09518 0.0
H874 H 0.02051 0.50202 0.09232 0.0
H875 H 0.02708 0.49558 0.11557 0.0
H876 H 0.03983 0.48974 0.18385 0.0
H877 H 0.06477 0.47029 0.20626 0.0
H878 H 0.06868 0.45984 0.18451 0.0
H879 H 0.04406 0.47936 0.16195 0.0
C880 C 0.83347 0.82251 0.36714 0.0
C881 C 0.83622 0.82556 0.38112 0.0
C882 C 0.85117 0.83763 0.37235 0.0
C883 C 0.845 0.83304 0.3837 0.0
C884 C 0.84842 0.83444 0.35836 0.0
C885 C 0.83963 0.82694 0.35579 0.0
U886 U 0.80914 0.80549 0.3811 0.0
O887 O 0.79192 0.80354 0.3732 0.0
O888 O 0.80279 0.78882 0.37525 0.0
C889 C 0.79313 0.79277 0.37079 0.0
C890 C 0.82398 0.81496 0.36439 0.0
C891 C 0.78948 0.78886 0.35671 0.0
C892 C 0.79095 0.78894 0.33092 0.0
C893 C 0.79466 0.7927 0.34422 0.0
C894 C 0.77691 0.77745 0.3425 0.0
C895 C 0.78202 0.78126 0.3299 0.0
C896 C 0.78062 0.78122 0.35576 0.0
C897 C 0.8042 0.80594 0.42155 0.0
C898 C 0.78676 0.80304 0.43441 0.0
C899 C 0.80448 0.80185 0.44685 0.0
C900 C 0.81015 0.80409 0.43417 0.0
C901 C 0.7927 0.80148 0.44719 0.0
C902 C 0.79246 0.80523 0.42169 0.0
C903 C 0.81041 0.80907 0.4086 0.0
O904 O 0.82509 0.80474 0.36939 0.0
O905 O 0.81407 0.8193 0.36694 0.0
O906 O 0.80523 0.81584 0.39974 0.0
O907 O 0.81583 0.80094 0.40218 0.0
H908 H 0.83149 0.82225 0.39002 0.0
H909 H 0.84679 0.83543 0.39458 0.0
H910 H 0.85308 0.83771 0.34939 0.0
H911 H 0.83761 0.82466 0.34494 0.0
H912 H 0.79514 0.79194 0.32144 0.0
H913 H 0.80155 0.79858 0.34478 0.0
H914 H 0.76992 0.77168 0.34212 0.0
H915 H 0.77651 0.77821 0.3653 0.0
H916 H 0.77769 0.80292 0.43428 0.0
H917 H 0.80934 0.80046 0.45642 0.0
H918 H 0.81922 0.80454 0.43426 0.0
H919 H 0.78768 0.80658 0.41205 0.0
C920 C 0.44984 0.58321 0.61774 0.0
C921 C 0.44764 0.58639 0.63183 0.0
C922 C 0.4346 0.60067 0.62359 0.0
C923 C 0.44011 0.59505 0.63473 0.0
C924 C 0.43695 0.59752 0.60946 0.0
C925 C 0.4445 0.58885 0.60658 0.0
U926 U 0.46687 0.55891 0.63139 0.0
O927 O 0.46891 0.54173 0.62344 0.0
O928 O 0.48361 0.55264 0.62563 0.0
C929 C 0.47969 0.54299 0.62109 0.0
C930 C 0.45741 0.57379 0.61476 0.0
C931 C 0.48365 0.53938 0.60702 0.0
C932 C 0.48291 0.54015 0.5812 0.0
C933 C 0.4792 0.54394 0.59448 0.0
C934 C 0.49563 0.5273 0.59288 0.0
C935 C 0.49116 0.53176 0.58024 0.0
C936 C 0.4919 0.53108 0.60613 0.0
C937 C 0.46597 0.55389 0.67176 0.0
C938 C 0.47677 0.53962 0.68405 0.0
C939 C 0.46282 0.55036 0.69685 0.0
C940 C 0.46031 0.55626 0.68444 0.0
C941 C 0.47108 0.54195 0.69683 0.0
C942 C 0.47423 0.54554 0.67159 0.0
C943 C 0.46296 0.56011 0.65884 0.0
O944 O 0.46764 0.57488 0.61976 0.0
O945 O 0.4531 0.56384 0.61717 0.0
O946 O 0.45639 0.55478 0.6499 0.0
O947 O 0.47117 0.56552 0.65253 0.0
H948 H 0.45169 0.5821 0.6406 0.0
H949 H 0.43864 0.59736 0.64571 0.0
H950 H 0.43276 0.60157 0.60064 0.0
H951 H 0.44607 0.58645 0.59564 0.0
H952 H 0.47938 0.54384 0.57168 0.0
H953 H 0.47283 0.55039 0.59498 0.0
H954 H 0.50187 0.52073 0.59256 0.0
H955 H 0.4954 0.52744 0.61571 0.0
H956 H 0.48324 0.53327 0.68368 0.0
H957 H 0.45812 0.55224 0.70641 0.0
H958 H 0.45387 0.56264 0.68471 0.0
H959 H 0.47866 0.54359 0.66185 0.0
C960 C 0.33497 0.20165 0.36794 0.0
C961 C 0.33792 0.19867 0.38188 0.0
C962 C 0.35293 0.1868 0.3729 0.0
C963 C 0.34683 0.19132 0.38434 0.0
C964 C 0.34998 0.18991 0.35895 0.0
C965 C 0.34107 0.19727 0.3565 0.0
U966 U 0.31026 0.21809 0.382 0.0
O967 O 0.30357 0.23463 0.37621 0.0
O968 O 0.29303 0.21968 0.37399 0.0
C969 C 0.29401 0.23049 0.37168 0.0
C970 C 0.32535 0.20903 0.36529 0.0
C971 C 0.29028 0.23438 0.35763 0.0
C972 C 0.29255 0.23558 0.33198 0.0
C973 C 0.29634 0.23184 0.34526 0.0
C974 C 0.27663 0.24441 0.34336 0.0
C975 C 0.28261 0.24188 0.33087 0.0
C976 C 0.28044 0.24069 0.3566 0.0
C977 C 0.30482 0.21739 0.42213 0.0
C978 C 0.28733 0.22305 0.43321 0.0
C979 C 0.30351 0.21886 0.44783 0.0
C980 C 0.30975 0.21654 0.4356 0.0
C981 C 0.29219 0.22202 0.44679 0.0
C982 C 0.29361 0.22079 0.42097 0.0
C983 C 0.3114 0.21436 0.40948 0.0
O984 O 0.31552 0.20447 0.36776 0.0
O985 O 0.32625 0.21922 0.37043 0.0
O986 O 0.31669 0.22265 0.40319 0.0
O987 O 0.30644 0.20754 0.4005 0.0
H988 H 0.33324 0.20193 0.39084 0.0
H989 H 0.34877 0.189 0.3952 0.0
H990 H 0.35458 0.18669 0.34991 0.0
H991 H 0.3389 0.19949 0.34567 0.0
H992 H 0.29729 0.23339 0.32257 0.0
H993 H 0.30396 0.22694 0.34588 0.0
H994 H 0.26906 0.24939 0.34294 0.0
H995 H 0.27568 0.24275 0.36606 0.0
H996 H 0.27867 0.22559 0.43205 0.0
H997 H 0.30746 0.21786 0.45812 0.0
H998 H 0.3184 0.21392 0.43668 0.0
H999 H 0.28968 0.22155 0.41062 0.0
C1000 C 0.57091 0.58472 0.11736 0.0
C1001 C 0.57293 0.58817 0.13139 0.0
C1002 C 0.58613 0.60227 0.123 0.0
C1003 C 0.58044 0.59687 0.13419 0.0
C1004 C 0.58396 0.59885 0.10893 0.0
C1005 C 0.57642 0.59014 0.10615 0.0
U1006 U 0.5539 0.56049 0.13133 0.0
O1007 O 0.53724 0.55404 0.1255 0.0
O1008 O 0.55201 0.5432 0.1237 0.0
C1009 C 0.54124 0.54437 0.12119 0.0
C1010 C 0.56339 0.57523 0.1145 0.0
C1011 C 0.53742 0.54059 0.10712 0.0
C1012 C 0.53819 0.54132 0.0813 0.0
C1013 C 0.5418 0.54523 0.09459 0.0
C1014 C 0.52572 0.52822 0.093 0.0
C1015 C 0.53015 0.53272 0.08035 0.0
C1016 C 0.52934 0.53212 0.10624 0.0
C1017 C 0.55468 0.55615 0.17196 0.0
C1018 C 0.54978 0.53915 0.18476 0.0
C1019 C 0.55368 0.55623 0.19774 0.0
C1020 C 0.55552 0.56185 0.18492 0.0
C1021 C 0.55098 0.54477 0.19784 0.0
C1022 C 0.55162 0.5448 0.1719 0.0
C1023 C 0.55759 0.56211 0.15878 0.0
O1024 O 0.56774 0.56534 0.11714 0.0
O1025 O 0.55313 0.57632 0.11937 0.0
O1026 O 0.54934 0.56733 0.15232 0.0
O1027 O 0.56427 0.55676 0.15001 0.0
H1028 H 0.56875 0.58405 0.1402 0.0
H1029 H 0.58177 0.59939 0.14512 0.0
H1030 H 0.58829 0.60272 0.10008 0.0
H1031 H 0.575 0.58753 0.09526 0.0
H1032 H 0.54185 0.54491 0.07179 0.0
H1033 H 0.54806 0.55178 0.09508 0.0
H1034 H 0.51939 0.52174 0.09268 0.0
H1035 H 0.52583 0.52849 0.11583 0.0
H1036 H 0.54778 0.53031 0.18446 0.0
H1037 H 0.55446 0.56086 0.20759 0.0
H1038 H 0.55782 0.57063 0.18515 0.0
H1039 H 0.55091 0.54027 0.16197 0.0
C1040 C 0.18794 0.82113 0.86845 0.0
C1041 C 0.18452 0.82306 0.88251 0.0
C1042 C 0.17029 0.83617 0.87428 0.0
C1043 C 0.17577 0.83048 0.8854 0.0
C1044 C 0.17368 0.83408 0.86018 0.0
C1045 C 0.18244 0.82663 0.8573 0.0
U1046 U 0.21253 0.80432 0.88191 0.0
O1047 O 0.21913 0.78782 0.87576 0.0
O1048 O 0.22976 0.80274 0.87389 0.0
C1049 C 0.22872 0.79197 0.87134 0.0
C1050 C 0.1975 0.81374 0.86545 0.0
C1051 C 0.23244 0.78825 0.85722 0.0
C1052 C 0.23027 0.7875 0.83153 0.0
C1053 C 0.2265 0.79111 0.84487 0.0
C1054 C 0.24594 0.77815 0.8428 0.0
C1055 C 0.24007 0.781 0.83033 0.0
C1056 C 0.24216 0.78175 0.8561 0.0
C1057 C 0.2177 0.80448 0.92229 0.0
C1058 C 0.2353 0.80174 0.93482 0.0
C1059 C 0.21772 0.80025 0.94756 0.0
C1060 C 0.21189 0.80249 0.93499 0.0
C1061 C 0.22951 0.80003 0.9477 0.0
C1062 C 0.22944 0.80391 0.92222 0.0
C1063 C 0.21133 0.80762 0.90946 0.0
O1064 O 0.20736 0.8182 0.868 0.0
O1065 O 0.19656 0.80345 0.87027 0.0
O1066 O 0.20602 0.79945 0.90297 0.0
O1067 O 0.21634 0.81457 0.90066 0.0
H1068 H 0.18871 0.81889 0.89127 0.0
H1069 H 0.17328 0.83176 0.89636 0.0
H1070 H 0.16975 0.83841 0.85137 0.0
H1071 H 0.18502 0.82529 0.84639 0.0
H1072 H 0.22561 0.78994 0.82214 0.0
H1073 H 0.21898 0.79616 0.84556 0.0
H1074 H 0.2534 0.77302 0.8423 0.0
H1075 H 0.24682 0.77943 0.86554 0.0
H1076 H 0.24436 0.80173 0.93454 0.0
H1077 H 0.21298 0.79876 0.95719 0.0
H1078 H 0.20282 0.80283 0.93523 0.0
H1079 H 0.23411 0.80538 0.91251 0.0
C1080 C 0.95229 0.4376 0.61816 0.0
C1081 C 0.95009 0.4343 0.63221 0.0
C1082 C 0.93708 0.42003 0.6238 0.0
C1083 C 0.94258 0.42559 0.635 0.0
C1084 C 0.93942 0.42331 0.60971 0.0
C1085 C 0.94696 0.43203 0.60693 0.0
U1086 U 0.96882 0.46221 0.63197 0.0
O1087 O 0.98553 0.46871 0.62649 0.0
O1088 O 0.97071 0.47937 0.62388 0.0
C1089 C 0.98153 0.47825 0.62172 0.0
C1090 C 0.95978 0.4471 0.61528 0.0
C1091 C 0.98556 0.48173 0.60761 0.0
C1092 C 0.98525 0.4803 0.58182 0.0
C1093 C 0.98147 0.47669 0.59516 0.0
C1094 C 0.99731 0.4939 0.59327 0.0
C1095 C 0.99321 0.48897 0.58071 0.0
C1096 C 0.99351 0.49031 0.60658 0.0
C1097 C 0.96707 0.46724 0.6724 0.0
C1098 C 0.97506 0.48324 0.68475 0.0
C1099 C 0.9647 0.46918 0.69791 0.0
C1100 C 0.96291 0.46321 0.68535 0.0
C1101 C 0.97068 0.47934 0.69775 0.0
C1102 C 0.97324 0.47724 0.67215 0.0
C1103 C 0.96451 0.46103 0.65933 0.0
O1104 O 0.95531 0.457 0.61749 0.0
O1105 O 0.96995 0.44618 0.62053 0.0
O1106 O 0.97295 0.45581 0.6533 0.0
O1107 O 0.95801 0.46623 0.65019 0.0
H1108 H 0.95412 0.43853 0.64103 0.0
H1109 H 0.94111 0.42319 0.64596 0.0
H1110 H 0.93523 0.41932 0.60084 0.0
H1111 H 0.94851 0.43453 0.59603 0.0
H1112 H 0.98202 0.47623 0.57238 0.0
H1113 H 0.97534 0.47001 0.59577 0.0
H1114 H 1.00332 0.50069 0.59283 0.0
H1115 H 0.99672 0.4943 0.61609 0.0
H1116 H 0.97963 0.49106 0.68427 0.0
H1117 H 0.96137 0.46585 0.70776 0.0
H1118 H 0.95816 0.45548 0.68573 0.0
H1119 H 0.97649 0.48047 0.6622 0.0
C1120 C 0.3352 0.82058 0.15698 0.0
C1121 C 0.33798 0.82372 0.14304 0.0
C1122 C 0.35301 0.83562 0.15195 0.0
C1123 C 0.34681 0.83116 0.14054 0.0
C1124 C 0.35023 0.83234 0.1659 0.0
C1125 C 0.3414 0.82488 0.16838 0.0
U1126 U 0.31059 0.80388 0.14307 0.0
O1127 O 0.30421 0.78717 0.14877 0.0
O1128 O 0.29346 0.80194 0.15129 0.0
C1129 C 0.29463 0.79114 0.15349 0.0
C1130 C 0.32568 0.81305 0.15967 0.0
C1131 C 0.29111 0.7871 0.16757 0.0
C1132 C 0.29253 0.78724 0.19336 0.0
C1133 C 0.29617 0.79107 0.18005 0.0
C1134 C 0.27882 0.77537 0.18177 0.0
C1135 C 0.28379 0.77934 0.19437 0.0
C1136 C 0.28245 0.77922 0.16851 0.0
C1137 C 0.30486 0.80472 0.10299 0.0
C1138 C 0.28736 0.79897 0.09199 0.0
C1139 C 0.30349 0.80323 0.0773 0.0
C1140 C 0.30975 0.80558 0.0895 0.0
C1141 C 0.29218 0.80002 0.07839 0.0
C1142 C 0.29366 0.80126 0.1042 0.0
C1143 C 0.31146 0.80777 0.11561 0.0
O1144 O 0.31578 0.81749 0.15736 0.0
O1145 O 0.32668 0.8029 0.15442 0.0
O1146 O 0.31693 0.79954 0.12176 0.0
O1147 O 0.30646 0.81446 0.1247 0.0
H1148 H 0.33322 0.82051 0.1341 0.0
H1149 H 0.34862 0.83361 0.12969 0.0
H1150 H 0.35491 0.8355 0.17491 0.0
H1151 H 0.33936 0.82253 0.17921 0.0
H1152 H 0.29662 0.79037 0.20284 0.0
H1153 H 0.30291 0.79714 0.1795 0.0
H1154 H 0.27198 0.76943 0.18215 0.0
H1155 H 0.27844 0.7761 0.15896 0.0
H1156 H 0.27871 0.79639 0.09319 0.0
H1157 H 0.30741 0.80425 0.06699 0.0
H1158 H 0.31838 0.80824 0.08838 0.0
H1159 H 0.28976 0.80048 0.11456 0.0
C1160 C 0.95205 0.58451 0.90728 0.0
C1161 C 0.94893 0.58732 0.89334 0.0
C1162 C 0.937 0.6023 0.90229 0.0
C1163 C 0.94149 0.59615 0.89086 0.0
C1164 C 0.94024 0.59948 0.91624 0.0
C1165 C 0.9477 0.59066 0.9187 0.0
U1166 U 0.96876 0.56003 0.89319 0.0
O1167 O 0.98554 0.55373 0.89871 0.0
O1168 O 0.97082 0.5429 0.90132 0.0
C1169 C 0.98163 0.54415 0.90348 0.0
C1170 C 0.95962 0.57504 0.90994 0.0
C1171 C 0.98568 0.5407 0.91759 0.0
C1172 C 0.98535 0.54208 0.94338 0.0
C1173 C 0.98157 0.54569 0.93004 0.0
C1174 C 0.99746 0.52855 0.9319 0.0
C1175 C 0.99333 0.53344 0.94447 0.0
C1176 C 0.99366 0.53215 0.9186 0.0
C1177 C 0.96737 0.55469 0.85293 0.0
C1178 C 0.97797 0.54026 0.84066 0.0
C1179 C 0.96389 0.55091 0.82796 0.0
C1180 C 0.96156 0.55696 0.84032 0.0
C1181 C 0.97212 0.54247 0.82796 0.0
C1182 C 0.97561 0.54632 0.85306 0.0
C1183 C 0.96453 0.56104 0.86581 0.0
O1184 O 0.95521 0.56512 0.90765 0.0
O1185 O 0.96975 0.57608 0.90461 0.0
O1186 O 0.97283 0.56647 0.87188 0.0
O1187 O 0.95804 0.55583 0.87494 0.0
H1188 H 0.95217 0.58261 0.8844 0.0
H1189 H 0.93907 0.59799 0.88001 0.0
H1190 H 0.93705 0.60413 0.92526 0.0
H1191 H 0.95004 0.5886 0.92953 0.0
H1192 H 0.98209 0.54612 0.95283 0.0
H1193 H 0.97541 0.55234 0.92943 0.0
H1194 H 1.00348 0.52178 0.93234 0.0
H1195 H 0.99689 0.52818 0.90909 0.0
H1196 H 0.98441 0.53389 0.84101 0.0
H1197 H 0.95907 0.55271 0.81848 0.0
H1198 H 0.95513 0.56335 0.84007 0.0
H1199 H 0.98016 0.54445 0.86275 0.0
C1200 C 0.18785 0.20142 0.65722 0.0
C1201 C 0.18496 0.19849 0.64324 0.0
C1202 C 0.17 0.18646 0.65206 0.0
C1203 C 0.17611 0.19109 0.64068 0.0
C1204 C 0.17289 0.18951 0.66605 0.0
C1205 C 0.18174 0.19693 0.66859 0.0
U1206 U 0.21243 0.21817 0.64335 0.0
O1207 O 0.21888 0.23481 0.6492 0.0
O1208 O 0.22961 0.22 0.65145 0.0
C1209 C 0.22846 0.23079 0.6538 0.0
C1210 C 0.19739 0.20889 0.65996 0.0
C1211 C 0.23205 0.23471 0.6679 0.0
C1212 C 0.23078 0.23432 0.6937 0.0
C1213 C 0.2271 0.23057 0.68038 0.0
C1214 C 0.2443 0.24643 0.68215 0.0
C1215 C 0.23944 0.2423 0.69474 0.0
C1216 C 0.24064 0.24266 0.66887 0.0
C1217 C 0.21775 0.21756 0.60301 0.0
C1218 C 0.23537 0.22027 0.59048 0.0
C1219 C 0.21781 0.22167 0.57771 0.0
C1220 C 0.21197 0.21948 0.59029 0.0
C1221 C 0.2296 0.22191 0.57759 0.0
C1222 C 0.2295 0.21815 0.60309 0.0
C1223 C 0.21137 0.21451 0.61586 0.0
O1224 O 0.20728 0.20445 0.65753 0.0
O1225 O 0.19641 0.21909 0.65487 0.0
O1226 O 0.20596 0.22271 0.62216 0.0
O1227 O 0.21639 0.20772 0.62482 0.0
H1228 H 0.18964 0.20184 0.63432 0.0
H1229 H 0.1742 0.18881 0.62979 0.0
H1230 H 0.16828 0.18621 0.67504 0.0
H1231 H 0.18387 0.19912 0.67945 0.0
H1232 H 0.22677 0.23106 0.70317 0.0
H1233 H 0.22041 0.22445 0.67981 0.0
H1234 H 0.25109 0.25244 0.68255 0.0
H1235 H 0.24457 0.24591 0.65934 0.0
H1236 H 0.24444 0.22029 0.59078 0.0
H1237 H 0.21308 0.22311 0.56806 0.0
H1238 H 0.2029 0.21913 0.59003 0.0
H1239 H 0.23416 0.21674 0.61282 0.0
C1240 C 0.57055 0.43695 0.40589 0.0
C1241 C 0.57731 0.43728 0.39368 0.0
C1242 C 0.58562 0.41935 0.40003 0.0
C1243 C 0.58481 0.42859 0.39081 0.0
C1244 C 0.57867 0.41895 0.41212 0.0
C1245 C 0.57122 0.42771 0.41504 0.0
U1246 U 0.55432 0.46228 0.39342 0.0
O1247 O 0.5374 0.46837 0.39871 0.0
O1248 O 0.55209 0.47892 0.40293 0.0
C1249 C 0.54122 0.47766 0.40443 0.0
C1250 C 0.56282 0.44621 0.40907 0.0
C1251 C 0.53673 0.48055 0.41852 0.0
C1252 C 0.53704 0.47905 0.44431 0.0
C1253 C 0.54105 0.47571 0.43097 0.0
C1254 C 0.52421 0.49192 0.43286 0.0
C1255 C 0.52862 0.48725 0.44542 0.0
C1256 C 0.52824 0.48859 0.41956 0.0
C1257 C 0.55725 0.47026 0.35389 0.0
C1258 C 0.54457 0.48073 0.3386 0.0
C1259 C 0.56432 0.47974 0.33286 0.0
C1260 C 0.56615 0.47312 0.34488 0.0
C1261 C 0.55351 0.4836 0.32955 0.0
C1262 C 0.54642 0.47416 0.35071 0.0
C1263 C 0.55951 0.46306 0.36631 0.0
O1264 O 0.56723 0.45628 0.40821 0.0
O1265 O 0.55292 0.4455 0.40303 0.0
O1266 O 0.55105 0.45721 0.37133 0.0
O1267 O 0.56577 0.46753 0.37631 0.0
H1268 H 0.57682 0.4443 0.38639 0.0
H1269 H 0.58993 0.42906 0.38132 0.0
H1270 H 0.57916 0.41199 0.41947 0.0
H1271 H 0.56604 0.4273 0.42448 0.0
H1272 H 0.54053 0.47519 0.45375 0.0
H1273 H 0.5476 0.46945 0.43035 0.0
H1274 H 0.51784 0.49835 0.43331 0.0
H1275 H 0.52484 0.49245 0.41006 0.0
H1276 H 0.53616 0.48367 0.33638 0.0
H1277 H 0.57136 0.48168 0.32601 0.0
H1278 H 0.57455 0.47016 0.3471 0.0
H1279 H 0.53941 0.47212 0.35755 0.0
C1280 C 0.28591 0.25011 0.30656 0.0
C1281 C 0.27846 0.24582 0.3168 0.0
C1282 C 0.28193 0.25408 0.2935 0.0
C1283 C 0.25753 0.25258 0.2692 0.0
H1284 H 0.26988 0.28 0.25363 0.0
C1285 C 0.23802 0.27468 0.22039 0.0
C1286 C 0.24545 0.27895 0.21013 0.0
C1287 C 0.24201 0.27075 0.23347 0.0
C1288 C 0.26642 0.27227 0.25775 0.0
H1289 H 0.261 0.24212 0.32115 0.0
H1290 H 0.25406 0.2492 0.29851 0.0
H1291 H 0.27701 0.27274 0.27611 0.0
H1292 H 0.2629 0.28268 0.20575 0.0
H1293 H 0.26987 0.27567 0.22843 0.0
H1294 H 0.24694 0.25211 0.25084 0.0
C1295 C 0.26299 0.24943 0.30052 0.0
C1296 C 0.27052 0.2681 0.27064 0.0
C1297 C 0.26696 0.24549 0.31358 0.0
C1298 C 0.25695 0.27932 0.21334 0.0
C1299 C 0.26094 0.27542 0.22642 0.0
C1300 C 0.25343 0.25675 0.25631 0.0
C1301 C 0.27041 0.25383 0.29034 0.0
C1302 C 0.26613 0.2582 0.27653 0.0
C1303 C 0.25353 0.27103 0.23662 0.0
C1304 C 0.25782 0.26665 0.25042 0.0
H1305 H 0.29481 0.25057 0.30873 0.0
H1306 H 0.28789 0.25729 0.28583 0.0
H1307 H 0.25407 0.24485 0.27332 0.0
H1308 H 0.22912 0.27418 0.21822 0.0
H1309 H 0.23605 0.26755 0.24114 0.0
C1310 C 0.99699 0.9877 0.47119 0.0
C1311 C 0.99485 0.99511 0.45989 0.0
C1312 C 1.0007 0.99172 0.48436 0.0
C1313 C 1.002 0.01744 0.50636 0.0
H1314 H 0.02542 1.00143 0.52642 0.0
C1315 C 0.02396 0.03572 0.55609 0.0
C1316 C 0.02616 0.02832 0.56738 0.0
C1317 C 0.02016 0.03169 0.54297 0.0
C1318 C 0.01879 1.00594 0.52104 0.0
H1319 H 0.99472 0.01262 0.45373 0.0
H1320 H 1.00139 0.01959 0.47655 0.0
H1321 H 0.0186 0.99432 0.50371 0.0
H1322 H 0.02629 1.01082 0.57359 0.0
H1323 H 0.01947 1.00383 0.55085 0.0
H1324 H 1.0022 0.02907 0.52368 0.0
C1325 C 1.00012 1.01067 0.47529 0.0
C1326 C 0.01487 1.00185 0.50802 0.0
C1327 C 0.99642 1.00665 0.46213 0.0
C1328 C 0.02454 0.01678 0.56519 0.0
C1329 C 0.02076 0.01275 0.55208 0.0
C1330 C 1.00592 0.02153 0.51938 0.0
C1331 C 1.00234 1.00325 0.48656 0.0
C1332 C 1.00643 1.00755 0.5005 0.0
C1333 C 0.01849 0.02015 0.54081 0.0
C1334 C 0.01437 0.01584 0.52689 0.0
H1335 H 0.99596 0.97876 0.46981 0.0
H1336 H 1.00221 0.98578 0.49285 0.0
H1337 H 0.99538 0.02195 0.50098 0.0
H1338 H 0.02502 0.04466 0.55744 0.0
H1339 H 0.01861 0.03761 0.53448 0.0
C1340 C 0.2557 0.77726 0.81306 0.0
C1341 C 0.24418 0.77716 0.8162 0.0
C1342 C 0.25964 0.77339 0.79995 0.0
C1343 C 0.25178 0.75529 0.76966 0.0
H1344 H 0.27587 0.77089 0.75035 0.0
C1345 C 0.26541 0.74431 0.71232 0.0
C1346 C 0.27694 0.74439 0.70925 0.0
C1347 C 0.26144 0.74821 0.7254 0.0
C1348 C 0.26923 0.76635 0.75568 0.0
H1349 H 0.22777 0.77292 0.80793 0.0
H1350 H 0.23461 0.76634 0.78494 0.0
H1351 H 0.2688 0.77807 0.77289 0.0
H1352 H 0.29333 0.74863 0.71759 0.0
H1353 H 0.28642 0.75527 0.74051 0.0
H1354 H 0.25221 0.74357 0.75245 0.0
C1355 C 0.24062 0.76931 0.79271 0.0
C1356 C 0.26517 0.77048 0.76861 0.0
C1357 C 0.23668 0.7732 0.80582 0.0
C1358 C 0.28441 0.74837 0.71964 0.0
C1359 C 0.28044 0.75229 0.73273 0.0
C1360 C 0.25584 0.75116 0.75673 0.0
C1361 C 0.25215 0.76932 0.78962 0.0
C1362 C 0.25639 0.765 0.77577 0.0
C1363 C 0.26889 0.7523 0.73575 0.0
C1364 C 0.26462 0.75664 0.74958 0.0
H1365 H 0.26171 0.78038 0.82073 0.0
H1366 H 0.26858 0.77343 0.798 0.0
H1367 H 0.24514 0.75075 0.775 0.0
H1368 H 0.25943 0.74118 0.70463 0.0
H1369 H 0.25249 0.74818 0.72732 0.0
C1370 C 0.52357 0.03526 0.96973 0.0
C1371 C 0.52712 0.02775 0.95913 0.0
C1372 C 0.51966 0.0313 0.98284 0.0
C1373 C 0.52027 1.00645 1.00642 0.0
H1374 H 0.49412 0.02015 0.02358 0.0
C1375 C 0.49837 0.98743 0.0557 0.0
C1376 C 0.49482 0.99491 0.06633 0.0
C1377 C 0.50219 0.99141 0.04257 0.0
C1378 C 0.5015 0.0163 0.01901 0.0
H1379 H 0.52955 1.01018 0.95417 0.0
H1380 H 0.52256 1.00329 0.97689 0.0
H1381 H 0.50118 0.02723 1.00096 0.0
H1382 H 0.49227 0.01246 0.07131 0.0
H1383 H 0.49911 0.0194 0.04855 0.0
H1384 H 0.5206 0.99552 0.02447 0.0
C1385 C 0.52286 0.01225 0.97512 0.0
C1386 C 0.50556 0.02037 1.00604 0.0
C1387 C 0.52675 0.0162 0.96202 0.0
C1388 C 0.49507 1.00646 0.06344 0.0
C1389 C 0.49887 1.01044 0.05031 0.0
C1390 C 0.51621 1.00238 0.01939 0.0
C1391 C 0.51924 0.01974 0.98569 0.0
C1392 C 0.51499 0.01549 0.99957 0.0
C1393 C 0.50253 1.00298 0.03973 0.0
C1394 C 0.50678 1.00725 0.02585 0.0
H1395 H 0.52367 0.0442 0.96783 0.0
H1396 H 0.51704 0.03731 0.9908 0.0
H1397 H 0.52765 1.0026 1.00185 0.0
H1398 H 0.49838 0.97849 0.05761 0.0
H1399 H 0.50482 0.98542 0.0346 0.0
C1400 C 0.24569 0.73758 0.30396 0.0
C1401 C 0.24435 0.74512 0.31532 0.0
C1402 C 0.24986 0.74125 0.29085 0.0
C1403 C 0.25419 0.76677 0.26908 0.0
H1404 H 0.27597 0.74842 0.2493 0.0
C1405 C 0.27839 0.78285 0.21986 0.0
C1406 C 0.27974 0.77534 0.20847 0.0
C1407 C 0.27419 0.77914 0.23294 0.0
C1408 C 0.26981 0.75359 0.25461 0.0
H1409 H 0.24609 0.76249 0.32165 0.0
H1410 H 0.25353 0.76885 0.2989 0.0
H1411 H 0.26815 0.74197 0.27183 0.0
H1412 H 0.278 0.75799 0.20205 0.0
H1413 H 0.27051 0.75158 0.22476 0.0
H1414 H 0.25585 0.77839 0.25187 0.0
C1415 C 0.25129 0.76011 0.30008 0.0
C1416 C 0.26531 0.74989 0.26753 0.0
C1417 C 0.24714 0.75644 0.31319 0.0
C1418 C 0.27694 0.76402 0.21054 0.0
C1419 C 0.27276 0.76032 0.22362 0.0
C1420 C 0.25869 0.77047 0.25617 0.0
C1421 C 0.25277 0.75255 0.28877 0.0
C1422 C 0.25745 0.75643 0.27493 0.0
C1423 C 0.27127 0.76784 0.23496 0.0
C1424 C 0.26656 0.76393 0.24877 0.0
H1425 H 0.24372 0.72879 0.30527 0.0
H1426 H 0.25077 0.73523 0.28232 0.0
H1427 H 0.24803 0.77195 0.27439 0.0
H1428 H 0.28037 0.79164 0.2186 0.0
H1429 H 0.27327 0.78514 0.2415 0.0
C1430 C 0.52711 1.00716 0.56381 0.0
C1431 C 0.52769 0.99558 0.56646 0.0
C1432 C 0.52324 0.01119 0.55074 0.0
C1433 C 0.50634 1.00303 0.51945 0.0
H1434 H 0.52094 0.02843 0.50163 0.0
C1435 C 0.49614 0.01706 0.46206 0.0
C1436 C 0.4956 0.02861 0.45928 0.0
C1437 C 0.49991 0.0131 0.47521 0.0
C1438 C 0.51668 0.02142 0.50654 0.0
H1439 H 0.52464 0.97917 0.55737 0.0
H1440 H 0.51807 0.98621 0.53447 0.0
H1441 H 0.52795 0.02132 0.52425 0.0
H1442 H 0.49862 0.04508 0.46822 0.0
H1443 H 0.50501 0.03818 0.49127 0.0
H1444 H 0.49508 1.00312 0.50174 0.0
C1445 C 0.5205 0.99218 0.54258 0.0
C1446 C 0.52071 0.01733 0.51951 0.0
C1447 C 0.52439 0.98814 0.55565 0.0
C1448 C 0.49884 0.03613 0.47004 0.0
C1449 C 0.50263 0.03217 0.4832 0.0
C1450 C 0.50231 1.00711 0.50648 0.0
C1451 C 0.51985 1.00376 0.53998 0.0
C1452 C 0.5156 1.00808 0.52613 0.0
C1453 C 0.50324 0.0206 0.48594 0.0
C1454 C 0.50744 0.01635 0.49985 0.0
H1455 H 0.52972 0.01313 0.57182 0.0
H1456 H 0.52276 0.02016 0.54916 0.0
H1457 H 0.50209 0.99601 0.52436 0.0
H1458 H 0.49359 1.01103 0.45409 0.0
H1459 H 0.50037 1.00415 0.47689 0.0
C1460 C 0.27744 0.28371 0.80453 0.0
C1461 C 0.27894 0.27613 0.81581 0.0
C1462 C 0.27326 0.28007 0.79142 0.0
C1463 C 0.26919 0.25464 0.76942 0.0
H1464 H 0.24709 0.27285 0.75 0.0
C1465 C 0.24501 0.23865 0.72015 0.0
C1466 C 0.24351 0.24622 0.70886 0.0
C1467 C 0.24921 0.24229 0.73325 0.0
C1468 C 0.25334 0.26772 0.7552 0.0
H1469 H 0.27748 0.25869 0.82199 0.0
H1470 H 0.27004 0.25237 0.79923 0.0
H1471 H 0.2549 0.27922 0.77254 0.0
H1472 H 0.24502 0.26365 0.70265 0.0
H1473 H 0.25252 0.26997 0.72538 0.0
H1474 H 0.26762 0.24313 0.75208 0.0
C1475 C 0.27216 0.26113 0.80047 0.0
C1476 C 0.25783 0.27138 0.76813 0.0
C1477 C 0.27631 0.26478 0.81359 0.0
C1478 C 0.24619 0.25756 0.71106 0.0
C1479 C 0.25037 0.26121 0.72415 0.0
C1480 C 0.26469 0.25098 0.7565 0.0
C1481 C 0.27051 0.26874 0.78925 0.0
C1482 C 0.26582 0.26489 0.77541 0.0
C1483 C 0.252 0.25361 0.73539 0.0
C1484 C 0.25671 0.25747 0.74922 0.0
H1485 H 0.27928 0.29252 0.80591 0.0
H1486 H 0.27223 0.28613 0.78295 0.0
H1487 H 0.27544 0.24951 0.77463 0.0
H1488 H 0.24312 0.22984 0.71879 0.0
H1489 H 0.25024 0.23624 0.74172 0.0
C1490 C 0.03274 0.99384 0.96983 0.0
C1491 C 0.02518 0.99246 0.9585 0.0
C1492 C 0.02907 0.99792 0.98298 0.0
C1493 C 1.00604 0.01403 0.99961 0.0
H1494 H 0.01768 1.00149 0.03466 0.0
C1495 C 0.99735 0.03397 0.05467 0.0
C1496 C 0.99513 0.02665 0.06605 0.0
C1497 C 1.00098 0.02982 0.04153 0.0
C1498 C 0.01428 1.00503 0.02497 0.0
H1499 H 1.00775 0.99402 0.95227 0.0
H1500 H 1.00137 1.00111 0.97519 0.0
H1501 H 0.02391 0.99397 1.01188 0.0
H1502 H 0.99473 1.00919 0.07237 0.0
H1503 H 1.00106 1.00197 0.04952 0.0
H1504 H 0.99626 0.02495 1.0127 0.0
C1505 C 1.01018 0.99923 0.97384 0.0
C1506 C 0.01796 1.00081 1.01191 0.0
C1507 C 0.01384 0.99516 0.96069 0.0
C1508 C 0.99656 0.01508 0.06393 0.0
C1509 C 1.00019 1.01094 0.05081 0.0
C1510 C 1.00238 0.01827 1.01268 0.0
C1511 C 0.01775 1.00072 0.98513 0.0
C1512 C 0.01387 1.00524 0.99905 0.0
C1513 C 1.00248 0.01825 0.03945 0.0
C1514 C 1.00644 0.01381 0.02553 0.0
H1515 H 0.04155 0.992 0.96846 0.0
H1516 H 0.03517 0.99911 0.99138 0.0
H1517 H 1.00281 0.01773 0.98992 0.0
H1518 H 0.99649 0.04293 0.05598 0.0
H1519 H 1.00281 0.0357 0.03307 0.0
C1520 C 0.74669 0.76555 0.71195 0.0
C1521 C 0.74408 0.77691 0.70979 0.0
C1522 C 0.75085 0.76185 0.72503 0.0
C1523 C 0.76524 0.77194 0.7574 0.0
H1524 H 0.75543 0.74362 0.77328 0.0
C1525 C 0.77696 0.75783 0.81434 0.0
C1526 C 0.7796 0.74647 0.81646 0.0
C1527 C 0.77277 0.76154 0.80128 0.0
C1528 C 0.75836 0.75148 0.76891 0.0
H1529 H 0.74376 0.79326 0.71979 0.0
H1530 H 0.75084 0.78677 0.7427 0.0
H1531 H 0.74757 0.75011 0.7508 0.0
H1532 H 0.77992 0.73013 0.80642 0.0
H1533 H 0.77279 0.73665 0.78354 0.0
H1534 H 0.77602 0.77331 0.77551 0.0
C1535 C 0.74978 0.78074 0.7342 0.0
C1536 C 0.75384 0.75522 0.75603 0.0
C1537 C 0.7456 0.78444 0.72112 0.0
C1538 C 0.77807 0.73895 0.80512 0.0
C1539 C 0.77385 0.74266 0.79206 0.0
C1540 C 0.76975 0.76821 0.77029 0.0
C1541 C 0.75252 0.76941 0.7363 0.0
C1542 C 0.75723 0.76549 0.75011 0.0
C1543 C 0.7711 0.754 0.79 0.0
C1544 C 0.76637 0.75793 0.77621 0.0
H1545 H 0.7455 0.75949 0.70351 0.0
H1546 H 0.75296 0.75308 0.72622 0.0
H1547 H 0.76817 0.7798 0.75304 0.0
H1548 H 0.77815 0.76387 0.82279 0.0
H1549 H 0.77065 0.77031 0.80012 0.0
C1550 C 0.75566 0.27687 0.31325 0.0
C1551 C 0.74423 0.27605 0.31675 0.0
C1552 C 0.75963 0.27294 0.30018 0.0
C1553 C 0.75255 0.25354 0.27091 0.0
H1554 H 0.7751 0.2703 0.25019 0.0
C1555 C 0.76583 0.24213 0.21357 0.0
C1556 C 0.77725 0.24299 0.21007 0.0
C1557 C 0.76185 0.24603 0.22665 0.0
C1558 C 0.7689 0.26545 0.25592 0.0
H1559 H 0.72801 0.27048 0.30916 0.0
H1560 H 0.7349 0.26378 0.28624 0.0
H1561 H 0.76794 0.27756 0.27266 0.0
H1562 H 0.79346 0.24861 0.21766 0.0
H1563 H 0.78655 0.25524 0.2406 0.0
H1564 H 0.75351 0.24143 0.25417 0.0
C1565 C 0.74082 0.26736 0.2937 0.0
C1566 C 0.76479 0.26961 0.2688 0.0
C1567 C 0.73685 0.27131 0.30677 0.0
C1568 C 0.78463 0.24773 0.22006 0.0
C1569 C 0.78064 0.25166 0.23314 0.0
C1570 C 0.75667 0.24937 0.25803 0.0
C1571 C 0.75227 0.26809 0.29027 0.0
C1572 C 0.75656 0.26371 0.27647 0.0
C1573 C 0.7692 0.2509 0.23657 0.0
C1574 C 0.7649 0.25527 0.25037 0.0
H1575 H 0.76156 0.2806 0.32061 0.0
H1576 H 0.76851 0.27355 0.29796 0.0
H1577 H 0.74636 0.24869 0.27664 0.0
H1578 H 0.75993 0.2384 0.2062 0.0
H1579 H 0.75297 0.2454 0.22888 0.0
C1580 C 0.74605 0.23746 0.80427 0.0
C1581 C 0.74507 0.24493 0.81576 0.0
C1582 C 0.75023 0.24111 0.79115 0.0
C1583 C 0.75516 0.26667 0.76969 0.0
H1584 H 0.77611 0.24781 0.74925 0.0
C1585 C 0.77931 0.28242 0.72026 0.0
C1586 C 0.78031 0.27498 0.70874 0.0
C1587 C 0.77513 0.27873 0.73336 0.0
C1588 C 0.77018 0.25313 0.75474 0.0
H1589 H 0.74746 0.26218 0.82231 0.0
H1590 H 0.7549 0.26848 0.79955 0.0
H1591 H 0.76833 0.24141 0.77182 0.0
H1592 H 0.77795 0.25775 0.70211 0.0
H1593 H 0.77051 0.25137 0.72485 0.0
H1594 H 0.75701 0.27839 0.75262 0.0
C1595 C 0.75238 0.25981 0.80063 0.0
C1596 C 0.76571 0.24945 0.76768 0.0
C1597 C 0.74823 0.25617 0.81375 0.0
C1598 C 0.77717 0.26373 0.71071 0.0
C1599 C 0.77302 0.26004 0.7238 0.0
C1600 C 0.75963 0.27035 0.75675 0.0
C1601 C 0.75349 0.25232 0.78919 0.0
C1602 C 0.75815 0.25618 0.77532 0.0
C1603 C 0.77188 0.26751 0.73527 0.0
C1604 C 0.7672 0.26362 0.74911 0.0
H1605 H 0.74379 0.22873 0.80548 0.0
H1606 H 0.75085 0.23514 0.78252 0.0
H1607 H 0.74923 0.27199 0.77518 0.0
H1608 H 0.78155 0.29116 0.71909 0.0
H1609 H 0.7745 0.28468 0.74202 0.0
C1610 C 0.77489 0.76602 0.31381 0.0
C1611 C 0.77794 0.77729 0.3158 0.0
C1612 C 0.77073 0.76234 0.30072 0.0
C1613 C 0.75721 0.7726 0.26782 0.0
H1614 H 0.76617 0.74377 0.25268 0.0
C1615 C 0.74586 0.75835 0.21083 0.0
C1616 C 0.74284 0.74707 0.20882 0.0
C1617 C 0.74997 0.76204 0.22394 0.0
C1618 C 0.76348 0.75178 0.25684 0.0
H1619 H 0.77903 0.7935 0.30552 0.0
H1620 H 0.77196 0.78704 0.28259 0.0
H1621 H 0.77392 0.7502 0.27524 0.0
H1622 H 0.74175 0.73086 0.21911 0.0
H1623 H 0.74874 0.73734 0.24206 0.0
H1624 H 0.74677 0.77418 0.24942 0.0
C1625 C 0.77267 0.78107 0.29122 0.0
C1626 C 0.76793 0.75548 0.26977 0.0
C1627 C 0.77685 0.78475 0.30432 0.0
C1628 C 0.74391 0.73961 0.22031 0.0
C1629 C 0.74804 0.7433 0.23343 0.0
C1630 C 0.75276 0.7689 0.25489 0.0
C1631 C 0.76951 0.76983 0.28928 0.0
C1632 C 0.76485 0.76593 0.27543 0.0
C1633 C 0.75119 0.75455 0.23538 0.0
C1634 C 0.75583 0.75845 0.24923 0.0
H1635 H 0.77574 0.76001 0.32237 0.0
H1636 H 0.76829 0.75364 0.29964 0.0
H1637 H 0.75452 0.78061 0.27198 0.0
H1638 H 0.74502 0.76435 0.20225 0.0
H1639 H 0.7524 0.77074 0.22502 0.0
C1640 C 0.52459 0.51686 0.06422 0.0
C1641 C 0.5264 0.52839 0.06627 0.0
C1642 C 0.52092 0.51277 0.0511 0.0
C1643 C 0.51924 0.52 0.01288 0.0
H1644 H 0.49666 0.49666 1.01199 0.0
C1645 C 0.49773 0.50626 0.96069 0.0
C1646 C 0.49588 0.49474 0.95864 0.0
C1647 C 0.50141 0.51033 0.97383 0.0
C1648 C 0.50306 0.50308 1.01205 0.0
H1649 H 0.52568 0.54465 0.05605 0.0
H1650 H 0.51928 0.53751 0.03313 0.0
H1651 H 0.5032 0.50385 0.0348 0.0
H1652 H 0.49651 0.47847 0.96886 0.0
H1653 H 0.50293 0.48558 0.99179 0.0
H1654 H 0.51911 0.51923 0.99014 0.0
C1655 C 0.52084 0.53162 0.04165 0.0
C1656 C 0.50681 0.50721 0.02513 0.0
C1657 C 0.52452 0.53572 0.0548 0.0
C1658 C 0.49771 0.4874 0.97011 0.0
C1659 C 0.5014 0.49148 0.98326 0.0
C1660 C 0.51549 0.51586 0.9998 0.0
C1661 C 0.51896 0.5201 0.03965 0.0
C1662 C 0.51495 0.51572 0.02571 0.0
C1663 C 0.50333 0.503 0.98527 0.0
C1664 C 0.50735 0.50736 0.99921 0.0
H1665 H 0.52615 0.51096 0.07274 0.0
H1666 H 0.51975 0.50383 0.04986 0.0
H1667 H 0.52564 0.52642 0.01294 0.0
H1668 H 0.4962 0.51218 0.95218 0.0
H1669 H 0.50262 0.51927 0.97506 0.0
C1670 C 0.01578 0.52501 0.46139 0.0
C1671 C 0.02712 0.52774 0.45922 0.0
C1672 C 0.01211 0.52088 0.47451 0.0
C1673 C 0.02234 0.50687 0.50711 0.0
H1674 H 0.99399 0.51666 0.52293 0.0
C1675 C 1.00848 0.49568 0.56434 0.0
C1676 C 0.99715 0.49298 0.56656 0.0
C1677 C 0.01213 0.49977 0.55119 0.0
C1678 C 1.00187 0.51373 0.51858 0.0
H1679 H 0.04348 0.52825 0.46922 0.0
H1680 H 0.03705 0.52123 0.49218 0.0
H1681 H 1.00037 0.52428 0.50027 0.0
H1682 H 0.98076 0.49245 0.55661 0.0
H1683 H 0.98716 0.4994 0.53359 0.0
H1684 H 0.02383 0.49631 0.52542 0.0
C1685 C 0.03101 0.52217 0.48367 0.0
C1686 C 1.00553 0.51811 0.50559 0.0
C1687 C 0.03467 0.52633 0.47055 0.0
C1688 C 0.98957 0.49436 0.55524 0.0
C1689 C 0.99322 0.49847 0.54209 0.0
C1690 C 0.01867 0.50248 0.5201 0.0
C1691 C 0.01969 0.51935 0.4858 0.0
C1692 C 0.01582 0.51474 0.49969 0.0
C1693 C 1.00453 0.50127 0.53992 0.0
C1694 C 1.00839 0.50586 0.52601 0.0
H1695 H 1.00971 0.52611 0.45295 0.0
H1696 H 1.00336 0.51871 0.47573 0.0
H1697 H 0.03021 0.50394 0.50277 0.0
H1698 H 0.01457 0.4946 0.57277 0.0
H1699 H 0.02088 0.50193 0.54994 0.0
C1700 C 1.00856 0.5267 0.96085 0.0
C1701 C 0.99724 0.52941 0.95862 0.0
C1702 C 0.01219 0.52256 0.97398 0.0
C1703 C 1.00424 0.52068 1.01201 0.0
H1704 H 0.02568 0.49631 1.01261 0.0
C1705 C 0.01544 0.49715 0.06379 0.0
C1706 C 0.02677 0.49443 0.06603 0.0
C1707 C 0.01183 0.50131 0.05066 0.0
C1708 C 0.01979 0.50319 1.01265 0.0
H1709 H 0.98083 0.52984 0.96851 0.0
H1710 H 0.98714 0.52262 0.99142 0.0
H1711 H 0.01945 0.50394 0.9899 0.0
H1712 H 0.04318 0.494 0.05615 0.0
H1713 H 0.03688 0.50124 0.03325 0.0
H1714 H 1.00458 0.51994 0.03476 0.0
C1715 C 0.99326 0.52385 0.98306 0.0
C1716 C 0.01621 0.50758 0.99961 0.0
C1717 C 0.98964 0.52799 0.96992 0.0
C1718 C 0.03437 0.49586 0.05474 0.0
C1719 C 0.03076 0.50002 0.0416 0.0
C1720 C 1.00782 0.5163 0.02504 0.0
C1721 C 1.00457 0.52102 0.98523 0.0
C1722 C 1.0084 0.51638 0.99913 0.0
C1723 C 0.01945 0.50285 0.03942 0.0
C1724 C 0.01563 0.5075 0.02553 0.0
H1725 H 0.01468 0.52786 0.95246 0.0
H1726 H 0.02099 0.52066 0.97536 0.0
H1727 H 0.99835 0.52757 1.01204 0.0
H1728 H 1.00932 0.49598 0.07217 0.0
H1729 H 1.00303 0.50321 0.04928 0.0
C1730 C 0.53224 0.4931 0.47072 0.0
C1731 C 0.52463 0.49119 0.45957 0.0
C1732 C 0.52856 0.49731 0.48379 0.0
C1733 C 0.50514 0.513 0.50011 0.0
H1734 H 0.51764 0.50198 0.5355 0.0
C1735 C 0.4873 0.52554 0.55513 0.0
C1736 C 0.495 0.52751 0.56617 0.0
C1737 C 0.49087 0.52116 0.54209 0.0
C1738 C 0.51415 0.50525 0.52571 0.0
H1739 H 0.50709 0.49187 0.45363 0.0
H1740 H 0.50066 0.49917 0.47643 0.0
H1741 H 0.52388 0.49401 0.51299 0.0
H1742 H 0.51257 0.52673 0.57195 0.0
H1743 H 0.5188 0.51914 0.54923 0.0
H1744 H 0.49542 0.52425 0.51283 0.0
C1745 C 0.50952 0.49762 0.47498 0.0
C1746 C 0.51773 0.50067 0.5128 0.0
C1747 C 0.51321 0.49342 0.4619 0.0
C1748 C 0.50639 0.52514 0.56377 0.0
C1749 C 0.50996 0.52077 0.55074 0.0
C1750 C 0.50156 0.51758 0.51303 0.0
C1751 C 0.51716 0.4997 0.48605 0.0
C1752 C 0.51327 0.50449 0.49983 0.0
C1753 C 0.50224 0.51866 0.53976 0.0
C1754 C 0.50603 0.51378 0.52599 0.0
H1755 H 0.54112 0.49164 0.46922 0.0
H1756 H 0.53469 0.49895 0.49202 0.0
H1757 H 0.50166 0.51628 0.49032 0.0
H1758 H 0.47845 0.52712 0.55668 0.0
H1759 H 0.48468 0.51951 0.53394 0.0
C1760 C 0.10493 0.41137 0.11614 0.0
C1761 C 0.09555 0.41265 0.12505 0.0
C1762 C 0.11291 0.40308 0.1189 0.0
C1763 C 0.1173 0.37642 0.1382 0.0
H1764 H 0.14872 0.38407 0.13434 0.0
C1765 C 0.15291 0.34713 0.15739 0.0
C1766 C 0.1625 0.34632 0.14875 0.0
C1767 C 0.14459 0.35504 0.15442 0.0
C1768 C 0.13998 0.38174 0.13531 0.0
H1769 H 0.08711 0.40603 0.14367 0.0
H1770 H 0.10113 0.39168 0.14861 0.0
H1771 H 0.13449 0.3981 0.12921 0.0
H1772 H 0.17084 0.35328 0.13025 0.0
H1773 H 0.15625 0.36686 0.1249 0.0
H1774 H 0.12281 0.36005 0.1443 0.0
C1775 C 0.10226 0.39705 0.13943 0.0
C1776 C 0.13182 0.3898 0.13236 0.0
C1777 C 0.09429 0.40535 0.13668 0.0
C1778 C 0.16352 0.35357 0.13704 0.0
C1779 C 0.15521 0.36147 0.13407 0.0
C1780 C 0.12547 0.36835 0.14113 0.0
C1781 C 0.11171 0.39586 0.13062 0.0
C1782 C 0.12037 0.38724 0.13375 0.0
C1783 C 0.14566 0.36234 0.14275 0.0
C1784 C 0.13692 0.37091 0.1397 0.0
H1785 H 0.10623 0.41691 0.10717 0.0
H1786 H 0.12002 0.40232 0.11181 0.0
H1787 H 0.10856 0.37413 0.1392 0.0
H1788 H 0.1518 0.3416 0.16641 0.0
H1789 H 0.13739 0.35554 0.1614 0.0
C1790 C 0.86143 0.85541 0.3664 0.0
C1791 C 0.86025 0.8459 0.37509 0.0
C1792 C 0.86974 0.86337 0.36921 0.0
C1793 C 0.89662 0.86751 0.38811 0.0
H1794 H 0.88894 0.89895 0.38507 0.0
C1795 C 0.92623 0.90287 0.40735 0.0
C1796 C 0.92695 0.91255 0.39887 0.0
C1797 C 0.91826 0.89459 0.40441 0.0
C1798 C 0.89128 0.89021 0.38581 0.0
H1799 H 0.86707 0.8372 0.39339 0.0
H1800 H 0.88146 0.85117 0.39842 0.0
H1801 H 0.87484 0.88479 0.37993 0.0
H1802 H 0.91974 0.92111 0.38068 0.0
H1803 H 0.90605 0.9066 0.37539 0.0
H1804 H 0.91308 0.87295 0.39399 0.0
C1805 C 0.876 0.85243 0.38937 0.0
C1806 C 0.88318 0.88209 0.38286 0.0
C1807 C 0.86767 0.84449 0.38657 0.0
C1808 C 0.91952 0.91371 0.38735 0.0
C1809 C 0.91156 0.90545 0.38442 0.0
C1810 C 0.90474 0.87565 0.39105 0.0
C1811 C 0.87709 0.86201 0.38077 0.0
C1812 C 0.88575 0.87063 0.38394 0.0
C1813 C 0.9108 0.8958 0.39294 0.0
C1814 C 0.90217 0.8871 0.38991 0.0
H1815 H 0.8558 0.85683 0.35756 0.0
H1816 H 0.87043 0.87058 0.36227 0.0
H1817 H 0.89893 0.85876 0.38888 0.0
H1818 H 0.93189 0.90165 0.41622 0.0
H1819 H 0.91784 0.88732 0.41127 0.0
C1820 C 0.36744 0.678 0.63901 0.0
C1821 C 0.35992 0.67655 0.65038 0.0
C1822 C 0.37574 0.67003 0.63623 0.0
C1823 C 0.38261 0.64028 0.64246 0.0
H1824 H 0.41269 0.64927 0.63184 0.0
C1825 C 0.41872 0.60842 0.63812 0.0
C1826 C 0.42627 0.60961 0.62673 0.0
C1827 C 0.4108 0.61672 0.64102 0.0
C1828 C 0.40429 0.64662 0.63463 0.0
H1829 H 0.35525 0.66552 0.66773 0.0
H1830 H 0.36981 0.65173 0.66305 0.0
H1831 H 0.39861 0.66353 0.63694 0.0
H1832 H 0.43146 0.6206 0.60957 0.0
H1833 H 0.41748 0.63499 0.61446 0.0
H1834 H 0.38825 0.62339 0.64011 0.0
C1835 C 0.36924 0.65899 0.65618 0.0
C1836 C 0.39623 0.6548 0.63757 0.0
C1837 C 0.36096 0.66697 0.65898 0.0
C1838 C 0.42571 0.61935 0.61834 0.0
C1839 C 0.41777 0.62767 0.62125 0.0
C1840 C 0.39066 0.63212 0.63952 0.0
C1841 C 0.37669 0.66038 0.64473 0.0
C1842 C 0.38529 0.65172 0.64156 0.0
C1843 C 0.41019 0.62643 0.6326 0.0
C1844 C 0.40162 0.63517 0.6356 0.0
H1845 H 0.36695 0.68534 0.63226 0.0
H1846 H 0.38128 0.67132 0.62726 0.0
H1847 H 0.37422 0.63762 0.64525 0.0
H1848 H 0.41882 0.60098 0.64471 0.0
H1849 H 0.40519 0.61555 0.64995 0.0
C1850 C 0.59434 0.11782 0.88859 0.0
C1851 C 0.59546 0.11063 0.90037 0.0
C1852 C 0.60234 0.12612 0.8859 0.0
C1853 C 0.63179 0.13348 0.89341 0.0
H1854 H 0.62292 0.16314 0.88101 0.0
C1855 C 0.66358 0.16968 0.88882 0.0
C1856 C 0.66266 0.17688 0.87704 0.0
C1857 C 0.65523 0.1618 0.89175 0.0
C1858 C 0.62554 0.15486 0.88431 0.0
H1859 H 0.6059 0.10657 0.91853 0.0
H1860 H 0.61973 0.12116 0.91396 0.0
H1861 H 0.6086 0.14908 0.88601 0.0
H1862 H 0.6521 0.18151 0.85921 0.0
H1863 H 0.63764 0.16759 0.86414 0.0
H1864 H 0.64871 0.13921 0.89165 0.0
C1865 C 0.61272 0.12031 0.90673 0.0
C1866 C 0.61733 0.1468 0.88719 0.0
C1867 C 0.60472 0.11203 0.90945 0.0
C1868 C 0.65314 0.17602 0.86829 0.0
C1869 C 0.64478 0.16813 0.87122 0.0
C1870 C 0.63999 0.14153 0.89052 0.0
C1871 C 0.61167 0.12742 0.89488 0.0
C1872 C 0.62036 0.13602 0.89181 0.0
C1873 C 0.64575 0.16089 0.88295 0.0
C1874 C 0.63698 0.15233 0.88596 0.0
H1875 H 0.58726 0.11705 0.88146 0.0
H1876 H 0.60132 0.1314 0.87662 0.0
H1877 H 0.63442 0.1252 0.8967 0.0
H1878 H 0.67085 0.17 0.8957 0.0
H1879 H 0.65619 0.15646 0.90097 0.0
C1880 C 0.10518 0.61116 0.40995 0.0
C1881 C 0.0957 0.61001 0.40119 0.0
C1882 C 0.11316 0.61946 0.40723 0.0
C1883 C 0.11743 0.64636 0.38843 0.0
H1884 H 0.14886 0.63857 0.39143 0.0
C1885 C 0.15288 0.6758 0.36904 0.0
C1886 C 0.1626 0.67647 0.37745 0.0
C1887 C 0.14457 0.66787 0.37204 0.0
C1888 C 0.14012 0.64094 0.39071 0.0
H1889 H 0.08708 0.61689 0.38286 0.0
H1890 H 0.10108 0.63128 0.37799 0.0
H1891 H 0.13464 0.62452 0.39658 0.0
H1892 H 0.1712 0.66924 0.39559 0.0
H1893 H 0.15663 0.65563 0.40101 0.0
H1894 H 0.12293 0.6628 0.38255 0.0
C1895 C 0.1023 0.62579 0.38703 0.0
C1896 C 0.13196 0.63287 0.39367 0.0
C1897 C 0.09434 0.61747 0.38974 0.0
C1898 C 0.16377 0.66905 0.38898 0.0
C1899 C 0.15547 0.66114 0.39198 0.0
C1900 C 0.1256 0.65445 0.38549 0.0
C1901 C 0.11185 0.62684 0.39569 0.0
C1902 C 0.12051 0.63548 0.39258 0.0
C1903 C 0.14578 0.66041 0.38352 0.0
C1904 C 0.13705 0.65183 0.38661 0.0
H1905 H 0.10655 0.60549 0.41878 0.0
H1906 H 0.12034 0.62012 0.4142 0.0
H1907 H 0.10868 0.64869 0.38766 0.0
H1908 H 0.15165 0.68145 0.36017 0.0
H1909 H 0.13727 0.66748 0.36523 0.0
C1910 C 0.59434 0.90476 0.63501 0.0
C1911 C 0.59583 0.91234 0.62371 0.0
C1912 C 0.60229 0.89642 0.63771 0.0
C1913 C 0.63204 0.8895 0.6315 0.0
H1914 H 0.62294 0.85945 0.64201 0.0
C1915 C 0.66385 0.85335 0.63618 0.0
C1916 C 0.66257 0.84584 0.64758 0.0
C1917 C 0.65557 0.86127 0.63316 0.0
C1918 C 0.62562 0.86783 0.63924 0.0
H1919 H 0.60688 0.91708 0.60641 0.0
H1920 H 0.62064 0.90244 0.61098 0.0
H1921 H 0.60872 0.87356 0.63686 0.0
H1922 H 0.65146 0.84068 0.66462 0.0
H1923 H 0.63711 0.85466 0.65953 0.0
H1924 H 0.64892 0.88383 0.63394 0.0
C1925 C 0.61337 0.903 0.61783 0.0
C1926 C 0.61747 0.87592 0.63628 0.0
C1927 C 0.60541 0.91131 0.61511 0.0
C1928 C 0.65277 0.84642 0.65585 0.0
C1929 C 0.64448 0.85434 0.65282 0.0
C1930 C 0.64018 0.88143 0.63447 0.0
C1931 C 0.61195 0.89549 0.62922 0.0
C1932 C 0.62058 0.88685 0.63235 0.0
C1933 C 0.6458 0.8619 0.64147 0.0
C1934 C 0.63708 0.87049 0.63836 0.0
H1935 H 0.58701 0.90524 0.64176 0.0
H1936 H 0.60098 0.89084 0.64664 0.0
H1937 H 0.63473 0.89789 0.62875 0.0
H1938 H 0.67134 0.85324 0.62968 0.0
H1939 H 0.65681 0.86687 0.62422 0.0
C1940 C 0.36659 0.34995 0.8651 0.0
C1941 C 0.36095 0.34476 0.87647 0.0
C1942 C 0.37506 0.35779 0.86764 0.0
C1943 C 0.39425 0.36847 0.89583 0.0
H1944 H 0.39576 0.3945 0.87127 0.0
C1945 C 0.4295 0.40158 0.90097 0.0
C1946 C 0.42656 0.41285 0.89883 0.0
C1947 C 0.42183 0.39302 0.89807 0.0
C1948 C 0.39541 0.38734 0.87832 0.0
H1949 H 0.36012 0.34358 0.89949 0.0
H1950 H 0.37454 0.35753 0.9039 0.0
H1951 H 0.38178 0.38014 0.86676 0.0
H1952 H 0.41318 0.42398 0.89231 0.0
H1953 H 0.39974 0.40911 0.88753 0.0
H1954 H 0.40759 0.37591 0.90773 0.0
C1955 C 0.37255 0.35542 0.89299 0.0
C1956 C 0.38748 0.379 0.8756 0.0
C1957 C 0.36413 0.34752 0.89045 0.0
C1958 C 0.41576 0.41537 0.89386 0.0
C1959 C 0.40806 0.40683 0.89107 0.0
C1960 C 0.40213 0.37686 0.89862 0.0
C1961 C 0.37808 0.36072 0.88162 0.0
C1962 C 0.38676 0.36946 0.88434 0.0
C1963 C 0.411 0.39553 0.89306 0.0
C1964 C 0.40278 0.38644 0.88994 0.0
H1965 H 0.36431 0.34815 0.85419 0.0
H1966 H 0.37924 0.36156 0.8586 0.0
H1967 H 0.39405 0.36119 0.90269 0.0
H1968 H 0.43781 0.39938 0.90464 0.0
H1969 H 0.42446 0.38442 0.89954 0.0
C1970 C 0.92893 0.11751 0.13563 0.0
C1971 C 0.92758 0.11006 0.12418 0.0
C1972 C 0.92094 0.1258 0.13835 0.0
C1973 C 0.89125 0.13276 0.13168 0.0
H1974 H 0.90018 0.1627 0.14292 0.0
C1975 C 0.85933 0.1688 0.13634 0.0
C1976 C 0.86043 0.17617 0.14792 0.0
C1977 C 0.86767 0.16094 0.13333 0.0
C1978 C 0.89754 0.15435 0.13994 0.0
H1979 H 0.91673 0.10552 0.10659 0.0
H1980 H 0.90291 0.12008 0.11117 0.0
H1981 H 0.91448 0.14867 0.13781 0.0
H1982 H 0.87129 0.18113 0.1653 0.0
H1983 H 0.88576 0.16727 0.16023 0.0
H1984 H 0.87434 0.13839 0.13387 0.0
C1985 C 0.9101 0.11945 0.11815 0.0
C1986 C 0.90574 0.1463 0.13701 0.0
C1987 C 0.9181 0.11118 0.11542 0.0
C1988 C 0.87012 0.17551 0.15638 0.0
C1989 C 0.87848 0.16765 0.15337 0.0
C1990 C 0.88306 0.14079 0.13463 0.0
C1991 C 0.91138 0.12682 0.12969 0.0
C1992 C 0.90269 0.13542 0.13281 0.0
C1993 C 0.87733 0.16023 0.14184 0.0
C1994 C 0.8861 0.15169 0.13877 0.0
H1995 H 0.93619 0.11696 0.1425 0.0
H1996 H 0.92214 0.13128 0.14739 0.0
H1997 H 0.88861 0.12441 0.12874 0.0
H1998 H 0.85193 0.16897 0.12968 0.0
H1999 H 0.86657 0.15546 0.12427 0.0
C2000 C 0.86099 0.67056 0.88864 0.0
C2001 C 0.86195 0.6781 0.8772 0.0
C2002 C 0.86947 0.6628 0.89145 0.0
C2003 C 0.8932 0.64813 0.87455 0.0
H2004 H 0.90189 0.64187 0.91349 0.0
C2005 C 0.93033 0.61896 0.88824 0.0
C2006 C 0.92884 0.61149 0.89966 0.0
C2007 C 0.92252 0.62743 0.8856 0.0
C2008 C 0.89949 0.64344 0.90256 0.0
H2009 H 0.8727 0.68347 0.85989 0.0
H2010 H 0.88747 0.66988 0.86476 0.0
H2011 H 0.88765 0.656 0.90869 0.0
H2012 H 0.91787 0.60704 0.91716 0.0
H2013 H 0.90425 0.62178 0.91255 0.0
H2014 H 0.90495 0.6355 0.86842 0.0
C2015 C 0.88009 0.6699 0.87145 0.0
C2016 C 0.89132 0.65155 0.89981 0.0
C2017 C 0.87161 0.67768 0.86865 0.0
C2018 C 0.91938 0.61275 0.90842 0.0
C2019 C 0.91156 0.62121 0.90577 0.0
C2020 C 0.90135 0.64001 0.8773 0.0
C2021 C 0.87911 0.66235 0.88288 0.0
C2022 C 0.88803 0.65395 0.88577 0.0
C2023 C 0.91301 0.62864 0.89431 0.0
C2024 C 0.90456 0.63751 0.89135 0.0
H2025 H 0.85359 0.67051 0.89529 0.0
H2026 H 0.86836 0.657 0.90018 0.0
H2027 H 0.89075 0.64967 0.86363 0.0
H2028 H 0.93761 0.61833 0.88141 0.0
H2029 H 0.92399 0.63311 0.87682 0.0
C2030 C 0.10176 0.11047 0.63795 0.0
C2031 C 0.09412 0.11148 0.62664 0.0
C2032 C 0.10953 0.11894 0.64074 0.0
C2033 C 0.124 0.14287 0.624 0.0
H2034 H 0.13048 0.15122 0.663 0.0
C2035 C 0.15327 0.17991 0.63802 0.0
C2036 C 0.1608 0.17831 0.64934 0.0
C2037 C 0.14478 0.17212 0.63531 0.0
C2038 C 0.12886 0.14892 0.65205 0.0
H2039 H 0.08859 0.12231 0.60951 0.0
H2040 H 0.1022 0.13709 0.61435 0.0
H2041 H 0.11635 0.137 0.65813 0.0
H2042 H 0.16535 0.16715 0.6666 0.0
H2043 H 0.15058 0.15357 0.66188 0.0
H2044 H 0.13659 0.15472 0.61792 0.0
C2045 C 0.10225 0.12966 0.62096 0.0
C2046 C 0.12074 0.14076 0.64926 0.0
C2047 C 0.09445 0.12119 0.61818 0.0
C2048 C 0.15959 0.16875 0.65794 0.0
C2049 C 0.15111 0.16096 0.65523 0.0
C2050 C 0.13213 0.15102 0.62679 0.0
C2051 C 0.10988 0.12864 0.63228 0.0
C2052 C 0.11827 0.13759 0.63521 0.0
C2053 C 0.14361 0.16252 0.64386 0.0
C2054 C 0.13471 0.1541 0.64086 0.0
H2055 H 0.10189 0.10302 0.64453 0.0
H2056 H 0.11542 0.11779 0.64939 0.0
H2057 H 0.12241 0.14052 0.61306 0.0
H2058 H 0.15387 0.18726 0.63131 0.0
H2059 H 0.13905 0.17368 0.62661 0.0
C2060 C 0.60478 0.41286 0.39285 0.0
C2061 C 0.59381 0.41026 0.39713 0.0
C2062 C 0.61253 0.40436 0.3901 0.0
C2063 C 0.6181 0.37422 0.39678 0.0
H2064 H 0.63958 0.37821 0.36626 0.0
C2065 C 0.6564 0.34512 0.38978 0.0
C2066 C 0.66009 0.34268 0.3759 0.0
C2067 C 0.64788 0.35294 0.39211 0.0
C2068 C 0.63357 0.37687 0.37472 0.0
H2069 H 0.58232 0.39668 0.40172 0.0
H2070 H 0.59577 0.38181 0.39668 0.0
H2071 H 0.62546 0.39247 0.37049 0.0
H2072 H 0.6575 0.34653 0.35358 0.0
H2073 H 0.6424 0.3598 0.3576 0.0
H2074 H 0.62602 0.35846 0.40074 0.0
C2075 C 0.59848 0.39044 0.39573 0.0
C2076 C 0.62556 0.38515 0.37729 0.0
C2077 C 0.59075 0.39895 0.39859 0.0
C2078 C 0.65484 0.34809 0.36441 0.0
C2079 C 0.64626 0.35585 0.36673 0.0
C2080 C 0.62608 0.36589 0.39415 0.0
C2081 C 0.60948 0.39303 0.39144 0.0
C2082 C 0.61777 0.384 0.38843 0.0
C2083 C 0.64274 0.35847 0.38062 0.0
C2084 C 0.63397 0.36714 0.38314 0.0
H2085 H 0.60745 0.42149 0.39185 0.0
H2086 H 0.62097 0.40671 0.38712 0.0
H2087 H 0.61232 0.37307 0.40554 0.0
H2088 H 0.66011 0.34101 0.39889 0.0
H2089 H 0.6455 0.35481 0.40296 0.0
C2090 C 0.42814 0.90146 0.11841 0.0
C2091 C 0.42854 0.91106 0.12706 0.0
C2092 C 0.42042 0.89291 0.12118 0.0
C2093 C 0.40224 0.88137 0.14955 0.0
H2094 H 0.38609 0.86789 0.11814 0.0
C2095 C 0.36348 0.85322 0.15813 0.0
C2096 C 0.36219 0.8438 0.14932 0.0
C2097 C 0.37193 0.86106 0.1555 0.0
C2098 C 0.39063 0.87145 0.12702 0.0
H2099 H 0.421 0.91923 0.1453 0.0
H2100 H 0.40759 0.90433 0.15015 0.0
H2101 H 0.40021 0.88217 0.11339 0.0
H2102 H 0.36897 0.83513 0.13097 0.0
H2103 H 0.38374 0.84879 0.1264 0.0
H2104 H 0.39264 0.87069 0.16319 0.0
C2105 C 0.41336 0.90332 0.14135 0.0
C2106 C 0.39873 0.87964 0.1243 0.0
C2107 C 0.42106 0.91187 0.13857 0.0
C2108 C 0.36962 0.84238 0.13785 0.0
C2109 C 0.37809 0.85021 0.13522 0.0
C2110 C 0.39416 0.87316 0.15227 0.0
C2111 C 0.41293 0.89375 0.13268 0.0
C2112 C 0.40458 0.88476 0.13554 0.0
C2113 C 0.37933 0.85967 0.14399 0.0
C2114 C 0.38819 0.86815 0.14105 0.0
H2115 H 0.43388 0.90048 0.10958 0.0
H2116 H 0.42041 0.88558 0.11441 0.0
H2117 H 0.40672 0.885 0.15844 0.0
H2118 H 0.35779 0.85468 0.16691 0.0
H2119 H 0.37252 0.86834 0.16233 0.0
C2120 C 0.92816 0.4014 0.61829 0.0
C2121 C 0.92875 0.41105 0.62683 0.0
C2122 C 0.92021 0.39307 0.62107 0.0
C2123 C 0.89311 0.38846 0.63932 0.0
H2124 H 0.90094 0.35706 0.6361 0.0
C2125 C 0.86339 0.35339 0.65829 0.0
C2126 C 0.86228 0.34393 0.64952 0.0
C2127 C 0.87166 0.36141 0.65559 0.0
C2128 C 0.89859 0.36579 0.63691 0.0
H2129 H 0.92133 0.4195 0.64495 0.0
H2130 H 0.90768 0.40489 0.64999 0.0
H2131 H 0.91505 0.37135 0.63123 0.0
H2132 H 0.86918 0.33537 0.63116 0.0
H2133 H 0.88352 0.34944 0.62631 0.0
H2134 H 0.87666 0.38291 0.64501 0.0
C2135 C 0.91328 0.40381 0.64103 0.0
C2136 C 0.90668 0.37399 0.63411 0.0
C2137 C 0.92121 0.41213 0.63825 0.0
C2138 C 0.86973 0.34262 0.63804 0.0
C2139 C 0.87803 0.35063 0.63536 0.0
C2140 C 0.88503 0.38027 0.64214 0.0
C2141 C 0.91264 0.39419 0.63245 0.0
C2142 C 0.90404 0.38543 0.63531 0.0
C2143 C 0.87905 0.36015 0.64404 0.0
C2144 C 0.88767 0.36884 0.641 0.0
H2145 H 0.9339 0.40025 0.60949 0.0
H2146 H 0.9199 0.38582 0.61416 0.0
H2147 H 0.89072 0.39718 0.6401 0.0
H2148 H 0.85773 0.35473 0.66713 0.0
H2149 H 0.87229 0.36858 0.66259 0.0
C2150 C 0.42851 0.12157 0.40637 0.0
C2151 C 0.42884 0.11186 0.39791 0.0
C2152 C 0.42076 0.13007 0.40356 0.0
C2153 C 0.40228 0.14123 0.37528 0.0
H2154 H 0.38643 0.15503 0.40671 0.0
C2155 C 0.36339 0.16917 0.36683 0.0
C2156 C 0.36217 0.17868 0.37551 0.0
C2157 C 0.37189 0.1614 0.36946 0.0
C2158 C 0.39088 0.15138 0.39782 0.0
H2159 H 0.42112 0.10346 0.37995 0.0
H2160 H 0.40766 0.11827 0.37504 0.0
H2161 H 0.40061 0.14084 0.41148 0.0
H2162 H 0.36911 0.18757 0.39358 0.0
H2163 H 0.38396 0.17402 0.39814 0.0
H2164 H 0.39253 0.15173 0.36161 0.0
C2165 C 0.41351 0.11939 0.38371 0.0
C2166 C 0.39902 0.14324 0.40056 0.0
C2167 C 0.42125 0.1109 0.38653 0.0
C2168 C 0.36971 0.18026 0.38682 0.0
C2169 C 0.37823 0.17248 0.38944 0.0
C2170 C 0.39416 0.14938 0.37254 0.0
C2171 C 0.41315 0.12907 0.39221 0.0
C2172 C 0.40476 0.13801 0.38932 0.0
C2173 C 0.3794 0.16293 0.38082 0.0
C2174 C 0.3883 0.15451 0.38377 0.0
H2175 H 0.43434 0.12267 0.41508 0.0
H2176 H 0.4208 0.13748 0.41019 0.0
H2177 H 0.40668 0.13751 0.36639 0.0
H2178 H 0.35761 0.1676 0.35818 0.0
H2179 H 0.37242 0.15405 0.36275 0.0
C2180 C 0.59521 0.6208 0.11736 0.0
C2181 C 0.59447 0.61124 0.12605 0.0
C2182 C 0.60316 0.62913 0.12016 0.0
C2183 C 0.63005 0.63379 0.13887 0.0
H2184 H 0.62241 0.66519 0.13504 0.0
C2185 C 0.65971 0.66887 0.1579 0.0
C2186 C 0.66096 0.67826 0.14903 0.0
C2187 C 0.65144 0.66087 0.15515 0.0
C2188 C 0.62471 0.65646 0.13602 0.0
H2189 H 0.60161 0.60294 0.14446 0.0
H2190 H 0.61526 0.61754 0.14953 0.0
H2191 H 0.60829 0.65092 0.1301 0.0
H2192 H 0.6543 0.68671 0.13044 0.0
H2193 H 0.63996 0.67267 0.12552 0.0
H2194 H 0.64646 0.6393 0.1448 0.0
C2195 C 0.60978 0.61856 0.14044 0.0
C2196 C 0.61662 0.64827 0.13318 0.0
C2197 C 0.60184 0.61024 0.13764 0.0
C2198 C 0.65365 0.67952 0.13741 0.0
C2199 C 0.64534 0.67153 0.13467 0.0
C2200 C 0.63813 0.64196 0.14172 0.0
C2201 C 0.61058 0.62809 0.13171 0.0
C2202 C 0.61918 0.63683 0.13461 0.0
C2203 C 0.64419 0.66207 0.14346 0.0
C2204 C 0.63556 0.6534 0.14037 0.0
H2205 H 0.58959 0.6219 0.10842 0.0
H2206 H 0.6036 0.63631 0.11315 0.0
H2207 H 0.63239 0.62506 0.13983 0.0
H2208 H 0.66527 0.66757 0.16686 0.0
H2209 H 0.65069 0.65375 0.16223 0.0
C2210 C 0.15169 0.84514 0.86875 0.0
C2211 C 0.16127 0.84443 0.87741 0.0
C2212 C 0.14335 0.85306 0.87159 0.0
C2213 C 0.13868 0.87993 0.89028 0.0
H2214 H 0.10727 0.87227 0.88633 0.0
C2215 C 0.10354 0.90966 0.90889 0.0
C2216 C 0.09419 0.91087 0.89992 0.0
C2217 C 0.11154 0.90137 0.90627 0.0
C2218 C 0.11601 0.87457 0.88735 0.0
H2219 H 0.16958 0.85156 0.89583 0.0
H2220 H 0.15494 0.86515 0.90096 0.0
H2221 H 0.12154 0.85815 0.88152 0.0
H2222 H 0.08583 0.90413 0.88132 0.0
H2223 H 0.09987 0.88977 0.87662 0.0
H2224 H 0.13316 0.89633 0.89611 0.0
C2225 C 0.15393 0.85968 0.89186 0.0
C2226 C 0.12419 0.86648 0.88458 0.0
C2227 C 0.16226 0.85178 0.88903 0.0
C2228 C 0.09298 0.9035 0.88835 0.0
C2229 C 0.10097 0.89519 0.88575 0.0
C2230 C 0.1305 0.888 0.89307 0.0
C2231 C 0.14439 0.86046 0.88315 0.0
C2232 C 0.13564 0.86905 0.88604 0.0
C2233 C 0.11039 0.89407 0.89462 0.0
C2234 C 0.11906 0.88543 0.89166 0.0
H2235 H 0.1506 0.83954 0.8598 0.0
H2236 H 0.13616 0.85348 0.86458 0.0
H2237 H 0.14741 0.88227 0.89126 0.0
H2238 H 0.10479 0.91525 0.91781 0.0
H2239 H 0.11862 0.90065 0.91341 0.0
C2240 C 0.27291 0.3037 0.96077 0.0
C2241 C 0.28372 0.29914 0.9595 0.0
C2242 C 0.26688 0.30259 0.97344 0.0
C2243 C 0.27102 0.2976 1.01187 0.0
H2244 H 0.23876 0.29378 1.01182 0.0
C2245 C 0.24536 0.29318 0.06385 0.0
C2246 C 0.23549 0.29959 0.06461 0.0
C2247 C 0.25114 0.29206 0.05097 0.0
C2248 C 0.24777 0.2949 1.012 0.0
H2249 H 0.29647 0.28945 0.97035 0.0
H2250 H 0.28591 0.28743 0.99243 0.0
H2251 H 0.24899 0.29355 0.98936 0.0
H2252 H 0.22406 0.30992 0.05236 0.0
H2253 H 0.23405 0.30786 0.02997 0.0
H2254 H 0.26977 0.29902 0.03452 0.0
C2255 C 0.28218 0.29206 0.98373 0.0
C2256 C 0.25363 0.29479 0.99913 0.0
C2257 C 0.28823 0.29321 0.97107 0.0
C2258 C 0.2315 0.30474 0.05214 0.0
C2259 C 0.23723 0.30357 0.03928 0.0
C2260 C 0.26516 0.29766 0.02475 0.0
C2261 C 0.27149 0.29686 0.98513 0.0
C2262 C 0.26531 0.29627 0.99888 0.0
C2263 C 0.24715 0.29727 0.03855 0.0
C2264 C 0.25345 0.29646 0.02495 0.0
H2265 H 0.26926 0.30845 0.95213 0.0
H2266 H 0.25874 0.30654 0.9742 0.0
H2267 H 0.27999 0.29893 1.01208 0.0
H2268 H 0.2486 0.28898 0.07319 0.0
H2269 H 0.25869 0.28704 0.05072 0.0
C2270 C 0.9639 0.03911 0.22219 0.0
C2271 C 0.97125 0.03666 0.21093 0.0
C2272 C 0.96439 0.03307 0.23489 0.0
C2273 C 0.9825 0.01459 0.25649 0.0
H2274 H 0.95428 1.00587 0.27368 0.0
C2275 C 0.97914 0.99476 0.31281 0.0
C2276 C 0.97136 0.98602 0.31453 0.0
C2277 C 0.97962 1.00084 0.30008 0.0
C2278 C 0.96224 1.00816 0.26898 0.0
H2279 H 0.98503 0.02605 0.20432 0.0
H2280 H 0.98576 0.01535 0.22648 0.0
H2281 H 0.95426 0.01653 0.25163 0.0
H2282 H 0.95793 0.97687 0.30417 0.0
H2283 H 0.95892 0.98727 0.28197 0.0
H2284 H 0.99046 1.00602 0.27379 0.0
C2285 C 0.97968 0.02203 0.22549 0.0
C2286 C 0.96223 0.0144 0.25642 0.0
C2287 C 0.97918 0.02808 0.21274 0.0
C2288 C 0.96414 0.98345 0.30317 0.0
C2289 C 0.9646 0.98951 0.29049 0.0
C2290 C 0.98251 1.00836 0.26911 0.0
C2291 C 0.97221 0.0244 0.23667 0.0
C2292 C 0.97234 0.0177 0.25002 0.0
C2293 C 0.97227 0.99834 0.28882 0.0
C2294 C 0.97237 1.00505 0.27548 0.0
H2295 H 0.95758 0.04556 0.22112 0.0
H2296 H 0.9586 0.03521 0.24334 0.0
H2297 H 0.99044 0.01708 0.2519 0.0
H2298 H 0.98489 0.9969 0.3213 0.0
H2299 H 0.98558 1.00764 0.29917 0.0
C2300 C 0.2492 0.71879 0.46042 0.0
C2301 C 0.23842 0.72339 0.45915 0.0
C2302 C 0.25523 0.71985 0.47308 0.0
C2303 C 0.25112 0.72485 0.51152 0.0
H2304 H 0.2834 0.72849 0.51144 0.0
C2305 C 0.27688 0.72913 0.56345 0.0
C2306 C 0.2867 0.72265 0.5642 0.0
C2307 C 0.27109 0.73027 0.55059 0.0
C2308 C 0.27439 0.72741 0.51163 0.0
H2309 H 0.22569 0.73311 0.47 0.0
H2310 H 0.23626 0.73507 0.49208 0.0
H2311 H 0.27317 0.72879 0.48899 0.0
H2312 H 0.29803 0.71221 0.55195 0.0
H2313 H 0.28802 0.71432 0.52958 0.0
H2314 H 0.25238 0.7234 0.53417 0.0
C2315 C 0.23997 0.73043 0.48338 0.0
C2316 C 0.26852 0.72757 0.49876 0.0
C2317 C 0.23392 0.72932 0.47072 0.0
C2318 C 0.29064 0.71745 0.55173 0.0
C2319 C 0.28488 0.71864 0.53889 0.0
C2320 C 0.25699 0.72474 0.52439 0.0
C2321 C 0.25065 0.72559 0.48478 0.0
C2322 C 0.25683 0.72615 0.49853 0.0
C2323 C 0.27501 0.72502 0.53817 0.0
C2324 C 0.26871 0.72587 0.52458 0.0
H2325 H 0.25284 0.71403 0.45177 0.0
H2326 H 0.26336 0.71587 0.47384 0.0
H2327 H 0.24215 0.72356 0.51174 0.0
H2328 H 0.27369 0.73338 0.57278 0.0
H2329 H 0.26357 0.73534 0.55034 0.0
C2330 C 0.55985 0.98271 0.72224 0.0
C2331 C 0.55212 0.9847 0.71125 0.0
C2332 C 0.55896 0.98832 0.73521 0.0
C2333 C 0.54703 0.01356 0.75193 0.0
H2334 H 0.55375 0.99752 0.78678 0.0
C2335 C 0.54437 0.03431 0.80766 0.0
C2336 C 0.55358 0.03232 0.81662 0.0
C2337 C 0.54305 0.02823 0.79504 0.0
C2338 C 0.5519 1.00213 0.77714 0.0
H2339 H 0.53736 0.99417 0.70532 0.0
H2340 H 0.53579 1.00401 0.72805 0.0
H2341 H 0.55348 0.98748 0.76423 0.0
H2342 H 0.56842 0.02213 0.81963 0.0
H2343 H 0.56616 0.01157 0.79765 0.0
H2344 H 0.54556 0.02824 0.7649 0.0
C2345 C 0.5426 0.99815 0.72655 0.0
C2346 C 0.55176 0.99639 0.76421 0.0
C2347 C 0.5435 0.99252 0.71352 0.0
C2348 C 0.5613 0.02394 0.81287 0.0
C2349 C 0.55994 0.01781 0.80035 0.0
C2350 C 0.54714 0.01931 0.76491 0.0
C2351 C 0.55031 0.99608 0.73756 0.0
C2352 C 0.54953 1.00206 0.75141 0.0
C2353 C 0.55085 0.01994 0.79122 0.0
C2354 C 0.54977 0.01369 0.77762 0.0
H2355 H 0.56674 0.97693 0.72075 0.0
H2356 H 0.56519 0.9867 0.74332 0.0
H2357 H 0.54538 0.01821 0.74227 0.0
H2358 H 0.53833 0.04076 0.81023 0.0
H2359 H 0.53592 0.03 0.78828 0.0
C2360 C 0.79109 0.71847 0.97391 0.0
C2361 C 0.78724 0.7236 0.96136 0.0
C2362 C 0.78516 0.7196 0.98664 0.0
C2363 C 0.75701 0.72536 1.00057 0.0
H2364 H 0.7727 0.72972 0.03627 0.0
C2365 C 0.73323 0.72991 0.05376 0.0
C2366 C 0.73767 0.72412 0.0655 0.0
C2367 C 0.73941 0.73099 0.0412 0.0
C2368 C 0.76819 0.72841 0.02641 0.0
H2369 H 0.77421 0.73415 0.95249 0.0
H2370 H 0.76378 0.73601 0.97472 0.0
H2371 H 0.78321 0.72948 0.01402 0.0
H2372 H 0.75212 0.71498 0.07325 0.0
H2373 H 0.76286 0.71678 0.05134 0.0
H2374 H 0.74203 0.72404 0.01294 0.0
C2375 C 0.77136 0.73104 0.97464 0.0
C2376 C 0.77422 0.72828 0.01366 0.0
C2377 C 0.77733 0.72995 0.9619 0.0
C2378 C 0.74852 0.71963 0.06448 0.0
C2379 C 0.75468 0.72067 0.0519 0.0
C2380 C 0.75099 0.72543 0.01333 0.0
C2381 C 0.7752 0.72585 0.98714 0.0
C2382 C 0.76872 0.72665 1.00061 0.0
C2383 C 0.75017 0.72628 0.04005 0.0
C2384 C 0.75651 0.72684 0.02643 0.0
H2385 H 0.79855 0.71333 0.97386 0.0
H2386 H 0.78824 0.71534 0.99603 0.0
H2387 H 0.75254 0.72393 0.99072 0.0
H2388 H 0.72496 0.7336 0.05429 0.0
H2389 H 0.73575 0.73553 0.03238 0.0
C2390 C 0.04841 0.98116 0.80148 0.0
C2391 C 0.04853 0.98635 0.81491 0.0
C2392 C 0.04737 0.98751 0.78907 0.0
C2393 C 0.05235 0.01613 0.77576 0.0
H2394 H 0.0369 1.00518 0.74225 0.0
C2395 C 0.06039 0.03498 0.72051 0.0
C2396 C 0.05126 0.03644 0.71126 0.0
C2397 C 0.05914 0.02907 0.73322 0.0
C2398 C 0.04115 1.00842 0.75155 0.0
H2399 H 0.04729 1.00232 0.82577 0.0
H2400 H 0.04517 0.01337 0.80415 0.0
H2401 H 0.03568 0.99471 0.76449 0.0
H2402 H 0.03366 0.03276 0.70808 0.0
H2403 H 0.03145 0.02245 0.73039 0.0
H2404 H 0.05772 0.02989 0.76292 0.0
C2405 C 0.04609 1.00439 0.80321 0.0
C2406 C 0.04056 1.00235 0.76427 0.0
C2407 C 0.04717 0.99803 0.81563 0.0
C2408 C 0.04087 0.0317 0.71493 0.0
C2409 C 0.03961 0.0258 0.72771 0.0
C2410 C 0.05292 0.02219 0.76308 0.0
C2411 C 0.04637 0.99923 0.78975 0.0
C2412 C 0.04627 1.00606 0.77649 0.0
C2413 C 0.04872 0.02448 0.73706 0.0
C2414 C 0.04748 0.01834 0.75075 0.0
H2415 H 0.04926 0.97216 0.80053 0.0
H2416 H 0.04771 0.98326 0.77891 0.0
H2417 H 0.05695 0.01919 0.78489 0.0
H2418 H 0.06856 0.03832 0.71786 0.0
H2419 H 0.06641 0.028 0.73998 0.0
C2420 C 0.73246 0.30384 0.47402 0.0
C2421 C 0.73636 0.29885 0.4614 0.0
C2422 C 0.73841 0.30268 0.48672 0.0
C2423 C 0.76663 0.29716 0.50057 0.0
H2424 H 0.751 0.29227 0.5362 0.0
C2425 C 0.79046 0.29245 0.5537 0.0
C2426 C 0.78594 0.29808 0.56551 0.0
C2427 C 0.7843 0.29139 0.54112 0.0
C2428 C 0.75549 0.29373 0.52636 0.0
H2429 H 0.74953 0.28855 0.45238 0.0
H2430 H 0.76 0.28666 0.47457 0.0
H2431 H 0.74049 0.29258 0.51396 0.0
H2432 H 0.77137 0.30696 0.57337 0.0
H2433 H 0.76066 0.30521 0.55144 0.0
H2434 H 0.7816 0.29856 0.51295 0.0
C2435 C 0.75235 0.29153 0.47456 0.0
C2436 C 0.74946 0.29389 0.51362 0.0
C2437 C 0.74636 0.29264 0.46184 0.0
C2438 C 0.77504 0.30244 0.56454 0.0
C2439 C 0.76889 0.30142 0.55195 0.0
C2440 C 0.77266 0.29705 0.51332 0.0
C2441 C 0.74845 0.29656 0.48713 0.0
C2442 C 0.75495 0.29572 0.50059 0.0
C2443 C 0.77348 0.29597 0.54003 0.0
C2444 C 0.76715 0.29545 0.5264 0.0
H2445 H 0.72492 0.30887 0.47404 0.0
H2446 H 0.73528 0.30683 0.49616 0.0
H2447 H 0.77109 0.29873 0.49073 0.0
H2448 H 0.79878 0.28885 0.55418 0.0
H2449 H 0.78802 0.28697 0.53225 0.0
C2450 C 0.48061 0.0395 0.30398 0.0
C2451 C 0.47476 0.03507 0.31568 0.0
C2452 C 0.48171 0.03334 0.29142 0.0
C2453 C 0.47903 1.0046 0.27657 0.0
H2454 H 0.47466 0.0203 0.24089 0.0
C2455 C 0.46896 0.98182 0.22404 0.0
C2456 C 0.47411 0.98566 0.21149 0.0
C2457 C 0.47014 0.98772 0.23678 0.0
C2458 C 0.47606 0.01581 0.25074 0.0
H2459 H 0.46552 0.02066 0.32336 0.0
H2460 H 0.46735 1.00994 0.30145 0.0
H2461 H 0.4748 0.03078 0.26312 0.0
H2462 H 0.48473 0.99866 0.20263 0.0
H2463 H 0.48667 1.00904 0.22488 0.0
H2464 H 0.48003 0.9896 0.26417 0.0
C2465 C 0.47128 0.0181 0.30204 0.0
C2466 C 0.47615 0.02182 0.26351 0.0
C2467 C 0.47022 0.02425 0.31462 0.0
C2468 C 0.48052 0.99554 0.21204 0.0
C2469 C 0.48165 1.00148 0.22479 0.0
C2470 C 0.47889 0.99859 0.26382 0.0
C2471 C 0.47695 0.0226 0.29023 0.0
C2472 C 0.47752 0.01628 0.2766 0.0
C2473 C 0.47645 0.99765 0.23729 0.0
C2474 C 0.47728 1.00411 0.25077 0.0
H2475 H 0.48435 0.04776 0.30454 0.0
H2476 H 0.4863 0.03699 0.28263 0.0
H2477 H 0.48031 1.00008 0.28643 0.0
H2478 H 0.46378 0.97438 0.22398 0.0
H2479 H 0.46586 0.98465 0.24616 0.0
C2480 C 0.73384 0.79313 0.55438 0.0
C2481 C 0.73835 0.79904 0.56598 0.0
C2482 C 0.73989 0.79206 0.54172 0.0
C2483 C 0.76845 0.79494 0.52634 0.0
H2484 H 0.75231 0.79918 0.49095 0.0
C2485 C 0.7906 0.80508 0.47339 0.0
C2486 C 0.78666 0.7999 0.46092 0.0
C2487 C 0.78484 0.80389 0.48623 0.0
C2488 C 0.75692 0.79782 0.50072 0.0
H2489 H 0.75278 0.80839 0.57338 0.0
H2490 H 0.76329 0.8066 0.5513 0.0
H2491 H 0.74208 0.79898 0.51337 0.0
H2492 H 0.77362 0.78922 0.45231 0.0
H2493 H 0.76347 0.78725 0.47474 0.0
H2494 H 0.78332 0.79403 0.51366 0.0
C2495 C 0.75517 0.80261 0.55204 0.0
C2496 C 0.75105 0.79769 0.51359 0.0
C2497 C 0.74914 0.80365 0.56472 0.0
C2498 C 0.77681 0.79345 0.46165 0.0
C2499 C 0.77101 0.79231 0.47451 0.0
C2500 C 0.77432 0.79511 0.51347 0.0
C2501 C 0.75057 0.7969 0.54033 0.0
C2502 C 0.75675 0.79637 0.52658 0.0
C2503 C 0.77494 0.79754 0.48693 0.0
C2504 C 0.76863 0.79667 0.50053 0.0
H2505 H 0.72561 0.78934 0.55509 0.0
H2506 H 0.73618 0.78743 0.533 0.0
H2507 H 0.77309 0.7937 0.53611 0.0
H2508 H 0.79802 0.8103 0.47319 0.0
H2509 H 0.78799 0.8082 0.49555 0.0
C2510 C 0.4734 0.4983 0.81417 0.0
C2511 C 0.47403 0.48655 0.81448 0.0
C2512 C 0.47473 0.50413 0.80136 0.0
C2513 C 0.47158 0.50018 0.76281 0.0
H2514 H 0.48738 0.52848 0.76022 0.0
C2515 C 0.47525 0.52389 0.70957 0.0
C2516 C 0.47347 0.53552 0.71006 0.0
C2517 C 0.47671 0.51775 0.72211 0.0
C2518 C 0.48287 0.52063 0.76079 0.0
H2519 H 0.47715 0.47176 0.80168 0.0
H2520 H 0.47939 0.48192 0.77937 0.0
H2521 H 0.48741 0.51811 0.78262 0.0
H2522 H 0.47237 0.54987 0.72413 0.0
H2523 H 0.47458 0.53916 0.74596 0.0
H2524 H 0.4668 0.50277 0.74115 0.0
C2525 C 0.47768 0.48662 0.78898 0.0
C2526 C 0.48289 0.51469 0.77362 0.0
C2527 C 0.47638 0.4808 0.80177 0.0
C2528 C 0.47353 0.5409 0.72337 0.0
C2529 C 0.47496 0.53477 0.7359 0.0
C2530 C 0.47152 0.50613 0.75001 0.0
C2531 C 0.4767 0.49834 0.78859 0.0
C2532 C 0.47718 0.50443 0.7748 0.0
C2533 C 0.47641 0.52309 0.73545 0.0
C2534 C 0.47708 0.51648 0.74886 0.0
H2535 H 0.47148 0.50298 0.82372 0.0
H2536 H 0.47381 0.51315 0.8014 0.0
H2537 H 0.46695 0.4924 0.76342 0.0
H2538 H 0.47518 0.51946 0.69953 0.0
H2539 H 0.47797 0.5088 0.72135 0.0
C2540 C 0.78925 0.22904 0.05458 0.0
C2541 C 0.78468 0.22315 0.06616 0.0
C2542 C 0.78321 0.23022 0.04192 0.0
C2543 C 0.75462 0.2277 0.02656 0.0
H2544 H 0.77068 0.22333 0.99114 0.0
C2545 C 0.73232 0.21786 0.97365 0.0
C2546 C 0.73632 0.22298 0.96116 0.0
C2547 C 0.7381 0.21899 0.98648 0.0
C2548 C 0.7661 0.22473 1.00092 0.0
H2549 H 0.77015 0.21393 0.07353 0.0
H2550 H 0.75965 0.2159 0.05146 0.0
H2551 H 0.78093 0.22337 0.01356 0.0
H2552 H 0.74948 0.2335 0.95252 0.0
H2553 H 0.75965 0.23537 0.97494 0.0
H2554 H 0.73975 0.2288 0.0139 0.0
C2555 C 0.76782 0.21979 0.05222 0.0
C2556 C 0.77197 0.22477 0.01379 0.0
C2557 C 0.77384 0.21865 0.06489 0.0
C2558 C 0.74624 0.22932 0.96188 0.0
C2559 C 0.75206 0.2304 0.97472 0.0
C2560 C 0.74874 0.22762 0.0137 0.0
C2561 C 0.77247 0.22549 0.04052 0.0
C2562 C 0.76629 0.22613 0.02679 0.0
C2563 C 0.74807 0.22522 0.98716 0.0
C2564 C 0.7544 0.22601 1.00075 0.0
H2565 H 0.79751 0.23274 0.0553 0.0
H2566 H 0.78697 0.23483 0.03322 0.0
H2567 H 0.75 0.22898 0.03634 0.0
H2568 H 0.72484 0.21272 0.97346 0.0
H2569 H 0.7349 0.21472 0.99581 0.0
C2570 C 0.06163 0.53472 0.30541 0.0
C2571 C 0.05255 0.53595 0.3148 0.0
C2572 C 0.06035 0.529 0.29258 0.0
C2573 C 0.04246 0.50844 0.27396 0.0
H2574 H 0.05794 0.51985 0.24072 0.0
C2575 C 0.04977 0.48194 0.22343 0.0
C2576 C 0.04978 0.48731 0.2101 0.0
C2577 C 0.0487 0.48813 0.23597 0.0
C2578 C 0.05342 0.51661 0.24982 0.0
H2579 H 0.035 0.53204 0.31808 0.0
H2580 H 0.03275 0.52205 0.29556 0.0
H2581 H 0.05872 0.53025 0.26292 0.0
H2582 H 0.0483 0.5034 0.19957 0.0
H2583 H 0.04614 0.51415 0.22142 0.0
H2584 H 0.03706 0.49485 0.26077 0.0
C2585 C 0.04089 0.52544 0.29822 0.0
C2586 C 0.05401 0.5225 0.26263 0.0
C2587 C 0.04218 0.53116 0.31113 0.0
C2588 C 0.04827 0.49898 0.20962 0.0
C2589 C 0.04717 0.50516 0.22218 0.0
C2590 C 0.04185 0.50255 0.26112 0.0
C2591 C 0.04996 0.52436 0.28875 0.0
C2592 C 0.04868 0.51841 0.27492 0.0
C2593 C 0.04757 0.49984 0.23552 0.0
C2594 C 0.04745 0.50649 0.24893 0.0
H2595 H 0.06979 0.5381 0.30805 0.0
H2596 H 0.06758 0.5281 0.28571 0.0
H2597 H 0.0383 0.50501 0.28323 0.0
H2598 H 0.05074 0.47295 0.22419 0.0
H2599 H 0.04914 0.48374 0.24604 0.0
C2600 C 0.24577 0.22974 0.56346 0.0
C2601 C 0.23582 0.22343 0.56398 0.0
C2602 C 0.25175 0.23082 0.55072 0.0
C2603 C 0.2489 0.22812 0.5117 0.0
H2604 H 0.28106 0.22369 0.51244 0.0
C2605 C 0.27453 0.21936 0.46088 0.0
C2606 C 0.2854 0.2238 0.45985 0.0
C2607 C 0.26838 0.22043 0.47347 0.0
C2608 C 0.27211 0.22514 0.51204 0.0
H2609 H 0.22446 0.21321 0.55146 0.0
H2610 H 0.2348 0.2152 0.52931 0.0
H2611 H 0.27054 0.22363 0.53465 0.0
H2612 H 0.29819 0.23319 0.47106 0.0
H2613 H 0.28743 0.23515 0.49299 0.0
H2614 H 0.25044 0.22957 0.48909 0.0
C2615 C 0.2379 0.21944 0.5387 0.0
C2616 C 0.26608 0.22509 0.52479 0.0
C2617 C 0.23196 0.21832 0.55142 0.0
C2618 C 0.2899 0.22954 0.47159 0.0
C2619 C 0.28373 0.23065 0.48417 0.0
C2620 C 0.25493 0.22822 0.49895 0.0
C2621 C 0.24789 0.22565 0.53821 0.0
C2622 C 0.25439 0.22643 0.52475 0.0
C2623 C 0.27294 0.22599 0.48532 0.0
C2624 C 0.2666 0.22659 0.49894 0.0
H2625 H 0.24891 0.23392 0.57287 0.0
H2626 H 0.25936 0.23576 0.55065 0.0
H2627 H 0.23991 0.22936 0.51133 0.0
H2628 H 0.27089 0.21475 0.45211 0.0
H2629 H 0.26018 0.21658 0.47403 0.0
C2630 C 0.5426 0.48829 0.30745 0.0
C2631 C 0.55164 0.4905 0.31662 0.0
C2632 C 0.54124 0.49444 0.29488 0.0
C2633 C 0.54957 0.52091 0.27736 0.0
H2634 H 0.54381 0.50484 0.24228 0.0
C2635 C 0.55749 0.54083 0.22269 0.0
C2636 C 0.54992 0.53866 0.21157 0.0
C2637 C 0.55662 0.53514 0.23562 0.0
C2638 C 0.54525 0.50948 0.252 0.0
H2639 H 0.56611 0.50113 0.32003 0.0
H2640 H 0.5638 0.5118 0.29813 0.0
H2641 H 0.54405 0.4947 0.26483 0.0
H2642 H 0.53547 0.52879 0.20537 0.0
H2643 H 0.53396 0.51883 0.22803 0.0
H2644 H 0.55088 0.53566 0.26458 0.0
C2645 C 0.55773 0.50534 0.30064 0.0
C2646 C 0.54538 0.50367 0.26493 0.0
C2647 C 0.55913 0.49915 0.31312 0.0
C2648 C 0.54149 0.53059 0.21368 0.0
C2649 C 0.54062 0.52489 0.22666 0.0
C2650 C 0.5494 0.52672 0.26447 0.0
C2651 C 0.54883 0.503 0.29131 0.0
C2652 C 0.54774 0.50929 0.27773 0.0
C2653 C 0.54817 0.52713 0.2378 0.0
C2654 C 0.54744 0.52105 0.25159 0.0
H2655 H 0.53673 0.48163 0.30981 0.0
H2656 H 0.53425 0.4925 0.28796 0.0
H2657 H 0.5512 0.52551 0.28707 0.0
H2658 H 0.56423 0.5468 0.22133 0.0
H2659 H 0.56274 0.5369 0.24383 0.0
C2660 C 0.23184 0.80355 0.97389 0.0
C2661 C 0.23571 0.79848 0.96131 0.0
C2662 C 0.23778 0.80242 0.9866 0.0
C2663 C 0.26598 0.79686 1.00046 0.0
H2664 H 0.25037 0.7923 0.03618 0.0
C2665 C 0.28986 0.79247 0.0536 0.0
C2666 C 0.28537 0.7982 0.06535 0.0
C2667 C 0.28368 0.79134 0.04105 0.0
C2668 C 0.25485 0.79367 0.02632 0.0
H2669 H 0.24882 0.78805 0.95239 0.0
H2670 H 0.25927 0.7862 0.9746 0.0
H2671 H 0.23983 0.79249 0.01396 0.0
H2672 H 0.27085 0.80719 0.07314 0.0
H2673 H 0.2601 0.80532 0.05125 0.0
H2674 H 0.28096 0.7983 0.0128 0.0
C2675 C 0.25165 0.79112 0.97454 0.0
C2676 C 0.24881 0.79376 0.01358 0.0
C2677 C 0.24567 0.7922 0.96181 0.0
C2678 C 0.27448 0.80259 0.06435 0.0
C2679 C 0.26832 0.8015 0.05179 0.0
C2680 C 0.27202 0.79682 0.01321 0.0
C2681 C 0.24778 0.79625 0.98707 0.0
C2682 C 0.25429 0.79547 1.00052 0.0
C2683 C 0.27287 0.79595 0.03993 0.0
C2684 C 0.26652 0.79534 0.02631 0.0
H2685 H 0.22434 0.80864 0.97386 0.0
H2686 H 0.23467 0.80664 0.99601 0.0
H2687 H 0.27043 0.79834 0.9906 0.0
H2688 H 0.29817 0.78885 0.05411 0.0
H2689 H 0.28737 0.78685 0.03222 0.0
C2690 C 0.976 0.52423 0.81551 0.0
C2691 C 0.97428 0.53586 0.81481 0.0
C2692 C 0.97716 0.51791 0.80306 0.0
C2693 C 0.98226 0.52015 0.76404 0.0
H2694 H 0.96595 0.4921 0.76291 0.0
C2695 C 0.9823 0.49094 0.71459 0.0
C2696 C 0.97202 0.48589 0.71109 0.0
C2697 C 0.98353 0.49684 0.72737 0.0
C2698 C 0.97051 0.49994 0.76301 0.0
H2699 H 0.973 0.55003 0.80045 0.0
H2700 H 0.97468 0.539 0.77881 0.0
H2701 H 0.96661 0.50278 0.78489 0.0
H2702 H 0.95487 0.48345 0.71802 0.0
H2703 H 0.95697 0.49376 0.74015 0.0
H2704 H 0.98578 0.51748 0.74195 0.0
C2705 C 0.97525 0.53475 0.78895 0.0
C2706 C 0.97103 0.506 0.77569 0.0
C2707 C 0.97413 0.54106 0.80139 0.0
C2708 C 0.96297 0.48703 0.72053 0.0
C2709 C 0.96418 0.49293 0.73325 0.0
C2710 C 0.98173 0.51409 0.75132 0.0
C2711 C 0.9766 0.52306 0.78962 0.0
C2712 C 0.97679 0.51625 0.77634 0.0
C2713 C 0.97449 0.49784 0.7369 0.0
C2714 C 0.9757 0.50398 0.7506 0.0
H2715 H 0.9761 0.51993 0.82565 0.0
H2716 H 0.97835 0.50895 0.80399 0.0
H2717 H 0.9869 0.52795 0.7642 0.0
H2718 H 0.98946 0.49014 0.70759 0.0
H2719 H 0.99162 0.50044 0.72991 0.0
loop_
_geom_bond_atom_site_label_1
_geom_bond_atom_site_label_2
_geom_bond_distance
_geom_bond_site_symmetry_2
_ccdc_geom_bond_type
C0 C1 1.264 . S
C0 C5 1.479 . S
C0 C10 1.465 . S
C1 C0 1.264 . S
C1 C3 1.339 . S
C1 H28 0.931 . S
C2 C3 1.395 . S
C2 C4 1.320 . S
C3 C1 1.339 . S
C3 C2 1.395 . S
C3 H29 0.929 . S
C4 C2 1.320 . S
C4 C5 1.405 . S
C4 H30 0.930 . S
C5 C0 1.479 . S
C5 C4 1.405 . S
C5 H31 0.931 . S
U6 O7 2.454 . S
U6 O8 2.458 . S
U6 C9 2.984 . S
U6 C10 2.847 . S
U6 C23 2.882 . S
U6 O24 2.441 . S
U6 O25 2.420 . S
U6 O26 2.455 . S
U6 O27 2.449 . S
O7 U6 2.454 . S
O7 C9 1.353 . S
O8 U6 2.458 . S
O8 C9 1.286 . S
C9 U6 2.984 . S
C9 O7 1.353 . S
C9 O8 1.286 . S
C9 C11 1.363 . S
C10 C0 1.465 . S
C10 U6 2.847 . S
C10 O24 1.249 . S
C10 O25 1.202 . S
C11 C9 1.363 . S
C11 C13 1.408 . S
C11 C16 1.342 . S
C12 C13 1.310 . S
C12 C15 1.461 . S
C12 H32 0.932 . S
C13 C11 1.408 . S
C13 C12 1.310 . S
C13 H33 0.930 . S
C14 C15 1.474 . S
C14 C16 1.285 . S
C14 H34 0.929 . S
C15 C12 1.461 . S
C15 C14 1.474 . S
C16 C11 1.342 . S
C16 C14 1.285 . S
C16 H35 0.930 . S
C17 C20 1.424 . S
C17 C22 1.245 . S
C17 C23 1.428 . S
C18 C21 1.260 . S
C18 C22 1.477 . S
C18 H36 0.932 . S
C19 C20 1.384 . S
C19 C21 1.479 . S
C19 H37 0.929 . S
C20 C17 1.424 . S
C20 C19 1.384 . S
C20 H38 0.928 . S
C21 C18 1.260 . S
C21 C19 1.479 . S
C22 C17 1.245 . S
C22 C18 1.477 . S
C22 H39 0.932 . S
C23 U6 2.882 . S
C23 C17 1.428 . S
C23 O26 1.301 . S
C23 O27 1.282 . S
O24 U6 2.441 . S
O24 C10 1.249 . S
O25 U6 2.420 . S
O25 C10 1.202 . S
O26 U6 2.455 . S
O26 C23 1.301 . S
O27 U6 2.449 . S
O27 C23 1.282 . S
H28 C1 0.931 . S
H29 C3 0.929 . S
H30 C4 0.930 . S
H31 C5 0.931 . S
H32 C12 0.932 . S
H33 C13 0.930 . S
H34 C14 0.929 . S
H35 C16 0.930 . S
H36 C18 0.932 . S
H37 C19 0.929 . S
H38 C20 0.928 . S
H39 C22 0.932 . S
C40 C41 1.264 . S
C40 C45 1.479 . S
C40 C50 1.465 . S
C41 C40 1.264 . S
C41 C43 1.339 . S
C41 H68 0.931 . S
C42 C43 1.395 . S
C42 C44 1.320 . S
C43 C41 1.339 . S
C43 C42 1.395 . S
C43 H69 0.929 . S
C44 C42 1.320 . S
C44 C45 1.405 . S
C44 H70 0.930 . S
C45 C40 1.479 . S
C45 C44 1.405 . S
C45 H71 0.931 . S
U46 O47 2.454 . S
U46 O48 2.458 . S
U46 C49 2.984 . S
U46 C50 2.847 . S
U46 C63 2.882 . S
U46 O64 2.441 . S
U46 O65 2.420 . S
U46 O66 2.455 . S
U46 O67 2.449 . S
O47 U46 2.454 . S
O47 C49 1.353 . S
O48 U46 2.458 . S
O48 C49 1.286 . S
C49 U46 2.984 . S
C49 O47 1.353 . S
C49 O48 1.286 . S
C49 C51 1.363 . S
C50 C40 1.465 . S
C50 U46 2.847 . S
C50 O64 1.249 . S
C50 O65 1.202 . S
C51 C49 1.363 . S
C51 C53 1.408 . S
C51 C56 1.342 . S
C52 C53 1.310 . S
C52 C55 1.461 . S
C52 H72 0.932 . S
C53 C51 1.408 . S
C53 C52 1.310 . S
C53 H73 0.930 . S
C54 C55 1.474 . S
C54 C56 1.285 . S
C54 H74 0.929 1_655 S
C55 C52 1.461 . S
C55 C54 1.474 . S
C56 C51 1.342 . S
C56 C54 1.285 . S
C56 H75 0.930 . S
C57 C60 1.424 . S
C57 C62 1.245 . S
C57 C63 1.428 . S
C58 C61 1.260 . S
C58 C62 1.477 . S
C58 H76 0.932 . S
C59 C60 1.384 . S
C59 C61 1.479 . S
C59 H77 0.929 . S
C60 C57 1.424 . S
C60 C59 1.384 . S
C60 H78 0.928 . S
C61 C58 1.260 . S
C61 C59 1.479 . S
C62 C57 1.245 . S
C62 C58 1.477 . S
C62 H79 0.932 . S
C63 U46 2.882 . S
C63 C57 1.428 . S
C63 O66 1.301 . S
C63 O67 1.282 . S
O64 U46 2.441 . S
O64 C50 1.249 . S
O65 U46 2.420 . S
O65 C50 1.202 . S
O66 U46 2.455 . S
O66 C63 1.301 . S
O67 U46 2.449 . S
O67 C63 1.282 . S
H68 C41 0.931 . S
H69 C43 0.929 . S
H70 C44 0.930 . S
H71 C45 0.931 . S
H72 C52 0.932 . S
H73 C53 0.930 . S
H74 C54 0.929 1_455 S
H75 C56 0.930 . S
H76 C58 0.932 . S
H77 C59 0.929 . S
H78 C60 0.928 . S
H79 C62 0.932 . S
C80 C81 1.264 . S
C80 C85 1.479 . S
C80 C90 1.465 . S
C81 C80 1.264 . S
C81 C83 1.339 . S
C81 H108 0.931 . S
C82 C83 1.395 . S
C82 C84 1.320 . S
C83 C81 1.339 . S
C83 C82 1.395 . S
C83 H109 0.929 . S
C84 C82 1.320 . S
C84 C85 1.405 . S
C84 H110 0.930 . S
C85 C80 1.479 . S
C85 C84 1.405 . S
C85 H111 0.931 . S
U86 O87 2.454 . S
U86 O88 2.458 . S
U86 C89 2.984 . S
U86 C90 2.847 . S
U86 C103 2.882 . S
U86 O104 2.441 . S
U86 O105 2.420 . S
U86 O106 2.455 . S
U86 O107 2.449 . S
O87 U86 2.454 . S
O87 C89 1.353 . S
O88 U86 2.458 . S
O88 C89 1.286 . S
C89 U86 2.984 . S
C89 O87 1.353 . S
C89 O88 1.286 . S
C89 C91 1.363 . S
C90 C80 1.465 . S
C90 U86 2.847 . S
C90 O104 1.249 . S
C90 O105 1.202 . S
C91 C89 1.363 . S
C91 C93 1.408 . S
C91 C96 1.342 . S
C92 C93 1.310 . S
C92 C95 1.461 . S
C92 H112 0.932 . S
C93 C91 1.408 . S
C93 C92 1.310 . S
C93 H113 0.930 . S
C94 C95 1.474 . S
C94 C96 1.285 . S
C94 H114 0.929 . S
C95 C92 1.461 . S
C95 C94 1.474 . S
C96 C91 1.342 . S
C96 C94 1.285 . S
C96 H115 0.930 . S
C97 C100 1.424 . S
C97 C102 1.245 . S
C97 C103 1.428 . S
C98 C101 1.260 . S
C98 C102 1.477 . S
C98 H116 0.932 . S
C99 C100 1.384 . S
C99 C101 1.479 . S
C99 H117 0.929 . S
C100 C97 1.424 . S
C100 C99 1.384 . S
C100 H118 0.928 . S
C101 C98 1.260 . S
C101 C99 1.479 . S
C102 C97 1.245 . S
C102 C98 1.477 . S
C102 H119 0.932 . S
C103 U86 2.882 . S
C103 C97 1.428 . S
C103 O106 1.301 . S
C103 O107 1.282 . S
O104 U86 2.441 . S
O104 C90 1.249 . S
O105 U86 2.420 . S
O105 C90 1.202 . S
O106 U86 2.455 . S
O106 C103 1.301 . S
O107 U86 2.449 . S
O107 C103 1.282 . S
H108 C81 0.931 . S
H109 C83 0.929 . S
H110 C84 0.930 . S
H111 C85 0.931 . S
H112 C92 0.932 . S
H113 C93 0.930 . S
H114 C94 0.929 . S
H115 C96 0.930 . S
H116 C98 0.932 . S
H117 C99 0.929 . S
H118 C100 0.928 . S
H119 C102 0.932 . S
C120 C121 1.264 . S
C120 C125 1.479 . S
C120 C130 1.465 . S
C121 C120 1.264 . S
C121 C123 1.339 . S
C121 H148 0.931 . S
C122 C123 1.395 . S
C122 C124 1.320 . S
C123 C121 1.339 . S
C123 C122 1.395 . S
C123 H149 0.929 . S
C124 C122 1.320 . S
C124 C125 1.405 . S
C124 H150 0.930 . S
C125 C120 1.479 . S
C125 C124 1.405 . S
C125 H151 0.931 . S
U126 O127 2.454 . S
U126 O128 2.458 . S
U126 C129 2.984 . S
U126 C130 2.847 . S
U126 C143 2.882 . S
U126 O144 2.441 . S
U126 O145 2.420 . S
U126 O146 2.455 . S
U126 O147 2.449 . S
O127 U126 2.454 . S
O127 C129 1.353 . S
O128 U126 2.458 . S
O128 C129 1.286 . S
C129 U126 2.984 . S
C129 O127 1.353 . S
C129 O128 1.286 . S
C129 C131 1.363 . S
C130 C120 1.465 . S
C130 U126 2.847 . S
C130 O144 1.249 . S
C130 O145 1.202 . S
C131 C129 1.363 . S
C131 C133 1.408 . S
C131 C136 1.342 . S
C132 C133 1.310 . S
C132 C135 1.461 . S
C132 H152 0.932 . S
C133 C131 1.408 . S
C133 C132 1.310 . S
C133 H153 0.930 . S
C134 C135 1.474 . S
C134 C136 1.285 . S
C134 H154 0.929 . S
C135 C132 1.461 . S
C135 C134 1.474 . S
C136 C131 1.342 . S
C136 C134 1.285 . S
C136 H155 0.930 . S
C137 C140 1.424 . S
C137 C142 1.245 . S
C137 C143 1.428 . S
C138 C141 1.260 . S
C138 C142 1.477 . S
C138 H156 0.932 . S
C139 C140 1.384 . S
C139 C141 1.479 . S
C139 H157 0.929 . S
C140 C137 1.424 . S
C140 C139 1.384 . S
C140 H158 0.928 . S
C141 C138 1.260 . S
C141 C139 1.479 . S
C142 C137 1.245 . S
C142 C138 1.477 . S
C142 H159 0.932 . S
C143 U126 2.882 . S
C143 C137 1.428 . S
C143 O146 1.301 . S
C143 O147 1.282 . S
O144 U126 2.441 . S
O144 C130 1.249 . S
O145 U126 2.420 . S
O145 C130 1.202 . S
O146 U126 2.455 . S
O146 C143 1.301 . S
O147 U126 2.449 . S
O147 C143 1.282 . S
H148 C121 0.931 . S
H149 C123 0.929 . S
H150 C124 0.930 . S
H151 C125 0.931 . S
H152 C132 0.932 . S
H153 C133 0.930 . S
H154 C134 0.929 . S
H155 C136 0.930 . S
H156 C138 0.932 . S
H157 C139 0.929 . S
H158 C140 0.928 . S
H159 C142 0.932 . S
C160 C161 1.264 . S
C160 C165 1.479 . S
C160 C170 1.465 . S
C161 C160 1.264 . S
C161 C163 1.339 . S
C161 H188 0.931 . S
C162 C163 1.395 . S
C162 C164 1.320 . S
C163 C161 1.339 . S
C163 C162 1.395 . S
C163 H189 0.929 . S
C164 C162 1.320 . S
C164 C165 1.405 . S
C164 H190 0.930 . S
C165 C160 1.479 . S
C165 C164 1.405 . S
C165 H191 0.931 . S
U166 O167 2.454 . S
U166 O168 2.458 . S
U166 C169 2.984 . S
U166 C170 2.847 . S
U166 C183 2.882 . S
U166 O184 2.441 . S
U166 O185 2.420 . S
U166 O186 2.455 . S
U166 O187 2.449 . S
O167 U166 2.454 . S
O167 C169 1.353 . S
O168 U166 2.458 . S
O168 C169 1.286 . S
C169 U166 2.984 . S
C169 O167 1.353 . S
C169 O168 1.286 . S
C169 C171 1.363 . S
C170 C160 1.465 . S
C170 U166 2.847 . S
C170 O184 1.249 . S
C170 O185 1.202 . S
C171 C169 1.363 . S
C171 C173 1.408 . S
C171 C176 1.342 . S
C172 C173 1.310 . S
C172 C175 1.461 . S
C172 H192 0.932 . S
C173 C171 1.408 . S
C173 C172 1.310 . S
C173 H193 0.930 . S
C174 C175 1.474 . S
C174 C176 1.285 . S
C174 H194 0.929 . S
C175 C172 1.461 . S
C175 C174 1.474 . S
C176 C171 1.342 . S
C176 C174 1.285 . S
C176 H195 0.930 . S
C177 C180 1.424 . S
C177 C182 1.245 . S
C177 C183 1.428 . S
C178 C181 1.260 . S
C178 C182 1.477 . S
C178 H196 0.932 . S
C179 C180 1.384 . S
C179 C181 1.479 . S
C179 H197 0.929 . S
C180 C177 1.424 . S
C180 C179 1.384 . S
C180 H198 0.928 . S
C181 C178 1.260 . S
C181 C179 1.479 . S
C182 C177 1.245 . S
C182 C178 1.477 . S
C182 H199 0.932 . S
C183 U166 2.882 . S
C183 C177 1.428 . S
C183 O186 1.301 . S
C183 O187 1.282 . S
O184 U166 2.441 . S
O184 C170 1.249 . S
O185 U166 2.420 . S
O185 C170 1.202 . S
O186 U166 2.455 . S
O186 C183 1.301 . S
O187 U166 2.449 . S
O187 C183 1.282 . S
H188 C161 0.931 . S
H189 C163 0.929 . S
H190 C164 0.930 . S
H191 C165 0.931 . S
H192 C172 0.932 . S
H193 C173 0.930 . S
H194 C174 0.929 . S
H195 C176 0.930 . S
H196 C178 0.932 . S
H197 C179 0.929 . S
H198 C180 0.928 . S
H199 C182 0.932 . S
C200 C201 1.264 . S
C200 C205 1.479 . S
C200 C210 1.465 . S
C201 C200 1.264 . S
C201 C203 1.339 . S
C201 H228 0.931 . S
C202 C203 1.395 . S
C202 C204 1.320 . S
C203 C201 1.339 . S
C203 C202 1.395 . S
C203 H229 0.929 . S
C204 C202 1.320 . S
C204 C205 1.405 . S
C204 H230 0.930 . S
C205 C200 1.479 . S
C205 C204 1.405 . S
C205 H231 0.931 . S
U206 O207 2.454 . S
U206 O208 2.458 . S
U206 C209 2.984 . S
U206 C210 2.847 . S
U206 C223 2.882 . S
U206 O224 2.441 . S
U206 O225 2.420 . S
U206 O226 2.455 . S
U206 O227 2.449 . S
O207 U206 2.454 . S
O207 C209 1.353 . S
O208 U206 2.458 . S
O208 C209 1.286 . S
C209 U206 2.984 . S
C209 O207 1.353 . S
C209 O208 1.286 . S
C209 C211 1.363 . S
C210 C200 1.465 . S
C210 U206 2.847 . S
C210 O224 1.249 . S
C210 O225 1.202 . S
C211 C209 1.363 . S
C211 C213 1.408 . S
C211 C216 1.342 . S
C212 C213 1.310 . S
C212 C215 1.461 . S
C212 H232 0.932 . S
C213 C211 1.408 . S
C213 C212 1.310 . S
C213 H233 0.930 . S
C214 C215 1.474 . S
C214 C216 1.285 . S
C214 H234 0.929 . S
C215 C212 1.461 . S
C215 C214 1.474 . S
C216 C211 1.342 . S
C216 C214 1.285 . S
C216 H235 0.930 . S
C217 C220 1.424 . S
C217 C222 1.245 . S
C217 C223 1.428 . S
C218 C221 1.260 . S
C218 C222 1.477 . S
C218 H236 0.932 . S
C219 C220 1.384 . S
C219 C221 1.479 . S
C219 H237 0.929 . S
C220 C217 1.424 . S
C220 C219 1.384 . S
C220 H238 0.928 . S
C221 C218 1.260 . S
C221 C219 1.479 . S
C222 C217 1.245 . S
C222 C218 1.477 . S
C222 H239 0.932 . S
C223 U206 2.882 . S
C223 C217 1.428 . S
C223 O226 1.301 . S
C223 O227 1.282 . S
O224 U206 2.441 . S
O224 C210 1.249 . S
O225 U206 2.420 . S
O225 C210 1.202 . S
O226 U206 2.455 . S
O226 C223 1.301 . S
O227 U206 2.449 . S
O227 C223 1.282 . S
H228 C201 0.931 . S
H229 C203 0.929 . S
H230 C204 0.930 . S
H231 C205 0.931 . S
H232 C212 0.932 . S
H233 C213 0.930 . S
H234 C214 0.929 . S
H235 C216 0.930 . S
H236 C218 0.932 . S
H237 C219 0.929 . S
H238 C220 0.928 . S
H239 C222 0.932 . S
C240 C241 1.264 . S
C240 C245 1.479 . S
C240 C250 1.465 . S
C241 C240 1.264 . S
C241 C243 1.339 . S
C241 H268 0.931 . S
C242 C243 1.395 . S
C242 C244 1.320 . S
C243 C241 1.339 . S
C243 C242 1.395 . S
C243 H269 0.929 . S
C244 C242 1.320 . S
C244 C245 1.405 . S
C244 H270 0.930 . S
C245 C240 1.479 . S
C245 C244 1.405 . S
C245 H271 0.931 . S
U246 O247 2.454 . S
U246 O248 2.458 . S
U246 C249 2.984 . S
U246 C250 2.847 . S
U246 C263 2.882 . S
U246 O264 2.441 . S
U246 O265 2.420 . S
U246 O266 2.455 . S
U246 O267 2.449 . S
O247 U246 2.454 . S
O247 C249 1.353 . S
O248 U246 2.458 . S
O248 C249 1.286 . S
C249 U246 2.984 . S
C249 O247 1.353 . S
C249 O248 1.286 . S
C249 C251 1.363 . S
C250 C240 1.465 . S
C250 U246 2.847 . S
C250 O264 1.249 . S
C250 O265 1.202 . S
C251 C249 1.363 . S
C251 C253 1.408 . S
C251 C256 1.342 . S
C252 C253 1.310 . S
C252 C255 1.461 . S
C252 H272 0.932 . S
C253 C251 1.408 . S
C253 C252 1.310 . S
C253 H273 0.930 . S
C254 C255 1.474 . S
C254 C256 1.285 . S
C254 H274 0.929 . S
C255 C252 1.461 . S
C255 C254 1.474 . S
C256 C251 1.342 . S
C256 C254 1.285 . S
C256 H275 0.930 . S
C257 C260 1.424 . S
C257 C262 1.245 . S
C257 C263 1.428 . S
C258 C261 1.260 . S
C258 C262 1.477 . S
C258 H276 0.932 . S
C259 C260 1.384 . S
C259 C261 1.479 . S
C259 H277 0.929 . S
C260 C257 1.424 . S
C260 C259 1.384 . S
C260 H278 0.928 . S
C261 C258 1.260 . S
C261 C259 1.479 . S
C262 C257 1.245 . S
C262 C258 1.477 . S
C262 H279 0.932 . S
C263 U246 2.882 . S
C263 C257 1.428 . S
C263 O266 1.301 . S
C263 O267 1.282 . S
O264 U246 2.441 . S
O264 C250 1.249 . S
O265 U246 2.420 . S
O265 C250 1.202 . S
O266 U246 2.455 . S
O266 C263 1.301 . S
O267 U246 2.449 . S
O267 C263 1.282 . S
H268 C241 0.931 . S
H269 C243 0.929 . S
H270 C244 0.930 . S
H271 C245 0.931 . S
H272 C252 0.932 . S
H273 C253 0.930 . S
H274 C254 0.929 . S
H275 C256 0.930 . S
H276 C258 0.932 . S
H277 C259 0.929 . S
H278 C260 0.928 . S
H279 C262 0.932 . S
C280 C281 1.264 . S
C280 C285 1.479 . S
C280 C290 1.465 . S
C281 C280 1.264 . S
C281 C283 1.339 . S
C281 H308 0.931 . S
C282 C283 1.395 . S
C282 C284 1.320 . S
C283 C281 1.339 . S
C283 C282 1.395 . S
C283 H309 0.929 . S
C284 C282 1.320 . S
C284 C285 1.405 . S
C284 H310 0.930 . S
C285 C280 1.479 . S
C285 C284 1.405 . S
C285 H311 0.931 . S
U286 O287 2.454 . S
U286 O288 2.458 . S
U286 C289 2.984 . S
U286 C290 2.847 . S
U286 C303 2.882 . S
U286 O304 2.441 . S
U286 O305 2.420 . S
U286 O306 2.455 . S
U286 O307 2.449 . S
O287 U286 2.454 . S
O287 C289 1.353 . S
O288 U286 2.458 . S
O288 C289 1.286 . S
C289 U286 2.984 . S
C289 O287 1.353 . S
C289 O288 1.286 . S
C289 C291 1.363 . S
C290 C280 1.465 . S
C290 U286 2.847 . S
C290 O304 1.249 . S
C290 O305 1.202 . S
C291 C289 1.363 . S
C291 C293 1.408 . S
C291 C296 1.342 . S
C292 C293 1.310 . S
C292 C295 1.461 . S
C292 H312 0.932 . S
C293 C291 1.408 . S
C293 C292 1.310 . S
C293 H313 0.930 . S
C294 C295 1.474 . S
C294 C296 1.285 . S
C294 H314 0.929 1_655 S
C295 C292 1.461 . S
C295 C294 1.474 . S
C296 C291 1.342 . S
C296 C294 1.285 . S
C296 H315 0.930 . S
C297 C300 1.424 . S
C297 C302 1.245 . S
C297 C303 1.428 . S
C298 C301 1.260 . S
C298 C302 1.477 . S
C298 H316 0.932 . S
C299 C300 1.384 . S
C299 C301 1.479 . S
C299 H317 0.929 . S
C300 C297 1.424 . S
C300 C299 1.384 . S
C300 H318 0.928 . S
C301 C298 1.260 . S
C301 C299 1.479 . S
C302 C297 1.245 . S
C302 C298 1.477 . S
C302 H319 0.932 . S
C303 U286 2.882 . S
C303 C297 1.428 . S
C303 O306 1.301 . S
C303 O307 1.282 . S
O304 U286 2.441 . S
O304 C290 1.249 . S
O305 U286 2.420 . S
O305 C290 1.202 . S
O306 U286 2.455 . S
O306 C303 1.301 . S
O307 U286 2.449 . S
O307 C303 1.282 . S
H308 C281 0.931 . S
H309 C283 0.929 . S
H310 C284 0.930 . S
H311 C285 0.931 . S
H312 C292 0.932 . S
H313 C293 0.930 . S
H314 C294 0.929 1_455 S
H315 C296 0.930 . S
H316 C298 0.932 . S
H317 C299 0.929 . S
H318 C300 0.928 . S
H319 C302 0.932 . S
C320 C321 1.264 . S
C320 C325 1.479 . S
C320 C330 1.465 . S
C321 C320 1.264 . S
C321 C323 1.339 . S
C321 H348 0.931 . S
C322 C323 1.395 . S
C322 C324 1.320 . S
C323 C321 1.339 . S
C323 C322 1.395 . S
C323 H349 0.929 . S
C324 C322 1.320 . S
C324 C325 1.405 . S
C324 H350 0.930 . S
C325 C320 1.479 . S
C325 C324 1.405 . S
C325 H351 0.931 . S
U326 O327 2.454 . S
U326 O328 2.458 . S
U326 C329 2.984 . S
U326 C330 2.847 . S
U326 C343 2.882 . S
U326 O344 2.441 . S
U326 O345 2.420 . S
U326 O346 2.455 . S
U326 O347 2.449 . S
O327 U326 2.454 . S
O327 C329 1.353 . S
O328 U326 2.458 . S
O328 C329 1.286 . S
C329 U326 2.984 . S
C329 O327 1.353 . S
C329 O328 1.286 . S
C329 C331 1.363 . S
C330 C320 1.465 . S
C330 U326 2.847 . S
C330 O344 1.249 . S
C330 O345 1.202 . S
C331 C329 1.363 . S
C331 C333 1.408 . S
C331 C336 1.342 . S
C332 C333 1.310 . S
C332 C335 1.461 . S
C332 H352 0.932 . S
C333 C331 1.408 . S
C333 C332 1.310 . S
C333 H353 0.930 . S
C334 C335 1.474 . S
C334 C336 1.285 . S
C334 H354 0.929 . S
C335 C332 1.461 . S
C335 C334 1.474 . S
C336 C331 1.342 . S
C336 C334 1.285 . S
C336 H355 0.930 . S
C337 C340 1.424 . S
C337 C342 1.245 . S
C337 C343 1.428 . S
C338 C341 1.260 . S
C338 C342 1.477 . S
C338 H356 0.932 . S
C339 C340 1.384 . S
C339 C341 1.479 . S
C339 H357 0.929 . S
C340 C337 1.424 . S
C340 C339 1.384 . S
C340 H358 0.928 . S
C341 C338 1.260 . S
C341 C339 1.479 . S
C342 C337 1.245 . S
C342 C338 1.477 . S
C342 H359 0.932 . S
C343 U326 2.882 . S
C343 C337 1.428 . S
C343 O346 1.301 . S
C343 O347 1.282 . S
O344 U326 2.441 . S
O344 C330 1.249 . S
O345 U326 2.420 . S
O345 C330 1.202 . S
O346 U326 2.455 . S
O346 C343 1.301 . S
O347 U326 2.449 . S
O347 C343 1.282 . S
H348 C321 0.931 . S
H349 C323 0.929 . S
H350 C324 0.930 . S
H351 C325 0.931 . S
H352 C332 0.932 . S
H353 C333 0.930 . S
H354 C334 0.929 . S
H355 C336 0.930 . S
H356 C338 0.932 . S
H357 C339 0.929 . S
H358 C340 0.928 . S
H359 C342 0.932 . S
C360 C361 1.264 . S
C360 C365 1.479 . S
C360 C370 1.465 . S
C361 C360 1.264 . S
C361 C363 1.339 . S
C361 H388 0.931 . S
C362 C363 1.395 . S
C362 C364 1.320 . S
C363 C361 1.339 . S
C363 C362 1.395 . S
C363 H389 0.929 . S
C364 C362 1.320 . S
C364 C365 1.405 . S
C364 H390 0.930 . S
C365 C360 1.479 . S
C365 C364 1.405 . S
C365 H391 0.931 . S
U366 O367 2.454 . S
U366 O368 2.458 . S
U366 C369 2.984 . S
U366 C370 2.847 . S
U366 C383 2.882 . S
U366 O384 2.441 . S
U366 O385 2.420 . S
U366 O386 2.455 . S
U366 O387 2.449 . S
O367 U366 2.454 . S
O367 C369 1.353 . S
O368 U366 2.458 . S
O368 C369 1.286 . S
C369 U366 2.984 . S
C369 O367 1.353 . S
C369 O368 1.286 . S
C369 C371 1.363 . S
C370 C360 1.465 . S
C370 U366 2.847 . S
C370 O384 1.249 . S
C370 O385 1.202 . S
C371 C369 1.363 . S
C371 C373 1.408 . S
C371 C376 1.342 . S
C372 C373 1.310 . S
C372 C375 1.461 . S
C372 H392 0.932 . S
C373 C371 1.408 . S
C373 C372 1.310 . S
C373 H393 0.930 . S
C374 C375 1.474 . S
C374 C376 1.285 . S
C374 H394 0.929 1_455 S
C375 C372 1.461 . S
C375 C374 1.474 . S
C376 C371 1.342 . S
C376 C374 1.285 . S
C376 H395 0.930 . S
C377 C380 1.424 . S
C377 C382 1.245 . S
C377 C383 1.428 . S
C378 C381 1.260 . S
C378 C382 1.477 . S
C378 H396 0.932 . S
C379 C380 1.384 . S
C379 C381 1.479 . S
C379 H397 0.929 . S
C380 C377 1.424 . S
C380 C379 1.384 . S
C380 H398 0.928 . S
C381 C378 1.260 . S
C381 C379 1.479 . S
C382 C377 1.245 . S
C382 C378 1.477 . S
C382 H399 0.932 . S
C383 U366 2.882 . S
C383 C377 1.428 . S
C383 O386 1.301 . S
C383 O387 1.282 . S
O384 U366 2.441 . S
O384 C370 1.249 . S
O385 U366 2.420 . S
O385 C370 1.202 . S
O386 U366 2.455 . S
O386 C383 1.301 . S
O387 U366 2.449 . S
O387 C383 1.282 . S
H388 C361 0.931 . S
H389 C363 0.929 . S
H390 C364 0.930 . S
H391 C365 0.931 . S
H392 C372 0.932 . S
H393 C373 0.930 . S
H394 C374 0.929 1_655 S
H395 C376 0.930 . S
H396 C378 0.932 . S
H397 C379 0.929 . S
H398 C380 0.928 . S
H399 C382 0.932 . S
C400 C401 1.264 . S
C400 C405 1.479 . S
C400 C410 1.465 . S
C401 C400 1.264 . S
C401 C403 1.339 . S
C401 H428 0.931 . S
C402 C403 1.395 . S
C402 C404 1.320 . S
C403 C401 1.339 . S
C403 C402 1.395 . S
C403 H429 0.929 . S
C404 C402 1.320 . S
C404 C405 1.405 . S
C404 H430 0.930 . S
C405 C400 1.479 . S
C405 C404 1.405 . S
C405 H431 0.931 . S
U406 O407 2.454 . S
U406 O408 2.458 . S
U406 C409 2.984 . S
U406 C410 2.847 . S
U406 C423 2.882 . S
U406 O424 2.441 . S
U406 O425 2.420 . S
U406 O426 2.455 . S
U406 O427 2.449 . S
O407 U406 2.454 . S
O407 C409 1.353 . S
O408 U406 2.458 . S
O408 C409 1.286 . S
C409 U406 2.984 . S
C409 O407 1.353 . S
C409 O408 1.286 . S
C409 C411 1.363 . S
C410 C400 1.465 . S
C410 U406 2.847 . S
C410 O424 1.249 . S
C410 O425 1.202 . S
C411 C409 1.363 . S
C411 C413 1.408 . S
C411 C416 1.342 . S
C412 C413 1.310 . S
C412 C415 1.461 . S
C412 H432 0.932 . S
C413 C411 1.408 . S
C413 C412 1.310 . S
C413 H433 0.930 . S
C414 C415 1.474 . S
C414 C416 1.285 . S
C414 H434 0.929 . S
C415 C412 1.461 . S
C415 C414 1.474 . S
C416 C411 1.342 . S
C416 C414 1.285 . S
C416 H435 0.930 . S
C417 C420 1.424 . S
C417 C422 1.245 . S
C417 C423 1.428 . S
C418 C421 1.260 . S
C418 C422 1.477 . S
C418 H436 0.932 . S
C419 C420 1.384 . S
C419 C421 1.479 . S
C419 H437 0.929 . S
C420 C417 1.424 . S
C420 C419 1.384 . S
C420 H438 0.928 . S
C421 C418 1.260 . S
C421 C419 1.479 . S
C422 C417 1.245 . S
C422 C418 1.477 . S
C422 H439 0.932 . S
C423 U406 2.882 . S
C423 C417 1.428 . S
C423 O426 1.301 . S
C423 O427 1.282 . S
O424 U406 2.441 . S
O424 C410 1.249 . S
O425 U406 2.420 . S
O425 C410 1.202 . S
O426 U406 2.455 . S
O426 C423 1.301 . S
O427 U406 2.449 . S
O427 C423 1.282 . S
H428 C401 0.931 . S
H429 C403 0.929 . S
H430 C404 0.930 . S
H431 C405 0.931 . S
H432 C412 0.932 . S
H433 C413 0.930 . S
H434 C414 0.929 . S
H435 C416 0.930 . S
H436 C418 0.932 . S
H437 C419 0.929 . S
H438 C420 0.928 . S
H439 C422 0.932 . S
C440 C441 1.264 . S
C440 C445 1.479 . S
C440 C450 1.465 . S
C441 C440 1.264 . S
C441 C443 1.339 . S
C441 H468 0.931 . S
C442 C443 1.395 . S
C442 C444 1.320 . S
C443 C441 1.339 . S
C443 C442 1.395 . S
C443 H469 0.929 . S
C444 C442 1.320 . S
C444 C445 1.405 . S
C444 H470 0.930 . S
C445 C440 1.479 . S
C445 C444 1.405 . S
C445 H471 0.931 . S
U446 O447 2.454 . S
U446 O448 2.458 . S
U446 C449 2.984 . S
U446 C450 2.847 . S
U446 C463 2.882 . S
U446 O464 2.441 . S
U446 O465 2.420 . S
U446 O466 2.455 . S
U446 O467 2.449 . S
O447 U446 2.454 . S
O447 C449 1.353 . S
O448 U446 2.458 . S
O448 C449 1.286 . S
C449 U446 2.984 . S
C449 O447 1.353 . S
C449 O448 1.286 . S
C449 C451 1.363 . S
C450 C440 1.465 . S
C450 U446 2.847 . S
C450 O464 1.249 . S
C450 O465 1.202 . S
C451 C449 1.363 . S
C451 C453 1.408 . S
C451 C456 1.342 . S
C452 C453 1.310 . S
C452 C455 1.461 . S
C452 H472 0.932 . S
C453 C451 1.408 . S
C453 C452 1.310 . S
C453 H473 0.930 . S
C454 C455 1.474 . S
C454 C456 1.285 . S
C454 H474 0.929 . S
C455 C452 1.461 . S
C455 C454 1.474 . S
C456 C451 1.342 . S
C456 C454 1.285 . S
C456 H475 0.930 . S
C457 C460 1.424 . S
C457 C462 1.245 . S
C457 C463 1.428 . S
C458 C461 1.260 . S
C458 C462 1.477 . S
C458 H476 0.932 . S
C459 C460 1.384 . S
C459 C461 1.479 . S
C459 H477 0.929 . S
C460 C457 1.424 . S
C460 C459 1.384 . S
C460 H478 0.928 . S
C461 C458 1.260 . S
C461 C459 1.479 . S
C462 C457 1.245 . S
C462 C458 1.477 . S
C462 H479 0.932 . S
C463 U446 2.882 . S
C463 C457 1.428 . S
C463 O466 1.301 . S
C463 O467 1.282 . S
O464 U446 2.441 . S
O464 C450 1.249 . S
O465 U446 2.420 . S
O465 C450 1.202 . S
O466 U446 2.455 . S
O466 C463 1.301 . S
O467 U446 2.449 . S
O467 C463 1.282 . S
H468 C441 0.931 . S
H469 C443 0.929 . S
H470 C444 0.930 . S
H471 C445 0.931 . S
H472 C452 0.932 . S
H473 C453 0.930 . S
H474 C454 0.929 . S
H475 C456 0.930 . S
H476 C458 0.932 . S
H477 C459 0.929 . S
H478 C460 0.928 . S
H479 C462 0.932 . S
C480 C481 1.264 . S
C480 C485 1.479 . S
C480 C490 1.465 . S
C481 C480 1.264 . S
C481 C483 1.339 . S
C481 H508 0.931 . S
C482 C483 1.395 . S
C482 C484 1.320 . S
C483 C481 1.339 . S
C483 C482 1.395 . S
C483 H509 0.929 . S
C484 C482 1.320 . S
C484 C485 1.405 . S
C484 H510 0.930 . S
C485 C480 1.479 . S
C485 C484 1.405 . S
C485 H511 0.931 . S
U486 O487 2.454 . S
U486 O488 2.458 . S
U486 C489 2.984 . S
U486 C490 2.847 . S
U486 C503 2.882 . S
U486 O504 2.441 . S
U486 O505 2.420 . S
U486 O506 2.455 . S
U486 O507 2.449 . S
O487 U486 2.454 . S
O487 C489 1.353 . S
O488 U486 2.458 . S
O488 C489 1.286 . S
C489 U486 2.984 . S
C489 O487 1.353 . S
C489 O488 1.286 . S
C489 C491 1.363 . S
C490 C480 1.465 . S
C490 U486 2.847 . S
C490 O504 1.249 . S
C490 O505 1.202 . S
C491 C489 1.363 . S
C491 C493 1.408 . S
C491 C496 1.342 . S
C492 C493 1.310 . S
C492 C495 1.461 . S
C492 H512 0.932 . S
C493 C491 1.408 . S
C493 C492 1.310 . S
C493 H513 0.930 . S
C494 C495 1.474 . S
C494 C496 1.285 . S
C494 H514 0.929 . S
C495 C492 1.461 . S
C495 C494 1.474 . S
C496 C491 1.342 . S
C496 C494 1.285 . S
C496 H515 0.930 . S
C497 C500 1.424 . S
C497 C502 1.245 . S
C497 C503 1.428 . S
C498 C501 1.260 . S
C498 C502 1.477 . S
C498 H516 0.932 . S
C499 C500 1.384 . S
C499 C501 1.479 . S
C499 H517 0.929 . S
C500 C497 1.424 . S
C500 C499 1.384 . S
C500 H518 0.928 . S
C501 C498 1.260 . S
C501 C499 1.479 . S
C502 C497 1.245 . S
C502 C498 1.477 . S
C502 H519 0.932 . S
C503 U486 2.882 . S
C503 C497 1.428 . S
C503 O506 1.301 . S
C503 O507 1.282 . S
O504 U486 2.441 . S
O504 C490 1.249 . S
O505 U486 2.420 . S
O505 C490 1.202 . S
O506 U486 2.455 . S
O506 C503 1.301 . S
O507 U486 2.449 . S
O507 C503 1.282 . S
H508 C481 0.931 . S
H509 C483 0.929 . S
H510 C484 0.930 . S
H511 C485 0.931 . S
H512 C492 0.932 . S
H513 C493 0.930 . S
H514 C494 0.929 . S
H515 C496 0.930 . S
H516 C498 0.932 . S
H517 C499 0.929 . S
H518 C500 0.928 . S
H519 C502 0.932 . S
C520 C521 1.264 . S
C520 C525 1.479 . S
C520 C530 1.465 . S
C521 C520 1.264 . S
C521 C523 1.339 . S
C521 H548 0.931 . S
C522 C523 1.395 . S
C522 C524 1.320 . S
C523 C521 1.339 . S
C523 C522 1.395 . S
C523 H549 0.929 . S
C524 C522 1.320 . S
C524 C525 1.405 . S
C524 H550 0.930 . S
C525 C520 1.479 . S
C525 C524 1.405 . S
C525 H551 0.931 . S
U526 O527 2.454 . S
U526 O528 2.458 . S
U526 C529 2.984 . S
U526 C530 2.847 . S
U526 C543 2.882 . S
U526 O544 2.441 . S
U526 O545 2.420 . S
U526 O546 2.455 . S
U526 O547 2.449 . S
O527 U526 2.454 . S
O527 C529 1.353 . S
O528 U526 2.458 . S
O528 C529 1.286 . S
C529 U526 2.984 . S
C529 O527 1.353 . S
C529 O528 1.286 . S
C529 C531 1.363 . S
C530 C520 1.465 . S
C530 U526 2.847 . S
C530 O544 1.249 . S
C530 O545 1.202 . S
C531 C529 1.363 . S
C531 C533 1.408 . S
C531 C536 1.342 . S
C532 C533 1.310 . S
C532 C535 1.461 . S
C532 H552 0.932 . S
C533 C531 1.408 . S
C533 C532 1.310 . S
C533 H553 0.930 . S
C534 C535 1.474 . S
C534 C536 1.285 . S
C534 H554 0.929 . S
C535 C532 1.461 . S
C535 C534 1.474 . S
C536 C531 1.342 . S
C536 C534 1.285 . S
C536 H555 0.930 . S
C537 C540 1.424 . S
C537 C542 1.245 . S
C537 C543 1.428 . S
C538 C541 1.260 . S
C538 C542 1.477 . S
C538 H556 0.932 . S
C539 C540 1.384 . S
C539 C541 1.479 . S
C539 H557 0.929 . S
C540 C537 1.424 . S
C540 C539 1.384 . S
C540 H558 0.928 . S
C541 C538 1.260 . S
C541 C539 1.479 . S
C542 C537 1.245 . S
C542 C538 1.477 . S
C542 H559 0.932 . S
C543 U526 2.882 . S
C543 C537 1.428 . S
C543 O546 1.301 . S
C543 O547 1.282 . S
O544 U526 2.441 . S
O544 C530 1.249 . S
O545 U526 2.420 . S
O545 C530 1.202 . S
O546 U526 2.455 . S
O546 C543 1.301 . S
O547 U526 2.449 . S
O547 C543 1.282 . S
H548 C521 0.931 . S
H549 C523 0.929 . S
H550 C524 0.930 . S
H551 C525 0.931 . S
H552 C532 0.932 . S
H553 C533 0.930 . S
H554 C534 0.929 . S
H555 C536 0.930 . S
H556 C538 0.932 . S
H557 C539 0.929 . S
H558 C540 0.928 . S
H559 C542 0.932 . S
C560 C561 1.264 . S
C560 C565 1.479 . S
C560 C570 1.465 . S
C561 C560 1.264 . S
C561 C563 1.339 . S
C561 H588 0.931 . S
C562 C563 1.395 . S
C562 C564 1.320 . S
C563 C561 1.339 . S
C563 C562 1.395 . S
C563 H589 0.929 . S
C564 C562 1.320 . S
C564 C565 1.405 . S
C564 H590 0.930 . S
C565 C560 1.479 . S
C565 C564 1.405 . S
C565 H591 0.931 . S
U566 O567 2.454 . S
U566 O568 2.458 . S
U566 C569 2.984 . S
U566 C570 2.847 . S
U566 C583 2.882 . S
U566 O584 2.441 . S
U566 O585 2.420 . S
U566 O586 2.455 . S
U566 O587 2.449 . S
O567 U566 2.454 . S
O567 C569 1.353 . S
O568 U566 2.458 . S
O568 C569 1.286 . S
C569 U566 2.984 . S
C569 O567 1.353 . S
C569 O568 1.286 . S
C569 C571 1.363 . S
C570 C560 1.465 . S
C570 U566 2.847 . S
C570 O584 1.249 . S
C570 O585 1.202 . S
C571 C569 1.363 . S
C571 C573 1.408 . S
C571 C576 1.342 . S
C572 C573 1.310 . S
C572 C575 1.461 . S
C572 H592 0.932 . S
C573 C571 1.408 . S
C573 C572 1.310 . S
C573 H593 0.930 . S
C574 C575 1.474 . S
C574 C576 1.285 . S
C574 H594 0.929 . S
C575 C572 1.461 . S
C575 C574 1.474 . S
C576 C571 1.342 . S
C576 C574 1.285 . S
C576 H595 0.930 . S
C577 C580 1.424 . S
C577 C582 1.245 . S
C577 C583 1.428 . S
C578 C581 1.260 . S
C578 C582 1.477 . S
C578 H596 0.932 . S
C579 C580 1.384 . S
C579 C581 1.479 . S
C579 H597 0.929 . S
C580 C577 1.424 . S
C580 C579 1.384 . S
C580 H598 0.928 . S
C581 C578 1.260 . S
C581 C579 1.479 . S
C582 C577 1.245 . S
C582 C578 1.477 . S
C582 H599 0.932 . S
C583 U566 2.882 . S
C583 C577 1.428 . S
C583 O586 1.301 . S
C583 O587 1.282 . S
O584 U566 2.441 . S
O584 C570 1.249 . S
O585 U566 2.420 . S
O585 C570 1.202 . S
O586 U566 2.455 . S
O586 C583 1.301 . S
O587 U566 2.449 . S
O587 C583 1.282 . S
H588 C561 0.931 . S
H589 C563 0.929 . S
H590 C564 0.930 . S
H591 C565 0.931 . S
H592 C572 0.932 . S
H593 C573 0.930 . S
H594 C574 0.929 . S
H595 C576 0.930 . S
H596 C578 0.932 . S
H597 C579 0.929 . S
H598 C580 0.928 . S
H599 C582 0.932 . S
C600 C601 1.264 . S
C600 C605 1.479 . S
C600 C610 1.465 . S
C601 C600 1.264 . S
C601 C603 1.339 . S
C601 H628 0.931 . S
C602 C603 1.395 . S
C602 C604 1.320 . S
C603 C601 1.339 . S
C603 C602 1.395 . S
C603 H629 0.929 . S
C604 C602 1.320 . S
C604 C605 1.405 . S
C604 H630 0.930 . S
C605 C600 1.479 . S
C605 C604 1.405 . S
C605 H631 0.931 . S
U606 O607 2.454 . S
U606 O608 2.458 . S
U606 C609 2.984 . S
U606 C610 2.847 . S
U606 C623 2.882 . S
U606 O624 2.441 . S
U606 O625 2.420 . S
U606 O626 2.455 . S
U606 O627 2.449 . S
O607 U606 2.454 . S
O607 C609 1.353 . S
O608 U606 2.458 . S
O608 C609 1.286 . S
C609 U606 2.984 . S
C609 O607 1.353 . S
C609 O608 1.286 . S
C609 C611 1.363 . S
C610 C600 1.465 . S
C610 U606 2.847 . S
C610 O624 1.249 . S
C610 O625 1.202 . S
C611 C609 1.363 . S
C611 C613 1.408 . S
C611 C616 1.342 . S
C612 C613 1.310 . S
C612 C615 1.461 . S
C612 H632 0.932 . S
C613 C611 1.408 . S
C613 C612 1.310 . S
C613 H633 0.930 . S
C614 C615 1.474 . S
C614 C616 1.285 . S
C614 H634 0.929 1_455 S
C615 C612 1.461 . S
C615 C614 1.474 . S
C616 C611 1.342 . S
C616 C614 1.285 . S
C616 H635 0.930 . S
C617 C620 1.424 . S
C617 C622 1.245 . S
C617 C623 1.428 . S
C618 C621 1.260 . S
C618 C622 1.477 . S
C618 H636 0.932 . S
C619 C620 1.384 . S
C619 C621 1.479 . S
C619 H637 0.929 . S
C620 C617 1.424 . S
C620 C619 1.384 . S
C620 H638 0.928 . S
C621 C618 1.260 . S
C621 C619 1.479 . S
C622 C617 1.245 . S
C622 C618 1.477 . S
C622 H639 0.932 . S
C623 U606 2.882 . S
C623 C617 1.428 . S
C623 O626 1.301 . S
C623 O627 1.282 . S
O624 U606 2.441 . S
O624 C610 1.249 . S
O625 U606 2.420 . S
O625 C610 1.202 . S
O626 U606 2.455 . S
O626 C623 1.301 . S
O627 U606 2.449 . S
O627 C623 1.282 . S
H628 C601 0.931 . S
H629 C603 0.929 . S
H630 C604 0.930 . S
H631 C605 0.931 . S
H632 C612 0.932 . S
H633 C613 0.930 . S
H634 C614 0.929 1_655 S
H635 C616 0.930 . S
H636 C618 0.932 . S
H637 C619 0.929 . S
H638 C620 0.928 . S
H639 C622 0.932 . S
C640 C641 1.264 . S
C640 C645 1.479 . S
C640 C650 1.465 . S
C641 C640 1.264 . S
C641 C643 1.339 . S
C641 H668 0.931 . S
C642 C643 1.395 . S
C642 C644 1.320 . S
C643 C641 1.339 . S
C643 C642 1.395 . S
C643 H669 0.929 . S
C644 C642 1.320 . S
C644 C645 1.405 . S
C644 H670 0.930 . S
C645 C640 1.479 . S
C645 C644 1.405 . S
C645 H671 0.931 . S
U646 O647 2.454 . S
U646 O648 2.458 . S
U646 C649 2.984 . S
U646 C650 2.847 . S
U646 C663 2.882 . S
U646 O664 2.441 . S
U646 O665 2.420 . S
U646 O666 2.455 . S
U646 O667 2.449 . S
O647 U646 2.454 . S
O647 C649 1.353 . S
O648 U646 2.458 . S
O648 C649 1.286 . S
C649 U646 2.984 . S
C649 O647 1.353 . S
C649 O648 1.286 . S
C649 C651 1.363 . S
C650 C640 1.465 . S
C650 U646 2.847 . S
C650 O664 1.249 . S
C650 O665 1.202 . S
C651 C649 1.363 . S
C651 C653 1.408 . S
C651 C656 1.342 . S
C652 C653 1.310 . S
C652 C655 1.461 . S
C652 H672 0.932 . S
C653 C651 1.408 . S
C653 C652 1.310 . S
C653 H673 0.930 . S
C654 C655 1.474 . S
C654 C656 1.285 . S
C654 H674 0.929 . S
C655 C652 1.461 . S
C655 C654 1.474 . S
C656 C651 1.342 . S
C656 C654 1.285 . S
C656 H675 0.930 . S
C657 C660 1.424 . S
C657 C662 1.245 . S
C657 C663 1.428 . S
C658 C661 1.260 . S
C658 C662 1.477 . S
C658 H676 0.932 . S
C659 C660 1.384 . S
C659 C661 1.479 . S
C659 H677 0.929 . S
C660 C657 1.424 . S
C660 C659 1.384 . S
C660 H678 0.928 . S
C661 C658 1.260 . S
C661 C659 1.479 . S
C662 C657 1.245 . S
C662 C658 1.477 . S
C662 H679 0.932 . S
C663 U646 2.882 . S
C663 C657 1.428 . S
C663 O666 1.301 . S
C663 O667 1.282 . S
O664 U646 2.441 . S
O664 C650 1.249 . S
O665 U646 2.420 . S
O665 C650 1.202 . S
O666 U646 2.455 . S
O666 C663 1.301 . S
O667 U646 2.449 . S
O667 C663 1.282 . S
H668 C641 0.931 . S
H669 C643 0.929 . S
H670 C644 0.930 . S
H671 C645 0.931 . S
H672 C652 0.932 . S
H673 C653 0.930 . S
H674 C654 0.929 . S
H675 C656 0.930 . S
H676 C658 0.932 . S
H677 C659 0.929 . S
H678 C660 0.928 . S
H679 C662 0.932 . S
C680 C681 1.264 . S
C680 C685 1.479 . S
C680 C690 1.465 . S
C681 C680 1.264 . S
C681 C683 1.339 . S
C681 H708 0.931 . S
C682 C683 1.395 . S
C682 C684 1.320 . S
C683 C681 1.339 . S
C683 C682 1.395 . S
C683 H709 0.929 . S
C684 C682 1.320 . S
C684 C685 1.405 . S
C684 H710 0.930 . S
C685 C680 1.479 . S
C685 C684 1.405 . S
C685 H711 0.931 . S
U686 O687 2.454 . S
U686 O688 2.458 . S
U686 C689 2.984 . S
U686 C690 2.847 . S
U686 C703 2.882 . S
U686 O704 2.441 . S
U686 O705 2.420 . S
U686 O706 2.455 . S
U686 O707 2.449 . S
O687 U686 2.454 . S
O687 C689 1.353 . S
O688 U686 2.458 . S
O688 C689 1.286 . S
C689 U686 2.984 . S
C689 O687 1.353 . S
C689 O688 1.286 . S
C689 C691 1.363 . S
C690 C680 1.465 . S
C690 U686 2.847 . S
C690 O704 1.249 . S
C690 O705 1.202 . S
C691 C689 1.363 . S
C691 C693 1.408 . S
C691 C696 1.342 . S
C692 C693 1.310 . S
C692 C695 1.461 . S
C692 H712 0.932 . S
C693 C691 1.408 . S
C693 C692 1.310 . S
C693 H713 0.930 . S
C694 C695 1.474 . S
C694 C696 1.285 . S
C694 H714 0.929 . S
C695 C692 1.461 . S
C695 C694 1.474 . S
C696 C691 1.342 . S
C696 C694 1.285 . S
C696 H715 0.930 . S
C697 C700 1.424 . S
C697 C702 1.245 . S
C697 C703 1.428 . S
C698 C701 1.260 . S
C698 C702 1.477 . S
C698 H716 0.932 . S
C699 C700 1.384 . S
C699 C701 1.479 . S
C699 H717 0.929 . S
C700 C697 1.424 . S
C700 C699 1.384 . S
C700 H718 0.928 . S
C701 C698 1.260 . S
C701 C699 1.479 . S
C702 C697 1.245 . S
C702 C698 1.477 . S
C702 H719 0.932 . S
C703 U686 2.882 . S
C703 C697 1.428 . S
C703 O706 1.301 . S
C703 O707 1.282 . S
O704 U686 2.441 . S
O704 C690 1.249 . S
O705 U686 2.420 . S
O705 C690 1.202 . S
O706 U686 2.455 . S
O706 C703 1.301 . S
O707 U686 2.449 . S
O707 C703 1.282 . S
H708 C681 0.931 . S
H709 C683 0.929 . S
H710 C684 0.930 . S
H711 C685 0.931 . S
H712 C692 0.932 . S
H713 C693 0.930 . S
H714 C694 0.929 . S
H715 C696 0.930 . S
H716 C698 0.932 . S
H717 C699 0.929 . S
H718 C700 0.928 . S
H719 C702 0.932 . S
C720 C721 1.264 . S
C720 C725 1.479 . S
C720 C730 1.465 . S
C721 C720 1.264 . S
C721 C723 1.339 . S
C721 H748 0.931 . S
C722 C723 1.395 . S
C722 C724 1.320 . S
C723 C721 1.339 . S
C723 C722 1.395 . S
C723 H749 0.929 . S
C724 C722 1.320 . S
C724 C725 1.405 . S
C724 H750 0.930 . S
C725 C720 1.479 . S
C725 C724 1.405 . S
C725 H751 0.931 . S
U726 O727 2.454 . S
U726 O728 2.458 . S
U726 C729 2.984 . S
U726 C730 2.847 . S
U726 C743 2.882 . S
U726 O744 2.441 . S
U726 O745 2.420 . S
U726 O746 2.455 . S
U726 O747 2.449 . S
O727 U726 2.454 . S
O727 C729 1.353 . S
O728 U726 2.458 . S
O728 C729 1.286 . S
C729 U726 2.984 . S
C729 O727 1.353 . S
C729 O728 1.286 . S
C729 C731 1.363 . S
C730 C720 1.465 . S
C730 U726 2.847 . S
C730 O744 1.249 . S
C730 O745 1.202 . S
C731 C729 1.363 . S
C731 C733 1.408 . S
C731 C736 1.342 . S
C732 C733 1.310 . S
C732 C735 1.461 . S
C732 H752 0.932 . S
C733 C731 1.408 . S
C733 C732 1.310 . S
C733 H753 0.930 . S
C734 C735 1.474 . S
C734 C736 1.285 . S
C734 H754 0.929 . S
C735 C732 1.461 . S
C735 C734 1.474 . S
C736 C731 1.342 . S
C736 C734 1.285 . S
C736 H755 0.930 . S
C737 C740 1.424 . S
C737 C742 1.245 . S
C737 C743 1.428 . S
C738 C741 1.260 . S
C738 C742 1.477 . S
C738 H756 0.932 . S
C739 C740 1.384 . S
C739 C741 1.479 . S
C739 H757 0.929 . S
C740 C737 1.424 . S
C740 C739 1.384 . S
C740 H758 0.928 . S
C741 C738 1.260 . S
C741 C739 1.479 . S
C742 C737 1.245 . S
C742 C738 1.477 . S
C742 H759 0.932 . S
C743 U726 2.882 . S
C743 C737 1.428 . S
C743 O746 1.301 . S
C743 O747 1.282 . S
O744 U726 2.441 . S
O744 C730 1.249 . S
O745 U726 2.420 . S
O745 C730 1.202 . S
O746 U726 2.455 . S
O746 C743 1.301 . S
O747 U726 2.449 . S
O747 C743 1.282 . S
H748 C721 0.931 . S
H749 C723 0.929 . S
H750 C724 0.930 . S
H751 C725 0.931 . S
H752 C732 0.932 . S
H753 C733 0.930 . S
H754 C734 0.929 . S
H755 C736 0.930 . S
H756 C738 0.932 . S
H757 C739 0.929 . S
H758 C740 0.928 . S
H759 C742 0.932 . S
C760 C761 1.264 . S
C760 C765 1.479 . S
C760 C770 1.465 . S
C761 C760 1.264 . S
C761 C763 1.339 . S
C761 H788 0.931 . S
C762 C763 1.395 . S
C762 C764 1.320 . S
C763 C761 1.339 . S
C763 C762 1.395 . S
C763 H789 0.929 . S
C764 C762 1.320 . S
C764 C765 1.405 . S
C764 H790 0.930 . S
C765 C760 1.479 . S
C765 C764 1.405 . S
C765 H791 0.931 . S
U766 O767 2.454 . S
U766 O768 2.458 . S
U766 C769 2.984 . S
U766 C770 2.847 . S
U766 C783 2.882 . S
U766 O784 2.441 . S
U766 O785 2.420 . S
U766 O786 2.455 . S
U766 O787 2.449 . S
O767 U766 2.454 . S
O767 C769 1.353 . S
O768 U766 2.458 . S
O768 C769 1.286 . S
C769 U766 2.984 . S
C769 O767 1.353 . S
C769 O768 1.286 . S
C769 C771 1.363 . S
C770 C760 1.465 . S
C770 U766 2.847 . S
C770 O784 1.249 . S
C770 O785 1.202 . S
C771 C769 1.363 . S
C771 C773 1.408 . S
C771 C776 1.342 . S
C772 C773 1.310 . S
C772 C775 1.461 . S
C772 H792 0.932 . S
C773 C771 1.408 . S
C773 C772 1.310 . S
C773 H793 0.930 . S
C774 C775 1.474 . S
C774 C776 1.285 . S
C774 H794 0.929 1_455 S
C775 C772 1.461 . S
C775 C774 1.474 . S
C776 C771 1.342 . S
C776 C774 1.285 . S
C776 H795 0.930 . S
C777 C780 1.424 . S
C777 C782 1.245 . S
C777 C783 1.428 . S
C778 C781 1.260 . S
C778 C782 1.477 . S
C778 H796 0.932 . S
C779 C780 1.384 . S
C779 C781 1.479 . S
C779 H797 0.929 . S
C780 C777 1.424 . S
C780 C779 1.384 . S
C780 H798 0.928 . S
C781 C778 1.260 . S
C781 C779 1.479 . S
C782 C777 1.245 . S
C782 C778 1.477 . S
C782 H799 0.932 . S
C783 U766 2.882 . S
C783 C777 1.428 . S
C783 O786 1.301 . S
C783 O787 1.282 . S
O784 U766 2.441 . S
O784 C770 1.249 . S
O785 U766 2.420 . S
O785 C770 1.202 . S
O786 U766 2.455 . S
O786 C783 1.301 . S
O787 U766 2.449 . S
O787 C783 1.282 . S
H788 C761 0.931 . S
H789 C763 0.929 . S
H790 C764 0.930 . S
H791 C765 0.931 . S
H792 C772 0.932 . S
H793 C773 0.930 . S
H794 C774 0.929 1_655 S
H795 C776 0.930 . S
H796 C778 0.932 . S
H797 C779 0.929 . S
H798 C780 0.928 . S
H799 C782 0.932 . S
C800 C801 1.264 . S
C800 C805 1.479 . S
C800 C810 1.465 . S
C801 C800 1.264 . S
C801 C803 1.339 . S
C801 H828 0.931 . S
C802 C803 1.395 . S
C802 C804 1.320 . S
C803 C801 1.339 . S
C803 C802 1.395 . S
C803 H829 0.929 . S
C804 C802 1.320 . S
C804 C805 1.405 . S
C804 H830 0.930 . S
C805 C800 1.479 . S
C805 C804 1.405 . S
C805 H831 0.931 . S
U806 O807 2.454 . S
U806 O808 2.458 . S
U806 C809 2.984 . S
U806 C810 2.847 . S
U806 C823 2.882 . S
U806 O824 2.441 . S
U806 O825 2.420 . S
U806 O826 2.455 . S
U806 O827 2.449 . S
O807 U806 2.454 . S
O807 C809 1.353 . S
O808 U806 2.458 . S
O808 C809 1.286 . S
C809 U806 2.984 . S
C809 O807 1.353 . S
C809 O808 1.286 . S
C809 C811 1.363 . S
C810 C800 1.465 . S
C810 U806 2.847 . S
C810 O824 1.249 . S
C810 O825 1.202 . S
C811 C809 1.363 . S
C811 C813 1.408 . S
C811 C816 1.342 . S
C812 C813 1.310 . S
C812 C815 1.461 . S
C812 H832 0.932 . S
C813 C811 1.408 . S
C813 C812 1.310 . S
C813 H833 0.930 . S
C814 C815 1.474 . S
C814 C816 1.285 . S
C814 H834 0.929 . S
C815 C812 1.461 . S
C815 C814 1.474 . S
C816 C811 1.342 . S
C816 C814 1.285 . S
C816 H835 0.930 . S
C817 C820 1.424 . S
C817 C822 1.245 . S
C817 C823 1.428 . S
C818 C821 1.260 . S
C818 C822 1.477 . S
C818 H836 0.932 . S
C819 C820 1.384 . S
C819 C821 1.479 . S
C819 H837 0.929 . S
C820 C817 1.424 . S
C820 C819 1.384 . S
C820 H838 0.928 . S
C821 C818 1.260 . S
C821 C819 1.479 . S
C822 C817 1.245 . S
C822 C818 1.477 . S
C822 H839 0.932 . S
C823 U806 2.882 . S
C823 C817 1.428 . S
C823 O826 1.301 . S
C823 O827 1.282 . S
O824 U806 2.441 . S
O824 C810 1.249 . S
O825 U806 2.420 . S
O825 C810 1.202 . S
O826 U806 2.455 . S
O826 C823 1.301 . S
O827 U806 2.449 . S
O827 C823 1.282 . S
H828 C801 0.931 . S
H829 C803 0.929 . S
H830 C804 0.930 . S
H831 C805 0.931 . S
H832 C812 0.932 . S
H833 C813 0.930 . S
H834 C814 0.929 . S
H835 C816 0.930 . S
H836 C818 0.932 . S
H837 C819 0.929 . S
H838 C820 0.928 . S
H839 C822 0.932 . S
C840 C841 1.264 . S
C840 C845 1.479 . S
C840 C850 1.465 . S
C841 C840 1.264 . S
C841 C843 1.339 . S
C841 H868 0.931 . S
C842 C843 1.395 . S
C842 C844 1.320 . S
C843 C841 1.339 . S
C843 C842 1.395 . S
C843 H869 0.929 . S
C844 C842 1.320 . S
C844 C845 1.405 . S
C844 H870 0.930 . S
C845 C840 1.479 . S
C845 C844 1.405 . S
C845 H871 0.931 . S
U846 O847 2.454 . S
U846 O848 2.458 . S
U846 C849 2.984 . S
U846 C850 2.847 . S
U846 C863 2.882 . S
U846 O864 2.441 . S
U846 O865 2.420 . S
U846 O866 2.455 . S
U846 O867 2.449 . S
O847 U846 2.454 . S
O847 C849 1.353 . S
O848 U846 2.458 . S
O848 C849 1.286 . S
C849 U846 2.984 . S
C849 O847 1.353 . S
C849 O848 1.286 . S
C849 C851 1.363 . S
C850 C840 1.465 . S
C850 U846 2.847 . S
C850 O864 1.249 . S
C850 O865 1.202 . S
C851 C849 1.363 . S
C851 C853 1.408 . S
C851 C856 1.342 . S
C852 C853 1.310 . S
C852 C855 1.461 . S
C852 H872 0.932 . S
C853 C851 1.408 . S
C853 C852 1.310 . S
C853 H873 0.930 . S
C854 C855 1.474 . S
C854 C856 1.285 . S
C854 H874 0.929 1_455 S
C855 C852 1.461 . S
C855 C854 1.474 . S
C856 C851 1.342 . S
C856 C854 1.285 . S
C856 H875 0.930 . S
C857 C860 1.424 . S
C857 C862 1.245 . S
C857 C863 1.428 . S
C858 C861 1.260 . S
C858 C862 1.477 . S
C858 H876 0.932 . S
C859 C860 1.384 . S
C859 C861 1.479 . S
C859 H877 0.929 . S
C860 C857 1.424 . S
C860 C859 1.384 . S
C860 H878 0.928 . S
C861 C858 1.260 . S
C861 C859 1.479 . S
C862 C857 1.245 . S
C862 C858 1.477 . S
C862 H879 0.932 . S
C863 U846 2.882 . S
C863 C857 1.428 . S
C863 O866 1.301 . S
C863 O867 1.282 . S
O864 U846 2.441 . S
O864 C850 1.249 . S
O865 U846 2.420 . S
O865 C850 1.202 . S
O866 U846 2.455 . S
O866 C863 1.301 . S
O867 U846 2.449 . S
O867 C863 1.282 . S
H868 C841 0.931 . S
H869 C843 0.929 . S
H870 C844 0.930 . S
H871 C845 0.931 . S
H872 C852 0.932 . S
H873 C853 0.930 . S
H874 C854 0.929 1_655 S
H875 C856 0.930 . S
H876 C858 0.932 . S
H877 C859 0.929 . S
H878 C860 0.928 . S
H879 C862 0.932 . S
C880 C881 1.264 . S
C880 C885 1.479 . S
C880 C890 1.465 . S
C881 C880 1.264 . S
C881 C883 1.339 . S
C881 H908 0.931 . S
C882 C883 1.395 . S
C882 C884 1.320 . S
C883 C881 1.339 . S
C883 C882 1.395 . S
C883 H909 0.929 . S
C884 C882 1.320 . S
C884 C885 1.405 . S
C884 H910 0.930 . S
C885 C880 1.479 . S
C885 C884 1.405 . S
C885 H911 0.931 . S
U886 O887 2.454 . S
U886 O888 2.458 . S
U886 C889 2.984 . S
U886 C890 2.847 . S
U886 C903 2.882 . S
U886 O904 2.441 . S
U886 O905 2.420 . S
U886 O906 2.455 . S
U886 O907 2.449 . S
O887 U886 2.454 . S
O887 C889 1.353 . S
O888 U886 2.458 . S
O888 C889 1.286 . S
C889 U886 2.984 . S
C889 O887 1.353 . S
C889 O888 1.286 . S
C889 C891 1.363 . S
C890 C880 1.465 . S
C890 U886 2.847 . S
C890 O904 1.249 . S
C890 O905 1.202 . S
C891 C889 1.363 . S
C891 C893 1.408 . S
C891 C896 1.342 . S
C892 C893 1.310 . S
C892 C895 1.461 . S
C892 H912 0.932 . S
C893 C891 1.408 . S
C893 C892 1.310 . S
C893 H913 0.930 . S
C894 C895 1.474 . S
C894 C896 1.285 . S
C894 H914 0.929 . S
C895 C892 1.461 . S
C895 C894 1.474 . S
C896 C891 1.342 . S
C896 C894 1.285 . S
C896 H915 0.930 . S
C897 C900 1.424 . S
C897 C902 1.245 . S
C897 C903 1.428 . S
C898 C901 1.260 . S
C898 C902 1.477 . S
C898 H916 0.932 . S
C899 C900 1.384 . S
C899 C901 1.479 . S
C899 H917 0.929 . S
C900 C897 1.424 . S
C900 C899 1.384 . S
C900 H918 0.928 . S
C901 C898 1.260 . S
C901 C899 1.479 . S
C902 C897 1.245 . S
C902 C898 1.477 . S
C902 H919 0.932 . S
C903 U886 2.882 . S
C903 C897 1.428 . S
C903 O906 1.301 . S
C903 O907 1.282 . S
O904 U886 2.441 . S
O904 C890 1.249 . S
O905 U886 2.420 . S
O905 C890 1.202 . S
O906 U886 2.455 . S
O906 C903 1.301 . S
O907 U886 2.449 . S
O907 C903 1.282 . S
H908 C881 0.931 . S
H909 C883 0.929 . S
H910 C884 0.930 . S
H911 C885 0.931 . S
H912 C892 0.932 . S
H913 C893 0.930 . S
H914 C894 0.929 . S
H915 C896 0.930 . S
H916 C898 0.932 . S
H917 C899 0.929 . S
H918 C900 0.928 . S
H919 C902 0.932 . S
C920 C921 1.264 . S
C920 C925 1.479 . S
C920 C930 1.465 . S
C921 C920 1.264 . S
C921 C923 1.339 . S
C921 H948 0.931 . S
C922 C923 1.395 . S
C922 C924 1.320 . S
C923 C921 1.339 . S
C923 C922 1.395 . S
C923 H949 0.929 . S
C924 C922 1.320 . S
C924 C925 1.405 . S
C924 H950 0.930 . S
C925 C920 1.479 . S
C925 C924 1.405 . S
C925 H951 0.931 . S
U926 O927 2.454 . S
U926 O928 2.458 . S
U926 C929 2.984 . S
U926 C930 2.847 . S
U926 C943 2.882 . S
U926 O944 2.441 . S
U926 O945 2.420 . S
U926 O946 2.455 . S
U926 O947 2.449 . S
O927 U926 2.454 . S
O927 C929 1.353 . S
O928 U926 2.458 . S
O928 C929 1.286 . S
C929 U926 2.984 . S
C929 O927 1.353 . S
C929 O928 1.286 . S
C929 C931 1.363 . S
C930 C920 1.465 . S
C930 U926 2.847 . S
C930 O944 1.249 . S
C930 O945 1.202 . S
C931 C929 1.363 . S
C931 C933 1.408 . S
C931 C936 1.342 . S
C932 C933 1.310 . S
C932 C935 1.461 . S
C932 H952 0.932 . S
C933 C931 1.408 . S
C933 C932 1.310 . S
C933 H953 0.930 . S
C934 C935 1.474 . S
C934 C936 1.285 . S
C934 H954 0.929 . S
C935 C932 1.461 . S
C935 C934 1.474 . S
C936 C931 1.342 . S
C936 C934 1.285 . S
C936 H955 0.930 . S
C937 C940 1.424 . S
C937 C942 1.245 . S
C937 C943 1.428 . S
C938 C941 1.260 . S
C938 C942 1.477 . S
C938 H956 0.932 . S
C939 C940 1.384 . S
C939 C941 1.479 . S
C939 H957 0.929 . S
C940 C937 1.424 . S
C940 C939 1.384 . S
C940 H958 0.928 . S
C941 C938 1.260 . S
C941 C939 1.479 . S
C942 C937 1.245 . S
C942 C938 1.477 . S
C942 H959 0.932 . S
C943 U926 2.882 . S
C943 C937 1.428 . S
C943 O946 1.301 . S
C943 O947 1.282 . S
O944 U926 2.441 . S
O944 C930 1.249 . S
O945 U926 2.420 . S
O945 C930 1.202 . S
O946 U926 2.455 . S
O946 C943 1.301 . S
O947 U926 2.449 . S
O947 C943 1.282 . S
H948 C921 0.931 . S
H949 C923 0.929 . S
H950 C924 0.930 . S
H951 C925 0.931 . S
H952 C932 0.932 . S
H953 C933 0.930 . S
H954 C934 0.929 . S
H955 C936 0.930 . S
H956 C938 0.932 . S
H957 C939 0.929 . S
H958 C940 0.928 . S
H959 C942 0.932 . S
C960 C961 1.264 . S
C960 C965 1.479 . S
C960 C970 1.465 . S
C961 C960 1.264 . S
C961 C963 1.339 . S
C961 H988 0.931 . S
C962 C963 1.395 . S
C962 C964 1.320 . S
C963 C961 1.339 . S
C963 C962 1.395 . S
C963 H989 0.929 . S
C964 C962 1.320 . S
C964 C965 1.405 . S
C964 H990 0.930 . S
C965 C960 1.479 . S
C965 C964 1.405 . S
C965 H991 0.931 . S
U966 O967 2.454 . S
U966 O968 2.458 . S
U966 C969 2.984 . S
U966 C970 2.847 . S
U966 C983 2.882 . S
U966 O984 2.441 . S
U966 O985 2.420 . S
U966 O986 2.455 . S
U966 O987 2.449 . S
O967 U966 2.454 . S
O967 C969 1.353 . S
O968 U966 2.458 . S
O968 C969 1.286 . S
C969 U966 2.984 . S
C969 O967 1.353 . S
C969 O968 1.286 . S
C969 C971 1.363 . S
C970 C960 1.465 . S
C970 U966 2.847 . S
C970 O984 1.249 . S
C970 O985 1.202 . S
C971 C969 1.363 . S
C971 C973 1.408 . S
C971 C976 1.342 . S
C972 C973 1.310 . S
C972 C975 1.461 . S
C972 H992 0.932 . S
C973 C971 1.408 . S
C973 C972 1.310 . S
C973 H993 0.930 . S
C974 C975 1.474 . S
C974 C976 1.285 . S
C974 H994 0.929 . S
C975 C972 1.461 . S
C975 C974 1.474 . S
C976 C971 1.342 . S
C976 C974 1.285 . S
C976 H995 0.930 . S
C977 C980 1.424 . S
C977 C982 1.245 . S
C977 C983 1.428 . S
C978 C981 1.260 . S
C978 C982 1.477 . S
C978 H996 0.932 . S
C979 C980 1.384 . S
C979 C981 1.479 . S
C979 H997 0.929 . S
C980 C977 1.424 . S
C980 C979 1.384 . S
C980 H998 0.928 . S
C981 C978 1.260 . S
C981 C979 1.479 . S
C982 C977 1.245 . S
C982 C978 1.477 . S
C982 H999 0.932 . S
C983 U966 2.882 . S
C983 C977 1.428 . S
C983 O986 1.301 . S
C983 O987 1.282 . S
O984 U966 2.441 . S
O984 C970 1.249 . S
O985 U966 2.420 . S
O985 C970 1.202 . S
O986 U966 2.455 . S
O986 C983 1.301 . S
O987 U966 2.449 . S
O987 C983 1.282 . S
H988 C961 0.931 . S
H989 C963 0.929 . S
H990 C964 0.930 . S
H991 C965 0.931 . S
H992 C972 0.932 . S
H993 C973 0.930 . S
H994 C974 0.929 . S
H995 C976 0.930 . S
H996 C978 0.932 . S
H997 C979 0.929 . S
H998 C980 0.928 . S
H999 C982 0.932 . S
C1000 C1001 1.264 . S
C1000 C1005 1.479 . S
C1000 C1010 1.465 . S
C1001 C1000 1.264 . S
C1001 C1003 1.339 . S
C1001 H1028 0.931 . S
C1002 C1003 1.395 . S
C1002 C1004 1.320 . S
C1003 C1001 1.339 . S
C1003 C1002 1.395 . S
C1003 H1029 0.929 . S
C1004 C1002 1.320 . S
C1004 C1005 1.405 . S
C1004 H1030 0.930 . S
C1005 C1000 1.479 . S
C1005 C1004 1.405 . S
C1005 H1031 0.931 . S
U1006 O1007 2.454 . S
U1006 O1008 2.458 . S
U1006 C1009 2.984 . S
U1006 C1010 2.847 . S
U1006 C1023 2.882 . S
U1006 O1024 2.441 . S
U1006 O1025 2.420 . S
U1006 O1026 2.455 . S
U1006 O1027 2.449 . S
O1007 U1006 2.454 . S
O1007 C1009 1.353 . S
O1008 U1006 2.458 . S
O1008 C1009 1.286 . S
C1009 U1006 2.984 . S
C1009 O1007 1.353 . S
C1009 O1008 1.286 . S
C1009 C1011 1.363 . S
C1010 C1000 1.465 . S
C1010 U1006 2.847 . S
C1010 O1024 1.249 . S
C1010 O1025 1.202 . S
C1011 C1009 1.363 . S
C1011 C1013 1.408 . S
C1011 C1016 1.342 . S
C1012 C1013 1.310 . S
C1012 C1015 1.461 . S
C1012 H1032 0.932 . S
C1013 C1011 1.408 . S
C1013 C1012 1.310 . S
C1013 H1033 0.930 . S
C1014 C1015 1.474 . S
C1014 C1016 1.285 . S
C1014 H1034 0.929 . S
C1015 C1012 1.461 . S
C1015 C1014 1.474 . S
C1016 C1011 1.342 . S
C1016 C1014 1.285 . S
C1016 H1035 0.930 . S
C1017 C1020 1.424 . S
C1017 C1022 1.245 . S
C1017 C1023 1.428 . S
C1018 C1021 1.260 . S
C1018 C1022 1.477 . S
C1018 H1036 0.932 . S
C1019 C1020 1.384 . S
C1019 C1021 1.479 . S
C1019 H1037 0.929 . S
C1020 C1017 1.424 . S
C1020 C1019 1.384 . S
C1020 H1038 0.928 . S
C1021 C1018 1.260 . S
C1021 C1019 1.479 . S
C1022 C1017 1.245 . S
C1022 C1018 1.477 . S
C1022 H1039 0.932 . S
C1023 U1006 2.882 . S
C1023 C1017 1.428 . S
C1023 O1026 1.301 . S
C1023 O1027 1.282 . S
O1024 U1006 2.441 . S
O1024 C1010 1.249 . S
O1025 U1006 2.420 . S
O1025 C1010 1.202 . S
O1026 U1006 2.455 . S
O1026 C1023 1.301 . S
O1027 U1006 2.449 . S
O1027 C1023 1.282 . S
H1028 C1001 0.931 . S
H1029 C1003 0.929 . S
H1030 C1004 0.930 . S
H1031 C1005 0.931 . S
H1032 C1012 0.932 . S
H1033 C1013 0.930 . S
H1034 C1014 0.929 . S
H1035 C1016 0.930 . S
H1036 C1018 0.932 . S
H1037 C1019 0.929 . S
H1038 C1020 0.928 . S
H1039 C1022 0.932 . S
C1040 C1041 1.264 . S
C1040 C1045 1.479 . S
C1040 C1050 1.465 . S
C1041 C1040 1.264 . S
C1041 C1043 1.339 . S
C1041 H1068 0.931 . S
C1042 C1043 1.395 . S
C1042 C1044 1.320 . S
C1043 C1041 1.339 . S
C1043 C1042 1.395 . S
C1043 H1069 0.929 . S
C1044 C1042 1.320 . S
C1044 C1045 1.405 . S
C1044 H1070 0.930 . S
C1045 C1040 1.479 . S
C1045 C1044 1.405 . S
C1045 H1071 0.931 . S
U1046 O1047 2.454 . S
U1046 O1048 2.458 . S
U1046 C1049 2.984 . S
U1046 C1050 2.847 . S
U1046 C1063 2.882 . S
U1046 O1064 2.441 . S
U1046 O1065 2.420 . S
U1046 O1066 2.455 . S
U1046 O1067 2.449 . S
O1047 U1046 2.454 . S
O1047 C1049 1.353 . S
O1048 U1046 2.458 . S
O1048 C1049 1.286 . S
C1049 U1046 2.984 . S
C1049 O1047 1.353 . S
C1049 O1048 1.286 . S
C1049 C1051 1.363 . S
C1050 C1040 1.465 . S
C1050 U1046 2.847 . S
C1050 O1064 1.249 . S
C1050 O1065 1.202 . S
C1051 C1049 1.363 . S
C1051 C1053 1.408 . S
C1051 C1056 1.342 . S
C1052 C1053 1.310 . S
C1052 C1055 1.461 . S
C1052 H1072 0.932 . S
C1053 C1051 1.408 . S
C1053 C1052 1.310 . S
C1053 H1073 0.930 . S
C1054 C1055 1.474 . S
C1054 C1056 1.285 . S
C1054 H1074 0.929 . S
C1055 C1052 1.461 . S
C1055 C1054 1.474 . S
C1056 C1051 1.342 . S
C1056 C1054 1.285 . S
C1056 H1075 0.930 . S
C1057 C1060 1.424 . S
C1057 C1062 1.245 . S
C1057 C1063 1.428 . S
C1058 C1061 1.260 . S
C1058 C1062 1.477 . S
C1058 H1076 0.932 . S
C1059 C1060 1.384 . S
C1059 C1061 1.479 . S
C1059 H1077 0.929 . S
C1060 C1057 1.424 . S
C1060 C1059 1.384 . S
C1060 H1078 0.928 . S
C1061 C1058 1.260 . S
C1061 C1059 1.479 . S
C1062 C1057 1.245 . S
C1062 C1058 1.477 . S
C1062 H1079 0.932 . S
C1063 U1046 2.882 . S
C1063 C1057 1.428 . S
C1063 O1066 1.301 . S
C1063 O1067 1.282 . S
O1064 U1046 2.441 . S
O1064 C1050 1.249 . S
O1065 U1046 2.420 . S
O1065 C1050 1.202 . S
O1066 U1046 2.455 . S
O1066 C1063 1.301 . S
O1067 U1046 2.449 . S
O1067 C1063 1.282 . S
H1068 C1041 0.931 . S
H1069 C1043 0.929 . S
H1070 C1044 0.930 . S
H1071 C1045 0.931 . S
H1072 C1052 0.932 . S
H1073 C1053 0.930 . S
H1074 C1054 0.929 . S
H1075 C1056 0.930 . S
H1076 C1058 0.932 . S
H1077 C1059 0.929 . S
H1078 C1060 0.928 . S
H1079 C1062 0.932 . S
C1080 C1081 1.264 . S
C1080 C1085 1.479 . S
C1080 C1090 1.465 . S
C1081 C1080 1.264 . S
C1081 C1083 1.339 . S
C1081 H1108 0.931 . S
C1082 C1083 1.395 . S
C1082 C1084 1.320 . S
C1083 C1081 1.339 . S
C1083 C1082 1.395 . S
C1083 H1109 0.929 . S
C1084 C1082 1.320 . S
C1084 C1085 1.405 . S
C1084 H1110 0.930 . S
C1085 C1080 1.479 . S
C1085 C1084 1.405 . S
C1085 H1111 0.931 . S
U1086 O1087 2.454 . S
U1086 O1088 2.458 . S
U1086 C1089 2.984 . S
U1086 C1090 2.847 . S
U1086 C1103 2.882 . S
U1086 O1104 2.441 . S
U1086 O1105 2.420 . S
U1086 O1106 2.455 . S
U1086 O1107 2.449 . S
O1087 U1086 2.454 . S
O1087 C1089 1.353 . S
O1088 U1086 2.458 . S
O1088 C1089 1.286 . S
C1089 U1086 2.984 . S
C1089 O1087 1.353 . S
C1089 O1088 1.286 . S
C1089 C1091 1.363 . S
C1090 C1080 1.465 . S
C1090 U1086 2.847 . S
C1090 O1104 1.249 . S
C1090 O1105 1.202 . S
C1091 C1089 1.363 . S
C1091 C1093 1.408 . S
C1091 C1096 1.342 . S
C1092 C1093 1.310 . S
C1092 C1095 1.461 . S
C1092 H1112 0.932 . S
C1093 C1091 1.408 . S
C1093 C1092 1.310 . S
C1093 H1113 0.930 . S
C1094 C1095 1.474 . S
C1094 C1096 1.285 . S
C1094 H1114 0.929 1_655 S
C1095 C1092 1.461 . S
C1095 C1094 1.474 . S
C1096 C1091 1.342 . S
C1096 C1094 1.285 . S
C1096 H1115 0.930 . S
C1097 C1100 1.424 . S
C1097 C1102 1.245 . S
C1097 C1103 1.428 . S
C1098 C1101 1.260 . S
C1098 C1102 1.477 . S
C1098 H1116 0.932 . S
C1099 C1100 1.384 . S
C1099 C1101 1.479 . S
C1099 H1117 0.929 . S
C1100 C1097 1.424 . S
C1100 C1099 1.384 . S
C1100 H1118 0.928 . S
C1101 C1098 1.260 . S
C1101 C1099 1.479 . S
C1102 C1097 1.245 . S
C1102 C1098 1.477 . S
C1102 H1119 0.932 . S
C1103 U1086 2.882 . S
C1103 C1097 1.428 . S
C1103 O1106 1.301 . S
C1103 O1107 1.282 . S
O1104 U1086 2.441 . S
O1104 C1090 1.249 . S
O1105 U1086 2.420 . S
O1105 C1090 1.202 . S
O1106 U1086 2.455 . S
O1106 C1103 1.301 . S
O1107 U1086 2.449 . S
O1107 C1103 1.282 . S
H1108 C1081 0.931 . S
H1109 C1083 0.929 . S
H1110 C1084 0.930 . S
H1111 C1085 0.931 . S
H1112 C1092 0.932 . S
H1113 C1093 0.930 . S
H1114 C1094 0.929 1_455 S
H1115 C1096 0.930 . S
H1116 C1098 0.932 . S
H1117 C1099 0.929 . S
H1118 C1100 0.928 . S
H1119 C1102 0.932 . S
C1120 C1121 1.264 . S
C1120 C1125 1.479 . S
C1120 C1130 1.465 . S
C1121 C1120 1.264 . S
C1121 C1123 1.339 . S
C1121 H1148 0.931 . S
C1122 C1123 1.395 . S
C1122 C1124 1.320 . S
C1123 C1121 1.339 . S
C1123 C1122 1.395 . S
C1123 H1149 0.929 . S
C1124 C1122 1.320 . S
C1124 C1125 1.405 . S
C1124 H1150 0.930 . S
C1125 C1120 1.479 . S
C1125 C1124 1.405 . S
C1125 H1151 0.931 . S
U1126 O1127 2.454 . S
U1126 O1128 2.458 . S
U1126 C1129 2.984 . S
U1126 C1130 2.847 . S
U1126 C1143 2.882 . S
U1126 O1144 2.441 . S
U1126 O1145 2.420 . S
U1126 O1146 2.455 . S
U1126 O1147 2.449 . S
O1127 U1126 2.454 . S
O1127 C1129 1.353 . S
O1128 U1126 2.458 . S
O1128 C1129 1.286 . S
C1129 U1126 2.984 . S
C1129 O1127 1.353 . S
C1129 O1128 1.286 . S
C1129 C1131 1.363 . S
C1130 C1120 1.465 . S
C1130 U1126 2.847 . S
C1130 O1144 1.249 . S
C1130 O1145 1.202 . S
C1131 C1129 1.363 . S
C1131 C1133 1.408 . S
C1131 C1136 1.342 . S
C1132 C1133 1.310 . S
C1132 C1135 1.461 . S
C1132 H1152 0.932 . S
C1133 C1131 1.408 . S
C1133 C1132 1.310 . S
C1133 H1153 0.930 . S
C1134 C1135 1.474 . S
C1134 C1136 1.285 . S
C1134 H1154 0.929 . S
C1135 C1132 1.461 . S
C1135 C1134 1.474 . S
C1136 C1131 1.342 . S
C1136 C1134 1.285 . S
C1136 H1155 0.930 . S
C1137 C1140 1.424 . S
C1137 C1142 1.245 . S
C1137 C1143 1.428 . S
C1138 C1141 1.260 . S
C1138 C1142 1.477 . S
C1138 H1156 0.932 . S
C1139 C1140 1.384 . S
C1139 C1141 1.479 . S
C1139 H1157 0.929 . S
C1140 C1137 1.424 . S
C1140 C1139 1.384 . S
C1140 H1158 0.928 . S
C1141 C1138 1.260 . S
C1141 C1139 1.479 . S
C1142 C1137 1.245 . S
C1142 C1138 1.477 . S
C1142 H1159 0.932 . S
C1143 U1126 2.882 . S
C1143 C1137 1.428 . S
C1143 O1146 1.301 . S
C1143 O1147 1.282 . S
O1144 U1126 2.441 . S
O1144 C1130 1.249 . S
O1145 U1126 2.420 . S
O1145 C1130 1.202 . S
O1146 U1126 2.455 . S
O1146 C1143 1.301 . S
O1147 U1126 2.449 . S
O1147 C1143 1.282 . S
H1148 C1121 0.931 . S
H1149 C1123 0.929 . S
H1150 C1124 0.930 . S
H1151 C1125 0.931 . S
H1152 C1132 0.932 . S
H1153 C1133 0.930 . S
H1154 C1134 0.929 . S
H1155 C1136 0.930 . S
H1156 C1138 0.932 . S
H1157 C1139 0.929 . S
H1158 C1140 0.928 . S
H1159 C1142 0.932 . S
C1160 C1161 1.264 . S
C1160 C1165 1.479 . S
C1160 C1170 1.465 . S
C1161 C1160 1.264 . S
C1161 C1163 1.339 . S
C1161 H1188 0.931 . S
C1162 C1163 1.395 . S
C1162 C1164 1.320 . S
C1163 C1161 1.339 . S
C1163 C1162 1.395 . S
C1163 H1189 0.929 . S
C1164 C1162 1.320 . S
C1164 C1165 1.405 . S
C1164 H1190 0.930 . S
C1165 C1160 1.479 . S
C1165 C1164 1.405 . S
C1165 H1191 0.931 . S
U1166 O1167 2.454 . S
U1166 O1168 2.458 . S
U1166 C1169 2.984 . S
U1166 C1170 2.847 . S
U1166 C1183 2.882 . S
U1166 O1184 2.441 . S
U1166 O1185 2.420 . S
U1166 O1186 2.455 . S
U1166 O1187 2.449 . S
O1167 U1166 2.454 . S
O1167 C1169 1.353 . S
O1168 U1166 2.458 . S
O1168 C1169 1.286 . S
C1169 U1166 2.984 . S
C1169 O1167 1.353 . S
C1169 O1168 1.286 . S
C1169 C1171 1.363 . S
C1170 C1160 1.465 . S
C1170 U1166 2.847 . S
C1170 O1184 1.249 . S
C1170 O1185 1.202 . S
C1171 C1169 1.363 . S
C1171 C1173 1.408 . S
C1171 C1176 1.342 . S
C1172 C1173 1.310 . S
C1172 C1175 1.461 . S
C1172 H1192 0.932 . S
C1173 C1171 1.408 . S
C1173 C1172 1.310 . S
C1173 H1193 0.930 . S
C1174 C1175 1.474 . S
C1174 C1176 1.285 . S
C1174 H1194 0.929 1_655 S
C1175 C1172 1.461 . S
C1175 C1174 1.474 . S
C1176 C1171 1.342 . S
C1176 C1174 1.285 . S
C1176 H1195 0.930 . S
C1177 C1180 1.424 . S
C1177 C1182 1.245 . S
C1177 C1183 1.428 . S
C1178 C1181 1.260 . S
C1178 C1182 1.477 . S
C1178 H1196 0.932 . S
C1179 C1180 1.384 . S
C1179 C1181 1.479 . S
C1179 H1197 0.929 . S
C1180 C1177 1.424 . S
C1180 C1179 1.384 . S
C1180 H1198 0.928 . S
C1181 C1178 1.260 . S
C1181 C1179 1.479 . S
C1182 C1177 1.245 . S
C1182 C1178 1.477 . S
C1182 H1199 0.932 . S
C1183 U1166 2.882 . S
C1183 C1177 1.428 . S
C1183 O1186 1.301 . S
C1183 O1187 1.282 . S
O1184 U1166 2.441 . S
O1184 C1170 1.249 . S
O1185 U1166 2.420 . S
O1185 C1170 1.202 . S
O1186 U1166 2.455 . S
O1186 C1183 1.301 . S
O1187 U1166 2.449 . S
O1187 C1183 1.282 . S
H1188 C1161 0.931 . S
H1189 C1163 0.929 . S
H1190 C1164 0.930 . S
H1191 C1165 0.931 . S
H1192 C1172 0.932 . S
H1193 C1173 0.930 . S
H1194 C1174 0.929 1_455 S
H1195 C1176 0.930 . S
H1196 C1178 0.932 . S
H1197 C1179 0.929 . S
H1198 C1180 0.928 . S
H1199 C1182 0.932 . S
C1200 C1201 1.264 . S
C1200 C1205 1.479 . S
C1200 C1210 1.465 . S
C1201 C1200 1.264 . S
C1201 C1203 1.339 . S
C1201 H1228 0.931 . S
C1202 C1203 1.395 . S
C1202 C1204 1.320 . S
C1203 C1201 1.339 . S
C1203 C1202 1.395 . S
C1203 H1229 0.929 . S
C1204 C1202 1.320 . S
C1204 C1205 1.405 . S
C1204 H1230 0.930 . S
C1205 C1200 1.479 . S
C1205 C1204 1.405 . S
C1205 H1231 0.931 . S
U1206 O1207 2.454 . S
U1206 O1208 2.458 . S
U1206 C1209 2.984 . S
U1206 C1210 2.847 . S
U1206 C1223 2.882 . S
U1206 O1224 2.441 . S
U1206 O1225 2.420 . S
U1206 O1226 2.455 . S
U1206 O1227 2.449 . S
O1207 U1206 2.454 . S
O1207 C1209 1.353 . S
O1208 U1206 2.458 . S
O1208 C1209 1.286 . S
C1209 U1206 2.984 . S
C1209 O1207 1.353 . S
C1209 O1208 1.286 . S
C1209 C1211 1.363 . S
C1210 C1200 1.465 . S
C1210 U1206 2.847 . S
C1210 O1224 1.249 . S
C1210 O1225 1.202 . S
C1211 C1209 1.363 . S
C1211 C1213 1.408 . S
C1211 C1216 1.342 . S
C1212 C1213 1.310 . S
C1212 C1215 1.461 . S
C1212 H1232 0.932 . S
C1213 C1211 1.408 . S
C1213 C1212 1.310 . S
C1213 H1233 0.930 . S
C1214 C1215 1.474 . S
C1214 C1216 1.285 . S
C1214 H1234 0.929 . S
C1215 C1212 1.461 . S
C1215 C1214 1.474 . S
C1216 C1211 1.342 . S
C1216 C1214 1.285 . S
C1216 H1235 0.930 . S
C1217 C1220 1.424 . S
C1217 C1222 1.245 . S
C1217 C1223 1.428 . S
C1218 C1221 1.260 . S
C1218 C1222 1.477 . S
C1218 H1236 0.932 . S
C1219 C1220 1.384 . S
C1219 C1221 1.479 . S
C1219 H1237 0.929 . S
C1220 C1217 1.424 . S
C1220 C1219 1.384 . S
C1220 H1238 0.928 . S
C1221 C1218 1.260 . S
C1221 C1219 1.479 . S
C1222 C1217 1.245 . S
C1222 C1218 1.477 . S
C1222 H1239 0.932 . S
C1223 U1206 2.882 . S
C1223 C1217 1.428 . S
C1223 O1226 1.301 . S
C1223 O1227 1.282 . S
O1224 U1206 2.441 . S
O1224 C1210 1.249 . S
O1225 U1206 2.420 . S
O1225 C1210 1.202 . S
O1226 U1206 2.455 . S
O1226 C1223 1.301 . S
O1227 U1206 2.449 . S
O1227 C1223 1.282 . S
H1228 C1201 0.931 . S
H1229 C1203 0.929 . S
H1230 C1204 0.930 . S
H1231 C1205 0.931 . S
H1232 C1212 0.932 . S
H1233 C1213 0.930 . S
H1234 C1214 0.929 . S
H1235 C1216 0.930 . S
H1236 C1218 0.932 . S
H1237 C1219 0.929 . S
H1238 C1220 0.928 . S
H1239 C1222 0.932 . S
C1240 C1241 1.264 . S
C1240 C1245 1.479 . S
C1240 C1250 1.465 . S
C1241 C1240 1.264 . S
C1241 C1243 1.339 . S
C1241 H1268 0.931 . S
C1242 C1243 1.395 . S
C1242 C1244 1.320 . S
C1243 C1241 1.339 . S
C1243 C1242 1.395 . S
C1243 H1269 0.929 . S
C1244 C1242 1.320 . S
C1244 C1245 1.405 . S
C1244 H1270 0.930 . S
C1245 C1240 1.479 . S
C1245 C1244 1.405 . S
C1245 H1271 0.931 . S
U1246 O1247 2.454 . S
U1246 O1248 2.458 . S
U1246 C1249 2.984 . S
U1246 C1250 2.847 . S
U1246 C1263 2.882 . S
U1246 O1264 2.441 . S
U1246 O1265 2.420 . S
U1246 O1266 2.455 . S
U1246 O1267 2.449 . S
O1247 U1246 2.454 . S
O1247 C1249 1.353 . S
O1248 U1246 2.458 . S
O1248 C1249 1.286 . S
C1249 U1246 2.984 . S
C1249 O1247 1.353 . S
C1249 O1248 1.286 . S
C1249 C1251 1.363 . S
C1250 C1240 1.465 . S
C1250 U1246 2.847 . S
C1250 O1264 1.249 . S
C1250 O1265 1.202 . S
C1251 C1249 1.363 . S
C1251 C1253 1.408 . S
C1251 C1256 1.342 . S
C1252 C1253 1.310 . S
C1252 C1255 1.461 . S
C1252 H1272 0.932 . S
C1253 C1251 1.408 . S
C1253 C1252 1.310 . S
C1253 H1273 0.930 . S
C1254 C1255 1.474 . S
C1254 C1256 1.285 . S
C1254 H1274 0.929 . S
C1255 C1252 1.461 . S
C1255 C1254 1.474 . S
C1256 C1251 1.342 . S
C1256 C1254 1.285 . S
C1256 H1275 0.930 . S
C1257 C1260 1.424 . S
C1257 C1262 1.245 . S
C1257 C1263 1.428 . S
C1258 C1261 1.260 . S
C1258 C1262 1.477 . S
C1258 H1276 0.932 . S
C1259 C1260 1.384 . S
C1259 C1261 1.479 . S
C1259 H1277 0.929 . S
C1260 C1257 1.424 . S
C1260 C1259 1.384 . S
C1260 H1278 0.928 . S
C1261 C1258 1.260 . S
C1261 C1259 1.479 . S
C1262 C1257 1.245 . S
C1262 C1258 1.477 . S
C1262 H1279 0.932 . S
C1263 U1246 2.882 . S
C1263 C1257 1.428 . S
C1263 O1266 1.301 . S
C1263 O1267 1.282 . S
O1264 U1246 2.441 . S
O1264 C1250 1.249 . S
O1265 U1246 2.420 . S
O1265 C1250 1.202 . S
O1266 U1246 2.455 . S
O1266 C1263 1.301 . S
O1267 U1246 2.449 . S
O1267 C1263 1.282 . S
H1268 C1241 0.931 . S
H1269 C1243 0.929 . S
H1270 C1244 0.930 . S
H1271 C1245 0.931 . S
H1272 C1252 0.932 . S
H1273 C1253 0.930 . S
H1274 C1254 0.929 . S
H1275 C1256 0.930 . S
H1276 C1258 0.932 . S
H1277 C1259 0.929 . S
H1278 C1260 0.928 . S
H1279 C1262 0.932 . S
C1280 C1281 1.349 . S
C1280 C1282 1.327 . S
C1280 H1305 0.950 . S
C1281 C1280 1.349 . S
C1281 C1297 1.349 . S
C1282 C1280 1.327 . S
C1282 C1301 1.429 . S
C1282 H1306 0.950 . S
C1283 C1300 1.574 . S
C1283 C1302 1.368 . S
C1283 H1307 0.949 . S
H1284 C1288 0.949 . S
C1285 C1286 1.349 . S
C1285 C1287 1.327 . S
C1285 H1308 0.950 . S
C1286 C1285 1.349 . S
C1286 C1298 1.349 . S
C1287 C1285 1.327 . S
C1287 C1303 1.429 . S
C1287 H1309 0.950 . S
C1288 H1284 0.949 . S
C1288 C1296 1.574 . S
C1288 C1304 1.368 . S
H1289 C1297 0.950 . S
H1290 C1295 0.950 . S
H1291 C1296 0.949 . S
H1292 C1298 0.950 . S
H1293 C1299 0.950 . S
H1294 C1300 0.949 . S
C1295 H1290 0.950 . S
C1295 C1297 1.327 . S
C1295 C1301 1.429 . S
C1296 C1288 1.574 . S
C1296 H1291 0.949 . S
C1296 C1302 1.368 . S
C1297 C1281 1.349 . S
C1297 H1289 0.950 . S
C1297 C1295 1.327 . S
C1298 C1286 1.349 . S
C1298 H1292 0.950 . S
C1298 C1299 1.327 . S
C1299 H1293 0.950 . S
C1299 C1298 1.327 . S
C1299 C1303 1.429 . S
C1300 C1283 1.574 . S
C1300 H1294 0.949 . S
C1300 C1304 1.368 . S
C1301 C1282 1.429 . S
C1301 C1295 1.429 . S
C1301 C1302 1.523 . S
C1302 C1283 1.368 . S
C1302 C1296 1.368 . S
C1302 C1301 1.523 . S
C1303 C1287 1.429 . S
C1303 C1299 1.429 . S
C1303 C1304 1.523 . S
C1304 C1288 1.368 . S
C1304 C1300 1.368 . S
C1304 C1303 1.523 . S
H1305 C1280 0.950 . S
H1306 C1282 0.950 . S
H1307 C1283 0.949 . S
H1308 C1285 0.950 . S
H1309 C1287 0.950 . S
C1310 C1311 1.338 1_455 S
C1310 C1312 1.327 . S
C1310 H1335 0.950 . S
C1311 C1310 1.338 1_655 S
C1311 C1327 1.360 . S
C1312 C1310 1.327 . S
C1312 C1331 1.425 1_455 S
C1312 H1336 0.950 . S
C1313 C1330 1.574 . S
C1313 C1332 1.368 1_545 S
C1313 H1337 0.949 . S
H1314 C1318 0.949 . S
C1315 C1316 1.338 1_655 S
C1315 C1317 1.327 . S
C1315 H1338 0.950 . S
C1316 C1315 1.338 1_455 S
C1316 C1328 1.360 . S
C1317 C1315 1.327 . S
C1317 C1333 1.425 1_655 S
C1317 H1339 0.950 . S
C1318 H1314 0.949 . S
C1318 C1326 1.574 . S
C1318 C1334 1.368 1_565 S
H1319 C1327 0.950 . S
H1320 C1325 0.950 . S
H1321 C1326 0.949 . S
H1322 C1328 0.950 . S
H1323 C1329 0.950 . S
H1324 C1330 0.949 . S
C1325 H1320 0.950 . S
C1325 C1327 1.327 . S
C1325 C1331 1.432 . S
C1326 C1318 1.574 . S
C1326 H1321 0.949 . S
C1326 C1332 1.369 1_455 S
C1327 C1311 1.360 . S
C1327 H1319 0.950 . S
C1327 C1325 1.327 . S
C1328 C1316 1.360 . S
C1328 H1322 0.950 . S
C1328 C1329 1.327 . S
C1329 H1323 0.950 . S
C1329 C1328 1.327 . S
C1329 C1333 1.432 . S
C1330 C1313 1.574 . S
C1330 H1324 0.949 . S
C1330 C1334 1.369 1_655 S
C1331 C1312 1.425 1_655 S
C1331 C1325 1.432 . S
C1331 C1332 1.523 . S
C1332 C1313 1.368 1_565 S
C1332 C1326 1.369 1_655 S
C1332 C1331 1.523 . S
C1333 C1317 1.425 1_455 S
C1333 C1329 1.432 . S
C1333 C1334 1.523 . S
C1334 C1318 1.368 1_545 S
C1334 C1330 1.369 1_455 S
C1334 C1333 1.523 . S
H1335 C1310 0.950 . S
H1336 C1312 0.950 . S
H1337 C1313 0.949 . S
H1338 C1315 0.950 . S
H1339 C1317 0.950 . S
C1340 C1341 1.349 . S
C1340 C1342 1.327 . S
C1340 H1365 0.950 . S
C1341 C1340 1.349 . S
C1341 C1357 1.349 . S
C1342 C1340 1.327 . S
C1342 C1361 1.429 . S
C1342 H1366 0.950 . S
C1343 C1360 1.574 . S
C1343 C1362 1.368 . S
C1343 H1367 0.949 . S
H1344 C1348 0.949 . S
C1345 C1346 1.349 . S
C1345 C1347 1.327 . S
C1345 H1368 0.950 . S
C1346 C1345 1.349 . S
C1346 C1358 1.349 . S
C1347 C1345 1.327 . S
C1347 C1363 1.429 . S
C1347 H1369 0.950 . S
C1348 H1344 0.949 . S
C1348 C1356 1.574 . S
C1348 C1364 1.368 . S
H1349 C1357 0.950 . S
H1350 C1355 0.950 . S
H1351 C1356 0.949 . S
H1352 C1358 0.950 . S
H1353 C1359 0.950 . S
H1354 C1360 0.949 . S
C1355 H1350 0.950 . S
C1355 C1357 1.327 . S
C1355 C1361 1.429 . S
C1356 C1348 1.574 . S
C1356 H1351 0.949 . S
C1356 C1362 1.368 . S
C1357 C1341 1.349 . S
C1357 H1349 0.950 . S
C1357 C1355 1.327 . S
C1358 C1346 1.349 . S
C1358 H1352 0.950 . S
C1358 C1359 1.327 . S
C1359 H1353 0.950 . S
C1359 C1358 1.327 . S
C1359 C1363 1.429 . S
C1360 C1343 1.574 . S
C1360 H1354 0.949 . S
C1360 C1364 1.368 . S
C1361 C1342 1.429 . S
C1361 C1355 1.429 . S
C1361 C1362 1.523 . S
C1362 C1343 1.368 . S
C1362 C1356 1.368 . S
C1362 C1361 1.523 . S
C1363 C1347 1.429 . S
C1363 C1359 1.429 . S
C1363 C1364 1.523 . S
C1364 C1348 1.368 . S
C1364 C1360 1.368 . S
C1364 C1363 1.523 . S
H1365 C1340 0.950 . S
H1366 C1342 0.950 . S
H1367 C1343 0.949 . S
H1368 C1345 0.950 . S
H1369 C1347 0.950 . S
C1370 C1371 1.349 . S
C1370 C1372 1.327 . S
C1370 H1395 0.950 . S
C1371 C1370 1.349 . S
C1371 C1387 1.349 . S
C1372 C1370 1.327 . S
C1372 C1391 1.429 . S
C1372 H1396 0.950 . S
C1373 C1390 1.574 1_556 S
C1373 C1392 1.368 1_565 S
C1373 H1397 0.949 . S
H1374 C1378 0.949 . S
C1375 C1376 1.349 . S
C1375 C1377 1.327 . S
C1375 H1398 0.950 . S
C1376 C1375 1.349 . S
C1376 C1388 1.349 . S
C1377 C1375 1.327 . S
C1377 C1393 1.429 . S
C1377 H1399 0.950 . S
C1378 H1374 0.949 . S
C1378 C1386 1.574 1_554 S
C1378 C1394 1.368 1_545 S
H1379 C1387 0.950 . S
H1380 C1385 0.950 . S
H1381 C1386 0.949 . S
H1382 C1388 0.950 . S
H1383 C1389 0.950 . S
H1384 C1390 0.949 . S
C1385 H1380 0.950 . S
C1385 C1387 1.327 . S
C1385 C1391 1.429 . S
C1386 C1378 1.574 1_556 S
C1386 H1381 0.949 . S
C1386 C1392 1.368 . S
C1387 C1371 1.349 . S
C1387 H1379 0.950 . S
C1387 C1385 1.327 . S
C1388 C1376 1.349 . S
C1388 H1382 0.950 . S
C1388 C1389 1.327 . S
C1389 H1383 0.950 . S
C1389 C1388 1.327 . S
C1389 C1393 1.429 . S
C1390 C1373 1.574 1_554 S
C1390 H1384 0.949 . S
C1390 C1394 1.368 . S
C1391 C1372 1.429 . S
C1391 C1385 1.429 . S
C1391 C1392 1.523 . S
C1392 C1373 1.368 1_545 S
C1392 C1386 1.368 . S
C1392 C1391 1.523 . S
C1393 C1377 1.429 . S
C1393 C1389 1.429 . S
C1393 C1394 1.523 . S
C1394 C1378 1.368 1_565 S
C1394 C1390 1.368 . S
C1394 C1393 1.523 . S
H1395 C1370 0.950 . S
H1396 C1372 0.950 . S
H1397 C1373 0.949 . S
H1398 C1375 0.950 . S
H1399 C1377 0.950 . S
C1400 C1401 1.349 . S
C1400 C1402 1.327 . S
C1400 H1425 0.950 . S
C1401 C1400 1.349 . S
C1401 C1417 1.349 . S
C1402 C1400 1.327 . S
C1402 C1421 1.429 . S
C1402 H1426 0.950 . S
C1403 C1420 1.574 . S
C1403 C1422 1.368 . S
C1403 H1427 0.949 . S
H1404 C1408 0.949 . S
C1405 C1406 1.349 . S
C1405 C1407 1.327 . S
C1405 H1428 0.950 . S
C1406 C1405 1.349 . S
C1406 C1418 1.349 . S
C1407 C1405 1.327 . S
C1407 C1423 1.429 . S
C1407 H1429 0.950 . S
C1408 H1404 0.949 . S
C1408 C1416 1.574 . S
C1408 C1424 1.368 . S
H1409 C1417 0.950 . S
H1410 C1415 0.950 . S
H1411 C1416 0.949 . S
H1412 C1418 0.950 . S
H1413 C1419 0.950 . S
H1414 C1420 0.949 . S
C1415 H1410 0.950 . S
C1415 C1417 1.327 . S
C1415 C1421 1.429 . S
C1416 C1408 1.574 . S
C1416 H1411 0.949 . S
C1416 C1422 1.368 . S
C1417 C1401 1.349 . S
C1417 H1409 0.950 . S
C1417 C1415 1.327 . S
C1418 C1406 1.349 . S
C1418 H1412 0.950 . S
C1418 C1419 1.327 . S
C1419 H1413 0.950 . S
C1419 C1418 1.327 . S
C1419 C1423 1.429 . S
C1420 C1403 1.574 . S
C1420 H1414 0.949 . S
C1420 C1424 1.368 . S
C1421 C1402 1.429 . S
C1421 C1415 1.429 . S
C1421 C1422 1.523 . S
C1422 C1403 1.368 . S
C1422 C1416 1.368 . S
C1422 C1421 1.523 . S
C1423 C1407 1.429 . S
C1423 C1419 1.429 . S
C1423 C1424 1.523 . S
C1424 C1408 1.368 . S
C1424 C1420 1.368 . S
C1424 C1423 1.523 . S
H1425 C1400 0.950 . S
H1426 C1402 0.950 . S
H1427 C1403 0.949 . S
H1428 C1405 0.950 . S
H1429 C1407 0.950 . S
C1430 C1431 1.349 . S
C1430 C1432 1.327 . S
C1430 H1455 0.950 . S
C1431 C1430 1.349 . S
C1431 C1447 1.349 . S
C1432 C1430 1.327 . S
C1432 C1451 1.429 . S
C1432 H1456 0.950 . S
C1433 C1450 1.574 . S
C1433 C1452 1.368 . S
C1433 H1457 0.949 . S
H1434 C1438 0.949 . S
C1435 C1436 1.349 . S
C1435 C1437 1.327 . S
C1435 H1458 0.950 . S
C1436 C1435 1.349 . S
C1436 C1448 1.349 . S
C1437 C1435 1.327 . S
C1437 C1453 1.429 . S
C1437 H1459 0.950 . S
C1438 H1434 0.949 . S
C1438 C1446 1.574 . S
C1438 C1454 1.368 . S
H1439 C1447 0.950 . S
H1440 C1445 0.950 . S
H1441 C1446 0.949 . S
H1442 C1448 0.950 . S
H1443 C1449 0.950 . S
H1444 C1450 0.949 . S
C1445 H1440 0.950 . S
C1445 C1447 1.327 . S
C1445 C1451 1.429 . S
C1446 C1438 1.574 . S
C1446 H1441 0.949 . S
C1446 C1452 1.368 1_545 S
C1447 C1431 1.349 . S
C1447 H1439 0.950 . S
C1447 C1445 1.327 . S
C1448 C1436 1.349 . S
C1448 H1442 0.950 . S
C1448 C1449 1.327 . S
C1449 H1443 0.950 . S
C1449 C1448 1.327 . S
C1449 C1453 1.429 . S
C1450 C1433 1.574 . S
C1450 H1444 0.949 . S
C1450 C1454 1.368 1_565 S
C1451 C1432 1.429 . S
C1451 C1445 1.429 . S
C1451 C1452 1.523 . S
C1452 C1433 1.368 . S
C1452 C1446 1.368 1_565 S
C1452 C1451 1.523 . S
C1453 C1437 1.429 . S
C1453 C1449 1.429 . S
C1453 C1454 1.523 . S
C1454 C1438 1.368 . S
C1454 C1450 1.368 1_545 S
C1454 C1453 1.523 . S
H1455 C1430 0.950 . S
H1456 C1432 0.950 . S
H1457 C1433 0.949 . S
H1458 C1435 0.950 . S
H1459 C1437 0.950 . S
C1460 C1461 1.349 . S
C1460 C1462 1.327 . S
C1460 H1485 0.950 . S
C1461 C1460 1.349 . S
C1461 C1477 1.349 . S
C1462 C1460 1.327 . S
C1462 C1481 1.429 . S
C1462 H1486 0.950 . S
C1463 C1480 1.574 . S
C1463 C1482 1.368 . S
C1463 H1487 0.949 . S
H1464 C1468 0.949 . S
C1465 C1466 1.349 . S
C1465 C1467 1.327 . S
C1465 H1488 0.950 . S
C1466 C1465 1.349 . S
C1466 C1478 1.349 . S
C1467 C1465 1.327 . S
C1467 C1483 1.429 . S
C1467 H1489 0.950 . S
C1468 H1464 0.949 . S
C1468 C1476 1.574 . S
C1468 C1484 1.368 . S
H1469 C1477 0.950 . S
H1470 C1475 0.950 . S
H1471 C1476 0.949 . S
H1472 C1478 0.950 . S
H1473 C1479 0.950 . S
H1474 C1480 0.949 . S
C1475 H1470 0.950 . S
C1475 C1477 1.327 . S
C1475 C1481 1.429 . S
C1476 C1468 1.574 . S
C1476 H1471 0.949 . S
C1476 C1482 1.368 . S
C1477 C1461 1.349 . S
C1477 H1469 0.950 . S
C1477 C1475 1.327 . S
C1478 C1466 1.349 . S
C1478 H1472 0.950 . S
C1478 C1479 1.327 . S
C1479 H1473 0.950 . S
C1479 C1478 1.327 . S
C1479 C1483 1.429 . S
C1480 C1463 1.574 . S
C1480 H1474 0.949 . S
C1480 C1484 1.368 . S
C1481 C1462 1.429 . S
C1481 C1475 1.429 . S
C1481 C1482 1.523 . S
C1482 C1463 1.368 . S
C1482 C1476 1.368 . S
C1482 C1481 1.523 . S
C1483 C1467 1.429 . S
C1483 C1479 1.429 . S
C1483 C1484 1.523 . S
C1484 C1468 1.368 . S
C1484 C1480 1.368 . S
C1484 C1483 1.523 . S
H1485 C1460 0.950 . S
H1486 C1462 0.950 . S
H1487 C1463 0.949 . S
H1488 C1465 0.950 . S
H1489 C1467 0.950 . S
C1490 C1491 1.362 . S
C1490 C1492 1.327 . S
C1490 H1515 0.950 . S
C1491 C1490 1.362 . S
C1491 C1507 1.336 1_455 S
C1492 C1490 1.327 . S
C1492 C1511 1.433 . S
C1492 H1516 0.950 . S
C1493 C1510 1.610 . S
C1493 C1512 1.369 1_645 S
C1493 H1517 0.949 . S
H1494 C1498 0.949 . S
C1495 C1496 1.362 . S
C1495 C1497 1.327 . S
C1495 H1518 0.950 . S
C1496 C1495 1.362 . S
C1496 C1508 1.336 1_655 S
C1497 C1495 1.327 . S
C1497 C1513 1.433 . S
C1497 H1519 0.950 . S
C1498 H1494 0.949 . S
C1498 C1506 1.610 . S
C1498 C1514 1.369 1_465 S
H1499 C1507 0.950 . S
H1500 C1505 0.950 . S
H1501 C1506 0.949 . S
H1502 C1508 0.950 . S
H1503 C1509 0.950 . S
H1504 C1510 0.949 . S
C1505 H1500 0.950 . S
C1505 C1507 1.327 . S
C1505 C1511 1.424 1_655 S
C1506 C1498 1.610 . S
C1506 H1501 0.949 . S
C1506 C1512 1.332 1_554 S
C1507 C1491 1.336 1_655 S
C1507 H1499 0.950 . S
C1507 C1505 1.327 . S
C1508 C1496 1.336 1_455 S
C1508 H1502 0.950 . S
C1508 C1509 1.327 . S
C1509 H1503 0.950 . S
C1509 C1508 1.327 . S
C1509 C1513 1.424 1_455 S
C1510 C1493 1.610 . S
C1510 H1504 0.949 . S
C1510 C1514 1.332 1_556 S
C1511 C1492 1.433 . S
C1511 C1505 1.424 1_455 S
C1511 C1512 1.523 . S
C1512 C1493 1.369 1_465 S
C1512 C1506 1.332 1_556 S
C1512 C1511 1.523 . S
C1513 C1497 1.433 . S
C1513 C1509 1.424 1_655 S
C1513 C1514 1.523 . S
C1514 C1498 1.369 1_645 S
C1514 C1510 1.332 1_554 S
C1514 C1513 1.523 . S
H1515 C1490 0.950 . S
H1516 C1492 0.950 . S
H1517 C1493 0.949 . S
H1518 C1495 0.950 . S
H1519 C1497 0.950 . S
C1520 C1521 1.349 . S
C1520 C1522 1.327 . S
C1520 H1545 0.950 . S
C1521 C1520 1.349 . S
C1521 C1537 1.349 . S
C1522 C1520 1.327 . S
C1522 C1541 1.429 . S
C1522 H1546 0.950 . S
C1523 C1540 1.574 . S
C1523 C1542 1.368 . S
C1523 H1547 0.949 . S
H1524 C1528 0.949 . S
C1525 C1526 1.349 . S
C1525 C1527 1.327 . S
C1525 H1548 0.950 . S
C1526 C1525 1.349 . S
C1526 C1538 1.349 . S
C1527 C1525 1.327 . S
C1527 C1543 1.429 . S
C1527 H1549 0.950 . S
C1528 H1524 0.949 . S
C1528 C1536 1.574 . S
C1528 C1544 1.368 . S
H1529 C1537 0.950 . S
H1530 C1535 0.950 . S
H1531 C1536 0.949 . S
H1532 C1538 0.950 . S
H1533 C1539 0.950 . S
H1534 C1540 0.949 . S
C1535 H1530 0.950 . S
C1535 C1537 1.327 . S
C1535 C1541 1.429 . S
C1536 C1528 1.574 . S
C1536 H1531 0.949 . S
C1536 C1542 1.368 . S
C1537 C1521 1.349 . S
C1537 H1529 0.950 . S
C1537 C1535 1.327 . S
C1538 C1526 1.349 . S
C1538 H1532 0.950 . S
C1538 C1539 1.327 . S
C1539 H1533 0.950 . S
C1539 C1538 1.327 . S
C1539 C1543 1.429 . S
C1540 C1523 1.574 . S
C1540 H1534 0.949 . S
C1540 C1544 1.368 . S
C1541 C1522 1.429 . S
C1541 C1535 1.429 . S
C1541 C1542 1.523 . S
C1542 C1523 1.368 . S
C1542 C1536 1.368 . S
C1542 C1541 1.523 . S
C1543 C1527 1.429 . S
C1543 C1539 1.429 . S
C1543 C1544 1.523 . S
C1544 C1528 1.368 . S
C1544 C1540 1.368 . S
C1544 C1543 1.523 . S
H1545 C1520 0.950 . S
H1546 C1522 0.950 . S
H1547 C1523 0.949 . S
H1548 C1525 0.950 . S
H1549 C1527 0.950 . S
C1550 C1551 1.349 . S
C1550 C1552 1.327 . S
C1550 H1575 0.950 . S
C1551 C1550 1.349 . S
C1551 C1567 1.349 . S
C1552 C1550 1.327 . S
C1552 C1571 1.429 . S
C1552 H1576 0.950 . S
C1553 C1570 1.574 . S
C1553 C1572 1.368 . S
C1553 H1577 0.949 . S
H1554 C1558 0.949 . S
C1555 C1556 1.349 . S
C1555 C1557 1.327 . S
C1555 H1578 0.950 . S
C1556 C1555 1.349 . S
C1556 C1568 1.349 . S
C1557 C1555 1.327 . S
C1557 C1573 1.429 . S
C1557 H1579 0.950 . S
C1558 H1554 0.949 . S
C1558 C1566 1.574 . S
C1558 C1574 1.368 . S
H1559 C1567 0.950 . S
H1560 C1565 0.950 . S
H1561 C1566 0.949 . S
H1562 C1568 0.950 . S
H1563 C1569 0.950 . S
H1564 C1570 0.949 . S
C1565 H1560 0.950 . S
C1565 C1567 1.327 . S
C1565 C1571 1.429 . S
C1566 C1558 1.574 . S
C1566 H1561 0.949 . S
C1566 C1572 1.368 . S
C1567 C1551 1.349 . S
C1567 H1559 0.950 . S
C1567 C1565 1.327 . S
C1568 C1556 1.349 . S
C1568 H1562 0.950 . S
C1568 C1569 1.327 . S
C1569 H1563 0.950 . S
C1569 C1568 1.327 . S
C1569 C1573 1.429 . S
C1570 C1553 1.574 . S
C1570 H1564 0.949 . S
C1570 C1574 1.368 . S
C1571 C1552 1.429 . S
C1571 C1565 1.429 . S
C1571 C1572 1.523 . S
C1572 C1553 1.368 . S
C1572 C1566 1.368 . S
C1572 C1571 1.523 . S
C1573 C1557 1.429 . S
C1573 C1569 1.429 . S
C1573 C1574 1.523 . S
C1574 C1558 1.368 . S
C1574 C1570 1.368 . S
C1574 C1573 1.523 . S
H1575 C1550 0.950 . S
H1576 C1552 0.950 . S
H1577 C1553 0.949 . S
H1578 C1555 0.950 . S
H1579 C1557 0.950 . S
C1580 C1581 1.349 . S
C1580 C1582 1.327 . S
C1580 H1605 0.950 . S
C1581 C1580 1.349 . S
C1581 C1597 1.349 . S
C1582 C1580 1.327 . S
C1582 C1601 1.429 . S
C1582 H1606 0.950 . S
C1583 C1600 1.574 . S
C1583 C1602 1.368 . S
C1583 H1607 0.949 . S
H1584 C1588 0.949 . S
C1585 C1586 1.349 . S
C1585 C1587 1.327 . S
C1585 H1608 0.950 . S
C1586 C1585 1.349 . S
C1586 C1598 1.349 . S
C1587 C1585 1.327 . S
C1587 C1603 1.429 . S
C1587 H1609 0.950 . S
C1588 H1584 0.949 . S
C1588 C1596 1.574 . S
C1588 C1604 1.368 . S
H1589 C1597 0.950 . S
H1590 C1595 0.950 . S
H1591 C1596 0.949 . S
H1592 C1598 0.950 . S
H1593 C1599 0.950 . S
H1594 C1600 0.949 . S
C1595 H1590 0.950 . S
C1595 C1597 1.327 . S
C1595 C1601 1.429 . S
C1596 C1588 1.574 . S
C1596 H1591 0.949 . S
C1596 C1602 1.368 . S
C1597 C1581 1.349 . S
C1597 H1589 0.950 . S
C1597 C1595 1.327 . S
C1598 C1586 1.349 . S
C1598 H1592 0.950 . S
C1598 C1599 1.327 . S
C1599 H1593 0.950 . S
C1599 C1598 1.327 . S
C1599 C1603 1.429 . S
C1600 C1583 1.574 . S
C1600 H1594 0.949 . S
C1600 C1604 1.368 . S
C1601 C1582 1.429 . S
C1601 C1595 1.429 . S
C1601 C1602 1.523 . S
C1602 C1583 1.368 . S
C1602 C1596 1.368 . S
C1602 C1601 1.523 . S
C1603 C1587 1.429 . S
C1603 C1599 1.429 . S
C1603 C1604 1.523 . S
C1604 C1588 1.368 . S
C1604 C1600 1.368 . S
C1604 C1603 1.523 . S
H1605 C1580 0.950 . S
H1606 C1582 0.950 . S
H1607 C1583 0.949 . S
H1608 C1585 0.950 . S
H1609 C1587 0.950 . S
C1610 C1611 1.349 . S
C1610 C1612 1.327 . S
C1610 H1635 0.950 . S
C1611 C1610 1.349 . S
C1611 C1627 1.349 . S
C1612 C1610 1.327 . S
C1612 C1631 1.429 . S
C1612 H1636 0.950 . S
C1613 C1630 1.574 . S
C1613 C1632 1.368 . S
C1613 H1637 0.949 . S
H1614 C1618 0.949 . S
C1615 C1616 1.349 . S
C1615 C1617 1.327 . S
C1615 H1638 0.950 . S
C1616 C1615 1.349 . S
C1616 C1628 1.349 . S
C1617 C1615 1.327 . S
C1617 C1633 1.429 . S
C1617 H1639 0.950 . S
C1618 H1614 0.949 . S
C1618 C1626 1.574 . S
C1618 C1634 1.368 . S
H1619 C1627 0.950 . S
H1620 C1625 0.950 . S
H1621 C1626 0.949 . S
H1622 C1628 0.950 . S
H1623 C1629 0.950 . S
H1624 C1630 0.949 . S
C1625 H1620 0.950 . S
C1625 C1627 1.327 . S
C1625 C1631 1.429 . S
C1626 C1618 1.574 . S
C1626 H1621 0.949 . S
C1626 C1632 1.368 . S
C1627 C1611 1.349 . S
C1627 H1619 0.950 . S
C1627 C1625 1.327 . S
C1628 C1616 1.349 . S
C1628 H1622 0.950 . S
C1628 C1629 1.327 . S
C1629 H1623 0.950 . S
C1629 C1628 1.327 . S
C1629 C1633 1.429 . S
C1630 C1613 1.574 . S
C1630 H1624 0.949 . S
C1630 C1634 1.368 . S
C1631 C1612 1.429 . S
C1631 C1625 1.429 . S
C1631 C1632 1.523 . S
C1632 C1613 1.368 . S
C1632 C1626 1.368 . S
C1632 C1631 1.523 . S
C1633 C1617 1.429 . S
C1633 C1629 1.429 . S
C1633 C1634 1.523 . S
C1634 C1618 1.368 . S
C1634 C1630 1.368 . S
C1634 C1633 1.523 . S
H1635 C1610 0.950 . S
H1636 C1612 0.950 . S
H1637 C1613 0.949 . S
H1638 C1615 0.950 . S
H1639 C1617 0.950 . S
C1640 C1641 1.349 . S
C1640 C1642 1.327 . S
C1640 H1665 0.950 . S
C1641 C1640 1.349 . S
C1641 C1657 1.349 . S
C1642 C1640 1.327 . S
C1642 C1661 1.429 . S
C1642 H1666 0.950 . S
C1643 C1660 1.574 . S
C1643 C1662 1.368 1_556 S
C1643 H1667 0.949 . S
H1644 C1648 0.949 . S
C1645 C1646 1.349 . S
C1645 C1647 1.327 . S
C1645 H1668 0.950 . S
C1646 C1645 1.349 . S
C1646 C1658 1.349 . S
C1647 C1645 1.327 . S
C1647 C1663 1.429 . S
C1647 H1669 0.950 . S
C1648 H1644 0.949 . S
C1648 C1656 1.574 . S
C1648 C1664 1.368 1_554 S
H1649 C1657 0.950 . S
H1650 C1655 0.950 . S
H1651 C1656 0.949 . S
H1652 C1658 0.950 . S
H1653 C1659 0.950 . S
H1654 C1660 0.949 . S
C1655 H1650 0.950 . S
C1655 C1657 1.327 . S
C1655 C1661 1.429 . S
C1656 C1648 1.574 . S
C1656 H1651 0.949 . S
C1656 C1662 1.368 . S
C1657 C1641 1.349 . S
C1657 H1649 0.950 . S
C1657 C1655 1.327 . S
C1658 C1646 1.349 . S
C1658 H1652 0.950 . S
C1658 C1659 1.327 . S
C1659 H1653 0.950 . S
C1659 C1658 1.327 . S
C1659 C1663 1.429 . S
C1660 C1643 1.574 . S
C1660 H1654 0.949 . S
C1660 C1664 1.368 . S
C1661 C1642 1.429 . S
C1661 C1655 1.429 . S
C1661 C1662 1.523 . S
C1662 C1643 1.368 1_554 S
C1662 C1656 1.368 . S
C1662 C1661 1.523 . S
C1663 C1647 1.429 . S
C1663 C1659 1.429 . S
C1663 C1664 1.523 . S
C1664 C1648 1.368 1_556 S
C1664 C1660 1.368 . S
C1664 C1663 1.523 . S
H1665 C1640 0.950 . S
H1666 C1642 0.950 . S
H1667 C1643 0.949 . S
H1668 C1645 0.950 . S
H1669 C1647 0.950 . S
C1670 C1671 1.318 1_655 S
C1670 C1672 1.327 . S
C1670 H1695 0.950 . S
C1671 C1670 1.318 1_455 S
C1671 C1687 1.379 . S
C1672 C1670 1.327 . S
C1672 C1691 1.419 1_655 S
C1672 H1696 0.950 . S
C1673 C1690 1.574 . S
C1673 C1692 1.367 . S
C1673 H1697 0.949 . S
H1674 C1678 0.949 . S
C1675 C1676 1.318 1_455 S
C1675 C1677 1.327 . S
C1675 H1698 0.950 . S
C1676 C1675 1.318 1_655 S
C1676 C1688 1.379 . S
C1677 C1675 1.327 . S
C1677 C1693 1.419 1_455 S
C1677 H1699 0.950 . S
C1678 H1674 0.949 . S
C1678 C1686 1.574 . S
C1678 C1694 1.367 . S
H1679 C1687 0.950 . S
H1680 C1685 0.950 . S
H1681 C1686 0.949 . S
H1682 C1688 0.950 . S
H1683 C1689 0.950 . S
H1684 C1690 0.949 . S
C1685 H1680 0.950 . S
C1685 C1687 1.327 . S
C1685 C1691 1.439 . S
C1686 C1678 1.574 . S
C1686 H1681 0.949 . S
C1686 C1692 1.369 1_655 S
C1687 C1671 1.379 . S
C1687 H1679 0.950 . S
C1687 C1685 1.327 . S
C1688 C1676 1.379 . S
C1688 H1682 0.950 . S
C1688 C1689 1.327 . S
C1689 H1683 0.950 . S
C1689 C1688 1.327 . S
C1689 C1693 1.439 . S
C1690 C1673 1.574 . S
C1690 H1684 0.949 . S
C1690 C1694 1.369 1_455 S
C1691 C1672 1.419 1_455 S
C1691 C1685 1.439 . S
C1691 C1692 1.523 . S
C1692 C1673 1.367 . S
C1692 C1686 1.369 1_455 S
C1692 C1691 1.523 . S
C1693 C1677 1.419 1_655 S
C1693 C1689 1.439 . S
C1693 C1694 1.523 . S
C1694 C1678 1.367 . S
C1694 C1690 1.369 1_655 S
C1694 C1693 1.523 . S
H1695 C1670 0.950 . S
H1696 C1672 0.950 . S
H1697 C1673 0.949 . S
H1698 C1675 0.950 . S
H1699 C1677 0.950 . S
C1700 C1701 1.327 1_455 S
C1700 C1702 1.327 . S
C1700 H1725 0.950 . S
C1701 C1700 1.327 1_655 S
C1701 C1717 1.371 . S
C1702 C1700 1.327 . S
C1702 C1721 1.422 1_455 S
C1702 H1726 0.950 . S
C1703 C1720 1.511 1_556 S
C1703 C1722 1.425 . S
C1703 H1727 0.959 . S
H1704 C1708 0.959 . S
C1705 C1706 1.327 1_655 S
C1705 C1707 1.327 . S
C1705 H1728 0.950 . S
C1706 C1705 1.327 1_455 S
C1706 C1718 1.371 . S
C1707 C1705 1.327 . S
C1707 C1723 1.422 1_655 S
C1707 H1729 0.950 . S
C1708 H1704 0.959 . S
C1708 C1716 1.511 1_554 S
C1708 C1724 1.425 . S
H1709 C1717 0.950 . S
H1710 C1715 0.950 . S
H1711 C1716 0.949 . S
H1712 C1718 0.950 . S
H1713 C1719 0.950 . S
H1714 C1720 0.949 . S
C1715 H1710 0.950 . S
C1715 C1717 1.327 . S
C1715 C1721 1.436 . S
C1716 C1708 1.511 1_556 S
C1716 H1711 0.949 . S
C1716 C1722 1.369 1_455 S
C1717 C1701 1.371 . S
C1717 H1709 0.950 . S
C1717 C1715 1.327 . S
C1718 C1706 1.371 . S
C1718 H1712 0.950 . S
C1718 C1719 1.327 . S
C1719 H1713 0.950 . S
C1719 C1718 1.327 . S
C1719 C1723 1.436 . S
C1720 C1703 1.511 1_554 S
C1720 H1714 0.949 . S
C1720 C1724 1.369 1_655 S
C1721 C1702 1.422 1_655 S
C1721 C1715 1.436 . S
C1721 C1722 1.523 . S
C1722 C1703 1.425 . S
C1722 C1716 1.369 1_655 S
C1722 C1721 1.523 . S
C1723 C1707 1.422 1_455 S
C1723 C1719 1.436 . S
C1723 C1724 1.523 . S
C1724 C1708 1.425 . S
C1724 C1720 1.369 1_455 S
C1724 C1723 1.523 . S
H1725 C1700 0.950 . S
H1726 C1702 0.950 . S
H1727 C1703 0.959 . S
H1728 C1705 0.950 . S
H1729 C1707 0.950 . S
C1730 C1731 1.349 . S
C1730 C1732 1.327 . S
C1730 H1755 0.950 . S
C1731 C1730 1.349 . S
C1731 C1747 1.349 . S
C1732 C1730 1.327 . S
C1732 C1751 1.429 . S
C1732 H1756 0.950 . S
C1733 C1750 1.574 . S
C1733 C1752 1.368 . S
C1733 H1757 0.949 . S
H1734 C1738 0.949 . S
C1735 C1736 1.349 . S
C1735 C1737 1.327 . S
C1735 H1758 0.950 . S
C1736 C1735 1.349 . S
C1736 C1748 1.349 . S
C1737 C1735 1.327 . S
C1737 C1753 1.429 . S
C1737 H1759 0.950 . S
C1738 H1734 0.949 . S
C1738 C1746 1.574 . S
C1738 C1754 1.368 . S
H1739 C1747 0.950 . S
H1740 C1745 0.950 . S
H1741 C1746 0.949 . S
H1742 C1748 0.950 . S
H1743 C1749 0.950 . S
H1744 C1750 0.949 . S
C1745 H1740 0.950 . S
C1745 C1747 1.327 . S
C1745 C1751 1.429 . S
C1746 C1738 1.574 . S
C1746 H1741 0.949 . S
C1746 C1752 1.368 . S
C1747 C1731 1.349 . S
C1747 H1739 0.950 . S
C1747 C1745 1.327 . S
C1748 C1736 1.349 . S
C1748 H1742 0.950 . S
C1748 C1749 1.327 . S
C1749 H1743 0.950 . S
C1749 C1748 1.327 . S
C1749 C1753 1.429 . S
C1750 C1733 1.574 . S
C1750 H1744 0.949 . S
C1750 C1754 1.368 . S
C1751 C1732 1.429 . S
C1751 C1745 1.429 . S
C1751 C1752 1.523 . S
C1752 C1733 1.368 . S
C1752 C1746 1.368 . S
C1752 C1751 1.523 . S
C1753 C1737 1.429 . S
C1753 C1749 1.429 . S
C1753 C1754 1.523 . S
C1754 C1738 1.368 . S
C1754 C1750 1.368 . S
C1754 C1753 1.523 . S
H1755 C1730 0.950 . S
H1756 C1732 0.950 . S
H1757 C1733 0.949 . S
H1758 C1735 0.950 . S
H1759 C1737 0.950 . S
C1760 C1761 1.349 . S
C1760 C1762 1.327 . S
C1760 H1785 0.950 . S
C1761 C1760 1.349 . S
C1761 C1777 1.349 . S
C1762 C1760 1.327 . S
C1762 C1781 1.429 . S
C1762 H1786 0.950 . S
C1763 C1780 1.574 . S
C1763 C1782 1.368 . S
C1763 H1787 0.949 . S
H1764 C1768 0.949 . S
C1765 C1766 1.349 . S
C1765 C1767 1.327 . S
C1765 H1788 0.950 . S
C1766 C1765 1.349 . S
C1766 C1778 1.349 . S
C1767 C1765 1.327 . S
C1767 C1783 1.429 . S
C1767 H1789 0.950 . S
C1768 H1764 0.949 . S
C1768 C1776 1.574 . S
C1768 C1784 1.368 . S
H1769 C1777 0.950 . S
H1770 C1775 0.950 . S
H1771 C1776 0.949 . S
H1772 C1778 0.950 . S
H1773 C1779 0.950 . S
H1774 C1780 0.949 . S
C1775 H1770 0.950 . S
C1775 C1777 1.327 . S
C1775 C1781 1.429 . S
C1776 C1768 1.574 . S
C1776 H1771 0.949 . S
C1776 C1782 1.368 . S
C1777 C1761 1.349 . S
C1777 H1769 0.950 . S
C1777 C1775 1.327 . S
C1778 C1766 1.349 . S
C1778 H1772 0.950 . S
C1778 C1779 1.327 . S
C1779 H1773 0.950 . S
C1779 C1778 1.327 . S
C1779 C1783 1.429 . S
C1780 C1763 1.574 . S
C1780 H1774 0.949 . S
C1780 C1784 1.368 . S
C1781 C1762 1.429 . S
C1781 C1775 1.429 . S
C1781 C1782 1.523 . S
C1782 C1763 1.368 . S
C1782 C1776 1.368 . S
C1782 C1781 1.523 . S
C1783 C1767 1.429 . S
C1783 C1779 1.429 . S
C1783 C1784 1.523 . S
C1784 C1768 1.368 . S
C1784 C1780 1.368 . S
C1784 C1783 1.523 . S
H1785 C1760 0.950 . S
H1786 C1762 0.950 . S
H1787 C1763 0.949 . S
H1788 C1765 0.950 . S
H1789 C1767 0.950 . S
C1790 C1791 1.349 . S
C1790 C1792 1.327 . S
C1790 H1815 0.950 . S
C1791 C1790 1.349 . S
C1791 C1807 1.349 . S
C1792 C1790 1.327 . S
C1792 C1811 1.429 . S
C1792 H1816 0.950 . S
C1793 C1810 1.574 . S
C1793 C1812 1.368 . S
C1793 H1817 0.949 . S
H1794 C1798 0.949 . S
C1795 C1796 1.349 . S
C1795 C1797 1.327 . S
C1795 H1818 0.950 . S
C1796 C1795 1.349 . S
C1796 C1808 1.349 . S
C1797 C1795 1.327 . S
C1797 C1813 1.429 . S
C1797 H1819 0.950 . S
C1798 H1794 0.949 . S
C1798 C1806 1.574 . S
C1798 C1814 1.368 . S
H1799 C1807 0.950 . S
H1800 C1805 0.950 . S
H1801 C1806 0.949 . S
H1802 C1808 0.950 . S
H1803 C1809 0.950 . S
H1804 C1810 0.949 . S
C1805 H1800 0.950 . S
C1805 C1807 1.327 . S
C1805 C1811 1.429 . S
C1806 C1798 1.574 . S
C1806 H1801 0.949 . S
C1806 C1812 1.368 . S
C1807 C1791 1.349 . S
C1807 H1799 0.950 . S
C1807 C1805 1.327 . S
C1808 C1796 1.349 . S
C1808 H1802 0.950 . S
C1808 C1809 1.327 . S
C1809 H1803 0.950 . S
C1809 C1808 1.327 . S
C1809 C1813 1.429 . S
C1810 C1793 1.574 . S
C1810 H1804 0.949 . S
C1810 C1814 1.368 . S
C1811 C1792 1.429 . S
C1811 C1805 1.429 . S
C1811 C1812 1.523 . S
C1812 C1793 1.368 . S
C1812 C1806 1.368 . S
C1812 C1811 1.523 . S
C1813 C1797 1.429 . S
C1813 C1809 1.429 . S
C1813 C1814 1.523 . S
C1814 C1798 1.368 . S
C1814 C1810 1.368 . S
C1814 C1813 1.523 . S
H1815 C1790 0.950 . S
H1816 C1792 0.950 . S
H1817 C1793 0.949 . S
H1818 C1795 0.950 . S
H1819 C1797 0.950 . S
C1820 C1821 1.349 . S
C1820 C1822 1.327 . S
C1820 H1845 0.950 . S
C1821 C1820 1.349 . S
C1821 C1837 1.349 . S
C1822 C1820 1.327 . S
C1822 C1841 1.429 . S
C1822 H1846 0.950 . S
C1823 C1840 1.574 . S
C1823 C1842 1.368 . S
C1823 H1847 0.949 . S
H1824 C1828 0.949 . S
C1825 C1826 1.349 . S
C1825 C1827 1.327 . S
C1825 H1848 0.950 . S
C1826 C1825 1.349 . S
C1826 C1838 1.349 . S
C1827 C1825 1.327 . S
C1827 C1843 1.429 . S
C1827 H1849 0.950 . S
C1828 H1824 0.949 . S
C1828 C1836 1.574 . S
C1828 C1844 1.368 . S
H1829 C1837 0.950 . S
H1830 C1835 0.950 . S
H1831 C1836 0.949 . S
H1832 C1838 0.950 . S
H1833 C1839 0.950 . S
H1834 C1840 0.949 . S
C1835 H1830 0.950 . S
C1835 C1837 1.327 . S
C1835 C1841 1.429 . S
C1836 C1828 1.574 . S
C1836 H1831 0.949 . S
C1836 C1842 1.368 . S
C1837 C1821 1.349 . S
C1837 H1829 0.950 . S
C1837 C1835 1.327 . S
C1838 C1826 1.349 . S
C1838 H1832 0.950 . S
C1838 C1839 1.327 . S
C1839 H1833 0.950 . S
C1839 C1838 1.327 . S
C1839 C1843 1.429 . S
C1840 C1823 1.574 . S
C1840 H1834 0.949 . S
C1840 C1844 1.368 . S
C1841 C1822 1.429 . S
C1841 C1835 1.429 . S
C1841 C1842 1.523 . S
C1842 C1823 1.368 . S
C1842 C1836 1.368 . S
C1842 C1841 1.523 . S
C1843 C1827 1.429 . S
C1843 C1839 1.429 . S
C1843 C1844 1.523 . S
C1844 C1828 1.368 . S
C1844 C1840 1.368 . S
C1844 C1843 1.523 . S
H1845 C1820 0.950 . S
H1846 C1822 0.950 . S
H1847 C1823 0.949 . S
H1848 C1825 0.950 . S
H1849 C1827 0.950 . S
C1850 C1851 1.349 . S
C1850 C1852 1.327 . S
C1850 H1875 0.950 . S
C1851 C1850 1.349 . S
C1851 C1867 1.349 . S
C1852 C1850 1.327 . S
C1852 C1871 1.429 . S
C1852 H1876 0.950 . S
C1853 C1870 1.574 . S
C1853 C1872 1.368 . S
C1853 H1877 0.949 . S
H1854 C1858 0.949 . S
C1855 C1856 1.349 . S
C1855 C1857 1.327 . S
C1855 H1878 0.950 . S
C1856 C1855 1.349 . S
C1856 C1868 1.349 . S
C1857 C1855 1.327 . S
C1857 C1873 1.429 . S
C1857 H1879 0.950 . S
C1858 H1854 0.949 . S
C1858 C1866 1.574 . S
C1858 C1874 1.368 . S
H1859 C1867 0.950 . S
H1860 C1865 0.950 . S
H1861 C1866 0.949 . S
H1862 C1868 0.950 . S
H1863 C1869 0.950 . S
H1864 C1870 0.949 . S
C1865 H1860 0.950 . S
C1865 C1867 1.327 . S
C1865 C1871 1.429 . S
C1866 C1858 1.574 . S
C1866 H1861 0.949 . S
C1866 C1872 1.368 . S
C1867 C1851 1.349 . S
C1867 H1859 0.950 . S
C1867 C1865 1.327 . S
C1868 C1856 1.349 . S
C1868 H1862 0.950 . S
C1868 C1869 1.327 . S
C1869 H1863 0.950 . S
C1869 C1868 1.327 . S
C1869 C1873 1.429 . S
C1870 C1853 1.574 . S
C1870 H1864 0.949 . S
C1870 C1874 1.368 . S
C1871 C1852 1.429 . S
C1871 C1865 1.429 . S
C1871 C1872 1.523 . S
C1872 C1853 1.368 . S
C1872 C1866 1.368 . S
C1872 C1871 1.523 . S
C1873 C1857 1.429 . S
C1873 C1869 1.429 . S
C1873 C1874 1.523 . S
C1874 C1858 1.368 . S
C1874 C1870 1.368 . S
C1874 C1873 1.523 . S
H1875 C1850 0.950 . S
H1876 C1852 0.950 . S
H1877 C1853 0.949 . S
H1878 C1855 0.950 . S
H1879 C1857 0.950 . S
C1880 C1881 1.349 . S
C1880 C1882 1.327 . S
C1880 H1905 0.950 . S
C1881 C1880 1.349 . S
C1881 C1897 1.349 . S
C1882 C1880 1.327 . S
C1882 C1901 1.429 . S
C1882 H1906 0.950 . S
C1883 C1900 1.574 . S
C1883 C1902 1.368 . S
C1883 H1907 0.949 . S
H1884 C1888 0.949 . S
C1885 C1886 1.349 . S
C1885 C1887 1.327 . S
C1885 H1908 0.950 . S
C1886 C1885 1.349 . S
C1886 C1898 1.349 . S
C1887 C1885 1.327 . S
C1887 C1903 1.429 . S
C1887 H1909 0.950 . S
C1888 H1884 0.949 . S
C1888 C1896 1.574 . S
C1888 C1904 1.368 . S
H1889 C1897 0.950 . S
H1890 C1895 0.950 . S
H1891 C1896 0.949 . S
H1892 C1898 0.950 . S
H1893 C1899 0.950 . S
H1894 C1900 0.949 . S
C1895 H1890 0.950 . S
C1895 C1897 1.327 . S
C1895 C1901 1.429 . S
C1896 C1888 1.574 . S
C1896 H1891 0.949 . S
C1896 C1902 1.368 . S
C1897 C1881 1.349 . S
C1897 H1889 0.950 . S
C1897 C1895 1.327 . S
C1898 C1886 1.349 . S
C1898 H1892 0.950 . S
C1898 C1899 1.327 . S
C1899 H1893 0.950 . S
C1899 C1898 1.327 . S
C1899 C1903 1.429 . S
C1900 C1883 1.574 . S
C1900 H1894 0.949 . S
C1900 C1904 1.368 . S
C1901 C1882 1.429 . S
C1901 C1895 1.429 . S
C1901 C1902 1.523 . S
C1902 C1883 1.368 . S
C1902 C1896 1.368 . S
C1902 C1901 1.523 . S
C1903 C1887 1.429 . S
C1903 C1899 1.429 . S
C1903 C1904 1.523 . S
C1904 C1888 1.368 . S
C1904 C1900 1.368 . S
C1904 C1903 1.523 . S
H1905 C1880 0.950 . S
H1906 C1882 0.950 . S
H1907 C1883 0.949 . S
H1908 C1885 0.950 . S
H1909 C1887 0.950 . S
C1910 C1911 1.349 . S
C1910 C1912 1.327 . S
C1910 H1935 0.950 . S
C1911 C1910 1.349 . S
C1911 C1927 1.349 . S
C1912 C1910 1.327 . S
C1912 C1931 1.429 . S
C1912 H1936 0.950 . S
C1913 C1930 1.574 . S
C1913 C1932 1.368 . S
C1913 H1937 0.949 . S
H1914 C1918 0.949 . S
C1915 C1916 1.349 . S
C1915 C1917 1.327 . S
C1915 H1938 0.950 . S
C1916 C1915 1.349 . S
C1916 C1928 1.349 . S
C1917 C1915 1.327 . S
C1917 C1933 1.429 . S
C1917 H1939 0.950 . S
C1918 H1914 0.949 . S
C1918 C1926 1.574 . S
C1918 C1934 1.368 . S
H1919 C1927 0.950 . S
H1920 C1925 0.950 . S
H1921 C1926 0.949 . S
H1922 C1928 0.950 . S
H1923 C1929 0.950 . S
H1924 C1930 0.949 . S
C1925 H1920 0.950 . S
C1925 C1927 1.327 . S
C1925 C1931 1.429 . S
C1926 C1918 1.574 . S
C1926 H1921 0.949 . S
C1926 C1932 1.368 . S
C1927 C1911 1.349 . S
C1927 H1919 0.950 . S
C1927 C1925 1.327 . S
C1928 C1916 1.349 . S
C1928 H1922 0.950 . S
C1928 C1929 1.327 . S
C1929 H1923 0.950 . S
C1929 C1928 1.327 . S
C1929 C1933 1.429 . S
C1930 C1913 1.574 . S
C1930 H1924 0.949 . S
C1930 C1934 1.368 . S
C1931 C1912 1.429 . S
C1931 C1925 1.429 . S
C1931 C1932 1.523 . S
C1932 C1913 1.368 . S
C1932 C1926 1.368 . S
C1932 C1931 1.523 . S
C1933 C1917 1.429 . S
C1933 C1929 1.429 . S
C1933 C1934 1.523 . S
C1934 C1918 1.368 . S
C1934 C1930 1.368 . S
C1934 C1933 1.523 . S
H1935 C1910 0.950 . S
H1936 C1912 0.950 . S
H1937 C1913 0.949 . S
H1938 C1915 0.950 . S
H1939 C1917 0.950 . S
C1940 C1941 1.349 . S
C1940 C1942 1.327 . S
C1940 H1965 0.950 . S
C1941 C1940 1.349 . S
C1941 C1957 1.349 . S
C1942 C1940 1.327 . S
C1942 C1961 1.429 . S
C1942 H1966 0.950 . S
C1943 C1960 1.574 . S
C1943 C1962 1.368 . S
C1943 H1967 0.949 . S
H1944 C1948 0.949 . S
C1945 C1946 1.349 . S
C1945 C1947 1.327 . S
C1945 H1968 0.950 . S
C1946 C1945 1.349 . S
C1946 C1958 1.349 . S
C1947 C1945 1.327 . S
C1947 C1963 1.429 . S
C1947 H1969 0.950 . S
C1948 H1944 0.949 . S
C1948 C1956 1.574 . S
C1948 C1964 1.368 . S
H1949 C1957 0.950 . S
H1950 C1955 0.950 . S
H1951 C1956 0.949 . S
H1952 C1958 0.950 . S
H1953 C1959 0.950 . S
H1954 C1960 0.949 . S
C1955 H1950 0.950 . S
C1955 C1957 1.327 . S
C1955 C1961 1.429 . S
C1956 C1948 1.574 . S
C1956 H1951 0.949 . S
C1956 C1962 1.368 . S
C1957 C1941 1.349 . S
C1957 H1949 0.950 . S
C1957 C1955 1.327 . S
C1958 C1946 1.349 . S
C1958 H1952 0.950 . S
C1958 C1959 1.327 . S
C1959 H1953 0.950 . S
C1959 C1958 1.327 . S
C1959 C1963 1.429 . S
C1960 C1943 1.574 . S
C1960 H1954 0.949 . S
C1960 C1964 1.368 . S
C1961 C1942 1.429 . S
C1961 C1955 1.429 . S
C1961 C1962 1.523 . S
C1962 C1943 1.368 . S
C1962 C1956 1.368 . S
C1962 C1961 1.523 . S
C1963 C1947 1.429 . S
C1963 C1959 1.429 . S
C1963 C1964 1.523 . S
C1964 C1948 1.368 . S
C1964 C1960 1.368 . S
C1964 C1963 1.523 . S
H1965 C1940 0.950 . S
H1966 C1942 0.950 . S
H1967 C1943 0.949 . S
H1968 C1945 0.950 . S
H1969 C1947 0.950 . S
C1970 C1971 1.349 . S
C1970 C1972 1.327 . S
C1970 H1995 0.950 . S
C1971 C1970 1.349 . S
C1971 C1987 1.349 . S
C1972 C1970 1.327 . S
C1972 C1991 1.429 . S
C1972 H1996 0.950 . S
C1973 C1990 1.574 . S
C1973 C1992 1.368 . S
C1973 H1997 0.949 . S
H1974 C1978 0.949 . S
C1975 C1976 1.349 . S
C1975 C1977 1.327 . S
C1975 H1998 0.950 . S
C1976 C1975 1.349 . S
C1976 C1988 1.349 . S
C1977 C1975 1.327 . S
C1977 C1993 1.429 . S
C1977 H1999 0.950 . S
C1978 H1974 0.949 . S
C1978 C1986 1.574 . S
C1978 C1994 1.368 . S
H1979 C1987 0.950 . S
H1980 C1985 0.950 . S
H1981 C1986 0.949 . S
H1982 C1988 0.950 . S
H1983 C1989 0.950 . S
H1984 C1990 0.949 . S
C1985 H1980 0.950 . S
C1985 C1987 1.327 . S
C1985 C1991 1.429 . S
C1986 C1978 1.574 . S
C1986 H1981 0.949 . S
C1986 C1992 1.368 . S
C1987 C1971 1.349 . S
C1987 H1979 0.950 . S
C1987 C1985 1.327 . S
C1988 C1976 1.349 . S
C1988 H1982 0.950 . S
C1988 C1989 1.327 . S
C1989 H1983 0.950 . S
C1989 C1988 1.327 . S
C1989 C1993 1.429 . S
C1990 C1973 1.574 . S
C1990 H1984 0.949 . S
C1990 C1994 1.368 . S
C1991 C1972 1.429 . S
C1991 C1985 1.429 . S
C1991 C1992 1.523 . S
C1992 C1973 1.368 . S
C1992 C1986 1.368 . S
C1992 C1991 1.523 . S
C1993 C1977 1.429 . S
C1993 C1989 1.429 . S
C1993 C1994 1.523 . S
C1994 C1978 1.368 . S
C1994 C1990 1.368 . S
C1994 C1993 1.523 . S
H1995 C1970 0.950 . S
H1996 C1972 0.950 . S
H1997 C1973 0.949 . S
H1998 C1975 0.950 . S
H1999 C1977 0.950 . S
C2000 C2001 1.349 . S
C2000 C2002 1.327 . S
C2000 H2025 0.950 . S
C2001 C2000 1.349 . S
C2001 C2017 1.349 . S
C2002 C2000 1.327 . S
C2002 C2021 1.429 . S
C2002 H2026 0.950 . S
C2003 C2020 1.574 . S
C2003 C2022 1.368 . S
C2003 H2027 0.949 . S
H2004 C2008 0.949 . S
C2005 C2006 1.349 . S
C2005 C2007 1.327 . S
C2005 H2028 0.950 . S
C2006 C2005 1.349 . S
C2006 C2018 1.349 . S
C2007 C2005 1.327 . S
C2007 C2023 1.429 . S
C2007 H2029 0.950 . S
C2008 H2004 0.949 . S
C2008 C2016 1.574 . S
C2008 C2024 1.368 . S
H2009 C2017 0.950 . S
H2010 C2015 0.950 . S
H2011 C2016 0.949 . S
H2012 C2018 0.950 . S
H2013 C2019 0.950 . S
H2014 C2020 0.949 . S
C2015 H2010 0.950 . S
C2015 C2017 1.327 . S
C2015 C2021 1.429 . S
C2016 C2008 1.574 . S
C2016 H2011 0.949 . S
C2016 C2022 1.368 . S
C2017 C2001 1.349 . S
C2017 H2009 0.950 . S
C2017 C2015 1.327 . S
C2018 C2006 1.349 . S
C2018 H2012 0.950 . S
C2018 C2019 1.327 . S
C2019 H2013 0.950 . S
C2019 C2018 1.327 . S
C2019 C2023 1.429 . S
C2020 C2003 1.574 . S
C2020 H2014 0.949 . S
C2020 C2024 1.368 . S
C2021 C2002 1.429 . S
C2021 C2015 1.429 . S
C2021 C2022 1.523 . S
C2022 C2003 1.368 . S
C2022 C2016 1.368 . S
C2022 C2021 1.523 . S
C2023 C2007 1.429 . S
C2023 C2019 1.429 . S
C2023 C2024 1.523 . S
C2024 C2008 1.368 . S
C2024 C2020 1.368 . S
C2024 C2023 1.523 . S
H2025 C2000 0.950 . S
H2026 C2002 0.950 . S
H2027 C2003 0.949 . S
H2028 C2005 0.950 . S
H2029 C2007 0.950 . S
C2030 C2031 1.349 . S
C2030 C2032 1.327 . S
C2030 H2055 0.950 . S
C2031 C2030 1.349 . S
C2031 C2047 1.349 . S
C2032 C2030 1.327 . S
C2032 C2051 1.429 . S
C2032 H2056 0.950 . S
C2033 C2050 1.574 . S
C2033 C2052 1.368 . S
C2033 H2057 0.949 . S
H2034 C2038 0.949 . S
C2035 C2036 1.349 . S
C2035 C2037 1.327 . S
C2035 H2058 0.950 . S
C2036 C2035 1.349 . S
C2036 C2048 1.349 . S
C2037 C2035 1.327 . S
C2037 C2053 1.429 . S
C2037 H2059 0.950 . S
C2038 H2034 0.949 . S
C2038 C2046 1.574 . S
C2038 C2054 1.368 . S
H2039 C2047 0.950 . S
H2040 C2045 0.950 . S
H2041 C2046 0.949 . S
H2042 C2048 0.950 . S
H2043 C2049 0.950 . S
H2044 C2050 0.949 . S
C2045 H2040 0.950 . S
C2045 C2047 1.327 . S
C2045 C2051 1.429 . S
C2046 C2038 1.574 . S
C2046 H2041 0.949 . S
C2046 C2052 1.368 . S
C2047 C2031 1.349 . S
C2047 H2039 0.950 . S
C2047 C2045 1.327 . S
C2048 C2036 1.349 . S
C2048 H2042 0.950 . S
C2048 C2049 1.327 . S
C2049 H2043 0.950 . S
C2049 C2048 1.327 . S
C2049 C2053 1.429 . S
C2050 C2033 1.574 . S
C2050 H2044 0.949 . S
C2050 C2054 1.368 . S
C2051 C2032 1.429 . S
C2051 C2045 1.429 . S
C2051 C2052 1.523 . S
C2052 C2033 1.368 . S
C2052 C2046 1.368 . S
C2052 C2051 1.523 . S
C2053 C2037 1.429 . S
C2053 C2049 1.429 . S
C2053 C2054 1.523 . S
C2054 C2038 1.368 . S
C2054 C2050 1.368 . S
C2054 C2053 1.523 . S
H2055 C2030 0.950 . S
H2056 C2032 0.950 . S
H2057 C2033 0.949 . S
H2058 C2035 0.950 . S
H2059 C2037 0.950 . S
C2060 C2061 1.349 . S
C2060 C2062 1.327 . S
C2060 H2085 0.950 . S
C2061 C2060 1.349 . S
C2061 C2077 1.349 . S
C2062 C2060 1.327 . S
C2062 C2081 1.429 . S
C2062 H2086 0.950 . S
C2063 C2080 1.574 . S
C2063 C2082 1.368 . S
C2063 H2087 0.949 . S
H2064 C2068 0.949 . S
C2065 C2066 1.349 . S
C2065 C2067 1.327 . S
C2065 H2088 0.950 . S
C2066 C2065 1.349 . S
C2066 C2078 1.349 . S
C2067 C2065 1.327 . S
C2067 C2083 1.429 . S
C2067 H2089 0.950 . S
C2068 H2064 0.949 . S
C2068 C2076 1.574 . S
C2068 C2084 1.368 . S
H2069 C2077 0.950 . S
H2070 C2075 0.950 . S
H2071 C2076 0.949 . S
H2072 C2078 0.950 . S
H2073 C2079 0.950 . S
H2074 C2080 0.949 . S
C2075 H2070 0.950 . S
C2075 C2077 1.327 . S
C2075 C2081 1.429 . S
C2076 C2068 1.574 . S
C2076 H2071 0.949 . S
C2076 C2082 1.368 . S
C2077 C2061 1.349 . S
C2077 H2069 0.950 . S
C2077 C2075 1.327 . S
C2078 C2066 1.349 . S
C2078 H2072 0.950 . S
C2078 C2079 1.327 . S
C2079 H2073 0.950 . S
C2079 C2078 1.327 . S
C2079 C2083 1.429 . S
C2080 C2063 1.574 . S
C2080 H2074 0.949 . S
C2080 C2084 1.368 . S
C2081 C2062 1.429 . S
C2081 C2075 1.429 . S
C2081 C2082 1.523 . S
C2082 C2063 1.368 . S
C2082 C2076 1.368 . S
C2082 C2081 1.523 . S
C2083 C2067 1.429 . S
C2083 C2079 1.429 . S
C2083 C2084 1.523 . S
C2084 C2068 1.368 . S
C2084 C2080 1.368 . S
C2084 C2083 1.523 . S
H2085 C2060 0.950 . S
H2086 C2062 0.950 . S
H2087 C2063 0.949 . S
H2088 C2065 0.950 . S
H2089 C2067 0.950 . S
C2090 C2091 1.349 . S
C2090 C2092 1.327 . S
C2090 H2115 0.950 . S
C2091 C2090 1.349 . S
C2091 C2107 1.349 . S
C2092 C2090 1.327 . S
C2092 C2111 1.429 . S
C2092 H2116 0.950 . S
C2093 C2110 1.574 . S
C2093 C2112 1.368 . S
C2093 H2117 0.949 . S
H2094 C2098 0.949 . S
C2095 C2096 1.349 . S
C2095 C2097 1.327 . S
C2095 H2118 0.950 . S
C2096 C2095 1.349 . S
C2096 C2108 1.349 . S
C2097 C2095 1.327 . S
C2097 C2113 1.429 . S
C2097 H2119 0.950 . S
C2098 H2094 0.949 . S
C2098 C2106 1.574 . S
C2098 C2114 1.368 . S
H2099 C2107 0.950 . S
H2100 C2105 0.950 . S
H2101 C2106 0.949 . S
H2102 C2108 0.950 . S
H2103 C2109 0.950 . S
H2104 C2110 0.949 . S
C2105 H2100 0.950 . S
C2105 C2107 1.327 . S
C2105 C2111 1.429 . S
C2106 C2098 1.574 . S
C2106 H2101 0.949 . S
C2106 C2112 1.368 . S
C2107 C2091 1.349 . S
C2107 H2099 0.950 . S
C2107 C2105 1.327 . S
C2108 C2096 1.349 . S
C2108 H2102 0.950 . S
C2108 C2109 1.327 . S
C2109 H2103 0.950 . S
C2109 C2108 1.327 . S
C2109 C2113 1.429 . S
C2110 C2093 1.574 . S
C2110 H2104 0.949 . S
C2110 C2114 1.368 . S
C2111 C2092 1.429 . S
C2111 C2105 1.429 . S
C2111 C2112 1.523 . S
C2112 C2093 1.368 . S
C2112 C2106 1.368 . S
C2112 C2111 1.523 . S
C2113 C2097 1.429 . S
C2113 C2109 1.429 . S
C2113 C2114 1.523 . S
C2114 C2098 1.368 . S
C2114 C2110 1.368 . S
C2114 C2113 1.523 . S
H2115 C2090 0.950 . S
H2116 C2092 0.950 . S
H2117 C2093 0.949 . S
H2118 C2095 0.950 . S
H2119 C2097 0.950 . S
C2120 C2121 1.349 . S
C2120 C2122 1.327 . S
C2120 H2145 0.950 . S
C2121 C2120 1.349 . S
C2121 C2137 1.349 . S
C2122 C2120 1.327 . S
C2122 C2141 1.429 . S
C2122 H2146 0.950 . S
C2123 C2140 1.574 . S
C2123 C2142 1.368 . S
C2123 H2147 0.949 . S
H2124 C2128 0.949 . S
C2125 C2126 1.349 . S
C2125 C2127 1.327 . S
C2125 H2148 0.950 . S
C2126 C2125 1.349 . S
C2126 C2138 1.349 . S
C2127 C2125 1.327 . S
C2127 C2143 1.429 . S
C2127 H2149 0.950 . S
C2128 H2124 0.949 . S
C2128 C2136 1.574 . S
C2128 C2144 1.368 . S
H2129 C2137 0.950 . S
H2130 C2135 0.950 . S
H2131 C2136 0.949 . S
H2132 C2138 0.950 . S
H2133 C2139 0.950 . S
H2134 C2140 0.949 . S
C2135 H2130 0.950 . S
C2135 C2137 1.327 . S
C2135 C2141 1.429 . S
C2136 C2128 1.574 . S
C2136 H2131 0.949 . S
C2136 C2142 1.368 . S
C2137 C2121 1.349 . S
C2137 H2129 0.950 . S
C2137 C2135 1.327 . S
C2138 C2126 1.349 . S
C2138 H2132 0.950 . S
C2138 C2139 1.327 . S
C2139 H2133 0.950 . S
C2139 C2138 1.327 . S
C2139 C2143 1.429 . S
C2140 C2123 1.574 . S
C2140 H2134 0.949 . S
C2140 C2144 1.368 . S
C2141 C2122 1.429 . S
C2141 C2135 1.429 . S
C2141 C2142 1.523 . S
C2142 C2123 1.368 . S
C2142 C2136 1.368 . S
C2142 C2141 1.523 . S
C2143 C2127 1.429 . S
C2143 C2139 1.429 . S
C2143 C2144 1.523 . S
C2144 C2128 1.368 . S
C2144 C2140 1.368 . S
C2144 C2143 1.523 . S
H2145 C2120 0.950 . S
H2146 C2122 0.950 . S
H2147 C2123 0.949 . S
H2148 C2125 0.950 . S
H2149 C2127 0.950 . S
C2150 C2151 1.349 . S
C2150 C2152 1.327 . S
C2150 H2175 0.950 . S
C2151 C2150 1.349 . S
C2151 C2167 1.349 . S
C2152 C2150 1.327 . S
C2152 C2171 1.429 . S
C2152 H2176 0.950 . S
C2153 C2170 1.574 . S
C2153 C2172 1.368 . S
C2153 H2177 0.949 . S
H2154 C2158 0.949 . S
C2155 C2156 1.349 . S
C2155 C2157 1.327 . S
C2155 H2178 0.950 . S
C2156 C2155 1.349 . S
C2156 C2168 1.349 . S
C2157 C2155 1.327 . S
C2157 C2173 1.429 . S
C2157 H2179 0.950 . S
C2158 H2154 0.949 . S
C2158 C2166 1.574 . S
C2158 C2174 1.368 . S
H2159 C2167 0.950 . S
H2160 C2165 0.950 . S
H2161 C2166 0.949 . S
H2162 C2168 0.950 . S
H2163 C2169 0.950 . S
H2164 C2170 0.949 . S
C2165 H2160 0.950 . S
C2165 C2167 1.327 . S
C2165 C2171 1.429 . S
C2166 C2158 1.574 . S
C2166 H2161 0.949 . S
C2166 C2172 1.368 . S
C2167 C2151 1.349 . S
C2167 H2159 0.950 . S
C2167 C2165 1.327 . S
C2168 C2156 1.349 . S
C2168 H2162 0.950 . S
C2168 C2169 1.327 . S
C2169 H2163 0.950 . S
C2169 C2168 1.327 . S
C2169 C2173 1.429 . S
C2170 C2153 1.574 . S
C2170 H2164 0.949 . S
C2170 C2174 1.368 . S
C2171 C2152 1.429 . S
C2171 C2165 1.429 . S
C2171 C2172 1.523 . S
C2172 C2153 1.368 . S
C2172 C2166 1.368 . S
C2172 C2171 1.523 . S
C2173 C2157 1.429 . S
C2173 C2169 1.429 . S
C2173 C2174 1.523 . S
C2174 C2158 1.368 . S
C2174 C2170 1.368 . S
C2174 C2173 1.523 . S
H2175 C2150 0.950 . S
H2176 C2152 0.950 . S
H2177 C2153 0.949 . S
H2178 C2155 0.950 . S
H2179 C2157 0.950 . S
C2180 C2181 1.349 . S
C2180 C2182 1.327 . S
C2180 H2205 0.950 . S
C2181 C2180 1.349 . S
C2181 C2197 1.349 . S
C2182 C2180 1.327 . S
C2182 C2201 1.429 . S
C2182 H2206 0.950 . S
C2183 C2200 1.574 . S
C2183 C2202 1.368 . S
C2183 H2207 0.949 . S
H2184 C2188 0.949 . S
C2185 C2186 1.349 . S
C2185 C2187 1.327 . S
C2185 H2208 0.950 . S
C2186 C2185 1.349 . S
C2186 C2198 1.349 . S
C2187 C2185 1.327 . S
C2187 C2203 1.429 . S
C2187 H2209 0.950 . S
C2188 H2184 0.949 . S
C2188 C2196 1.574 . S
C2188 C2204 1.368 . S
H2189 C2197 0.950 . S
H2190 C2195 0.950 . S
H2191 C2196 0.949 . S
H2192 C2198 0.950 . S
H2193 C2199 0.950 . S
H2194 C2200 0.949 . S
C2195 H2190 0.950 . S
C2195 C2197 1.327 . S
C2195 C2201 1.429 . S
C2196 C2188 1.574 . S
C2196 H2191 0.949 . S
C2196 C2202 1.368 . S
C2197 C2181 1.349 . S
C2197 H2189 0.950 . S
C2197 C2195 1.327 . S
C2198 C2186 1.349 . S
C2198 H2192 0.950 . S
C2198 C2199 1.327 . S
C2199 H2193 0.950 . S
C2199 C2198 1.327 . S
C2199 C2203 1.429 . S
C2200 C2183 1.574 . S
C2200 H2194 0.949 . S
C2200 C2204 1.368 . S
C2201 C2182 1.429 . S
C2201 C2195 1.429 . S
C2201 C2202 1.523 . S
C2202 C2183 1.368 . S
C2202 C2196 1.368 . S
C2202 C2201 1.523 . S
C2203 C2187 1.429 . S
C2203 C2199 1.429 . S
C2203 C2204 1.523 . S
C2204 C2188 1.368 . S
C2204 C2200 1.368 . S
C2204 C2203 1.523 . S
H2205 C2180 0.950 . S
H2206 C2182 0.950 . S
H2207 C2183 0.949 . S
H2208 C2185 0.950 . S
H2209 C2187 0.950 . S
C2210 C2211 1.349 . S
C2210 C2212 1.327 . S
C2210 H2235 0.950 . S
C2211 C2210 1.349 . S
C2211 C2227 1.349 . S
C2212 C2210 1.327 . S
C2212 C2231 1.429 . S
C2212 H2236 0.950 . S
C2213 C2230 1.574 . S
C2213 C2232 1.368 . S
C2213 H2237 0.949 . S
H2214 C2218 0.949 . S
C2215 C2216 1.349 . S
C2215 C2217 1.327 . S
C2215 H2238 0.950 . S
C2216 C2215 1.349 . S
C2216 C2228 1.349 . S
C2217 C2215 1.327 . S
C2217 C2233 1.429 . S
C2217 H2239 0.950 . S
C2218 H2214 0.949 . S
C2218 C2226 1.574 . S
C2218 C2234 1.368 . S
H2219 C2227 0.950 . S
H2220 C2225 0.950 . S
H2221 C2226 0.949 . S
H2222 C2228 0.950 . S
H2223 C2229 0.950 . S
H2224 C2230 0.949 . S
C2225 H2220 0.950 . S
C2225 C2227 1.327 . S
C2225 C2231 1.429 . S
C2226 C2218 1.574 . S
C2226 H2221 0.949 . S
C2226 C2232 1.368 . S
C2227 C2211 1.349 . S
C2227 H2219 0.950 . S
C2227 C2225 1.327 . S
C2228 C2216 1.349 . S
C2228 H2222 0.950 . S
C2228 C2229 1.327 . S
C2229 H2223 0.950 . S
C2229 C2228 1.327 . S
C2229 C2233 1.429 . S
C2230 C2213 1.574 . S
C2230 H2224 0.949 . S
C2230 C2234 1.368 . S
C2231 C2212 1.429 . S
C2231 C2225 1.429 . S
C2231 C2232 1.523 . S
C2232 C2213 1.368 . S
C2232 C2226 1.368 . S
C2232 C2231 1.523 . S
C2233 C2217 1.429 . S
C2233 C2229 1.429 . S
C2233 C2234 1.523 . S
C2234 C2218 1.368 . S
C2234 C2230 1.368 . S
C2234 C2233 1.523 . S
H2235 C2210 0.950 . S
H2236 C2212 0.950 . S
H2237 C2213 0.949 . S
H2238 C2215 0.950 . S
H2239 C2217 0.950 . S
C2240 C2241 1.349 . S
C2240 C2242 1.327 . S
C2240 H2265 0.950 . S
C2241 C2240 1.349 . S
C2241 C2257 1.349 . S
C2242 C2240 1.327 . S
C2242 C2261 1.429 . S
C2242 H2266 0.950 . S
C2243 C2260 1.574 1_556 S
C2243 C2262 1.368 . S
C2243 H2267 0.949 . S
H2244 C2248 0.949 . S
C2245 C2246 1.349 . S
C2245 C2247 1.327 . S
C2245 H2268 0.950 . S
C2246 C2245 1.349 . S
C2246 C2258 1.349 . S
C2247 C2245 1.327 . S
C2247 C2263 1.429 . S
C2247 H2269 0.950 . S
C2248 H2244 0.949 . S
C2248 C2256 1.574 1_554 S
C2248 C2264 1.368 . S
H2249 C2257 0.950 . S
H2250 C2255 0.950 . S
H2251 C2256 0.949 . S
H2252 C2258 0.950 . S
H2253 C2259 0.950 . S
H2254 C2260 0.949 . S
C2255 H2250 0.950 . S
C2255 C2257 1.327 . S
C2255 C2261 1.429 . S
C2256 C2248 1.574 1_556 S
C2256 H2251 0.949 . S
C2256 C2262 1.368 . S
C2257 C2241 1.349 . S
C2257 H2249 0.950 . S
C2257 C2255 1.327 . S
C2258 C2246 1.349 . S
C2258 H2252 0.950 . S
C2258 C2259 1.327 . S
C2259 H2253 0.950 . S
C2259 C2258 1.327 . S
C2259 C2263 1.429 . S
C2260 C2243 1.574 1_554 S
C2260 H2254 0.949 . S
C2260 C2264 1.368 . S
C2261 C2242 1.429 . S
C2261 C2255 1.429 . S
C2261 C2262 1.523 . S
C2262 C2243 1.368 . S
C2262 C2256 1.368 . S
C2262 C2261 1.523 . S
C2263 C2247 1.429 . S
C2263 C2259 1.429 . S
C2263 C2264 1.523 . S
C2264 C2248 1.368 . S
C2264 C2260 1.368 . S
C2264 C2263 1.523 . S
H2265 C2240 0.950 . S
H2266 C2242 0.950 . S
H2267 C2243 0.949 . S
H2268 C2245 0.950 . S
H2269 C2247 0.950 . S
C2270 C2271 1.349 . S
C2270 C2272 1.327 . S
C2270 H2295 0.950 . S
C2271 C2270 1.349 . S
C2271 C2287 1.349 . S
C2272 C2270 1.327 . S
C2272 C2291 1.429 . S
C2272 H2296 0.950 . S
C2273 C2290 1.574 1_545 S
C2273 C2292 1.368 . S
C2273 H2297 0.949 1_655 S
H2274 C2278 0.949 . S
C2275 C2276 1.349 . S
C2275 C2277 1.327 . S
C2275 H2298 0.950 1_655 S
C2276 C2275 1.349 . S
C2276 C2288 1.349 . S
C2277 C2275 1.327 . S
C2277 C2293 1.429 . S
C2277 H2299 0.950 1_655 S
C2278 H2274 0.949 . S
C2278 C2286 1.574 1_565 S
C2278 C2294 1.368 . S
H2279 C2287 0.950 1_455 S
H2280 C2285 0.950 1_455 S
H2281 C2286 0.949 . S
H2282 C2288 0.950 . S
H2283 C2289 0.950 . S
H2284 C2290 0.949 1_455 S
C2285 H2280 0.950 1_655 S
C2285 C2287 1.327 . S
C2285 C2291 1.429 . S
C2286 C2278 1.574 1_545 S
C2286 H2281 0.949 . S
C2286 C2292 1.368 . S
C2287 C2271 1.349 . S
C2287 H2279 0.950 1_655 S
C2287 C2285 1.327 . S
C2288 C2276 1.349 . S
C2288 H2282 0.950 . S
C2288 C2289 1.327 . S
C2289 H2283 0.950 . S
C2289 C2288 1.327 . S
C2289 C2293 1.429 . S
C2290 C2273 1.574 1_565 S
C2290 H2284 0.949 1_655 S
C2290 C2294 1.368 . S
C2291 C2272 1.429 . S
C2291 C2285 1.429 . S
C2291 C2292 1.523 . S
C2292 C2273 1.368 . S
C2292 C2286 1.368 . S
C2292 C2291 1.523 . S
C2293 C2277 1.429 . S
C2293 C2289 1.429 . S
C2293 C2294 1.523 . S
C2294 C2278 1.368 . S
C2294 C2290 1.368 . S
C2294 C2293 1.523 . S
H2295 C2270 0.950 . S
H2296 C2272 0.950 . S
H2297 C2273 0.949 1_455 S
H2298 C2275 0.950 1_455 S
H2299 C2277 0.950 1_455 S
C2300 C2301 1.349 . S
C2300 C2302 1.327 . S
C2300 H2325 0.950 . S
C2301 C2300 1.349 . S
C2301 C2317 1.349 . S
C2302 C2300 1.327 . S
C2302 C2321 1.429 . S
C2302 H2326 0.950 . S
C2303 C2320 1.574 . S
C2303 C2322 1.368 . S
C2303 H2327 0.949 . S
H2304 C2308 0.949 . S
C2305 C2306 1.349 . S
C2305 C2307 1.327 . S
C2305 H2328 0.950 . S
C2306 C2305 1.349 . S
C2306 C2318 1.349 . S
C2307 C2305 1.327 . S
C2307 C2323 1.429 . S
C2307 H2329 0.950 . S
C2308 H2304 0.949 . S
C2308 C2316 1.574 . S
C2308 C2324 1.368 . S
H2309 C2317 0.950 . S
H2310 C2315 0.950 . S
H2311 C2316 0.949 . S
H2312 C2318 0.950 . S
H2313 C2319 0.950 . S
H2314 C2320 0.949 . S
C2315 H2310 0.950 . S
C2315 C2317 1.327 . S
C2315 C2321 1.429 . S
C2316 C2308 1.574 . S
C2316 H2311 0.949 . S
C2316 C2322 1.368 . S
C2317 C2301 1.349 . S
C2317 H2309 0.950 . S
C2317 C2315 1.327 . S
C2318 C2306 1.349 . S
C2318 H2312 0.950 . S
C2318 C2319 1.327 . S
C2319 H2313 0.950 . S
C2319 C2318 1.327 . S
C2319 C2323 1.429 . S
C2320 C2303 1.574 . S
C2320 H2314 0.949 . S
C2320 C2324 1.368 . S
C2321 C2302 1.429 . S
C2321 C2315 1.429 . S
C2321 C2322 1.523 . S
C2322 C2303 1.368 . S
C2322 C2316 1.368 . S
C2322 C2321 1.523 . S
C2323 C2307 1.429 . S
C2323 C2319 1.429 . S
C2323 C2324 1.523 . S
C2324 C2308 1.368 . S
C2324 C2320 1.368 . S
C2324 C2323 1.523 . S
H2325 C2300 0.950 . S
H2326 C2302 0.950 . S
H2327 C2303 0.949 . S
H2328 C2305 0.950 . S
H2329 C2307 0.950 . S
C2330 C2331 1.349 . S
C2330 C2332 1.327 . S
C2330 H2355 0.950 . S
C2331 C2330 1.349 . S
C2331 C2347 1.349 . S
C2332 C2330 1.327 . S
C2332 C2351 1.429 . S
C2332 H2356 0.950 . S
C2333 C2350 1.575 1_565 S
C2333 C2352 1.367 . S
C2333 H2357 0.949 . S
H2334 C2338 0.949 . S
C2335 C2336 1.349 . S
C2335 C2337 1.327 . S
C2335 H2358 0.950 . S
C2336 C2335 1.349 . S
C2336 C2348 1.349 . S
C2337 C2335 1.327 . S
C2337 C2353 1.429 . S
C2337 H2359 0.950 . S
C2338 H2334 0.949 . S
C2338 C2346 1.575 1_545 S
C2338 C2354 1.367 . S
H2339 C2347 0.950 . S
H2340 C2345 0.950 . S
H2341 C2346 0.949 . S
H2342 C2348 0.950 . S
H2343 C2349 0.950 . S
H2344 C2350 0.949 . S
C2345 H2340 0.950 . S
C2345 C2347 1.327 . S
C2345 C2351 1.429 . S
C2346 C2338 1.575 1_565 S
C2346 H2341 0.949 . S
C2346 C2352 1.368 . S
C2347 C2331 1.349 . S
C2347 H2339 0.950 . S
C2347 C2345 1.327 . S
C2348 C2336 1.349 . S
C2348 H2342 0.950 . S
C2348 C2349 1.327 . S
C2349 H2343 0.950 . S
C2349 C2348 1.327 . S
C2349 C2353 1.429 . S
C2350 C2333 1.575 1_545 S
C2350 H2344 0.949 . S
C2350 C2354 1.368 . S
C2351 C2332 1.429 . S
C2351 C2345 1.429 . S
C2351 C2352 1.523 . S
C2352 C2333 1.367 . S
C2352 C2346 1.368 . S
C2352 C2351 1.523 . S
C2353 C2337 1.429 . S
C2353 C2349 1.429 . S
C2353 C2354 1.523 . S
C2354 C2338 1.367 . S
C2354 C2350 1.368 . S
C2354 C2353 1.523 . S
H2355 C2330 0.950 . S
H2356 C2332 0.950 . S
H2357 C2333 0.949 . S
H2358 C2335 0.950 . S
H2359 C2337 0.950 . S
C2360 C2361 1.349 . S
C2360 C2362 1.327 . S
C2360 H2385 0.950 . S
C2361 C2360 1.349 . S
C2361 C2377 1.349 . S
C2362 C2360 1.327 . S
C2362 C2381 1.429 . S
C2362 H2386 0.950 . S
C2363 C2380 1.574 1_556 S
C2363 C2382 1.368 . S
C2363 H2387 0.949 . S
H2364 C2368 0.949 . S
C2365 C2366 1.349 . S
C2365 C2367 1.327 . S
C2365 H2388 0.950 . S
C2366 C2365 1.349 . S
C2366 C2378 1.349 . S
C2367 C2365 1.327 . S
C2367 C2383 1.429 . S
C2367 H2389 0.950 . S
C2368 H2364 0.949 . S
C2368 C2376 1.574 1_554 S
C2368 C2384 1.368 . S
H2369 C2377 0.950 . S
H2370 C2375 0.950 . S
H2371 C2376 0.949 . S
H2372 C2378 0.950 . S
H2373 C2379 0.950 . S
H2374 C2380 0.949 . S
C2375 H2370 0.950 . S
C2375 C2377 1.327 . S
C2375 C2381 1.429 . S
C2376 C2368 1.574 1_556 S
C2376 H2371 0.949 . S
C2376 C2382 1.368 . S
C2377 C2361 1.349 . S
C2377 H2369 0.950 . S
C2377 C2375 1.327 . S
C2378 C2366 1.349 . S
C2378 H2372 0.950 . S
C2378 C2379 1.327 . S
C2379 H2373 0.950 . S
C2379 C2378 1.327 . S
C2379 C2383 1.429 . S
C2380 C2363 1.574 1_554 S
C2380 H2374 0.949 . S
C2380 C2384 1.368 . S
C2381 C2362 1.429 . S
C2381 C2375 1.429 . S
C2381 C2382 1.523 . S
C2382 C2363 1.368 . S
C2382 C2376 1.368 . S
C2382 C2381 1.523 . S
C2383 C2367 1.429 . S
C2383 C2379 1.429 . S
C2383 C2384 1.523 . S
C2384 C2368 1.368 . S
C2384 C2380 1.368 . S
C2384 C2383 1.523 . S
H2385 C2360 0.950 . S
H2386 C2362 0.950 . S
H2387 C2363 0.949 . S
H2388 C2365 0.950 . S
H2389 C2367 0.950 . S
C2390 C2391 1.349 . S
C2390 C2392 1.327 . S
C2390 H2415 0.950 . S
C2391 C2390 1.349 . S
C2391 C2407 1.349 . S
C2392 C2390 1.327 . S
C2392 C2411 1.429 . S
C2392 H2416 0.950 . S
C2393 C2410 1.574 . S
C2393 C2412 1.368 1_545 S
C2393 H2417 0.949 . S
H2394 C2398 0.949 . S
C2395 C2396 1.349 . S
C2395 C2397 1.327 . S
C2395 H2418 0.950 . S
C2396 C2395 1.349 . S
C2396 C2408 1.349 . S
C2397 C2395 1.327 . S
C2397 C2413 1.429 . S
C2397 H2419 0.950 . S
C2398 H2394 0.949 . S
C2398 C2406 1.574 . S
C2398 C2414 1.368 1_565 S
H2399 C2407 0.950 . S
H2400 C2405 0.950 . S
H2401 C2406 0.949 . S
H2402 C2408 0.950 . S
H2403 C2409 0.950 . S
H2404 C2410 0.949 . S
C2405 H2400 0.950 . S
C2405 C2407 1.327 . S
C2405 C2411 1.429 . S
C2406 C2398 1.574 . S
C2406 H2401 0.949 . S
C2406 C2412 1.368 . S
C2407 C2391 1.349 . S
C2407 H2399 0.950 . S
C2407 C2405 1.327 . S
C2408 C2396 1.349 . S
C2408 H2402 0.950 . S
C2408 C2409 1.327 . S
C2409 H2403 0.950 . S
C2409 C2408 1.327 . S
C2409 C2413 1.429 . S
C2410 C2393 1.574 . S
C2410 H2404 0.949 . S
C2410 C2414 1.368 . S
C2411 C2392 1.429 . S
C2411 C2405 1.429 . S
C2411 C2412 1.523 . S
C2412 C2393 1.368 1_565 S
C2412 C2406 1.368 . S
C2412 C2411 1.523 . S
C2413 C2397 1.429 . S
C2413 C2409 1.429 . S
C2413 C2414 1.523 . S
C2414 C2398 1.368 1_545 S
C2414 C2410 1.368 . S
C2414 C2413 1.523 . S
H2415 C2390 0.950 . S
H2416 C2392 0.950 . S
H2417 C2393 0.949 . S
H2418 C2395 0.950 . S
H2419 C2397 0.950 . S
C2420 C2421 1.349 . S
C2420 C2422 1.327 . S
C2420 H2445 0.950 . S
C2421 C2420 1.349 . S
C2421 C2437 1.349 . S
C2422 C2420 1.327 . S
C2422 C2441 1.429 . S
C2422 H2446 0.950 . S
C2423 C2440 1.574 . S
C2423 C2442 1.368 . S
C2423 H2447 0.949 . S
H2424 C2428 0.949 . S
C2425 C2426 1.349 . S
C2425 C2427 1.327 . S
C2425 H2448 0.950 . S
C2426 C2425 1.349 . S
C2426 C2438 1.349 . S
C2427 C2425 1.327 . S
C2427 C2443 1.429 . S
C2427 H2449 0.950 . S
C2428 H2424 0.949 . S
C2428 C2436 1.574 . S
C2428 C2444 1.368 . S
H2429 C2437 0.950 . S
H2430 C2435 0.950 . S
H2431 C2436 0.949 . S
H2432 C2438 0.950 . S
H2433 C2439 0.950 . S
H2434 C2440 0.949 . S
C2435 H2430 0.950 . S
C2435 C2437 1.327 . S
C2435 C2441 1.429 . S
C2436 C2428 1.574 . S
C2436 H2431 0.949 . S
C2436 C2442 1.368 . S
C2437 C2421 1.349 . S
C2437 H2429 0.950 . S
C2437 C2435 1.327 . S
C2438 C2426 1.349 . S
C2438 H2432 0.950 . S
C2438 C2439 1.327 . S
C2439 H2433 0.950 . S
C2439 C2438 1.327 . S
C2439 C2443 1.429 . S
C2440 C2423 1.574 . S
C2440 H2434 0.949 . S
C2440 C2444 1.368 . S
C2441 C2422 1.429 . S
C2441 C2435 1.429 . S
C2441 C2442 1.523 . S
C2442 C2423 1.368 . S
C2442 C2436 1.368 . S
C2442 C2441 1.523 . S
C2443 C2427 1.429 . S
C2443 C2439 1.429 . S
C2443 C2444 1.523 . S
C2444 C2428 1.368 . S
C2444 C2440 1.368 . S
C2444 C2443 1.523 . S
H2445 C2420 0.950 . S
H2446 C2422 0.950 . S
H2447 C2423 0.949 . S
H2448 C2425 0.950 . S
H2449 C2427 0.950 . S
C2450 C2451 1.349 . S
C2450 C2452 1.327 . S
C2450 H2475 0.950 . S
C2451 C2450 1.349 . S
C2451 C2467 1.349 . S
C2452 C2450 1.327 . S
C2452 C2471 1.429 . S
C2452 H2476 0.950 . S
C2453 C2470 1.574 . S
C2453 C2472 1.368 1_565 S
C2453 H2477 0.949 . S
H2454 C2458 0.949 . S
C2455 C2456 1.349 . S
C2455 C2457 1.327 . S
C2455 H2478 0.950 . S
C2456 C2455 1.349 . S
C2456 C2468 1.349 . S
C2457 C2455 1.327 . S
C2457 C2473 1.429 . S
C2457 H2479 0.950 . S
C2458 H2454 0.949 . S
C2458 C2466 1.574 . S
C2458 C2474 1.368 1_545 S
H2459 C2467 0.950 . S
H2460 C2465 0.950 . S
H2461 C2466 0.949 . S
H2462 C2468 0.950 . S
H2463 C2469 0.950 . S
H2464 C2470 0.949 . S
C2465 H2460 0.950 . S
C2465 C2467 1.327 . S
C2465 C2471 1.429 . S
C2466 C2458 1.574 . S
C2466 H2461 0.949 . S
C2466 C2472 1.368 . S
C2467 C2451 1.349 . S
C2467 H2459 0.950 . S
C2467 C2465 1.327 . S
C2468 C2456 1.349 . S
C2468 H2462 0.950 . S
C2468 C2469 1.327 . S
C2469 H2463 0.950 . S
C2469 C2468 1.327 . S
C2469 C2473 1.429 . S
C2470 C2453 1.574 . S
C2470 H2464 0.949 . S
C2470 C2474 1.368 . S
C2471 C2452 1.429 . S
C2471 C2465 1.429 . S
C2471 C2472 1.523 . S
C2472 C2453 1.368 1_545 S
C2472 C2466 1.368 . S
C2472 C2471 1.523 . S
C2473 C2457 1.429 . S
C2473 C2469 1.429 . S
C2473 C2474 1.523 . S
C2474 C2458 1.368 1_565 S
C2474 C2470 1.368 . S
C2474 C2473 1.523 . S
H2475 C2450 0.950 . S
H2476 C2452 0.950 . S
H2477 C2453 0.949 . S
H2478 C2455 0.950 . S
H2479 C2457 0.950 . S
C2480 C2481 1.349 . S
C2480 C2482 1.327 . S
C2480 H2505 0.950 . S
C2481 C2480 1.349 . S
C2481 C2497 1.349 . S
C2482 C2480 1.327 . S
C2482 C2501 1.429 . S
C2482 H2506 0.950 . S
C2483 C2500 1.574 . S
C2483 C2502 1.368 . S
C2483 H2507 0.949 . S
H2484 C2488 0.949 . S
C2485 C2486 1.349 . S
C2485 C2487 1.327 . S
C2485 H2508 0.950 . S
C2486 C2485 1.349 . S
C2486 C2498 1.349 . S
C2487 C2485 1.327 . S
C2487 C2503 1.429 . S
C2487 H2509 0.950 . S
C2488 H2484 0.949 . S
C2488 C2496 1.574 . S
C2488 C2504 1.368 . S
H2489 C2497 0.950 . S
H2490 C2495 0.950 . S
H2491 C2496 0.949 . S
H2492 C2498 0.950 . S
H2493 C2499 0.950 . S
H2494 C2500 0.949 . S
C2495 H2490 0.950 . S
C2495 C2497 1.327 . S
C2495 C2501 1.429 . S
C2496 C2488 1.574 . S
C2496 H2491 0.949 . S
C2496 C2502 1.368 . S
C2497 C2481 1.349 . S
C2497 H2489 0.950 . S
C2497 C2495 1.327 . S
C2498 C2486 1.349 . S
C2498 H2492 0.950 . S
C2498 C2499 1.327 . S
C2499 H2493 0.950 . S
C2499 C2498 1.327 . S
C2499 C2503 1.429 . S
C2500 C2483 1.574 . S
C2500 H2494 0.949 . S
C2500 C2504 1.368 . S
C2501 C2482 1.429 . S
C2501 C2495 1.429 . S
C2501 C2502 1.523 . S
C2502 C2483 1.368 . S
C2502 C2496 1.368 . S
C2502 C2501 1.523 . S
C2503 C2487 1.429 . S
C2503 C2499 1.429 . S
C2503 C2504 1.523 . S
C2504 C2488 1.368 . S
C2504 C2500 1.368 . S
C2504 C2503 1.523 . S
H2505 C2480 0.950 . S
H2506 C2482 0.950 . S
H2507 C2483 0.949 . S
H2508 C2485 0.950 . S
H2509 C2487 0.950 . S
C2510 C2511 1.349 . S
C2510 C2512 1.327 . S
C2510 H2535 0.950 . S
C2511 C2510 1.349 . S
C2511 C2527 1.349 . S
C2512 C2510 1.327 . S
C2512 C2531 1.429 . S
C2512 H2536 0.950 . S
C2513 C2530 1.574 . S
C2513 C2532 1.368 . S
C2513 H2537 0.949 . S
H2514 C2518 0.949 . S
C2515 C2516 1.349 . S
C2515 C2517 1.327 . S
C2515 H2538 0.950 . S
C2516 C2515 1.349 . S
C2516 C2528 1.349 . S
C2517 C2515 1.327 . S
C2517 C2533 1.429 . S
C2517 H2539 0.950 . S
C2518 H2514 0.949 . S
C2518 C2526 1.574 . S
C2518 C2534 1.368 . S
H2519 C2527 0.950 . S
H2520 C2525 0.950 . S
H2521 C2526 0.949 . S
H2522 C2528 0.950 . S
H2523 C2529 0.950 . S
H2524 C2530 0.949 . S
C2525 H2520 0.950 . S
C2525 C2527 1.327 . S
C2525 C2531 1.429 . S
C2526 C2518 1.574 . S
C2526 H2521 0.949 . S
C2526 C2532 1.368 . S
C2527 C2511 1.349 . S
C2527 H2519 0.950 . S
C2527 C2525 1.327 . S
C2528 C2516 1.349 . S
C2528 H2522 0.950 . S
C2528 C2529 1.327 . S
C2529 H2523 0.950 . S
C2529 C2528 1.327 . S
C2529 C2533 1.429 . S
C2530 C2513 1.574 . S
C2530 H2524 0.949 . S
C2530 C2534 1.368 . S
C2531 C2512 1.429 . S
C2531 C2525 1.429 . S
C2531 C2532 1.523 . S
C2532 C2513 1.368 . S
C2532 C2526 1.368 . S
C2532 C2531 1.523 . S
C2533 C2517 1.429 . S
C2533 C2529 1.429 . S
C2533 C2534 1.523 . S
C2534 C2518 1.368 . S
C2534 C2530 1.368 . S
C2534 C2533 1.523 . S
H2535 C2510 0.950 . S
H2536 C2512 0.950 . S
H2537 C2513 0.949 . S
H2538 C2515 0.950 . S
H2539 C2517 0.950 . S
C2540 C2541 1.349 . S
C2540 C2542 1.327 . S
C2540 H2565 0.950 . S
C2541 C2540 1.349 . S
C2541 C2557 1.349 . S
C2542 C2540 1.327 . S
C2542 C2561 1.429 . S
C2542 H2566 0.950 . S
C2543 C2560 1.574 1_554 S
C2543 C2562 1.368 . S
C2543 H2567 0.949 . S
H2544 C2548 0.949 . S
C2545 C2546 1.349 . S
C2545 C2547 1.327 . S
C2545 H2568 0.950 . S
C2546 C2545 1.349 . S
C2546 C2558 1.349 . S
C2547 C2545 1.327 . S
C2547 C2563 1.429 . S
C2547 H2569 0.950 . S
C2548 H2544 0.949 . S
C2548 C2556 1.574 1_556 S
C2548 C2564 1.368 . S
H2549 C2557 0.950 . S
H2550 C2555 0.950 . S
H2551 C2556 0.949 . S
H2552 C2558 0.950 . S
H2553 C2559 0.950 . S
H2554 C2560 0.949 . S
C2555 H2550 0.950 . S
C2555 C2557 1.327 . S
C2555 C2561 1.429 . S
C2556 C2548 1.574 1_554 S
C2556 H2551 0.949 . S
C2556 C2562 1.368 . S
C2557 C2541 1.349 . S
C2557 H2549 0.950 . S
C2557 C2555 1.327 . S
C2558 C2546 1.349 . S
C2558 H2552 0.950 . S
C2558 C2559 1.327 . S
C2559 H2553 0.950 . S
C2559 C2558 1.327 . S
C2559 C2563 1.429 . S
C2560 C2543 1.574 1_556 S
C2560 H2554 0.949 . S
C2560 C2564 1.368 . S
C2561 C2542 1.429 . S
C2561 C2555 1.429 . S
C2561 C2562 1.523 . S
C2562 C2543 1.368 . S
C2562 C2556 1.368 . S
C2562 C2561 1.523 . S
C2563 C2547 1.429 . S
C2563 C2559 1.429 . S
C2563 C2564 1.523 . S
C2564 C2548 1.368 . S
C2564 C2560 1.368 . S
C2564 C2563 1.523 . S
H2565 C2540 0.950 . S
H2566 C2542 0.950 . S
H2567 C2543 0.949 . S
H2568 C2545 0.950 . S
H2569 C2547 0.950 . S
C2570 C2571 1.349 . S
C2570 C2572 1.327 . S
C2570 H2595 0.950 . S
C2571 C2570 1.349 . S
C2571 C2587 1.349 . S
C2572 C2570 1.327 . S
C2572 C2591 1.429 . S
C2572 H2596 0.950 . S
C2573 C2590 1.574 . S
C2573 C2592 1.368 . S
C2573 H2597 0.949 . S
H2574 C2578 0.949 . S
C2575 C2576 1.349 . S
C2575 C2577 1.327 . S
C2575 H2598 0.950 . S
C2576 C2575 1.349 . S
C2576 C2588 1.349 . S
C2577 C2575 1.327 . S
C2577 C2593 1.429 . S
C2577 H2599 0.950 . S
C2578 H2574 0.949 . S
C2578 C2586 1.574 . S
C2578 C2594 1.368 . S
H2579 C2587 0.950 . S
H2580 C2585 0.950 . S
H2581 C2586 0.949 . S
H2582 C2588 0.950 . S
H2583 C2589 0.950 . S
H2584 C2590 0.949 . S
C2585 H2580 0.950 . S
C2585 C2587 1.327 . S
C2585 C2591 1.429 . S
C2586 C2578 1.574 . S
C2586 H2581 0.949 . S
C2586 C2592 1.368 . S
C2587 C2571 1.349 . S
C2587 H2579 0.950 . S
C2587 C2585 1.327 . S
C2588 C2576 1.349 . S
C2588 H2582 0.950 . S
C2588 C2589 1.327 . S
C2589 H2583 0.950 . S
C2589 C2588 1.327 . S
C2589 C2593 1.429 . S
C2590 C2573 1.574 . S
C2590 H2584 0.949 . S
C2590 C2594 1.368 . S
C2591 C2572 1.429 . S
C2591 C2585 1.429 . S
C2591 C2592 1.523 . S
C2592 C2573 1.368 . S
C2592 C2586 1.368 . S
C2592 C2591 1.523 . S
C2593 C2577 1.429 . S
C2593 C2589 1.429 . S
C2593 C2594 1.523 . S
C2594 C2578 1.368 . S
C2594 C2590 1.368 . S
C2594 C2593 1.523 . S
H2595 C2570 0.950 . S
H2596 C2572 0.950 . S
H2597 C2573 0.949 . S
H2598 C2575 0.950 . S
H2599 C2577 0.950 . S
C2600 C2601 1.349 . S
C2600 C2602 1.327 . S
C2600 H2625 0.950 . S
C2601 C2600 1.349 . S
C2601 C2617 1.349 . S
C2602 C2600 1.327 . S
C2602 C2621 1.429 . S
C2602 H2626 0.950 . S
C2603 C2620 1.574 . S
C2603 C2622 1.368 . S
C2603 H2627 0.949 . S
H2604 C2608 0.949 . S
C2605 C2606 1.349 . S
C2605 C2607 1.327 . S
C2605 H2628 0.950 . S
C2606 C2605 1.349 . S
C2606 C2618 1.349 . S
C2607 C2605 1.327 . S
C2607 C2623 1.429 . S
C2607 H2629 0.950 . S
C2608 H2604 0.949 . S
C2608 C2616 1.574 . S
C2608 C2624 1.368 . S
H2609 C2617 0.950 . S
H2610 C2615 0.950 . S
H2611 C2616 0.949 . S
H2612 C2618 0.950 . S
H2613 C2619 0.950 . S
H2614 C2620 0.949 . S
C2615 H2610 0.950 . S
C2615 C2617 1.327 . S
C2615 C2621 1.429 . S
C2616 C2608 1.574 . S
C2616 H2611 0.949 . S
C2616 C2622 1.368 . S
C2617 C2601 1.349 . S
C2617 H2609 0.950 . S
C2617 C2615 1.327 . S
C2618 C2606 1.349 . S
C2618 H2612 0.950 . S
C2618 C2619 1.327 . S
C2619 H2613 0.950 . S
C2619 C2618 1.327 . S
C2619 C2623 1.429 . S
C2620 C2603 1.574 . S
C2620 H2614 0.949 . S
C2620 C2624 1.368 . S
C2621 C2602 1.429 . S
C2621 C2615 1.429 . S
C2621 C2622 1.523 . S
C2622 C2603 1.368 . S
C2622 C2616 1.368 . S
C2622 C2621 1.523 . S
C2623 C2607 1.429 . S
C2623 C2619 1.429 . S
C2623 C2624 1.523 . S
C2624 C2608 1.368 . S
C2624 C2620 1.368 . S
C2624 C2623 1.523 . S
H2625 C2600 0.950 . S
H2626 C2602 0.950 . S
H2627 C2603 0.949 . S
H2628 C2605 0.950 . S
H2629 C2607 0.950 . S
C2630 C2631 1.349 . S
C2630 C2632 1.327 . S
C2630 H2655 0.950 . S
C2631 C2630 1.349 . S
C2631 C2647 1.349 . S
C2632 C2630 1.327 . S
C2632 C2651 1.429 . S
C2632 H2656 0.950 . S
C2633 C2650 1.574 . S
C2633 C2652 1.368 . S
C2633 H2657 0.949 . S
H2634 C2638 0.949 . S
C2635 C2636 1.349 . S
C2635 C2637 1.327 . S
C2635 H2658 0.950 . S
C2636 C2635 1.349 . S
C2636 C2648 1.349 . S
C2637 C2635 1.327 . S
C2637 C2653 1.429 . S
C2637 H2659 0.950 . S
C2638 H2634 0.949 . S
C2638 C2646 1.574 . S
C2638 C2654 1.368 . S
H2639 C2647 0.950 . S
H2640 C2645 0.950 . S
H2641 C2646 0.949 . S
H2642 C2648 0.950 . S
H2643 C2649 0.950 . S
H2644 C2650 0.949 . S
C2645 H2640 0.950 . S
C2645 C2647 1.327 . S
C2645 C2651 1.429 . S
C2646 C2638 1.574 . S
C2646 H2641 0.949 . S
C2646 C2652 1.368 . S
C2647 C2631 1.349 . S
C2647 H2639 0.950 . S
C2647 C2645 1.327 . S
C2648 C2636 1.349 . S
C2648 H2642 0.950 . S
C2648 C2649 1.327 . S
C2649 H2643 0.950 . S
C2649 C2648 1.327 . S
C2649 C2653 1.429 . S
C2650 C2633 1.574 . S
C2650 H2644 0.949 . S
C2650 C2654 1.368 . S
C2651 C2632 1.429 . S
C2651 C2645 1.429 . S
C2651 C2652 1.523 . S
C2652 C2633 1.368 . S
C2652 C2646 1.368 . S
C2652 C2651 1.523 . S
C2653 C2637 1.429 . S
C2653 C2649 1.429 . S
C2653 C2654 1.523 . S
C2654 C2638 1.368 . S
C2654 C2650 1.368 . S
C2654 C2653 1.523 . S
H2655 C2630 0.950 . S
H2656 C2632 0.950 . S
H2657 C2633 0.949 . S
H2658 C2635 0.950 . S
H2659 C2637 0.950 . S
C2660 C2661 1.349 . S
C2660 C2662 1.327 . S
C2660 H2685 0.950 . S
C2661 C2660 1.349 . S
C2661 C2677 1.349 . S
C2662 C2660 1.327 . S
C2662 C2681 1.429 . S
C2662 H2686 0.950 . S
C2663 C2680 1.574 1_556 S
C2663 C2682 1.368 . S
C2663 H2687 0.949 . S
H2664 C2668 0.949 . S
C2665 C2666 1.349 . S
C2665 C2667 1.327 . S
C2665 H2688 0.950 . S
C2666 C2665 1.349 . S
C2666 C2678 1.349 . S
C2667 C2665 1.327 . S
C2667 C2683 1.429 . S
C2667 H2689 0.950 . S
C2668 H2664 0.949 . S
C2668 C2676 1.574 1_554 S
C2668 C2684 1.368 . S
H2669 C2677 0.950 . S
H2670 C2675 0.950 . S
H2671 C2676 0.949 . S
H2672 C2678 0.950 . S
H2673 C2679 0.950 . S
H2674 C2680 0.949 . S
C2675 H2670 0.950 . S
C2675 C2677 1.327 . S
C2675 C2681 1.429 . S
C2676 C2668 1.574 1_556 S
C2676 H2671 0.949 . S
C2676 C2682 1.368 . S
C2677 C2661 1.349 . S
C2677 H2669 0.950 . S
C2677 C2675 1.327 . S
C2678 C2666 1.349 . S
C2678 H2672 0.950 . S
C2678 C2679 1.327 . S
C2679 H2673 0.950 . S
C2679 C2678 1.327 . S
C2679 C2683 1.429 . S
C2680 C2663 1.574 1_554 S
C2680 H2674 0.949 . S
C2680 C2684 1.368 . S
C2681 C2662 1.429 . S
C2681 C2675 1.429 . S
C2681 C2682 1.523 . S
C2682 C2663 1.368 . S
C2682 C2676 1.368 . S
C2682 C2681 1.523 . S
C2683 C2667 1.429 . S
C2683 C2679 1.429 . S
C2683 C2684 1.523 . S
C2684 C2668 1.368 . S
C2684 C2680 1.368 . S
C2684 C2683 1.523 . S
H2685 C2660 0.950 . S
H2686 C2662 0.950 . S
H2687 C2663 0.949 . S
H2688 C2665 0.950 . S
H2689 C2667 0.950 . S
C2690 C2691 1.349 . S
C2690 C2692 1.327 . S
C2690 H2715 0.950 . S
C2691 C2690 1.349 . S
C2691 C2707 1.349 . S
C2692 C2690 1.327 . S
C2692 C2711 1.429 . S
C2692 H2716 0.950 . S
C2693 C2710 1.574 . S
C2693 C2712 1.368 . S
C2693 H2717 0.949 . S
H2694 C2698 0.949 . S
C2695 C2696 1.349 . S
C2695 C2697 1.327 . S
C2695 H2718 0.950 . S
C2696 C2695 1.349 . S
C2696 C2708 1.349 . S
C2697 C2695 1.327 . S
C2697 C2713 1.429 . S
C2697 H2719 0.950 . S
C2698 H2694 0.949 . S
C2698 C2706 1.574 . S
C2698 C2714 1.368 . S
H2699 C2707 0.950 . S
H2700 C2705 0.950 . S
H2701 C2706 0.949 . S
H2702 C2708 0.950 . S
H2703 C2709 0.950 . S
H2704 C2710 0.949 . S
C2705 H2700 0.950 . S
C2705 C2707 1.327 . S
C2705 C2711 1.429 . S
C2706 C2698 1.574 . S
C2706 H2701 0.949 . S
C2706 C2712 1.368 . S
C2707 C2691 1.349 . S
C2707 H2699 0.950 . S
C2707 C2705 1.327 . S
C2708 C2696 1.349 . S
C2708 H2702 0.950 . S
C2708 C2709 1.327 . S
C2709 H2703 0.950 . S
C2709 C2708 1.327 . S
C2709 C2713 1.429 . S
C2710 C2693 1.574 . S
C2710 H2704 0.949 . S
C2710 C2714 1.368 . S
C2711 C2692 1.429 . S
C2711 C2705 1.429 . S
C2711 C2712 1.523 . S
C2712 C2693 1.368 . S
C2712 C2706 1.368 . S
C2712 C2711 1.523 . S
C2713 C2697 1.429 . S
C2713 C2709 1.429 . S
C2713 C2714 1.523 . S
C2714 C2698 1.368 . S
C2714 C2710 1.368 . S
C2714 C2713 1.523 . S
H2715 C2690 0.950 . S
H2716 C2692 0.950 . S
H2717 C2693 0.949 . S
H2718 C2695 0.950 . S
H2719 C2697 0.950 . S
C1281 C975 2.027 . S
C1286 C15 2.018 . S
C1311 C55 2.024 . S
C1316 C375 2.032 . S
C1341 C1055 2.027 . S
C1346 C95 2.018 . S
C1371 C135 2.019 . S
C1376 C455 2.027 . S
C1401 C175 2.018 . S
C1406 C1135 2.027 . S
C1431 C215 2.019 . S
C1436 C535 2.027 . S
C1461 C255 2.018 . S
C1466 C1215 2.027 . S
C1491 C615 2.032 . S
C1496 C295 2.024 . S
C1521 C655 2.018 . S
C1526 C335 2.027 . S
C1551 C415 2.027 . S
C1556 C735 2.018 . S
C1581 C815 2.018 . S
C1586 C495 2.027 . S
C1611 C895 2.018 . S
C1616 C575 2.027 . S
C1641 C1015 2.027 . S
C1646 C695 2.019 . S
C1671 C775 2.024 . S
C1676 C1095 2.032 . S
C1701 C1175 2.032 . S
C1706 C855 2.024 . S
C1731 C1255 2.027 . S
C1736 C935 2.019 . S
C1761 C842 1.763 . S
C1766 C2 1.763 . S
C1791 C882 1.763 . S
C1796 C42 1.763 . S
C1821 C82 1.763 . S
C1826 C922 1.763 . S
C1851 C122 1.763 . S
C1856 C802 1.763 . S
C1881 C762 1.763 . S
C1886 C162 1.763 . S
C1911 C202 1.763 . S
C1916 C642 1.763 . S
C1941 C242 1.763 . S
C1946 C682 1.763 . S
C1971 C282 1.763 . S
C1976 C722 1.763 . S
C2001 C322 1.802 . S
C2006 C1162 1.802 . S
C2031 C362 1.802 . S
C2036 C1202 1.802 . S
C2061 C1242 1.802 . S
C2066 C402 1.802 . S
C2091 C442 1.802 . S
C2096 C1122 1.802 . S
C2121 C1082 1.802 . S
C2126 C482 1.802 . S
C2151 C522 1.802 . S
C2156 C962 1.802 . S
C2181 C1002 1.802 . S
C2186 C562 1.802 . S
C2211 C1042 1.802 . S
C2216 C602 1.802 . S
C2241 C261 1.660 . S
C2246 C21 1.660 . S
C2271 C301 1.660 . S
C2276 C61 1.660 . S
C2301 C181 1.660 . S
C2306 C101 1.660 . S
C2331 C221 1.660 . S
C2336 C141 1.660 . S
C2361 C341 1.713 . S
C2366 C581 1.713 . S
C2391 C621 1.713 . S
C2396 C381 1.713 . S
C2421 C421 1.713 . S
C2426 C501 1.713 . S
C2451 C541 1.714 . S
C2456 C461 1.714 . S
C2481 C661 1.660 . S
C2486 C901 1.660 . S
C2511 C701 1.660 . S
C2516 C941 1.660 . S
C2541 C741 1.660 . S
C2546 C821 1.660 . S
C2571 C781 1.660 . S
C2576 C861 1.660 . S
C2601 C1221 1.713 . S
C2606 C981 1.713 . S
C2631 C1261 1.714 . S
C2636 C1021 1.714 . S
C2661 C1061 1.713 . S
C2666 C1141 1.713 . S
C2691 C1181 1.713 . S
C2696 C1101 1.713 . S
