# Generated by pormake.
# Topology qtz-x, (6)-cn, num edge types: 1
# Building blocks:
#     Node 0, Type 0, BuildingBlock: BETFEN_clean_sbu_0, # of connection points: 6
#     Node 1, Type 0, BuildingBlock: BETFEN_clean_sbu_0, # of connection points: 6
#     Node 2, Type 0, BuildingBlock: BETFEN_clean_sbu_0, # of connection points: 6
#     Edge 3, Type (0, 0), BuildingBlock: TEMPAE_clean_linker_10, # of connection points: 2
#     Edge 4, Type (0, 0), BuildingBlock: TEMPAE_clean_linker_10, # of connection points: 2
#     Edge 5, Type (0, 0), BuildingBlock: TEMPAE_clean_linker_10, # of connection points: 2
#     Edge 6, Type (0, 0), BuildingBlock: TEMPAE_clean_linker_10, # of connection points: 2
#     Edge 7, Type (0, 0), BuildingBlock: TEMPAE_clean_linker_10, # of connection points: 2
#     Edge 8, Type (0, 0), BuildingBlock: TEMPAE_clean_linker_10, # of connection points: 2
#     Edge 9, Type (0, 0), BuildingBlock: TEMPAE_clean_linker_10, # of connection points: 2
#     Edge 10, Type (0, 0), BuildingBlock: TEMPAE_clean_linker_10, # of connection points: 2
#     Edge 11, Type (0, 0), BuildingBlock: TEMPAE_clean_linker_10, # of connection points: 2
# Relax obj value: 0.233
# Max RMSD: 0.263
# Mean RMSD: 0.239
data_MOF--net-qtz-x--node1-BETFEN_clean_sbu_0--edge1-TEMPAE_clean_linker_10
_symmetry_space_group_name_H-M    P1
_symmetry_Int_Tables_number       1
_symmetry_cell_setting            triclinic
loop_
_symmetry_equiv_pos_as_xyz
'x, y, z'
_cell_length_a     14.924163
_cell_length_b     14.979485
_cell_length_c     54.34746
_cell_angle_alpha  68.221287
_cell_angle_beta   114.20113
_cell_angle_gamma 121.17448
loop_
_atom_site_label
_atom_site_type_symbol
_atom_site_fract_x
_atom_site_fract_y
_atom_site_fract_z
_atom_type_partial_charge
Pr0 Pr 1.02316 0.61668 0.19454 0.0
Pr1 Pr 0.24685 0.77873 0.18026 0.0
C2 C 0.86507 0.46066 0.21856 0.0
C3 C 0.85077 0.43317 0.24612 0.0
C4 C 0.92536 0.50019 0.265 0.0
C5 C 0.91409 0.47295 0.29146 0.0
C6 C 0.82754 0.37823 0.29958 0.0
C7 C 0.75239 0.31171 0.28047 0.0
C8 C 0.76413 0.33891 0.25399 0.0
C9 C 0.07107 0.83261 0.18309 0.0
C10 C 0.25488 0.69974 0.24565 0.0
C11 C 0.399 0.94797 0.1573 0.0
C12 C 0.43351 0.96001 0.13385 0.0
C13 C 0.46484 0.88612 0.13387 0.0
C14 C 0.47808 0.88553 0.10995 0.0
C15 C 0.45967 0.95824 0.08535 0.0
C16 C 0.43348 0.03548 0.08566 0.0
C17 C 0.42047 0.03625 0.10968 0.0
C18 C 0.20354 0.57136 0.18029 0.0
C19 C 1.02039 0.68921 0.13068 0.0
O20 O 0.94417 0.44805 0.21776 0.0
O21 O 0.86053 0.54953 0.2028 0.0
O22 O 0.13826 0.79308 0.19759 0.0
O23 O 0.97501 0.75975 0.17398 0.0
O24 O 0.30919 0.77241 0.22763 0.0
O25 O 0.15223 0.63036 0.23795 0.0
O26 O 0.2998 0.93785 0.15089 0.0
O27 O 0.42339 0.88311 0.18025 0.0
O28 O 0.14548 0.59741 0.18506 0.0
O29 O 0.29063 0.65541 0.17571 0.0
O30 O 0.97606 0.60473 0.14874 0.0
O31 O 0.10927 0.77347 0.13865 0.0
H32 H 0.99252 0.57368 0.25928 0.0
H33 H 0.97273 0.52664 0.3055 0.0
H34 H 0.68563 0.23758 0.28614 0.0
H35 H 0.70603 0.28596 0.23974 0.0
H36 H 0.47508 0.8258 0.15205 0.0
H37 H 0.50047 0.82636 0.11057 0.0
H38 H 0.41827 0.0923 0.06703 0.0
H39 H 0.39535 0.0934 0.10904 0.0
Pr40 Pr 0.83948 0.18313 0.55738 0.0
Pr41 Pr 0.7365 0.94318 0.55095 0.0
C42 C 0.86422 0.35235 0.57035 0.0
C43 C 0.91017 0.38858 0.5966 0.0
C44 C 0.99811 0.48899 0.59944 0.0
C45 C 1.04499 0.52146 0.62467 0.0
C46 C 1.00432 0.4542 0.64754 0.0
C47 C 0.91542 0.35415 0.64445 0.0
C48 C 0.86944 0.3215 0.61941 0.0
C49 C 1.00781 0.13496 0.56355 0.0
C50 C 0.83234 -0.01751 0.61345 0.0
C51 C 0.66207 0.7689 0.53148 0.0
C52 C 0.6235 0.75537 0.50283 0.0
C53 C 0.58969 0.82879 0.48132 0.0
C54 C 0.55457 0.81908 0.45401 0.0
C55 C 0.54941 0.73381 0.44745 0.0
C56 C 0.58292 0.65967 0.46912 0.0
C57 C 0.62022 0.67077 0.49658 0.0
C58 C 0.59769 0.00377 0.55595 0.0
C59 C 0.7758 0.14962 0.49552 0.0
O60 O 0.77315 0.26494 0.56809 0.0
O61 O 0.93336 0.35773 0.56027 0.0
O62 O 0.90752 0.07382 0.55931 0.0
O63 O 1.02492 0.22681 0.56542 0.0
O64 O 0.81066 0.91648 0.5988 0.0
O65 O 0.83493 0.07847 0.6019 0.0
O66 O 0.76611 0.82874 0.54045 0.0
O67 O 0.60085 0.78919 0.53825 0.0
O68 O 0.6639 0.06042 0.54123 0.0
O69 O 0.60102 0.91236 0.56816 0.0
O70 O 0.80141 0.21891 0.50957 0.0
O71 O 0.75432 0.04843 0.50706 0.0
H72 H 1.03136 0.54185 0.58221 0.0
H73 H 0.11392 0.59861 0.62633 0.0
H74 H 0.88012 0.30098 0.66133 0.0
H75 H 0.80206 0.24326 0.61804 0.0
H76 H 0.59022 0.89409 0.48559 0.0
H77 H 0.5322 0.87932 0.43804 0.0
H78 H 0.57887 0.59219 0.46495 0.0
H79 H 0.64556 0.61297 0.5129 0.0
Pr80 Pr 0.78691 0.82792 0.86138 0.0
Pr81 Pr 0.96194 0.75242 0.88123 0.0
C82 C 0.61058 0.84826 0.8561 0.0
C83 C 0.56866 0.84943 0.87627 0.0
C84 C 0.55088 0.93697 0.873 0.0
C85 C 0.52691 0.94693 0.89392 0.0
C86 C 0.51959 0.86912 0.91833 0.0
C87 C 0.53272 0.77933 0.9211 0.0
C88 C 0.55718 0.76951 0.9003 0.0
C89 C 0.99453 -0.00527 0.86443 0.0
C90 C 0.9012 0.7668 0.92923 0.0
C91 C 0.12951 0.71546 0.88778 0.0
C92 C 0.14862 0.67569 0.87014 0.0
C93 C 0.07083 0.57925 0.86155 0.0
C94 C 0.0759 0.5535 0.84016 0.0
C95 C 0.15823 0.62383 0.82676 0.0
C96 C 0.2411 0.71612 0.83681 0.0
C97 C 0.23619 0.74185 0.85836 0.0
C98 C 0.75047 0.59068 0.87728 0.0
C99 C 0.85271 0.8154 0.81298 0.0
O100 O 0.60702 0.7577 0.85724 0.0
O101 O 0.70178 0.92998 0.85238 0.0
O102 O 0.97195 0.90897 0.8823 0.0
O103 O 0.90839 -0.00119 0.84507 0.0
O104 O 0.98439 0.77983 0.92305 0.0
O105 O 0.81192 0.76749 0.90967 0.0
O106 O 0.12946 0.80928 0.87733 0.0
O107 O 1.05137 0.648 0.89969 0.0
O108 O 0.77898 0.67443 0.85939 0.0
O109 O 0.83265 0.58662 0.8982 0.0
O110 O 0.77465 0.81736 0.81815 0.0
O111 O 0.93552 0.80241 0.83314 0.0
H112 H 0.56004 -0.00013 0.85476 0.0
H113 H 0.51927 0.01778 0.89157 0.0
H114 H 0.52643 0.71795 0.93966 0.0
H115 H 0.57082 0.70117 0.90352 0.0
H116 H 1.00241 0.52622 0.87022 0.0
H117 H 1.01239 0.48051 0.83328 0.0
H118 H 0.3057 0.77174 0.82692 0.0
H119 H 0.29691 0.81673 0.86462 0.0
C120 C 1.02328 -0.01264 0.16131 0.0
C121 C 0.0915 0.94204 0.18186 0.0
C122 C 1.03886 0.08949 0.16042 0.0
C123 C 0.12286 0.14664 0.18105 0.0
C124 C 0.19153 0.10064 0.20199 0.0
C125 C 0.17602 -0.00034 0.2019 0.0
C126 C 0.96587 0.13655 0.13727 0.0
C127 C 0.28063 0.15753 0.2247 0.0
C128 C 0.2353 0.44898 0.1673 0.0
C129 C 0.17902 0.46226 0.17997 0.0
C130 C 0.21618 0.34701 0.16704 0.0
C131 C 0.14072 0.25551 0.18038 0.0
C132 C 0.08355 0.26849 0.19324 0.0
C133 C 0.10241 0.37175 0.19258 0.0
C134 C 0.27694 0.33731 0.15247 0.0
C135 C 1.00399 0.17333 0.20815 0.0
H136 H 0.95807 0.94317 0.14573 0.0
H137 H 0.2284 0.96456 0.21798 0.0
H138 H 0.92072 0.15269 0.14574 0.0
H139 H 1.01581 0.21389 0.1259 0.0
H140 H 0.90609 0.08307 0.12247 0.0
H141 H 0.32397 0.10916 0.24008 0.0
H142 H 0.34085 0.23392 0.21585 0.0
H143 H 0.24573 0.17696 0.23547 0.0
H144 H 0.29414 0.51875 0.15735 0.0
H145 H 0.05913 0.38171 0.2025 0.0
H146 H 0.21843 0.28695 0.13692 0.0
H147 H 0.32938 0.2976 0.16747 0.0
H148 H 0.32894 0.41601 0.14197 0.0
H149 H 0.93792 0.12048 0.19375 0.0
H150 H 0.96691 0.19674 0.21732 0.0
H151 H 1.04602 0.12613 0.22481 0.0
C152 C 0.4661 0.97219 0.57878 0.0
C153 C 0.51671 0.03003 0.55737 0.0
C154 C 0.38417 -0.01067 0.5801 0.0
C155 C 0.34981 0.06491 0.55917 0.0
C156 C 0.40123 0.1243 0.53753 0.0
C157 C 0.48493 0.10699 0.53705 0.0
C158 C 0.33412 0.92608 0.60393 0.0
C159 C 0.3663 0.20465 0.51461 0.0
C160 C 0.06749 0.03287 0.55067 0.0
C161 C 0.09362 0.11262 0.56337 0.0
C162 C 0.14987 0.01768 0.54868 0.0
C163 C 0.26106 0.08221 0.56022 0.0
C164 C 0.28739 0.16148 0.57352 0.0
C165 C 0.20359 0.17651 0.57461 0.0
C166 C 0.11795 0.93345 0.53393 0.0
C167 C 0.40423 0.23016 0.58678 0.0
H168 H 0.49071 0.91298 0.59466 0.0
H169 H 0.52329 0.15148 0.52038 0.0
H170 H 0.34166 -0.01915 0.61466 0.0
H171 H 0.24597 0.8758 0.59619 0.0
H172 H 0.37304 0.87364 0.61913 0.0
H173 H 0.41302 0.24322 0.4991 0.0
H174 H 0.27836 0.16502 0.50408 0.0
H175 H 0.37734 0.26742 0.52318 0.0
H176 H 0.98272 -0.01572 0.54162 0.0
H177 H 0.22426 0.23833 0.58446 0.0
H178 H 0.14704 0.87276 0.54835 0.0
H179 H 0.15738 0.97 0.51697 0.0
H180 H 1.02839 0.89272 0.52518 0.0
H181 H 0.44363 0.17911 0.60256 0.0
H182 H 0.41107 0.28695 0.59674 0.0
H183 H 0.45047 0.27616 0.57111 0.0
C184 C 0.11339 0.19069 0.85902 0.0
C185 C 0.10306 0.08613 0.86722 0.0
C186 C 0.2165 0.27831 0.86109 0.0
C187 C 0.31076 0.26068 0.87017 0.0
C188 C 0.29977 0.15484 0.8779 0.0
C189 C 0.19654 0.06909 0.87737 0.0
C190 C 0.22404 0.38876 0.85456 0.0
C191 C 0.39592 0.13057 0.88642 0.0
C192 C 0.5654 0.48592 0.84966 0.0
C193 C 0.63686 0.51012 0.87524 0.0
C194 C 0.45848 0.4055 0.84762 0.0
C195 C 0.42086 0.35192 0.87158 0.0
C196 C 0.49155 0.38035 0.89724 0.0
C197 C 0.59962 0.45747 0.89886 0.0
C198 C 0.38725 0.37514 0.82004 0.0
C199 C 0.4534 0.32875 0.92301 0.0
H200 H 1.04094 0.20387 0.85164 0.0
H201 H 0.18883 -0.01144 0.88404 0.0
H202 H 0.24995 0.41367 0.87417 0.0
H203 H 0.28543 0.44815 0.84317 0.0
H204 H 0.14441 0.39104 0.84231 0.0
H205 H 0.36974 0.05404 0.88123 0.0
H206 H 0.46028 0.19376 0.87624 0.0
H207 H 0.43168 0.12274 0.90904 0.0
H208 H 0.59454 0.52714 0.8314 0.0
H209 H 0.65466 0.47781 0.91857 0.0
H210 H 0.3138 0.3888 0.81353 0.0
H211 H 0.35914 0.28895 0.82179 0.0
H212 H 0.43039 0.42141 0.8037 0.0
H213 H 0.37334 0.32724 0.91882 0.0
H214 H 0.51235 0.37094 0.9402 0.0
H215 H 0.44255 0.24509 0.92977 0.0
C216 C 0.41757 0.90088 0.93859 0.0
C217 C 0.50669 0.88528 0.94171 0.0
C218 C 0.40567 0.91679 0.96079 0.0
C219 C 0.48571 0.91825 0.98656 0.0
C220 C 0.57659 0.90376 0.98959 0.0
C221 C 0.58544 0.88661 0.96718 0.0
C222 C 0.30783 0.93248 0.95655 0.0
C223 C 0.6639 0.90488 1.01662 0.0
C224 C 0.51248 0.0407 0.0408 0.0
C225 C 0.46284 0.94958 0.05932 0.0
C226 C 0.51802 0.03211 1.0166 0.0
C227 C 0.47282 0.93005 1.0108 0.0
C228 C 0.42011 0.83814 1.02904 0.0
C229 C 0.41575 0.84901 0.05301 0.0
C230 C 0.57494 0.13192 0.99764 0.0
C231 C 0.36893 0.72806 1.02331 0.0
H232 H 0.35636 0.89889 0.91891 0.0
H233 H 0.65485 0.87545 0.96944 0.0
H234 H 0.27144 0.885 0.97409 0.0
H235 H 0.33372 0.01761 0.95544 0.0
H236 H 0.24418 0.90996 0.9372 0.0
H237 H 0.73593 0.90684 1.01454 0.0
H238 H 0.6913 -0.02499 1.02494 0.0
H239 H 0.63022 0.83245 1.03194 0.0
H240 H 0.54938 0.11863 0.04556 0.0
H241 H 0.37466 0.77837 0.06682 0.0
H242 H 0.52076 0.13432 0.9763 0.0
H243 H 0.64837 0.13148 0.99717 0.0
H244 H 0.60021 0.2055 1.00418 0.0
H245 H 0.30923 0.72411 1.00265 0.0
H246 H 0.32665 0.66508 0.03889 0.0
H247 H 0.43245 0.71071 1.02313 0.0
C248 C 0.79025 0.28944 0.45161 0.0
C249 C 0.77555 0.18543 0.466 0.0
C250 C 0.79514 0.32404 0.42409 0.0
C251 C 0.78552 0.25315 0.41067 0.0
C252 C 0.76883 0.14765 0.42494 0.0
C253 C 0.76439 0.11538 0.45233 0.0
C254 C 0.81212 0.43691 0.40949 0.0
C255 C 0.75762 0.06909 0.41146 0.0
C256 C 0.71432 0.30528 0.33239 0.0
C257 C 0.8167 0.34854 0.32798 0.0
C258 C 0.70314 0.27591 0.35911 0.0
C259 C 0.79649 0.28969 0.38204 0.0
C260 C 0.90014 0.33411 0.37771 0.0
C261 C 0.90896 0.363 0.35079 0.0
C262 C 0.59126 0.22919 0.36281 0.0
C263 C 1.00167 0.34913 0.40157 0.0
H264 H 0.79892 0.34425 0.4619 0.0
H265 H 0.7544 0.0353 0.46321 0.0
H266 H 0.89029 0.48073 0.40395 0.0
H267 H 0.74639 0.43679 0.39001 0.0
H268 H 0.81347 0.48077 0.42233 0.0
H269 H 0.74391 -0.01038 0.42531 0.0
H270 H 0.68849 0.0589 0.39252 0.0
H271 H 0.83229 0.10004 0.40521 0.0
H272 H 0.64279 0.29512 0.31488 0.0
H273 H 0.98818 0.39494 0.34765 0.0
H274 H 0.59083 0.27581 0.37453 0.0
H275 H 0.56954 0.14643 0.37498 0.0
H276 H 0.52756 0.22796 0.34282 0.0
H277 H 0.99522 0.27058 0.41506 0.0
H278 H 1.01018 0.3979 0.41426 0.0
H279 H 0.07656 0.38852 0.39467 0.0
C280 C 0.93069 0.82325 0.77867 0.0
C281 C 0.84865 0.82742 0.78411 0.0
C282 C 0.93114 0.83892 0.75154 0.0
C283 C 0.84742 0.85916 0.72915 0.0
C284 C 0.76236 0.85974 0.7345 0.0
C285 C 0.76412 0.84416 0.76185 0.0
C286 C 1.0231 0.83703 0.74684 0.0
C287 C 0.67065 0.87941 0.71126 0.0
C288 C 0.8996 0.02546 0.65981 0.0
C289 C 0.84738 0.94809 0.64374 0.0
C290 C 0.90387 -0.00294 0.68781 0.0
C291 C 0.85311 0.88836 0.70017 0.0
C292 C 0.80381 0.80931 0.68438 0.0
C293 C 0.802 0.84011 0.65635 0.0
C294 C 0.95959 0.0842 0.70386 0.0
C295 C 0.74819 0.6926 0.69666 0.0
H296 H 0.99596 0.80924 0.79564 0.0
H297 H 0.69984 0.84659 0.76574 0.0
H298 H 0.99023 0.77883 0.73384 0.0
H299 H 0.07029 0.91652 0.73561 0.0
H300 H 0.07948 0.81576 0.76644 0.0
H301 H 0.60607 0.86844 0.71881 0.0
H302 H 0.70306 0.96198 0.69923 0.0
H303 H 0.63343 0.8246 0.69699 0.0
H304 H 0.93577 0.10915 0.65035 0.0
H305 H 0.76083 0.77985 0.64407 0.0
H306 H 1.01523 0.06486 0.72387 0.0
H307 H 0.89764 0.09123 0.70836 0.0
H308 H 1.00719 0.16272 0.69233 0.0
H309 H 0.80002 0.67079 0.71713 0.0
H310 H 0.72813 0.6407 0.68316 0.0
H311 H 0.67153 0.67613 0.69972 0.0
C312 C 0.81656 0.72583 0.96605 0.0
C313 C 0.90708 0.74878 0.95857 0.0
C314 C 0.82158 0.70821 0.9938 0.0
C315 C 0.91954 0.71426 1.01457 0.0
C316 C 1.01071 0.73633 1.00716 0.0
C317 C 1.00328 0.75301 0.97933 0.0
C318 C 0.72267 0.68458 1.0009 0.0
C319 C 0.11699 0.74407 1.0286 0.0
C320 C 0.99338 0.78893 0.08209 0.0
C321 C 0.97612 0.69085 0.10072 0.0
C322 C 0.96977 0.79653 0.05382 0.0
C323 C 0.92958 0.70398 0.04388 0.0
C324 C 0.90708 0.60375 0.06239 0.0
C325 C 0.92993 0.59824 0.09064 0.0
C326 C 0.99313 0.90468 1.03481 0.0
C327 C 0.86481 0.50331 0.05265 0.0
H328 H 0.74155 0.72163 0.95024 0.0
H329 H 0.07351 0.77013 0.97386 0.0
H330 H 0.70062 0.60917 1.0164 0.0
H331 H 0.74132 0.74872 1.01026 0.0
H332 H 0.65117 0.67768 0.9826 0.0
H333 H 0.17785 0.75586 1.01957 0.0
H334 H 0.15169 0.81193 0.0386 0.0
H335 H 0.10322 0.67067 0.04493 0.0
H336 H 1.02853 0.86074 0.08978 0.0
H337 H 0.91757 0.52248 0.10501 0.0
H338 H 0.92176 0.90129 1.01665 0.0
H339 H 0.06253 0.92923 1.02709 0.0
H340 H 1.01377 0.96674 0.04527 0.0
H341 H 0.79354 0.49616 1.03428 0.0
H342 H 0.84088 0.4307 0.0689 0.0
H343 H 0.92893 0.50685 0.04643 0.0
C344 C 0.2593 0.61115 0.29499 0.0
C345 C 0.30678 0.6992 0.27553 0.0
C346 C 0.30183 0.612 0.32326 0.0
C347 C 0.39346 0.70365 0.33234 0.0
C348 C 0.44308 0.79209 0.31288 0.0
C349 C 0.39964 0.78848 0.28472 0.0
C350 C 0.24686 0.51575 0.34332 0.0
C351 C 0.53942 0.89219 0.32169 0.0
C352 C 0.42349 0.75118 0.39982 0.0
C353 C 0.50804 0.72277 0.41812 0.0
C354 C 0.38649 0.74629 0.3719 0.0
C355 C 0.43303 0.70949 0.36198 0.0
C356 C 0.5165 0.67819 0.38035 0.0
C357 C 0.55368 0.68608 0.40813 0.0
C358 C 0.2978 0.78117 0.35298 0.0
C359 C 0.5668 0.63677 0.37062 0.0
H360 H 0.18779 0.54157 0.28812 0.0
H361 H 0.43629 0.85715 0.26983 0.0
H362 H 0.30751 0.48895 0.35989 0.0
H363 H 0.2107 0.53701 0.35327 0.0
H364 H 0.18122 0.44818 0.33315 0.0
H365 H 0.57138 0.95229 0.30419 0.0
H366 H 0.51537 0.92836 0.331 0.0
H367 H 0.606 0.87283 0.33768 0.0
H368 H 0.38545 0.77708 0.40732 0.0
H369 H 0.61973 0.66501 0.42191 0.0
H370 H 0.22534 0.71358 0.34406 0.0
H371 H 0.32626 0.84534 0.33557 0.0
H372 H 0.27252 0.81093 0.36377 0.0
H373 H 0.5025 0.56732 0.36106 0.0
H374 H 0.6283 0.61227 0.38766 0.0
H375 H 0.60656 0.69911 0.35458 0.0
C376 C 0.24214 0.62037 0.79548 0.0
C377 C 0.15043 0.6055 0.80079 0.0
C378 C 0.23328 0.60218 0.7708 0.0
C379 C 0.13045 0.56899 0.75107 0.0
C380 C 1.0382 0.55564 0.75622 0.0
C381 C 1.04952 0.57457 0.7809 0.0
C382 C 0.33365 0.61864 0.76583 0.0
C383 C 0.92699 0.52045 0.73575 0.0
C384 C 0.08483 0.5935 0.67536 0.0
C385 C 1.05174 0.48809 0.67441 0.0
C386 C 0.11835 0.62303 0.70051 0.0
C387 C 0.11688 0.54492 0.72523 0.0
C388 C 0.08888 0.43983 0.72459 0.0
C389 C 0.05793 0.41312 0.69926 0.0
C390 C 0.1495 0.73645 0.70043 0.0
C391 C 0.0849 0.35374 0.75042 0.0
H392 H 0.32034 0.64464 0.81078 0.0
H393 H 0.979 0.56601 0.78454 0.0
H394 H 0.32048 0.54481 0.76178 0.0
H395 H 0.34992 0.68207 0.74725 0.0
H396 H 0.40679 0.64148 0.78359 0.0
H397 H 0.86303 0.51023 0.7434 0.0
H398 H 0.92886 0.58011 0.7161 0.0
H399 H 0.90359 0.44374 0.73114 0.0
H400 H 0.08005 0.65213 0.65636 0.0
H401 H 1.03557 0.33229 0.69888 0.0
H402 H 0.2243 0.76633 0.71724 0.0
H403 H 0.0834 0.73955 0.7041 0.0
H404 H 0.16349 0.79078 0.6805 0.0
H405 H 0.16206 0.38071 0.76684 0.0
H406 H 0.07035 0.27846 0.74678 0.0
H407 H 1.01841 0.33674 0.75822 0.0
loop_
_geom_bond_atom_site_label_1
_geom_bond_atom_site_label_2
_geom_bond_distance
_geom_bond_site_symmetry_2
_ccdc_geom_bond_type
Pr0 C2 2.880 . S
Pr0 O20 2.562 . S
Pr0 O21 2.490 . S
Pr0 O22 2.695 1_655 S
Pr0 O23 2.512 . S
Pr0 O25 2.437 1_655 S
Pr0 O28 2.436 . S
Pr0 O30 2.438 . S
Pr1 C11 2.880 . S
Pr1 O22 2.436 . S
Pr1 O24 2.438 . S
Pr1 O26 2.562 . S
Pr1 O27 2.490 . S
Pr1 O28 2.695 1_455 S
Pr1 O29 2.512 . S
Pr1 O31 2.437 1_455 S
C2 Pr0 2.880 . S
C2 C3 1.491 . S
C2 O20 1.254 . S
C2 O21 1.225 . S
C3 C2 1.491 . S
C3 C4 1.392 . S
C3 C8 1.356 . S
C4 C3 1.392 . S
C4 C5 1.368 . S
C4 H32 0.929 . S
C5 C4 1.368 . S
C5 C6 1.386 . S
C5 H33 0.929 . S
C6 C5 1.386 . S
C6 C7 1.373 . S
C7 C6 1.373 . S
C7 C8 1.409 . S
C7 H34 0.931 . S
C8 C3 1.356 . S
C8 C7 1.409 . S
C8 H35 0.930 . S
C9 O22 1.270 1_655 S
C9 O23 1.248 . S
C10 O24 1.267 . S
C10 O25 1.278 . S
C11 Pr1 2.880 . S
C11 C12 1.491 . S
C11 O26 1.254 . S
C11 O27 1.225 . S
C12 C11 1.491 . S
C12 C13 1.392 . S
C12 C17 1.356 . S
C13 C12 1.392 . S
C13 C14 1.368 . S
C13 H36 0.929 . S
C14 C13 1.368 . S
C14 C15 1.386 . S
C14 H37 0.929 . S
C15 C14 1.386 . S
C15 C16 1.373 1_565 S
C16 C15 1.373 1_545 S
C16 C17 1.409 1_545 S
C16 H38 0.931 . S
C17 C12 1.356 . S
C17 C16 1.409 1_565 S
C17 H39 0.930 1_565 S
C18 O28 1.270 1_455 S
C18 O29 1.248 . S
C19 O30 1.267 . S
C19 O31 1.278 . S
O20 Pr0 2.562 . S
O20 C2 1.254 . S
O21 Pr0 2.490 . S
O21 C2 1.225 . S
O22 Pr0 2.695 1_455 S
O22 Pr1 2.436 . S
O22 C9 1.270 1_455 S
O23 Pr0 2.512 . S
O23 C9 1.248 . S
O24 Pr1 2.438 . S
O24 C10 1.267 . S
O25 Pr0 2.437 1_455 S
O25 C10 1.278 . S
O26 Pr1 2.562 . S
O26 C11 1.254 . S
O27 Pr1 2.490 . S
O27 C11 1.225 . S
O28 Pr0 2.436 . S
O28 Pr1 2.695 1_655 S
O28 C18 1.270 1_655 S
O29 Pr1 2.512 . S
O29 C18 1.248 . S
O30 Pr0 2.438 . S
O30 C19 1.267 . S
O31 Pr1 2.437 1_655 S
O31 C19 1.278 . S
H32 C4 0.929 . S
H33 C5 0.929 . S
H34 C7 0.931 . S
H35 C8 0.930 . S
H36 C13 0.929 . S
H37 C14 0.929 . S
H38 C16 0.931 . S
H39 C17 0.930 1_545 S
Pr40 C42 2.880 . S
Pr40 O60 2.562 . S
Pr40 O61 2.490 . S
Pr40 O62 2.695 1_545 S
Pr40 O63 2.512 . S
Pr40 O65 2.437 . S
Pr40 O68 2.436 . S
Pr40 O70 2.438 . S
Pr41 C51 2.880 . S
Pr41 O62 2.436 . S
Pr41 O64 2.438 . S
Pr41 O66 2.562 . S
Pr41 O67 2.490 . S
Pr41 O68 2.695 1_565 S
Pr41 O69 2.512 . S
Pr41 O71 2.437 1_565 S
C42 Pr40 2.880 . S
C42 C43 1.491 . S
C42 O60 1.254 . S
C42 O61 1.225 . S
C43 C42 1.491 . S
C43 C44 1.392 1_655 S
C43 C48 1.356 . S
C44 C43 1.392 1_455 S
C44 C45 1.368 . S
C44 H72 0.929 . S
C45 C44 1.368 . S
C45 C46 1.386 1_455 S
C45 H73 0.929 . S
C46 C45 1.386 1_655 S
C46 C47 1.373 . S
C47 C46 1.373 . S
C47 C48 1.409 . S
C47 H74 0.931 . S
C48 C43 1.356 . S
C48 C47 1.409 . S
C48 H75 0.930 . S
C49 O62 1.270 1_545 S
C49 O63 1.248 . S
C50 O64 1.267 . S
C50 O65 1.278 1_565 S
C51 Pr41 2.880 . S
C51 C52 1.491 . S
C51 O66 1.254 . S
C51 O67 1.225 . S
C52 C51 1.491 . S
C52 C53 1.392 . S
C52 C57 1.356 . S
C53 C52 1.392 . S
C53 C54 1.368 . S
C53 H76 0.929 . S
C54 C53 1.368 . S
C54 C55 1.386 . S
C54 H77 0.929 . S
C55 C54 1.386 . S
C55 C56 1.373 . S
C56 C55 1.373 . S
C56 C57 1.409 . S
C56 H78 0.931 . S
C57 C52 1.356 . S
C57 C56 1.409 . S
C57 H79 0.930 . S
C58 O68 1.270 1_565 S
C58 O69 1.248 . S
C59 O70 1.267 . S
C59 O71 1.278 . S
O60 Pr40 2.562 . S
O60 C42 1.254 . S
O61 Pr40 2.490 . S
O61 C42 1.225 . S
O62 Pr40 2.695 1_565 S
O62 Pr41 2.436 . S
O62 C49 1.270 1_565 S
O63 Pr40 2.512 . S
O63 C49 1.248 . S
O64 Pr41 2.438 . S
O64 C50 1.267 . S
O65 Pr40 2.437 . S
O65 C50 1.278 1_545 S
O66 Pr41 2.562 . S
O66 C51 1.254 . S
O67 Pr41 2.490 . S
O67 C51 1.225 . S
O68 Pr40 2.436 . S
O68 Pr41 2.695 1_545 S
O68 C58 1.270 1_545 S
O69 Pr41 2.512 . S
O69 C58 1.248 . S
O70 Pr40 2.438 . S
O70 C59 1.267 . S
O71 Pr41 2.437 1_545 S
O71 C59 1.278 . S
H72 C44 0.929 . S
H73 C45 0.929 . S
H74 C47 0.931 . S
H75 C48 0.930 . S
H76 C53 0.929 . S
H77 C54 0.929 . S
H78 C56 0.931 . S
H79 C57 0.930 . S
Pr80 C82 2.880 . S
Pr80 O100 2.562 1_545 S
Pr80 O101 2.490 . S
Pr80 O102 2.695 . S
Pr80 O103 2.512 1_655 S
Pr80 O105 2.437 1_545 S
Pr80 O108 2.436 1_545 S
Pr80 O110 2.438 . S
Pr81 C91 2.880 1_655 S
Pr81 O102 2.436 1_565 S
Pr81 O104 2.438 . S
Pr81 O106 2.562 1_655 S
Pr81 O107 2.490 . S
Pr81 O108 2.695 . S
Pr81 O109 2.512 . S
Pr81 O111 2.437 . S
C82 Pr80 2.880 . S
C82 C83 1.491 . S
C82 O100 1.254 1_545 S
C82 O101 1.225 . S
C83 C82 1.491 . S
C83 C84 1.392 . S
C83 C88 1.356 1_545 S
C84 C83 1.392 . S
C84 C85 1.368 . S
C84 H112 0.929 . S
C85 C84 1.368 . S
C85 C86 1.386 . S
C85 H113 0.929 . S
C86 C85 1.386 . S
C86 C87 1.373 1_545 S
C87 C86 1.373 1_565 S
C87 C88 1.409 . S
C87 H114 0.931 . S
C88 C83 1.356 1_565 S
C88 C87 1.409 . S
C88 H115 0.930 . S
C89 O102 1.270 1_455 S
C89 O103 1.248 . S
C90 O104 1.267 . S
C90 O105 1.278 . S
C91 Pr81 2.880 1_455 S
C91 C92 1.491 . S
C91 O106 1.254 . S
C91 O107 1.225 1_455 S
C92 C91 1.491 . S
C92 C93 1.392 . S
C92 C97 1.356 . S
C93 C92 1.392 . S
C93 C94 1.368 . S
C93 H116 0.929 1_455 S
C94 C93 1.368 . S
C94 C95 1.386 . S
C94 H117 0.929 . S
C95 C94 1.386 . S
C95 C96 1.373 . S
C96 C95 1.373 . S
C96 C97 1.409 . S
C96 H118 0.931 . S
C97 C92 1.356 . S
C97 C96 1.409 . S
C97 H119 0.930 . S
C98 O108 1.270 . S
C98 O109 1.248 . S
C99 O110 1.267 1_565 S
C99 O111 1.278 . S
O100 Pr80 2.562 1_565 S
O100 C82 1.254 1_565 S
O101 Pr80 2.490 . S
O101 C82 1.225 . S
O102 Pr80 2.695 . S
O102 Pr81 2.436 1_545 S
O102 C89 1.270 1_655 S
O103 Pr80 2.512 1_455 S
O103 C89 1.248 . S
O104 Pr81 2.438 . S
O104 C90 1.267 . S
O105 Pr80 2.437 1_565 S
O105 C90 1.278 . S
O106 Pr81 2.562 1_455 S
O106 C91 1.254 . S
O107 Pr81 2.490 . S
O107 C91 1.225 1_655 S
O108 Pr80 2.436 1_565 S
O108 Pr81 2.695 . S
O108 C98 1.270 . S
O109 Pr81 2.512 . S
O109 C98 1.248 . S
O110 Pr80 2.438 . S
O110 C99 1.267 1_545 S
O111 Pr81 2.437 . S
O111 C99 1.278 . S
H112 C84 0.929 . S
H113 C85 0.929 . S
H114 C87 0.931 . S
H115 C88 0.930 . S
H116 C93 0.929 1_655 S
H117 C94 0.929 . S
H118 C96 0.931 . S
H119 C97 0.930 . S
C120 C121 1.391 1_445 S
C120 C122 1.394 . S
C120 H136 0.931 . S
C121 C120 1.391 1_665 S
C121 C125 1.376 . S
C122 C120 1.394 . S
C122 C123 1.369 1_455 S
C122 C126 1.531 . S
C123 C122 1.369 1_655 S
C123 C124 1.410 . S
C123 C131 1.503 . S
C124 C123 1.410 . S
C124 C125 1.392 1_545 S
C124 C127 1.511 . S
C125 C121 1.376 . S
C125 C124 1.392 1_565 S
C125 H137 0.929 . S
C126 C122 1.531 . S
C126 H138 0.960 . S
C126 H139 0.962 . S
C126 H140 0.960 . S
C127 C124 1.511 . S
C127 H141 0.961 1_545 S
C127 H142 0.961 . S
C127 H143 0.961 . S
C128 C129 1.370 1_455 S
C128 C130 1.363 . S
C128 H144 0.931 . S
C129 C128 1.370 1_655 S
C129 C133 1.408 . S
C130 C128 1.363 . S
C130 C131 1.370 1_455 S
C130 C134 1.524 . S
C131 C123 1.503 . S
C131 C130 1.370 1_655 S
C131 C132 1.403 . S
C132 C131 1.403 . S
C132 C133 1.404 . S
C132 C135 1.539 . S
C133 C129 1.408 . S
C133 C132 1.404 . S
C133 H145 0.930 . S
C134 C130 1.524 . S
C134 H146 0.956 . S
C134 H147 0.961 . S
C134 H148 0.961 . S
C135 C132 1.539 . S
C135 H149 0.958 . S
C135 H150 0.961 . S
C135 H151 0.960 . S
H136 C120 0.931 . S
H137 C125 0.929 . S
H138 C126 0.960 . S
H139 C126 0.962 . S
H140 C126 0.960 . S
H141 C127 0.961 1_565 S
H142 C127 0.961 . S
H143 C127 0.961 . S
H144 C128 0.931 . S
H145 C133 0.930 . S
H146 C134 0.956 . S
H147 C134 0.961 . S
H148 C134 0.961 . S
H149 C135 0.958 . S
H150 C135 0.961 . S
H151 C135 0.960 . S
C152 C153 1.391 1_565 S
C152 C154 1.394 . S
C152 H168 0.931 . S
C153 C152 1.391 1_545 S
C153 C157 1.376 . S
C154 C152 1.394 . S
C154 C155 1.369 1_565 S
C154 C158 1.531 . S
C155 C154 1.369 1_545 S
C155 C156 1.410 . S
C155 C163 1.503 . S
C156 C155 1.410 . S
C156 C157 1.392 . S
C156 C159 1.511 . S
C157 C153 1.376 . S
C157 C156 1.392 . S
C157 H169 0.929 . S
C158 C154 1.531 . S
C158 H170 0.960 . S
C158 H171 0.962 . S
C158 H172 0.960 . S
C159 C156 1.511 . S
C159 H173 0.961 . S
C159 H174 0.961 . S
C159 H175 0.961 . S
C160 C161 1.370 1_565 S
C160 C162 1.363 . S
C160 H176 0.931 1_455 S
C161 C160 1.370 1_545 S
C161 C165 1.408 . S
C162 C160 1.363 . S
C162 C163 1.370 1_565 S
C162 C166 1.524 . S
C163 C155 1.503 . S
C163 C162 1.370 1_545 S
C163 C164 1.403 . S
C164 C163 1.403 . S
C164 C165 1.404 . S
C164 C167 1.539 . S
C165 C161 1.408 . S
C165 C164 1.404 . S
C165 H177 0.930 . S
C166 C162 1.524 . S
C166 H178 0.956 . S
C166 H179 0.961 1_565 S
C166 H180 0.961 . S
C167 C164 1.539 . S
C167 H181 0.958 1_545 S
C167 H182 0.961 . S
C167 H183 0.960 . S
H168 C152 0.931 . S
H169 C157 0.929 . S
H170 C158 0.960 . S
H171 C158 0.962 . S
H172 C158 0.960 . S
H173 C159 0.961 . S
H174 C159 0.961 . S
H175 C159 0.961 . S
H176 C160 0.931 1_655 S
H177 C165 0.930 . S
H178 C166 0.956 . S
H179 C166 0.961 1_545 S
H180 C166 0.961 . S
H181 C167 0.958 1_565 S
H182 C167 0.961 . S
H183 C167 0.960 . S
C184 C185 1.391 . S
C184 C186 1.394 . S
C184 H200 0.931 . S
C185 C184 1.391 . S
C185 C189 1.376 . S
C186 C184 1.394 . S
C186 C187 1.369 . S
C186 C190 1.531 . S
C187 C186 1.369 . S
C187 C188 1.410 . S
C187 C195 1.503 . S
C188 C187 1.410 . S
C188 C189 1.392 . S
C188 C191 1.511 . S
C189 C185 1.376 . S
C189 C188 1.392 . S
C189 H201 0.929 . S
C190 C186 1.531 . S
C190 H202 0.960 . S
C190 H203 0.962 . S
C190 H204 0.960 . S
C191 C188 1.511 . S
C191 H205 0.961 . S
C191 H206 0.961 . S
C191 H207 0.961 . S
C192 C193 1.370 . S
C192 C194 1.363 . S
C192 H208 0.931 . S
C193 C192 1.370 . S
C193 C197 1.408 . S
C194 C192 1.363 . S
C194 C195 1.370 . S
C194 C198 1.524 . S
C195 C187 1.503 . S
C195 C194 1.370 . S
C195 C196 1.403 . S
C196 C195 1.403 . S
C196 C197 1.404 . S
C196 C199 1.539 . S
C197 C193 1.408 . S
C197 C196 1.404 . S
C197 H209 0.930 . S
C198 C194 1.524 . S
C198 H210 0.956 . S
C198 H211 0.961 . S
C198 H212 0.961 . S
C199 C196 1.539 . S
C199 H213 0.958 . S
C199 H214 0.961 . S
C199 H215 0.960 . S
H200 C184 0.931 . S
H201 C189 0.929 . S
H202 C190 0.960 . S
H203 C190 0.962 . S
H204 C190 0.960 . S
H205 C191 0.961 . S
H206 C191 0.961 . S
H207 C191 0.961 . S
H208 C192 0.931 . S
H209 C197 0.930 . S
H210 C198 0.956 . S
H211 C198 0.961 . S
H212 C198 0.961 . S
H213 C199 0.958 . S
H214 C199 0.961 . S
H215 C199 0.960 . S
C216 C217 1.391 . S
C216 C218 1.394 . S
C216 H232 0.931 . S
C217 C216 1.391 . S
C217 C221 1.376 . S
C218 C216 1.394 . S
C218 C219 1.369 . S
C218 C222 1.531 . S
C219 C218 1.369 . S
C219 C220 1.410 . S
C219 C227 1.503 . S
C220 C219 1.410 . S
C220 C221 1.392 . S
C220 C223 1.511 1_556 S
C221 C217 1.376 . S
C221 C220 1.392 . S
C221 H233 0.929 . S
C222 C218 1.531 . S
C222 H234 0.960 . S
C222 H235 0.962 . S
C222 H236 0.960 . S
C223 C220 1.511 1_554 S
C223 H237 0.961 . S
C223 H238 0.961 . S
C223 H239 0.961 1_545 S
C224 C225 1.370 . S
C224 C226 1.363 1_554 S
C224 H240 0.931 . S
C225 C224 1.370 . S
C225 C229 1.408 1_545 S
C226 C224 1.363 1_556 S
C226 C227 1.370 . S
C226 C230 1.524 . S
C227 C219 1.503 . S
C227 C226 1.370 . S
C227 C228 1.403 1_545 S
C228 C227 1.403 1_565 S
C228 C229 1.404 1_556 S
C228 C231 1.539 . S
C229 C225 1.408 1_565 S
C229 C228 1.404 1_554 S
C229 H241 0.930 . S
C230 C226 1.524 . S
C230 H242 0.956 . S
C230 H243 0.961 . S
C230 H244 0.961 . S
C231 C228 1.539 . S
C231 H245 0.958 . S
C231 H246 0.987 . S
C231 H247 0.960 . S
H232 C216 0.931 . S
H233 C221 0.929 . S
H234 C222 0.960 . S
H235 C222 0.962 . S
H236 C222 0.960 . S
H237 C223 0.961 . S
H238 C223 0.961 . S
H239 C223 0.961 1_565 S
H240 C224 0.931 . S
H241 C229 0.930 . S
H242 C230 0.956 . S
H243 C230 0.961 . S
H244 C230 0.961 . S
H245 C231 0.958 . S
H246 C231 0.987 . S
H247 C231 0.960 . S
C248 C249 1.391 . S
C248 C250 1.394 . S
C248 H264 0.931 . S
C249 C248 1.391 . S
C249 C253 1.376 . S
C250 C248 1.394 . S
C250 C251 1.369 . S
C250 C254 1.531 . S
C251 C250 1.369 . S
C251 C252 1.410 . S
C251 C259 1.503 . S
C252 C251 1.410 . S
C252 C253 1.392 . S
C252 C255 1.511 . S
C253 C249 1.376 . S
C253 C252 1.392 . S
C253 H265 0.929 . S
C254 C250 1.531 . S
C254 H266 0.960 . S
C254 H267 0.962 . S
C254 H268 0.960 . S
C255 C252 1.511 . S
C255 H269 0.961 . S
C255 H270 0.961 . S
C255 H271 0.961 . S
C256 C257 1.370 . S
C256 C258 1.363 . S
C256 H272 0.931 . S
C257 C256 1.370 . S
C257 C261 1.408 . S
C258 C256 1.363 . S
C258 C259 1.370 . S
C258 C262 1.524 . S
C259 C251 1.503 . S
C259 C258 1.370 . S
C259 C260 1.403 . S
C260 C259 1.403 . S
C260 C261 1.404 . S
C260 C263 1.539 . S
C261 C257 1.408 . S
C261 C260 1.404 . S
C261 H273 0.930 . S
C262 C258 1.524 . S
C262 H274 0.956 . S
C262 H275 0.961 . S
C262 H276 0.961 . S
C263 C260 1.539 . S
C263 H277 0.958 . S
C263 H278 0.961 . S
C263 H279 0.960 . S
H264 C248 0.931 . S
H265 C253 0.929 . S
H266 C254 0.960 . S
H267 C254 0.962 . S
H268 C254 0.960 . S
H269 C255 0.961 . S
H270 C255 0.961 . S
H271 C255 0.961 . S
H272 C256 0.931 . S
H273 C261 0.930 . S
H274 C262 0.956 . S
H275 C262 0.961 . S
H276 C262 0.961 . S
H277 C263 0.958 . S
H278 C263 0.961 . S
H279 C263 0.960 . S
C280 C281 1.391 . S
C280 C282 1.394 . S
C280 H296 0.931 . S
C281 C280 1.391 . S
C281 C285 1.376 . S
C282 C280 1.394 . S
C282 C283 1.369 . S
C282 C286 1.531 . S
C283 C282 1.369 . S
C283 C284 1.410 . S
C283 C291 1.503 . S
C284 C283 1.410 . S
C284 C285 1.392 . S
C284 C287 1.511 1_565 S
C285 C281 1.376 . S
C285 C284 1.392 . S
C285 H297 0.929 1_565 S
C286 C282 1.531 . S
C286 H298 0.960 . S
C286 H299 0.962 . S
C286 H300 0.960 . S
C287 C284 1.511 1_545 S
C287 H301 0.961 . S
C287 H302 0.961 . S
C287 H303 0.961 1_545 S
C288 C289 1.370 . S
C288 C290 1.363 . S
C288 H304 0.931 1_565 S
C289 C288 1.370 . S
C289 C293 1.408 . S
C290 C288 1.363 . S
C290 C291 1.370 . S
C290 C294 1.524 1_565 S
C291 C283 1.503 . S
C291 C290 1.370 . S
C291 C292 1.403 . S
C292 C291 1.403 . S
C292 C293 1.404 . S
C292 C295 1.539 . S
C293 C289 1.408 . S
C293 C292 1.404 . S
C293 H305 0.930 . S
C294 C290 1.524 1_545 S
C294 H306 0.956 . S
C294 H307 0.961 . S
C294 H308 0.961 . S
C295 C292 1.539 . S
C295 H309 0.958 . S
C295 H310 0.961 . S
C295 H311 0.960 . S
H296 C280 0.931 . S
H297 C285 0.929 1_545 S
H298 C286 0.960 . S
H299 C286 0.962 . S
H300 C286 0.960 . S
H301 C287 0.961 . S
H302 C287 0.961 . S
H303 C287 0.961 1_565 S
H304 C288 0.931 1_545 S
H305 C293 0.930 . S
H306 C294 0.956 . S
H307 C294 0.961 . S
H308 C294 0.961 . S
H309 C295 0.958 . S
H310 C295 0.961 . S
H311 C295 0.960 . S
C312 C313 1.391 . S
C312 C314 1.394 . S
C312 H328 0.931 . S
C313 C312 1.391 . S
C313 C317 1.376 1_655 S
C314 C312 1.394 . S
C314 C315 1.369 . S
C314 C318 1.531 . S
C315 C314 1.369 . S
C315 C316 1.410 1_655 S
C315 C323 1.503 1_556 S
C316 C315 1.410 1_455 S
C316 C317 1.392 . S
C316 C319 1.511 . S
C317 C313 1.376 1_455 S
C317 C316 1.392 . S
C317 H329 0.929 . S
C318 C314 1.531 . S
C318 H330 0.960 . S
C318 H331 0.962 . S
C318 H332 0.960 . S
C319 C316 1.511 . S
C319 H333 0.961 . S
C319 H334 0.961 1_556 S
C319 H335 0.961 1_556 S
C320 C321 1.370 . S
C320 C322 1.363 . S
C320 H336 0.931 . S
C321 C320 1.370 . S
C321 C325 1.408 . S
C322 C320 1.363 . S
C322 C323 1.370 . S
C322 C326 1.524 1_554 S
C323 C315 1.503 1_554 S
C323 C322 1.370 . S
C323 C324 1.403 . S
C324 C323 1.403 . S
C324 C325 1.404 . S
C324 C327 1.539 . S
C325 C321 1.408 . S
C325 C324 1.404 . S
C325 H337 0.930 . S
C326 C322 1.524 1_556 S
C326 H338 0.956 . S
C326 H339 0.961 . S
C326 H340 0.961 1_556 S
C327 C324 1.539 . S
C327 H341 0.958 . S
C327 H342 0.961 . S
C327 H343 0.954 1_554 S
H328 C312 0.931 . S
H329 C317 0.929 . S
H330 C318 0.960 . S
H331 C318 0.962 . S
H332 C318 0.960 . S
H333 C319 0.961 . S
H334 C319 0.961 1_554 S
H335 C319 0.961 1_554 S
H336 C320 0.931 . S
H337 C325 0.930 . S
H338 C326 0.956 . S
H339 C326 0.961 . S
H340 C326 0.961 1_554 S
H341 C327 0.958 . S
H342 C327 0.961 . S
H343 C327 0.954 1_556 S
C344 C345 1.391 . S
C344 C346 1.394 . S
C344 H360 0.931 . S
C345 C344 1.391 . S
C345 C349 1.376 . S
C346 C344 1.394 . S
C346 C347 1.369 . S
C346 C350 1.531 . S
C347 C346 1.369 . S
C347 C348 1.410 . S
C347 C355 1.503 . S
C348 C347 1.410 . S
C348 C349 1.392 . S
C348 C351 1.511 . S
C349 C345 1.376 . S
C349 C348 1.392 . S
C349 H361 0.929 . S
C350 C346 1.531 . S
C350 H362 0.960 . S
C350 H363 0.962 . S
C350 H364 0.960 . S
C351 C348 1.511 . S
C351 H365 0.961 . S
C351 H366 0.961 . S
C351 H367 0.961 . S
C352 C353 1.370 . S
C352 C354 1.363 . S
C352 H368 0.931 . S
C353 C352 1.370 . S
C353 C357 1.408 . S
C354 C352 1.363 . S
C354 C355 1.370 . S
C354 C358 1.524 . S
C355 C347 1.503 . S
C355 C354 1.370 . S
C355 C356 1.403 . S
C356 C355 1.403 . S
C356 C357 1.404 . S
C356 C359 1.539 . S
C357 C353 1.408 . S
C357 C356 1.404 . S
C357 H369 0.930 . S
C358 C354 1.524 . S
C358 H370 0.956 . S
C358 H371 0.961 . S
C358 H372 0.961 . S
C359 C356 1.539 . S
C359 H373 0.958 . S
C359 H374 0.961 . S
C359 H375 0.960 . S
H360 C344 0.931 . S
H361 C349 0.929 . S
H362 C350 0.960 . S
H363 C350 0.962 . S
H364 C350 0.960 . S
H365 C351 0.961 . S
H366 C351 0.961 . S
H367 C351 0.961 . S
H368 C352 0.931 . S
H369 C357 0.930 . S
H370 C358 0.956 . S
H371 C358 0.961 . S
H372 C358 0.961 . S
H373 C359 0.958 . S
H374 C359 0.961 . S
H375 C359 0.960 . S
C376 C377 1.391 . S
C376 C378 1.394 . S
C376 H392 0.931 . S
C377 C376 1.391 . S
C377 C381 1.376 . S
C378 C376 1.394 . S
C378 C379 1.369 . S
C378 C382 1.531 . S
C379 C378 1.369 . S
C379 C380 1.410 1_455 S
C379 C387 1.503 . S
C380 C379 1.410 1_655 S
C380 C381 1.392 1_655 S
C380 C383 1.511 . S
C381 C377 1.376 . S
C381 C380 1.392 1_455 S
C381 H393 0.929 1_455 S
C382 C378 1.531 . S
C382 H394 0.960 . S
C382 H395 0.962 . S
C382 H396 0.960 . S
C383 C380 1.511 . S
C383 H397 0.961 . S
C383 H398 0.961 . S
C383 H399 0.961 . S
C384 C385 1.370 . S
C384 C386 1.363 . S
C384 H400 0.931 . S
C385 C384 1.370 . S
C385 C389 1.408 . S
C386 C384 1.363 . S
C386 C387 1.370 . S
C386 C390 1.524 . S
C387 C379 1.503 . S
C387 C386 1.370 . S
C387 C388 1.403 . S
C388 C387 1.403 . S
C388 C389 1.404 . S
C388 C391 1.539 . S
C389 C385 1.408 . S
C389 C388 1.404 . S
C389 H401 0.930 . S
C390 C386 1.524 . S
C390 H402 0.956 . S
C390 H403 0.961 . S
C390 H404 0.961 . S
C391 C388 1.539 . S
C391 H405 0.958 . S
C391 H406 0.961 1_455 S
C391 H407 0.960 . S
H392 C376 0.931 . S
H393 C381 0.929 1_655 S
H394 C382 0.960 . S
H395 C382 0.962 . S
H396 C382 0.960 . S
H397 C383 0.961 . S
H398 C383 0.961 . S
H399 C383 0.961 . S
H400 C384 0.931 . S
H401 C389 0.930 . S
H402 C390 0.956 . S
H403 C390 0.961 . S
H404 C390 0.961 . S
H405 C391 0.958 . S
H406 C391 0.961 1_655 S
H407 C391 0.960 . S
C121 C9 1.548 . S
C129 C18 1.560 1_655 S
C153 C58 1.639 1_545 S
C161 C49 1.635 1_455 S
C185 C89 1.321 . S
C193 C98 1.352 . S
C217 C86 0.936 . S
C225 C15 0.966 1_545 S
C249 C59 1.940 . S
C257 C6 1.875 . S
C281 C99 2.411 . S
C289 C50 2.435 . S
C313 C90 2.364 . S
C321 C19 2.305 . S
C345 C10 1.745 . S
C353 C55 1.652 . S
C377 C95 0.937 . S
C385 C46 0.984 1_455 S
