# Generated by pormake.
# Topology gsi, (4)-cn, num edge types: 1
# Building blocks:
#     Node 0, Type 0, BuildingBlock: CEKHIL_clean_sbu_0, # of connection points: 4
#     Node 1, Type 0, BuildingBlock: CEKHIL_clean_sbu_0, # of connection points: 4
#     Node 2, Type 0, BuildingBlock: CEKHIL_clean_sbu_0, # of connection points: 4
#     Node 3, Type 0, BuildingBlock: CEKHIL_clean_sbu_0, # of connection points: 4
#     Node 4, Type 0, BuildingBlock: CEKHIL_clean_sbu_0, # of connection points: 4
#     Node 5, Type 0, BuildingBlock: CEKHIL_clean_sbu_0, # of connection points: 4
#     Node 6, Type 0, BuildingBlock: CEKHIL_clean_sbu_0, # of connection points: 4
#     Node 7, Type 0, BuildingBlock: CEKHIL_clean_sbu_0, # of connection points: 4
#     Node 8, Type 0, BuildingBlock: CEKHIL_clean_sbu_0, # of connection points: 4
#     Node 9, Type 0, BuildingBlock: CEKHIL_clean_sbu_0, # of connection points: 4
#     Node 10, Type 0, BuildingBlock: CEKHIL_clean_sbu_0, # of connection points: 4
#     Node 11, Type 0, BuildingBlock: CEKHIL_clean_sbu_0, # of connection points: 4
#     Node 12, Type 0, BuildingBlock: CEKHIL_clean_sbu_0, # of connection points: 4
#     Node 13, Type 0, BuildingBlock: CEKHIL_clean_sbu_0, # of connection points: 4
#     Node 14, Type 0, BuildingBlock: CEKHIL_clean_sbu_0, # of connection points: 4
#     Node 15, Type 0, BuildingBlock: CEKHIL_clean_sbu_0, # of connection points: 4
#     Edge 16, Type (0, 0), BuildingBlock: CIFDUS_clean_linker_0, # of connection points: 2
#     Edge 17, Type (0, 0), BuildingBlock: CIFDUS_clean_linker_0, # of connection points: 2
#     Edge 18, Type (0, 0), BuildingBlock: CIFDUS_clean_linker_0, # of connection points: 2
#     Edge 19, Type (0, 0), BuildingBlock: CIFDUS_clean_linker_0, # of connection points: 2
#     Edge 20, Type (0, 0), BuildingBlock: CIFDUS_clean_linker_0, # of connection points: 2
#     Edge 21, Type (0, 0), BuildingBlock: CIFDUS_clean_linker_0, # of connection points: 2
#     Edge 22, Type (0, 0), BuildingBlock: CIFDUS_clean_linker_0, # of connection points: 2
#     Edge 23, Type (0, 0), BuildingBlock: CIFDUS_clean_linker_0, # of connection points: 2
#     Edge 24, Type (0, 0), BuildingBlock: CIFDUS_clean_linker_0, # of connection points: 2
#     Edge 25, Type (0, 0), BuildingBlock: CIFDUS_clean_linker_0, # of connection points: 2
#     Edge 26, Type (0, 0), BuildingBlock: CIFDUS_clean_linker_0, # of connection points: 2
#     Edge 27, Type (0, 0), BuildingBlock: CIFDUS_clean_linker_0, # of connection points: 2
#     Edge 28, Type (0, 0), BuildingBlock: CIFDUS_clean_linker_0, # of connection points: 2
#     Edge 29, Type (0, 0), BuildingBlock: CIFDUS_clean_linker_0, # of connection points: 2
#     Edge 30, Type (0, 0), BuildingBlock: CIFDUS_clean_linker_0, # of connection points: 2
#     Edge 31, Type (0, 0), BuildingBlock: CIFDUS_clean_linker_0, # of connection points: 2
#     Edge 32, Type (0, 0), BuildingBlock: CIFDUS_clean_linker_0, # of connection points: 2
#     Edge 33, Type (0, 0), BuildingBlock: CIFDUS_clean_linker_0, # of connection points: 2
#     Edge 34, Type (0, 0), BuildingBlock: CIFDUS_clean_linker_0, # of connection points: 2
#     Edge 35, Type (0, 0), BuildingBlock: CIFDUS_clean_linker_0, # of connection points: 2
#     Edge 36, Type (0, 0), BuildingBlock: CIFDUS_clean_linker_0, # of connection points: 2
#     Edge 37, Type (0, 0), BuildingBlock: CIFDUS_clean_linker_0, # of connection points: 2
#     Edge 38, Type (0, 0), BuildingBlock: CIFDUS_clean_linker_0, # of connection points: 2
#     Edge 39, Type (0, 0), BuildingBlock: CIFDUS_clean_linker_0, # of connection points: 2
#     Edge 40, Type (0, 0), BuildingBlock: CIFDUS_clean_linker_0, # of connection points: 2
#     Edge 41, Type (0, 0), BuildingBlock: CIFDUS_clean_linker_0, # of connection points: 2
#     Edge 42, Type (0, 0), BuildingBlock: CIFDUS_clean_linker_0, # of connection points: 2
#     Edge 43, Type (0, 0), BuildingBlock: CIFDUS_clean_linker_0, # of connection points: 2
#     Edge 44, Type (0, 0), BuildingBlock: CIFDUS_clean_linker_0, # of connection points: 2
#     Edge 45, Type (0, 0), BuildingBlock: CIFDUS_clean_linker_0, # of connection points: 2
#     Edge 46, Type (0, 0), BuildingBlock: CIFDUS_clean_linker_0, # of connection points: 2
#     Edge 47, Type (0, 0), BuildingBlock: CIFDUS_clean_linker_0, # of connection points: 2
# Relax obj value: 0.146
# Max RMSD: 0.207
# Mean RMSD: 0.126
data_MOF--net-gsi--node1-CEKHIL_clean_sbu_0--edge1-CIFDUS_clean_linker_0
_symmetry_space_group_name_H-M    P1
_symmetry_Int_Tables_number       1
_symmetry_cell_setting            triclinic
loop_
_symmetry_equiv_pos_as_xyz
'x, y, z'
_cell_length_a     33.996299
_cell_length_b     37.972465
_cell_length_c     35.723666
_cell_angle_alpha  91.308946
_cell_angle_beta   93.277776
_cell_angle_gamma 97.366064
loop_
_atom_site_label
_atom_site_type_symbol
_atom_site_fract_x
_atom_site_fract_y
_atom_site_fract_z
_atom_type_partial_charge
Co0 Co 0.14792 0.14734 0.12932 0.0
O1 O 0.17756 0.1112 0.15053 0.0
O2 O 0.11609 0.11795 0.16295 0.0
C3 C 0.16577 0.13881 0.06944 0.0
O4 O 0.10559 0.17941 0.11378 0.0
Co5 Co 0.18471 0.21392 0.09134 0.0
O6 O 0.13098 0.22933 0.08685 0.0
C7 C 0.20027 0.20616 0.17219 0.0
C8 C 0.14628 0.10055 0.16858 0.0
C9 C 0.10168 0.20966 0.09919 0.0
O10 O 0.17055 0.18136 0.17189 0.0
O11 O 0.21353 0.2196 0.14216 0.0
O12 O 0.13597 0.11878 0.08249 0.0
O13 O 0.18413 0.16261 0.09285 0.0
Co14 Co 0.85394 0.365 0.13265 0.0
O15 O 0.82175 0.39916 0.15173 0.0
O16 O 0.88212 0.39346 0.1745 0.0
C17 C 0.83878 0.37654 0.07183 0.0
O18 O 0.89833 0.33456 0.12045 0.0
Co19 Co 0.82187 0.30075 0.08061 0.0
O20 O 0.8769 0.28921 0.07988 0.0
C21 C 0.79941 0.3038 0.15911 0.0
C22 C 0.85101 0.40999 0.1759 0.0
C23 C 0.90447 0.30709 0.10052 0.0
O24 O 0.8286 0.32853 0.16729 0.0
O25 O 0.78981 0.29212 0.12552 0.0
O26 O 0.86759 0.39633 0.09082 0.0
O27 O 0.82049 0.3511 0.08979 0.0
Co28 Co 0.17739 0.88978 0.33975 0.0
O29 O 0.20795 0.93269 0.32372 0.0
O30 O 0.14367 0.9181 0.31038 0.0
C31 C 0.20498 0.89422 0.39956 0.0
O32 O 0.13504 0.84804 0.35111 0.0
Co33 Co 0.21658 0.82567 0.37038 0.0
O34 O 0.16242 0.80641 0.38381 0.0
C35 C 0.21533 0.84183 0.2893 0.0
C36 C 0.17554 0.94038 0.30665 0.0
C37 C 0.13224 0.81888 0.36932 0.0
O38 O 0.19035 0.86418 0.29291 0.0
O39 O 0.23125 0.82658 0.31681 0.0
O40 O 0.17494 0.91104 0.39046 0.0
O41 O 0.21765 0.87657 0.37268 0.0
Co42 Co 0.88013 0.63713 0.33946 0.0
O43 O 0.92455 0.65557 0.31068 0.0
O44 O 0.91894 0.66881 0.37044 0.0
C45 C 0.87626 0.57969 0.31741 0.0
O46 O 0.83987 0.62498 0.37951 0.0
Co47 Co 0.79881 0.60363 0.30307 0.0
O48 O 0.78041 0.59988 0.35478 0.0
C49 C 0.82457 0.68037 0.29835 0.0
C50 C 0.93901 0.67383 0.34071 0.0
C51 C 0.80314 0.61231 0.38286 0.0
O52 O 0.85209 0.67835 0.32409 0.0
O53 O 0.80307 0.65303 0.28318 0.0
O54 O 0.90159 0.59149 0.34501 0.0
O55 O 0.85579 0.60303 0.30337 0.0
Co56 Co 0.36753 0.86848 0.64387 0.0
O57 O 0.3408 0.90456 0.66764 0.0
O58 O 0.40327 0.89676 0.68054 0.0
C59 C 0.3437 0.87766 0.58469 0.0
O60 O 0.40768 0.83643 0.62577 0.0
Co61 Co 0.3257 0.80256 0.60027 0.0
O62 O 0.37903 0.78896 0.59138 0.0
C63 C 0.3172 0.81089 0.68124 0.0
C64 C 0.37391 0.91425 0.68737 0.0
C65 C 0.40988 0.80769 0.60639 0.0
O66 O 0.34839 0.83421 0.68332 0.0
O67 O 0.30091 0.79784 0.64993 0.0
O68 O 0.37509 0.89754 0.59941 0.0
O69 O 0.32731 0.85389 0.6061 0.0
Co70 Co 0.8722 0.86048 0.89298 0.0
O71 O 0.89024 0.81681 0.912 0.0
O72 O 0.92767 0.85884 0.8841 0.0
C73 C 0.8379 0.8731 0.94445 0.0
O74 O 0.86811 0.90873 0.8688 0.0
Co75 Co 0.78482 0.87553 0.88022 0.0
O76 O 0.80641 0.92382 0.86509 0.0
C77 C 0.81727 0.82216 0.83283 0.0
C78 C 0.92481 0.82823 0.89975 0.0
C79 C 0.84328 0.93056 0.85971 0.0
O80 O 0.85342 0.8346 0.84362 0.0
O81 O 0.78693 0.83233 0.84746 0.0
O82 O 0.87626 0.88211 0.94486 0.0
O83 O 0.82263 0.85671 0.91422 0.0
Co84 Co 0.14614 0.6653 0.88957 0.0
O85 O 0.12619 0.70733 0.91016 0.0
O86 O 0.09158 0.66769 0.87121 0.0
C87 C 0.17472 0.64867 0.94503 0.0
O88 O 0.15384 0.61845 0.86212 0.0
Co89 Co 0.23576 0.65451 0.89277 0.0
O90 O 0.21633 0.6059 0.87275 0.0
C91 C 0.20515 0.70651 0.84171 0.0
C92 C 0.09272 0.69677 0.89133 0.0
C93 C 0.18094 0.59785 0.8587 0.0
O94 O 0.16869 0.69382 0.84649 0.0
O95 O 0.23485 0.69692 0.86072 0.0
O96 O 0.13676 0.64027 0.93709 0.0
O97 O 0.19296 0.66791 0.9207 0.0
Co98 Co 0.85442 0.14451 0.68805 0.0
O99 O 0.80578 0.11869 0.6655 0.0
O100 O 0.85468 0.14435 0.63358 0.0
C101 C 0.86236 0.10352 0.73335 0.0
O102 O 0.909 0.17452 0.70144 0.0
Co103 Co 0.85793 0.17167 0.77098 0.0
O104 O 0.91403 0.18952 0.76307 0.0
C105 C 0.80989 0.20293 0.71224 0.0
C106 C 0.81869 0.12762 0.63315 0.0
C107 C 0.92833 0.19012 0.73083 0.0
O108 O 0.82811 0.18887 0.68654 0.0
O109 O 0.81453 0.19642 0.7471 0.0
O110 O 0.87548 0.09931 0.70018 0.0
O111 O 0.8444 0.13108 0.73711 0.0
Co112 Co 0.17761 0.39044 0.6722 0.0
O113 O 0.22359 0.41379 0.64749 0.0
O114 O 0.17559 0.37605 0.61971 0.0
C115 C 0.16378 0.43958 0.7051 0.0
O116 O 0.12576 0.35992 0.68561 0.0
Co117 Co 0.17408 0.38572 0.75887 0.0
O118 O 0.12332 0.35419 0.74796 0.0
C119 C 0.22812 0.34643 0.71801 0.0
C120 C 0.20927 0.39601 0.61709 0.0
C121 C 0.10912 0.34635 0.71458 0.0
O122 O 0.20897 0.35067 0.68659 0.0
O123 O 0.22227 0.36279 0.7485 0.0
O124 O 0.15116 0.43428 0.67 0.0
O125 O 0.1854 0.41666 0.7177 0.0
Co126 Co 0.65947 0.17798 0.39124 0.0
O127 O 0.64625 0.22199 0.41326 0.0
O128 O 0.60377 0.18364 0.37939 0.0
C129 C 0.69488 0.16136 0.44297 0.0
O130 O 0.66106 0.12968 0.36364 0.0
Co131 Co 0.74767 0.16459 0.38299 0.0
O132 O 0.72391 0.11634 0.36503 0.0
C133 C 0.71282 0.21965 0.34038 0.0
C134 C 0.61055 0.21388 0.39795 0.0
C135 C 0.68685 0.10855 0.35645 0.0
O136 O 0.67729 0.20486 0.3456 0.0
O137 O 0.744 0.21027 0.35697 0.0
O138 O 0.65622 0.15448 0.44062 0.0
O139 O 0.70945 0.17917 0.41586 0.0
Co140 Co 0.65332 0.64941 0.61824 0.0
O141 O 0.68228 0.61279 0.63935 0.0
O142 O 0.62071 0.62012 0.65106 0.0
C143 C 0.67204 0.6413 0.55866 0.0
O144 O 0.61113 0.68156 0.60306 0.0
Co145 Co 0.68956 0.71641 0.58163 0.0
O146 O 0.63585 0.73194 0.57687 0.0
C147 C 0.70575 0.70731 0.66213 0.0
C148 C 0.65055 0.6024 0.65691 0.0
C149 C 0.60672 0.71185 0.58893 0.0
O150 O 0.67583 0.68269 0.66134 0.0
O151 O 0.71881 0.72144 0.63234 0.0
O152 O 0.64177 0.62143 0.57115 0.0
O153 O 0.69013 0.66506 0.58231 0.0
Co154 Co 0.67211 0.39214 0.82968 0.0
O155 O 0.70462 0.43422 0.81434 0.0
O156 O 0.64024 0.42149 0.79992 0.0
C157 C 0.69912 0.39618 0.8896 0.0
O158 O 0.62791 0.35153 0.83975 0.0
Co159 Co 0.70697 0.32643 0.86137 0.0
O160 O 0.65161 0.30678 0.87011 0.0
C161 C 0.70902 0.34299 0.78041 0.0
C162 C 0.67293 0.44285 0.79677 0.0
C163 C 0.62276 0.32105 0.85543 0.0
O164 O 0.68495 0.36621 0.7832 0.0
O165 O 0.7234 0.32726 0.80837 0.0
O166 O 0.66971 0.4137 0.8802 0.0
O167 O 0.71107 0.37757 0.86309 0.0
Co168 Co 0.36988 0.14036 0.84649 0.0
O169 O 0.41664 0.15902 0.82037 0.0
O170 O 0.4083 0.16853 0.88052 0.0
C171 C 0.36354 0.08403 0.82142 0.0
O172 O 0.32807 0.12785 0.88502 0.0
Co173 Co 0.2878 0.11014 0.80892 0.0
O174 O 0.26815 0.10461 0.86002 0.0
C175 C 0.32015 0.18564 0.80309 0.0
C176 C 0.43029 0.1744 0.85229 0.0
C177 C 0.29123 0.11568 0.88833 0.0
O178 O 0.34453 0.1833 0.83156 0.0
O179 O 0.29856 0.1586 0.78743 0.0
O180 O 0.38881 0.0933 0.84983 0.0
O181 O 0.34469 0.1089 0.80861 0.0
Co182 Co 0.37795 0.3656 0.39214 0.0
O183 O 0.39171 0.32131 0.41276 0.0
O184 O 0.43123 0.35724 0.37968 0.0
C185 C 0.35131 0.38477 0.44563 0.0
O186 O 0.37636 0.41324 0.36534 0.0
Co187 Co 0.29215 0.38549 0.38475 0.0
O188 O 0.31613 0.43156 0.36576 0.0
C189 C 0.31573 0.32789 0.337 0.0
C190 C 0.42565 0.32781 0.39759 0.0
C191 C 0.35226 0.43608 0.35718 0.0
O192 O 0.35286 0.33834 0.34556 0.0
O193 O 0.28762 0.34078 0.35281 0.0
O194 O 0.38954 0.39012 0.44208 0.0
O195 O 0.33134 0.36755 0.41787 0.0
Co196 Co 0.3565 0.64766 0.17997 0.0
O197 O 0.31029 0.62205 0.15209 0.0
O198 O 0.36196 0.651 0.12645 0.0
C199 C 0.36285 0.60468 0.22374 0.0
O200 O 0.40934 0.67824 0.19801 0.0
Co201 Co 0.35401 0.66994 0.264 0.0
O202 O 0.40999 0.69092 0.25989 0.0
C203 C 0.30752 0.70249 0.205 0.0
C204 C 0.32652 0.63336 0.12179 0.0
C205 C 0.42634 0.69333 0.22864 0.0
O206 O 0.32841 0.69127 0.17954 0.0
O207 O 0.31026 0.6936 0.2393 0.0
O208 O 0.37836 0.60239 0.19136 0.0
O209 O 0.34344 0.63131 0.22737 0.0
Co210 Co 0.68072 0.89379 0.18104 0.0
O211 O 0.72942 0.91734 0.16172 0.0
O212 O 0.6845 0.88084 0.12835 0.0
C213 C 0.66473 0.94285 0.21279 0.0
O214 O 0.62717 0.86347 0.1902 0.0
Co215 Co 0.67166 0.8878 0.26705 0.0
O216 O 0.62078 0.85782 0.25224 0.0
C217 C 0.72487 0.84543 0.22878 0.0
C218 C 0.71884 0.90056 0.12993 0.0
C219 C 0.60855 0.85005 0.21828 0.0
O220 O 0.70959 0.85289 0.19661 0.0
O221 O 0.71725 0.86024 0.25962 0.0
O222 O 0.65534 0.93797 0.177 0.0
O223 O 0.68491 0.91951 0.227 0.0
H224 H 0.27518 0.24023 0.18519 0.0
H225 H 0.16757 0.20681 0.24039 0.0
H226 H 0.19575 0.23919 0.29773 0.0
H227 H 0.24818 0.28157 0.32978 0.0
H228 H 0.3562 0.31452 0.27514 0.0
H229 H 0.33081 0.27721 0.21994 0.0
C230 C 0.25799 0.23978 0.20987 0.0
C231 C 0.21902 0.22164 0.20834 0.0
C232 C 0.2744 0.25842 0.24268 0.0
C233 C 0.19749 0.22068 0.24077 0.0
C234 C 0.21355 0.23932 0.27349 0.0
C235 C 0.26637 0.2803 0.30593 0.0
C236 C 0.30377 0.3012 0.30626 0.0
C237 C 0.25153 0.25897 0.2744 0.0
C238 C 0.32732 0.29876 0.27552 0.0
C239 C 0.31269 0.27761 0.2439 0.0
H240 H 0.802 0.32422 0.23335 0.0
H241 H 0.74132 0.2471 0.15186 0.0
H242 H 0.70254 0.21855 0.20026 0.0
H243 H 0.69115 0.21089 0.26687 0.0
H244 H 0.75431 0.2851 0.34907 0.0
H245 H 0.78559 0.31995 0.29945 0.0
C246 C 0.78021 0.30127 0.22617 0.0
C247 C 0.77526 0.28761 0.18907 0.0
C248 C 0.7579 0.28462 0.2543 0.0
C249 C 0.74631 0.25811 0.18022 0.0
C250 C 0.72384 0.24172 0.20788 0.0
C251 C 0.71053 0.23548 0.27364 0.0
C252 C 0.72016 0.24582 0.31124 0.0
C253 C 0.72992 0.25426 0.24512 0.0
C254 C 0.7462 0.27709 0.32006 0.0
C255 C 0.76449 0.29667 0.29177 0.0
H256 H 0.32596 0.77266 0.19691 0.0
H257 H 0.22778 0.68899 0.1967 0.0
H258 H 0.18305 0.73192 0.21214 0.0
H259 H 0.17854 0.78824 0.24546 0.0
H260 H 0.27901 0.8699 0.2532 0.0
H261 H 0.31585 0.83386 0.21386 0.0
C262 C 0.29432 0.76434 0.19818 0.0
C263 C 0.27991 0.72804 0.19601 0.0
C264 C 0.26941 0.78896 0.20923 0.0
C265 C 0.23917 0.71702 0.19824 0.0
C266 C 0.21376 0.74151 0.20751 0.0
C267 C 0.20756 0.79886 0.23648 0.0
C268 C 0.22634 0.83131 0.25211 0.0
C269 C 0.22932 0.77697 0.21599 0.0
C270 C 0.2641 0.84494 0.24111 0.0
C271 C 0.28537 0.82405 0.21917 0.0
H272 H 0.787 0.69734 0.23344 0.0
H273 H 0.84229 0.74295 0.33837 0.0
H274 H 0.82023 0.79997 0.32358 0.0
H275 H 0.77904 0.83459 0.28431 0.0
H276 H 0.72366 0.78928 0.17935 0.0
H277 H 0.75277 0.73454 0.19034 0.0
C278 C 0.7945 0.71985 0.25292 0.0
C279 C 0.81555 0.71578 0.28726 0.0
C280 C 0.78174 0.75253 0.24426 0.0
C281 C 0.82585 0.74534 0.31186 0.0
C282 C 0.81317 0.77793 0.30348 0.0
C283 C 0.77382 0.81291 0.26357 0.0
C284 C 0.74872 0.81568 0.23141 0.0
C285 C 0.79019 0.78149 0.27027 0.0
C286 C 0.7428 0.78773 0.20441 0.0
C287 C 0.75916 0.75634 0.21081 0.0
H288 H 0.24296 0.77603 0.68807 0.0
H289 H 0.35073 0.81752 0.75296 0.0
H290 H 0.32266 0.79271 0.80958 0.0
H291 H 0.27039 0.7548 0.83921 0.0
H292 H 0.16295 0.71224 0.77472 0.0
H293 H 0.18765 0.7429 0.71938 0.0
C294 C 0.26034 0.77975 0.71461 0.0
C295 C 0.29929 0.79803 0.7161 0.0
C296 C 0.24398 0.76546 0.74706 0.0
C297 C 0.32092 0.80329 0.75089 0.0
C298 C 0.30487 0.78913 0.78329 0.0
C299 C 0.25206 0.75261 0.81317 0.0
C300 C 0.21509 0.73088 0.8109 0.0
C301 C 0.26682 0.76956 0.78149 0.0
C302 C 0.19143 0.72882 0.77721 0.0
C303 C 0.20577 0.74604 0.7455 0.0
H304 H 0.77853 0.74642 0.67487 0.0
H305 H 0.67701 0.69899 0.73177 0.0
H306 H 0.70604 0.72681 0.791 0.0
H307 H 0.75636 0.76947 0.82496 0.0
H308 H 0.85765 0.81779 0.76879 0.0
H309 H 0.83307 0.78395 0.71092 0.0
C310 C 0.76282 0.74197 0.70026 0.0
C311 C 0.72519 0.72119 0.69869 0.0
C312 C 0.7797 0.75809 0.73427 0.0
C313 C 0.70575 0.71508 0.73204 0.0
C314 C 0.72233 0.73101 0.76593 0.0
C315 C 0.77343 0.77215 0.80019 0.0
C316 C 0.80849 0.79639 0.80089 0.0
C317 C 0.75873 0.75324 0.76712 0.0
C318 C 0.83066 0.79924 0.76891 0.0
C319 C 0.81635 0.78018 0.73577 0.0
H320 H 0.67467 0.28789 0.73769 0.0
H321 H 0.77255 0.372 0.74462 0.0
H322 H 0.81324 0.33458 0.71131 0.0
H323 H 0.82659 0.27291 0.70154 0.0
H324 H 0.73052 0.18736 0.70258 0.0
H325 H 0.68315 0.22981 0.71067 0.0
C326 C 0.70403 0.2986 0.72963 0.0
C327 C 0.72104 0.33215 0.74378 0.0
C328 C 0.72799 0.27597 0.71312 0.0
C329 C 0.75907 0.3461 0.73376 0.0
C330 C 0.78257 0.32441 0.71544 0.0
C331 C 0.79498 0.26393 0.70167 0.0
C332 C 0.78168 0.22748 0.70194 0.0
C333 C 0.76839 0.28844 0.70815 0.0
C334 C 0.74099 0.21554 0.70247 0.0
C335 C 0.71405 0.23977 0.70735 0.0
H336 H 0.28479 0.34042 0.77285 0.0
H337 H 0.22836 0.28818 0.67142 0.0
H338 H 0.25699 0.23416 0.68718 0.0
H339 H 0.28811 0.19943 0.73474 0.0
H340 H 0.34141 0.2509 0.83779 0.0
H341 H 0.32385 0.30784 0.81631 0.0
C342 C 0.27933 0.31742 0.7538 0.0
C343 C 0.25371 0.31796 0.72148 0.0
C344 C 0.29463 0.28622 0.7637 0.0
C345 C 0.24773 0.28834 0.6966 0.0
C346 C 0.26375 0.25735 0.70581 0.0
C347 C 0.29621 0.22315 0.75242 0.0
C348 C 0.31504 0.22082 0.78826 0.0
C349 C 0.28557 0.25555 0.74014 0.0
C350 C 0.3264 0.25192 0.81033 0.0
C351 C 0.31634 0.28444 0.79808 0.0
H352 H 0.11223 0.97009 0.27546 0.0
H353 H 0.24037 0.98116 0.28256 0.0
H354 H 0.24276 0.03077 0.24027 0.0
H355 H 0.20871 0.07093 0.20033 0.0
H356 H 0.08081 0.06225 0.19537 0.0
H357 H 0.07812 1.01216 0.23742 0.0
C358 C 0.14065 0.98345 0.26784 0.0
C359 C 0.17604 0.97172 0.28223 0.0
C360 C 0.14191 1.01247 0.24366 0.0
C361 C 0.21261 0.98956 0.27212 0.0
C362 C 0.21406 0.01795 0.24777 0.0
C363 C 0.18025 0.05804 0.2084 0.0
C364 C 0.14502 0.07025 0.19444 0.0
C365 C 0.17893 0.02958 0.23319 0.0
C366 C 0.10841 0.05345 0.20561 0.0
C367 C 0.10684 0.02473 0.22969 0.0
H368 H 0.90356 0.43554 0.23503 0.0
H369 H 0.7936 0.45355 0.17652 0.0
H370 H 0.79053 0.50572 0.21658 0.0
H371 H 0.82037 0.54832 0.26584 0.0
H372 H 0.9296 0.53121 0.32585 0.0
H373 H 0.9313 0.4766 0.2882 0.0
C374 C 0.87885 0.45079 0.2312 0.0
C375 C 0.84901 0.4406 0.20243 0.0
C376 C 0.87705 0.481 0.25472 0.0
C377 C 0.81706 0.46062 0.1982 0.0
C378 C 0.81525 0.49059 0.22115 0.0
C379 C 0.84439 0.53248 0.27104 0.0
C380 C 0.87493 0.54405 0.29859 0.0
C381 C 0.84525 0.50129 0.24917 0.0
C382 C 0.90564 0.52297 0.30497 0.0
C383 C 0.90674 0.49181 0.28322 0.0
H384 H 0.21502 0.09324 0.90813 0.0
H385 H 0.32849 0.14624 0.95316 0.0
H386 H 0.29938 0.15875 0.01192 0.0
H387 H 0.24151 0.15696 0.05011 0.0
H388 H 0.1285 0.10188 1.00747 0.0
H389 H 0.1575 0.08825 0.94828 0.0
C390 C 0.23356 0.10718 0.9309 0.0
C391 C 0.27409 0.1188 0.92579 0.0
C392 C 0.21656 0.11441 0.96501 0.0
C393 C 0.29738 0.1368 0.95592 0.0
C394 C 0.28067 0.14422 0.98964 0.0
C395 C 0.22309 0.14211 0.02781 0.0
C396 C 0.18267 0.13091 0.03306 0.0
C397 C 0.24022 0.13365 0.99432 0.0
C398 C 0.15956 0.11107 1.0041 0.0
C399 C 0.17621 0.10319 0.97028 0.0
H400 H 0.76345 0.38897 0.05812 0.0
H401 H 0.87354 0.38567 1.00491 0.0
H402 H 0.83961 0.39281 0.94342 0.0
H403 H 0.77744 0.39512 0.90484 0.0
H404 H 0.66808 0.40201 0.95835 0.0
H405 H 0.70289 0.39863 0.02011 0.0
C406 C 0.78006 0.39041 0.03302 0.0
C407 C 0.82083 0.38668 0.03573 0.0
C408 C 0.7604 0.39487 0.99809 0.0
C409 C 0.84224 0.38872 1.00334 0.0
C410 C 0.82275 0.39255 0.96829 0.0
C411 C 0.76131 0.39619 0.9301 0.0
C412 C 0.72013 0.39831 0.92718 0.0
C413 C 0.78169 0.39487 0.9653 0.0
C414 C 0.69969 0.40032 0.95999 0.0
C415 C 0.71959 0.39825 0.99519 0.0
H416 H 0.26513 0.87816 0.56831 0.0
H417 H 0.37858 0.89264 0.51891 0.0
H418 H 0.34533 0.89968 0.45719 0.0
H419 H 0.28363 0.899 0.41703 0.0
H420 H 0.17063 0.89024 0.46718 0.0
H421 H 0.20391 0.88404 0.52915 0.0
C422 C 0.28252 0.88302 0.54398 0.0
C423 C 0.32421 0.88441 0.54789 0.0
C424 C 0.26323 0.88812 0.50893 0.0
C425 C 0.34652 0.89138 0.51646 0.0
C426 C 0.32747 0.89532 0.48124 0.0
C427 C 0.26637 0.89609 0.44166 0.0
C428 C 0.22472 0.89482 0.43766 0.0
C429 C 0.28584 0.89337 0.47711 0.0
C430 C 0.20268 0.89144 0.46968 0.0
C431 C 0.22172 0.88769 0.50499 0.0
H432 H 0.74852 0.65938 0.54096 0.0
H433 H 0.63692 0.60235 0.49719 0.0
H434 H 0.66797 0.58651 0.43987 0.0
H435 H 0.72673 0.59001 0.40167 0.0
H436 H 0.83875 0.64537 0.44736 0.0
H437 H 0.80776 0.66 0.50456 0.0
C438 C 0.73084 0.64365 0.5188 0.0
C439 C 0.69021 0.63251 0.52319 0.0
C440 C 0.74914 0.63396 0.48637 0.0
C441 C 0.6681 0.61153 0.49445 0.0
C442 C 0.68593 0.60237 0.46172 0.0
C443 C 0.74459 0.60491 0.42426 0.0
C444 C 0.78525 0.61655 0.4198 0.0
C445 C 0.72647 0.61347 0.45732 0.0
C446 C 0.80759 0.63585 0.44968 0.0
C447 C 0.78978 0.6445 0.48246 0.0
H448 H 0.92187 0.23954 0.09033 0.0
H449 H 0.97762 0.34679 0.11443 0.0
H450 H 0.0433 0.32651 0.11453 0.0
H451 H 0.08514 0.27802 0.10745 0.0
H452 H 0.02862 0.17027 0.08878 0.0
H453 H 0.96324 0.19093 0.08674 0.0
C454 C 0.94837 0.25856 0.09554 0.0
C455 C 0.94464 0.29481 0.10199 0.0
C456 C 0.98603 0.24654 0.09643 0.0
C457 C 0.97944 0.31883 0.10936 0.0
C458 C 0.01706 0.30721 0.1093 0.0
C459 C 0.05849 0.2591 0.10272 0.0
C460 C 0.06191 0.22259 0.09779 0.0
C461 C 0.02077 0.27112 0.10274 0.0
C462 C 0.02698 0.19842 0.09252 0.0
C463 C 0.98953 0.21027 0.09135 0.0
H464 H 0.98143 0.71006 0.40033 0.0
H465 H 0.9766 0.69948 0.27961 0.0
H466 H 0.03305 0.74603 0.27759 0.0
H467 H 0.08537 0.78901 0.31013 0.0
H468 H 0.09387 0.79622 0.43083 0.0
H469 H 0.03435 0.75249 0.43295 0.0
C470 C 0.99278 0.71789 0.37359 0.0
C471 C 0.97471 0.70108 0.34017 0.0
C472 C 0.02576 0.74452 0.37263 0.0
C473 C 0.98996 0.71164 0.3058 0.0
C474 C 0.02219 0.73847 0.30458 0.0
C475 C 0.0736 0.78146 0.33681 0.0
C476 C 0.09332 0.79639 0.37028 0.0
C477 C 0.04038 0.75512 0.33778 0.0
C478 C 0.07871 0.78553 0.40473 0.0
C479 C 0.04488 0.76032 0.40592 0.0
H480 H 0.58966 0.78025 0.59477 0.0
H481 H 0.53373 0.67169 0.58387 0.0
H482 H 0.46827 0.69166 0.58655 0.0
H483 H 0.42665 0.7399 0.59372 0.0
H484 H 0.48291 0.84802 0.60989 0.0
H485 H 0.54808 0.82841 0.6035 0.0
C486 C 0.56312 0.76098 0.59258 0.0
C487 C 0.56677 0.72445 0.58868 0.0
C488 C 0.52547 0.77262 0.59534 0.0
C489 C 0.53196 0.6999 0.58673 0.0
C490 C 0.49444 0.71134 0.5883 0.0
C491 C 0.45313 0.75924 0.59563 0.0
C492 C 0.44962 0.79553 0.60206 0.0
C493 C 0.49078 0.74761 0.59285 0.0
C494 C 0.48451 0.82 0.60501 0.0
C495 C 0.52189 0.80877 0.60129 0.0
H496 H 0.90183 0.04399 0.74 0.0
H497 H 0.81604 0.10028 0.79257 0.0
H498 H 0.80399 0.05329 0.83699 0.0
H499 H 0.81386 0.99409 0.85887 0.0
H500 H 0.90243 0.93855 0.81046 0.0
H501 H 0.91753 0.98705 0.76735 0.0
C502 C 0.88086 0.0461 0.76144 0.0
C503 C 0.85965 0.0757 0.76242 0.0
C504 C 0.87438 0.01892 0.78786 0.0
C505 C 0.83284 0.07798 0.79078 0.0
C506 C 0.82574 0.05095 0.81634 0.0
C507 C 0.83688 0.9928 0.83926 0.0
C508 C 0.85679 0.96254 0.83791 0.0
C509 C 0.84578 0.02102 0.81482 0.0
C510 C 0.88676 0.96156 0.8124 0.0
C511 C 0.89522 0.98924 0.78746 0.0
H512 H 0.14262 0.58546 0.78861 0.0
H513 H 0.20151 0.53427 0.87829 0.0
H514 H 0.19783 0.48008 0.83957 0.0
H515 H 0.18381 0.44908 0.77912 0.0
H516 H 0.12859 0.49946 0.6867 0.0
H517 H 0.12466 0.55192 0.72743 0.0
C518 C 0.15379 0.56211 0.79982 0.0
C519 C 0.17212 0.56382 0.83649 0.0
C520 C 0.15273 0.53108 0.77672 0.0
C521 C 0.18721 0.53362 0.85033 0.0
C522 C 0.18526 0.50265 0.82812 0.0
C523 C 0.17047 0.47131 0.76774 0.0
C524 C 0.15668 0.47024 0.72968 0.0
C525 C 0.16903 0.50138 0.79105 0.0
C526 C 0.13943 0.49944 0.7158 0.0
C527 C 0.13733 0.52951 0.73912 0.0
H528 H 0.70152 0.87516 0.05799 0.0
H529 H 0.79776 0.92788 0.13065 0.0
H530 H 0.84351 0.92537 0.08037 0.0
H531 H 0.85703 0.90562 0.01546 0.0
H532 H 0.75855 0.85433 0.94387 0.0
H533 H 0.71371 0.85907 0.99338 0.0
C534 C 0.73243 0.88636 0.06283 0.0
C535 C 0.74597 0.90158 0.09825 0.0
C536 C 0.75862 0.88498 0.03369 0.0
C537 C 0.78626 0.91604 0.10371 0.0
C538 C 0.8126 0.9145 0.07491 0.0
C539 C 0.82575 0.89577 0.01066 0.0
C540 C 0.81166 0.87944 0.97565 0.0
C541 C 0.79929 0.89867 0.03971 0.0
C542 C 0.77076 0.86694 0.97024 0.0
C543 C 0.74476 0.86956 0.99871 0.0
H544 H 0.25451 0.65475 0.95859 0.0
H545 H 0.14482 0.61905 1.00911 0.0
H546 H 0.18232 0.608 0.0676 0.0
H547 H 0.2465 0.61316 0.10589 0.0
H548 H 0.35526 0.64984 0.05394 0.0
H549 H 0.31793 0.65537 0.99452 0.0
C550 C 0.23864 0.64419 0.9822 0.0
C551 C 0.19674 0.63798 0.97941 0.0
C552 C 0.26037 0.63813 0.01563 0.0
C553 C 0.17696 0.62409 0.01038 0.0
C554 C 0.19846 0.61789 0.0439 0.0
C555 C 0.26211 0.62174 0.08139 0.0
C556 C 0.30382 0.63114 0.08459 0.0
C557 C 0.24021 0.62541 0.04709 0.0
C558 C 0.32334 0.64246 0.0525 0.0
C559 C 0.30195 0.64578 0.01844 0.0
H560 H 0.67678 0.12936 0.51019 0.0
H561 H 0.77513 0.17038 0.44552 0.0
H562 H 0.82192 0.16053 0.4966 0.0
H563 H 0.83578 0.14531 0.56174 0.0
H564 H 0.73896 0.10406 0.62776 0.0
H565 H 0.69156 0.1085 0.57455 0.0
C566 C 0.70843 0.13568 0.50717 0.0
C567 C 0.72204 0.15091 0.47391 0.0
C568 C 0.73587 0.13007 0.53718 0.0
C569 C 0.76337 0.15884 0.47065 0.0
C570 C 0.79046 0.15325 0.5 0.0
C571 C 0.8044 0.13668 0.56434 0.0
C572 C 0.79115 0.12453 0.59887 0.0
C573 C 0.77714 0.1396 0.53369 0.0
C574 C 0.75022 0.1135 0.60156 0.0
C575 C 0.72293 0.11623 0.57111 0.0
H576 H 0.28855 0.41842 0.60601 0.0
H577 H 0.17804 0.37368 0.54781 0.0
H578 H 0.21171 0.36871 0.48997 0.0
H579 H 0.27248 0.37366 0.45627 0.0
H580 H 0.38446 0.416 0.51298 0.0
H581 H 0.35043 0.42555 0.57057 0.0
C582 C 0.27181 0.40799 0.58055 0.0
C583 C 0.2306 0.39642 0.58152 0.0
C584 C 0.2917 0.40458 0.547 0.0
C585 C 0.20962 0.38269 0.54818 0.0
C586 C 0.2289 0.3798 0.51494 0.0
C587 C 0.28962 0.38529 0.48106 0.0
C588 C 0.33116 0.39403 0.48008 0.0
C589 C 0.26995 0.39014 0.51411 0.0
C590 C 0.35254 0.40905 0.51272 0.0
C591 C 0.33302 0.4144 0.54576 0.0
H592 H 0.09071 0.76743 0.90803 0.0
H593 H 0.01467 0.6699 0.87834 0.0
H594 H 0.95598 0.70079 0.88123 0.0
H595 H 0.92572 0.75627 0.89066 0.0
H596 H 1.00234 0.85469 0.91395 0.0
H597 H 0.06072 0.82307 0.91537 0.0
C598 C 0.06128 0.75293 0.90233 0.0
C599 C 0.05726 0.71626 0.89315 0.0
C600 C 0.0275 0.77117 0.90298 0.0
C601 C 0.0188 0.69808 0.88538 0.0
C602 C 0.98511 0.71576 0.88712 0.0
C603 C 0.95519 0.77066 0.89645 0.0
C604 C 0.95954 0.8078 0.90268 0.0
C605 C 0.98898 0.75237 0.89576 0.0
C606 C 0.99807 0.82613 0.90926 0.0
C607 C 0.03155 0.80803 0.91 0.0
H608 H 0.08689 0.29423 0.76256 0.0
H609 H 0.0532 0.33339 0.65464 0.0
H610 H 0.99634 0.28618 0.64776 0.0
H611 H 0.9538 0.23511 0.67461 0.0
H612 H 0.99032 0.19702 0.78235 0.0
H613 H 0.04859 0.24176 0.7866 0.0
C614 C 0.06707 0.2927 0.73751 0.0
C615 C 0.07408 0.31798 0.70951 0.0
C616 C 0.035 0.26518 0.7335 0.0
C617 C 0.04845 0.31468 0.67688 0.0
C618 C 0.01593 0.28754 0.6729 0.0
C619 C 0.97509 0.23606 0.6985 0.0
C620 C 0.96756 0.21245 0.72811 0.0
C621 C 1.00866 0.26266 0.70119 0.0
C622 C 0.99523 0.21465 0.75916 0.0
C623 C 0.02852 0.24047 0.76177 0.0
H624 H 0.52904 0.19923 0.39753 0.0
H625 H 0.62441 0.28598 0.4012 0.0
H626 H 0.57639 0.32874 0.40036 0.0
H627 H 0.5068 0.34193 0.39774 0.0
H628 H 0.4116 0.25561 0.40066 0.0
H629 H 0.45949 0.21263 0.39991 0.0
C630 C 0.53925 0.2275 0.39825 0.0
C631 C 0.58041 0.23928 0.39921 0.0
C632 C 0.51131 0.25217 0.39894 0.0
C633 C 0.59304 0.27608 0.40058 0.0
C634 C 0.56551 0.30062 0.39999 0.0
C635 C 0.49658 0.3137 0.39831 0.0
C636 C 0.45552 0.30208 0.399 0.0
C637 C 0.52452 0.28906 0.39904 0.0
C638 C 0.44293 0.26538 0.40021 0.0
C639 C 0.47037 0.24072 0.39967 0.0
H640 H 0.71177 0.57237 0.69044 0.0
H641 H 0.58389 0.56472 0.68167 0.0
H642 H 0.5792 0.51502 0.72415 0.0
H643 H 0.61142 0.47314 0.76365 0.0
H644 H 0.73942 0.48277 0.77464 0.0
H645 H 0.744 0.53212 0.73189 0.0
C646 C 0.68289 0.55973 0.69775 0.0
C647 C 0.64825 0.57211 0.68265 0.0
C648 C 0.68039 0.53151 0.72282 0.0
C649 C 0.61106 0.55573 0.69283 0.0
C650 C 0.60832 0.52726 0.71715 0.0
C651 C 0.64029 0.48614 0.7568 0.0
C652 C 0.67499 0.47414 0.77235 0.0
C653 C 0.64278 0.51487 0.73234 0.0
C654 C 0.71218 0.49145 0.76324 0.0
C655 C 0.71487 0.51966 0.73863 0.0
H656 H 0.41931 0.0391 0.81002 0.0
H657 H 0.29594 0.05081 0.78657 0.0
H658 H 0.28778 0.99888 0.74413 0.0
H659 H 0.31654 0.95271 0.70977 0.0
H660 H 0.44036 0.94134 0.73092 0.0
H661 H 0.44749 0.99021 0.77765 0.0
C662 C 0.3905 0.0297 0.79626 0.0
C663 C 0.35823 0.04874 0.80165 0.0
C664 C 0.38621 1.00015 0.77082 0.0
C665 C 0.32124 0.03665 0.783 0.0
C666 C 0.31657 1.00701 0.75851 0.0
C667 C 0.34508 0.96081 0.72466 0.0
C668 C 0.3779 0.94345 0.7165 0.0
C669 C 0.34903 0.98905 0.75147 0.0
C670 C 0.41458 0.95428 0.73638 0.0
C671 C 0.4187 0.98225 0.76324 0.0
H672 H 0.45619 0.23021 0.80917 0.0
H673 H 0.48852 0.17348 0.90694 0.0
H674 H 0.55004 0.2145 0.91763 0.0
H675 H 0.59508 0.26618 0.89891 0.0
H676 H 0.56084 0.32608 0.80399 0.0
H677 H 0.4995 0.2849 0.793 0.0
C678 C 0.47701 0.22673 0.83253 0.0
C679 C 0.46836 0.19841 0.85679 0.0
C680 C 0.5117 0.25137 0.83937 0.0
C681 C 0.49487 0.1948 0.88765 0.0
C682 C 0.52993 0.21835 0.89386 0.0
C683 C 0.57404 0.2705 0.87602 0.0
C684 C 0.5828 0.29929 0.8523 0.0
C685 C 0.53867 0.24678 0.86996 0.0
C686 C 0.55489 0.30444 0.82294 0.0
C687 C 0.5199 0.28064 0.81639 0.0
H688 H 0.40286 0.54481 0.22969 0.0
H689 H 0.32054 0.60277 0.28547 0.0
H690 H 0.31218 0.5577 0.33223 0.0
H691 H 0.32411 0.49993 0.35586 0.0
H692 H 0.40808 0.44157 0.30386 0.0
H693 H 0.42023 0.48842 0.25808 0.0
C694 C 0.38342 0.54768 0.25227 0.0
C695 C 0.36212 0.57731 0.25345 0.0
C696 C 0.3789 0.52142 0.28006 0.0
C697 C 0.3373 0.58047 0.28332 0.0
C698 C 0.33235 0.55455 0.31032 0.0
C699 C 0.34552 0.4976 0.33486 0.0
C700 C 0.36498 0.46705 0.33341 0.0
C701 C 0.35244 0.52467 0.30873 0.0
C702 C 0.39282 0.46482 0.30599 0.0
C703 C 0.39954 0.49155 0.27951 0.0
H704 H 0.65129 0.09487 0.28573 0.0
H705 H 0.69747 0.04424 0.38249 0.0
H706 H 0.69073 0.98759 0.3474 0.0
H707 H 0.67883 0.95402 0.28779 0.0
H708 H 0.63617 1.00404 0.18905 0.0
H709 H 0.63405 0.05901 0.22608 0.0
C710 C 0.65874 0.07113 0.29929 0.0
C711 C 0.67435 0.0736 0.3369 0.0
C712 C 0.65603 0.03864 0.27835 0.0
C713 C 0.68497 0.04289 0.35382 0.0
C714 C 0.68139 1.01055 0.33364 0.0
C715 C 0.66853 0.97674 0.27432 0.0
C716 C 0.6579 0.97482 0.23551 0.0
C717 C 0.66807 1.00833 0.29565 0.0
C718 C 0.64452 1.00464 0.21879 0.0
C719 C 0.64347 0.03618 0.24 0.0
H720 H 0.58138 0.80064 0.26732 0.0
H721 H 0.55761 0.83419 0.1547 0.0
H722 H 0.50108 0.78668 0.14621 0.0
H723 H 0.45627 0.73664 0.17251 0.0
H724 H 0.48322 0.70451 0.28524 0.0
H725 H 0.54077 0.74986 0.29153 0.0
C726 C 0.56382 0.79792 0.24085 0.0
C727 C 0.57355 0.82168 0.21195 0.0
C728 C 0.53195 0.7703 0.23604 0.0
C729 C 0.55075 0.81672 0.17764 0.0
C730 C 0.51843 0.7894 0.17276 0.0
C731 C 0.47526 0.7391 0.19811 0.0
C732 C 0.46516 0.71693 0.2284 0.0
C733 C 0.50852 0.76603 0.20189 0.0
C734 C 0.48997 0.72103 0.26152 0.0
C735 C 0.52291 0.74717 0.26525 0.0
loop_
_geom_bond_atom_site_label_1
_geom_bond_atom_site_label_2
_geom_bond_distance
_geom_bond_site_symmetry_2
_ccdc_geom_bond_type
Co0 O1 2.216 . S
Co0 O2 2.091 . S
Co0 O4 2.004 . S
Co0 O10 2.021 . S
Co0 O12 2.137 . S
Co0 O13 2.244 . S
O1 Co0 2.216 . S
O1 C8 1.247 . S
O2 Co0 2.091 . S
O2 C8 1.261 . S
C3 O12 1.247 . S
C3 O13 1.272 . S
O4 Co0 2.004 . S
O4 C9 1.259 . S
Co5 O6 2.061 . S
Co5 O11 2.052 . S
Co5 O13 2.135 . S
O6 Co5 2.061 . S
O6 C9 1.235 . S
C7 O10 1.238 . S
C7 O11 1.241 . S
C8 O1 1.247 . S
C8 O2 1.261 . S
C9 O4 1.259 . S
C9 O6 1.235 . S
O10 Co0 2.021 . S
O10 C7 1.238 . S
O11 Co5 2.052 . S
O11 C7 1.241 . S
O12 Co0 2.137 . S
O12 C3 1.247 . S
O13 Co0 2.244 . S
O13 C3 1.272 . S
O13 Co5 2.135 . S
Co14 O15 2.216 . S
Co14 O16 2.091 . S
Co14 O18 2.004 . S
Co14 O24 2.021 . S
Co14 O26 2.137 . S
Co14 O27 2.244 . S
O15 Co14 2.216 . S
O15 C22 1.247 . S
O16 Co14 2.091 . S
O16 C22 1.261 . S
C17 O26 1.247 . S
C17 O27 1.272 . S
O18 Co14 2.004 . S
O18 C23 1.259 . S
Co19 O20 2.061 . S
Co19 O25 2.052 . S
Co19 O27 2.135 . S
O20 Co19 2.061 . S
O20 C23 1.235 . S
C21 O24 1.238 . S
C21 O25 1.241 . S
C22 O15 1.247 . S
C22 O16 1.261 . S
C23 O18 1.259 . S
C23 O20 1.235 . S
O24 Co14 2.021 . S
O24 C21 1.238 . S
O25 Co19 2.052 . S
O25 C21 1.241 . S
O26 Co14 2.137 . S
O26 C17 1.247 . S
O27 Co14 2.244 . S
O27 C17 1.272 . S
O27 Co19 2.135 . S
Co28 O29 2.216 . S
Co28 O30 2.091 . S
Co28 O32 2.004 . S
Co28 O38 2.021 . S
Co28 O40 2.137 . S
Co28 O41 2.244 . S
O29 Co28 2.216 . S
O29 C36 1.247 . S
O30 Co28 2.091 . S
O30 C36 1.261 . S
C31 O40 1.247 . S
C31 O41 1.272 . S
O32 Co28 2.004 . S
O32 C37 1.259 . S
Co33 O34 2.061 . S
Co33 O39 2.052 . S
Co33 O41 2.135 . S
O34 Co33 2.061 . S
O34 C37 1.235 . S
C35 O38 1.238 . S
C35 O39 1.241 . S
C36 O29 1.247 . S
C36 O30 1.261 . S
C37 O32 1.259 . S
C37 O34 1.235 . S
O38 Co28 2.021 . S
O38 C35 1.238 . S
O39 Co33 2.052 . S
O39 C35 1.241 . S
O40 Co28 2.137 . S
O40 C31 1.247 . S
O41 Co28 2.244 . S
O41 C31 1.272 . S
O41 Co33 2.135 . S
Co42 O43 2.216 . S
Co42 O44 2.091 . S
Co42 O46 2.004 . S
Co42 O52 2.021 . S
Co42 O54 2.137 . S
Co42 O55 2.244 . S
O43 Co42 2.216 . S
O43 C50 1.247 . S
O44 Co42 2.091 . S
O44 C50 1.261 . S
C45 O54 1.247 . S
C45 O55 1.272 . S
O46 Co42 2.004 . S
O46 C51 1.259 . S
Co47 O48 2.061 . S
Co47 O53 2.052 . S
Co47 O55 2.135 . S
O48 Co47 2.061 . S
O48 C51 1.235 . S
C49 O52 1.238 . S
C49 O53 1.241 . S
C50 O43 1.247 . S
C50 O44 1.261 . S
C51 O46 1.259 . S
C51 O48 1.235 . S
O52 Co42 2.021 . S
O52 C49 1.238 . S
O53 Co47 2.052 . S
O53 C49 1.241 . S
O54 Co42 2.137 . S
O54 C45 1.247 . S
O55 Co42 2.244 . S
O55 C45 1.272 . S
O55 Co47 2.135 . S
Co56 O57 2.216 . S
Co56 O58 2.091 . S
Co56 O60 2.004 . S
Co56 O66 2.021 . S
Co56 O68 2.137 . S
Co56 O69 2.244 . S
O57 Co56 2.216 . S
O57 C64 1.247 . S
O58 Co56 2.091 . S
O58 C64 1.261 . S
C59 O68 1.247 . S
C59 O69 1.272 . S
O60 Co56 2.004 . S
O60 C65 1.259 . S
Co61 O62 2.061 . S
Co61 O67 2.052 . S
Co61 O69 2.135 . S
O62 Co61 2.061 . S
O62 C65 1.235 . S
C63 O66 1.238 . S
C63 O67 1.241 . S
C64 O57 1.247 . S
C64 O58 1.261 . S
C65 O60 1.259 . S
C65 O62 1.235 . S
O66 Co56 2.021 . S
O66 C63 1.238 . S
O67 Co61 2.052 . S
O67 C63 1.241 . S
O68 Co56 2.137 . S
O68 C59 1.247 . S
O69 Co56 2.244 . S
O69 C59 1.272 . S
O69 Co61 2.135 . S
Co70 O71 2.216 . S
Co70 O72 2.091 . S
Co70 O74 2.004 . S
Co70 O80 2.021 . S
Co70 O82 2.137 . S
Co70 O83 2.244 . S
O71 Co70 2.216 . S
O71 C78 1.247 . S
O72 Co70 2.091 . S
O72 C78 1.261 . S
C73 O82 1.247 . S
C73 O83 1.272 . S
O74 Co70 2.004 . S
O74 C79 1.259 . S
Co75 O76 2.061 . S
Co75 O81 2.052 . S
Co75 O83 2.135 . S
O76 Co75 2.061 . S
O76 C79 1.235 . S
C77 O80 1.238 . S
C77 O81 1.241 . S
C78 O71 1.247 . S
C78 O72 1.261 . S
C79 O74 1.259 . S
C79 O76 1.235 . S
O80 Co70 2.021 . S
O80 C77 1.238 . S
O81 Co75 2.052 . S
O81 C77 1.241 . S
O82 Co70 2.137 . S
O82 C73 1.247 . S
O83 Co70 2.244 . S
O83 C73 1.272 . S
O83 Co75 2.135 . S
Co84 O85 2.216 . S
Co84 O86 2.091 . S
Co84 O88 2.004 . S
Co84 O94 2.021 . S
Co84 O96 2.137 . S
Co84 O97 2.244 . S
O85 Co84 2.216 . S
O85 C92 1.247 . S
O86 Co84 2.091 . S
O86 C92 1.261 . S
C87 O96 1.247 . S
C87 O97 1.272 . S
O88 Co84 2.004 . S
O88 C93 1.259 . S
Co89 O90 2.061 . S
Co89 O95 2.052 . S
Co89 O97 2.135 . S
O90 Co89 2.061 . S
O90 C93 1.235 . S
C91 O94 1.238 . S
C91 O95 1.241 . S
C92 O85 1.247 . S
C92 O86 1.261 . S
C93 O88 1.259 . S
C93 O90 1.235 . S
O94 Co84 2.021 . S
O94 C91 1.238 . S
O95 Co89 2.052 . S
O95 C91 1.241 . S
O96 Co84 2.137 . S
O96 C87 1.247 . S
O97 Co84 2.244 . S
O97 C87 1.272 . S
O97 Co89 2.135 . S
Co98 O99 2.216 . S
Co98 O100 2.091 . S
Co98 O102 2.004 . S
Co98 O108 2.021 . S
Co98 O110 2.137 . S
Co98 O111 2.244 . S
O99 Co98 2.216 . S
O99 C106 1.247 . S
O100 Co98 2.091 . S
O100 C106 1.261 . S
C101 O110 1.247 . S
C101 O111 1.272 . S
O102 Co98 2.004 . S
O102 C107 1.259 . S
Co103 O104 2.061 . S
Co103 O109 2.052 . S
Co103 O111 2.135 . S
O104 Co103 2.061 . S
O104 C107 1.235 . S
C105 O108 1.238 . S
C105 O109 1.241 . S
C106 O99 1.247 . S
C106 O100 1.261 . S
C107 O102 1.259 . S
C107 O104 1.235 . S
O108 Co98 2.021 . S
O108 C105 1.238 . S
O109 Co103 2.052 . S
O109 C105 1.241 . S
O110 Co98 2.137 . S
O110 C101 1.247 . S
O111 Co98 2.244 . S
O111 C101 1.272 . S
O111 Co103 2.135 . S
Co112 O113 2.216 . S
Co112 O114 2.091 . S
Co112 O116 2.004 . S
Co112 O122 2.021 . S
Co112 O124 2.137 . S
Co112 O125 2.244 . S
O113 Co112 2.216 . S
O113 C120 1.247 . S
O114 Co112 2.091 . S
O114 C120 1.261 . S
C115 O124 1.247 . S
C115 O125 1.272 . S
O116 Co112 2.004 . S
O116 C121 1.259 . S
Co117 O118 2.061 . S
Co117 O123 2.052 . S
Co117 O125 2.135 . S
O118 Co117 2.061 . S
O118 C121 1.235 . S
C119 O122 1.238 . S
C119 O123 1.241 . S
C120 O113 1.247 . S
C120 O114 1.261 . S
C121 O116 1.259 . S
C121 O118 1.235 . S
O122 Co112 2.021 . S
O122 C119 1.238 . S
O123 Co117 2.052 . S
O123 C119 1.241 . S
O124 Co112 2.137 . S
O124 C115 1.247 . S
O125 Co112 2.244 . S
O125 C115 1.272 . S
O125 Co117 2.135 . S
Co126 O127 2.216 . S
Co126 O128 2.091 . S
Co126 O130 2.004 . S
Co126 O136 2.021 . S
Co126 O138 2.137 . S
Co126 O139 2.244 . S
O127 Co126 2.216 . S
O127 C134 1.247 . S
O128 Co126 2.091 . S
O128 C134 1.261 . S
C129 O138 1.247 . S
C129 O139 1.272 . S
O130 Co126 2.004 . S
O130 C135 1.259 . S
Co131 O132 2.061 . S
Co131 O137 2.052 . S
Co131 O139 2.135 . S
O132 Co131 2.061 . S
O132 C135 1.235 . S
C133 O136 1.238 . S
C133 O137 1.241 . S
C134 O127 1.247 . S
C134 O128 1.261 . S
C135 O130 1.259 . S
C135 O132 1.235 . S
O136 Co126 2.021 . S
O136 C133 1.238 . S
O137 Co131 2.052 . S
O137 C133 1.241 . S
O138 Co126 2.137 . S
O138 C129 1.247 . S
O139 Co126 2.244 . S
O139 C129 1.272 . S
O139 Co131 2.135 . S
Co140 O141 2.216 . S
Co140 O142 2.091 . S
Co140 O144 2.004 . S
Co140 O150 2.021 . S
Co140 O152 2.137 . S
Co140 O153 2.244 . S
O141 Co140 2.216 . S
O141 C148 1.247 . S
O142 Co140 2.091 . S
O142 C148 1.261 . S
C143 O152 1.247 . S
C143 O153 1.272 . S
O144 Co140 2.004 . S
O144 C149 1.259 . S
Co145 O146 2.061 . S
Co145 O151 2.052 . S
Co145 O153 2.135 . S
O146 Co145 2.061 . S
O146 C149 1.235 . S
C147 O150 1.238 . S
C147 O151 1.241 . S
C148 O141 1.247 . S
C148 O142 1.261 . S
C149 O144 1.259 . S
C149 O146 1.235 . S
O150 Co140 2.021 . S
O150 C147 1.238 . S
O151 Co145 2.052 . S
O151 C147 1.241 . S
O152 Co140 2.137 . S
O152 C143 1.247 . S
O153 Co140 2.244 . S
O153 C143 1.272 . S
O153 Co145 2.135 . S
Co154 O155 2.216 . S
Co154 O156 2.091 . S
Co154 O158 2.004 . S
Co154 O164 2.021 . S
Co154 O166 2.137 . S
Co154 O167 2.244 . S
O155 Co154 2.216 . S
O155 C162 1.247 . S
O156 Co154 2.091 . S
O156 C162 1.261 . S
C157 O166 1.247 . S
C157 O167 1.272 . S
O158 Co154 2.004 . S
O158 C163 1.259 . S
Co159 O160 2.061 . S
Co159 O165 2.052 . S
Co159 O167 2.135 . S
O160 Co159 2.061 . S
O160 C163 1.235 . S
C161 O164 1.238 . S
C161 O165 1.241 . S
C162 O155 1.247 . S
C162 O156 1.261 . S
C163 O158 1.259 . S
C163 O160 1.235 . S
O164 Co154 2.021 . S
O164 C161 1.238 . S
O165 Co159 2.052 . S
O165 C161 1.241 . S
O166 Co154 2.137 . S
O166 C157 1.247 . S
O167 Co154 2.244 . S
O167 C157 1.272 . S
O167 Co159 2.135 . S
Co168 O169 2.216 . S
Co168 O170 2.091 . S
Co168 O172 2.004 . S
Co168 O178 2.021 . S
Co168 O180 2.137 . S
Co168 O181 2.244 . S
O169 Co168 2.216 . S
O169 C176 1.247 . S
O170 Co168 2.091 . S
O170 C176 1.261 . S
C171 O180 1.247 . S
C171 O181 1.272 . S
O172 Co168 2.004 . S
O172 C177 1.259 . S
Co173 O174 2.061 . S
Co173 O179 2.052 . S
Co173 O181 2.135 . S
O174 Co173 2.061 . S
O174 C177 1.235 . S
C175 O178 1.238 . S
C175 O179 1.241 . S
C176 O169 1.247 . S
C176 O170 1.261 . S
C177 O172 1.259 . S
C177 O174 1.235 . S
O178 Co168 2.021 . S
O178 C175 1.238 . S
O179 Co173 2.052 . S
O179 C175 1.241 . S
O180 Co168 2.137 . S
O180 C171 1.247 . S
O181 Co168 2.244 . S
O181 C171 1.272 . S
O181 Co173 2.135 . S
Co182 O183 2.216 . S
Co182 O184 2.091 . S
Co182 O186 2.004 . S
Co182 O192 2.021 . S
Co182 O194 2.137 . S
Co182 O195 2.244 . S
O183 Co182 2.216 . S
O183 C190 1.247 . S
O184 Co182 2.091 . S
O184 C190 1.261 . S
C185 O194 1.247 . S
C185 O195 1.272 . S
O186 Co182 2.004 . S
O186 C191 1.259 . S
Co187 O188 2.061 . S
Co187 O193 2.052 . S
Co187 O195 2.135 . S
O188 Co187 2.061 . S
O188 C191 1.235 . S
C189 O192 1.238 . S
C189 O193 1.241 . S
C190 O183 1.247 . S
C190 O184 1.261 . S
C191 O186 1.259 . S
C191 O188 1.235 . S
O192 Co182 2.021 . S
O192 C189 1.238 . S
O193 Co187 2.052 . S
O193 C189 1.241 . S
O194 Co182 2.137 . S
O194 C185 1.247 . S
O195 Co182 2.244 . S
O195 C185 1.272 . S
O195 Co187 2.135 . S
Co196 O197 2.216 . S
Co196 O198 2.091 . S
Co196 O200 2.004 . S
Co196 O206 2.021 . S
Co196 O208 2.137 . S
Co196 O209 2.244 . S
O197 Co196 2.216 . S
O197 C204 1.247 . S
O198 Co196 2.091 . S
O198 C204 1.261 . S
C199 O208 1.247 . S
C199 O209 1.272 . S
O200 Co196 2.004 . S
O200 C205 1.259 . S
Co201 O202 2.061 . S
Co201 O207 2.052 . S
Co201 O209 2.135 . S
O202 Co201 2.061 . S
O202 C205 1.235 . S
C203 O206 1.238 . S
C203 O207 1.241 . S
C204 O197 1.247 . S
C204 O198 1.261 . S
C205 O200 1.259 . S
C205 O202 1.235 . S
O206 Co196 2.021 . S
O206 C203 1.238 . S
O207 Co201 2.052 . S
O207 C203 1.241 . S
O208 Co196 2.137 . S
O208 C199 1.247 . S
O209 Co196 2.244 . S
O209 C199 1.272 . S
O209 Co201 2.135 . S
Co210 O211 2.216 . S
Co210 O212 2.091 . S
Co210 O214 2.004 . S
Co210 O220 2.021 . S
Co210 O222 2.137 . S
Co210 O223 2.244 . S
O211 Co210 2.216 . S
O211 C218 1.247 . S
O212 Co210 2.091 . S
O212 C218 1.261 . S
C213 O222 1.247 . S
C213 O223 1.272 . S
O214 Co210 2.004 . S
O214 C219 1.259 . S
Co215 O216 2.061 . S
Co215 O221 2.052 . S
Co215 O223 2.135 . S
O216 Co215 2.061 . S
O216 C219 1.235 . S
C217 O220 1.238 . S
C217 O221 1.241 . S
C218 O211 1.247 . S
C218 O212 1.261 . S
C219 O214 1.259 . S
C219 O216 1.235 . S
O220 Co210 2.021 . S
O220 C217 1.238 . S
O221 Co215 2.052 . S
O221 C217 1.241 . S
O222 Co210 2.137 . S
O222 C213 1.247 . S
O223 Co210 2.244 . S
O223 C213 1.272 . S
O223 Co215 2.135 . S
H224 C230 0.930 . S
H225 C233 0.930 . S
H226 C234 0.930 . S
H227 C235 0.930 . S
H228 C238 0.930 . S
H229 C239 0.930 . S
C230 H224 0.930 . S
C230 C231 1.355 . S
C230 C232 1.415 . S
C231 C230 1.355 . S
C231 C233 1.419 . S
C232 C230 1.415 . S
C232 C237 1.425 . S
C232 C239 1.409 . S
C233 H225 0.930 . S
C233 C231 1.419 . S
C233 C234 1.362 . S
C234 H226 0.930 . S
C234 C233 1.362 . S
C234 C237 1.409 . S
C235 H227 0.930 . S
C235 C236 1.355 . S
C235 C237 1.415 . S
C236 C235 1.355 . S
C236 C238 1.419 . S
C237 C232 1.425 . S
C237 C234 1.409 . S
C237 C235 1.415 . S
C238 H228 0.930 . S
C238 C236 1.419 . S
C238 C239 1.362 . S
C239 H229 0.930 . S
C239 C232 1.409 . S
C239 C238 1.362 . S
H240 C246 0.930 . S
H241 C249 0.930 . S
H242 C250 0.930 . S
H243 C251 0.930 . S
H244 C254 0.930 . S
H245 C255 0.930 . S
C246 H240 0.930 . S
C246 C247 1.355 . S
C246 C248 1.415 . S
C247 C246 1.355 . S
C247 C249 1.419 . S
C248 C246 1.415 . S
C248 C253 1.425 . S
C248 C255 1.409 . S
C249 H241 0.930 . S
C249 C247 1.419 . S
C249 C250 1.362 . S
C250 H242 0.930 . S
C250 C249 1.362 . S
C250 C253 1.409 . S
C251 H243 0.930 . S
C251 C252 1.355 . S
C251 C253 1.415 . S
C252 C251 1.355 . S
C252 C254 1.419 . S
C253 C248 1.425 . S
C253 C250 1.409 . S
C253 C251 1.415 . S
C254 H244 0.930 . S
C254 C252 1.419 . S
C254 C255 1.362 . S
C255 H245 0.930 . S
C255 C248 1.409 . S
C255 C254 1.362 . S
H256 C262 0.930 . S
H257 C265 0.930 . S
H258 C266 0.930 . S
H259 C267 0.930 . S
H260 C270 0.930 . S
H261 C271 0.930 . S
C262 H256 0.930 . S
C262 C263 1.355 . S
C262 C264 1.415 . S
C263 C262 1.355 . S
C263 C265 1.419 . S
C264 C262 1.415 . S
C264 C269 1.425 . S
C264 C271 1.409 . S
C265 H257 0.930 . S
C265 C263 1.419 . S
C265 C266 1.362 . S
C266 H258 0.930 . S
C266 C265 1.362 . S
C266 C269 1.409 . S
C267 H259 0.930 . S
C267 C268 1.355 . S
C267 C269 1.415 . S
C268 C267 1.355 . S
C268 C270 1.419 . S
C269 C264 1.425 . S
C269 C266 1.409 . S
C269 C267 1.415 . S
C270 H260 0.930 . S
C270 C268 1.419 . S
C270 C271 1.362 . S
C271 H261 0.930 . S
C271 C264 1.409 . S
C271 C270 1.362 . S
H272 C278 0.930 . S
H273 C281 0.930 . S
H274 C282 0.930 . S
H275 C283 0.930 . S
H276 C286 0.930 . S
H277 C287 0.930 . S
C278 H272 0.930 . S
C278 C279 1.355 . S
C278 C280 1.415 . S
C279 C278 1.355 . S
C279 C281 1.419 . S
C280 C278 1.415 . S
C280 C285 1.425 . S
C280 C287 1.409 . S
C281 H273 0.930 . S
C281 C279 1.419 . S
C281 C282 1.362 . S
C282 H274 0.930 . S
C282 C281 1.362 . S
C282 C285 1.409 . S
C283 H275 0.930 . S
C283 C284 1.355 . S
C283 C285 1.415 . S
C284 C283 1.355 . S
C284 C286 1.419 . S
C285 C280 1.425 . S
C285 C282 1.409 . S
C285 C283 1.415 . S
C286 H276 0.930 . S
C286 C284 1.419 . S
C286 C287 1.362 . S
C287 H277 0.930 . S
C287 C280 1.409 . S
C287 C286 1.362 . S
H288 C294 0.930 . S
H289 C297 0.930 . S
H290 C298 0.930 . S
H291 C299 0.930 . S
H292 C302 0.930 . S
H293 C303 0.930 . S
C294 H288 0.930 . S
C294 C295 1.355 . S
C294 C296 1.415 . S
C295 C294 1.355 . S
C295 C297 1.419 . S
C296 C294 1.415 . S
C296 C301 1.425 . S
C296 C303 1.409 . S
C297 H289 0.930 . S
C297 C295 1.419 . S
C297 C298 1.362 . S
C298 H290 0.930 . S
C298 C297 1.362 . S
C298 C301 1.409 . S
C299 H291 0.930 . S
C299 C300 1.355 . S
C299 C301 1.415 . S
C300 C299 1.355 . S
C300 C302 1.419 . S
C301 C296 1.425 . S
C301 C298 1.409 . S
C301 C299 1.415 . S
C302 H292 0.930 . S
C302 C300 1.419 . S
C302 C303 1.362 . S
C303 H293 0.930 . S
C303 C296 1.409 . S
C303 C302 1.362 . S
H304 C310 0.930 . S
H305 C313 0.930 . S
H306 C314 0.930 . S
H307 C315 0.930 . S
H308 C318 0.930 . S
H309 C319 0.930 . S
C310 H304 0.930 . S
C310 C311 1.355 . S
C310 C312 1.415 . S
C311 C310 1.355 . S
C311 C313 1.419 . S
C312 C310 1.415 . S
C312 C317 1.425 . S
C312 C319 1.409 . S
C313 H305 0.930 . S
C313 C311 1.419 . S
C313 C314 1.362 . S
C314 H306 0.930 . S
C314 C313 1.362 . S
C314 C317 1.409 . S
C315 H307 0.930 . S
C315 C316 1.355 . S
C315 C317 1.415 . S
C316 C315 1.355 . S
C316 C318 1.419 . S
C317 C312 1.425 . S
C317 C314 1.409 . S
C317 C315 1.415 . S
C318 H308 0.930 . S
C318 C316 1.419 . S
C318 C319 1.362 . S
C319 H309 0.930 . S
C319 C312 1.409 . S
C319 C318 1.362 . S
H320 C326 0.930 . S
H321 C329 0.930 . S
H322 C330 0.930 . S
H323 C331 0.930 . S
H324 C334 0.930 . S
H325 C335 0.930 . S
C326 H320 0.930 . S
C326 C327 1.355 . S
C326 C328 1.415 . S
C327 C326 1.355 . S
C327 C329 1.419 . S
C328 C326 1.415 . S
C328 C333 1.425 . S
C328 C335 1.409 . S
C329 H321 0.930 . S
C329 C327 1.419 . S
C329 C330 1.362 . S
C330 H322 0.930 . S
C330 C329 1.362 . S
C330 C333 1.409 . S
C331 H323 0.930 . S
C331 C332 1.355 . S
C331 C333 1.415 . S
C332 C331 1.355 . S
C332 C334 1.419 . S
C333 C328 1.425 . S
C333 C330 1.409 . S
C333 C331 1.415 . S
C334 H324 0.930 . S
C334 C332 1.419 . S
C334 C335 1.362 . S
C335 H325 0.930 . S
C335 C328 1.409 . S
C335 C334 1.362 . S
H336 C342 0.930 . S
H337 C345 0.930 . S
H338 C346 0.930 . S
H339 C347 0.930 . S
H340 C350 0.930 . S
H341 C351 0.930 . S
C342 H336 0.930 . S
C342 C343 1.355 . S
C342 C344 1.415 . S
C343 C342 1.355 . S
C343 C345 1.419 . S
C344 C342 1.415 . S
C344 C349 1.425 . S
C344 C351 1.409 . S
C345 H337 0.930 . S
C345 C343 1.419 . S
C345 C346 1.362 . S
C346 H338 0.930 . S
C346 C345 1.362 . S
C346 C349 1.409 . S
C347 H339 0.930 . S
C347 C348 1.355 . S
C347 C349 1.415 . S
C348 C347 1.355 . S
C348 C350 1.419 . S
C349 C344 1.425 . S
C349 C346 1.409 . S
C349 C347 1.415 . S
C350 H340 0.930 . S
C350 C348 1.419 . S
C350 C351 1.362 . S
C351 H341 0.930 . S
C351 C344 1.409 . S
C351 C350 1.362 . S
H352 C358 0.930 . S
H353 C361 0.930 . S
H354 C362 0.930 . S
H355 C363 0.930 . S
H356 C366 0.930 . S
H357 C367 0.930 . S
C358 H352 0.930 . S
C358 C359 1.355 . S
C358 C360 1.415 . S
C359 C358 1.355 . S
C359 C361 1.419 . S
C360 C358 1.415 . S
C360 C365 1.425 1_565 S
C360 C367 1.409 1_565 S
C361 H353 0.930 . S
C361 C359 1.419 . S
C361 C362 1.362 . S
C362 H354 0.930 . S
C362 C361 1.362 . S
C362 C365 1.409 1_565 S
C363 H355 0.930 . S
C363 C364 1.355 . S
C363 C365 1.415 . S
C364 C363 1.355 . S
C364 C366 1.419 . S
C365 C360 1.425 1_545 S
C365 C362 1.409 1_545 S
C365 C363 1.415 . S
C366 H356 0.930 . S
C366 C364 1.419 . S
C366 C367 1.362 . S
C367 H357 0.930 . S
C367 C360 1.409 1_545 S
C367 C366 1.362 . S
H368 C374 0.930 . S
H369 C377 0.930 . S
H370 C378 0.930 . S
H371 C379 0.930 . S
H372 C382 0.930 . S
H373 C383 0.930 . S
C374 H368 0.930 . S
C374 C375 1.355 . S
C374 C376 1.415 . S
C375 C374 1.355 . S
C375 C377 1.419 . S
C376 C374 1.415 . S
C376 C381 1.425 . S
C376 C383 1.409 . S
C377 H369 0.930 . S
C377 C375 1.419 . S
C377 C378 1.362 . S
C378 H370 0.930 . S
C378 C377 1.362 . S
C378 C381 1.409 . S
C379 H371 0.930 . S
C379 C380 1.355 . S
C379 C381 1.415 . S
C380 C379 1.355 . S
C380 C382 1.419 . S
C381 C376 1.425 . S
C381 C378 1.409 . S
C381 C379 1.415 . S
C382 H372 0.930 . S
C382 C380 1.419 . S
C382 C383 1.362 . S
C383 H373 0.930 . S
C383 C376 1.409 . S
C383 C382 1.362 . S
H384 C390 0.930 . S
H385 C393 0.930 . S
H386 C394 0.930 1_554 S
H387 C395 0.930 . S
H388 C398 0.928 1_554 S
H389 C399 0.930 . S
C390 H384 0.930 . S
C390 C391 1.355 . S
C390 C392 1.415 . S
C391 C390 1.355 . S
C391 C393 1.419 . S
C392 C390 1.415 . S
C392 C397 1.425 . S
C392 C399 1.409 . S
C393 H385 0.930 . S
C393 C391 1.419 . S
C393 C394 1.362 . S
C394 H386 0.930 1_556 S
C394 C393 1.362 . S
C394 C397 1.409 . S
C395 H387 0.930 . S
C395 C396 1.355 . S
C395 C397 1.415 1_554 S
C396 C395 1.355 . S
C396 C398 1.419 1_554 S
C397 C392 1.425 . S
C397 C394 1.409 . S
C397 C395 1.415 1_556 S
C398 H388 0.928 1_556 S
C398 C396 1.419 1_556 S
C398 C399 1.362 . S
C399 H389 0.930 . S
C399 C392 1.409 . S
C399 C398 1.362 . S
H400 C406 0.930 . S
H401 C409 0.930 . S
H402 C410 0.930 . S
H403 C411 0.930 . S
H404 C414 0.930 . S
H405 C415 0.930 1_554 S
C406 H400 0.930 . S
C406 C407 1.355 . S
C406 C408 1.415 1_554 S
C407 C406 1.355 . S
C407 C409 1.419 . S
C408 C406 1.415 1_556 S
C408 C413 1.425 . S
C408 C415 1.409 . S
C409 H401 0.930 . S
C409 C407 1.419 . S
C409 C410 1.362 1_554 S
C410 H402 0.930 . S
C410 C409 1.362 1_556 S
C410 C413 1.409 . S
C411 H403 0.930 . S
C411 C412 1.355 . S
C411 C413 1.415 . S
C412 C411 1.355 . S
C412 C414 1.419 . S
C413 C408 1.425 . S
C413 C410 1.409 . S
C413 C411 1.415 . S
C414 H404 0.930 . S
C414 C412 1.419 . S
C414 C415 1.362 . S
C415 H405 0.930 1_556 S
C415 C408 1.409 . S
C415 C414 1.362 . S
H416 C422 0.930 . S
H417 C425 0.930 . S
H418 C426 0.930 . S
H419 C427 0.930 . S
H420 C430 0.930 . S
H421 C431 0.930 . S
C422 H416 0.930 . S
C422 C423 1.355 . S
C422 C424 1.415 . S
C423 C422 1.355 . S
C423 C425 1.419 . S
C424 C422 1.415 . S
C424 C429 1.425 . S
C424 C431 1.409 . S
C425 H417 0.930 . S
C425 C423 1.419 . S
C425 C426 1.362 . S
C426 H418 0.930 . S
C426 C425 1.362 . S
C426 C429 1.409 . S
C427 H419 0.930 . S
C427 C428 1.355 . S
C427 C429 1.415 . S
C428 C427 1.355 . S
C428 C430 1.419 . S
C429 C424 1.425 . S
C429 C426 1.409 . S
C429 C427 1.415 . S
C430 H420 0.930 . S
C430 C428 1.419 . S
C430 C431 1.362 . S
C431 H421 0.930 . S
C431 C424 1.409 . S
C431 C430 1.362 . S
H432 C438 0.930 . S
H433 C441 0.930 . S
H434 C442 0.930 . S
H435 C443 0.930 . S
H436 C446 0.930 . S
H437 C447 0.930 . S
C438 H432 0.930 . S
C438 C439 1.355 . S
C438 C440 1.415 . S
C439 C438 1.355 . S
C439 C441 1.419 . S
C440 C438 1.415 . S
C440 C445 1.425 . S
C440 C447 1.409 . S
C441 H433 0.930 . S
C441 C439 1.419 . S
C441 C442 1.362 . S
C442 H434 0.930 . S
C442 C441 1.362 . S
C442 C445 1.409 . S
C443 H435 0.930 . S
C443 C444 1.355 . S
C443 C445 1.415 . S
C444 C443 1.355 . S
C444 C446 1.419 . S
C445 C440 1.425 . S
C445 C442 1.409 . S
C445 C443 1.415 . S
C446 H436 0.930 . S
C446 C444 1.419 . S
C446 C447 1.362 . S
C447 H437 0.930 . S
C447 C440 1.409 . S
C447 C446 1.362 . S
H448 C454 0.930 . S
H449 C457 0.930 . S
H450 C458 0.930 . S
H451 C459 0.930 . S
H452 C462 0.930 . S
H453 C463 0.930 . S
C454 H448 0.930 . S
C454 C455 1.355 . S
C454 C456 1.415 1_655 S
C455 C454 1.355 . S
C455 C457 1.419 . S
C456 C454 1.415 1_455 S
C456 C461 1.425 1_455 S
C456 C463 1.409 . S
C457 H449 0.930 . S
C457 C455 1.419 . S
C457 C458 1.362 . S
C458 H450 0.930 . S
C458 C457 1.362 . S
C458 C461 1.409 . S
C459 H451 0.930 . S
C459 C460 1.355 . S
C459 C461 1.415 1_455 S
C460 C459 1.355 . S
C460 C462 1.419 . S
C461 C456 1.425 1_655 S
C461 C458 1.409 . S
C461 C459 1.415 1_655 S
C462 H452 0.930 . S
C462 C460 1.419 . S
C462 C463 1.362 . S
C463 H453 0.930 . S
C463 C456 1.409 . S
C463 C462 1.362 . S
H464 C470 0.930 . S
H465 C473 0.930 . S
H466 C474 0.930 . S
H467 C475 0.930 . S
H468 C478 0.930 . S
H469 C479 0.930 . S
C470 H464 0.930 . S
C470 C471 1.355 . S
C470 C472 1.415 1_655 S
C471 C470 1.355 . S
C471 C473 1.419 . S
C472 C470 1.415 1_455 S
C472 C477 1.425 . S
C472 C479 1.409 . S
C473 H465 0.930 . S
C473 C471 1.419 . S
C473 C474 1.362 . S
C474 H466 0.930 . S
C474 C473 1.362 . S
C474 C477 1.409 1_655 S
C475 H467 0.930 . S
C475 C476 1.355 . S
C475 C477 1.415 . S
C476 C475 1.355 . S
C476 C478 1.419 . S
C477 C472 1.425 . S
C477 C474 1.409 1_455 S
C477 C475 1.415 . S
C478 H468 0.930 . S
C478 C476 1.419 . S
C478 C479 1.362 . S
C479 H469 0.930 . S
C479 C472 1.409 . S
C479 C478 1.362 . S
H480 C486 0.930 . S
H481 C489 0.930 . S
H482 C490 0.930 . S
H483 C491 0.930 . S
H484 C494 0.930 . S
H485 C495 0.930 . S
C486 H480 0.930 . S
C486 C487 1.355 . S
C486 C488 1.415 . S
C487 C486 1.355 . S
C487 C489 1.419 . S
C488 C486 1.415 . S
C488 C493 1.425 . S
C488 C495 1.409 . S
C489 H481 0.930 . S
C489 C487 1.419 . S
C489 C490 1.362 . S
C490 H482 0.930 . S
C490 C489 1.362 . S
C490 C493 1.409 . S
C491 H483 0.930 . S
C491 C492 1.355 . S
C491 C493 1.415 . S
C492 C491 1.355 . S
C492 C494 1.419 . S
C493 C488 1.425 . S
C493 C490 1.409 . S
C493 C491 1.415 . S
C494 H484 0.930 . S
C494 C492 1.419 . S
C494 C495 1.362 . S
C495 H485 0.930 . S
C495 C488 1.409 . S
C495 C494 1.362 . S
H496 C502 0.930 . S
H497 C505 0.930 . S
H498 C506 0.930 . S
H499 C507 0.930 . S
H500 C510 0.930 . S
H501 C511 0.931 . S
C502 H496 0.930 . S
C502 C503 1.355 . S
C502 C504 1.415 . S
C503 C502 1.355 . S
C503 C505 1.419 . S
C504 C502 1.415 . S
C504 C509 1.425 . S
C504 C511 1.411 . S
C505 H497 0.930 . S
C505 C503 1.419 . S
C505 C506 1.362 . S
C506 H498 0.930 . S
C506 C505 1.362 . S
C506 C509 1.409 . S
C507 H499 0.930 . S
C507 C508 1.355 . S
C507 C509 1.415 1_565 S
C508 C507 1.355 . S
C508 C510 1.419 . S
C509 C504 1.425 . S
C509 C506 1.409 . S
C509 C507 1.415 1_545 S
C510 H500 0.930 . S
C510 C508 1.419 . S
C510 C511 1.359 1_565 S
C511 H501 0.931 . S
C511 C504 1.411 . S
C511 C510 1.359 1_545 S
H512 C518 0.930 . S
H513 C521 0.930 . S
H514 C522 0.930 . S
H515 C523 0.930 . S
H516 C526 0.930 . S
H517 C527 0.930 . S
C518 H512 0.930 . S
C518 C519 1.355 . S
C518 C520 1.415 . S
C519 C518 1.355 . S
C519 C521 1.419 . S
C520 C518 1.415 . S
C520 C525 1.425 . S
C520 C527 1.409 . S
C521 H513 0.930 . S
C521 C519 1.419 . S
C521 C522 1.362 . S
C522 H514 0.930 . S
C522 C521 1.362 . S
C522 C525 1.409 . S
C523 H515 0.930 . S
C523 C524 1.355 . S
C523 C525 1.415 . S
C524 C523 1.355 . S
C524 C526 1.419 . S
C525 C520 1.425 . S
C525 C522 1.409 . S
C525 C523 1.415 . S
C526 H516 0.930 . S
C526 C524 1.419 . S
C526 C527 1.362 . S
C527 H517 0.930 . S
C527 C520 1.409 . S
C527 C526 1.362 . S
H528 C534 0.930 . S
H529 C537 0.930 . S
H530 C538 0.930 . S
H531 C539 0.929 1_554 S
H532 C542 0.930 . S
H533 C543 0.930 . S
C534 H528 0.930 . S
C534 C535 1.355 . S
C534 C536 1.415 . S
C535 C534 1.355 . S
C535 C537 1.419 . S
C536 C534 1.415 . S
C536 C541 1.425 . S
C536 C543 1.409 1_554 S
C537 H529 0.930 . S
C537 C535 1.419 . S
C537 C538 1.362 . S
C538 H530 0.930 . S
C538 C537 1.362 . S
C538 C541 1.409 . S
C539 H531 0.929 1_556 S
C539 C540 1.357 . S
C539 C541 1.412 1_556 S
C540 C539 1.357 . S
C540 C542 1.419 . S
C541 C536 1.425 . S
C541 C538 1.409 . S
C541 C539 1.412 1_554 S
C542 H532 0.930 . S
C542 C540 1.419 . S
C542 C543 1.362 . S
C543 H533 0.930 . S
C543 C536 1.409 1_556 S
C543 C542 1.362 . S
H544 C550 0.930 . S
H545 C553 0.930 . S
H546 C554 0.930 . S
H547 C555 0.930 . S
H548 C558 0.930 . S
H549 C559 0.930 . S
C550 H544 0.930 . S
C550 C551 1.355 . S
C550 C552 1.415 1_556 S
C551 C550 1.355 . S
C551 C553 1.419 . S
C552 C550 1.415 1_554 S
C552 C557 1.425 . S
C552 C559 1.409 . S
C553 H545 0.930 . S
C553 C551 1.419 . S
C553 C554 1.362 1_556 S
C554 H546 0.930 . S
C554 C553 1.362 1_554 S
C554 C557 1.409 . S
C555 H547 0.930 . S
C555 C556 1.355 . S
C555 C557 1.415 . S
C556 C555 1.355 . S
C556 C558 1.419 . S
C557 C552 1.425 . S
C557 C554 1.409 . S
C557 C555 1.415 . S
C558 H548 0.930 . S
C558 C556 1.419 . S
C558 C559 1.362 . S
C559 H549 0.930 . S
C559 C552 1.409 . S
C559 C558 1.362 . S
H560 C566 0.930 . S
H561 C569 0.930 . S
H562 C570 0.930 . S
H563 C571 0.930 . S
H564 C574 0.930 . S
H565 C575 0.930 . S
C566 H560 0.930 . S
C566 C567 1.355 . S
C566 C568 1.415 . S
C567 C566 1.355 . S
C567 C569 1.419 . S
C568 C566 1.415 . S
C568 C573 1.425 . S
C568 C575 1.409 . S
C569 H561 0.930 . S
C569 C567 1.419 . S
C569 C570 1.362 . S
C570 H562 0.930 . S
C570 C569 1.362 . S
C570 C573 1.409 . S
C571 H563 0.930 . S
C571 C572 1.355 . S
C571 C573 1.415 . S
C572 C571 1.355 . S
C572 C574 1.419 . S
C573 C568 1.425 . S
C573 C570 1.409 . S
C573 C571 1.415 . S
C574 H564 0.930 . S
C574 C572 1.419 . S
C574 C575 1.362 . S
C575 H565 0.930 . S
C575 C568 1.409 . S
C575 C574 1.362 . S
H576 C582 0.930 . S
H577 C585 0.930 . S
H578 C586 0.930 . S
H579 C587 0.930 . S
H580 C590 0.930 . S
H581 C591 0.930 . S
C582 H576 0.930 . S
C582 C583 1.355 . S
C582 C584 1.415 . S
C583 C582 1.355 . S
C583 C585 1.419 . S
C584 C582 1.415 . S
C584 C589 1.425 . S
C584 C591 1.409 . S
C585 H577 0.930 . S
C585 C583 1.419 . S
C585 C586 1.362 . S
C586 H578 0.930 . S
C586 C585 1.362 . S
C586 C589 1.409 . S
C587 H579 0.930 . S
C587 C588 1.355 . S
C587 C589 1.415 . S
C588 C587 1.355 . S
C588 C590 1.419 . S
C589 C584 1.425 . S
C589 C586 1.409 . S
C589 C587 1.415 . S
C590 H580 0.930 . S
C590 C588 1.419 . S
C590 C591 1.362 . S
C591 H581 0.930 . S
C591 C584 1.409 . S
C591 C590 1.362 . S
H592 C598 0.930 . S
H593 C601 0.930 . S
H594 C602 0.930 . S
H595 C603 0.930 . S
H596 C606 0.930 1_455 S
H597 C607 0.930 . S
C598 H592 0.930 . S
C598 C599 1.355 . S
C598 C600 1.415 . S
C599 C598 1.355 . S
C599 C601 1.420 1_455 S
C600 C598 1.415 . S
C600 C605 1.425 1_455 S
C600 C607 1.409 . S
C601 H593 0.930 . S
C601 C599 1.420 1_655 S
C601 C602 1.361 . S
C602 H594 0.930 . S
C602 C601 1.361 . S
C602 C605 1.409 . S
C603 H595 0.930 . S
C603 C604 1.355 . S
C603 C605 1.415 . S
C604 C603 1.355 . S
C604 C606 1.419 . S
C605 C600 1.425 1_655 S
C605 C602 1.409 . S
C605 C603 1.415 . S
C606 H596 0.930 1_655 S
C606 C604 1.419 . S
C606 C607 1.362 1_655 S
C607 H597 0.930 . S
C607 C600 1.409 . S
C607 C606 1.362 1_455 S
H608 C614 0.930 . S
H609 C617 0.930 . S
H610 C618 0.930 . S
H611 C619 0.930 . S
H612 C622 0.930 . S
H613 C623 0.930 . S
C614 H608 0.930 . S
C614 C615 1.355 . S
C614 C616 1.415 1_455 S
C615 C614 1.355 . S
C615 C617 1.419 . S
C616 C614 1.415 1_655 S
C616 C621 1.425 1_655 S
C616 C623 1.409 . S
C617 H609 0.930 . S
C617 C615 1.419 . S
C617 C618 1.362 . S
C618 H610 0.930 . S
C618 C617 1.362 . S
C618 C621 1.409 . S
C619 H611 0.930 . S
C619 C620 1.355 . S
C619 C621 1.415 1_655 S
C620 C619 1.355 . S
C620 C622 1.419 . S
C621 C616 1.425 1_455 S
C621 C618 1.409 . S
C621 C619 1.415 1_455 S
C622 H612 0.930 . S
C622 C620 1.419 . S
C622 C623 1.362 . S
C623 H613 0.930 . S
C623 C616 1.409 . S
C623 C622 1.362 . S
H624 C630 0.930 . S
H625 C633 0.930 . S
H626 C634 0.930 . S
H627 C635 0.930 . S
H628 C638 0.930 . S
H629 C639 0.930 . S
C630 H624 0.930 . S
C630 C631 1.355 . S
C630 C632 1.415 . S
C631 C630 1.355 . S
C631 C633 1.419 . S
C632 C630 1.415 . S
C632 C637 1.425 . S
C632 C639 1.409 . S
C633 H625 0.930 . S
C633 C631 1.419 . S
C633 C634 1.362 . S
C634 H626 0.930 . S
C634 C633 1.362 . S
C634 C637 1.409 . S
C635 H627 0.930 . S
C635 C636 1.355 . S
C635 C637 1.415 . S
C636 C635 1.355 . S
C636 C638 1.419 . S
C637 C632 1.425 . S
C637 C634 1.409 . S
C637 C635 1.415 . S
C638 H628 0.930 . S
C638 C636 1.419 . S
C638 C639 1.362 . S
C639 H629 0.930 . S
C639 C632 1.409 . S
C639 C638 1.362 . S
H640 C646 0.930 . S
H641 C649 0.930 . S
H642 C650 0.930 . S
H643 C651 0.930 . S
H644 C654 0.930 . S
H645 C655 0.930 . S
C646 H640 0.930 . S
C646 C647 1.355 . S
C646 C648 1.415 . S
C647 C646 1.355 . S
C647 C649 1.419 . S
C648 C646 1.415 . S
C648 C653 1.425 . S
C648 C655 1.409 . S
C649 H641 0.930 . S
C649 C647 1.419 . S
C649 C650 1.362 . S
C650 H642 0.930 . S
C650 C649 1.362 . S
C650 C653 1.409 . S
C651 H643 0.930 . S
C651 C652 1.355 . S
C651 C653 1.415 . S
C652 C651 1.355 . S
C652 C654 1.419 . S
C653 C648 1.425 . S
C653 C650 1.409 . S
C653 C651 1.415 . S
C654 H644 0.930 . S
C654 C652 1.419 . S
C654 C655 1.362 . S
C655 H645 0.930 . S
C655 C648 1.409 . S
C655 C654 1.362 . S
H656 C662 0.930 . S
H657 C665 0.930 . S
H658 C666 0.935 . S
H659 C667 0.930 . S
H660 C670 0.930 . S
H661 C671 0.930 1_545 S
C662 H656 0.930 . S
C662 C663 1.355 . S
C662 C664 1.415 . S
C663 C662 1.355 . S
C663 C665 1.419 . S
C664 C662 1.415 . S
C664 C669 1.425 1_545 S
C664 C671 1.409 1_545 S
C665 H657 0.930 . S
C665 C663 1.419 . S
C665 C666 1.350 1_545 S
C666 H658 0.935 . S
C666 C665 1.350 1_565 S
C666 C669 1.416 . S
C667 H659 0.930 . S
C667 C668 1.355 . S
C667 C669 1.415 . S
C668 C667 1.355 . S
C668 C670 1.419 . S
C669 C664 1.425 1_565 S
C669 C666 1.416 . S
C669 C667 1.415 . S
C670 H660 0.930 . S
C670 C668 1.419 . S
C670 C671 1.362 . S
C671 H661 0.930 1_565 S
C671 C664 1.409 1_565 S
C671 C670 1.362 . S
H672 C678 0.930 . S
H673 C681 0.930 . S
H674 C682 0.930 . S
H675 C683 0.930 . S
H676 C686 0.930 . S
H677 C687 0.930 . S
C678 H672 0.930 . S
C678 C679 1.355 . S
C678 C680 1.415 . S
C679 C678 1.355 . S
C679 C681 1.419 . S
C680 C678 1.415 . S
C680 C685 1.425 . S
C680 C687 1.409 . S
C681 H673 0.930 . S
C681 C679 1.419 . S
C681 C682 1.362 . S
C682 H674 0.930 . S
C682 C681 1.362 . S
C682 C685 1.409 . S
C683 H675 0.930 . S
C683 C684 1.355 . S
C683 C685 1.415 . S
C684 C683 1.355 . S
C684 C686 1.419 . S
C685 C680 1.425 . S
C685 C682 1.409 . S
C685 C683 1.415 . S
C686 H676 0.930 . S
C686 C684 1.419 . S
C686 C687 1.362 . S
C687 H677 0.930 . S
C687 C680 1.409 . S
C687 C686 1.362 . S
H688 C694 0.930 . S
H689 C697 0.930 . S
H690 C698 0.930 . S
H691 C699 0.930 . S
H692 C702 0.930 . S
H693 C703 0.930 . S
C694 H688 0.930 . S
C694 C695 1.355 . S
C694 C696 1.415 . S
C695 C694 1.355 . S
C695 C697 1.419 . S
C696 C694 1.415 . S
C696 C701 1.425 . S
C696 C703 1.409 . S
C697 H689 0.930 . S
C697 C695 1.419 . S
C697 C698 1.362 . S
C698 H690 0.930 . S
C698 C697 1.362 . S
C698 C701 1.409 . S
C699 H691 0.930 . S
C699 C700 1.355 . S
C699 C701 1.415 . S
C700 C699 1.355 . S
C700 C702 1.419 . S
C701 C696 1.425 . S
C701 C698 1.409 . S
C701 C699 1.415 . S
C702 H692 0.930 . S
C702 C700 1.419 . S
C702 C703 1.362 . S
C703 H693 0.930 . S
C703 C696 1.409 . S
C703 C702 1.362 . S
H704 C710 0.930 . S
H705 C713 0.930 . S
H706 C714 0.930 . S
H707 C715 0.930 . S
H708 C718 0.930 . S
H709 C719 0.930 . S
C710 H704 0.930 . S
C710 C711 1.355 . S
C710 C712 1.415 . S
C711 C710 1.355 . S
C711 C713 1.419 . S
C712 C710 1.415 . S
C712 C717 1.425 1_545 S
C712 C719 1.409 . S
C713 H705 0.930 . S
C713 C711 1.419 . S
C713 C714 1.362 1_545 S
C714 H706 0.930 . S
C714 C713 1.362 1_565 S
C714 C717 1.409 . S
C715 H707 0.930 . S
C715 C716 1.355 . S
C715 C717 1.415 . S
C716 C715 1.355 . S
C716 C718 1.419 . S
C717 C712 1.425 1_565 S
C717 C714 1.409 . S
C717 C715 1.415 . S
C718 H708 0.930 . S
C718 C716 1.419 . S
C718 C719 1.362 1_565 S
C719 H709 0.930 . S
C719 C712 1.409 . S
C719 C718 1.362 1_545 S
H720 C726 0.930 . S
H721 C729 0.930 . S
H722 C730 0.930 . S
H723 C731 0.930 . S
H724 C734 0.930 . S
H725 C735 0.930 . S
C726 H720 0.930 . S
C726 C727 1.355 . S
C726 C728 1.415 . S
C727 C726 1.355 . S
C727 C729 1.419 . S
C728 C726 1.415 . S
C728 C733 1.425 . S
C728 C735 1.409 . S
C729 H721 0.930 . S
C729 C727 1.419 . S
C729 C730 1.362 . S
C730 H722 0.930 . S
C730 C729 1.362 . S
C730 C733 1.409 . S
C731 H723 0.930 . S
C731 C732 1.355 . S
C731 C733 1.415 . S
C732 C731 1.355 . S
C732 C734 1.419 . S
C733 C728 1.425 . S
C733 C730 1.409 . S
C733 C731 1.415 . S
C734 H724 0.930 . S
C734 C732 1.419 . S
C734 C735 1.362 . S
C735 H725 0.930 . S
C735 C728 1.409 . S
C735 C734 1.362 . S
C231 C7 1.371 . S
C236 C189 1.392 . S
C247 C21 1.400 . S
C252 C133 1.389 . S
C263 C203 0.655 . S
C268 C35 0.699 . S
C279 C49 0.850 . S
C284 C217 0.890 . S
C295 C63 1.436 . S
C300 C91 1.397 . S
C311 C147 1.339 . S
C316 C77 1.329 . S
C327 C161 0.654 . S
C332 C105 0.669 . S
C343 C119 0.821 . S
C348 C175 0.876 . S
C359 C36 1.556 . S
C364 C8 1.564 . S
C375 C22 1.614 . S
C380 C45 1.604 . S
C391 C177 1.530 . S
C396 C3 1.534 . S
C407 C17 1.604 . S
C412 C157 1.599 . S
C423 C59 1.592 . S
C428 C31 1.573 . S
C439 C143 1.533 . S
C444 C51 1.531 . S
C455 C23 1.890 . S
C460 C9 1.884 . S
C471 C50 1.519 . S
C476 C37 1.515 . S
C487 C149 1.909 . S
C492 C65 1.913 . S
C503 C101 1.806 . S
C508 C79 1.805 . S
C519 C93 1.531 . S
C524 C115 1.538 . S
C535 C218 1.823 . S
C540 C73 1.809 . S
C551 C87 1.435 . S
C556 C204 1.399 . S
C567 C129 1.419 . S
C572 C106 1.435 . S
C583 C120 1.800 . S
C588 C185 1.826 . S
C599 C92 1.556 . S
C604 C78 1.545 . S
C615 C121 1.629 . S
C620 C107 1.629 . S
C631 C134 1.538 . S
C636 C190 1.542 . S
C647 C148 1.563 . S
C652 C162 1.552 . S
C663 C171 1.591 . S
C668 C64 1.589 . S
C679 C176 1.527 . S
C684 C163 1.540 . S
C695 C199 1.808 . S
C700 C191 1.806 . S
C711 C135 1.534 . S
C716 C213 1.541 . S
C727 C219 1.626 . S
C732 C205 1.633 . S
