# Generated by pormake.
# Topology whh, (6)-cn, num edge types: 1
# Building blocks:
#     Node 0, Type 0, BuildingBlock: MAKGUD_clean_sbu_1, # of connection points: 6
#     Node 1, Type 0, BuildingBlock: MAKGUD_clean_sbu_1, # of connection points: 6
#     Node 2, Type 0, BuildingBlock: MAKGUD_clean_sbu_1, # of connection points: 6
#     Node 3, Type 0, BuildingBlock: MAKGUD_clean_sbu_1, # of connection points: 6
#     Node 4, Type 0, BuildingBlock: MAKGUD_clean_sbu_1, # of connection points: 6
#     Node 5, Type 0, BuildingBlock: MAKGUD_clean_sbu_1, # of connection points: 6
#     Node 6, Type 0, BuildingBlock: MAKGUD_clean_sbu_1, # of connection points: 6
#     Node 7, Type 0, BuildingBlock: MAKGUD_clean_sbu_1, # of connection points: 6
#     Node 8, Type 0, BuildingBlock: MAKGUD_clean_sbu_1, # of connection points: 6
#     Node 9, Type 0, BuildingBlock: MAKGUD_clean_sbu_1, # of connection points: 6
#     Node 10, Type 0, BuildingBlock: MAKGUD_clean_sbu_1, # of connection points: 6
#     Node 11, Type 0, BuildingBlock: MAKGUD_clean_sbu_1, # of connection points: 6
#     Node 12, Type 0, BuildingBlock: MAKGUD_clean_sbu_1, # of connection points: 6
#     Node 13, Type 0, BuildingBlock: MAKGUD_clean_sbu_1, # of connection points: 6
#     Node 14, Type 0, BuildingBlock: MAKGUD_clean_sbu_1, # of connection points: 6
#     Node 15, Type 0, BuildingBlock: MAKGUD_clean_sbu_1, # of connection points: 6
#     Edge 16, Type (0, 0), BuildingBlock: ZUJKAS_clean_linker_0, # of connection points: 2
#     Edge 17, Type (0, 0), BuildingBlock: ZUJKAS_clean_linker_0, # of connection points: 2
#     Edge 18, Type (0, 0), BuildingBlock: ZUJKAS_clean_linker_0, # of connection points: 2
#     Edge 19, Type (0, 0), BuildingBlock: ZUJKAS_clean_linker_0, # of connection points: 2
#     Edge 20, Type (0, 0), BuildingBlock: ZUJKAS_clean_linker_0, # of connection points: 2
#     Edge 21, Type (0, 0), BuildingBlock: ZUJKAS_clean_linker_0, # of connection points: 2
#     Edge 22, Type (0, 0), BuildingBlock: ZUJKAS_clean_linker_0, # of connection points: 2
#     Edge 23, Type (0, 0), BuildingBlock: ZUJKAS_clean_linker_0, # of connection points: 2
#     Edge 24, Type (0, 0), BuildingBlock: ZUJKAS_clean_linker_0, # of connection points: 2
#     Edge 25, Type (0, 0), BuildingBlock: ZUJKAS_clean_linker_0, # of connection points: 2
#     Edge 26, Type (0, 0), BuildingBlock: ZUJKAS_clean_linker_0, # of connection points: 2
#     Edge 27, Type (0, 0), BuildingBlock: ZUJKAS_clean_linker_0, # of connection points: 2
#     Edge 28, Type (0, 0), BuildingBlock: ZUJKAS_clean_linker_0, # of connection points: 2
#     Edge 29, Type (0, 0), BuildingBlock: ZUJKAS_clean_linker_0, # of connection points: 2
#     Edge 30, Type (0, 0), BuildingBlock: ZUJKAS_clean_linker_0, # of connection points: 2
#     Edge 31, Type (0, 0), BuildingBlock: ZUJKAS_clean_linker_0, # of connection points: 2
#     Edge 32, Type (0, 0), BuildingBlock: ZUJKAS_clean_linker_0, # of connection points: 2
#     Edge 33, Type (0, 0), BuildingBlock: ZUJKAS_clean_linker_0, # of connection points: 2
#     Edge 34, Type (0, 0), BuildingBlock: ZUJKAS_clean_linker_0, # of connection points: 2
#     Edge 35, Type (0, 0), BuildingBlock: ZUJKAS_clean_linker_0, # of connection points: 2
#     Edge 36, Type (0, 0), BuildingBlock: ZUJKAS_clean_linker_0, # of connection points: 2
#     Edge 37, Type (0, 0), BuildingBlock: ZUJKAS_clean_linker_0, # of connection points: 2
#     Edge 38, Type (0, 0), BuildingBlock: ZUJKAS_clean_linker_0, # of connection points: 2
#     Edge 39, Type (0, 0), BuildingBlock: ZUJKAS_clean_linker_0, # of connection points: 2
#     Edge 40, Type (0, 0), BuildingBlock: ZUJKAS_clean_linker_0, # of connection points: 2
#     Edge 41, Type (0, 0), BuildingBlock: ZUJKAS_clean_linker_0, # of connection points: 2
#     Edge 42, Type (0, 0), BuildingBlock: ZUJKAS_clean_linker_0, # of connection points: 2
#     Edge 43, Type (0, 0), BuildingBlock: ZUJKAS_clean_linker_0, # of connection points: 2
#     Edge 44, Type (0, 0), BuildingBlock: ZUJKAS_clean_linker_0, # of connection points: 2
#     Edge 45, Type (0, 0), BuildingBlock: ZUJKAS_clean_linker_0, # of connection points: 2
#     Edge 46, Type (0, 0), BuildingBlock: ZUJKAS_clean_linker_0, # of connection points: 2
#     Edge 47, Type (0, 0), BuildingBlock: ZUJKAS_clean_linker_0, # of connection points: 2
#     Edge 48, Type (0, 0), BuildingBlock: ZUJKAS_clean_linker_0, # of connection points: 2
#     Edge 49, Type (0, 0), BuildingBlock: ZUJKAS_clean_linker_0, # of connection points: 2
#     Edge 50, Type (0, 0), BuildingBlock: ZUJKAS_clean_linker_0, # of connection points: 2
#     Edge 51, Type (0, 0), BuildingBlock: ZUJKAS_clean_linker_0, # of connection points: 2
#     Edge 52, Type (0, 0), BuildingBlock: ZUJKAS_clean_linker_0, # of connection points: 2
#     Edge 53, Type (0, 0), BuildingBlock: ZUJKAS_clean_linker_0, # of connection points: 2
#     Edge 54, Type (0, 0), BuildingBlock: ZUJKAS_clean_linker_0, # of connection points: 2
#     Edge 55, Type (0, 0), BuildingBlock: ZUJKAS_clean_linker_0, # of connection points: 2
#     Edge 56, Type (0, 0), BuildingBlock: ZUJKAS_clean_linker_0, # of connection points: 2
#     Edge 57, Type (0, 0), BuildingBlock: ZUJKAS_clean_linker_0, # of connection points: 2
#     Edge 58, Type (0, 0), BuildingBlock: ZUJKAS_clean_linker_0, # of connection points: 2
#     Edge 59, Type (0, 0), BuildingBlock: ZUJKAS_clean_linker_0, # of connection points: 2
#     Edge 60, Type (0, 0), BuildingBlock: ZUJKAS_clean_linker_0, # of connection points: 2
#     Edge 61, Type (0, 0), BuildingBlock: ZUJKAS_clean_linker_0, # of connection points: 2
#     Edge 62, Type (0, 0), BuildingBlock: ZUJKAS_clean_linker_0, # of connection points: 2
#     Edge 63, Type (0, 0), BuildingBlock: ZUJKAS_clean_linker_0, # of connection points: 2
# Relax obj value: 0.290
# Max RMSD: 0.213
# Mean RMSD: 0.213
data_MOF--net-whh--node1-MAKGUD_clean_sbu_1--edge1-ZUJKAS_clean_linker_0
_symmetry_space_group_name_H-M    P1
_symmetry_Int_Tables_number       1
_symmetry_cell_setting            triclinic
loop_
_symmetry_equiv_pos_as_xyz
'x, y, z'
_cell_length_a     51.258321
_cell_length_b     51.234114
_cell_length_c     46.473637
_cell_angle_alpha  90.013932
_cell_angle_beta   89.983185
_cell_angle_gamma 89.949887
loop_
_atom_site_label
_atom_site_type_symbol
_atom_site_fract_x
_atom_site_fract_y
_atom_site_fract_z
_atom_type_partial_charge
O0 O 0.13088 0.70713 0.04749 0.0
Tb1 Tb 0.09675 0.69361 0.07188 0.0
C2 C 0.06434 0.68742 0.12831 0.0
O3 O 0.05392 0.65852 0.07309 0.0
Tb4 Tb 0.03369 0.63927 0.10758 0.0
C5 C 0.05682 0.60159 0.13738 0.0
O6 O 0.08856 0.65919 0.04504 0.0
O7 O 0.99278 0.62993 0.09962 0.0
C8 C 0.98559 0.60558 0.10411 0.0
O9 O 1.00306 0.58907 0.11387 0.0
O10 O 0.0834 0.67682 0.11297 0.0
O11 O 0.04166 0.67517 0.13068 0.0
O12 O 0.06907 0.72544 0.06627 0.0
C13 C 0.06721 0.64699 0.05288 0.0
C14 C 0.14595 0.71129 0.06958 0.0
O15 O 0.05504 0.6021 0.1093 0.0
O16 O 0.04591 0.62235 0.14813 0.0
C17 C 0.0712 0.7462 0.08276 0.0
O18 O 0.09063 0.74734 0.10116 0.0
O19 O 0.13341 0.70497 0.09297 0.0
O20 O 0.83856 0.12759 0.04761 0.0
Tb21 Tb 0.84944 0.09229 0.0716 0.0
C22 C 0.85737 0.06139 0.12851 0.0
O23 O 0.88473 0.04709 0.07155 0.0
Tb24 Tb 0.9038 0.02937 0.10822 0.0
C25 C 0.94459 0.05333 0.13187 0.0
O26 O 0.88368 0.08313 0.04492 0.0
O27 O 0.91021 0.98737 0.11009 0.0
C28 C 0.90365 0.97088 0.08962 0.0
O29 O 0.8891 0.97892 0.0681 0.0
O30 O 0.86821 0.07877 0.11125 0.0
O31 O 0.86952 0.03905 0.13325 0.0
O32 O 0.81738 0.06504 0.0658 0.0
C33 C 0.89618 0.06169 0.05224 0.0
C34 C 0.83312 0.14196 0.06998 0.0
O35 O 0.94452 0.04251 0.10648 0.0
O36 O 0.9216 0.05102 0.14337 0.0
C37 C 0.79643 0.06741 0.08196 0.0
O38 O 0.79499 0.08704 0.10008 0.0
O39 O 0.83739 0.12843 0.09327 0.0
O40 O 0.49418 0.92492 0.14758 0.0
Tb41 Tb 0.51182 0.90738 0.10968 0.0
C42 C 0.47887 0.90165 0.05367 0.0
O43 O 0.46119 0.87188 0.11312 0.0
Tb44 Tb 0.44786 0.85532 0.07206 0.0
C45 C 0.39841 0.83854 0.06919 0.0
O46 O 0.50187 0.87234 0.13324 0.0
O47 O 0.47448 0.82242 0.06806 0.0
C48 C 0.47084 0.80207 0.08483 0.0
O49 O 0.45076 0.80203 0.10239 0.0
O50 O 0.49253 0.88958 0.07334 0.0
O51 O 0.45746 0.88958 0.04557 0.0
O52 O 0.55391 0.91297 0.10975 0.0
C53 C 0.47923 0.86056 0.12921 0.0
C54 C 0.48962 0.94768 0.13626 0.0
O55 O 0.40997 0.8472 0.09229 0.0
O56 O 0.41461 0.83994 0.04762 0.0
C57 C 0.56984 0.9053 0.08921 0.0
O58 O 0.56094 0.8908 0.06806 0.0
O59 O 0.49703 0.94758 0.1094 0.0
O60 O 0.71089 0.41318 0.04725 0.0
Tb61 Tb 0.69224 0.44572 0.06998 0.0
C62 C 0.68855 0.48124 0.12438 0.0
O63 O 0.65816 0.48864 0.06935 0.0
Tb64 Tb 0.64003 0.51136 0.10273 0.0
C65 C 0.60289 0.49108 0.13551 0.0
O66 O 0.65862 0.4536 0.04203 0.0
O67 O 0.63163 0.55216 0.0931 0.0
C68 C 0.6075 0.55821 0.08596 0.0
O69 O 0.59011 0.53946 0.08435 0.0
O70 O 0.67747 0.46122 0.11108 0.0
O71 O 0.67648 0.50415 0.12523 0.0
O72 O 0.7246 0.47277 0.06523 0.0
C73 C 0.64667 0.47526 0.04918 0.0
C74 C 0.70996 0.39652 0.06839 0.0
O75 O 0.60257 0.49099 0.10736 0.0
O76 O 0.62415 0.50214 0.14469 0.0
C77 C 0.74661 0.46756 0.07857 0.0
O78 O 0.74832 0.44591 0.0936 0.0
O79 O 0.69861 0.40752 0.09042 0.0
O80 O 0.1319 0.83465 0.44627 0.0
Tb81 Tb 0.09982 0.85361 0.42284 0.0
C82 C 0.06646 0.85547 0.36704 0.0
O83 O 0.05652 0.8887 0.41979 0.0
Tb84 Tb 0.03394 0.90385 0.38423 0.0
C85 C 0.05344 0.94105 0.35065 0.0
O86 O 0.09046 0.88829 0.44893 0.0
O87 O 0.99178 0.90917 0.38858 0.0
C88 C 0.9787 0.9065 0.41282 0.0
O89 O 0.99058 0.89729 0.43572 0.0
O90 O 0.08532 0.86762 0.38112 0.0
O91 O 0.04348 0.86697 0.36366 0.0
O92 O 0.07259 0.82125 0.42637 0.0
C93 C 0.06961 0.90086 0.43989 0.0
C94 C 0.14901 0.83557 0.42553 0.0
O95 O 0.05041 0.94308 0.37846 0.0
O96 O 0.04598 0.91802 0.34224 0.0
C97 C 0.07838 0.79924 0.41324 0.0
O98 O 0.10092 0.79741 0.39993 0.0
O99 O 0.13851 0.84727 0.40342 0.0
O100 O 0.70654 0.12971 0.44585 0.0
Tb101 Tb 0.69784 0.09319 0.42277 0.0
C102 C 0.69034 0.06197 0.36544 0.0
O103 O 0.65988 0.05021 0.42018 0.0
Tb104 Tb 0.64192 0.03105 0.3838 0.0
C105 C 0.60318 0.05416 0.3554 0.0
O106 O 0.66317 0.08412 0.44937 0.0
O107 O 0.63647 0.98882 0.3849 0.0
C108 C 0.64075 0.97459 0.40802 0.0
O109 O 0.65163 0.98539 0.43068 0.0
O110 O 0.67982 0.07984 0.38241 0.0
O111 O 0.67751 0.04 0.36053 0.0
O112 O 0.73212 0.06857 0.43013 0.0
C113 C 0.64915 0.06408 0.44059 0.0
C114 C 0.71258 0.14357 0.42329 0.0
O115 O 0.60157 0.04544 0.3817 0.0
O116 O 0.62656 0.05009 0.34556 0.0
C117 C 0.73244 0.04335 0.42448 0.0
O118 O 0.71089 0.03188 0.41601 0.0
O119 O 0.70968 0.12912 0.40044 0.0
O120 O 0.41633 0.70156 0.44158 0.0
Tb121 Tb 0.45319 0.69492 0.41831 0.0
C122 C 0.48305 0.68593 0.36044 0.0
O123 O 0.49724 0.65704 0.41558 0.0
Tb124 Tb 0.51439 0.63795 0.37853 0.0
C125 C 0.48985 0.59851 0.35293 0.0
O126 O 0.46319 0.66055 0.44491 0.0
O127 O 0.55639 0.63106 0.37708 0.0
C128 C 0.57253 0.63688 0.39818 0.0
O129 O 0.564 0.65054 0.42019 0.0
O130 O 0.46607 0.67562 0.37856 0.0
O131 O 0.50475 0.673 0.35453 0.0
O132 O 0.47795 0.72898 0.42587 0.0
C133 C 0.4833 0.64658 0.4361 0.0
C134 C 0.40278 0.70946 0.41948 0.0
O135 O 0.49965 0.59772 0.37883 0.0
O136 O 0.49348 0.62158 0.34206 0.0
C137 C 0.50287 0.72938 0.41891 0.0
O138 O 0.51385 0.70807 0.40897 0.0
O139 O 0.41756 0.70852 0.39668 0.0
O140 O 0.83495 0.41555 0.44409 0.0
Tb141 Tb 0.85284 0.4483 0.42079 0.0
C142 C 0.85798 0.48168 0.36489 0.0
O143 O 0.8885 0.49081 0.41934 0.0
Tb144 Tb 0.90714 0.51137 0.3846 0.0
C145 C 0.94387 0.48792 0.35368 0.0
O146 O 0.88719 0.45653 0.44789 0.0
O147 O 0.91608 0.55258 0.39159 0.0
C148 C 0.94085 0.55945 0.39129 0.0
O149 O 0.95848 0.54124 0.38716 0.0
O150 O 0.8687 0.46223 0.37952 0.0
O151 O 0.87062 0.50412 0.36229 0.0
O152 O 0.8209 0.47619 0.42493 0.0
C153 C 0.89985 0.47757 0.43976 0.0
C154 C 0.83472 0.39913 0.42267 0.0
O155 O 0.94456 0.49054 0.38166 0.0
O156 O 0.92261 0.49833 0.34362 0.0
C157 C 0.79972 0.47294 0.4093 0.0
O158 O 0.79808 0.45224 0.39272 0.0
O159 O 0.84519 0.41034 0.40026 0.0
O160 O 0.91746 0.33848 0.94648 0.0
Tb161 Tb 0.95182 0.35187 0.92241 0.0
C162 C 0.98404 0.35911 0.86632 0.0
O163 O 0.99432 0.38796 0.92255 0.0
Tb164 Tb 1.01508 0.40677 0.88797 0.0
C165 C 0.99312 0.44513 0.85818 0.0
O166 O 0.95869 0.38652 0.94919 0.0
O167 O 0.05666 0.41356 0.89448 0.0
C168 C 0.0639 0.43722 0.90211 0.0
O169 O 0.04593 0.45524 0.90527 0.0
O170 O 0.96509 0.36956 0.88191 0.0
O171 O 1.00675 0.37131 0.86413 0.0
O172 O 0.98078 0.32118 0.92803 0.0
C173 C 0.9799 0.39929 0.94205 0.0
C174 C 0.90295 0.3334 0.92415 0.0
O175 O 0.99651 0.44544 0.88605 0.0
O176 O 1.00185 0.42332 0.84759 0.0
C177 C 0.97375 0.29666 0.93122 0.0
O178 O 0.9488 0.29095 0.93261 0.0
O179 O 0.9159 0.33912 0.90085 0.0
O180 O 0.2034 0.91471 0.94191 0.0
Tb181 Tb 0.19072 0.9496 0.91837 0.0
C182 C 0.18468 0.98279 0.86274 0.0
O183 O 0.15706 0.9948 0.92052 0.0
Tb184 Tb 0.13956 1.01642 0.88563 0.0
C185 C 0.09894 0.99639 0.85774 0.0
O186 O 0.15686 0.95816 0.94572 0.0
O187 O 0.13552 0.05873 0.8883 0.0
C188 C 0.14091 0.07269 0.91133 0.0
O189 O 0.15238 0.06165 0.93348 0.0
O190 O 0.17333 0.96442 0.87835 0.0
O191 O 0.17387 1.00619 0.86089 0.0
O192 O 0.2237 0.97578 0.9235 0.0
C193 C 0.14494 0.98007 0.93922 0.0
C194 C 0.20692 0.89991 0.91944 0.0
O195 O 0.09927 1.00191 0.88513 0.0
O196 O 0.12155 1.00176 0.84653 0.0
C197 C 0.24321 0.97346 0.9053 0.0
O198 O 0.24239 0.95473 0.88601 0.0
O199 O 0.20072 0.91299 0.89636 0.0
O200 O 0.63396 0.20768 0.94728 0.0
Tb201 Tb 0.59922 0.19487 0.92364 0.0
C202 C 0.5654 0.18782 0.8681 0.0
O203 O 0.55632 0.15892 0.9229 0.0
Tb204 Tb 0.53508 0.13946 0.88926 0.0
C205 C 0.55667 0.10031 0.86047 0.0
O206 O 0.58983 0.16188 0.9523 0.0
O207 O 0.49372 0.13235 0.89693 0.0
C208 C 0.48679 0.10829 0.90326 0.0
O209 O 0.50491 0.09024 0.90457 0.0
O210 O 0.58461 0.17748 0.88339 0.0
O211 O 0.54313 0.17493 0.86525 0.0
O212 O 0.5759 0.23028 0.92796 0.0
C213 C 0.56914 0.14868 0.94427 0.0
C214 C 0.64959 0.20882 0.92523 0.0
O215 O 0.55481 0.10142 0.88851 0.0
O216 O 0.54683 0.12136 0.84916 0.0
C217 C 0.55024 0.23073 0.92652 0.0
O218 O 0.53734 0.20876 0.92385 0.0
O219 O 0.63694 0.20144 0.90229 0.0
O220 O 0.33741 0.63271 0.94175 0.0
Tb221 Tb 0.35675 0.60086 0.91858 0.0
C222 C 0.36105 0.56631 0.86332 0.0
O223 O 0.39034 0.55805 0.91951 0.0
Tb224 Tb 0.40852 0.5353 0.88633 0.0
C225 C 0.44637 0.55554 0.85455 0.0
O226 O 0.39039 0.5932 0.94655 0.0
O227 O 0.41613 0.49441 0.89633 0.0
C228 C 0.44066 0.48732 0.89967 0.0
O229 O 0.45887 0.50519 0.89722 0.0
O230 O 0.37189 0.58619 0.87717 0.0
O231 O 0.37264 0.54314 0.8631 0.0
O232 O 0.32465 0.57339 0.92235 0.0
C233 C 0.40213 0.57143 0.93946 0.0
C234 C 0.33807 0.64965 0.92087 0.0
O235 O 0.44605 0.55571 0.88269 0.0
O236 O 0.4254 0.54432 0.84481 0.0
C237 C 0.3047 0.57627 0.90487 0.0
O238 O 0.30454 0.59622 0.88712 0.0
O239 O 0.34974 0.63918 0.89871 0.0
O240 O 0.91281 0.20949 0.54869 0.0
Tb241 Tb 0.94645 0.19331 0.57195 0.0
C242 C 0.98034 0.19127 0.62738 0.0
O243 O 0.99082 0.15835 0.57341 0.0
Tb244 Tb 1.01145 0.14265 0.61014 0.0
C245 C 0.98842 0.10553 0.64104 0.0
O246 O 0.95532 0.15825 0.54633 0.0
O247 O 0.05365 0.13655 0.60863 0.0
C248 C 0.06768 0.13877 0.58499 0.0
O249 O 0.05689 0.1482 0.56155 0.0
O250 O 0.96162 0.17904 0.61319 0.0
O251 O 1.00308 0.1795 0.63114 0.0
O252 O 0.97315 0.22586 0.56627 0.0
C253 C 0.97658 0.14587 0.55451 0.0
C254 C 0.89687 0.21024 0.57054 0.0
O255 O 0.99626 0.10278 0.61453 0.0
O256 O 0.99342 0.12909 0.64979 0.0
C257 C 0.96721 0.24842 0.57811 0.0
O258 O 0.94501 0.25054 0.59207 0.0
O259 O 0.90878 0.20086 0.5931 0.0
O260 O 0.33355 0.92118 0.54694 0.0
Tb261 Tb 0.35151 0.95333 0.57114 0.0
C262 C 0.35447 0.9846 0.62815 0.0
O263 O 0.38769 0.99614 0.57518 0.0
Tb264 Tb 0.40325 1.01603 0.61246 0.0
C265 C 0.44095 0.99376 0.64326 0.0
O266 O 0.38666 0.9624 0.54566 0.0
O267 O 0.40831 0.05826 0.61066 0.0
C268 C 0.4047 0.07198 0.58703 0.0
O269 O 0.39485 0.06058 0.56416 0.0
O270 O 0.36649 0.96651 0.61282 0.0
O271 O 0.36645 1.00698 0.63335 0.0
O272 O 0.31967 0.98145 0.56801 0.0
C273 C 0.39973 0.98277 0.55519 0.0
C274 C 0.33365 0.90419 0.56784 0.0
O275 O 0.44347 1.00175 0.61677 0.0
O276 O 0.41726 0.99809 0.65201 0.0
C277 C 0.29559 0.97411 0.57364 0.0
O278 O 0.29108 0.94953 0.57993 0.0
O279 O 0.34434 0.91482 0.59046 0.0
O280 O 0.62854 0.34162 0.55142 0.0
Tb281 Tb 0.59256 0.35083 0.57523 0.0
C282 C 0.56218 0.36017 0.63281 0.0
O283 O 0.54922 0.38923 0.57757 0.0
Tb284 Tb 0.53214 0.40886 0.61427 0.0
C285 C 0.55771 0.44776 0.6396 0.0
O286 O 0.58315 0.38512 0.54824 0.0
O287 O 0.4903 0.41681 0.61516 0.0
C288 C 0.47409 0.41041 0.59433 0.0
O289 O 0.48241 0.39573 0.57303 0.0
O290 O 0.57968 0.37011 0.61503 0.0
O291 O 0.54072 0.37362 0.6384 0.0
O292 O 0.5675 0.31686 0.56869 0.0
C293 C 0.5632 0.39938 0.55691 0.0
C294 C 0.64269 0.33542 0.57371 0.0
O295 O 0.54808 0.44862 0.61363 0.0
O296 O 0.55324 0.42494 0.65075 0.0
C297 C 0.54241 0.31695 0.57486 0.0
O298 O 0.53137 0.33868 0.58353 0.0
O299 O 0.6287 0.3386 0.59686 0.0
O300 O 0.20675 0.63395 0.54488 0.0
Tb301 Tb 0.19417 0.59922 0.56898 0.0
C302 C 0.1898 0.56552 0.6246 0.0
O303 O 0.15845 0.55615 0.5713 0.0
Tb304 Tb 0.14058 0.53528 0.60631 0.0
C305 C 0.1047 0.5574 0.63949 0.0
O306 O 0.15906 0.59073 0.54311 0.0
O307 O 0.13077 0.49453 0.59783 0.0
C308 C 0.1061 0.48781 0.60093 0.0
O309 O 0.08939 0.50577 0.60909 0.0
O310 O 0.17856 0.58478 0.61016 0.0
O311 O 0.17754 0.54289 0.62757 0.0
O312 O 0.22657 0.57212 0.56307 0.0
C313 C 0.14664 0.56959 0.55138 0.0
C314 C 0.21078 0.64893 0.56711 0.0
O315 O 0.10392 0.5571 0.61133 0.0
O316 O 0.12574 0.5457 0.6484 0.0
C317 C 0.24785 0.57544 0.57853 0.0
O318 O 0.24932 0.59595 0.59542 0.0
O319 O 0.20494 0.63598 0.59039 0.0
H320 H 0.79538 0.45986 0.10031 0.0
H321 H 0.83268 0.48938 0.09836 0.0
H322 H 0.78656 0.54586 0.05211 0.0
H323 H 0.74887 0.51626 0.05384 0.0
H324 H 0.85503 0.51249 0.04356 0.0
H325 H 0.82036 0.58496 0.12461 0.0
H326 H 0.80826 0.55185 0.1242 0.0
H327 H 0.79845 0.57426 0.09666 0.0
C328 C 0.79306 0.47854 0.0897 0.0
C329 C 0.76912 0.48568 0.07717 0.0
C330 C 0.81443 0.49538 0.08861 0.0
C331 C 0.81232 0.51981 0.07522 0.0
C332 C 0.78849 0.52713 0.06271 0.0
H333 H 0.94353 0.63269 0.08184 0.0
H334 H 0.90001 0.61502 0.07049 0.0
C335 C 0.76704 0.51017 0.06364 0.0
C336 C 0.83543 0.53714 0.07422 0.0
H337 H 0.86347 0.58932 0.10793 0.0
C338 C 0.85675 0.52955 0.05726 0.0
C339 C 0.83749 0.55951 0.0919 0.0
C340 C 0.81503 0.56828 0.11052 0.0
C341 C 0.88051 0.54309 0.05845 0.0
C342 C 0.88319 0.5644 0.07761 0.0
C343 C 0.86139 0.57295 0.09333 0.0
C344 C 0.90916 0.5757 0.08421 0.0
C345 C 0.9028 0.53399 0.03973 0.0
C346 C 0.92842 0.55962 0.0962 0.0
C347 C 0.95299 0.56957 0.10272 0.0
C348 C 0.95896 0.59596 0.09758 0.0
C349 C 0.93954 0.61228 0.08599 0.0
C350 C 0.91473 0.60222 0.07948 0.0
H351 H 0.89557 0.52385 0.02016 0.0
H352 H 0.91535 0.55057 0.03304 0.0
H353 H 0.91496 0.51993 0.052 0.0
H354 H 0.92439 0.53926 0.10066 0.0
H355 H 0.96734 0.55639 0.11178 0.0
H356 H 0.06766 0.7883 0.11844 0.0
H357 H 0.03608 0.82391 0.11685 0.0
H358 H 0.99947 0.78902 0.0427 0.0
H359 H 0.03088 0.7529 0.04443 0.0
H360 H 0.02769 0.85917 0.07352 0.0
H361 H 0.93718 0.80278 0.09511 0.0
H362 H 0.96931 0.78933 0.1009 0.0
H363 H 0.95621 0.79147 0.06512 0.0
C364 C 0.05288 0.7881 0.10179 0.0
C365 C 0.05184 0.76773 0.08152 0.0
C366 C 0.03479 0.8085 0.10094 0.0
C367 C 1.01518 0.80904 0.07988 0.0
C368 C 1.01408 0.78878 0.05952 0.0
H369 H 0.89988 0.93309 0.04772 0.0
H370 H 0.92558 0.89276 0.04393 0.0
C371 C 0.03217 0.76823 0.06041 0.0
C372 C 0.9966 0.83137 0.07896 0.0
H373 H 0.93219 0.84792 0.08576 0.0
C374 C 1.00682 0.85666 0.07612 0.0
C375 C 0.96931 0.82811 0.08221 0.0
C376 C 0.95727 0.8015 0.08625 0.0
C377 C 0.9906 0.87875 0.07682 0.0
C378 C 0.96344 0.87554 0.08076 0.0
C379 C 0.95305 0.85027 0.08279 0.0
C380 C 0.94592 0.8984 0.0842 0.0
C381 C 1.00266 0.90544 0.07343 0.0
C382 C 0.94825 0.91442 0.10852 0.0
C383 C 0.93357 0.93732 0.11084 0.0
C384 C 0.91622 0.94474 0.08883 0.0
C385 C 0.91304 0.92799 0.06505 0.0
C386 C 0.92773 0.90496 0.06281 0.0
H387 H 0.02258 0.90435 0.06407 0.0
H388 H 0.99036 0.91805 0.05951 0.0
H389 H 1.00411 0.91487 0.09487 0.0
H390 H 0.96195 0.90952 0.12544 0.0
H391 H 0.93649 0.94962 0.12952 0.0
H392 H 0.6068 0.89995 0.04665 0.0
H393 H 0.6492 0.92199 0.04362 0.0
H394 H 0.6353 0.95805 0.12606 0.0
H395 H 0.59344 0.9359 0.12954 0.0
H396 H 0.65757 0.97466 0.04253 0.0
H397 H 0.70915 0.93229 0.13594 0.0
H398 H 0.67982 0.918 0.12129 0.0
H399 H 0.67787 0.94513 0.14586 0.0
C400 C 0.61302 0.91217 0.06439 0.0
C401 C 0.59671 0.91606 0.08838 0.0
C402 C 0.63722 0.92482 0.06258 0.0
C403 C 0.64564 0.94139 0.0848 0.0
C404 C 0.62958 0.94488 0.10896 0.0
H405 H 0.75551 0.06225 0.11905 0.0
H406 H 0.72048 0.02995 0.11765 0.0
C407 C 0.6055 0.93228 0.11081 0.0
C408 C 0.67016 0.95669 0.08205 0.0
H409 H 0.72582 0.97318 0.11817 0.0
C410 C 0.67274 0.974 0.05877 0.0
C411 C 0.68997 0.95583 0.10325 0.0
C412 C 0.68922 0.93661 0.12782 0.0
C413 C 0.69389 0.99137 0.05693 0.0
C414 C 0.71307 0.99125 0.0788 0.0
C415 C 0.71099 0.97335 0.10153 0.0
C416 C 0.73464 1.01054 0.07936 0.0
C417 C 0.69501 1.01053 0.03232 0.0
C418 C 0.75439 1.01018 0.05843 0.0
C419 C 0.77455 0.02863 0.05919 0.0
C420 C 0.7752 0.04781 0.08085 0.0
C421 C 0.75546 0.04793 0.10189 0.0
C422 C 0.73547 0.02942 0.10121 0.0
H423 H 0.67654 1.01097 0.01981 0.0
H424 H 0.69914 0.0305 0.04042 0.0
H425 H 0.71107 1.00494 0.01753 0.0
H426 H 0.75428 0.99555 0.0416 0.0
H427 H 0.78954 0.02792 0.04278 0.0
H428 H 0.47958 0.76765 0.12822 0.0
H429 H 0.50796 0.72941 0.12792 0.0
H430 H 0.53055 0.74661 0.04047 0.0
H431 H 0.50309 0.78581 0.04128 0.0
H432 H 0.50345 0.68804 0.09766 0.0
H433 H 0.60034 0.72976 0.07273 0.0
H434 H 0.57277 0.74988 0.08229 0.0
H435 H 0.57658 0.73814 0.04598 0.0
C436 C 0.49085 0.76348 0.10903 0.0
C437 C 0.48908 0.77968 0.08473 0.0
C438 C 0.50711 0.74159 0.10889 0.0
C439 C 0.52172 0.73513 0.08429 0.0
C440 C 0.52013 0.75147 0.06002 0.0
H441 H 0.56741 0.57499 0.05276 0.0
H442 H 0.5488 0.61879 0.05054 0.0
C443 C 0.50423 0.77376 0.06038 0.0
C444 C 0.53678 0.71022 0.08353 0.0
H445 H 0.59629 0.68333 0.06801 0.0
C446 C 0.52382 0.68715 0.09138 0.0
C447 C 0.56349 0.7089 0.0757 0.0
C448 C 0.57918 0.73304 0.069 0.0
C449 C 0.53656 0.66292 0.09135 0.0
C450 C 0.56283 0.66137 0.08203 0.0
C451 C 0.57604 0.68444 0.07467 0.0
C452 C 0.57668 0.63589 0.07999 0.0
C453 C 0.52177 0.63931 0.10196 0.0
C454 C 0.59973 0.63129 0.09563 0.0
C455 C 0.61087 0.60626 0.09632 0.0
C456 C 0.59894 0.58549 0.08162 0.0
C457 C 0.57682 0.59055 0.06465 0.0
C458 C 0.56605 0.61555 0.06352 0.0
H459 H 0.50548 0.64496 0.11648 0.0
H460 H 0.51321 0.62887 0.08331 0.0
H461 H 0.53477 0.62564 0.11372 0.0
H462 H 0.60844 0.64675 0.10828 0.0
H463 H 0.62794 0.60289 0.10955 0.0
H464 H 0.95008 0.91621 0.46158 0.0
H465 H 0.90769 0.93797 0.46499 0.0
H466 H 0.90385 0.94266 0.37243 0.0
H467 H 0.94653 0.92159 0.36889 0.0
H468 H 0.892 0.98838 0.39593 0.0
H469 H 0.835 0.91163 0.45145 0.0
H470 H 0.86386 0.92078 0.47078 0.0
H471 H 0.86673 0.90543 0.43608 0.0
C472 C 0.94003 0.92148 0.44192 0.0
C473 C 0.95171 0.91703 0.41494 0.0
C474 C 0.91569 0.93387 0.4439 0.0
C475 C 0.90228 0.9417 0.41896 0.0
C476 C 0.91372 0.9368 0.39201 0.0
H477 H 0.74094 0.99303 0.40709 0.0
H478 H 0.78213 0.96901 0.40636 0.0
C479 C 0.93813 0.92465 0.39001 0.0
C480 C 0.87709 0.95625 0.42085 0.0
H481 H 0.81516 0.95358 0.44814 0.0
C482 C 0.87518 0.98069 0.40728 0.0
C483 C 0.85497 0.94619 0.43539 0.0
C484 C 0.85509 0.91946 0.449 0.0
C485 C 0.85199 0.99536 0.40794 0.0
C486 C 0.83015 0.98571 0.42329 0.0
C487 C 0.83196 0.96117 0.43668 0.0
C488 C 0.80498 1.00031 0.4248 0.0
C489 C 0.85093 1.02075 0.3915 0.0
C490 C 0.80387 0.02581 0.43593 0.0
C491 C 0.7803 0.03973 0.43619 0.0
C492 C 0.75724 0.02829 0.42569 0.0
C493 C 0.75828 1.00248 0.41536 0.0
C494 C 0.78186 0.98867 0.41493 0.0
H495 H 0.86629 1.0217 0.37466 0.0
H496 H 0.83163 0.02348 0.38107 0.0
H497 H 0.85417 0.0372 0.4066 0.0
H498 H 0.82127 0.03503 0.44434 0.0
H499 H 0.7802 0.05948 0.44448 0.0
H500 H 0.63335 0.94459 0.45611 0.0
H501 H 0.61135 0.90238 0.45931 0.0
H502 H 0.60174 0.90148 0.36711 0.0
H503 H 0.62301 0.94409 0.36385 0.0
H504 H 0.5573 0.88933 0.3931 0.0
H505 H 0.6363 0.82998 0.44141 0.0
H506 H 0.62846 0.8583 0.46241 0.0
H507 H 0.64196 0.86214 0.42689 0.0
C508 C 0.62695 0.93522 0.43645 0.0
C509 C 0.63008 0.94769 0.40969 0.0
C510 C 0.61443 0.91098 0.43831 0.0
C511 C 0.60517 0.89846 0.41342 0.0
C512 C 0.60874 0.91067 0.38664 0.0
H513 H 0.5522 0.73815 0.39879 0.0
H514 H 0.57635 0.77921 0.3982 0.0
C515 C 0.621 0.93502 0.38479 0.0
C516 C 0.59053 0.87337 0.41533 0.0
H517 H 0.59406 0.81067 0.44024 0.0
C518 C 0.5654 0.87211 0.40332 0.0
C519 C 0.60114 0.85076 0.42842 0.0
C520 C 0.62854 0.85021 0.44026 0.0
C521 C 0.55058 0.84905 0.40414 0.0
C522 C 0.56084 0.82669 0.41806 0.0
C523 C 0.58604 0.82787 0.42989 0.0
C524 C 0.54619 0.8016 0.4195 0.0
C525 C 0.52437 0.8487 0.38935 0.0
C526 C 0.52132 0.80029 0.43218 0.0
C527 C 0.50731 0.7768 0.43235 0.0
C528 C 0.51806 0.75404 0.42023 0.0
C529 C 0.54329 0.75526 0.40835 0.0
C530 C 0.55717 0.77876 0.40799 0.0
H531 H 0.52263 0.8646 0.37321 0.0
H532 H 0.52094 0.82976 0.37838 0.0
H533 H 0.50878 0.85157 0.40562 0.0
H534 H 0.51266 0.81746 0.44185 0.0
H535 H 0.48802 0.77652 0.44186 0.0
H536 H 0.61024 0.64135 0.43994 0.0
H537 H 0.65199 0.61811 0.44262 0.0
H538 H 0.63587 0.58122 0.36115 0.0
H539 H 0.59456 0.60465 0.35801 0.0
H540 H 0.65976 0.56582 0.44498 0.0
H541 H 0.70996 0.60474 0.34883 0.0
H542 H 0.68104 0.61978 0.36357 0.0
H543 H 0.67841 0.59184 0.34024 0.0
C544 C 0.6158 0.62866 0.42233 0.0
C545 C 0.59903 0.62501 0.39868 0.0
C546 C 0.63965 0.6153 0.42395 0.0
C547 C 0.64733 0.59815 0.40189 0.0
C548 C 0.63078 0.5948 0.3781 0.0
H549 H 0.75893 0.47644 0.37181 0.0
H550 H 0.72341 0.50828 0.37165 0.0
C551 C 0.60701 0.60816 0.37643 0.0
C552 C 0.67172 0.58242 0.40451 0.0
H553 H 0.72719 0.5649 0.36839 0.0
C554 C 0.6747 0.56592 0.42845 0.0
C555 C 0.69128 0.58253 0.38297 0.0
C556 C 0.69017 0.60088 0.35761 0.0
C557 C 0.69607 0.54878 0.4308 0.0
C558 C 0.7151 0.54827 0.40876 0.0
C559 C 0.71251 0.56522 0.38521 0.0
C560 C 0.73713 0.52934 0.40902 0.0
C561 C 0.69762 0.5306 0.45627 0.0
C562 C 0.75689 0.53077 0.42991 0.0
C563 C 0.77737 0.51257 0.43002 0.0
C564 C 0.77835 0.49254 0.40933 0.0
C565 C 0.75865 0.4914 0.38828 0.0
C566 C 0.73836 0.50967 0.38806 0.0
H567 H 0.67916 0.53026 0.46881 0.0
H568 H 0.7022 0.51043 0.44911 0.0
H569 H 0.71354 0.5371 0.47077 0.0
H570 H 0.75652 0.54601 0.44606 0.0
H571 H 0.7923 0.51409 0.44642 0.0
H572 H 0.08419 0.75311 0.38479 0.0
H573 H 0.05353 0.7169 0.38195 0.0
H574 H 0.99901 0.75918 0.43513 0.0
H575 H 0.02995 0.79566 0.43845 0.0
H576 H 1.00532 0.70742 0.452 0.0
H577 H 0.98691 0.71258 0.3349 0.0
H578 H 1.02111 0.71123 0.34288 0.0
H579 H 1.00215 0.73889 0.35454 0.0
C580 C 0.06569 0.75482 0.39591 0.0
C581 C 0.05955 0.77731 0.4119 0.0
C582 C 0.04806 0.73414 0.39403 0.0
C583 C 0.02375 0.73551 0.40784 0.0
C584 C 1.01758 0.75781 0.42409 0.0
H585 H 0.91105 0.6032 0.4029 0.0
H586 H 0.9267 0.64846 0.40828 0.0
C587 C 0.03528 0.77861 0.42598 0.0
C588 C 1.00547 0.71306 0.40606 0.0
H589 H 0.97717 0.67138 0.35789 0.0
C590 C 0.99863 0.69988 0.43148 0.0
C591 C 0.99656 0.7033 0.37929 0.0
C592 C 1.00183 0.7174 0.35139 0.0
C593 C 0.98466 0.67627 0.43062 0.0
C594 C 0.97734 0.66571 0.40375 0.0
C595 C 0.98287 0.67957 0.37848 0.0
C596 C 0.96727 0.63873 0.40121 0.0
C597 C 0.97903 0.66189 0.45822 0.0
C598 C 0.98491 0.61853 0.39551 0.0
C599 C 0.97615 0.59293 0.39248 0.0
C600 C 0.94945 0.5869 0.39501 0.0
C601 C 0.93171 0.60721 0.40082 0.0
C602 C 0.94059 0.63301 0.40391 0.0
H603 H 0.98465 0.67338 0.47753 0.0
H604 H 0.95793 0.65718 0.45953 0.0
H605 H 0.98992 0.64314 0.4584 0.0
H606 H 1.00556 0.62261 0.39332 0.0
H607 H 0.99042 0.57788 0.38794 0.0
H608 H 0.08307 0.47292 0.93931 0.0
H609 H 0.12702 0.49103 0.94068 0.0
H610 H 0.15111 0.43727 0.87435 0.0
H611 H 0.10692 0.41842 0.8735 0.0
H612 H 0.19021 0.44655 0.91596 0.0
H613 H 0.14848 0.53922 0.87523 0.0
H614 H 0.13355 0.52868 0.90814 0.0
H615 H 0.1301 0.50924 0.8761 0.0
C616 C 0.0978 0.46469 0.92528 0.0
C617 C 0.09152 0.44457 0.90596 0.0
C618 C 0.1229 0.4751 0.92604 0.0
C619 C 0.14213 0.46603 0.90704 0.0
C620 C 0.13646 0.44471 0.88903 0.0
H621 H 0.27096 0.56737 0.8609 0.0
H622 H 0.23372 0.53777 0.86009 0.0
C623 C 0.11129 0.43394 0.88858 0.0
C624 C 0.16728 0.48024 0.90467 0.0
H625 H 0.19222 0.54087 0.89197 0.0
C626 C 0.19075 0.46712 0.91051 0.0
C627 C 0.16799 0.50697 0.89701 0.0
C628 C 0.14372 0.5218 0.88847 0.0
C629 C 0.21487 0.48027 0.9097 0.0
C630 C 0.21538 0.50735 0.90347 0.0
C631 C 0.19191 0.5202 0.897 0.0
C632 C 0.23984 0.52301 0.90323 0.0
C633 C 0.23951 0.46493 0.91507 0.0
C634 C 0.25601 0.52443 0.92762 0.0
C635 C 0.27762 0.54118 0.92799 0.0
C636 C 0.28304 0.55723 0.90421 0.0
C637 C 0.2671 0.55548 0.8797 0.0
C638 C 0.24583 0.53848 0.87917 0.0
H639 H 0.23669 0.44383 0.91051 0.0
H640 H 0.25587 0.47225 0.90165 0.0
H641 H 0.24508 0.46688 0.93804 0.0
H642 H 0.25148 0.51324 0.94673 0.0
H643 H 0.28953 0.54222 0.9472 0.0
H644 H 0.02552 0.29988 0.91681 0.0
H645 H 0.05711 0.26408 0.91345 0.0
H646 H 0.99852 0.21001 0.94304 0.0
H647 H 0.96671 0.24546 0.94567 0.0
H648 H 0.07725 0.22991 0.95191 0.0
H649 H 1.02145 0.17584 0.86924 0.0
H650 H 1.0134 0.20881 0.87955 0.0
H651 H 1.00259 0.18167 0.9011 0.0
C652 C 1.01939 0.28038 0.92271 0.0
C653 C 0.99352 0.27549 0.93126 0.0
C654 C 0.03748 0.25993 0.92077 0.0
C655 C 0.03006 0.23422 0.92738 0.0
C656 C 1.00453 0.22952 0.93704 0.0
H657 H 0.12941 0.10002 0.96033 0.0
H658 H 0.10478 0.14075 0.96397 0.0
C659 C 0.98639 0.24987 0.93871 0.0
C660 C 0.04885 0.21227 0.92387 0.0
H661 H 0.05631 0.15282 0.89169 0.0
C662 C 0.07278 0.21312 0.93858 0.0
C663 C 0.04329 0.19058 0.90601 0.0
C664 C 1.01892 0.18924 0.88784 0.0
C665 C 0.09095 0.19258 0.93654 0.0
C666 C 0.08475 0.17026 0.91988 0.0
C667 C 0.06107 0.16976 0.90467 0.0
C668 C 0.1022 0.14702 0.91795 0.0
C669 C 0.11675 0.19529 0.95187 0.0
C670 C 0.1089 0.13668 0.89092 0.0
C671 C 0.12253 0.1131 0.8888 0.0
C672 C 0.13 0.09941 0.91368 0.0
C673 C 0.12429 0.11028 0.94075 0.0
C674 C 0.11026 0.13369 0.94286 0.0
H675 H 0.12193 0.21612 0.9552 0.0
H676 H 0.11533 0.18599 0.97337 0.0
H677 H 0.13274 0.18569 0.93969 0.0
H678 H 0.10294 0.14652 0.87136 0.0
H679 H 0.12663 0.10524 0.86764 0.0
H680 H 0.27736 0.98325 0.86191 0.0
H681 H 0.31596 1.01109 0.8631 0.0
H682 H 0.29884 0.03216 0.95098 0.0
H683 H 0.25947 1.00489 0.94959 0.0
H684 H 0.31701 0.07398 0.91997 0.0
H685 H 0.38155 0.98845 0.90381 0.0
H686 H 0.35811 0.99206 0.87546 0.0
H687 H 0.34725 0.98515 0.91152 0.0
C688 C 0.28176 0.99385 0.8815 0.0
C689 C 0.26566 0.99155 0.90586 0.0
C690 C 0.30386 1.00972 0.88216 0.0
C691 C 0.31068 0.02318 0.90736 0.0
C692 C 0.29405 1.02179 0.93136 0.0
H693 H 0.46939 0.07006 0.93838 0.0
H694 H 0.42536 0.05271 0.94209 0.0
C695 C 0.27163 1.00617 0.93058 0.0
C696 C 0.33573 0.03769 0.90894 0.0
H697 H 0.40133 0.03009 0.89996 0.0
C698 C 0.3355 0.06441 0.91577 0.0
C699 C 0.35989 0.02509 0.90391 0.0
C700 C 0.36181 0.99606 0.89857 0.0
C701 C 0.35878 0.07894 0.91726 0.0
C702 C 0.38282 0.0665 0.91111 0.0
C703 C 0.38294 0.03974 0.90451 0.0
C704 C 0.40838 0.08024 0.91211 0.0
C705 C 0.3574 0.10726 0.92601 0.0
C706 C 0.4135 0.10216 0.89474 0.0
C707 C 0.43879 0.11256 0.8931 0.0
C708 C 0.45936 0.10074 0.90824 0.0
C709 C 0.45397 0.07949 0.92634 0.0
C710 C 0.42876 0.06951 0.92845 0.0
H711 H 0.33916 0.11163 0.938 0.0
H712 H 0.37432 0.11276 0.93963 0.0
H713 H 0.35763 0.11963 0.90642 0.0
H714 H 0.39829 0.11047 0.88143 0.0
H715 H 0.44252 0.1288 0.87877 0.0
H716 H 0.57109 0.27971 0.93037 0.0
H717 H 0.54823 0.32149 0.92739 0.0
H718 H 0.4749 0.28118 0.91827 0.0
H719 H 0.49757 0.23919 0.9215 0.0
H720 H 0.51789 0.3386 0.88073 0.0
H721 H 0.45946 0.3354 0.98154 0.0
H722 H 0.4871 0.31422 0.97543 0.0
H723 H 0.45646 0.30754 0.95825 0.0
C724 C 0.55006 0.27966 0.92803 0.0
C725 C 0.53617 0.25606 0.92625 0.0
C726 C 0.53703 0.30359 0.9263 0.0
C727 C 0.50983 0.30447 0.92293 0.0
C728 C 0.49583 0.28098 0.92141 0.0
H729 H 0.40997 0.44314 0.89841 0.0
H730 H 0.42459 0.39762 0.90383 0.0
C731 C 0.50887 0.25698 0.92312 0.0
C732 C 0.49652 0.33003 0.91947 0.0
H733 H 0.4529 0.37173 0.951 0.0
C734 C 0.50363 0.34579 0.89606 0.0
C735 C 0.47772 0.33928 0.93933 0.0
C736 C 0.46979 0.32339 0.96521 0.0
C737 C 0.49277 0.37068 0.89218 0.0
C738 C 0.47461 0.3803 0.91252 0.0
C739 C 0.46685 0.36428 0.93548 0.0
C740 C 0.46504 0.40761 0.9112 0.0
C741 C 0.50092 0.38656 0.86635 0.0
C742 C 0.48278 0.4282 0.91439 0.0
C743 C 0.47457 0.454 0.91131 0.0
C744 C 0.44834 0.45986 0.90509 0.0
C745 C 0.43031 0.43926 0.90306 0.0
C746 C 0.43861 0.41328 0.90614 0.0
H747 H 0.50909 0.37404 0.84902 0.0
H748 H 0.4842 0.39779 0.85753 0.0
H749 H 0.51625 0.40064 0.87291 0.0
H750 H 0.50315 0.42428 0.91887 0.0
H751 H 0.48895 0.46936 0.91344 0.0
H752 H 0.09378 0.12112 0.53751 0.0
H753 H 0.13418 0.09574 0.53622 0.0
H754 H 0.14199 0.1043 0.62817 0.0
H755 H 0.10087 0.12859 0.62973 0.0
H756 H 0.18321 0.10325 0.54883 0.0
H757 H 0.1455 0.02709 0.62238 0.0
H758 H 0.125 0.05263 0.60827 0.0
H759 H 0.14579 0.05874 0.6388 0.0
C760 C 0.10422 0.11781 0.55744 0.0
C761 C 0.09399 0.12668 0.58377 0.0
C762 C 0.12734 0.10322 0.55669 0.0
C763 C 0.14089 0.09741 0.5822 0.0
C764 C 0.1315 0.10765 0.6083 0.0
H765 H 0.29809 0.0273 0.57978 0.0
H766 H 0.26157 0.05814 0.5823 0.0
C767 C 0.1081 0.12179 0.60914 0.0
C768 C 0.16436 0.0801 0.58143 0.0
H769 H 0.19024 0.02437 0.61011 0.0
C770 C 0.18472 0.08596 0.5622 0.0
C771 C 0.16624 0.05722 0.59847 0.0
C772 C 0.14436 0.04837 0.6179 0.0
C773 C 0.20676 0.06971 0.55954 0.0
C774 C 0.20904 0.04736 0.57734 0.0
C775 C 0.18872 0.04157 0.59662 0.0
C776 C 0.23162 0.02895 0.57555 0.0
C777 C 0.22685 0.07623 0.53692 0.0
C778 C 0.22712 1.00209 0.57186 0.0
C779 C 0.24791 0.98441 0.57113 0.0
C780 C 0.27378 0.99316 0.57369 0.0
C781 C 0.27839 1.02002 0.57726 0.0
C782 C 0.2575 0.0377 0.57853 0.0
H783 H 0.21854 0.08882 0.51974 0.0
H784 H 0.24315 0.08709 0.54708 0.0
H785 H 0.23486 0.0583 0.5268 0.0
H786 H 0.20742 0.99473 0.56957 0.0
H787 H 0.24369 0.96385 0.56838 0.0
H788 H 0.49244 0.30912 0.59358 0.0
H789 H 0.46798 0.26822 0.59471 0.0
H790 H 0.53267 0.22837 0.55474 0.0
H791 H 0.55756 0.26912 0.55417 0.0
H792 H 0.45152 0.23552 0.55278 0.0
H793 H 0.52023 0.18353 0.62492 0.0
H794 H 0.52216 0.21821 0.61862 0.0
H795 H 0.53536 0.19563 0.59277 0.0
C796 C 0.50149 0.29169 0.58495 0.0
C797 C 0.52706 0.2924 0.57394 0.0
C798 C 0.48745 0.26829 0.58561 0.0
C799 C 0.49862 0.24508 0.5753 0.0
C800 C 0.52385 0.24587 0.56349 0.0
H801 H 0.41383 0.10101 0.5386 0.0
H802 H 0.4355 0.1434 0.53546 0.0
C803 C 0.538 0.26924 0.563 0.0
C804 C 0.48383 0.22011 0.57704 0.0
H805 H 0.48647 0.15816 0.60405 0.0
C806 C 0.45913 0.21861 0.56405 0.0
C807 C 0.49354 0.19817 0.59215 0.0
C808 C 0.51915 0.19896 0.60816 0.0
C809 C 0.44403 0.19572 0.56546 0.0
C810 C 0.45415 0.17348 0.57971 0.0
C811 C 0.47875 0.1751 0.59294 0.0
C812 C 0.43958 0.14836 0.58151 0.0
C813 C 0.41714 0.19587 0.55225 0.0
C814 C 0.43494 0.13671 0.60839 0.0
C815 C 0.42287 0.11228 0.61023 0.0
C816 C 0.41507 0.09897 0.58521 0.0
C817 C 0.41923 0.11088 0.55832 0.0
C818 C 0.43157 0.13521 0.55649 0.0
H819 H 0.40936 0.21603 0.55016 0.0
H820 H 0.41817 0.18729 0.53035 0.0
H821 H 0.40323 0.18418 0.56524 0.0
H822 H 0.44098 0.1464 0.62801 0.0
H823 H 0.42002 0.10364 0.63127 0.0
H824 H 0.28884 0.57241 0.61574 0.0
H825 H 0.32416 0.54041 0.61643 0.0
H826 H 0.29078 0.50175 0.54275 0.0
H827 H 0.25516 0.53389 0.54183 0.0
H828 H 0.32 0.48434 0.62121 0.0
H829 H 0.36816 0.51576 0.5196 0.0
H830 H 0.3452 0.53626 0.53856 0.0
H831 H 0.33375 0.50903 0.51784 0.0
C832 C 0.28903 0.55724 0.5995 0.0
C833 C 0.26928 0.55589 0.57851 0.0
C834 C 0.30921 0.53887 0.60003 0.0
C835 C 0.3103 0.51886 0.57946 0.0
C836 C 0.29053 0.51726 0.55858 0.0
H837 H 0.43636 0.4049 0.55273 0.0
H838 H 0.39481 0.42839 0.54907 0.0
C839 C 0.27015 0.53558 0.55815 0.0
C840 C 0.33213 0.49971 0.58025 0.0
H841 H 0.38734 0.48076 0.54463 0.0
C842 C 0.33465 0.48343 0.60439 0.0
C843 C 0.35114 0.49843 0.55822 0.0
C844 C 0.34969 0.51587 0.53212 0.0
C845 C 0.35579 0.4661 0.60724 0.0
C846 C 0.37534 0.46546 0.5857 0.0
C847 C 0.37241 0.48124 0.56117 0.0
C848 C 0.39965 0.44971 0.58891 0.0
C849 C 0.35684 0.44853 0.63326 0.0
C850 C 0.41625 0.45378 0.61252 0.0
C851 C 0.43992 0.44029 0.61476 0.0
C852 C 0.44773 0.42258 0.59326 0.0
C853 C 0.43093 0.41826 0.56978 0.0
C854 C 0.40718 0.43175 0.56759 0.0
H855 H 0.33705 0.44505 0.64225 0.0
H856 H 0.36584 0.4294 0.62799 0.0
H857 H 0.3687 0.45802 0.65026 0.0
H858 H 0.41127 0.46797 0.6289 0.0
H859 H 0.4524 0.44433 0.63301 0.0
H860 H 0.05673 0.46991 0.60809 0.0
H861 H 0.03977 0.42653 0.59857 0.0
H862 H 0.11595 0.40118 0.57074 0.0
H863 H 0.13342 0.44505 0.5806 0.0
H864 H 0.03916 0.39971 0.54622 0.0
H865 H 0.09445 0.34523 0.63021 0.0
H866 H 0.09186 0.38038 0.63052 0.0
H867 H 0.113 0.36452 0.60516 0.0
C868 C 0.07005 0.45521 0.60002 0.0
C869 C 0.09652 0.46099 0.59518 0.0
C870 C 0.06024 0.43035 0.59454 0.0
C871 C 0.07658 0.41053 0.58415 0.0
C872 C 0.10306 0.4161 0.57916 0.0
H873 H 1.01736 0.24985 0.55709 0.0
H874 H 0.04672 0.28774 0.5551 0.0
C875 C 0.11299 0.44117 0.58469 0.0
C876 C 0.06519 0.38437 0.57843 0.0
H877 H 0.0625 0.32202 0.60451 0.0
C878 C 0.04455 0.38262 0.55866 0.0
C879 C 0.07229 0.36205 0.59459 0.0
C880 C 0.094 0.36297 0.61647 0.0
C881 C 0.03009 0.35955 0.55553 0.0
C882 C 0.03626 0.3377 0.57279 0.0
C883 C 0.05781 0.33888 0.59137 0.0
C884 C 1.01891 0.31456 0.57387 0.0
C885 C 1.0078 0.35894 0.53436 0.0
C886 C 0.99376 0.31707 0.58542 0.0
C887 C 0.97708 0.29558 0.58672 0.0
C888 C 0.98516 0.27106 0.57641 0.0
C889 C 1.01048 0.26851 0.565 0.0
C890 C 0.0273 0.29009 0.56392 0.0
H891 H 1.00981 0.37437 0.51771 0.0
H892 H 1.00656 0.33965 0.52355 0.0
H893 H 0.98921 0.36232 0.54604 0.0
H894 H 0.98705 0.33572 0.59358 0.0
H895 H 0.95779 0.29824 0.59578 0.0
H896 H 0.11218 0.70263 0.14885 0.0
H897 H 0.12037 0.73007 0.19118 0.0
H898 H 0.03793 0.74511 0.19895 0.0
H899 H 0.02954 0.71804 0.15666 0.0
H900 H 0.09802 0.78736 0.20592 0.0
H901 H 0.06753 0.7044 0.27542 0.0
H902 H 0.08029 0.69981 0.23949 0.0
H903 H 0.0475 0.71122 0.24449 0.0
C904 C 0.09588 0.71235 0.15909 0.0
C905 C 0.07017 0.70798 0.14963 0.0
C906 C 0.1006 0.72787 0.18333 0.0
C907 C 0.07968 0.73913 0.19832 0.0
C908 C 0.05425 0.73626 0.18776 0.0
H909 H 0.03193 0.82093 0.3445 0.0
H910 H 0.0401 0.78963 0.30595 0.0
C911 C 0.04952 0.72084 0.16361 0.0
C912 C 0.08383 0.75242 0.2261 0.0
H913 H 0.07137 0.74582 0.29786 0.0
C914 C 0.09272 0.77824 0.22616 0.0
C915 C 0.07682 0.74029 0.25228 0.0
C916 C 0.06765 0.71233 0.25316 0.0
C917 C 0.09336 0.79286 0.25172 0.0
C918 C 0.08538 0.78101 0.27785 0.0
C919 C 0.07762 0.75477 0.27786 0.0
C920 C 0.08175 0.79647 0.30448 0.0
C921 C 0.101 0.82128 0.25025 0.0
C922 C 0.10267 0.80959 0.31751 0.0
C923 C 0.09802 0.8276 0.33958 0.0
C924 C 0.07239 0.8326 0.34888 0.0
C925 C 0.05183 0.81774 0.33746 0.0
C926 C 0.05648 0.79981 0.31549 0.0
H927 H 0.10215 0.82847 0.22773 0.0
H928 H 0.0868 0.83354 0.26221 0.0
H929 H 0.12044 0.82388 0.26032 0.0
H930 H 0.1224 0.8068 0.30975 0.0
H931 H 0.11428 0.83866 0.34809 0.0
H932 H 0.72372 0.02813 0.33987 0.0
H933 H 0.75197 0.03717 0.29864 0.0
H934 H 0.73379 0.11912 0.30497 0.0
H935 H 0.70521 0.11022 0.3462 0.0
H936 H 0.72397 0.07033 0.24724 0.0
H937 H 0.81923 0.10497 0.29076 0.0
H938 H 0.80016 0.0813 0.31045 0.0
H939 H 0.78877 0.11424 0.30749 0.0
C940 C 0.72631 0.04818 0.33301 0.0
C941 C 0.71226 0.06847 0.34619 0.0
C942 C 0.74238 0.05328 0.30945 0.0
C943 C 0.74472 0.07874 0.29879 0.0
C944 C 0.73222 0.09936 0.31309 0.0
H945 H 0.84345 0.10957 0.14848 0.0
H946 H 0.81189 0.11891 0.18683 0.0
C947 C 0.71613 0.09427 0.33678 0.0
C948 C 0.75781 0.08294 0.2709 0.0
H949 H 0.81699 0.09628 0.24097 0.0
C950 C 0.74419 0.07641 0.24573 0.0
C951 C 0.78399 0.09114 0.26915 0.0
C952 C 0.79909 0.09839 0.29581 0.0
C953 C 0.75654 0.07673 0.2188 0.0
C954 C 0.78328 0.08331 0.21721 0.0
C955 C 0.79647 0.09125 0.24225 0.0
C956 C 0.79872 0.07896 0.19071 0.0
C957 C 0.74104 0.06948 0.19239 0.0
C958 C 0.80123 0.05356 0.17974 0.0
C959 C 0.81914 0.04822 0.15794 0.0
C960 C 0.83485 0.06819 0.1467 0.0
C961 C 0.83128 0.0939 0.15647 0.0
C962 C 0.81343 0.09922 0.1785 0.0
H963 H 0.71992 0.07352 0.19546 0.0
H964 H 0.74799 0.08029 0.17315 0.0
H965 H 0.74328 0.04827 0.18819 0.0
H966 H 0.79043 0.03754 0.18918 0.0
H967 H 0.82158 0.02823 0.15081 0.0
H968 H 0.4313 0.8477 0.1511 0.0
H969 H 0.42266 0.817 0.19057 0.0
H970 H 0.50372 0.79438 0.19078 0.0
H971 H 0.51242 0.82479 0.15146 0.0
H972 H 0.46684 0.7522 0.19848 0.0
H973 H 0.45073 0.83637 0.27252 0.0
H974 H 0.43136 0.83489 0.24026 0.0
H975 H 0.46587 0.84023 0.23771 0.0
C976 C 0.44709 0.83568 0.15913 0.0
C977 C 0.47258 0.83873 0.14848 0.0
C978 C 0.44218 0.81835 0.18178 0.0
C979 C 0.46268 0.80386 0.19387 0.0
C980 C 0.4877 0.80557 0.18186 0.0
H981 H 0.51655 0.72079 0.33681 0.0
H982 H 0.50684 0.75158 0.29798 0.0
C983 C 0.49265 0.82294 0.15945 0.0
C984 C 0.45896 0.78837 0.22039 0.0
H985 H 0.45292 0.79464 0.29335 0.0
C986 C 0.46325 0.76136 0.21916 0.0
C987 C 0.45455 0.80052 0.24734 0.0
C988 C 0.45049 0.82961 0.24981 0.0
C989 C 0.46409 0.74629 0.24432 0.0
C990 C 0.4607 0.75861 0.27127 0.0
C991 C 0.45539 0.78539 0.27253 0.0
C992 C 0.46533 0.74413 0.29821 0.0
C993 C 0.46973 0.71745 0.24218 0.0
C994 C 0.44497 0.73071 0.31184 0.0
C995 C 0.45045 0.7132 0.33415 0.0
C996 C 0.47636 0.70889 0.34286 0.0
C997 C 0.49642 0.72376 0.33046 0.0
C998 C 0.49092 0.74132 0.30833 0.0
H999 H 0.46961 0.71043 0.21955 0.0
H1000 H 0.48918 0.71331 0.25166 0.0
H1001 H 0.45506 0.70624 0.25467 0.0
H1002 H 0.42512 0.73262 0.30411 0.0
H1003 H 0.4347 0.70158 0.3429 0.0
H1004 H 0.70673 0.43442 0.14525 0.0
H1005 H 0.73521 0.42815 0.18714 0.0
H1006 H 0.74605 0.51136 0.19343 0.0
H1007 H 0.7179 0.51786 0.15167 0.0
H1008 H 0.79051 0.45081 0.20093 0.0
H1009 H 0.70899 0.48379 0.27104 0.0
H1010 H 0.70385 0.47105 0.23521 0.0
H1011 H 0.71564 0.50374 0.24004 0.0
C1012 C 0.71566 0.45134 0.15513 0.0
C1013 C 0.70971 0.47668 0.14545 0.0
C1014 C 0.73183 0.4477 0.1791 0.0
C1015 C 0.7422 0.46934 0.1936 0.0
C1016 C 0.73785 0.49447 0.18271 0.0
H1017 H 0.82603 0.51755 0.34017 0.0
H1018 H 0.79572 0.51053 0.3004 0.0
C1019 C 0.72179 0.49812 0.15883 0.0
C1020 C 0.7561 0.46618 0.22124 0.0
H1021 H 0.75079 0.48053 0.29274 0.0
C1022 C 0.7818 0.45687 0.22113 0.0
C1023 C 0.74451 0.47411 0.24743 0.0
C1024 C 0.71665 0.48357 0.24867 0.0
C1025 C 0.79677 0.45659 0.24647 0.0
C1026 C 0.78544 0.46539 0.27256 0.0
C1027 C 0.75938 0.47373 0.27275 0.0
C1028 C 0.80111 0.46865 0.29912 0.0
C1029 C 0.82498 0.44825 0.24479 0.0
C1030 C 0.81325 0.44727 0.31248 0.0
C1031 C 0.83064 0.45125 0.33527 0.0
C1032 C 0.83604 0.47666 0.34504 0.0
C1033 C 0.82246 0.49778 0.3329 0.0
C1034 C 0.8051 0.49379 0.31021 0.0
H1035 H 0.83195 0.44674 0.22222 0.0
H1036 H 0.83765 0.46224 0.25651 0.0
H1037 H 0.82721 0.42882 0.25504 0.0
H1038 H 0.80996 0.42764 0.30464 0.0
H1039 H 0.84078 0.43458 0.34423 0.0
H1040 H 1.01486 0.22585 0.64974 0.0
H1041 H 1.00684 0.25692 0.68855 0.0
H1042 H 0.92456 0.23962 0.68517 0.0
H1043 H 0.93255 0.20802 0.64651 0.0
H1044 H 0.97483 0.30086 0.69678 0.0
H1045 H 0.94607 0.21764 0.76717 0.0
H1046 H 0.96138 0.21283 0.73261 0.0
H1047 H 0.92762 0.22203 0.73463 0.0
C1048 C 0.99498 0.22903 0.65685 0.0
C1049 C 0.97439 0.21423 0.64541 0.0
C1050 C 0.99042 0.24681 0.67901 0.0
C1051 C 0.96521 0.25005 0.6902 0.0
C1052 C 0.94424 0.23696 0.67721 0.0
H1053 H 0.9361 0.34268 0.84714 0.0
H1054 H 0.92755 0.31513 0.80501 0.0
C1055 C 0.9488 0.21913 0.65492 0.0
C1056 C 0.96171 0.26541 0.71694 0.0
H1057 H 0.95042 0.25869 0.78911 0.0
C1058 C 0.96906 0.29177 0.71687 0.0
C1059 C 0.95432 0.25339 0.74318 0.0
C1060 C 0.94705 0.22488 0.74466 0.0
C1061 C 0.97006 0.30621 0.74248 0.0
C1062 C 0.96375 0.2939 0.76878 0.0
C1063 C 0.95522 0.26794 0.7688 0.0
C1064 C 0.96826 0.30719 0.79652 0.0
C1065 C 0.97871 0.33433 0.74147 0.0
C1066 C 0.99387 0.31075 0.80627 0.0
C1067 C 0.99881 0.3262 0.83037 0.0
C1068 C 0.9782 0.33842 0.8451 0.0
C1069 C 0.95238 0.33337 0.83642 0.0
C1070 C 0.94745 0.31781 0.81224 0.0
H1071 H 0.97803 0.34236 0.71927 0.0
H1072 H 0.96627 0.34656 0.75566 0.0
H1073 H 0.99908 0.33574 0.7494 0.0
H1074 H 1.01012 0.30242 0.79451 0.0
H1075 H 1.01888 0.32953 0.83665 0.0
H1076 H 0.33664 0.9364 0.64393 0.0
H1077 H 0.30328 0.92712 0.68028 0.0
H1078 H 0.28625 1.00937 0.6868 0.0
H1079 H 0.31931 1.01871 0.65045 0.0
H1080 H 0.30857 0.94757 0.73598 0.0
H1081 H 0.21369 0.97646 0.68894 0.0
H1082 H 0.242 0.96936 0.66709 0.0
H1083 H 0.23834 1.00085 0.68378 0.0
C1084 C 0.32512 0.95239 0.65235 0.0
C1085 C 0.33064 0.9783 0.64451 0.0
C1086 C 0.3062 0.94707 0.67324 0.0
C1087 C 0.29226 0.96754 0.68616 0.0
C1088 C 0.2965 0.99323 0.67682 0.0
H1089 H 0.21895 1.0157 0.83722 0.0
H1090 H 0.24598 1.00686 0.79497 0.0
C1091 C 0.31551 0.99857 0.65617 0.0
C1092 C 0.27598 0.96284 0.71195 0.0
H1093 H 0.21651 0.97711 0.74095 0.0
C1094 C 0.28824 0.95337 0.73693 0.0
C1095 C 0.24951 0.97049 0.71312 0.0
C1096 C 0.23504 0.97961 0.68671 0.0
C1097 C 0.27513 0.95297 0.76346 0.0
C1098 C 0.24923 0.96212 0.76486 0.0
C1099 C 0.2365 0.97021 0.73968 0.0
C1100 C 0.23582 0.96598 0.79261 0.0
C1101 C 0.28934 0.94421 0.79017 0.0
C1102 C 0.22195 0.94561 0.80571 0.0
C1103 C 0.20652 0.95057 0.82997 0.0
C1104 C 0.20471 0.97602 0.84118 0.0
C1105 C 0.21984 0.99596 0.82889 0.0
C1106 C 0.23525 0.99098 0.80479 0.0
H1107 H 0.30923 0.93678 0.78534 0.0
H1108 H 0.29095 0.96082 0.80543 0.0
H1109 H 0.27804 0.9286 0.80108 0.0
H1110 H 0.22225 0.92619 0.79648 0.0
H1111 H 0.19495 0.93487 0.83891 0.0
H1112 H 0.52942 0.21847 0.84187 0.0
H1113 H 0.53641 0.24684 0.80036 0.0
H1114 H 0.61939 0.23443 0.80658 0.0
H1115 H 0.61258 0.20572 0.84822 0.0
H1116 H 0.59704 0.2904 0.79242 0.0
H1117 H 0.56398 0.20843 0.72309 0.0
H1118 H 0.54407 0.21526 0.7541 0.0
H1119 H 0.57679 0.20353 0.75892 0.0
C1120 C 0.54922 0.22219 0.83482 0.0
C1121 C 0.57043 0.20961 0.84806 0.0
C1122 C 0.55315 0.23834 0.81108 0.0
C1123 C 0.57834 0.24223 0.80019 0.0
C1124 C 0.59979 0.23144 0.81466 0.0
H1125 H 0.60992 0.34194 0.64971 0.0
H1126 H 0.61837 0.30982 0.68768 0.0
C1127 C 0.59587 0.21521 0.83854 0.0
C1128 C 0.58165 0.25587 0.77243 0.0
H1129 H 0.5666 0.25025 0.70116 0.0
C1130 C 0.59089 0.28158 0.77232 0.0
C1131 C 0.5736 0.24413 0.74638 0.0
C1132 C 0.56422 0.21623 0.7454 0.0
C1133 C 0.59084 0.29646 0.74692 0.0
C1134 C 0.58176 0.28503 0.72101 0.0
C1135 C 0.57363 0.25891 0.721 0.0
C1136 C 0.57763 0.30076 0.69466 0.0
C1137 C 0.59905 0.32472 0.74836 0.0
C1138 C 0.55211 0.30498 0.6848 0.0
C1139 C 0.5473 0.32295 0.66289 0.0
C1140 C 0.56794 0.3369 0.65035 0.0
C1141 C 0.59368 0.33118 0.65867 0.0
C1142 C 0.5985 0.31316 0.68068 0.0
H1143 H 0.6012 0.33167 0.77089 0.0
H1144 H 0.61812 0.32708 0.73737 0.0
H1145 H 0.58462 0.33734 0.73722 0.0
H1146 H 0.53575 0.29544 0.69515 0.0
H1147 H 0.52728 0.32693 0.65679 0.0
H1148 H 0.22317 0.52996 0.64757 0.0
H1149 H 0.25452 0.53715 0.68633 0.0
H1150 H 0.23893 0.61984 0.68332 0.0
H1151 H 0.207 0.6127 0.64488 0.0
H1152 H 0.29906 0.56734 0.69361 0.0
H1153 H 0.21866 0.60002 0.76577 0.0
H1154 H 0.21261 0.58486 0.73138 0.0
H1155 H 0.22273 0.61839 0.73314 0.0
C1156 C 0.22669 0.54973 0.65486 0.0
C1157 C 0.2124 0.57072 0.64345 0.0
C1158 C 0.24464 0.55382 0.67697 0.0
C1159 C 0.24855 0.57894 0.68817 0.0
C1160 C 0.23574 0.60022 0.6754 0.0
H1161 H 0.34655 0.61314 0.83932 0.0
H1162 H 0.3185 0.6195 0.79707 0.0
C1163 C 0.21772 0.59614 0.65323 0.0
C1164 C 0.2646 0.58223 0.71444 0.0
H1165 H 0.26051 0.59664 0.78618 0.0
C1166 C 0.29073 0.57407 0.71375 0.0
C1167 C 0.25359 0.59084 0.74077 0.0
C1168 C 0.22532 0.59886 0.74305 0.0
C1169 C 0.30597 0.57375 0.73882 0.0
C1170 C 0.29473 0.58165 0.76518 0.0
C1171 C 0.26896 0.59069 0.7658 0.0
C1172 C 0.30902 0.5786 0.79256 0.0
C1173 C 0.33381 0.5643 0.73721 0.0
C1174 C 0.31203 0.55366 0.80445 0.0
C1175 C 0.32784 0.54997 0.82853 0.0
C1176 C 0.34097 0.57118 0.84111 0.0
C1177 C 0.33672 0.59641 0.8301 0.0
C1178 C 0.3208 0.60009 0.80596 0.0
H1179 H 0.34092 0.56304 0.71466 0.0
H1180 H 0.34685 0.57751 0.74953 0.0
H1181 H 0.33516 0.5446 0.74704 0.0
H1182 H 0.3028 0.53691 0.79451 0.0
H1183 H 0.33048 0.53034 0.8367 0.0
H1184 H 0.17572 0.72857 0.1145 0.0
H1185 H 0.2182 0.7504 0.11244 0.0
H1186 H 0.21882 0.74213 0.02007 0.0
H1187 H 0.17589 0.72117 0.02203 0.0
H1188 H 0.26472 0.73492 0.09509 0.0
H1189 H 0.23537 0.81785 0.02569 0.0
H1190 H 0.21187 0.79554 0.04077 0.0
H1191 H 0.23008 0.78675 0.00904 0.0
C1192 C 0.18491 0.73145 0.09375 0.0
C1193 C 0.17237 0.72326 0.06842 0.0
C1194 C 0.20923 0.74397 0.09256 0.0
C1195 C 0.22168 0.74855 0.06603 0.0
C1196 C 0.20943 0.73967 0.04076 0.0
H1197 H 0.373 0.81847 0.02236 0.0
H1198 H 0.3305 0.79645 0.02117 0.0
C1199 C 0.18496 0.72742 0.04191 0.0
C1200 C 0.24764 0.76202 0.0651 0.0
H1201 H 0.28062 0.81369 0.03565 0.0
C1202 C 0.26807 0.75223 0.08219 0.0
C1203 C 0.25233 0.78456 0.04809 0.0
C1204 C 0.23119 0.79695 0.03007 0.0
C1205 C 0.29282 0.76414 0.08272 0.0
C1206 C 0.29737 0.78683 0.06604 0.0
C1207 C 0.27716 0.7964 0.04855 0.0
C1208 C 0.3229 0.80096 0.06668 0.0
C1209 C 0.31406 0.75197 0.10076 0.0
C1210 C 0.33265 0.81141 0.09253 0.0
C1211 C 0.35693 0.82404 0.09325 0.0
C1212 C 0.37195 0.82665 0.0681 0.0
C1213 C 0.36191 0.81677 0.04211 0.0
C1214 C 0.33761 0.80416 0.0414 0.0
H1215 H 0.30985 0.73117 0.10568 0.0
H1216 H 0.33325 0.75314 0.08973 0.0
H1217 H 0.31554 0.76263 0.12148 0.0
H1218 H 0.32149 0.80975 0.11223 0.0
H1219 H 0.36407 0.8315 0.11358 0.0
H1220 H 0.81456 0.17089 0.11492 0.0
H1221 H 0.79359 0.21386 0.11319 0.0
H1222 H 0.80567 0.21672 0.02139 0.0
H1223 H 0.82592 0.17336 0.02296 0.0
H1224 H 0.8106 0.26081 0.09765 0.0
H1225 H 0.72953 0.23351 0.02481 0.0
H1226 H 0.75104 0.20955 0.04044 0.0
H1227 H 0.76107 0.22785 0.00929 0.0
C1228 C 0.81273 0.18069 0.09437 0.0
C1229 C 0.82177 0.16867 0.06906 0.0
C1230 C 0.80072 0.20528 0.09338 0.0
C1231 C 0.79747 0.21848 0.06707 0.0
C1232 C 0.80718 0.20676 0.04186 0.0
H1233 H 0.73296 0.37166 0.02298 0.0
H1234 H 0.75419 0.32873 0.02255 0.0
C1235 C 0.819 0.18204 0.04281 0.0
C1236 C 0.7843 0.24459 0.06628 0.0
H1237 H 0.73396 0.27865 0.03555 0.0
C1238 C 0.79376 0.26461 0.08416 0.0
C1239 C 0.76232 0.24977 0.04861 0.0
C1240 C 0.75022 0.22897 0.02991 0.0
C1241 C 0.78211 0.28951 0.08472 0.0
C1242 C 0.7601 0.29462 0.06719 0.0
C1243 C 0.75078 0.27476 0.04905 0.0
C1244 C 0.74652 0.32044 0.0674 0.0
C1245 C 0.79379 0.31033 0.1037 0.0
C1246 C 0.73464 0.32997 0.0926 0.0
C1247 C 0.72238 0.35449 0.09286 0.0
C1248 C 0.72171 0.36998 0.0679 0.0
C1249 C 0.73318 0.36022 0.04258 0.0
C1250 C 0.74532 0.33566 0.04229 0.0
H1251 H 0.81411 0.3055 0.1101 0.0
H1252 H 0.79379 0.32956 0.09268 0.0
H1253 H 0.78194 0.31215 0.12359 0.0
H1254 H 0.73486 0.31844 0.11212 0.0
H1255 H 0.71369 0.36144 0.11268 0.0
H1256 H 0.36919 0.71127 0.46544 0.0
H1257 H 0.32541 0.73068 0.46728 0.0
H1258 H 0.3321 0.7526 0.37802 0.0
H1259 H 0.3754 0.7325 0.37588 0.0
H1260 H 0.30978 0.77971 0.46022 0.0
H1261 H 0.2613 0.72017 0.37679 0.0
H1262 H 0.29283 0.71172 0.3913 0.0
H1263 H 0.29005 0.73577 0.36318 0.0
C1264 C 0.36115 0.71992 0.44611 0.0
C1265 C 0.37571 0.72011 0.42044 0.0
C1266 C 0.33612 0.73113 0.44721 0.0
C1267 C 0.32502 0.74283 0.42268 0.0
C1268 C 0.33969 0.7431 0.39707 0.0
H1269 H 0.18523 0.83292 0.38221 0.0
H1270 H 0.22772 0.81079 0.38279 0.0
C1271 C 0.3646 0.73172 0.3959 0.0
C1272 C 0.29872 0.75575 0.42418 0.0
H1273 H 0.23912 0.75914 0.39101 0.0
C1274 C 0.2943 0.77503 0.44518 0.0
C1275 C 0.27824 0.7497 0.40476 0.0
C1276 C 0.28071 0.72802 0.38295 0.0
C1277 C 0.27059 0.78901 0.44659 0.0
C1278 C 0.25035 0.78337 0.42674 0.0
C1279 C 0.2546 0.76377 0.40607 0.0
C1280 C 0.22469 0.79755 0.42689 0.0
C1281 C 0.26789 0.81027 0.46883 0.0
C1282 C 0.20854 0.79751 0.45139 0.0
C1283 C 0.18423 0.81023 0.45108 0.0
C1284 C 0.17538 0.82321 0.42624 0.0
C1285 C 0.19151 0.82327 0.40175 0.0
C1286 C 0.21581 0.81052 0.40204 0.0
H1287 H 0.28728 0.81761 0.47575 0.0
H1288 H 0.25631 0.82696 0.46053 0.0
H1289 H 0.25785 0.80228 0.48807 0.0
H1290 H 0.21453 0.78726 0.47066 0.0
H1291 H 0.17221 0.8096 0.47023 0.0
H1292 H 0.8125 0.37388 0.46845 0.0
H1293 H 0.79205 0.3306 0.46922 0.0
H1294 H 0.80884 0.32134 0.37888 0.0
H1295 H 0.82973 0.36438 0.37818 0.0
H1296 H 0.7499 0.31184 0.44022 0.0
H1297 H 0.83674 0.25343 0.41033 0.0
H1298 H 0.839 0.28721 0.42102 0.0
H1299 H 0.82954 0.27877 0.38491 0.0
C1300 C 0.81205 0.36251 0.4488 0.0
C1301 C 0.82296 0.37251 0.4233 0.0
C1302 C 0.80026 0.33776 0.44925 0.0
C1303 C 0.79918 0.32232 0.42423 0.0
C1304 C 0.80993 0.33243 0.39868 0.0
H1305 H 0.73044 0.17227 0.37776 0.0
H1306 H 0.75049 0.21574 0.3786 0.0
C1307 C 0.82177 0.35715 0.39825 0.0
C1308 C 0.78622 0.29606 0.42472 0.0
H1309 H 0.79592 0.23132 0.40955 0.0
C1310 C 0.76006 0.29423 0.43372 0.0
C1311 C 0.79933 0.27291 0.41624 0.0
C1312 C 0.82777 0.27305 0.40785 0.0
C1313 C 0.7466 0.27021 0.43376 0.0
C1314 C 0.75965 0.24716 0.42499 0.0
C1315 C 0.78582 0.24893 0.41618 0.0
C1316 C 0.7465 0.22105 0.42458 0.0
C1317 C 0.71819 0.26978 0.44224 0.0
C1318 C 0.73758 0.20933 0.45013 0.0
C1319 C 0.72614 0.1844 0.44969 0.0
C1320 C 0.72336 0.1706 0.42368 0.0
C1321 C 0.73214 0.18241 0.39812 0.0
C1322 C 0.74368 0.20726 0.39859 0.0
H1323 H 0.70967 0.28971 0.44318 0.0
H1324 H 0.70674 0.25786 0.4268 0.0
H1325 H 0.71617 0.26075 0.46379 0.0
H1326 H 0.73993 0.21926 0.47055 0.0
H1327 H 0.71979 0.17579 0.46978 0.0
H1328 H 0.67687 0.2266 0.97179 0.0
H1329 H 0.71989 0.24754 0.97223 0.0
H1330 H 0.72616 0.23639 0.88054 0.0
H1331 H 0.68298 0.21577 0.87992 0.0
H1332 H 0.7691 0.22942 0.95512 0.0
H1333 H 0.73905 0.31477 0.88963 0.0
H1334 H 0.71579 0.29272 0.9057 0.0
H1335 H 0.7324 0.28382 0.87306 0.0
C1336 C 0.68748 0.22849 0.95174 0.0
C1337 C 0.67649 0.21962 0.92578 0.0
C1338 C 0.71209 0.24046 0.95203 0.0
C1339 C 0.72616 0.24397 0.92637 0.0
C1340 C 0.7155 0.23443 0.90054 0.0
H1341 H 0.87341 0.31657 0.87889 0.0
H1342 H 0.83099 0.29457 0.88049 0.0
C1343 C 0.69089 0.22245 0.90023 0.0
C1344 C 0.75187 0.25767 0.92664 0.0
H1345 H 0.78425 0.31047 0.89927 0.0
C1346 C 0.77239 0.24723 0.94305 0.0
C1347 C 0.75621 0.28094 0.91092 0.0
C1348 C 0.73466 0.29392 0.89403 0.0
C1349 C 0.79724 0.25897 0.94356 0.0
C1350 C 0.80167 0.28215 0.92758 0.0
C1351 C 0.78103 0.29268 0.9114 0.0
C1352 C 0.82758 0.29561 0.92691 0.0
C1353 C 0.81866 0.24591 0.96058 0.0
C1354 C 0.83977 0.30404 0.95239 0.0
C1355 C 0.86414 0.31649 0.95149 0.0
C1356 C 0.87669 0.32115 0.92508 0.0
C1357 C 0.86424 0.31328 0.89957 0.0
C1358 C 0.83997 0.30067 0.90048 0.0
H1359 H 0.81445 0.22491 0.96427 0.0
H1360 H 0.83776 0.24759 0.94947 0.0
H1361 H 0.82026 0.25546 0.98194 0.0
H1362 H 0.8304 0.30111 0.97302 0.0
H1363 H 0.87317 0.32245 0.97151 0.0
H1364 H 0.33281 0.68475 0.87681 0.0
H1365 H 0.31038 0.72712 0.87788 0.0
H1366 H 0.29247 0.71591 0.96767 0.0
H1367 H 0.31487 0.67362 0.96671 0.0
H1368 H 0.25731 0.73658 0.8924 0.0
H1369 H 0.32413 0.78974 0.96578 0.0
H1370 H 0.33298 0.75917 0.9491 0.0
H1371 H 0.31175 0.75956 0.9799 0.0
C1372 C 0.32431 0.69145 0.89683 0.0
C1373 C 0.32573 0.6759 0.92171 0.0
C1374 C 0.31143 0.71564 0.89741 0.0
C1375 C 0.29995 0.72492 0.92294 0.0
C1376 C 0.30152 0.70945 0.94784 0.0
H1377 H 0.21668 0.86915 0.96632 0.0
H1378 H 0.23762 0.82611 0.96734 0.0
C1379 C 0.31426 0.68521 0.94723 0.0
C1380 C 0.2855 0.75025 0.92318 0.0
H1381 H 0.28489 0.81127 0.95305 0.0
C1382 C 0.26341 0.75296 0.90556 0.0
C1383 C 0.29317 0.77153 0.94068 0.0
C1384 C 0.31692 0.77003 0.95979 0.0
C1385 C 0.2487 0.77619 0.90509 0.0
C1386 C 0.25674 0.79778 0.92201 0.0
C1387 C 0.27869 0.79491 0.93992 0.0
C1388 C 0.24296 0.82357 0.9212 0.0
C1389 C 0.22425 0.77699 0.88703 0.0
C1390 C 0.23895 0.83675 0.89499 0.0
C1391 C 0.22661 0.86119 0.89436 0.0
C1392 C 0.21845 0.87329 0.91997 0.0
C1393 C 0.22261 0.86027 0.9462 0.0
C1394 C 0.23468 0.83567 0.9468 0.0
H1395 H 0.2162 0.75711 0.88355 0.0
H1396 H 0.20893 0.78925 0.89718 0.0
H1397 H 0.22896 0.78529 0.8656 0.0
H1398 H 0.24582 0.82838 0.87498 0.0
H1399 H 0.22402 0.8709 0.87385 0.0
H1400 H 0.87021 0.23039 0.52458 0.0
H1401 H 0.82744 0.25199 0.52461 0.0
H1402 H 0.82066 0.23853 0.61587 0.0
H1403 H 0.86349 0.2171 0.61596 0.0
H1404 H 0.77805 0.23387 0.54062 0.0
H1405 H 0.80749 0.31706 0.60966 0.0
H1406 H 0.83091 0.29546 0.59303 0.0
H1407 H 0.814 0.28561 0.62514 0.0
C1408 C 0.85957 0.23197 0.54464 0.0
C1409 C 0.8703 0.22208 0.57029 0.0
C1410 C 0.83509 0.24434 0.54463 0.0
C1411 C 0.82088 0.24736 0.57032 0.0
C1412 C 0.83138 0.23699 0.59586 0.0
H1413 H 0.6721 0.31766 0.61874 0.0
H1414 H 0.71495 0.2964 0.61698 0.0
C1415 C 0.85581 0.22454 0.59585 0.0
C1416 C 0.79509 0.26116 0.57034 0.0
H1417 H 0.76233 0.31312 0.59946 0.0
C1418 C 0.77465 0.25127 0.55339 0.0
C1419 C 0.79054 0.28393 0.58693 0.0
C1420 C 0.81193 0.29634 0.60453 0.0
C1421 C 0.74974 0.26301 0.55319 0.0
C1422 C 0.74513 0.28574 0.56991 0.0
C1423 C 0.76567 0.29572 0.58667 0.0
C1424 C 0.71912 0.29921 0.57074 0.0
C1425 C 0.72839 0.25043 0.5357 0.0
C1426 C 0.70718 0.3085 0.54545 0.0
C1427 C 0.68258 0.32062 0.54643 0.0
C1428 C 0.66945 0.32402 0.57275 0.0
C1429 C 0.68168 0.31536 0.59811 0.0
C1430 C 0.70621 0.30316 0.59711 0.0
H1431 H 0.73292 0.22973 0.5306 0.0
H1432 H 0.70942 0.25124 0.5472 0.0
H1433 H 0.72629 0.26108 0.51507 0.0
H1434 H 0.71689 0.30643 0.52488 0.0
H1435 H 0.67376 0.32716 0.52652 0.0
H1436 H 0.30782 0.88149 0.52282 0.0
H1437 H 0.28583 0.83901 0.52183 0.0
H1438 H 0.31003 0.82461 0.60917 0.0
H1439 H 0.33159 0.86736 0.61051 0.0
H1440 H 0.30647 0.78838 0.53023 0.0
H1441 H 0.23106 0.81125 0.61197 0.0
H1442 H 0.25037 0.83617 0.59467 0.0
H1443 H 0.26388 0.81731 0.62368 0.0
C1444 C 0.30853 0.86924 0.5418 0.0
C1445 C 0.32147 0.87782 0.56676 0.0
C1446 C 0.29598 0.8449 0.54116 0.0
C1447 C 0.29601 0.82856 0.56545 0.0
C1448 C 0.30929 0.83695 0.59027 0.0
H1449 H 0.23005 0.67773 0.61184 0.0
H1450 H 0.25074 0.72079 0.61 0.0
C1451 C 0.32179 0.86134 0.59096 0.0
C1452 C 0.28242 0.80269 0.56472 0.0
H1453 H 0.23433 0.76707 0.59731 0.0
C1454 C 0.29064 0.78372 0.54485 0.0
C1455 C 0.26164 0.79657 0.58363 0.0
C1456 C 0.25099 0.81644 0.60453 0.0
C1457 C 0.27943 0.75857 0.5441 0.0
C1458 C 0.25874 0.75229 0.56325 0.0
C1459 C 0.25023 0.77155 0.58274 0.0
C1460 C 0.24598 0.72586 0.56402 0.0
C1461 C 0.2907 0.73882 0.52345 0.0
C1462 C 0.23584 0.71418 0.53896 0.0
C1463 C 0.22436 0.68929 0.53996 0.0
C1464 C 0.22208 0.67571 0.56615 0.0
C1465 C 0.23146 0.68767 0.59133 0.0
C1466 C 0.24332 0.71235 0.59026 0.0
H1467 H 0.31118 0.74365 0.51771 0.0
H1468 H 0.29032 0.71882 0.53263 0.0
H1469 H 0.27912 0.73896 0.50327 0.0
H1470 H 0.2367 0.72432 0.51856 0.0
H1471 H 0.21714 0.68071 0.52021 0.0
H1472 H 0.94794 0.43724 0.96531 0.0
H1473 H 0.96148 0.48004 0.98451 0.0
H1474 H 0.0418 0.46101 0.96676 0.0
H1475 H 0.02845 0.41867 0.94762 0.0
H1476 H 0.99821 0.49182 0.03028 0.0
H1477 H 0.02883 0.53208 0.92524 0.0
H1478 H 1.01051 0.50214 0.92826 0.0
H1479 H 0.04531 0.50216 0.93346 0.0
C1480 C 0.96844 0.44234 0.96542 0.0
C1481 C 0.98712 0.425 0.95419 0.0
C1482 C 0.97615 0.46672 0.97638 0.0
C1483 C 1.00263 0.47396 0.97636 0.0
C1484 C 1.02124 0.45618 0.96618 0.0
H1485 H 0.09675 0.60855 0.02663 0.0
H1486 H 0.08109 0.566 0.00888 0.0
C1487 C 1.01357 0.43203 0.95515 0.0
C1488 C 1.01122 0.49988 0.98718 0.0
H1489 H 0.04384 0.55511 0.96707 0.0
C1490 C 1.00797 0.50578 0.01645 0.0
C1491 C 0.02405 0.51804 0.9691 0.0
C1492 C 0.02714 0.5134 0.93722 0.0
C1493 C 1.01784 0.52905 0.0283 0.0
C1494 C 0.03102 0.54705 0.01027 0.0
C1495 C 0.03402 0.54122 0.98095 0.0
C1496 C 0.04084 0.57254 0.02115 0.0
C1497 C 1.0146 0.53382 0.06016 0.0
C1498 C 0.02339 0.59053 0.03325 0.0
C1499 C 0.03228 0.61459 0.04327 0.0
C1500 C 0.0588 0.62136 0.04145 0.0
C1501 C 0.07626 0.60373 0.02859 0.0
C1502 C 0.06732 0.57946 0.01852 0.0
H1503 H 1.0113 0.51534 0.07211 0.0
H1504 H 0.03195 0.54375 0.06933 0.0
H1505 H 0.99735 0.54653 0.0637 0.0
H1506 H 1.00276 0.58612 0.03463 0.0
H1507 H 1.01822 0.62821 0.05197 0.0
H1508 H 0.11122 0.95032 0.97196 0.0
H1509 H 0.06851 0.96375 0.99131 0.0
H1510 H 0.07798 0.03967 0.95272 0.0
H1511 H 0.11981 0.02623 0.93327 0.0
H1512 H 0.05667 1.00671 0.02847 0.0
H1513 H 1.00626 1.01693 0.92344 0.0
H1514 H 0.03627 0.99884 0.92763 0.0
H1515 H 0.03686 0.03387 0.92531 0.0
C1516 C 0.10404 0.96978 0.96746 0.0
C1517 C 0.11885 0.9872 0.95073 0.0
C1518 C 0.0797 0.97744 0.97856 0.0
C1519 C 0.06984 1.00257 0.97298 0.0
C1520 C 0.08485 1.02 0.95679 0.0
H1521 H 0.93027 0.09175 0.02024 0.0
H1522 H 0.97325 0.07841 0.00149 0.0
C1523 C 0.10898 1.01237 0.94584 0.0
C1524 C 0.04421 1.01116 0.98452 0.0
H1525 H 0.98482 0.03526 0.96414 0.0
C1526 C 0.04087 1.01275 0.01444 0.0
C1527 C 0.02372 1.01927 0.96614 0.0
C1528 C 0.02578 1.01696 0.93385 0.0
C1529 C 1.01774 0.02267 0.02648 0.0
C1530 C 0.99729 0.03087 0.00808 0.0
C1531 C 1.00062 0.02925 0.97818 0.0
C1532 C 0.97166 0.03948 0.01952 0.0
C1533 C 1.01553 0.02468 0.0588 0.0
C1534 C 0.95642 1.02193 0.03531 0.0
C1535 C 0.93211 0.02947 0.04583 0.0
C1536 C 0.92235 0.05471 0.04097 0.0
C1537 C 0.93738 0.07225 0.02467 0.0
C1538 C 0.96188 0.06465 0.01396 0.0
H1539 H 0.035 0.02474 0.06928 0.0
H1540 H 1.00486 0.04264 0.06523 0.0
H1541 H 1.00454 1.0076 0.06707 0.0
H1542 H 0.96321 1.00222 0.03926 0.0
H1543 H 0.92093 1.0154 0.05783 0.0
H1544 H 0.5993 0.11123 0.97116 0.0
H1545 H 0.58417 0.06904 0.99066 0.0
H1546 H 0.50523 0.08847 0.96713 0.0
H1547 H 0.52011 0.1303 0.94788 0.0
H1548 H 0.53847 0.06107 0.03467 0.0
H1549 H 0.52782 1.01413 0.92787 0.0
H1550 H 0.54555 0.04423 0.93297 0.0
H1551 H 0.51052 0.04442 0.93125 0.0
C1552 C 0.57875 0.1064 0.97018 0.0
C1553 C 0.56092 0.12364 0.95727 0.0
C1554 C 0.57015 0.08237 0.98127 0.0
C1555 C 0.54364 0.07544 0.97969 0.0
C1556 C 0.52582 0.09313 0.96784 0.0
H1557 H 0.45038 0.93695 0.02134 0.0
H1558 H 0.46509 0.97989 0.00373 0.0
C1559 C 0.53437 0.11694 0.95674 0.0
C1560 C 0.53419 0.04984 0.99034 0.0
H1561 H 0.50856 0.99176 0.96773 0.0
C1562 C 0.53214 0.0458 0.02009 0.0
C1563 C 0.52559 0.03014 0.97122 0.0
C1564 C 0.52768 0.03331 0.93904 0.0
C1565 C 0.52144 0.02265 0.03125 0.0
C1566 C 0.51297 1.00284 0.01214 0.0
C1567 C 0.51493 1.00697 0.98236 0.0
C1568 C 0.50356 0.97711 0.02271 0.0
C1569 C 0.51874 1.01981 0.06343 0.0
C1570 C 0.52039 0.96116 0.03864 0.0
C1571 C 0.51206 0.93689 0.04856 0.0
C1572 C 0.48672 0.9278 0.04291 0.0
C1573 C 0.46993 0.94351 0.02639 0.0
C1574 C 0.47832 0.968 0.01632 0.0
H1575 H 0.51915 0.03904 0.07448 0.0
H1576 H 0.50027 1.00971 0.06907 0.0
H1577 H 0.53522 1.00799 0.0718 0.0
H1578 H 0.54015 0.96738 0.04322 0.0
H1579 H 0.52559 0.92518 0.06069 0.0
H1580 H 0.60583 0.44576 0.0285 0.0
H1581 H 0.56443 0.46215 0.00837 0.0
H1582 H 0.59111 0.54126 0.02007 0.0
H1583 H 0.63208 0.52502 0.04003 0.0
H1584 H 0.52774 0.49447 0.03551 0.0
H1585 H 0.566 0.54245 0.93735 0.0
H1586 H 0.585 0.51946 0.95801 0.0
H1587 H 0.58211 0.55284 0.96965 0.0
C1588 C 0.60278 0.46661 0.0266 0.0
C1589 C 0.62189 0.48418 0.03622 0.0
C1590 C 0.57919 0.47596 0.01515 0.0
C1591 C 0.57472 0.50297 0.0125 0.0
C1592 C 0.59415 0.52038 0.02152 0.0
H1593 H 0.44224 0.60113 0.96173 0.0
H1594 H 0.48425 0.585 0.98062 0.0
C1595 C 0.61743 0.51108 0.03328 0.0
C1596 C 0.54939 0.51319 0.00163 0.0
H1597 H 0.52226 0.55291 0.95058 0.0
C1598 C 0.52652 0.50706 0.0168 0.0
C1599 C 0.54782 0.52987 0.97737 0.0
C1600 C 0.57151 0.53637 0.95948 0.0
C1601 C 0.50222 0.51744 0.00864 0.0
C1602 C 0.50067 0.53414 0.98444 0.0
C1603 C 0.52352 0.54031 0.96928 0.0
C1604 C 0.4753 0.5442 0.97361 0.0
C1605 C 0.47844 0.51077 0.0263 0.0
C1606 C 0.45651 0.52668 0.96332 0.0
C1607 C 0.43281 0.53583 0.9525 0.0
C1608 C 0.42737 0.56269 0.95154 0.0
C1609 C 0.446 0.58033 0.96214 0.0
C1610 C 0.46995 0.57114 0.97284 0.0
H1611 H 0.4838 0.50376 0.04814 0.0
H1612 H 0.46534 0.52793 0.02849 0.0
H1613 H 0.46741 0.49499 0.01538 0.0
H1614 H 0.46027 0.50587 0.9634 0.0
H1615 H 0.41854 0.5218 0.94512 0.0
H1616 H 1.01976 0.11769 0.56802 0.0
H1617 H 0.0346 0.07651 0.54816 0.0
H1618 H 0.96533 0.07251 0.49576 0.0
H1619 H 0.95054 0.11454 0.51562 0.0
H1620 H 1.01143 0.02757 0.54913 0.0
H1621 H 0.02482 0.06321 0.43712 0.0
H1622 H 1.02041 0.08507 0.4672 0.0
H1623 H 0.9929 0.06819 0.45218 0.0
C1624 C 1.00764 0.10822 0.55234 0.0
C1625 C 0.98403 0.1196 0.54353 0.0
C1626 C 1.01613 0.08449 0.541 0.0
C1627 C 1.00129 0.07148 0.5202 0.0
C1628 C 0.97735 0.08241 0.51149 0.0
H1629 H 0.02675 0.92918 0.42518 0.0
H1630 H 1.01119 0.97002 0.44516 0.0
C1631 C 0.96882 0.10633 0.52301 0.0
C1632 C 1.0113 0.04661 0.50784 0.0
H1633 H 0.03306 1.01853 0.44559 0.0
C1634 C 1.01614 0.02556 0.52648 0.0
C1635 C 1.01764 0.04409 0.47834 0.0
C1636 C 1.01392 0.06636 0.4575 0.0
C1637 C 0.02673 1.00194 0.51636 0.0
C1638 C 0.03318 0.99945 0.48687 0.0
C1639 C 0.02828 1.02049 0.46823 0.0
C1640 C 0.04355 0.97469 0.47454 0.0
C1641 C 0.03031 0.97966 0.53722 0.0
C1642 C 0.06721 0.96366 0.48397 0.0
C1643 C 0.07613 0.9399 0.47242 0.0
C1644 C 0.06164 0.92691 0.45107 0.0
C1645 C 0.03835 0.93842 0.44147 0.0
C1646 C 0.02944 0.96196 0.45291 0.0
H1647 H 1.0188 0.98257 0.55724 0.0
H1648 H 0.02444 0.96085 0.5273 0.0
H1649 H 0.0512 0.97825 0.54328 0.0
H1650 H 0.07875 0.97337 0.50028 0.0
H1651 H 0.09418 0.93162 0.48039 0.0
H1652 H 0.4287 0.02517 0.57014 0.0
H1653 H 0.4706 0.03919 0.55144 0.0
H1654 H 0.47296 0.97162 0.49622 0.0
H1655 H 0.43065 0.9572 0.51555 0.0
H1656 H 0.52046 0.98158 0.52393 0.0
H1657 H 0.48315 0.07224 0.47339 0.0
H1658 H 0.47533 0.0696 0.51091 0.0
H1659 H 0.46181 0.04659 0.48577 0.0
C1660 C 0.43799 1.0132 0.55412 0.0
C1661 C 0.42615 0.99008 0.54449 0.0
C1662 C 0.46201 1.02138 0.54322 0.0
C1663 C 0.47477 1.00682 0.52192 0.0
C1664 C 0.46338 0.98333 0.5125 0.0
H1665 H 0.61909 1.02205 0.42767 0.0
H1666 H 0.57754 1.00907 0.44797 0.0
C1667 C 0.43921 0.97509 0.52359 0.0
C1668 C 0.50014 1.01609 0.51 0.0
H1669 H 0.52926 0.06767 0.47596 0.0
C1670 C 0.52234 1.00033 0.51329 0.0
C1671 C 0.5027 0.04071 0.49634 0.0
C1672 C 0.47945 0.05818 0.49113 0.0
C1673 C 0.54702 1.00859 0.50367 0.0
C1674 C 0.54956 0.03313 0.48985 0.0
C1675 C 0.52739 0.04897 0.4867 0.0
C1676 C 0.57474 0.04191 0.47704 0.0
C1677 C 0.57026 0.9911 0.50888 0.0
C1678 C 0.58679 0.06533 0.48567 0.0
C1679 C 0.61079 0.073 0.47362 0.0
C1680 C 0.62298 0.05748 0.45253 0.0
C1681 C 0.61048 0.03443 0.44376 0.0
C1682 C 0.58666 0.02684 0.4556 0.0
H1683 H 0.56672 0.97744 0.52703 0.0
H1684 H 0.57398 0.97924 0.48932 0.0
H1685 H 0.58805 1.00268 0.51362 0.0
H1686 H 0.57784 0.07744 0.50204 0.0
H1687 H 0.61989 0.09085 0.48101 0.0
H1688 H 0.52008 0.42852 0.56744 0.0
H1689 H 0.50733 0.47002 0.54652 0.0
H1690 H 0.57856 0.47133 0.49716 0.0
H1691 H 0.59133 0.42908 0.51813 0.0
H1692 H 0.53152 0.51784 0.54859 0.0
H1693 H 0.5225 0.48314 0.43575 0.0
H1694 H 0.52519 0.46102 0.46583 0.0
H1695 H 0.55367 0.47731 0.45223 0.0
C1696 C 0.53313 0.43754 0.55226 0.0
C1697 C 0.55675 0.42542 0.54466 0.0
C1698 C 0.52579 0.46138 0.54026 0.0
C1699 C 0.5418 0.47375 0.52001 0.0
C1700 C 0.56565 0.46195 0.51241 0.0
H1701 H 0.52658 0.61771 0.42514 0.0
H1702 H 0.53969 0.57624 0.44588 0.0
C1703 C 0.57302 0.4379 0.52455 0.0
C1704 C 0.53319 0.49899 0.50722 0.0
H1705 H 0.51587 0.5282 0.44393 0.0
C1706 C 0.52809 0.52011 0.5257 0.0
C1707 C 0.52853 0.50189 0.47738 0.0
C1708 C 0.53251 0.47961 0.4566 0.0
C1709 C 0.51888 0.54414 0.51513 0.0
C1710 C 0.51418 0.54704 0.4853 0.0
C1711 C 0.51933 0.52593 0.46682 0.0
C1712 C 0.50537 0.57222 0.47256 0.0
C1713 C 0.5149 0.56642 0.53593 0.0
C1714 C 0.48146 0.58383 0.48029 0.0
C1715 C 0.47388 0.60786 0.46827 0.0
C1716 C 0.48999 0.62052 0.44814 0.0
C1717 C 0.51366 0.60858 0.44037 0.0
C1718 C 0.5212 0.58474 0.45226 0.0
H1719 H 0.52503 0.56295 0.55671 0.0
H1720 H 0.52207 0.58505 0.52664 0.0
H1721 H 0.49375 0.56861 0.54043 0.0
H1722 H 0.46867 0.57433 0.49558 0.0
H1723 H 0.45554 0.61653 0.47481 0.0
H1724 H 0.10845 0.59918 0.52467 0.0
H1725 H 0.06595 0.58373 0.5066 0.0
H1726 H 0.08515 0.50545 0.5334 0.0
H1727 H 0.12717 0.52074 0.55109 0.0
H1728 H 0.05464 0.5469 0.46512 0.0
H1729 H 1.01414 0.51395 0.56951 0.0
H1730 H 0.04271 0.53439 0.56714 0.0
H1731 H 0.04528 0.49974 0.5615 0.0
C1732 C 0.10342 0.57876 0.52687 0.0
C1733 C 0.12081 0.56129 0.54014 0.0
C1734 C 0.07916 0.56992 0.51657 0.0
C1735 C 0.07195 0.5435 0.51934 0.0
C1736 C 0.0897 0.52605 0.5319 0.0
H1737 H 0.93739 0.44811 0.46771 0.0
H1738 H 0.9797 0.46353 0.48637 0.0
C1739 C 0.11374 0.53485 0.54216 0.0
C1740 C 0.04645 0.53374 0.50814 0.0
H1741 H 0.99142 0.50018 0.5274 0.0
C1742 C 0.04073 0.53688 0.4788 0.0
C1743 C 0.02835 0.52036 0.52588 0.0
C1744 C 0.03277 0.5171 0.5578 0.0
C1745 C 1.01774 0.52668 0.46662 0.0
C1746 C 0.99959 0.51338 0.48436 0.0
C1747 C 1.00532 0.5102 0.51372 0.0
C1748 C 0.97407 0.50368 0.47311 0.0
C1749 C 1.01345 0.52982 0.43466 0.0
C1750 C 0.95656 0.52109 0.46007 0.0
C1751 C 0.93267 0.5123 0.44937 0.0
C1752 C 0.92546 0.48591 0.45155 0.0
C1753 C 0.94254 0.4685 0.4654 0.0
C1754 C 0.96668 0.47732 0.47605 0.0
H1755 H 0.03217 0.53265 0.42301 0.0
H1756 H 1.00331 0.51262 0.42538 0.0
H1757 H 1.00123 0.54735 0.43084 0.0
H1758 H 0.96122 0.54165 0.45842 0.0
H1759 H 0.91951 0.52637 0.43986 0.0
H1760 H 0.99284 0.50758 0.35781 0.0
H1761 H 0.02302 0.51244 0.31737 0.0
H1762 H 0.97575 0.46008 0.26672 0.0
H1763 H 0.9444 0.45708 0.30636 0.0
H1764 H 0.05298 0.48765 0.27908 0.0
H1765 H 0.96484 0.52608 0.22359 0.0
H1766 H 0.96446 0.51683 0.2609 0.0
H1767 H 0.96239 0.49232 0.23317 0.0
C1768 C 0.98943 0.49639 0.33839 0.0
C1769 C 0.96625 0.4822 0.33494 0.0
C1770 C 1.00665 0.49923 0.31521 0.0
C1771 C 1.00111 0.48745 0.28856 0.0
C1772 C 0.9799 0.47017 0.28667 0.0
H1773 H 0.04969 0.5505 0.12283 0.0
H1774 H 0.04275 0.51487 0.15725 0.0
C1775 C 0.96219 0.46814 0.30944 0.0
C1776 C 1.01484 0.49651 0.26214 0.0
H1777 H 1.00413 0.52858 0.19878 0.0
C1778 C 0.04228 0.49626 0.26133 0.0
C1779 C 1.00093 0.50808 0.239 0.0
C1780 C 0.97158 0.51112 0.23923 0.0
C1781 C 0.05608 0.50793 0.2385 0.0
C1782 C 0.0421 0.51989 0.21587 0.0
C1783 C 1.01478 0.51897 0.21595 0.0
C1784 C 0.05459 0.53733 0.19446 0.0
C1785 C 0.08547 0.50809 0.23913 0.0
C1786 C 0.06463 0.56134 0.20381 0.0
C1787 C 0.06822 0.58173 0.18429 0.0
C1788 C 0.0621 0.57834 0.15509 0.0
C1789 C 0.05487 0.55349 0.14519 0.0
C1790 C 0.05083 0.53315 0.16485 0.0
H1791 H 0.09327 0.49206 0.25274 0.0
H1792 H 0.09363 0.50623 0.21708 0.0
H1793 H 0.09227 0.5269 0.2483 0.0
H1794 H 0.06718 0.5652 0.22656 0.0
H1795 H 0.07365 0.60079 0.19243 0.0
H1796 H 0.05249 0.99347 0.36216 0.0
H1797 H 0.04743 0.02838 0.32635 0.0
H1798 H 0.05826 0.97234 0.25813 0.0
H1799 H 0.0635 0.93763 0.29361 0.0
H1800 H 0.07778 0.02547 0.24569 0.0
H1801 H 0.97527 1.02088 0.28585 0.0
H1802 H 1.00046 0.02835 0.31144 0.0
H1803 H 0.9991 0.9965 0.2954 0.0
C1804 C 0.05478 0.98884 0.33956 0.0
C1805 C 0.05795 0.96285 0.33056 0.0
C1806 C 0.05182 1.00875 0.31914 0.0
C1807 C 0.05204 1.00282 0.28961 0.0
C1808 C 0.05801 0.97733 0.28079 0.0
H1809 H 0.99226 0.03051 0.12717 0.0
H1810 H 0.02395 0.02688 0.16603 0.0
C1811 C 0.06088 0.95749 0.3011 0.0
C1812 C 0.04125 1.02125 0.26811 0.0
H1813 H 0.98265 0.04276 0.24305 0.0
C1814 C 0.05707 0.02986 0.24534 0.0
C1815 C 1.01425 0.02693 0.26772 0.0
C1816 C 0.99613 1.01764 0.29125 0.0
C1817 C 0.04636 0.04312 0.22158 0.0
C1818 C 1.01904 0.04716 0.22027 0.0
C1819 C 1.00359 0.03986 0.24393 0.0
C1820 C 1.00521 0.05547 0.1936 0.0
C1821 C 0.06439 0.05221 0.19801 0.0
C1822 C 0.98452 0.07344 0.19539 0.0
C1823 C 0.96587 0.07482 0.17352 0.0
C1824 C 0.968 0.05879 0.14916 0.0
C1825 C 0.99036 0.04329 0.14563 0.0
C1826 C 1.00864 0.04133 0.16789 0.0
H1827 H 0.08363 0.058 0.20699 0.0
H1828 H 0.06787 0.03589 0.18278 0.0
H1829 H 0.0561 0.06899 0.18596 0.0
H1830 H 0.98145 0.08467 0.21486 0.0
H1831 H 0.94875 0.0869 0.17669 0.0
H1832 H 0.55474 0.03279 0.35716 0.0
H1833 H 0.52449 0.03043 0.31651 0.0
H1834 H 0.57109 0.08656 0.27023 0.0
H1835 H 0.60235 0.08747 0.31007 0.0
H1836 H 0.49427 0.0588 0.28006 0.0
H1837 H 0.58252 0.02252 0.22272 0.0
H1838 H 0.58264 0.02941 0.26066 0.0
H1839 H 0.58489 0.0556 0.23494 0.0
C1840 C 0.55801 0.04528 0.3387 0.0
C1841 C 0.58099 0.05999 0.33641 0.0
C1842 C 0.54073 0.04391 0.31544 0.0
C1843 C 0.54604 0.05761 0.28989 0.0
C1844 C 0.5671 0.07513 0.28932 0.0
H1845 H 0.50049 0.99826 0.12235 0.0
H1846 H 0.5073 0.03368 0.15693 0.0
C1847 C 0.5848 0.07586 0.31217 0.0
C1848 C 0.53238 0.05017 0.26289 0.0
H1849 H 0.54317 1.02044 0.19823 0.0
C1850 C 0.50496 0.0508 0.26195 0.0
C1851 C 0.54631 0.03951 0.23926 0.0
C1852 C 0.57566 0.03645 0.23942 0.0
C1853 C 0.49116 0.04023 0.23851 0.0
C1854 C 0.50515 0.02881 0.2155 0.0
C1855 C 0.53248 0.02955 0.21572 0.0
C1856 C 0.49264 1.012 0.19349 0.0
C1857 C 0.46177 0.04068 0.23892 0.0
C1858 C 0.48089 0.98858 0.20225 0.0
C1859 C 0.47715 0.96833 0.18257 0.0
C1860 C 0.4851 0.9712 0.15383 0.0
C1861 C 0.49407 0.99561 0.14435 0.0
C1862 C 0.498 1.01585 0.16412 0.0
H1863 H 0.45432 0.05733 0.25186 0.0
H1864 H 0.45366 0.04199 0.21681 0.0
H1865 H 0.45453 1.02241 0.24895 0.0
H1866 H 0.47705 0.98491 0.22481 0.0
H1867 H 0.47019 0.94968 0.19041 0.0
H1868 H 0.45702 0.59644 0.30731 0.0
H1869 H 0.45866 0.56441 0.26837 0.0
H1870 H 0.5143 0.51904 0.31703 0.0
H1871 H 0.51119 0.55009 0.3566 0.0
H1872 H 0.50028 0.56177 0.24024 0.0
H1873 H 0.48155 0.46106 0.275 0.0
H1874 H 0.47141 0.48871 0.29636 0.0
H1875 H 0.50402 0.47567 0.29965 0.0
C1876 C 0.46846 0.57885 0.31023 0.0
C1877 C 0.48399 0.57567 0.33483 0.0
C1878 C 0.46953 0.56059 0.28792 0.0
C1879 C 0.4867 0.53921 0.2895 0.0
C1880 C 0.5004 0.53487 0.31531 0.0
H1881 H 0.60476 0.48074 0.19238 0.0
H1882 H 0.56905 0.48579 0.22665 0.0
C1883 C 0.49873 0.55277 0.33799 0.0
C1884 C 0.49468 0.52535 0.26268 0.0
H1885 H 0.51509 0.4662 0.23706 0.0
C1886 C 0.50259 0.54075 0.23921 0.0
C1887 C 0.4979 0.49792 0.26112 0.0
C1888 C 0.48796 0.47995 0.28434 0.0
C1889 C 0.51549 0.52987 0.21549 0.0
C1890 C 0.52056 0.50274 0.21502 0.0
C1891 C 0.51119 0.487 0.23748 0.0
C1892 C 0.53946 0.49174 0.19414 0.0
C1893 C 0.52548 0.54785 0.19219 0.0
C1894 C 0.53434 0.49181 0.16442 0.0
C1895 C 0.55483 0.4888 0.14468 0.0
C1896 C 0.58055 0.48586 0.1546 0.0
C1897 C 0.58509 0.4831 0.18423 0.0
C1898 C 0.56468 0.48589 0.20383 0.0
H1899 H 0.52214 0.56877 0.19734 0.0
H1900 H 0.54672 0.5448 0.18882 0.0
H1901 H 0.5154 0.54342 0.17164 0.0
H1902 H 0.51494 0.49619 0.15654 0.0
H1903 H 0.55088 0.4911 0.12192 0.0
H1904 H 0.10728 0.56936 0.69595 0.0
H1905 H 0.07264 0.56282 0.73125 0.0
H1906 H 1.01773 0.54872 0.66273 0.0
H1907 H 0.05255 0.55533 0.62712 0.0
H1908 H 1.01715 0.57891 0.74287 0.0
H1909 H 0.03167 0.47689 0.7039 0.0
H1910 H 0.05418 0.50264 0.69492 0.0
H1911 H 0.02278 0.50133 0.67793 0.0
C1912 C 0.08757 0.56599 0.68837 0.0
C1913 C 0.08257 0.5626 0.6589 0.0
C1914 C 0.06778 0.56231 0.70856 0.0
C1915 C 0.04274 0.55493 0.69962 0.0
C1916 C 0.03699 0.55434 0.67004 0.0
H1917 H 0.963 0.44612 0.81052 0.0
H1918 H 0.96558 0.47826 0.77179 0.0
C1919 C 0.05684 0.55825 0.64972 0.0
C1920 C 0.02507 0.54273 0.72098 0.0
H1921 H 1.00843 0.48261 0.74621 0.0
C1922 C 1.01463 0.5579 0.74337 0.0
C1923 C 1.02193 0.51532 0.7216 0.0
C1924 C 0.03328 0.49794 0.69847 0.0
C1925 C 1.00178 0.54623 0.76688 0.0
C1926 C 1.00011 0.51866 0.76839 0.0
C1927 C 1.00948 0.50372 0.74518 0.0
C1928 C 0.99157 0.50432 0.79469 0.0
C1929 C 0.99047 0.5636 0.7899 0.0
C1930 C 1.00377 0.50904 0.82133 0.0
C1931 C 1.00143 0.49108 0.84392 0.0
C1932 C 0.98754 0.46781 0.83983 0.0
C1933 C 0.97363 0.46409 0.81419 0.0
C1934 C 0.97527 0.48239 0.79199 0.0
H1935 H 0.98363 0.58237 0.78059 0.0
H1936 H 0.9739 0.55412 0.80118 0.0
H1937 H 1.00586 0.56825 0.80589 0.0
H1938 H 1.01701 0.52532 0.82393 0.0
H1939 H 1.01276 0.49407 0.86333 0.0
H1940 H 1.00561 0.05542 0.63906 0.0
H1941 H 1.00701 0.02539 0.67972 0.0
H1942 H 0.95762 0.07741 0.72856 0.0
H1943 H 0.95782 0.1083 0.68847 0.0
H1944 H 0.9998 0.07156 0.75501 0.0
H1945 H 0.96994 0.97222 0.72517 0.0
H1946 H 0.99289 0.98379 0.69912 0.0
H1947 H 0.96186 1.00011 0.70312 0.0
C1948 C 0.99418 0.05989 0.65805 0.0
C1949 C 0.98181 0.08418 0.66086 0.0
C1950 C 0.9948 0.04257 0.68132 0.0
C1951 C 0.98236 0.04898 0.70739 0.0
C1952 C 0.96746 0.072 0.7088 0.0
H1953 H 0.04793 1.00228 0.87383 0.0
H1954 H 1.01109 1.00861 0.84083 0.0
C1955 C 0.96751 0.08963 0.68588 0.0
C1956 C 0.98979 0.03521 0.7344 0.0
H1957 H 1.005 0.97514 0.76166 0.0
C1958 C 1.00002 0.05046 0.75685 0.0
C1959 C 0.99029 1.00767 0.73695 0.0
C1960 C 0.97786 0.9901 0.71485 0.0
C1961 C 1.01262 0.03911 0.78045 0.0
C1962 C 1.01491 1.01162 0.78189 0.0
C1963 C 1.00321 0.99621 0.7605 0.0
C1964 C 0.03327 0.99944 0.8025 0.0
C1965 C 0.0253 0.05678 0.80243 0.0
C1966 C 0.05726 0.99031 0.79204 0.0
C1967 C 0.07819 0.98666 0.81078 0.0
C1968 C 0.07539 0.99201 0.84024 0.0
C1969 C 0.05057 0.99809 0.85118 0.0
C1970 C 0.02956 1.00178 0.83235 0.0
H1971 H 0.02427 0.07769 0.79622 0.0
H1972 H 1.01531 0.05449 0.82346 0.0
H1973 H 0.04613 0.05142 0.80538 0.0
H1974 H 0.06052 0.98835 0.7691 0.0
H1975 H 0.0971 0.98174 0.80185 0.0
H1976 H 0.44 0.96177 0.68979 0.0
H1977 H 0.47099 0.96218 0.72992 0.0
H1978 H 0.51982 1.01604 0.68311 0.0
H1979 H 0.48989 1.014 0.64218 0.0
H1980 H 0.54898 0.9876 0.71902 0.0
H1981 H 0.46244 0.02561 0.77817 0.0
H1982 H 0.45919 0.99257 0.76609 0.0
H1983 H 0.4615 1.01869 0.74026 0.0
C1984 C 0.45791 0.97283 0.68772 0.0
C1985 C 0.46252 0.98807 0.66316 0.0
C1986 C 0.47545 0.9733 0.71074 0.0
C1987 C 0.49716 0.99002 0.71005 0.0
C1988 C 0.50308 1.00319 0.68432 0.0
H1989 H 0.57398 0.09805 0.80569 0.0
H1990 H 0.56659 0.06216 0.77225 0.0
C1991 C 0.48598 1.00201 0.6609 0.0
C1992 C 0.51132 0.99699 0.73692 0.0
H1993 H 0.50225 0.02699 0.80178 0.0
C1994 C 0.53873 0.99581 0.73733 0.0
C1995 C 0.49799 1.00787 0.76087 0.0
C1996 C 0.46872 1.01152 0.76135 0.0
C1997 C 0.55313 1.00628 0.76038 0.0
C1998 C 0.53977 1.01803 0.78361 0.0
C1999 C 0.51243 1.01763 0.78409 0.0
C2000 C 0.55292 0.03521 0.80478 0.0
C2001 C 0.5825 1.00556 0.75923 0.0
C2002 C 0.54889 0.03163 0.83445 0.0
C2003 C 0.55337 0.05219 0.85371 0.0
C2004 C 0.5614 0.07663 0.84334 0.0
C2005 C 0.5679 0.07931 0.81417 0.0
C2006 C 0.56381 0.05872 0.79504 0.0
H2007 H 0.58955 0.98894 0.74596 0.0
H2008 H 0.58971 0.02386 0.74925 0.0
H2009 H 0.59101 1.004 0.78115 0.0
H2010 H 0.54018 1.01376 0.84235 0.0
H2011 H 0.54792 0.04976 0.87608 0.0
H2012 H 0.44553 0.56625 0.79777 0.0
H2013 H 0.48186 0.56142 0.7643 0.0
H2014 H 0.53469 0.55086 0.83556 0.0
H2015 H 0.4981 0.5557 0.86938 0.0
H2016 H 0.5358 0.58071 0.75475 0.0
H2017 H 0.52818 0.47833 0.79501 0.0
H2018 H 0.50357 0.50236 0.80318 0.0
H2019 H 0.53479 0.50382 0.82058 0.0
C2020 C 0.46505 0.56391 0.80636 0.0
C2021 C 0.46904 0.56099 0.83606 0.0
C2022 C 0.48582 0.56126 0.78721 0.0
C2023 C 0.51087 0.55539 0.79744 0.0
C2024 C 0.51544 0.55525 0.82727 0.0
H2025 H 0.59127 0.44927 0.6846 0.0
H2026 H 0.59095 0.48157 0.72332 0.0
C2027 C 0.49458 0.55811 0.84655 0.0
C2028 C 0.53003 0.54428 0.77694 0.0
H2029 H 0.54991 0.48503 0.75202 0.0
C2030 C 0.53958 0.55988 0.75445 0.0
C2031 C 0.53498 0.51712 0.77664 0.0
C2032 C 0.52483 0.49928 0.79999 0.0
C2033 C 0.55278 0.54878 0.73086 0.0
C2034 C 0.55572 0.52131 0.72937 0.0
C2035 C 0.54779 0.50607 0.75296 0.0
C2036 C 0.56321 0.50728 0.70249 0.0
C2037 C 0.56284 0.56659 0.70756 0.0
C2038 C 0.54928 0.51183 0.67687 0.0
C2039 C 0.55022 0.49378 0.65429 0.0
C2040 C 0.56442 0.47054 0.65739 0.0
C2041 C 0.58022 0.46712 0.68174 0.0
C2042 C 0.57992 0.48553 0.70393 0.0
H2043 H 0.56966 0.58536 0.71688 0.0
H2044 H 0.57915 0.55756 0.69536 0.0
H2045 H 0.54674 0.57119 0.69242 0.0
H2046 H 0.53571 0.52795 0.67527 0.0
H2047 H 0.53758 0.49665 0.63587 0.0
loop_
_geom_bond_atom_site_label_1
_geom_bond_atom_site_label_2
_geom_bond_distance
_geom_bond_site_symmetry_2
_ccdc_geom_bond_type
O0 Tb1 2.506 . S
O0 C14 1.265 . S
Tb1 O0 2.506 . S
Tb1 O6 2.312 . S
Tb1 O10 2.271 . S
Tb1 O12 2.338 . S
Tb1 O19 2.441 . S
C2 O10 1.252 . S
C2 O11 1.253 . S
O3 Tb4 2.271 . S
O3 C13 1.252 . S
Tb4 O3 2.271 . S
Tb4 O7 2.338 . S
Tb4 O11 2.312 . S
Tb4 O15 2.441 . S
Tb4 O16 2.506 . S
C5 O15 1.244 . S
C5 O16 1.265 . S
O6 Tb1 2.312 . S
O6 C13 1.253 . S
O7 Tb4 2.338 . S
O7 C8 1.258 1_455 S
C8 O7 1.258 1_655 S
C8 O9 1.251 . S
O9 C8 1.251 . S
O10 Tb1 2.271 . S
O10 C2 1.252 . S
O11 C2 1.253 . S
O11 Tb4 2.312 . S
O12 Tb1 2.338 . S
O12 C17 1.258 . S
C13 O3 1.252 . S
C13 O6 1.253 . S
C14 O0 1.265 . S
C14 O19 1.244 . S
O15 Tb4 2.441 . S
O15 C5 1.244 . S
O16 Tb4 2.506 . S
O16 C5 1.265 . S
C17 O12 1.258 . S
C17 O18 1.251 . S
O18 C17 1.251 . S
O19 Tb1 2.441 . S
O19 C14 1.244 . S
O20 Tb21 2.506 . S
O20 C34 1.265 . S
Tb21 O20 2.506 . S
Tb21 O26 2.312 . S
Tb21 O30 2.271 . S
Tb21 O32 2.338 . S
Tb21 O39 2.441 . S
C22 O30 1.252 . S
C22 O31 1.253 . S
O23 Tb24 2.271 . S
O23 C33 1.252 . S
Tb24 O23 2.271 . S
Tb24 O27 2.338 . S
Tb24 O31 2.312 . S
Tb24 O35 2.441 . S
Tb24 O36 2.506 . S
C25 O35 1.244 . S
C25 O36 1.265 . S
O26 Tb21 2.312 . S
O26 C33 1.253 . S
O27 Tb24 2.338 . S
O27 C28 1.258 1_545 S
C28 O27 1.258 1_565 S
C28 O29 1.251 . S
O29 C28 1.251 . S
O30 Tb21 2.271 . S
O30 C22 1.252 . S
O31 C22 1.253 . S
O31 Tb24 2.312 . S
O32 Tb21 2.338 . S
O32 C37 1.258 . S
C33 O23 1.252 . S
C33 O26 1.253 . S
C34 O20 1.265 . S
C34 O39 1.244 . S
O35 Tb24 2.441 . S
O35 C25 1.244 . S
O36 Tb24 2.506 . S
O36 C25 1.265 . S
C37 O32 1.258 . S
C37 O38 1.251 . S
O38 C37 1.251 . S
O39 Tb21 2.441 . S
O39 C34 1.244 . S
O40 Tb41 2.506 . S
O40 C54 1.265 . S
Tb41 O40 2.506 . S
Tb41 O46 2.312 . S
Tb41 O50 2.271 . S
Tb41 O52 2.338 . S
Tb41 O59 2.441 . S
C42 O50 1.252 . S
C42 O51 1.253 . S
O43 Tb44 2.271 . S
O43 C53 1.252 . S
Tb44 O43 2.271 . S
Tb44 O47 2.338 . S
Tb44 O51 2.312 . S
Tb44 O55 2.441 . S
Tb44 O56 2.506 . S
C45 O55 1.244 . S
C45 O56 1.265 . S
O46 Tb41 2.312 . S
O46 C53 1.253 . S
O47 Tb44 2.338 . S
O47 C48 1.258 . S
C48 O47 1.258 . S
C48 O49 1.251 . S
O49 C48 1.251 . S
O50 Tb41 2.271 . S
O50 C42 1.252 . S
O51 C42 1.253 . S
O51 Tb44 2.312 . S
O52 Tb41 2.338 . S
O52 C57 1.258 . S
C53 O43 1.252 . S
C53 O46 1.253 . S
C54 O40 1.265 . S
C54 O59 1.244 . S
O55 Tb44 2.441 . S
O55 C45 1.244 . S
O56 Tb44 2.506 . S
O56 C45 1.265 . S
C57 O52 1.258 . S
C57 O58 1.251 . S
O58 C57 1.251 . S
O59 Tb41 2.441 . S
O59 C54 1.244 . S
O60 Tb61 2.506 . S
O60 C74 1.265 . S
Tb61 O60 2.506 . S
Tb61 O66 2.312 . S
Tb61 O70 2.271 . S
Tb61 O72 2.338 . S
Tb61 O79 2.441 . S
C62 O70 1.252 . S
C62 O71 1.253 . S
O63 Tb64 2.271 . S
O63 C73 1.252 . S
Tb64 O63 2.271 . S
Tb64 O67 2.338 . S
Tb64 O71 2.312 . S
Tb64 O75 2.441 . S
Tb64 O76 2.506 . S
C65 O75 1.244 . S
C65 O76 1.265 . S
O66 Tb61 2.312 . S
O66 C73 1.253 . S
O67 Tb64 2.338 . S
O67 C68 1.258 . S
C68 O67 1.258 . S
C68 O69 1.251 . S
O69 C68 1.251 . S
O70 Tb61 2.271 . S
O70 C62 1.252 . S
O71 C62 1.253 . S
O71 Tb64 2.312 . S
O72 Tb61 2.338 . S
O72 C77 1.258 . S
C73 O63 1.252 . S
C73 O66 1.253 . S
C74 O60 1.265 . S
C74 O79 1.244 . S
O75 Tb64 2.441 . S
O75 C65 1.244 . S
O76 Tb64 2.506 . S
O76 C65 1.265 . S
C77 O72 1.258 . S
C77 O78 1.251 . S
O78 C77 1.251 . S
O79 Tb61 2.441 . S
O79 C74 1.244 . S
O80 Tb81 2.506 . S
O80 C94 1.265 . S
Tb81 O80 2.506 . S
Tb81 O86 2.312 . S
Tb81 O90 2.271 . S
Tb81 O92 2.338 . S
Tb81 O99 2.441 . S
C82 O90 1.252 . S
C82 O91 1.253 . S
O83 Tb84 2.271 . S
O83 C93 1.252 . S
Tb84 O83 2.271 . S
Tb84 O87 2.338 . S
Tb84 O91 2.312 . S
Tb84 O95 2.441 . S
Tb84 O96 2.506 . S
C85 O95 1.244 . S
C85 O96 1.265 . S
O86 Tb81 2.312 . S
O86 C93 1.253 . S
O87 Tb84 2.338 . S
O87 C88 1.258 1_455 S
C88 O87 1.258 1_655 S
C88 O89 1.251 . S
O89 C88 1.251 . S
O90 Tb81 2.271 . S
O90 C82 1.252 . S
O91 C82 1.253 . S
O91 Tb84 2.312 . S
O92 Tb81 2.338 . S
O92 C97 1.258 . S
C93 O83 1.252 . S
C93 O86 1.253 . S
C94 O80 1.265 . S
C94 O99 1.244 . S
O95 Tb84 2.441 . S
O95 C85 1.244 . S
O96 Tb84 2.506 . S
O96 C85 1.265 . S
C97 O92 1.258 . S
C97 O98 1.251 . S
O98 C97 1.251 . S
O99 Tb81 2.441 . S
O99 C94 1.244 . S
O100 Tb101 2.506 . S
O100 C114 1.265 . S
Tb101 O100 2.506 . S
Tb101 O106 2.312 . S
Tb101 O110 2.271 . S
Tb101 O112 2.338 . S
Tb101 O119 2.441 . S
C102 O110 1.252 . S
C102 O111 1.253 . S
O103 Tb104 2.271 . S
O103 C113 1.252 . S
Tb104 O103 2.271 . S
Tb104 O107 2.338 . S
Tb104 O111 2.312 . S
Tb104 O115 2.441 . S
Tb104 O116 2.506 . S
C105 O115 1.244 . S
C105 O116 1.265 . S
O106 Tb101 2.312 . S
O106 C113 1.253 . S
O107 Tb104 2.338 . S
O107 C108 1.258 1_545 S
C108 O107 1.258 1_565 S
C108 O109 1.251 . S
O109 C108 1.251 . S
O110 Tb101 2.271 . S
O110 C102 1.252 . S
O111 C102 1.253 . S
O111 Tb104 2.312 . S
O112 Tb101 2.338 . S
O112 C117 1.258 . S
C113 O103 1.252 . S
C113 O106 1.253 . S
C114 O100 1.265 . S
C114 O119 1.244 . S
O115 Tb104 2.441 . S
O115 C105 1.244 . S
O116 Tb104 2.506 . S
O116 C105 1.265 . S
C117 O112 1.258 . S
C117 O118 1.251 . S
O118 C117 1.251 . S
O119 Tb101 2.441 . S
O119 C114 1.244 . S
O120 Tb121 2.506 . S
O120 C134 1.265 . S
Tb121 O120 2.506 . S
Tb121 O126 2.312 . S
Tb121 O130 2.271 . S
Tb121 O132 2.338 . S
Tb121 O139 2.441 . S
C122 O130 1.252 . S
C122 O131 1.253 . S
O123 Tb124 2.271 . S
O123 C133 1.252 . S
Tb124 O123 2.271 . S
Tb124 O127 2.338 . S
Tb124 O131 2.312 . S
Tb124 O135 2.441 . S
Tb124 O136 2.506 . S
C125 O135 1.244 . S
C125 O136 1.265 . S
O126 Tb121 2.312 . S
O126 C133 1.253 . S
O127 Tb124 2.338 . S
O127 C128 1.258 . S
C128 O127 1.258 . S
C128 O129 1.251 . S
O129 C128 1.251 . S
O130 Tb121 2.271 . S
O130 C122 1.252 . S
O131 C122 1.253 . S
O131 Tb124 2.312 . S
O132 Tb121 2.338 . S
O132 C137 1.258 . S
C133 O123 1.252 . S
C133 O126 1.253 . S
C134 O120 1.265 . S
C134 O139 1.244 . S
O135 Tb124 2.441 . S
O135 C125 1.244 . S
O136 Tb124 2.506 . S
O136 C125 1.265 . S
C137 O132 1.258 . S
C137 O138 1.251 . S
O138 C137 1.251 . S
O139 Tb121 2.441 . S
O139 C134 1.244 . S
O140 Tb141 2.506 . S
O140 C154 1.265 . S
Tb141 O140 2.506 . S
Tb141 O146 2.312 . S
Tb141 O150 2.271 . S
Tb141 O152 2.338 . S
Tb141 O159 2.441 . S
C142 O150 1.252 . S
C142 O151 1.253 . S
O143 Tb144 2.271 . S
O143 C153 1.252 . S
Tb144 O143 2.271 . S
Tb144 O147 2.338 . S
Tb144 O151 2.312 . S
Tb144 O155 2.441 . S
Tb144 O156 2.506 . S
C145 O155 1.244 . S
C145 O156 1.265 . S
O146 Tb141 2.312 . S
O146 C153 1.253 . S
O147 Tb144 2.338 . S
O147 C148 1.258 . S
C148 O147 1.258 . S
C148 O149 1.251 . S
O149 C148 1.251 . S
O150 Tb141 2.271 . S
O150 C142 1.252 . S
O151 C142 1.253 . S
O151 Tb144 2.312 . S
O152 Tb141 2.338 . S
O152 C157 1.258 . S
C153 O143 1.252 . S
C153 O146 1.253 . S
C154 O140 1.265 . S
C154 O159 1.244 . S
O155 Tb144 2.441 . S
O155 C145 1.244 . S
O156 Tb144 2.506 . S
O156 C145 1.265 . S
C157 O152 1.258 . S
C157 O158 1.251 . S
O158 C157 1.251 . S
O159 Tb141 2.441 . S
O159 C154 1.244 . S
O160 Tb161 2.506 . S
O160 C174 1.265 . S
Tb161 O160 2.506 . S
Tb161 O166 2.312 . S
Tb161 O170 2.271 . S
Tb161 O172 2.338 . S
Tb161 O179 2.441 . S
C162 O170 1.252 . S
C162 O171 1.253 . S
O163 Tb164 2.271 . S
O163 C173 1.252 . S
Tb164 O163 2.271 . S
Tb164 O167 2.338 . S
Tb164 O171 2.312 . S
Tb164 O175 2.441 . S
Tb164 O176 2.506 . S
C165 O175 1.244 . S
C165 O176 1.265 . S
O166 Tb161 2.312 . S
O166 C173 1.253 . S
O167 Tb164 2.338 . S
O167 C168 1.258 1_655 S
C168 O167 1.258 1_455 S
C168 O169 1.251 . S
O169 C168 1.251 . S
O170 Tb161 2.271 . S
O170 C162 1.252 . S
O171 C162 1.253 . S
O171 Tb164 2.312 . S
O172 Tb161 2.338 . S
O172 C177 1.258 . S
C173 O163 1.252 . S
C173 O166 1.253 . S
C174 O160 1.265 . S
C174 O179 1.244 . S
O175 Tb164 2.441 . S
O175 C165 1.244 . S
O176 Tb164 2.506 . S
O176 C165 1.265 . S
C177 O172 1.258 . S
C177 O178 1.251 . S
O178 C177 1.251 . S
O179 Tb161 2.441 . S
O179 C174 1.244 . S
O180 Tb181 2.506 . S
O180 C194 1.265 . S
Tb181 O180 2.506 . S
Tb181 O186 2.312 . S
Tb181 O190 2.271 . S
Tb181 O192 2.338 . S
Tb181 O199 2.441 . S
C182 O190 1.252 . S
C182 O191 1.253 . S
O183 Tb184 2.271 . S
O183 C193 1.252 . S
Tb184 O183 2.271 . S
Tb184 O187 2.338 . S
Tb184 O191 2.312 . S
Tb184 O195 2.441 . S
Tb184 O196 2.506 . S
C185 O195 1.244 . S
C185 O196 1.265 . S
O186 Tb181 2.312 . S
O186 C193 1.253 . S
O187 Tb184 2.338 . S
O187 C188 1.258 1_565 S
C188 O187 1.258 1_545 S
C188 O189 1.251 . S
O189 C188 1.251 . S
O190 Tb181 2.271 . S
O190 C182 1.252 . S
O191 C182 1.253 . S
O191 Tb184 2.312 . S
O192 Tb181 2.338 . S
O192 C197 1.258 . S
C193 O183 1.252 . S
C193 O186 1.253 . S
C194 O180 1.265 . S
C194 O199 1.244 . S
O195 Tb184 2.441 . S
O195 C185 1.244 . S
O196 Tb184 2.506 . S
O196 C185 1.265 . S
C197 O192 1.258 . S
C197 O198 1.251 . S
O198 C197 1.251 . S
O199 Tb181 2.441 . S
O199 C194 1.244 . S
O200 Tb201 2.506 . S
O200 C214 1.265 . S
Tb201 O200 2.506 . S
Tb201 O206 2.312 . S
Tb201 O210 2.271 . S
Tb201 O212 2.338 . S
Tb201 O219 2.441 . S
C202 O210 1.252 . S
C202 O211 1.253 . S
O203 Tb204 2.271 . S
O203 C213 1.252 . S
Tb204 O203 2.271 . S
Tb204 O207 2.338 . S
Tb204 O211 2.312 . S
Tb204 O215 2.441 . S
Tb204 O216 2.506 . S
C205 O215 1.244 . S
C205 O216 1.265 . S
O206 Tb201 2.312 . S
O206 C213 1.253 . S
O207 Tb204 2.338 . S
O207 C208 1.258 . S
C208 O207 1.258 . S
C208 O209 1.251 . S
O209 C208 1.251 . S
O210 Tb201 2.271 . S
O210 C202 1.252 . S
O211 C202 1.253 . S
O211 Tb204 2.312 . S
O212 Tb201 2.338 . S
O212 C217 1.258 . S
C213 O203 1.252 . S
C213 O206 1.253 . S
C214 O200 1.265 . S
C214 O219 1.244 . S
O215 Tb204 2.441 . S
O215 C205 1.244 . S
O216 Tb204 2.506 . S
O216 C205 1.265 . S
C217 O212 1.258 . S
C217 O218 1.251 . S
O218 C217 1.251 . S
O219 Tb201 2.441 . S
O219 C214 1.244 . S
O220 Tb221 2.506 . S
O220 C234 1.265 . S
Tb221 O220 2.506 . S
Tb221 O226 2.312 . S
Tb221 O230 2.271 . S
Tb221 O232 2.338 . S
Tb221 O239 2.441 . S
C222 O230 1.252 . S
C222 O231 1.253 . S
O223 Tb224 2.271 . S
O223 C233 1.252 . S
Tb224 O223 2.271 . S
Tb224 O227 2.338 . S
Tb224 O231 2.312 . S
Tb224 O235 2.441 . S
Tb224 O236 2.506 . S
C225 O235 1.244 . S
C225 O236 1.265 . S
O226 Tb221 2.312 . S
O226 C233 1.253 . S
O227 Tb224 2.338 . S
O227 C228 1.258 . S
C228 O227 1.258 . S
C228 O229 1.251 . S
O229 C228 1.251 . S
O230 Tb221 2.271 . S
O230 C222 1.252 . S
O231 C222 1.253 . S
O231 Tb224 2.312 . S
O232 Tb221 2.338 . S
O232 C237 1.258 . S
C233 O223 1.252 . S
C233 O226 1.253 . S
C234 O220 1.265 . S
C234 O239 1.244 . S
O235 Tb224 2.441 . S
O235 C225 1.244 . S
O236 Tb224 2.506 . S
O236 C225 1.265 . S
C237 O232 1.258 . S
C237 O238 1.251 . S
O238 C237 1.251 . S
O239 Tb221 2.441 . S
O239 C234 1.244 . S
O240 Tb241 2.506 . S
O240 C254 1.265 . S
Tb241 O240 2.506 . S
Tb241 O246 2.312 . S
Tb241 O250 2.271 . S
Tb241 O252 2.338 . S
Tb241 O259 2.441 . S
C242 O250 1.252 . S
C242 O251 1.253 . S
O243 Tb244 2.271 . S
O243 C253 1.252 . S
Tb244 O243 2.271 . S
Tb244 O247 2.338 . S
Tb244 O251 2.312 . S
Tb244 O255 2.441 . S
Tb244 O256 2.506 . S
C245 O255 1.244 . S
C245 O256 1.265 . S
O246 Tb241 2.312 . S
O246 C253 1.253 . S
O247 Tb244 2.338 . S
O247 C248 1.258 1_655 S
C248 O247 1.258 1_455 S
C248 O249 1.251 . S
O249 C248 1.251 . S
O250 Tb241 2.271 . S
O250 C242 1.252 . S
O251 C242 1.253 . S
O251 Tb244 2.312 . S
O252 Tb241 2.338 . S
O252 C257 1.258 . S
C253 O243 1.252 . S
C253 O246 1.253 . S
C254 O240 1.265 . S
C254 O259 1.244 . S
O255 Tb244 2.441 . S
O255 C245 1.244 . S
O256 Tb244 2.506 . S
O256 C245 1.265 . S
C257 O252 1.258 . S
C257 O258 1.251 . S
O258 C257 1.251 . S
O259 Tb241 2.441 . S
O259 C254 1.244 . S
O260 Tb261 2.506 . S
O260 C274 1.265 . S
Tb261 O260 2.506 . S
Tb261 O266 2.312 . S
Tb261 O270 2.271 . S
Tb261 O272 2.338 . S
Tb261 O279 2.441 . S
C262 O270 1.252 . S
C262 O271 1.253 . S
O263 Tb264 2.271 . S
O263 C273 1.252 . S
Tb264 O263 2.271 . S
Tb264 O267 2.338 . S
Tb264 O271 2.312 . S
Tb264 O275 2.441 . S
Tb264 O276 2.506 . S
C265 O275 1.244 . S
C265 O276 1.265 . S
O266 Tb261 2.312 . S
O266 C273 1.253 . S
O267 Tb264 2.338 . S
O267 C268 1.258 1_565 S
C268 O267 1.258 1_545 S
C268 O269 1.251 . S
O269 C268 1.251 . S
O270 Tb261 2.271 . S
O270 C262 1.252 . S
O271 C262 1.253 . S
O271 Tb264 2.312 . S
O272 Tb261 2.338 . S
O272 C277 1.258 . S
C273 O263 1.252 . S
C273 O266 1.253 . S
C274 O260 1.265 . S
C274 O279 1.244 . S
O275 Tb264 2.441 . S
O275 C265 1.244 . S
O276 Tb264 2.506 . S
O276 C265 1.265 . S
C277 O272 1.258 . S
C277 O278 1.251 . S
O278 C277 1.251 . S
O279 Tb261 2.441 . S
O279 C274 1.244 . S
O280 Tb281 2.506 . S
O280 C294 1.265 . S
Tb281 O280 2.506 . S
Tb281 O286 2.312 . S
Tb281 O290 2.271 . S
Tb281 O292 2.338 . S
Tb281 O299 2.441 . S
C282 O290 1.252 . S
C282 O291 1.253 . S
O283 Tb284 2.271 . S
O283 C293 1.252 . S
Tb284 O283 2.271 . S
Tb284 O287 2.338 . S
Tb284 O291 2.312 . S
Tb284 O295 2.441 . S
Tb284 O296 2.506 . S
C285 O295 1.244 . S
C285 O296 1.265 . S
O286 Tb281 2.312 . S
O286 C293 1.253 . S
O287 Tb284 2.338 . S
O287 C288 1.258 . S
C288 O287 1.258 . S
C288 O289 1.251 . S
O289 C288 1.251 . S
O290 Tb281 2.271 . S
O290 C282 1.252 . S
O291 C282 1.253 . S
O291 Tb284 2.312 . S
O292 Tb281 2.338 . S
O292 C297 1.258 . S
C293 O283 1.252 . S
C293 O286 1.253 . S
C294 O280 1.265 . S
C294 O299 1.244 . S
O295 Tb284 2.441 . S
O295 C285 1.244 . S
O296 Tb284 2.506 . S
O296 C285 1.265 . S
C297 O292 1.258 . S
C297 O298 1.251 . S
O298 C297 1.251 . S
O299 Tb281 2.441 . S
O299 C294 1.244 . S
O300 Tb301 2.506 . S
O300 C314 1.265 . S
Tb301 O300 2.506 . S
Tb301 O306 2.312 . S
Tb301 O310 2.271 . S
Tb301 O312 2.338 . S
Tb301 O319 2.441 . S
C302 O310 1.252 . S
C302 O311 1.253 . S
O303 Tb304 2.271 . S
O303 C313 1.252 . S
Tb304 O303 2.271 . S
Tb304 O307 2.338 . S
Tb304 O311 2.312 . S
Tb304 O315 2.441 . S
Tb304 O316 2.506 . S
C305 O315 1.244 . S
C305 O316 1.265 . S
O306 Tb301 2.312 . S
O306 C313 1.253 . S
O307 Tb304 2.338 . S
O307 C308 1.258 . S
C308 O307 1.258 . S
C308 O309 1.251 . S
O309 C308 1.251 . S
O310 Tb301 2.271 . S
O310 C302 1.252 . S
O311 C302 1.253 . S
O311 Tb304 2.312 . S
O312 Tb301 2.338 . S
O312 C317 1.258 . S
C313 O303 1.252 . S
C313 O306 1.253 . S
C314 O300 1.265 . S
C314 O319 1.244 . S
O315 Tb304 2.441 . S
O315 C305 1.244 . S
O316 Tb304 2.506 . S
O316 C305 1.265 . S
C317 O312 1.258 . S
C317 O318 1.251 . S
O318 C317 1.251 . S
O319 Tb301 2.441 . S
O319 C314 1.244 . S
H320 C328 0.929 . S
H321 C330 0.930 . S
H322 C332 0.930 . S
H323 C335 0.929 . S
H324 C338 0.930 . S
H325 C340 0.960 . S
H326 C340 0.960 . S
H327 C340 0.960 . S
C328 H320 0.929 . S
C328 C329 1.377 . S
C328 C330 1.384 . S
C329 C328 1.377 . S
C329 C335 1.390 . S
C330 H321 0.930 . S
C330 C328 1.384 . S
C330 C331 1.372 . S
C331 C330 1.372 . S
C331 C332 1.400 . S
C331 C336 1.490 . S
C332 H322 0.930 . S
C332 C331 1.400 . S
C332 C335 1.386 . S
H333 C349 0.930 . S
H334 C350 0.931 . S
C335 H323 0.929 . S
C335 C329 1.390 . S
C335 C332 1.386 . S
C336 C331 1.490 . S
C336 C338 1.395 . S
C336 C339 1.403 . S
H337 C343 0.930 . S
C338 H324 0.930 . S
C338 C336 1.395 . S
C338 C341 1.403 . S
C339 C336 1.403 . S
C339 C340 1.524 . S
C339 C343 1.400 . S
C340 H325 0.960 . S
C340 H326 0.960 . S
C340 H327 0.960 . S
C340 C339 1.524 . S
C341 C338 1.403 . S
C341 C342 1.392 . S
C341 C345 1.495 . S
C342 C341 1.392 . S
C342 C343 1.385 . S
C342 C344 1.478 . S
C343 H337 0.930 . S
C343 C339 1.400 . S
C343 C342 1.385 . S
C344 C342 1.478 . S
C344 C346 1.381 . S
C344 C350 1.383 . S
C345 C341 1.495 . S
C345 H351 0.959 . S
C345 H352 0.961 . S
C345 H353 0.960 . S
C346 C344 1.381 . S
C346 C347 1.394 . S
C346 H354 0.930 . S
C347 C346 1.394 . S
C347 C348 1.383 . S
C347 H355 0.929 . S
C348 C347 1.383 . S
C348 C349 1.377 . S
C349 H333 0.930 . S
C349 C348 1.377 . S
C349 C350 1.379 . S
C350 H334 0.931 . S
C350 C344 1.383 . S
C350 C349 1.379 . S
H351 C345 0.959 . S
H352 C345 0.961 . S
H353 C345 0.960 . S
H354 C346 0.930 . S
H355 C347 0.929 . S
H356 C364 0.929 . S
H357 C366 0.930 . S
H358 C368 0.930 . S
H359 C371 0.929 . S
H360 C374 0.930 . S
H361 C376 0.960 . S
H362 C376 0.960 . S
H363 C376 0.960 1_455 S
C364 H356 0.929 . S
C364 C365 1.377 . S
C364 C366 1.384 . S
C365 C364 1.377 . S
C365 C371 1.390 . S
C366 H357 0.930 . S
C366 C364 1.384 . S
C366 C367 1.372 . S
C367 C366 1.372 . S
C367 C368 1.400 . S
C367 C372 1.490 . S
C368 H358 0.930 . S
C368 C367 1.400 . S
C368 C371 1.386 . S
H369 C385 0.930 . S
H370 C386 0.931 1_455 S
C371 H359 0.929 . S
C371 C365 1.390 . S
C371 C368 1.386 . S
C372 C367 1.490 . S
C372 C374 1.395 . S
C372 C375 1.403 . S
H373 C379 0.930 . S
C374 H360 0.930 . S
C374 C372 1.395 . S
C374 C377 1.403 . S
C375 C372 1.403 . S
C375 C376 1.524 1_455 S
C375 C379 1.400 1_455 S
C376 H361 0.960 . S
C376 H362 0.960 . S
C376 H363 0.960 1_655 S
C376 C375 1.524 1_655 S
C377 C374 1.403 . S
C377 C378 1.392 1_455 S
C377 C381 1.495 . S
C378 C377 1.392 1_655 S
C378 C379 1.385 . S
C378 C380 1.478 . S
C379 H373 0.930 . S
C379 C375 1.400 1_655 S
C379 C378 1.385 . S
C380 C378 1.478 . S
C380 C382 1.381 . S
C380 C386 1.383 . S
C381 C377 1.495 . S
C381 H387 0.959 . S
C381 H388 0.961 . S
C381 H389 0.960 1_455 S
C382 C380 1.381 . S
C382 C383 1.394 . S
C382 H390 0.930 . S
C383 C382 1.394 . S
C383 C384 1.383 . S
C383 H391 0.929 . S
C384 C383 1.383 . S
C384 C385 1.377 . S
C385 H369 0.930 . S
C385 C384 1.377 . S
C385 C386 1.379 . S
C386 H370 0.931 1_655 S
C386 C380 1.383 . S
C386 C385 1.379 . S
H387 C381 0.959 . S
H388 C381 0.961 . S
H389 C381 0.960 1_655 S
H390 C382 0.930 . S
H391 C383 0.929 . S
H392 C400 0.929 . S
H393 C402 0.930 . S
H394 C404 0.930 . S
H395 C407 0.929 . S
H396 C410 0.927 1_565 S
H397 C412 0.960 . S
H398 C412 0.960 . S
H399 C412 0.960 . S
C400 H392 0.929 . S
C400 C401 1.377 . S
C400 C402 1.384 . S
C401 C400 1.377 . S
C401 C407 1.390 . S
C402 H393 0.930 . S
C402 C400 1.384 . S
C402 C403 1.372 . S
C403 C402 1.372 . S
C403 C404 1.400 . S
C403 C408 1.490 . S
C404 H394 0.930 . S
C404 C403 1.400 . S
C404 C407 1.386 . S
H405 C421 0.930 . S
H406 C422 0.931 . S
C407 H395 0.929 . S
C407 C401 1.390 . S
C407 C404 1.386 . S
C408 C403 1.490 . S
C408 C410 1.381 1_565 S
C408 C411 1.403 . S
H409 C415 0.930 . S
C410 H396 0.927 1_545 S
C410 C408 1.381 1_545 S
C410 C413 1.422 . S
C411 C408 1.403 . S
C411 C412 1.524 . S
C411 C415 1.400 1_565 S
C412 H397 0.960 . S
C412 H398 0.960 . S
C412 H399 0.960 . S
C412 C411 1.524 . S
C413 C410 1.422 . S
C413 C414 1.392 . S
C413 C417 1.495 . S
C414 C413 1.392 . S
C414 C415 1.385 . S
C414 C416 1.478 . S
C415 H409 0.930 . S
C415 C411 1.400 1_545 S
C415 C414 1.385 . S
C416 C414 1.478 . S
C416 C418 1.381 . S
C416 C422 1.383 . S
C417 C413 1.495 . S
C417 H423 0.959 . S
C417 H424 0.961 . S
C417 H425 0.960 . S
C418 C416 1.381 . S
C418 C419 1.394 . S
C418 H426 0.930 . S
C419 C418 1.394 . S
C419 C420 1.383 . S
C419 H427 0.929 . S
C420 C419 1.383 . S
C420 C421 1.377 . S
C421 H405 0.930 . S
C421 C420 1.377 . S
C421 C422 1.379 . S
C422 H406 0.931 . S
C422 C416 1.383 . S
C422 C421 1.379 . S
H423 C417 0.959 . S
H424 C417 0.961 . S
H425 C417 0.960 . S
H426 C418 0.930 . S
H427 C419 0.929 . S
H428 C436 0.929 . S
H429 C438 0.930 . S
H430 C440 0.930 . S
H431 C443 0.929 . S
H432 C446 0.930 . S
H433 C448 0.960 . S
H434 C448 0.960 . S
H435 C448 0.960 . S
C436 H428 0.929 . S
C436 C437 1.377 . S
C436 C438 1.384 . S
C437 C436 1.377 . S
C437 C443 1.390 . S
C438 H429 0.930 . S
C438 C436 1.384 . S
C438 C439 1.372 . S
C439 C438 1.372 . S
C439 C440 1.400 . S
C439 C444 1.490 . S
C440 H430 0.930 . S
C440 C439 1.400 . S
C440 C443 1.386 . S
H441 C457 0.930 . S
H442 C458 0.931 . S
C443 H431 0.929 . S
C443 C437 1.390 . S
C443 C440 1.386 . S
C444 C439 1.490 . S
C444 C446 1.395 . S
C444 C447 1.403 . S
H445 C451 0.930 . S
C446 H432 0.930 . S
C446 C444 1.395 . S
C446 C449 1.403 . S
C447 C444 1.403 . S
C447 C448 1.524 . S
C447 C451 1.400 . S
C448 H433 0.960 . S
C448 H434 0.960 . S
C448 H435 0.960 . S
C448 C447 1.524 . S
C449 C446 1.403 . S
C449 C450 1.392 . S
C449 C453 1.495 . S
C450 C449 1.392 . S
C450 C451 1.385 . S
C450 C452 1.478 . S
C451 H445 0.930 . S
C451 C447 1.400 . S
C451 C450 1.385 . S
C452 C450 1.478 . S
C452 C454 1.381 . S
C452 C458 1.383 . S
C453 C449 1.495 . S
C453 H459 0.959 . S
C453 H460 0.961 . S
C453 H461 0.960 . S
C454 C452 1.381 . S
C454 C455 1.394 . S
C454 H462 0.930 . S
C455 C454 1.394 . S
C455 C456 1.383 . S
C455 H463 0.929 . S
C456 C455 1.383 . S
C456 C457 1.377 . S
C457 H441 0.930 . S
C457 C456 1.377 . S
C457 C458 1.379 . S
C458 H442 0.931 . S
C458 C452 1.383 . S
C458 C457 1.379 . S
H459 C453 0.959 . S
H460 C453 0.961 . S
H461 C453 0.960 . S
H462 C454 0.930 . S
H463 C455 0.929 . S
H464 C472 0.929 . S
H465 C474 0.930 1_545 S
H466 C476 0.930 . S
H467 C479 0.929 . S
H468 C482 0.930 . S
H469 C484 0.960 . S
H470 C484 0.960 . S
H471 C484 0.960 . S
C472 H464 0.929 . S
C472 C473 1.377 . S
C472 C474 1.384 . S
C473 C472 1.377 . S
C473 C479 1.390 . S
C474 H465 0.930 1_565 S
C474 C472 1.384 . S
C474 C475 1.372 . S
C475 C474 1.372 . S
C475 C476 1.400 . S
C475 C480 1.490 . S
C476 H466 0.930 . S
C476 C475 1.400 . S
C476 C479 1.386 . S
H477 C493 0.930 . S
H478 C494 0.931 . S
C479 H467 0.929 . S
C479 C473 1.390 . S
C479 C476 1.386 . S
C480 C475 1.490 . S
C480 C482 1.395 1_565 S
C480 C483 1.403 . S
H481 C487 0.930 . S
C482 H468 0.930 . S
C482 C480 1.395 1_545 S
C482 C485 1.403 . S
C483 C480 1.403 . S
C483 C484 1.524 . S
C483 C487 1.400 . S
C484 H469 0.960 . S
C484 H470 0.960 . S
C484 H471 0.960 . S
C484 C483 1.524 . S
C485 C482 1.403 . S
C485 C486 1.392 . S
C485 C489 1.495 . S
C486 C485 1.392 . S
C486 C487 1.385 1_545 S
C486 C488 1.478 . S
C487 H481 0.930 . S
C487 C483 1.400 . S
C487 C486 1.385 1_565 S
C488 C486 1.478 . S
C488 C490 1.381 . S
C488 C494 1.383 . S
C489 C485 1.495 . S
C489 H495 0.959 . S
C489 H496 0.961 . S
C489 H497 0.960 . S
C490 C488 1.381 . S
C490 C491 1.394 . S
C490 H498 0.930 . S
C491 C490 1.394 . S
C491 C492 1.383 . S
C491 H499 0.929 . S
C492 C491 1.383 . S
C492 C493 1.377 . S
C493 H477 0.930 . S
C493 C492 1.377 . S
C493 C494 1.379 . S
C494 H478 0.931 . S
C494 C488 1.383 . S
C494 C493 1.379 . S
H495 C489 0.959 . S
H496 C489 0.961 . S
H497 C489 0.960 . S
H498 C490 0.930 . S
H499 C491 0.929 . S
H500 C508 0.929 . S
H501 C510 0.930 . S
H502 C512 0.930 . S
H503 C515 0.929 . S
H504 C518 0.930 . S
H505 C520 0.960 . S
H506 C520 0.960 . S
H507 C520 0.960 . S
C508 H500 0.929 . S
C508 C509 1.377 . S
C508 C510 1.384 . S
C509 C508 1.377 . S
C509 C515 1.390 . S
C510 H501 0.930 . S
C510 C508 1.384 . S
C510 C511 1.372 . S
C511 C510 1.372 . S
C511 C512 1.400 . S
C511 C516 1.490 . S
C512 H502 0.930 . S
C512 C511 1.400 . S
C512 C515 1.386 . S
H513 C529 0.930 . S
H514 C530 0.931 . S
C515 H503 0.929 . S
C515 C509 1.390 . S
C515 C512 1.386 . S
C516 C511 1.490 . S
C516 C518 1.395 . S
C516 C519 1.403 . S
H517 C523 0.930 . S
C518 H504 0.930 . S
C518 C516 1.395 . S
C518 C521 1.403 . S
C519 C516 1.403 . S
C519 C520 1.524 . S
C519 C523 1.400 . S
C520 H505 0.960 . S
C520 H506 0.960 . S
C520 H507 0.960 . S
C520 C519 1.524 . S
C521 C518 1.403 . S
C521 C522 1.392 . S
C521 C525 1.495 . S
C522 C521 1.392 . S
C522 C523 1.385 . S
C522 C524 1.478 . S
C523 H517 0.930 . S
C523 C519 1.400 . S
C523 C522 1.385 . S
C524 C522 1.478 . S
C524 C526 1.381 . S
C524 C530 1.383 . S
C525 C521 1.495 . S
C525 H531 0.959 . S
C525 H532 0.961 . S
C525 H533 0.960 . S
C526 C524 1.381 . S
C526 C527 1.394 . S
C526 H534 0.930 . S
C527 C526 1.394 . S
C527 C528 1.383 . S
C527 H535 0.929 . S
C528 C527 1.383 . S
C528 C529 1.377 . S
C529 H513 0.930 . S
C529 C528 1.377 . S
C529 C530 1.379 . S
C530 H514 0.931 . S
C530 C524 1.383 . S
C530 C529 1.379 . S
H531 C525 0.959 . S
H532 C525 0.961 . S
H533 C525 0.960 . S
H534 C526 0.930 . S
H535 C527 0.929 . S
H536 C544 0.929 . S
H537 C546 0.930 . S
H538 C548 0.930 . S
H539 C551 0.929 . S
H540 C554 0.930 . S
H541 C556 0.960 . S
H542 C556 0.960 . S
H543 C556 0.960 . S
C544 H536 0.929 . S
C544 C545 1.377 . S
C544 C546 1.384 . S
C545 C544 1.377 . S
C545 C551 1.390 . S
C546 H537 0.930 . S
C546 C544 1.384 . S
C546 C547 1.372 . S
C547 C546 1.372 . S
C547 C548 1.400 . S
C547 C552 1.490 . S
C548 H538 0.930 . S
C548 C547 1.400 . S
C548 C551 1.386 . S
H549 C565 0.930 . S
H550 C566 0.931 . S
C551 H539 0.929 . S
C551 C545 1.390 . S
C551 C548 1.386 . S
C552 C547 1.490 . S
C552 C554 1.395 . S
C552 C555 1.403 . S
H553 C559 0.930 . S
C554 H540 0.930 . S
C554 C552 1.395 . S
C554 C557 1.403 . S
C555 C552 1.403 . S
C555 C556 1.524 . S
C555 C559 1.400 . S
C556 H541 0.960 . S
C556 H542 0.960 . S
C556 H543 0.960 . S
C556 C555 1.524 . S
C557 C554 1.403 . S
C557 C558 1.392 . S
C557 C561 1.495 . S
C558 C557 1.392 . S
C558 C559 1.385 . S
C558 C560 1.478 . S
C559 H553 0.930 . S
C559 C555 1.400 . S
C559 C558 1.385 . S
C560 C558 1.478 . S
C560 C562 1.381 . S
C560 C566 1.383 . S
C561 C557 1.495 . S
C561 H567 0.959 . S
C561 H568 0.961 . S
C561 H569 0.960 . S
C562 C560 1.381 . S
C562 C563 1.394 . S
C562 H570 0.930 . S
C563 C562 1.394 . S
C563 C564 1.383 . S
C563 H571 0.929 . S
C564 C563 1.383 . S
C564 C565 1.377 . S
C565 H549 0.930 . S
C565 C564 1.377 . S
C565 C566 1.379 . S
C566 H550 0.931 . S
C566 C560 1.383 . S
C566 C565 1.379 . S
H567 C561 0.959 . S
H568 C561 0.961 . S
H569 C561 0.960 . S
H570 C562 0.930 . S
H571 C563 0.929 . S
H572 C580 0.929 . S
H573 C582 0.930 . S
H574 C584 0.930 . S
H575 C587 0.929 . S
H576 C590 0.930 . S
H577 C592 0.960 . S
H578 C592 0.960 . S
H579 C592 0.960 . S
C580 H572 0.929 . S
C580 C581 1.377 . S
C580 C582 1.384 . S
C581 C580 1.377 . S
C581 C587 1.390 . S
C582 H573 0.930 . S
C582 C580 1.384 . S
C582 C583 1.372 . S
C583 C582 1.372 . S
C583 C584 1.400 . S
C583 C588 1.490 . S
C584 H574 0.930 . S
C584 C583 1.400 . S
C584 C587 1.386 . S
H585 C601 0.930 . S
H586 C602 0.931 . S
C587 H575 0.929 . S
C587 C581 1.390 . S
C587 C584 1.386 . S
C588 C583 1.490 . S
C588 C590 1.395 . S
C588 C591 1.403 . S
H589 C595 0.930 . S
C590 H576 0.930 . S
C590 C588 1.395 . S
C590 C593 1.403 1_455 S
C591 C588 1.403 . S
C591 C592 1.524 . S
C591 C595 1.400 1_455 S
C592 H577 0.960 . S
C592 H578 0.960 . S
C592 H579 0.960 . S
C592 C591 1.524 . S
C593 C590 1.403 1_655 S
C593 C594 1.392 . S
C593 C597 1.495 . S
C594 C593 1.392 . S
C594 C595 1.385 . S
C594 C596 1.478 . S
C595 H589 0.930 . S
C595 C591 1.400 1_655 S
C595 C594 1.385 . S
C596 C594 1.478 . S
C596 C598 1.381 . S
C596 C602 1.383 . S
C597 C593 1.495 . S
C597 H603 0.959 . S
C597 H604 0.961 . S
C597 H605 0.960 . S
C598 C596 1.381 . S
C598 C599 1.394 . S
C598 H606 0.930 1_655 S
C599 C598 1.394 . S
C599 C600 1.383 . S
C599 H607 0.929 . S
C600 C599 1.383 . S
C600 C601 1.377 . S
C601 H585 0.930 . S
C601 C600 1.377 . S
C601 C602 1.379 . S
C602 H586 0.931 . S
C602 C596 1.383 . S
C602 C601 1.379 . S
H603 C597 0.959 . S
H604 C597 0.961 . S
H605 C597 0.960 . S
H606 C598 0.930 1_455 S
H607 C599 0.929 . S
H608 C616 0.929 . S
H609 C618 0.930 . S
H610 C620 0.930 . S
H611 C623 0.929 . S
H612 C626 0.930 . S
H613 C628 0.960 . S
H614 C628 0.960 . S
H615 C628 0.960 . S
C616 H608 0.929 . S
C616 C617 1.377 . S
C616 C618 1.384 . S
C617 C616 1.377 . S
C617 C623 1.390 . S
C618 H609 0.930 . S
C618 C616 1.384 . S
C618 C619 1.372 . S
C619 C618 1.372 . S
C619 C620 1.400 . S
C619 C624 1.490 . S
C620 H610 0.930 . S
C620 C619 1.400 . S
C620 C623 1.386 . S
H621 C637 0.930 . S
H622 C638 0.931 . S
C623 H611 0.929 . S
C623 C617 1.390 . S
C623 C620 1.386 . S
C624 C619 1.490 . S
C624 C626 1.395 . S
C624 C627 1.403 . S
H625 C631 0.930 . S
C626 H612 0.930 . S
C626 C624 1.395 . S
C626 C629 1.403 . S
C627 C624 1.403 . S
C627 C628 1.524 . S
C627 C631 1.400 . S
C628 H613 0.960 . S
C628 H614 0.960 . S
C628 H615 0.960 . S
C628 C627 1.524 . S
C629 C626 1.403 . S
C629 C630 1.392 . S
C629 C633 1.495 . S
C630 C629 1.392 . S
C630 C631 1.385 . S
C630 C632 1.478 . S
C631 H625 0.930 . S
C631 C627 1.400 . S
C631 C630 1.385 . S
C632 C630 1.478 . S
C632 C634 1.381 . S
C632 C638 1.383 . S
C633 C629 1.495 . S
C633 H639 0.959 . S
C633 H640 0.961 . S
C633 H641 0.960 . S
C634 C632 1.381 . S
C634 C635 1.394 . S
C634 H642 0.930 . S
C635 C634 1.394 . S
C635 C636 1.383 . S
C635 H643 0.929 . S
C636 C635 1.383 . S
C636 C637 1.377 . S
C637 H621 0.930 . S
C637 C636 1.377 . S
C637 C638 1.379 . S
C638 H622 0.931 . S
C638 C632 1.383 . S
C638 C637 1.379 . S
H639 C633 0.959 . S
H640 C633 0.961 . S
H641 C633 0.960 . S
H642 C634 0.930 . S
H643 C635 0.929 . S
H644 C652 0.929 . S
H645 C654 0.930 . S
H646 C656 0.930 . S
H647 C659 0.929 . S
H648 C662 0.930 . S
H649 C664 0.960 . S
H650 C664 0.960 . S
H651 C664 0.960 . S
C652 H644 0.929 . S
C652 C653 1.377 . S
C652 C654 1.384 . S
C653 C652 1.377 . S
C653 C659 1.390 . S
C654 H645 0.930 . S
C654 C652 1.384 . S
C654 C655 1.372 . S
C655 C654 1.372 . S
C655 C656 1.400 . S
C655 C660 1.490 . S
C656 H646 0.930 . S
C656 C655 1.400 . S
C656 C659 1.386 . S
H657 C673 0.930 . S
H658 C674 0.931 . S
C659 H647 0.929 . S
C659 C653 1.390 . S
C659 C656 1.386 . S
C660 C655 1.490 . S
C660 C662 1.395 1_655 S
C660 C663 1.403 . S
H661 C667 0.930 . S
C662 H648 0.930 . S
C662 C660 1.395 1_455 S
C662 C665 1.403 . S
C663 C660 1.403 . S
C663 C664 1.524 . S
C663 C667 1.400 . S
C664 H649 0.960 . S
C664 H650 0.960 . S
C664 H651 0.960 . S
C664 C663 1.524 . S
C665 C662 1.403 . S
C665 C666 1.392 . S
C665 C669 1.495 . S
C666 C665 1.392 . S
C666 C667 1.385 1_455 S
C666 C668 1.478 . S
C667 H661 0.930 . S
C667 C663 1.400 . S
C667 C666 1.385 1_655 S
C668 C666 1.478 . S
C668 C670 1.381 . S
C668 C674 1.383 . S
C669 C665 1.495 . S
C669 H675 0.959 . S
C669 H676 0.961 . S
C669 H677 0.960 . S
C670 C668 1.381 . S
C670 C671 1.394 . S
C670 H678 0.930 . S
C671 C670 1.394 . S
C671 C672 1.383 . S
C671 H679 0.929 . S
C672 C671 1.383 . S
C672 C673 1.377 . S
C673 H657 0.930 . S
C673 C672 1.377 . S
C673 C674 1.379 . S
C674 H658 0.931 . S
C674 C668 1.383 . S
C674 C673 1.379 . S
H675 C669 0.959 . S
H676 C669 0.961 . S
H677 C669 0.960 . S
H678 C670 0.930 . S
H679 C671 0.929 . S
H680 C688 0.929 . S
H681 C690 0.930 . S
H682 C692 0.930 . S
H683 C695 0.929 . S
H684 C698 0.930 . S
H685 C700 0.960 . S
H686 C700 0.960 . S
H687 C700 0.960 . S
C688 H680 0.929 . S
C688 C689 1.377 . S
C688 C690 1.384 . S
C689 C688 1.377 . S
C689 C695 1.390 . S
C690 H681 0.930 . S
C690 C688 1.384 . S
C690 C691 1.372 . S
C691 C690 1.372 . S
C691 C692 1.400 . S
C691 C696 1.490 . S
C692 H682 0.930 . S
C692 C691 1.400 . S
C692 C695 1.386 . S
H693 C709 0.930 . S
H694 C710 0.931 . S
C695 H683 0.929 . S
C695 C689 1.390 . S
C695 C692 1.386 . S
C696 C691 1.490 . S
C696 C698 1.395 1_565 S
C696 C699 1.403 . S
H697 C703 0.930 . S
C698 H684 0.930 . S
C698 C696 1.395 1_545 S
C698 C701 1.403 . S
C699 C696 1.403 . S
C699 C700 1.524 . S
C699 C703 1.400 . S
C700 H685 0.960 . S
C700 H686 0.960 . S
C700 H687 0.960 . S
C700 C699 1.524 . S
C701 C698 1.403 . S
C701 C702 1.392 . S
C701 C705 1.495 . S
C702 C701 1.392 . S
C702 C703 1.385 1_545 S
C702 C704 1.478 . S
C703 H697 0.930 . S
C703 C699 1.400 . S
C703 C702 1.385 1_565 S
C704 C702 1.478 . S
C704 C706 1.381 . S
C704 C710 1.383 . S
C705 C701 1.495 . S
C705 H711 0.959 . S
C705 H712 0.961 . S
C705 H713 0.960 . S
C706 C704 1.381 . S
C706 C707 1.394 . S
C706 H714 0.930 . S
C707 C706 1.394 . S
C707 C708 1.383 . S
C707 H715 0.929 . S
C708 C707 1.383 . S
C708 C709 1.377 . S
C709 H693 0.930 . S
C709 C708 1.377 . S
C709 C710 1.379 . S
C710 H694 0.931 . S
C710 C704 1.383 . S
C710 C709 1.379 . S
H711 C705 0.959 . S
H712 C705 0.961 . S
H713 C705 0.960 . S
H714 C706 0.930 . S
H715 C707 0.929 . S
H716 C724 0.929 . S
H717 C726 0.930 . S
H718 C728 0.930 . S
H719 C731 0.929 . S
H720 C734 0.930 . S
H721 C736 0.960 . S
H722 C736 0.960 . S
H723 C736 0.960 . S
C724 H716 0.929 . S
C724 C725 1.377 . S
C724 C726 1.384 . S
C725 C724 1.377 . S
C725 C731 1.390 . S
C726 H717 0.930 . S
C726 C724 1.384 . S
C726 C727 1.372 . S
C727 C726 1.372 . S
C727 C728 1.400 . S
C727 C732 1.490 . S
C728 H718 0.930 . S
C728 C727 1.400 . S
C728 C731 1.386 . S
H729 C745 0.930 . S
H730 C746 0.931 . S
C731 H719 0.929 . S
C731 C725 1.390 . S
C731 C728 1.386 . S
C732 C727 1.490 . S
C732 C734 1.395 . S
C732 C735 1.403 . S
H733 C739 0.930 . S
C734 H720 0.930 . S
C734 C732 1.395 . S
C734 C737 1.403 . S
C735 C732 1.403 . S
C735 C736 1.524 . S
C735 C739 1.400 . S
C736 H721 0.960 . S
C736 H722 0.960 . S
C736 H723 0.960 . S
C736 C735 1.524 . S
C737 C734 1.403 . S
C737 C738 1.392 . S
C737 C741 1.495 . S
C738 C737 1.392 . S
C738 C739 1.385 . S
C738 C740 1.478 . S
C739 H733 0.930 . S
C739 C735 1.400 . S
C739 C738 1.385 . S
C740 C738 1.478 . S
C740 C742 1.381 . S
C740 C746 1.383 . S
C741 C737 1.495 . S
C741 H747 0.959 . S
C741 H748 0.961 . S
C741 H749 0.960 . S
C742 C740 1.381 . S
C742 C743 1.394 . S
C742 H750 0.930 . S
C743 C742 1.394 . S
C743 C744 1.383 . S
C743 H751 0.929 . S
C744 C743 1.383 . S
C744 C745 1.377 . S
C745 H729 0.930 . S
C745 C744 1.377 . S
C745 C746 1.379 . S
C746 H730 0.931 . S
C746 C740 1.383 . S
C746 C745 1.379 . S
H747 C741 0.959 . S
H748 C741 0.961 . S
H749 C741 0.960 . S
H750 C742 0.930 . S
H751 C743 0.929 . S
H752 C760 0.929 . S
H753 C762 0.930 1_565 S
H754 C764 0.930 . S
H755 C767 0.929 . S
H756 C770 0.930 . S
H757 C772 0.960 . S
H758 C772 0.960 . S
H759 C772 0.960 . S
C760 H752 0.929 . S
C760 C761 1.377 . S
C760 C762 1.384 . S
C761 C760 1.377 . S
C761 C767 1.390 . S
C762 H753 0.930 1_545 S
C762 C760 1.384 . S
C762 C763 1.372 . S
C763 C762 1.372 . S
C763 C764 1.400 . S
C763 C768 1.490 . S
C764 H754 0.930 . S
C764 C763 1.400 . S
C764 C767 1.386 . S
H765 C781 0.930 . S
H766 C782 0.927 1_545 S
C767 H755 0.929 . S
C767 C761 1.390 . S
C767 C764 1.386 . S
C768 C763 1.490 . S
C768 C770 1.395 1_545 S
C768 C771 1.403 . S
H769 C775 0.930 . S
C770 H756 0.930 . S
C770 C768 1.395 1_565 S
C770 C773 1.403 . S
C771 C768 1.403 . S
C771 C772 1.524 . S
C771 C775 1.400 1_545 S
C772 H757 0.960 . S
C772 H758 0.960 . S
C772 H759 0.960 . S
C772 C771 1.524 . S
C773 C770 1.403 . S
C773 C774 1.392 . S
C773 C777 1.495 . S
C774 C773 1.392 . S
C774 C775 1.385 . S
C774 C776 1.478 . S
C775 H769 0.930 . S
C775 C771 1.400 1_565 S
C775 C774 1.385 . S
C776 C774 1.478 . S
C776 C778 1.381 . S
C776 C782 1.383 . S
C777 C773 1.495 . S
C777 H783 0.959 . S
C777 H784 0.961 . S
C777 H785 0.960 . S
C778 C776 1.381 . S
C778 C779 1.394 . S
C778 H786 0.930 . S
C779 C778 1.394 . S
C779 C780 1.383 . S
C779 H787 0.929 . S
C780 C779 1.383 . S
C780 C781 1.377 . S
C781 H765 0.930 . S
C781 C780 1.377 . S
C781 C782 1.379 . S
C782 H766 0.927 1_565 S
C782 C776 1.383 . S
C782 C781 1.379 . S
H783 C777 0.959 . S
H784 C777 0.961 . S
H785 C777 0.960 . S
H786 C778 0.930 . S
H787 C779 0.929 . S
H788 C796 0.929 . S
H789 C798 0.930 . S
H790 C800 0.930 . S
H791 C803 0.929 . S
H792 C806 0.930 . S
H793 C808 0.960 . S
H794 C808 0.960 . S
H795 C808 0.960 . S
C796 H788 0.929 . S
C796 C797 1.377 . S
C796 C798 1.384 . S
C797 C796 1.377 . S
C797 C803 1.390 . S
C798 H789 0.930 . S
C798 C796 1.384 . S
C798 C799 1.372 . S
C799 C798 1.372 . S
C799 C800 1.400 . S
C799 C804 1.490 . S
C800 H790 0.930 . S
C800 C799 1.400 . S
C800 C803 1.386 . S
H801 C817 0.930 . S
H802 C818 0.931 . S
C803 H791 0.929 . S
C803 C797 1.390 . S
C803 C800 1.386 . S
C804 C799 1.490 . S
C804 C806 1.395 . S
C804 C807 1.403 . S
H805 C811 0.930 . S
C806 H792 0.930 . S
C806 C804 1.395 . S
C806 C809 1.403 . S
C807 C804 1.403 . S
C807 C808 1.524 . S
C807 C811 1.400 . S
C808 H793 0.960 . S
C808 H794 0.960 . S
C808 H795 0.960 . S
C808 C807 1.524 . S
C809 C806 1.403 . S
C809 C810 1.392 . S
C809 C813 1.495 . S
C810 C809 1.392 . S
C810 C811 1.385 . S
C810 C812 1.478 . S
C811 H805 0.930 . S
C811 C807 1.400 . S
C811 C810 1.385 . S
C812 C810 1.478 . S
C812 C814 1.381 . S
C812 C818 1.383 . S
C813 C809 1.495 . S
C813 H819 0.959 . S
C813 H820 0.961 . S
C813 H821 0.960 . S
C814 C812 1.381 . S
C814 C815 1.394 . S
C814 H822 0.930 . S
C815 C814 1.394 . S
C815 C816 1.383 . S
C815 H823 0.929 . S
C816 C815 1.383 . S
C816 C817 1.377 . S
C817 H801 0.930 . S
C817 C816 1.377 . S
C817 C818 1.379 . S
C818 H802 0.931 . S
C818 C812 1.383 . S
C818 C817 1.379 . S
H819 C813 0.959 . S
H820 C813 0.961 . S
H821 C813 0.960 . S
H822 C814 0.930 . S
H823 C815 0.929 . S
H824 C832 0.929 . S
H825 C834 0.930 . S
H826 C836 0.930 . S
H827 C839 0.929 . S
H828 C842 0.930 . S
H829 C844 0.960 . S
H830 C844 0.960 . S
H831 C844 0.960 . S
C832 H824 0.929 . S
C832 C833 1.377 . S
C832 C834 1.384 . S
C833 C832 1.377 . S
C833 C839 1.390 . S
C834 H825 0.930 . S
C834 C832 1.384 . S
C834 C835 1.372 . S
C835 C834 1.372 . S
C835 C836 1.400 . S
C835 C840 1.490 . S
C836 H826 0.930 . S
C836 C835 1.400 . S
C836 C839 1.386 . S
H837 C853 0.930 . S
H838 C854 0.931 . S
C839 H827 0.929 . S
C839 C833 1.390 . S
C839 C836 1.386 . S
C840 C835 1.490 . S
C840 C842 1.395 . S
C840 C843 1.403 . S
H841 C847 0.930 . S
C842 H828 0.930 . S
C842 C840 1.395 . S
C842 C845 1.403 . S
C843 C840 1.403 . S
C843 C844 1.524 . S
C843 C847 1.400 . S
C844 H829 0.960 . S
C844 H830 0.960 . S
C844 H831 0.960 . S
C844 C843 1.524 . S
C845 C842 1.403 . S
C845 C846 1.392 . S
C845 C849 1.495 . S
C846 C845 1.392 . S
C846 C847 1.385 . S
C846 C848 1.478 . S
C847 H841 0.930 . S
C847 C843 1.400 . S
C847 C846 1.385 . S
C848 C846 1.478 . S
C848 C850 1.381 . S
C848 C854 1.383 . S
C849 C845 1.495 . S
C849 H855 0.959 . S
C849 H856 0.961 . S
C849 H857 0.960 . S
C850 C848 1.381 . S
C850 C851 1.394 . S
C850 H858 0.930 . S
C851 C850 1.394 . S
C851 C852 1.383 . S
C851 H859 0.929 . S
C852 C851 1.383 . S
C852 C853 1.377 . S
C853 H837 0.930 . S
C853 C852 1.377 . S
C853 C854 1.379 . S
C854 H838 0.931 . S
C854 C848 1.383 . S
C854 C853 1.379 . S
H855 C849 0.959 . S
H856 C849 0.961 . S
H857 C849 0.960 . S
H858 C850 0.930 . S
H859 C851 0.929 . S
H860 C868 0.929 . S
H861 C870 0.930 1_655 S
H862 C872 0.930 . S
H863 C875 0.929 . S
H864 C878 0.930 . S
H865 C880 0.960 . S
H866 C880 0.960 . S
H867 C880 0.960 . S
C868 H860 0.929 . S
C868 C869 1.377 . S
C868 C870 1.384 . S
C869 C868 1.377 . S
C869 C875 1.390 . S
C870 H861 0.930 1_455 S
C870 C868 1.384 . S
C870 C871 1.372 . S
C871 C870 1.372 . S
C871 C872 1.400 . S
C871 C876 1.490 . S
C872 H862 0.930 . S
C872 C871 1.400 . S
C872 C875 1.386 . S
H873 C889 0.930 . S
H874 C890 0.931 . S
C875 H863 0.929 . S
C875 C869 1.390 . S
C875 C872 1.386 . S
C876 C871 1.490 . S
C876 C878 1.395 1_455 S
C876 C879 1.403 . S
H877 C883 0.930 . S
C878 H864 0.930 . S
C878 C876 1.395 1_655 S
C878 C881 1.403 . S
C879 C876 1.403 . S
C879 C880 1.524 . S
C879 C883 1.400 . S
C880 H865 0.960 . S
C880 H866 0.960 . S
C880 H867 0.960 . S
C880 C879 1.524 . S
C881 C878 1.403 . S
C881 C882 1.392 . S
C881 C885 1.495 . S
C882 C881 1.392 . S
C882 C883 1.385 1_655 S
C882 C884 1.478 . S
C883 H877 0.930 . S
C883 C879 1.400 . S
C883 C882 1.385 1_455 S
C884 C882 1.478 . S
C884 C886 1.381 . S
C884 C890 1.383 . S
C885 C881 1.495 . S
C885 H891 0.959 . S
C885 H892 0.961 . S
C885 H893 0.960 . S
C886 C884 1.381 . S
C886 C887 1.394 . S
C886 H894 0.930 . S
C887 C886 1.394 . S
C887 C888 1.383 . S
C887 H895 0.929 . S
C888 C887 1.383 . S
C888 C889 1.377 . S
C889 H873 0.930 . S
C889 C888 1.377 . S
C889 C890 1.379 . S
C890 H874 0.931 . S
C890 C884 1.383 . S
C890 C889 1.379 . S
H891 C885 0.959 . S
H892 C885 0.961 . S
H893 C885 0.960 . S
H894 C886 0.930 . S
H895 C887 0.929 . S
H896 C904 0.929 . S
H897 C906 0.930 . S
H898 C908 0.930 . S
H899 C911 0.929 . S
H900 C914 0.930 . S
H901 C916 0.960 . S
H902 C916 0.960 . S
H903 C916 0.960 . S
C904 H896 0.929 . S
C904 C905 1.377 . S
C904 C906 1.384 . S
C905 C904 1.377 . S
C905 C911 1.390 . S
C906 H897 0.930 . S
C906 C904 1.384 . S
C906 C907 1.372 . S
C907 C906 1.372 . S
C907 C908 1.400 . S
C907 C912 1.490 . S
C908 H898 0.930 . S
C908 C907 1.400 . S
C908 C911 1.386 . S
H909 C925 0.930 . S
H910 C926 0.931 . S
C911 H899 0.929 . S
C911 C905 1.390 . S
C911 C908 1.386 . S
C912 C907 1.490 . S
C912 C914 1.395 . S
C912 C915 1.403 . S
H913 C919 0.930 . S
C914 H900 0.930 . S
C914 C912 1.395 . S
C914 C917 1.403 . S
C915 C912 1.403 . S
C915 C916 1.524 . S
C915 C919 1.400 . S
C916 H901 0.960 . S
C916 H902 0.960 . S
C916 H903 0.960 . S
C916 C915 1.524 . S
C917 C914 1.403 . S
C917 C918 1.392 . S
C917 C921 1.495 . S
C918 C917 1.392 . S
C918 C919 1.385 . S
C918 C920 1.478 . S
C919 H913 0.930 . S
C919 C915 1.400 . S
C919 C918 1.385 . S
C920 C918 1.478 . S
C920 C922 1.381 . S
C920 C926 1.383 . S
C921 C917 1.495 . S
C921 H927 0.959 . S
C921 H928 0.961 . S
C921 H929 0.960 . S
C922 C920 1.381 . S
C922 C923 1.394 . S
C922 H930 0.930 . S
C923 C922 1.394 . S
C923 C924 1.383 . S
C923 H931 0.929 . S
C924 C923 1.383 . S
C924 C925 1.377 . S
C925 H909 0.930 . S
C925 C924 1.377 . S
C925 C926 1.379 . S
C926 H910 0.931 . S
C926 C920 1.383 . S
C926 C925 1.379 . S
H927 C921 0.959 . S
H928 C921 0.961 . S
H929 C921 0.960 . S
H930 C922 0.930 . S
H931 C923 0.929 . S
H932 C940 0.929 . S
H933 C942 0.930 . S
H934 C944 0.930 . S
H935 C947 0.929 . S
H936 C950 0.930 . S
H937 C952 0.960 . S
H938 C952 0.960 . S
H939 C952 0.960 . S
C940 H932 0.929 . S
C940 C941 1.377 . S
C940 C942 1.384 . S
C941 C940 1.377 . S
C941 C947 1.390 . S
C942 H933 0.930 . S
C942 C940 1.384 . S
C942 C943 1.372 . S
C943 C942 1.372 . S
C943 C944 1.400 . S
C943 C948 1.490 . S
C944 H934 0.930 . S
C944 C943 1.400 . S
C944 C947 1.386 . S
H945 C961 0.930 . S
H946 C962 0.931 . S
C947 H935 0.929 . S
C947 C941 1.390 . S
C947 C944 1.386 . S
C948 C943 1.490 . S
C948 C950 1.395 . S
C948 C951 1.403 . S
H949 C955 0.930 . S
C950 H936 0.930 . S
C950 C948 1.395 . S
C950 C953 1.403 . S
C951 C948 1.403 . S
C951 C952 1.524 . S
C951 C955 1.400 . S
C952 H937 0.960 . S
C952 H938 0.960 . S
C952 H939 0.960 . S
C952 C951 1.524 . S
C953 C950 1.403 . S
C953 C954 1.392 . S
C953 C957 1.495 . S
C954 C953 1.392 . S
C954 C955 1.385 . S
C954 C956 1.478 . S
C955 H949 0.930 . S
C955 C951 1.400 . S
C955 C954 1.385 . S
C956 C954 1.478 . S
C956 C958 1.381 . S
C956 C962 1.383 . S
C957 C953 1.495 . S
C957 H963 0.959 . S
C957 H964 0.961 . S
C957 H965 0.960 . S
C958 C956 1.381 . S
C958 C959 1.394 . S
C958 H966 0.930 . S
C959 C958 1.394 . S
C959 C960 1.383 . S
C959 H967 0.929 . S
C960 C959 1.383 . S
C960 C961 1.377 . S
C961 H945 0.930 . S
C961 C960 1.377 . S
C961 C962 1.379 . S
C962 H946 0.931 . S
C962 C956 1.383 . S
C962 C961 1.379 . S
H963 C957 0.959 . S
H964 C957 0.961 . S
H965 C957 0.960 . S
H966 C958 0.930 . S
H967 C959 0.929 . S
H968 C976 0.929 . S
H969 C978 0.930 . S
H970 C980 0.930 . S
H971 C983 0.929 . S
H972 C986 0.930 . S
H973 C988 0.960 . S
H974 C988 0.960 . S
H975 C988 0.960 . S
C976 H968 0.929 . S
C976 C977 1.377 . S
C976 C978 1.384 . S
C977 C976 1.377 . S
C977 C983 1.390 . S
C978 H969 0.930 . S
C978 C976 1.384 . S
C978 C979 1.372 . S
C979 C978 1.372 . S
C979 C980 1.400 . S
C979 C984 1.490 . S
C980 H970 0.930 . S
C980 C979 1.400 . S
C980 C983 1.386 . S
H981 C997 0.930 . S
H982 C998 0.931 . S
C983 H971 0.929 . S
C983 C977 1.390 . S
C983 C980 1.386 . S
C984 C979 1.490 . S
C984 C986 1.395 . S
C984 C987 1.403 . S
H985 C991 0.930 . S
C986 H972 0.930 . S
C986 C984 1.395 . S
C986 C989 1.403 . S
C987 C984 1.403 . S
C987 C988 1.524 . S
C987 C991 1.400 . S
C988 H973 0.960 . S
C988 H974 0.960 . S
C988 H975 0.960 . S
C988 C987 1.524 . S
C989 C986 1.403 . S
C989 C990 1.392 . S
C989 C993 1.495 . S
C990 C989 1.392 . S
C990 C991 1.385 . S
C990 C992 1.478 . S
C991 H985 0.930 . S
C991 C987 1.400 . S
C991 C990 1.385 . S
C992 C990 1.478 . S
C992 C994 1.381 . S
C992 C998 1.383 . S
C993 C989 1.495 . S
C993 H999 0.959 . S
C993 H1000 0.961 . S
C993 H1001 0.960 . S
C994 C992 1.381 . S
C994 C995 1.394 . S
C994 H1002 0.930 . S
C995 C994 1.394 . S
C995 C996 1.383 . S
C995 H1003 0.929 . S
C996 C995 1.383 . S
C996 C997 1.377 . S
C997 H981 0.930 . S
C997 C996 1.377 . S
C997 C998 1.379 . S
C998 H982 0.931 . S
C998 C992 1.383 . S
C998 C997 1.379 . S
H999 C993 0.959 . S
H1000 C993 0.961 . S
H1001 C993 0.960 . S
H1002 C994 0.930 . S
H1003 C995 0.929 . S
H1004 C1012 0.929 . S
H1005 C1014 0.930 . S
H1006 C1016 0.930 . S
H1007 C1019 0.929 . S
H1008 C1022 0.930 . S
H1009 C1024 0.960 . S
H1010 C1024 0.960 . S
H1011 C1024 0.960 . S
C1012 H1004 0.929 . S
C1012 C1013 1.377 . S
C1012 C1014 1.384 . S
C1013 C1012 1.377 . S
C1013 C1019 1.390 . S
C1014 H1005 0.930 . S
C1014 C1012 1.384 . S
C1014 C1015 1.372 . S
C1015 C1014 1.372 . S
C1015 C1016 1.400 . S
C1015 C1020 1.490 . S
C1016 H1006 0.930 . S
C1016 C1015 1.400 . S
C1016 C1019 1.386 . S
H1017 C1033 0.930 . S
H1018 C1034 0.931 . S
C1019 H1007 0.929 . S
C1019 C1013 1.390 . S
C1019 C1016 1.386 . S
C1020 C1015 1.490 . S
C1020 C1022 1.395 . S
C1020 C1023 1.403 . S
H1021 C1027 0.930 . S
C1022 H1008 0.930 . S
C1022 C1020 1.395 . S
C1022 C1025 1.403 . S
C1023 C1020 1.403 . S
C1023 C1024 1.524 . S
C1023 C1027 1.400 . S
C1024 H1009 0.960 . S
C1024 H1010 0.960 . S
C1024 H1011 0.960 . S
C1024 C1023 1.524 . S
C1025 C1022 1.403 . S
C1025 C1026 1.392 . S
C1025 C1029 1.495 . S
C1026 C1025 1.392 . S
C1026 C1027 1.385 . S
C1026 C1028 1.478 . S
C1027 H1021 0.930 . S
C1027 C1023 1.400 . S
C1027 C1026 1.385 . S
C1028 C1026 1.478 . S
C1028 C1030 1.381 . S
C1028 C1034 1.383 . S
C1029 C1025 1.495 . S
C1029 H1035 0.959 . S
C1029 H1036 0.961 . S
C1029 H1037 0.960 . S
C1030 C1028 1.381 . S
C1030 C1031 1.394 . S
C1030 H1038 0.930 . S
C1031 C1030 1.394 . S
C1031 C1032 1.383 . S
C1031 H1039 0.929 . S
C1032 C1031 1.383 . S
C1032 C1033 1.377 . S
C1033 H1017 0.930 . S
C1033 C1032 1.377 . S
C1033 C1034 1.379 . S
C1034 H1018 0.931 . S
C1034 C1028 1.383 . S
C1034 C1033 1.379 . S
H1035 C1029 0.959 . S
H1036 C1029 0.961 . S
H1037 C1029 0.960 . S
H1038 C1030 0.930 . S
H1039 C1031 0.929 . S
H1040 C1048 0.929 . S
H1041 C1050 0.930 . S
H1042 C1052 0.930 . S
H1043 C1055 0.929 . S
H1044 C1058 0.930 . S
H1045 C1060 0.960 . S
H1046 C1060 0.960 . S
H1047 C1060 0.960 . S
C1048 H1040 0.929 . S
C1048 C1049 1.377 . S
C1048 C1050 1.384 . S
C1049 C1048 1.377 . S
C1049 C1055 1.390 . S
C1050 H1041 0.930 . S
C1050 C1048 1.384 . S
C1050 C1051 1.372 . S
C1051 C1050 1.372 . S
C1051 C1052 1.400 . S
C1051 C1056 1.490 . S
C1052 H1042 0.930 . S
C1052 C1051 1.400 . S
C1052 C1055 1.386 . S
H1053 C1069 0.930 . S
H1054 C1070 0.931 . S
C1055 H1043 0.929 . S
C1055 C1049 1.390 . S
C1055 C1052 1.386 . S
C1056 C1051 1.490 . S
C1056 C1058 1.395 . S
C1056 C1059 1.403 . S
H1057 C1063 0.930 . S
C1058 H1044 0.930 . S
C1058 C1056 1.395 . S
C1058 C1061 1.403 . S
C1059 C1056 1.403 . S
C1059 C1060 1.524 . S
C1059 C1063 1.400 . S
C1060 H1045 0.960 . S
C1060 H1046 0.960 . S
C1060 H1047 0.960 . S
C1060 C1059 1.524 . S
C1061 C1058 1.403 . S
C1061 C1062 1.392 . S
C1061 C1065 1.495 . S
C1062 C1061 1.392 . S
C1062 C1063 1.385 . S
C1062 C1064 1.478 . S
C1063 H1057 0.930 . S
C1063 C1059 1.400 . S
C1063 C1062 1.385 . S
C1064 C1062 1.478 . S
C1064 C1066 1.381 . S
C1064 C1070 1.383 . S
C1065 C1061 1.495 . S
C1065 H1071 0.959 . S
C1065 H1072 0.961 . S
C1065 H1073 0.960 . S
C1066 C1064 1.381 . S
C1066 C1067 1.394 . S
C1066 H1074 0.930 . S
C1067 C1066 1.394 . S
C1067 C1068 1.383 . S
C1067 H1075 0.929 . S
C1068 C1067 1.383 . S
C1068 C1069 1.377 . S
C1069 H1053 0.930 . S
C1069 C1068 1.377 . S
C1069 C1070 1.379 . S
C1070 H1054 0.931 . S
C1070 C1064 1.383 . S
C1070 C1069 1.379 . S
H1071 C1065 0.959 . S
H1072 C1065 0.961 . S
H1073 C1065 0.960 . S
H1074 C1066 0.930 . S
H1075 C1067 0.929 . S
H1076 C1084 0.929 . S
H1077 C1086 0.930 . S
H1078 C1088 0.930 . S
H1079 C1091 0.929 . S
H1080 C1094 0.930 . S
H1081 C1096 0.960 . S
H1082 C1096 0.960 . S
H1083 C1096 0.960 . S
C1084 H1076 0.929 . S
C1084 C1085 1.377 . S
C1084 C1086 1.384 . S
C1085 C1084 1.377 . S
C1085 C1091 1.390 . S
C1086 H1077 0.930 . S
C1086 C1084 1.384 . S
C1086 C1087 1.372 . S
C1087 C1086 1.372 . S
C1087 C1088 1.400 . S
C1087 C1092 1.490 . S
C1088 H1078 0.930 . S
C1088 C1087 1.400 . S
C1088 C1091 1.386 . S
H1089 C1105 0.930 . S
H1090 C1106 0.931 . S
C1091 H1079 0.929 . S
C1091 C1085 1.390 . S
C1091 C1088 1.386 . S
C1092 C1087 1.490 . S
C1092 C1094 1.395 . S
C1092 C1095 1.403 . S
H1093 C1099 0.930 . S
C1094 H1080 0.930 . S
C1094 C1092 1.395 . S
C1094 C1097 1.403 . S
C1095 C1092 1.403 . S
C1095 C1096 1.524 . S
C1095 C1099 1.400 . S
C1096 H1081 0.960 . S
C1096 H1082 0.960 . S
C1096 H1083 0.960 . S
C1096 C1095 1.524 . S
C1097 C1094 1.403 . S
C1097 C1098 1.392 . S
C1097 C1101 1.495 . S
C1098 C1097 1.392 . S
C1098 C1099 1.385 . S
C1098 C1100 1.478 . S
C1099 H1093 0.930 . S
C1099 C1095 1.400 . S
C1099 C1098 1.385 . S
C1100 C1098 1.478 . S
C1100 C1102 1.381 . S
C1100 C1106 1.383 . S
C1101 C1097 1.495 . S
C1101 H1107 0.959 . S
C1101 H1108 0.961 . S
C1101 H1109 0.960 . S
C1102 C1100 1.381 . S
C1102 C1103 1.394 . S
C1102 H1110 0.930 . S
C1103 C1102 1.394 . S
C1103 C1104 1.383 . S
C1103 H1111 0.929 . S
C1104 C1103 1.383 . S
C1104 C1105 1.377 . S
C1105 H1089 0.930 . S
C1105 C1104 1.377 . S
C1105 C1106 1.379 . S
C1106 H1090 0.931 . S
C1106 C1100 1.383 . S
C1106 C1105 1.379 . S
H1107 C1101 0.959 . S
H1108 C1101 0.961 . S
H1109 C1101 0.960 . S
H1110 C1102 0.930 . S
H1111 C1103 0.929 . S
H1112 C1120 0.929 . S
H1113 C1122 0.930 . S
H1114 C1124 0.930 . S
H1115 C1127 0.929 . S
H1116 C1130 0.930 . S
H1117 C1132 0.960 . S
H1118 C1132 0.960 . S
H1119 C1132 0.960 . S
C1120 H1112 0.929 . S
C1120 C1121 1.377 . S
C1120 C1122 1.384 . S
C1121 C1120 1.377 . S
C1121 C1127 1.390 . S
C1122 H1113 0.930 . S
C1122 C1120 1.384 . S
C1122 C1123 1.372 . S
C1123 C1122 1.372 . S
C1123 C1124 1.400 . S
C1123 C1128 1.490 . S
C1124 H1114 0.930 . S
C1124 C1123 1.400 . S
C1124 C1127 1.386 . S
H1125 C1141 0.930 . S
H1126 C1142 0.931 . S
C1127 H1115 0.929 . S
C1127 C1121 1.390 . S
C1127 C1124 1.386 . S
C1128 C1123 1.490 . S
C1128 C1130 1.395 . S
C1128 C1131 1.403 . S
H1129 C1135 0.930 . S
C1130 H1116 0.930 . S
C1130 C1128 1.395 . S
C1130 C1133 1.403 . S
C1131 C1128 1.403 . S
C1131 C1132 1.524 . S
C1131 C1135 1.400 . S
C1132 H1117 0.960 . S
C1132 H1118 0.960 . S
C1132 H1119 0.960 . S
C1132 C1131 1.524 . S
C1133 C1130 1.403 . S
C1133 C1134 1.392 . S
C1133 C1137 1.495 . S
C1134 C1133 1.392 . S
C1134 C1135 1.385 . S
C1134 C1136 1.478 . S
C1135 H1129 0.930 . S
C1135 C1131 1.400 . S
C1135 C1134 1.385 . S
C1136 C1134 1.478 . S
C1136 C1138 1.381 . S
C1136 C1142 1.383 . S
C1137 C1133 1.495 . S
C1137 H1143 0.959 . S
C1137 H1144 0.961 . S
C1137 H1145 0.960 . S
C1138 C1136 1.381 . S
C1138 C1139 1.394 . S
C1138 H1146 0.930 . S
C1139 C1138 1.394 . S
C1139 C1140 1.383 . S
C1139 H1147 0.929 . S
C1140 C1139 1.383 . S
C1140 C1141 1.377 . S
C1141 H1125 0.930 . S
C1141 C1140 1.377 . S
C1141 C1142 1.379 . S
C1142 H1126 0.931 . S
C1142 C1136 1.383 . S
C1142 C1141 1.379 . S
H1143 C1137 0.959 . S
H1144 C1137 0.961 . S
H1145 C1137 0.960 . S
H1146 C1138 0.930 . S
H1147 C1139 0.929 . S
H1148 C1156 0.929 . S
H1149 C1158 0.930 . S
H1150 C1160 0.930 . S
H1151 C1163 0.929 . S
H1152 C1166 0.930 . S
H1153 C1168 0.960 . S
H1154 C1168 0.960 . S
H1155 C1168 0.960 . S
C1156 H1148 0.929 . S
C1156 C1157 1.377 . S
C1156 C1158 1.384 . S
C1157 C1156 1.377 . S
C1157 C1163 1.390 . S
C1158 H1149 0.930 . S
C1158 C1156 1.384 . S
C1158 C1159 1.372 . S
C1159 C1158 1.372 . S
C1159 C1160 1.400 . S
C1159 C1164 1.490 . S
C1160 H1150 0.930 . S
C1160 C1159 1.400 . S
C1160 C1163 1.386 . S
H1161 C1177 0.930 . S
H1162 C1178 0.931 . S
C1163 H1151 0.929 . S
C1163 C1157 1.390 . S
C1163 C1160 1.386 . S
C1164 C1159 1.490 . S
C1164 C1166 1.395 . S
C1164 C1167 1.403 . S
H1165 C1171 0.930 . S
C1166 H1152 0.930 . S
C1166 C1164 1.395 . S
C1166 C1169 1.403 . S
C1167 C1164 1.403 . S
C1167 C1168 1.524 . S
C1167 C1171 1.400 . S
C1168 H1153 0.960 . S
C1168 H1154 0.960 . S
C1168 H1155 0.960 . S
C1168 C1167 1.524 . S
C1169 C1166 1.403 . S
C1169 C1170 1.392 . S
C1169 C1173 1.495 . S
C1170 C1169 1.392 . S
C1170 C1171 1.385 . S
C1170 C1172 1.478 . S
C1171 H1165 0.930 . S
C1171 C1167 1.400 . S
C1171 C1170 1.385 . S
C1172 C1170 1.478 . S
C1172 C1174 1.381 . S
C1172 C1178 1.383 . S
C1173 C1169 1.495 . S
C1173 H1179 0.959 . S
C1173 H1180 0.961 . S
C1173 H1181 0.960 . S
C1174 C1172 1.381 . S
C1174 C1175 1.394 . S
C1174 H1182 0.930 . S
C1175 C1174 1.394 . S
C1175 C1176 1.383 . S
C1175 H1183 0.929 . S
C1176 C1175 1.383 . S
C1176 C1177 1.377 . S
C1177 H1161 0.930 . S
C1177 C1176 1.377 . S
C1177 C1178 1.379 . S
C1178 H1162 0.931 . S
C1178 C1172 1.383 . S
C1178 C1177 1.379 . S
H1179 C1173 0.959 . S
H1180 C1173 0.961 . S
H1181 C1173 0.960 . S
H1182 C1174 0.930 . S
H1183 C1175 0.929 . S
H1184 C1192 0.929 . S
H1185 C1194 0.930 . S
H1186 C1196 0.930 . S
H1187 C1199 0.929 . S
H1188 C1202 0.930 . S
H1189 C1204 0.960 . S
H1190 C1204 0.960 . S
H1191 C1204 0.960 . S
C1192 H1184 0.929 . S
C1192 C1193 1.377 . S
C1192 C1194 1.384 . S
C1193 C1192 1.377 . S
C1193 C1199 1.390 . S
C1194 H1185 0.930 . S
C1194 C1192 1.384 . S
C1194 C1195 1.372 . S
C1195 C1194 1.372 . S
C1195 C1196 1.400 . S
C1195 C1200 1.490 . S
C1196 H1186 0.930 . S
C1196 C1195 1.400 . S
C1196 C1199 1.386 . S
H1197 C1213 0.930 . S
H1198 C1214 0.931 . S
C1199 H1187 0.929 . S
C1199 C1193 1.390 . S
C1199 C1196 1.386 . S
C1200 C1195 1.490 . S
C1200 C1202 1.395 . S
C1200 C1203 1.403 . S
H1201 C1207 0.930 . S
C1202 H1188 0.930 . S
C1202 C1200 1.395 . S
C1202 C1205 1.403 . S
C1203 C1200 1.403 . S
C1203 C1204 1.524 . S
C1203 C1207 1.400 . S
C1204 H1189 0.960 . S
C1204 H1190 0.960 . S
C1204 H1191 0.960 . S
C1204 C1203 1.524 . S
C1205 C1202 1.403 . S
C1205 C1206 1.392 . S
C1205 C1209 1.495 . S
C1206 C1205 1.392 . S
C1206 C1207 1.385 . S
C1206 C1208 1.478 . S
C1207 H1201 0.930 . S
C1207 C1203 1.400 . S
C1207 C1206 1.385 . S
C1208 C1206 1.478 . S
C1208 C1210 1.381 . S
C1208 C1214 1.383 . S
C1209 C1205 1.495 . S
C1209 H1215 0.959 . S
C1209 H1216 0.961 . S
C1209 H1217 0.960 . S
C1210 C1208 1.381 . S
C1210 C1211 1.394 . S
C1210 H1218 0.930 . S
C1211 C1210 1.394 . S
C1211 C1212 1.383 . S
C1211 H1219 0.929 . S
C1212 C1211 1.383 . S
C1212 C1213 1.377 . S
C1213 H1197 0.930 . S
C1213 C1212 1.377 . S
C1213 C1214 1.379 . S
C1214 H1198 0.931 . S
C1214 C1208 1.383 . S
C1214 C1213 1.379 . S
H1215 C1209 0.959 . S
H1216 C1209 0.961 . S
H1217 C1209 0.960 . S
H1218 C1210 0.930 . S
H1219 C1211 0.929 . S
H1220 C1228 0.929 . S
H1221 C1230 0.930 . S
H1222 C1232 0.930 . S
H1223 C1235 0.929 . S
H1224 C1238 0.930 . S
H1225 C1240 0.960 . S
H1226 C1240 0.960 . S
H1227 C1240 0.960 . S
C1228 H1220 0.929 . S
C1228 C1229 1.377 . S
C1228 C1230 1.384 . S
C1229 C1228 1.377 . S
C1229 C1235 1.390 . S
C1230 H1221 0.930 . S
C1230 C1228 1.384 . S
C1230 C1231 1.372 . S
C1231 C1230 1.372 . S
C1231 C1232 1.400 . S
C1231 C1236 1.490 . S
C1232 H1222 0.930 . S
C1232 C1231 1.400 . S
C1232 C1235 1.386 . S
H1233 C1249 0.930 . S
H1234 C1250 0.931 . S
C1235 H1223 0.929 . S
C1235 C1229 1.390 . S
C1235 C1232 1.386 . S
C1236 C1231 1.490 . S
C1236 C1238 1.395 . S
C1236 C1239 1.403 . S
H1237 C1243 0.930 . S
C1238 H1224 0.930 . S
C1238 C1236 1.395 . S
C1238 C1241 1.403 . S
C1239 C1236 1.403 . S
C1239 C1240 1.524 . S
C1239 C1243 1.400 . S
C1240 H1225 0.960 . S
C1240 H1226 0.960 . S
C1240 H1227 0.960 . S
C1240 C1239 1.524 . S
C1241 C1238 1.403 . S
C1241 C1242 1.392 . S
C1241 C1245 1.495 . S
C1242 C1241 1.392 . S
C1242 C1243 1.385 . S
C1242 C1244 1.478 . S
C1243 H1237 0.930 . S
C1243 C1239 1.400 . S
C1243 C1242 1.385 . S
C1244 C1242 1.478 . S
C1244 C1246 1.381 . S
C1244 C1250 1.383 . S
C1245 C1241 1.495 . S
C1245 H1251 0.959 . S
C1245 H1252 0.961 . S
C1245 H1253 0.960 . S
C1246 C1244 1.381 . S
C1246 C1247 1.394 . S
C1246 H1254 0.930 . S
C1247 C1246 1.394 . S
C1247 C1248 1.383 . S
C1247 H1255 0.929 . S
C1248 C1247 1.383 . S
C1248 C1249 1.377 . S
C1249 H1233 0.930 . S
C1249 C1248 1.377 . S
C1249 C1250 1.379 . S
C1250 H1234 0.931 . S
C1250 C1244 1.383 . S
C1250 C1249 1.379 . S
H1251 C1245 0.959 . S
H1252 C1245 0.961 . S
H1253 C1245 0.960 . S
H1254 C1246 0.930 . S
H1255 C1247 0.929 . S
H1256 C1264 0.929 . S
H1257 C1266 0.930 . S
H1258 C1268 0.930 . S
H1259 C1271 0.929 . S
H1260 C1274 0.930 . S
H1261 C1276 0.960 . S
H1262 C1276 0.960 . S
H1263 C1276 0.960 . S
C1264 H1256 0.929 . S
C1264 C1265 1.377 . S
C1264 C1266 1.384 . S
C1265 C1264 1.377 . S
C1265 C1271 1.390 . S
C1266 H1257 0.930 . S
C1266 C1264 1.384 . S
C1266 C1267 1.372 . S
C1267 C1266 1.372 . S
C1267 C1268 1.400 . S
C1267 C1272 1.490 . S
C1268 H1258 0.930 . S
C1268 C1267 1.400 . S
C1268 C1271 1.386 . S
H1269 C1285 0.930 . S
H1270 C1286 0.931 . S
C1271 H1259 0.929 . S
C1271 C1265 1.390 . S
C1271 C1268 1.386 . S
C1272 C1267 1.490 . S
C1272 C1274 1.395 . S
C1272 C1275 1.403 . S
H1273 C1279 0.930 . S
C1274 H1260 0.930 . S
C1274 C1272 1.395 . S
C1274 C1277 1.403 . S
C1275 C1272 1.403 . S
C1275 C1276 1.524 . S
C1275 C1279 1.400 . S
C1276 H1261 0.960 . S
C1276 H1262 0.960 . S
C1276 H1263 0.960 . S
C1276 C1275 1.524 . S
C1277 C1274 1.403 . S
C1277 C1278 1.392 . S
C1277 C1281 1.495 . S
C1278 C1277 1.392 . S
C1278 C1279 1.385 . S
C1278 C1280 1.478 . S
C1279 H1273 0.930 . S
C1279 C1275 1.400 . S
C1279 C1278 1.385 . S
C1280 C1278 1.478 . S
C1280 C1282 1.381 . S
C1280 C1286 1.383 . S
C1281 C1277 1.495 . S
C1281 H1287 0.959 . S
C1281 H1288 0.961 . S
C1281 H1289 0.960 . S
C1282 C1280 1.381 . S
C1282 C1283 1.394 . S
C1282 H1290 0.930 . S
C1283 C1282 1.394 . S
C1283 C1284 1.383 . S
C1283 H1291 0.929 . S
C1284 C1283 1.383 . S
C1284 C1285 1.377 . S
C1285 H1269 0.930 . S
C1285 C1284 1.377 . S
C1285 C1286 1.379 . S
C1286 H1270 0.931 . S
C1286 C1280 1.383 . S
C1286 C1285 1.379 . S
H1287 C1281 0.959 . S
H1288 C1281 0.961 . S
H1289 C1281 0.960 . S
H1290 C1282 0.930 . S
H1291 C1283 0.929 . S
H1292 C1300 0.929 . S
H1293 C1302 0.930 . S
H1294 C1304 0.930 . S
H1295 C1307 0.929 . S
H1296 C1310 0.930 . S
H1297 C1312 0.960 . S
H1298 C1312 0.960 . S
H1299 C1312 0.960 . S
C1300 H1292 0.929 . S
C1300 C1301 1.377 . S
C1300 C1302 1.384 . S
C1301 C1300 1.377 . S
C1301 C1307 1.390 . S
C1302 H1293 0.930 . S
C1302 C1300 1.384 . S
C1302 C1303 1.372 . S
C1303 C1302 1.372 . S
C1303 C1304 1.400 . S
C1303 C1308 1.490 . S
C1304 H1294 0.930 . S
C1304 C1303 1.400 . S
C1304 C1307 1.386 . S
H1305 C1321 0.930 . S
H1306 C1322 0.931 . S
C1307 H1295 0.929 . S
C1307 C1301 1.390 . S
C1307 C1304 1.386 . S
C1308 C1303 1.490 . S
C1308 C1310 1.395 . S
C1308 C1311 1.403 . S
H1309 C1315 0.930 . S
C1310 H1296 0.930 . S
C1310 C1308 1.395 . S
C1310 C1313 1.403 . S
C1311 C1308 1.403 . S
C1311 C1312 1.524 . S
C1311 C1315 1.400 . S
C1312 H1297 0.960 . S
C1312 H1298 0.960 . S
C1312 H1299 0.960 . S
C1312 C1311 1.524 . S
C1313 C1310 1.403 . S
C1313 C1314 1.392 . S
C1313 C1317 1.495 . S
C1314 C1313 1.392 . S
C1314 C1315 1.385 . S
C1314 C1316 1.478 . S
C1315 H1309 0.930 . S
C1315 C1311 1.400 . S
C1315 C1314 1.385 . S
C1316 C1314 1.478 . S
C1316 C1318 1.381 . S
C1316 C1322 1.383 . S
C1317 C1313 1.495 . S
C1317 H1323 0.959 . S
C1317 H1324 0.961 . S
C1317 H1325 0.960 . S
C1318 C1316 1.381 . S
C1318 C1319 1.394 . S
C1318 H1326 0.930 . S
C1319 C1318 1.394 . S
C1319 C1320 1.383 . S
C1319 H1327 0.929 . S
C1320 C1319 1.383 . S
C1320 C1321 1.377 . S
C1321 H1305 0.930 . S
C1321 C1320 1.377 . S
C1321 C1322 1.379 . S
C1322 H1306 0.931 . S
C1322 C1316 1.383 . S
C1322 C1321 1.379 . S
H1323 C1317 0.959 . S
H1324 C1317 0.961 . S
H1325 C1317 0.960 . S
H1326 C1318 0.930 . S
H1327 C1319 0.929 . S
H1328 C1336 0.929 . S
H1329 C1338 0.930 . S
H1330 C1340 0.930 . S
H1331 C1343 0.929 . S
H1332 C1346 0.930 . S
H1333 C1348 0.960 . S
H1334 C1348 0.960 . S
H1335 C1348 0.960 . S
C1336 H1328 0.929 . S
C1336 C1337 1.377 . S
C1336 C1338 1.384 . S
C1337 C1336 1.377 . S
C1337 C1343 1.390 . S
C1338 H1329 0.930 . S
C1338 C1336 1.384 . S
C1338 C1339 1.372 . S
C1339 C1338 1.372 . S
C1339 C1340 1.400 . S
C1339 C1344 1.490 . S
C1340 H1330 0.930 . S
C1340 C1339 1.400 . S
C1340 C1343 1.386 . S
H1341 C1357 0.930 . S
H1342 C1358 0.931 . S
C1343 H1331 0.929 . S
C1343 C1337 1.390 . S
C1343 C1340 1.386 . S
C1344 C1339 1.490 . S
C1344 C1346 1.395 . S
C1344 C1347 1.403 . S
H1345 C1351 0.930 . S
C1346 H1332 0.930 . S
C1346 C1344 1.395 . S
C1346 C1349 1.403 . S
C1347 C1344 1.403 . S
C1347 C1348 1.524 . S
C1347 C1351 1.400 . S
C1348 H1333 0.960 . S
C1348 H1334 0.960 . S
C1348 H1335 0.960 . S
C1348 C1347 1.524 . S
C1349 C1346 1.403 . S
C1349 C1350 1.392 . S
C1349 C1353 1.495 . S
C1350 C1349 1.392 . S
C1350 C1351 1.385 . S
C1350 C1352 1.478 . S
C1351 H1345 0.930 . S
C1351 C1347 1.400 . S
C1351 C1350 1.385 . S
C1352 C1350 1.478 . S
C1352 C1354 1.381 . S
C1352 C1358 1.383 . S
C1353 C1349 1.495 . S
C1353 H1359 0.959 . S
C1353 H1360 0.961 . S
C1353 H1361 0.960 . S
C1354 C1352 1.381 . S
C1354 C1355 1.394 . S
C1354 H1362 0.930 . S
C1355 C1354 1.394 . S
C1355 C1356 1.383 . S
C1355 H1363 0.929 . S
C1356 C1355 1.383 . S
C1356 C1357 1.377 . S
C1357 H1341 0.930 . S
C1357 C1356 1.377 . S
C1357 C1358 1.379 . S
C1358 H1342 0.931 . S
C1358 C1352 1.383 . S
C1358 C1357 1.379 . S
H1359 C1353 0.959 . S
H1360 C1353 0.961 . S
H1361 C1353 0.960 . S
H1362 C1354 0.930 . S
H1363 C1355 0.929 . S
H1364 C1372 0.929 . S
H1365 C1374 0.930 . S
H1366 C1376 0.930 . S
H1367 C1379 0.929 . S
H1368 C1382 0.930 . S
H1369 C1384 0.960 . S
H1370 C1384 0.960 . S
H1371 C1384 0.960 . S
C1372 H1364 0.929 . S
C1372 C1373 1.377 . S
C1372 C1374 1.384 . S
C1373 C1372 1.377 . S
C1373 C1379 1.390 . S
C1374 H1365 0.930 . S
C1374 C1372 1.384 . S
C1374 C1375 1.372 . S
C1375 C1374 1.372 . S
C1375 C1376 1.400 . S
C1375 C1380 1.490 . S
C1376 H1366 0.930 . S
C1376 C1375 1.400 . S
C1376 C1379 1.386 . S
H1377 C1393 0.930 . S
H1378 C1394 0.931 . S
C1379 H1367 0.929 . S
C1379 C1373 1.390 . S
C1379 C1376 1.386 . S
C1380 C1375 1.490 . S
C1380 C1382 1.395 . S
C1380 C1383 1.403 . S
H1381 C1387 0.930 . S
C1382 H1368 0.930 . S
C1382 C1380 1.395 . S
C1382 C1385 1.403 . S
C1383 C1380 1.403 . S
C1383 C1384 1.524 . S
C1383 C1387 1.400 . S
C1384 H1369 0.960 . S
C1384 H1370 0.960 . S
C1384 H1371 0.960 . S
C1384 C1383 1.524 . S
C1385 C1382 1.403 . S
C1385 C1386 1.392 . S
C1385 C1389 1.495 . S
C1386 C1385 1.392 . S
C1386 C1387 1.385 . S
C1386 C1388 1.478 . S
C1387 H1381 0.930 . S
C1387 C1383 1.400 . S
C1387 C1386 1.385 . S
C1388 C1386 1.478 . S
C1388 C1390 1.381 . S
C1388 C1394 1.383 . S
C1389 C1385 1.495 . S
C1389 H1395 0.959 . S
C1389 H1396 0.961 . S
C1389 H1397 0.960 . S
C1390 C1388 1.381 . S
C1390 C1391 1.394 . S
C1390 H1398 0.930 . S
C1391 C1390 1.394 . S
C1391 C1392 1.383 . S
C1391 H1399 0.929 . S
C1392 C1391 1.383 . S
C1392 C1393 1.377 . S
C1393 H1377 0.930 . S
C1393 C1392 1.377 . S
C1393 C1394 1.379 . S
C1394 H1378 0.931 . S
C1394 C1388 1.383 . S
C1394 C1393 1.379 . S
H1395 C1389 0.959 . S
H1396 C1389 0.961 . S
H1397 C1389 0.960 . S
H1398 C1390 0.930 . S
H1399 C1391 0.929 . S
H1400 C1408 0.929 . S
H1401 C1410 0.930 . S
H1402 C1412 0.930 . S
H1403 C1415 0.929 . S
H1404 C1418 0.930 . S
H1405 C1420 0.960 . S
H1406 C1420 0.960 . S
H1407 C1420 0.960 . S
C1408 H1400 0.929 . S
C1408 C1409 1.377 . S
C1408 C1410 1.384 . S
C1409 C1408 1.377 . S
C1409 C1415 1.390 . S
C1410 H1401 0.930 . S
C1410 C1408 1.384 . S
C1410 C1411 1.372 . S
C1411 C1410 1.372 . S
C1411 C1412 1.400 . S
C1411 C1416 1.490 . S
C1412 H1402 0.930 . S
C1412 C1411 1.400 . S
C1412 C1415 1.386 . S
H1413 C1429 0.930 . S
H1414 C1430 0.931 . S
C1415 H1403 0.929 . S
C1415 C1409 1.390 . S
C1415 C1412 1.386 . S
C1416 C1411 1.490 . S
C1416 C1418 1.395 . S
C1416 C1419 1.403 . S
H1417 C1423 0.930 . S
C1418 H1404 0.930 . S
C1418 C1416 1.395 . S
C1418 C1421 1.403 . S
C1419 C1416 1.403 . S
C1419 C1420 1.524 . S
C1419 C1423 1.400 . S
C1420 H1405 0.960 . S
C1420 H1406 0.960 . S
C1420 H1407 0.960 . S
C1420 C1419 1.524 . S
C1421 C1418 1.403 . S
C1421 C1422 1.392 . S
C1421 C1425 1.495 . S
C1422 C1421 1.392 . S
C1422 C1423 1.385 . S
C1422 C1424 1.478 . S
C1423 H1417 0.930 . S
C1423 C1419 1.400 . S
C1423 C1422 1.385 . S
C1424 C1422 1.478 . S
C1424 C1426 1.381 . S
C1424 C1430 1.383 . S
C1425 C1421 1.495 . S
C1425 H1431 0.959 . S
C1425 H1432 0.961 . S
C1425 H1433 0.960 . S
C1426 C1424 1.381 . S
C1426 C1427 1.394 . S
C1426 H1434 0.930 . S
C1427 C1426 1.394 . S
C1427 C1428 1.383 . S
C1427 H1435 0.929 . S
C1428 C1427 1.383 . S
C1428 C1429 1.377 . S
C1429 H1413 0.930 . S
C1429 C1428 1.377 . S
C1429 C1430 1.379 . S
C1430 H1414 0.931 . S
C1430 C1424 1.383 . S
C1430 C1429 1.379 . S
H1431 C1425 0.959 . S
H1432 C1425 0.961 . S
H1433 C1425 0.960 . S
H1434 C1426 0.930 . S
H1435 C1427 0.929 . S
H1436 C1444 0.929 . S
H1437 C1446 0.930 . S
H1438 C1448 0.930 . S
H1439 C1451 0.929 . S
H1440 C1454 0.930 . S
H1441 C1456 0.960 . S
H1442 C1456 0.960 . S
H1443 C1456 0.960 . S
C1444 H1436 0.929 . S
C1444 C1445 1.377 . S
C1444 C1446 1.384 . S
C1445 C1444 1.377 . S
C1445 C1451 1.390 . S
C1446 H1437 0.930 . S
C1446 C1444 1.384 . S
C1446 C1447 1.372 . S
C1447 C1446 1.372 . S
C1447 C1448 1.400 . S
C1447 C1452 1.490 . S
C1448 H1438 0.930 . S
C1448 C1447 1.400 . S
C1448 C1451 1.386 . S
H1449 C1465 0.930 . S
H1450 C1466 0.931 . S
C1451 H1439 0.929 . S
C1451 C1445 1.390 . S
C1451 C1448 1.386 . S
C1452 C1447 1.490 . S
C1452 C1454 1.395 . S
C1452 C1455 1.403 . S
H1453 C1459 0.930 . S
C1454 H1440 0.930 . S
C1454 C1452 1.395 . S
C1454 C1457 1.403 . S
C1455 C1452 1.403 . S
C1455 C1456 1.524 . S
C1455 C1459 1.400 . S
C1456 H1441 0.960 . S
C1456 H1442 0.960 . S
C1456 H1443 0.960 . S
C1456 C1455 1.524 . S
C1457 C1454 1.403 . S
C1457 C1458 1.392 . S
C1457 C1461 1.495 . S
C1458 C1457 1.392 . S
C1458 C1459 1.385 . S
C1458 C1460 1.478 . S
C1459 H1453 0.930 . S
C1459 C1455 1.400 . S
C1459 C1458 1.385 . S
C1460 C1458 1.478 . S
C1460 C1462 1.381 . S
C1460 C1466 1.383 . S
C1461 C1457 1.495 . S
C1461 H1467 0.959 . S
C1461 H1468 0.961 . S
C1461 H1469 0.960 . S
C1462 C1460 1.381 . S
C1462 C1463 1.394 . S
C1462 H1470 0.930 . S
C1463 C1462 1.394 . S
C1463 C1464 1.383 . S
C1463 H1471 0.929 . S
C1464 C1463 1.383 . S
C1464 C1465 1.377 . S
C1465 H1449 0.930 . S
C1465 C1464 1.377 . S
C1465 C1466 1.379 . S
C1466 H1450 0.931 . S
C1466 C1460 1.383 . S
C1466 C1465 1.379 . S
H1467 C1461 0.959 . S
H1468 C1461 0.961 . S
H1469 C1461 0.960 . S
H1470 C1462 0.930 . S
H1471 C1463 0.929 . S
H1472 C1480 0.929 . S
H1473 C1482 0.930 . S
H1474 C1484 0.930 . S
H1475 C1487 0.929 . S
H1476 C1490 0.930 . S
H1477 C1492 0.960 . S
H1478 C1492 0.960 . S
H1479 C1492 0.960 . S
C1480 H1472 0.929 . S
C1480 C1481 1.377 . S
C1480 C1482 1.384 . S
C1481 C1480 1.377 . S
C1481 C1487 1.390 . S
C1482 H1473 0.930 . S
C1482 C1480 1.384 . S
C1482 C1483 1.372 . S
C1483 C1482 1.372 . S
C1483 C1484 1.400 . S
C1483 C1488 1.490 . S
C1484 H1474 0.930 . S
C1484 C1483 1.400 . S
C1484 C1487 1.386 . S
H1485 C1501 0.930 . S
H1486 C1502 0.931 . S
C1487 H1475 0.929 . S
C1487 C1481 1.390 . S
C1487 C1484 1.386 . S
C1488 C1483 1.490 . S
C1488 C1490 1.395 . S
C1488 C1491 1.403 1_655 S
H1489 C1495 0.930 . S
C1490 H1476 0.930 . S
C1490 C1488 1.395 . S
C1490 C1493 1.403 1_556 S
C1491 C1488 1.403 1_455 S
C1491 C1492 1.524 . S
C1491 C1495 1.400 1_556 S
C1492 H1477 0.960 . S
C1492 H1478 0.960 . S
C1492 H1479 0.960 . S
C1492 C1491 1.524 . S
C1493 C1490 1.403 1_554 S
C1493 C1494 1.392 1_655 S
C1493 C1497 1.495 . S
C1494 C1493 1.392 1_455 S
C1494 C1495 1.385 . S
C1494 C1496 1.478 . S
C1495 H1489 0.930 . S
C1495 C1491 1.400 1_554 S
C1495 C1494 1.385 . S
C1496 C1494 1.478 . S
C1496 C1498 1.381 . S
C1496 C1502 1.383 . S
C1497 C1493 1.495 . S
C1497 H1503 0.959 . S
C1497 H1504 0.961 . S
C1497 H1505 0.960 . S
C1498 C1496 1.381 . S
C1498 C1499 1.394 . S
C1498 H1506 0.930 . S
C1499 C1498 1.394 . S
C1499 C1500 1.383 . S
C1499 H1507 0.929 . S
C1500 C1499 1.383 . S
C1500 C1501 1.377 . S
C1501 H1485 0.930 . S
C1501 C1500 1.377 . S
C1501 C1502 1.379 . S
C1502 H1486 0.931 . S
C1502 C1496 1.383 . S
C1502 C1501 1.379 . S
H1503 C1497 0.959 . S
H1504 C1497 0.961 . S
H1505 C1497 0.960 . S
H1506 C1498 0.930 . S
H1507 C1499 0.929 . S
H1508 C1516 0.929 . S
H1509 C1518 0.930 1_554 S
H1510 C1520 0.930 . S
H1511 C1523 0.929 . S
H1512 C1526 0.930 . S
H1513 C1528 0.960 . S
H1514 C1528 0.960 . S
H1515 C1528 0.972 . S
C1516 H1508 0.929 . S
C1516 C1517 1.377 . S
C1516 C1518 1.384 . S
C1517 C1516 1.377 . S
C1517 C1523 1.390 . S
C1518 H1509 0.930 1_556 S
C1518 C1516 1.384 . S
C1518 C1519 1.372 . S
C1519 C1518 1.372 . S
C1519 C1520 1.400 . S
C1519 C1524 1.490 . S
C1520 H1510 0.930 . S
C1520 C1519 1.400 . S
C1520 C1523 1.386 . S
H1521 C1537 0.930 . S
H1522 C1538 0.931 . S
C1523 H1511 0.929 . S
C1523 C1517 1.390 . S
C1523 C1520 1.386 . S
C1524 C1519 1.490 . S
C1524 C1526 1.395 1_556 S
C1524 C1527 1.403 1_455 S
H1525 C1531 0.930 . S
C1526 H1512 0.930 . S
C1526 C1524 1.395 1_554 S
C1526 C1529 1.403 1_565 S
C1527 C1524 1.403 1_655 S
C1527 C1528 1.524 . S
C1527 C1531 1.400 1_565 S
C1528 H1513 0.960 . S
C1528 H1514 0.960 . S
C1528 H1515 0.972 . S
C1528 C1527 1.524 . S
C1529 C1526 1.403 1_545 S
C1529 C1530 1.392 1_455 S
C1529 C1533 1.495 . S
C1530 C1529 1.392 1_655 S
C1530 C1531 1.385 1_554 S
C1530 C1532 1.478 . S
C1531 H1525 0.930 . S
C1531 C1527 1.400 1_545 S
C1531 C1530 1.385 1_556 S
C1532 C1530 1.478 . S
C1532 C1534 1.381 . S
C1532 C1538 1.383 . S
C1533 C1529 1.495 . S
C1533 H1539 0.959 . S
C1533 H1540 0.961 . S
C1533 H1541 0.960 . S
C1534 C1532 1.381 . S
C1534 C1535 1.394 . S
C1534 H1542 0.930 . S
C1535 C1534 1.394 . S
C1535 C1536 1.383 . S
C1535 H1543 0.929 . S
C1536 C1535 1.383 . S
C1536 C1537 1.377 . S
C1537 H1521 0.930 . S
C1537 C1536 1.377 . S
C1537 C1538 1.379 . S
C1538 H1522 0.931 . S
C1538 C1532 1.383 . S
C1538 C1537 1.379 . S
H1539 C1533 0.959 . S
H1540 C1533 0.961 . S
H1541 C1533 0.960 . S
H1542 C1534 0.930 . S
H1543 C1535 0.929 . S
H1544 C1552 0.929 . S
H1545 C1554 0.930 . S
H1546 C1556 0.930 . S
H1547 C1559 0.929 . S
H1548 C1562 0.930 . S
H1549 C1564 0.960 1_565 S
H1550 C1564 0.954 1_565 S
H1551 C1564 0.960 . S
C1552 H1544 0.929 . S
C1552 C1553 1.377 . S
C1552 C1554 1.384 . S
C1553 C1552 1.377 . S
C1553 C1559 1.390 . S
C1554 H1545 0.930 . S
C1554 C1552 1.384 . S
C1554 C1555 1.372 . S
C1555 C1554 1.372 . S
C1555 C1556 1.400 . S
C1555 C1560 1.490 . S
C1556 H1546 0.930 . S
C1556 C1555 1.400 . S
C1556 C1559 1.386 . S
H1557 C1573 0.930 . S
H1558 C1574 0.931 . S
C1559 H1547 0.929 . S
C1559 C1553 1.390 . S
C1559 C1556 1.386 . S
C1560 C1555 1.490 . S
C1560 C1562 1.395 1_556 S
C1560 C1563 1.403 . S
H1561 C1567 0.930 . S
C1562 H1548 0.930 . S
C1562 C1560 1.395 1_554 S
C1562 C1565 1.403 1_545 S
C1563 C1560 1.403 . S
C1563 C1564 1.524 . S
C1563 C1567 1.400 1_545 S
C1564 H1549 0.960 1_545 S
C1564 H1550 0.954 1_545 S
C1564 H1551 0.960 . S
C1564 C1563 1.524 . S
C1565 C1562 1.403 1_565 S
C1565 C1566 1.392 . S
C1565 C1569 1.495 . S
C1566 C1565 1.392 . S
C1566 C1567 1.385 1_554 S
C1566 C1568 1.478 . S
C1567 H1561 0.930 . S
C1567 C1563 1.400 1_565 S
C1567 C1566 1.385 1_556 S
C1568 C1566 1.478 . S
C1568 C1570 1.381 . S
C1568 C1574 1.383 . S
C1569 C1565 1.495 . S
C1569 H1575 0.959 1_565 S
C1569 H1576 0.961 . S
C1569 H1577 0.960 . S
C1570 C1568 1.381 . S
C1570 C1571 1.394 . S
C1570 H1578 0.930 . S
C1571 C1570 1.394 . S
C1571 C1572 1.383 . S
C1571 H1579 0.929 . S
C1572 C1571 1.383 . S
C1572 C1573 1.377 . S
C1573 H1557 0.930 . S
C1573 C1572 1.377 . S
C1573 C1574 1.379 . S
C1574 H1558 0.931 . S
C1574 C1568 1.383 . S
C1574 C1573 1.379 . S
H1575 C1569 0.959 1_545 S
H1576 C1569 0.961 . S
H1577 C1569 0.960 . S
H1578 C1570 0.930 . S
H1579 C1571 0.929 . S
H1580 C1588 0.929 . S
H1581 C1590 0.930 . S
H1582 C1592 0.930 . S
H1583 C1595 0.929 . S
H1584 C1598 0.930 . S
H1585 C1600 0.960 . S
H1586 C1600 0.960 . S
H1587 C1600 0.960 . S
C1588 H1580 0.929 . S
C1588 C1589 1.377 . S
C1588 C1590 1.384 . S
C1589 C1588 1.377 . S
C1589 C1595 1.390 . S
C1590 H1581 0.930 . S
C1590 C1588 1.384 . S
C1590 C1591 1.372 . S
C1591 C1590 1.372 . S
C1591 C1592 1.400 . S
C1591 C1596 1.490 . S
C1592 H1582 0.930 . S
C1592 C1591 1.400 . S
C1592 C1595 1.386 . S
H1593 C1609 0.930 . S
H1594 C1610 0.931 . S
C1595 H1583 0.929 . S
C1595 C1589 1.390 . S
C1595 C1592 1.386 . S
C1596 C1591 1.490 . S
C1596 C1598 1.395 . S
C1596 C1599 1.403 1_554 S
H1597 C1603 0.930 . S
C1598 H1584 0.930 . S
C1598 C1596 1.395 . S
C1598 C1601 1.403 . S
C1599 C1596 1.403 1_556 S
C1599 C1600 1.524 . S
C1599 C1603 1.400 . S
C1600 H1585 0.960 . S
C1600 H1586 0.960 . S
C1600 H1587 0.960 . S
C1600 C1599 1.524 . S
C1601 C1598 1.403 . S
C1601 C1602 1.392 1_554 S
C1601 C1605 1.495 . S
C1602 C1601 1.392 1_556 S
C1602 C1603 1.385 . S
C1602 C1604 1.478 . S
C1603 H1597 0.930 . S
C1603 C1599 1.400 . S
C1603 C1602 1.385 . S
C1604 C1602 1.478 . S
C1604 C1606 1.381 . S
C1604 C1610 1.383 . S
C1605 C1601 1.495 . S
C1605 H1611 0.959 . S
C1605 H1612 0.961 . S
C1605 H1613 0.960 . S
C1606 C1604 1.381 . S
C1606 C1607 1.394 . S
C1606 H1614 0.930 . S
C1607 C1606 1.394 . S
C1607 C1608 1.383 . S
C1607 H1615 0.929 . S
C1608 C1607 1.383 . S
C1608 C1609 1.377 . S
C1609 H1593 0.930 . S
C1609 C1608 1.377 . S
C1609 C1610 1.379 . S
C1610 H1594 0.931 . S
C1610 C1604 1.383 . S
C1610 C1609 1.379 . S
H1611 C1605 0.959 . S
H1612 C1605 0.961 . S
H1613 C1605 0.960 . S
H1614 C1606 0.930 . S
H1615 C1607 0.929 . S
H1616 C1624 0.929 . S
H1617 C1626 0.930 . S
H1618 C1628 0.930 . S
H1619 C1631 0.929 . S
H1620 C1634 0.930 . S
H1621 C1636 0.960 . S
H1622 C1636 0.960 . S
H1623 C1636 0.960 1_655 S
C1624 H1616 0.929 . S
C1624 C1625 1.377 . S
C1624 C1626 1.384 . S
C1625 C1624 1.377 . S
C1625 C1631 1.390 . S
C1626 H1617 0.930 . S
C1626 C1624 1.384 . S
C1626 C1627 1.372 . S
C1627 C1626 1.372 . S
C1627 C1628 1.400 . S
C1627 C1632 1.490 . S
C1628 H1618 0.930 . S
C1628 C1627 1.400 . S
C1628 C1631 1.386 . S
H1629 C1645 0.930 . S
H1630 C1646 0.931 . S
C1631 H1619 0.929 . S
C1631 C1625 1.390 . S
C1631 C1628 1.386 . S
C1632 C1627 1.490 . S
C1632 C1634 1.395 1_545 S
C1632 C1635 1.403 1_655 S
H1633 C1639 0.930 . S
C1634 H1620 0.930 . S
C1634 C1632 1.395 1_565 S
C1634 C1637 1.403 . S
C1635 C1632 1.403 1_455 S
C1635 C1636 1.524 . S
C1635 C1639 1.400 . S
C1636 H1621 0.960 . S
C1636 H1622 0.960 . S
C1636 H1623 0.960 1_455 S
C1636 C1635 1.524 . S
C1637 C1634 1.403 . S
C1637 C1638 1.392 1_655 S
C1637 C1641 1.495 . S
C1638 C1637 1.392 1_455 S
C1638 C1639 1.385 1_565 S
C1638 C1640 1.478 . S
C1639 H1633 0.930 . S
C1639 C1635 1.400 . S
C1639 C1638 1.385 1_545 S
C1640 C1638 1.478 . S
C1640 C1642 1.381 . S
C1640 C1646 1.383 . S
C1641 C1637 1.495 . S
C1641 H1647 0.959 . S
C1641 H1648 0.961 . S
C1641 H1649 0.960 1_655 S
C1642 C1640 1.381 . S
C1642 C1643 1.394 . S
C1642 H1650 0.930 . S
C1643 C1642 1.394 . S
C1643 C1644 1.383 . S
C1643 H1651 0.929 . S
C1644 C1643 1.383 . S
C1644 C1645 1.377 . S
C1645 H1629 0.930 . S
C1645 C1644 1.377 . S
C1645 C1646 1.379 . S
C1646 H1630 0.931 . S
C1646 C1640 1.383 . S
C1646 C1645 1.379 . S
H1647 C1641 0.959 . S
H1648 C1641 0.961 . S
H1649 C1641 0.960 1_455 S
H1650 C1642 0.930 . S
H1651 C1643 0.929 . S
H1652 C1660 0.929 . S
H1653 C1662 0.930 . S
H1654 C1664 0.930 . S
H1655 C1667 0.929 . S
H1656 C1670 0.930 . S
H1657 C1672 0.960 . S
H1658 C1672 0.960 . S
H1659 C1672 0.960 . S
C1660 H1652 0.929 . S
C1660 C1661 1.377 . S
C1660 C1662 1.384 . S
C1661 C1660 1.377 . S
C1661 C1667 1.390 . S
C1662 H1653 0.930 . S
C1662 C1660 1.384 . S
C1662 C1663 1.372 . S
C1663 C1662 1.372 . S
C1663 C1664 1.400 . S
C1663 C1668 1.490 . S
C1664 H1654 0.930 . S
C1664 C1663 1.400 . S
C1664 C1667 1.386 . S
H1665 C1681 0.930 . S
H1666 C1682 0.931 . S
C1667 H1655 0.929 . S
C1667 C1661 1.390 . S
C1667 C1664 1.386 . S
C1668 C1663 1.490 . S
C1668 C1670 1.395 . S
C1668 C1671 1.403 1_565 S
H1669 C1675 0.930 . S
C1670 H1656 0.930 . S
C1670 C1668 1.395 . S
C1670 C1673 1.403 . S
C1671 C1668 1.403 1_545 S
C1671 C1672 1.524 . S
C1671 C1675 1.400 . S
C1672 H1657 0.960 . S
C1672 H1658 0.960 . S
C1672 H1659 0.960 . S
C1672 C1671 1.524 . S
C1673 C1670 1.403 . S
C1673 C1674 1.392 1_565 S
C1673 C1677 1.495 . S
C1674 C1673 1.392 1_545 S
C1674 C1675 1.385 . S
C1674 C1676 1.478 . S
C1675 H1669 0.930 . S
C1675 C1671 1.400 . S
C1675 C1674 1.385 . S
C1676 C1674 1.478 . S
C1676 C1678 1.381 . S
C1676 C1682 1.383 . S
C1677 C1673 1.495 . S
C1677 H1683 0.959 . S
C1677 H1684 0.961 . S
C1677 H1685 0.960 . S
C1678 C1676 1.381 . S
C1678 C1679 1.394 . S
C1678 H1686 0.930 . S
C1679 C1678 1.394 . S
C1679 C1680 1.383 . S
C1679 H1687 0.929 . S
C1680 C1679 1.383 . S
C1680 C1681 1.377 . S
C1681 H1665 0.930 . S
C1681 C1680 1.377 . S
C1681 C1682 1.379 . S
C1682 H1666 0.931 . S
C1682 C1676 1.383 . S
C1682 C1681 1.379 . S
H1683 C1677 0.959 . S
H1684 C1677 0.961 . S
H1685 C1677 0.960 . S
H1686 C1678 0.930 . S
H1687 C1679 0.929 . S
H1688 C1696 0.929 . S
H1689 C1698 0.930 . S
H1690 C1700 0.930 . S
H1691 C1703 0.929 . S
H1692 C1706 0.930 . S
H1693 C1708 0.960 . S
H1694 C1708 0.960 . S
H1695 C1708 0.960 . S
C1696 H1688 0.929 . S
C1696 C1697 1.377 . S
C1696 C1698 1.384 . S
C1697 C1696 1.377 . S
C1697 C1703 1.390 . S
C1698 H1689 0.930 . S
C1698 C1696 1.384 . S
C1698 C1699 1.372 . S
C1699 C1698 1.372 . S
C1699 C1700 1.400 . S
C1699 C1704 1.490 . S
C1700 H1690 0.930 . S
C1700 C1699 1.400 . S
C1700 C1703 1.386 . S
H1701 C1717 0.930 . S
H1702 C1718 0.931 . S
C1703 H1691 0.929 . S
C1703 C1697 1.390 . S
C1703 C1700 1.386 . S
C1704 C1699 1.490 . S
C1704 C1706 1.395 . S
C1704 C1707 1.403 . S
H1705 C1711 0.930 . S
C1706 H1692 0.930 . S
C1706 C1704 1.395 . S
C1706 C1709 1.403 . S
C1707 C1704 1.403 . S
C1707 C1708 1.524 . S
C1707 C1711 1.400 . S
C1708 H1693 0.960 . S
C1708 H1694 0.960 . S
C1708 H1695 0.960 . S
C1708 C1707 1.524 . S
C1709 C1706 1.403 . S
C1709 C1710 1.392 . S
C1709 C1713 1.495 . S
C1710 C1709 1.392 . S
C1710 C1711 1.385 . S
C1710 C1712 1.478 . S
C1711 H1705 0.930 . S
C1711 C1707 1.400 . S
C1711 C1710 1.385 . S
C1712 C1710 1.478 . S
C1712 C1714 1.381 . S
C1712 C1718 1.383 . S
C1713 C1709 1.495 . S
C1713 H1719 0.959 . S
C1713 H1720 0.961 . S
C1713 H1721 0.960 . S
C1714 C1712 1.381 . S
C1714 C1715 1.394 . S
C1714 H1722 0.930 . S
C1715 C1714 1.394 . S
C1715 C1716 1.383 . S
C1715 H1723 0.929 . S
C1716 C1715 1.383 . S
C1716 C1717 1.377 . S
C1717 H1701 0.930 . S
C1717 C1716 1.377 . S
C1717 C1718 1.379 . S
C1718 H1702 0.931 . S
C1718 C1712 1.383 . S
C1718 C1717 1.379 . S
H1719 C1713 0.959 . S
H1720 C1713 0.961 . S
H1721 C1713 0.960 . S
H1722 C1714 0.930 . S
H1723 C1715 0.929 . S
H1724 C1732 0.929 . S
H1725 C1734 0.930 . S
H1726 C1736 0.930 . S
H1727 C1739 0.929 . S
H1728 C1742 0.930 . S
H1729 C1744 0.960 . S
H1730 C1744 0.960 . S
H1731 C1744 0.960 . S
C1732 H1724 0.929 . S
C1732 C1733 1.377 . S
C1732 C1734 1.384 . S
C1733 C1732 1.377 . S
C1733 C1739 1.390 . S
C1734 H1725 0.930 . S
C1734 C1732 1.384 . S
C1734 C1735 1.372 . S
C1735 C1734 1.372 . S
C1735 C1736 1.400 . S
C1735 C1740 1.490 . S
C1736 H1726 0.930 . S
C1736 C1735 1.400 . S
C1736 C1739 1.386 . S
H1737 C1753 0.930 . S
H1738 C1754 0.931 . S
C1739 H1727 0.929 . S
C1739 C1733 1.390 . S
C1739 C1736 1.386 . S
C1740 C1735 1.490 . S
C1740 C1742 1.395 . S
C1740 C1743 1.403 . S
H1741 C1747 0.930 . S
C1742 H1728 0.930 . S
C1742 C1740 1.395 . S
C1742 C1745 1.403 1_455 S
C1743 C1740 1.403 . S
C1743 C1744 1.524 . S
C1743 C1747 1.400 1_455 S
C1744 H1729 0.960 . S
C1744 H1730 0.960 . S
C1744 H1731 0.960 . S
C1744 C1743 1.524 . S
C1745 C1742 1.403 1_655 S
C1745 C1746 1.392 . S
C1745 C1749 1.495 . S
C1746 C1745 1.392 . S
C1746 C1747 1.385 . S
C1746 C1748 1.478 . S
C1747 H1741 0.930 . S
C1747 C1743 1.400 1_655 S
C1747 C1746 1.385 . S
C1748 C1746 1.478 . S
C1748 C1750 1.381 . S
C1748 C1754 1.383 . S
C1749 C1745 1.495 . S
C1749 H1755 0.959 . S
C1749 H1756 0.961 . S
C1749 H1757 0.960 . S
C1750 C1748 1.381 . S
C1750 C1751 1.394 . S
C1750 H1758 0.930 . S
C1751 C1750 1.394 . S
C1751 C1752 1.383 . S
C1751 H1759 0.929 . S
C1752 C1751 1.383 . S
C1752 C1753 1.377 . S
C1753 H1737 0.930 . S
C1753 C1752 1.377 . S
C1753 C1754 1.379 . S
C1754 H1738 0.931 . S
C1754 C1748 1.383 . S
C1754 C1753 1.379 . S
H1755 C1749 0.959 . S
H1756 C1749 0.961 . S
H1757 C1749 0.960 . S
H1758 C1750 0.930 . S
H1759 C1751 0.929 . S
H1760 C1768 0.929 . S
H1761 C1770 0.930 . S
H1762 C1772 0.930 . S
H1763 C1775 0.929 . S
H1764 C1778 0.930 . S
H1765 C1780 0.960 . S
H1766 C1780 0.960 . S
H1767 C1780 0.960 . S
C1768 H1760 0.929 . S
C1768 C1769 1.377 . S
C1768 C1770 1.384 . S
C1769 C1768 1.377 . S
C1769 C1775 1.390 . S
C1770 H1761 0.930 . S
C1770 C1768 1.384 . S
C1770 C1771 1.372 . S
C1771 C1770 1.372 . S
C1771 C1772 1.400 . S
C1771 C1776 1.490 . S
C1772 H1762 0.930 . S
C1772 C1771 1.400 . S
C1772 C1775 1.386 . S
H1773 C1789 0.930 . S
H1774 C1790 0.931 . S
C1775 H1763 0.929 . S
C1775 C1769 1.390 . S
C1775 C1772 1.386 . S
C1776 C1771 1.490 . S
C1776 C1778 1.395 1_655 S
C1776 C1779 1.403 . S
H1777 C1783 0.930 . S
C1778 H1764 0.930 . S
C1778 C1776 1.395 1_455 S
C1778 C1781 1.403 . S
C1779 C1776 1.403 . S
C1779 C1780 1.524 . S
C1779 C1783 1.400 . S
C1780 H1765 0.960 . S
C1780 H1766 0.960 . S
C1780 H1767 0.960 . S
C1780 C1779 1.524 . S
C1781 C1778 1.403 . S
C1781 C1782 1.392 . S
C1781 C1785 1.495 . S
C1782 C1781 1.392 . S
C1782 C1783 1.385 1_455 S
C1782 C1784 1.478 . S
C1783 H1777 0.930 . S
C1783 C1779 1.400 . S
C1783 C1782 1.385 1_655 S
C1784 C1782 1.478 . S
C1784 C1786 1.381 . S
C1784 C1790 1.383 . S
C1785 C1781 1.495 . S
C1785 H1791 0.959 . S
C1785 H1792 0.961 . S
C1785 H1793 0.960 . S
C1786 C1784 1.381 . S
C1786 C1787 1.394 . S
C1786 H1794 0.930 . S
C1787 C1786 1.394 . S
C1787 C1788 1.383 . S
C1787 H1795 0.929 . S
C1788 C1787 1.383 . S
C1788 C1789 1.377 . S
C1789 H1773 0.930 . S
C1789 C1788 1.377 . S
C1789 C1790 1.379 . S
C1790 H1774 0.931 . S
C1790 C1784 1.383 . S
C1790 C1789 1.379 . S
H1791 C1785 0.959 . S
H1792 C1785 0.961 . S
H1793 C1785 0.960 . S
H1794 C1786 0.930 . S
H1795 C1787 0.929 . S
H1796 C1804 0.929 . S
H1797 C1806 0.930 1_545 S
H1798 C1808 0.930 1_655 S
H1799 C1811 0.929 . S
H1800 C1814 0.930 . S
H1801 C1816 0.960 . S
H1802 C1816 0.960 1_545 S
H1803 C1816 0.960 . S
C1804 H1796 0.929 . S
C1804 C1805 1.377 . S
C1804 C1806 1.384 . S
C1805 C1804 1.377 . S
C1805 C1811 1.390 . S
C1806 H1797 0.930 1_565 S
C1806 C1804 1.384 . S
C1806 C1807 1.372 . S
C1807 C1806 1.372 . S
C1807 C1808 1.400 . S
C1807 C1812 1.490 . S
C1808 H1798 0.930 1_455 S
C1808 C1807 1.400 . S
C1808 C1811 1.386 . S
H1809 C1825 0.930 . S
H1810 C1826 0.931 1_565 S
C1811 H1799 0.929 . S
C1811 C1805 1.390 . S
C1811 C1808 1.386 . S
C1812 C1807 1.490 . S
C1812 C1814 1.395 . S
C1812 C1815 1.403 1_455 S
H1813 C1819 0.930 . S
C1814 H1800 0.930 . S
C1814 C1812 1.395 . S
C1814 C1817 1.398 1_565 S
C1815 C1812 1.403 1_655 S
C1815 C1816 1.524 . S
C1815 C1819 1.400 1_565 S
C1816 H1801 0.960 . S
C1816 H1802 0.960 1_565 S
C1816 H1803 0.960 . S
C1816 C1815 1.524 . S
C1817 C1814 1.398 1_545 S
C1817 C1818 1.396 1_455 S
C1817 C1821 1.497 . S
C1818 C1817 1.396 1_655 S
C1818 C1819 1.385 . S
C1818 C1820 1.478 . S
C1819 H1813 0.930 . S
C1819 C1815 1.400 1_545 S
C1819 C1818 1.385 . S
C1820 C1818 1.478 . S
C1820 C1822 1.381 . S
C1820 C1826 1.383 . S
C1821 C1817 1.497 . S
C1821 H1827 0.959 1_545 S
C1821 H1828 0.961 1_545 S
C1821 H1829 0.960 . S
C1822 C1820 1.381 . S
C1822 C1823 1.394 . S
C1822 H1830 0.930 . S
C1823 C1822 1.394 . S
C1823 C1824 1.383 . S
C1823 H1831 0.929 . S
C1824 C1823 1.383 . S
C1824 C1825 1.377 . S
C1825 H1809 0.930 . S
C1825 C1824 1.377 . S
C1825 C1826 1.379 . S
C1826 H1810 0.931 1_545 S
C1826 C1820 1.383 . S
C1826 C1825 1.379 . S
H1827 C1821 0.959 1_565 S
H1828 C1821 0.961 1_565 S
H1829 C1821 0.960 . S
H1830 C1822 0.930 . S
H1831 C1823 0.929 . S
H1832 C1840 0.929 . S
H1833 C1842 0.930 1_565 S
H1834 C1844 0.930 . S
H1835 C1847 0.929 . S
H1836 C1850 0.924 1_545 S
H1837 C1852 0.960 1_565 S
H1838 C1852 0.960 1_565 S
H1839 C1852 0.960 . S
C1840 H1832 0.929 . S
C1840 C1841 1.377 . S
C1840 C1842 1.384 . S
C1841 C1840 1.377 . S
C1841 C1847 1.390 . S
C1842 H1833 0.930 1_545 S
C1842 C1840 1.384 . S
C1842 C1843 1.372 . S
C1843 C1842 1.372 . S
C1843 C1844 1.400 . S
C1843 C1848 1.490 . S
C1844 H1834 0.930 . S
C1844 C1843 1.400 . S
C1844 C1847 1.386 . S
H1845 C1861 0.930 . S
H1846 C1862 0.931 1_545 S
C1847 H1835 0.929 . S
C1847 C1841 1.390 . S
C1847 C1844 1.386 . S
C1848 C1843 1.490 . S
C1848 C1850 1.389 1_545 S
C1848 C1851 1.403 1_545 S
H1849 C1855 0.930 . S
C1850 H1836 0.924 1_565 S
C1850 C1848 1.389 1_565 S
C1850 C1853 1.416 . S
C1851 C1848 1.403 1_565 S
C1851 C1852 1.524 1_565 S
C1851 C1855 1.400 . S
C1852 H1837 0.960 1_545 S
C1852 H1838 0.960 1_545 S
C1852 H1839 0.960 . S
C1852 C1851 1.524 1_545 S
C1853 C1850 1.416 . S
C1853 C1854 1.392 . S
C1853 C1857 1.495 . S
C1854 C1853 1.392 . S
C1854 C1855 1.385 . S
C1854 C1856 1.478 . S
C1855 H1849 0.930 . S
C1855 C1851 1.400 . S
C1855 C1854 1.385 . S
C1856 C1854 1.478 . S
C1856 C1858 1.381 . S
C1856 C1862 1.383 . S
C1857 C1853 1.495 . S
C1857 H1863 0.959 . S
C1857 H1864 0.961 . S
C1857 H1865 0.960 . S
C1858 C1856 1.381 . S
C1858 C1859 1.394 . S
C1858 H1866 0.930 . S
C1859 C1858 1.394 . S
C1859 C1860 1.383 . S
C1859 H1867 0.929 . S
C1860 C1859 1.383 . S
C1860 C1861 1.377 . S
C1861 H1845 0.930 . S
C1861 C1860 1.377 . S
C1861 C1862 1.379 . S
C1862 H1846 0.931 1_565 S
C1862 C1856 1.383 . S
C1862 C1861 1.379 . S
H1863 C1857 0.959 . S
H1864 C1857 0.961 . S
H1865 C1857 0.960 . S
H1866 C1858 0.930 . S
H1867 C1859 0.929 . S
H1868 C1876 0.929 . S
H1869 C1878 0.930 . S
H1870 C1880 0.930 . S
H1871 C1883 0.929 . S
H1872 C1886 0.930 . S
H1873 C1888 0.960 . S
H1874 C1888 0.960 . S
H1875 C1888 0.960 . S
C1876 H1868 0.929 . S
C1876 C1877 1.377 . S
C1876 C1878 1.384 . S
C1877 C1876 1.377 . S
C1877 C1883 1.390 . S
C1878 H1869 0.930 . S
C1878 C1876 1.384 . S
C1878 C1879 1.372 . S
C1879 C1878 1.372 . S
C1879 C1880 1.400 . S
C1879 C1884 1.490 . S
C1880 H1870 0.930 . S
C1880 C1879 1.400 . S
C1880 C1883 1.386 . S
H1881 C1897 0.930 . S
H1882 C1898 0.931 . S
C1883 H1871 0.929 . S
C1883 C1877 1.390 . S
C1883 C1880 1.386 . S
C1884 C1879 1.490 . S
C1884 C1886 1.395 . S
C1884 C1887 1.403 . S
H1885 C1891 0.930 . S
C1886 H1872 0.930 . S
C1886 C1884 1.395 . S
C1886 C1889 1.403 . S
C1887 C1884 1.403 . S
C1887 C1888 1.524 . S
C1887 C1891 1.400 . S
C1888 H1873 0.960 . S
C1888 H1874 0.960 . S
C1888 H1875 0.960 . S
C1888 C1887 1.524 . S
C1889 C1886 1.403 . S
C1889 C1890 1.392 . S
C1889 C1893 1.495 . S
C1890 C1889 1.392 . S
C1890 C1891 1.385 . S
C1890 C1892 1.478 . S
C1891 H1885 0.930 . S
C1891 C1887 1.400 . S
C1891 C1890 1.385 . S
C1892 C1890 1.478 . S
C1892 C1894 1.381 . S
C1892 C1898 1.383 . S
C1893 C1889 1.495 . S
C1893 H1899 0.959 . S
C1893 H1900 0.961 . S
C1893 H1901 0.960 . S
C1894 C1892 1.381 . S
C1894 C1895 1.394 . S
C1894 H1902 0.930 . S
C1895 C1894 1.394 . S
C1895 C1896 1.383 . S
C1895 H1903 0.929 . S
C1896 C1895 1.383 . S
C1896 C1897 1.377 . S
C1897 H1881 0.930 . S
C1897 C1896 1.377 . S
C1897 C1898 1.379 . S
C1898 H1882 0.931 . S
C1898 C1892 1.383 . S
C1898 C1897 1.379 . S
H1899 C1893 0.959 . S
H1900 C1893 0.961 . S
H1901 C1893 0.960 . S
H1902 C1894 0.930 . S
H1903 C1895 0.929 . S
H1904 C1912 0.929 . S
H1905 C1914 0.930 . S
H1906 C1916 0.930 . S
H1907 C1919 0.929 . S
H1908 C1922 0.930 . S
H1909 C1924 0.960 . S
H1910 C1924 0.960 . S
H1911 C1924 0.960 . S
C1912 H1904 0.929 . S
C1912 C1913 1.377 . S
C1912 C1914 1.384 . S
C1913 C1912 1.377 . S
C1913 C1919 1.390 . S
C1914 H1905 0.930 . S
C1914 C1912 1.384 . S
C1914 C1915 1.372 . S
C1915 C1914 1.372 . S
C1915 C1916 1.400 . S
C1915 C1920 1.490 . S
C1916 H1906 0.930 . S
C1916 C1915 1.400 . S
C1916 C1919 1.386 . S
H1917 C1933 0.930 . S
H1918 C1934 0.931 . S
C1919 H1907 0.929 . S
C1919 C1913 1.390 . S
C1919 C1916 1.386 . S
C1920 C1915 1.490 . S
C1920 C1922 1.395 1_455 S
C1920 C1923 1.403 . S
H1921 C1927 0.930 . S
C1922 H1908 0.930 . S
C1922 C1920 1.395 1_655 S
C1922 C1925 1.403 . S
C1923 C1920 1.403 . S
C1923 C1924 1.524 . S
C1923 C1927 1.400 . S
C1924 H1909 0.960 . S
C1924 H1910 0.960 . S
C1924 H1911 0.960 . S
C1924 C1923 1.524 . S
C1925 C1922 1.403 . S
C1925 C1926 1.392 . S
C1925 C1929 1.495 . S
C1926 C1925 1.392 . S
C1926 C1927 1.385 1_655 S
C1926 C1928 1.478 . S
C1927 H1921 0.930 . S
C1927 C1923 1.400 . S
C1927 C1926 1.385 1_455 S
C1928 C1926 1.478 . S
C1928 C1930 1.381 . S
C1928 C1934 1.383 . S
C1929 C1925 1.495 . S
C1929 H1935 0.959 . S
C1929 H1936 0.961 . S
C1929 H1937 0.960 . S
C1930 C1928 1.381 . S
C1930 C1931 1.394 . S
C1930 H1938 0.930 . S
C1931 C1930 1.394 . S
C1931 C1932 1.383 . S
C1931 H1939 0.929 . S
C1932 C1931 1.383 . S
C1932 C1933 1.377 . S
C1933 H1917 0.930 . S
C1933 C1932 1.377 . S
C1933 C1934 1.379 . S
C1934 H1918 0.931 . S
C1934 C1928 1.383 . S
C1934 C1933 1.379 . S
H1935 C1929 0.959 . S
H1936 C1929 0.961 . S
H1937 C1929 0.960 . S
H1938 C1930 0.930 . S
H1939 C1931 0.929 . S
H1940 C1948 0.929 . S
H1941 C1950 0.930 1_455 S
H1942 C1952 0.936 . S
H1943 C1955 0.929 . S
H1944 C1958 0.930 . S
H1945 C1960 0.960 . S
H1946 C1960 0.960 . S
H1947 C1960 0.960 1_655 S
C1948 H1940 0.929 . S
C1948 C1949 1.377 . S
C1948 C1950 1.384 . S
C1949 C1948 1.377 . S
C1949 C1955 1.390 . S
C1950 H1941 0.930 1_655 S
C1950 C1948 1.384 . S
C1950 C1951 1.372 . S
C1951 C1950 1.372 . S
C1951 C1952 1.400 . S
C1951 C1956 1.490 . S
C1952 H1942 0.936 . S
C1952 C1951 1.400 . S
C1952 C1955 1.386 . S
H1953 C1969 0.930 . S
H1954 C1970 0.931 1_655 S
C1955 H1943 0.929 . S
C1955 C1949 1.390 . S
C1955 C1952 1.386 . S
C1956 C1951 1.490 . S
C1956 C1958 1.395 . S
C1956 C1959 1.403 1_645 S
H1957 C1963 0.930 . S
C1958 H1944 0.930 . S
C1958 C1956 1.395 . S
C1958 C1961 1.403 1_655 S
C1959 C1956 1.403 1_465 S
C1959 C1960 1.524 . S
C1959 C1963 1.400 . S
C1960 H1945 0.960 . S
C1960 H1946 0.960 . S
C1960 H1947 0.960 1_455 S
C1960 C1959 1.524 . S
C1961 C1958 1.403 1_455 S
C1961 C1962 1.359 1_545 S
C1961 C1965 1.495 . S
C1962 C1961 1.359 1_565 S
C1962 C1963 1.407 . S
C1962 C1964 1.491 . S
C1963 H1957 0.930 . S
C1963 C1959 1.400 . S
C1963 C1962 1.407 . S
C1964 C1962 1.491 . S
C1964 C1966 1.381 . S
C1964 C1970 1.383 . S
C1965 C1961 1.495 . S
C1965 H1971 0.967 . S
C1965 H1972 0.961 1_455 S
C1965 H1973 0.960 . S
C1966 C1964 1.381 . S
C1966 C1967 1.394 . S
C1966 H1974 0.930 1_565 S
C1967 C1966 1.394 . S
C1967 C1968 1.383 . S
C1967 H1975 0.929 . S
C1968 C1967 1.383 . S
C1968 C1969 1.377 . S
C1969 H1953 0.930 . S
C1969 C1968 1.377 . S
C1969 C1970 1.379 . S
C1970 H1954 0.931 1_455 S
C1970 C1964 1.383 . S
C1970 C1969 1.379 . S
H1971 C1965 0.967 . S
H1972 C1965 0.961 1_655 S
H1973 C1965 0.960 . S
H1974 C1966 0.930 1_545 S
H1975 C1967 0.929 . S
H1976 C1984 0.929 . S
H1977 C1986 0.930 . S
H1978 C1988 0.920 1_545 S
H1979 C1991 0.929 1_545 S
H1980 C1994 0.930 . S
H1981 C1996 0.960 . S
H1982 C1996 0.960 . S
H1983 C1996 0.960 . S
C1984 H1976 0.929 . S
C1984 C1985 1.377 . S
C1984 C1986 1.384 . S
C1985 C1984 1.377 . S
C1985 C1991 1.390 . S
C1986 H1977 0.930 . S
C1986 C1984 1.384 . S
C1986 C1987 1.372 . S
C1987 C1986 1.372 . S
C1987 C1988 1.406 . S
C1987 C1992 1.490 . S
C1988 H1978 0.920 1_565 S
C1988 C1987 1.406 . S
C1988 C1991 1.389 . S
H1989 C2005 0.930 . S
H1990 C2006 0.931 . S
C1991 H1979 0.929 1_565 S
C1991 C1985 1.390 . S
C1991 C1988 1.389 . S
C1992 C1987 1.490 . S
C1992 C1994 1.395 . S
C1992 C1995 1.403 1_565 S
H1993 C1999 0.930 . S
C1994 H1980 0.930 . S
C1994 C1992 1.395 . S
C1994 C1997 1.403 . S
C1995 C1992 1.403 1_545 S
C1995 C1996 1.524 . S
C1995 C1999 1.400 . S
C1996 H1981 0.960 . S
C1996 H1982 0.960 . S
C1996 H1983 0.960 . S
C1996 C1995 1.524 . S
C1997 C1994 1.403 . S
C1997 C1998 1.392 1_565 S
C1997 C2001 1.495 . S
C1998 C1997 1.392 1_545 S
C1998 C1999 1.385 . S
C1998 C2000 1.478 . S
C1999 H1993 0.930 . S
C1999 C1995 1.400 . S
C1999 C1998 1.385 . S
C2000 C1998 1.478 . S
C2000 C2002 1.381 . S
C2000 C2006 1.383 . S
C2001 C1997 1.495 . S
C2001 H2007 0.959 . S
C2001 H2008 0.961 1_565 S
C2001 H2009 0.960 . S
C2002 C2000 1.381 . S
C2002 C2003 1.394 . S
C2002 H2010 0.930 1_545 S
C2003 C2002 1.394 . S
C2003 C2004 1.383 . S
C2003 H2011 0.929 . S
C2004 C2003 1.383 . S
C2004 C2005 1.377 . S
C2005 H1989 0.930 . S
C2005 C2004 1.377 . S
C2005 C2006 1.379 . S
C2006 H1990 0.931 . S
C2006 C2000 1.383 . S
C2006 C2005 1.379 . S
H2007 C2001 0.959 . S
H2008 C2001 0.961 1_545 S
H2009 C2001 0.960 . S
H2010 C2002 0.930 1_565 S
H2011 C2003 0.929 . S
H2012 C2020 0.929 . S
H2013 C2022 0.930 . S
H2014 C2024 0.930 . S
H2015 C2027 0.929 . S
H2016 C2030 0.930 . S
H2017 C2032 0.960 . S
H2018 C2032 0.960 . S
H2019 C2032 0.960 . S
C2020 H2012 0.929 . S
C2020 C2021 1.377 . S
C2020 C2022 1.384 . S
C2021 C2020 1.377 . S
C2021 C2027 1.390 . S
C2022 H2013 0.930 . S
C2022 C2020 1.384 . S
C2022 C2023 1.372 . S
C2023 C2022 1.372 . S
C2023 C2024 1.400 . S
C2023 C2028 1.490 . S
C2024 H2014 0.930 . S
C2024 C2023 1.400 . S
C2024 C2027 1.386 . S
H2025 C2041 0.930 . S
H2026 C2042 0.931 . S
C2027 H2015 0.929 . S
C2027 C2021 1.390 . S
C2027 C2024 1.386 . S
C2028 C2023 1.490 . S
C2028 C2030 1.395 . S
C2028 C2031 1.403 . S
H2029 C2035 0.930 . S
C2030 H2016 0.930 . S
C2030 C2028 1.395 . S
C2030 C2033 1.403 . S
C2031 C2028 1.403 . S
C2031 C2032 1.524 . S
C2031 C2035 1.400 . S
C2032 H2017 0.960 . S
C2032 H2018 0.960 . S
C2032 H2019 0.960 . S
C2032 C2031 1.524 . S
C2033 C2030 1.403 . S
C2033 C2034 1.392 . S
C2033 C2037 1.495 . S
C2034 C2033 1.392 . S
C2034 C2035 1.385 . S
C2034 C2036 1.478 . S
C2035 H2029 0.930 . S
C2035 C2031 1.400 . S
C2035 C2034 1.385 . S
C2036 C2034 1.478 . S
C2036 C2038 1.381 . S
C2036 C2042 1.383 . S
C2037 C2033 1.495 . S
C2037 H2043 0.959 . S
C2037 H2044 0.961 . S
C2037 H2045 0.960 . S
C2038 C2036 1.381 . S
C2038 C2039 1.394 . S
C2038 H2046 0.930 . S
C2039 C2038 1.394 . S
C2039 C2040 1.383 . S
C2039 H2047 0.929 . S
C2040 C2039 1.383 . S
C2040 C2041 1.377 . S
C2041 H2025 0.930 . S
C2041 C2040 1.377 . S
C2041 C2042 1.379 . S
C2042 H2026 0.931 . S
C2042 C2036 1.383 . S
C2042 C2041 1.379 . S
H2043 C2037 0.959 . S
H2044 C2037 0.961 . S
H2045 C2037 0.960 . S
H2046 C2038 0.930 . S
H2047 C2039 0.929 . S
C329 C77 3.157 . S
C348 C8 3.261 . S
C365 C17 3.152 . S
C384 C28 3.247 . S
C401 C57 3.248 . S
C420 C37 3.152 . S
C437 C48 3.155 . S
C456 C68 3.260 . S
C473 C88 3.253 . S
C492 C117 3.169 . S
C509 C108 3.251 . S
C528 C137 3.168 . S
C545 C128 3.249 . S
C564 C157 3.161 . S
C581 C97 3.160 . S
C600 C148 3.250 . S
C617 C168 3.254 . S
C636 C237 3.133 . S
C653 C177 3.157 . S
C672 C188 3.239 . S
C689 C197 3.160 . S
C708 C208 3.232 . S
C725 C217 3.155 . S
C744 C228 3.255 . S
C761 C248 3.253 . S
C780 C277 3.151 . S
C797 C297 3.159 . S
C816 C268 3.233 . S
C833 C317 3.160 . S
C852 C288 3.233 . S
C869 C308 3.251 . S
C888 C257 3.163 . S
C905 C2 1.786 . S
C924 C82 1.773 . S
C941 C102 1.789 . S
C960 C22 1.780 . S
C977 C53 1.788 . S
C996 C122 1.774 . S
C1013 C62 1.786 . S
C1032 C142 1.774 . S
C1049 C242 1.785 . S
C1068 C162 1.773 . S
C1085 C262 1.789 . S
C1104 C182 1.792 . S
C1121 C202 1.788 . S
C1140 C282 1.784 . S
C1157 C302 1.785 . S
C1176 C222 1.774 . S
C1193 C14 1.237 . S
C1212 C45 1.247 . S
C1229 C34 1.239 . S
C1248 C74 1.247 . S
C1265 C134 1.236 . S
C1284 C94 1.223 . S
C1301 C154 1.235 . S
C1320 C114 1.235 . S
C1337 C214 1.239 . S
C1356 C174 1.247 . S
C1373 C234 1.235 . S
C1392 C194 1.225 . S
C1409 C254 1.239 . S
C1428 C294 1.246 . S
C1445 C274 1.239 . S
C1464 C314 1.247 . S
C1481 C173 1.337 . S
C1500 C13 1.321 . S
C1517 C193 1.343 . S
C1536 C33 1.332 . S
C1553 C213 1.341 . S
C1572 C42 1.322 . S
C1589 C73 1.344 . S
C1608 C233 1.340 . S
C1625 C253 1.336 . S
C1644 C93 1.336 . S
C1661 C273 1.336 . S
C1680 C113 1.332 . S
C1697 C293 1.336 . S
C1716 C133 1.333 . S
C1733 C313 1.338 . S
C1752 C153 1.318 . S
C1769 C145 0.760 . S
C1788 C5 0.738 . S
C1805 C85 0.787 . S
C1824 C25 0.852 . S
C1841 C105 0.766 . S
C1860 C54 0.771 . S
C1877 C125 0.761 . S
C1896 C65 0.722 . S
C1913 C305 0.756 . S
C1932 C165 0.822 . S
C1949 C245 0.776 . S
C1968 C185 0.814 . S
C1985 C265 0.758 . S
C2004 C205 0.798 . S
C2021 C225 0.756 . S
C2040 C285 0.841 . S
