# Generated by pormake.
# Topology umk, (4)-cn, num edge types: 1
# Building blocks:
#     Node 0, Type 0, BuildingBlock: GALJAG_clean_sbu_0, # of connection points: 4
#     Node 1, Type 0, BuildingBlock: GALJAG_clean_sbu_0, # of connection points: 4
#     Node 2, Type 0, BuildingBlock: GALJAG_clean_sbu_0, # of connection points: 4
#     Node 3, Type 0, BuildingBlock: GALJAG_clean_sbu_0, # of connection points: 4
#     Node 4, Type 0, BuildingBlock: GALJAG_clean_sbu_0, # of connection points: 4
#     Node 5, Type 0, BuildingBlock: GALJAG_clean_sbu_0, # of connection points: 4
#     Node 6, Type 0, BuildingBlock: GALJAG_clean_sbu_0, # of connection points: 4
#     Node 7, Type 0, BuildingBlock: GALJAG_clean_sbu_0, # of connection points: 4
#     Node 8, Type 0, BuildingBlock: GALJAG_clean_sbu_0, # of connection points: 4
#     Node 9, Type 0, BuildingBlock: GALJAG_clean_sbu_0, # of connection points: 4
#     Node 10, Type 0, BuildingBlock: GALJAG_clean_sbu_0, # of connection points: 4
#     Node 11, Type 0, BuildingBlock: GALJAG_clean_sbu_0, # of connection points: 4
#     Node 12, Type 0, BuildingBlock: GALJAG_clean_sbu_0, # of connection points: 4
#     Node 13, Type 0, BuildingBlock: GALJAG_clean_sbu_0, # of connection points: 4
#     Node 14, Type 0, BuildingBlock: GALJAG_clean_sbu_0, # of connection points: 4
#     Node 15, Type 0, BuildingBlock: GALJAG_clean_sbu_0, # of connection points: 4
#     Node 16, Type 0, BuildingBlock: GALJAG_clean_sbu_0, # of connection points: 4
#     Node 17, Type 0, BuildingBlock: GALJAG_clean_sbu_0, # of connection points: 4
#     Node 18, Type 0, BuildingBlock: GALJAG_clean_sbu_0, # of connection points: 4
#     Node 19, Type 0, BuildingBlock: GALJAG_clean_sbu_0, # of connection points: 4
#     Node 20, Type 0, BuildingBlock: GALJAG_clean_sbu_0, # of connection points: 4
#     Node 21, Type 0, BuildingBlock: GALJAG_clean_sbu_0, # of connection points: 4
#     Node 22, Type 0, BuildingBlock: GALJAG_clean_sbu_0, # of connection points: 4
#     Node 23, Type 0, BuildingBlock: GALJAG_clean_sbu_0, # of connection points: 4
#     Edge 24, Type (0, 0), BuildingBlock: KIFKEQ_clean_linker_1, # of connection points: 2
#     Edge 25, Type (0, 0), BuildingBlock: KIFKEQ_clean_linker_1, # of connection points: 2
#     Edge 26, Type (0, 0), BuildingBlock: KIFKEQ_clean_linker_1, # of connection points: 2
#     Edge 27, Type (0, 0), BuildingBlock: KIFKEQ_clean_linker_1, # of connection points: 2
#     Edge 28, Type (0, 0), BuildingBlock: KIFKEQ_clean_linker_1, # of connection points: 2
#     Edge 29, Type (0, 0), BuildingBlock: KIFKEQ_clean_linker_1, # of connection points: 2
#     Edge 30, Type (0, 0), BuildingBlock: KIFKEQ_clean_linker_1, # of connection points: 2
#     Edge 31, Type (0, 0), BuildingBlock: KIFKEQ_clean_linker_1, # of connection points: 2
#     Edge 32, Type (0, 0), BuildingBlock: KIFKEQ_clean_linker_1, # of connection points: 2
#     Edge 33, Type (0, 0), BuildingBlock: KIFKEQ_clean_linker_1, # of connection points: 2
#     Edge 34, Type (0, 0), BuildingBlock: KIFKEQ_clean_linker_1, # of connection points: 2
#     Edge 35, Type (0, 0), BuildingBlock: KIFKEQ_clean_linker_1, # of connection points: 2
#     Edge 36, Type (0, 0), BuildingBlock: KIFKEQ_clean_linker_1, # of connection points: 2
#     Edge 37, Type (0, 0), BuildingBlock: KIFKEQ_clean_linker_1, # of connection points: 2
#     Edge 38, Type (0, 0), BuildingBlock: KIFKEQ_clean_linker_1, # of connection points: 2
#     Edge 39, Type (0, 0), BuildingBlock: KIFKEQ_clean_linker_1, # of connection points: 2
#     Edge 40, Type (0, 0), BuildingBlock: KIFKEQ_clean_linker_1, # of connection points: 2
#     Edge 41, Type (0, 0), BuildingBlock: KIFKEQ_clean_linker_1, # of connection points: 2
#     Edge 42, Type (0, 0), BuildingBlock: KIFKEQ_clean_linker_1, # of connection points: 2
#     Edge 43, Type (0, 0), BuildingBlock: KIFKEQ_clean_linker_1, # of connection points: 2
#     Edge 44, Type (0, 0), BuildingBlock: KIFKEQ_clean_linker_1, # of connection points: 2
#     Edge 45, Type (0, 0), BuildingBlock: KIFKEQ_clean_linker_1, # of connection points: 2
#     Edge 46, Type (0, 0), BuildingBlock: KIFKEQ_clean_linker_1, # of connection points: 2
#     Edge 47, Type (0, 0), BuildingBlock: KIFKEQ_clean_linker_1, # of connection points: 2
#     Edge 48, Type (0, 0), BuildingBlock: KIFKEQ_clean_linker_1, # of connection points: 2
#     Edge 49, Type (0, 0), BuildingBlock: KIFKEQ_clean_linker_1, # of connection points: 2
#     Edge 50, Type (0, 0), BuildingBlock: KIFKEQ_clean_linker_1, # of connection points: 2
#     Edge 51, Type (0, 0), BuildingBlock: KIFKEQ_clean_linker_1, # of connection points: 2
#     Edge 52, Type (0, 0), BuildingBlock: KIFKEQ_clean_linker_1, # of connection points: 2
#     Edge 53, Type (0, 0), BuildingBlock: KIFKEQ_clean_linker_1, # of connection points: 2
#     Edge 54, Type (0, 0), BuildingBlock: KIFKEQ_clean_linker_1, # of connection points: 2
#     Edge 55, Type (0, 0), BuildingBlock: KIFKEQ_clean_linker_1, # of connection points: 2
#     Edge 56, Type (0, 0), BuildingBlock: KIFKEQ_clean_linker_1, # of connection points: 2
#     Edge 57, Type (0, 0), BuildingBlock: KIFKEQ_clean_linker_1, # of connection points: 2
#     Edge 58, Type (0, 0), BuildingBlock: KIFKEQ_clean_linker_1, # of connection points: 2
#     Edge 59, Type (0, 0), BuildingBlock: KIFKEQ_clean_linker_1, # of connection points: 2
#     Edge 60, Type (0, 0), BuildingBlock: KIFKEQ_clean_linker_1, # of connection points: 2
#     Edge 61, Type (0, 0), BuildingBlock: KIFKEQ_clean_linker_1, # of connection points: 2
#     Edge 62, Type (0, 0), BuildingBlock: KIFKEQ_clean_linker_1, # of connection points: 2
#     Edge 63, Type (0, 0), BuildingBlock: KIFKEQ_clean_linker_1, # of connection points: 2
#     Edge 64, Type (0, 0), BuildingBlock: KIFKEQ_clean_linker_1, # of connection points: 2
#     Edge 65, Type (0, 0), BuildingBlock: KIFKEQ_clean_linker_1, # of connection points: 2
#     Edge 66, Type (0, 0), BuildingBlock: KIFKEQ_clean_linker_1, # of connection points: 2
#     Edge 67, Type (0, 0), BuildingBlock: KIFKEQ_clean_linker_1, # of connection points: 2
#     Edge 68, Type (0, 0), BuildingBlock: KIFKEQ_clean_linker_1, # of connection points: 2
#     Edge 69, Type (0, 0), BuildingBlock: KIFKEQ_clean_linker_1, # of connection points: 2
#     Edge 70, Type (0, 0), BuildingBlock: KIFKEQ_clean_linker_1, # of connection points: 2
#     Edge 71, Type (0, 0), BuildingBlock: KIFKEQ_clean_linker_1, # of connection points: 2
# Relax obj value: 0.088
# Max RMSD: 0.064
# Mean RMSD: 0.064
data_MOF--net-umk--node1-GALJAG_clean_sbu_0--edge1-KIFKEQ_clean_linker_1
_symmetry_space_group_name_H-M    P1
_symmetry_Int_Tables_number       1
_symmetry_cell_setting            triclinic
loop_
_symmetry_equiv_pos_as_xyz
'x, y, z'
_cell_length_a     64.851127
_cell_length_b     64.88158
_cell_length_c     47.761246
_cell_angle_alpha  89.980701
_cell_angle_beta   89.994221
_cell_angle_gamma 120.01125
loop_
_atom_site_label
_atom_site_type_symbol
_atom_site_fract_x
_atom_site_fract_y
_atom_site_fract_z
_atom_type_partial_charge
In0 In 0.32985 0.46769 0.08811 0.0
O1 O 0.30259 0.44737 0.05365 0.0
O2 O 0.2968 0.47056 0.07957 0.0
C3 C 0.34925 0.43949 0.09258 0.0
C4 C 0.36118 0.50491 0.05665 0.0
C5 C 0.32299 0.4709 0.14336 0.0
O6 O 0.32774 0.43129 0.08558 0.0
O7 O 0.36052 0.46152 0.09752 0.0
O8 O 0.33966 0.48765 0.12976 0.0
O9 O 0.30955 0.45273 0.12898 0.0
C10 C 0.28976 0.4564 0.05912 0.0
O11 O 0.35105 0.50769 0.07773 0.0
O12 O 0.35536 0.48363 0.05162 0.0
In13 In 0.86369 0.33247 0.59171 0.0
O14 O 0.85224 0.29798 0.56677 0.0
O15 O 0.82671 0.30865 0.57406 0.0
C16 C 0.90883 0.34149 0.58585 0.0
C17 C 0.86329 0.37023 0.56786 0.0
C18 C 0.85426 0.32739 0.64728 0.0
O19 O 0.89536 0.33804 0.56513 0.0
O20 O 0.89926 0.33965 0.60943 0.0
O21 O 0.86112 0.34676 0.63449 0.0
O22 O 0.85188 0.31048 0.632 0.0
C23 C 0.83124 0.29379 0.56293 0.0
O24 O 0.8448 0.35249 0.57731 0.0
O25 O 0.88207 0.36933 0.57127 0.0
In26 In 0.53121 0.86264 0.0918 0.0
O27 O 0.55298 0.8548 0.06061 0.0
O28 O 0.52659 0.82583 0.08424 0.0
C29 C 0.55937 0.9105 0.09197 0.0
C30 C 0.49319 0.85389 0.05995 0.0
C31 C 0.52842 0.85411 0.14749 0.0
O32 O 0.56754 0.89674 0.08775 0.0
O33 O 0.53727 0.90011 0.09638 0.0
O34 O 0.51219 0.85497 0.13391 0.0
O35 O 0.54601 0.85726 0.13294 0.0
C36 C 0.54245 0.83276 0.06556 0.0
O37 O 0.49106 0.84648 0.08482 0.0
O38 O 0.51435 0.86547 0.05126 0.0
In39 In 0.66947 0.53201 0.59289 0.0
O40 O 0.70318 0.55474 0.56688 0.0
O41 O 0.69509 0.51992 0.57866 0.0
C42 C 0.65045 0.56056 0.59616 0.0
C43 C 0.63498 0.49658 0.56215 0.0
C44 C 0.68006 0.53057 0.64726 0.0
O45 O 0.66892 0.56613 0.58186 0.0
O46 O 0.64188 0.54085 0.60869 0.0
O47 O 0.66626 0.51212 0.63351 0.0
O48 O 0.689 0.54969 0.63339 0.0
C49 C 0.70882 0.53875 0.56555 0.0
O50 O 0.63898 0.49369 0.5873 0.0
O51 O 0.64829 0.51724 0.55268 0.0
In52 In 0.13898 0.66791 0.0936 0.0
O53 O 0.14664 0.69674 0.06119 0.0
O54 O 0.17566 0.70035 0.08553 0.0
C55 C 0.09113 0.64825 0.09627 0.0
C56 C 0.14633 0.63778 0.06156 0.0
C57 C 0.14852 0.67456 0.14903 0.0
O58 O 0.1046 0.66964 0.08908 0.0
O59 O 0.10182 0.63708 0.10219 0.0
O60 O 0.14867 0.65797 0.1354 0.0
O61 O 0.14404 0.68817 0.13458 0.0
C62 C 0.16867 0.70858 0.06612 0.0
O63 O 0.15507 0.64392 0.08579 0.0
O64 O 0.13401 0.64677 0.05371 0.0
In65 In 0.46851 0.13693 0.5946 0.0
O66 O 0.50679 0.14399 0.59158 0.0
O67 O 0.48317 0.12617 0.55778 0.0
C68 C 0.47214 0.15016 0.64883 0.0
C69 C 0.46441 0.17043 0.5654 0.0
C70 C 0.43622 0.08999 0.5943 0.0
O71 O 0.48966 0.15227 0.63493 0.0
O72 O 0.45299 0.14203 0.63515 0.0
O73 O 0.43668 0.104 0.57566 0.0
O74 O 0.45175 0.09967 0.61316 0.0
C75 C 0.5039 0.1347 0.56761 0.0
O76 O 0.44663 0.15309 0.57676 0.0
O77 O 0.4839 0.17117 0.56969 0.0
In78 In 0.53036 0.66779 0.91393 0.0
O79 O 0.54995 0.69372 0.94975 0.0
O80 O 0.53051 0.70263 0.92139 0.0
C81 C 0.55843 0.64838 0.90908 0.0
C82 C 0.49293 0.63613 0.94491 0.0
C83 C 0.52652 0.67378 0.85862 0.0
O84 O 0.56674 0.67001 0.91554 0.0
O85 O 0.53625 0.6369 0.9049 0.0
O86 O 0.5088 0.66003 0.87351 0.0
O87 O 0.54595 0.68482 0.87176 0.0
C88 C 0.54319 0.70819 0.94311 0.0
O89 O 0.49042 0.64743 0.92491 0.0
O90 O 0.51404 0.64093 0.94909 0.0
In91 In 0.86233 0.5287 0.40992 0.0
O92 O 0.85058 0.48991 0.42076 0.0
O93 O 0.87264 0.51682 0.44971 0.0
C94 C 0.85172 0.5255 0.35482 0.0
C95 C 0.82988 0.5365 0.43599 0.0
C96 C 0.90975 0.55765 0.40628 0.0
O97 O 0.84944 0.508 0.3689 0.0
O98 O 0.85872 0.5444 0.36871 0.0
O99 O 0.89654 0.56367 0.41914 0.0
O100 O 0.89897 0.53727 0.3952 0.0
C101 C 0.86144 0.49495 0.44391 0.0
O102 O 0.85161 0.55223 0.43458 0.0
O103 O 0.82457 0.51734 0.42356 0.0
In104 In 0.3338 0.86232 0.9137 0.0
O105 O 0.35845 0.8468 0.91973 0.0
O106 O 0.3535 0.86474 0.95401 0.0
C107 C 0.32738 0.85312 0.85814 0.0
C108 C 0.29323 0.83289 0.94155 0.0
C109 C 0.35409 0.9103 0.91229 0.0
O110 O 0.34383 0.85272 0.8718 0.0
O111 O 0.31387 0.85772 0.8726 0.0
O112 O 0.33191 0.89678 0.91503 0.0
O113 O 0.36574 0.89962 0.91017 0.0
C114 C 0.36349 0.85372 0.9448 0.0
O115 O 0.3055 0.85484 0.94678 0.0
O116 O 0.30102 0.82587 0.92169 0.0
In117 In 0.47025 0.33456 0.41265 0.0
O118 O 0.44776 0.30036 0.43817 0.0
O119 O 0.48339 0.31015 0.42791 0.0
C120 C 0.44236 0.35439 0.41179 0.0
C121 C 0.50563 0.36807 0.44405 0.0
C122 C 0.47184 0.32505 0.35775 0.0
O123 O 0.43458 0.33318 0.41975 0.0
O124 O 0.46387 0.36522 0.40424 0.0
O125 O 0.49026 0.33844 0.37175 0.0
O126 O 0.45271 0.31613 0.37154 0.0
C127 C 0.46446 0.29578 0.4404 0.0
O128 O 0.50834 0.36506 0.41844 0.0
O129 O 0.48509 0.35422 0.45367 0.0
In130 In 0.13698 0.47212 0.91067 0.0
O131 O 0.15257 0.5122 0.91736 0.0
O132 O 0.13619 0.48907 0.95197 0.0
C133 C 0.1454 0.4752 0.85489 0.0
C134 C 0.16626 0.45993 0.93685 0.0
C135 C 0.08891 0.44498 0.9105 0.0
O136 O 0.14562 0.49186 0.86878 0.0
O137 O 0.14137 0.45722 0.86921 0.0
O138 O 0.10225 0.43601 0.91124 0.0
O139 O 0.09979 0.46737 0.90975 0.0
C140 C 0.14667 0.51014 0.94287 0.0
O141 O 0.14425 0.44997 0.94197 0.0
O142 O 0.17344 0.47567 0.918 0.0
In143 In 0.66539 0.13527 0.41447 0.0
O144 O 0.69836 0.14595 0.44153 0.0
O145 O 0.69361 0.17342 0.42404 0.0
C146 C 0.64562 0.08747 0.41335 0.0
C147 C 0.63452 0.1396 0.4484 0.0
C148 C 0.67179 0.14488 0.35901 0.0
O149 O 0.66742 0.10101 0.41879 0.0
O150 O 0.63422 0.09808 0.40838 0.0
O151 O 0.65601 0.14624 0.37302 0.0
O152 O 0.68457 0.13907 0.37306 0.0
C153 C 0.70609 0.16802 0.43929 0.0
O154 O 0.63727 0.14587 0.42299 0.0
O155 O 0.64752 0.13145 0.45666 0.0
In156 In 0.66829 0.53164 0.91197 0.0
O157 O 0.69773 0.5529 0.9437 0.0
O158 O 0.69924 0.52538 0.92137 0.0
C159 C 0.64988 0.56069 0.90647 0.0
C160 C 0.63571 0.49519 0.94355 0.0
C161 C 0.67724 0.52878 0.85739 0.0
O162 O 0.66969 0.5674 0.91818 0.0
O163 O 0.63963 0.53959 0.89757 0.0
O164 O 0.6605 0.51178 0.87058 0.0
O165 O 0.68988 0.54716 0.87191 0.0
C166 C 0.70847 0.54145 0.93974 0.0
O167 O 0.64174 0.49204 0.91953 0.0
O168 O 0.64616 0.51654 0.95155 0.0
In169 In 0.13687 0.6678 0.41534 0.0
O170 O 0.14398 0.69708 0.44678 0.0
O171 O 0.17323 0.7008 0.4228 0.0
C172 C 0.08897 0.64653 0.41324 0.0
C173 C 0.14341 0.63754 0.44809 0.0
C174 C 0.14674 0.6753 0.36002 0.0
O175 O 0.10201 0.66858 0.41754 0.0
O176 O 0.1001 0.63538 0.41006 0.0
O177 O 0.15383 0.664 0.37499 0.0
O178 O 0.13525 0.6832 0.3731 0.0
C179 C 0.16599 0.70916 0.44178 0.0
O180 O 0.14772 0.63945 0.42211 0.0
O181 O 0.13603 0.65089 0.45729 0.0
In182 In 0.47118 0.13743 0.91391 0.0
O183 O 0.44802 0.14849 0.93868 0.0
O184 O 0.48275 0.17538 0.92647 0.0
C185 C 0.4423 0.08974 0.91063 0.0
C186 C 0.50612 0.14111 0.94803 0.0
C187 C 0.47477 0.14907 0.85909 0.0
O188 O 0.43596 0.10293 0.92287 0.0
O189 O 0.46289 0.10061 0.90021 0.0
O190 O 0.49105 0.14798 0.87231 0.0
O191 O 0.45678 0.14473 0.87365 0.0
C192 C 0.4638 0.17026 0.93937 0.0
O193 O 0.50994 0.1481 0.92291 0.0
O194 O 0.48473 0.13206 0.95573 0.0
In195 In 0.32893 0.46821 0.40916 0.0
O196 O 0.2978 0.44515 0.4382 0.0
O197 O 0.29768 0.47418 0.41782 0.0
C198 C 0.34971 0.44112 0.40758 0.0
C199 C 0.36087 0.50532 0.44044 0.0
C200 C 0.32001 0.46926 0.35408 0.0
O201 O 0.32956 0.43393 0.41863 0.0
O202 O 0.3592 0.46179 0.39735 0.0
O203 O 0.33155 0.48792 0.36851 0.0
O204 O 0.31242 0.45009 0.36762 0.0
C205 C 0.28746 0.45705 0.43476 0.0
O206 O 0.35823 0.50721 0.41458 0.0
O207 O 0.34737 0.4849 0.45038 0.0
In208 In 0.86123 0.33066 0.91319 0.0
O209 O 0.85397 0.30106 0.9444 0.0
O210 O 0.82487 0.29763 0.92046 0.0
C211 C 0.90924 0.35254 0.91084 0.0
C212 C 0.85336 0.36081 0.94449 0.0
C213 C 0.85177 0.32314 0.8579 0.0
O214 O 0.89665 0.33138 0.91934 0.0
O215 O 0.89763 0.36249 0.9036 0.0
O216 O 0.84635 0.33602 0.87238 0.0
O217 O 0.86147 0.31354 0.87147 0.0
C218 C 0.83199 0.28902 0.93926 0.0
O219 O 0.84681 0.35616 0.9193 0.0
O220 O 0.86378 0.35026 0.95382 0.0
In221 In 0.52845 0.86052 0.41347 0.0
O222 O 0.48936 0.84945 0.42071 0.0
O223 O 0.51388 0.86747 0.45362 0.0
C224 C 0.52726 0.85073 0.35832 0.0
C225 C 0.53573 0.82762 0.43921 0.0
C226 C 0.5569 0.90815 0.41142 0.0
O227 O 0.50896 0.84682 0.37191 0.0
O228 O 0.54608 0.85902 0.3727 0.0
O229 O 0.56275 0.89496 0.42462 0.0
O230 O 0.53689 0.89729 0.39948 0.0
C231 C 0.49261 0.8577 0.44526 0.0
O232 O 0.55135 0.84942 0.43893 0.0
O233 O 0.51703 0.82253 0.42586 0.0
In234 In 0.47 0.33348 0.09263 0.0
O235 O 0.50886 0.36207 0.08573 0.0
O236 O 0.4846 0.35505 0.05241 0.0
C237 C 0.47318 0.32509 0.14743 0.0
C238 C 0.46349 0.29384 0.0663 0.0
C239 C 0.43976 0.35073 0.09566 0.0
O240 O 0.48956 0.34242 0.13428 0.0
O241 O 0.45525 0.3115 0.13275 0.0
O242 O 0.43522 0.33275 0.08101 0.0
O243 O 0.45929 0.35974 0.10856 0.0
C244 C 0.50574 0.36693 0.06108 0.0
O245 O 0.44724 0.29912 0.06788 0.0
O246 O 0.48254 0.3081 0.0787 0.0
In247 In 0.1331 0.46598 0.58774 0.0
O248 O 0.12481 0.49615 0.5831 0.0
O249 O 0.15439 0.4989 0.5606 0.0
C250 C 0.14118 0.46983 0.64387 0.0
C251 C 0.16063 0.45364 0.55765 0.0
C252 C 0.08648 0.43366 0.5799 0.0
O253 O 0.14937 0.48774 0.628 0.0
O254 O 0.12934 0.45023 0.63143 0.0
O255 O 0.10069 0.42851 0.59174 0.0
O256 O 0.09583 0.45492 0.57169 0.0
C257 C 0.1415 0.5079 0.56596 0.0
O258 O 0.14079 0.45026 0.54911 0.0
O259 O 0.1664 0.46272 0.58174 0.0
In260 In 0.66769 0.13649 0.09212 0.0
O261 O 0.69176 0.14327 0.05425 0.0
O262 O 0.70416 0.16972 0.08591 0.0
C263 C 0.65023 0.08936 0.0839 0.0
C264 C 0.63449 0.14556 0.07071 0.0
C265 C 0.67322 0.14427 0.14816 0.0
O266 O 0.67059 0.10264 0.09422 0.0
O267 O 0.63914 0.09995 0.07723 0.0
O268 O 0.66497 0.15418 0.13266 0.0
O269 O 0.6789 0.13089 0.13537 0.0
C270 C 0.70798 0.16339 0.06242 0.0
O271 O 0.62991 0.13047 0.08989 0.0
O272 O 0.65602 0.15676 0.06315 0.0
In273 In 0.52628 0.66318 0.59249 0.0
O274 O 0.48685 0.63726 0.58424 0.0
O275 O 0.51152 0.643 0.55166 0.0
C276 C 0.52284 0.66952 0.64795 0.0
C277 C 0.53426 0.70317 0.56585 0.0
C278 C 0.55543 0.64465 0.59379 0.0
O279 O 0.50724 0.65175 0.63466 0.0
O280 O 0.54003 0.68435 0.63321 0.0
O281 O 0.56308 0.66634 0.58838 0.0
O282 O 0.5334 0.63267 0.59855 0.0
C283 C 0.49009 0.63235 0.55961 0.0
O284 O 0.54889 0.69572 0.56493 0.0
O285 O 0.51612 0.69085 0.5808 0.0
In286 In 0.86371 0.53013 0.08841 0.0
O287 O 0.84734 0.48985 0.0829 0.0
O288 O 0.86445 0.51221 0.0479 0.0
C289 C 0.85477 0.52603 0.14404 0.0
C290 C 0.83449 0.54179 0.06118 0.0
C291 C 0.91172 0.55815 0.08886 0.0
O292 O 0.85764 0.51103 0.13033 0.0
O293 O 0.85613 0.54298 0.12965 0.0
O294 O 0.89806 0.56673 0.09031 0.0
O295 O 0.90117 0.53581 0.08723 0.0
C296 C 0.8535 0.49132 0.05755 0.0
O297 O 0.85642 0.55139 0.05572 0.0
O298 O 0.82744 0.52681 0.08086 0.0
In299 In 0.33129 0.86447 0.5914 0.0
O300 O 0.36315 0.85831 0.5887 0.0
O301 O 0.34691 0.8601 0.55082 0.0
C302 C 0.32576 0.85582 0.64718 0.0
C303 C 0.29007 0.83491 0.56473 0.0
C304 C 0.34963 0.91211 0.58913 0.0
O305 O 0.33494 0.8469 0.63147 0.0
O306 O 0.31914 0.86862 0.63468 0.0
O307 O 0.32778 0.89785 0.59323 0.0
O308 O 0.36215 0.90241 0.58622 0.0
C309 C 0.36306 0.85761 0.56224 0.0
O310 O 0.30284 0.85658 0.55847 0.0
O311 O 0.29766 0.82821 0.58508 0.0
H312 H 0.28643 0.43896 0.17615 0.0
H313 H 0.35342 0.50499 0.17976 0.0
H314 H 0.2831 0.43926 0.22699 0.0
H315 H 0.35061 0.50493 0.23062 0.0
H316 H 0.33223 0.50803 0.32091 0.0
H317 H 0.33056 0.50921 0.26993 0.0
H318 H 0.3009 0.43293 0.26703 0.0
H319 H 0.30182 0.43175 0.31792 0.0
C320 C 0.30042 0.45358 0.18783 0.0
C321 C 0.32022 0.47191 0.17398 0.0
C322 C 0.2986 0.45368 0.217 0.0
C323 C 0.31666 0.47203 0.23304 0.0
C324 C 0.33619 0.49067 0.21902 0.0
C325 C 0.3379 0.49065 0.18983 0.0
C326 C 0.32509 0.4915 0.30935 0.0
C327 C 0.3172 0.4698 0.3234 0.0
C328 C 0.32429 0.49218 0.2801 0.0
C329 C 0.31574 0.47119 0.26424 0.0
C330 C 0.30728 0.44942 0.27847 0.0
C331 C 0.30793 0.44873 0.30769 0.0
H332 H 0.84057 0.2878 0.6795 0.0
H333 H 0.86008 0.36184 0.68435 0.0
H334 H 0.83696 0.28472 0.73044 0.0
H335 H 0.85697 0.35894 0.7352 0.0
H336 H 0.83146 0.34229 0.8246 0.0
H337 H 0.82916 0.3415 0.77361 0.0
H338 H 0.86326 0.29889 0.77077 0.0
H339 H 0.86508 0.29926 0.82179 0.0
C340 C 0.84398 0.30338 0.69145 0.0
C341 C 0.85066 0.32508 0.67795 0.0
C342 C 0.84205 0.30166 0.72063 0.0
C343 C 0.84674 0.32159 0.73694 0.0
C344 C 0.85292 0.34314 0.7233 0.0
C345 C 0.85484 0.34486 0.69415 0.0
C346 C 0.83822 0.33253 0.81308 0.0
C347 C 0.84854 0.32091 0.82719 0.0
C348 C 0.83704 0.33221 0.78385 0.0
C349 C 0.84618 0.32029 0.76806 0.0
C350 C 0.85582 0.30803 0.78226 0.0
C351 C 0.85698 0.30834 0.81151 0.0
H352 H 0.56542 0.8667 0.32324 0.0
H353 H 0.48855 0.82816 0.32409 0.0
H354 H 0.56511 0.86549 0.27228 0.0
H355 H 0.48811 0.82598 0.27312 0.0
H356 H 0.49614 0.85438 0.18374 0.0
H357 H 0.49559 0.85136 0.23451 0.0
H358 H 0.5572 0.84223 0.2314 0.0
H359 H 0.55825 0.84628 0.18053 0.0
C360 C 0.54845 0.85757 0.31251 0.0
C361 C 0.52702 0.84766 0.32763 0.0
C362 C 0.54824 0.85674 0.28325 0.0
C363 C 0.52657 0.84576 0.26843 0.0
C364 C 0.50514 0.83504 0.28373 0.0
C365 C 0.50536 0.83611 0.31297 0.0
C366 C 0.50949 0.8516 0.1939 0.0
C367 C 0.5273 0.85067 0.17818 0.0
C368 C 0.50909 0.84968 0.22306 0.0
C369 C 0.52635 0.84652 0.23722 0.0
C370 C 0.54385 0.84504 0.22132 0.0
C371 C 0.54438 0.84721 0.19214 0.0
H372 H 0.64748 0.49478 0.8207 0.0
H373 H 0.71454 0.56067 0.82527 0.0
H374 H 0.65086 0.49492 0.77003 0.0
H375 H 0.71857 0.56036 0.77447 0.0
H376 H 0.70031 0.5682 0.68319 0.0
H377 H 0.70189 0.56701 0.73403 0.0
H378 H 0.67031 0.49047 0.73097 0.0
H379 H 0.66778 0.4917 0.68012 0.0
C380 C 0.66319 0.50908 0.81087 0.0
C381 C 0.68067 0.52779 0.82693 0.0
C382 C 0.66524 0.5091 0.78176 0.0
C383 C 0.68498 0.5277 0.76798 0.0
C384 C 0.70291 0.54598 0.78425 0.0
C385 C 0.7007 0.54609 0.81339 0.0
C386 C 0.69396 0.55116 0.69339 0.0
C387 C 0.68375 0.53003 0.67772 0.0
C388 C 0.69498 0.55046 0.72259 0.0
C389 C 0.68606 0.52861 0.73678 0.0
C390 C 0.67687 0.50757 0.72087 0.0
C391 C 0.67558 0.50826 0.69169 0.0
H392 H 0.12818 0.6939 0.32342 0.0
H393 H 0.17295 0.66226 0.32721 0.0
H394 H 0.131 0.69526 0.27263 0.0
H395 H 0.17657 0.6644 0.27625 0.0
H396 H 0.1513 0.64349 0.18516 0.0
H397 H 0.15316 0.64546 0.23607 0.0
H398 H 0.15575 0.71333 0.23329 0.0
H399 H 0.15295 0.71081 0.18233 0.0
C400 C 0.13895 0.68757 0.31339 0.0
C401 C 0.15026 0.67788 0.32932 0.0
C402 C 0.14071 0.68849 0.2842 0.0
C403 C 0.154 0.67991 0.27018 0.0
C404 C 0.16586 0.67081 0.28625 0.0
C405 C 0.16394 0.66973 0.31548 0.0
C406 C 0.15246 0.65892 0.19543 0.0
C407 C 0.15184 0.67692 0.17976 0.0
C408 C 0.15368 0.66014 0.22466 0.0
C409 C 0.15451 0.67952 0.23894 0.0
C410 C 0.15468 0.69791 0.2231 0.0
C411 C 0.15324 0.69657 0.19386 0.0
H412 H 0.50691 0.14942 0.82215 0.0
H413 H 0.44537 0.15835 0.82715 0.0
H414 H 0.50695 0.15276 0.77148 0.0
H415 H 0.44598 0.16287 0.77638 0.0
H416 H 0.43515 0.13678 0.68508 0.0
H417 H 0.43684 0.13948 0.73589 0.0
H418 H 0.5138 0.17702 0.73228 0.0
H419 H 0.51192 0.1732 0.68142 0.0
C420 C 0.49364 0.15256 0.81241 0.0
C421 C 0.47605 0.15347 0.82859 0.0
C422 C 0.49374 0.15465 0.78329 0.0
C423 C 0.47642 0.15804 0.76962 0.0
C424 C 0.45933 0.15982 0.78603 0.0
C425 C 0.45905 0.1574 0.81517 0.0
C426 C 0.45243 0.14585 0.69515 0.0
C427 C 0.4734 0.15463 0.6793 0.0
C428 C 0.45343 0.14754 0.72435 0.0
C429 C 0.47547 0.15833 0.7384 0.0
C430 C 0.49649 0.16811 0.72232 0.0
C431 C 0.49545 0.16611 0.69313 0.0
H432 H 0.49173 0.63652 0.68479 0.0
H433 H 0.55149 0.70813 0.68029 0.0
H434 H 0.49186 0.63926 0.73561 0.0
H435 H 0.55109 0.71134 0.73115 0.0
H436 H 0.56322 0.69637 0.82182 0.0
H437 H 0.56123 0.69671 0.771 0.0
H438 H 0.48434 0.65648 0.77515 0.0
H439 H 0.48649 0.65537 0.82611 0.0
C440 C 0.50466 0.65301 0.69468 0.0
C441 C 0.52169 0.67205 0.67859 0.0
C442 C 0.50465 0.65466 0.72385 0.0
C443 C 0.52155 0.67551 0.73763 0.0
C444 C 0.5381 0.69485 0.72136 0.0
C445 C 0.53824 0.69309 0.69218 0.0
C446 C 0.54589 0.68777 0.81188 0.0
C447 C 0.52502 0.67574 0.82793 0.0
C448 C 0.54472 0.68808 0.78268 0.0
C449 C 0.52261 0.67656 0.76882 0.0
C450 C 0.50169 0.66517 0.78503 0.0
C451 C 0.50289 0.66466 0.81425 0.0
H452 H 0.83302 0.48626 0.32108 0.0
H453 H 0.86324 0.56254 0.31923 0.0
H454 H 0.83056 0.4851 0.27008 0.0
H455 H 0.86175 0.56162 0.26833 0.0
H456 H 0.84203 0.55225 0.17696 0.0
H457 H 0.8378 0.55074 0.22779 0.0
H458 H 0.85624 0.49529 0.23112 0.0
H459 H 0.85942 0.49618 0.18031 0.0
C460 C 0.83905 0.50277 0.30975 0.0
C461 C 0.84836 0.52449 0.32413 0.0
C462 C 0.83783 0.50216 0.28049 0.0
C463 C 0.84614 0.52329 0.26493 0.0
C464 C 0.85487 0.54493 0.27949 0.0
C465 C 0.85585 0.5455 0.30873 0.0
C466 C 0.84496 0.53961 0.1886 0.0
C467 C 0.85111 0.52438 0.17469 0.0
C468 C 0.84269 0.53883 0.21776 0.0
C469 C 0.84679 0.52297 0.23372 0.0
C470 C 0.85255 0.50746 0.21962 0.0
C471 C 0.85455 0.50808 0.19045 0.0
H472 H 0.30994 0.87642 0.68454 0.0
H473 H 0.33734 0.82806 0.67932 0.0
H474 H 0.30888 0.87334 0.73528 0.0
H475 H 0.3356 0.82433 0.73034 0.0
H476 H 0.35767 0.84894 0.82194 0.0
H477 H 0.35567 0.84735 0.77095 0.0
H478 H 0.28931 0.84787 0.77395 0.0
H479 H 0.2918 0.85025 0.82489 0.0
C480 C 0.31546 0.86486 0.69425 0.0
C481 C 0.32379 0.85253 0.67793 0.0
C482 C 0.31469 0.86295 0.72341 0.0
C483 C 0.32212 0.84854 0.73703 0.0
C484 C 0.33004 0.83583 0.72061 0.0
C485 C 0.33091 0.83784 0.69137 0.0
C486 C 0.34256 0.84852 0.81169 0.0
C487 C 0.32498 0.8499 0.82741 0.0
C488 C 0.34133 0.84746 0.78243 0.0
C489 C 0.32241 0.84764 0.76823 0.0
C490 C 0.30439 0.84817 0.78411 0.0
C491 C 0.30571 0.84938 0.81334 0.0
H492 H 0.5108 0.33775 0.32482 0.0
H493 H 0.43418 0.30443 0.32185 0.0
H494 H 0.51195 0.33464 0.27402 0.0
H495 H 0.43528 0.30221 0.27105 0.0
H496 H 0.44182 0.28795 0.18024 0.0
H497 H 0.44226 0.28488 0.23119 0.0
H498 H 0.50692 0.35332 0.23441 0.0
H499 H 0.50691 0.35582 0.18368 0.0
C500 C 0.4942 0.3297 0.31328 0.0
C501 C 0.47242 0.32145 0.32727 0.0
C502 C 0.49484 0.32805 0.28414 0.0
C503 C 0.47373 0.31837 0.26827 0.0
C504 C 0.45189 0.30947 0.28248 0.0
C505 C 0.45124 0.31088 0.31164 0.0
C506 C 0.45626 0.30216 0.19189 0.0
C507 C 0.47429 0.32214 0.17799 0.0
C508 C 0.45645 0.3005 0.22111 0.0
C509 C 0.47455 0.31891 0.23706 0.0
C510 C 0.49289 0.3386 0.22294 0.0
C511 C 0.49281 0.34013 0.19378 0.0
H512 H 0.12156 0.43357 0.68156 0.0
H513 H 0.16767 0.5097 0.6757 0.0
H514 H 0.12476 0.43596 0.73228 0.0
H515 H 0.17157 0.5121 0.72669 0.0
H516 H 0.14775 0.509 0.81879 0.0
H517 H 0.14869 0.50843 0.76774 0.0
H518 H 0.15094 0.44299 0.77046 0.0
H519 H 0.14918 0.4432 0.82142 0.0
C520 C 0.13264 0.45082 0.69113 0.0
C521 C 0.14433 0.47146 0.67463 0.0
C522 C 0.13462 0.45218 0.72027 0.0
C523 C 0.1485 0.47422 0.7337 0.0
C524 C 0.16049 0.49487 0.71711 0.0
C525 C 0.15839 0.4935 0.68789 0.0
C526 C 0.14863 0.4946 0.80845 0.0
C527 C 0.14821 0.47605 0.82409 0.0
C528 C 0.14931 0.49433 0.77916 0.0
C529 C 0.1497 0.47556 0.76488 0.0
C530 C 0.15014 0.45747 0.78068 0.0
C531 C 0.1493 0.45766 0.80992 0.0
H532 H 0.70655 0.14647 0.3254 0.0
H533 H 0.6424 0.15106 0.32335 0.0
H534 H 0.70902 0.14933 0.2745 0.0
H535 H 0.64435 0.15311 0.27235 0.0
H536 H 0.66335 0.17299 0.18083 0.0
H537 H 0.66515 0.17617 0.2319 0.0
H538 H 0.68845 0.12438 0.23578 0.0
H539 H 0.68733 0.12181 0.185 0.0
C540 C 0.69301 0.14816 0.31405 0.0
C541 C 0.67421 0.14841 0.32834 0.0
C542 C 0.69432 0.14964 0.28485 0.0
C543 C 0.67675 0.15121 0.26922 0.0
C544 C 0.65834 0.15218 0.28366 0.0
C545 C 0.65713 0.15086 0.3129 0.0
C546 C 0.66904 0.16247 0.19266 0.0
C547 C 0.67519 0.14715 0.17893 0.0
C548 C 0.66995 0.16417 0.22192 0.0
C549 C 0.67695 0.15054 0.23804 0.0
C550 C 0.68338 0.13547 0.22413 0.0
C551 C 0.68258 0.13386 0.19496 0.0
H552 H 0.2124 0.47326 0.9247 0.0
H553 H 0.15715 0.43586 0.98623 0.0
H554 H 0.24058 0.46851 0.95423 0.0
H555 H 0.18545 0.43143 0.01589 0.0
H556 H 0.2547 0.46612 0.07244 0.0
H557 H 0.22308 0.46321 0.04197 0.0
H558 H 0.24743 0.43543 0.97563 0.0
H559 H 0.27892 0.43798 0.00629 0.0
C560 C 0.20623 0.46379 0.94436 0.0
C561 C 0.18263 0.455 0.95322 0.0
C562 C 0.2223 0.46098 0.96118 0.0
C563 C 0.21516 0.44967 0.98734 0.0
C564 C 0.19141 0.44033 0.99587 0.0
C565 C 0.17523 0.44279 0.97885 0.0
C566 C 0.25308 0.45906 0.05149 0.0
C567 C 0.26926 0.45231 0.04169 0.0
C568 C 0.23494 0.45731 0.03412 0.0
C569 C 0.23288 0.44915 0.00646 0.0
C570 C 0.24872 0.44188 0.99684 0.0
C571 C 0.26662 0.44323 0.0144 0.0
H572 H 0.7247 0.21598 0.43806 0.0
H573 H 0.73424 0.161 0.47639 0.0
H574 H 0.75611 0.24573 0.46753 0.0
H575 H 0.76571 0.19094 0.5062 0.0
H576 H 0.8358 0.2586 0.53672 0.0
H577 H 0.80694 0.22765 0.50533 0.0
H578 H 0.75822 0.25388 0.51846 0.0
H579 H 0.78681 0.28459 0.54945 0.0
C580 C 0.73366 0.21027 0.45262 0.0
C581 C 0.72688 0.18614 0.45507 0.0
C582 C 0.75156 0.2273 0.46961 0.0
C583 C 0.76314 0.22061 0.48943 0.0
C584 C 0.75713 0.19661 0.49105 0.0
C585 C 0.73909 0.17949 0.47406 0.0
C586 C 0.81885 0.25759 0.53296 0.0
C587 C 0.81359 0.27405 0.54543 0.0
C588 C 0.80235 0.23989 0.51508 0.0
C589 C 0.78046 0.23855 0.50919 0.0
C590 C 0.77511 0.25474 0.52217 0.0
C591 C 0.79144 0.27223 0.5401 0.0
H592 H 0.56772 0.84184 0.01708 0.0
H593 H 0.52708 0.78608 0.07694 0.0
H594 H 0.57166 0.81328 0.98743 0.0
H595 H 0.53126 0.75762 0.0474 0.0
H596 H 0.55982 0.71736 0.99674 0.0
H597 H 0.56322 0.74911 0.02746 0.0
H598 H 0.54035 0.77709 0.95976 0.0
H599 H 0.53671 0.74527 0.92915 0.0
C600 C 0.55995 0.82357 0.02409 0.0
C601 C 0.547 0.81613 0.04924 0.0
C602 C 0.56213 0.80725 0.00708 0.0
C603 C 0.55172 0.78327 0.01513 0.0
C604 C 0.53962 0.77605 0.04083 0.0
C605 C 0.53714 0.79229 0.05765 0.0
C606 C 0.55585 0.7305 0.98834 0.0
C607 C 0.54791 0.72883 0.96062 0.0
C608 C 0.55768 0.74856 0.00594 0.0
C609 C 0.55199 0.76547 0.99597 0.0
C610 C 0.54504 0.76438 0.9679 0.0
C611 C 0.54285 0.74613 0.95044 0.0
H612 H 0.73997 0.57644 0.53303 0.0
H613 H 0.72204 0.50546 0.55838 0.0
H614 H 0.76987 0.57764 0.5006 0.0
H615 H 0.7518 0.50673 0.52632 0.0
H616 H 0.783 0.50412 0.44293 0.0
H617 H 0.75481 0.50648 0.47452 0.0
H618 H 0.80879 0.57716 0.49949 0.0
H619 H 0.83716 0.57487 0.46754 0.0
C620 C 0.74261 0.56125 0.53192 0.0
C621 C 0.72858 0.54081 0.5481 0.0
C622 C 0.75972 0.56195 0.5134 0.0
C623 C 0.76291 0.54215 0.51066 0.0
C624 C 0.74941 0.52208 0.52757 0.0
C625 C 0.73248 0.52143 0.5461 0.0
C626 C 0.78883 0.52028 0.45493 0.0
C627 C 0.81233 0.53925 0.4529 0.0
C628 C 0.77272 0.52156 0.47316 0.0
C629 C 0.77971 0.54187 0.48977 0.0
C630 C 0.80292 0.5613 0.48691 0.0
C631 C 0.81914 0.55997 0.46868 0.0
H632 H 0.25938 0.78718 0.92929 0.0
H633 H 0.28096 0.84125 0.99312 0.0
H634 H 0.22754 0.75876 0.9599 0.0
H635 H 0.24936 0.81267 0.02387 0.0
H636 H 0.21471 0.74173 0.07808 0.0
H637 H 0.24323 0.77356 0.04754 0.0
H638 H 0.18887 0.75314 0.98434 0.0
H639 H 0.16019 0.72157 0.01504 0.0
C640 C 0.25715 0.79304 0.94973 0.0
C641 C 0.27264 0.8164 0.95885 0.0
C642 C 0.23891 0.77683 0.96718 0.0
C643 C 0.23609 0.78356 0.99424 0.0
C644 C 0.25126 0.80704 0.00315 0.0
C645 C 0.26923 0.82338 0.98551 0.0
C646 C 0.20878 0.74427 0.05783 0.0
C647 C 0.18527 0.72919 0.04891 0.0
C648 C 0.22506 0.76251 0.04042 0.0
C649 C 0.21822 0.76571 0.01359 0.0
C650 C 0.19458 0.75094 0.00489 0.0
C651 C 0.17819 0.73299 0.0225 0.0
H652 H 0.4304 0.18384 0.5648 0.0
H653 H 0.49451 0.19537 0.52355 0.0
H654 H 0.42933 0.21373 0.53439 0.0
H655 H 0.49272 0.22371 0.49213 0.0
H656 H 0.50131 0.2924 0.46138 0.0
H657 H 0.50009 0.26212 0.49198 0.0
H658 H 0.42306 0.22436 0.48927 0.0
H659 H 0.4245 0.25593 0.45974 0.0
C660 C 0.44409 0.19263 0.54904 0.0
C661 C 0.46276 0.18767 0.54679 0.0
C662 C 0.44342 0.2096 0.53145 0.0
C663 C 0.46114 0.2215 0.51094 0.0
C664 C 0.47921 0.21564 0.5082 0.0
C665 C 0.48019 0.19923 0.52613 0.0
C666 C 0.4841 0.27759 0.4672 0.0
C667 C 0.463 0.2764 0.458 0.0
C668 C 0.48335 0.26005 0.48467 0.0
C669 C 0.46146 0.24044 0.4929 0.0
C670 C 0.44026 0.23926 0.48364 0.0
C671 C 0.44103 0.25721 0.46653 0.0
H672 H 0.8421 0.56173 0.00923 0.0
H673 H 0.78939 0.53108 0.07486 0.0
H674 H 0.81309 0.56468 0.97918 0.0
H675 H 0.76059 0.53449 0.04498 0.0
H676 H 0.72311 0.56451 0.98976 0.0
H677 H 0.75529 0.56782 0.0197 0.0
H678 H 0.77281 0.53072 0.95757 0.0
H679 H 0.74036 0.52696 0.92787 0.0
C680 C 0.82446 0.55602 0.01739 0.0
C681 C 0.81794 0.54611 0.04433 0.0
C682 C 0.80788 0.55762 1.00017 0.0
C683 C 0.78466 0.54978 0.0098 0.0
C684 C 0.77845 0.54081 0.03716 0.0
C685 C 0.79488 0.53878 0.05418 0.0
C686 C 0.73401 0.5573 0.98239 0.0
C687 C 0.72923 0.54541 0.95655 0.0
C688 C 0.75232 0.55912 0.99955 0.0
C689 C 0.76647 0.54953 0.99088 0.0
C690 C 0.76225 0.53842 0.9646 0.0
C691 C 0.74365 0.53619 0.9477 0.0
H692 H 0.15702 0.72276 0.49218 0.0
H693 H 0.21196 0.74242 0.42975 0.0
H694 H 0.18542 0.75477 0.52258 0.0
H695 H 0.24019 0.77465 0.45999 0.0
H696 H 0.27775 0.84272 0.51297 0.0
H697 H 0.24609 0.81388 0.48261 0.0
H698 H 0.22395 0.7608 0.5477 0.0
H699 H 0.25587 0.78952 0.57798 0.0
C700 C 0.17505 0.73417 0.48477 0.0
C701 C 0.18234 0.7301 0.45864 0.0
C702 C 0.19128 0.75237 0.50222 0.0
C703 C 0.21494 0.76709 0.49361 0.0
C704 C 0.22198 0.76363 0.46702 0.0
C705 C 0.20587 0.74517 0.44978 0.0
C706 C 0.26593 0.82499 0.52093 0.0
C707 C 0.26929 0.81831 0.5478 0.0
C708 C 0.24792 0.8085 0.50351 0.0
C709 C 0.23267 0.78516 0.51283 0.0
C710 C 0.23539 0.77875 0.54011 0.0
C711 C 0.25367 0.79513 0.55738 0.0
H712 H 0.42598 0.16365 0.97167 0.0
H713 H 0.49641 0.2172 0.94509 0.0
H714 H 0.42431 0.19261 0.00313 0.0
H715 H 0.49465 0.24598 0.97618 0.0
H716 H 0.49699 0.28087 0.05889 0.0
H717 H 0.49532 0.25045 0.02765 0.0
H718 H 0.42372 0.23124 0.00356 0.0
H719 H 0.4253 0.26175 0.03518 0.0
C720 C 0.44095 0.18165 0.97228 0.0
C721 C 0.46139 0.18812 0.95606 0.0
C722 C 0.43997 0.19821 0.99024 0.0
C723 C 0.45948 0.22145 0.9924 0.0
C724 C 0.47952 0.22807 0.97539 0.0
C725 C 0.48045 0.21162 0.95742 0.0
C726 C 0.48079 0.27004 0.04714 0.0
C727 C 0.46132 0.27378 0.04937 0.0
C728 C 0.47991 0.25272 0.02908 0.0
C729 C 0.45952 0.23869 0.01286 0.0
C730 C 0.43966 0.24178 0.01584 0.0
C731 C 0.44058 0.25924 0.03389 0.0
H732 H 0.15565 0.44268 0.50209 0.0
H733 H 0.20226 0.4557 0.57266 0.0
H734 H 0.18443 0.44026 0.47127 0.0
H735 H 0.23098 0.45312 0.5418 0.0
H736 H 0.26853 0.42835 0.48044 0.0
H737 H 0.23582 0.42409 0.51005 0.0
H738 H 0.226 0.47155 0.45547 0.0
H739 H 0.25876 0.47597 0.426 0.0
C740 C 0.17188 0.44467 0.51108 0.0
C741 C 0.17678 0.44949 0.53976 0.0
C742 C 0.18838 0.4434 0.49341 0.0
C743 C 0.20995 0.4466 0.50413 0.0
C744 C 0.2144 0.4504 0.53301 0.0
C745 C 0.19803 0.45197 0.55064 0.0
C746 C 0.25918 0.43763 0.47459 0.0
C747 C 0.26621 0.45254 0.45097 0.0
C748 C 0.24057 0.43528 0.49161 0.0
C749 C 0.22843 0.44752 0.48507 0.0
C750 C 0.23491 0.46174 0.46087 0.0
C751 C 0.25372 0.46435 0.44408 0.0
H752 H 0.78518 0.25781 0.92851 0.0
H753 H 0.84156 0.27245 0.98719 0.0
H754 H 0.75693 0.2252 0.95817 0.0
H755 H 0.81323 0.2398 0.01692 0.0
H756 H 0.74661 0.20589 0.07688 0.0
H757 H 0.77827 0.2341 0.04609 0.0
H758 H 0.7473 0.18507 0.97703 0.0
H759 H 0.71563 0.15681 0.00782 0.0
C760 C 0.79159 0.25384 0.94756 0.0
C761 C 0.81554 0.26772 0.9556 0.0
C762 C 0.77544 0.2351 0.96447 0.0
C763 C 0.78288 0.23002 0.9899 0.0
C764 C 0.80699 0.24346 0.99754 0.0
C765 C 0.8232 0.26204 0.98046 0.0
C766 C 0.74677 0.201 0.05523 0.0
C767 C 0.72859 0.17922 0.04472 0.0
C768 C 0.76494 0.21709 0.03764 0.0
C769 C 0.76517 0.21181 0.00913 0.0
C770 C 0.74743 0.18968 0.99885 0.0
C771 C 0.72939 0.17348 0.01651 0.0
H772 H 0.57372 0.83376 0.47085 0.0
H773 H 0.50259 0.78095 0.44556 0.0
H774 H 0.5752 0.80457 0.50221 0.0
H775 H 0.5041 0.75205 0.47671 0.0
H776 H 0.50248 0.7186 0.56062 0.0
H777 H 0.50471 0.74931 0.52935 0.0
H778 H 0.57409 0.76419 0.50115 0.0
H779 H 0.57188 0.73325 0.5326 0.0
C780 C 0.55856 0.81589 0.47174 0.0
C781 C 0.53799 0.80967 0.45589 0.0
C782 C 0.55942 0.79922 0.48963 0.0
C783 C 0.53964 0.77618 0.49214 0.0
C784 C 0.51945 0.76981 0.47555 0.0
C785 C 0.51866 0.78633 0.45758 0.0
C786 C 0.51832 0.72855 0.54797 0.0
C787 C 0.53695 0.72343 0.54893 0.0
C788 C 0.51953 0.74602 0.52994 0.0
C789 C 0.53944 0.7589 0.51259 0.0
C790 C 0.55854 0.75452 0.51433 0.0
C791 C 0.55725 0.73682 0.53226 0.0
H792 H 0.32908 0.39115 0.08573 0.0
H793 H 0.3959 0.45507 0.10265 0.0
H794 H 0.34919 0.36772 0.08807 0.0
H795 H 0.41597 0.43204 0.10415 0.0
H796 H 0.44299 0.38439 0.13193 0.0
H797 H 0.41928 0.40386 0.1328 0.0
H798 H 0.37782 0.36078 0.06288 0.0
H799 H 0.40121 0.34063 0.0627 0.0
C800 C 0.34803 0.40016 0.08992 0.0
C801 C 0.36089 0.42491 0.09416 0.0
C802 C 0.35957 0.38679 0.0911 0.0
C803 C 0.38418 0.39795 0.0965 0.0
C804 C 0.39693 0.42273 0.10057 0.0
C805 C 0.38543 0.436 0.09953 0.0
C806 C 0.4287 0.37893 0.11687 0.0
C807 C 0.42408 0.36115 0.09708 0.0
C808 C 0.41517 0.39019 0.11725 0.0
C809 C 0.39686 0.38416 0.09763 0.0
C810 C 0.3917 0.36576 0.0784 0.0
C811 C 0.40516 0.35431 0.07818 0.0
H812 H 0.05392 0.43933 0.55001 0.0
H813 H 0.06082 0.38992 0.60439 0.0
H814 H 0.01083 0.4132 0.54927 0.0
H815 H 0.01757 0.36367 0.60363 0.0
H816 H 0.94053 0.34816 0.62723 0.0
H817 H 0.98374 0.36734 0.62323 0.0
H818 H 0.97845 0.37321 0.53376 0.0
H819 H 0.93515 0.35407 0.53777 0.0
C820 C 0.04624 0.42273 0.56151 0.0
C821 C 0.0607 0.41671 0.57737 0.0
C822 C 0.02157 0.40768 0.56094 0.0
C823 C 0.01083 0.3864 0.57642 0.0
C824 C 0.02536 0.38005 0.59166 0.0
C825 C 0.05009 0.39501 0.592 0.0
C826 C 0.94855 0.35315 0.60665 0.0
C827 C 0.93449 0.34977 0.58284 0.0
C828 C 0.9733 0.36404 0.60434 0.0
C829 C 0.98448 0.37192 0.5782 0.0
C830 C 0.97032 0.36755 0.55421 0.0
C831 C 0.94554 0.35649 0.5565 0.0
H832 H 0.54485 0.94262 0.10077 0.0
H833 H 0.60709 0.93753 0.08057 0.0
H834 H 0.5683 0.98573 0.09728 0.0
H835 H 0.63064 0.98096 0.07659 0.0
H836 H 0.66734 0.06121 0.10392 0.0
H837 H 0.6464 0.01766 0.1053 0.0
H838 H 0.58737 0.01529 0.06051 0.0
H839 H 0.60798 0.05856 0.05963 0.0
C840 C 0.56357 0.95073 0.09555 0.0
C841 C 0.57412 0.9367 0.09084 0.0
C842 C 0.57698 0.97544 0.09335 0.0
C843 C 0.60127 0.98675 0.08632 0.0
C844 C 0.61198 0.97276 0.08213 0.0
C845 C 0.5985 0.94793 0.08432 0.0
C846 C 0.65001 0.05132 0.0941 0.0
C847 C 0.63919 0.06325 0.08189 0.0
C848 C 0.63806 0.02641 0.09482 0.0
C849 C 0.61509 0.01305 0.08337 0.0
C850 C 0.60482 0.02507 0.07007 0.0
C851 C 0.6167 0.04987 0.0694 0.0
H852 H 0.65953 0.59908 0.56376 0.0
H853 H 0.61542 0.55516 0.63163 0.0
H854 H 0.63769 0.62082 0.56364 0.0
H855 H 0.5942 0.57719 0.63216 0.0
H856 H 0.5413 0.59802 0.60131 0.0
H857 H 0.56575 0.57943 0.60244 0.0
H858 H 0.62878 0.64797 0.58945 0.0
H859 H 0.60396 0.66661 0.58756 0.0
C860 C 0.64541 0.59432 0.57889 0.0
C861 C 0.63898 0.57527 0.59749 0.0
C862 C 0.63297 0.60682 0.57891 0.0
C863 C 0.61398 0.60054 0.59765 0.0
C864 C 0.60833 0.58212 0.61699 0.0
C865 C 0.62058 0.56957 0.61681 0.0
C866 C 0.56037 0.60917 0.59872 0.0
C867 C 0.57073 0.63378 0.59445 0.0
C868 C 0.57444 0.59853 0.59956 0.0
C869 C 0.59928 0.61224 0.59635 0.0
C870 C 0.60968 0.63689 0.59184 0.0
C871 C 0.59551 0.64758 0.59089 0.0
H872 H 0.94322 0.54317 0.07864 0.0
H873 H 0.93947 0.60589 0.10001 0.0
H874 H 0.98638 0.56612 0.08066 0.0
H875 H 0.98302 0.62894 0.10291 0.0
H876 H 0.06311 0.66591 0.07726 0.0
H877 H 0.01955 0.64511 0.0753 0.0
H878 H 0.01669 0.58401 0.11542 0.0
H879 H 0.05992 0.60442 0.11657 0.0
C880 C 0.95166 0.56189 0.08391 0.0
C881 C 0.93797 0.57271 0.08934 0.0
C882 C 0.97643 0.57504 0.08526 0.0
C883 C 0.9882 0.59932 0.09235 0.0
C884 C 0.97452 0.61031 0.09726 0.0
C885 C 0.94961 0.59711 0.09572 0.0
C886 C 0.05309 0.64807 0.08576 0.0
C887 C 0.06489 0.63669 0.09682 0.0
C888 C 0.02816 0.6362 0.08475 0.0
C889 C 0.01461 0.61277 0.09488 0.0
C890 C 0.02654 0.60181 0.10681 0.0
C891 C 0.05134 0.61358 0.10764 0.0
H892 H 0.42194 0.05868 0.6377 0.0
H893 H 0.41445 0.06289 0.54834 0.0
H894 H 0.39802 0.01517 0.63527 0.0
H895 H 0.39119 0.01929 0.54591 0.0
H896 H 0.39071 0.94452 0.5638 0.0
H897 H 0.4088 0.98792 0.56391 0.0
H898 H 0.35048 0.98182 0.61365 0.0
H899 H 0.33184 0.93824 0.6128 0.0
C900 C 0.41498 0.05029 0.61763 0.0
C901 C 0.42 0.06406 0.5932 0.0
C902 C 0.40129 0.0255 0.61629 0.0
C903 C 0.3929 0.01412 0.59043 0.0
C904 C 0.39751 0.02783 0.56606 0.0
C905 C 0.41071 0.05267 0.56749 0.0
C906 C 0.38164 0.95244 0.57452 0.0
C907 C 0.35992 0.93812 0.58831 0.0
C908 C 0.39192 0.97717 0.57445 0.0
C909 C 0.3809 0.98797 0.58872 0.0
C910 C 0.35916 0.97373 0.60246 0.0
C911 C 0.34856 0.94892 0.60193 0.0
H912 H 0.6071 0.66954 0.91103 0.0
H913 H 0.54288 0.60128 0.9032 0.0
H914 H 0.63096 0.64996 0.9081 0.0
H915 H 0.56639 0.58171 0.90135 0.0
H916 H 0.61273 0.55322 0.87346 0.0
H917 H 0.59234 0.57606 0.87193 0.0
H918 H 0.64102 0.62446 0.93397 0.0
H919 H 0.66208 0.60201 0.93451 0.0
C920 C 0.59811 0.65037 0.90876 0.0
C921 C 0.57316 0.63694 0.90721 0.0
C922 C 0.61174 0.63913 0.90724 0.0
C923 C 0.60063 0.61424 0.90431 0.0
C924 C 0.57563 0.60093 0.90293 0.0
C925 C 0.5621 0.61214 0.90421 0.0
C926 C 0.6192 0.56887 0.88658 0.0
C927 C 0.63885 0.57575 0.90427 0.0
C928 C 0.60742 0.58189 0.88587 0.0
C929 C 0.61477 0.60192 0.90316 0.0
C930 C 0.63497 0.60926 0.92021 0.0
C931 C 0.64697 0.59634 0.92065 0.0
H932 H 0.94046 0.55055 0.37466 0.0
H933 H 0.93809 0.59833 0.43583 0.0
H934 H 0.98375 0.57329 0.37515 0.0
H935 H 0.9816 0.62078 0.43705 0.0
H936 H 0.06085 0.66692 0.41431 0.0
H937 H 0.01742 0.64676 0.411 0.0
H938 H 0.01474 0.5789 0.40661 0.0
H939 H 0.05793 0.59906 0.40906 0.0
C940 C 0.94923 0.56595 0.38821 0.0
C941 C 0.93593 0.57259 0.40534 0.0
C942 C 0.97405 0.57891 0.38864 0.0
C943 C 0.98618 0.59868 0.40642 0.0
C944 C 0.97284 0.60575 0.42297 0.0
C945 C 0.94793 0.59285 0.42237 0.0
C946 C 0.05091 0.6477 0.41259 0.0
C947 C 0.06275 0.63456 0.41183 0.0
C948 C 0.02605 0.63614 0.41083 0.0
C949 C 0.01259 0.61122 0.40836 0.0
C950 C 0.02454 0.59815 0.4079 0.0
C951 C 0.04931 0.60968 0.4095 0.0
H952 H 0.4503 0.05959 0.87926 0.0
H953 H 0.40074 0.06077 0.93873 0.0
H954 H 0.42762 0.01637 0.87858 0.0
H955 H 0.37825 0.01718 0.93876 0.0
H956 H 0.33313 0.93803 0.91293 0.0
H957 H 0.35307 0.98156 0.91128 0.0
H958 H 0.42136 0.985 0.90975 0.0
H959 H 0.40153 0.94185 0.91061 0.0
C960 C 0.43452 0.05057 0.89223 0.0
C961 C 0.42739 0.06354 0.90923 0.0
C962 C 0.42158 0.02576 0.89198 0.0
C963 C 0.40129 0.01325 0.90893 0.0
C964 C 0.39371 0.02625 0.92533 0.0
C965 C 0.40663 0.0512 0.92542 0.0
C966 C 0.35239 0.94817 0.91218 0.0
C967 C 0.36577 0.93655 0.91174 0.0
C968 C 0.36382 0.97308 0.91138 0.0
C969 C 0.38882 0.98679 0.91015 0.0
C970 C 0.40208 0.97504 0.91006 0.0
C971 C 0.39071 0.95026 0.91075 0.0
H972 H 0.33858 0.40111 0.43791 0.0
H973 H 0.38776 0.44896 0.37601 0.0
H974 H 0.36026 0.37931 0.43912 0.0
H975 H 0.40875 0.4267 0.37616 0.0
H976 H 0.45811 0.40152 0.40624 0.0
H977 H 0.43481 0.42135 0.4053 0.0
H978 H 0.37019 0.35342 0.41451 0.0
H979 H 0.39388 0.33364 0.4167 0.0
C980 C 0.35384 0.40675 0.42431 0.0
C981 C 0.36165 0.42684 0.40707 0.0
C982 C 0.3662 0.3942 0.42487 0.0
C983 C 0.38645 0.40136 0.40795 0.0
C984 C 0.39364 0.42101 0.39002 0.0
C985 C 0.38151 0.4337 0.38976 0.0
C986 C 0.43892 0.3908 0.40808 0.0
C987 C 0.42779 0.36603 0.41143 0.0
C988 C 0.42551 0.40216 0.40732 0.0
C989 C 0.40054 0.38899 0.40947 0.0
C990 C 0.38938 0.36415 0.41305 0.0
C991 C 0.40291 0.35279 0.41416 0.0
H992 H 0.06085 0.39664 0.9051 0.0
H993 H 0.0577 0.46105 0.91627 0.0
H994 H 0.01734 0.37345 0.90417 0.0
H995 H 0.01448 0.438 0.91638 0.0
H996 H 0.93888 0.39515 0.8864 0.0
H997 H 0.98216 0.41649 0.88545 0.0
H998 H 0.9824 0.35979 0.93277 0.0
H999 H 0.93887 0.338 0.93276 0.0
C1000 C 0.05085 0.40579 0.90754 0.0
C1001 C 0.06264 0.43064 0.91059 0.0
C1002 C 0.02593 0.39252 0.90716 0.0
C1003 C 0.01234 0.40385 0.91001 0.0
C1004 C 0.02429 0.4287 0.91349 0.0
C1005 C 0.04911 0.44193 0.91363 0.0
C1006 C 0.94817 0.3872 0.89651 0.0
C1007 C 0.93551 0.36497 0.90977 0.0
C1008 C 0.97302 0.3995 0.89613 0.0
C1009 C 0.98585 0.39001 0.9093 0.0
C1010 C 0.97312 0.36754 0.9222 0.0
C1011 C 0.94819 0.35511 0.92234 0.0
H1012 H 0.59684 0.93684 0.44219 0.0
H1013 H 0.55064 0.93851 0.37821 0.0
H1014 H 0.61952 0.9804 0.44245 0.0
H1015 H 0.5736 0.98172 0.37773 0.0
H1016 H 0.5984 0.05613 0.40855 0.0
H1017 H 0.57843 0.01301 0.40787 0.0
H1018 H 0.64628 0.01605 0.41608 0.0
H1019 H 0.66633 0.05961 0.41765 0.0
C1020 C 0.59173 0.94652 0.42797 0.0
C1021 C 0.57183 0.93433 0.4104 0.0
C1022 C 0.60478 0.97145 0.428 0.0
C1023 C 0.59821 0.98458 0.41035 0.0
C1024 C 0.57881 0.97222 0.39209 0.0
C1025 C 0.56572 0.94742 0.39223 0.0
C1026 C 0.6091 0.04764 0.41019 0.0
C1027 C 0.63394 0.06124 0.41302 0.0
C1028 C 0.59766 0.02288 0.40961 0.0
C1029 C 0.61076 0.01102 0.41158 0.0
C1030 C 0.63565 0.02462 0.41469 0.0
C1031 C 0.64715 0.04954 0.41545 0.0
H1032 H 0.44684 0.62718 0.94711 0.0
H1033 H 0.49395 0.60424 0.98069 0.0
H1034 H 0.4138 0.59607 0.97451 0.0
H1035 H 0.4611 0.57325 0.00747 0.0
H1036 H 0.39074 0.50293 0.018 0.0
H1037 H 0.42182 0.53558 0.99106 0.0
H1038 H 0.40349 0.58454 0.02932 0.0
H1039 H 0.37231 0.5517 0.05687 0.0
C1040 C 0.45012 0.61556 0.96034 0.0
C1041 C 0.47291 0.61804 0.9617 0.0
C1042 C 0.43131 0.5979 0.97606 0.0
C1043 C 0.43497 0.58227 0.99292 0.0
C1044 C 0.4578 0.58497 0.99444 0.0
C1045 C 0.47659 0.60275 0.97916 0.0
C1046 C 0.39321 0.52061 0.02064 0.0
C1047 C 0.37919 0.52481 0.03965 0.0
C1048 C 0.41105 0.53929 0.00526 0.0
C1049 C 0.41505 0.56252 0.00824 0.0
C1050 C 0.40063 0.56672 0.02662 0.0
C1051 C 0.38294 0.54801 0.04243 0.0
H1052 H 0.82427 0.37277 0.55156 0.0
H1053 H 0.90114 0.41105 0.54802 0.0
H1054 H 0.82341 0.40322 0.52219 0.0
H1055 H 0.90025 0.44141 0.51866 0.0
H1056 H 0.88881 0.50261 0.4902 0.0
H1057 H 0.88884 0.47297 0.52163 0.0
H1058 H 0.83371 0.41682 0.47201 0.0
H1059 H 0.83367 0.44654 0.44046 0.0
C1060 C 0.84097 0.38779 0.54471 0.0
C1061 C 0.86278 0.38956 0.55208 0.0
C1062 C 0.84046 0.4051 0.52774 0.0
C1063 C 0.86175 0.42462 0.51805 0.0
C1064 C 0.88357 0.42666 0.52601 0.0
C1065 C 0.88407 0.40926 0.54276 0.0
C1066 C 0.87667 0.48394 0.48601 0.0
C1067 C 0.86125 0.47686 0.46285 0.0
C1068 C 0.87677 0.46699 0.50395 0.0
C1069 C 0.86128 0.4426 0.49928 0.0
C1070 C 0.84568 0.43551 0.47626 0.0
C1071 C 0.84576 0.45249 0.45812 0.0
H1072 H 0.39202 0.83613 0.92794 0.0
H1073 H 0.37345 0.86355 1.00016 0.0
H1074 H 0.42203 0.83299 0.95573 0.0
H1075 H 0.40344 0.86055 0.02778 0.0
H1076 H 0.44665 0.83469 0.07589 0.0
H1077 H 0.41358 0.83144 0.04787 0.0
H1078 H 0.46078 0.8621 0.97709 0.0
H1079 H 0.4937 0.86519 0.00496 0.0
C1080 C 0.39422 0.84129 0.94978 0.0
C1081 C 0.38049 0.85019 0.96185 0.0
C1082 C 0.41145 0.83959 0.96564 0.0
C1083 C 0.41512 0.84656 0.99393 0.0
C1084 C 0.40087 0.85479 0.00615 0.0
C1085 C 0.3838 0.85665 0.99026 0.0
C1086 C 0.44987 0.84051 0.05427 0.0
C1087 C 0.47277 0.8503 0.04265 0.0
C1088 C 0.43098 0.83875 0.03828 0.0
C1089 C 0.43459 0.84657 0.0103 0.0
C1090 C 0.45736 0.85568 0.99848 0.0
C1091 C 0.47625 0.8576 0.01451 0.0
H1092 H 0.55113 0.4 0.42816 0.0
H1093 H 0.50358 0.37758 0.49924 0.0
H1094 H 0.58278 0.43054 0.45692 0.0
H1095 H 0.53504 0.40837 0.52786 0.0
H1096 H 0.60418 0.4506 0.57763 0.0
H1097 H 0.57332 0.41901 0.54903 0.0
H1098 H 0.59248 0.46793 0.47956 0.0
H1099 H 0.62355 0.49929 0.50794 0.0
C1100 C 0.54744 0.40164 0.44991 0.0
C1101 C 0.52488 0.38644 0.46144 0.0
C1102 C 0.56552 0.4192 0.46635 0.0
C1103 C 0.56142 0.42192 0.49468 0.0
C1104 C 0.53887 0.40657 0.50622 0.0
C1105 C 0.5208 0.38902 0.48977 0.0
C1106 C 0.60179 0.45455 0.55624 0.0
C1107 C 0.61626 0.47739 0.54502 0.0
C1108 C 0.58405 0.43651 0.5399 0.0
C1109 C 0.58045 0.44095 0.51201 0.0
C1110 C 0.59501 0.46382 0.50083 0.0
C1111 C 0.61271 0.48183 0.51715 0.0
H1112 H 0.13903 0.50996 0.99893 0.0
H1113 H 0.1626 0.5561 0.92656 0.0
H1114 H 0.14189 0.54242 0.0275 0.0
H1115 H 0.16561 0.58872 0.95528 0.0
H1116 H 0.13278 0.62595 0.00732 0.0
H1117 H 0.13603 0.59665 0.97864 0.0
H1118 H 0.17056 0.58221 0.04702 0.0
H1119 H 0.16718 0.61155 0.07588 0.0
C1120 C 0.14508 0.52713 0.9892 0.0
C1121 C 0.15046 0.53047 0.96047 0.0
C1122 C 0.14686 0.54577 0.00561 0.0
C1123 C 0.1539 0.5681 0.99362 0.0
C1124 C 0.1599 0.57162 0.96503 0.0
C1125 C 0.1583 0.553 0.94863 0.0
C1126 C 0.14122 0.61665 0.01618 0.0
C1127 C 0.14962 0.62095 0.04389 0.0
C1128 C 0.14324 0.59999 0.99967 0.0
C1129 C 0.15356 0.58712 0.01056 0.0
C1130 C 0.16235 0.59172 0.03814 0.0
C1131 C 0.1605 0.60856 0.05461 0.0
H1132 H 0.55028 0.15216 0.58355 0.0
H1133 H 0.50164 0.11818 0.51473 0.0
H1134 H 0.58286 0.15456 0.55519 0.0
H1135 H 0.53401 0.12039 0.48661 0.0
H1136 H 0.60161 0.15225 0.43411 0.0
H1137 H 0.57061 0.15153 0.46381 0.0
H1138 H 0.59589 0.12801 0.53369 0.0
H1139 H 0.62704 0.12893 0.50405 0.0
C1140 C 0.54653 0.14507 0.56247 0.0
C1141 C 0.52344 0.13501 0.55135 0.0
C1142 C 0.56514 0.14639 0.54627 0.0
C1143 C 0.56102 0.13783 0.5186 0.0
C1144 C 0.53784 0.1275 0.50769 0.0
C1145 C 0.51926 0.12607 0.52389 0.0
C1146 C 0.60064 0.14709 0.45586 0.0
C1147 C 0.61668 0.14056 0.46674 0.0
C1148 C 0.58281 0.14653 0.47282 0.0
C1149 C 0.58072 0.13955 0.50104 0.0
C1150 C 0.59715 0.13362 0.51209 0.0
C1151 C 0.61491 0.13405 0.49508 0.0
H1152 H 0.50404 0.3771 0.00598 0.0
H1153 H 0.55156 0.39754 0.07694 0.0
H1154 H 0.53617 0.40744 0.97745 0.0
H1155 H 0.58371 0.42782 0.04837 0.0
H1156 H 0.62369 0.49771 0.99752 0.0
H1157 H 0.59274 0.46605 0.02579 0.0
H1158 H 0.57554 0.41689 0.95702 0.0
H1159 H 0.60656 0.44869 0.9286 0.0
C1160 C 0.52136 0.38804 0.01545 0.0
C1161 C 0.52528 0.38503 0.04371 0.0
C1162 C 0.53979 0.40529 0.99907 0.0
C1163 C 0.56244 0.42001 0.01068 0.0
C1164 C 0.56637 0.41689 0.03892 0.0
C1165 C 0.548 0.39951 0.05524 0.0
C1166 C 0.61338 0.48012 0.98846 0.0
C1167 C 0.61751 0.47567 0.96084 0.0
C1168 C 0.59574 0.46197 0.00471 0.0
C1169 C 0.58172 0.439 0.99362 0.0
C1170 C 0.58594 0.43448 0.96603 0.0
C1171 C 0.60376 0.45263 0.94983 0.0
H1172 H 0.15509 0.60398 0.43291 0.0
H1173 H 0.13703 0.63245 0.50452 0.0
H1174 H 0.15645 0.57418 0.46292 0.0
H1175 H 0.13893 0.60312 0.53461 0.0
H1176 H 0.11364 0.52827 0.57052 0.0
H1177 H 0.11591 0.56086 0.54275 0.0
H1178 H 0.17828 0.5685 0.50046 0.0
H1179 H 0.17564 0.53549 0.52785 0.0
C1180 C 0.15168 0.60403 0.4551 0.0
C1181 C 0.14582 0.62045 0.46633 0.0
C1182 C 0.15259 0.58706 0.47235 0.0
C1183 C 0.1477 0.58619 0.50119 0.0
C1184 C 0.14241 0.60303 0.51244 0.0
C1185 C 0.14145 0.61993 0.49521 0.0
C1186 C 0.12799 0.53709 0.55552 0.0
C1187 C 0.14441 0.52928 0.55132 0.0
C1188 C 0.12935 0.55584 0.53965 0.0
C1189 C 0.14722 0.56725 0.51925 0.0
C1190 C 0.16407 0.55986 0.51566 0.0
C1191 C 0.16268 0.54108 0.53152 0.0
H1192 H 0.58643 0.11734 0.07618 0.0
H1193 H 0.64018 0.17848 0.03129 0.0
H1194 H 0.55562 0.11754 0.04732 0.0
H1195 H 0.60929 0.17933 0.00302 0.0
H1196 H 0.55201 0.15416 0.93475 0.0
H1197 H 0.58301 0.15702 0.96609 0.0
H1198 H 0.5343 0.13721 0.03595 0.0
H1199 H 0.50312 0.13348 0.00435 0.0
C1200 C 0.59161 0.13115 0.06053 0.0
C1201 C 0.61571 0.14783 0.05591 0.0
C1202 C 0.57392 0.13134 0.044 0.0
C1203 C 0.57992 0.14835 0.02262 0.0
C1204 C 0.60403 0.16566 0.01886 0.0
C1205 C 0.62173 0.16533 0.03524 0.0
C1206 C 0.54798 0.15045 0.95681 0.0
C1207 C 0.52513 0.14346 0.96708 0.0
C1208 C 0.5658 0.15227 0.97486 0.0
C1209 C 0.56122 0.14737 0.00363 0.0
C1210 C 0.53839 0.14074 0.01389 0.0
C1211 C 0.52053 0.13871 0.99579 0.0
H1212 H 0.49303 0.61988 0.50588 0.0
H1213 H 0.44288 0.60585 0.57281 0.0
H1214 H 0.46102 0.59018 0.47684 0.0
H1215 H 0.41075 0.57634 0.5436 0.0
H1216 H 0.36816 0.50504 0.49653 0.0
H1217 H 0.39877 0.53678 0.52493 0.0
H1218 H 0.42456 0.58211 0.45195 0.0
H1219 H 0.39403 0.55012 0.42338 0.0
C1220 C 0.47512 0.61057 0.5143 0.0
C1221 C 0.47047 0.6151 0.54166 0.0
C1222 C 0.45675 0.59367 0.49759 0.0
C1223 C 0.43334 0.58088 0.50792 0.0
C1224 C 0.42865 0.5857 0.53516 0.0
C1225 C 0.44702 0.60266 0.55184 0.0
C1226 C 0.38028 0.52182 0.48656 0.0
C1227 C 0.37875 0.52508 0.45772 0.0
C1228 C 0.39773 0.54006 0.50288 0.0
C1229 C 0.4141 0.56197 0.4907 0.0
C1230 C 0.41237 0.56534 0.46188 0.0
C1231 C 0.39482 0.54709 0.44556 0.0
H1232 H 0.86472 0.37212 0.99942 0.0
H1233 H 0.83434 0.3881 0.92793 0.0
H1234 H 0.86154 0.40213 0.02678 0.0
H1235 H 0.83089 0.41799 0.95544 0.0
H1236 H 0.86239 0.49045 0.00203 0.0
H1237 H 0.85937 0.45725 0.97495 0.0
H1238 H 0.83275 0.41199 0.0479 0.0
H1239 H 0.836 0.44541 0.07517 0.0
C1240 C 0.85714 0.38189 0.98964 0.0
C1241 C 0.84992 0.37788 0.96149 0.0
C1242 C 0.85515 0.39896 0.00538 0.0
C1243 C 0.846 0.41246 0.99326 0.0
C1244 C 0.83825 0.40804 0.96527 0.0
C1245 C 0.84014 0.39088 0.94955 0.0
C1246 C 0.85567 0.47335 0.01224 0.0
C1247 C 0.84955 0.47055 0.04076 0.0
C1248 C 0.8538 0.45429 0.99667 0.0
C1249 C 0.84588 0.43201 0.0093 0.0
C1250 C 0.83915 0.42902 0.03767 0.0
C1251 C 0.84088 0.4481 0.05323 0.0
H1252 H 0.44501 0.83443 0.43363 0.0
H1253 H 0.49628 0.87733 0.49678 0.0
H1254 H 0.41296 0.83216 0.46265 0.0
H1255 H 0.4644 0.8757 0.52545 0.0
H1256 H 0.39963 0.85178 0.58138 0.0
H1257 H 0.4303 0.8499 0.55356 0.0
H1258 H 0.3981 0.85739 0.47785 0.0
H1259 H 0.36724 0.85855 0.50554 0.0
C1260 C 0.44942 0.84344 0.45368 0.0
C1261 C 0.47314 0.85613 0.46289 0.0
C1262 C 0.43108 0.84223 0.47027 0.0
C1263 C 0.43608 0.8538 0.49639 0.0
C1264 C 0.45984 0.86629 0.50567 0.0
C1265 C 0.47815 0.86739 0.48913 0.0
C1266 C 0.39905 0.85282 0.55878 0.0
C1267 C 0.38106 0.85533 0.54565 0.0
C1268 C 0.41669 0.85191 0.54283 0.0
C1269 C 0.41673 0.85356 0.51343 0.0
C1270 C 0.39846 0.85571 0.50038 0.0
C1271 C 0.38083 0.85653 0.51629 0.0
loop_
_geom_bond_atom_site_label_1
_geom_bond_atom_site_label_2
_geom_bond_distance
_geom_bond_site_symmetry_2
_ccdc_geom_bond_type
In0 O1 2.294 . S
In0 O2 2.326 . S
In0 O6 2.266 . S
In0 O7 2.326 . S
In0 O8 2.266 . S
In0 O9 2.326 . S
In0 O11 2.294 . S
In0 O12 2.326 . S
O1 In0 2.294 . S
O1 C10 1.240 . S
O2 In0 2.326 . S
O2 C10 1.252 . S
C3 O6 1.252 . S
C3 O7 1.260 . S
C4 O11 1.240 . S
C4 O12 1.252 . S
C5 O8 1.252 . S
C5 O9 1.260 . S
O6 In0 2.266 . S
O6 C3 1.252 . S
O7 In0 2.326 . S
O7 C3 1.260 . S
O8 In0 2.266 . S
O8 C5 1.252 . S
O9 In0 2.326 . S
O9 C5 1.260 . S
C10 O1 1.240 . S
C10 O2 1.252 . S
O11 In0 2.294 . S
O11 C4 1.240 . S
O12 In0 2.326 . S
O12 C4 1.252 . S
In13 O14 2.294 . S
In13 O15 2.326 . S
In13 O19 2.266 . S
In13 O20 2.326 . S
In13 O21 2.266 . S
In13 O22 2.326 . S
In13 O24 2.294 . S
In13 O25 2.326 . S
O14 In13 2.294 . S
O14 C23 1.240 . S
O15 In13 2.326 . S
O15 C23 1.252 . S
C16 O19 1.252 . S
C16 O20 1.260 . S
C17 O24 1.240 . S
C17 O25 1.252 . S
C18 O21 1.252 . S
C18 O22 1.260 . S
O19 In13 2.266 . S
O19 C16 1.252 . S
O20 In13 2.326 . S
O20 C16 1.260 . S
O21 In13 2.266 . S
O21 C18 1.252 . S
O22 In13 2.326 . S
O22 C18 1.260 . S
C23 O14 1.240 . S
C23 O15 1.252 . S
O24 In13 2.294 . S
O24 C17 1.240 . S
O25 In13 2.326 . S
O25 C17 1.252 . S
In26 O27 2.294 . S
In26 O28 2.326 . S
In26 O32 2.266 . S
In26 O33 2.326 . S
In26 O34 2.266 . S
In26 O35 2.326 . S
In26 O37 2.294 . S
In26 O38 2.326 . S
O27 In26 2.294 . S
O27 C36 1.240 . S
O28 In26 2.326 . S
O28 C36 1.252 . S
C29 O32 1.252 . S
C29 O33 1.260 . S
C30 O37 1.240 . S
C30 O38 1.252 . S
C31 O34 1.252 . S
C31 O35 1.260 . S
O32 In26 2.266 . S
O32 C29 1.252 . S
O33 In26 2.326 . S
O33 C29 1.260 . S
O34 In26 2.266 . S
O34 C31 1.252 . S
O35 In26 2.326 . S
O35 C31 1.260 . S
C36 O27 1.240 . S
C36 O28 1.252 . S
O37 In26 2.294 . S
O37 C30 1.240 . S
O38 In26 2.326 . S
O38 C30 1.252 . S
In39 O40 2.294 . S
In39 O41 2.326 . S
In39 O45 2.266 . S
In39 O46 2.326 . S
In39 O47 2.266 . S
In39 O48 2.326 . S
In39 O50 2.294 . S
In39 O51 2.326 . S
O40 In39 2.294 . S
O40 C49 1.240 . S
O41 In39 2.326 . S
O41 C49 1.252 . S
C42 O45 1.252 . S
C42 O46 1.260 . S
C43 O50 1.240 . S
C43 O51 1.252 . S
C44 O47 1.252 . S
C44 O48 1.260 . S
O45 In39 2.266 . S
O45 C42 1.252 . S
O46 In39 2.326 . S
O46 C42 1.260 . S
O47 In39 2.266 . S
O47 C44 1.252 . S
O48 In39 2.326 . S
O48 C44 1.260 . S
C49 O40 1.240 . S
C49 O41 1.252 . S
O50 In39 2.294 . S
O50 C43 1.240 . S
O51 In39 2.326 . S
O51 C43 1.252 . S
In52 O53 2.294 . S
In52 O54 2.326 . S
In52 O58 2.266 . S
In52 O59 2.326 . S
In52 O60 2.266 . S
In52 O61 2.326 . S
In52 O63 2.294 . S
In52 O64 2.326 . S
O53 In52 2.294 . S
O53 C62 1.240 . S
O54 In52 2.326 . S
O54 C62 1.252 . S
C55 O58 1.252 . S
C55 O59 1.260 . S
C56 O63 1.240 . S
C56 O64 1.252 . S
C57 O60 1.252 . S
C57 O61 1.260 . S
O58 In52 2.266 . S
O58 C55 1.252 . S
O59 In52 2.326 . S
O59 C55 1.260 . S
O60 In52 2.266 . S
O60 C57 1.252 . S
O61 In52 2.326 . S
O61 C57 1.260 . S
C62 O53 1.240 . S
C62 O54 1.252 . S
O63 In52 2.294 . S
O63 C56 1.240 . S
O64 In52 2.326 . S
O64 C56 1.252 . S
In65 O66 2.294 . S
In65 O67 2.326 . S
In65 O71 2.266 . S
In65 O72 2.326 . S
In65 O73 2.266 . S
In65 O74 2.326 . S
In65 O76 2.294 . S
In65 O77 2.326 . S
O66 In65 2.294 . S
O66 C75 1.240 . S
O67 In65 2.326 . S
O67 C75 1.252 . S
C68 O71 1.252 . S
C68 O72 1.260 . S
C69 O76 1.240 . S
C69 O77 1.252 . S
C70 O73 1.252 . S
C70 O74 1.260 . S
O71 In65 2.266 . S
O71 C68 1.252 . S
O72 In65 2.326 . S
O72 C68 1.260 . S
O73 In65 2.266 . S
O73 C70 1.252 . S
O74 In65 2.326 . S
O74 C70 1.260 . S
C75 O66 1.240 . S
C75 O67 1.252 . S
O76 In65 2.294 . S
O76 C69 1.240 . S
O77 In65 2.326 . S
O77 C69 1.252 . S
In78 O79 2.294 . S
In78 O80 2.326 . S
In78 O84 2.266 . S
In78 O85 2.326 . S
In78 O86 2.266 . S
In78 O87 2.326 . S
In78 O89 2.294 . S
In78 O90 2.326 . S
O79 In78 2.294 . S
O79 C88 1.240 . S
O80 In78 2.326 . S
O80 C88 1.252 . S
C81 O84 1.252 . S
C81 O85 1.260 . S
C82 O89 1.240 . S
C82 O90 1.252 . S
C83 O86 1.252 . S
C83 O87 1.260 . S
O84 In78 2.266 . S
O84 C81 1.252 . S
O85 In78 2.326 . S
O85 C81 1.260 . S
O86 In78 2.266 . S
O86 C83 1.252 . S
O87 In78 2.326 . S
O87 C83 1.260 . S
C88 O79 1.240 . S
C88 O80 1.252 . S
O89 In78 2.294 . S
O89 C82 1.240 . S
O90 In78 2.326 . S
O90 C82 1.252 . S
In91 O92 2.294 . S
In91 O93 2.326 . S
In91 O97 2.266 . S
In91 O98 2.326 . S
In91 O99 2.266 . S
In91 O100 2.326 . S
In91 O102 2.294 . S
In91 O103 2.326 . S
O92 In91 2.294 . S
O92 C101 1.240 . S
O93 In91 2.326 . S
O93 C101 1.252 . S
C94 O97 1.252 . S
C94 O98 1.260 . S
C95 O102 1.240 . S
C95 O103 1.252 . S
C96 O99 1.252 . S
C96 O100 1.260 . S
O97 In91 2.266 . S
O97 C94 1.252 . S
O98 In91 2.326 . S
O98 C94 1.260 . S
O99 In91 2.266 . S
O99 C96 1.252 . S
O100 In91 2.326 . S
O100 C96 1.260 . S
C101 O92 1.240 . S
C101 O93 1.252 . S
O102 In91 2.294 . S
O102 C95 1.240 . S
O103 In91 2.326 . S
O103 C95 1.252 . S
In104 O105 2.294 . S
In104 O106 2.326 . S
In104 O110 2.266 . S
In104 O111 2.326 . S
In104 O112 2.266 . S
In104 O113 2.326 . S
In104 O115 2.294 . S
In104 O116 2.326 . S
O105 In104 2.294 . S
O105 C114 1.240 . S
O106 In104 2.326 . S
O106 C114 1.252 . S
C107 O110 1.252 . S
C107 O111 1.260 . S
C108 O115 1.240 . S
C108 O116 1.252 . S
C109 O112 1.252 . S
C109 O113 1.260 . S
O110 In104 2.266 . S
O110 C107 1.252 . S
O111 In104 2.326 . S
O111 C107 1.260 . S
O112 In104 2.266 . S
O112 C109 1.252 . S
O113 In104 2.326 . S
O113 C109 1.260 . S
C114 O105 1.240 . S
C114 O106 1.252 . S
O115 In104 2.294 . S
O115 C108 1.240 . S
O116 In104 2.326 . S
O116 C108 1.252 . S
In117 O118 2.294 . S
In117 O119 2.326 . S
In117 O123 2.266 . S
In117 O124 2.326 . S
In117 O125 2.266 . S
In117 O126 2.326 . S
In117 O128 2.294 . S
In117 O129 2.326 . S
O118 In117 2.294 . S
O118 C127 1.240 . S
O119 In117 2.326 . S
O119 C127 1.252 . S
C120 O123 1.252 . S
C120 O124 1.260 . S
C121 O128 1.240 . S
C121 O129 1.252 . S
C122 O125 1.252 . S
C122 O126 1.260 . S
O123 In117 2.266 . S
O123 C120 1.252 . S
O124 In117 2.326 . S
O124 C120 1.260 . S
O125 In117 2.266 . S
O125 C122 1.252 . S
O126 In117 2.326 . S
O126 C122 1.260 . S
C127 O118 1.240 . S
C127 O119 1.252 . S
O128 In117 2.294 . S
O128 C121 1.240 . S
O129 In117 2.326 . S
O129 C121 1.252 . S
In130 O131 2.294 . S
In130 O132 2.326 . S
In130 O136 2.266 . S
In130 O137 2.326 . S
In130 O138 2.266 . S
In130 O139 2.326 . S
In130 O141 2.294 . S
In130 O142 2.326 . S
O131 In130 2.294 . S
O131 C140 1.240 . S
O132 In130 2.326 . S
O132 C140 1.252 . S
C133 O136 1.252 . S
C133 O137 1.260 . S
C134 O141 1.240 . S
C134 O142 1.252 . S
C135 O138 1.252 . S
C135 O139 1.260 . S
O136 In130 2.266 . S
O136 C133 1.252 . S
O137 In130 2.326 . S
O137 C133 1.260 . S
O138 In130 2.266 . S
O138 C135 1.252 . S
O139 In130 2.326 . S
O139 C135 1.260 . S
C140 O131 1.240 . S
C140 O132 1.252 . S
O141 In130 2.294 . S
O141 C134 1.240 . S
O142 In130 2.326 . S
O142 C134 1.252 . S
In143 O144 2.294 . S
In143 O145 2.326 . S
In143 O149 2.266 . S
In143 O150 2.326 . S
In143 O151 2.266 . S
In143 O152 2.326 . S
In143 O154 2.294 . S
In143 O155 2.326 . S
O144 In143 2.294 . S
O144 C153 1.240 . S
O145 In143 2.326 . S
O145 C153 1.252 . S
C146 O149 1.252 . S
C146 O150 1.260 . S
C147 O154 1.240 . S
C147 O155 1.252 . S
C148 O151 1.252 . S
C148 O152 1.260 . S
O149 In143 2.266 . S
O149 C146 1.252 . S
O150 In143 2.326 . S
O150 C146 1.260 . S
O151 In143 2.266 . S
O151 C148 1.252 . S
O152 In143 2.326 . S
O152 C148 1.260 . S
C153 O144 1.240 . S
C153 O145 1.252 . S
O154 In143 2.294 . S
O154 C147 1.240 . S
O155 In143 2.326 . S
O155 C147 1.252 . S
In156 O157 2.294 . S
In156 O158 2.326 . S
In156 O162 2.266 . S
In156 O163 2.326 . S
In156 O164 2.266 . S
In156 O165 2.326 . S
In156 O167 2.294 . S
In156 O168 2.326 . S
O157 In156 2.294 . S
O157 C166 1.240 . S
O158 In156 2.326 . S
O158 C166 1.252 . S
C159 O162 1.252 . S
C159 O163 1.260 . S
C160 O167 1.240 . S
C160 O168 1.252 . S
C161 O164 1.252 . S
C161 O165 1.260 . S
O162 In156 2.266 . S
O162 C159 1.252 . S
O163 In156 2.326 . S
O163 C159 1.260 . S
O164 In156 2.266 . S
O164 C161 1.252 . S
O165 In156 2.326 . S
O165 C161 1.260 . S
C166 O157 1.240 . S
C166 O158 1.252 . S
O167 In156 2.294 . S
O167 C160 1.240 . S
O168 In156 2.326 . S
O168 C160 1.252 . S
In169 O170 2.294 . S
In169 O171 2.326 . S
In169 O175 2.266 . S
In169 O176 2.326 . S
In169 O177 2.266 . S
In169 O178 2.326 . S
In169 O180 2.294 . S
In169 O181 2.326 . S
O170 In169 2.294 . S
O170 C179 1.240 . S
O171 In169 2.326 . S
O171 C179 1.252 . S
C172 O175 1.252 . S
C172 O176 1.260 . S
C173 O180 1.240 . S
C173 O181 1.252 . S
C174 O177 1.252 . S
C174 O178 1.260 . S
O175 In169 2.266 . S
O175 C172 1.252 . S
O176 In169 2.326 . S
O176 C172 1.260 . S
O177 In169 2.266 . S
O177 C174 1.252 . S
O178 In169 2.326 . S
O178 C174 1.260 . S
C179 O170 1.240 . S
C179 O171 1.252 . S
O180 In169 2.294 . S
O180 C173 1.240 . S
O181 In169 2.326 . S
O181 C173 1.252 . S
In182 O183 2.294 . S
In182 O184 2.326 . S
In182 O188 2.266 . S
In182 O189 2.326 . S
In182 O190 2.266 . S
In182 O191 2.326 . S
In182 O193 2.294 . S
In182 O194 2.326 . S
O183 In182 2.294 . S
O183 C192 1.240 . S
O184 In182 2.326 . S
O184 C192 1.252 . S
C185 O188 1.252 . S
C185 O189 1.260 . S
C186 O193 1.240 . S
C186 O194 1.252 . S
C187 O190 1.252 . S
C187 O191 1.260 . S
O188 In182 2.266 . S
O188 C185 1.252 . S
O189 In182 2.326 . S
O189 C185 1.260 . S
O190 In182 2.266 . S
O190 C187 1.252 . S
O191 In182 2.326 . S
O191 C187 1.260 . S
C192 O183 1.240 . S
C192 O184 1.252 . S
O193 In182 2.294 . S
O193 C186 1.240 . S
O194 In182 2.326 . S
O194 C186 1.252 . S
In195 O196 2.294 . S
In195 O197 2.326 . S
In195 O201 2.266 . S
In195 O202 2.326 . S
In195 O203 2.266 . S
In195 O204 2.326 . S
In195 O206 2.294 . S
In195 O207 2.326 . S
O196 In195 2.294 . S
O196 C205 1.240 . S
O197 In195 2.326 . S
O197 C205 1.252 . S
C198 O201 1.252 . S
C198 O202 1.260 . S
C199 O206 1.240 . S
C199 O207 1.252 . S
C200 O203 1.252 . S
C200 O204 1.260 . S
O201 In195 2.266 . S
O201 C198 1.252 . S
O202 In195 2.326 . S
O202 C198 1.260 . S
O203 In195 2.266 . S
O203 C200 1.252 . S
O204 In195 2.326 . S
O204 C200 1.260 . S
C205 O196 1.240 . S
C205 O197 1.252 . S
O206 In195 2.294 . S
O206 C199 1.240 . S
O207 In195 2.326 . S
O207 C199 1.252 . S
In208 O209 2.294 . S
In208 O210 2.326 . S
In208 O214 2.266 . S
In208 O215 2.326 . S
In208 O216 2.266 . S
In208 O217 2.326 . S
In208 O219 2.294 . S
In208 O220 2.326 . S
O209 In208 2.294 . S
O209 C218 1.240 . S
O210 In208 2.326 . S
O210 C218 1.252 . S
C211 O214 1.252 . S
C211 O215 1.260 . S
C212 O219 1.240 . S
C212 O220 1.252 . S
C213 O216 1.252 . S
C213 O217 1.260 . S
O214 In208 2.266 . S
O214 C211 1.252 . S
O215 In208 2.326 . S
O215 C211 1.260 . S
O216 In208 2.266 . S
O216 C213 1.252 . S
O217 In208 2.326 . S
O217 C213 1.260 . S
C218 O209 1.240 . S
C218 O210 1.252 . S
O219 In208 2.294 . S
O219 C212 1.240 . S
O220 In208 2.326 . S
O220 C212 1.252 . S
In221 O222 2.294 . S
In221 O223 2.326 . S
In221 O227 2.266 . S
In221 O228 2.326 . S
In221 O229 2.266 . S
In221 O230 2.326 . S
In221 O232 2.294 . S
In221 O233 2.326 . S
O222 In221 2.294 . S
O222 C231 1.240 . S
O223 In221 2.326 . S
O223 C231 1.252 . S
C224 O227 1.252 . S
C224 O228 1.260 . S
C225 O232 1.240 . S
C225 O233 1.252 . S
C226 O229 1.252 . S
C226 O230 1.260 . S
O227 In221 2.266 . S
O227 C224 1.252 . S
O228 In221 2.326 . S
O228 C224 1.260 . S
O229 In221 2.266 . S
O229 C226 1.252 . S
O230 In221 2.326 . S
O230 C226 1.260 . S
C231 O222 1.240 . S
C231 O223 1.252 . S
O232 In221 2.294 . S
O232 C225 1.240 . S
O233 In221 2.326 . S
O233 C225 1.252 . S
In234 O235 2.294 . S
In234 O236 2.326 . S
In234 O240 2.266 . S
In234 O241 2.326 . S
In234 O242 2.266 . S
In234 O243 2.326 . S
In234 O245 2.294 . S
In234 O246 2.326 . S
O235 In234 2.294 . S
O235 C244 1.240 . S
O236 In234 2.326 . S
O236 C244 1.252 . S
C237 O240 1.252 . S
C237 O241 1.260 . S
C238 O245 1.240 . S
C238 O246 1.252 . S
C239 O242 1.252 . S
C239 O243 1.260 . S
O240 In234 2.266 . S
O240 C237 1.252 . S
O241 In234 2.326 . S
O241 C237 1.260 . S
O242 In234 2.266 . S
O242 C239 1.252 . S
O243 In234 2.326 . S
O243 C239 1.260 . S
C244 O235 1.240 . S
C244 O236 1.252 . S
O245 In234 2.294 . S
O245 C238 1.240 . S
O246 In234 2.326 . S
O246 C238 1.252 . S
In247 O248 2.294 . S
In247 O249 2.326 . S
In247 O253 2.266 . S
In247 O254 2.326 . S
In247 O255 2.266 . S
In247 O256 2.326 . S
In247 O258 2.294 . S
In247 O259 2.326 . S
O248 In247 2.294 . S
O248 C257 1.240 . S
O249 In247 2.326 . S
O249 C257 1.252 . S
C250 O253 1.252 . S
C250 O254 1.260 . S
C251 O258 1.240 . S
C251 O259 1.252 . S
C252 O255 1.252 . S
C252 O256 1.260 . S
O253 In247 2.266 . S
O253 C250 1.252 . S
O254 In247 2.326 . S
O254 C250 1.260 . S
O255 In247 2.266 . S
O255 C252 1.252 . S
O256 In247 2.326 . S
O256 C252 1.260 . S
C257 O248 1.240 . S
C257 O249 1.252 . S
O258 In247 2.294 . S
O258 C251 1.240 . S
O259 In247 2.326 . S
O259 C251 1.252 . S
In260 O261 2.294 . S
In260 O262 2.326 . S
In260 O266 2.266 . S
In260 O267 2.326 . S
In260 O268 2.266 . S
In260 O269 2.326 . S
In260 O271 2.294 . S
In260 O272 2.326 . S
O261 In260 2.294 . S
O261 C270 1.240 . S
O262 In260 2.326 . S
O262 C270 1.252 . S
C263 O266 1.252 . S
C263 O267 1.260 . S
C264 O271 1.240 . S
C264 O272 1.252 . S
C265 O268 1.252 . S
C265 O269 1.260 . S
O266 In260 2.266 . S
O266 C263 1.252 . S
O267 In260 2.326 . S
O267 C263 1.260 . S
O268 In260 2.266 . S
O268 C265 1.252 . S
O269 In260 2.326 . S
O269 C265 1.260 . S
C270 O261 1.240 . S
C270 O262 1.252 . S
O271 In260 2.294 . S
O271 C264 1.240 . S
O272 In260 2.326 . S
O272 C264 1.252 . S
In273 O274 2.294 . S
In273 O275 2.326 . S
In273 O279 2.266 . S
In273 O280 2.326 . S
In273 O281 2.266 . S
In273 O282 2.326 . S
In273 O284 2.294 . S
In273 O285 2.326 . S
O274 In273 2.294 . S
O274 C283 1.240 . S
O275 In273 2.326 . S
O275 C283 1.252 . S
C276 O279 1.252 . S
C276 O280 1.260 . S
C277 O284 1.240 . S
C277 O285 1.252 . S
C278 O281 1.252 . S
C278 O282 1.260 . S
O279 In273 2.266 . S
O279 C276 1.252 . S
O280 In273 2.326 . S
O280 C276 1.260 . S
O281 In273 2.266 . S
O281 C278 1.252 . S
O282 In273 2.326 . S
O282 C278 1.260 . S
C283 O274 1.240 . S
C283 O275 1.252 . S
O284 In273 2.294 . S
O284 C277 1.240 . S
O285 In273 2.326 . S
O285 C277 1.252 . S
In286 O287 2.294 . S
In286 O288 2.326 . S
In286 O292 2.266 . S
In286 O293 2.326 . S
In286 O294 2.266 . S
In286 O295 2.326 . S
In286 O297 2.294 . S
In286 O298 2.326 . S
O287 In286 2.294 . S
O287 C296 1.240 . S
O288 In286 2.326 . S
O288 C296 1.252 . S
C289 O292 1.252 . S
C289 O293 1.260 . S
C290 O297 1.240 . S
C290 O298 1.252 . S
C291 O294 1.252 . S
C291 O295 1.260 . S
O292 In286 2.266 . S
O292 C289 1.252 . S
O293 In286 2.326 . S
O293 C289 1.260 . S
O294 In286 2.266 . S
O294 C291 1.252 . S
O295 In286 2.326 . S
O295 C291 1.260 . S
C296 O287 1.240 . S
C296 O288 1.252 . S
O297 In286 2.294 . S
O297 C290 1.240 . S
O298 In286 2.326 . S
O298 C290 1.252 . S
In299 O300 2.294 . S
In299 O301 2.326 . S
In299 O305 2.266 . S
In299 O306 2.326 . S
In299 O307 2.266 . S
In299 O308 2.326 . S
In299 O310 2.294 . S
In299 O311 2.326 . S
O300 In299 2.294 . S
O300 C309 1.240 . S
O301 In299 2.326 . S
O301 C309 1.252 . S
C302 O305 1.252 . S
C302 O306 1.260 . S
C303 O310 1.240 . S
C303 O311 1.252 . S
C304 O307 1.252 . S
C304 O308 1.260 . S
O305 In299 2.266 . S
O305 C302 1.252 . S
O306 In299 2.326 . S
O306 C302 1.260 . S
O307 In299 2.266 . S
O307 C304 1.252 . S
O308 In299 2.326 . S
O308 C304 1.260 . S
C309 O300 1.240 . S
C309 O301 1.252 . S
O310 In299 2.294 . S
O310 C303 1.240 . S
O311 In299 2.326 . S
O311 C303 1.252 . S
H312 C320 0.950 . S
H313 C325 0.950 . S
H314 C322 0.950 . S
H315 C324 0.950 . S
H316 C326 0.950 . S
H317 C328 0.950 . S
H318 C330 0.950 . S
H319 C331 0.950 . S
C320 H312 0.950 . S
C320 C321 1.386 . S
C320 C322 1.391 . S
C321 C320 1.386 . S
C321 C325 1.393 . S
C322 H314 0.950 . S
C322 C320 1.391 . S
C322 C323 1.400 . S
C323 C322 1.400 . S
C323 C324 1.398 . S
C323 C329 1.491 . S
C324 H315 0.950 . S
C324 C323 1.398 . S
C324 C325 1.391 . S
C325 H313 0.950 . S
C325 C321 1.393 . S
C325 C324 1.391 . S
C326 H316 0.950 . S
C326 C327 1.386 . S
C326 C328 1.391 . S
C327 C326 1.386 . S
C327 C331 1.393 . S
C328 H317 0.950 . S
C328 C326 1.391 . S
C328 C329 1.400 . S
C329 C323 1.491 . S
C329 C328 1.400 . S
C329 C330 1.398 . S
C330 H318 0.950 . S
C330 C329 1.398 . S
C330 C331 1.391 . S
C331 H319 0.950 . S
C331 C327 1.393 . S
C331 C330 1.391 . S
H332 C340 0.950 . S
H333 C345 0.950 . S
H334 C342 0.950 . S
H335 C344 0.950 . S
H336 C346 0.950 . S
H337 C348 0.950 . S
H338 C350 0.950 . S
H339 C351 0.950 . S
C340 H332 0.950 . S
C340 C341 1.386 . S
C340 C342 1.391 . S
C341 C340 1.386 . S
C341 C345 1.393 . S
C342 H334 0.950 . S
C342 C340 1.391 . S
C342 C343 1.400 . S
C343 C342 1.400 . S
C343 C344 1.398 . S
C343 C349 1.491 . S
C344 H335 0.950 . S
C344 C343 1.398 . S
C344 C345 1.391 . S
C345 H333 0.950 . S
C345 C341 1.393 . S
C345 C344 1.391 . S
C346 H336 0.950 . S
C346 C347 1.386 . S
C346 C348 1.391 . S
C347 C346 1.386 . S
C347 C351 1.393 . S
C348 H337 0.950 . S
C348 C346 1.391 . S
C348 C349 1.400 . S
C349 C343 1.491 . S
C349 C348 1.400 . S
C349 C350 1.398 . S
C350 H338 0.950 . S
C350 C349 1.398 . S
C350 C351 1.391 . S
C351 H339 0.950 . S
C351 C347 1.393 . S
C351 C350 1.391 . S
H352 C360 0.950 . S
H353 C365 0.950 . S
H354 C362 0.950 . S
H355 C364 0.950 . S
H356 C366 0.950 . S
H357 C368 0.950 . S
H358 C370 0.950 . S
H359 C371 0.950 . S
C360 H352 0.950 . S
C360 C361 1.386 . S
C360 C362 1.391 . S
C361 C360 1.386 . S
C361 C365 1.393 . S
C362 H354 0.950 . S
C362 C360 1.391 . S
C362 C363 1.400 . S
C363 C362 1.400 . S
C363 C364 1.398 . S
C363 C369 1.491 . S
C364 H355 0.950 . S
C364 C363 1.398 . S
C364 C365 1.391 . S
C365 H353 0.950 . S
C365 C361 1.393 . S
C365 C364 1.391 . S
C366 H356 0.950 . S
C366 C367 1.386 . S
C366 C368 1.391 . S
C367 C366 1.386 . S
C367 C371 1.393 . S
C368 H357 0.950 . S
C368 C366 1.391 . S
C368 C369 1.400 . S
C369 C363 1.491 . S
C369 C368 1.400 . S
C369 C370 1.398 . S
C370 H358 0.950 . S
C370 C369 1.398 . S
C370 C371 1.391 . S
C371 H359 0.950 . S
C371 C367 1.393 . S
C371 C370 1.391 . S
H372 C380 0.950 . S
H373 C385 0.950 . S
H374 C382 0.950 . S
H375 C384 0.950 . S
H376 C386 0.950 . S
H377 C388 0.950 . S
H378 C390 0.950 . S
H379 C391 0.950 . S
C380 H372 0.950 . S
C380 C381 1.386 . S
C380 C382 1.391 . S
C381 C380 1.386 . S
C381 C385 1.393 . S
C382 H374 0.950 . S
C382 C380 1.391 . S
C382 C383 1.400 . S
C383 C382 1.400 . S
C383 C384 1.398 . S
C383 C389 1.491 . S
C384 H375 0.950 . S
C384 C383 1.398 . S
C384 C385 1.391 . S
C385 H373 0.950 . S
C385 C381 1.393 . S
C385 C384 1.391 . S
C386 H376 0.950 . S
C386 C387 1.386 . S
C386 C388 1.391 . S
C387 C386 1.386 . S
C387 C391 1.393 . S
C388 H377 0.950 . S
C388 C386 1.391 . S
C388 C389 1.400 . S
C389 C383 1.491 . S
C389 C388 1.400 . S
C389 C390 1.398 . S
C390 H378 0.950 . S
C390 C389 1.398 . S
C390 C391 1.391 . S
C391 H379 0.950 . S
C391 C387 1.393 . S
C391 C390 1.391 . S
H392 C400 0.950 . S
H393 C405 0.950 . S
H394 C402 0.950 . S
H395 C404 0.950 . S
H396 C406 0.950 . S
H397 C408 0.950 . S
H398 C410 0.950 . S
H399 C411 0.950 . S
C400 H392 0.950 . S
C400 C401 1.386 . S
C400 C402 1.391 . S
C401 C400 1.386 . S
C401 C405 1.393 . S
C402 H394 0.950 . S
C402 C400 1.391 . S
C402 C403 1.400 . S
C403 C402 1.400 . S
C403 C404 1.398 . S
C403 C409 1.491 . S
C404 H395 0.950 . S
C404 C403 1.398 . S
C404 C405 1.391 . S
C405 H393 0.950 . S
C405 C401 1.393 . S
C405 C404 1.391 . S
C406 H396 0.950 . S
C406 C407 1.386 . S
C406 C408 1.391 . S
C407 C406 1.386 . S
C407 C411 1.393 . S
C408 H397 0.950 . S
C408 C406 1.391 . S
C408 C409 1.400 . S
C409 C403 1.491 . S
C409 C408 1.400 . S
C409 C410 1.398 . S
C410 H398 0.950 . S
C410 C409 1.398 . S
C410 C411 1.391 . S
C411 H399 0.950 . S
C411 C407 1.393 . S
C411 C410 1.391 . S
H412 C420 0.950 . S
H413 C425 0.950 . S
H414 C422 0.950 . S
H415 C424 0.950 . S
H416 C426 0.950 . S
H417 C428 0.950 . S
H418 C430 0.950 . S
H419 C431 0.950 . S
C420 H412 0.950 . S
C420 C421 1.386 . S
C420 C422 1.391 . S
C421 C420 1.386 . S
C421 C425 1.393 . S
C422 H414 0.950 . S
C422 C420 1.391 . S
C422 C423 1.400 . S
C423 C422 1.400 . S
C423 C424 1.398 . S
C423 C429 1.491 . S
C424 H415 0.950 . S
C424 C423 1.398 . S
C424 C425 1.391 . S
C425 H413 0.950 . S
C425 C421 1.393 . S
C425 C424 1.391 . S
C426 H416 0.950 . S
C426 C427 1.386 . S
C426 C428 1.391 . S
C427 C426 1.386 . S
C427 C431 1.393 . S
C428 H417 0.950 . S
C428 C426 1.391 . S
C428 C429 1.400 . S
C429 C423 1.491 . S
C429 C428 1.400 . S
C429 C430 1.398 . S
C430 H418 0.950 . S
C430 C429 1.398 . S
C430 C431 1.391 . S
C431 H419 0.950 . S
C431 C427 1.393 . S
C431 C430 1.391 . S
H432 C440 0.950 . S
H433 C445 0.950 . S
H434 C442 0.950 . S
H435 C444 0.950 . S
H436 C446 0.950 . S
H437 C448 0.950 . S
H438 C450 0.950 . S
H439 C451 0.950 . S
C440 H432 0.950 . S
C440 C441 1.386 . S
C440 C442 1.391 . S
C441 C440 1.386 . S
C441 C445 1.393 . S
C442 H434 0.950 . S
C442 C440 1.391 . S
C442 C443 1.400 . S
C443 C442 1.400 . S
C443 C444 1.398 . S
C443 C449 1.491 . S
C444 H435 0.950 . S
C444 C443 1.398 . S
C444 C445 1.391 . S
C445 H433 0.950 . S
C445 C441 1.393 . S
C445 C444 1.391 . S
C446 H436 0.950 . S
C446 C447 1.386 . S
C446 C448 1.391 . S
C447 C446 1.386 . S
C447 C451 1.393 . S
C448 H437 0.950 . S
C448 C446 1.391 . S
C448 C449 1.400 . S
C449 C443 1.491 . S
C449 C448 1.400 . S
C449 C450 1.398 . S
C450 H438 0.950 . S
C450 C449 1.398 . S
C450 C451 1.391 . S
C451 H439 0.950 . S
C451 C447 1.393 . S
C451 C450 1.391 . S
H452 C460 0.950 . S
H453 C465 0.950 . S
H454 C462 0.950 . S
H455 C464 0.950 . S
H456 C466 0.950 . S
H457 C468 0.950 . S
H458 C470 0.950 . S
H459 C471 0.950 . S
C460 H452 0.950 . S
C460 C461 1.386 . S
C460 C462 1.391 . S
C461 C460 1.386 . S
C461 C465 1.393 . S
C462 H454 0.950 . S
C462 C460 1.391 . S
C462 C463 1.400 . S
C463 C462 1.400 . S
C463 C464 1.398 . S
C463 C469 1.491 . S
C464 H455 0.950 . S
C464 C463 1.398 . S
C464 C465 1.391 . S
C465 H453 0.950 . S
C465 C461 1.393 . S
C465 C464 1.391 . S
C466 H456 0.950 . S
C466 C467 1.386 . S
C466 C468 1.391 . S
C467 C466 1.386 . S
C467 C471 1.393 . S
C468 H457 0.950 . S
C468 C466 1.391 . S
C468 C469 1.400 . S
C469 C463 1.491 . S
C469 C468 1.400 . S
C469 C470 1.398 . S
C470 H458 0.950 . S
C470 C469 1.398 . S
C470 C471 1.391 . S
C471 H459 0.950 . S
C471 C467 1.393 . S
C471 C470 1.391 . S
H472 C480 0.950 . S
H473 C485 0.950 . S
H474 C482 0.950 . S
H475 C484 0.950 . S
H476 C486 0.950 . S
H477 C488 0.950 . S
H478 C490 0.950 . S
H479 C491 0.950 . S
C480 H472 0.950 . S
C480 C481 1.386 . S
C480 C482 1.391 . S
C481 C480 1.386 . S
C481 C485 1.393 . S
C482 H474 0.950 . S
C482 C480 1.391 . S
C482 C483 1.400 . S
C483 C482 1.400 . S
C483 C484 1.398 . S
C483 C489 1.491 . S
C484 H475 0.950 . S
C484 C483 1.398 . S
C484 C485 1.391 . S
C485 H473 0.950 . S
C485 C481 1.393 . S
C485 C484 1.391 . S
C486 H476 0.950 . S
C486 C487 1.386 . S
C486 C488 1.391 . S
C487 C486 1.386 . S
C487 C491 1.393 . S
C488 H477 0.950 . S
C488 C486 1.391 . S
C488 C489 1.400 . S
C489 C483 1.491 . S
C489 C488 1.400 . S
C489 C490 1.398 . S
C490 H478 0.950 . S
C490 C489 1.398 . S
C490 C491 1.391 . S
C491 H479 0.950 . S
C491 C487 1.393 . S
C491 C490 1.391 . S
H492 C500 0.950 . S
H493 C505 0.950 . S
H494 C502 0.950 . S
H495 C504 0.950 . S
H496 C506 0.950 . S
H497 C508 0.950 . S
H498 C510 0.950 . S
H499 C511 0.950 . S
C500 H492 0.950 . S
C500 C501 1.386 . S
C500 C502 1.391 . S
C501 C500 1.386 . S
C501 C505 1.393 . S
C502 H494 0.950 . S
C502 C500 1.391 . S
C502 C503 1.400 . S
C503 C502 1.400 . S
C503 C504 1.398 . S
C503 C509 1.491 . S
C504 H495 0.950 . S
C504 C503 1.398 . S
C504 C505 1.391 . S
C505 H493 0.950 . S
C505 C501 1.393 . S
C505 C504 1.391 . S
C506 H496 0.950 . S
C506 C507 1.386 . S
C506 C508 1.391 . S
C507 C506 1.386 . S
C507 C511 1.393 . S
C508 H497 0.950 . S
C508 C506 1.391 . S
C508 C509 1.400 . S
C509 C503 1.491 . S
C509 C508 1.400 . S
C509 C510 1.398 . S
C510 H498 0.950 . S
C510 C509 1.398 . S
C510 C511 1.391 . S
C511 H499 0.950 . S
C511 C507 1.393 . S
C511 C510 1.391 . S
H512 C520 0.950 . S
H513 C525 0.950 . S
H514 C522 0.950 . S
H515 C524 0.950 . S
H516 C526 0.950 . S
H517 C528 0.950 . S
H518 C530 0.950 . S
H519 C531 0.950 . S
C520 H512 0.950 . S
C520 C521 1.386 . S
C520 C522 1.391 . S
C521 C520 1.386 . S
C521 C525 1.393 . S
C522 H514 0.950 . S
C522 C520 1.391 . S
C522 C523 1.400 . S
C523 C522 1.400 . S
C523 C524 1.398 . S
C523 C529 1.491 . S
C524 H515 0.950 . S
C524 C523 1.398 . S
C524 C525 1.391 . S
C525 H513 0.950 . S
C525 C521 1.393 . S
C525 C524 1.391 . S
C526 H516 0.950 . S
C526 C527 1.386 . S
C526 C528 1.391 . S
C527 C526 1.386 . S
C527 C531 1.393 . S
C528 H517 0.950 . S
C528 C526 1.391 . S
C528 C529 1.400 . S
C529 C523 1.491 . S
C529 C528 1.400 . S
C529 C530 1.398 . S
C530 H518 0.950 . S
C530 C529 1.398 . S
C530 C531 1.391 . S
C531 H519 0.950 . S
C531 C527 1.393 . S
C531 C530 1.391 . S
H532 C540 0.950 . S
H533 C545 0.950 . S
H534 C542 0.950 . S
H535 C544 0.950 . S
H536 C546 0.950 . S
H537 C548 0.950 . S
H538 C550 0.950 . S
H539 C551 0.950 . S
C540 H532 0.950 . S
C540 C541 1.386 . S
C540 C542 1.391 . S
C541 C540 1.386 . S
C541 C545 1.393 . S
C542 H534 0.950 . S
C542 C540 1.391 . S
C542 C543 1.400 . S
C543 C542 1.400 . S
C543 C544 1.398 . S
C543 C549 1.491 . S
C544 H535 0.950 . S
C544 C543 1.398 . S
C544 C545 1.391 . S
C545 H533 0.950 . S
C545 C541 1.393 . S
C545 C544 1.391 . S
C546 H536 0.950 . S
C546 C547 1.386 . S
C546 C548 1.391 . S
C547 C546 1.386 . S
C547 C551 1.393 . S
C548 H537 0.950 . S
C548 C546 1.391 . S
C548 C549 1.400 . S
C549 C543 1.491 . S
C549 C548 1.400 . S
C549 C550 1.398 . S
C550 H538 0.950 . S
C550 C549 1.398 . S
C550 C551 1.391 . S
C551 H539 0.950 . S
C551 C547 1.393 . S
C551 C550 1.391 . S
H552 C560 0.950 . S
H553 C565 0.950 . S
H554 C562 0.950 . S
H555 C564 0.925 1_554 S
H556 C566 0.950 . S
H557 C568 0.950 . S
H558 C570 0.925 1_556 S
H559 C571 0.950 . S
C560 H552 0.950 . S
C560 C561 1.386 . S
C560 C562 1.391 . S
C561 C560 1.386 . S
C561 C565 1.393 . S
C562 H554 0.950 . S
C562 C560 1.391 . S
C562 C563 1.400 . S
C563 C562 1.400 . S
C563 C564 1.407 . S
C563 C569 1.491 1_556 S
C564 H555 0.925 1_556 S
C564 C563 1.407 . S
C564 C565 1.407 . S
C565 H553 0.950 . S
C565 C561 1.393 . S
C565 C564 1.407 . S
C566 H556 0.950 . S
C566 C567 1.386 . S
C566 C568 1.391 . S
C567 C566 1.386 . S
C567 C571 1.393 . S
C568 H557 0.950 . S
C568 C566 1.391 . S
C568 C569 1.400 . S
C569 C563 1.491 1_554 S
C569 C568 1.400 . S
C569 C570 1.407 . S
C570 H558 0.925 1_554 S
C570 C569 1.407 . S
C570 C571 1.407 . S
C571 H559 0.950 . S
C571 C567 1.393 . S
C571 C570 1.407 . S
H572 C580 0.950 . S
H573 C585 0.950 . S
H574 C582 0.950 . S
H575 C584 0.950 . S
H576 C586 0.950 . S
H577 C588 0.950 . S
H578 C590 0.950 . S
H579 C591 0.950 . S
C580 H572 0.950 . S
C580 C581 1.386 . S
C580 C582 1.391 . S
C581 C580 1.386 . S
C581 C585 1.393 . S
C582 H574 0.950 . S
C582 C580 1.391 . S
C582 C583 1.400 . S
C583 C582 1.400 . S
C583 C584 1.398 . S
C583 C589 1.491 . S
C584 H575 0.950 . S
C584 C583 1.398 . S
C584 C585 1.391 . S
C585 H573 0.950 . S
C585 C581 1.393 . S
C585 C584 1.391 . S
C586 H576 0.950 . S
C586 C587 1.386 . S
C586 C588 1.391 . S
C587 C586 1.386 . S
C587 C591 1.393 . S
C588 H577 0.950 . S
C588 C586 1.391 . S
C588 C589 1.400 . S
C589 C583 1.491 . S
C589 C588 1.400 . S
C589 C590 1.398 . S
C590 H578 0.950 . S
C590 C589 1.398 . S
C590 C591 1.391 . S
C591 H579 0.950 . S
C591 C587 1.393 . S
C591 C590 1.391 . S
H592 C600 0.950 . S
H593 C605 0.950 . S
H594 C602 0.950 1_556 S
H595 C604 0.950 . S
H596 C606 0.950 . S
H597 C608 0.950 1_554 S
H598 C610 0.950 . S
H599 C611 0.950 . S
C600 H592 0.950 . S
C600 C601 1.386 . S
C600 C602 1.391 . S
C601 C600 1.386 . S
C601 C605 1.393 . S
C602 H594 0.950 1_554 S
C602 C600 1.391 . S
C602 C603 1.400 . S
C603 C602 1.400 . S
C603 C604 1.398 . S
C603 C609 1.491 1_554 S
C604 H595 0.950 . S
C604 C603 1.398 . S
C604 C605 1.391 . S
C605 H593 0.950 . S
C605 C601 1.393 . S
C605 C604 1.391 . S
C606 H596 0.950 . S
C606 C607 1.386 . S
C606 C608 1.391 . S
C607 C606 1.386 . S
C607 C611 1.393 . S
C608 H597 0.950 1_556 S
C608 C606 1.391 . S
C608 C609 1.400 . S
C609 C603 1.491 1_556 S
C609 C608 1.400 . S
C609 C610 1.398 . S
C610 H598 0.950 . S
C610 C609 1.398 . S
C610 C611 1.391 . S
C611 H599 0.950 . S
C611 C607 1.393 . S
C611 C610 1.391 . S
H612 C620 0.950 . S
H613 C625 0.950 . S
H614 C622 0.950 . S
H615 C624 0.950 . S
H616 C626 0.950 . S
H617 C628 0.950 . S
H618 C630 0.950 . S
H619 C631 0.950 . S
C620 H612 0.950 . S
C620 C621 1.386 . S
C620 C622 1.391 . S
C621 C620 1.386 . S
C621 C625 1.393 . S
C622 H614 0.950 . S
C622 C620 1.391 . S
C622 C623 1.400 . S
C623 C622 1.400 . S
C623 C624 1.398 . S
C623 C629 1.491 . S
C624 H615 0.950 . S
C624 C623 1.398 . S
C624 C625 1.391 . S
C625 H613 0.950 . S
C625 C621 1.393 . S
C625 C624 1.391 . S
C626 H616 0.950 . S
C626 C627 1.386 . S
C626 C628 1.391 . S
C627 C626 1.386 . S
C627 C631 1.393 . S
C628 H617 0.950 . S
C628 C626 1.391 . S
C628 C629 1.400 . S
C629 C623 1.491 . S
C629 C628 1.400 . S
C629 C630 1.398 . S
C630 H618 0.950 . S
C630 C629 1.398 . S
C630 C631 1.391 . S
C631 H619 0.950 . S
C631 C627 1.393 . S
C631 C630 1.391 . S
H632 C640 0.950 . S
H633 C645 0.950 . S
H634 C642 0.950 . S
H635 C644 0.918 1_554 S
H636 C646 0.950 . S
H637 C648 0.950 . S
H638 C650 0.918 1_556 S
H639 C651 0.950 . S
C640 H632 0.950 . S
C640 C641 1.386 . S
C640 C642 1.391 . S
C641 C640 1.386 . S
C641 C645 1.393 . S
C642 H634 0.950 . S
C642 C640 1.391 . S
C642 C643 1.400 . S
C643 C642 1.400 . S
C643 C644 1.409 . S
C643 C649 1.491 1_556 S
C644 H635 0.918 1_556 S
C644 C643 1.409 . S
C644 C645 1.412 . S
C645 H633 0.950 . S
C645 C641 1.393 . S
C645 C644 1.412 . S
C646 H636 0.950 . S
C646 C647 1.386 . S
C646 C648 1.391 . S
C647 C646 1.386 . S
C647 C651 1.393 . S
C648 H637 0.950 . S
C648 C646 1.391 . S
C648 C649 1.400 . S
C649 C643 1.491 1_554 S
C649 C648 1.400 . S
C649 C650 1.409 . S
C650 H638 0.918 1_554 S
C650 C649 1.409 . S
C650 C651 1.412 . S
C651 H639 0.950 . S
C651 C647 1.393 . S
C651 C650 1.412 . S
H652 C660 0.950 . S
H653 C665 0.950 . S
H654 C662 0.950 . S
H655 C664 0.950 . S
H656 C666 0.950 . S
H657 C668 0.950 . S
H658 C670 0.950 . S
H659 C671 0.950 . S
C660 H652 0.950 . S
C660 C661 1.386 . S
C660 C662 1.391 . S
C661 C660 1.386 . S
C661 C665 1.393 . S
C662 H654 0.950 . S
C662 C660 1.391 . S
C662 C663 1.400 . S
C663 C662 1.400 . S
C663 C664 1.398 . S
C663 C669 1.491 . S
C664 H655 0.950 . S
C664 C663 1.398 . S
C664 C665 1.391 . S
C665 H653 0.950 . S
C665 C661 1.393 . S
C665 C664 1.391 . S
C666 H656 0.950 . S
C666 C667 1.386 . S
C666 C668 1.391 . S
C667 C666 1.386 . S
C667 C671 1.393 . S
C668 H657 0.950 . S
C668 C666 1.391 . S
C668 C669 1.400 . S
C669 C663 1.491 . S
C669 C668 1.400 . S
C669 C670 1.398 . S
C670 H658 0.950 . S
C670 C669 1.398 . S
C670 C671 1.391 . S
C671 H659 0.950 . S
C671 C667 1.393 . S
C671 C670 1.391 . S
H672 C680 0.950 . S
H673 C685 0.950 . S
H674 C682 0.913 1_556 S
H675 C684 0.950 . S
H676 C686 0.950 . S
H677 C688 0.913 1_554 S
H678 C690 0.950 . S
H679 C691 0.950 . S
C680 H672 0.950 . S
C680 C681 1.386 . S
C680 C682 1.416 . S
C681 C680 1.386 . S
C681 C685 1.393 . S
C682 H674 0.913 1_554 S
C682 C680 1.416 . S
C682 C683 1.413 . S
C683 C682 1.413 . S
C683 C684 1.398 . S
C683 C689 1.491 1_554 S
C684 H675 0.950 . S
C684 C683 1.398 . S
C684 C685 1.391 . S
C685 H673 0.950 . S
C685 C681 1.393 . S
C685 C684 1.391 . S
C686 H676 0.950 . S
C686 C687 1.386 . S
C686 C688 1.416 . S
C687 C686 1.386 . S
C687 C691 1.393 . S
C688 H677 0.913 1_556 S
C688 C686 1.416 . S
C688 C689 1.413 . S
C689 C683 1.491 1_556 S
C689 C688 1.413 . S
C689 C690 1.398 . S
C690 H678 0.950 . S
C690 C689 1.398 . S
C690 C691 1.391 . S
C691 H679 0.950 . S
C691 C687 1.393 . S
C691 C690 1.391 . S
H692 C700 0.950 . S
H693 C705 0.950 . S
H694 C702 0.950 . S
H695 C704 0.950 . S
H696 C706 0.950 . S
H697 C708 0.950 . S
H698 C710 0.950 . S
H699 C711 0.950 . S
C700 H692 0.950 . S
C700 C701 1.386 . S
C700 C702 1.391 . S
C701 C700 1.386 . S
C701 C705 1.393 . S
C702 H694 0.950 . S
C702 C700 1.391 . S
C702 C703 1.400 . S
C703 C702 1.400 . S
C703 C704 1.398 . S
C703 C709 1.491 . S
C704 H695 0.950 . S
C704 C703 1.398 . S
C704 C705 1.391 . S
C705 H693 0.950 . S
C705 C701 1.393 . S
C705 C704 1.391 . S
C706 H696 0.950 . S
C706 C707 1.386 . S
C706 C708 1.391 . S
C707 C706 1.386 . S
C707 C711 1.393 . S
C708 H697 0.950 . S
C708 C706 1.391 . S
C708 C709 1.400 . S
C709 C703 1.491 . S
C709 C708 1.400 . S
C709 C710 1.398 . S
C710 H698 0.950 . S
C710 C709 1.398 . S
C710 C711 1.391 . S
C711 H699 0.950 . S
C711 C707 1.393 . S
C711 C710 1.391 . S
H712 C720 0.950 . S
H713 C725 0.950 . S
H714 C722 0.950 . S
H715 C724 0.950 . S
H716 C726 0.950 . S
H717 C728 0.950 . S
H718 C730 0.950 . S
H719 C731 0.950 . S
C720 H712 0.950 . S
C720 C721 1.386 . S
C720 C722 1.391 . S
C721 C720 1.386 . S
C721 C725 1.393 . S
C722 H714 0.950 . S
C722 C720 1.391 . S
C722 C723 1.400 . S
C723 C722 1.400 . S
C723 C724 1.398 . S
C723 C729 1.491 1_556 S
C724 H715 0.950 . S
C724 C723 1.398 . S
C724 C725 1.391 . S
C725 H713 0.950 . S
C725 C721 1.393 . S
C725 C724 1.391 . S
C726 H716 0.950 . S
C726 C727 1.386 . S
C726 C728 1.391 . S
C727 C726 1.386 . S
C727 C731 1.393 . S
C728 H717 0.950 . S
C728 C726 1.391 . S
C728 C729 1.400 . S
C729 C723 1.491 1_554 S
C729 C728 1.400 . S
C729 C730 1.398 . S
C730 H718 0.950 . S
C730 C729 1.398 . S
C730 C731 1.391 . S
C731 H719 0.950 . S
C731 C727 1.393 . S
C731 C730 1.391 . S
H732 C740 0.950 . S
H733 C745 0.950 . S
H734 C742 0.950 . S
H735 C744 0.950 . S
H736 C746 0.950 . S
H737 C748 0.950 . S
H738 C750 0.950 . S
H739 C751 0.950 . S
C740 H732 0.950 . S
C740 C741 1.386 . S
C740 C742 1.391 . S
C741 C740 1.386 . S
C741 C745 1.393 . S
C742 H734 0.950 . S
C742 C740 1.391 . S
C742 C743 1.400 . S
C743 C742 1.400 . S
C743 C744 1.398 . S
C743 C749 1.491 . S
C744 H735 0.950 . S
C744 C743 1.398 . S
C744 C745 1.391 . S
C745 H733 0.950 . S
C745 C741 1.393 . S
C745 C744 1.391 . S
C746 H736 0.950 . S
C746 C747 1.386 . S
C746 C748 1.391 . S
C747 C746 1.386 . S
C747 C751 1.393 . S
C748 H737 0.950 . S
C748 C746 1.391 . S
C748 C749 1.400 . S
C749 C743 1.491 . S
C749 C748 1.400 . S
C749 C750 1.398 . S
C750 H738 0.950 . S
C750 C749 1.398 . S
C750 C751 1.391 . S
C751 H739 0.950 . S
C751 C747 1.393 . S
C751 C750 1.391 . S
H752 C760 0.950 . S
H753 C765 0.950 . S
H754 C762 0.950 . S
H755 C764 0.950 1_554 S
H756 C766 0.950 . S
H757 C768 0.950 . S
H758 C770 0.950 1_556 S
H759 C771 0.950 . S
C760 H752 0.950 . S
C760 C761 1.386 . S
C760 C762 1.391 . S
C761 C760 1.386 . S
C761 C765 1.393 . S
C762 H754 0.950 . S
C762 C760 1.391 . S
C762 C763 1.400 . S
C763 C762 1.400 . S
C763 C764 1.398 . S
C763 C769 1.491 1_556 S
C764 H755 0.950 1_556 S
C764 C763 1.398 . S
C764 C765 1.391 . S
C765 H753 0.950 . S
C765 C761 1.393 . S
C765 C764 1.391 . S
C766 H756 0.950 . S
C766 C767 1.386 . S
C766 C768 1.391 . S
C767 C766 1.386 . S
C767 C771 1.393 . S
C768 H757 0.950 . S
C768 C766 1.391 . S
C768 C769 1.400 . S
C769 C763 1.491 1_554 S
C769 C768 1.400 . S
C769 C770 1.398 . S
C770 H758 0.950 1_554 S
C770 C769 1.398 . S
C770 C771 1.391 . S
C771 H759 0.950 . S
C771 C767 1.393 . S
C771 C770 1.391 . S
H772 C780 0.950 . S
H773 C785 0.950 . S
H774 C782 0.950 . S
H775 C784 0.950 . S
H776 C786 0.950 . S
H777 C788 0.950 . S
H778 C790 0.950 . S
H779 C791 0.950 . S
C780 H772 0.950 . S
C780 C781 1.386 . S
C780 C782 1.391 . S
C781 C780 1.386 . S
C781 C785 1.393 . S
C782 H774 0.950 . S
C782 C780 1.391 . S
C782 C783 1.400 . S
C783 C782 1.400 . S
C783 C784 1.398 . S
C783 C789 1.491 . S
C784 H775 0.950 . S
C784 C783 1.398 . S
C784 C785 1.391 . S
C785 H773 0.950 . S
C785 C781 1.393 . S
C785 C784 1.391 . S
C786 H776 0.950 . S
C786 C787 1.386 . S
C786 C788 1.391 . S
C787 C786 1.386 . S
C787 C791 1.393 . S
C788 H777 0.950 . S
C788 C786 1.391 . S
C788 C789 1.400 . S
C789 C783 1.491 . S
C789 C788 1.400 . S
C789 C790 1.398 . S
C790 H778 0.950 . S
C790 C789 1.398 . S
C790 C791 1.391 . S
C791 H779 0.950 . S
C791 C787 1.393 . S
C791 C790 1.391 . S
H792 C800 0.950 . S
H793 C805 0.950 . S
H794 C802 0.950 . S
H795 C804 0.950 . S
H796 C806 0.950 . S
H797 C808 0.950 . S
H798 C810 0.950 . S
H799 C811 0.950 . S
C800 H792 0.950 . S
C800 C801 1.386 . S
C800 C802 1.391 . S
C801 C800 1.386 . S
C801 C805 1.393 . S
C802 H794 0.950 . S
C802 C800 1.391 . S
C802 C803 1.400 . S
C803 C802 1.400 . S
C803 C804 1.398 . S
C803 C809 1.491 . S
C804 H795 0.950 . S
C804 C803 1.398 . S
C804 C805 1.391 . S
C805 H793 0.950 . S
C805 C801 1.393 . S
C805 C804 1.391 . S
C806 H796 0.950 . S
C806 C807 1.386 . S
C806 C808 1.391 . S
C807 C806 1.386 . S
C807 C811 1.393 . S
C808 H797 0.950 . S
C808 C806 1.391 . S
C808 C809 1.400 . S
C809 C803 1.491 . S
C809 C808 1.400 . S
C809 C810 1.398 . S
C810 H798 0.950 . S
C810 C809 1.398 . S
C810 C811 1.391 . S
C811 H799 0.950 . S
C811 C807 1.393 . S
C811 C810 1.391 . S
H812 C820 0.950 . S
H813 C825 0.950 . S
H814 C822 0.950 . S
H815 C824 0.950 . S
H816 C826 0.950 . S
H817 C828 0.950 . S
H818 C830 0.950 . S
H819 C831 0.950 . S
C820 H812 0.950 . S
C820 C821 1.386 . S
C820 C822 1.391 . S
C821 C820 1.386 . S
C821 C825 1.393 . S
C822 H814 0.950 . S
C822 C820 1.391 . S
C822 C823 1.400 . S
C823 C822 1.400 . S
C823 C824 1.398 . S
C823 C829 1.491 1_455 S
C824 H815 0.950 . S
C824 C823 1.398 . S
C824 C825 1.391 . S
C825 H813 0.950 . S
C825 C821 1.393 . S
C825 C824 1.391 . S
C826 H816 0.950 . S
C826 C827 1.386 . S
C826 C828 1.391 . S
C827 C826 1.386 . S
C827 C831 1.393 . S
C828 H817 0.950 . S
C828 C826 1.391 . S
C828 C829 1.400 . S
C829 C823 1.491 1_655 S
C829 C828 1.400 . S
C829 C830 1.398 . S
C830 H818 0.950 . S
C830 C829 1.398 . S
C830 C831 1.391 . S
C831 H819 0.950 . S
C831 C827 1.393 . S
C831 C830 1.391 . S
H832 C840 0.950 . S
H833 C845 0.950 . S
H834 C842 0.950 . S
H835 C844 0.950 . S
H836 C846 0.950 . S
H837 C848 0.950 . S
H838 C850 0.950 . S
H839 C851 0.950 . S
C840 H832 0.950 . S
C840 C841 1.386 . S
C840 C842 1.391 . S
C841 C840 1.386 . S
C841 C845 1.393 . S
C842 H834 0.950 . S
C842 C840 1.391 . S
C842 C843 1.400 . S
C843 C842 1.400 . S
C843 C844 1.398 . S
C843 C849 1.491 1_565 S
C844 H835 0.950 . S
C844 C843 1.398 . S
C844 C845 1.391 . S
C845 H833 0.950 . S
C845 C841 1.393 . S
C845 C844 1.391 . S
C846 H836 0.950 . S
C846 C847 1.386 . S
C846 C848 1.391 . S
C847 C846 1.386 . S
C847 C851 1.393 . S
C848 H837 0.950 . S
C848 C846 1.391 . S
C848 C849 1.400 . S
C849 C843 1.491 1_545 S
C849 C848 1.400 . S
C849 C850 1.398 . S
C850 H838 0.950 . S
C850 C849 1.398 . S
C850 C851 1.391 . S
C851 H839 0.950 . S
C851 C847 1.393 . S
C851 C850 1.391 . S
H852 C860 0.950 . S
H853 C865 0.950 . S
H854 C862 0.950 . S
H855 C864 0.950 . S
H856 C866 0.950 . S
H857 C868 0.950 . S
H858 C870 0.950 . S
H859 C871 0.950 . S
C860 H852 0.950 . S
C860 C861 1.386 . S
C860 C862 1.391 . S
C861 C860 1.386 . S
C861 C865 1.393 . S
C862 H854 0.950 . S
C862 C860 1.391 . S
C862 C863 1.400 . S
C863 C862 1.400 . S
C863 C864 1.398 . S
C863 C869 1.491 . S
C864 H855 0.950 . S
C864 C863 1.398 . S
C864 C865 1.391 . S
C865 H853 0.950 . S
C865 C861 1.393 . S
C865 C864 1.391 . S
C866 H856 0.950 . S
C866 C867 1.386 . S
C866 C868 1.391 . S
C867 C866 1.386 . S
C867 C871 1.393 . S
C868 H857 0.950 . S
C868 C866 1.391 . S
C868 C869 1.400 . S
C869 C863 1.491 . S
C869 C868 1.400 . S
C869 C870 1.398 . S
C870 H858 0.950 . S
C870 C869 1.398 . S
C870 C871 1.391 . S
C871 H859 0.950 . S
C871 C867 1.393 . S
C871 C870 1.391 . S
H872 C880 0.950 . S
H873 C885 0.950 . S
H874 C882 0.950 . S
H875 C884 0.950 . S
H876 C886 0.950 . S
H877 C888 0.950 . S
H878 C890 0.950 . S
H879 C891 0.950 . S
C880 H872 0.950 . S
C880 C881 1.386 . S
C880 C882 1.391 . S
C881 C880 1.386 . S
C881 C885 1.393 . S
C882 H874 0.950 . S
C882 C880 1.391 . S
C882 C883 1.400 . S
C883 C882 1.400 . S
C883 C884 1.398 . S
C883 C889 1.491 1_655 S
C884 H875 0.950 . S
C884 C883 1.398 . S
C884 C885 1.391 . S
C885 H873 0.950 . S
C885 C881 1.393 . S
C885 C884 1.391 . S
C886 H876 0.950 . S
C886 C887 1.386 . S
C886 C888 1.391 . S
C887 C886 1.386 . S
C887 C891 1.393 . S
C888 H877 0.950 . S
C888 C886 1.391 . S
C888 C889 1.400 . S
C889 C883 1.491 1_455 S
C889 C888 1.400 . S
C889 C890 1.398 . S
C890 H878 0.950 . S
C890 C889 1.398 . S
C890 C891 1.391 . S
C891 H879 0.950 . S
C891 C887 1.393 . S
C891 C890 1.391 . S
H892 C900 0.950 . S
H893 C905 0.950 . S
H894 C902 0.950 . S
H895 C904 0.950 . S
H896 C906 0.950 . S
H897 C908 0.950 . S
H898 C910 0.950 . S
H899 C911 0.950 . S
C900 H892 0.950 . S
C900 C901 1.386 . S
C900 C902 1.391 . S
C901 C900 1.386 . S
C901 C905 1.393 . S
C902 H894 0.950 . S
C902 C900 1.391 . S
C902 C903 1.400 . S
C903 C902 1.400 . S
C903 C904 1.398 . S
C903 C909 1.491 1_545 S
C904 H895 0.950 . S
C904 C903 1.398 . S
C904 C905 1.391 . S
C905 H893 0.950 . S
C905 C901 1.393 . S
C905 C904 1.391 . S
C906 H896 0.950 . S
C906 C907 1.386 . S
C906 C908 1.391 . S
C907 C906 1.386 . S
C907 C911 1.393 . S
C908 H897 0.950 . S
C908 C906 1.391 . S
C908 C909 1.400 . S
C909 C903 1.491 1_565 S
C909 C908 1.400 . S
C909 C910 1.398 . S
C910 H898 0.950 . S
C910 C909 1.398 . S
C910 C911 1.391 . S
C911 H899 0.950 . S
C911 C907 1.393 . S
C911 C910 1.391 . S
H912 C920 0.950 . S
H913 C925 0.950 . S
H914 C922 0.950 . S
H915 C924 0.950 . S
H916 C926 0.950 . S
H917 C928 0.950 . S
H918 C930 0.950 . S
H919 C931 0.950 . S
C920 H912 0.950 . S
C920 C921 1.386 . S
C920 C922 1.391 . S
C921 C920 1.386 . S
C921 C925 1.393 . S
C922 H914 0.950 . S
C922 C920 1.391 . S
C922 C923 1.400 . S
C923 C922 1.400 . S
C923 C924 1.398 . S
C923 C929 1.491 . S
C924 H915 0.950 . S
C924 C923 1.398 . S
C924 C925 1.391 . S
C925 H913 0.950 . S
C925 C921 1.393 . S
C925 C924 1.391 . S
C926 H916 0.950 . S
C926 C927 1.386 . S
C926 C928 1.391 . S
C927 C926 1.386 . S
C927 C931 1.393 . S
C928 H917 0.950 . S
C928 C926 1.391 . S
C928 C929 1.400 . S
C929 C923 1.491 . S
C929 C928 1.400 . S
C929 C930 1.398 . S
C930 H918 0.950 . S
C930 C929 1.398 . S
C930 C931 1.391 . S
C931 H919 0.950 . S
C931 C927 1.393 . S
C931 C930 1.391 . S
H932 C940 0.950 . S
H933 C945 0.950 . S
H934 C942 0.950 . S
H935 C944 0.950 . S
H936 C946 0.950 . S
H937 C948 0.950 . S
H938 C950 0.950 . S
H939 C951 0.950 . S
C940 H932 0.950 . S
C940 C941 1.386 . S
C940 C942 1.391 . S
C941 C940 1.386 . S
C941 C945 1.393 . S
C942 H934 0.950 . S
C942 C940 1.391 . S
C942 C943 1.400 . S
C943 C942 1.400 . S
C943 C944 1.398 . S
C943 C949 1.491 1_655 S
C944 H935 0.950 . S
C944 C943 1.398 . S
C944 C945 1.391 . S
C945 H933 0.950 . S
C945 C941 1.393 . S
C945 C944 1.391 . S
C946 H936 0.950 . S
C946 C947 1.386 . S
C946 C948 1.391 . S
C947 C946 1.386 . S
C947 C951 1.393 . S
C948 H937 0.950 . S
C948 C946 1.391 . S
C948 C949 1.400 . S
C949 C943 1.491 1_455 S
C949 C948 1.400 . S
C949 C950 1.398 . S
C950 H938 0.950 . S
C950 C949 1.398 . S
C950 C951 1.391 . S
C951 H939 0.950 . S
C951 C947 1.393 . S
C951 C950 1.391 . S
H952 C960 0.950 . S
H953 C965 0.950 . S
H954 C962 0.950 . S
H955 C964 0.950 . S
H956 C966 0.950 . S
H957 C968 0.950 . S
H958 C970 0.950 . S
H959 C971 0.950 . S
C960 H952 0.950 . S
C960 C961 1.386 . S
C960 C962 1.391 . S
C961 C960 1.386 . S
C961 C965 1.393 . S
C962 H954 0.950 . S
C962 C960 1.391 . S
C962 C963 1.400 . S
C963 C962 1.400 . S
C963 C964 1.398 . S
C963 C969 1.491 1_545 S
C964 H955 0.950 . S
C964 C963 1.398 . S
C964 C965 1.391 . S
C965 H953 0.950 . S
C965 C961 1.393 . S
C965 C964 1.391 . S
C966 H956 0.950 . S
C966 C967 1.386 . S
C966 C968 1.391 . S
C967 C966 1.386 . S
C967 C971 1.393 . S
C968 H957 0.950 . S
C968 C966 1.391 . S
C968 C969 1.400 . S
C969 C963 1.491 1_565 S
C969 C968 1.400 . S
C969 C970 1.398 . S
C970 H958 0.950 . S
C970 C969 1.398 . S
C970 C971 1.391 . S
C971 H959 0.950 . S
C971 C967 1.393 . S
C971 C970 1.391 . S
H972 C980 0.950 . S
H973 C985 0.950 . S
H974 C982 0.950 . S
H975 C984 0.950 . S
H976 C986 0.950 . S
H977 C988 0.950 . S
H978 C990 0.950 . S
H979 C991 0.950 . S
C980 H972 0.950 . S
C980 C981 1.386 . S
C980 C982 1.391 . S
C981 C980 1.386 . S
C981 C985 1.393 . S
C982 H974 0.950 . S
C982 C980 1.391 . S
C982 C983 1.400 . S
C983 C982 1.400 . S
C983 C984 1.398 . S
C983 C989 1.491 . S
C984 H975 0.950 . S
C984 C983 1.398 . S
C984 C985 1.391 . S
C985 H973 0.950 . S
C985 C981 1.393 . S
C985 C984 1.391 . S
C986 H976 0.950 . S
C986 C987 1.386 . S
C986 C988 1.391 . S
C987 C986 1.386 . S
C987 C991 1.393 . S
C988 H977 0.950 . S
C988 C986 1.391 . S
C988 C989 1.400 . S
C989 C983 1.491 . S
C989 C988 1.400 . S
C989 C990 1.398 . S
C990 H978 0.950 . S
C990 C989 1.398 . S
C990 C991 1.391 . S
C991 H979 0.950 . S
C991 C987 1.393 . S
C991 C990 1.391 . S
H992 C1000 0.950 . S
H993 C1005 0.950 . S
H994 C1002 0.950 . S
H995 C1004 0.950 . S
H996 C1006 0.950 . S
H997 C1008 0.950 . S
H998 C1010 0.950 . S
H999 C1011 0.950 . S
C1000 H992 0.950 . S
C1000 C1001 1.386 . S
C1000 C1002 1.391 . S
C1001 C1000 1.386 . S
C1001 C1005 1.393 . S
C1002 H994 0.950 . S
C1002 C1000 1.391 . S
C1002 C1003 1.400 . S
C1003 C1002 1.400 . S
C1003 C1004 1.398 . S
C1003 C1009 1.491 1_455 S
C1004 H995 0.950 . S
C1004 C1003 1.398 . S
C1004 C1005 1.391 . S
C1005 H993 0.950 . S
C1005 C1001 1.393 . S
C1005 C1004 1.391 . S
C1006 H996 0.950 . S
C1006 C1007 1.386 . S
C1006 C1008 1.391 . S
C1007 C1006 1.386 . S
C1007 C1011 1.393 . S
C1008 H997 0.950 . S
C1008 C1006 1.391 . S
C1008 C1009 1.400 . S
C1009 C1003 1.491 1_655 S
C1009 C1008 1.400 . S
C1009 C1010 1.398 . S
C1010 H998 0.950 . S
C1010 C1009 1.398 . S
C1010 C1011 1.391 . S
C1011 H999 0.950 . S
C1011 C1007 1.393 . S
C1011 C1010 1.391 . S
H1012 C1020 0.950 . S
H1013 C1025 0.950 . S
H1014 C1022 0.950 . S
H1015 C1024 0.950 . S
H1016 C1026 0.950 . S
H1017 C1028 0.950 . S
H1018 C1030 0.950 . S
H1019 C1031 0.950 . S
C1020 H1012 0.950 . S
C1020 C1021 1.386 . S
C1020 C1022 1.391 . S
C1021 C1020 1.386 . S
C1021 C1025 1.393 . S
C1022 H1014 0.950 . S
C1022 C1020 1.391 . S
C1022 C1023 1.400 . S
C1023 C1022 1.400 . S
C1023 C1024 1.398 . S
C1023 C1029 1.491 1_565 S
C1024 H1015 0.950 . S
C1024 C1023 1.398 . S
C1024 C1025 1.391 . S
C1025 H1013 0.950 . S
C1025 C1021 1.393 . S
C1025 C1024 1.391 . S
C1026 H1016 0.950 . S
C1026 C1027 1.386 . S
C1026 C1028 1.391 . S
C1027 C1026 1.386 . S
C1027 C1031 1.393 . S
C1028 H1017 0.950 . S
C1028 C1026 1.391 . S
C1028 C1029 1.400 . S
C1029 C1023 1.491 1_545 S
C1029 C1028 1.400 . S
C1029 C1030 1.398 . S
C1030 H1018 0.950 . S
C1030 C1029 1.398 . S
C1030 C1031 1.391 . S
C1031 H1019 0.950 . S
C1031 C1027 1.393 . S
C1031 C1030 1.391 . S
H1032 C1040 0.950 . S
H1033 C1045 0.950 . S
H1034 C1042 0.950 1_554 S
H1035 C1044 0.950 . S
H1036 C1046 0.950 . S
H1037 C1048 0.950 1_556 S
H1038 C1050 0.950 . S
H1039 C1051 0.950 . S
C1040 H1032 0.950 . S
C1040 C1041 1.386 . S
C1040 C1042 1.391 . S
C1041 C1040 1.386 . S
C1041 C1045 1.393 . S
C1042 H1034 0.950 1_556 S
C1042 C1040 1.391 . S
C1042 C1043 1.400 . S
C1043 C1042 1.400 . S
C1043 C1044 1.398 . S
C1043 C1049 1.491 1_556 S
C1044 H1035 0.950 . S
C1044 C1043 1.398 . S
C1044 C1045 1.391 . S
C1045 H1033 0.950 . S
C1045 C1041 1.393 . S
C1045 C1044 1.391 . S
C1046 H1036 0.950 . S
C1046 C1047 1.386 . S
C1046 C1048 1.391 . S
C1047 C1046 1.386 . S
C1047 C1051 1.393 . S
C1048 H1037 0.950 1_554 S
C1048 C1046 1.391 . S
C1048 C1049 1.400 . S
C1049 C1043 1.491 1_554 S
C1049 C1048 1.400 . S
C1049 C1050 1.398 . S
C1050 H1038 0.950 . S
C1050 C1049 1.398 . S
C1050 C1051 1.391 . S
C1051 H1039 0.950 . S
C1051 C1047 1.393 . S
C1051 C1050 1.391 . S
H1052 C1060 0.950 . S
H1053 C1065 0.950 . S
H1054 C1062 0.950 . S
H1055 C1064 0.950 . S
H1056 C1066 0.950 . S
H1057 C1068 0.950 . S
H1058 C1070 0.950 . S
H1059 C1071 0.950 . S
C1060 H1052 0.950 . S
C1060 C1061 1.386 . S
C1060 C1062 1.391 . S
C1061 C1060 1.386 . S
C1061 C1065 1.393 . S
C1062 H1054 0.950 . S
C1062 C1060 1.391 . S
C1062 C1063 1.400 . S
C1063 C1062 1.400 . S
C1063 C1064 1.398 . S
C1063 C1069 1.491 . S
C1064 H1055 0.950 . S
C1064 C1063 1.398 . S
C1064 C1065 1.391 . S
C1065 H1053 0.950 . S
C1065 C1061 1.393 . S
C1065 C1064 1.391 . S
C1066 H1056 0.950 . S
C1066 C1067 1.386 . S
C1066 C1068 1.391 . S
C1067 C1066 1.386 . S
C1067 C1071 1.393 . S
C1068 H1057 0.950 . S
C1068 C1066 1.391 . S
C1068 C1069 1.400 . S
C1069 C1063 1.491 . S
C1069 C1068 1.400 . S
C1069 C1070 1.398 . S
C1070 H1058 0.950 . S
C1070 C1069 1.398 . S
C1070 C1071 1.391 . S
C1071 H1059 0.950 . S
C1071 C1067 1.393 . S
C1071 C1070 1.391 . S
H1072 C1080 0.950 . S
H1073 C1085 0.966 . S
H1074 C1082 0.950 . S
H1075 C1084 0.950 . S
H1076 C1086 0.950 . S
H1077 C1088 0.950 . S
H1078 C1090 0.950 . S
H1079 C1091 0.966 . S
C1080 H1072 0.950 . S
C1080 C1081 1.386 . S
C1080 C1082 1.391 . S
C1081 C1080 1.386 . S
C1081 C1085 1.393 . S
C1082 H1074 0.950 . S
C1082 C1080 1.391 . S
C1082 C1083 1.400 . S
C1083 C1082 1.400 . S
C1083 C1084 1.398 1_556 S
C1083 C1089 1.491 1_556 S
C1084 H1075 0.950 . S
C1084 C1083 1.398 1_554 S
C1084 C1085 1.391 1_554 S
C1085 H1073 0.966 . S
C1085 C1081 1.393 . S
C1085 C1084 1.391 1_556 S
C1086 H1076 0.950 . S
C1086 C1087 1.386 . S
C1086 C1088 1.391 . S
C1087 C1086 1.386 . S
C1087 C1091 1.393 . S
C1088 H1077 0.950 . S
C1088 C1086 1.391 . S
C1088 C1089 1.400 . S
C1089 C1083 1.491 1_554 S
C1089 C1088 1.400 . S
C1089 C1090 1.398 1_554 S
C1090 H1078 0.950 . S
C1090 C1089 1.398 1_556 S
C1090 C1091 1.391 1_556 S
C1091 H1079 0.966 . S
C1091 C1087 1.393 . S
C1091 C1090 1.391 1_554 S
H1092 C1100 0.950 . S
H1093 C1105 0.950 . S
H1094 C1102 0.950 . S
H1095 C1104 0.950 . S
H1096 C1106 0.950 . S
H1097 C1108 0.950 . S
H1098 C1110 0.950 . S
H1099 C1111 0.950 . S
C1100 H1092 0.950 . S
C1100 C1101 1.386 . S
C1100 C1102 1.391 . S
C1101 C1100 1.386 . S
C1101 C1105 1.393 . S
C1102 H1094 0.950 . S
C1102 C1100 1.391 . S
C1102 C1103 1.400 . S
C1103 C1102 1.400 . S
C1103 C1104 1.398 . S
C1103 C1109 1.491 . S
C1104 H1095 0.950 . S
C1104 C1103 1.398 . S
C1104 C1105 1.391 . S
C1105 H1093 0.950 . S
C1105 C1101 1.393 . S
C1105 C1104 1.391 . S
C1106 H1096 0.950 . S
C1106 C1107 1.386 . S
C1106 C1108 1.391 . S
C1107 C1106 1.386 . S
C1107 C1111 1.393 . S
C1108 H1097 0.950 . S
C1108 C1106 1.391 . S
C1108 C1109 1.400 . S
C1109 C1103 1.491 . S
C1109 C1108 1.400 . S
C1109 C1110 1.398 . S
C1110 H1098 0.950 . S
C1110 C1109 1.398 . S
C1110 C1111 1.391 . S
C1111 H1099 0.950 . S
C1111 C1107 1.393 . S
C1111 C1110 1.391 . S
H1112 C1120 0.952 . S
H1113 C1125 0.950 . S
H1114 C1122 0.950 . S
H1115 C1124 0.950 . S
H1116 C1126 0.952 . S
H1117 C1128 0.950 . S
H1118 C1130 0.950 . S
H1119 C1131 0.950 . S
C1120 H1112 0.952 . S
C1120 C1121 1.386 . S
C1120 C1122 1.391 1_556 S
C1121 C1120 1.386 . S
C1121 C1125 1.393 . S
C1122 H1114 0.950 . S
C1122 C1120 1.391 1_554 S
C1122 C1123 1.400 1_554 S
C1123 C1122 1.400 1_556 S
C1123 C1124 1.398 . S
C1123 C1129 1.491 1_556 S
C1124 H1115 0.950 . S
C1124 C1123 1.398 . S
C1124 C1125 1.391 . S
C1125 H1113 0.950 . S
C1125 C1121 1.393 . S
C1125 C1124 1.391 . S
C1126 H1116 0.952 . S
C1126 C1127 1.386 . S
C1126 C1128 1.391 1_554 S
C1127 C1126 1.386 . S
C1127 C1131 1.393 . S
C1128 H1117 0.950 . S
C1128 C1126 1.391 1_556 S
C1128 C1129 1.400 1_556 S
C1129 C1123 1.491 1_554 S
C1129 C1128 1.400 1_554 S
C1129 C1130 1.398 . S
C1130 H1118 0.950 . S
C1130 C1129 1.398 . S
C1130 C1131 1.391 . S
C1131 H1119 0.950 . S
C1131 C1127 1.393 . S
C1131 C1130 1.391 . S
H1132 C1140 0.950 . S
H1133 C1145 0.950 . S
H1134 C1142 0.950 . S
H1135 C1144 0.950 . S
H1136 C1146 0.950 . S
H1137 C1148 0.950 . S
H1138 C1150 0.950 . S
H1139 C1151 0.950 . S
C1140 H1132 0.950 . S
C1140 C1141 1.386 . S
C1140 C1142 1.391 . S
C1141 C1140 1.386 . S
C1141 C1145 1.393 . S
C1142 H1134 0.950 . S
C1142 C1140 1.391 . S
C1142 C1143 1.400 . S
C1143 C1142 1.400 . S
C1143 C1144 1.398 . S
C1143 C1149 1.491 . S
C1144 H1135 0.950 . S
C1144 C1143 1.398 . S
C1144 C1145 1.391 . S
C1145 H1133 0.950 . S
C1145 C1141 1.393 . S
C1145 C1144 1.391 . S
C1146 H1136 0.950 . S
C1146 C1147 1.386 . S
C1146 C1148 1.391 . S
C1147 C1146 1.386 . S
C1147 C1151 1.393 . S
C1148 H1137 0.950 . S
C1148 C1146 1.391 . S
C1148 C1149 1.400 . S
C1149 C1143 1.491 . S
C1149 C1148 1.400 . S
C1149 C1150 1.398 . S
C1150 H1138 0.950 . S
C1150 C1149 1.398 . S
C1150 C1151 1.391 . S
C1151 H1139 0.950 . S
C1151 C1147 1.393 . S
C1151 C1150 1.391 . S
H1152 C1160 0.950 . S
H1153 C1165 0.950 . S
H1154 C1162 0.950 . S
H1155 C1164 0.950 . S
H1156 C1166 0.950 . S
H1157 C1168 0.950 . S
H1158 C1170 0.950 . S
H1159 C1171 0.950 . S
C1160 H1152 0.950 . S
C1160 C1161 1.386 . S
C1160 C1162 1.391 1_554 S
C1161 C1160 1.386 . S
C1161 C1165 1.393 . S
C1162 H1154 0.950 . S
C1162 C1160 1.391 1_556 S
C1162 C1163 1.400 1_556 S
C1163 C1162 1.400 1_554 S
C1163 C1164 1.398 . S
C1163 C1169 1.491 1_554 S
C1164 H1155 0.950 . S
C1164 C1163 1.398 . S
C1164 C1165 1.391 . S
C1165 H1153 0.950 . S
C1165 C1161 1.393 . S
C1165 C1164 1.391 . S
C1166 H1156 0.950 . S
C1166 C1167 1.386 . S
C1166 C1168 1.391 1_556 S
C1167 C1166 1.386 . S
C1167 C1171 1.393 . S
C1168 H1157 0.950 . S
C1168 C1166 1.391 1_554 S
C1168 C1169 1.400 1_554 S
C1169 C1163 1.491 1_556 S
C1169 C1168 1.400 1_556 S
C1169 C1170 1.398 . S
C1170 H1158 0.950 . S
C1170 C1169 1.398 . S
C1170 C1171 1.391 . S
C1171 H1159 0.950 . S
C1171 C1167 1.393 . S
C1171 C1170 1.391 . S
H1172 C1180 0.950 . S
H1173 C1185 0.950 . S
H1174 C1182 0.950 . S
H1175 C1184 0.950 . S
H1176 C1186 0.950 . S
H1177 C1188 0.950 . S
H1178 C1190 0.950 . S
H1179 C1191 0.950 . S
C1180 H1172 0.950 . S
C1180 C1181 1.386 . S
C1180 C1182 1.391 . S
C1181 C1180 1.386 . S
C1181 C1185 1.393 . S
C1182 H1174 0.950 . S
C1182 C1180 1.391 . S
C1182 C1183 1.400 . S
C1183 C1182 1.400 . S
C1183 C1184 1.398 . S
C1183 C1189 1.491 . S
C1184 H1175 0.950 . S
C1184 C1183 1.398 . S
C1184 C1185 1.391 . S
C1185 H1173 0.950 . S
C1185 C1181 1.393 . S
C1185 C1184 1.391 . S
C1186 H1176 0.950 . S
C1186 C1187 1.386 . S
C1186 C1188 1.391 . S
C1187 C1186 1.386 . S
C1187 C1191 1.393 . S
C1188 H1177 0.950 . S
C1188 C1186 1.391 . S
C1188 C1189 1.400 . S
C1189 C1183 1.491 . S
C1189 C1188 1.400 . S
C1189 C1190 1.398 . S
C1190 H1178 0.950 . S
C1190 C1189 1.398 . S
C1190 C1191 1.391 . S
C1191 H1179 0.950 . S
C1191 C1187 1.393 . S
C1191 C1190 1.391 . S
H1192 C1200 0.950 . S
H1193 C1205 0.950 . S
H1194 C1202 0.950 . S
H1195 C1204 0.950 1_556 S
H1196 C1206 0.950 . S
H1197 C1208 0.950 . S
H1198 C1210 0.950 1_554 S
H1199 C1211 0.950 . S
C1200 H1192 0.950 . S
C1200 C1201 1.386 . S
C1200 C1202 1.391 . S
C1201 C1200 1.386 . S
C1201 C1205 1.393 . S
C1202 H1194 0.950 . S
C1202 C1200 1.391 . S
C1202 C1203 1.400 . S
C1203 C1202 1.400 . S
C1203 C1204 1.398 . S
C1203 C1209 1.491 1_554 S
C1204 H1195 0.950 1_554 S
C1204 C1203 1.398 . S
C1204 C1205 1.391 . S
C1205 H1193 0.950 . S
C1205 C1201 1.393 . S
C1205 C1204 1.391 . S
C1206 H1196 0.950 . S
C1206 C1207 1.386 . S
C1206 C1208 1.391 . S
C1207 C1206 1.386 . S
C1207 C1211 1.393 . S
C1208 H1197 0.950 . S
C1208 C1206 1.391 . S
C1208 C1209 1.400 . S
C1209 C1203 1.491 1_556 S
C1209 C1208 1.400 . S
C1209 C1210 1.398 . S
C1210 H1198 0.950 1_556 S
C1210 C1209 1.398 . S
C1210 C1211 1.391 . S
C1211 H1199 0.950 . S
C1211 C1207 1.393 . S
C1211 C1210 1.391 . S
H1212 C1220 0.950 . S
H1213 C1225 0.950 . S
H1214 C1222 0.950 . S
H1215 C1224 0.950 . S
H1216 C1226 0.950 . S
H1217 C1228 0.950 . S
H1218 C1230 0.950 . S
H1219 C1231 0.950 . S
C1220 H1212 0.950 . S
C1220 C1221 1.386 . S
C1220 C1222 1.391 . S
C1221 C1220 1.386 . S
C1221 C1225 1.393 . S
C1222 H1214 0.950 . S
C1222 C1220 1.391 . S
C1222 C1223 1.400 . S
C1223 C1222 1.400 . S
C1223 C1224 1.398 . S
C1223 C1229 1.491 . S
C1224 H1215 0.950 . S
C1224 C1223 1.398 . S
C1224 C1225 1.391 . S
C1225 H1213 0.950 . S
C1225 C1221 1.393 . S
C1225 C1224 1.391 . S
C1226 H1216 0.950 . S
C1226 C1227 1.386 . S
C1226 C1228 1.391 . S
C1227 C1226 1.386 . S
C1227 C1231 1.393 . S
C1228 H1217 0.950 . S
C1228 C1226 1.391 . S
C1228 C1229 1.400 . S
C1229 C1223 1.491 . S
C1229 C1228 1.400 . S
C1229 C1230 1.398 . S
C1230 H1218 0.950 . S
C1230 C1229 1.398 . S
C1230 C1231 1.391 . S
C1231 H1219 0.950 . S
C1231 C1227 1.393 . S
C1231 C1230 1.391 . S
H1232 C1240 0.950 . S
H1233 C1245 0.950 . S
H1234 C1242 0.950 . S
H1235 C1244 0.950 . S
H1236 C1246 0.950 . S
H1237 C1248 0.950 . S
H1238 C1250 0.950 . S
H1239 C1251 0.950 . S
C1240 H1232 0.950 . S
C1240 C1241 1.386 . S
C1240 C1242 1.391 1_556 S
C1241 C1240 1.386 . S
C1241 C1245 1.393 . S
C1242 H1234 0.950 . S
C1242 C1240 1.391 1_554 S
C1242 C1243 1.400 1_554 S
C1243 C1242 1.400 1_556 S
C1243 C1244 1.398 . S
C1243 C1249 1.491 1_556 S
C1244 H1235 0.950 . S
C1244 C1243 1.398 . S
C1244 C1245 1.391 . S
C1245 H1233 0.950 . S
C1245 C1241 1.393 . S
C1245 C1244 1.391 . S
C1246 H1236 0.950 . S
C1246 C1247 1.386 . S
C1246 C1248 1.391 1_554 S
C1247 C1246 1.386 . S
C1247 C1251 1.393 . S
C1248 H1237 0.950 . S
C1248 C1246 1.391 1_556 S
C1248 C1249 1.400 1_556 S
C1249 C1243 1.491 1_554 S
C1249 C1248 1.400 1_554 S
C1249 C1250 1.398 . S
C1250 H1238 0.950 . S
C1250 C1249 1.398 . S
C1250 C1251 1.391 . S
C1251 H1239 0.950 . S
C1251 C1247 1.393 . S
C1251 C1250 1.391 . S
H1252 C1260 0.950 . S
H1253 C1265 0.950 . S
H1254 C1262 0.950 . S
H1255 C1264 0.950 . S
H1256 C1266 0.950 . S
H1257 C1268 0.950 . S
H1258 C1270 0.950 . S
H1259 C1271 0.950 . S
C1260 H1252 0.950 . S
C1260 C1261 1.386 . S
C1260 C1262 1.391 . S
C1261 C1260 1.386 . S
C1261 C1265 1.393 . S
C1262 H1254 0.950 . S
C1262 C1260 1.391 . S
C1262 C1263 1.400 . S
C1263 C1262 1.400 . S
C1263 C1264 1.398 . S
C1263 C1269 1.491 . S
C1264 H1255 0.950 . S
C1264 C1263 1.398 . S
C1264 C1265 1.391 . S
C1265 H1253 0.950 . S
C1265 C1261 1.393 . S
C1265 C1264 1.391 . S
C1266 H1256 0.950 . S
C1266 C1267 1.386 . S
C1266 C1268 1.391 . S
C1267 C1266 1.386 . S
C1267 C1271 1.393 . S
C1268 H1257 0.950 . S
C1268 C1266 1.391 . S
C1268 C1269 1.400 . S
C1269 C1263 1.491 . S
C1269 C1268 1.400 . S
C1269 C1270 1.398 . S
C1270 H1258 0.950 . S
C1270 C1269 1.398 . S
C1270 C1271 1.391 . S
C1271 H1259 0.950 . S
C1271 C1267 1.393 . S
C1271 C1270 1.391 . S
C321 C5 1.458 . S
C327 C200 1.464 . S
C341 C18 1.458 . S
C347 C213 1.463 . S
C361 C224 1.465 . S
C367 C31 1.457 . S
C381 C161 1.460 . S
C387 C44 1.462 . S
C401 C174 1.464 . S
C407 C57 1.457 . S
C421 C187 1.457 . S
C427 C68 1.465 . S
C441 C276 1.457 . S
C447 C83 1.465 . S
C461 C94 1.460 . S
C467 C289 1.461 . S
C481 C302 1.465 . S
C487 C107 1.457 . S
C501 C122 1.465 . S
C507 C237 1.457 . S
C521 C250 1.464 . S
C527 C133 1.458 . S
C541 C148 1.457 . S
C547 C265 1.465 . S
C561 C134 1.502 . S
C567 C10 1.505 . S
C581 C153 1.498 . S
C587 C23 1.500 . S
C601 C36 1.505 . S
C607 C88 1.502 . S
C621 C49 1.509 . S
C627 C95 1.511 . S
C641 C108 1.501 . S
C647 C62 1.504 . S
C661 C69 1.507 . S
C667 C127 1.510 . S
C681 C290 1.503 . S
C687 C166 1.507 . S
C701 C179 1.502 . S
C707 C303 1.505 . S
C721 C192 1.498 . S
C727 C238 1.499 . S
C741 C251 1.507 . S
C747 C205 1.510 . S
C761 C218 1.502 . S
C767 C270 1.499 . S
C781 C225 1.499 . S
C787 C277 1.502 . S
C801 C3 1.556 . S
C807 C239 1.561 . S
C821 C252 1.562 . S
C827 C16 1.554 . S
C841 C29 1.557 . S
C847 C263 1.559 . S
C861 C42 1.554 . S
C867 C278 1.562 . S
C881 C291 1.561 . S
C887 C55 1.555 . S
C901 C70 1.560 . S
C907 C304 1.556 . S
C921 C81 1.556 . S
C927 C159 1.560 . S
C941 C96 1.558 . S
C947 C172 1.558 . S
C961 C185 1.554 . S
C967 C109 1.562 . S
C981 C198 1.558 . S
C987 C120 1.558 . S
C1001 C135 1.558 . S
C1007 C211 1.557 . S
C1021 C226 1.559 . S
C1027 C146 1.557 . S
C1041 C82 1.499 . S
C1047 C4 1.498 . S
C1061 C17 1.497 . S
C1067 C101 1.500 . S
C1081 C114 1.499 . S
C1087 C30 1.504 . S
C1101 C121 1.497 . S
C1107 C43 1.501 . S
C1121 C140 1.502 . S
C1127 C56 1.498 . S
C1141 C75 1.497 . S
C1147 C147 1.502 . S
C1161 C244 1.498 . S
C1167 C160 1.502 . S
C1181 C173 1.504 . S
C1187 C257 1.502 . S
C1201 C264 1.500 . S
C1207 C186 1.497 . S
C1221 C283 1.499 . S
C1227 C199 1.503 . S
C1241 C212 1.497 . S
C1247 C296 1.502 . S
C1261 C231 1.504 . S
C1267 C309 1.501 . S
