# Generated by pormake.
# Topology wna, (6)-cn, num edge types: 1
# Building blocks:
#     Node 0, Type 0, BuildingBlock: CUWYAW_clean_sbu_0, # of connection points: 6
#     Node 1, Type 0, BuildingBlock: CUWYAW_clean_sbu_0, # of connection points: 6
#     Node 2, Type 0, BuildingBlock: CUWYAW_clean_sbu_0, # of connection points: 6
#     Node 3, Type 0, BuildingBlock: CUWYAW_clean_sbu_0, # of connection points: 6
#     Node 4, Type 0, BuildingBlock: CUWYAW_clean_sbu_0, # of connection points: 6
#     Node 5, Type 0, BuildingBlock: CUWYAW_clean_sbu_0, # of connection points: 6
#     Node 6, Type 0, BuildingBlock: CUWYAW_clean_sbu_0, # of connection points: 6
#     Node 7, Type 0, BuildingBlock: CUWYAW_clean_sbu_0, # of connection points: 6
#     Node 8, Type 0, BuildingBlock: CUWYAW_clean_sbu_0, # of connection points: 6
#     Node 9, Type 0, BuildingBlock: CUWYAW_clean_sbu_0, # of connection points: 6
#     Node 10, Type 0, BuildingBlock: CUWYAW_clean_sbu_0, # of connection points: 6
#     Node 11, Type 0, BuildingBlock: CUWYAW_clean_sbu_0, # of connection points: 6
#     Node 12, Type 0, BuildingBlock: CUWYAW_clean_sbu_0, # of connection points: 6
#     Node 13, Type 0, BuildingBlock: CUWYAW_clean_sbu_0, # of connection points: 6
#     Node 14, Type 0, BuildingBlock: CUWYAW_clean_sbu_0, # of connection points: 6
#     Node 15, Type 0, BuildingBlock: CUWYAW_clean_sbu_0, # of connection points: 6
#     Node 16, Type 0, BuildingBlock: CUWYAW_clean_sbu_0, # of connection points: 6
#     Node 17, Type 0, BuildingBlock: CUWYAW_clean_sbu_0, # of connection points: 6
#     Node 18, Type 0, BuildingBlock: CUWYAW_clean_sbu_0, # of connection points: 6
#     Node 19, Type 0, BuildingBlock: CUWYAW_clean_sbu_0, # of connection points: 6
#     Node 20, Type 0, BuildingBlock: CUWYAW_clean_sbu_0, # of connection points: 6
#     Node 21, Type 0, BuildingBlock: CUWYAW_clean_sbu_0, # of connection points: 6
#     Node 22, Type 0, BuildingBlock: CUWYAW_clean_sbu_0, # of connection points: 6
#     Node 23, Type 0, BuildingBlock: CUWYAW_clean_sbu_0, # of connection points: 6
#     Node 24, Type 0, BuildingBlock: CUWYAW_clean_sbu_0, # of connection points: 6
#     Node 25, Type 0, BuildingBlock: CUWYAW_clean_sbu_0, # of connection points: 6
#     Node 26, Type 0, BuildingBlock: CUWYAW_clean_sbu_0, # of connection points: 6
#     Node 27, Type 0, BuildingBlock: CUWYAW_clean_sbu_0, # of connection points: 6
#     Node 28, Type 0, BuildingBlock: CUWYAW_clean_sbu_0, # of connection points: 6
#     Node 29, Type 0, BuildingBlock: CUWYAW_clean_sbu_0, # of connection points: 6
#     Node 30, Type 0, BuildingBlock: CUWYAW_clean_sbu_0, # of connection points: 6
#     Node 31, Type 0, BuildingBlock: CUWYAW_clean_sbu_0, # of connection points: 6
#     Node 32, Type 0, BuildingBlock: CUWYAW_clean_sbu_0, # of connection points: 6
#     Node 33, Type 0, BuildingBlock: CUWYAW_clean_sbu_0, # of connection points: 6
#     Node 34, Type 0, BuildingBlock: CUWYAW_clean_sbu_0, # of connection points: 6
#     Node 35, Type 0, BuildingBlock: CUWYAW_clean_sbu_0, # of connection points: 6
#     Edge 36, Type (0, 0), BuildingBlock: EZIPEK_clean_linker_0, # of connection points: 2
#     Edge 37, Type (0, 0), BuildingBlock: EZIPEK_clean_linker_0, # of connection points: 2
#     Edge 38, Type (0, 0), BuildingBlock: EZIPEK_clean_linker_0, # of connection points: 2
#     Edge 39, Type (0, 0), BuildingBlock: EZIPEK_clean_linker_0, # of connection points: 2
#     Edge 40, Type (0, 0), BuildingBlock: EZIPEK_clean_linker_0, # of connection points: 2
#     Edge 41, Type (0, 0), BuildingBlock: EZIPEK_clean_linker_0, # of connection points: 2
#     Edge 42, Type (0, 0), BuildingBlock: EZIPEK_clean_linker_0, # of connection points: 2
#     Edge 43, Type (0, 0), BuildingBlock: EZIPEK_clean_linker_0, # of connection points: 2
#     Edge 44, Type (0, 0), BuildingBlock: EZIPEK_clean_linker_0, # of connection points: 2
#     Edge 45, Type (0, 0), BuildingBlock: EZIPEK_clean_linker_0, # of connection points: 2
#     Edge 46, Type (0, 0), BuildingBlock: EZIPEK_clean_linker_0, # of connection points: 2
#     Edge 47, Type (0, 0), BuildingBlock: EZIPEK_clean_linker_0, # of connection points: 2
#     Edge 48, Type (0, 0), BuildingBlock: EZIPEK_clean_linker_0, # of connection points: 2
#     Edge 49, Type (0, 0), BuildingBlock: EZIPEK_clean_linker_0, # of connection points: 2
#     Edge 50, Type (0, 0), BuildingBlock: EZIPEK_clean_linker_0, # of connection points: 2
#     Edge 51, Type (0, 0), BuildingBlock: EZIPEK_clean_linker_0, # of connection points: 2
#     Edge 52, Type (0, 0), BuildingBlock: EZIPEK_clean_linker_0, # of connection points: 2
#     Edge 53, Type (0, 0), BuildingBlock: EZIPEK_clean_linker_0, # of connection points: 2
#     Edge 54, Type (0, 0), BuildingBlock: EZIPEK_clean_linker_0, # of connection points: 2
#     Edge 55, Type (0, 0), BuildingBlock: EZIPEK_clean_linker_0, # of connection points: 2
#     Edge 56, Type (0, 0), BuildingBlock: EZIPEK_clean_linker_0, # of connection points: 2
#     Edge 57, Type (0, 0), BuildingBlock: EZIPEK_clean_linker_0, # of connection points: 2
#     Edge 58, Type (0, 0), BuildingBlock: EZIPEK_clean_linker_0, # of connection points: 2
#     Edge 59, Type (0, 0), BuildingBlock: EZIPEK_clean_linker_0, # of connection points: 2
#     Edge 60, Type (0, 0), BuildingBlock: EZIPEK_clean_linker_0, # of connection points: 2
#     Edge 61, Type (0, 0), BuildingBlock: EZIPEK_clean_linker_0, # of connection points: 2
#     Edge 62, Type (0, 0), BuildingBlock: EZIPEK_clean_linker_0, # of connection points: 2
#     Edge 63, Type (0, 0), BuildingBlock: EZIPEK_clean_linker_0, # of connection points: 2
#     Edge 64, Type (0, 0), BuildingBlock: EZIPEK_clean_linker_0, # of connection points: 2
#     Edge 65, Type (0, 0), BuildingBlock: EZIPEK_clean_linker_0, # of connection points: 2
#     Edge 66, Type (0, 0), BuildingBlock: EZIPEK_clean_linker_0, # of connection points: 2
#     Edge 67, Type (0, 0), BuildingBlock: EZIPEK_clean_linker_0, # of connection points: 2
#     Edge 68, Type (0, 0), BuildingBlock: EZIPEK_clean_linker_0, # of connection points: 2
#     Edge 69, Type (0, 0), BuildingBlock: EZIPEK_clean_linker_0, # of connection points: 2
#     Edge 70, Type (0, 0), BuildingBlock: EZIPEK_clean_linker_0, # of connection points: 2
#     Edge 71, Type (0, 0), BuildingBlock: EZIPEK_clean_linker_0, # of connection points: 2
#     Edge 72, Type (0, 0), BuildingBlock: EZIPEK_clean_linker_0, # of connection points: 2
#     Edge 73, Type (0, 0), BuildingBlock: EZIPEK_clean_linker_0, # of connection points: 2
#     Edge 74, Type (0, 0), BuildingBlock: EZIPEK_clean_linker_0, # of connection points: 2
#     Edge 75, Type (0, 0), BuildingBlock: EZIPEK_clean_linker_0, # of connection points: 2
#     Edge 76, Type (0, 0), BuildingBlock: EZIPEK_clean_linker_0, # of connection points: 2
#     Edge 77, Type (0, 0), BuildingBlock: EZIPEK_clean_linker_0, # of connection points: 2
#     Edge 78, Type (0, 0), BuildingBlock: EZIPEK_clean_linker_0, # of connection points: 2
#     Edge 79, Type (0, 0), BuildingBlock: EZIPEK_clean_linker_0, # of connection points: 2
#     Edge 80, Type (0, 0), BuildingBlock: EZIPEK_clean_linker_0, # of connection points: 2
#     Edge 81, Type (0, 0), BuildingBlock: EZIPEK_clean_linker_0, # of connection points: 2
#     Edge 82, Type (0, 0), BuildingBlock: EZIPEK_clean_linker_0, # of connection points: 2
#     Edge 83, Type (0, 0), BuildingBlock: EZIPEK_clean_linker_0, # of connection points: 2
#     Edge 84, Type (0, 0), BuildingBlock: EZIPEK_clean_linker_0, # of connection points: 2
#     Edge 85, Type (0, 0), BuildingBlock: EZIPEK_clean_linker_0, # of connection points: 2
#     Edge 86, Type (0, 0), BuildingBlock: EZIPEK_clean_linker_0, # of connection points: 2
#     Edge 87, Type (0, 0), BuildingBlock: EZIPEK_clean_linker_0, # of connection points: 2
#     Edge 88, Type (0, 0), BuildingBlock: EZIPEK_clean_linker_0, # of connection points: 2
#     Edge 89, Type (0, 0), BuildingBlock: EZIPEK_clean_linker_0, # of connection points: 2
#     Edge 90, Type (0, 0), BuildingBlock: EZIPEK_clean_linker_0, # of connection points: 2
#     Edge 91, Type (0, 0), BuildingBlock: EZIPEK_clean_linker_0, # of connection points: 2
#     Edge 92, Type (0, 0), BuildingBlock: EZIPEK_clean_linker_0, # of connection points: 2
#     Edge 93, Type (0, 0), BuildingBlock: EZIPEK_clean_linker_0, # of connection points: 2
#     Edge 94, Type (0, 0), BuildingBlock: EZIPEK_clean_linker_0, # of connection points: 2
#     Edge 95, Type (0, 0), BuildingBlock: EZIPEK_clean_linker_0, # of connection points: 2
#     Edge 96, Type (0, 0), BuildingBlock: EZIPEK_clean_linker_0, # of connection points: 2
#     Edge 97, Type (0, 0), BuildingBlock: EZIPEK_clean_linker_0, # of connection points: 2
#     Edge 98, Type (0, 0), BuildingBlock: EZIPEK_clean_linker_0, # of connection points: 2
#     Edge 99, Type (0, 0), BuildingBlock: EZIPEK_clean_linker_0, # of connection points: 2
#     Edge 100, Type (0, 0), BuildingBlock: EZIPEK_clean_linker_0, # of connection points: 2
#     Edge 101, Type (0, 0), BuildingBlock: EZIPEK_clean_linker_0, # of connection points: 2
#     Edge 102, Type (0, 0), BuildingBlock: EZIPEK_clean_linker_0, # of connection points: 2
#     Edge 103, Type (0, 0), BuildingBlock: EZIPEK_clean_linker_0, # of connection points: 2
#     Edge 104, Type (0, 0), BuildingBlock: EZIPEK_clean_linker_0, # of connection points: 2
#     Edge 105, Type (0, 0), BuildingBlock: EZIPEK_clean_linker_0, # of connection points: 2
#     Edge 106, Type (0, 0), BuildingBlock: EZIPEK_clean_linker_0, # of connection points: 2
#     Edge 107, Type (0, 0), BuildingBlock: EZIPEK_clean_linker_0, # of connection points: 2
#     Edge 108, Type (0, 0), BuildingBlock: EZIPEK_clean_linker_0, # of connection points: 2
#     Edge 109, Type (0, 0), BuildingBlock: EZIPEK_clean_linker_0, # of connection points: 2
#     Edge 110, Type (0, 0), BuildingBlock: EZIPEK_clean_linker_0, # of connection points: 2
#     Edge 111, Type (0, 0), BuildingBlock: EZIPEK_clean_linker_0, # of connection points: 2
#     Edge 112, Type (0, 0), BuildingBlock: EZIPEK_clean_linker_0, # of connection points: 2
#     Edge 113, Type (0, 0), BuildingBlock: EZIPEK_clean_linker_0, # of connection points: 2
#     Edge 114, Type (0, 0), BuildingBlock: EZIPEK_clean_linker_0, # of connection points: 2
#     Edge 115, Type (0, 0), BuildingBlock: EZIPEK_clean_linker_0, # of connection points: 2
#     Edge 116, Type (0, 0), BuildingBlock: EZIPEK_clean_linker_0, # of connection points: 2
#     Edge 117, Type (0, 0), BuildingBlock: EZIPEK_clean_linker_0, # of connection points: 2
#     Edge 118, Type (0, 0), BuildingBlock: EZIPEK_clean_linker_0, # of connection points: 2
#     Edge 119, Type (0, 0), BuildingBlock: EZIPEK_clean_linker_0, # of connection points: 2
#     Edge 120, Type (0, 0), BuildingBlock: EZIPEK_clean_linker_0, # of connection points: 2
#     Edge 121, Type (0, 0), BuildingBlock: EZIPEK_clean_linker_0, # of connection points: 2
#     Edge 122, Type (0, 0), BuildingBlock: EZIPEK_clean_linker_0, # of connection points: 2
#     Edge 123, Type (0, 0), BuildingBlock: EZIPEK_clean_linker_0, # of connection points: 2
#     Edge 124, Type (0, 0), BuildingBlock: EZIPEK_clean_linker_0, # of connection points: 2
#     Edge 125, Type (0, 0), BuildingBlock: EZIPEK_clean_linker_0, # of connection points: 2
#     Edge 126, Type (0, 0), BuildingBlock: EZIPEK_clean_linker_0, # of connection points: 2
#     Edge 127, Type (0, 0), BuildingBlock: EZIPEK_clean_linker_0, # of connection points: 2
#     Edge 128, Type (0, 0), BuildingBlock: EZIPEK_clean_linker_0, # of connection points: 2
#     Edge 129, Type (0, 0), BuildingBlock: EZIPEK_clean_linker_0, # of connection points: 2
#     Edge 130, Type (0, 0), BuildingBlock: EZIPEK_clean_linker_0, # of connection points: 2
#     Edge 131, Type (0, 0), BuildingBlock: EZIPEK_clean_linker_0, # of connection points: 2
#     Edge 132, Type (0, 0), BuildingBlock: EZIPEK_clean_linker_0, # of connection points: 2
#     Edge 133, Type (0, 0), BuildingBlock: EZIPEK_clean_linker_0, # of connection points: 2
#     Edge 134, Type (0, 0), BuildingBlock: EZIPEK_clean_linker_0, # of connection points: 2
#     Edge 135, Type (0, 0), BuildingBlock: EZIPEK_clean_linker_0, # of connection points: 2
#     Edge 136, Type (0, 0), BuildingBlock: EZIPEK_clean_linker_0, # of connection points: 2
#     Edge 137, Type (0, 0), BuildingBlock: EZIPEK_clean_linker_0, # of connection points: 2
#     Edge 138, Type (0, 0), BuildingBlock: EZIPEK_clean_linker_0, # of connection points: 2
#     Edge 139, Type (0, 0), BuildingBlock: EZIPEK_clean_linker_0, # of connection points: 2
#     Edge 140, Type (0, 0), BuildingBlock: EZIPEK_clean_linker_0, # of connection points: 2
#     Edge 141, Type (0, 0), BuildingBlock: EZIPEK_clean_linker_0, # of connection points: 2
#     Edge 142, Type (0, 0), BuildingBlock: EZIPEK_clean_linker_0, # of connection points: 2
#     Edge 143, Type (0, 0), BuildingBlock: EZIPEK_clean_linker_0, # of connection points: 2
# Relax obj value: 0.136
# Max RMSD: 0.229
# Mean RMSD: 0.210
data_MOF--net-wna--node1-CUWYAW_clean_sbu_0--edge1-EZIPEK_clean_linker_0
_symmetry_space_group_name_H-M    P1
_symmetry_Int_Tables_number       1
_symmetry_cell_setting            triclinic
loop_
_symmetry_equiv_pos_as_xyz
'x, y, z'
_cell_length_a     30.258238
_cell_length_b     30.282402
_cell_length_c     128.79554
_cell_angle_alpha  89.845701
_cell_angle_beta   90.136401
_cell_angle_gamma 119.97567
loop_
_atom_site_label
_atom_site_type_symbol
_atom_site_fract_x
_atom_site_fract_y
_atom_site_fract_z
_atom_type_partial_charge
C0 C 0.13569 0.22329 0.22095 0.0
Eu1 Eu 0.1401 0.24903 0.20143 0.0
C2 C 0.10523 0.21232 0.23067 0.0
C3 C 0.12575 0.24582 0.23913 0.0
C4 C 0.10149 0.2332 0.24882 0.0
C5 C 0.05586 0.18693 0.25025 0.0
C6 C 0.03414 0.15402 0.24174 0.0
C7 C 0.05875 0.16637 0.23205 0.0
C8 C 0.11116 0.31619 0.19344 0.0
C9 C 0.03769 0.17418 0.18844 0.0
C10 C 0.13837 0.26921 0.15712 0.0
Eu11 Eu 0.1458 0.25272 0.17669 0.0
C12 C 0.16627 0.28545 0.14715 0.0
C13 C 0.16611 0.24943 0.14024 0.0
C14 C 0.1825 0.26318 0.12999 0.0
C15 C 0.19915 0.31299 0.12653 0.0
C16 C 0.20275 0.34981 0.13357 0.0
C17 C 0.18643 0.33617 0.1438 0.0
C18 C 0.17228 0.1876 0.1857 0.0
C19 C 0.2513 0.31467 0.18954 0.0
O20 O 0.1167 0.19034 0.21334 0.0
O21 O 0.16116 0.27061 0.21767 0.0
O22 O 0.11177 0.30665 0.20325 0.0
O23 O 0.12713 0.29034 0.18884 0.0
O24 O 0.05939 0.18938 0.19766 0.0
O25 O 0.06192 0.19407 0.17956 0.0
O26 O 0.15093 0.30401 0.16433 0.0
O27 O 0.12636 0.22425 0.16085 0.0
O28 O 0.19121 0.21226 0.17706 0.0
O29 O 0.13879 0.19773 0.18884 0.0
O30 O 0.2275 0.31094 0.18066 0.0
O31 O 0.22644 0.29073 0.19814 0.0
H32 H 0.16154 0.28126 0.23835 0.0
H33 H 0.11869 0.2593 0.25525 0.0
H34 H 0.99889 0.11816 0.24267 0.0
H35 H 0.04195 0.13937 0.22574 0.0
H36 H 0.15064 0.21002 0.14256 0.0
H37 H 0.17932 0.23432 0.1246 0.0
H38 H 0.21527 0.38836 0.13098 0.0
H39 H 0.18678 0.36474 0.1489 0.0
C40 C 0.79886 0.91448 0.22105 0.0
Eu41 Eu 0.7763 0.89202 0.20145 0.0
C42 C 0.8133 0.89863 0.23084 0.0
C43 C 0.77721 0.85753 0.23685 0.0
C44 C 0.79034 0.84769 0.24671 0.0
C45 C 0.83973 0.87857 0.2507 0.0
C46 C 0.87627 0.9184 0.24456 0.0
C47 C 0.8631 0.9285 0.23477 0.0
C48 C 0.71502 0.79644 0.1929 0.0
C49 C 0.85409 0.86888 0.18802 0.0
C50 C 0.74777 0.86459 0.15698 0.0
Eu51 Eu 0.7751 0.8956 0.17593 0.0
C52 C 0.73231 0.87495 0.14678 0.0
C53 C 0.76594 0.91542 0.14039 0.0
C54 C 0.75171 0.92007 0.13024 0.0
C55 C 0.70226 0.88598 0.1263 0.0
C56 C 0.67105 0.84331 0.13266 0.0
C57 C 0.68509 0.8388 0.14275 0.0
C58 C 0.84522 0.98803 0.18378 0.0
C59 C 0.70953 0.93613 0.18898 0.0
O60 O 0.83266 0.93211 0.21358 0.0
O61 O 0.7519 0.88747 0.21758 0.0
O62 O 0.72197 0.8055 0.2028 0.0
O63 O 0.7406 0.83903 0.18843 0.0
O64 O 0.83929 0.87553 0.19729 0.0
O65 O 0.83271 0.87047 0.17913 0.0
O66 O 0.71516 0.85161 0.16469 0.0
O67 O 0.79554 0.8926 0.15988 0.0
O68 O 0.83558 0.97887 0.17392 0.0
O69 O 0.815 0.94803 0.1888 0.0
O70 O 0.72227 0.92579 0.17982 0.0
O71 O 0.72557 0.92703 0.19798 0.0
H72 H 0.73853 0.83378 0.23409 0.0
H73 H 0.76174 0.81646 0.25129 0.0
H74 H 0.9146 0.94254 0.24749 0.0
H75 H 0.89163 0.96069 0.23038 0.0
H76 H 0.80404 0.94246 0.14306 0.0
H77 H 0.78121 0.94928 0.12553 0.0
H78 H 0.63612 0.81132 0.12986 0.0
H79 H 0.65962 0.80544 0.14727 0.0
C80 C 0.1349 0.91092 0.21924 0.0
Eu81 Eu 0.13352 0.88661 0.19979 0.0
C82 C 0.13972 0.92755 0.23023 0.0
C83 C 0.18757 0.96484 0.2341 0.0
C84 C 0.19256 0.98317 0.24424 0.0
C85 C 0.14986 0.96473 0.25075 0.0
C86 C 0.10195 0.92765 0.24694 0.0
C87 C 0.0969 0.90922 0.23675 0.0
C88 C 0.22401 0.90488 0.19033 0.0
C89 C 0.15122 0.98576 0.18666 0.0
C90 C 0.15186 0.88792 0.1568 0.0
Eu91 Eu 0.12973 0.88049 0.17642 0.0
C92 C 0.14325 0.862 0.14671 0.0
C93 C 0.09494 0.83522 0.14197 0.0
C94 C 0.09036 0.8166 0.13181 0.0
C95 C 0.13411 0.82566 0.12624 0.0
C96 C 0.1818 0.85074 0.13118 0.0
C97 C 0.18621 0.86837 0.14132 0.0
C98 C 0.03655 0.85232 0.18514 0.0
C99 C 0.08882 0.77479 0.18936 0.0
O100 O 0.09536 0.87088 0.21521 0.0
O101 O 0.17272 0.93527 0.21285 0.0
O102 O 0.20523 0.87847 0.19876 0.0
O103 O 0.1935 0.91924 0.18748 0.0
O104 O 0.13166 0.95852 0.1952 0.0
O105 O 0.16134 0.96545 0.17861 0.0
O106 O 0.17572 0.87674 0.16393 0.0
O107 O 0.11673 0.89673 0.16055 0.0
O108 O 0.04354 0.8345 0.17654 0.0
O109 O 0.07948 0.88716 0.18819 0.0
O110 O 0.11207 0.79999 0.18078 0.0
O111 O 0.08762 0.79964 0.19775 0.0
H112 H 0.22135 0.98006 0.22927 0.0
H113 H 0.22987 0.01156 0.24704 0.0
H114 H 0.06855 0.91301 0.25185 0.0
H115 H 0.05949 0.88115 0.23394 0.0
H116 H 0.06114 0.82973 0.14598 0.0
H117 H 0.05313 0.79686 0.12816 0.0
H118 H 0.21596 0.85778 0.12709 0.0
H119 H 0.22376 0.88875 0.14483 0.0
C120 C 0.24081 0.12229 0.32241 0.0
Eu121 Eu 0.25468 0.13264 0.34263 0.0
C122 C 0.22109 0.09118 0.31279 0.0
C123 C 0.25644 0.08974 0.30592 0.0
C124 C 0.24139 0.06752 0.2961 0.0
C125 C 0.1904 0.0456 0.29289 0.0
C126 C 0.15441 0.04553 0.29982 0.0
C127 C 0.1697 0.06859 0.30965 0.0
C128 C 0.326 0.11221 0.35182 0.0
C129 C 0.17505 0.03021 0.35528 0.0
C130 C 0.27393 0.13192 0.38538 0.0
Eu131 Eu 0.25797 0.13748 0.36562 0.0
C132 C 0.29176 0.15967 0.39536 0.0
C133 C 0.26101 0.17288 0.40125 0.0
C134 C 0.27481 0.19065 0.41144 0.0
C135 C 0.31902 0.19465 0.41597 0.0
C136 C 0.3509 0.18379 0.40994 0.0
C137 C 0.33755 0.16677 0.39972 0.0
C138 C 0.19476 0.16952 0.35715 0.0
C139 C 0.32424 0.2419 0.35322 0.0
O140 O 0.21073 0.12917 0.32863 0.0
O141 O 0.27787 0.12128 0.32734 0.0
O142 O 0.33468 0.14185 0.3439 0.0
O143 O 0.28089 0.09681 0.35461 0.0
O144 O 0.18723 0.05384 0.34616 0.0
O145 O 0.2014 0.05304 0.36374 0.0
O146 O 0.30821 0.14199 0.37818 0.0
O147 O 0.22977 0.12229 0.38159 0.0
O148 O 0.22375 0.18938 0.36517 0.0
O149 O 0.19999 0.13277 0.35418 0.0
O150 O 0.32567 0.21454 0.36109 0.0
O151 O 0.29318 0.2187 0.34532 0.0
H152 H 0.2964 0.10737 0.30801 0.0
H153 H 0.26978 0.06785 0.29094 0.0
H154 H 0.11478 0.02861 0.29752 0.0
H155 H 0.1416 0.06959 0.31468 0.0
H156 H 0.22537 0.16762 0.39816 0.0
H157 H 0.24971 0.19892 0.41598 0.0
H158 H 0.38521 0.18677 0.41327 0.0
H159 H 0.3619 0.15674 0.39538 0.0
C160 C 0.89375 0.10341 0.32171 0.0
Eu161 Eu 0.89299 0.12675 0.34119 0.0
C162 C 0.92162 0.11722 0.31173 0.0
C163 C 0.95943 0.16734 0.30927 0.0
C164 C 0.98273 0.17854 0.29943 0.0
C165 C 0.96818 0.13992 0.29191 0.0
C166 C 0.93092 0.08988 0.29451 0.0
C167 C 0.90824 0.07867 0.30433 0.0
C168 C 0.9289 0.22326 0.34932 0.0
C169 C 0.99363 0.15063 0.35499 0.0
C170 C 0.87956 0.13953 0.3852 0.0
Eu171 Eu 0.88557 0.12036 0.36573 0.0
C172 C 0.85087 0.1294 0.39502 0.0
C173 C 0.84649 0.09101 0.40186 0.0
C174 C 0.83179 0.09011 0.41218 0.0
C175 C 0.8212 0.12746 0.41579 0.0
C176 C 0.82207 0.16358 0.40883 0.0
C177 C 0.83685 0.16458 0.39853 0.0
C178 C 0.878 0.03657 0.35669 0.0
C179 C 0.78042 0.08331 0.35245 0.0
O180 O 0.91168 0.08772 0.32925 0.0
O181 O 0.87424 0.13103 0.32498 0.0
O182 O 0.92586 0.213 0.33948 0.0
O183 O 0.91181 0.1814 0.35411 0.0
O184 O 0.97154 0.14103 0.34575 0.0
O185 O 0.97023 0.15132 0.36359 0.0
O186 O 0.87106 0.16321 0.37758 0.0
O187 O 0.8919 0.10614 0.38201 0.0
O188 O 0.89156 0.04975 0.36623 0.0
O189 O 0.86033 0.06341 0.35285 0.0
O190 O 0.80213 0.08906 0.36168 0.0
O191 O 0.80716 0.09571 0.34366 0.0
H192 H 0.97043 0.19772 0.31487 0.0
H193 H 1.01138 0.21743 0.2976 0.0
H194 H 0.91907 0.05948 0.28888 0.0
H195 H 0.87936 0.03975 0.30609 0.0
H196 H 0.85748 0.06361 0.39945 0.0
H197 H 0.83151 0.06215 0.41748 0.0
H198 H 0.81424 0.19282 0.41154 0.0
H199 H 0.84051 0.19496 0.3935 0.0
C200 C 0.89865 0.77596 0.32168 0.0
Eu201 Eu 0.89585 0.76368 0.34191 0.0
C202 C 0.8903 0.80037 0.3124 0.0
C203 C 0.84407 0.77398 0.30687 0.0
C204 C 0.83842 0.79097 0.29711 0.0
C205 C 0.87879 0.83478 0.29264 0.0
C206 C 0.92444 0.8625 0.29825 0.0
C207 C 0.93022 0.84538 0.30805 0.0
C208 C 0.80565 0.69485 0.35159 0.0
C209 C 0.87554 0.84703 0.35354 0.0
C210 C 0.8775 0.75435 0.38492 0.0
Eu211 Eu 0.89936 0.76607 0.36513 0.0
C212 C 0.88496 0.73481 0.39497 0.0
C213 C 0.92679 0.76461 0.40143 0.0
C214 C 0.92963 0.74782 0.41145 0.0
C215 C 0.89202 0.69931 0.41523 0.0
C216 C 0.84826 0.67228 0.40886 0.0
C217 C 0.84551 0.68884 0.39888 0.0
C218 C 0.9932 0.82791 0.35629 0.0
C219 C 0.93678 0.69683 0.35337 0.0
O220 O 0.93835 0.80175 0.32769 0.0
O221 O 0.85861 0.7429 0.32684 0.0
O222 O 0.82563 0.68423 0.34378 0.0
O223 O 0.83552 0.74043 0.35405 0.0
O224 O 0.8822 0.82981 0.34459 0.0
O225 O 0.87844 0.82768 0.36257 0.0
O226 O 0.85022 0.72071 0.37781 0.0
O227 O 0.91539 0.79588 0.38099 0.0
O228 O 0.98522 0.80078 0.36461 0.0
O229 O 0.95063 0.82072 0.35313 0.0
O230 O 0.91002 0.69819 0.36137 0.0
O231 O 0.94279 0.72506 0.34506 0.0
H232 H 0.81279 0.73877 0.30987 0.0
H233 H 0.80298 0.76899 0.29289 0.0
H234 H 0.95607 0.89642 0.29491 0.0
H235 H 0.96654 0.86628 0.31201 0.0
H236 H 0.95648 0.80195 0.39893 0.0
H237 H 0.9605 0.77484 0.41625 0.0
H238 H 0.81414 0.63908 0.41157 0.0
H239 H 0.81106 0.66645 0.39438 0.0
C240 C 0.88724 0.73361 0.88417 0.0
Eu241 Eu 0.88604 0.76426 0.86539 0.0
C242 C 0.86164 0.71964 0.89435 0.0
C243 C 0.84823 0.75162 0.89971 0.0
C244 C 0.83158 0.74077 0.91002 0.0
C245 C 0.8289 0.69835 0.91513 0.0
C246 C 0.84006 0.66532 0.9096 0.0
C247 C 0.85593 0.67573 0.89927 0.0
C248 C 0.86097 0.83398 0.85813 0.0
C249 C 0.77943 0.7031 0.85185 0.0
C250 C 0.89895 0.79602 0.82066 0.0
Eu251 Eu 0.89094 0.76786 0.84007 0.0
C252 C 0.92608 0.80362 0.81063 0.0
C253 C 0.90049 0.77218 0.80211 0.0
C254 C 0.92257 0.78376 0.79222 0.0
C255 C 0.97092 0.82683 0.79063 0.0
C256 C 0.99725 0.85755 0.79917 0.0
C257 C 0.97497 0.84633 0.80905 0.0
C258 C 0.92358 0.704 0.8485 0.0
C259 C 0.99111 0.84599 0.85361 0.0
O260 O 0.86521 0.70207 0.8764 0.0
O261 O 0.91051 0.78182 0.88143 0.0
O262 O 0.86334 0.82423 0.8679 0.0
O263 O 0.87243 0.80575 0.85281 0.0
O264 O 0.80265 0.71002 0.86099 0.0
O265 O 0.8046 0.72405 0.84307 0.0
O266 O 0.92502 0.82646 0.82828 0.0
O267 O 0.86619 0.7496 0.82381 0.0
O268 O 0.92038 0.71065 0.83862 0.0
O269 O 0.90811 0.73079 0.85288 0.0
O270 O 0.9668 0.83463 0.84462 0.0
O271 O 0.97004 0.82109 0.86236 0.0
H272 H 0.85227 0.78577 0.89608 0.0
H273 H 0.82291 0.76659 0.91418 0.0
H274 H 0.83791 0.63231 0.91338 0.0
H275 H 0.86599 0.65058 0.89526 0.0
H276 H 0.86263 0.73949 0.80304 0.0
H277 H 0.90166 0.75939 0.78575 0.0
H278 H 0.03461 0.89089 0.79814 0.0
H279 H 0.9956 0.87199 0.81537 0.0
C280 C 0.27938 0.15429 0.88376 0.0
Eu281 Eu 0.25362 0.12326 0.86474 0.0
C282 C 0.29422 0.1435 0.894 0.0
C283 C 0.26081 0.10205 0.90021 0.0
C284 C 0.27491 0.09661 0.91033 0.0
C285 C 0.32399 0.13096 0.91441 0.0
C286 C 0.3548 0.17458 0.90825 0.0
C287 C 0.34095 0.17982 0.8982 0.0
C288 C 0.18682 0.02958 0.85713 0.0
C289 C 0.32119 0.08174 0.85234 0.0
C290 C 0.23847 0.10511 0.81965 0.0
Eu291 Eu 0.25837 0.12685 0.83934 0.0
C292 C 0.22199 0.11869 0.80989 0.0
C293 C 0.23952 0.1694 0.80682 0.0
C294 C 0.22508 0.17987 0.79714 0.0
C295 C 0.1935 0.13986 0.79037 0.0
C296 C 0.175 0.08938 0.79361 0.0
C297 C 0.18882 0.07898 0.80329 0.0
C298 C 0.31915 0.22241 0.84821 0.0
C299 C 0.1775 0.15086 0.85118 0.0
O300 O 0.3125 0.16711 0.87617 0.0
O301 O 0.23182 0.12664 0.8807 0.0
O302 O 0.19488 0.04028 0.86697 0.0
O303 O 0.21669 0.06926 0.85188 0.0
O304 O 0.30822 0.09375 0.86132 0.0
O305 O 0.30658 0.09032 0.84316 0.0
O306 O 0.20435 0.08437 0.82698 0.0
O307 O 0.28449 0.13584 0.82324 0.0
O308 O 0.31495 0.21333 0.83829 0.0
O309 O 0.29129 0.17978 0.85248 0.0
O310 O 0.19763 0.14688 0.84241 0.0
O311 O 0.19444 0.14643 0.86048 0.0
H312 H 0.22308 0.07473 0.89741 0.0
H313 H 0.24562 0.06648 0.91492 0.0
H314 H 0.38928 0.20667 0.91118 0.0
H315 H 0.36624 0.21381 0.89381 0.0
H316 H 0.26485 0.20076 0.81179 0.0
H317 H 0.23964 0.21912 0.79479 0.0
H318 H 0.15038 0.05797 0.78858 0.0
H319 H 0.17444 0.03963 0.80554 0.0
C320 C 0.88283 0.14034 0.8835 0.0
Eu321 Eu 0.90128 0.13382 0.86397 0.0
C322 C 0.89503 0.1677 0.89353 0.0
C323 C 0.92622 0.16169 0.90087 0.0
C324 C 0.92721 0.17627 0.91121 0.0
C325 C 0.89706 0.19702 0.91435 0.0
C326 C 0.86872 0.20634 0.90693 0.0
C327 C 0.86761 0.19169 0.89661 0.0
C328 C 0.98776 0.1471 0.85553 0.0
C329 C 0.9393 0.2439 0.85214 0.0
C330 C 0.88988 0.12495 0.82096 0.0
Eu331 Eu 0.89335 0.13397 0.84136 0.0
C332 C 0.88536 0.09417 0.81155 0.0
C333 C 0.83703 0.0567 0.80791 0.0
C334 C 0.83143 0.03486 0.79806 0.0
C335 C 0.87385 0.05028 0.79155 0.0
C336 C 0.92242 0.08615 0.79529 0.0
C337 C 0.92813 0.10776 0.8052 0.0
C338 C 0.80355 0.10795 0.8516 0.0
C339 C 0.87713 0.03057 0.85279 0.0
O340 O 0.86473 0.15559 0.87591 0.0
O341 O 0.91094 0.12143 0.88029 0.0
O342 O 0.96954 0.1246 0.86434 0.0
O343 O 0.96231 0.16678 0.85185 0.0
O344 O 0.931 0.21859 0.86098 0.0
O345 O 0.92826 0.21967 0.84316 0.0
O346 O 0.9324 0.14743 0.82621 0.0
O347 O 0.85018 0.10958 0.82692 0.0
O348 O 0.82418 0.14327 0.84457 0.0
O349 O 0.83422 0.09237 0.85357 0.0
O350 O 0.88947 0.05756 0.8441 0.0
O351 O 0.87246 0.05028 0.86157 0.0
H352 H 0.9474 0.14289 0.89879 0.0
H353 H 0.94915 0.16869 0.91687 0.0
H354 H 0.84502 0.22206 0.90926 0.0
H355 H 0.84268 0.19622 0.8912 0.0
H356 H 0.80306 0.04573 0.81247 0.0
H357 H 0.79361 1.0074 0.79533 0.0
H358 H 0.95571 0.0985 0.79042 0.0
H359 H 0.96578 0.13682 0.80769 0.0
C360 C 0.7426 0.87581 0.65617 0.0
Eu361 Eu 0.7708 0.88047 0.67544 0.0
C362 C 0.72458 0.84849 0.64621 0.0
C363 C 0.7515 0.82848 0.64099 0.0
C364 C 0.73977 0.81264 0.63065 0.0
C365 C 0.70151 0.81717 0.62536 0.0
C366 C 0.67317 0.83489 0.63073 0.0
C367 C 0.68447 0.85014 0.64108 0.0
C368 C 0.84771 0.86869 0.683 0.0
C369 C 0.70796 0.77488 0.68906 0.0
C370 C 0.80817 0.89746 0.71923 0.0
Eu371 Eu 0.77866 0.88776 0.69984 0.0
C372 C 0.81585 0.92391 0.72936 0.0
C373 C 0.77534 0.91299 0.73617 0.0
C374 C 0.78517 0.93479 0.74614 0.0
C375 C 0.83556 0.96767 0.74946 0.0
C376 C 0.87579 0.9795 0.74257 0.0
C377 C 0.86606 0.9577 0.73267 0.0
C378 C 0.71606 0.92425 0.69257 0.0
C379 C 0.85604 0.98428 0.68583 0.0
O380 O 0.71077 0.86391 0.66395 0.0
O381 O 0.78933 0.89036 0.65906 0.0
O382 O 0.84624 0.88536 0.67383 0.0
O383 O 0.80509 0.85281 0.68759 0.0
O384 O 0.71723 0.79736 0.67981 0.0
O385 O 0.72884 0.80099 0.69776 0.0
O386 O 0.83733 0.92498 0.71158 0.0
O387 O 0.76219 0.86319 0.71615 0.0
O388 O 0.72505 0.92053 0.70225 0.0
O389 O 0.73993 0.90721 0.68757 0.0
O390 O 0.85032 0.95807 0.6944 0.0
O391 O 0.82384 0.9651 0.67796 0.0
H392 H 0.78292 0.8271 0.64472 0.0
H393 H 0.76196 0.79893 0.62661 0.0
H394 H 0.64344 0.83847 0.62679 0.0
H395 H 0.66358 0.86583 0.64492 0.0
H396 H 0.73628 0.88698 0.7339 0.0
H397 H 0.75354 0.92548 0.75132 0.0
H398 H 0.91488 1.00487 0.74494 0.0
H399 H 0.89815 0.96642 0.72766 0.0
C400 C 0.16416 0.89387 0.65637 0.0
Eu401 Eu 0.14508 0.89993 0.67572 0.0
C402 C 0.17499 0.89041 0.64539 0.0
C403 C 0.1714 0.92254 0.63798 0.0
C404 C 0.18303 0.91998 0.62758 0.0
C405 C 0.19942 0.88604 0.62453 0.0
C406 C 0.2045 0.85505 0.63201 0.0
C407 C 0.19184 0.85684 0.64236 0.0
C408 C 0.14887 0.98297 0.6844 0.0
C409 C 0.25106 0.94013 0.68919 0.0
C410 C 0.12977 0.91505 0.71897 0.0
Eu411 Eu 0.13952 0.89519 0.69967 0.0
C412 C 0.10273 0.89581 0.72901 0.0
C413 C 0.12514 0.88257 0.73711 0.0
C414 C 0.10339 0.87155 0.74704 0.0
C415 C 0.0586 0.8732 0.74906 0.0
C416 C 0.03551 0.88532 0.74093 0.0
C417 C 0.05754 0.89694 0.73104 0.0
C418 C 0.10865 0.79819 0.69223 0.0
C419 C 0.03835 0.87153 0.68593 0.0
O420 O 0.14588 0.85448 0.66263 0.0
O421 O 0.17025 0.93589 0.66049 0.0
O422 O 0.12366 0.96049 0.67604 0.0
O423 O 0.1711 0.9598 0.68803 0.0
O424 O 0.22756 0.92632 0.68011 0.0
O425 O 0.22581 0.93474 0.69792 0.0
O426 O 0.10366 0.91882 0.71124 0.0
O427 O 0.16289 0.90166 0.71598 0.0
O428 O 0.11247 0.81025 0.70196 0.0
O429 O 0.12317 0.8388 0.68716 0.0
O430 O 0.06246 0.88321 0.69494 0.0
O431 O 0.0604 0.86907 0.67725 0.0
H432 H 0.15906 0.94918 0.64019 0.0
H433 H 0.17885 0.94409 0.6219 0.0
H434 H 0.21714 0.82867 0.62978 0.0
H435 H 0.19573 0.8324 0.648 0.0
H436 H 0.16027 0.88207 0.73586 0.0
H437 H 0.12176 0.86212 0.75319 0.0
H438 H 1.00094 0.88678 0.74231 0.0
H439 H 0.03974 0.90799 0.72505 0.0
C440 C 0.15226 0.26927 0.65588 0.0
Eu441 Eu 0.12696 0.2536 0.67544 0.0
C442 C 0.14371 0.28717 0.64576 0.0
C443 C 0.10176 0.25627 0.63941 0.0
C444 C 0.0981 0.27209 0.62934 0.0
C445 C 0.13491 0.32063 0.62543 0.0
C446 C 0.17885 0.34872 0.63169 0.0
C447 C 0.18241 0.33313 0.64171 0.0
C448 C 0.03507 0.18634 0.68408 0.0
C449 C 0.08419 0.31571 0.68841 0.0
C450 C 0.10419 0.21972 0.71946 0.0
Eu451 Eu 0.12707 0.24691 0.70005 0.0
C452 C 0.12314 0.20788 0.72918 0.0
C453 C 0.15067 0.24619 0.73657 0.0
C454 C 0.16238 0.23393 0.74631 0.0
C455 C 0.14688 0.18316 0.74888 0.0
C456 C 0.12099 0.14499 0.74142 0.0
C457 C 0.10893 0.15715 0.73169 0.0
C458 C 0.22446 0.31451 0.69273 0.0
C459 C 0.16006 0.17659 0.68697 0.0
O460 O 0.17553 0.30357 0.66314 0.0
O461 O 0.11671 0.22538 0.65954 0.0
O462 O 0.041 0.21144 0.6755 0.0
O463 O 0.07862 0.19648 0.68727 0.0
O464 O 0.10544 0.3133 0.67959 0.0
O465 O 0.08305 0.28931 0.69679 0.0
O466 O 0.0907 0.18731 0.71177 0.0
O467 O 0.12626 0.26722 0.71629 0.0
O468 O 0.21286 0.30339 0.70244 0.0
O469 O 0.18327 0.28959 0.68779 0.0
O470 O 0.14698 0.18676 0.69606 0.0
O471 O 0.1552 0.19748 0.67829 0.0
H472 H 0.07263 0.21893 0.64204 0.0
H473 H 0.06728 0.24433 0.62464 0.0
H474 H 0.21244 0.38217 0.62888 0.0
H475 H 0.2169 0.35631 0.64614 0.0
H476 H 0.162 0.28555 0.73495 0.0
H477 H 0.18291 0.264 0.75193 0.0
H478 H 0.10902 0.10562 0.74322 0.0
H479 H 0.08729 0.12658 0.72625 0.0
C480 C 0.79954 0.55775 0.55411 0.0
Eu481 Eu 0.80327 0.58258 0.53449 0.0
C482 C 0.77012 0.54721 0.56401 0.0
C483 C 0.78934 0.58266 0.57218 0.0
C484 C 0.76627 0.57037 0.58202 0.0
C485 C 0.7232 0.52242 0.58391 0.0
C486 C 0.70285 0.48738 0.57569 0.0
C487 C 0.72622 0.49945 0.56588 0.0
C488 C 0.76924 0.64537 0.52625 0.0
C489 C 0.70243 0.50622 0.52065 0.0
C490 C 0.80603 0.61561 0.48994 0.0
Eu491 Eu 0.80806 0.58718 0.50892 0.0
C492 C 0.83258 0.63031 0.47982 0.0
C493 C 0.84392 0.59745 0.47419 0.0
C494 C 0.86097 0.60901 0.46391 0.0
C495 C 0.86616 0.65307 0.45906 0.0
C496 C 0.85733 0.68701 0.46486 0.0
C497 C 0.84104 0.67586 0.47517 0.0
C498 C 0.83339 0.51756 0.5165 0.0
C499 C 0.9134 0.65081 0.52203 0.0
O500 O 0.77884 0.52469 0.54659 0.0
O501 O 0.82593 0.60492 0.55071 0.0
O502 O 0.77349 0.63904 0.53609 0.0
O503 O 0.78508 0.6192 0.52168 0.0
O504 O 0.72439 0.5196 0.52991 0.0
O505 O 0.7248 0.52971 0.51187 0.0
O506 O 0.82595 0.64783 0.49766 0.0
O507 O 0.78475 0.56773 0.49283 0.0
O508 O 0.83372 0.52838 0.5067 0.0
O509 O 0.82256 0.54685 0.52155 0.0
O510 O 0.88817 0.64769 0.51338 0.0
O511 O 0.88968 0.62652 0.53076 0.0
H512 H 0.82322 0.61949 0.57107 0.0
H513 H 0.7824 0.59817 0.5882 0.0
H514 H 0.6696 0.45021 0.57695 0.0
H515 H 0.71054 0.47078 0.55984 0.0
H516 H 0.83781 0.56204 0.47757 0.0
H517 H 0.86781 0.58243 0.45956 0.0
H518 H 0.86141 0.72129 0.4613 0.0
H519 H 0.83266 0.70177 0.47937 0.0
C520 C 0.46856 0.25016 0.55373 0.0
Eu521 Eu 0.44294 0.22781 0.53423 0.0
C522 C 0.48172 0.23284 0.5635 0.0
C523 C 0.44399 0.19378 0.56967 0.0
C524 C 0.4561 0.18306 0.57954 0.0
C525 C 0.50613 0.21093 0.58341 0.0
C526 C 0.54422 0.24855 0.57712 0.0
C527 C 0.53207 0.2596 0.5673 0.0
C528 C 0.37624 0.13135 0.52649 0.0
C529 C 0.51842 0.20184 0.52114 0.0
C530 C 0.42448 0.20905 0.49 0.0
Eu531 Eu 0.43891 0.23176 0.5097 0.0
C532 C 0.40544 0.21644 0.4799 0.0
C533 C 0.4353 0.25808 0.4734 0.0
C534 C 0.41844 0.26063 0.46337 0.0
C535 C 0.36984 0.22291 0.45964 0.0
C536 C 0.34296 0.17926 0.46603 0.0
C537 C 0.35956 0.17682 0.47601 0.0
C538 C 0.50287 0.32306 0.51905 0.0
C539 C 0.37284 0.26961 0.52266 0.0
O540 O 0.5016 0.26563 0.54611 0.0
O541 O 0.42118 0.22575 0.55045 0.0
O542 O 0.38689 0.14207 0.53624 0.0
O543 O 0.40162 0.1729 0.52164 0.0
O544 O 0.50261 0.20682 0.5304 0.0
O545 O 0.49867 0.20745 0.51233 0.0
O546 O 0.39042 0.18406 0.4972 0.0
O547 O 0.4675 0.24576 0.49375 0.0
O548 O 0.47634 0.31784 0.51069 0.0
O549 O 0.49425 0.27939 0.52181 0.0
O550 O 0.37739 0.25038 0.51376 0.0
O551 O 0.39778 0.26931 0.53117 0.0
H552 H 0.40482 0.17243 0.56702 0.0
H553 H 0.42626 0.15355 0.58424 0.0
H554 H 0.58306 0.27037 0.57994 0.0
H555 H 0.56189 0.29022 0.5628 0.0
H556 H 0.47263 0.28783 0.4759 0.0
H557 H 0.44544 0.29136 0.45855 0.0
H558 H 0.30975 0.14508 0.46335 0.0
H559 H 0.33722 0.14248 0.48054 0.0
C560 C 0.77697 0.22609 0.55392 0.0
Eu561 Eu 0.7984 0.22032 0.53451 0.0
C562 C 0.79236 0.25201 0.56411 0.0
C563 C 0.83919 0.2656 0.56893 0.0
C564 C 0.85022 0.28809 0.57884 0.0
C565 C 0.8145 0.29699 0.58405 0.0
C566 C 0.76824 0.28407 0.57912 0.0
C567 C 0.75748 0.26211 0.56925 0.0
C568 C 0.89436 0.25423 0.52599 0.0
C569 C 0.81788 0.31995 0.5209 0.0
C570 C 0.82352 0.21535 0.4903 0.0
Eu571 Eu 0.79448 0.2155 0.50924 0.0
C572 C 0.80875 0.18813 0.48025 0.0
C573 C 0.77977 0.19775 0.47297 0.0
C574 C 0.77573 0.18118 0.46271 0.0
C575 C 0.80049 0.15475 0.4596 0.0
C576 C 0.82627 0.14188 0.46699 0.0
C577 C 0.83045 0.15852 0.47724 0.0
C578 C 0.69981 0.18777 0.51677 0.0
C579 C 0.75275 0.10938 0.52251 0.0
O580 O 0.77096 0.25155 0.54638 0.0
O581 O 0.79513 0.19701 0.55078 0.0
O582 O 0.88484 0.2508 0.53588 0.0
O583 O 0.85198 0.23841 0.52154 0.0
O584 O 0.80952 0.29713 0.53004 0.0
O585 O 0.8189 0.2983 0.51205 0.0
O586 O 0.8342 0.19396 0.49806 0.0
O587 O 0.80029 0.24009 0.4932 0.0
O588 O 0.71112 0.19017 0.50697 0.0
O589 O 0.74005 0.20036 0.52205 0.0
O590 O 0.76556 0.13283 0.51337 0.0
O591 O 0.76015 0.13425 0.53146 0.0
H592 H 0.86684 0.25843 0.56511 0.0
H593 H 0.88614 0.29774 0.58252 0.0
H594 H 0.74018 0.2905 0.58298 0.0
H595 H 0.72122 0.25214 0.56566 0.0
H596 H 0.76265 0.22053 0.47502 0.0
H597 H 0.75578 0.19146 0.45706 0.0
H598 H 0.84573 0.12164 0.46468 0.0
H599 H 0.85323 0.15075 0.48264 0.0
C600 C 0.91174 0.4552 0.6555 0.0
Eu601 Eu 0.92438 0.46698 0.67566 0.0
C602 C 0.89019 0.4246 0.64591 0.0
C603 C 0.92355 0.41837 0.63928 0.0
C604 C 0.90767 0.39645 0.62947 0.0
C605 C 0.85771 0.37947 0.62606 0.0
C606 C 0.82348 0.38408 0.63275 0.0
C607 C 0.83976 0.40705 0.64256 0.0
C608 C 0.99434 0.44844 0.68578 0.0
C609 C 0.84303 0.3657 0.6882 0.0
C610 C 0.93646 0.46671 0.71874 0.0
Eu611 Eu 0.92301 0.47368 0.69893 0.0
C612 C 0.95575 0.49323 0.72881 0.0
C613 C 0.92995 0.51325 0.73445 0.0
C614 C 0.94468 0.53049 0.74467 0.0
C615 C 0.98454 0.52682 0.74948 0.0
C616 C 1.01156 0.50893 0.74367 0.0
C617 C 0.9975 0.49261 0.73345 0.0
C618 C 0.85985 0.50223 0.68954 0.0
C619 C 0.99231 0.57795 0.68597 0.0
O620 O 0.88485 0.46833 0.66135 0.0
O621 O 0.94468 0.44842 0.66079 0.0
O622 O 1.00381 0.47646 0.67756 0.0
O623 O 0.9491 0.43392 0.68838 0.0
O624 O 0.86041 0.38711 0.67903 0.0
O625 O 0.86201 0.39054 0.69702 0.0
O626 O 0.97028 0.4735 0.71165 0.0
O627 O 0.89413 0.46169 0.71485 0.0
O628 O 0.88742 0.5239 0.69772 0.0
O629 O 0.86766 0.46672 0.68677 0.0
O630 O 0.98771 0.55299 0.69474 0.0
O631 O 0.96685 0.55286 0.67762 0.0
H632 H 0.96278 0.43206 0.64156 0.0
H633 H 0.9346 0.39306 0.62448 0.0
H634 H 0.78468 0.37111 0.63026 0.0
H635 H 0.81331 0.4119 0.64741 0.0
H636 H 0.89744 0.51402 0.73112 0.0
H637 H 0.92352 0.54449 0.74899 0.0
H638 H 0.04261 0.50604 0.74717 0.0
H639 H 0.01797 0.47724 0.72931 0.0
C640 C 0.56377 0.45891 0.65556 0.0
Eu641 Eu 0.55578 0.46266 0.67588 0.0
C642 C 0.595 0.4662 0.64608 0.0
C643 C 0.63327 0.5149 0.64281 0.0
C644 C 0.65549 0.522 0.63293 0.0
C645 C 0.6397 0.48073 0.62605 0.0
C646 C 0.60285 0.43185 0.62945 0.0
C647 C 0.58096 0.42469 0.63935 0.0
C648 C 0.58029 0.55266 0.68582 0.0
C649 C 0.65691 0.47862 0.68848 0.0
C650 C 0.54825 0.47557 0.71882 0.0
Eu651 Eu 0.55248 0.45621 0.69921 0.0
C652 C 0.52091 0.46678 0.72885 0.0
C653 C 0.51921 0.43062 0.73599 0.0
C654 C 0.50499 0.43072 0.74633 0.0
C655 C 0.49218 0.4669 0.74971 0.0
C656 C 0.4908 0.50096 0.74248 0.0
C657 C 0.50514 0.50098 0.73215 0.0
C658 C 0.53913 0.36955 0.69077 0.0
C659 C 0.44473 0.41893 0.68655 0.0
O660 O 0.55187 0.4202 0.66169 0.0
O661 O 0.56977 0.49882 0.66061 0.0
O662 O 0.55045 0.5346 0.67782 0.0
O663 O 0.59436 0.52126 0.68836 0.0
O664 O 0.6332 0.47027 0.67945 0.0
O665 O 0.63605 0.48206 0.69721 0.0
O666 O 0.53974 0.49943 0.71127 0.0
O667 O 0.55931 0.44145 0.71552 0.0
O668 O 0.55749 0.38564 0.69995 0.0
O669 O 0.52111 0.39601 0.68684 0.0
O670 O 0.46896 0.43034 0.6956 0.0
O671 O 0.46975 0.42639 0.67772 0.0
H672 H 0.64475 0.54786 0.64773 0.0
H673 H 0.68376 0.56007 0.63049 0.0
H674 H 0.58992 0.39942 0.62431 0.0
H675 H 0.55125 0.38684 0.64158 0.0
H676 H 0.53168 0.40412 0.73376 0.0
H677 H 0.50647 0.40429 0.75181 0.0
H678 H 0.48123 0.52931 0.74497 0.0
H679 H 0.50671 0.52977 0.72691 0.0
C680 C 0.56307 0.10951 0.65478 0.0
Eu681 Eu 0.56078 0.09825 0.67507 0.0
C682 C 0.55311 0.13217 0.64542 0.0
C683 C 0.50671 0.10519 0.63999 0.0
C684 C 0.50075 0.12151 0.63016 0.0
C685 C 0.54106 0.16498 0.62554 0.0
C686 C 0.58688 0.19304 0.63106 0.0
C687 C 0.59284 0.17683 0.64091 0.0
C688 C 0.47268 0.03381 0.68559 0.0
C689 C 0.54438 0.18404 0.68715 0.0
C690 C 0.53878 0.07836 0.71822 0.0
Eu691 Eu 0.56838 0.10422 0.69907 0.0
C692 C 0.54703 0.0609 0.72844 0.0
C693 C 0.58773 0.09238 0.73502 0.0
C694 C 0.59056 0.07653 0.74515 0.0
C695 C 0.55422 0.02744 0.74892 0.0
C696 C 0.51134 0.99873 0.74242 0.0
C697 C 0.50868 0.0143 0.73234 0.0
C698 C 0.66372 0.16896 0.69187 0.0
C699 C 0.60752 0.03556 0.68644 0.0
O700 O 0.6001 0.13914 0.66096 0.0
O701 O 0.5249 0.07272 0.65978 0.0
O702 O 0.48942 0.02111 0.67753 0.0
O703 O 0.50451 0.07948 0.68782 0.0
O704 O 0.54693 0.16387 0.67821 0.0
O705 O 0.54896 0.16627 0.69625 0.0
O706 O 0.52317 0.04583 0.71049 0.0
O707 O 0.5695 0.12556 0.71528 0.0
O708 O 0.65127 0.16058 0.70161 0.0
O709 O 0.62449 0.14175 0.68627 0.0
O710 O 0.59201 0.04513 0.69536 0.0
O711 O 0.60215 0.05418 0.67753 0.0
H712 H 0.47564 0.07026 0.64314 0.0
H713 H 0.46516 0.09926 0.62601 0.0
H714 H 0.6185 0.22662 0.62761 0.0
H715 H 0.62936 0.19812 0.64478 0.0
H716 H 0.61648 0.13011 0.7325 0.0
H717 H 0.62033 0.10458 0.75 0.0
H718 H 0.47785 0.96475 0.74508 0.0
H719 H 0.47506 0.99059 0.72771 0.0
C720 C 0.55128 0.08229 0.21719 0.0
Eu721 Eu 0.55528 0.10246 0.19739 0.0
C722 C 0.52384 0.06144 0.22709 0.0
C723 C 0.50643 0.08871 0.23302 0.0
C724 C 0.49132 0.07501 0.24333 0.0
C725 C 0.49377 0.03418 0.24793 0.0
C726 C 0.50862 1.00534 0.2419 0.0
C727 C 0.52341 0.0188 0.23156 0.0
C728 C 0.54432 0.17725 0.18832 0.0
C729 C 0.4466 0.03219 0.18486 0.0
C730 C 0.56202 0.1255 0.15351 0.0
Eu731 Eu 0.55678 0.0995 0.17307 0.0
C732 C 0.58672 0.13614 0.14314 0.0
C733 C 0.60188 0.10419 0.13833 0.0
C734 C 0.6235 0.11584 0.12831 0.0
C735 C 0.6297 0.15918 0.12292 0.0
C736 C 0.61469 0.19098 0.12779 0.0
C737 C 0.59397 0.17983 0.1378 0.0
C738 C 0.59457 0.03973 0.18125 0.0
C739 C 0.65946 0.17996 0.18575 0.0
O740 O 0.54998 0.05121 0.20999 0.0
O741 O 0.55442 0.12391 0.21343 0.0
O742 O 0.56857 0.18181 0.19692 0.0
O743 O 0.52471 0.1318 0.18484 0.0
O744 O 0.47124 0.04644 0.19388 0.0
O745 O 0.47066 0.04907 0.17583 0.0
O746 O 0.58761 0.15738 0.16096 0.0
O747 O 0.53361 0.07839 0.15681 0.0
O748 O 0.58835 0.04457 0.17144 0.0
O749 O 0.57876 0.06565 0.1859 0.0
O750 O 0.63277 0.16828 0.17705 0.0
O751 O 0.63985 0.15465 0.19449 0.0
H752 H 0.50685 0.12214 0.22988 0.0
H753 H 0.47999 0.09773 0.24789 0.0
H754 H 0.51068 0.97369 0.24532 0.0
H755 H 0.53722 0.99751 0.22723 0.0
H756 H 0.59677 0.07028 0.14225 0.0
H757 H 0.63457 0.0906 0.12469 0.0
H758 H 0.61898 0.22449 0.12383 0.0
H759 H 0.58279 0.20518 0.14136 0.0
C760 C 0.94587 0.47442 0.2172 0.0
Eu761 Eu 0.92281 0.45428 0.19759 0.0
C762 C 0.96278 0.46451 0.22733 0.0
C763 C 0.92701 0.42978 0.23447 0.0
C764 C 0.94072 0.42942 0.24486 0.0
C765 C 0.99035 0.46373 0.24827 0.0
C766 C 0.0269 0.49622 0.24105 0.0
C767 C 1.01323 0.49667 0.23068 0.0
C768 C 0.85173 0.36591 0.18913 0.0
C769 C 0.99576 0.41897 0.18552 0.0
C770 C 0.91852 0.45806 0.15406 0.0
Eu771 Eu 0.92864 0.46175 0.17443 0.0
C772 C 0.89611 0.46715 0.1445 0.0
C773 C 0.92494 0.51183 0.13862 0.0
C774 C 0.90879 0.51715 0.12872 0.0
C775 C 0.86327 0.47807 0.12443 0.0
C776 C 0.8334 0.43405 0.1304 0.0
C777 C 0.84978 0.42849 0.14029 0.0
C778 C 0.993 0.55178 0.18474 0.0
C779 C 0.84257 0.47811 0.18616 0.0
O780 O 0.9791 0.49561 0.20969 0.0
O781 O 0.89988 0.44256 0.21385 0.0
O782 O 0.84965 0.38114 0.19841 0.0
O783 O 0.89586 0.39389 0.18516 0.0
O784 O 0.98109 0.4292 0.19444 0.0
O785 O 0.97932 0.42678 0.17656 0.0
O786 O 0.88968 0.42033 0.16023 0.0
O787 O 0.95388 0.49707 0.15912 0.0
O788 O 1.00549 0.5344 0.17675 0.0
O789 O 0.9471 0.5201 0.18689 0.0
O790 O 0.85767 0.46782 0.17734 0.0
O791 O 0.86606 0.48138 0.19503 0.0
H792 H 0.88769 0.40488 0.2322 0.0
H793 H 0.91199 0.40421 0.25034 0.0
H794 H 0.06532 0.52312 0.24357 0.0
H795 H 0.04149 0.52435 0.22544 0.0
H796 H 0.9611 0.54206 0.14151 0.0
H797 H 0.93239 0.55151 0.12429 0.0
H798 H 0.79812 0.4034 0.12726 0.0
H799 H 0.82695 0.3932 0.1445 0.0
C800 C 0.54178 0.47139 0.21684 0.0
Eu801 Eu 0.56553 0.46871 0.1975 0.0
C802 C 0.554 0.499 0.22687 0.0
C803 C 0.58876 0.49682 0.23387 0.0
C804 C 0.59096 0.51182 0.24422 0.0
C805 C 0.55857 0.52929 0.24773 0.0
C806 C 0.52638 0.53474 0.24062 0.0
C807 C 0.52404 0.51963 0.23029 0.0
C808 C 0.65245 0.47905 0.19017 0.0
C809 C 0.60917 0.57823 0.18502 0.0
C810 C 0.57695 0.46038 0.15405 0.0
Eu811 Eu 0.56324 0.46781 0.17396 0.0
C812 C 0.56423 0.43039 0.14421 0.0
C813 C 0.51512 0.40711 0.13975 0.0
C814 C 0.5065 0.38578 0.12974 0.0
C815 C 0.54687 0.38796 0.12389 0.0
C816 C 0.59552 0.41006 0.12846 0.0
C817 C 0.60397 0.43068 0.1385 0.0
C818 C 0.47139 0.44208 0.18347 0.0
C819 C 0.53685 0.36248 0.18577 0.0
O820 O 0.52412 0.48653 0.20913 0.0
O821 O 0.57079 0.45329 0.21378 0.0
O822 O 0.63542 0.46421 0.19949 0.0
O823 O 0.6277 0.4976 0.18556 0.0
O824 O 0.59622 0.55328 0.19399 0.0
O825 O 0.60146 0.55364 0.17613 0.0
O826 O 0.6023 0.45226 0.16134 0.0
O827 O 0.54485 0.47337 0.15776 0.0
O828 O 0.48771 0.46815 0.17493 0.0
O829 O 0.5035 0.42948 0.18615 0.0
O830 O 0.5459 0.38739 0.17691 0.0
O831 O 0.537 0.38429 0.19471 0.0
H832 H 0.61216 0.48077 0.23154 0.0
H833 H 0.61591 0.50722 0.24961 0.0
H834 H 0.50098 0.54797 0.24322 0.0
H835 H 0.49653 0.52124 0.22514 0.0
H836 H 0.4837 0.40658 0.14387 0.0
H837 H 0.46861 0.36896 0.1264 0.0
H838 H 0.62726 0.41216 0.12417 0.0
H839 H 0.64226 0.44869 0.14167 0.0
C840 C 0.41342 0.21194 0.98906 0.0
Eu841 Eu 0.43746 0.21765 1.00869 0.0
C842 C 0.39434 0.18445 0.97912 0.0
C843 C 0.42216 0.16674 0.97349 0.0
C844 C 0.40913 0.1508 0.96318 0.0
C845 C 0.36869 0.15307 0.9583 0.0
C846 C 0.33951 0.16849 0.96407 0.0
C847 C 0.35207 0.18373 0.97441 0.0
C848 C 0.51497 0.20651 1.0164 0.0
C849 C 0.3734 0.11037 0.02124 0.0
C850 C 0.4664 0.23326 0.05146 0.0
Eu851 Eu 0.44114 0.22129 0.03169 0.0
C852 C 0.48065 0.26448 0.06117 0.0
C853 C 0.44294 0.26232 0.06789 0.0
C854 C 0.4558 0.28429 0.07783 0.0
C855 C 0.50664 0.30896 0.08132 0.0
C856 C 0.54468 0.31296 0.07449 0.0
C857 C 0.5318 0.29065 0.06458 0.0
C858 C 0.37051 0.24392 0.02318 0.0
C859 C 0.51602 0.32493 1.01852 0.0
O860 O 0.38125 0.20409 0.99656 0.0
O861 O 0.45845 0.22245 0.9924 0.0
O862 O 0.51599 0.228 1.00768 0.0
O863 O 0.47086 0.18681 1.02041 0.0
O864 O 0.37624 0.13598 1.01269 0.0
O865 O 0.40056 0.13482 0.02954 0.0
O866 O 0.49949 0.24716 0.04388 0.0
O867 O 0.41931 0.21148 0.04809 0.0
O868 O 0.36354 0.21672 0.03146 0.0
O869 O 0.41497 0.2584 1.01994 0.0
O870 O 0.50651 0.30022 0.02746 0.0
O871 O 0.48701 0.3031 1.01033 0.0
H872 H 0.45526 0.16729 0.97686 0.0
H873 H 0.43209 0.13897 0.95885 0.0
H874 H 0.30813 0.17038 0.96046 0.0
H875 H 0.33033 0.19764 0.97855 0.0
H876 H 0.40315 0.24217 0.06562 0.0
H877 H 0.42584 0.28117 0.0829 0.0
H878 H 0.5842 0.33208 0.07695 0.0
H879 H 0.56179 0.29245 0.05971 0.0
C880 C 0.80077 0.20143 0.98828 0.0
Eu881 Eu 0.80698 0.22348 1.00798 0.0
C882 C 0.82981 0.21339 0.97841 0.0
C883 C 0.82695 0.24657 0.97112 0.0
C884 C 0.84456 0.24932 0.96096 0.0
C885 C 0.86535 0.21902 0.95796 0.0
C886 C 0.87165 0.18869 0.96539 0.0
C887 C 0.8539 0.18575 0.97552 0.0
C888 C 0.83758 0.31741 1.01626 0.0
C889 C 0.9134 0.26407 1.0205 0.0
C890 C 0.79121 0.22376 0.05145 0.0
Eu891 Eu 0.80344 0.22036 0.03127 0.0
C892 C 0.75774 0.21297 0.06075 0.0
C893 C 0.74046 0.16705 0.0663 0.0
C894 C 0.71763 0.16003 0.07608 0.0
C895 C 0.71118 0.19858 0.0806 0.0
C896 C 0.72628 0.24368 0.07492 0.0
C897 C 0.74968 0.25097 0.06514 0.0
C898 C 0.78436 0.13026 0.02167 0.0
C899 C 0.70022 0.19776 1.01891 0.0
O900 O 0.81116 0.1775 0.99552 0.0
O901 O 0.78985 0.23496 0.99204 0.0
O902 O 0.85591 0.30888 1.00795 0.0
O903 O 0.80266 0.27523 1.01973 0.0
O904 O 0.88698 0.23859 1.01221 0.0
O905 O 0.88953 0.26813 0.02872 0.0
O906 O 0.80048 0.26139 0.04516 0.0
O907 O 0.79002 0.18542 0.04661 0.0
O908 O 0.81352 0.15044 0.02971 0.0
O909 O 0.76861 0.15997 1.01907 0.0
O910 O 0.72289 0.20385 0.02801 0.0
O911 O 0.72404 0.20215 1.01002 0.0
H912 H 0.80848 0.26822 0.97307 0.0
H913 H 0.8394 0.2729 0.9553 0.0
H914 H 0.88746 0.16492 0.96317 0.0
H915 H 0.85649 0.15959 0.98091 0.0
H916 H 0.74648 0.13713 0.06328 0.0
H917 H 0.70611 0.12484 0.08026 0.0
H918 H 0.7215 0.2739 0.07822 0.0
H919 H 0.76309 0.28708 0.0612 0.0
C920 C 0.82012 0.60137 0.98929 0.0
Eu921 Eu 0.79791 0.58539 1.00901 0.0
C922 C 0.81154 0.61976 0.97923 0.0
C923 C 0.77043 0.5885 0.97273 0.0
C924 C 0.76704 0.60462 0.96268 0.0
C925 C 0.80325 0.65373 0.95892 0.0
C926 C 0.84653 0.6823 0.96532 0.0
C927 C 0.84981 0.66643 0.97533 0.0
C928 C 0.70374 0.52277 1.01744 0.0
C929 C 0.75962 0.65098 0.02206 0.0
C930 C 0.8034 0.56809 0.05214 0.0
Eu931 Eu 0.80243 0.58175 0.03199 0.0
C932 C 0.8097 0.54386 0.06171 0.0
C933 C 0.85757 0.56666 0.06671 0.0
C934 C 0.86294 0.55133 0.07667 0.0
C935 C 0.82066 0.51277 0.08192 0.0
C936 C 0.77304 0.48848 0.07686 0.0
C937 C 0.76755 0.50401 0.06686 0.0
C938 C 0.89212 0.65492 0.0225 0.0
C939 C 0.82025 0.50027 1.01906 0.0
O940 O 0.84437 0.63539 0.99654 0.0
O941 O 0.78469 0.55762 0.993 0.0
O942 O 0.7126 0.55396 1.00976 0.0
O943 O 0.74559 0.52719 1.02047 0.0
O944 O 0.78255 0.64922 1.01345 0.0
O945 O 0.7582 0.62387 0.03025 0.0
O946 O 0.76136 0.54673 0.04664 0.0
O947 O 0.84367 0.59594 0.04652 0.0
O948 O 0.87127 0.66259 0.03056 0.0
O949 O 0.86292 0.60965 1.01974 0.0
O950 O 0.81091 0.51317 0.02826 0.0
O951 O 0.82112 0.52515 1.01053 0.0
H952 H 0.74185 0.55067 0.97523 0.0
H953 H 0.73695 0.57671 0.95786 0.0
H954 H 0.87991 0.71629 0.96263 0.0
H955 H 0.88384 0.68995 0.97986 0.0
H956 H 0.89072 0.59811 0.06311 0.0
H957 H 0.89993 0.57074 0.08043 0.0
H958 H 0.7399 0.45863 0.08079 0.0
H959 H 0.73003 0.48614 0.06334 0.0
C960 C 0.46689 0.88935 0.88763 0.0
Eu961 Eu 0.46737 0.91235 0.86798 0.0
C962 C 0.43775 0.87439 0.89757 0.0
C963 C 0.42015 0.90455 0.90235 0.0
C964 C 0.39859 0.89241 0.91235 0.0
C965 C 0.39483 0.85033 0.91783 0.0
C966 C 0.41119 0.8196 0.91294 0.0
C967 C 0.43211 0.83135 0.90293 0.0
C968 C 0.43478 0.97675 0.86008 0.0
C969 C 0.36726 0.83584 0.85471 0.0
C970 C 0.46768 0.93565 0.82372 0.0
Eu971 Eu 0.47541 0.91853 0.8433 0.0
C972 C 0.49434 0.95295 0.8136 0.0
C973 C 0.50831 0.92255 0.80778 0.0
C974 C 0.52517 0.93568 0.79751 0.0
C975 C 0.52756 0.97886 0.79283 0.0
C976 C 0.51587 0.01037 0.79878 0.0
C977 C 0.49973 0.99769 0.80908 0.0
C978 C 0.50529 0.85568 0.85225 0.0
C979 C 0.57935 0.98506 0.85645 0.0
O980 O 0.45188 0.85571 0.88015 0.0
O981 O 0.48493 0.93596 0.88418 0.0
O982 O 0.43322 0.96515 0.86983 0.0
O983 O 0.45346 0.95331 0.85547 0.0
O984 O 0.38894 0.84817 0.86399 0.0
O985 O 0.39161 0.85918 0.84603 0.0
O986 O 0.47916 0.96995 0.83101 0.0
O987 O 0.45758 0.89108 0.82736 0.0
O988 O 0.52682 0.88413 0.84413 0.0
O989 O 0.46949 0.86283 0.85521 0.0
O990 O 0.55577 0.97742 0.8474 0.0
O991 O 0.55368 0.9621 0.86504 0.0
H992 H 0.42409 0.93813 0.89847 0.0
H993 H 0.38618 0.91666 0.91594 0.0
H994 H 0.40852 0.78689 0.91696 0.0
H995 H 0.4455 0.80757 0.89948 0.0
H996 H 0.50441 0.8877 0.811 0.0
H997 H 0.53414 0.91089 0.79305 0.0
H998 H 0.51766 0.04392 0.79535 0.0
H999 H 0.48912 0.02172 0.81336 0.0
C1000 C 0.13432 0.58169 0.88759 0.0
Eu1001 Eu 0.10979 0.5597 0.86798 0.0
C1002 C 0.14842 0.56626 0.89752 0.0
C1003 C 0.11382 0.52209 0.90303 0.0
C1004 C 0.12601 0.51239 0.91302 0.0
C1005 C 0.17294 0.54657 0.91769 0.0
C1006 C 0.20796 0.58981 0.91209 0.0
C1007 C 0.1958 0.59954 0.90214 0.0
C1008 C 0.04518 0.46263 0.86011 0.0
C1009 C 0.18576 0.53614 0.85457 0.0
C1010 C 0.08783 0.53832 0.82377 0.0
Eu1011 Eu 0.10283 0.56242 0.84337 0.0
C1012 C 0.06913 0.54402 0.81354 0.0
C1013 C 0.07953 0.59141 0.80944 0.0
C1014 C 0.06449 0.59457 0.79925 0.0
C1015 C 0.04003 0.55062 0.793 0.0
C1016 C 0.02905 0.50349 0.79725 0.0
C1017 C 0.04308 0.50024 0.80741 0.0
C1018 C 0.16517 0.65486 0.85241 0.0
C1019 C 0.0367 0.59889 0.85659 0.0
O1020 O 0.16768 0.59844 0.88003 0.0
O1021 O 0.08719 0.55546 0.88423 0.0
O1022 O 0.05605 0.47281 0.86987 0.0
O1023 O 0.06875 0.50478 0.85547 0.0
O1024 O 0.17304 0.54414 0.8639 0.0
O1025 O 0.16319 0.539 0.84591 0.0
O1026 O 0.05397 0.51289 0.83099 0.0
O1027 O 0.13024 0.57629 0.8274 0.0
O1028 O 0.13623 0.64797 0.84437 0.0
O1029 O 0.15889 0.61202 0.85523 0.0
O1030 O 0.04087 0.57951 0.84768 0.0
O1031 O 0.06232 0.59905 0.86504 0.0
H1032 H 0.0769 0.49569 0.89976 0.0
H1033 H 0.09847 0.47869 0.91719 0.0
H1034 H 0.24433 0.61668 0.91552 0.0
H1035 H 0.22302 0.6341 0.89816 0.0
H1036 H 0.09974 0.62582 0.81403 0.0
H1037 H 0.07291 0.63126 0.79616 0.0
H1038 H 1.00992 0.46907 0.79264 0.0
H1039 H 0.03471 0.46339 0.81042 0.0
C1040 C 0.44993 0.55127 0.88774 0.0
Eu1041 Eu 0.46244 0.55363 0.86749 0.0
C1042 C 0.46331 0.58223 0.8975 0.0
C1043 C 0.49986 0.58279 0.90438 0.0
C1044 C 0.50783 0.60531 0.91423 0.0
C1045 C 0.47973 0.62825 0.91749 0.0
C1046 C 0.44428 0.62928 0.91054 0.0
C1047 C 0.43583 0.60617 0.90071 0.0
C1048 C 0.55837 0.59725 0.85875 0.0
C1049 C 0.47997 0.65165 0.85509 0.0
C1050 C 0.48323 0.55342 0.82454 0.0
Eu1051 Eu 0.46124 0.54549 0.84436 0.0
C1052 C 0.47253 0.52629 0.81442 0.0
C1053 C 0.44019 0.5306 0.8071 0.0
C1054 C 0.43837 0.51483 0.79681 0.0
C1055 C 0.46884 0.49447 0.79364 0.0
C1056 C 0.49868 0.4871 0.80104 0.0
C1057 C 0.5006 0.50292 0.81132 0.0
C1058 C 0.36651 0.51457 0.85255 0.0
C1059 C 0.42231 0.44042 0.85656 0.0
O1060 O 0.41923 0.55468 0.88103 0.0
O1061 O 0.48523 0.54525 0.88321 0.0
O1062 O 0.54591 0.61499 0.86666 0.0
O1063 O 0.51977 0.5553 0.85603 0.0
O1064 O 0.46231 0.62629 0.86385 0.0
O1065 O 0.48908 0.63033 0.84698 0.0
O1066 O 0.508 0.5436 0.83167 0.0
O1067 O 0.44865 0.56229 0.82846 0.0
O1068 O 0.37537 0.49243 0.84486 0.0
O1069 O 0.40839 0.55191 0.85547 0.0
O1070 O 0.43881 0.46396 0.84758 0.0
O1071 O 0.42528 0.46645 0.8651 0.0
H1072 H 0.52141 0.56441 0.90226 0.0
H1073 H 0.53568 0.60436 0.91939 0.0
H1074 H 0.42224 0.64688 0.91284 0.0
H1075 H 0.4069 0.60603 0.89572 0.0
H1076 H 0.41835 0.54871 0.80918 0.0
H1077 H 0.4152 0.52093 0.7912 0.0
H1078 H 0.52258 0.47159 0.79872 0.0
H1079 H 0.52617 0.49927 0.8167 0.0
C1080 C 0.56893 0.79258 0.98906 0.0
Eu1081 Eu 0.58301 0.79238 1.00921 0.0
C1082 C 0.54984 0.76005 0.97952 0.0
C1083 C 0.57801 0.7403 0.97468 0.0
C1084 C 0.56328 0.71639 0.96493 0.0
C1085 C 0.52024 0.71189 0.95972 0.0
C1086 C 0.49112 0.73003 0.96469 0.0
C1087 C 0.50565 0.75364 0.97447 0.0
C1088 C 0.6398 0.75306 1.01759 0.0
C1089 C 0.50798 0.69349 0.0221 0.0
C1090 C 0.61102 0.79445 0.05199 0.0
Eu1091 Eu 0.5941 0.80142 0.03228 0.0
C1092 C 0.62961 0.82226 0.06194 0.0
C1093 C 0.60287 0.84234 0.06721 0.0
C1094 C 0.61634 0.86038 0.0774 0.0
C1095 C 0.65618 0.85795 0.08252 0.0
C1096 C 0.68434 0.84021 0.07709 0.0
C1097 C 0.67133 0.8228 0.06688 0.0
C1098 C 0.52607 0.82807 0.02465 0.0
C1099 C 0.65453 0.90633 1.02002 0.0
O1100 O 0.53554 0.78856 0.99598 0.0
O1101 O 0.61174 0.80081 0.99331 0.0
O1102 O 0.60863 0.73359 1.00986 0.0
O1103 O 0.6425 0.79472 1.02018 0.0
O1104 O 0.5133 0.71787 1.01329 0.0
O1105 O 0.5393 0.71598 0.03001 0.0
O1106 O 0.64445 0.80325 0.0447 0.0
O1107 O 0.56744 0.78662 0.0483 0.0
O1108 O 0.55679 0.85001 0.03234 0.0
O1109 O 0.53154 0.79162 0.02156 0.0
O1110 O 0.6539 0.88254 0.02865 0.0
O1111 O 0.62695 0.88 1.01184 0.0
H1112 H 0.61239 0.74468 0.97826 0.0
H1113 H 0.58648 0.70285 0.96126 0.0
H1114 H 0.45786 0.72718 0.96087 0.0
H1115 H 0.48324 0.76866 0.97791 0.0
H1116 H 0.57042 0.84235 0.06364 0.0
H1117 H 0.59421 0.87406 0.08146 0.0
H1118 H 0.71531 0.83825 0.08089 0.0
H1119 H 0.69247 0.80746 0.06301 0.0
C1120 C 0.23792 0.7899 0.9897 0.0
Eu1121 Eu 0.22638 0.79475 1.00986 0.0
C1122 C 0.27052 0.80063 0.98027 0.0
C1123 C 0.28092 0.84288 0.97399 0.0
C1124 C 0.30295 0.84911 0.96415 0.0
C1125 C 0.31564 0.81353 0.96031 0.0
C1126 C 0.30768 0.77249 0.96675 0.0
C1127 C 0.28474 0.76573 0.97657 0.0
C1128 C 0.2471 0.88678 1.01871 0.0
C1129 C 0.32816 0.81588 0.02255 0.0
C1130 C 0.22898 0.81644 0.05266 0.0
Eu1131 Eu 0.22159 0.79397 0.03295 0.0
C1132 C 0.20198 0.80906 0.06262 0.0
C1133 C 0.1698 0.76065 0.06697 0.0
C1134 C 0.15008 0.75642 0.07702 0.0
C1135 C 0.16328 0.80046 0.0829 0.0
C1136 C 0.19387 0.84849 0.07835 0.0
C1137 C 0.21266 0.85268 0.06831 0.0
C1138 C 0.19045 0.69917 0.02486 0.0
C1139 C 0.11689 0.75548 1.02053 0.0
O1140 O 0.22986 0.75308 0.99612 0.0
O1141 O 0.23869 0.82826 0.99442 0.0
O1142 O 0.21766 0.86563 1.01078 0.0
O1143 O 0.26226 0.85708 0.02174 0.0
O1144 O 0.30567 0.8079 1.01337 0.0
O1145 O 0.30467 0.816 0.03121 0.0
O1146 O 0.22148 0.84238 0.04542 0.0
O1147 O 0.23452 0.7793 0.04898 0.0
O1148 O 0.16935 0.70817 0.03267 0.0
O1149 O 0.22681 0.74097 0.02169 0.0
O1150 O 0.14426 0.78415 0.0284 0.0
O1151 O 0.14014 0.7477 1.01263 0.0
H1152 H 0.27008 0.87027 0.97649 0.0
H1153 H 0.30921 0.88135 0.95941 0.0
H1154 H 0.3176 0.74476 0.96401 0.0
H1155 H 0.27676 0.73241 0.98112 0.0
H1156 H 0.16087 0.72633 0.06273 0.0
H1157 H 0.12608 0.71897 0.08036 0.0
H1158 H 0.20418 0.88295 0.08268 0.0
H1159 H 0.23719 0.89033 0.0651 0.0
C1160 C 0.2304 0.44934 0.9897 0.0
Eu1161 Eu 0.2286 0.43532 1.00993 0.0
C1162 C 0.22263 0.4735 0.98025 0.0
C1163 C 0.17492 0.44949 0.97517 0.0
C1164 C 0.16907 0.46524 0.96527 0.0
C1165 C 0.21067 0.50543 0.96017 0.0
C1166 C 0.25798 0.53091 0.96533 0.0
C1167 C 0.26395 0.51499 0.97525 0.0
C1168 C 0.13789 0.36175 1.01899 0.0
C1169 C 0.20688 0.51555 0.02247 0.0
C1170 C 0.20782 0.41531 0.05263 0.0
Eu1171 Eu 0.2293 0.43145 0.03291 0.0
C1172 C 0.21976 0.39841 0.06253 0.0
C1173 C 0.24885 0.43461 0.07015 0.0
C1174 C 0.2509 0.41921 0.0803 0.0
C1175 C 0.22394 0.3674 0.08298 0.0
C1176 C 0.19787 0.3309 0.07524 0.0
C1177 C 0.19566 0.34625 0.0651 0.0
C1178 C 0.32424 0.49498 0.02483 0.0
C1179 C 0.26892 0.36647 0.02062 0.0
O1180 O 0.27077 0.47376 0.9956 0.0
O1181 O 0.19029 0.41745 0.99496 0.0
O1182 O 0.16025 0.3541 1.01119 0.0
O1183 O 0.16607 0.40712 0.0218 0.0
O1184 O 0.21823 0.50315 1.01341 0.0
O1185 O 0.20405 0.49006 0.03105 0.0
O1186 O 0.18385 0.381 0.04542 0.0
O1187 O 0.24131 0.45976 0.04884 0.0
O1188 O 0.31503 0.46464 0.03263 0.0
O1189 O 0.2826 0.49007 0.02165 0.0
O1190 O 0.2392 0.36424 0.02834 0.0
O1191 O 0.2768 0.39757 1.01272 0.0
H1192 H 0.14237 0.41688 0.97865 0.0
H1193 H 0.13231 0.44496 0.96144 0.0
H1194 H 0.29063 0.56202 0.96152 0.0
H1195 H 0.30136 0.53388 0.97883 0.0
H1196 H 0.26761 0.47502 0.06843 0.0
H1197 H 0.27114 0.44783 0.0862 0.0
H1198 H 0.17673 0.29074 0.07721 0.0
H1199 H 0.17269 0.31733 0.05945 0.0
C1200 C 0.222 0.40662 0.55078 0.0
Eu1201 Eu 0.21905 0.43528 0.53185 0.0
C1202 C 0.19543 0.39113 0.5609 0.0
C1203 C 0.1818 0.42247 0.56646 0.0
C1204 C 0.16443 0.41033 0.57672 0.0
C1205 C 0.16122 0.36722 0.58162 0.0
C1206 C 0.17245 0.33474 0.57589 0.0
C1207 C 0.18902 0.34643 0.56561 0.0
C1208 C 0.19299 0.50252 0.5241 0.0
C1209 C 0.11252 0.36881 0.51868 0.0
C1210 C 0.22757 0.45879 0.48699 0.0
Eu1211 Eu 0.22365 0.43427 0.5066 0.0
C1212 C 0.25788 0.47051 0.47719 0.0
C1213 C 0.24066 0.43451 0.4691 0.0
C1214 C 0.26415 0.44711 0.45932 0.0
C1215 C 0.30559 0.49602 0.45736 0.0
C1216 C 0.32419 0.53163 0.46551 0.0
C1217 C 0.30037 0.51919 0.47529 0.0
C1218 C 0.25649 0.372 0.51537 0.0
C1219 C 0.32584 0.51426 0.51968 0.0
O1220 O 0.20255 0.37458 0.54301 0.0
O1221 O 0.24245 0.45453 0.54795 0.0
O1222 O 0.19304 0.49273 0.53396 0.0
O1223 O 0.20444 0.47381 0.5189 0.0
O1224 O 0.13568 0.38174 0.52787 0.0
O1225 O 0.13775 0.38448 0.50971 0.0
O1226 O 0.24546 0.49223 0.49454 0.0
O1227 O 0.20365 0.41152 0.49038 0.0
O1228 O 0.25231 0.37684 0.50545 0.0
O1229 O 0.24112 0.39918 0.51974 0.0
O1230 O 0.30526 0.49232 0.5107 0.0
O1231 O 0.30011 0.4989 0.52855 0.0
H1232 H 0.18626 0.45718 0.56303 0.0
H1233 H 0.15573 0.43579 0.581 0.0
H1234 H 0.16994 0.3012 0.57949 0.0
H1235 H 0.19915 0.32165 0.56147 0.0
H1236 H 0.20791 0.39688 0.47023 0.0
H1237 H 0.24946 0.41883 0.4532 0.0
H1238 H 0.35634 0.56948 0.46422 0.0
H1239 H 0.3145 0.54817 0.48127 0.0
C1240 C 0.61043 0.81231 0.55102 0.0
Eu1241 Eu 0.58713 0.79133 0.53147 0.0
C1242 C 0.62826 0.80222 0.56097 0.0
C1243 C 0.59589 0.76075 0.56729 0.0
C1244 C 0.61034 0.75653 0.57742 0.0
C1245 C 0.65902 0.79207 0.58146 0.0
C1246 C 0.68901 0.83558 0.5752 0.0
C1247 C 0.67463 0.83979 0.5651 0.0
C1248 C 0.5137 0.70379 0.52308 0.0
C1249 C 0.65541 0.75049 0.5189 0.0
C1250 C 0.56101 0.76987 0.48762 0.0
Eu1251 Eu 0.5876 0.79272 0.50706 0.0
C1252 C 0.55086 0.78526 0.47738 0.0
C1253 C 0.56155 0.83514 0.47516 0.0
C1254 C 0.54954 0.84695 0.46534 0.0
C1255 C 0.52709 0.80914 0.45761 0.0
C1256 C 0.51599 0.75936 0.45995 0.0
C1257 C 0.5275 0.74757 0.46973 0.0
C1258 C 0.64609 0.89122 0.51489 0.0
C1259 C 0.50651 0.81228 0.51957 0.0
O1260 O 0.64337 0.83498 0.54349 0.0
O1261 O 0.56495 0.77889 0.54769 0.0
O1262 O 0.50953 0.72332 0.53172 0.0
O1263 O 0.55832 0.73041 0.51928 0.0
O1264 O 0.63987 0.75923 0.52795 0.0
O1265 O 0.64067 0.76036 0.50987 0.0
O1266 O 0.52894 0.76294 0.49508 0.0
O1267 O 0.6083 0.78967 0.49088 0.0
O1268 O 0.64029 0.87978 0.5051 0.0
O1269 O 0.62102 0.84965 0.5196 0.0
O1270 O 0.51593 0.79356 0.51119 0.0
O1271 O 0.53475 0.82311 0.52805 0.0
H1272 H 0.55819 0.73266 0.56461 0.0
H1273 H 0.58134 0.72645 0.58206 0.0
H1274 H 0.72298 0.86838 0.5781 0.0
H1275 H 0.69888 0.87404 0.56069 0.0
H1276 H 0.57898 0.86472 0.48099 0.0
H1277 H 0.55829 0.8856 0.46372 0.0
H1278 H 0.49835 0.72954 0.45417 0.0
H1279 H 0.51809 0.70869 0.47134 0.0
C1280 C 0.2163 0.80232 0.55045 0.0
Eu1281 Eu 0.23268 0.79995 0.53064 0.0
C1282 C 0.22555 0.83143 0.56021 0.0
C1283 C 0.2652 0.83833 0.56697 0.0
C1284 C 0.2663 0.8539 0.57723 0.0
C1285 C 0.22781 0.86274 0.58088 0.0
C1286 C 0.19022 0.85927 0.574 0.0
C1287 C 0.18907 0.84372 0.56375 0.0
C1288 C 0.31765 0.81116 0.52183 0.0
C1289 C 0.27261 0.91165 0.51913 0.0
C1290 C 0.23948 0.79647 0.48768 0.0
Eu1291 Eu 0.22748 0.80342 0.50769 0.0
C1292 C 0.2264 0.76431 0.47816 0.0
C1293 C 0.17913 0.74573 0.47308 0.0
C1294 C 0.17098 0.72305 0.46322 0.0
C1295 C 0.20993 0.71874 0.45821 0.0
C1296 C 0.25651 0.73577 0.46342 0.0
C1297 C 0.26455 0.75811 0.47328 0.0
C1298 C 0.13635 0.77743 0.51751 0.0
C1299 C 0.19963 0.69463 0.51865 0.0
O1300 O 0.18788 0.80615 0.54322 0.0
O1301 O 0.25289 0.79598 0.54671 0.0
O1302 O 0.29762 0.78535 0.53024 0.0
O1303 O 0.2941 0.83366 0.51863 0.0
O1304 O 0.2603 0.88492 0.5279 0.0
O1305 O 0.2655 0.88882 0.51006 0.0
O1306 O 0.26758 0.7916 0.49481 0.0
O1307 O 0.20598 0.80707 0.4916 0.0
O1308 O 0.15378 0.80627 0.50933 0.0
O1309 O 0.16754 0.76287 0.51982 0.0
O1310 O 0.20979 0.72208 0.51012 0.0
O1311 O 0.2018 0.71549 0.5278 0.0
H1312 H 0.29358 0.82869 0.56454 0.0
H1313 H 0.29539 0.85616 0.58247 0.0
H1314 H 0.1601 0.86574 0.57673 0.0
H1315 H 0.15774 0.83824 0.5588 0.0
H1316 H 0.14904 0.75023 0.47653 0.0
H1317 H 0.13478 0.71032 0.45935 0.0
H1318 H 0.28716 0.73304 0.45971 0.0
H1319 H 0.30155 0.7725 0.47692 0.0
C1320 C 0.08935 0.552 0.32286 0.0
Eu1321 Eu 0.10546 0.54697 0.34267 0.0
C1322 C 0.07223 0.52429 0.31283 0.0
C1323 C 0.10831 0.52807 0.30547 0.0
C1324 C 0.0936 0.51201 0.29521 0.0
C1325 C 0.04261 0.49192 0.29213 0.0
C1326 C 1.00596 0.48505 0.29959 0.0
C1327 C 0.02061 0.50116 0.30983 0.0
C1328 C 0.16805 0.51623 0.35136 0.0
C1329 C 0.03975 0.44283 0.35574 0.0
C1330 C 0.11973 0.56615 0.38599 0.0
Eu1331 Eu 0.10727 0.55402 0.36578 0.0
C1332 C 0.14034 0.59577 0.39576 0.0
C1333 C 0.10628 0.60093 0.40238 0.0
C1334 C 0.12132 0.62195 0.41229 0.0
C1335 C 0.17117 0.63921 0.41584 0.0
C1336 C 0.20603 0.63554 0.40916 0.0
C1337 C 0.19058 0.61339 0.39925 0.0
C1338 C 0.03469 0.57056 0.35603 0.0
C1339 C 0.19001 0.65408 0.35307 0.0
O1340 O 0.0551 0.54198 0.33007 0.0
O1341 O 0.13354 0.56214 0.32668 0.0
O1342 O 0.13734 0.49347 0.34363 0.0
O1343 O 0.16241 0.55278 0.35436 0.0
O1344 O 0.04152 0.46788 0.34716 0.0
O1345 O 0.06707 0.46793 0.36393 0.0
O1346 O 0.14694 0.55344 0.38017 0.0
O1347 O 0.08686 0.57276 0.38067 0.0
O1348 O 0.02648 0.5417 0.36408 0.0
O1349 O 0.08023 0.58697 0.35337 0.0
O1350 O 0.17333 0.63301 0.3623 0.0
O1351 O 0.16882 0.62939 0.34433 0.0
H1352 H 0.14839 0.54602 0.30747 0.0
H1353 H 0.12242 0.51769 0.28955 0.0
H1354 H 0.96645 0.46977 0.29734 0.0
H1355 H 0.99184 0.49802 0.31525 0.0
H1356 H 0.06716 0.58714 0.4 0.0
H1357 H 0.09383 0.62456 0.41725 0.0
H1358 H 0.24475 0.64867 0.41173 0.0
H1359 H 0.21756 0.6093 0.39442 0.0
C1360 C 0.47837 0.54143 0.32257 0.0
Eu1361 Eu 0.47435 0.56045 0.34219 0.0
C1362 C 0.50602 0.55168 0.31257 0.0
C1363 C 0.50694 0.58789 0.30555 0.0
C1364 C 0.52158 0.58883 0.29521 0.0
C1365 C 0.53554 0.55366 0.29172 0.0
C1366 C 0.53779 0.5197 0.29884 0.0
C1367 C 0.52305 0.51863 0.30917 0.0
C1368 C 0.48511 0.6475 0.35015 0.0
C1369 C 0.58284 0.5992 0.35472 0.0
C1370 C 0.46157 0.55625 0.38544 0.0
Eu1371 Eu 0.47231 0.55651 0.36513 0.0
C1372 C 0.43155 0.55162 0.39498 0.0
C1373 C 0.38904 0.50475 0.39794 0.0
C1374 C 0.36776 0.49822 0.4079 0.0
C1375 C 0.38875 0.53814 0.41518 0.0
C1376 C 0.42974 0.58551 0.4121 0.0
C1377 C 0.45077 0.59218 0.40212 0.0
C1378 C 0.4495 0.46587 0.35538 0.0
C1379 C 0.37086 0.53752 0.35294 0.0
O1380 O 0.48882 0.51883 0.33009 0.0
O1381 O 0.46519 0.57395 0.32592 0.0
O1382 O 0.46405 0.62802 0.34134 0.0
O1383 O 0.50549 0.62327 0.35411 0.0
O1384 O 0.55802 0.58567 0.34575 0.0
O1385 O 0.5584 0.59442 0.36352 0.0
O1386 O 0.48157 0.59777 0.37985 0.0
O1387 O 0.44851 0.51574 0.37987 0.0
O1388 O 0.48057 0.48589 0.36314 0.0
O1389 O 0.43374 0.49593 0.35298 0.0
O1390 O 0.39889 0.55684 0.36137 0.0
O1391 O 0.38937 0.52518 0.34488 0.0
H1392 H 0.49355 0.61354 0.30786 0.0
H1393 H 0.51945 0.61517 0.2898 0.0
H1394 H 0.54825 0.49212 0.29626 0.0
H1395 H 0.5221 0.48983 0.31432 0.0
H1396 H 0.37347 0.47244 0.39271 0.0
H1397 H 0.33613 0.46135 0.41009 0.0
H1398 H 0.44648 0.61692 0.41754 0.0
H1399 H 0.48375 0.62851 0.40015 0.0
C1400 C 0.48784 0.93568 0.32225 0.0
Eu1401 Eu 0.46257 0.92015 0.34181 0.0
C1402 C 0.47968 0.95386 0.31212 0.0
C1403 C 0.43723 0.92366 0.30583 0.0
C1404 C 0.4338 0.93959 0.29576 0.0
C1405 C 0.47139 0.98763 0.29179 0.0
C1406 C 0.51576 0.01489 0.29798 0.0
C1407 C 0.5191 0.99919 0.308 0.0
C1408 C 0.37108 0.85484 0.35071 0.0
C1409 C 0.42006 0.98298 0.35477 0.0
C1410 C 0.44278 0.88968 0.38608 0.0
Eu1411 Eu 0.46473 0.91571 0.36656 0.0
C1412 C 0.46145 0.8785 0.39594 0.0
C1413 C 0.48467 0.91633 0.40362 0.0
C1414 C 0.49574 0.90444 0.41347 0.0
C1415 C 0.48395 0.85448 0.41589 0.0
C1416 C 0.46235 0.81689 0.40815 0.0
C1417 C 0.45086 0.82865 0.39831 0.0
C1418 C 0.56129 0.98206 0.35879 0.0
C1419 C 0.48983 0.83941 0.3535 0.0
O1420 O 0.51143 0.9699 0.32951 0.0
O1421 O 0.4519 0.89198 0.3259 0.0
O1422 O 0.37665 0.87925 0.34203 0.0
O1423 O 0.41466 0.86494 0.35391 0.0
O1424 O 0.43944 0.97888 0.34583 0.0
O1425 O 0.42102 0.95855 0.36332 0.0
O1426 O 0.42928 0.85682 0.37847 0.0
O1427 O 0.46475 0.93699 0.38278 0.0
O1428 O 0.55059 0.97245 0.36858 0.0
O1429 O 0.51965 0.95669 0.35402 0.0
O1430 O 0.48501 0.85556 0.36274 0.0
O1431 O 0.48526 0.8595 0.34464 0.0
H1432 H 0.40746 0.88673 0.30851 0.0
H1433 H 0.40244 0.91226 0.29111 0.0
H1434 H 0.54978 0.04769 0.2951 0.0
H1435 H 0.55391 0.02173 0.31238 0.0
H1436 H 0.49301 0.95495 0.40213 0.0
H1437 H 0.51287 0.93415 0.41928 0.0
H1438 H 0.45322 0.77815 0.40982 0.0
H1439 H 0.43248 0.79834 0.39266 0.0
C1440 C 0.13464 0.09856 0.17906 0.0
C1441 C 0.16459 0.13526 0.18665 0.0
C1442 C 0.18548 0.07382 0.19447 0.0
C1443 C 0.15968 0.03898 0.18617 0.0
N1444 N 0.122 0.02672 0.16894 0.0
N1445 N 0.22141 0.16009 0.20125 0.0
C1446 C 0.13792 0.05373 0.17799 0.0
C1447 C 0.19062 0.12341 0.19431 0.0
N1448 N 0.10178 0.10578 0.17294 0.0
N1449 N 0.20602 0.05999 0.20243 0.0
H1450 H 0.22403 0.19575 0.20158 0.0
H1451 H 0.24633 0.15647 0.2063 0.0
H1452 H 0.20922 0.02738 0.20223 0.0
H1453 H 0.21876 0.08008 0.20936 0.0
H1454 H 0.07412 0.07718 0.16828 0.0
H1455 H 0.09832 0.13822 0.17331 0.0
H1456 H 0.11122 0.03966 0.16244 0.0
H1457 H 0.12467 0.99467 0.16731 0.0
C1458 C 0.97996 0.08189 0.19269 0.0
C1459 C 0.9863 0.12759 0.18816 0.0
C1460 C 0.8954 0.08313 0.18335 0.0
C1461 C 0.88952 0.0371 0.18754 0.0
N1462 N 0.92271 0.99636 0.19861 0.0
N1463 N 0.95162 0.17175 0.17862 0.0
C1464 C 0.93068 0.0378 0.19301 0.0
C1465 C 0.94433 0.12825 0.18337 0.0
N1466 N 0.02176 0.07921 0.19591 0.0
N1467 N 0.85311 0.08387 0.17981 0.0
H1468 H 0.98555 0.2062 0.17926 0.0
H1469 H 0.92517 0.1736 0.17374 0.0
H1470 H 0.81659 0.05198 0.18023 0.0
H1471 H 0.85294 0.11653 0.17736 0.0
H1472 H 0.02059 0.04552 0.19809 0.0
H1473 H 0.05901 0.10956 0.19544 0.0
H1474 H 0.94895 0.99584 0.20377 0.0
H1475 H 0.88745 0.96392 0.19883 0.0
C1476 C 0.94909 0.82254 0.19264 0.0
C1477 C 0.99017 0.85703 0.18627 0.0
C1478 C 0.94386 0.90202 0.18202 0.0
C1479 C 0.90059 0.86432 0.18746 0.0
N1480 N 0.85898 0.78469 0.19678 0.0
N1481 N 0.02264 0.92383 0.17334 0.0
C1482 C 0.90241 0.82355 0.19252 0.0
C1483 C 0.98647 0.89524 0.18055 0.0
N1484 N 0.95491 0.78929 0.19889 0.0
N1485 N 0.94523 0.94541 0.17853 0.0
H1486 H 0.0545 0.92021 0.17194 0.0
H1487 H 0.01852 0.94761 0.16804 0.0
H1488 H 0.91469 0.95191 0.17922 0.0
H1489 H 0.97835 0.97708 0.17581 0.0
H1490 H 0.92841 0.76671 0.20449 0.0
H1491 H 0.98828 0.78717 0.19901 0.0
H1492 H 0.8564 0.75133 0.19966 0.0
H1493 H 0.82405 0.78378 0.19665 0.0
C1494 C 0.13449 0.19638 0.34947 0.0
C1495 C 0.14419 0.16687 0.35673 0.0
C1496 C 0.05491 0.12479 0.36226 0.0
C1497 C 0.04596 0.1575 0.35576 0.0
N1498 N 0.08033 0.23134 0.34463 0.0
N1499 N 0.11625 0.11391 0.3721 0.0
C1500 C 0.08666 0.19527 0.34974 0.0
C1501 C 0.10525 0.13446 0.36374 0.0
N1502 N 0.17073 0.2252 0.34229 0.0
N1503 N 0.01525 0.08246 0.3666 0.0
H1504 H 0.15246 0.11967 0.37362 0.0
H1505 H 0.09027 0.09496 0.37807 0.0
H1506 H 0.97764 0.07271 0.36546 0.0
H1507 H 0.01949 0.05413 0.37031 0.0
H1508 H 0.1641 0.24351 0.33614 0.0
H1509 H 0.20643 0.22782 0.3421 0.0
H1510 H 0.10997 0.26279 0.34094 0.0
H1511 H 0.04647 0.23251 0.34493 0.0
C1512 C 0.82627 0.89372 0.35536 0.0
C1513 C 0.87282 0.89454 0.35338 0.0
C1514 C 0.91414 0.98549 0.34946 0.0
C1515 C 0.87035 0.98683 0.35284 0.0
N1516 N 0.78429 0.94251 0.35927 0.0
N1517 N 0.96337 0.94293 0.35003 0.0
C1518 C 0.82595 0.94079 0.35576 0.0
C1519 C 0.91734 0.94088 0.35082 0.0
N1520 N 0.78254 0.84804 0.35674 0.0
N1521 N 0.95234 0.02674 0.34458 0.0
H1522 H 0.96738 0.91088 0.3506 0.0
H1523 H 0.9981 0.97695 0.34967 0.0
H1524 H 0.94813 0.05755 0.34269 0.0
H1525 H 0.98388 0.02741 0.34119 0.0
H1526 H 0.74644 0.84418 0.35723 0.0
H1527 H 0.78202 0.81332 0.35671 0.0
H1528 H 0.75277 0.91165 0.36267 0.0
H1529 H 0.78222 0.97588 0.35909 0.0
C1530 C 0.07659 0.89223 0.34803 0.0
C1531 C 0.03938 0.87978 0.35585 0.0
C1532 C 0.09106 0.96504 0.36357 0.0
C1533 C 0.12986 0.97713 0.35599 0.0
N1534 N 0.1632 0.94902 0.34211 0.0
N1535 N 1.01059 0.90328 0.37121 0.0
C1536 C 0.12338 0.93985 0.34847 0.0
C1537 C 0.04666 0.9159 0.36366 0.0
N1538 N 0.06693 0.85845 0.34014 0.0
N1539 N 0.0948 1.0013 0.37037 0.0
H1540 H 0.97396 0.87215 0.37063 0.0
H1541 H 0.01709 0.92276 0.37821 0.0
H1542 H 0.1275 0.03612 0.3714 0.0
H1543 H 0.06453 0.99814 0.37476 0.0
H1544 H 0.08977 0.8665 0.33359 0.0
H1545 H 0.0337 0.82295 0.33979 0.0
H1546 H 0.16286 0.92283 0.33686 0.0
H1547 H 0.19898 0.98147 0.34276 0.0
C1548 C 0.8769 0.90666 0.84597 0.0
C1549 C 0.85149 0.87621 0.85467 0.0
C1550 C 0.82685 0.93978 0.85935 0.0
C1551 C 0.86557 0.97614 0.85272 0.0
N1552 N 0.93169 0.99277 0.8401 0.0
N1553 N 0.79467 0.86137 0.86911 0.0
C1554 C 0.89152 0.95917 0.84602 0.0
C1555 C 0.82419 0.8921 0.86122 0.0
N1556 N 0.88501 0.88507 0.83751 0.0
N1557 N 0.79042 0.94913 0.86331 0.0
H1558 H 0.78518 0.82336 0.86984 0.0
H1559 H 0.78026 0.87408 0.87501 0.0
H1560 H 0.78753 0.98086 0.86121 0.0
H1561 H 0.75902 0.92229 0.86751 0.0
H1562 H 0.9014 0.90511 0.83067 0.0
H1563 H 0.86687 0.84555 0.8369 0.0
H1564 H 0.95193 0.98172 0.83525 0.0
H1565 H 0.94867 0.03193 0.84097 0.0
C1566 C 0.13466 0.93384 0.85848 0.0
C1567 C 0.14274 0.97965 0.85364 0.0
C1568 C 0.05182 0.93767 0.84932 0.0
C1569 C 0.04363 0.89139 0.85378 0.0
N1570 N 0.08025 0.84209 0.86024 0.0
N1571 N 0.11104 0.01733 0.84146 0.0
C1572 C 0.08596 0.88844 0.85771 0.0
C1573 C 0.10215 0.9788 0.84803 0.0
N1574 N 0.17365 0.93384 0.86384 0.0
N1575 N 1.01147 0.94441 0.84706 0.0
H1576 H 0.14652 0.04964 0.84089 0.0
H1577 H 0.0844 0.01367 0.83588 0.0
H1578 H 0.97382 0.91698 0.84864 0.0
H1579 H 0.01618 0.97969 0.8449 0.0
H1580 H 0.16871 0.90413 0.86869 0.0
H1581 H 0.21087 0.96468 0.86366 0.0
H1582 H 0.11036 0.83661 0.86238 0.0
H1583 H 0.04601 0.80831 0.85911 0.0
C1584 C 0.08127 0.18988 0.85966 0.0
C1585 C 0.04075 0.16188 0.85261 0.0
C1586 C 0.09351 0.13586 0.84297 0.0
C1587 C 0.1334 0.16066 0.85053 0.0
N1588 N 0.17165 0.22782 0.86319 0.0
N1589 N 1.01398 0.12324 0.8359 0.0
C1590 C 0.12911 0.19261 0.85806 0.0
C1591 C 0.04897 0.14001 0.84373 0.0
N1592 N 0.07388 0.21386 0.86788 0.0
N1593 N 0.09574 0.10592 0.83532 0.0
H1594 H 0.97945 0.12228 0.83666 0.0
H1595 H 0.02045 0.11357 0.82853 0.0
H1596 H 0.12856 0.10705 0.83271 0.0
H1597 H 0.06348 0.07872 0.83138 0.0
H1598 H 0.09939 0.22945 0.87405 0.0
H1599 H 0.04105 0.2167 0.86867 0.0
H1600 H 0.17231 0.25488 0.86825 0.0
H1601 H 0.20772 0.23418 0.86127 0.0
C1602 C 0.90042 0.82866 0.67804 0.0
C1603 C 0.88753 0.85499 0.68546 0.0
C1604 C 0.97372 0.89459 0.69243 0.0
C1605 C 0.98602 0.86508 0.68567 0.0
N1606 N 0.95353 0.79204 0.67427 0.0
N1607 N 0.9054 0.89325 0.70225 0.0
C1608 C 0.94718 0.82849 0.6791 0.0
C1609 C 0.92213 0.88148 0.69351 0.0
N1610 N 0.86837 0.80406 0.66993 0.0
N1611 N 1.01083 0.93712 0.69729 0.0
H1612 H 0.86634 0.87623 0.7035 0.0
H1613 H 0.92881 0.91118 0.70864 0.0
H1614 H 0.04955 0.95289 0.69568 0.0
H1615 H 1.00255 0.96067 0.70179 0.0
H1616 H 0.87883 0.78972 0.66364 0.0
H1617 H 0.83234 0.80035 0.66924 0.0
H1618 H 0.92469 0.76214 0.67006 0.0
H1619 H 0.98513 0.78789 0.67557 0.0
C1620 C 0.18337 0.11756 0.67692 0.0
C1621 C 0.17494 0.13571 0.68651 0.0
C1622 C 0.16644 0.05975 0.69536 0.0
C1623 C 0.16784 0.03875 0.68567 0.0
N1624 N 0.20145 0.0571 0.66833 0.0
N1625 N 0.18995 0.13665 0.70499 0.0
C1626 C 0.18321 0.07043 0.67673 0.0
C1627 C 0.17567 0.11055 0.69582 0.0
N1628 N 0.19333 0.1456 0.66804 0.0
N1629 N 0.15708 0.03157 0.70415 0.0
H1630 H 0.20631 0.17617 0.70531 0.0
H1631 H 0.19345 0.1209 0.71193 0.0
H1632 H 0.15987 0.99882 0.7042 0.0
H1633 H 0.14714 0.04109 0.7112 0.0
H1634 H 0.18896 0.13004 0.66064 0.0
H1635 H 0.20868 0.18495 0.66808 0.0
H1636 H 0.21727 0.08014 0.66182 0.0
H1637 H 0.20665 0.02557 0.66844 0.0
C1638 C 0.94192 0.04645 0.67828 0.0
C1639 C 0.9011 0.0366 0.68509 0.0
C1640 C 0.9518 0.12288 0.69241 0.0
C1641 C 0.99051 0.13395 0.68499 0.0
N1642 N 0.0224 0.10743 0.67052 0.0
N1643 N 0.86407 0.06665 0.69781 0.0
C1644 C 0.98557 0.09597 0.67786 0.0
C1645 C 0.90531 0.07513 0.69198 0.0
N1646 N 0.94012 1.00782 0.67252 0.0
N1647 N 0.96001 0.15768 0.69998 0.0
H1648 H 0.82932 0.0325 0.69757 0.0
H1649 H 0.86263 0.0946 0.70224 0.0
H1650 H 0.99347 0.19297 0.70041 0.0
H1651 H 0.9358 0.15022 0.70629 0.0
H1652 H 0.97146 0.00995 0.66872 0.0
H1653 H 0.90774 0.97223 0.67199 0.0
H1654 H 0.01754 0.08458 0.6641 0.0
H1655 H 0.05744 0.14109 0.67051 0.0
C1656 C 0.86906 0.41312 0.51616 0.0
C1657 C 0.82479 0.37224 0.52065 0.0
C1658 C 0.79553 0.43165 0.52571 0.0
C1659 C 0.83653 0.47164 0.52011 0.0
N1660 N 0.91414 0.50092 0.51045 0.0
N1661 N 0.74824 0.34302 0.53073 0.0
C1662 C 0.87382 0.46228 0.5155 0.0
C1663 C 0.78894 0.38182 0.52576 0.0
N1664 N 0.90832 0.40582 0.51322 0.0
N1665 N 0.76046 0.44041 0.53035 0.0
H1666 H 0.73553 0.30493 0.52912 0.0
H1667 H 0.72809 0.34858 0.53662 0.0
H1668 H 0.76857 0.47701 0.53169 0.0
H1669 H 0.72467 0.41256 0.53294 0.0
H1670 H 0.94363 0.43464 0.51064 0.0
H1671 H 0.90753 0.37145 0.51437 0.0
H1672 H 0.93791 0.49583 0.50536 0.0
H1673 H 0.92327 0.53852 0.5114 0.0
C1674 C 0.59441 0.37395 0.51309 0.0
C1675 C 0.55512 0.36834 0.51996 0.0
C1676 C 0.61101 0.45494 0.52649 0.0
C1677 C 0.65122 0.45954 0.52009 0.0
N1678 N 0.68487 0.41777 0.50934 0.0
N1679 N 0.53205 0.3972 0.53529 0.0
C1680 C 0.64399 0.41752 0.51393 0.0
C1681 C 0.5652 0.407 0.52729 0.0
N1682 N 0.58448 0.33784 0.5057 0.0
N1683 N 0.61587 0.49673 0.53156 0.0
H1684 H 0.50042 0.36112 0.53647 0.0
H1685 H 0.53925 0.42258 0.54136 0.0
H1686 H 0.64818 0.53281 0.5309 0.0
H1687 H 0.58596 0.49667 0.53556 0.0
H1688 H 0.60951 0.34307 0.49966 0.0
H1689 H 0.54992 0.30384 0.50517 0.0
H1690 H 0.68279 0.38581 0.50584 0.0
H1691 H 0.72209 0.44815 0.50991 0.0
C1692 C 0.56068 0.15259 0.51471 0.0
C1693 C 0.56267 0.19277 0.52076 0.0
C1694 C 0.64366 0.20754 0.52808 0.0
C1695 C 0.64818 0.17794 0.5202 0.0
N1696 N 0.60638 0.1137 0.50709 0.0
N1697 N 0.61177 0.26415 0.53226 0.0
C1698 C 0.60511 0.14781 0.51382 0.0
C1699 C 0.60577 0.22185 0.52722 0.0
N1700 N 0.5157 0.11732 0.51033 0.0
N1701 N 0.67264 0.21823 0.53675 0.0
H1702 H 0.58794 0.27935 0.53102 0.0
H1703 H 0.64346 0.28692 0.53684 0.0
H1704 H 0.69324 0.19961 0.538 0.0
H1705 H 0.6692 0.23762 0.5431 0.0
H1706 H 0.5102 0.08453 0.5066 0.0
H1707 H 0.48226 0.11824 0.51146 0.0
H1708 H 0.57964 0.09556 0.50122 0.0
H1709 H 0.63503 0.10408 0.50738 0.0
C1710 C 0.7981 0.52941 0.6831 0.0
C1711 C 0.80748 0.49533 0.68898 0.0
C1712 C 0.71661 0.44664 0.69348 0.0
C1713 C 0.70881 0.48462 0.68876 0.0
N1714 N 0.74448 0.56697 0.6806 0.0
N1715 N 0.77652 0.42653 0.70151 0.0
C1716 C 0.7503 0.52745 0.68399 0.0
C1717 C 0.76696 0.45532 0.69467 0.0
N1718 N 0.83418 0.56237 0.67635 0.0
N1719 N 0.67591 0.40126 0.69647 0.0
H1720 H 0.81293 0.43253 0.70292 0.0
H1721 H 0.74916 0.40027 0.70658 0.0
H1722 H 0.63856 0.39309 0.69551 0.0
H1723 H 0.67905 0.36996 0.69881 0.0
H1724 H 0.82833 0.58565 0.67123 0.0
H1725 H 0.86763 0.56154 0.67507 0.0
H1726 H 0.77458 0.60136 0.67792 0.0
H1727 H 0.71036 0.56714 0.68146 0.0
C1728 C 0.56916 0.2717 0.68049 0.0
C1729 C 0.53711 0.22925 0.68689 0.0
C1730 C 0.49514 0.2752 0.69348 0.0
C1731 C 0.52837 0.31814 0.68736 0.0
N1732 N 0.59245 0.3561 0.67422 0.0
N1733 N 0.46101 0.18536 0.69732 0.0
C1734 C 0.56298 0.31523 0.68039 0.0
C1735 C 0.49755 0.22946 0.69278 0.0
N1736 N 0.60665 0.27097 0.67473 0.0
N1737 N 0.46254 0.27905 0.70025 0.0
H1738 H 0.46034 0.15073 0.69662 0.0
H1739 H 0.42866 0.18169 0.70095 0.0
H1740 H 0.45722 0.31057 0.70034 0.0
H1741 H 0.44239 0.25227 0.70601 0.0
H1742 H 0.62766 0.29693 0.66895 0.0
H1743 H 0.61786 0.24413 0.67587 0.0
H1744 H 0.6222 0.36056 0.66951 0.0
H1745 H 0.58543 0.38605 0.67367 0.0
C1746 C 0.7563 0.29918 0.68214 0.0
C1747 C 0.7995 0.31263 0.68849 0.0
C1748 C 0.7582 0.22475 0.69512 0.0
C1749 C 0.71518 0.2119 0.68868 0.0
N1750 N 0.69024 0.23039 0.67237 0.0
N1751 N 0.84746 0.28454 0.69884 0.0
C1752 C 0.71907 0.24717 0.68107 0.0
C1753 C 0.80229 0.27434 0.69438 0.0
N1754 N 0.74948 0.33579 0.67741 0.0
N1755 N 0.75705 0.18915 0.70181 0.0
H1756 H 0.88083 0.31971 0.69813 0.0
H1757 H 0.85322 0.25694 0.70241 0.0
H1758 H 0.72837 0.15094 0.70153 0.0
H1759 H 0.78381 0.1976 0.70768 0.0
H1760 H 0.71654 0.32708 0.67325 0.0
H1761 H 0.77387 0.37474 0.67855 0.0
H1762 H 0.69415 0.25416 0.66613 0.0
H1763 H 0.66884 0.19162 0.671 0.0
C1764 C 0.50154 0.22687 0.19399 0.0
C1765 C 0.52591 0.21391 0.18612 0.0
C1766 C 0.55707 0.29718 0.17816 0.0
C1767 C 0.53044 0.31001 0.18563 0.0
N1768 N 0.46333 0.2781 0.19851 0.0
N1769 N 0.55312 0.22731 0.16846 0.0
C1770 C 0.49831 0.27215 0.19293 0.0
C1771 C 0.54577 0.24602 0.17744 0.0
N1772 N 0.48174 0.19621 0.2025 0.0
N1773 N 0.59577 0.33351 0.17228 0.0
H1774 H 0.53707 0.18809 0.16765 0.0
H1775 H 0.56623 0.24877 0.16166 0.0
H1776 H 0.61151 0.37252 0.17344 0.0
H1777 H 0.61713 0.32479 0.16721 0.0
H1778 H 0.46877 0.20667 0.20901 0.0
H1779 H 0.4805 0.16127 0.20318 0.0
H1780 H 0.43654 0.24982 0.20335 0.0
H1781 H 0.4568 0.30844 0.19732 0.0
C1782 C 0.77164 0.31162 0.17916 0.0
C1783 C 0.81087 0.31442 0.18562 0.0
C1784 C 0.75386 0.22466 0.19052 0.0
C1785 C 0.71211 0.22566 0.18565 0.0
N1786 N 0.68094 0.27643 0.17723 0.0
N1787 N 0.83875 0.27365 0.19795 0.0
C1788 C 0.72097 0.2706 0.18034 0.0
C1789 C 0.8018 0.27073 0.19141 0.0
N1790 N 0.78232 0.34956 0.17222 0.0
N1791 N 0.74854 0.17952 0.19389 0.0
H1792 H 0.87534 0.30552 0.19819 0.0
H1793 H 0.83233 0.24557 0.20339 0.0
H1794 H 0.71542 0.14489 0.19261 0.0
H1795 H 0.7786 0.17574 0.19682 0.0
H1796 H 0.75654 0.34776 0.16662 0.0
H1797 H 0.81889 0.38033 0.17152 0.0
H1798 H 0.68548 0.31023 0.17412 0.0
H1799 H 0.64318 0.2504 0.17904 0.0
C1800 C 0.74844 0.43411 0.18921 0.0
C1801 C 0.79373 0.479 0.18631 0.0
C1802 C 0.74441 0.52283 0.18354 0.0
C1803 C 0.6992 0.47795 0.18679 0.0
N1804 N 0.65955 0.39153 0.19345 0.0
N1805 N 0.83532 0.56418 0.17948 0.0
C1806 C 0.70169 0.43365 0.18962 0.0
C1807 C 0.79173 0.52272 0.18302 0.0
N1808 N 0.74973 0.39075 0.19137 0.0
N1809 N 0.74308 0.56665 0.18186 0.0
H1810 H 0.87066 0.56601 0.17962 0.0
H1811 H 0.83655 0.59572 0.17596 0.0
H1812 H 0.70985 0.56845 0.18253 0.0
H1813 H 0.775 0.60203 0.18042 0.0
H1814 H 0.71797 0.35447 0.19193 0.0
H1815 H 0.78344 0.39064 0.19204 0.0
H1816 H 0.66023 0.36264 0.19771 0.0
H1817 H 0.62323 0.3863 0.19294 0.0
C1818 C 0.60369 0.15135 1.01999 0.0
C1819 C 0.65091 0.19725 1.01874 0.0
C1820 C 0.60721 0.24627 1.02009 0.0
C1821 C 0.55926 0.20097 1.01975 0.0
N1822 N 0.51099 0.10925 1.0195 0.0
N1823 N 0.69646 0.28817 1.0161 0.0
C1824 C 0.55715 0.15298 1.01985 0.0
C1825 C 0.65218 0.24452 1.01832 0.0
N1826 N 0.60351 0.10652 0.02135 0.0
N1827 N 0.60991 0.29111 0.02268 0.0
H1828 H 0.73052 0.28855 1.01504 0.0
H1829 H 0.69823 0.32265 1.01439 0.0
H1830 H 0.57794 0.29183 0.02521 0.0
H1831 H 0.64386 0.32524 0.02386 0.0
H1832 H 0.57115 0.07235 0.02334 0.0
H1833 H 0.63676 0.10421 0.02101 0.0
H1834 H 0.50653 0.07335 1.01818 0.0
H1835 H 0.47681 0.10925 1.02036 0.0
C1836 C 0.8091 0.37669 1.00888 0.0
C1837 C 0.83383 0.36459 1.01692 0.0
C1838 C 0.85638 0.44547 0.02546 0.0
C1839 C 0.82612 0.45423 1.01818 0.0
N1840 N 0.76246 0.41957 1.0046 0.0
N1841 N 0.87397 0.38391 0.03375 0.0
C1842 C 0.79987 0.41784 1.01025 0.0
C1843 C 0.85506 0.39779 0.02551 0.0
N1844 N 0.79192 0.34763 1.0001 0.0
N1845 N 0.88871 0.48365 0.03194 0.0
H1846 H 0.87508 0.35004 0.03391 0.0
H1847 H 0.88469 0.40404 0.04071 0.0
H1848 H 0.8932 0.51996 0.03167 0.0
H1849 H 0.9152 0.4811 0.03671 0.0
H1850 H 0.78094 0.35944 0.99346 0.0
H1851 H 0.78965 0.31245 0.9993 0.0
H1852 H 0.73854 0.3911 0.99944 0.0
H1853 H 0.7506 0.44576 1.00604 0.0
C1854 C 0.5987 0.38872 1.00967 0.0
C1855 C 0.5621 0.37712 1.01768 0.0
C1856 C 0.6218 0.45821 0.02621 0.0
C1857 C 0.65542 0.47226 1.01763 0.0
N1858 N 0.67127 0.45272 1.00028 0.0
N1859 N 0.53487 0.40693 0.03231 0.0
C1860 C 0.64232 0.43822 1.00908 0.0
C1861 C 0.57261 0.41366 0.0256 0.0
N1862 N 0.59417 0.35189 1.00294 0.0
N1863 N 0.63713 0.4867 0.03507 0.0
H1864 H 0.49782 0.37626 0.03173 0.0
H1865 H 0.53872 0.4345 0.03763 0.0
H1866 H 0.67336 0.51855 0.03586 0.0
H1867 H 0.61601 0.47579 0.04191 0.0
H1868 H 0.62381 0.35619 0.99815 0.0
H1869 H 0.56282 0.31553 1.00267 0.0
H1870 H 0.65936 0.43247 0.99333 0.0
H1871 H 0.70609 0.4861 0.99969 0.0
C1872 C 0.47644 0.76833 0.84467 0.0
C1873 C 0.49995 0.8039 0.85293 0.0
C1874 C 0.51567 0.74155 0.86207 0.0
C1875 C 0.48805 0.70455 0.85425 0.0
N1876 N 0.43241 0.68027 0.83933 0.0
N1877 N 0.53535 0.82174 0.87017 0.0
C1878 C 0.46616 0.71741 0.84585 0.0
C1879 C 0.51742 0.78959 0.86185 0.0
N1880 N 0.46362 0.78266 0.8356 0.0
N1881 N 0.54229 0.7319 0.86944 0.0
H1882 H 0.53887 0.85781 0.87014 0.0
H1883 H 0.54309 0.81127 0.87736 0.0
H1884 H 0.54301 0.69794 0.86982 0.0
H1885 H 0.56762 0.75928 0.87461 0.0
H1886 H 0.45409 0.76092 0.82884 0.0
H1887 H 0.46411 0.8169 0.8346 0.0
H1888 H 0.40968 0.68588 0.83401 0.0
H1889 H 0.42316 0.64243 0.83991 0.0
C1890 C 0.22973 0.73584 0.86146 0.0
C1891 C 0.2166 0.70172 0.85299 0.0
C1892 C 0.30398 0.75253 0.84638 0.0
C1893 C 0.31484 0.79057 0.85395 0.0
N1894 N 0.28302 0.82278 0.86739 0.0
N1895 N 0.23994 0.68475 0.83605 0.0
C1896 C 0.27628 0.78347 0.86115 0.0
C1897 C 0.25311 0.71251 0.845 0.0
N1898 N 0.19834 0.72258 0.86989 0.0
N1899 N 0.34256 0.75191 0.84102 0.0
H1900 H 0.20478 0.6523 0.83488 0.0
H1901 H 0.26371 0.69562 0.82957 0.0
H1902 H 0.38079 0.77755 0.84248 0.0
H1903 H 0.33692 0.72207 0.83615 0.0
H1904 H 0.20827 0.7441 0.87668 0.0
H1905 H 0.16475 0.68751 0.87044 0.0
H1906 H 0.25433 0.82093 0.87215 0.0
H1907 H 0.31511 0.85908 0.86695 0.0
C1908 C 0.30971 0.54577 0.84511 0.0
C1909 C 0.31856 0.51731 0.85281 0.0
C1910 C 0.23522 0.49339 0.86047 0.0
C1911 C 0.23045 0.52804 0.85374 0.0
N1912 N 0.2724 0.59827 0.84169 0.0
N1913 N 0.29335 0.47179 0.86906 0.0
C1914 C 0.2701 0.55714 0.84658 0.0
C1915 C 0.28236 0.49339 0.86088 0.0
N1916 N 0.33858 0.5619 0.83633 0.0
N1917 N 0.19434 0.45924 0.8662 0.0
H1918 H 0.32824 0.47296 0.86974 0.0
H1919 H 0.27013 0.45755 0.87559 0.0
H1920 H 0.15859 0.4564 0.86571 0.0
H1921 H 0.19447 0.43022 0.87054 0.0
H1922 H 0.32984 0.57812 0.83007 0.0
H1923 H 0.36876 0.55567 0.83491 0.0
H1924 H 0.30341 0.62369 0.83719 0.0
H1925 H 0.24671 0.61064 0.84325 0.0
C1926 C 0.46506 0.85043 1.01598 0.0
C1927 C 0.47604 0.82617 0.0242 0.0
C1928 C 0.38887 0.79145 0.03069 0.0
C1929 C 0.37962 0.82059 0.02324 0.0
N1930 N 0.414 0.88714 1.0103 0.0
N1931 N 0.45146 0.78423 0.04096 0.0
C1932 C 0.41911 0.85263 1.01626 0.0
C1933 C 0.43905 0.80018 0.03206 0.0
N1934 N 0.49835 0.87136 1.00789 0.0
N1935 N 0.3494 0.75289 0.036 0.0
H1936 H 0.48726 0.78863 0.04236 0.0
H1937 H 0.42712 0.77023 0.04734 0.0
H1938 H 0.31157 0.74251 0.03466 0.0
H1939 H 0.35369 0.72726 0.04072 0.0
H1940 H 0.48972 0.88474 1.00117 0.0
H1941 H 0.53293 0.87165 1.00758 0.0
H1942 H 0.44341 0.91471 1.00578 0.0
H1943 H 0.38233 0.89194 1.01079 0.0
C1944 C 0.21679 0.63878 0.03256 0.0
C1945 C 0.19314 0.65136 0.0244 0.0
C1946 C 0.17232 0.57121 1.0157 0.0
C1947 C 0.20136 0.5619 0.02318 0.0
N1948 N 0.26345 0.59623 0.03707 0.0
N1949 N 0.15611 0.63338 1.00727 0.0
C1950 C 0.22674 0.5981 0.0312 0.0
C1951 C 0.17352 0.61886 1.01566 0.0
N1952 N 0.23017 0.66541 0.04166 0.0
N1953 N 0.14136 0.53367 1.00896 0.0
H1954 H 0.15475 0.66711 1.00709 0.0
H1955 H 0.14683 0.6139 1.00022 0.0
H1956 H 0.13753 0.49763 1.00909 0.0
H1957 H 0.11548 0.53646 1.00404 0.0
H1958 H 0.24127 0.65327 0.04824 0.0
H1959 H 0.22781 0.698 0.04289 0.0
H1960 H 0.28693 0.62488 0.04224 0.0
H1961 H 0.27494 0.56959 0.03583 0.0
C1962 C 0.38505 0.58099 0.03257 0.0
C1963 C 0.37246 0.54501 0.0244 0.0
C1964 C 0.45372 0.60323 1.01587 0.0
C1965 C 0.46318 0.64133 0.02335 0.0
N1966 N 0.43234 0.66914 0.03779 0.0
N1967 N 0.39169 0.52463 1.00754 0.0
C1968 C 0.42758 0.63084 0.03147 0.0
C1969 C 0.40585 0.55703 1.01582 0.0
N1970 N 0.35684 0.56788 0.04147 0.0
N1971 N 0.49139 0.61023 1.00911 0.0
H1972 H 0.35771 0.48978 1.00737 0.0
H1973 H 0.41174 0.53401 1.00057 0.0
H1974 H 0.5275 0.64265 1.0092 0.0
H1975 H 0.48872 0.58188 1.00415 0.0
H1976 H 0.36849 0.59018 0.04816 0.0
H1977 H 0.32318 0.53358 0.04248 0.0
H1978 H 0.40372 0.66537 0.04282 0.0
H1979 H 0.46289 0.70611 0.03737 0.0
C1980 C 0.14914 0.55396 0.52577 0.0
C1981 C 0.18525 0.54531 0.52045 0.0
C1982 C 0.21119 0.62392 0.51062 0.0
C1983 C 0.18639 0.63954 0.51793 0.0
N1984 N 0.12435 0.61436 0.53172 0.0
N1985 N 0.25711 0.57875 0.50877 0.0
C1986 C 0.15318 0.60301 0.52532 0.0
C1987 C 0.21771 0.58181 0.51306 0.0
N1988 N 0.10968 0.51455 0.53093 0.0
N1989 N 0.22674 0.64694 0.50115 0.0
H1990 H 0.2648 0.55007 0.5107 0.0
H1991 H 0.28493 0.60777 0.5042 0.0
H1992 H 0.21674 0.67259 0.49814 0.0
H1993 H 0.24245 0.63411 0.49553 0.0
H1994 H 0.07967 0.517 0.53427 0.0
H1995 H 0.10397 0.47759 0.53085 0.0
H1996 H 0.10598 0.59297 0.5383 0.0
H1997 H 0.11892 0.64535 0.53046 0.0
C1998 C 0.46037 0.61425 0.52936 0.0
C1999 C 0.47746 0.64889 0.52097 0.0
C2000 C 0.40078 0.5933 0.51108 0.0
C2001 C 0.38025 0.55871 0.51976 0.0
N2002 N 0.396 0.53468 0.53682 0.0
N2003 N 0.47737 0.65823 0.50263 0.0
C2004 C 0.41197 0.56858 0.52877 0.0
C2005 C 0.45193 0.63412 0.51144 0.0
N2006 N 0.49272 0.62401 0.53758 0.0
N2007 N 0.37148 0.59089 0.50277 0.0
H2008 H 0.51641 0.68413 0.50282 0.0
H2009 H 0.46223 0.64688 0.49519 0.0
H2010 H 0.3337 0.56379 0.50164 0.0
H2011 H 0.38378 0.61988 0.49725 0.0
H2012 H 0.48547 0.60007 0.54392 0.0
H2013 H 0.52974 0.65524 0.53764 0.0
H2014 H 0.41171 0.54285 0.54423 0.0
H2015 H 0.36726 0.49718 0.53607 0.0
C2016 C 0.41253 0.7718 0.51677 0.0
C2017 C 0.45921 0.81569 0.51956 0.0
C2018 C 0.41378 0.86356 0.52161 0.0
C2019 C 0.36802 0.81988 0.51834 0.0
N2020 N 0.32871 0.73969 0.5095 0.0
N2021 N 0.50643 0.90643 0.52254 0.0
C2022 C 0.36924 0.77651 0.51482 0.0
C2023 C 0.4606 0.86269 0.52136 0.0
N2024 N 0.4084 0.72481 0.51654 0.0
N2025 N 0.41215 0.90502 0.52524 0.0
H2026 H 0.54115 0.90704 0.52224 0.0
H2027 H 0.51028 0.94252 0.52295 0.0
H2028 H 0.37894 0.90742 0.52502 0.0
H2029 H 0.44294 0.93588 0.52883 0.0
H2030 H 0.37378 0.691 0.51565 0.0
H2031 H 0.43846 0.719 0.51839 0.0
H2032 H 0.32909 0.70905 0.50592 0.0
H2033 H 0.29794 0.74421 0.5075 0.0
C2034 C 0.25261 0.53963 0.34294 0.0
C2035 C 0.21956 0.52075 0.3517 0.0
C2036 C 0.28408 0.5089 0.36095 0.0
C2037 C 0.31846 0.53104 0.35247 0.0
N2038 N 0.33861 0.57927 0.33644 0.0
N2039 N 0.20815 0.49708 0.36976 0.0
C2040 C 0.30347 0.54923 0.34372 0.0
C2041 C 0.23677 0.50856 0.36093 0.0
N2042 N 0.23623 0.5497 0.33382 0.0
N2043 N 0.29521 0.48573 0.36883 0.0
H2044 H 0.17233 0.49411 0.36993 0.0
H2045 H 0.22156 0.49436 0.37706 0.0
H2046 H 0.32847 0.48373 0.3691 0.0
H2047 H 0.26929 0.4641 0.37461 0.0
H2048 H 0.2551 0.55474 0.32678 0.0
H2049 H 0.20326 0.55187 0.33315 0.0
H2050 H 0.33169 0.5998 0.3308 0.0
H2051 H 0.37635 0.58808 0.33657 0.0
C2052 C 0.46706 0.70702 0.36013 0.0
C2053 C 0.49741 0.70035 0.35267 0.0
C2054 C 0.52971 0.78858 0.34678 0.0
C2055 C 0.49339 0.79205 0.35317 0.0
N2056 N 0.41735 0.74731 0.36375 0.0
N2057 N 0.55287 0.7331 0.33774 0.0
C2058 C 0.45944 0.74943 0.35932 0.0
C2059 C 0.52759 0.74078 0.34567 0.0
N2060 N 0.44462 0.6723 0.3679 0.0
N2061 N 0.56703 0.83104 0.34197 0.0
H2062 H 0.55346 0.69923 0.3368 0.0
H2063 H 0.57028 0.759 0.33169 0.0
H2064 H 0.57059 0.86672 0.34292 0.0
H2065 H 0.59732 0.83182 0.33798 0.0
H2066 H 0.42534 0.67732 0.37407 0.0
H2067 H 0.4509 0.6418 0.36874 0.0
H2068 H 0.38905 0.71487 0.36746 0.0
H2069 H 0.40715 0.77512 0.3626 0.0
C2070 C 0.27977 0.71247 0.34681 0.0
C2071 C 0.2367 0.70551 0.35255 0.0
C2072 C 0.28617 0.79409 0.35871 0.0
C2073 C 0.32624 0.80278 0.35186 0.0
N2074 N 0.35917 0.77135 0.33842 0.0
N2075 N 0.19629 0.74214 0.36271 0.0
C2076 C 0.32243 0.76229 0.34562 0.0
C2077 C 0.23932 0.74693 0.35823 0.0
N2078 N 0.28128 0.6712 0.34298 0.0
N2079 N 0.29303 0.83069 0.36574 0.0
H2080 H 0.16089 0.70926 0.36198 0.0
H2081 H 0.19455 0.77227 0.36617 0.0
H2082 H 0.32675 0.86574 0.36618 0.0
H2083 H 0.26729 0.82452 0.37168 0.0
H2084 H 0.31377 0.67333 0.33972 0.0
H2085 H 0.25185 0.63396 0.34408 0.0
H2086 H 0.3551 0.74493 0.33279 0.0
H2087 H 0.39222 0.80648 0.33753 0.0
C2088 C 0.33569 0.3944 0.19396 0.0
C2089 C 0.30879 0.34493 0.1895 0.0
C2090 C 0.38823 0.35932 0.18117 0.0
C2091 C 0.41549 0.40864 0.18569 0.0
N2092 N 0.41762 0.46916 0.19804 0.0
N2093 N 0.3135 0.27503 0.18187 0.0
C2094 C 0.38992 0.42488 0.19263 0.0
C2095 C 0.33633 0.3259 0.18397 0.0
N2096 N 0.30914 0.41296 0.19916 0.0
N2097 N 0.41145 0.34462 0.17396 0.0
H2098 H 0.27745 0.24929 0.18469 0.0
H2099 H 0.33246 0.25763 0.17863 0.0
H2100 H 0.44932 0.36751 0.17169 0.0
H2101 H 0.39196 0.31155 0.16955 0.0
H2102 H 0.32519 0.45054 0.20165 0.0
H2103 H 0.26998 0.3912 0.20052 0.0
H2104 H 0.40281 0.48041 0.20411 0.0
H2105 H 0.45666 0.49321 0.1969 0.0
C2106 C 0.65138 0.02292 0.1937 0.0
C2107 C 0.61466 1.00642 0.18557 0.0
C2108 C 0.6301 0.93476 0.18223 0.0
C2109 C 0.67364 0.95739 0.18889 0.0
N2110 N 0.72812 0.02674 0.20037 0.0
N2111 N 0.55849 0.93816 0.1743 0.0
C2112 C 0.68436 1.00188 0.19463 0.0
C2113 C 0.6012 0.95985 0.18042 0.0
N2114 N 0.65399 0.05754 0.20076 0.0
N2115 N 0.6162 0.88874 0.17772 0.0
H2116 H 0.53334 0.95227 0.17391 0.0
H2117 H 0.54551 0.90478 0.17008 0.0
H2118 H 0.63145 0.86604 0.18001 0.0
H2119 H 0.58899 0.87182 0.17191 0.0
H2120 H 0.676 0.06694 0.20749 0.0
H2121 H 0.62987 0.07255 0.20049 0.0
H2122 H 0.74076 0.0624 0.2037 0.0
H2123 H 0.75461 0.01449 0.20102 0.0
C2124 C 0.01951 0.6895 0.18225 0.0
C2125 C 0.06116 0.71674 0.1892 0.0
C2126 C 0.0531 0.63406 0.19441 0.0
C2127 C 0.01617 0.60844 0.18646 0.0
N2128 N 0.96908 0.61394 0.17186 0.0
N2129 N 0.11875 0.71448 0.20181 0.0
C2130 C 1.001 0.63691 0.18009 0.0
C2131 C 0.07783 0.6887 0.19536 0.0
N2132 N 0.99464 0.71291 0.17831 0.0
N2133 N 0.06469 0.60607 0.20104 0.0
H2134 H 0.13714 0.75391 0.20277 0.0
H2135 H 0.13647 0.69748 0.20575 0.0
H2136 H 0.05099 0.56727 0.19997 0.0
H2137 H 0.08573 0.62054 0.20783 0.0
H2138 H 0.96168 0.69457 0.17381 0.0
H2139 H 1.00235 0.74829 0.18098 0.0
H2140 H 0.962 0.63412 0.16616 0.0
H2141 H 0.95239 0.57513 0.17026 0.0
C2142 C 0.39495 0.32689 0.34597 0.0
C2143 C 0.35622 0.29964 0.35353 0.0
C2144 C 0.37411 0.38207 0.3611 0.0
C2145 C 0.41634 0.40887 0.35434 0.0
N2146 N 0.46881 0.40732 0.34055 0.0
N2147 N 0.31555 0.30283 0.36948 0.0
C2148 C 0.42705 0.38136 0.34678 0.0
C2149 C 0.34755 0.32771 0.36138 0.0
N2150 N 0.40167 0.30055 0.33812 0.0
N2151 N 0.35879 0.40857 0.36727 0.0
H2152 H 0.29734 0.26373 0.37046 0.0
H2153 H 0.3116 0.32118 0.37593 0.0
H2154 H 0.37888 0.44807 0.36786 0.0
H2155 H 0.32394 0.39179 0.37114 0.0
H2156 H 0.4252 0.31771 0.33174 0.0
H2157 H 0.38179 0.26086 0.3377 0.0
H2158 H 0.48201 0.39007 0.33542 0.0
H2159 H 0.49253 0.44675 0.34096 0.0
C2160 C 0.64805 0.06087 0.36009 0.0
C2161 C 0.61514 0.01485 0.35474 0.0
C2162 C 0.69025 0.01831 0.34636 0.0
C2163 C 0.72347 0.06262 0.35221 0.0
N2164 N 0.73418 0.13168 0.36312 0.0
N2165 N 0.60466 0.96171 0.34 0.0
C2166 C 0.70222 0.08559 0.35861 0.0
C2167 C 0.63612 0.99748 0.34696 0.0
N2168 N 0.62679 0.08159 0.36639 0.0
N2169 N 0.70986 0.99353 0.34085 0.0
H2170 H 0.56529 0.94532 0.34027 0.0
H2171 H 0.61777 0.95199 0.3334 0.0
H2172 H 0.74877 1.00625 0.34037 0.0
H2173 H 0.68734 0.95784 0.33748 0.0
H2174 H 0.64707 0.11279 0.37121 0.0
H2175 H 0.58755 0.06777 0.36663 0.0
H2176 H 0.72277 0.15108 0.36808 0.0
H2177 H 0.77311 0.15264 0.36149 0.0
C2178 C 0.99815 0.67268 0.3619 0.0
C2179 C 0.96212 0.66441 0.35389 0.0
C2180 C 0.97409 0.59428 0.34708 0.0
C2181 C 1.01005 0.60315 0.35508 0.0
N2182 N 0.06497 0.65847 0.36857 0.0
N2183 N 0.91319 0.61504 0.33918 0.0
C2184 C 0.02442 0.6445 0.36203 0.0
C2185 C 0.95005 0.62503 0.34645 0.0
N2186 N 1.00645 0.70647 0.3697 0.0
N2187 N 0.96353 0.55666 0.34001 0.0
H2188 H 0.89376 0.63531 0.33871 0.0
H2189 H 0.8995 0.58528 0.33388 0.0
H2190 H 0.97795 0.53189 0.34069 0.0
H2191 H 0.94197 0.55036 0.33331 0.0
H2192 H 0.02662 0.70933 0.37646 0.0
H2193 H 0.98945 0.72874 0.37 0.0
H2194 H 0.08241 0.69239 0.37275 0.0
H2195 H 0.08492 0.63884 0.36909 0.0
C2196 C 0.64161 0.67667 0.85411 0.0
C2197 C 0.61297 0.62233 0.85469 0.0
C2198 C 0.69274 0.62146 0.85051 0.0
C2199 C 0.72175 0.67525 0.85176 0.0
N2200 N 0.72349 0.75451 0.85458 0.0
N2201 N 0.61245 0.5425 0.85314 0.0
C2202 C 0.69593 0.70281 0.85346 0.0
C2203 C 0.63869 0.5945 0.85261 0.0
N2204 N 0.61657 0.7036 0.8536 0.0
N2205 N 0.71696 0.59623 0.84719 0.0
H2206 H 0.57335 0.52112 0.85439 0.0
H2207 H 0.62972 0.52022 0.85291 0.0
H2208 H 0.75616 0.61483 0.84579 0.0
H2209 H 0.69805 0.55806 0.845 0.0
H2210 H 0.63416 0.74258 0.85214 0.0
H2211 H 0.5772 0.68591 0.85338 0.0
H2212 H 0.70841 0.7763 0.85746 0.0
H2213 H 0.76236 0.77548 0.85303 0.0
C2214 C 0.40088 0.08273 0.85861 0.0
C2215 C 0.35515 0.05852 0.8527 0.0
C2216 C 0.37443 0.99048 0.84826 0.0
C2217 C 0.41398 0.00932 0.85583 0.0
N2218 N 0.46686 0.07561 0.86791 0.0
N2219 N 0.29582 0.98589 0.84248 0.0
C2220 C 0.42777 0.05622 0.86087 0.0
C2221 C 0.34157 0.01179 0.84754 0.0
N2222 N 0.41991 0.13212 0.86172 0.0
N2223 N 0.36837 0.95263 0.8417 0.0
H2224 H 0.26979 0.99884 0.84205 0.0
H2225 H 0.28146 0.94921 0.83955 0.0
H2226 H 0.39329 0.93847 0.84171 0.0
H2227 H 0.34317 0.94017 0.83544 0.0
H2228 H 0.45543 0.15375 0.86522 0.0
H2229 H 0.40261 0.15348 0.85982 0.0
H2230 H 0.47394 0.10506 0.87301 0.0
H2231 H 0.49137 0.06101 0.86888 0.0
C2232 C 1.00799 0.33442 0.84711 0.0
C2233 C 0.96214 0.30114 0.85255 0.0
C2234 C 0.96531 0.37625 0.86093 0.0
C2235 C 1.01242 0.40912 0.85589 0.0
N2236 N 0.0689 0.42071 0.84169 0.0
N2237 N 0.89308 0.2904 0.86349 0.0
C2238 C 0.03056 0.38859 0.84816 0.0
C2239 C 0.93958 0.32228 0.8591 0.0
N2240 N 0.03232 0.31448 0.84153 0.0
N2241 N 0.94438 0.39746 0.86718 0.0
H2242 H 0.87119 0.25195 0.86153 0.0
H2243 H 0.87468 0.3013 0.86882 0.0
H2244 H 0.95969 0.43679 0.86782 0.0
H2245 H 0.9112 0.37721 0.87148 0.0
H2246 H 0.06871 0.33641 0.83842 0.0
H2247 H 0.0184 0.2755 0.84074 0.0
H2248 H 0.08057 0.40862 0.83523 0.0
H2249 H 0.08482 0.45994 0.84205 0.0
C2250 C 0.6028 0.63599 0.69486 0.0
C2251 C 0.61417 0.60925 0.68723 0.0
C2252 C 0.69231 0.68931 0.68275 0.0
C2253 C 0.67753 0.71736 0.68931 0.0
N2254 N 0.61621 0.71744 0.7012 0.0
N2255 N 0.66642 0.61266 0.67276 0.0
C2256 C 0.63241 0.69061 0.69538 0.0
C2257 C 0.65801 0.63657 0.68086 0.0
N2258 N 0.56339 0.60915 0.70158 0.0
N2259 N 0.74051 0.71253 0.67874 0.0
H2260 H 0.64371 0.57382 0.67128 0.0
H2261 H 0.69408 0.63207 0.6671 0.0
H2262 H 0.76762 0.74998 0.68057 0.0
H2263 H 0.75541 0.69312 0.67471 0.0
H2264 H 0.55697 0.62499 0.70816 0.0
H2265 H 0.53862 0.57005 0.70085 0.0
H2266 H 0.58103 0.70088 0.70494 0.0
H2267 H 0.63635 0.75708 0.70171 0.0
C2268 C 0.38959 0.03111 0.68131 0.0
C2269 C 0.41638 0.01197 0.68718 0.0
C2270 C 0.33485 0.94677 0.6949 0.0
C2271 C 0.30838 0.96685 0.68924 0.0
N2272 N 0.31232 0.0358 0.67911 0.0
N2273 N 0.41601 0.95689 0.7007 0.0
C2274 C 0.33634 0.01126 0.68303 0.0
C2275 C 0.38939 0.97157 0.69436 0.0
N2276 N 0.4146 0.0672 0.67381 0.0
N2277 N 0.30773 0.90231 0.70032 0.0
H2278 H 0.45519 0.97146 0.69997 0.0
H2279 H 0.39999 0.93268 0.70704 0.0
H2280 H 0.26805 0.88289 0.70085 0.0
H2281 H 0.32401 0.88253 0.7037 0.0
H2282 H 0.39614 0.07806 0.66841 0.0
H2283 H 0.45356 0.08365 0.6724 0.0
H2284 H 0.33132 0.07112 0.67542 0.0
H2285 H 0.27392 0.02349 0.68047 0.0
C2286 C 0.05504 0.42401 0.69432 0.0
C2287 C 0.01609 0.41349 0.68691 0.0
C2288 C 0.01632 0.335 0.68184 0.0
C2289 C 0.05806 0.34732 0.68865 0.0
N2290 N 0.11882 0.40478 0.70114 0.0
N2291 N 0.95284 0.35393 0.67499 0.0
C2292 C 0.07732 0.39181 0.69496 0.0
C2293 C 0.99504 0.36766 0.68102 0.0
N2294 N 0.0697 0.46418 0.70095 0.0
N2295 N 0.99718 0.29186 0.67598 0.0
H2296 H 0.93783 0.37765 0.67359 0.0
H2297 H 0.93057 0.31798 0.67175 0.0
H2298 H 1.00497 0.26302 0.67767 0.0
H2299 H 0.97406 0.28457 0.66948 0.0
H2300 H 0.09335 0.47115 0.70734 0.0
H2301 H 0.05546 0.48917 0.70044 0.0
H2302 H 0.13849 0.4391 0.70513 0.0
H2303 H 0.1358 0.38227 0.70186 0.0
C2304 C 0.99774 0.67084 0.51359 0.0
C2305 C 0.97128 0.68136 0.52154 0.0
C2306 C 0.05424 0.75446 0.52719 0.0
C2307 C 0.07983 0.74379 0.51919 0.0
N2308 N 0.07776 0.68494 0.50638 0.0
N2309 N 0.97412 0.73682 0.53524 0.0
C2310 C 0.05205 0.69995 0.51289 0.0
C2311 C 0.99972 0.72364 0.5283 0.0
N2312 N 0.97096 0.63458 0.50625 0.0
N2313 N 0.08246 0.79382 0.53385 0.0
H2314 H 0.93461 0.71641 0.5361 0.0
H2315 H 0.99108 0.76973 0.53972 0.0
H2316 H 0.12139 0.81877 0.5328 0.0
H2317 H 0.06843 0.80063 0.54065 0.0
H2318 H 0.98711 0.63019 0.49949 0.0
H2319 H 0.9317 0.61075 0.5064 0.0
H2320 H 0.06118 0.64915 0.50291 0.0
H2321 H 0.11683 0.70651 0.505 0.0
C2322 C 0.28876 0.26493 0.51826 0.0
C2323 C 0.33801 0.29221 0.52287 0.0
C2324 C 0.32021 0.36182 0.52671 0.0
C2325 C 0.27735 0.33999 0.51999 0.0
N2326 N 0.21829 0.26771 0.50984 0.0
N2327 N 0.40272 0.37115 0.53056 0.0
C2328 C 0.26089 0.29052 0.51594 0.0
C2329 C 0.35404 0.34162 0.52701 0.0
N2330 N 0.26762 0.21384 0.51647 0.0
N2331 N 0.32838 0.4013 0.53296 0.0
H2332 H 0.42957 0.3594 0.53033 0.0
H2333 H 0.41782 0.40924 0.53266 0.0
H2334 H 0.30273 0.41467 0.53331 0.0
H2335 H 0.35624 0.41539 0.53875 0.0
H2336 H 0.23014 0.19069 0.514 0.0
H2337 H 0.28567 0.19343 0.51857 0.0
H2338 H 0.20815 0.23517 0.50545 0.0
H2339 H 0.19385 0.28247 0.50894 0.0
C2340 C 0.72688 0.97709 0.51409 0.0
C2341 C 0.67994 0.94433 0.51917 0.0
C2342 C 0.68421 0.01896 0.52784 0.0
C2343 C 0.73012 0.05219 0.52243 0.0
N2344 N 0.80214 0.06132 0.51267 0.0
N2345 N 0.62754 0.93325 0.53411 0.0
C2346 C 0.75348 0.03065 0.51621 0.0
C2347 C 0.66293 0.96492 0.5271 0.0
N2348 N 0.74674 0.95651 0.50741 0.0
N2349 N 0.65877 0.03841 0.53317 0.0
H2350 H 0.61462 0.89443 0.53428 0.0
H2351 H 0.61665 0.94619 0.54056 0.0
H2352 H 0.67132 0.07722 0.53363 0.0
H2353 H 0.62249 0.01571 0.53629 0.0
H2354 H 0.7764 0.97774 0.50227 0.0
H2355 H 0.73297 0.91737 0.50697 0.0
H2356 H 0.82288 0.04842 0.50851 0.0
H2357 H 0.82416 0.09962 0.51472 0.0
C2358 C 0.05027 0.72315 0.68047 0.0
C2359 C 0.08784 0.74407 0.68839 0.0
C2360 C 0.07369 0.65732 0.69161 0.0
C2361 C 0.02798 0.63544 0.68563 0.0
N2362 N 0.9724 0.65117 0.6744 0.0
N2363 N 0.13868 0.73024 0.70101 0.0
C2364 C 0.01653 0.66927 0.67995 0.0
C2365 C 0.10035 0.71076 0.69382 0.0
N2366 N 0.04719 0.75419 0.67318 0.0
N2367 N 0.09369 0.6276 0.69463 0.0
H2368 H 0.16419 0.7692 0.70177 0.0
H2369 H 0.14432 0.70767 0.70637 0.0
H2370 H 0.07825 0.58973 0.69231 0.0
H2371 H 0.129 0.64191 0.69826 0.0
H2372 H 0.02466 0.74052 0.66653 0.0
H2373 H 0.07124 0.79331 0.67314 0.0
H2374 H 0.95876 0.67453 0.67164 0.0
H2375 H 0.94775 0.61302 0.67297 0.0
C2376 C 0.30056 0.32913 0.68143 0.0
C2377 C 0.27876 0.34728 0.68888 0.0
C2378 C 0.3653 0.41973 0.69241 0.0
C2379 C 0.38746 0.39608 0.68653 0.0
N2380 N 0.37492 0.32404 0.67622 0.0
N2381 N 0.29086 0.41248 0.7011 0.0
C2382 C 0.35477 0.34999 0.68112 0.0
C2383 C 0.31145 0.39345 0.69423 0.0
N2384 N 0.26984 0.29243 0.67454 0.0
N2385 N 0.39558 0.46846 0.69591 0.0
H2386 H 0.25169 0.39853 0.70167 0.0
H2387 H 0.3124 0.44104 0.70644 0.0
H2388 H 0.43456 0.48975 0.69433 0.0
H2389 H 0.38158 0.48985 0.69944 0.0
H2390 H 0.2836 0.28085 0.66833 0.0
H2391 H 0.23087 0.27862 0.67422 0.0
H2392 H 0.35269 0.28767 0.67312 0.0
H2393 H 0.41378 0.33633 0.67611 0.0
C2394 C 0.63561 0.92966 0.69434 0.0
C2395 C 0.68123 0.94331 0.68876 0.0
C2396 C 0.67675 0.0152 0.68087 0.0
C2397 C 0.63122 1.00192 0.68653 0.0
N2398 N 0.55939 0.93662 0.69596 0.0
N2399 N 0.73148 0.9858 0.67366 0.0
C2400 C 0.60836 0.95622 0.69249 0.0
C2401 C 0.69733 0.98171 0.68101 0.0
N2402 N 0.61774 0.89058 0.70135 0.0
N2403 N 0.70248 0.06114 0.67589 0.0
H2404 H 0.74314 0.95898 0.67301 0.0
H2405 H 0.7419 0.01069 0.66736 0.0
H2406 H 0.69123 0.08848 0.67608 0.0
H2407 H 0.73821 0.07451 0.67252 0.0
H2408 H 0.58977 0.88381 0.70683 0.0
H2409 H 0.63187 0.86548 0.70183 0.0
H2410 H 0.53889 0.9013 0.6996 0.0
H2411 H 0.53697 0.95288 0.69419 0.0
C2412 C 0.30925 0.98587 0.19356 0.0
C2413 C 0.28099 0.93777 0.18851 0.0
C2414 C 0.36123 0.95254 0.18024 0.0
C2415 C 0.38891 1.00094 0.18519 0.0
N2416 N 0.3854 0.06938 0.19387 0.0
N2417 N 0.27863 0.88067 0.1753 0.0
C2418 C 0.3617 0.01914 0.19108 0.0
C2419 C 0.30661 0.92286 0.18129 0.0
N2420 N 0.2863 0.99971 0.20094 0.0
N2421 N 0.38724 0.93381 0.1749 0.0
H2422 H 0.23927 0.85734 0.17614 0.0
H2423 H 0.29365 0.87091 0.16903 0.0
H2424 H 0.42673 0.95418 0.17396 0.0
H2425 H 0.37029 0.89679 0.17203 0.0
H2426 H 0.30599 0.03094 0.20583 0.0
H2427 H 0.24795 0.97755 0.20271 0.0
H2428 H 0.36657 0.08657 0.19727 0.0
H2429 H 0.4227 0.09541 0.19168 0.0
C2430 C 0.02085 0.35315 0.18009 0.0
C2431 C 0.03132 0.39756 0.18584 0.0
C2432 C 0.10311 0.39499 0.19449 0.0
C2433 C 0.09073 0.34913 0.18916 0.0
N2434 N 0.05094 0.29713 0.17408 0.0
N2435 N 0.08877 0.46674 0.19688 0.0
C2436 C 0.05402 0.33238 0.18103 0.0
C2437 C 0.07452 0.42026 0.19255 0.0
N2438 N 0.97699 0.32794 0.17437 0.0
N2439 N 0.14384 0.41526 0.20115 0.0
H2440 H 0.07236 0.48863 0.19476 0.0
H2441 H 0.11859 0.48575 0.2021 0.0
H2442 H 0.16918 0.40142 0.20168 0.0
H2443 H 0.15374 0.44607 0.20603 0.0
H2444 H 0.96465 0.29238 0.17102 0.0
H2445 H 0.95 0.33955 0.1738 0.0
H2446 H 0.02962 0.28822 0.16726 0.0
H2447 H 0.0733 0.2802 0.17465 0.0
C2448 C 0.60853 0.65688 0.19146 0.0
C2449 C 0.63178 0.63563 0.18514 0.0
C2450 C 0.69956 0.72343 0.18063 0.0
C2451 C 0.68168 0.74362 0.18845 0.0
N2452 N 0.6144 0.7311 0.20008 0.0
N2453 N 0.70085 0.65003 0.17356 0.0
C2454 C 0.63463 0.71056 0.19348 0.0
C2455 C 0.67722 0.66928 0.17954 0.0
N2456 N 0.56027 0.62576 0.19517 0.0
N2457 N 0.73699 0.75585 0.17402 0.0
H2458 H 0.68527 0.61158 0.17189 0.0
H2459 H 0.7377 0.67207 0.17067 0.0
H2460 H 0.75159 0.79496 0.17423 0.0
H2461 H 0.74876 0.744 0.16753 0.0
H2462 H 0.53957 0.63809 0.19949 0.0
H2463 H 0.5384 0.58742 0.19313 0.0
H2464 H 0.58435 0.71 0.20514 0.0
H2465 H 0.62828 0.77026 0.20054 0.0
C2466 C 0.27176 0.97091 0.02765 0.0
C2467 C 0.28021 0.94399 1.01959 0.0
C2468 C 0.35302 0.02531 1.01333 0.0
C2469 C 0.34295 0.05271 0.02109 0.0
N2470 N 0.29055 0.05217 0.0352 0.0
N2471 N 0.33414 0.94391 1.00587 0.0
C2472 C 0.30228 0.02548 0.02825 0.0
C2473 C 0.32227 0.97087 1.01272 0.0
N2474 N 0.23471 0.94395 0.03484 0.0
N2475 N 0.39172 0.05155 1.00638 0.0
H2476 H 0.31231 0.90453 1.00502 0.0
H2477 H 0.36728 0.95938 1.00145 0.0
H2478 H 0.41793 0.09032 1.00701 0.0
H2479 H 0.39734 0.03585 0.99969 0.0
H2480 H 0.23056 0.95919 0.04175 0.0
H2481 H 0.20913 0.90501 0.03412 0.0
H2482 H 0.25849 0.03589 0.03994 0.0
H2483 H 0.31117 0.09177 0.03581 0.0
C2484 C 0.05232 0.29795 0.02704 0.0
C2485 C 0.08056 0.33664 1.01957 0.0
C2486 C 1.0004 0.3295 1.0131 0.0
C2487 C 0.97135 0.2899 1.02041 0.0
N2488 N 0.96955 0.23345 0.03382 0.0
N2489 N 0.08245 0.39637 1.00695 0.0
C2490 C 0.99749 0.27387 0.02735 0.0
C2491 C 0.05476 0.3543 1.01304 0.0
N2492 N 0.07831 0.28531 0.03402 0.0
N2493 N 0.97603 0.3425 1.00584 0.0
H2494 H 0.12187 0.41443 1.00624 0.0
H2495 H 0.06728 0.41628 1.0032 0.0
H2496 H 0.93704 0.32655 1.00563 0.0
H2497 H 0.99354 0.36558 0.99942 0.0
H2498 H 0.06179 0.26193 0.04044 0.0
H2499 H 0.11775 0.30058 0.03368 0.0
H2500 H 0.98488 0.216 0.03837 0.0
H2501 H 0.92985 0.21487 0.03421 0.0
C2502 C 0.75244 0.72806 1.01628 0.0
C2503 C 0.73281 0.6822 0.02222 0.0
C2504 C 0.66341 0.69704 0.02801 0.0
C2505 C 0.67701 0.73569 1.02043 0.0
N2506 N 0.73324 0.78529 1.00656 0.0
N2507 N 0.6608 0.6182 0.03216 0.0
C2508 C 0.72123 0.75043 1.01434 0.0
C2509 C 0.68619 0.66561 0.02779 0.0
N2510 N 0.80175 0.75189 1.01288 0.0
N2511 N 0.62861 0.69018 0.03545 0.0
H2512 H 0.6716 0.59096 0.03114 0.0
H2513 H 0.62489 0.60333 0.03556 0.0
H2514 H 0.61373 0.71443 0.03607 0.0
H2515 H 0.62019 0.66536 0.04172 0.0
H2516 H 0.819 0.78724 1.00918 0.0
H2517 H 0.82736 0.7398 1.01494 0.0
H2518 H 0.76132 0.7928 1.00105 0.0
H2519 H 0.7129 0.80424 1.00524 0.0
C2520 C 0.72523 0.04928 0.86284 0.0
C2521 C 0.74637 0.07597 0.85334 0.0
C2522 C 0.66008 0.05417 0.848 0.0
C2523 C 0.63725 0.01976 0.85647 0.0
N2524 N 0.65304 0.97904 0.8713 0.0
N2525 N 0.72671 0.08213 0.83533 0.0
C2526 C 0.67105 0.01596 0.8638 0.0
C2527 C 0.71183 0.07218 0.84546 0.0
N2528 N 0.75642 0.05509 0.871 0.0
N2529 N 0.63336 0.07166 0.84248 0.0
H2530 H 0.76195 0.08845 0.83277 0.0
H2531 H 0.70097 0.07599 0.82934 0.0
H2532 H 0.59789 0.06574 0.84487 0.0
H2533 H 0.64994 0.0983 0.8365 0.0
H2534 H 0.7429 0.04316 0.87852 0.0
H2535 H 0.79583 0.07436 0.87041 0.0
H2536 H 0.67694 0.97222 0.87605 0.0
H2537 H 0.61512 0.95124 0.87218 0.0
C2538 C 0.92895 0.62298 0.84832 0.0
C2539 C 0.94277 0.67046 0.85309 0.0
C2540 C 0.0148 0.66849 0.86166 0.0
C2541 C 1.00153 0.62118 0.85675 0.0
N2542 N 0.93406 0.54554 0.84874 0.0
N2543 N 0.98421 0.72385 0.8679 0.0
C2544 C 0.95494 0.59608 0.85108 0.0
C2545 C 0.98085 0.68851 0.86095 0.0
N2546 N 0.89033 0.60292 0.8412 0.0
N2547 N 0.06101 0.69652 0.86641 0.0
H2548 H 0.9583 0.73683 0.86794 0.0
H2549 H 1.00857 0.73526 0.8743 0.0
H2550 H 0.0884 0.68546 0.86668 0.0
H2551 H 0.07413 0.73341 0.86913 0.0
H2552 H 0.88352 0.57273 0.83634 0.0
H2553 H 0.86587 0.6174 0.83999 0.0
H2554 H 0.89817 0.5239 0.84538 0.0
H2555 H 0.94981 0.52367 0.85132 0.0
C2556 C 0.33338 0.29444 0.86079 0.0
C2557 C 0.35182 0.27513 0.85288 0.0
C2558 C 0.4257 0.36226 0.85083 0.0
C2559 C 0.40072 0.383 0.85673 0.0
N2560 N 0.32712 0.36641 0.86705 0.0
N2561 N 0.42013 0.29116 0.84112 0.0
C2562 C 0.35401 0.34843 0.86181 0.0
C2563 C 0.3994 0.30934 0.84815 0.0
N2564 N 0.29685 0.26168 0.86748 0.0
N2565 N 0.4758 0.39282 0.84818 0.0
H2566 H 0.40693 0.25235 0.84015 0.0
H2567 H 0.44977 0.31458 0.83614 0.0
H2568 H 0.49726 0.43061 0.85062 0.0
H2569 H 0.49778 0.37948 0.84465 0.0
H2570 H 0.28595 0.27372 0.87408 0.0
H2571 H 0.2811 0.22245 0.86701 0.0
H2572 H 0.29016 0.34288 0.86978 0.0
H2573 H 0.33972 0.40494 0.86792 0.0
C2574 C 0.7244 0.99062 1.01217 0.0
C2575 C 0.68558 0.96439 1.0198 0.0
C2576 C 0.70887 0.04782 0.0278 0.0
C2577 C 0.75024 0.07332 0.02081 0.0
N2578 N 0.79306 0.0713 1.00532 0.0
N2579 N 0.64555 0.96978 0.03569 0.0
C2580 C 0.75655 0.04527 1.01267 0.0
C2581 C 0.67911 0.99359 0.02778 0.0
N2582 N 0.73306 0.96294 1.00491 0.0
N2583 N 0.69602 0.07562 0.03422 0.0
H2584 H 0.61966 0.93131 0.03581 0.0
H2585 H 0.64559 0.98779 0.04257 0.0
H2586 H 0.717 0.11514 0.0348 0.0
H2587 H 0.66173 0.06014 0.03828 0.0
H2588 H 0.76289 0.97831 0.9996 0.0
H2589 H 0.71192 0.92333 1.00447 0.0
H2590 H 0.79658 0.05558 0.99842 0.0
H2591 H 0.81929 0.11012 1.00596 0.0
C2592 C 0.97677 0.71685 1.01377 0.0
C2593 C 0.94946 0.67964 0.02156 0.0
C2594 C 0.03102 0.69372 0.02884 0.0
C2595 C 0.05901 0.72969 0.02084 0.0
N2596 N 0.05821 0.77415 1.00537 0.0
N2597 N 0.95056 0.62325 0.03465 0.0
C2598 C 0.03157 0.74033 1.01313 0.0
C2599 C 0.97666 0.66532 0.0285 0.0
N2600 N 0.9501 0.7301 1.0071 0.0
N2601 N 0.05592 0.6876 0.03708 0.0
H2602 H 0.911 0.6018 0.0348 0.0
H2603 H 0.96795 0.60642 0.03878 0.0
H2604 H 0.09508 0.70824 0.03804 0.0
H2605 H 0.03746 0.66629 0.04366 0.0
H2606 H 0.96643 0.75807 1.00141 0.0
H2607 H 0.91058 0.714 1.00751 0.0
H2608 H 0.0416 0.7818 0.99906 0.0
H2609 H 0.09795 0.79442 1.00508 0.0
C2610 C 0.32796 0.34052 0.02964 0.0
C2611 C 0.29548 0.33524 0.02107 0.0
C2612 C 0.3124 0.2694 1.01371 0.0
C2613 C 0.34603 0.2765 0.02209 0.0
N2614 N 0.39519 0.3276 0.03659 0.0
N2615 N 0.25831 0.29575 1.00467 0.0
C2616 C 0.35654 0.31469 0.0296 0.0
C2617 C 0.28888 0.30052 1.01293 0.0
N2618 N 0.33064 0.36889 0.0381 0.0
N2619 N 0.30162 0.23145 1.00672 0.0
H2620 H 0.23667 0.31377 1.0043 0.0
H2621 H 0.25465 0.27483 0.99802 0.0
H2622 H 0.31562 0.20645 1.00755 0.0
H2623 H 0.27688 0.22233 1.00046 0.0
H2624 H 0.34829 0.36874 0.04504 0.0
H2625 H 0.31126 0.38883 0.03873 0.0
H2626 H 0.40992 0.35998 0.04125 0.0
H2627 H 0.41618 0.30891 0.03711 0.0
C2628 C 0.03431 0.28837 0.52497 0.0
C2629 C 0.05533 0.33301 0.51865 0.0
C2630 C 0.96748 0.31012 0.51352 0.0
C2631 C 0.94718 0.27302 0.52155 0.0
N2632 N 0.95983 0.21894 0.53339 0.0
N2633 N 0.04045 0.38799 0.50726 0.0
C2634 C 0.98041 0.25987 0.5268 0.0
C2635 C 0.02155 0.34382 0.51285 0.0
N2636 N 0.06594 0.27229 0.52891 0.0
N2637 N 0.9355 0.31249 0.50636 0.0
H2638 H 0.07918 0.41475 0.50682 0.0
H2639 H 0.01731 0.40037 0.50383 0.0
H2640 H 0.89636 0.28747 0.50647 0.0
H2641 H 0.94827 0.33538 0.49975 0.0
H2642 H 0.05386 0.23938 0.5333 0.0
H2643 H 0.10461 0.28976 0.52707 0.0
H2644 H 0.98084 0.21013 0.53853 0.0
H2645 H 0.92069 0.1932 0.5337 0.0
C2646 C 0.67889 0.68344 0.51333 0.0
C2647 C 0.69039 0.72817 0.5191 0.0
C2648 C 0.76334 0.72547 0.52721 0.0
C2649 C 0.74958 0.67904 0.52197 0.0
N2650 N 0.70756 0.62616 0.50716 0.0
N2651 N 0.74802 0.79611 0.53036 0.0
C2652 C 0.71163 0.66197 0.51409 0.0
C2653 C 0.73418 0.7505 0.52567 0.0
N2654 N 0.63472 0.65903 0.50769 0.0
N2655 N 0.80629 0.74679 0.53326 0.0
H2656 H 0.73177 0.81836 0.52844 0.0
H2657 H 0.7761 0.81315 0.53601 0.0
H2658 H 0.83119 0.73236 0.53355 0.0
H2659 H 0.81951 0.77998 0.53756 0.0
H2660 H 0.62149 0.62345 0.50429 0.0
H2661 H 0.60845 0.67163 0.50721 0.0
H2662 H 0.68391 0.61527 0.50066 0.0
H2663 H 0.73298 0.61259 0.50712 0.0
C2664 C 0.33917 1.00289 0.51376 0.0
C2665 C 0.29513 0.96891 0.51963 0.0
C2666 C 0.29845 0.04346 0.52822 0.0
C2667 C 0.34304 0.0773 0.52251 0.0
N2668 N 0.39218 0.08828 0.50704 0.0
N2669 N 0.22446 0.95873 0.53 0.0
C2670 C 0.35886 0.05679 0.51435 0.0
C2671 C 0.27241 0.98982 0.52617 0.0
N2672 N 0.36488 0.9845 0.50818 0.0
N2673 N 0.2803 0.06279 0.53556 0.0
H2674 H 0.20289 0.92011 0.52817 0.0
H2675 H 0.20366 0.9719 0.53406 0.0
H2676 H 0.29308 0.10167 0.53623 0.0
H2677 H 0.25342 0.04047 0.54114 0.0
H2678 H 0.40001 1.00804 0.50467 0.0
H2679 H 0.35424 0.94608 0.50795 0.0
H2680 H 0.40003 0.07504 0.50022 0.0
H2681 H 0.40903 0.1276 0.50743 0.0
C2682 C 0.95821 0.36189 0.35084 0.0
C2683 C 1.00637 0.38522 0.35596 0.0
C2684 C 0.98945 0.29875 0.36065 0.0
C2685 C 0.94831 0.27652 0.35349 0.0
N2686 N 0.89173 0.28774 0.34199 0.0
N2687 N 0.07051 0.37301 0.3648 0.0
C2688 C 0.93228 0.30847 0.34866 0.0
C2689 C 0.0225 0.35293 0.36076 0.0
N2690 N 0.93575 0.39023 0.34851 0.0
N2691 N 0.99688 0.26842 0.36742 0.0
H2692 H 0.09781 0.41147 0.36439 0.0
H2693 H 0.08534 0.35058 0.3675 0.0
H2694 H 0.97088 0.22969 0.36805 0.0
H2695 H 0.024 0.28267 0.37334 0.0
H2696 H 0.89893 0.37464 0.34553 0.0
H2697 H 0.95126 0.42822 0.35073 0.0
H2698 H 0.88303 0.30957 0.33703 0.0
H2699 H 0.86772 0.24849 0.34119 0.0
C2700 C 0.72198 0.69046 0.34695 0.0
C2701 C 0.74879 0.67124 0.35279 0.0
C2702 C 0.66699 0.60561 0.36037 0.0
C2703 C 0.64039 0.62542 0.35466 0.0
N2704 N 0.6451 0.69595 0.34505 0.0
N2705 N 0.74834 0.6179 0.3667 0.0
C2706 C 0.66869 0.67046 0.34865 0.0
C2707 C 0.72168 0.63108 0.36002 0.0
N2708 N 0.74719 0.72745 0.33963 0.0
N2709 N 0.63996 0.56116 0.3658 0.0
H2710 H 0.78795 0.6345 0.3664 0.0
H2711 H 0.73181 0.59349 0.37299 0.0
H2712 H 0.60024 0.54144 0.36622 0.0
H2713 H 0.65648 0.54175 0.36924 0.0
H2714 H 0.72876 0.73856 0.33427 0.0
H2715 H 0.78632 0.74461 0.33836 0.0
H2716 H 0.66428 0.73166 0.34152 0.0
H2717 H 0.6071 0.68403 0.34671 0.0
C2718 C 0.33246 0.03488 0.34661 0.0
C2719 C 0.35002 0.07909 0.35289 0.0
C2720 C 0.4126 0.05944 0.36101 0.0
C2721 C 0.39358 0.01426 0.35495 0.0
N2722 N 0.32411 0.95163 0.34467 0.0
N2723 N 0.40068 0.12855 0.36738 0.0
C2724 C 0.35041 1.00005 0.34848 0.0
C2725 C 0.38814 0.08972 0.36053 0.0
N2726 N 0.29887 0.02613 0.33871 0.0
N2727 N 0.45533 0.07464 0.36693 0.0
H2728 H 0.38572 0.15292 0.36687 0.0
H2729 H 0.42327 0.13463 0.37393 0.0
H2730 H 0.47382 0.05347 0.36754 0.0
H2731 H 0.47446 0.10971 0.37068 0.0
H2732 H 0.28956 0.99813 0.3331 0.0
H2733 H 0.28301 0.04916 0.33729 0.0
H2734 H 0.28968 0.93713 0.34067 0.0
H2735 H 0.33301 0.9239 0.34681 0.0
C2736 C 0.17132 0.33972 0.09919 0.0
C2737 C 0.21762 0.35192 0.09407 0.0
C2738 C 0.25274 0.3397 0.11033 0.0
C2739 C 0.20552 0.32496 0.11527 0.0
N2740 N 0.11738 0.30369 0.11433 0.0
N2741 N 0.30019 0.35827 0.09417 0.0
C2742 C 0.16404 0.32281 0.10966 0.0
C2743 C 0.2578 0.35047 0.09948 0.0
N2744 N 0.13509 0.3462 0.09413 0.0
N2745 N 0.29293 0.34449 0.11609 0.0
H2746 H 0.3052 0.3668 0.08626 0.0
H2747 H 0.32886 0.35304 0.09736 0.0
H2748 H 0.28992 0.33553 0.12398 0.0
H2749 H 0.32996 0.36008 0.11328 0.0
H2750 H 0.10305 0.34343 0.09773 0.0
H2751 H 0.1387 0.35832 0.08644 0.0
H2752 H 0.08415 0.29572 0.11039 0.0
H2753 H 0.11066 0.29194 0.12207 0.0
C2754 C 0.71078 0.915 0.09716 0.0
C2755 C 0.66585 0.87052 0.09378 0.0
C2756 C 0.63552 0.85446 0.11172 0.0
C2757 C 0.68513 0.89001 0.1153 0.0
N2758 N 0.74845 0.97619 0.11104 0.0
N2759 N 0.5861 0.79507 0.09827 0.0
C2760 C 0.71785 0.927 0.10795 0.0
C2761 C 0.62817 0.83964 0.10117 0.0
N2762 N 0.74651 0.94608 0.0901 0.0
N2763 N 0.59436 0.84065 0.11798 0.0
H2764 H 0.57959 0.78148 0.09066 0.0
H2765 H 0.5603 0.7695 0.10367 0.0
H2766 H 0.59814 0.85759 0.12523 0.0
H2767 H 0.55685 0.81816 0.11542 0.0
H2768 H 0.78251 0.97543 0.09226 0.0
H2769 H 0.74118 0.94079 0.0821 0.0
H2770 H 0.77031 1.00598 0.10594 0.0
H2771 H 0.74506 0.98821 0.11844 0.0
C2772 C 0.15052 0.77808 0.11227 0.0
C2773 C 0.13163 0.81081 0.11513 0.0
C2774 C 0.11851 0.82166 0.09673 0.0
C2775 C 0.14679 0.79769 0.09392 0.0
N2776 N 0.19672 0.75942 0.09939 0.0
N2777 N 0.10463 0.87043 0.10982 0.0
C2778 C 0.16425 0.77698 0.10178 0.0
C2779 C 0.11688 0.83403 0.1073 0.0
N2780 N 0.15532 0.74807 0.11961 0.0
N2781 N 0.09311 0.83252 0.08929 0.0
H2782 H 0.10473 0.88235 0.1174 0.0
H2783 H 0.09903 0.89226 0.10426 0.0
H2784 H 0.09272 0.82294 0.08149 0.0
H2785 H 0.06824 0.84589 0.09102 0.0
H2786 H 0.16468 0.72022 0.11779 0.0
H2787 H 0.14463 0.74735 0.12733 0.0
H2788 H 0.21473 0.74914 0.10502 0.0
H2789 H 0.2096 0.75959 0.09189 0.0
C2790 C 0.37852 0.26429 0.4415 0.0
C2791 C 0.34992 0.22482 0.44879 0.0
C2792 C 0.29516 0.17142 0.43468 0.0
C2793 C 0.32952 0.20624 0.42726 0.0
N2794 N 0.40373 0.28795 0.42357 0.0
N2795 N 0.26062 0.16618 0.4517 0.0
C2796 C 0.37127 0.25337 0.43065 0.0
C2797 C 0.30191 0.18518 0.44529 0.0
N2798 N 0.40464 0.31362 0.44479 0.0
N2799 N 0.25688 0.12438 0.43176 0.0
H2800 H 0.26273 0.18198 0.45901 0.0
H2801 H 0.22375 0.14023 0.44921 0.0
H2802 H 0.25126 0.11153 0.4241 0.0
H2803 H 0.23396 0.0966 0.43716 0.0
H2804 H 0.423 0.34472 0.4398 0.0
H2805 H 0.40053 0.32346 0.45235 0.0
H2806 H 0.43808 0.31995 0.42567 0.0
H2807 H 0.39767 0.2832 0.41558 0.0
C2808 C 0.85792 0.171 0.43269 0.0
C2809 C 0.81562 0.1329 0.42708 0.0
C2810 C 0.76444 0.10579 0.44302 0.0
C2811 C 0.80535 0.14665 0.4484 0.0
N2812 N 0.88829 0.22279 0.4482 0.0
N2813 N 0.72748 0.06665 0.42641 0.0
C2814 C 0.85141 0.18052 0.44319 0.0
C2815 C 0.76852 0.10085 0.43212 0.0
N2816 N 0.90476 0.19707 0.42804 0.0
N2817 N 0.72231 0.07121 0.44841 0.0
H2818 H 0.72955 0.06149 0.41845 0.0
H2819 H 0.69065 0.04562 0.42935 0.0
H2820 H 0.71791 0.07433 0.45636 0.0
H2821 H 0.69326 0.03764 0.44522 0.0
H2822 H 0.93827 0.22111 0.43203 0.0
H2823 H 0.91118 0.19151 0.42033 0.0
H2824 H 0.92008 0.25196 0.4445 0.0
H2825 H 0.88533 0.23111 0.45593 0.0
C2826 C 0.8543 0.63262 0.42983 0.0
C2827 C 0.89431 0.67989 0.42612 0.0
C2828 C 0.92467 0.70227 0.44413 0.0
C2829 C 0.87725 0.6617 0.44773 0.0
N2830 N 0.7942 0.58985 0.44361 0.0
N2831 N 0.98374 0.7336 0.42975 0.0
C2832 C 0.84139 0.62711 0.44048 0.0
C2833 C 0.93467 0.70845 0.43324 0.0
N2834 N 0.83422 0.5907 0.4236 0.0
N2835 N 0.96035 0.73467 0.45105 0.0
H2836 H 0.99266 0.72898 0.42215 0.0
H2837 H 0.0154 0.7518 0.43461 0.0
H2838 H 0.95628 0.72918 0.45907 0.0
H2839 H 0.9927 0.76841 0.44881 0.0
H2840 H 0.80793 0.55429 0.42626 0.0
H2841 H 0.84951 0.59173 0.41628 0.0
H2842 H 0.76579 0.56684 0.43832 0.0
H2843 H 0.78194 0.58517 0.4513 0.0
C2844 C 0.77084 0.64849 0.93001 0.0
C2845 C 0.81747 0.69027 0.92643 0.0
C2846 C 0.83893 0.72041 0.94429 0.0
C2847 C 0.80022 0.67243 0.94802 0.0
N2848 N 0.71143 0.61565 0.94431 0.0
N2849 N 0.89855 0.76495 0.93053 0.0
C2850 C 0.76054 0.64242 0.94088 0.0
C2851 C 0.85214 0.72618 0.93366 0.0
N2852 N 0.73624 0.61478 0.92309 0.0
N2853 N 0.85729 0.76235 0.95049 0.0
H2854 H 0.91096 0.77004 0.92285 0.0
H2855 H 0.92634 0.78907 0.93581 0.0
H2856 H 0.84153 0.76069 0.95779 0.0
H2857 H 0.88247 0.79909 0.94783 0.0
H2858 H 0.70478 0.58036 0.92536 0.0
H2859 H 0.74039 0.61998 0.91507 0.0
H2860 H 0.68009 0.59627 0.93941 0.0
H2861 H 0.70183 0.61987 0.95188 0.0
C2862 C 0.30876 0.08755 0.93251 0.0
C2863 C 0.34103 0.12606 0.92536 0.0
C2864 C 0.39675 0.17533 0.93974 0.0
C2865 C 0.35928 0.14258 0.94697 0.0
N2866 N 0.27968 0.06514 0.95027 0.0
N2867 N 0.4318 0.17761 0.9229 0.0
C2868 C 0.31519 0.09794 0.94337 0.0
C2869 C 0.39016 0.16206 0.92911 0.0
N2870 N 0.27947 0.03865 0.92913 0.0
N2871 N 0.43792 0.22007 0.94288 0.0
H2872 H 0.42881 0.1617 0.91557 0.0
H2873 H 0.46906 0.20048 0.92556 0.0
H2874 H 0.44379 0.23248 0.95057 0.0
H2875 H 0.4635 0.24682 0.93761 0.0
H2876 H 0.25842 1.00787 0.93407 0.0
H2877 H 0.28338 0.0281 0.92163 0.0
H2878 H 0.24415 0.03546 0.94797 0.0
H2879 H 0.28462 0.06927 0.9583 0.0
C2880 C 0.92604 0.24687 0.931 0.0
C2881 C 0.8898 0.20278 0.92557 0.0
C2882 C 0.83669 0.17065 0.94122 0.0
C2883 C 0.87411 0.21375 0.94678 0.0
N2884 N 0.9563 0.29009 0.94757 0.0
N2885 N 0.81308 0.12048 0.92536 0.0
C2886 C 0.91932 0.2512 0.94183 0.0
C2887 C 0.84575 0.16398 0.93065 0.0
N2888 N 0.96609 0.28509 0.92571 0.0
N2889 N 0.7921 0.13673 0.94605 0.0
H2890 H 0.81837 0.11428 0.91762 0.0
H2891 H 0.78204 0.08887 0.92865 0.0
H2892 H 0.78399 0.14038 0.95376 0.0
H2893 H 0.76143 0.10622 0.94239 0.0
H2894 H 0.99117 0.32057 0.92886 0.0
H2895 H 0.97267 0.28253 0.91784 0.0
H2896 H 0.9924 0.31593 0.94477 0.0
H2897 H 0.95208 0.2948 0.95546 0.0
C2898 C 0.72493 0.82488 0.59623 0.0
C2899 C 0.67604 0.78826 0.59247 0.0
C2900 C 0.64913 0.76145 0.61047 0.0
C2901 C 0.69316 0.80607 0.61406 0.0
N2902 N 0.77269 0.88268 0.61007 0.0
N2903 N 0.61509 0.70086 0.59646 0.0
C2904 C 0.73124 0.8383 0.60687 0.0
C2905 C 0.64361 0.75015 0.59967 0.0
N2906 N 0.76665 0.841 0.59001 0.0
N2907 N 0.61277 0.72948 0.61733 0.0
H2908 H 0.6199 0.68971 0.58908 0.0
H2909 H 0.59379 0.67053 0.60149 0.0
H2910 H 0.61681 0.73441 0.62536 0.0
H2911 H 0.57738 0.69978 0.61496 0.0
H2912 H 0.80387 0.86433 0.59265 0.0
H2913 H 0.76393 0.8251 0.58269 0.0
H2914 H 0.79866 0.90944 0.60486 0.0
H2915 H 0.7786 0.8948 0.61778 0.0
C2916 C 0.25341 0.91677 0.59703 0.0
C2917 C 0.22272 0.86897 0.59215 0.0
C2918 C 0.1748 0.83403 0.60825 0.0
C2919 C 0.20803 0.88043 0.61338 0.0
N2920 N 0.28433 0.96315 0.61322 0.0
N2921 N 0.16195 0.77903 0.59361 0.0
C2922 C 0.24893 0.92114 0.60793 0.0
C2923 C 0.18578 0.82664 0.59792 0.0
N2924 N 0.28587 0.95815 0.59119 0.0
N2925 N 0.13135 0.79787 0.61305 0.0
H2926 H 0.16875 0.77189 0.58604 0.0
H2927 H 0.13906 0.74599 0.59785 0.0
H2928 H 0.12082 0.80226 0.62052 0.0
H2929 H 0.10312 0.7657 0.60928 0.0
H2930 H 0.30514 0.99521 0.59407 0.0
H2931 H 0.29074 0.95594 0.58323 0.0
H2932 H 0.31769 0.99183 0.60986 0.0
H2933 H 0.2826 0.96733 0.62122 0.0
C2934 C 0.10305 0.31604 0.59646 0.0
C2935 C 0.14962 0.35817 0.59294 0.0
C2936 C 0.17052 0.38754 0.61087 0.0
C2937 C 0.13188 0.33938 0.61452 0.0
N2938 N 0.04324 0.2826 0.61069 0.0
N2939 N 0.23056 0.43266 0.59721 0.0
C2940 C 0.09245 0.30948 0.60732 0.0
C2941 C 0.18403 0.39378 0.60025 0.0
N2942 N 0.06868 0.28252 0.58948 0.0
N2943 N 0.18882 0.42917 0.61716 0.0
H2944 H 0.2433 0.43798 0.58955 0.0
H2945 H 0.25816 0.45653 0.60255 0.0
H2946 H 0.17316 0.4271 0.62449 0.0
H2947 H 0.21396 0.46605 0.61456 0.0
H2948 H 0.03728 0.24793 0.59169 0.0
H2949 H 0.073 0.28807 0.58147 0.0
H2950 H 1.01207 0.26316 0.60575 0.0
H2951 H 0.03334 0.28702 0.61822 0.0
C2952 C 0.9603 0.50988 0.76847 0.0
C2953 C 0.99687 0.53891 0.76073 0.0
C2954 C 0.06255 0.57886 0.77424 0.0
C2955 C 0.02508 0.55238 0.782 0.0
N2956 N 0.93591 0.50474 0.78651 0.0
N2957 N 0.07916 0.6109 0.75657 0.0
C2958 C 0.97312 0.52195 0.7791 0.0
C2959 C 0.04686 0.5767 0.76373 0.0
N2960 N 0.91454 0.46865 0.76579 0.0
N2961 N 0.11324 0.60351 0.77671 0.0
H2962 H 0.06846 0.61102 0.74887 0.0
H2963 H 0.11435 0.64215 0.75853 0.0
H2964 H 0.12672 0.6049 0.78423 0.0
H2965 H 0.14204 0.61865 0.77115 0.0
H2966 H 0.88902 0.44329 0.77124 0.0
H2967 H 0.90415 0.45664 0.75815 0.0
H2968 H 0.89713 0.48617 0.78472 0.0
H2969 H 0.94395 0.51397 0.79435 0.0
C2970 C 0.52614 0.51385 0.76651 0.0
C2971 C 0.4858 0.47294 0.761 0.0
C2972 C 0.43559 0.4433 0.7771 0.0
C2973 C 0.47425 0.48661 0.78238 0.0
N2974 N 0.55252 0.56761 0.78179 0.0
N2975 N 0.40013 0.40152 0.76059 0.0
C2976 C 0.51851 0.52311 0.77699 0.0
C2977 C 0.43993 0.43831 0.76618 0.0
N2978 N 0.57245 0.54291 0.76182 0.0
N2979 N 0.39544 0.40641 0.78259 0.0
H2980 H 0.40236 0.39645 0.75264 0.0
H2981 H 0.36382 0.37826 0.76362 0.0
H2982 H 0.39085 0.40931 0.79054 0.0
H2983 H 0.36861 0.3714 0.77949 0.0
H2984 H 0.60505 0.56945 0.76575 0.0
H2985 H 0.57972 0.53752 0.75415 0.0
H2986 H 0.58236 0.59821 0.77793 0.0
H2987 H 0.54857 0.57597 0.78946 0.0
C2988 C 0.5182 0.96027 0.7635 0.0
C2989 C 0.55667 1.00868 0.75989 0.0
C2990 C 0.58523 0.03144 0.77802 0.0
C2991 C 0.53884 0.98891 0.7815 0.0
N2992 N 0.45826 0.91427 0.77713 0.0
N2993 N 0.64512 0.06601 0.76382 0.0
C2994 C 0.5046 0.95357 0.77413 0.0
C2995 C 0.59589 0.03855 0.76715 0.0
N2996 N 0.50061 0.91871 0.75721 0.0
N2997 N 0.61942 0.06479 0.78504 0.0
H2998 H 0.65524 0.06215 0.75627 0.0
H2999 H 0.6762 0.0854 0.76878 0.0
H3000 H 0.61508 0.05889 0.79305 0.0
H3001 H 0.65066 0.09961 0.78289 0.0
H3002 H 0.47569 0.88173 0.75979 0.0
H3003 H 0.51684 0.92093 0.74994 0.0
H3004 H 0.43077 0.89046 0.77177 0.0
H3005 H 0.44553 0.90853 0.7848 0.0
C3006 C 0.43797 0.98283 0.26293 0.0
C3007 C 0.4844 0.02441 0.25926 0.0
C3008 C 0.50768 0.05413 0.27713 0.0
C3009 C 0.46843 1.00647 0.28089 0.0
N3010 N 0.37909 0.95166 0.27731 0.0
N3011 N 0.56583 0.09891 0.26313 0.0
C3012 C 0.42815 0.97706 0.27381 0.0
C3013 C 0.51986 0.06002 0.26643 0.0
N3014 N 0.40299 0.94907 0.25608 0.0
N3015 N 0.52752 0.09591 0.28341 0.0
H3016 H 0.57695 0.10442 0.25536 0.0
H3017 H 0.59444 0.12276 0.26829 0.0
H3018 H 0.51263 0.09442 0.29079 0.0
H3019 H 0.55311 0.13258 0.28077 0.0
H3020 H 0.37122 0.91505 0.25842 0.0
H3021 H 0.40737 0.95357 0.24804 0.0
H3022 H 0.34753 0.93292 0.27243 0.0
H3023 H 0.37001 0.95679 0.28486 0.0
C3024 C 0.0216 0.52069 0.27547 0.0
C3025 C 0.0286 0.48375 0.28091 0.0
C3026 C 1.01271 0.43438 0.26483 0.0
C3027 C 1.00268 0.46973 0.25957 0.0
N3028 N 0.98901 0.54166 0.26015 0.0
N3029 N 0.0252 0.40261 0.2813 0.0
C3030 C 1.00472 0.51154 0.26498 0.0
C3031 C 0.02261 0.43974 0.27573 0.0
N3032 N 0.03277 0.56542 0.28025 0.0
N3033 N 0.01402 0.3965 0.25932 0.0
H3034 H 0.03311 0.40578 0.28924 0.0
H3035 H 0.01613 0.36722 0.27828 0.0
H3036 H 1.00611 0.39106 0.25139 0.0
H3037 H 0.02609 0.37248 0.26239 0.0
H3038 H 0.03407 0.59629 0.27639 0.0
H3039 H 0.04493 0.57362 0.28794 0.0
H3040 H 0.98407 0.56912 0.26397 0.0
H3041 H 0.97667 0.53651 0.25245 0.0
C3042 C 0.51049 0.49804 0.26446 0.0
C3043 C 0.55371 0.53596 0.25904 0.0
C3044 C 0.58736 0.58406 0.27524 0.0
C3045 C 0.54204 0.5483 0.28043 0.0
N3046 N 0.45633 0.4765 0.27961 0.0
N3047 N 0.63064 0.61785 0.2588 0.0
C3048 C 0.50242 0.50673 0.27493 0.0
C3049 C 0.59153 0.5798 0.26431 0.0
N3050 N 0.47798 0.45285 0.2597 0.0
N3051 N 0.62682 0.62124 0.28083 0.0
H3052 H 0.63512 0.61555 0.25082 0.0
H3053 H 0.65655 0.65313 0.26193 0.0
H3054 H 0.6247 0.62576 0.28881 0.0
H3055 H 0.66286 0.64529 0.27776 0.0
H3056 H 0.44917 0.42157 0.2636 0.0
H3057 H 0.48251 0.44476 0.25204 0.0
H3058 H 0.42419 0.4493 0.27564 0.0
H3059 H 0.44865 0.48156 0.28727 0.0
C3060 C 0.98025 0.18274 0.27443 0.0
C3061 C 0.99044 0.15168 0.28119 0.0
C3062 C 0.0369 0.13757 0.26709 0.0
C3063 C 0.03149 0.17312 0.26076 0.0
N3064 N 1.00228 0.23359 0.25871 0.0
N3065 N 0.03431 0.10485 0.28444 0.0
C3066 C 1.00454 0.197 0.26455 0.0
C3067 C 0.02008 0.13022 0.27762 0.0
N3068 N 0.94516 0.19643 0.27722 0.0
N3069 N 0.05801 0.11063 0.26305 0.0
H3070 H 0.02394 0.09974 0.29225 0.0
H3071 H 0.0601 0.09277 0.28262 0.0
H3072 H 0.07393 0.11715 0.25565 0.0
H3073 H 0.05638 0.07922 0.26675 0.0
H3074 H 0.93193 0.2143 0.27221 0.0
H3075 H 0.92544 0.18569 0.28425 0.0
H3076 H 0.98934 0.25722 0.26158 0.0
H3077 H 0.01632 0.24265 0.25115 0.0
C3078 C 0.86078 0.88824 0.28013 0.0
C3079 C 0.87351 0.84958 0.28182 0.0
C3080 C 0.86485 0.83038 0.26312 0.0
C3081 C 0.85302 0.86966 0.26139 0.0
N3082 N 0.84741 0.94144 0.26783 0.0
N3083 N 0.8972 0.79044 0.27494 0.0
C3084 C 0.85353 0.90039 0.26978 0.0
C3085 C 0.87831 0.82255 0.2733 0.0
N3086 N 0.85366 0.91192 0.28846 0.0
N3087 N 0.86245 0.80004 0.25504 0.0
H3088 H 0.90733 0.78375 0.28228 0.0
H3089 H 0.90683 0.77356 0.26901 0.0
H3090 H 0.85556 0.80636 0.24739 0.0
H3091 H 0.86441 0.7669 0.25594 0.0
H3092 H 0.83878 0.93626 0.28791 0.0
H3093 H 0.85977 0.90485 0.29611 0.0
H3094 H 0.85361 0.96904 0.27334 0.0
H3095 H 0.83925 0.94998 0.26047 0.0
C3096 C 0.16071 0.0456 0.27445 0.0
C3097 C 0.17553 0.02239 0.28228 0.0
C3098 C 0.17272 0.96085 0.26941 0.0
C3099 C 0.15618 0.98304 0.2617 0.0
N3100 N 0.13287 0.04663 0.25714 0.0
N3101 N 0.18644 0.95218 0.28771 0.0
C3102 C 0.1492 0.02474 0.2643 0.0
C3103 C 0.17908 0.97843 0.27987 0.0
N3104 N 0.15857 0.0887 0.27655 0.0
N3105 N 0.18377 0.92383 0.26666 0.0
H3106 H 0.1901 0.96315 0.29547 0.0
H3107 H 0.18431 0.91708 0.2867 0.0
H3108 H 0.17719 0.90807 0.25924 0.0
H3109 H 0.20253 0.91094 0.27152 0.0
H3110 H 0.14842 0.10705 0.27096 0.0
H3111 H 0.1682 0.10684 0.28374 0.0
H3112 H 0.12365 0.0343 0.24947 0.0
H3113 H 0.12365 0.0343 0.24947 0.0
C3114 C 1.00424 0.80447 0.77475 0.0
C3115 C 0.99391 0.83945 0.78001 0.0
C3116 C 0.03139 0.89938 0.76543 0.0
C3117 C 0.03571 0.86167 0.75969 0.0
N3118 N 0.01456 0.7738 0.75814 0.0
N3119 N 0.98809 0.91619 0.77934 0.0
C3120 C 0.01875 0.81287 0.76414 0.0
C3121 C 1.00478 0.88587 0.77507 0.0
N3122 N 1.00214 0.76414 0.77998 0.0
N3123 N 0.05423 0.94852 0.76191 0.0
H3124 H 0.96715 0.90695 0.78622 0.0
H3125 H 0.99062 0.94781 0.77555 0.0
H3126 H 0.07524 0.96031 0.75504 0.0
H3127 H 0.05656 0.97848 0.7663 0.0
H3128 H 0.0143 0.74049 0.77676 0.0
H3129 H 0.99342 0.75751 0.78786 0.0
H3130 H 0.99756 0.73626 0.76077 0.0
H3131 H 0.02305 0.77776 0.75023 0.0
C3132 C 0.20841 0.1805 0.76175 0.0
C3133 C 0.15825 0.17034 0.75942 0.0
C3134 C 0.13082 0.13933 0.77727 0.0
C3135 C 0.18124 0.15031 0.77968 0.0
N3136 N 0.26829 0.18097 0.77447 0.0
N3137 N 0.06981 0.13348 0.76424 0.0
C3138 C 0.2201 0.17077 0.77196 0.0
C3139 C 0.11887 0.14768 0.76698 0.0
N3140 N 0.24406 0.19709 0.75399 0.0
N3141 N 0.09508 0.12342 0.785 0.0
H3142 H 0.06002 0.14182 0.75703 0.0
H3143 H 0.03811 0.11088 0.76883 0.0
H3144 H 0.10251 0.1175 0.79263 0.0
H3145 H 0.05903 0.11931 0.78414 0.0
H3146 H 0.28034 0.20175 0.75472 0.0
H3147 H 0.23659 0.2039 0.74642 0.0
H3148 H 0.30015 0.20115 0.76978 0.0
H3149 H 0.27728 0.17024 0.7815 0.0
C3150 C 0.846 0.04988 0.77299 0.0
C3151 C 0.86668 0.03102 0.78061 0.0
C3152 C 0.86719 0.97115 0.76778 0.0
C3153 C 0.84648 0.98977 0.76017 0.0
N3154 N 0.82447 0.05265 0.75486 0.0
N3155 N 0.89835 0.9736 0.78491 0.0
C3156 C 0.83795 0.03065 0.76261 0.0
C3157 C 0.87809 0.99233 0.7779 0.0
N3158 N 0.83338 0.08579 0.77574 0.0
N3159 N 0.87634 0.93243 0.76543 0.0
H3160 H 0.90722 0.98603 0.79258 0.0
H3161 H 0.90722 0.98603 0.79258 0.0
H3162 H 0.86785 0.91437 0.75822 0.0
H3163 H 0.89187 0.91799 0.77079 0.0
H3164 H 0.81209 0.09641 0.77109 0.0
H3165 H 0.84217 0.10362 0.78297 0.0
H3166 H 0.82292 0.08598 0.75574 0.0
H3167 H 0.81831 0.03965 0.74722 0.0
C3168 C 0.64608 0.5168 0.60801 0.0
C3169 C 0.65946 0.48925 0.61509 0.0
C3170 C 0.70838 0.4769 0.60122 0.0
C3171 C 0.6996 0.50925 0.59453 0.0
N3172 N 0.66321 0.56328 0.59176 0.0
N3173 N 0.70734 0.44697 0.6188 0.0
C3174 C 0.6694 0.53019 0.59801 0.0
C3175 C 0.69134 0.46992 0.61176 0.0
N3176 N 0.6091 0.52809 0.61066 0.0
N3177 N 0.73302 0.45273 0.5975 0.0
H3178 H 0.69614 0.44156 0.62657 0.0
H3179 H 0.73481 0.43682 0.61721 0.0
H3180 H 0.74902 0.45931 0.5901 0.0
H3181 H 0.73469 0.42359 0.60146 0.0
H3182 H 0.59357 0.54317 0.6055 0.0
H3183 H 0.59028 0.51803 0.61779 0.0
H3184 H 0.64769 0.58522 0.59431 0.0
H3185 H 0.6764 0.57127 0.58413 0.0
C3186 C 0.52853 0.22146 0.61281 0.0
C3187 C 0.53589 0.17934 0.61467 0.0
C3188 C 0.52468 0.15844 0.59605 0.0
C3189 C 0.51836 0.20118 0.59413 0.0
N3190 N 0.52221 0.27821 0.60029 0.0
N3191 N 0.55173 0.11429 0.60799 0.0
C3192 C 0.52296 0.2343 0.6024 0.0
C3193 C 0.537 0.14966 0.60626 0.0
N3194 N 0.52471 0.24786 0.62103 0.0
N3195 N 0.51826 0.12584 0.58811 0.0
H3196 H 0.56138 0.10708 0.61533 0.0
H3197 H 0.5587 0.09513 0.60209 0.0
H3198 H 0.5123 0.13257 0.58043 0.0
H3199 H 0.51589 0.09064 0.58919 0.0
H3200 H 0.51388 0.2754 0.62035 0.0
H3201 H 0.52908 0.23993 0.62873 0.0
H3202 H 0.53176 0.30713 0.60569 0.0
H3203 H 0.51524 0.28754 0.5929 0.0
C3204 C 0.83802 0.38579 0.60718 0.0
C3205 C 0.84217 0.35676 0.61544 0.0
C3206 C 0.82317 0.28686 0.60327 0.0
C3207 C 0.82417 0.31783 0.59486 0.0
N3208 N 0.83658 0.39824 0.58854 0.0
N3209 N 0.84231 0.28118 0.62135 0.0
C3210 C 0.83223 0.36758 0.59676 0.0
C3211 C 0.83579 0.30773 0.61346 0.0
N3212 N 0.8399 0.43094 0.60929 0.0
N3213 N 0.80774 0.23662 0.60158 0.0
H3214 H 0.84723 0.29288 0.62908 0.0
H3215 H 0.84555 0.24891 0.62018 0.0
H3216 H 0.79758 0.21964 0.59427 0.0
H3217 H 0.80066 0.21047 0.6075 0.0
H3218 H 0.83112 0.45107 0.6039 0.0
H3219 H 0.84722 0.44711 0.61667 0.0
H3220 H 0.84731 0.43653 0.58923 0.0
H3221 H 0.83318 0.38651 0.58083 0.0
C3222 C 0.63767 0.15412 0.0932 0.0
C3223 C 0.68948 0.19145 0.09138 0.0
C3224 C 0.70042 0.21184 0.11009 0.0
C3225 C 0.65031 0.17069 0.11203 0.0
N3226 N 0.57138 0.10115 0.10552 0.0
N3227 N 0.77206 0.2527 0.0982 0.0
C3228 C 0.61905 0.14138 0.10359 0.0
C3229 C 0.72123 0.21987 0.09985 0.0
N3230 N 0.60564 0.13235 0.08492 0.0
N3231 N 0.72822 0.24344 0.11805 0.0
H3232 H 0.78897 0.25945 0.0909 0.0
H3233 H 0.79848 0.27046 0.10414 0.0
H3234 H 0.71625 0.2368 0.12576 0.0
H3235 H 0.76171 0.27806 0.11695 0.0
H3236 H 0.56634 0.10886 0.08558 0.0
H3237 H 0.61769 0.14135 0.07723 0.0
H3238 H 0.54923 0.07413 0.09997 0.0
H3239 H 0.5547 0.09293 0.11287 0.0
C3240 C 0.83045 0.51868 0.11167 0.0
C3241 C 0.84758 0.48338 0.11363 0.0
C3242 C 0.84004 0.46236 0.09497 0.0
C3243 C 0.82648 0.50013 0.09292 0.0
N3244 N 0.80386 0.56122 0.09906 0.0
N3245 N 0.87343 0.42499 0.10719 0.0
C3246 C 0.82031 0.52748 0.10122 0.0
C3247 C 0.85307 0.45566 0.1053 0.0
N3248 N 0.8245 0.54402 0.11985 0.0
N3249 N 0.83949 0.4322 0.08702 0.0
H3250 H 0.8834 0.41896 0.11459 0.0
H3251 H 0.88385 0.40805 0.1014 0.0
H3252 H 0.83141 0.43694 0.07936 0.0
H3253 H 0.84315 0.40009 0.08806 0.0
H3254 H 0.81533 0.57268 0.1192 0.0
H3255 H 0.82876 0.53629 0.12756 0.0
H3256 H 0.79652 0.5817 0.10456 0.0
H3257 H 0.79604 0.56827 0.09154 0.0
C3258 C 0.54 0.32352 0.11046 0.0
C3259 C 0.53881 0.36879 0.11287 0.0
C3260 C 0.52015 0.37667 0.09446 0.0
C3261 C 0.51967 0.33055 0.09213 0.0
N3262 N 0.53672 0.26403 0.09738 0.0
N3263 N 0.52786 0.43883 0.10735 0.0
C3264 C 0.53201 0.30527 0.09999 0.0
C3265 C 0.52903 0.3955 0.10489 0.0
N3266 N 0.54591 0.29638 0.11832 0.0
N3267 N 0.51472 0.40377 0.08652 0.0
H3268 H 0.53863 0.45631 0.1146 0.0
H3269 H 0.51483 0.45706 0.1024 0.0
H3270 H 0.50883 0.3915 0.07882 0.0
H3271 H 0.51913 0.4399 0.08729 0.0
H3272 H 0.54225 0.2606 0.11742 0.0
H3273 H 0.55128 0.30806 0.12605 0.0
H3274 H 0.55213 0.24772 0.10225 0.0
H3275 H 0.5278 0.2474 0.09004 0.0
C3276 C 0.32611 0.7968 0.93094 0.0
C3277 C 0.37529 0.83913 0.92881 0.0
C3278 C 0.38728 0.86097 0.94745 0.0
C3279 C 0.33725 0.8201 0.94953 0.0
N3280 N 0.26111 0.74501 0.94366 0.0
N3281 N 0.45251 0.9126 0.93479 0.0
C3282 C 0.30739 0.78666 0.94138 0.0
C3283 C 0.40583 0.87141 0.93702 0.0
N3284 N 0.29617 0.76808 0.92285 0.0
N3285 N 0.418 0.88811 0.95559 0.0
H3286 H 0.4693 0.91914 0.92747 0.0
H3287 H 0.47408 0.94171 0.94001 0.0
H3288 H 0.40617 0.8808 0.96331 0.0
H3289 H 0.45642 0.91528 0.9549 0.0
H3290 H 0.2583 0.73946 0.92355 0.0
H3291 H 0.30823 0.77463 0.91514 0.0
H3292 H 0.24004 0.71532 0.93853 0.0
H3293 H 0.24423 0.73849 0.95097 0.0
C3294 C 0.21297 0.49365 0.94078 0.0
C3295 C 0.20463 0.5188 0.94923 0.0
C3296 C 0.17835 0.56421 0.93699 0.0
C3297 C 0.18513 0.53788 0.92856 0.0
N3298 N 0.2071 0.47666 0.92219 0.0
N3299 N 0.18765 0.5836 0.95549 0.0
C3300 C 0.20228 0.50255 0.9304 0.0
C3301 C 0.18967 0.55573 0.94735 0.0
N3302 N 0.23268 0.46244 0.94273 0.0
N3303 N 0.15895 0.59574 0.93511 0.0
H3304 H 0.19459 0.57755 0.96316 0.0
H3305 H 0.18249 0.61491 0.9547 0.0
H3306 H 0.15086 0.60337 0.92766 0.0
H3307 H 0.14801 0.61233 0.94086 0.0
H3308 H 0.24452 0.44641 0.93703 0.0
H3309 H 0.24015 0.45453 0.95021 0.0
H3310 H 0.21414 0.44653 0.92289 0.0
H3311 H 0.20202 0.484 0.9145 0.0
C3312 C 0.53287 0.69828 0.93037 0.0
C3313 C 0.48793 0.65122 0.92819 0.0
C3314 C 0.46351 0.64356 0.9467 0.0
C3315 C 0.50781 0.69135 0.9488 0.0
N3316 N 0.57833 0.76928 0.94222 0.0
N3317 N 0.40642 0.58266 0.93391 0.0
C3318 C 0.54075 0.72005 0.94051 0.0
C3319 C 0.45188 0.62514 0.93625 0.0
N3320 N 0.56843 0.72215 0.92274 0.0
N3321 N 0.43374 0.61466 0.95477 0.0
H3322 H 0.39778 0.56612 0.92655 0.0
H3323 H 0.37584 0.56556 0.93904 0.0
H3324 H 0.44107 0.62664 0.96248 0.0
H3325 H 0.40395 0.57732 0.954 0.0
H3326 H 0.60494 0.75255 0.92413 0.0
H3327 H 0.56256 0.70981 0.91505 0.0
H3328 H 0.60014 0.79428 0.93634 0.0
H3329 H 0.58478 0.78696 0.94945 0.0
C3330 C 0.36062 0.48942 0.44338 0.0
C3331 C 0.3293 0.50934 0.44674 0.0
C3332 C 0.33916 0.55045 0.42964 0.0
C3333 C 0.36952 0.5296 0.42619 0.0
N3334 N 0.40945 0.47921 0.42952 0.0
N3335 N 0.29447 0.56459 0.44376 0.0
C3336 C 0.38041 0.49915 0.43302 0.0
C3337 C 0.32041 0.54168 0.44007 0.0
N3338 N 0.37323 0.46312 0.45031 0.0
N3339 N 0.32579 0.57621 0.42273 0.0
H3340 H 0.27675 0.55625 0.451 0.0
H3341 H 0.29286 0.59412 0.43997 0.0
H3342 H 0.3387 0.58343 0.41508 0.0
H3343 H 0.29929 0.58768 0.42427 0.0
H3344 H 0.39869 0.45033 0.44883 0.0
H3345 H 0.36025 0.45618 0.45796 0.0
H3346 H 0.41457 0.45213 0.43347 0.0
H3347 H 0.42792 0.48877 0.42235 0.0
C3348 C 0.4537 0.81343 0.43358 0.0
C3349 C 0.49461 0.84197 0.42656 0.0
C3350 C 0.55655 0.84934 0.4399 0.0
C3351 C 0.51582 0.82121 0.44695 0.0
N3352 N 0.42624 0.77985 0.45106 0.0
N3353 N 0.5837 0.88006 0.42229 0.0
C3354 C 0.46444 0.80369 0.44389 0.0
C3355 C 0.54575 0.85837 0.42956 0.0
N3356 N 0.40454 0.7953 0.4303 0.0
N3357 N 0.6058 0.86786 0.44314 0.0
H3358 H 0.57728 0.88679 0.41464 0.0
H3359 H 0.621 0.88819 0.4235 0.0
H3360 H 0.61532 0.85864 0.45029 0.0
H3361 H 0.63762 0.8944 0.43902 0.0
H3362 H 0.37237 0.76951 0.43443 0.0
H3363 H 0.39538 0.80456 0.42312 0.0
H3364 H 0.38828 0.76923 0.44978 0.0
H3365 H 0.43279 0.77289 0.45868 0.0
C3366 C 0.20243 0.72989 0.43896 0.0
C3367 C 0.20304 0.69923 0.44727 0.0
C3368 C 0.19142 0.63268 0.43474 0.0
C3369 C 0.18603 0.66141 0.42656 0.0
N3370 N 0.1834 0.73599 0.42087 0.0
N3371 N 0.19541 0.62043 0.45335 0.0
C3372 C 0.19074 0.70965 0.42869 0.0
C3373 C 0.19734 0.65051 0.44522 0.0
N3374 N 0.21529 0.77936 0.44082 0.0
N3375 N 0.19031 0.58802 0.43249 0.0
H3376 H 0.19946 0.63212 0.46107 0.0
H3377 H 0.18662 0.58271 0.45262 0.0
H3378 H 0.18285 0.57208 0.42508 0.0
H3379 H 0.19934 0.56773 0.43778 0.0
H3380 H 0.22108 0.80562 0.435 0.0
H3381 H 0.22458 0.79579 0.44819 0.0
H3382 H 0.17871 0.76736 0.42211 0.0
H3383 H 0.17939 0.72503 0.4131 0.0
loop_
_geom_bond_atom_site_label_1
_geom_bond_atom_site_label_2
_geom_bond_distance
_geom_bond_site_symmetry_2
_ccdc_geom_bond_type
C0 Eu1 2.835 . S
C0 C2 1.500 . S
C0 O20 1.257 . S
C0 O21 1.260 . S
Eu1 C0 2.835 . S
Eu1 O20 2.473 . S
Eu1 O21 2.480 . S
Eu1 O22 2.430 . S
Eu1 O23 2.670 . S
Eu1 O24 2.394 . S
Eu1 O29 2.355 . S
Eu1 O31 2.374 . S
C2 C0 1.500 . S
C2 C3 1.377 . S
C2 C7 1.377 . S
C3 C2 1.377 . S
C3 C4 1.395 . S
C3 H32 0.931 . S
C4 C3 1.395 . S
C4 C5 1.383 . S
C4 H33 0.931 . S
C5 C4 1.383 . S
C5 C6 1.394 . S
C6 C5 1.394 . S
C6 C7 1.378 . S
C6 H34 0.931 . S
C7 C2 1.377 . S
C7 C6 1.378 . S
C7 H35 0.931 . S
C8 O22 1.259 . S
C8 O23 1.270 . S
C9 O24 1.251 . S
C9 O25 1.251 . S
C10 Eu11 2.835 . S
C10 C12 1.500 . S
C10 O26 1.257 . S
C10 O27 1.260 . S
Eu11 C10 2.835 . S
Eu11 O23 2.355 . S
Eu11 O25 2.374 . S
Eu11 O26 2.473 . S
Eu11 O27 2.480 . S
Eu11 O28 2.430 . S
Eu11 O29 2.670 . S
Eu11 O30 2.394 . S
C12 C10 1.500 . S
C12 C13 1.377 . S
C12 C17 1.377 . S
C13 C12 1.377 . S
C13 C14 1.395 . S
C13 H36 0.931 . S
C14 C13 1.395 . S
C14 C15 1.383 . S
C14 H37 0.931 . S
C15 C14 1.383 . S
C15 C16 1.394 . S
C16 C15 1.394 . S
C16 C17 1.378 . S
C16 H38 0.931 . S
C17 C12 1.377 . S
C17 C16 1.378 . S
C17 H39 0.931 . S
C18 O28 1.259 . S
C18 O29 1.270 . S
C19 O30 1.251 . S
C19 O31 1.251 . S
O20 C0 1.257 . S
O20 Eu1 2.473 . S
O21 C0 1.260 . S
O21 Eu1 2.480 . S
O22 Eu1 2.430 . S
O22 C8 1.259 . S
O23 Eu1 2.670 . S
O23 C8 1.270 . S
O23 Eu11 2.355 . S
O24 Eu1 2.394 . S
O24 C9 1.251 . S
O25 C9 1.251 . S
O25 Eu11 2.374 . S
O26 C10 1.257 . S
O26 Eu11 2.473 . S
O27 C10 1.260 . S
O27 Eu11 2.480 . S
O28 Eu11 2.430 . S
O28 C18 1.259 . S
O29 Eu1 2.355 . S
O29 Eu11 2.670 . S
O29 C18 1.270 . S
O30 Eu11 2.394 . S
O30 C19 1.251 . S
O31 Eu1 2.374 . S
O31 C19 1.251 . S
H32 C3 0.931 . S
H33 C4 0.931 . S
H34 C6 0.931 . S
H35 C7 0.931 . S
H36 C13 0.931 . S
H37 C14 0.931 . S
H38 C16 0.931 . S
H39 C17 0.931 . S
C40 Eu41 2.835 . S
C40 C42 1.500 . S
C40 O60 1.257 . S
C40 O61 1.260 . S
Eu41 C40 2.835 . S
Eu41 O60 2.473 . S
Eu41 O61 2.480 . S
Eu41 O62 2.430 . S
Eu41 O63 2.670 . S
Eu41 O64 2.394 . S
Eu41 O69 2.355 . S
Eu41 O71 2.374 . S
C42 C40 1.500 . S
C42 C43 1.377 . S
C42 C47 1.377 . S
C43 C42 1.377 . S
C43 C44 1.395 . S
C43 H72 0.931 . S
C44 C43 1.395 . S
C44 C45 1.383 . S
C44 H73 0.931 . S
C45 C44 1.383 . S
C45 C46 1.394 . S
C46 C45 1.394 . S
C46 C47 1.378 . S
C46 H74 0.931 . S
C47 C42 1.377 . S
C47 C46 1.378 . S
C47 H75 0.931 . S
C48 O62 1.259 . S
C48 O63 1.270 . S
C49 O64 1.251 . S
C49 O65 1.251 . S
C50 Eu51 2.835 . S
C50 C52 1.500 . S
C50 O66 1.257 . S
C50 O67 1.260 . S
Eu51 C50 2.835 . S
Eu51 O63 2.355 . S
Eu51 O65 2.374 . S
Eu51 O66 2.473 . S
Eu51 O67 2.480 . S
Eu51 O68 2.430 . S
Eu51 O69 2.670 . S
Eu51 O70 2.394 . S
C52 C50 1.500 . S
C52 C53 1.377 . S
C52 C57 1.377 . S
C53 C52 1.377 . S
C53 C54 1.395 . S
C53 H76 0.931 . S
C54 C53 1.395 . S
C54 C55 1.383 . S
C54 H77 0.931 . S
C55 C54 1.383 . S
C55 C56 1.394 . S
C56 C55 1.394 . S
C56 C57 1.378 . S
C56 H78 0.931 . S
C57 C52 1.377 . S
C57 C56 1.378 . S
C57 H79 0.931 . S
C58 O68 1.259 . S
C58 O69 1.270 . S
C59 O70 1.251 . S
C59 O71 1.251 . S
O60 C40 1.257 . S
O60 Eu41 2.473 . S
O61 C40 1.260 . S
O61 Eu41 2.480 . S
O62 Eu41 2.430 . S
O62 C48 1.259 . S
O63 Eu41 2.670 . S
O63 C48 1.270 . S
O63 Eu51 2.355 . S
O64 Eu41 2.394 . S
O64 C49 1.251 . S
O65 C49 1.251 . S
O65 Eu51 2.374 . S
O66 C50 1.257 . S
O66 Eu51 2.473 . S
O67 C50 1.260 . S
O67 Eu51 2.480 . S
O68 Eu51 2.430 . S
O68 C58 1.259 . S
O69 Eu41 2.355 . S
O69 Eu51 2.670 . S
O69 C58 1.270 . S
O70 Eu51 2.394 . S
O70 C59 1.251 . S
O71 Eu41 2.374 . S
O71 C59 1.251 . S
H72 C43 0.931 . S
H73 C44 0.931 . S
H74 C46 0.931 . S
H75 C47 0.931 . S
H76 C53 0.931 . S
H77 C54 0.931 . S
H78 C56 0.931 . S
H79 C57 0.931 . S
C80 Eu81 2.835 . S
C80 C82 1.500 . S
C80 O100 1.257 . S
C80 O101 1.260 . S
Eu81 C80 2.835 . S
Eu81 O100 2.473 . S
Eu81 O101 2.480 . S
Eu81 O102 2.430 . S
Eu81 O103 2.670 . S
Eu81 O104 2.394 . S
Eu81 O109 2.355 . S
Eu81 O111 2.374 . S
C82 C80 1.500 . S
C82 C83 1.377 . S
C82 C87 1.377 . S
C83 C82 1.377 . S
C83 C84 1.395 . S
C83 H112 0.931 . S
C84 C83 1.395 . S
C84 C85 1.383 . S
C84 H113 0.931 . S
C85 C84 1.383 . S
C85 C86 1.394 . S
C86 C85 1.394 . S
C86 C87 1.378 . S
C86 H114 0.931 . S
C87 C82 1.377 . S
C87 C86 1.378 . S
C87 H115 0.931 . S
C88 O102 1.259 . S
C88 O103 1.270 . S
C89 O104 1.251 . S
C89 O105 1.251 . S
C90 Eu91 2.835 . S
C90 C92 1.500 . S
C90 O106 1.257 . S
C90 O107 1.260 . S
Eu91 C90 2.835 . S
Eu91 O103 2.355 . S
Eu91 O105 2.374 . S
Eu91 O106 2.473 . S
Eu91 O107 2.480 . S
Eu91 O108 2.430 . S
Eu91 O109 2.670 . S
Eu91 O110 2.394 . S
C92 C90 1.500 . S
C92 C93 1.377 . S
C92 C97 1.377 . S
C93 C92 1.377 . S
C93 C94 1.395 . S
C93 H116 0.931 . S
C94 C93 1.395 . S
C94 C95 1.383 . S
C94 H117 0.931 . S
C95 C94 1.383 . S
C95 C96 1.394 . S
C96 C95 1.394 . S
C96 C97 1.378 . S
C96 H118 0.931 . S
C97 C92 1.377 . S
C97 C96 1.378 . S
C97 H119 0.931 . S
C98 O108 1.259 . S
C98 O109 1.270 . S
C99 O110 1.251 . S
C99 O111 1.251 . S
O100 C80 1.257 . S
O100 Eu81 2.473 . S
O101 C80 1.260 . S
O101 Eu81 2.480 . S
O102 Eu81 2.430 . S
O102 C88 1.259 . S
O103 Eu81 2.670 . S
O103 C88 1.270 . S
O103 Eu91 2.355 . S
O104 Eu81 2.394 . S
O104 C89 1.251 . S
O105 C89 1.251 . S
O105 Eu91 2.374 . S
O106 C90 1.257 . S
O106 Eu91 2.473 . S
O107 C90 1.260 . S
O107 Eu91 2.480 . S
O108 Eu91 2.430 . S
O108 C98 1.259 . S
O109 Eu81 2.355 . S
O109 Eu91 2.670 . S
O109 C98 1.270 . S
O110 Eu91 2.394 . S
O110 C99 1.251 . S
O111 Eu81 2.374 . S
O111 C99 1.251 . S
H112 C83 0.931 . S
H113 C84 0.931 . S
H114 C86 0.931 . S
H115 C87 0.931 . S
H116 C93 0.931 . S
H117 C94 0.931 . S
H118 C96 0.931 . S
H119 C97 0.931 . S
C120 Eu121 2.835 . S
C120 C122 1.500 . S
C120 O140 1.257 . S
C120 O141 1.260 . S
Eu121 C120 2.835 . S
Eu121 O140 2.473 . S
Eu121 O141 2.480 . S
Eu121 O142 2.430 . S
Eu121 O143 2.670 . S
Eu121 O144 2.394 . S
Eu121 O149 2.355 . S
Eu121 O151 2.374 . S
C122 C120 1.500 . S
C122 C123 1.377 . S
C122 C127 1.377 . S
C123 C122 1.377 . S
C123 C124 1.395 . S
C123 H152 0.931 . S
C124 C123 1.395 . S
C124 C125 1.383 . S
C124 H153 0.931 . S
C125 C124 1.383 . S
C125 C126 1.394 . S
C126 C125 1.394 . S
C126 C127 1.378 . S
C126 H154 0.931 . S
C127 C122 1.377 . S
C127 C126 1.378 . S
C127 H155 0.931 . S
C128 O142 1.259 . S
C128 O143 1.270 . S
C129 O144 1.251 . S
C129 O145 1.251 . S
C130 Eu131 2.835 . S
C130 C132 1.500 . S
C130 O146 1.257 . S
C130 O147 1.260 . S
Eu131 C130 2.835 . S
Eu131 O143 2.355 . S
Eu131 O145 2.374 . S
Eu131 O146 2.473 . S
Eu131 O147 2.480 . S
Eu131 O148 2.430 . S
Eu131 O149 2.670 . S
Eu131 O150 2.394 . S
C132 C130 1.500 . S
C132 C133 1.377 . S
C132 C137 1.377 . S
C133 C132 1.377 . S
C133 C134 1.395 . S
C133 H156 0.931 . S
C134 C133 1.395 . S
C134 C135 1.383 . S
C134 H157 0.931 . S
C135 C134 1.383 . S
C135 C136 1.394 . S
C136 C135 1.394 . S
C136 C137 1.378 . S
C136 H158 0.931 . S
C137 C132 1.377 . S
C137 C136 1.378 . S
C137 H159 0.931 . S
C138 O148 1.259 . S
C138 O149 1.270 . S
C139 O150 1.251 . S
C139 O151 1.251 . S
O140 C120 1.257 . S
O140 Eu121 2.473 . S
O141 C120 1.260 . S
O141 Eu121 2.480 . S
O142 Eu121 2.430 . S
O142 C128 1.259 . S
O143 Eu121 2.670 . S
O143 C128 1.270 . S
O143 Eu131 2.355 . S
O144 Eu121 2.394 . S
O144 C129 1.251 . S
O145 C129 1.251 . S
O145 Eu131 2.374 . S
O146 C130 1.257 . S
O146 Eu131 2.473 . S
O147 C130 1.260 . S
O147 Eu131 2.480 . S
O148 Eu131 2.430 . S
O148 C138 1.259 . S
O149 Eu121 2.355 . S
O149 Eu131 2.670 . S
O149 C138 1.270 . S
O150 Eu131 2.394 . S
O150 C139 1.251 . S
O151 Eu121 2.374 . S
O151 C139 1.251 . S
H152 C123 0.931 . S
H153 C124 0.931 . S
H154 C126 0.931 . S
H155 C127 0.931 . S
H156 C133 0.931 . S
H157 C134 0.931 . S
H158 C136 0.931 . S
H159 C137 0.931 . S
C160 Eu161 2.835 . S
C160 C162 1.500 . S
C160 O180 1.257 . S
C160 O181 1.260 . S
Eu161 C160 2.835 . S
Eu161 O180 2.473 . S
Eu161 O181 2.480 . S
Eu161 O182 2.430 . S
Eu161 O183 2.670 . S
Eu161 O184 2.394 . S
Eu161 O189 2.355 . S
Eu161 O191 2.374 . S
C162 C160 1.500 . S
C162 C163 1.377 . S
C162 C167 1.377 . S
C163 C162 1.377 . S
C163 C164 1.395 . S
C163 H192 0.931 . S
C164 C163 1.395 . S
C164 C165 1.383 . S
C164 H193 0.931 . S
C165 C164 1.383 . S
C165 C166 1.394 . S
C166 C165 1.394 . S
C166 C167 1.378 . S
C166 H194 0.931 . S
C167 C162 1.377 . S
C167 C166 1.378 . S
C167 H195 0.931 . S
C168 O182 1.259 . S
C168 O183 1.270 . S
C169 O184 1.251 . S
C169 O185 1.251 . S
C170 Eu171 2.835 . S
C170 C172 1.500 . S
C170 O186 1.257 . S
C170 O187 1.260 . S
Eu171 C170 2.835 . S
Eu171 O183 2.355 . S
Eu171 O185 2.374 . S
Eu171 O186 2.473 . S
Eu171 O187 2.480 . S
Eu171 O188 2.430 . S
Eu171 O189 2.670 . S
Eu171 O190 2.394 . S
C172 C170 1.500 . S
C172 C173 1.377 . S
C172 C177 1.377 . S
C173 C172 1.377 . S
C173 C174 1.395 . S
C173 H196 0.931 . S
C174 C173 1.395 . S
C174 C175 1.383 . S
C174 H197 0.931 . S
C175 C174 1.383 . S
C175 C176 1.394 . S
C176 C175 1.394 . S
C176 C177 1.378 . S
C176 H198 0.931 . S
C177 C172 1.377 . S
C177 C176 1.378 . S
C177 H199 0.931 . S
C178 O188 1.259 . S
C178 O189 1.270 . S
C179 O190 1.251 . S
C179 O191 1.251 . S
O180 C160 1.257 . S
O180 Eu161 2.473 . S
O181 C160 1.260 . S
O181 Eu161 2.480 . S
O182 Eu161 2.430 . S
O182 C168 1.259 . S
O183 Eu161 2.670 . S
O183 C168 1.270 . S
O183 Eu171 2.355 . S
O184 Eu161 2.394 . S
O184 C169 1.251 . S
O185 C169 1.251 . S
O185 Eu171 2.374 . S
O186 C170 1.257 . S
O186 Eu171 2.473 . S
O187 C170 1.260 . S
O187 Eu171 2.480 . S
O188 Eu171 2.430 . S
O188 C178 1.259 . S
O189 Eu161 2.355 . S
O189 Eu171 2.670 . S
O189 C178 1.270 . S
O190 Eu171 2.394 . S
O190 C179 1.251 . S
O191 Eu161 2.374 . S
O191 C179 1.251 . S
H192 C163 0.931 . S
H193 C164 0.931 . S
H194 C166 0.931 . S
H195 C167 0.931 . S
H196 C173 0.931 . S
H197 C174 0.931 . S
H198 C176 0.931 . S
H199 C177 0.931 . S
C200 Eu201 2.835 . S
C200 C202 1.500 . S
C200 O220 1.257 . S
C200 O221 1.260 . S
Eu201 C200 2.835 . S
Eu201 O220 2.473 . S
Eu201 O221 2.480 . S
Eu201 O222 2.430 . S
Eu201 O223 2.670 . S
Eu201 O224 2.394 . S
Eu201 O229 2.355 . S
Eu201 O231 2.374 . S
C202 C200 1.500 . S
C202 C203 1.377 . S
C202 C207 1.377 . S
C203 C202 1.377 . S
C203 C204 1.395 . S
C203 H232 0.931 . S
C204 C203 1.395 . S
C204 C205 1.383 . S
C204 H233 0.931 . S
C205 C204 1.383 . S
C205 C206 1.394 . S
C206 C205 1.394 . S
C206 C207 1.378 . S
C206 H234 0.931 . S
C207 C202 1.377 . S
C207 C206 1.378 . S
C207 H235 0.931 . S
C208 O222 1.259 . S
C208 O223 1.270 . S
C209 O224 1.251 . S
C209 O225 1.251 . S
C210 Eu211 2.835 . S
C210 C212 1.500 . S
C210 O226 1.257 . S
C210 O227 1.260 . S
Eu211 C210 2.835 . S
Eu211 O223 2.355 . S
Eu211 O225 2.374 . S
Eu211 O226 2.473 . S
Eu211 O227 2.480 . S
Eu211 O228 2.430 . S
Eu211 O229 2.670 . S
Eu211 O230 2.394 . S
C212 C210 1.500 . S
C212 C213 1.377 . S
C212 C217 1.377 . S
C213 C212 1.377 . S
C213 C214 1.395 . S
C213 H236 0.931 . S
C214 C213 1.395 . S
C214 C215 1.383 . S
C214 H237 0.931 . S
C215 C214 1.383 . S
C215 C216 1.394 . S
C216 C215 1.394 . S
C216 C217 1.378 . S
C216 H238 0.931 . S
C217 C212 1.377 . S
C217 C216 1.378 . S
C217 H239 0.931 . S
C218 O228 1.259 . S
C218 O229 1.270 . S
C219 O230 1.251 . S
C219 O231 1.251 . S
O220 C200 1.257 . S
O220 Eu201 2.473 . S
O221 C200 1.260 . S
O221 Eu201 2.480 . S
O222 Eu201 2.430 . S
O222 C208 1.259 . S
O223 Eu201 2.670 . S
O223 C208 1.270 . S
O223 Eu211 2.355 . S
O224 Eu201 2.394 . S
O224 C209 1.251 . S
O225 C209 1.251 . S
O225 Eu211 2.374 . S
O226 C210 1.257 . S
O226 Eu211 2.473 . S
O227 C210 1.260 . S
O227 Eu211 2.480 . S
O228 Eu211 2.430 . S
O228 C218 1.259 . S
O229 Eu201 2.355 . S
O229 Eu211 2.670 . S
O229 C218 1.270 . S
O230 Eu211 2.394 . S
O230 C219 1.251 . S
O231 Eu201 2.374 . S
O231 C219 1.251 . S
H232 C203 0.931 . S
H233 C204 0.931 . S
H234 C206 0.931 . S
H235 C207 0.931 . S
H236 C213 0.931 . S
H237 C214 0.931 . S
H238 C216 0.931 . S
H239 C217 0.931 . S
C240 Eu241 2.835 . S
C240 C242 1.500 . S
C240 O260 1.257 . S
C240 O261 1.260 . S
Eu241 C240 2.835 . S
Eu241 O260 2.473 . S
Eu241 O261 2.480 . S
Eu241 O262 2.430 . S
Eu241 O263 2.670 . S
Eu241 O264 2.394 . S
Eu241 O269 2.355 . S
Eu241 O271 2.374 . S
C242 C240 1.500 . S
C242 C243 1.377 . S
C242 C247 1.377 . S
C243 C242 1.377 . S
C243 C244 1.395 . S
C243 H272 0.931 . S
C244 C243 1.395 . S
C244 C245 1.383 . S
C244 H273 0.931 . S
C245 C244 1.383 . S
C245 C246 1.394 . S
C246 C245 1.394 . S
C246 C247 1.378 . S
C246 H274 0.931 . S
C247 C242 1.377 . S
C247 C246 1.378 . S
C247 H275 0.931 . S
C248 O262 1.259 . S
C248 O263 1.270 . S
C249 O264 1.251 . S
C249 O265 1.251 . S
C250 Eu251 2.835 . S
C250 C252 1.500 . S
C250 O266 1.257 . S
C250 O267 1.260 . S
Eu251 C250 2.835 . S
Eu251 O263 2.355 . S
Eu251 O265 2.374 . S
Eu251 O266 2.473 . S
Eu251 O267 2.480 . S
Eu251 O268 2.430 . S
Eu251 O269 2.670 . S
Eu251 O270 2.394 . S
C252 C250 1.500 . S
C252 C253 1.377 . S
C252 C257 1.377 . S
C253 C252 1.377 . S
C253 C254 1.395 . S
C253 H276 0.931 . S
C254 C253 1.395 . S
C254 C255 1.383 . S
C254 H277 0.931 . S
C255 C254 1.383 . S
C255 C256 1.394 . S
C256 C255 1.394 . S
C256 C257 1.378 . S
C256 H278 0.931 . S
C257 C252 1.377 . S
C257 C256 1.378 . S
C257 H279 0.931 . S
C258 O268 1.259 . S
C258 O269 1.270 . S
C259 O270 1.251 . S
C259 O271 1.251 . S
O260 C240 1.257 . S
O260 Eu241 2.473 . S
O261 C240 1.260 . S
O261 Eu241 2.480 . S
O262 Eu241 2.430 . S
O262 C248 1.259 . S
O263 Eu241 2.670 . S
O263 C248 1.270 . S
O263 Eu251 2.355 . S
O264 Eu241 2.394 . S
O264 C249 1.251 . S
O265 C249 1.251 . S
O265 Eu251 2.374 . S
O266 C250 1.257 . S
O266 Eu251 2.473 . S
O267 C250 1.260 . S
O267 Eu251 2.480 . S
O268 Eu251 2.430 . S
O268 C258 1.259 . S
O269 Eu241 2.355 . S
O269 Eu251 2.670 . S
O269 C258 1.270 . S
O270 Eu251 2.394 . S
O270 C259 1.251 . S
O271 Eu241 2.374 . S
O271 C259 1.251 . S
H272 C243 0.931 . S
H273 C244 0.931 . S
H274 C246 0.931 . S
H275 C247 0.931 . S
H276 C253 0.931 . S
H277 C254 0.931 . S
H278 C256 0.931 . S
H279 C257 0.931 . S
C280 Eu281 2.835 . S
C280 C282 1.500 . S
C280 O300 1.257 . S
C280 O301 1.260 . S
Eu281 C280 2.835 . S
Eu281 O300 2.473 . S
Eu281 O301 2.480 . S
Eu281 O302 2.430 . S
Eu281 O303 2.670 . S
Eu281 O304 2.394 . S
Eu281 O309 2.355 . S
Eu281 O311 2.374 . S
C282 C280 1.500 . S
C282 C283 1.377 . S
C282 C287 1.377 . S
C283 C282 1.377 . S
C283 C284 1.395 . S
C283 H312 0.931 . S
C284 C283 1.395 . S
C284 C285 1.383 . S
C284 H313 0.931 . S
C285 C284 1.383 . S
C285 C286 1.394 . S
C286 C285 1.394 . S
C286 C287 1.378 . S
C286 H314 0.931 . S
C287 C282 1.377 . S
C287 C286 1.378 . S
C287 H315 0.931 . S
C288 O302 1.259 . S
C288 O303 1.270 . S
C289 O304 1.251 . S
C289 O305 1.251 . S
C290 Eu291 2.835 . S
C290 C292 1.500 . S
C290 O306 1.257 . S
C290 O307 1.260 . S
Eu291 C290 2.835 . S
Eu291 O303 2.355 . S
Eu291 O305 2.374 . S
Eu291 O306 2.473 . S
Eu291 O307 2.480 . S
Eu291 O308 2.430 . S
Eu291 O309 2.670 . S
Eu291 O310 2.394 . S
C292 C290 1.500 . S
C292 C293 1.377 . S
C292 C297 1.377 . S
C293 C292 1.377 . S
C293 C294 1.395 . S
C293 H316 0.931 . S
C294 C293 1.395 . S
C294 C295 1.383 . S
C294 H317 0.931 . S
C295 C294 1.383 . S
C295 C296 1.394 . S
C296 C295 1.394 . S
C296 C297 1.378 . S
C296 H318 0.931 . S
C297 C292 1.377 . S
C297 C296 1.378 . S
C297 H319 0.931 . S
C298 O308 1.259 . S
C298 O309 1.270 . S
C299 O310 1.251 . S
C299 O311 1.251 . S
O300 C280 1.257 . S
O300 Eu281 2.473 . S
O301 C280 1.260 . S
O301 Eu281 2.480 . S
O302 Eu281 2.430 . S
O302 C288 1.259 . S
O303 Eu281 2.670 . S
O303 C288 1.270 . S
O303 Eu291 2.355 . S
O304 Eu281 2.394 . S
O304 C289 1.251 . S
O305 C289 1.251 . S
O305 Eu291 2.374 . S
O306 C290 1.257 . S
O306 Eu291 2.473 . S
O307 C290 1.260 . S
O307 Eu291 2.480 . S
O308 Eu291 2.430 . S
O308 C298 1.259 . S
O309 Eu281 2.355 . S
O309 Eu291 2.670 . S
O309 C298 1.270 . S
O310 Eu291 2.394 . S
O310 C299 1.251 . S
O311 Eu281 2.374 . S
O311 C299 1.251 . S
H312 C283 0.931 . S
H313 C284 0.931 . S
H314 C286 0.931 . S
H315 C287 0.931 . S
H316 C293 0.931 . S
H317 C294 0.931 . S
H318 C296 0.931 . S
H319 C297 0.931 . S
C320 Eu321 2.835 . S
C320 C322 1.500 . S
C320 O340 1.257 . S
C320 O341 1.260 . S
Eu321 C320 2.835 . S
Eu321 O340 2.473 . S
Eu321 O341 2.480 . S
Eu321 O342 2.430 . S
Eu321 O343 2.670 . S
Eu321 O344 2.394 . S
Eu321 O349 2.355 . S
Eu321 O351 2.374 . S
C322 C320 1.500 . S
C322 C323 1.377 . S
C322 C327 1.377 . S
C323 C322 1.377 . S
C323 C324 1.395 . S
C323 H352 0.931 . S
C324 C323 1.395 . S
C324 C325 1.383 . S
C324 H353 0.931 . S
C325 C324 1.383 . S
C325 C326 1.394 . S
C326 C325 1.394 . S
C326 C327 1.378 . S
C326 H354 0.931 . S
C327 C322 1.377 . S
C327 C326 1.378 . S
C327 H355 0.931 . S
C328 O342 1.259 . S
C328 O343 1.270 . S
C329 O344 1.251 . S
C329 O345 1.251 . S
C330 Eu331 2.835 . S
C330 C332 1.500 . S
C330 O346 1.257 . S
C330 O347 1.260 . S
Eu331 C330 2.835 . S
Eu331 O343 2.355 . S
Eu331 O345 2.374 . S
Eu331 O346 2.473 . S
Eu331 O347 2.480 . S
Eu331 O348 2.430 . S
Eu331 O349 2.670 . S
Eu331 O350 2.394 . S
C332 C330 1.500 . S
C332 C333 1.377 . S
C332 C337 1.377 . S
C333 C332 1.377 . S
C333 C334 1.395 . S
C333 H356 0.931 . S
C334 C333 1.395 . S
C334 C335 1.383 . S
C334 H357 0.931 . S
C335 C334 1.383 . S
C335 C336 1.394 . S
C336 C335 1.394 . S
C336 C337 1.378 . S
C336 H358 0.931 . S
C337 C332 1.377 . S
C337 C336 1.378 . S
C337 H359 0.931 . S
C338 O348 1.259 . S
C338 O349 1.270 . S
C339 O350 1.251 . S
C339 O351 1.251 . S
O340 C320 1.257 . S
O340 Eu321 2.473 . S
O341 C320 1.260 . S
O341 Eu321 2.480 . S
O342 Eu321 2.430 . S
O342 C328 1.259 . S
O343 Eu321 2.670 . S
O343 C328 1.270 . S
O343 Eu331 2.355 . S
O344 Eu321 2.394 . S
O344 C329 1.251 . S
O345 C329 1.251 . S
O345 Eu331 2.374 . S
O346 C330 1.257 . S
O346 Eu331 2.473 . S
O347 C330 1.260 . S
O347 Eu331 2.480 . S
O348 Eu331 2.430 . S
O348 C338 1.259 . S
O349 Eu321 2.355 . S
O349 Eu331 2.670 . S
O349 C338 1.270 . S
O350 Eu331 2.394 . S
O350 C339 1.251 . S
O351 Eu321 2.374 . S
O351 C339 1.251 . S
H352 C323 0.931 . S
H353 C324 0.931 . S
H354 C326 0.931 . S
H355 C327 0.931 . S
H356 C333 0.931 . S
H357 C334 0.931 . S
H358 C336 0.931 . S
H359 C337 0.931 . S
C360 Eu361 2.835 . S
C360 C362 1.500 . S
C360 O380 1.257 . S
C360 O381 1.260 . S
Eu361 C360 2.835 . S
Eu361 O380 2.473 . S
Eu361 O381 2.480 . S
Eu361 O382 2.430 . S
Eu361 O383 2.670 . S
Eu361 O384 2.394 . S
Eu361 O389 2.355 . S
Eu361 O391 2.374 . S
C362 C360 1.500 . S
C362 C363 1.377 . S
C362 C367 1.377 . S
C363 C362 1.377 . S
C363 C364 1.395 . S
C363 H392 0.931 . S
C364 C363 1.395 . S
C364 C365 1.383 . S
C364 H393 0.931 . S
C365 C364 1.383 . S
C365 C366 1.394 . S
C366 C365 1.394 . S
C366 C367 1.378 . S
C366 H394 0.931 . S
C367 C362 1.377 . S
C367 C366 1.378 . S
C367 H395 0.931 . S
C368 O382 1.259 . S
C368 O383 1.270 . S
C369 O384 1.251 . S
C369 O385 1.251 . S
C370 Eu371 2.835 . S
C370 C372 1.500 . S
C370 O386 1.257 . S
C370 O387 1.260 . S
Eu371 C370 2.835 . S
Eu371 O383 2.355 . S
Eu371 O385 2.374 . S
Eu371 O386 2.473 . S
Eu371 O387 2.480 . S
Eu371 O388 2.430 . S
Eu371 O389 2.670 . S
Eu371 O390 2.394 . S
C372 C370 1.500 . S
C372 C373 1.377 . S
C372 C377 1.377 . S
C373 C372 1.377 . S
C373 C374 1.395 . S
C373 H396 0.931 . S
C374 C373 1.395 . S
C374 C375 1.383 . S
C374 H397 0.931 . S
C375 C374 1.383 . S
C375 C376 1.394 . S
C376 C375 1.394 . S
C376 C377 1.378 . S
C376 H398 0.931 . S
C377 C372 1.377 . S
C377 C376 1.378 . S
C377 H399 0.931 . S
C378 O388 1.259 . S
C378 O389 1.270 . S
C379 O390 1.251 . S
C379 O391 1.251 . S
O380 C360 1.257 . S
O380 Eu361 2.473 . S
O381 C360 1.260 . S
O381 Eu361 2.480 . S
O382 Eu361 2.430 . S
O382 C368 1.259 . S
O383 Eu361 2.670 . S
O383 C368 1.270 . S
O383 Eu371 2.355 . S
O384 Eu361 2.394 . S
O384 C369 1.251 . S
O385 C369 1.251 . S
O385 Eu371 2.374 . S
O386 C370 1.257 . S
O386 Eu371 2.473 . S
O387 C370 1.260 . S
O387 Eu371 2.480 . S
O388 Eu371 2.430 . S
O388 C378 1.259 . S
O389 Eu361 2.355 . S
O389 Eu371 2.670 . S
O389 C378 1.270 . S
O390 Eu371 2.394 . S
O390 C379 1.251 . S
O391 Eu361 2.374 . S
O391 C379 1.251 . S
H392 C363 0.931 . S
H393 C364 0.931 . S
H394 C366 0.931 . S
H395 C367 0.931 . S
H396 C373 0.931 . S
H397 C374 0.931 . S
H398 C376 0.931 . S
H399 C377 0.931 . S
C400 Eu401 2.835 . S
C400 C402 1.500 . S
C400 O420 1.257 . S
C400 O421 1.260 . S
Eu401 C400 2.835 . S
Eu401 O420 2.473 . S
Eu401 O421 2.480 . S
Eu401 O422 2.430 . S
Eu401 O423 2.670 . S
Eu401 O424 2.394 . S
Eu401 O429 2.355 . S
Eu401 O431 2.374 . S
C402 C400 1.500 . S
C402 C403 1.377 . S
C402 C407 1.377 . S
C403 C402 1.377 . S
C403 C404 1.395 . S
C403 H432 0.931 . S
C404 C403 1.395 . S
C404 C405 1.383 . S
C404 H433 0.931 . S
C405 C404 1.383 . S
C405 C406 1.394 . S
C406 C405 1.394 . S
C406 C407 1.378 . S
C406 H434 0.931 . S
C407 C402 1.377 . S
C407 C406 1.378 . S
C407 H435 0.931 . S
C408 O422 1.259 . S
C408 O423 1.270 . S
C409 O424 1.251 . S
C409 O425 1.251 . S
C410 Eu411 2.835 . S
C410 C412 1.500 . S
C410 O426 1.257 . S
C410 O427 1.260 . S
Eu411 C410 2.835 . S
Eu411 O423 2.355 . S
Eu411 O425 2.374 . S
Eu411 O426 2.473 . S
Eu411 O427 2.480 . S
Eu411 O428 2.430 . S
Eu411 O429 2.670 . S
Eu411 O430 2.394 . S
C412 C410 1.500 . S
C412 C413 1.377 . S
C412 C417 1.377 . S
C413 C412 1.377 . S
C413 C414 1.395 . S
C413 H436 0.931 . S
C414 C413 1.395 . S
C414 C415 1.383 . S
C414 H437 0.931 . S
C415 C414 1.383 . S
C415 C416 1.394 . S
C416 C415 1.394 . S
C416 C417 1.378 . S
C416 H438 0.931 . S
C417 C412 1.377 . S
C417 C416 1.378 . S
C417 H439 0.931 . S
C418 O428 1.259 . S
C418 O429 1.270 . S
C419 O430 1.251 . S
C419 O431 1.251 . S
O420 C400 1.257 . S
O420 Eu401 2.473 . S
O421 C400 1.260 . S
O421 Eu401 2.480 . S
O422 Eu401 2.430 . S
O422 C408 1.259 . S
O423 Eu401 2.670 . S
O423 C408 1.270 . S
O423 Eu411 2.355 . S
O424 Eu401 2.394 . S
O424 C409 1.251 . S
O425 C409 1.251 . S
O425 Eu411 2.374 . S
O426 C410 1.257 . S
O426 Eu411 2.473 . S
O427 C410 1.260 . S
O427 Eu411 2.480 . S
O428 Eu411 2.430 . S
O428 C418 1.259 . S
O429 Eu401 2.355 . S
O429 Eu411 2.670 . S
O429 C418 1.270 . S
O430 Eu411 2.394 . S
O430 C419 1.251 . S
O431 Eu401 2.374 . S
O431 C419 1.251 . S
H432 C403 0.931 . S
H433 C404 0.931 . S
H434 C406 0.931 . S
H435 C407 0.931 . S
H436 C413 0.931 . S
H437 C414 0.931 . S
H438 C416 0.931 . S
H439 C417 0.931 . S
C440 Eu441 2.835 . S
C440 C442 1.500 . S
C440 O460 1.257 . S
C440 O461 1.260 . S
Eu441 C440 2.835 . S
Eu441 O460 2.473 . S
Eu441 O461 2.480 . S
Eu441 O462 2.430 . S
Eu441 O463 2.670 . S
Eu441 O464 2.394 . S
Eu441 O469 2.355 . S
Eu441 O471 2.374 . S
C442 C440 1.500 . S
C442 C443 1.377 . S
C442 C447 1.377 . S
C443 C442 1.377 . S
C443 C444 1.395 . S
C443 H472 0.931 . S
C444 C443 1.395 . S
C444 C445 1.383 . S
C444 H473 0.931 . S
C445 C444 1.383 . S
C445 C446 1.394 . S
C446 C445 1.394 . S
C446 C447 1.378 . S
C446 H474 0.931 . S
C447 C442 1.377 . S
C447 C446 1.378 . S
C447 H475 0.931 . S
C448 O462 1.259 . S
C448 O463 1.270 . S
C449 O464 1.251 . S
C449 O465 1.251 . S
C450 Eu451 2.835 . S
C450 C452 1.500 . S
C450 O466 1.257 . S
C450 O467 1.260 . S
Eu451 C450 2.835 . S
Eu451 O463 2.355 . S
Eu451 O465 2.374 . S
Eu451 O466 2.473 . S
Eu451 O467 2.480 . S
Eu451 O468 2.430 . S
Eu451 O469 2.670 . S
Eu451 O470 2.394 . S
C452 C450 1.500 . S
C452 C453 1.377 . S
C452 C457 1.377 . S
C453 C452 1.377 . S
C453 C454 1.395 . S
C453 H476 0.931 . S
C454 C453 1.395 . S
C454 C455 1.383 . S
C454 H477 0.931 . S
C455 C454 1.383 . S
C455 C456 1.394 . S
C456 C455 1.394 . S
C456 C457 1.378 . S
C456 H478 0.931 . S
C457 C452 1.377 . S
C457 C456 1.378 . S
C457 H479 0.931 . S
C458 O468 1.259 . S
C458 O469 1.270 . S
C459 O470 1.251 . S
C459 O471 1.251 . S
O460 C440 1.257 . S
O460 Eu441 2.473 . S
O461 C440 1.260 . S
O461 Eu441 2.480 . S
O462 Eu441 2.430 . S
O462 C448 1.259 . S
O463 Eu441 2.670 . S
O463 C448 1.270 . S
O463 Eu451 2.355 . S
O464 Eu441 2.394 . S
O464 C449 1.251 . S
O465 C449 1.251 . S
O465 Eu451 2.374 . S
O466 C450 1.257 . S
O466 Eu451 2.473 . S
O467 C450 1.260 . S
O467 Eu451 2.480 . S
O468 Eu451 2.430 . S
O468 C458 1.259 . S
O469 Eu441 2.355 . S
O469 Eu451 2.670 . S
O469 C458 1.270 . S
O470 Eu451 2.394 . S
O470 C459 1.251 . S
O471 Eu441 2.374 . S
O471 C459 1.251 . S
H472 C443 0.931 . S
H473 C444 0.931 . S
H474 C446 0.931 . S
H475 C447 0.931 . S
H476 C453 0.931 . S
H477 C454 0.931 . S
H478 C456 0.931 . S
H479 C457 0.931 . S
C480 Eu481 2.835 . S
C480 C482 1.500 . S
C480 O500 1.257 . S
C480 O501 1.260 . S
Eu481 C480 2.835 . S
Eu481 O500 2.473 . S
Eu481 O501 2.480 . S
Eu481 O502 2.430 . S
Eu481 O503 2.670 . S
Eu481 O504 2.394 . S
Eu481 O509 2.355 . S
Eu481 O511 2.374 . S
C482 C480 1.500 . S
C482 C483 1.377 . S
C482 C487 1.377 . S
C483 C482 1.377 . S
C483 C484 1.395 . S
C483 H512 0.931 . S
C484 C483 1.395 . S
C484 C485 1.383 . S
C484 H513 0.931 . S
C485 C484 1.383 . S
C485 C486 1.394 . S
C486 C485 1.394 . S
C486 C487 1.378 . S
C486 H514 0.931 . S
C487 C482 1.377 . S
C487 C486 1.378 . S
C487 H515 0.931 . S
C488 O502 1.259 . S
C488 O503 1.270 . S
C489 O504 1.251 . S
C489 O505 1.251 . S
C490 Eu491 2.835 . S
C490 C492 1.500 . S
C490 O506 1.257 . S
C490 O507 1.260 . S
Eu491 C490 2.835 . S
Eu491 O503 2.355 . S
Eu491 O505 2.374 . S
Eu491 O506 2.473 . S
Eu491 O507 2.480 . S
Eu491 O508 2.430 . S
Eu491 O509 2.670 . S
Eu491 O510 2.394 . S
C492 C490 1.500 . S
C492 C493 1.377 . S
C492 C497 1.377 . S
C493 C492 1.377 . S
C493 C494 1.395 . S
C493 H516 0.931 . S
C494 C493 1.395 . S
C494 C495 1.383 . S
C494 H517 0.931 . S
C495 C494 1.383 . S
C495 C496 1.394 . S
C496 C495 1.394 . S
C496 C497 1.378 . S
C496 H518 0.931 . S
C497 C492 1.377 . S
C497 C496 1.378 . S
C497 H519 0.931 . S
C498 O508 1.259 . S
C498 O509 1.270 . S
C499 O510 1.251 . S
C499 O511 1.251 . S
O500 C480 1.257 . S
O500 Eu481 2.473 . S
O501 C480 1.260 . S
O501 Eu481 2.480 . S
O502 Eu481 2.430 . S
O502 C488 1.259 . S
O503 Eu481 2.670 . S
O503 C488 1.270 . S
O503 Eu491 2.355 . S
O504 Eu481 2.394 . S
O504 C489 1.251 . S
O505 C489 1.251 . S
O505 Eu491 2.374 . S
O506 C490 1.257 . S
O506 Eu491 2.473 . S
O507 C490 1.260 . S
O507 Eu491 2.480 . S
O508 Eu491 2.430 . S
O508 C498 1.259 . S
O509 Eu481 2.355 . S
O509 Eu491 2.670 . S
O509 C498 1.270 . S
O510 Eu491 2.394 . S
O510 C499 1.251 . S
O511 Eu481 2.374 . S
O511 C499 1.251 . S
H512 C483 0.931 . S
H513 C484 0.931 . S
H514 C486 0.931 . S
H515 C487 0.931 . S
H516 C493 0.931 . S
H517 C494 0.931 . S
H518 C496 0.931 . S
H519 C497 0.931 . S
C520 Eu521 2.835 . S
C520 C522 1.500 . S
C520 O540 1.257 . S
C520 O541 1.260 . S
Eu521 C520 2.835 . S
Eu521 O540 2.473 . S
Eu521 O541 2.480 . S
Eu521 O542 2.430 . S
Eu521 O543 2.670 . S
Eu521 O544 2.394 . S
Eu521 O549 2.355 . S
Eu521 O551 2.374 . S
C522 C520 1.500 . S
C522 C523 1.377 . S
C522 C527 1.377 . S
C523 C522 1.377 . S
C523 C524 1.395 . S
C523 H552 0.931 . S
C524 C523 1.395 . S
C524 C525 1.383 . S
C524 H553 0.931 . S
C525 C524 1.383 . S
C525 C526 1.394 . S
C526 C525 1.394 . S
C526 C527 1.378 . S
C526 H554 0.931 . S
C527 C522 1.377 . S
C527 C526 1.378 . S
C527 H555 0.931 . S
C528 O542 1.259 . S
C528 O543 1.270 . S
C529 O544 1.251 . S
C529 O545 1.251 . S
C530 Eu531 2.835 . S
C530 C532 1.500 . S
C530 O546 1.257 . S
C530 O547 1.260 . S
Eu531 C530 2.835 . S
Eu531 O543 2.355 . S
Eu531 O545 2.374 . S
Eu531 O546 2.473 . S
Eu531 O547 2.480 . S
Eu531 O548 2.430 . S
Eu531 O549 2.670 . S
Eu531 O550 2.394 . S
C532 C530 1.500 . S
C532 C533 1.377 . S
C532 C537 1.377 . S
C533 C532 1.377 . S
C533 C534 1.395 . S
C533 H556 0.931 . S
C534 C533 1.395 . S
C534 C535 1.383 . S
C534 H557 0.931 . S
C535 C534 1.383 . S
C535 C536 1.394 . S
C536 C535 1.394 . S
C536 C537 1.378 . S
C536 H558 0.931 . S
C537 C532 1.377 . S
C537 C536 1.378 . S
C537 H559 0.931 . S
C538 O548 1.259 . S
C538 O549 1.270 . S
C539 O550 1.251 . S
C539 O551 1.251 . S
O540 C520 1.257 . S
O540 Eu521 2.473 . S
O541 C520 1.260 . S
O541 Eu521 2.480 . S
O542 Eu521 2.430 . S
O542 C528 1.259 . S
O543 Eu521 2.670 . S
O543 C528 1.270 . S
O543 Eu531 2.355 . S
O544 Eu521 2.394 . S
O544 C529 1.251 . S
O545 C529 1.251 . S
O545 Eu531 2.374 . S
O546 C530 1.257 . S
O546 Eu531 2.473 . S
O547 C530 1.260 . S
O547 Eu531 2.480 . S
O548 Eu531 2.430 . S
O548 C538 1.259 . S
O549 Eu521 2.355 . S
O549 Eu531 2.670 . S
O549 C538 1.270 . S
O550 Eu531 2.394 . S
O550 C539 1.251 . S
O551 Eu521 2.374 . S
O551 C539 1.251 . S
H552 C523 0.931 . S
H553 C524 0.931 . S
H554 C526 0.931 . S
H555 C527 0.931 . S
H556 C533 0.931 . S
H557 C534 0.931 . S
H558 C536 0.931 . S
H559 C537 0.931 . S
C560 Eu561 2.835 . S
C560 C562 1.500 . S
C560 O580 1.257 . S
C560 O581 1.260 . S
Eu561 C560 2.835 . S
Eu561 O580 2.473 . S
Eu561 O581 2.480 . S
Eu561 O582 2.430 . S
Eu561 O583 2.670 . S
Eu561 O584 2.394 . S
Eu561 O589 2.355 . S
Eu561 O591 2.374 . S
C562 C560 1.500 . S
C562 C563 1.377 . S
C562 C567 1.377 . S
C563 C562 1.377 . S
C563 C564 1.395 . S
C563 H592 0.931 . S
C564 C563 1.395 . S
C564 C565 1.383 . S
C564 H593 0.931 . S
C565 C564 1.383 . S
C565 C566 1.394 . S
C566 C565 1.394 . S
C566 C567 1.378 . S
C566 H594 0.931 . S
C567 C562 1.377 . S
C567 C566 1.378 . S
C567 H595 0.931 . S
C568 O582 1.259 . S
C568 O583 1.270 . S
C569 O584 1.251 . S
C569 O585 1.251 . S
C570 Eu571 2.835 . S
C570 C572 1.500 . S
C570 O586 1.257 . S
C570 O587 1.260 . S
Eu571 C570 2.835 . S
Eu571 O583 2.355 . S
Eu571 O585 2.374 . S
Eu571 O586 2.473 . S
Eu571 O587 2.480 . S
Eu571 O588 2.430 . S
Eu571 O589 2.670 . S
Eu571 O590 2.394 . S
C572 C570 1.500 . S
C572 C573 1.377 . S
C572 C577 1.377 . S
C573 C572 1.377 . S
C573 C574 1.395 . S
C573 H596 0.931 . S
C574 C573 1.395 . S
C574 C575 1.383 . S
C574 H597 0.931 . S
C575 C574 1.383 . S
C575 C576 1.394 . S
C576 C575 1.394 . S
C576 C577 1.378 . S
C576 H598 0.931 . S
C577 C572 1.377 . S
C577 C576 1.378 . S
C577 H599 0.931 . S
C578 O588 1.259 . S
C578 O589 1.270 . S
C579 O590 1.251 . S
C579 O591 1.251 . S
O580 C560 1.257 . S
O580 Eu561 2.473 . S
O581 C560 1.260 . S
O581 Eu561 2.480 . S
O582 Eu561 2.430 . S
O582 C568 1.259 . S
O583 Eu561 2.670 . S
O583 C568 1.270 . S
O583 Eu571 2.355 . S
O584 Eu561 2.394 . S
O584 C569 1.251 . S
O585 C569 1.251 . S
O585 Eu571 2.374 . S
O586 C570 1.257 . S
O586 Eu571 2.473 . S
O587 C570 1.260 . S
O587 Eu571 2.480 . S
O588 Eu571 2.430 . S
O588 C578 1.259 . S
O589 Eu561 2.355 . S
O589 Eu571 2.670 . S
O589 C578 1.270 . S
O590 Eu571 2.394 . S
O590 C579 1.251 . S
O591 Eu561 2.374 . S
O591 C579 1.251 . S
H592 C563 0.931 . S
H593 C564 0.931 . S
H594 C566 0.931 . S
H595 C567 0.931 . S
H596 C573 0.931 . S
H597 C574 0.931 . S
H598 C576 0.931 . S
H599 C577 0.931 . S
C600 Eu601 2.835 . S
C600 C602 1.500 . S
C600 O620 1.257 . S
C600 O621 1.260 . S
Eu601 C600 2.835 . S
Eu601 O620 2.473 . S
Eu601 O621 2.480 . S
Eu601 O622 2.430 . S
Eu601 O623 2.670 . S
Eu601 O624 2.394 . S
Eu601 O629 2.355 . S
Eu601 O631 2.374 . S
C602 C600 1.500 . S
C602 C603 1.377 . S
C602 C607 1.377 . S
C603 C602 1.377 . S
C603 C604 1.395 . S
C603 H632 0.931 . S
C604 C603 1.395 . S
C604 C605 1.383 . S
C604 H633 0.931 . S
C605 C604 1.383 . S
C605 C606 1.394 . S
C606 C605 1.394 . S
C606 C607 1.378 . S
C606 H634 0.931 . S
C607 C602 1.377 . S
C607 C606 1.378 . S
C607 H635 0.931 . S
C608 O622 1.259 . S
C608 O623 1.270 . S
C609 O624 1.251 . S
C609 O625 1.251 . S
C610 Eu611 2.835 . S
C610 C612 1.500 . S
C610 O626 1.257 . S
C610 O627 1.260 . S
Eu611 C610 2.835 . S
Eu611 O623 2.355 . S
Eu611 O625 2.374 . S
Eu611 O626 2.473 . S
Eu611 O627 2.480 . S
Eu611 O628 2.430 . S
Eu611 O629 2.670 . S
Eu611 O630 2.394 . S
C612 C610 1.500 . S
C612 C613 1.377 . S
C612 C617 1.377 1_655 S
C613 C612 1.377 . S
C613 C614 1.395 . S
C613 H636 0.931 . S
C614 C613 1.395 . S
C614 C615 1.383 1_655 S
C614 H637 0.931 . S
C615 C614 1.383 1_455 S
C615 C616 1.394 . S
C616 C615 1.394 . S
C616 C617 1.378 . S
C616 H638 0.931 . S
C617 C612 1.377 1_455 S
C617 C616 1.378 . S
C617 H639 0.931 . S
C618 O628 1.259 . S
C618 O629 1.270 . S
C619 O630 1.251 . S
C619 O631 1.251 . S
O620 C600 1.257 . S
O620 Eu601 2.473 . S
O621 C600 1.260 . S
O621 Eu601 2.480 . S
O622 Eu601 2.430 . S
O622 C608 1.259 . S
O623 Eu601 2.670 . S
O623 C608 1.270 . S
O623 Eu611 2.355 . S
O624 Eu601 2.394 . S
O624 C609 1.251 . S
O625 C609 1.251 . S
O625 Eu611 2.374 . S
O626 C610 1.257 . S
O626 Eu611 2.473 . S
O627 C610 1.260 . S
O627 Eu611 2.480 . S
O628 Eu611 2.430 . S
O628 C618 1.259 . S
O629 Eu601 2.355 . S
O629 Eu611 2.670 . S
O629 C618 1.270 . S
O630 Eu611 2.394 . S
O630 C619 1.251 . S
O631 Eu601 2.374 . S
O631 C619 1.251 . S
H632 C603 0.931 . S
H633 C604 0.931 . S
H634 C606 0.931 . S
H635 C607 0.931 . S
H636 C613 0.931 . S
H637 C614 0.931 . S
H638 C616 0.931 . S
H639 C617 0.931 . S
C640 Eu641 2.835 . S
C640 C642 1.500 . S
C640 O660 1.257 . S
C640 O661 1.260 . S
Eu641 C640 2.835 . S
Eu641 O660 2.473 . S
Eu641 O661 2.480 . S
Eu641 O662 2.430 . S
Eu641 O663 2.670 . S
Eu641 O664 2.394 . S
Eu641 O669 2.355 . S
Eu641 O671 2.374 . S
C642 C640 1.500 . S
C642 C643 1.377 . S
C642 C647 1.377 . S
C643 C642 1.377 . S
C643 C644 1.395 . S
C643 H672 0.931 . S
C644 C643 1.395 . S
C644 C645 1.383 . S
C644 H673 0.931 . S
C645 C644 1.383 . S
C645 C646 1.394 . S
C646 C645 1.394 . S
C646 C647 1.378 . S
C646 H674 0.931 . S
C647 C642 1.377 . S
C647 C646 1.378 . S
C647 H675 0.931 . S
C648 O662 1.259 . S
C648 O663 1.270 . S
C649 O664 1.251 . S
C649 O665 1.251 . S
C650 Eu651 2.835 . S
C650 C652 1.500 . S
C650 O666 1.257 . S
C650 O667 1.260 . S
Eu651 C650 2.835 . S
Eu651 O663 2.355 . S
Eu651 O665 2.374 . S
Eu651 O666 2.473 . S
Eu651 O667 2.480 . S
Eu651 O668 2.430 . S
Eu651 O669 2.670 . S
Eu651 O670 2.394 . S
C652 C650 1.500 . S
C652 C653 1.377 . S
C652 C657 1.377 . S
C653 C652 1.377 . S
C653 C654 1.395 . S
C653 H676 0.931 . S
C654 C653 1.395 . S
C654 C655 1.383 . S
C654 H677 0.931 . S
C655 C654 1.383 . S
C655 C656 1.394 . S
C656 C655 1.394 . S
C656 C657 1.378 . S
C656 H678 0.931 . S
C657 C652 1.377 . S
C657 C656 1.378 . S
C657 H679 0.931 . S
C658 O668 1.259 . S
C658 O669 1.270 . S
C659 O670 1.251 . S
C659 O671 1.251 . S
O660 C640 1.257 . S
O660 Eu641 2.473 . S
O661 C640 1.260 . S
O661 Eu641 2.480 . S
O662 Eu641 2.430 . S
O662 C648 1.259 . S
O663 Eu641 2.670 . S
O663 C648 1.270 . S
O663 Eu651 2.355 . S
O664 Eu641 2.394 . S
O664 C649 1.251 . S
O665 C649 1.251 . S
O665 Eu651 2.374 . S
O666 C650 1.257 . S
O666 Eu651 2.473 . S
O667 C650 1.260 . S
O667 Eu651 2.480 . S
O668 Eu651 2.430 . S
O668 C658 1.259 . S
O669 Eu641 2.355 . S
O669 Eu651 2.670 . S
O669 C658 1.270 . S
O670 Eu651 2.394 . S
O670 C659 1.251 . S
O671 Eu641 2.374 . S
O671 C659 1.251 . S
H672 C643 0.931 . S
H673 C644 0.931 . S
H674 C646 0.931 . S
H675 C647 0.931 . S
H676 C653 0.931 . S
H677 C654 0.931 . S
H678 C656 0.931 . S
H679 C657 0.931 . S
C680 Eu681 2.835 . S
C680 C682 1.500 . S
C680 O700 1.257 . S
C680 O701 1.260 . S
Eu681 C680 2.835 . S
Eu681 O700 2.473 . S
Eu681 O701 2.480 . S
Eu681 O702 2.430 . S
Eu681 O703 2.670 . S
Eu681 O704 2.394 . S
Eu681 O709 2.355 . S
Eu681 O711 2.374 . S
C682 C680 1.500 . S
C682 C683 1.377 . S
C682 C687 1.377 . S
C683 C682 1.377 . S
C683 C684 1.395 . S
C683 H712 0.931 . S
C684 C683 1.395 . S
C684 C685 1.383 . S
C684 H713 0.931 . S
C685 C684 1.383 . S
C685 C686 1.394 . S
C686 C685 1.394 . S
C686 C687 1.378 . S
C686 H714 0.931 . S
C687 C682 1.377 . S
C687 C686 1.378 . S
C687 H715 0.931 . S
C688 O702 1.259 . S
C688 O703 1.270 . S
C689 O704 1.251 . S
C689 O705 1.251 . S
C690 Eu691 2.835 . S
C690 C692 1.500 . S
C690 O706 1.257 . S
C690 O707 1.260 . S
Eu691 C690 2.835 . S
Eu691 O703 2.355 . S
Eu691 O705 2.374 . S
Eu691 O706 2.473 . S
Eu691 O707 2.480 . S
Eu691 O708 2.430 . S
Eu691 O709 2.670 . S
Eu691 O710 2.394 . S
C692 C690 1.500 . S
C692 C693 1.377 . S
C692 C697 1.377 1_545 S
C693 C692 1.377 . S
C693 C694 1.395 . S
C693 H716 0.931 . S
C694 C693 1.395 . S
C694 C695 1.383 1_545 S
C694 H717 0.931 . S
C695 C694 1.383 1_565 S
C695 C696 1.394 . S
C696 C695 1.394 . S
C696 C697 1.378 . S
C696 H718 0.931 . S
C697 C692 1.377 1_565 S
C697 C696 1.378 . S
C697 H719 0.931 . S
C698 O708 1.259 . S
C698 O709 1.270 . S
C699 O710 1.251 . S
C699 O711 1.251 . S
O700 C680 1.257 . S
O700 Eu681 2.473 . S
O701 C680 1.260 . S
O701 Eu681 2.480 . S
O702 Eu681 2.430 . S
O702 C688 1.259 . S
O703 Eu681 2.670 . S
O703 C688 1.270 . S
O703 Eu691 2.355 . S
O704 Eu681 2.394 . S
O704 C689 1.251 . S
O705 C689 1.251 . S
O705 Eu691 2.374 . S
O706 C690 1.257 . S
O706 Eu691 2.473 . S
O707 C690 1.260 . S
O707 Eu691 2.480 . S
O708 Eu691 2.430 . S
O708 C698 1.259 . S
O709 Eu681 2.355 . S
O709 Eu691 2.670 . S
O709 C698 1.270 . S
O710 Eu691 2.394 . S
O710 C699 1.251 . S
O711 Eu681 2.374 . S
O711 C699 1.251 . S
H712 C683 0.931 . S
H713 C684 0.931 . S
H714 C686 0.931 . S
H715 C687 0.931 . S
H716 C693 0.931 . S
H717 C694 0.931 . S
H718 C696 0.931 . S
H719 C697 0.931 . S
C720 Eu721 2.835 . S
C720 C722 1.500 . S
C720 O740 1.257 . S
C720 O741 1.260 . S
Eu721 C720 2.835 . S
Eu721 O740 2.473 . S
Eu721 O741 2.480 . S
Eu721 O742 2.430 . S
Eu721 O743 2.670 . S
Eu721 O744 2.394 . S
Eu721 O749 2.355 . S
Eu721 O751 2.374 . S
C722 C720 1.500 . S
C722 C723 1.377 . S
C722 C727 1.377 1_545 S
C723 C722 1.377 . S
C723 C724 1.395 . S
C723 H752 0.931 . S
C724 C723 1.395 . S
C724 C725 1.383 1_545 S
C724 H753 0.931 . S
C725 C724 1.383 1_565 S
C725 C726 1.394 . S
C726 C725 1.394 . S
C726 C727 1.378 . S
C726 H754 0.931 . S
C727 C722 1.377 1_565 S
C727 C726 1.378 . S
C727 H755 0.931 . S
C728 O742 1.259 . S
C728 O743 1.270 . S
C729 O744 1.251 . S
C729 O745 1.251 . S
C730 Eu731 2.835 . S
C730 C732 1.500 . S
C730 O746 1.257 . S
C730 O747 1.260 . S
Eu731 C730 2.835 . S
Eu731 O743 2.355 . S
Eu731 O745 2.374 . S
Eu731 O746 2.473 . S
Eu731 O747 2.480 . S
Eu731 O748 2.430 . S
Eu731 O749 2.670 . S
Eu731 O750 2.394 . S
C732 C730 1.500 . S
C732 C733 1.377 . S
C732 C737 1.377 . S
C733 C732 1.377 . S
C733 C734 1.395 . S
C733 H756 0.931 . S
C734 C733 1.395 . S
C734 C735 1.383 . S
C734 H757 0.931 . S
C735 C734 1.383 . S
C735 C736 1.394 . S
C736 C735 1.394 . S
C736 C737 1.378 . S
C736 H758 0.931 . S
C737 C732 1.377 . S
C737 C736 1.378 . S
C737 H759 0.931 . S
C738 O748 1.259 . S
C738 O749 1.270 . S
C739 O750 1.251 . S
C739 O751 1.251 . S
O740 C720 1.257 . S
O740 Eu721 2.473 . S
O741 C720 1.260 . S
O741 Eu721 2.480 . S
O742 Eu721 2.430 . S
O742 C728 1.259 . S
O743 Eu721 2.670 . S
O743 C728 1.270 . S
O743 Eu731 2.355 . S
O744 Eu721 2.394 . S
O744 C729 1.251 . S
O745 C729 1.251 . S
O745 Eu731 2.374 . S
O746 C730 1.257 . S
O746 Eu731 2.473 . S
O747 C730 1.260 . S
O747 Eu731 2.480 . S
O748 Eu731 2.430 . S
O748 C738 1.259 . S
O749 Eu721 2.355 . S
O749 Eu731 2.670 . S
O749 C738 1.270 . S
O750 Eu731 2.394 . S
O750 C739 1.251 . S
O751 Eu721 2.374 . S
O751 C739 1.251 . S
H752 C723 0.931 . S
H753 C724 0.931 . S
H754 C726 0.931 . S
H755 C727 0.931 . S
H756 C733 0.931 . S
H757 C734 0.931 . S
H758 C736 0.931 . S
H759 C737 0.931 . S
C760 Eu761 2.835 . S
C760 C762 1.500 . S
C760 O780 1.257 . S
C760 O781 1.260 . S
Eu761 C760 2.835 . S
Eu761 O780 2.473 . S
Eu761 O781 2.480 . S
Eu761 O782 2.430 . S
Eu761 O783 2.670 . S
Eu761 O784 2.394 . S
Eu761 O789 2.355 . S
Eu761 O791 2.374 . S
C762 C760 1.500 . S
C762 C763 1.377 . S
C762 C767 1.377 1_655 S
C763 C762 1.377 . S
C763 C764 1.395 . S
C763 H792 0.931 . S
C764 C763 1.395 . S
C764 C765 1.383 1_655 S
C764 H793 0.931 . S
C765 C764 1.383 1_455 S
C765 C766 1.394 . S
C766 C765 1.394 . S
C766 C767 1.378 . S
C766 H794 0.931 . S
C767 C762 1.377 1_455 S
C767 C766 1.378 . S
C767 H795 0.931 . S
C768 O782 1.259 . S
C768 O783 1.270 . S
C769 O784 1.251 . S
C769 O785 1.251 . S
C770 Eu771 2.835 . S
C770 C772 1.500 . S
C770 O786 1.257 . S
C770 O787 1.260 . S
Eu771 C770 2.835 . S
Eu771 O783 2.355 . S
Eu771 O785 2.374 . S
Eu771 O786 2.473 . S
Eu771 O787 2.480 . S
Eu771 O788 2.430 . S
Eu771 O789 2.670 . S
Eu771 O790 2.394 . S
C772 C770 1.500 . S
C772 C773 1.377 . S
C772 C777 1.377 . S
C773 C772 1.377 . S
C773 C774 1.395 . S
C773 H796 0.931 . S
C774 C773 1.395 . S
C774 C775 1.383 . S
C774 H797 0.931 . S
C775 C774 1.383 . S
C775 C776 1.394 . S
C776 C775 1.394 . S
C776 C777 1.378 . S
C776 H798 0.931 . S
C777 C772 1.377 . S
C777 C776 1.378 . S
C777 H799 0.931 . S
C778 O788 1.259 . S
C778 O789 1.270 . S
C779 O790 1.251 . S
C779 O791 1.251 . S
O780 C760 1.257 . S
O780 Eu761 2.473 . S
O781 C760 1.260 . S
O781 Eu761 2.480 . S
O782 Eu761 2.430 . S
O782 C768 1.259 . S
O783 Eu761 2.670 . S
O783 C768 1.270 . S
O783 Eu771 2.355 . S
O784 Eu761 2.394 . S
O784 C769 1.251 . S
O785 C769 1.251 . S
O785 Eu771 2.374 . S
O786 C770 1.257 . S
O786 Eu771 2.473 . S
O787 C770 1.260 . S
O787 Eu771 2.480 . S
O788 Eu771 2.430 . S
O788 C778 1.259 . S
O789 Eu761 2.355 . S
O789 Eu771 2.670 . S
O789 C778 1.270 . S
O790 Eu771 2.394 . S
O790 C779 1.251 . S
O791 Eu761 2.374 . S
O791 C779 1.251 . S
H792 C763 0.931 . S
H793 C764 0.931 . S
H794 C766 0.931 . S
H795 C767 0.931 . S
H796 C773 0.931 . S
H797 C774 0.931 . S
H798 C776 0.931 . S
H799 C777 0.931 . S
C800 Eu801 2.835 . S
C800 C802 1.500 . S
C800 O820 1.257 . S
C800 O821 1.260 . S
Eu801 C800 2.835 . S
Eu801 O820 2.473 . S
Eu801 O821 2.480 . S
Eu801 O822 2.430 . S
Eu801 O823 2.670 . S
Eu801 O824 2.394 . S
Eu801 O829 2.355 . S
Eu801 O831 2.374 . S
C802 C800 1.500 . S
C802 C803 1.377 . S
C802 C807 1.377 . S
C803 C802 1.377 . S
C803 C804 1.395 . S
C803 H832 0.931 . S
C804 C803 1.395 . S
C804 C805 1.383 . S
C804 H833 0.931 . S
C805 C804 1.383 . S
C805 C806 1.394 . S
C806 C805 1.394 . S
C806 C807 1.378 . S
C806 H834 0.931 . S
C807 C802 1.377 . S
C807 C806 1.378 . S
C807 H835 0.931 . S
C808 O822 1.259 . S
C808 O823 1.270 . S
C809 O824 1.251 . S
C809 O825 1.251 . S
C810 Eu811 2.835 . S
C810 C812 1.500 . S
C810 O826 1.257 . S
C810 O827 1.260 . S
Eu811 C810 2.835 . S
Eu811 O823 2.355 . S
Eu811 O825 2.374 . S
Eu811 O826 2.473 . S
Eu811 O827 2.480 . S
Eu811 O828 2.430 . S
Eu811 O829 2.670 . S
Eu811 O830 2.394 . S
C812 C810 1.500 . S
C812 C813 1.377 . S
C812 C817 1.377 . S
C813 C812 1.377 . S
C813 C814 1.395 . S
C813 H836 0.931 . S
C814 C813 1.395 . S
C814 C815 1.383 . S
C814 H837 0.931 . S
C815 C814 1.383 . S
C815 C816 1.394 . S
C816 C815 1.394 . S
C816 C817 1.378 . S
C816 H838 0.931 . S
C817 C812 1.377 . S
C817 C816 1.378 . S
C817 H839 0.931 . S
C818 O828 1.259 . S
C818 O829 1.270 . S
C819 O830 1.251 . S
C819 O831 1.251 . S
O820 C800 1.257 . S
O820 Eu801 2.473 . S
O821 C800 1.260 . S
O821 Eu801 2.480 . S
O822 Eu801 2.430 . S
O822 C808 1.259 . S
O823 Eu801 2.670 . S
O823 C808 1.270 . S
O823 Eu811 2.355 . S
O824 Eu801 2.394 . S
O824 C809 1.251 . S
O825 C809 1.251 . S
O825 Eu811 2.374 . S
O826 C810 1.257 . S
O826 Eu811 2.473 . S
O827 C810 1.260 . S
O827 Eu811 2.480 . S
O828 Eu811 2.430 . S
O828 C818 1.259 . S
O829 Eu801 2.355 . S
O829 Eu811 2.670 . S
O829 C818 1.270 . S
O830 Eu811 2.394 . S
O830 C819 1.251 . S
O831 Eu801 2.374 . S
O831 C819 1.251 . S
H832 C803 0.931 . S
H833 C804 0.931 . S
H834 C806 0.931 . S
H835 C807 0.931 . S
H836 C813 0.931 . S
H837 C814 0.931 . S
H838 C816 0.931 . S
H839 C817 0.931 . S
C840 Eu841 2.835 . S
C840 C842 1.500 . S
C840 O860 1.257 . S
C840 O861 1.260 . S
Eu841 C840 2.835 . S
Eu841 O860 2.473 . S
Eu841 O861 2.480 . S
Eu841 O862 2.430 . S
Eu841 O863 2.670 1_556 S
Eu841 O864 2.394 . S
Eu841 O869 2.355 . S
Eu841 O871 2.374 . S
C842 C840 1.500 . S
C842 C843 1.377 . S
C842 C847 1.377 . S
C843 C842 1.377 . S
C843 C844 1.395 . S
C843 H872 0.931 . S
C844 C843 1.395 . S
C844 C845 1.383 . S
C844 H873 0.931 . S
C845 C844 1.383 . S
C845 C846 1.394 . S
C846 C845 1.394 . S
C846 C847 1.378 . S
C846 H874 0.931 . S
C847 C842 1.377 . S
C847 C846 1.378 . S
C847 H875 0.931 . S
C848 O862 1.259 . S
C848 O863 1.270 1_556 S
C849 O864 1.251 . S
C849 O865 1.251 1_556 S
C850 Eu851 2.835 . S
C850 C852 1.500 . S
C850 O866 1.257 . S
C850 O867 1.260 . S
Eu851 C850 2.835 . S
Eu851 O863 2.355 . S
Eu851 O865 2.374 . S
Eu851 O866 2.473 . S
Eu851 O867 2.480 . S
Eu851 O868 2.430 . S
Eu851 O869 2.670 1_554 S
Eu851 O870 2.394 . S
C852 C850 1.500 . S
C852 C853 1.377 . S
C852 C857 1.377 . S
C853 C852 1.377 . S
C853 C854 1.395 . S
C853 H876 0.931 . S
C854 C853 1.395 . S
C854 C855 1.383 . S
C854 H877 0.931 . S
C855 C854 1.383 . S
C855 C856 1.394 . S
C856 C855 1.394 . S
C856 C857 1.378 . S
C856 H878 0.931 . S
C857 C852 1.377 . S
C857 C856 1.378 . S
C857 H879 0.931 . S
C858 O868 1.259 . S
C858 O869 1.270 1_554 S
C859 O870 1.251 . S
C859 O871 1.251 1_554 S
O860 C840 1.257 . S
O860 Eu841 2.473 . S
O861 C840 1.260 . S
O861 Eu841 2.480 . S
O862 Eu841 2.430 . S
O862 C848 1.259 . S
O863 Eu841 2.670 1_554 S
O863 C848 1.270 1_554 S
O863 Eu851 2.355 . S
O864 Eu841 2.394 . S
O864 C849 1.251 . S
O865 C849 1.251 1_554 S
O865 Eu851 2.374 . S
O866 C850 1.257 . S
O866 Eu851 2.473 . S
O867 C850 1.260 . S
O867 Eu851 2.480 . S
O868 Eu851 2.430 . S
O868 C858 1.259 . S
O869 Eu841 2.355 . S
O869 Eu851 2.670 1_556 S
O869 C858 1.270 1_556 S
O870 Eu851 2.394 . S
O870 C859 1.251 . S
O871 Eu841 2.374 . S
O871 C859 1.251 1_556 S
H872 C843 0.931 . S
H873 C844 0.931 . S
H874 C846 0.931 . S
H875 C847 0.931 . S
H876 C853 0.931 . S
H877 C854 0.931 . S
H878 C856 0.931 . S
H879 C857 0.931 . S
C880 Eu881 2.835 . S
C880 C882 1.500 . S
C880 O900 1.257 . S
C880 O901 1.260 . S
Eu881 C880 2.835 . S
Eu881 O900 2.473 . S
Eu881 O901 2.480 . S
Eu881 O902 2.430 . S
Eu881 O903 2.670 1_556 S
Eu881 O904 2.394 . S
Eu881 O909 2.355 . S
Eu881 O911 2.374 . S
C882 C880 1.500 . S
C882 C883 1.377 . S
C882 C887 1.377 . S
C883 C882 1.377 . S
C883 C884 1.395 . S
C883 H912 0.931 . S
C884 C883 1.395 . S
C884 C885 1.383 . S
C884 H913 0.931 . S
C885 C884 1.383 . S
C885 C886 1.394 . S
C886 C885 1.394 . S
C886 C887 1.378 . S
C886 H914 0.931 . S
C887 C882 1.377 . S
C887 C886 1.378 . S
C887 H915 0.931 . S
C888 O902 1.259 . S
C888 O903 1.270 1_556 S
C889 O904 1.251 . S
C889 O905 1.251 1_556 S
C890 Eu891 2.835 . S
C890 C892 1.500 . S
C890 O906 1.257 . S
C890 O907 1.260 . S
Eu891 C890 2.835 . S
Eu891 O903 2.355 . S
Eu891 O905 2.374 . S
Eu891 O906 2.473 . S
Eu891 O907 2.480 . S
Eu891 O908 2.430 . S
Eu891 O909 2.670 1_554 S
Eu891 O910 2.394 . S
C892 C890 1.500 . S
C892 C893 1.377 . S
C892 C897 1.377 . S
C893 C892 1.377 . S
C893 C894 1.395 . S
C893 H916 0.931 . S
C894 C893 1.395 . S
C894 C895 1.383 . S
C894 H917 0.931 . S
C895 C894 1.383 . S
C895 C896 1.394 . S
C896 C895 1.394 . S
C896 C897 1.378 . S
C896 H918 0.931 . S
C897 C892 1.377 . S
C897 C896 1.378 . S
C897 H919 0.931 . S
C898 O908 1.259 . S
C898 O909 1.270 1_554 S
C899 O910 1.251 . S
C899 O911 1.251 1_554 S
O900 C880 1.257 . S
O900 Eu881 2.473 . S
O901 C880 1.260 . S
O901 Eu881 2.480 . S
O902 Eu881 2.430 . S
O902 C888 1.259 . S
O903 Eu881 2.670 1_554 S
O903 C888 1.270 1_554 S
O903 Eu891 2.355 . S
O904 Eu881 2.394 . S
O904 C889 1.251 . S
O905 C889 1.251 1_554 S
O905 Eu891 2.374 . S
O906 C890 1.257 . S
O906 Eu891 2.473 . S
O907 C890 1.260 . S
O907 Eu891 2.480 . S
O908 Eu891 2.430 . S
O908 C898 1.259 . S
O909 Eu881 2.355 . S
O909 Eu891 2.670 1_556 S
O909 C898 1.270 1_556 S
O910 Eu891 2.394 . S
O910 C899 1.251 . S
O911 Eu881 2.374 . S
O911 C899 1.251 1_556 S
H912 C883 0.931 . S
H913 C884 0.931 . S
H914 C886 0.931 . S
H915 C887 0.931 . S
H916 C893 0.931 . S
H917 C894 0.931 . S
H918 C896 0.931 . S
H919 C897 0.931 . S
C920 Eu921 2.835 . S
C920 C922 1.500 . S
C920 O940 1.257 . S
C920 O941 1.260 . S
Eu921 C920 2.835 . S
Eu921 O940 2.473 . S
Eu921 O941 2.480 . S
Eu921 O942 2.430 . S
Eu921 O943 2.670 1_556 S
Eu921 O944 2.394 . S
Eu921 O949 2.355 . S
Eu921 O951 2.374 . S
C922 C920 1.500 . S
C922 C923 1.377 . S
C922 C927 1.377 . S
C923 C922 1.377 . S
C923 C924 1.395 . S
C923 H952 0.931 . S
C924 C923 1.395 . S
C924 C925 1.383 . S
C924 H953 0.931 . S
C925 C924 1.383 . S
C925 C926 1.394 . S
C926 C925 1.394 . S
C926 C927 1.378 . S
C926 H954 0.931 . S
C927 C922 1.377 . S
C927 C926 1.378 . S
C927 H955 0.931 . S
C928 O942 1.259 . S
C928 O943 1.270 1_556 S
C929 O944 1.251 . S
C929 O945 1.251 1_556 S
C930 Eu931 2.835 . S
C930 C932 1.500 . S
C930 O946 1.257 . S
C930 O947 1.260 . S
Eu931 C930 2.835 . S
Eu931 O943 2.355 . S
Eu931 O945 2.374 . S
Eu931 O946 2.473 . S
Eu931 O947 2.480 . S
Eu931 O948 2.430 . S
Eu931 O949 2.670 1_554 S
Eu931 O950 2.394 . S
C932 C930 1.500 . S
C932 C933 1.377 . S
C932 C937 1.377 . S
C933 C932 1.377 . S
C933 C934 1.395 . S
C933 H956 0.931 . S
C934 C933 1.395 . S
C934 C935 1.383 . S
C934 H957 0.931 . S
C935 C934 1.383 . S
C935 C936 1.394 . S
C936 C935 1.394 . S
C936 C937 1.378 . S
C936 H958 0.931 . S
C937 C932 1.377 . S
C937 C936 1.378 . S
C937 H959 0.931 . S
C938 O948 1.259 . S
C938 O949 1.270 1_554 S
C939 O950 1.251 . S
C939 O951 1.251 1_554 S
O940 C920 1.257 . S
O940 Eu921 2.473 . S
O941 C920 1.260 . S
O941 Eu921 2.480 . S
O942 Eu921 2.430 . S
O942 C928 1.259 . S
O943 Eu921 2.670 1_554 S
O943 C928 1.270 1_554 S
O943 Eu931 2.355 . S
O944 Eu921 2.394 . S
O944 C929 1.251 . S
O945 C929 1.251 1_554 S
O945 Eu931 2.374 . S
O946 C930 1.257 . S
O946 Eu931 2.473 . S
O947 C930 1.260 . S
O947 Eu931 2.480 . S
O948 Eu931 2.430 . S
O948 C938 1.259 . S
O949 Eu921 2.355 . S
O949 Eu931 2.670 1_556 S
O949 C938 1.270 1_556 S
O950 Eu931 2.394 . S
O950 C939 1.251 . S
O951 Eu921 2.374 . S
O951 C939 1.251 1_556 S
H952 C923 0.931 . S
H953 C924 0.931 . S
H954 C926 0.931 . S
H955 C927 0.931 . S
H956 C933 0.931 . S
H957 C934 0.931 . S
H958 C936 0.931 . S
H959 C937 0.931 . S
C960 Eu961 2.835 . S
C960 C962 1.500 . S
C960 O980 1.257 . S
C960 O981 1.260 . S
Eu961 C960 2.835 . S
Eu961 O980 2.473 . S
Eu961 O981 2.480 . S
Eu961 O982 2.430 . S
Eu961 O983 2.670 . S
Eu961 O984 2.394 . S
Eu961 O989 2.355 . S
Eu961 O991 2.374 . S
C962 C960 1.500 . S
C962 C963 1.377 . S
C962 C967 1.377 . S
C963 C962 1.377 . S
C963 C964 1.395 . S
C963 H992 0.931 . S
C964 C963 1.395 . S
C964 C965 1.383 . S
C964 H993 0.931 . S
C965 C964 1.383 . S
C965 C966 1.394 . S
C966 C965 1.394 . S
C966 C967 1.378 . S
C966 H994 0.931 . S
C967 C962 1.377 . S
C967 C966 1.378 . S
C967 H995 0.931 . S
C968 O982 1.259 . S
C968 O983 1.270 . S
C969 O984 1.251 . S
C969 O985 1.251 . S
C970 Eu971 2.835 . S
C970 C972 1.500 . S
C970 O986 1.257 . S
C970 O987 1.260 . S
Eu971 C970 2.835 . S
Eu971 O983 2.355 . S
Eu971 O985 2.374 . S
Eu971 O986 2.473 . S
Eu971 O987 2.480 . S
Eu971 O988 2.430 . S
Eu971 O989 2.670 . S
Eu971 O990 2.394 . S
C972 C970 1.500 . S
C972 C973 1.377 . S
C972 C977 1.377 1_565 S
C973 C972 1.377 . S
C973 C974 1.395 . S
C973 H996 0.931 . S
C974 C973 1.395 . S
C974 C975 1.383 1_565 S
C974 H997 0.931 . S
C975 C974 1.383 1_545 S
C975 C976 1.394 . S
C976 C975 1.394 . S
C976 C977 1.378 . S
C976 H998 0.931 . S
C977 C972 1.377 1_545 S
C977 C976 1.378 . S
C977 H999 0.931 . S
C978 O988 1.259 . S
C978 O989 1.270 . S
C979 O990 1.251 . S
C979 O991 1.251 . S
O980 C960 1.257 . S
O980 Eu961 2.473 . S
O981 C960 1.260 . S
O981 Eu961 2.480 . S
O982 Eu961 2.430 . S
O982 C968 1.259 . S
O983 Eu961 2.670 . S
O983 C968 1.270 . S
O983 Eu971 2.355 . S
O984 Eu961 2.394 . S
O984 C969 1.251 . S
O985 C969 1.251 . S
O985 Eu971 2.374 . S
O986 C970 1.257 . S
O986 Eu971 2.473 . S
O987 C970 1.260 . S
O987 Eu971 2.480 . S
O988 Eu971 2.430 . S
O988 C978 1.259 . S
O989 Eu961 2.355 . S
O989 Eu971 2.670 . S
O989 C978 1.270 . S
O990 Eu971 2.394 . S
O990 C979 1.251 . S
O991 Eu961 2.374 . S
O991 C979 1.251 . S
H992 C963 0.931 . S
H993 C964 0.931 . S
H994 C966 0.931 . S
H995 C967 0.931 . S
H996 C973 0.931 . S
H997 C974 0.931 . S
H998 C976 0.931 . S
H999 C977 0.931 . S
C1000 Eu1001 2.835 . S
C1000 C1002 1.500 . S
C1000 O1020 1.257 . S
C1000 O1021 1.260 . S
Eu1001 C1000 2.835 . S
Eu1001 O1020 2.473 . S
Eu1001 O1021 2.480 . S
Eu1001 O1022 2.430 . S
Eu1001 O1023 2.670 . S
Eu1001 O1024 2.394 . S
Eu1001 O1029 2.355 . S
Eu1001 O1031 2.374 . S
C1002 C1000 1.500 . S
C1002 C1003 1.377 . S
C1002 C1007 1.377 . S
C1003 C1002 1.377 . S
C1003 C1004 1.395 . S
C1003 H1032 0.931 . S
C1004 C1003 1.395 . S
C1004 C1005 1.383 . S
C1004 H1033 0.931 . S
C1005 C1004 1.383 . S
C1005 C1006 1.394 . S
C1006 C1005 1.394 . S
C1006 C1007 1.378 . S
C1006 H1034 0.931 . S
C1007 C1002 1.377 . S
C1007 C1006 1.378 . S
C1007 H1035 0.931 . S
C1008 O1022 1.259 . S
C1008 O1023 1.270 . S
C1009 O1024 1.251 . S
C1009 O1025 1.251 . S
C1010 Eu1011 2.835 . S
C1010 C1012 1.500 . S
C1010 O1026 1.257 . S
C1010 O1027 1.260 . S
Eu1011 C1010 2.835 . S
Eu1011 O1023 2.355 . S
Eu1011 O1025 2.374 . S
Eu1011 O1026 2.473 . S
Eu1011 O1027 2.480 . S
Eu1011 O1028 2.430 . S
Eu1011 O1029 2.670 . S
Eu1011 O1030 2.394 . S
C1012 C1010 1.500 . S
C1012 C1013 1.377 . S
C1012 C1017 1.377 1_455 S
C1013 C1012 1.377 . S
C1013 C1014 1.395 . S
C1013 H1036 0.931 . S
C1014 C1013 1.395 . S
C1014 C1015 1.383 1_455 S
C1014 H1037 0.931 . S
C1015 C1014 1.383 1_655 S
C1015 C1016 1.394 . S
C1016 C1015 1.394 . S
C1016 C1017 1.378 . S
C1016 H1038 0.931 . S
C1017 C1012 1.377 1_655 S
C1017 C1016 1.378 . S
C1017 H1039 0.931 . S
C1018 O1028 1.259 . S
C1018 O1029 1.270 . S
C1019 O1030 1.251 . S
C1019 O1031 1.251 . S
O1020 C1000 1.257 . S
O1020 Eu1001 2.473 . S
O1021 C1000 1.260 . S
O1021 Eu1001 2.480 . S
O1022 Eu1001 2.430 . S
O1022 C1008 1.259 . S
O1023 Eu1001 2.670 . S
O1023 C1008 1.270 . S
O1023 Eu1011 2.355 . S
O1024 Eu1001 2.394 . S
O1024 C1009 1.251 . S
O1025 C1009 1.251 . S
O1025 Eu1011 2.374 . S
O1026 C1010 1.257 . S
O1026 Eu1011 2.473 . S
O1027 C1010 1.260 . S
O1027 Eu1011 2.480 . S
O1028 Eu1011 2.430 . S
O1028 C1018 1.259 . S
O1029 Eu1001 2.355 . S
O1029 Eu1011 2.670 . S
O1029 C1018 1.270 . S
O1030 Eu1011 2.394 . S
O1030 C1019 1.251 . S
O1031 Eu1001 2.374 . S
O1031 C1019 1.251 . S
H1032 C1003 0.931 . S
H1033 C1004 0.931 . S
H1034 C1006 0.931 . S
H1035 C1007 0.931 . S
H1036 C1013 0.931 . S
H1037 C1014 0.931 . S
H1038 C1016 0.931 . S
H1039 C1017 0.931 . S
C1040 Eu1041 2.835 . S
C1040 C1042 1.500 . S
C1040 O1060 1.257 . S
C1040 O1061 1.260 . S
Eu1041 C1040 2.835 . S
Eu1041 O1060 2.473 . S
Eu1041 O1061 2.480 . S
Eu1041 O1062 2.430 . S
Eu1041 O1063 2.670 . S
Eu1041 O1064 2.394 . S
Eu1041 O1069 2.355 . S
Eu1041 O1071 2.374 . S
C1042 C1040 1.500 . S
C1042 C1043 1.377 . S
C1042 C1047 1.377 . S
C1043 C1042 1.377 . S
C1043 C1044 1.395 . S
C1043 H1072 0.931 . S
C1044 C1043 1.395 . S
C1044 C1045 1.383 . S
C1044 H1073 0.931 . S
C1045 C1044 1.383 . S
C1045 C1046 1.394 . S
C1046 C1045 1.394 . S
C1046 C1047 1.378 . S
C1046 H1074 0.931 . S
C1047 C1042 1.377 . S
C1047 C1046 1.378 . S
C1047 H1075 0.931 . S
C1048 O1062 1.259 . S
C1048 O1063 1.270 . S
C1049 O1064 1.251 . S
C1049 O1065 1.251 . S
C1050 Eu1051 2.835 . S
C1050 C1052 1.500 . S
C1050 O1066 1.257 . S
C1050 O1067 1.260 . S
Eu1051 C1050 2.835 . S
Eu1051 O1063 2.355 . S
Eu1051 O1065 2.374 . S
Eu1051 O1066 2.473 . S
Eu1051 O1067 2.480 . S
Eu1051 O1068 2.430 . S
Eu1051 O1069 2.670 . S
Eu1051 O1070 2.394 . S
C1052 C1050 1.500 . S
C1052 C1053 1.377 . S
C1052 C1057 1.377 . S
C1053 C1052 1.377 . S
C1053 C1054 1.395 . S
C1053 H1076 0.931 . S
C1054 C1053 1.395 . S
C1054 C1055 1.383 . S
C1054 H1077 0.931 . S
C1055 C1054 1.383 . S
C1055 C1056 1.394 . S
C1056 C1055 1.394 . S
C1056 C1057 1.378 . S
C1056 H1078 0.931 . S
C1057 C1052 1.377 . S
C1057 C1056 1.378 . S
C1057 H1079 0.931 . S
C1058 O1068 1.259 . S
C1058 O1069 1.270 . S
C1059 O1070 1.251 . S
C1059 O1071 1.251 . S
O1060 C1040 1.257 . S
O1060 Eu1041 2.473 . S
O1061 C1040 1.260 . S
O1061 Eu1041 2.480 . S
O1062 Eu1041 2.430 . S
O1062 C1048 1.259 . S
O1063 Eu1041 2.670 . S
O1063 C1048 1.270 . S
O1063 Eu1051 2.355 . S
O1064 Eu1041 2.394 . S
O1064 C1049 1.251 . S
O1065 C1049 1.251 . S
O1065 Eu1051 2.374 . S
O1066 C1050 1.257 . S
O1066 Eu1051 2.473 . S
O1067 C1050 1.260 . S
O1067 Eu1051 2.480 . S
O1068 Eu1051 2.430 . S
O1068 C1058 1.259 . S
O1069 Eu1041 2.355 . S
O1069 Eu1051 2.670 . S
O1069 C1058 1.270 . S
O1070 Eu1051 2.394 . S
O1070 C1059 1.251 . S
O1071 Eu1041 2.374 . S
O1071 C1059 1.251 . S
H1072 C1043 0.931 . S
H1073 C1044 0.931 . S
H1074 C1046 0.931 . S
H1075 C1047 0.931 . S
H1076 C1053 0.931 . S
H1077 C1054 0.931 . S
H1078 C1056 0.931 . S
H1079 C1057 0.931 . S
C1080 Eu1081 2.835 . S
C1080 C1082 1.500 . S
C1080 O1100 1.257 . S
C1080 O1101 1.260 . S
Eu1081 C1080 2.835 . S
Eu1081 O1100 2.473 . S
Eu1081 O1101 2.480 . S
Eu1081 O1102 2.430 . S
Eu1081 O1103 2.670 1_556 S
Eu1081 O1104 2.394 . S
Eu1081 O1109 2.355 . S
Eu1081 O1111 2.374 . S
C1082 C1080 1.500 . S
C1082 C1083 1.377 . S
C1082 C1087 1.377 . S
C1083 C1082 1.377 . S
C1083 C1084 1.395 . S
C1083 H1112 0.931 . S
C1084 C1083 1.395 . S
C1084 C1085 1.383 . S
C1084 H1113 0.931 . S
C1085 C1084 1.383 . S
C1085 C1086 1.394 . S
C1086 C1085 1.394 . S
C1086 C1087 1.378 . S
C1086 H1114 0.931 . S
C1087 C1082 1.377 . S
C1087 C1086 1.378 . S
C1087 H1115 0.931 . S
C1088 O1102 1.259 . S
C1088 O1103 1.270 1_556 S
C1089 O1104 1.251 . S
C1089 O1105 1.251 1_556 S
C1090 Eu1091 2.835 . S
C1090 C1092 1.500 . S
C1090 O1106 1.257 . S
C1090 O1107 1.260 . S
Eu1091 C1090 2.835 . S
Eu1091 O1103 2.355 . S
Eu1091 O1105 2.374 . S
Eu1091 O1106 2.473 . S
Eu1091 O1107 2.480 . S
Eu1091 O1108 2.430 . S
Eu1091 O1109 2.670 1_554 S
Eu1091 O1110 2.394 . S
C1092 C1090 1.500 . S
C1092 C1093 1.377 . S
C1092 C1097 1.377 . S
C1093 C1092 1.377 . S
C1093 C1094 1.395 . S
C1093 H1116 0.931 . S
C1094 C1093 1.395 . S
C1094 C1095 1.383 . S
C1094 H1117 0.931 . S
C1095 C1094 1.383 . S
C1095 C1096 1.394 . S
C1096 C1095 1.394 . S
C1096 C1097 1.378 . S
C1096 H1118 0.931 . S
C1097 C1092 1.377 . S
C1097 C1096 1.378 . S
C1097 H1119 0.931 . S
C1098 O1108 1.259 . S
C1098 O1109 1.270 1_554 S
C1099 O1110 1.251 . S
C1099 O1111 1.251 1_554 S
O1100 C1080 1.257 . S
O1100 Eu1081 2.473 . S
O1101 C1080 1.260 . S
O1101 Eu1081 2.480 . S
O1102 Eu1081 2.430 . S
O1102 C1088 1.259 . S
O1103 Eu1081 2.670 1_554 S
O1103 C1088 1.270 1_554 S
O1103 Eu1091 2.355 . S
O1104 Eu1081 2.394 . S
O1104 C1089 1.251 . S
O1105 C1089 1.251 1_554 S
O1105 Eu1091 2.374 . S
O1106 C1090 1.257 . S
O1106 Eu1091 2.473 . S
O1107 C1090 1.260 . S
O1107 Eu1091 2.480 . S
O1108 Eu1091 2.430 . S
O1108 C1098 1.259 . S
O1109 Eu1081 2.355 . S
O1109 Eu1091 2.670 1_556 S
O1109 C1098 1.270 1_556 S
O1110 Eu1091 2.394 . S
O1110 C1099 1.251 . S
O1111 Eu1081 2.374 . S
O1111 C1099 1.251 1_556 S
H1112 C1083 0.931 . S
H1113 C1084 0.931 . S
H1114 C1086 0.931 . S
H1115 C1087 0.931 . S
H1116 C1093 0.931 . S
H1117 C1094 0.931 . S
H1118 C1096 0.931 . S
H1119 C1097 0.931 . S
C1120 Eu1121 2.835 . S
C1120 C1122 1.500 . S
C1120 O1140 1.257 . S
C1120 O1141 1.260 . S
Eu1121 C1120 2.835 . S
Eu1121 O1140 2.473 . S
Eu1121 O1141 2.480 . S
Eu1121 O1142 2.430 . S
Eu1121 O1143 2.670 1_556 S
Eu1121 O1144 2.394 . S
Eu1121 O1149 2.355 . S
Eu1121 O1151 2.374 . S
C1122 C1120 1.500 . S
C1122 C1123 1.377 . S
C1122 C1127 1.377 . S
C1123 C1122 1.377 . S
C1123 C1124 1.395 . S
C1123 H1152 0.931 . S
C1124 C1123 1.395 . S
C1124 C1125 1.383 . S
C1124 H1153 0.931 . S
C1125 C1124 1.383 . S
C1125 C1126 1.394 . S
C1126 C1125 1.394 . S
C1126 C1127 1.378 . S
C1126 H1154 0.931 . S
C1127 C1122 1.377 . S
C1127 C1126 1.378 . S
C1127 H1155 0.931 . S
C1128 O1142 1.259 . S
C1128 O1143 1.270 1_556 S
C1129 O1144 1.251 . S
C1129 O1145 1.251 1_556 S
C1130 Eu1131 2.835 . S
C1130 C1132 1.500 . S
C1130 O1146 1.257 . S
C1130 O1147 1.260 . S
Eu1131 C1130 2.835 . S
Eu1131 O1143 2.355 . S
Eu1131 O1145 2.374 . S
Eu1131 O1146 2.473 . S
Eu1131 O1147 2.480 . S
Eu1131 O1148 2.430 . S
Eu1131 O1149 2.670 1_554 S
Eu1131 O1150 2.394 . S
C1132 C1130 1.500 . S
C1132 C1133 1.377 . S
C1132 C1137 1.377 . S
C1133 C1132 1.377 . S
C1133 C1134 1.395 . S
C1133 H1156 0.931 . S
C1134 C1133 1.395 . S
C1134 C1135 1.383 . S
C1134 H1157 0.931 . S
C1135 C1134 1.383 . S
C1135 C1136 1.394 . S
C1136 C1135 1.394 . S
C1136 C1137 1.378 . S
C1136 H1158 0.931 . S
C1137 C1132 1.377 . S
C1137 C1136 1.378 . S
C1137 H1159 0.931 . S
C1138 O1148 1.259 . S
C1138 O1149 1.270 1_554 S
C1139 O1150 1.251 . S
C1139 O1151 1.251 1_554 S
O1140 C1120 1.257 . S
O1140 Eu1121 2.473 . S
O1141 C1120 1.260 . S
O1141 Eu1121 2.480 . S
O1142 Eu1121 2.430 . S
O1142 C1128 1.259 . S
O1143 Eu1121 2.670 1_554 S
O1143 C1128 1.270 1_554 S
O1143 Eu1131 2.355 . S
O1144 Eu1121 2.394 . S
O1144 C1129 1.251 . S
O1145 C1129 1.251 1_554 S
O1145 Eu1131 2.374 . S
O1146 C1130 1.257 . S
O1146 Eu1131 2.473 . S
O1147 C1130 1.260 . S
O1147 Eu1131 2.480 . S
O1148 Eu1131 2.430 . S
O1148 C1138 1.259 . S
O1149 Eu1121 2.355 . S
O1149 Eu1131 2.670 1_556 S
O1149 C1138 1.270 1_556 S
O1150 Eu1131 2.394 . S
O1150 C1139 1.251 . S
O1151 Eu1121 2.374 . S
O1151 C1139 1.251 1_556 S
H1152 C1123 0.931 . S
H1153 C1124 0.931 . S
H1154 C1126 0.931 . S
H1155 C1127 0.931 . S
H1156 C1133 0.931 . S
H1157 C1134 0.931 . S
H1158 C1136 0.931 . S
H1159 C1137 0.931 . S
C1160 Eu1161 2.835 . S
C1160 C1162 1.500 . S
C1160 O1180 1.257 . S
C1160 O1181 1.260 . S
Eu1161 C1160 2.835 . S
Eu1161 O1180 2.473 . S
Eu1161 O1181 2.480 . S
Eu1161 O1182 2.430 . S
Eu1161 O1183 2.670 1_556 S
Eu1161 O1184 2.394 . S
Eu1161 O1189 2.355 . S
Eu1161 O1191 2.374 . S
C1162 C1160 1.500 . S
C1162 C1163 1.377 . S
C1162 C1167 1.377 . S
C1163 C1162 1.377 . S
C1163 C1164 1.395 . S
C1163 H1192 0.931 . S
C1164 C1163 1.395 . S
C1164 C1165 1.383 . S
C1164 H1193 0.931 . S
C1165 C1164 1.383 . S
C1165 C1166 1.394 . S
C1166 C1165 1.394 . S
C1166 C1167 1.378 . S
C1166 H1194 0.931 . S
C1167 C1162 1.377 . S
C1167 C1166 1.378 . S
C1167 H1195 0.931 . S
C1168 O1182 1.259 . S
C1168 O1183 1.270 1_556 S
C1169 O1184 1.251 . S
C1169 O1185 1.251 1_556 S
C1170 Eu1171 2.835 . S
C1170 C1172 1.500 . S
C1170 O1186 1.257 . S
C1170 O1187 1.260 . S
Eu1171 C1170 2.835 . S
Eu1171 O1183 2.355 . S
Eu1171 O1185 2.374 . S
Eu1171 O1186 2.473 . S
Eu1171 O1187 2.480 . S
Eu1171 O1188 2.430 . S
Eu1171 O1189 2.670 1_554 S
Eu1171 O1190 2.394 . S
C1172 C1170 1.500 . S
C1172 C1173 1.377 . S
C1172 C1177 1.377 . S
C1173 C1172 1.377 . S
C1173 C1174 1.395 . S
C1173 H1196 0.931 . S
C1174 C1173 1.395 . S
C1174 C1175 1.383 . S
C1174 H1197 0.931 . S
C1175 C1174 1.383 . S
C1175 C1176 1.394 . S
C1176 C1175 1.394 . S
C1176 C1177 1.378 . S
C1176 H1198 0.931 . S
C1177 C1172 1.377 . S
C1177 C1176 1.378 . S
C1177 H1199 0.931 . S
C1178 O1188 1.259 . S
C1178 O1189 1.270 1_554 S
C1179 O1190 1.251 . S
C1179 O1191 1.251 1_554 S
O1180 C1160 1.257 . S
O1180 Eu1161 2.473 . S
O1181 C1160 1.260 . S
O1181 Eu1161 2.480 . S
O1182 Eu1161 2.430 . S
O1182 C1168 1.259 . S
O1183 Eu1161 2.670 1_554 S
O1183 C1168 1.270 1_554 S
O1183 Eu1171 2.355 . S
O1184 Eu1161 2.394 . S
O1184 C1169 1.251 . S
O1185 C1169 1.251 1_554 S
O1185 Eu1171 2.374 . S
O1186 C1170 1.257 . S
O1186 Eu1171 2.473 . S
O1187 C1170 1.260 . S
O1187 Eu1171 2.480 . S
O1188 Eu1171 2.430 . S
O1188 C1178 1.259 . S
O1189 Eu1161 2.355 . S
O1189 Eu1171 2.670 1_556 S
O1189 C1178 1.270 1_556 S
O1190 Eu1171 2.394 . S
O1190 C1179 1.251 . S
O1191 Eu1161 2.374 . S
O1191 C1179 1.251 1_556 S
H1192 C1163 0.931 . S
H1193 C1164 0.931 . S
H1194 C1166 0.931 . S
H1195 C1167 0.931 . S
H1196 C1173 0.931 . S
H1197 C1174 0.931 . S
H1198 C1176 0.931 . S
H1199 C1177 0.931 . S
C1200 Eu1201 2.835 . S
C1200 C1202 1.500 . S
C1200 O1220 1.257 . S
C1200 O1221 1.260 . S
Eu1201 C1200 2.835 . S
Eu1201 O1220 2.473 . S
Eu1201 O1221 2.480 . S
Eu1201 O1222 2.430 . S
Eu1201 O1223 2.670 . S
Eu1201 O1224 2.394 . S
Eu1201 O1229 2.355 . S
Eu1201 O1231 2.374 . S
C1202 C1200 1.500 . S
C1202 C1203 1.377 . S
C1202 C1207 1.377 . S
C1203 C1202 1.377 . S
C1203 C1204 1.395 . S
C1203 H1232 0.931 . S
C1204 C1203 1.395 . S
C1204 C1205 1.383 . S
C1204 H1233 0.931 . S
C1205 C1204 1.383 . S
C1205 C1206 1.394 . S
C1206 C1205 1.394 . S
C1206 C1207 1.378 . S
C1206 H1234 0.931 . S
C1207 C1202 1.377 . S
C1207 C1206 1.378 . S
C1207 H1235 0.931 . S
C1208 O1222 1.259 . S
C1208 O1223 1.270 . S
C1209 O1224 1.251 . S
C1209 O1225 1.251 . S
C1210 Eu1211 2.835 . S
C1210 C1212 1.500 . S
C1210 O1226 1.257 . S
C1210 O1227 1.260 . S
Eu1211 C1210 2.835 . S
Eu1211 O1223 2.355 . S
Eu1211 O1225 2.374 . S
Eu1211 O1226 2.473 . S
Eu1211 O1227 2.480 . S
Eu1211 O1228 2.430 . S
Eu1211 O1229 2.670 . S
Eu1211 O1230 2.394 . S
C1212 C1210 1.500 . S
C1212 C1213 1.377 . S
C1212 C1217 1.377 . S
C1213 C1212 1.377 . S
C1213 C1214 1.395 . S
C1213 H1236 0.931 . S
C1214 C1213 1.395 . S
C1214 C1215 1.383 . S
C1214 H1237 0.931 . S
C1215 C1214 1.383 . S
C1215 C1216 1.394 . S
C1216 C1215 1.394 . S
C1216 C1217 1.378 . S
C1216 H1238 0.931 . S
C1217 C1212 1.377 . S
C1217 C1216 1.378 . S
C1217 H1239 0.931 . S
C1218 O1228 1.259 . S
C1218 O1229 1.270 . S
C1219 O1230 1.251 . S
C1219 O1231 1.251 . S
O1220 C1200 1.257 . S
O1220 Eu1201 2.473 . S
O1221 C1200 1.260 . S
O1221 Eu1201 2.480 . S
O1222 Eu1201 2.430 . S
O1222 C1208 1.259 . S
O1223 Eu1201 2.670 . S
O1223 C1208 1.270 . S
O1223 Eu1211 2.355 . S
O1224 Eu1201 2.394 . S
O1224 C1209 1.251 . S
O1225 C1209 1.251 . S
O1225 Eu1211 2.374 . S
O1226 C1210 1.257 . S
O1226 Eu1211 2.473 . S
O1227 C1210 1.260 . S
O1227 Eu1211 2.480 . S
O1228 Eu1211 2.430 . S
O1228 C1218 1.259 . S
O1229 Eu1201 2.355 . S
O1229 Eu1211 2.670 . S
O1229 C1218 1.270 . S
O1230 Eu1211 2.394 . S
O1230 C1219 1.251 . S
O1231 Eu1201 2.374 . S
O1231 C1219 1.251 . S
H1232 C1203 0.931 . S
H1233 C1204 0.931 . S
H1234 C1206 0.931 . S
H1235 C1207 0.931 . S
H1236 C1213 0.931 . S
H1237 C1214 0.931 . S
H1238 C1216 0.931 . S
H1239 C1217 0.931 . S
C1240 Eu1241 2.835 . S
C1240 C1242 1.500 . S
C1240 O1260 1.257 . S
C1240 O1261 1.260 . S
Eu1241 C1240 2.835 . S
Eu1241 O1260 2.473 . S
Eu1241 O1261 2.480 . S
Eu1241 O1262 2.430 . S
Eu1241 O1263 2.670 . S
Eu1241 O1264 2.394 . S
Eu1241 O1269 2.355 . S
Eu1241 O1271 2.374 . S
C1242 C1240 1.500 . S
C1242 C1243 1.377 . S
C1242 C1247 1.377 . S
C1243 C1242 1.377 . S
C1243 C1244 1.395 . S
C1243 H1272 0.931 . S
C1244 C1243 1.395 . S
C1244 C1245 1.383 . S
C1244 H1273 0.931 . S
C1245 C1244 1.383 . S
C1245 C1246 1.394 . S
C1246 C1245 1.394 . S
C1246 C1247 1.378 . S
C1246 H1274 0.931 . S
C1247 C1242 1.377 . S
C1247 C1246 1.378 . S
C1247 H1275 0.931 . S
C1248 O1262 1.259 . S
C1248 O1263 1.270 . S
C1249 O1264 1.251 . S
C1249 O1265 1.251 . S
C1250 Eu1251 2.835 . S
C1250 C1252 1.500 . S
C1250 O1266 1.257 . S
C1250 O1267 1.260 . S
Eu1251 C1250 2.835 . S
Eu1251 O1263 2.355 . S
Eu1251 O1265 2.374 . S
Eu1251 O1266 2.473 . S
Eu1251 O1267 2.480 . S
Eu1251 O1268 2.430 . S
Eu1251 O1269 2.670 . S
Eu1251 O1270 2.394 . S
C1252 C1250 1.500 . S
C1252 C1253 1.377 . S
C1252 C1257 1.377 . S
C1253 C1252 1.377 . S
C1253 C1254 1.395 . S
C1253 H1276 0.931 . S
C1254 C1253 1.395 . S
C1254 C1255 1.383 . S
C1254 H1277 0.931 . S
C1255 C1254 1.383 . S
C1255 C1256 1.394 . S
C1256 C1255 1.394 . S
C1256 C1257 1.378 . S
C1256 H1278 0.931 . S
C1257 C1252 1.377 . S
C1257 C1256 1.378 . S
C1257 H1279 0.931 . S
C1258 O1268 1.259 . S
C1258 O1269 1.270 . S
C1259 O1270 1.251 . S
C1259 O1271 1.251 . S
O1260 C1240 1.257 . S
O1260 Eu1241 2.473 . S
O1261 C1240 1.260 . S
O1261 Eu1241 2.480 . S
O1262 Eu1241 2.430 . S
O1262 C1248 1.259 . S
O1263 Eu1241 2.670 . S
O1263 C1248 1.270 . S
O1263 Eu1251 2.355 . S
O1264 Eu1241 2.394 . S
O1264 C1249 1.251 . S
O1265 C1249 1.251 . S
O1265 Eu1251 2.374 . S
O1266 C1250 1.257 . S
O1266 Eu1251 2.473 . S
O1267 C1250 1.260 . S
O1267 Eu1251 2.480 . S
O1268 Eu1251 2.430 . S
O1268 C1258 1.259 . S
O1269 Eu1241 2.355 . S
O1269 Eu1251 2.670 . S
O1269 C1258 1.270 . S
O1270 Eu1251 2.394 . S
O1270 C1259 1.251 . S
O1271 Eu1241 2.374 . S
O1271 C1259 1.251 . S
H1272 C1243 0.931 . S
H1273 C1244 0.931 . S
H1274 C1246 0.931 . S
H1275 C1247 0.931 . S
H1276 C1253 0.931 . S
H1277 C1254 0.931 . S
H1278 C1256 0.931 . S
H1279 C1257 0.931 . S
C1280 Eu1281 2.835 . S
C1280 C1282 1.500 . S
C1280 O1300 1.257 . S
C1280 O1301 1.260 . S
Eu1281 C1280 2.835 . S
Eu1281 O1300 2.473 . S
Eu1281 O1301 2.480 . S
Eu1281 O1302 2.430 . S
Eu1281 O1303 2.670 . S
Eu1281 O1304 2.394 . S
Eu1281 O1309 2.355 . S
Eu1281 O1311 2.374 . S
C1282 C1280 1.500 . S
C1282 C1283 1.377 . S
C1282 C1287 1.377 . S
C1283 C1282 1.377 . S
C1283 C1284 1.395 . S
C1283 H1312 0.931 . S
C1284 C1283 1.395 . S
C1284 C1285 1.383 . S
C1284 H1313 0.931 . S
C1285 C1284 1.383 . S
C1285 C1286 1.394 . S
C1286 C1285 1.394 . S
C1286 C1287 1.378 . S
C1286 H1314 0.931 . S
C1287 C1282 1.377 . S
C1287 C1286 1.378 . S
C1287 H1315 0.931 . S
C1288 O1302 1.259 . S
C1288 O1303 1.270 . S
C1289 O1304 1.251 . S
C1289 O1305 1.251 . S
C1290 Eu1291 2.835 . S
C1290 C1292 1.500 . S
C1290 O1306 1.257 . S
C1290 O1307 1.260 . S
Eu1291 C1290 2.835 . S
Eu1291 O1303 2.355 . S
Eu1291 O1305 2.374 . S
Eu1291 O1306 2.473 . S
Eu1291 O1307 2.480 . S
Eu1291 O1308 2.430 . S
Eu1291 O1309 2.670 . S
Eu1291 O1310 2.394 . S
C1292 C1290 1.500 . S
C1292 C1293 1.377 . S
C1292 C1297 1.377 . S
C1293 C1292 1.377 . S
C1293 C1294 1.395 . S
C1293 H1316 0.931 . S
C1294 C1293 1.395 . S
C1294 C1295 1.383 . S
C1294 H1317 0.931 . S
C1295 C1294 1.383 . S
C1295 C1296 1.394 . S
C1296 C1295 1.394 . S
C1296 C1297 1.378 . S
C1296 H1318 0.931 . S
C1297 C1292 1.377 . S
C1297 C1296 1.378 . S
C1297 H1319 0.931 . S
C1298 O1308 1.259 . S
C1298 O1309 1.270 . S
C1299 O1310 1.251 . S
C1299 O1311 1.251 . S
O1300 C1280 1.257 . S
O1300 Eu1281 2.473 . S
O1301 C1280 1.260 . S
O1301 Eu1281 2.480 . S
O1302 Eu1281 2.430 . S
O1302 C1288 1.259 . S
O1303 Eu1281 2.670 . S
O1303 C1288 1.270 . S
O1303 Eu1291 2.355 . S
O1304 Eu1281 2.394 . S
O1304 C1289 1.251 . S
O1305 C1289 1.251 . S
O1305 Eu1291 2.374 . S
O1306 C1290 1.257 . S
O1306 Eu1291 2.473 . S
O1307 C1290 1.260 . S
O1307 Eu1291 2.480 . S
O1308 Eu1291 2.430 . S
O1308 C1298 1.259 . S
O1309 Eu1281 2.355 . S
O1309 Eu1291 2.670 . S
O1309 C1298 1.270 . S
O1310 Eu1291 2.394 . S
O1310 C1299 1.251 . S
O1311 Eu1281 2.374 . S
O1311 C1299 1.251 . S
H1312 C1283 0.931 . S
H1313 C1284 0.931 . S
H1314 C1286 0.931 . S
H1315 C1287 0.931 . S
H1316 C1293 0.931 . S
H1317 C1294 0.931 . S
H1318 C1296 0.931 . S
H1319 C1297 0.931 . S
C1320 Eu1321 2.835 . S
C1320 C1322 1.500 . S
C1320 O1340 1.257 . S
C1320 O1341 1.260 . S
Eu1321 C1320 2.835 . S
Eu1321 O1340 2.473 . S
Eu1321 O1341 2.480 . S
Eu1321 O1342 2.430 . S
Eu1321 O1343 2.670 . S
Eu1321 O1344 2.394 . S
Eu1321 O1349 2.355 . S
Eu1321 O1351 2.374 . S
C1322 C1320 1.500 . S
C1322 C1323 1.377 . S
C1322 C1327 1.377 1_455 S
C1323 C1322 1.377 . S
C1323 C1324 1.395 . S
C1323 H1352 0.931 . S
C1324 C1323 1.395 . S
C1324 C1325 1.383 1_455 S
C1324 H1353 0.931 . S
C1325 C1324 1.383 1_655 S
C1325 C1326 1.394 . S
C1326 C1325 1.394 . S
C1326 C1327 1.378 . S
C1326 H1354 0.931 . S
C1327 C1322 1.377 1_655 S
C1327 C1326 1.378 . S
C1327 H1355 0.931 . S
C1328 O1342 1.259 . S
C1328 O1343 1.270 . S
C1329 O1344 1.251 . S
C1329 O1345 1.251 . S
C1330 Eu1331 2.835 . S
C1330 C1332 1.500 . S
C1330 O1346 1.257 . S
C1330 O1347 1.260 . S
Eu1331 C1330 2.835 . S
Eu1331 O1343 2.355 . S
Eu1331 O1345 2.374 . S
Eu1331 O1346 2.473 . S
Eu1331 O1347 2.480 . S
Eu1331 O1348 2.430 . S
Eu1331 O1349 2.670 . S
Eu1331 O1350 2.394 . S
C1332 C1330 1.500 . S
C1332 C1333 1.377 . S
C1332 C1337 1.377 . S
C1333 C1332 1.377 . S
C1333 C1334 1.395 . S
C1333 H1356 0.931 . S
C1334 C1333 1.395 . S
C1334 C1335 1.383 . S
C1334 H1357 0.931 . S
C1335 C1334 1.383 . S
C1335 C1336 1.394 . S
C1336 C1335 1.394 . S
C1336 C1337 1.378 . S
C1336 H1358 0.931 . S
C1337 C1332 1.377 . S
C1337 C1336 1.378 . S
C1337 H1359 0.931 . S
C1338 O1348 1.259 . S
C1338 O1349 1.270 . S
C1339 O1350 1.251 . S
C1339 O1351 1.251 . S
O1340 C1320 1.257 . S
O1340 Eu1321 2.473 . S
O1341 C1320 1.260 . S
O1341 Eu1321 2.480 . S
O1342 Eu1321 2.430 . S
O1342 C1328 1.259 . S
O1343 Eu1321 2.670 . S
O1343 C1328 1.270 . S
O1343 Eu1331 2.355 . S
O1344 Eu1321 2.394 . S
O1344 C1329 1.251 . S
O1345 C1329 1.251 . S
O1345 Eu1331 2.374 . S
O1346 C1330 1.257 . S
O1346 Eu1331 2.473 . S
O1347 C1330 1.260 . S
O1347 Eu1331 2.480 . S
O1348 Eu1331 2.430 . S
O1348 C1338 1.259 . S
O1349 Eu1321 2.355 . S
O1349 Eu1331 2.670 . S
O1349 C1338 1.270 . S
O1350 Eu1331 2.394 . S
O1350 C1339 1.251 . S
O1351 Eu1321 2.374 . S
O1351 C1339 1.251 . S
H1352 C1323 0.931 . S
H1353 C1324 0.931 . S
H1354 C1326 0.931 . S
H1355 C1327 0.931 . S
H1356 C1333 0.931 . S
H1357 C1334 0.931 . S
H1358 C1336 0.931 . S
H1359 C1337 0.931 . S
C1360 Eu1361 2.835 . S
C1360 C1362 1.500 . S
C1360 O1380 1.257 . S
C1360 O1381 1.260 . S
Eu1361 C1360 2.835 . S
Eu1361 O1380 2.473 . S
Eu1361 O1381 2.480 . S
Eu1361 O1382 2.430 . S
Eu1361 O1383 2.670 . S
Eu1361 O1384 2.394 . S
Eu1361 O1389 2.355 . S
Eu1361 O1391 2.374 . S
C1362 C1360 1.500 . S
C1362 C1363 1.377 . S
C1362 C1367 1.377 . S
C1363 C1362 1.377 . S
C1363 C1364 1.395 . S
C1363 H1392 0.931 . S
C1364 C1363 1.395 . S
C1364 C1365 1.383 . S
C1364 H1393 0.931 . S
C1365 C1364 1.383 . S
C1365 C1366 1.394 . S
C1366 C1365 1.394 . S
C1366 C1367 1.378 . S
C1366 H1394 0.931 . S
C1367 C1362 1.377 . S
C1367 C1366 1.378 . S
C1367 H1395 0.931 . S
C1368 O1382 1.259 . S
C1368 O1383 1.270 . S
C1369 O1384 1.251 . S
C1369 O1385 1.251 . S
C1370 Eu1371 2.835 . S
C1370 C1372 1.500 . S
C1370 O1386 1.257 . S
C1370 O1387 1.260 . S
Eu1371 C1370 2.835 . S
Eu1371 O1383 2.355 . S
Eu1371 O1385 2.374 . S
Eu1371 O1386 2.473 . S
Eu1371 O1387 2.480 . S
Eu1371 O1388 2.430 . S
Eu1371 O1389 2.670 . S
Eu1371 O1390 2.394 . S
C1372 C1370 1.500 . S
C1372 C1373 1.377 . S
C1372 C1377 1.377 . S
C1373 C1372 1.377 . S
C1373 C1374 1.395 . S
C1373 H1396 0.931 . S
C1374 C1373 1.395 . S
C1374 C1375 1.383 . S
C1374 H1397 0.931 . S
C1375 C1374 1.383 . S
C1375 C1376 1.394 . S
C1376 C1375 1.394 . S
C1376 C1377 1.378 . S
C1376 H1398 0.931 . S
C1377 C1372 1.377 . S
C1377 C1376 1.378 . S
C1377 H1399 0.931 . S
C1378 O1388 1.259 . S
C1378 O1389 1.270 . S
C1379 O1390 1.251 . S
C1379 O1391 1.251 . S
O1380 C1360 1.257 . S
O1380 Eu1361 2.473 . S
O1381 C1360 1.260 . S
O1381 Eu1361 2.480 . S
O1382 Eu1361 2.430 . S
O1382 C1368 1.259 . S
O1383 Eu1361 2.670 . S
O1383 C1368 1.270 . S
O1383 Eu1371 2.355 . S
O1384 Eu1361 2.394 . S
O1384 C1369 1.251 . S
O1385 C1369 1.251 . S
O1385 Eu1371 2.374 . S
O1386 C1370 1.257 . S
O1386 Eu1371 2.473 . S
O1387 C1370 1.260 . S
O1387 Eu1371 2.480 . S
O1388 Eu1371 2.430 . S
O1388 C1378 1.259 . S
O1389 Eu1361 2.355 . S
O1389 Eu1371 2.670 . S
O1389 C1378 1.270 . S
O1390 Eu1371 2.394 . S
O1390 C1379 1.251 . S
O1391 Eu1361 2.374 . S
O1391 C1379 1.251 . S
H1392 C1363 0.931 . S
H1393 C1364 0.931 . S
H1394 C1366 0.931 . S
H1395 C1367 0.931 . S
H1396 C1373 0.931 . S
H1397 C1374 0.931 . S
H1398 C1376 0.931 . S
H1399 C1377 0.931 . S
C1400 Eu1401 2.835 . S
C1400 C1402 1.500 . S
C1400 O1420 1.257 . S
C1400 O1421 1.260 . S
Eu1401 C1400 2.835 . S
Eu1401 O1420 2.473 . S
Eu1401 O1421 2.480 . S
Eu1401 O1422 2.430 . S
Eu1401 O1423 2.670 . S
Eu1401 O1424 2.394 . S
Eu1401 O1429 2.355 . S
Eu1401 O1431 2.374 . S
C1402 C1400 1.500 . S
C1402 C1403 1.377 . S
C1402 C1407 1.377 1_565 S
C1403 C1402 1.377 . S
C1403 C1404 1.395 . S
C1403 H1432 0.931 . S
C1404 C1403 1.395 . S
C1404 C1405 1.383 1_565 S
C1404 H1433 0.931 . S
C1405 C1404 1.383 1_545 S
C1405 C1406 1.394 . S
C1406 C1405 1.394 . S
C1406 C1407 1.378 . S
C1406 H1434 0.931 . S
C1407 C1402 1.377 1_545 S
C1407 C1406 1.378 . S
C1407 H1435 0.931 . S
C1408 O1422 1.259 . S
C1408 O1423 1.270 . S
C1409 O1424 1.251 . S
C1409 O1425 1.251 . S
C1410 Eu1411 2.835 . S
C1410 C1412 1.500 . S
C1410 O1426 1.257 . S
C1410 O1427 1.260 . S
Eu1411 C1410 2.835 . S
Eu1411 O1423 2.355 . S
Eu1411 O1425 2.374 . S
Eu1411 O1426 2.473 . S
Eu1411 O1427 2.480 . S
Eu1411 O1428 2.430 . S
Eu1411 O1429 2.670 . S
Eu1411 O1430 2.394 . S
C1412 C1410 1.500 . S
C1412 C1413 1.377 . S
C1412 C1417 1.377 . S
C1413 C1412 1.377 . S
C1413 C1414 1.395 . S
C1413 H1436 0.931 . S
C1414 C1413 1.395 . S
C1414 C1415 1.383 . S
C1414 H1437 0.931 . S
C1415 C1414 1.383 . S
C1415 C1416 1.394 . S
C1416 C1415 1.394 . S
C1416 C1417 1.378 . S
C1416 H1438 0.931 . S
C1417 C1412 1.377 . S
C1417 C1416 1.378 . S
C1417 H1439 0.931 . S
C1418 O1428 1.259 . S
C1418 O1429 1.270 . S
C1419 O1430 1.251 . S
C1419 O1431 1.251 . S
O1420 C1400 1.257 . S
O1420 Eu1401 2.473 . S
O1421 C1400 1.260 . S
O1421 Eu1401 2.480 . S
O1422 Eu1401 2.430 . S
O1422 C1408 1.259 . S
O1423 Eu1401 2.670 . S
O1423 C1408 1.270 . S
O1423 Eu1411 2.355 . S
O1424 Eu1401 2.394 . S
O1424 C1409 1.251 . S
O1425 C1409 1.251 . S
O1425 Eu1411 2.374 . S
O1426 C1410 1.257 . S
O1426 Eu1411 2.473 . S
O1427 C1410 1.260 . S
O1427 Eu1411 2.480 . S
O1428 Eu1411 2.430 . S
O1428 C1418 1.259 . S
O1429 Eu1401 2.355 . S
O1429 Eu1411 2.670 . S
O1429 C1418 1.270 . S
O1430 Eu1411 2.394 . S
O1430 C1419 1.251 . S
O1431 Eu1401 2.374 . S
O1431 C1419 1.251 . S
H1432 C1403 0.931 . S
H1433 C1404 0.931 . S
H1434 C1406 0.931 . S
H1435 C1407 0.931 . S
H1436 C1413 0.931 . S
H1437 C1414 0.931 . S
H1438 C1416 0.931 . S
H1439 C1417 0.931 . S
C1440 C1441 1.363 . S
C1440 C1446 1.379 . S
C1440 N1448 1.356 . S
C1441 C1440 1.363 . S
C1441 C1447 1.363 . S
C1442 C1443 1.363 . S
C1442 C1447 1.379 . S
C1442 N1449 1.356 . S
C1443 C1442 1.363 . S
C1443 C1446 1.363 . S
N1444 C1446 1.356 1_565 S
N1444 H1456 0.984 . S
N1444 H1457 0.985 . S
N1445 C1447 1.356 . S
N1445 H1450 0.984 . S
N1445 H1451 0.985 . S
C1446 C1440 1.379 . S
C1446 C1443 1.363 . S
C1446 N1444 1.356 1_545 S
C1447 C1441 1.363 . S
C1447 C1442 1.379 . S
C1447 N1445 1.356 . S
N1448 C1440 1.356 . S
N1448 H1454 0.984 . S
N1448 H1455 0.984 . S
N1449 C1442 1.356 . S
N1449 H1452 0.984 1_545 S
N1449 H1453 0.985 . S
H1450 N1445 0.984 . S
H1451 N1445 0.985 . S
H1452 N1449 0.984 1_565 S
H1453 N1449 0.985 . S
H1454 N1448 0.984 . S
H1455 N1448 0.984 . S
H1456 N1444 0.984 . S
H1457 N1444 0.985 . S
C1458 C1459 1.363 . S
C1458 C1464 1.379 . S
C1458 N1466 1.374 . S
C1459 C1458 1.363 . S
C1459 C1465 1.363 . S
C1460 C1461 1.363 . S
C1460 C1465 1.379 . S
C1460 N1467 1.356 . S
C1461 C1460 1.363 . S
C1461 C1464 1.363 . S
N1462 C1464 1.356 . S
N1462 H1474 0.984 1_545 S
N1462 H1475 0.985 1_545 S
N1463 C1465 1.356 . S
N1463 H1468 0.984 1_655 S
N1463 H1469 0.985 . S
C1464 C1458 1.379 . S
C1464 C1461 1.363 . S
C1464 N1462 1.356 . S
C1465 C1459 1.363 . S
C1465 C1460 1.379 . S
C1465 N1463 1.356 . S
N1466 C1458 1.374 . S
N1466 H1472 0.980 . S
N1466 H1473 0.972 1_655 S
N1467 C1460 1.356 . S
N1467 H1470 0.984 . S
N1467 H1471 0.985 . S
H1468 N1463 0.984 1_455 S
H1469 N1463 0.985 . S
H1470 N1467 0.984 . S
H1471 N1467 0.985 . S
H1472 N1466 0.980 . S
H1473 N1466 0.972 1_455 S
H1474 N1462 0.984 1_565 S
H1475 N1462 0.985 1_565 S
C1476 C1477 1.363 . S
C1476 C1482 1.379 . S
C1476 N1484 1.356 . S
C1477 C1476 1.363 . S
C1477 C1483 1.363 . S
C1478 C1479 1.363 . S
C1478 C1483 1.379 . S
C1478 N1485 1.356 . S
C1479 C1478 1.363 . S
C1479 C1482 1.363 . S
N1480 C1482 1.356 . S
N1480 H1492 0.984 . S
N1480 H1493 0.985 . S
N1481 C1483 1.356 1_455 S
N1481 H1486 0.984 . S
N1481 H1487 0.985 . S
C1482 C1476 1.379 . S
C1482 C1479 1.363 . S
C1482 N1480 1.356 . S
C1483 C1477 1.363 . S
C1483 C1478 1.379 . S
C1483 N1481 1.356 1_655 S
N1484 C1476 1.356 . S
N1484 H1490 0.984 . S
N1484 H1491 0.984 . S
N1485 C1478 1.356 . S
N1485 H1488 0.984 . S
N1485 H1489 0.985 . S
H1486 N1481 0.984 . S
H1487 N1481 0.985 . S
H1488 N1485 0.984 . S
H1489 N1485 0.985 . S
H1490 N1484 0.984 . S
H1491 N1484 0.984 . S
H1492 N1480 0.984 . S
H1493 N1480 0.985 . S
C1494 C1495 1.363 . S
C1494 C1500 1.379 . S
C1494 N1502 1.356 . S
C1495 C1494 1.363 . S
C1495 C1501 1.363 . S
C1496 C1497 1.363 . S
C1496 C1501 1.379 . S
C1496 N1503 1.356 1_455 S
C1497 C1496 1.363 . S
C1497 C1500 1.363 . S
N1498 C1500 1.356 . S
N1498 H1510 0.984 . S
N1498 H1511 0.985 1_455 S
N1499 C1501 1.356 . S
N1499 H1504 0.984 . S
N1499 H1505 0.985 . S
C1500 C1494 1.379 . S
C1500 C1497 1.363 . S
C1500 N1498 1.356 . S
C1501 C1495 1.363 . S
C1501 C1496 1.379 . S
C1501 N1499 1.356 . S
N1502 C1494 1.356 . S
N1502 H1508 0.984 . S
N1502 H1509 0.984 . S
N1503 C1496 1.356 1_655 S
N1503 H1506 0.984 . S
N1503 H1507 0.985 . S
H1504 N1499 0.984 . S
H1505 N1499 0.985 . S
H1506 N1503 0.984 . S
H1507 N1503 0.985 . S
H1508 N1502 0.984 . S
H1509 N1502 0.984 . S
H1510 N1498 0.984 . S
H1511 N1498 0.985 1_655 S
C1512 C1513 1.363 . S
C1512 C1518 1.379 . S
C1512 N1520 1.356 . S
C1513 C1512 1.363 . S
C1513 C1519 1.363 . S
C1514 C1515 1.363 . S
C1514 C1519 1.379 . S
C1514 N1521 1.356 1_565 S
C1515 C1514 1.363 . S
C1515 C1518 1.363 . S
N1516 C1518 1.356 . S
N1516 H1528 0.984 . S
N1516 H1529 0.985 . S
N1517 C1519 1.356 . S
N1517 H1522 0.984 . S
N1517 H1523 0.985 . S
C1518 C1512 1.379 . S
C1518 C1515 1.363 . S
C1518 N1516 1.356 . S
C1519 C1513 1.363 . S
C1519 C1514 1.379 . S
C1519 N1517 1.356 . S
N1520 C1512 1.356 . S
N1520 H1526 0.984 . S
N1520 H1527 0.984 . S
N1521 C1514 1.356 1_545 S
N1521 H1524 0.984 . S
N1521 H1525 0.985 . S
H1522 N1517 0.984 . S
H1523 N1517 0.985 . S
H1524 N1521 0.984 . S
H1525 N1521 0.985 . S
H1526 N1520 0.984 . S
H1527 N1520 0.984 . S
H1528 N1516 0.984 . S
H1529 N1516 0.985 . S
C1530 C1531 1.363 . S
C1530 C1536 1.379 . S
C1530 N1538 1.356 . S
C1531 C1530 1.363 . S
C1531 C1537 1.363 . S
C1532 C1533 1.363 . S
C1532 C1537 1.379 . S
C1532 N1539 1.356 1_565 S
C1533 C1532 1.363 . S
C1533 C1536 1.363 . S
N1534 C1536 1.356 . S
N1534 H1546 0.984 . S
N1534 H1547 0.985 1_565 S
N1535 C1537 1.356 . S
N1535 H1540 0.984 1_455 S
N1535 H1541 0.985 . S
C1536 C1530 1.379 . S
C1536 C1533 1.363 . S
C1536 N1534 1.356 . S
C1537 C1531 1.363 . S
C1537 C1532 1.379 . S
C1537 N1535 1.356 . S
N1538 C1530 1.356 . S
N1538 H1544 0.984 . S
N1538 H1545 0.984 . S
N1539 C1532 1.356 1_545 S
N1539 H1542 0.984 . S
N1539 H1543 0.985 . S
H1540 N1535 0.984 1_655 S
H1541 N1535 0.985 . S
H1542 N1539 0.984 . S
H1543 N1539 0.985 . S
H1544 N1538 0.984 . S
H1545 N1538 0.984 . S
H1546 N1534 0.984 . S
H1547 N1534 0.985 1_545 S
C1548 C1549 1.363 . S
C1548 C1554 1.379 . S
C1548 N1556 1.356 . S
C1549 C1548 1.363 . S
C1549 C1555 1.363 . S
C1550 C1551 1.363 . S
C1550 C1555 1.379 . S
C1550 N1557 1.356 . S
C1551 C1550 1.363 . S
C1551 C1554 1.363 . S
N1552 C1554 1.368 . S
N1552 H1564 0.993 . S
N1552 H1565 0.965 1_565 S
N1553 C1555 1.356 . S
N1553 H1558 0.984 . S
N1553 H1559 0.985 . S
C1554 C1548 1.379 . S
C1554 C1551 1.363 . S
C1554 N1552 1.368 . S
C1555 C1549 1.363 . S
C1555 C1550 1.379 . S
C1555 N1553 1.356 . S
N1556 C1548 1.356 . S
N1556 H1562 0.984 . S
N1556 H1563 0.984 . S
N1557 C1550 1.356 . S
N1557 H1560 0.984 1_565 S
N1557 H1561 0.985 . S
H1558 N1553 0.984 . S
H1559 N1553 0.985 . S
H1560 N1557 0.984 1_545 S
H1561 N1557 0.985 . S
H1562 N1556 0.984 . S
H1563 N1556 0.984 . S
H1564 N1552 0.993 . S
H1565 N1552 0.965 1_545 S
C1566 C1567 1.363 . S
C1566 C1572 1.379 . S
C1566 N1574 1.356 . S
C1567 C1566 1.363 . S
C1567 C1573 1.363 . S
C1568 C1569 1.363 . S
C1568 C1573 1.379 . S
C1568 N1575 1.356 1_455 S
C1569 C1568 1.363 . S
C1569 C1572 1.363 . S
N1570 C1572 1.356 . S
N1570 H1582 0.984 . S
N1570 H1583 0.985 1_455 S
N1571 C1573 1.356 1_545 S
N1571 H1576 0.984 . S
N1571 H1577 0.985 . S
C1572 C1566 1.379 . S
C1572 C1569 1.363 . S
C1572 N1570 1.356 . S
C1573 C1567 1.363 . S
C1573 C1568 1.379 . S
C1573 N1571 1.356 1_565 S
N1574 C1566 1.356 . S
N1574 H1580 0.984 . S
N1574 H1581 0.984 . S
N1575 C1568 1.356 1_655 S
N1575 H1578 0.984 . S
N1575 H1579 0.985 . S
H1576 N1571 0.984 . S
H1577 N1571 0.985 . S
H1578 N1575 0.984 . S
H1579 N1575 0.985 . S
H1580 N1574 0.984 . S
H1581 N1574 0.984 . S
H1582 N1570 0.984 . S
H1583 N1570 0.985 1_655 S
C1584 C1585 1.363 . S
C1584 C1590 1.379 . S
C1584 N1592 1.356 . S
C1585 C1584 1.363 . S
C1585 C1591 1.363 . S
C1586 C1587 1.363 . S
C1586 C1591 1.379 . S
C1586 N1593 1.356 . S
C1587 C1586 1.363 . S
C1587 C1590 1.363 . S
N1588 C1590 1.356 . S
N1588 H1600 0.984 . S
N1588 H1601 0.985 . S
N1589 C1591 1.344 1_655 S
N1589 H1594 0.997 . S
N1589 H1595 0.985 . S
C1590 C1584 1.379 . S
C1590 C1587 1.363 . S
C1590 N1588 1.356 . S
C1591 C1585 1.363 . S
C1591 C1586 1.379 . S
C1591 N1589 1.344 1_455 S
N1592 C1584 1.356 . S
N1592 H1598 0.984 . S
N1592 H1599 0.984 . S
N1593 C1586 1.356 . S
N1593 H1596 0.984 . S
N1593 H1597 0.985 . S
H1594 N1589 0.997 . S
H1595 N1589 0.985 . S
H1596 N1593 0.984 . S
H1597 N1593 0.985 . S
H1598 N1592 0.984 . S
H1599 N1592 0.984 . S
H1600 N1588 0.984 . S
H1601 N1588 0.985 . S
C1602 C1603 1.363 . S
C1602 C1608 1.379 . S
C1602 N1610 1.356 . S
C1603 C1602 1.363 . S
C1603 C1609 1.363 . S
C1604 C1605 1.363 . S
C1604 C1609 1.379 . S
C1604 N1611 1.356 . S
C1605 C1604 1.363 . S
C1605 C1608 1.363 . S
N1606 C1608 1.356 . S
N1606 H1618 0.984 . S
N1606 H1619 0.985 1_655 S
N1607 C1609 1.356 . S
N1607 H1612 0.984 . S
N1607 H1613 0.985 . S
C1608 C1602 1.379 . S
C1608 C1605 1.363 . S
C1608 N1606 1.356 . S
C1609 C1603 1.363 . S
C1609 C1604 1.379 . S
C1609 N1607 1.356 . S
N1610 C1602 1.356 . S
N1610 H1616 0.984 . S
N1610 H1617 0.984 . S
N1611 C1604 1.356 . S
N1611 H1614 0.984 1_655 S
N1611 H1615 0.985 . S
H1612 N1607 0.984 . S
H1613 N1607 0.985 . S
H1614 N1611 0.984 1_455 S
H1615 N1611 0.985 . S
H1616 N1610 0.984 . S
H1617 N1610 0.984 . S
H1618 N1606 0.984 . S
H1619 N1606 0.985 1_455 S
C1620 C1621 1.363 . S
C1620 C1626 1.379 . S
C1620 N1628 1.356 . S
C1621 C1620 1.363 . S
C1621 C1627 1.363 . S
C1622 C1623 1.363 . S
C1622 C1627 1.379 . S
C1622 N1629 1.356 . S
C1623 C1622 1.363 . S
C1623 C1626 1.363 . S
N1624 C1626 1.356 . S
N1624 H1636 0.984 . S
N1624 H1637 0.985 . S
N1625 C1627 1.356 . S
N1625 H1630 0.984 . S
N1625 H1631 0.985 . S
C1626 C1620 1.379 . S
C1626 C1623 1.363 . S
C1626 N1624 1.356 . S
C1627 C1621 1.363 . S
C1627 C1622 1.379 . S
C1627 N1625 1.356 . S
N1628 C1620 1.356 . S
N1628 H1634 0.984 . S
N1628 H1635 0.984 . S
N1629 C1622 1.356 . S
N1629 H1632 0.984 . S
N1629 H1633 0.985 . S
H1630 N1625 0.984 . S
H1631 N1625 0.985 . S
H1632 N1629 0.984 . S
H1633 N1629 0.985 . S
H1634 N1628 0.984 . S
H1635 N1628 0.984 . S
H1636 N1624 0.984 . S
H1637 N1624 0.985 . S
C1638 C1639 1.363 . S
C1638 C1644 1.379 . S
C1638 N1646 1.356 1_545 S
C1639 C1638 1.363 . S
C1639 C1645 1.363 . S
C1640 C1641 1.363 . S
C1640 C1645 1.379 . S
C1640 N1647 1.356 . S
C1641 C1640 1.363 . S
C1641 C1644 1.363 . S
N1642 C1644 1.356 . S
N1642 H1654 0.984 . S
N1642 H1655 0.985 1_655 S
N1643 C1645 1.356 . S
N1643 H1648 0.984 1_545 S
N1643 H1649 0.985 . S
C1644 C1638 1.379 . S
C1644 C1641 1.363 . S
C1644 N1642 1.356 . S
C1645 C1639 1.363 . S
C1645 C1640 1.379 . S
C1645 N1643 1.356 . S
N1646 C1638 1.356 1_565 S
N1646 H1652 0.984 . S
N1646 H1653 0.984 . S
N1647 C1640 1.356 . S
N1647 H1650 0.984 . S
N1647 H1651 0.985 . S
H1648 N1643 0.984 1_565 S
H1649 N1643 0.985 . S
H1650 N1647 0.984 . S
H1651 N1647 0.985 . S
H1652 N1646 0.984 . S
H1653 N1646 0.984 . S
H1654 N1642 0.984 . S
H1655 N1642 0.985 1_455 S
C1656 C1657 1.363 . S
C1656 C1662 1.379 . S
C1656 N1664 1.356 . S
C1657 C1656 1.363 . S
C1657 C1663 1.363 . S
C1658 C1659 1.363 . S
C1658 C1663 1.379 . S
C1658 N1665 1.356 . S
C1659 C1658 1.363 . S
C1659 C1662 1.363 . S
N1660 C1662 1.356 . S
N1660 H1672 0.984 . S
N1660 H1673 0.985 . S
N1661 C1663 1.356 . S
N1661 H1666 0.984 . S
N1661 H1667 0.985 . S
C1662 C1656 1.379 . S
C1662 C1659 1.363 . S
C1662 N1660 1.356 . S
C1663 C1657 1.363 . S
C1663 C1658 1.379 . S
C1663 N1661 1.356 . S
N1664 C1656 1.356 . S
N1664 H1670 0.984 . S
N1664 H1671 0.984 . S
N1665 C1658 1.356 . S
N1665 H1668 0.984 . S
N1665 H1669 0.985 . S
H1666 N1661 0.984 . S
H1667 N1661 0.985 . S
H1668 N1665 0.984 . S
H1669 N1665 0.985 . S
H1670 N1664 0.984 . S
H1671 N1664 0.984 . S
H1672 N1660 0.984 . S
H1673 N1660 0.985 . S
C1674 C1675 1.363 . S
C1674 C1680 1.379 . S
C1674 N1682 1.356 . S
C1675 C1674 1.363 . S
C1675 C1681 1.363 . S
C1676 C1677 1.363 . S
C1676 C1681 1.379 . S
C1676 N1683 1.356 . S
C1677 C1676 1.363 . S
C1677 C1680 1.363 . S
N1678 C1680 1.356 . S
N1678 H1690 0.984 . S
N1678 H1691 0.985 . S
N1679 C1681 1.356 . S
N1679 H1684 0.984 . S
N1679 H1685 0.985 . S
C1680 C1674 1.379 . S
C1680 C1677 1.363 . S
C1680 N1678 1.356 . S
C1681 C1675 1.363 . S
C1681 C1676 1.379 . S
C1681 N1679 1.356 . S
N1682 C1674 1.356 . S
N1682 H1688 0.984 . S
N1682 H1689 0.984 . S
N1683 C1676 1.356 . S
N1683 H1686 0.984 . S
N1683 H1687 0.985 . S
H1684 N1679 0.984 . S
H1685 N1679 0.985 . S
H1686 N1683 0.984 . S
H1687 N1683 0.985 . S
H1688 N1682 0.984 . S
H1689 N1682 0.984 . S
H1690 N1678 0.984 . S
H1691 N1678 0.985 . S
C1692 C1693 1.363 . S
C1692 C1698 1.379 . S
C1692 N1700 1.356 . S
C1693 C1692 1.363 . S
C1693 C1699 1.363 . S
C1694 C1695 1.363 . S
C1694 C1699 1.379 . S
C1694 N1701 1.356 . S
C1695 C1694 1.363 . S
C1695 C1698 1.363 . S
N1696 C1698 1.356 . S
N1696 H1708 0.984 . S
N1696 H1709 0.985 . S
N1697 C1699 1.356 . S
N1697 H1702 0.984 . S
N1697 H1703 0.985 . S
C1698 C1692 1.379 . S
C1698 C1695 1.363 . S
C1698 N1696 1.356 . S
C1699 C1693 1.363 . S
C1699 C1694 1.379 . S
C1699 N1697 1.356 . S
N1700 C1692 1.356 . S
N1700 H1706 0.984 . S
N1700 H1707 0.984 . S
N1701 C1694 1.356 . S
N1701 H1704 0.984 . S
N1701 H1705 0.985 . S
H1702 N1697 0.984 . S
H1703 N1697 0.985 . S
H1704 N1701 0.984 . S
H1705 N1701 0.985 . S
H1706 N1700 0.984 . S
H1707 N1700 0.984 . S
H1708 N1696 0.984 . S
H1709 N1696 0.985 . S
C1710 C1711 1.363 . S
C1710 C1716 1.379 . S
C1710 N1718 1.356 . S
C1711 C1710 1.363 . S
C1711 C1717 1.363 . S
C1712 C1713 1.363 . S
C1712 C1717 1.379 . S
C1712 N1719 1.356 . S
C1713 C1712 1.363 . S
C1713 C1716 1.363 . S
N1714 C1716 1.356 . S
N1714 H1726 0.984 . S
N1714 H1727 0.985 . S
N1715 C1717 1.356 . S
N1715 H1720 0.984 . S
N1715 H1721 0.985 . S
C1716 C1710 1.379 . S
C1716 C1713 1.363 . S
C1716 N1714 1.356 . S
C1717 C1711 1.363 . S
C1717 C1712 1.379 . S
C1717 N1715 1.356 . S
N1718 C1710 1.356 . S
N1718 H1724 0.984 . S
N1718 H1725 0.984 . S
N1719 C1712 1.356 . S
N1719 H1722 0.984 . S
N1719 H1723 0.985 . S
H1720 N1715 0.984 . S
H1721 N1715 0.985 . S
H1722 N1719 0.984 . S
H1723 N1719 0.985 . S
H1724 N1718 0.984 . S
H1725 N1718 0.984 . S
H1726 N1714 0.984 . S
H1727 N1714 0.985 . S
C1728 C1729 1.363 . S
C1728 C1734 1.379 . S
C1728 N1736 1.356 . S
C1729 C1728 1.363 . S
C1729 C1735 1.363 . S
C1730 C1731 1.363 . S
C1730 C1735 1.379 . S
C1730 N1737 1.356 . S
C1731 C1730 1.363 . S
C1731 C1734 1.363 . S
N1732 C1734 1.356 . S
N1732 H1744 0.984 . S
N1732 H1745 0.985 . S
N1733 C1735 1.356 . S
N1733 H1738 0.984 . S
N1733 H1739 0.985 . S
C1734 C1728 1.379 . S
C1734 C1731 1.363 . S
C1734 N1732 1.356 . S
C1735 C1729 1.363 . S
C1735 C1730 1.379 . S
C1735 N1733 1.356 . S
N1736 C1728 1.356 . S
N1736 H1742 0.984 . S
N1736 H1743 0.984 . S
N1737 C1730 1.356 . S
N1737 H1740 0.984 . S
N1737 H1741 0.985 . S
H1738 N1733 0.984 . S
H1739 N1733 0.985 . S
H1740 N1737 0.984 . S
H1741 N1737 0.985 . S
H1742 N1736 0.984 . S
H1743 N1736 0.984 . S
H1744 N1732 0.984 . S
H1745 N1732 0.985 . S
C1746 C1747 1.363 . S
C1746 C1752 1.379 . S
C1746 N1754 1.356 . S
C1747 C1746 1.363 . S
C1747 C1753 1.363 . S
C1748 C1749 1.363 . S
C1748 C1753 1.379 . S
C1748 N1755 1.356 . S
C1749 C1748 1.363 . S
C1749 C1752 1.363 . S
N1750 C1752 1.356 . S
N1750 H1762 0.984 . S
N1750 H1763 0.985 . S
N1751 C1753 1.356 . S
N1751 H1756 0.984 . S
N1751 H1757 0.985 . S
C1752 C1746 1.379 . S
C1752 C1749 1.363 . S
C1752 N1750 1.356 . S
C1753 C1747 1.363 . S
C1753 C1748 1.379 . S
C1753 N1751 1.356 . S
N1754 C1746 1.356 . S
N1754 H1760 0.984 . S
N1754 H1761 0.984 . S
N1755 C1748 1.356 . S
N1755 H1758 0.984 . S
N1755 H1759 0.985 . S
H1756 N1751 0.984 . S
H1757 N1751 0.985 . S
H1758 N1755 0.984 . S
H1759 N1755 0.985 . S
H1760 N1754 0.984 . S
H1761 N1754 0.984 . S
H1762 N1750 0.984 . S
H1763 N1750 0.985 . S
C1764 C1765 1.363 . S
C1764 C1770 1.379 . S
C1764 N1772 1.356 . S
C1765 C1764 1.363 . S
C1765 C1771 1.363 . S
C1766 C1767 1.363 . S
C1766 C1771 1.379 . S
C1766 N1773 1.356 . S
C1767 C1766 1.363 . S
C1767 C1770 1.363 . S
N1768 C1770 1.356 . S
N1768 H1780 0.984 . S
N1768 H1781 0.985 . S
N1769 C1771 1.356 . S
N1769 H1774 0.984 . S
N1769 H1775 0.985 . S
C1770 C1764 1.379 . S
C1770 C1767 1.363 . S
C1770 N1768 1.356 . S
C1771 C1765 1.363 . S
C1771 C1766 1.379 . S
C1771 N1769 1.356 . S
N1772 C1764 1.356 . S
N1772 H1778 0.984 . S
N1772 H1779 0.984 . S
N1773 C1766 1.356 . S
N1773 H1776 0.984 . S
N1773 H1777 0.985 . S
H1774 N1769 0.984 . S
H1775 N1769 0.985 . S
H1776 N1773 0.984 . S
H1777 N1773 0.985 . S
H1778 N1772 0.984 . S
H1779 N1772 0.984 . S
H1780 N1768 0.984 . S
H1781 N1768 0.985 . S
C1782 C1783 1.363 . S
C1782 C1788 1.379 . S
C1782 N1790 1.356 . S
C1783 C1782 1.363 . S
C1783 C1789 1.363 . S
C1784 C1785 1.363 . S
C1784 C1789 1.379 . S
C1784 N1791 1.356 . S
C1785 C1784 1.363 . S
C1785 C1788 1.363 . S
N1786 C1788 1.356 . S
N1786 H1798 0.984 . S
N1786 H1799 0.985 . S
N1787 C1789 1.356 . S
N1787 H1792 0.984 . S
N1787 H1793 0.985 . S
C1788 C1782 1.379 . S
C1788 C1785 1.363 . S
C1788 N1786 1.356 . S
C1789 C1783 1.363 . S
C1789 C1784 1.379 . S
C1789 N1787 1.356 . S
N1790 C1782 1.356 . S
N1790 H1796 0.984 . S
N1790 H1797 0.984 . S
N1791 C1784 1.356 . S
N1791 H1794 0.984 . S
N1791 H1795 0.985 . S
H1792 N1787 0.984 . S
H1793 N1787 0.985 . S
H1794 N1791 0.984 . S
H1795 N1791 0.985 . S
H1796 N1790 0.984 . S
H1797 N1790 0.984 . S
H1798 N1786 0.984 . S
H1799 N1786 0.985 . S
C1800 C1801 1.363 . S
C1800 C1806 1.379 . S
C1800 N1808 1.356 . S
C1801 C1800 1.363 . S
C1801 C1807 1.363 . S
C1802 C1803 1.363 . S
C1802 C1807 1.379 . S
C1802 N1809 1.356 . S
C1803 C1802 1.363 . S
C1803 C1806 1.363 . S
N1804 C1806 1.356 . S
N1804 H1816 0.984 . S
N1804 H1817 0.985 . S
N1805 C1807 1.356 . S
N1805 H1810 0.984 . S
N1805 H1811 0.985 . S
C1806 C1800 1.379 . S
C1806 C1803 1.363 . S
C1806 N1804 1.356 . S
C1807 C1801 1.363 . S
C1807 C1802 1.379 . S
C1807 N1805 1.356 . S
N1808 C1800 1.356 . S
N1808 H1814 0.984 . S
N1808 H1815 0.984 . S
N1809 C1802 1.356 . S
N1809 H1812 0.984 . S
N1809 H1813 0.985 . S
H1810 N1805 0.984 . S
H1811 N1805 0.985 . S
H1812 N1809 0.984 . S
H1813 N1809 0.985 . S
H1814 N1808 0.984 . S
H1815 N1808 0.984 . S
H1816 N1804 0.984 . S
H1817 N1804 0.985 . S
C1818 C1819 1.363 . S
C1818 C1824 1.379 . S
C1818 N1826 1.356 . S
C1819 C1818 1.363 . S
C1819 C1825 1.383 . S
C1820 C1821 1.354 1_556 S
C1820 C1825 1.373 1_556 S
C1820 N1827 1.369 . S
C1821 C1820 1.354 1_554 S
C1821 C1824 1.363 . S
N1822 C1824 1.356 . S
N1822 H1834 0.984 . S
N1822 H1835 0.985 . S
N1823 C1825 1.349 1_556 S
N1823 H1828 0.979 1_556 S
N1823 H1829 0.985 . S
C1824 C1818 1.379 . S
C1824 C1821 1.363 . S
C1824 N1822 1.356 . S
C1825 C1819 1.383 . S
C1825 C1820 1.373 1_554 S
C1825 N1823 1.349 1_554 S
N1826 C1818 1.356 . S
N1826 H1832 0.984 . S
N1826 H1833 0.984 . S
N1827 C1820 1.369 . S
N1827 H1830 0.984 . S
N1827 H1831 0.985 . S
H1828 N1823 0.979 1_554 S
H1829 N1823 0.985 . S
H1830 N1827 0.984 . S
H1831 N1827 0.985 . S
H1832 N1826 0.984 . S
H1833 N1826 0.984 . S
H1834 N1822 0.984 . S
H1835 N1822 0.985 . S
C1836 C1837 1.363 1_556 S
C1836 C1842 1.379 . S
C1836 N1844 1.356 . S
C1837 C1836 1.363 1_554 S
C1837 C1843 1.363 . S
C1838 C1839 1.363 . S
C1838 C1843 1.379 . S
C1838 N1845 1.356 . S
C1839 C1838 1.363 . S
C1839 C1842 1.363 1_554 S
N1840 C1842 1.356 . S
N1840 H1852 0.984 . S
N1840 H1853 0.985 . S
N1841 C1843 1.356 . S
N1841 H1846 0.984 . S
N1841 H1847 0.985 . S
C1842 C1836 1.379 . S
C1842 C1839 1.363 1_556 S
C1842 N1840 1.356 . S
C1843 C1837 1.363 . S
C1843 C1838 1.379 . S
C1843 N1841 1.356 . S
N1844 C1836 1.356 . S
N1844 H1850 0.984 . S
N1844 H1851 0.984 . S
N1845 C1838 1.356 . S
N1845 H1848 0.984 . S
N1845 H1849 0.985 . S
H1846 N1841 0.984 . S
H1847 N1841 0.985 . S
H1848 N1845 0.984 . S
H1849 N1845 0.985 . S
H1850 N1844 0.984 . S
H1851 N1844 0.984 . S
H1852 N1840 0.984 . S
H1853 N1840 0.985 . S
C1854 C1855 1.363 1_556 S
C1854 C1860 1.379 . S
C1854 N1862 1.356 . S
C1855 C1854 1.363 1_554 S
C1855 C1861 1.363 . S
C1856 C1857 1.363 . S
C1856 C1861 1.379 . S
C1856 N1863 1.356 . S
C1857 C1856 1.363 . S
C1857 C1860 1.363 1_554 S
N1858 C1860 1.356 . S
N1858 H1870 0.984 . S
N1858 H1871 0.985 . S
N1859 C1861 1.356 . S
N1859 H1864 0.984 . S
N1859 H1865 0.985 . S
C1860 C1854 1.379 . S
C1860 C1857 1.363 1_556 S
C1860 N1858 1.356 . S
C1861 C1855 1.363 . S
C1861 C1856 1.379 . S
C1861 N1859 1.356 . S
N1862 C1854 1.356 . S
N1862 H1868 0.984 . S
N1862 H1869 0.984 . S
N1863 C1856 1.356 . S
N1863 H1866 0.984 . S
N1863 H1867 0.985 . S
H1864 N1859 0.984 . S
H1865 N1859 0.985 . S
H1866 N1863 0.984 . S
H1867 N1863 0.985 . S
H1868 N1862 0.984 . S
H1869 N1862 0.984 . S
H1870 N1858 0.984 . S
H1871 N1858 0.985 . S
C1872 C1873 1.363 . S
C1872 C1878 1.379 . S
C1872 N1880 1.356 . S
C1873 C1872 1.363 . S
C1873 C1879 1.363 . S
C1874 C1875 1.363 . S
C1874 C1879 1.379 . S
C1874 N1881 1.356 . S
C1875 C1874 1.363 . S
C1875 C1878 1.363 . S
N1876 C1878 1.356 . S
N1876 H1888 0.984 . S
N1876 H1889 0.985 . S
N1877 C1879 1.356 . S
N1877 H1882 0.984 . S
N1877 H1883 0.985 . S
C1878 C1872 1.379 . S
C1878 C1875 1.363 . S
C1878 N1876 1.356 . S
C1879 C1873 1.363 . S
C1879 C1874 1.379 . S
C1879 N1877 1.356 . S
N1880 C1872 1.356 . S
N1880 H1886 0.984 . S
N1880 H1887 0.984 . S
N1881 C1874 1.356 . S
N1881 H1884 0.984 . S
N1881 H1885 0.985 . S
H1882 N1877 0.984 . S
H1883 N1877 0.985 . S
H1884 N1881 0.984 . S
H1885 N1881 0.985 . S
H1886 N1880 0.984 . S
H1887 N1880 0.984 . S
H1888 N1876 0.984 . S
H1889 N1876 0.985 . S
C1890 C1891 1.363 . S
C1890 C1896 1.379 . S
C1890 N1898 1.356 . S
C1891 C1890 1.363 . S
C1891 C1897 1.363 . S
C1892 C1893 1.363 . S
C1892 C1897 1.379 . S
C1892 N1899 1.356 . S
C1893 C1892 1.363 . S
C1893 C1896 1.363 . S
N1894 C1896 1.356 . S
N1894 H1906 0.984 . S
N1894 H1907 0.985 . S
N1895 C1897 1.356 . S
N1895 H1900 0.984 . S
N1895 H1901 0.985 . S
C1896 C1890 1.379 . S
C1896 C1893 1.363 . S
C1896 N1894 1.356 . S
C1897 C1891 1.363 . S
C1897 C1892 1.379 . S
C1897 N1895 1.356 . S
N1898 C1890 1.356 . S
N1898 H1904 0.984 . S
N1898 H1905 0.984 . S
N1899 C1892 1.356 . S
N1899 H1902 0.984 . S
N1899 H1903 0.985 . S
H1900 N1895 0.984 . S
H1901 N1895 0.985 . S
H1902 N1899 0.984 . S
H1903 N1899 0.985 . S
H1904 N1898 0.984 . S
H1905 N1898 0.984 . S
H1906 N1894 0.984 . S
H1907 N1894 0.985 . S
C1908 C1909 1.363 . S
C1908 C1914 1.379 . S
C1908 N1916 1.356 . S
C1909 C1908 1.363 . S
C1909 C1915 1.363 . S
C1910 C1911 1.363 . S
C1910 C1915 1.379 . S
C1910 N1917 1.356 . S
C1911 C1910 1.363 . S
C1911 C1914 1.363 . S
N1912 C1914 1.356 . S
N1912 H1924 0.984 . S
N1912 H1925 0.985 . S
N1913 C1915 1.356 . S
N1913 H1918 0.984 . S
N1913 H1919 0.985 . S
C1914 C1908 1.379 . S
C1914 C1911 1.363 . S
C1914 N1912 1.356 . S
C1915 C1909 1.363 . S
C1915 C1910 1.379 . S
C1915 N1913 1.356 . S
N1916 C1908 1.356 . S
N1916 H1922 0.984 . S
N1916 H1923 0.984 . S
N1917 C1910 1.356 . S
N1917 H1920 0.984 . S
N1917 H1921 0.985 . S
H1918 N1913 0.984 . S
H1919 N1913 0.985 . S
H1920 N1917 0.984 . S
H1921 N1917 0.985 . S
H1922 N1916 0.984 . S
H1923 N1916 0.984 . S
H1924 N1912 0.984 . S
H1925 N1912 0.985 . S
C1926 C1927 1.363 . S
C1926 C1932 1.379 . S
C1926 N1934 1.356 . S
C1927 C1926 1.363 . S
C1927 C1933 1.363 1_556 S
C1928 C1929 1.363 1_554 S
C1928 C1933 1.379 . S
C1928 N1935 1.356 . S
C1929 C1928 1.363 1_556 S
C1929 C1932 1.363 . S
N1930 C1932 1.356 . S
N1930 H1942 0.984 . S
N1930 H1943 0.985 . S
N1931 C1933 1.356 . S
N1931 H1936 0.984 . S
N1931 H1937 0.985 . S
C1932 C1926 1.379 . S
C1932 C1929 1.363 . S
C1932 N1930 1.356 . S
C1933 C1927 1.363 1_554 S
C1933 C1928 1.379 . S
C1933 N1931 1.356 . S
N1934 C1926 1.356 . S
N1934 H1940 0.984 . S
N1934 H1941 0.984 . S
N1935 C1928 1.356 . S
N1935 H1938 0.984 . S
N1935 H1939 0.985 . S
H1936 N1931 0.984 . S
H1937 N1931 0.985 . S
H1938 N1935 0.984 . S
H1939 N1935 0.985 . S
H1940 N1934 0.984 . S
H1941 N1934 0.984 . S
H1942 N1930 0.984 . S
H1943 N1930 0.985 . S
C1944 C1945 1.363 1_554 S
C1944 C1950 1.379 . S
C1944 N1952 1.356 . S
C1945 C1944 1.363 1_556 S
C1945 C1951 1.363 . S
C1946 C1947 1.363 . S
C1946 C1951 1.379 . S
C1946 N1953 1.356 . S
C1947 C1946 1.363 . S
C1947 C1950 1.363 1_556 S
N1948 C1950 1.356 . S
N1948 H1960 0.984 . S
N1948 H1961 0.985 . S
N1949 C1951 1.356 . S
N1949 H1954 0.984 . S
N1949 H1955 0.985 . S
C1950 C1944 1.379 . S
C1950 C1947 1.363 1_554 S
C1950 N1948 1.356 . S
C1951 C1945 1.363 . S
C1951 C1946 1.379 . S
C1951 N1949 1.356 . S
N1952 C1944 1.356 . S
N1952 H1958 0.984 . S
N1952 H1959 0.984 . S
N1953 C1946 1.356 . S
N1953 H1956 0.984 . S
N1953 H1957 0.985 . S
H1954 N1949 0.984 . S
H1955 N1949 0.985 . S
H1956 N1953 0.984 . S
H1957 N1953 0.985 . S
H1958 N1952 0.984 . S
H1959 N1952 0.984 . S
H1960 N1948 0.984 . S
H1961 N1948 0.985 . S
C1962 C1963 1.363 1_554 S
C1962 C1968 1.379 . S
C1962 N1970 1.356 . S
C1963 C1962 1.363 1_556 S
C1963 C1969 1.363 . S
C1964 C1965 1.363 . S
C1964 C1969 1.379 . S
C1964 N1971 1.356 . S
C1965 C1964 1.363 . S
C1965 C1968 1.363 1_556 S
N1966 C1968 1.356 . S
N1966 H1978 0.984 . S
N1966 H1979 0.985 . S
N1967 C1969 1.356 . S
N1967 H1972 0.984 . S
N1967 H1973 0.985 . S
C1968 C1962 1.379 . S
C1968 C1965 1.363 1_554 S
C1968 N1966 1.356 . S
C1969 C1963 1.363 . S
C1969 C1964 1.379 . S
C1969 N1967 1.356 . S
N1970 C1962 1.356 . S
N1970 H1976 0.984 . S
N1970 H1977 0.984 . S
N1971 C1964 1.356 . S
N1971 H1974 0.984 . S
N1971 H1975 0.985 . S
H1972 N1967 0.984 . S
H1973 N1967 0.985 . S
H1974 N1971 0.984 . S
H1975 N1971 0.985 . S
H1976 N1970 0.984 . S
H1977 N1970 0.984 . S
H1978 N1966 0.984 . S
H1979 N1966 0.985 . S
C1980 C1981 1.363 . S
C1980 C1986 1.379 . S
C1980 N1988 1.356 . S
C1981 C1980 1.363 . S
C1981 C1987 1.363 . S
C1982 C1983 1.363 . S
C1982 C1987 1.379 . S
C1982 N1989 1.356 . S
C1983 C1982 1.363 . S
C1983 C1986 1.363 . S
N1984 C1986 1.356 . S
N1984 H1996 0.984 . S
N1984 H1997 0.985 . S
N1985 C1987 1.356 . S
N1985 H1990 0.984 . S
N1985 H1991 0.985 . S
C1986 C1980 1.379 . S
C1986 C1983 1.363 . S
C1986 N1984 1.356 . S
C1987 C1981 1.363 . S
C1987 C1982 1.379 . S
C1987 N1985 1.356 . S
N1988 C1980 1.356 . S
N1988 H1994 0.984 . S
N1988 H1995 0.984 . S
N1989 C1982 1.356 . S
N1989 H1992 0.984 . S
N1989 H1993 0.985 . S
H1990 N1985 0.984 . S
H1991 N1985 0.985 . S
H1992 N1989 0.984 . S
H1993 N1989 0.985 . S
H1994 N1988 0.984 . S
H1995 N1988 0.984 . S
H1996 N1984 0.984 . S
H1997 N1984 0.985 . S
C1998 C1999 1.363 . S
C1998 C2004 1.379 . S
C1998 N2006 1.356 . S
C1999 C1998 1.363 . S
C1999 C2005 1.363 . S
C2000 C2001 1.363 . S
C2000 C2005 1.379 . S
C2000 N2007 1.356 . S
C2001 C2000 1.363 . S
C2001 C2004 1.363 . S
N2002 C2004 1.356 . S
N2002 H2014 0.984 . S
N2002 H2015 0.985 . S
N2003 C2005 1.356 . S
N2003 H2008 0.984 . S
N2003 H2009 0.985 . S
C2004 C1998 1.379 . S
C2004 C2001 1.363 . S
C2004 N2002 1.356 . S
C2005 C1999 1.363 . S
C2005 C2000 1.379 . S
C2005 N2003 1.356 . S
N2006 C1998 1.356 . S
N2006 H2012 0.984 . S
N2006 H2013 0.984 . S
N2007 C2000 1.356 . S
N2007 H2010 0.984 . S
N2007 H2011 0.985 . S
H2008 N2003 0.984 . S
H2009 N2003 0.985 . S
H2010 N2007 0.984 . S
H2011 N2007 0.985 . S
H2012 N2006 0.984 . S
H2013 N2006 0.984 . S
H2014 N2002 0.984 . S
H2015 N2002 0.985 . S
C2016 C2017 1.363 . S
C2016 C2022 1.379 . S
C2016 N2024 1.356 . S
C2017 C2016 1.363 . S
C2017 C2023 1.363 . S
C2018 C2019 1.363 . S
C2018 C2023 1.379 . S
C2018 N2025 1.356 . S
C2019 C2018 1.363 . S
C2019 C2022 1.363 . S
N2020 C2022 1.356 . S
N2020 H2032 0.984 . S
N2020 H2033 0.985 . S
N2021 C2023 1.356 . S
N2021 H2026 0.984 . S
N2021 H2027 0.985 . S
C2022 C2016 1.379 . S
C2022 C2019 1.363 . S
C2022 N2020 1.356 . S
C2023 C2017 1.363 . S
C2023 C2018 1.379 . S
C2023 N2021 1.356 . S
N2024 C2016 1.356 . S
N2024 H2030 0.984 . S
N2024 H2031 0.984 . S
N2025 C2018 1.356 . S
N2025 H2028 0.984 . S
N2025 H2029 0.985 . S
H2026 N2021 0.984 . S
H2027 N2021 0.985 . S
H2028 N2025 0.984 . S
H2029 N2025 0.985 . S
H2030 N2024 0.984 . S
H2031 N2024 0.984 . S
H2032 N2020 0.984 . S
H2033 N2020 0.985 . S
C2034 C2035 1.363 . S
C2034 C2040 1.379 . S
C2034 N2042 1.356 . S
C2035 C2034 1.363 . S
C2035 C2041 1.363 . S
C2036 C2037 1.363 . S
C2036 C2041 1.379 . S
C2036 N2043 1.356 . S
C2037 C2036 1.363 . S
C2037 C2040 1.363 . S
N2038 C2040 1.356 . S
N2038 H2050 0.984 . S
N2038 H2051 0.985 . S
N2039 C2041 1.356 . S
N2039 H2044 0.984 . S
N2039 H2045 0.985 . S
C2040 C2034 1.379 . S
C2040 C2037 1.363 . S
C2040 N2038 1.356 . S
C2041 C2035 1.363 . S
C2041 C2036 1.379 . S
C2041 N2039 1.356 . S
N2042 C2034 1.356 . S
N2042 H2048 0.984 . S
N2042 H2049 0.984 . S
N2043 C2036 1.356 . S
N2043 H2046 0.984 . S
N2043 H2047 0.985 . S
H2044 N2039 0.984 . S
H2045 N2039 0.985 . S
H2046 N2043 0.984 . S
H2047 N2043 0.985 . S
H2048 N2042 0.984 . S
H2049 N2042 0.984 . S
H2050 N2038 0.984 . S
H2051 N2038 0.985 . S
C2052 C2053 1.363 . S
C2052 C2058 1.379 . S
C2052 N2060 1.356 . S
C2053 C2052 1.363 . S
C2053 C2059 1.363 . S
C2054 C2055 1.363 . S
C2054 C2059 1.379 . S
C2054 N2061 1.356 . S
C2055 C2054 1.363 . S
C2055 C2058 1.363 . S
N2056 C2058 1.356 . S
N2056 H2068 0.984 . S
N2056 H2069 0.985 . S
N2057 C2059 1.356 . S
N2057 H2062 0.984 . S
N2057 H2063 0.985 . S
C2058 C2052 1.379 . S
C2058 C2055 1.363 . S
C2058 N2056 1.356 . S
C2059 C2053 1.363 . S
C2059 C2054 1.379 . S
C2059 N2057 1.356 . S
N2060 C2052 1.356 . S
N2060 H2066 0.984 . S
N2060 H2067 0.984 . S
N2061 C2054 1.356 . S
N2061 H2064 0.984 . S
N2061 H2065 0.985 . S
H2062 N2057 0.984 . S
H2063 N2057 0.985 . S
H2064 N2061 0.984 . S
H2065 N2061 0.985 . S
H2066 N2060 0.984 . S
H2067 N2060 0.984 . S
H2068 N2056 0.984 . S
H2069 N2056 0.985 . S
C2070 C2071 1.363 . S
C2070 C2076 1.379 . S
C2070 N2078 1.356 . S
C2071 C2070 1.363 . S
C2071 C2077 1.363 . S
C2072 C2073 1.363 . S
C2072 C2077 1.379 . S
C2072 N2079 1.356 . S
C2073 C2072 1.363 . S
C2073 C2076 1.363 . S
N2074 C2076 1.356 . S
N2074 H2086 0.984 . S
N2074 H2087 0.985 . S
N2075 C2077 1.356 . S
N2075 H2080 0.984 . S
N2075 H2081 0.985 . S
C2076 C2070 1.379 . S
C2076 C2073 1.363 . S
C2076 N2074 1.356 . S
C2077 C2071 1.363 . S
C2077 C2072 1.379 . S
C2077 N2075 1.356 . S
N2078 C2070 1.356 . S
N2078 H2084 0.984 . S
N2078 H2085 0.984 . S
N2079 C2072 1.356 . S
N2079 H2082 0.984 . S
N2079 H2083 0.985 . S
H2080 N2075 0.984 . S
H2081 N2075 0.985 . S
H2082 N2079 0.984 . S
H2083 N2079 0.985 . S
H2084 N2078 0.984 . S
H2085 N2078 0.984 . S
H2086 N2074 0.984 . S
H2087 N2074 0.985 . S
C2088 C2089 1.363 . S
C2088 C2094 1.379 . S
C2088 N2096 1.356 . S
C2089 C2088 1.363 . S
C2089 C2095 1.363 . S
C2090 C2091 1.363 . S
C2090 C2095 1.379 . S
C2090 N2097 1.356 . S
C2091 C2090 1.363 . S
C2091 C2094 1.363 . S
N2092 C2094 1.356 . S
N2092 H2104 0.984 . S
N2092 H2105 0.985 . S
N2093 C2095 1.356 . S
N2093 H2098 0.984 . S
N2093 H2099 0.985 . S
C2094 C2088 1.379 . S
C2094 C2091 1.363 . S
C2094 N2092 1.356 . S
C2095 C2089 1.363 . S
C2095 C2090 1.379 . S
C2095 N2093 1.356 . S
N2096 C2088 1.356 . S
N2096 H2102 0.984 . S
N2096 H2103 0.984 . S
N2097 C2090 1.356 . S
N2097 H2100 0.984 . S
N2097 H2101 0.985 . S
H2098 N2093 0.984 . S
H2099 N2093 0.985 . S
H2100 N2097 0.984 . S
H2101 N2097 0.985 . S
H2102 N2096 0.984 . S
H2103 N2096 0.984 . S
H2104 N2092 0.984 . S
H2105 N2092 0.985 . S
C2106 C2107 1.363 . S
C2106 C2112 1.379 . S
C2106 N2114 1.356 1_565 S
C2107 C2106 1.363 . S
C2107 C2113 1.363 . S
C2108 C2109 1.363 . S
C2108 C2113 1.379 . S
C2108 N2115 1.356 . S
C2109 C2108 1.363 . S
C2109 C2112 1.363 . S
N2110 C2112 1.356 . S
N2110 H2122 0.984 . S
N2110 H2123 0.985 . S
N2111 C2113 1.356 . S
N2111 H2116 0.984 . S
N2111 H2117 0.985 . S
C2112 C2106 1.379 . S
C2112 C2109 1.363 . S
C2112 N2110 1.356 . S
C2113 C2107 1.363 . S
C2113 C2108 1.379 . S
C2113 N2111 1.356 . S
N2114 C2106 1.356 1_545 S
N2114 H2120 0.984 . S
N2114 H2121 0.984 . S
N2115 C2108 1.356 . S
N2115 H2118 0.984 . S
N2115 H2119 0.985 . S
H2116 N2111 0.984 . S
H2117 N2111 0.985 . S
H2118 N2115 0.984 . S
H2119 N2115 0.985 . S
H2120 N2114 0.984 . S
H2121 N2114 0.984 . S
H2122 N2110 0.984 . S
H2123 N2110 0.985 . S
C2124 C2125 1.363 . S
C2124 C2130 1.379 1_455 S
C2124 N2132 1.356 . S
C2125 C2124 1.363 . S
C2125 C2131 1.363 . S
C2126 C2127 1.363 . S
C2126 C2131 1.379 . S
C2126 N2133 1.356 . S
C2127 C2126 1.363 . S
C2127 C2130 1.363 1_455 S
N2128 C2130 1.356 . S
N2128 H2140 0.984 . S
N2128 H2141 0.985 . S
N2129 C2131 1.356 . S
N2129 H2134 0.984 . S
N2129 H2135 0.985 . S
C2130 C2124 1.379 1_655 S
C2130 C2127 1.363 1_655 S
C2130 N2128 1.356 . S
C2131 C2125 1.363 . S
C2131 C2126 1.379 . S
C2131 N2129 1.356 . S
N2132 C2124 1.356 . S
N2132 H2138 0.984 1_455 S
N2132 H2139 0.984 . S
N2133 C2126 1.356 . S
N2133 H2136 0.984 . S
N2133 H2137 0.985 . S
H2134 N2129 0.984 . S
H2135 N2129 0.985 . S
H2136 N2133 0.984 . S
H2137 N2133 0.985 . S
H2138 N2132 0.984 1_655 S
H2139 N2132 0.984 . S
H2140 N2128 0.984 . S
H2141 N2128 0.985 . S
C2142 C2143 1.363 . S
C2142 C2148 1.379 . S
C2142 N2150 1.356 . S
C2143 C2142 1.363 . S
C2143 C2149 1.363 . S
C2144 C2145 1.363 . S
C2144 C2149 1.379 . S
C2144 N2151 1.356 . S
C2145 C2144 1.363 . S
C2145 C2148 1.363 . S
N2146 C2148 1.356 . S
N2146 H2158 0.984 . S
N2146 H2159 0.985 . S
N2147 C2149 1.356 . S
N2147 H2152 0.984 . S
N2147 H2153 0.985 . S
C2148 C2142 1.379 . S
C2148 C2145 1.363 . S
C2148 N2146 1.356 . S
C2149 C2143 1.363 . S
C2149 C2144 1.379 . S
C2149 N2147 1.356 . S
N2150 C2142 1.356 . S
N2150 H2156 0.984 . S
N2150 H2157 0.984 . S
N2151 C2144 1.356 . S
N2151 H2154 0.984 . S
N2151 H2155 0.985 . S
H2152 N2147 0.984 . S
H2153 N2147 0.985 . S
H2154 N2151 0.984 . S
H2155 N2151 0.985 . S
H2156 N2150 0.984 . S
H2157 N2150 0.984 . S
H2158 N2146 0.984 . S
H2159 N2146 0.985 . S
C2160 C2161 1.363 . S
C2160 C2166 1.379 . S
C2160 N2168 1.356 . S
C2161 C2160 1.363 . S
C2161 C2167 1.363 1_545 S
C2162 C2163 1.363 . S
C2162 C2167 1.379 1_545 S
C2162 N2169 1.356 . S
C2163 C2162 1.363 . S
C2163 C2166 1.363 . S
N2164 C2166 1.356 . S
N2164 H2176 0.984 . S
N2164 H2177 0.985 . S
N2165 C2167 1.356 . S
N2165 H2170 0.984 . S
N2165 H2171 0.985 . S
C2166 C2160 1.379 . S
C2166 C2163 1.363 . S
C2166 N2164 1.356 . S
C2167 C2161 1.363 1_565 S
C2167 C2162 1.379 1_565 S
C2167 N2165 1.356 . S
N2168 C2160 1.356 . S
N2168 H2174 0.984 . S
N2168 H2175 0.984 . S
N2169 C2162 1.356 . S
N2169 H2172 0.984 . S
N2169 H2173 0.985 1_545 S
H2170 N2165 0.984 . S
H2171 N2165 0.985 . S
H2172 N2169 0.984 . S
H2173 N2169 0.985 1_565 S
H2174 N2168 0.984 . S
H2175 N2168 0.984 . S
H2176 N2164 0.984 . S
H2177 N2164 0.985 . S
C2178 C2179 1.363 . S
C2178 C2184 1.379 1_655 S
C2178 N2186 1.356 . S
C2179 C2178 1.363 . S
C2179 C2185 1.363 . S
C2180 C2181 1.363 . S
C2180 C2185 1.379 . S
C2180 N2187 1.356 . S
C2181 C2180 1.363 . S
C2181 C2184 1.363 1_655 S
N2182 C2184 1.356 . S
N2182 H2194 0.984 . S
N2182 H2195 0.985 . S
N2183 C2185 1.356 . S
N2183 H2188 0.984 . S
N2183 H2189 0.985 . S
C2184 C2178 1.379 1_455 S
C2184 C2181 1.363 1_455 S
C2184 N2182 1.356 . S
C2185 C2179 1.363 . S
C2185 C2180 1.379 . S
C2185 N2183 1.356 . S
N2186 C2178 1.356 . S
N2186 H2192 0.984 1_655 S
N2186 H2193 0.984 . S
N2187 C2180 1.356 . S
N2187 H2190 0.984 . S
N2187 H2191 0.985 . S
H2188 N2183 0.984 . S
H2189 N2183 0.985 . S
H2190 N2187 0.984 . S
H2191 N2187 0.985 . S
H2192 N2186 0.984 1_455 S
H2193 N2186 0.984 . S
H2194 N2182 0.984 . S
H2195 N2182 0.985 . S
C2196 C2197 1.363 . S
C2196 C2202 1.379 . S
C2196 N2204 1.356 . S
C2197 C2196 1.363 . S
C2197 C2203 1.363 . S
C2198 C2199 1.363 . S
C2198 C2203 1.379 . S
C2198 N2205 1.356 . S
C2199 C2198 1.363 . S
C2199 C2202 1.363 . S
N2200 C2202 1.356 . S
N2200 H2212 0.984 . S
N2200 H2213 0.985 . S
N2201 C2203 1.356 . S
N2201 H2206 0.984 . S
N2201 H2207 0.985 . S
C2202 C2196 1.379 . S
C2202 C2199 1.363 . S
C2202 N2200 1.356 . S
C2203 C2197 1.363 . S
C2203 C2198 1.379 . S
C2203 N2201 1.356 . S
N2204 C2196 1.356 . S
N2204 H2210 0.984 . S
N2204 H2211 0.984 . S
N2205 C2198 1.356 . S
N2205 H2208 0.984 . S
N2205 H2209 0.985 . S
H2206 N2201 0.984 . S
H2207 N2201 0.985 . S
H2208 N2205 0.984 . S
H2209 N2205 0.985 . S
H2210 N2204 0.984 . S
H2211 N2204 0.984 . S
H2212 N2200 0.984 . S
H2213 N2200 0.985 . S
C2214 C2215 1.363 . S
C2214 C2220 1.379 . S
C2214 N2222 1.356 . S
C2215 C2214 1.363 . S
C2215 C2221 1.363 . S
C2216 C2217 1.363 1_565 S
C2216 C2221 1.379 1_565 S
C2216 N2223 1.356 . S
C2217 C2216 1.363 1_545 S
C2217 C2220 1.363 . S
N2218 C2220 1.356 . S
N2218 H2230 0.984 . S
N2218 H2231 0.985 . S
N2219 C2221 1.356 1_565 S
N2219 H2224 0.984 1_565 S
N2219 H2225 0.985 . S
C2220 C2214 1.379 . S
C2220 C2217 1.363 . S
C2220 N2218 1.356 . S
C2221 C2215 1.363 . S
C2221 C2216 1.379 1_545 S
C2221 N2219 1.356 1_545 S
N2222 C2214 1.356 . S
N2222 H2228 0.984 . S
N2222 H2229 0.984 . S
N2223 C2216 1.356 . S
N2223 H2226 0.984 . S
N2223 H2227 0.985 . S
H2224 N2219 0.984 1_545 S
H2225 N2219 0.985 . S
H2226 N2223 0.984 . S
H2227 N2223 0.985 . S
H2228 N2222 0.984 . S
H2229 N2222 0.984 . S
H2230 N2218 0.984 . S
H2231 N2218 0.985 . S
C2232 C2233 1.363 . S
C2232 C2238 1.379 1_655 S
C2232 N2240 1.362 . S
C2233 C2232 1.363 . S
C2233 C2239 1.363 . S
C2234 C2235 1.363 . S
C2234 C2239 1.379 . S
C2234 N2241 1.356 . S
C2235 C2234 1.363 . S
C2235 C2238 1.363 1_655 S
N2236 C2238 1.356 . S
N2236 H2248 0.984 . S
N2236 H2249 0.985 . S
N2237 C2239 1.356 . S
N2237 H2242 0.984 . S
N2237 H2243 0.985 . S
C2238 C2232 1.379 1_455 S
C2238 C2235 1.363 1_455 S
C2238 N2236 1.356 . S
C2239 C2233 1.363 . S
C2239 C2234 1.379 . S
C2239 N2237 1.356 . S
N2240 C2232 1.362 . S
N2240 H2246 0.978 1_655 S
N2240 H2247 0.985 . S
N2241 C2234 1.356 . S
N2241 H2244 0.984 . S
N2241 H2245 0.985 . S
H2242 N2237 0.984 . S
H2243 N2237 0.985 . S
H2244 N2241 0.984 . S
H2245 N2241 0.985 . S
H2246 N2240 0.978 1_455 S
H2247 N2240 0.985 . S
H2248 N2236 0.984 . S
H2249 N2236 0.985 . S
C2250 C2251 1.363 . S
C2250 C2256 1.379 . S
C2250 N2258 1.356 . S
C2251 C2250 1.363 . S
C2251 C2257 1.363 . S
C2252 C2253 1.363 . S
C2252 C2257 1.379 . S
C2252 N2259 1.356 . S
C2253 C2252 1.363 . S
C2253 C2256 1.363 . S
N2254 C2256 1.356 . S
N2254 H2266 0.984 . S
N2254 H2267 0.985 . S
N2255 C2257 1.356 . S
N2255 H2260 0.984 . S
N2255 H2261 0.985 . S
C2256 C2250 1.379 . S
C2256 C2253 1.363 . S
C2256 N2254 1.356 . S
C2257 C2251 1.363 . S
C2257 C2252 1.379 . S
C2257 N2255 1.356 . S
N2258 C2250 1.356 . S
N2258 H2264 0.984 . S
N2258 H2265 0.984 . S
N2259 C2252 1.356 . S
N2259 H2262 0.984 . S
N2259 H2263 0.985 . S
H2260 N2255 0.984 . S
H2261 N2255 0.985 . S
H2262 N2259 0.984 . S
H2263 N2259 0.985 . S
H2264 N2258 0.984 . S
H2265 N2258 0.984 . S
H2266 N2254 0.984 . S
H2267 N2254 0.985 . S
C2268 C2269 1.363 1_545 S
C2268 C2274 1.379 1_545 S
C2268 N2276 1.356 . S
C2269 C2268 1.363 1_565 S
C2269 C2275 1.363 . S
C2270 C2271 1.363 . S
C2270 C2275 1.379 . S
C2270 N2277 1.356 . S
C2271 C2270 1.363 . S
C2271 C2274 1.363 . S
N2272 C2274 1.356 . S
N2272 H2284 0.984 1_565 S
N2272 H2285 0.985 . S
N2273 C2275 1.356 . S
N2273 H2278 0.984 . S
N2273 H2279 0.985 . S
C2274 C2268 1.379 1_565 S
C2274 C2271 1.363 . S
C2274 N2272 1.356 . S
C2275 C2269 1.363 . S
C2275 C2270 1.379 . S
C2275 N2273 1.356 . S
N2276 C2268 1.356 . S
N2276 H2282 0.984 . S
N2276 H2283 0.984 . S
N2277 C2270 1.356 . S
N2277 H2280 0.984 . S
N2277 H2281 0.985 . S
H2278 N2273 0.984 . S
H2279 N2273 0.985 . S
H2280 N2277 0.984 . S
H2281 N2277 0.985 . S
H2282 N2276 0.984 . S
H2283 N2276 0.984 . S
H2284 N2272 0.984 1_545 S
H2285 N2272 0.985 . S
C2286 C2287 1.363 . S
C2286 C2292 1.379 . S
C2286 N2294 1.356 . S
C2287 C2286 1.363 . S
C2287 C2293 1.363 1_455 S
C2288 C2289 1.363 . S
C2288 C2293 1.379 1_455 S
C2288 N2295 1.356 . S
C2289 C2288 1.363 . S
C2289 C2292 1.363 . S
N2290 C2292 1.356 . S
N2290 H2302 0.984 . S
N2290 H2303 0.985 . S
N2291 C2293 1.356 . S
N2291 H2296 0.984 . S
N2291 H2297 0.985 . S
C2292 C2286 1.379 . S
C2292 C2289 1.363 . S
C2292 N2290 1.356 . S
C2293 C2287 1.363 1_655 S
C2293 C2288 1.379 1_655 S
C2293 N2291 1.356 . S
N2294 C2286 1.356 . S
N2294 H2300 0.984 . S
N2294 H2301 0.984 . S
N2295 C2288 1.356 . S
N2295 H2298 0.984 . S
N2295 H2299 0.985 1_455 S
H2296 N2291 0.984 . S
H2297 N2291 0.985 . S
H2298 N2295 0.984 . S
H2299 N2295 0.985 1_655 S
H2300 N2294 0.984 . S
H2301 N2294 0.984 . S
H2302 N2290 0.984 . S
H2303 N2290 0.985 . S
C2304 C2305 1.363 1_455 S
C2304 C2310 1.379 . S
C2304 N2312 1.356 1_455 S
C2305 C2304 1.363 1_655 S
C2305 C2311 1.363 1_655 S
C2306 C2307 1.363 . S
C2306 C2311 1.379 . S
C2306 N2313 1.356 . S
C2307 C2306 1.363 . S
C2307 C2310 1.363 . S
N2308 C2310 1.356 . S
N2308 H2320 0.984 . S
N2308 H2321 0.985 . S
N2309 C2311 1.356 1_655 S
N2309 H2314 0.984 . S
N2309 H2315 0.985 . S
C2310 C2304 1.379 . S
C2310 C2307 1.363 . S
C2310 N2308 1.356 . S
C2311 C2305 1.363 1_455 S
C2311 C2306 1.379 . S
C2311 N2309 1.356 1_455 S
N2312 C2304 1.356 1_655 S
N2312 H2318 0.984 . S
N2312 H2319 0.984 . S
N2313 C2306 1.356 . S
N2313 H2316 0.984 . S
N2313 H2317 0.985 . S
H2314 N2309 0.984 . S
H2315 N2309 0.985 . S
H2316 N2313 0.984 . S
H2317 N2313 0.985 . S
H2318 N2312 0.984 . S
H2319 N2312 0.984 . S
H2320 N2308 0.984 . S
H2321 N2308 0.985 . S
C2322 C2323 1.363 . S
C2322 C2328 1.379 . S
C2322 N2330 1.356 . S
C2323 C2322 1.363 . S
C2323 C2329 1.363 . S
C2324 C2325 1.363 . S
C2324 C2329 1.379 . S
C2324 N2331 1.356 . S
C2325 C2324 1.363 . S
C2325 C2328 1.363 . S
N2326 C2328 1.356 . S
N2326 H2338 0.984 . S
N2326 H2339 0.985 . S
N2327 C2329 1.356 . S
N2327 H2332 0.984 . S
N2327 H2333 0.985 . S
C2328 C2322 1.379 . S
C2328 C2325 1.363 . S
C2328 N2326 1.356 . S
C2329 C2323 1.363 . S
C2329 C2324 1.379 . S
C2329 N2327 1.356 . S
N2330 C2322 1.356 . S
N2330 H2336 0.984 . S
N2330 H2337 0.984 . S
N2331 C2324 1.356 . S
N2331 H2334 0.984 . S
N2331 H2335 0.985 . S
H2332 N2327 0.984 . S
H2333 N2327 0.985 . S
H2334 N2331 0.984 . S
H2335 N2331 0.985 . S
H2336 N2330 0.984 . S
H2337 N2330 0.984 . S
H2338 N2326 0.984 . S
H2339 N2326 0.985 . S
C2340 C2341 1.363 . S
C2340 C2346 1.379 1_565 S
C2340 N2348 1.356 . S
C2341 C2340 1.363 . S
C2341 C2347 1.363 . S
C2342 C2343 1.363 1_565 S
C2342 C2347 1.379 . S
C2342 N2349 1.356 1_565 S
C2343 C2342 1.363 1_545 S
C2343 C2346 1.363 . S
N2344 C2346 1.356 . S
N2344 H2356 0.984 . S
N2344 H2357 0.985 . S
N2345 C2347 1.356 . S
N2345 H2350 0.984 . S
N2345 H2351 0.985 . S
C2346 C2340 1.379 1_545 S
C2346 C2343 1.363 . S
C2346 N2344 1.356 . S
C2347 C2341 1.363 . S
C2347 C2342 1.379 . S
C2347 N2345 1.356 . S
N2348 C2340 1.356 . S
N2348 H2354 0.984 . S
N2348 H2355 0.984 . S
N2349 C2342 1.356 1_545 S
N2349 H2352 0.984 . S
N2349 H2353 0.985 . S
H2350 N2345 0.984 . S
H2351 N2345 0.985 . S
H2352 N2349 0.984 . S
H2353 N2349 0.985 . S
H2354 N2348 0.984 . S
H2355 N2348 0.984 . S
H2356 N2344 0.984 . S
H2357 N2344 0.985 . S
C2358 C2359 1.363 . S
C2358 C2364 1.379 . S
C2358 N2366 1.356 . S
C2359 C2358 1.363 . S
C2359 C2365 1.363 . S
C2360 C2361 1.363 . S
C2360 C2365 1.379 . S
C2360 N2367 1.356 . S
C2361 C2360 1.363 . S
C2361 C2364 1.363 . S
N2362 C2364 1.356 1_655 S
N2362 H2374 0.984 . S
N2362 H2375 0.985 . S
N2363 C2365 1.356 . S
N2363 H2368 0.984 . S
N2363 H2369 0.985 . S
C2364 C2358 1.379 . S
C2364 C2361 1.363 . S
C2364 N2362 1.356 1_455 S
C2365 C2359 1.363 . S
C2365 C2360 1.379 . S
C2365 N2363 1.356 . S
N2366 C2358 1.356 . S
N2366 H2372 0.984 . S
N2366 H2373 0.984 . S
N2367 C2360 1.356 . S
N2367 H2370 0.984 . S
N2367 H2371 0.985 . S
H2368 N2363 0.984 . S
H2369 N2363 0.985 . S
H2370 N2367 0.984 . S
H2371 N2367 0.985 . S
H2372 N2366 0.984 . S
H2373 N2366 0.984 . S
H2374 N2362 0.984 . S
H2375 N2362 0.985 . S
C2376 C2377 1.363 . S
C2376 C2382 1.379 . S
C2376 N2384 1.356 . S
C2377 C2376 1.363 . S
C2377 C2383 1.363 . S
C2378 C2379 1.363 . S
C2378 C2383 1.379 . S
C2378 N2385 1.356 . S
C2379 C2378 1.363 . S
C2379 C2382 1.363 . S
N2380 C2382 1.356 . S
N2380 H2392 0.984 . S
N2380 H2393 0.985 . S
N2381 C2383 1.356 . S
N2381 H2386 0.984 . S
N2381 H2387 0.985 . S
C2382 C2376 1.379 . S
C2382 C2379 1.363 . S
C2382 N2380 1.356 . S
C2383 C2377 1.363 . S
C2383 C2378 1.379 . S
C2383 N2381 1.356 . S
N2384 C2376 1.356 . S
N2384 H2390 0.984 . S
N2384 H2391 0.984 . S
N2385 C2378 1.356 . S
N2385 H2388 0.984 . S
N2385 H2389 0.985 . S
H2386 N2381 0.984 . S
H2387 N2381 0.985 . S
H2388 N2385 0.984 . S
H2389 N2385 0.985 . S
H2390 N2384 0.984 . S
H2391 N2384 0.984 . S
H2392 N2380 0.984 . S
H2393 N2380 0.985 . S
C2394 C2395 1.363 . S
C2394 C2400 1.379 . S
C2394 N2402 1.356 . S
C2395 C2394 1.363 . S
C2395 C2401 1.363 . S
C2396 C2397 1.363 . S
C2396 C2401 1.379 . S
C2396 N2403 1.356 1_565 S
C2397 C2396 1.363 . S
C2397 C2400 1.363 . S
N2398 C2400 1.356 . S
N2398 H2410 0.984 . S
N2398 H2411 0.985 . S
N2399 C2401 1.356 . S
N2399 H2404 0.984 . S
N2399 H2405 0.985 . S
C2400 C2394 1.379 . S
C2400 C2397 1.363 . S
C2400 N2398 1.356 . S
C2401 C2395 1.363 . S
C2401 C2396 1.379 . S
C2401 N2399 1.356 . S
N2402 C2394 1.356 . S
N2402 H2408 0.984 . S
N2402 H2409 0.984 . S
N2403 C2396 1.356 1_545 S
N2403 H2406 0.984 . S
N2403 H2407 0.985 . S
H2404 N2399 0.984 . S
H2405 N2399 0.985 . S
H2406 N2403 0.984 . S
H2407 N2403 0.985 . S
H2408 N2402 0.984 . S
H2409 N2402 0.984 . S
H2410 N2398 0.984 . S
H2411 N2398 0.985 . S
C2412 C2413 1.363 . S
C2412 C2418 1.379 . S
C2412 N2420 1.356 . S
C2413 C2412 1.363 . S
C2413 C2419 1.363 . S
C2414 C2415 1.363 . S
C2414 C2419 1.379 . S
C2414 N2421 1.356 . S
C2415 C2414 1.363 . S
C2415 C2418 1.363 . S
N2416 C2418 1.356 1_545 S
N2416 H2428 0.984 . S
N2416 H2429 0.985 . S
N2417 C2419 1.356 . S
N2417 H2422 0.984 . S
N2417 H2423 0.985 . S
C2418 C2412 1.379 . S
C2418 C2415 1.363 . S
C2418 N2416 1.356 1_565 S
C2419 C2413 1.363 . S
C2419 C2414 1.379 . S
C2419 N2417 1.356 . S
N2420 C2412 1.356 . S
N2420 H2426 0.984 . S
N2420 H2427 0.984 . S
N2421 C2414 1.356 . S
N2421 H2424 0.984 . S
N2421 H2425 0.985 . S
H2422 N2417 0.984 . S
H2423 N2417 0.985 . S
H2424 N2421 0.984 . S
H2425 N2421 0.985 . S
H2426 N2420 0.984 . S
H2427 N2420 0.984 . S
H2428 N2416 0.984 . S
H2429 N2416 0.985 . S
C2430 C2431 1.363 . S
C2430 C2436 1.379 . S
C2430 N2438 1.356 1_455 S
C2431 C2430 1.363 . S
C2431 C2437 1.363 . S
C2432 C2433 1.363 . S
C2432 C2437 1.379 . S
C2432 N2439 1.356 . S
C2433 C2432 1.363 . S
C2433 C2436 1.363 . S
N2434 C2436 1.356 . S
N2434 H2446 0.984 . S
N2434 H2447 0.985 . S
N2435 C2437 1.356 . S
N2435 H2440 0.984 . S
N2435 H2441 0.985 . S
C2436 C2430 1.379 . S
C2436 C2433 1.363 . S
C2436 N2434 1.356 . S
C2437 C2431 1.363 . S
C2437 C2432 1.379 . S
C2437 N2435 1.356 . S
N2438 C2430 1.356 1_655 S
N2438 H2444 0.984 . S
N2438 H2445 0.984 . S
N2439 C2432 1.356 . S
N2439 H2442 0.984 . S
N2439 H2443 0.985 . S
H2440 N2435 0.984 . S
H2441 N2435 0.985 . S
H2442 N2439 0.984 . S
H2443 N2439 0.985 . S
H2444 N2438 0.984 . S
H2445 N2438 0.984 . S
H2446 N2434 0.984 . S
H2447 N2434 0.985 . S
C2448 C2449 1.363 . S
C2448 C2454 1.379 . S
C2448 N2456 1.356 . S
C2449 C2448 1.363 . S
C2449 C2455 1.363 . S
C2450 C2451 1.363 . S
C2450 C2455 1.379 . S
C2450 N2457 1.356 . S
C2451 C2450 1.363 . S
C2451 C2454 1.363 . S
N2452 C2454 1.356 . S
N2452 H2464 0.984 . S
N2452 H2465 0.985 . S
N2453 C2455 1.356 . S
N2453 H2458 0.984 . S
N2453 H2459 0.985 . S
C2454 C2448 1.379 . S
C2454 C2451 1.363 . S
C2454 N2452 1.356 . S
C2455 C2449 1.363 . S
C2455 C2450 1.379 . S
C2455 N2453 1.356 . S
N2456 C2448 1.356 . S
N2456 H2462 0.984 . S
N2456 H2463 0.984 . S
N2457 C2450 1.356 . S
N2457 H2460 0.984 . S
N2457 H2461 0.985 . S
H2458 N2453 0.984 . S
H2459 N2453 0.985 . S
H2460 N2457 0.984 . S
H2461 N2457 0.985 . S
H2462 N2456 0.984 . S
H2463 N2456 0.984 . S
H2464 N2452 0.984 . S
H2465 N2452 0.985 . S
C2466 C2467 1.363 . S
C2466 C2472 1.379 1_565 S
C2466 N2474 1.356 . S
C2467 C2466 1.363 . S
C2467 C2473 1.363 1_554 S
C2468 C2469 1.363 1_565 S
C2468 C2473 1.379 . S
C2468 N2475 1.356 1_565 S
C2469 C2468 1.363 1_545 S
C2469 C2472 1.363 1_556 S
N2470 C2472 1.356 . S
N2470 H2482 0.984 . S
N2470 H2483 0.985 . S
N2471 C2473 1.356 . S
N2471 H2476 0.984 . S
N2471 H2477 0.985 . S
C2472 C2466 1.379 1_545 S
C2472 C2469 1.363 1_554 S
C2472 N2470 1.356 . S
C2473 C2467 1.363 1_556 S
C2473 C2468 1.379 . S
C2473 N2471 1.356 . S
N2474 C2466 1.356 . S
N2474 H2480 0.984 . S
N2474 H2481 0.984 . S
N2475 C2468 1.356 1_545 S
N2475 H2478 0.984 . S
N2475 H2479 0.985 . S
H2476 N2471 0.984 . S
H2477 N2471 0.985 . S
H2478 N2475 0.984 . S
H2479 N2475 0.985 . S
H2480 N2474 0.984 . S
H2481 N2474 0.984 . S
H2482 N2470 0.984 . S
H2483 N2470 0.985 . S
C2484 C2485 1.363 . S
C2484 C2490 1.379 1_455 S
C2484 N2492 1.356 . S
C2485 C2484 1.363 . S
C2485 C2491 1.362 1_554 S
C2486 C2487 1.363 1_455 S
C2486 C2491 1.379 . S
C2486 N2493 1.356 1_455 S
C2487 C2486 1.363 1_655 S
C2487 C2490 1.363 1_556 S
N2488 C2490 1.356 . S
N2488 H2500 0.984 . S
N2488 H2501 0.985 . S
N2489 C2491 1.356 . S
N2489 H2494 0.984 . S
N2489 H2495 0.985 . S
C2490 C2484 1.379 1_655 S
C2490 C2487 1.363 1_554 S
C2490 N2488 1.356 . S
C2491 C2485 1.362 1_556 S
C2491 C2486 1.379 . S
C2491 N2489 1.356 . S
N2492 C2484 1.356 . S
N2492 H2498 0.984 . S
N2492 H2499 0.984 . S
N2493 C2486 1.356 1_655 S
N2493 H2496 0.984 . S
N2493 H2497 0.985 . S
H2494 N2489 0.984 . S
H2495 N2489 0.985 . S
H2496 N2493 0.984 . S
H2497 N2493 0.985 . S
H2498 N2492 0.984 . S
H2499 N2492 0.984 . S
H2500 N2488 0.984 . S
H2501 N2488 0.985 . S
C2502 C2503 1.363 . S
C2502 C2508 1.379 . S
C2502 N2510 1.356 . S
C2503 C2502 1.363 . S
C2503 C2509 1.363 1_556 S
C2504 C2505 1.363 1_554 S
C2504 C2509 1.379 . S
C2504 N2511 1.356 . S
C2505 C2504 1.363 1_556 S
C2505 C2508 1.363 . S
N2506 C2508 1.356 . S
N2506 H2518 0.984 . S
N2506 H2519 0.985 . S
N2507 C2509 1.356 . S
N2507 H2512 0.984 . S
N2507 H2513 0.985 . S
C2508 C2502 1.379 . S
C2508 C2505 1.363 . S
C2508 N2506 1.356 . S
C2509 C2503 1.363 1_554 S
C2509 C2504 1.379 . S
C2509 N2507 1.356 . S
N2510 C2502 1.356 . S
N2510 H2516 0.984 . S
N2510 H2517 0.984 . S
N2511 C2504 1.356 . S
N2511 H2514 0.984 . S
N2511 H2515 0.985 . S
H2512 N2507 0.984 . S
H2513 N2507 0.985 . S
H2514 N2511 0.984 . S
H2515 N2511 0.985 . S
H2516 N2510 0.984 . S
H2517 N2510 0.984 . S
H2518 N2506 0.984 . S
H2519 N2506 0.985 . S
C2520 C2521 1.363 . S
C2520 C2526 1.379 . S
C2520 N2528 1.356 . S
C2521 C2520 1.363 . S
C2521 C2527 1.363 . S
C2522 C2523 1.363 . S
C2522 C2527 1.379 . S
C2522 N2529 1.356 . S
C2523 C2522 1.363 . S
C2523 C2526 1.363 . S
N2524 C2526 1.356 . S
N2524 H2536 0.984 . S
N2524 H2537 0.985 1_545 S
N2525 C2527 1.356 . S
N2525 H2530 0.984 . S
N2525 H2531 0.985 . S
C2526 C2520 1.379 . S
C2526 C2523 1.363 . S
C2526 N2524 1.356 . S
C2527 C2521 1.363 . S
C2527 C2522 1.379 . S
C2527 N2525 1.356 . S
N2528 C2520 1.356 . S
N2528 H2534 0.984 . S
N2528 H2535 0.984 . S
N2529 C2522 1.356 . S
N2529 H2532 0.984 1_545 S
N2529 H2533 0.985 . S
H2530 N2525 0.984 . S
H2531 N2525 0.985 . S
H2532 N2529 0.984 1_565 S
H2533 N2529 0.985 . S
H2534 N2528 0.984 . S
H2535 N2528 0.984 . S
H2536 N2524 0.984 . S
H2537 N2524 0.985 1_565 S
C2538 C2539 1.363 . S
C2538 C2544 1.379 . S
C2538 N2546 1.356 . S
C2539 C2538 1.363 . S
C2539 C2545 1.363 . S
C2540 C2541 1.363 . S
C2540 C2545 1.379 . S
C2540 N2547 1.356 1_655 S
C2541 C2540 1.363 . S
C2541 C2544 1.363 . S
N2542 C2544 1.356 . S
N2542 H2554 0.984 . S
N2542 H2555 0.985 . S
N2543 C2545 1.356 . S
N2543 H2548 0.984 . S
N2543 H2549 0.985 . S
C2544 C2538 1.379 . S
C2544 C2541 1.363 . S
C2544 N2542 1.356 . S
C2545 C2539 1.363 . S
C2545 C2540 1.379 . S
C2545 N2543 1.356 . S
N2546 C2538 1.356 . S
N2546 H2552 0.984 . S
N2546 H2553 0.984 . S
N2547 C2540 1.356 1_455 S
N2547 H2550 0.984 . S
N2547 H2551 0.985 . S
H2548 N2543 0.984 . S
H2549 N2543 0.985 . S
H2550 N2547 0.984 . S
H2551 N2547 0.985 . S
H2552 N2546 0.984 . S
H2553 N2546 0.984 . S
H2554 N2542 0.984 . S
H2555 N2542 0.985 . S
C2556 C2557 1.363 . S
C2556 C2562 1.379 . S
C2556 N2564 1.356 . S
C2557 C2556 1.363 . S
C2557 C2563 1.363 . S
C2558 C2559 1.363 . S
C2558 C2563 1.379 . S
C2558 N2565 1.356 . S
C2559 C2558 1.363 . S
C2559 C2562 1.363 . S
N2560 C2562 1.356 . S
N2560 H2572 0.984 . S
N2560 H2573 0.985 . S
N2561 C2563 1.356 . S
N2561 H2566 0.984 . S
N2561 H2567 0.985 . S
C2562 C2556 1.379 . S
C2562 C2559 1.363 . S
C2562 N2560 1.356 . S
C2563 C2557 1.363 . S
C2563 C2558 1.379 . S
C2563 N2561 1.356 . S
N2564 C2556 1.356 . S
N2564 H2570 0.984 . S
N2564 H2571 0.984 . S
N2565 C2558 1.356 . S
N2565 H2568 0.984 . S
N2565 H2569 0.985 . S
H2566 N2561 0.984 . S
H2567 N2561 0.985 . S
H2568 N2565 0.984 . S
H2569 N2565 0.985 . S
H2570 N2564 0.984 . S
H2571 N2564 0.984 . S
H2572 N2560 0.984 . S
H2573 N2560 0.985 . S
C2574 C2575 1.363 1_556 S
C2574 C2580 1.379 1_565 S
C2574 N2582 1.356 . S
C2575 C2574 1.363 1_554 S
C2575 C2581 1.363 1_565 S
C2576 C2577 1.363 . S
C2576 C2581 1.379 . S
C2576 N2583 1.356 . S
C2577 C2576 1.363 . S
C2577 C2580 1.363 1_554 S
N2578 C2580 1.356 . S
N2578 H2590 0.984 . S
N2578 H2591 0.985 . S
N2579 C2581 1.356 1_565 S
N2579 H2584 0.984 . S
N2579 H2585 0.985 . S
C2580 C2574 1.379 1_545 S
C2580 C2577 1.363 1_556 S
C2580 N2578 1.356 . S
C2581 C2575 1.363 1_545 S
C2581 C2576 1.379 . S
C2581 N2579 1.356 1_545 S
N2582 C2574 1.356 . S
N2582 H2588 0.984 . S
N2582 H2589 0.984 . S
N2583 C2576 1.356 . S
N2583 H2586 0.984 . S
N2583 H2587 0.985 . S
H2584 N2579 0.984 . S
H2585 N2579 0.985 . S
H2586 N2583 0.984 . S
H2587 N2583 0.985 . S
H2588 N2582 0.984 . S
H2589 N2582 0.984 . S
H2590 N2578 0.984 . S
H2591 N2578 0.985 . S
C2592 C2593 1.363 . S
C2592 C2598 1.379 1_655 S
C2592 N2600 1.356 . S
C2593 C2592 1.363 . S
C2593 C2599 1.362 1_556 S
C2594 C2595 1.363 1_655 S
C2594 C2599 1.379 . S
C2594 N2601 1.356 1_655 S
C2595 C2594 1.363 1_455 S
C2595 C2598 1.363 1_554 S
N2596 C2598 1.356 . S
N2596 H2608 0.984 . S
N2596 H2609 0.985 . S
N2597 C2599 1.356 . S
N2597 H2602 0.984 . S
N2597 H2603 0.985 . S
C2598 C2592 1.379 1_455 S
C2598 C2595 1.363 1_556 S
C2598 N2596 1.356 . S
C2599 C2593 1.362 1_554 S
C2599 C2594 1.379 . S
C2599 N2597 1.356 . S
N2600 C2592 1.356 . S
N2600 H2606 0.984 . S
N2600 H2607 0.984 . S
N2601 C2594 1.356 1_455 S
N2601 H2604 0.984 . S
N2601 H2605 0.985 . S
H2602 N2597 0.984 . S
H2603 N2597 0.985 . S
H2604 N2601 0.984 . S
H2605 N2601 0.985 . S
H2606 N2600 0.984 . S
H2607 N2600 0.984 . S
H2608 N2596 0.984 . S
H2609 N2596 0.985 . S
C2610 C2611 1.363 . S
C2610 C2616 1.379 . S
C2610 N2618 1.356 . S
C2611 C2610 1.363 . S
C2611 C2617 1.363 1_554 S
C2612 C2613 1.363 1_556 S
C2612 C2617 1.379 . S
C2612 N2619 1.356 . S
C2613 C2612 1.363 1_554 S
C2613 C2616 1.362 . S
N2614 C2616 1.356 . S
N2614 H2626 0.984 . S
N2614 H2627 0.985 . S
N2615 C2617 1.356 . S
N2615 H2620 0.984 . S
N2615 H2621 0.985 . S
C2616 C2610 1.379 . S
C2616 C2613 1.362 . S
C2616 N2614 1.356 . S
C2617 C2611 1.363 1_556 S
C2617 C2612 1.379 . S
C2617 N2615 1.356 . S
N2618 C2610 1.356 . S
N2618 H2624 0.984 . S
N2618 H2625 0.984 . S
N2619 C2612 1.356 . S
N2619 H2622 0.984 . S
N2619 H2623 0.985 . S
H2620 N2615 0.984 . S
H2621 N2615 0.985 . S
H2622 N2619 0.984 . S
H2623 N2619 0.985 . S
H2624 N2618 0.984 . S
H2625 N2618 0.984 . S
H2626 N2614 0.984 . S
H2627 N2614 0.985 . S
C2628 C2629 1.363 . S
C2628 C2634 1.379 1_455 S
C2628 N2636 1.356 . S
C2629 C2628 1.363 . S
C2629 C2635 1.363 1_455 S
C2630 C2631 1.363 . S
C2630 C2635 1.379 . S
C2630 N2637 1.356 . S
C2631 C2630 1.363 . S
C2631 C2634 1.363 . S
N2632 C2634 1.356 . S
N2632 H2644 0.984 . S
N2632 H2645 0.985 . S
N2633 C2635 1.356 1_455 S
N2633 H2638 0.984 . S
N2633 H2639 0.985 . S
C2634 C2628 1.379 1_655 S
C2634 C2631 1.363 . S
C2634 N2632 1.356 . S
C2635 C2629 1.363 1_655 S
C2635 C2630 1.379 . S
C2635 N2633 1.356 1_655 S
N2636 C2628 1.356 . S
N2636 H2642 0.984 . S
N2636 H2643 0.984 . S
N2637 C2630 1.356 . S
N2637 H2640 0.984 . S
N2637 H2641 0.985 . S
H2638 N2633 0.984 . S
H2639 N2633 0.985 . S
H2640 N2637 0.984 . S
H2641 N2637 0.985 . S
H2642 N2636 0.984 . S
H2643 N2636 0.984 . S
H2644 N2632 0.984 . S
H2645 N2632 0.985 . S
C2646 C2647 1.363 . S
C2646 C2652 1.379 . S
C2646 N2654 1.356 . S
C2647 C2646 1.363 . S
C2647 C2653 1.363 . S
C2648 C2649 1.363 . S
C2648 C2653 1.379 . S
C2648 N2655 1.356 . S
C2649 C2648 1.363 . S
C2649 C2652 1.363 . S
N2650 C2652 1.356 . S
N2650 H2662 0.984 . S
N2650 H2663 0.985 . S
N2651 C2653 1.356 . S
N2651 H2656 0.984 . S
N2651 H2657 0.985 . S
C2652 C2646 1.379 . S
C2652 C2649 1.363 . S
C2652 N2650 1.356 . S
C2653 C2647 1.363 . S
C2653 C2648 1.379 . S
C2653 N2651 1.356 . S
N2654 C2646 1.356 . S
N2654 H2660 0.984 . S
N2654 H2661 0.984 . S
N2655 C2648 1.356 . S
N2655 H2658 0.984 . S
N2655 H2659 0.985 . S
H2656 N2651 0.984 . S
H2657 N2651 0.985 . S
H2658 N2655 0.984 . S
H2659 N2655 0.985 . S
H2660 N2654 0.984 . S
H2661 N2654 0.984 . S
H2662 N2650 0.984 . S
H2663 N2650 0.985 . S
C2664 C2665 1.363 1_545 S
C2664 C2670 1.379 . S
C2664 N2672 1.356 1_545 S
C2665 C2664 1.363 1_565 S
C2665 C2671 1.363 . S
C2666 C2667 1.363 . S
C2666 C2671 1.379 1_545 S
C2666 N2673 1.356 . S
C2667 C2666 1.363 . S
C2667 C2670 1.363 . S
N2668 C2670 1.356 . S
N2668 H2680 0.984 . S
N2668 H2681 0.985 . S
N2669 C2671 1.356 . S
N2669 H2674 0.984 . S
N2669 H2675 0.985 . S
C2670 C2664 1.379 . S
C2670 C2667 1.363 . S
C2670 N2668 1.356 . S
C2671 C2665 1.363 . S
C2671 C2666 1.379 1_565 S
C2671 N2669 1.356 . S
N2672 C2664 1.356 1_565 S
N2672 H2678 0.984 . S
N2672 H2679 0.984 . S
N2673 C2666 1.356 . S
N2673 H2676 0.984 . S
N2673 H2677 0.985 . S
H2674 N2669 0.984 . S
H2675 N2669 0.985 . S
H2676 N2673 0.984 . S
H2677 N2673 0.985 . S
H2678 N2672 0.984 . S
H2679 N2672 0.984 . S
H2680 N2668 0.984 . S
H2681 N2668 0.985 . S
C2682 C2683 1.363 . S
C2682 C2688 1.379 . S
C2682 N2690 1.356 . S
C2683 C2682 1.363 . S
C2683 C2689 1.363 . S
C2684 C2685 1.363 . S
C2684 C2689 1.379 . S
C2684 N2691 1.356 . S
C2685 C2684 1.363 . S
C2685 C2688 1.363 . S
N2686 C2688 1.356 . S
N2686 H2698 0.984 . S
N2686 H2699 0.985 . S
N2687 C2689 1.356 1_455 S
N2687 H2692 0.984 . S
N2687 H2693 0.985 . S
C2688 C2682 1.379 . S
C2688 C2685 1.363 . S
C2688 N2686 1.356 . S
C2689 C2683 1.363 . S
C2689 C2684 1.379 . S
C2689 N2687 1.356 1_655 S
N2690 C2682 1.356 . S
N2690 H2696 0.984 . S
N2690 H2697 0.984 . S
N2691 C2684 1.356 . S
N2691 H2694 0.984 . S
N2691 H2695 0.985 . S
H2692 N2687 0.984 . S
H2693 N2687 0.985 . S
H2694 N2691 0.984 . S
H2695 N2691 0.985 . S
H2696 N2690 0.984 . S
H2697 N2690 0.984 . S
H2698 N2686 0.984 . S
H2699 N2686 0.985 . S
C2700 C2701 1.363 . S
C2700 C2706 1.379 . S
C2700 N2708 1.356 . S
C2701 C2700 1.363 . S
C2701 C2707 1.363 . S
C2702 C2703 1.363 . S
C2702 C2707 1.379 . S
C2702 N2709 1.356 . S
C2703 C2702 1.363 . S
C2703 C2706 1.363 . S
N2704 C2706 1.356 . S
N2704 H2716 0.984 . S
N2704 H2717 0.985 . S
N2705 C2707 1.356 . S
N2705 H2710 0.984 . S
N2705 H2711 0.985 . S
C2706 C2700 1.379 . S
C2706 C2703 1.363 . S
C2706 N2704 1.356 . S
C2707 C2701 1.363 . S
C2707 C2702 1.379 . S
C2707 N2705 1.356 . S
N2708 C2700 1.356 . S
N2708 H2714 0.984 . S
N2708 H2715 0.984 . S
N2709 C2702 1.356 . S
N2709 H2712 0.984 . S
N2709 H2713 0.985 . S
H2710 N2705 0.984 . S
H2711 N2705 0.985 . S
H2712 N2709 0.984 . S
H2713 N2709 0.985 . S
H2714 N2708 0.984 . S
H2715 N2708 0.984 . S
H2716 N2704 0.984 . S
H2717 N2704 0.985 . S
C2718 C2719 1.363 . S
C2718 C2724 1.379 . S
C2718 N2726 1.356 . S
C2719 C2718 1.363 . S
C2719 C2725 1.363 . S
C2720 C2721 1.363 . S
C2720 C2725 1.379 . S
C2720 N2727 1.356 . S
C2721 C2720 1.363 . S
C2721 C2724 1.363 . S
N2722 C2724 1.356 1_565 S
N2722 H2734 0.984 . S
N2722 H2735 0.985 . S
N2723 C2725 1.356 . S
N2723 H2728 0.984 . S
N2723 H2729 0.985 . S
C2724 C2718 1.379 . S
C2724 C2721 1.363 . S
C2724 N2722 1.356 1_545 S
C2725 C2719 1.363 . S
C2725 C2720 1.379 . S
C2725 N2723 1.356 . S
N2726 C2718 1.356 . S
N2726 H2732 0.984 . S
N2726 H2733 0.984 . S
N2727 C2720 1.356 . S
N2727 H2730 0.984 . S
N2727 H2731 0.985 . S
H2728 N2723 0.984 . S
H2729 N2723 0.985 . S
H2730 N2727 0.984 . S
H2731 N2727 0.985 . S
H2732 N2726 0.984 . S
H2733 N2726 0.984 . S
H2734 N2722 0.984 . S
H2735 N2722 0.985 . S
C2736 C2737 1.363 . S
C2736 C2742 1.379 . S
C2736 N2744 1.356 . S
C2737 C2736 1.363 . S
C2737 C2743 1.363 . S
C2738 C2739 1.363 . S
C2738 C2743 1.379 . S
C2738 N2745 1.356 . S
C2739 C2738 1.363 . S
C2739 C2742 1.363 . S
N2740 C2742 1.356 . S
N2740 H2752 0.984 . S
N2740 H2753 0.985 . S
N2741 C2743 1.356 . S
N2741 H2746 0.984 . S
N2741 H2747 0.985 . S
C2742 C2736 1.379 . S
C2742 C2739 1.363 . S
C2742 N2740 1.356 . S
C2743 C2737 1.363 . S
C2743 C2738 1.379 . S
C2743 N2741 1.356 . S
N2744 C2736 1.356 . S
N2744 H2750 0.984 . S
N2744 H2751 0.984 . S
N2745 C2738 1.356 . S
N2745 H2748 0.984 . S
N2745 H2749 0.985 . S
H2746 N2741 0.984 . S
H2747 N2741 0.985 . S
H2748 N2745 0.984 . S
H2749 N2745 0.985 . S
H2750 N2744 0.984 . S
H2751 N2744 0.984 . S
H2752 N2740 0.984 . S
H2753 N2740 0.985 . S
C2754 C2755 1.363 . S
C2754 C2760 1.379 . S
C2754 N2762 1.356 . S
C2755 C2754 1.363 . S
C2755 C2761 1.363 . S
C2756 C2757 1.363 . S
C2756 C2761 1.379 . S
C2756 N2763 1.356 . S
C2757 C2756 1.363 . S
C2757 C2760 1.363 . S
N2758 C2760 1.356 . S
N2758 H2770 0.984 1_565 S
N2758 H2771 0.985 . S
N2759 C2761 1.356 . S
N2759 H2764 0.984 . S
N2759 H2765 0.985 . S
C2760 C2754 1.379 . S
C2760 C2757 1.363 . S
C2760 N2758 1.356 . S
C2761 C2755 1.363 . S
C2761 C2756 1.379 . S
C2761 N2759 1.356 . S
N2762 C2754 1.356 . S
N2762 H2768 0.984 1_565 S
N2762 H2769 0.984 . S
N2763 C2756 1.356 . S
N2763 H2766 0.984 . S
N2763 H2767 0.985 . S
H2764 N2759 0.984 . S
H2765 N2759 0.985 . S
H2766 N2763 0.984 . S
H2767 N2763 0.985 . S
H2768 N2762 0.984 1_545 S
H2769 N2762 0.984 . S
H2770 N2758 0.984 1_545 S
H2771 N2758 0.985 . S
C2772 C2773 1.363 . S
C2772 C2778 1.379 . S
C2772 N2780 1.356 . S
C2773 C2772 1.363 . S
C2773 C2779 1.363 . S
C2774 C2775 1.363 . S
C2774 C2779 1.379 . S
C2774 N2781 1.356 . S
C2775 C2774 1.363 . S
C2775 C2778 1.363 . S
N2776 C2778 1.356 . S
N2776 H2788 0.984 . S
N2776 H2789 0.985 . S
N2777 C2779 1.356 . S
N2777 H2782 0.984 . S
N2777 H2783 0.985 . S
C2778 C2772 1.379 . S
C2778 C2775 1.363 . S
C2778 N2776 1.356 . S
C2779 C2773 1.363 . S
C2779 C2774 1.379 . S
C2779 N2777 1.356 . S
N2780 C2772 1.356 . S
N2780 H2786 0.984 . S
N2780 H2787 0.984 . S
N2781 C2774 1.356 . S
N2781 H2784 0.984 . S
N2781 H2785 0.985 . S
H2782 N2777 0.984 . S
H2783 N2777 0.985 . S
H2784 N2781 0.984 . S
H2785 N2781 0.985 . S
H2786 N2780 0.984 . S
H2787 N2780 0.984 . S
H2788 N2776 0.984 . S
H2789 N2776 0.985 . S
C2790 C2791 1.363 . S
C2790 C2796 1.379 . S
C2790 N2798 1.356 . S
C2791 C2790 1.363 . S
C2791 C2797 1.363 . S
C2792 C2793 1.363 . S
C2792 C2797 1.379 . S
C2792 N2799 1.356 . S
C2793 C2792 1.363 . S
C2793 C2796 1.363 . S
N2794 C2796 1.356 . S
N2794 H2806 0.984 . S
N2794 H2807 0.985 . S
N2795 C2797 1.356 . S
N2795 H2800 0.984 . S
N2795 H2801 0.985 . S
C2796 C2790 1.379 . S
C2796 C2793 1.363 . S
C2796 N2794 1.356 . S
C2797 C2791 1.363 . S
C2797 C2792 1.379 . S
C2797 N2795 1.356 . S
N2798 C2790 1.356 . S
N2798 H2804 0.984 . S
N2798 H2805 0.984 . S
N2799 C2792 1.356 . S
N2799 H2802 0.984 . S
N2799 H2803 0.985 . S
H2800 N2795 0.984 . S
H2801 N2795 0.985 . S
H2802 N2799 0.984 . S
H2803 N2799 0.985 . S
H2804 N2798 0.984 . S
H2805 N2798 0.984 . S
H2806 N2794 0.984 . S
H2807 N2794 0.985 . S
C2808 C2809 1.363 . S
C2808 C2814 1.379 . S
C2808 N2816 1.356 . S
C2809 C2808 1.363 . S
C2809 C2815 1.363 . S
C2810 C2811 1.363 . S
C2810 C2815 1.379 . S
C2810 N2817 1.356 . S
C2811 C2810 1.363 . S
C2811 C2814 1.363 . S
N2812 C2814 1.356 . S
N2812 H2824 0.984 . S
N2812 H2825 0.985 . S
N2813 C2815 1.356 . S
N2813 H2818 0.984 . S
N2813 H2819 0.985 1_545 S
C2814 C2808 1.379 . S
C2814 C2811 1.363 . S
C2814 N2812 1.356 . S
C2815 C2809 1.363 . S
C2815 C2810 1.379 . S
C2815 N2813 1.356 . S
N2816 C2808 1.356 . S
N2816 H2822 0.984 . S
N2816 H2823 0.984 . S
N2817 C2810 1.356 . S
N2817 H2820 0.984 . S
N2817 H2821 0.985 1_545 S
H2818 N2813 0.984 . S
H2819 N2813 0.985 1_565 S
H2820 N2817 0.984 . S
H2821 N2817 0.985 1_565 S
H2822 N2816 0.984 . S
H2823 N2816 0.984 . S
H2824 N2812 0.984 . S
H2825 N2812 0.985 . S
C2826 C2827 1.363 . S
C2826 C2832 1.379 . S
C2826 N2834 1.356 . S
C2827 C2826 1.363 . S
C2827 C2833 1.363 . S
C2828 C2829 1.363 . S
C2828 C2833 1.379 . S
C2828 N2835 1.356 1_655 S
C2829 C2828 1.363 . S
C2829 C2832 1.363 . S
N2830 C2832 1.356 . S
N2830 H2842 0.984 . S
N2830 H2843 0.985 . S
N2831 C2833 1.356 . S
N2831 H2836 0.984 . S
N2831 H2837 0.985 1_655 S
C2832 C2826 1.379 . S
C2832 C2829 1.363 . S
C2832 N2830 1.356 . S
C2833 C2827 1.363 . S
C2833 C2828 1.379 . S
C2833 N2831 1.356 . S
N2834 C2826 1.356 . S
N2834 H2840 0.984 . S
N2834 H2841 0.984 . S
N2835 C2828 1.356 1_455 S
N2835 H2838 0.984 1_455 S
N2835 H2839 0.985 . S
H2836 N2831 0.984 . S
H2837 N2831 0.985 1_455 S
H2838 N2835 0.984 1_655 S
H2839 N2835 0.985 . S
H2840 N2834 0.984 . S
H2841 N2834 0.984 . S
H2842 N2830 0.984 . S
H2843 N2830 0.985 . S
C2844 C2845 1.363 . S
C2844 C2850 1.379 . S
C2844 N2852 1.356 . S
C2845 C2844 1.363 . S
C2845 C2851 1.363 . S
C2846 C2847 1.363 . S
C2846 C2851 1.379 . S
C2846 N2853 1.356 . S
C2847 C2846 1.363 . S
C2847 C2850 1.363 . S
N2848 C2850 1.356 . S
N2848 H2860 0.984 . S
N2848 H2861 0.985 . S
N2849 C2851 1.356 . S
N2849 H2854 0.984 . S
N2849 H2855 0.985 . S
C2850 C2844 1.379 . S
C2850 C2847 1.363 . S
C2850 N2848 1.356 . S
C2851 C2845 1.363 . S
C2851 C2846 1.379 . S
C2851 N2849 1.356 . S
N2852 C2844 1.356 . S
N2852 H2858 0.984 . S
N2852 H2859 0.984 . S
N2853 C2846 1.356 . S
N2853 H2856 0.984 . S
N2853 H2857 0.985 . S
H2854 N2849 0.984 . S
H2855 N2849 0.985 . S
H2856 N2853 0.984 . S
H2857 N2853 0.985 . S
H2858 N2852 0.984 . S
H2859 N2852 0.984 . S
H2860 N2848 0.984 . S
H2861 N2848 0.985 . S
C2862 C2863 1.363 . S
C2862 C2868 1.379 . S
C2862 N2870 1.356 . S
C2863 C2862 1.363 . S
C2863 C2869 1.363 . S
C2864 C2865 1.363 . S
C2864 C2869 1.379 . S
C2864 N2871 1.356 . S
C2865 C2864 1.363 . S
C2865 C2868 1.363 . S
N2866 C2868 1.356 . S
N2866 H2878 0.984 1_545 S
N2866 H2879 0.985 . S
N2867 C2869 1.356 . S
N2867 H2872 0.984 . S
N2867 H2873 0.985 . S
C2868 C2862 1.379 . S
C2868 C2865 1.363 . S
C2868 N2866 1.356 . S
C2869 C2863 1.363 . S
C2869 C2864 1.379 . S
C2869 N2867 1.356 . S
N2870 C2862 1.356 . S
N2870 H2876 0.984 1_545 S
N2870 H2877 0.984 . S
N2871 C2864 1.356 . S
N2871 H2874 0.984 . S
N2871 H2875 0.985 . S
H2872 N2867 0.984 . S
H2873 N2867 0.985 . S
H2874 N2871 0.984 . S
H2875 N2871 0.985 . S
H2876 N2870 0.984 1_565 S
H2877 N2870 0.984 . S
H2878 N2866 0.984 1_565 S
H2879 N2866 0.985 . S
C2880 C2881 1.363 . S
C2880 C2886 1.379 . S
C2880 N2888 1.356 . S
C2881 C2880 1.363 . S
C2881 C2887 1.363 . S
C2882 C2883 1.363 . S
C2882 C2887 1.379 . S
C2882 N2889 1.356 . S
C2883 C2882 1.363 . S
C2883 C2886 1.363 . S
N2884 C2886 1.356 . S
N2884 H2896 0.984 1_655 S
N2884 H2897 0.985 . S
N2885 C2887 1.356 . S
N2885 H2890 0.984 . S
N2885 H2891 0.985 . S
C2886 C2880 1.379 . S
C2886 C2883 1.363 . S
C2886 N2884 1.356 . S
C2887 C2881 1.363 . S
C2887 C2882 1.379 . S
C2887 N2885 1.356 . S
N2888 C2880 1.356 . S
N2888 H2894 0.984 1_655 S
N2888 H2895 0.984 . S
N2889 C2882 1.356 . S
N2889 H2892 0.984 . S
N2889 H2893 0.985 . S
H2890 N2885 0.984 . S
H2891 N2885 0.985 . S
H2892 N2889 0.984 . S
H2893 N2889 0.985 . S
H2894 N2888 0.984 1_455 S
H2895 N2888 0.984 . S
H2896 N2884 0.984 1_455 S
H2897 N2884 0.985 . S
C2898 C2899 1.363 . S
C2898 C2904 1.379 . S
C2898 N2906 1.356 . S
C2899 C2898 1.363 . S
C2899 C2905 1.363 . S
C2900 C2901 1.363 . S
C2900 C2905 1.379 . S
C2900 N2907 1.356 . S
C2901 C2900 1.363 . S
C2901 C2904 1.363 . S
N2902 C2904 1.356 . S
N2902 H2914 0.984 . S
N2902 H2915 0.985 . S
N2903 C2905 1.356 . S
N2903 H2908 0.984 . S
N2903 H2909 0.985 . S
C2904 C2898 1.379 . S
C2904 C2901 1.363 . S
C2904 N2902 1.356 . S
C2905 C2899 1.363 . S
C2905 C2900 1.379 . S
C2905 N2903 1.356 . S
N2906 C2898 1.356 . S
N2906 H2912 0.984 . S
N2906 H2913 0.984 . S
N2907 C2900 1.356 . S
N2907 H2910 0.984 . S
N2907 H2911 0.985 . S
H2908 N2903 0.984 . S
H2909 N2903 0.985 . S
H2910 N2907 0.984 . S
H2911 N2907 0.985 . S
H2912 N2906 0.984 . S
H2913 N2906 0.984 . S
H2914 N2902 0.984 . S
H2915 N2902 0.985 . S
C2916 C2917 1.363 . S
C2916 C2922 1.379 . S
C2916 N2924 1.356 1_565 S
C2917 C2916 1.363 . S
C2917 C2923 1.363 . S
C2918 C2919 1.363 . S
C2918 C2923 1.379 . S
C2918 N2925 1.356 . S
C2919 C2918 1.363 . S
C2919 C2922 1.363 . S
N2920 C2922 1.356 . S
N2920 H2932 0.984 1_565 S
N2920 H2933 0.985 . S
N2921 C2923 1.356 . S
N2921 H2926 0.984 . S
N2921 H2927 0.985 . S
C2922 C2916 1.379 . S
C2922 C2919 1.363 . S
C2922 N2920 1.356 . S
C2923 C2917 1.363 . S
C2923 C2918 1.379 . S
C2923 N2921 1.356 . S
N2924 C2916 1.356 1_545 S
N2924 H2930 0.984 . S
N2924 H2931 0.984 1_545 S
N2925 C2918 1.356 . S
N2925 H2928 0.984 . S
N2925 H2929 0.985 . S
H2926 N2921 0.984 . S
H2927 N2921 0.985 . S
H2928 N2925 0.984 . S
H2929 N2925 0.985 . S
H2930 N2924 0.984 . S
H2931 N2924 0.984 1_565 S
H2932 N2920 0.984 1_545 S
H2933 N2920 0.985 . S
C2934 C2935 1.363 . S
C2934 C2940 1.379 . S
C2934 N2942 1.354 1_455 S
C2935 C2934 1.363 . S
C2935 C2941 1.363 . S
C2936 C2937 1.363 . S
C2936 C2941 1.379 . S
C2936 N2943 1.356 . S
C2937 C2936 1.363 . S
C2937 C2940 1.363 . S
N2938 C2940 1.356 . S
N2938 H2950 0.984 1_455 S
N2938 H2951 0.985 . S
N2939 C2941 1.356 . S
N2939 H2944 0.984 . S
N2939 H2945 0.985 . S
C2940 C2934 1.379 . S
C2940 C2937 1.363 . S
C2940 N2938 1.356 . S
C2941 C2935 1.363 . S
C2941 C2936 1.379 . S
C2941 N2939 1.356 . S
N2942 C2934 1.354 1_655 S
N2942 H2948 0.987 . S
N2942 H2949 0.984 1_655 S
N2943 C2936 1.356 . S
N2943 H2946 0.984 . S
N2943 H2947 0.985 . S
H2944 N2939 0.984 . S
H2945 N2939 0.985 . S
H2946 N2943 0.984 . S
H2947 N2943 0.985 . S
H2948 N2942 0.987 . S
H2949 N2942 0.984 1_455 S
H2950 N2938 0.984 1_655 S
H2951 N2938 0.985 . S
C2952 C2953 1.363 1_655 S
C2952 C2958 1.379 . S
C2952 N2960 1.356 . S
C2953 C2952 1.363 1_455 S
C2953 C2959 1.363 . S
C2954 C2955 1.363 1_455 S
C2954 C2959 1.379 . S
C2954 N2961 1.356 . S
C2955 C2954 1.363 1_655 S
C2955 C2958 1.363 . S
N2956 C2958 1.356 . S
N2956 H2968 0.984 . S
N2956 H2969 0.985 . S
N2957 C2959 1.356 . S
N2957 H2962 0.984 . S
N2957 H2963 0.985 . S
C2958 C2952 1.379 . S
C2958 C2955 1.363 . S
C2958 N2956 1.356 . S
C2959 C2953 1.363 . S
C2959 C2954 1.379 . S
C2959 N2957 1.356 . S
N2960 C2952 1.356 . S
N2960 H2966 0.984 . S
N2960 H2967 0.984 . S
N2961 C2954 1.356 . S
N2961 H2964 0.984 . S
N2961 H2965 0.985 . S
H2962 N2957 0.984 . S
H2963 N2957 0.985 . S
H2964 N2961 0.984 . S
H2965 N2961 0.985 . S
H2966 N2960 0.984 . S
H2967 N2960 0.984 . S
H2968 N2956 0.984 . S
H2969 N2956 0.985 . S
C2970 C2971 1.363 . S
C2970 C2976 1.379 . S
C2970 N2978 1.356 . S
C2971 C2970 1.363 . S
C2971 C2977 1.363 . S
C2972 C2973 1.363 . S
C2972 C2977 1.379 . S
C2972 N2979 1.356 . S
C2973 C2972 1.363 . S
C2973 C2976 1.363 . S
N2974 C2976 1.356 . S
N2974 H2986 0.984 . S
N2974 H2987 0.985 . S
N2975 C2977 1.356 . S
N2975 H2980 0.984 . S
N2975 H2981 0.985 . S
C2976 C2970 1.379 . S
C2976 C2973 1.363 . S
C2976 N2974 1.356 . S
C2977 C2971 1.363 . S
C2977 C2972 1.379 . S
C2977 N2975 1.356 . S
N2978 C2970 1.356 . S
N2978 H2984 0.984 . S
N2978 H2985 0.984 . S
N2979 C2972 1.356 . S
N2979 H2982 0.984 . S
N2979 H2983 0.985 . S
H2980 N2975 0.984 . S
H2981 N2975 0.985 . S
H2982 N2979 0.984 . S
H2983 N2979 0.985 . S
H2984 N2978 0.984 . S
H2985 N2978 0.984 . S
H2986 N2974 0.984 . S
H2987 N2974 0.985 . S
C2988 C2989 1.363 . S
C2988 C2994 1.379 . S
C2988 N2996 1.356 . S
C2989 C2988 1.363 . S
C2989 C2995 1.363 1_565 S
C2990 C2991 1.363 . S
C2990 C2995 1.379 . S
C2990 N2997 1.356 . S
C2991 C2990 1.363 . S
C2991 C2994 1.363 1_545 S
N2992 C2994 1.356 . S
N2992 H3004 0.984 . S
N2992 H3005 0.985 . S
N2993 C2995 1.356 . S
N2993 H2998 0.984 . S
N2993 H2999 0.985 . S
C2994 C2988 1.379 . S
C2994 C2991 1.363 1_565 S
C2994 N2992 1.356 . S
C2995 C2989 1.363 1_545 S
C2995 C2990 1.379 . S
C2995 N2993 1.356 . S
N2996 C2988 1.356 . S
N2996 H3002 0.984 . S
N2996 H3003 0.984 . S
N2997 C2990 1.356 . S
N2997 H3000 0.984 . S
N2997 H3001 0.985 . S
H2998 N2993 0.984 . S
H2999 N2993 0.985 . S
H3000 N2997 0.984 . S
H3001 N2997 0.985 . S
H3002 N2996 0.984 . S
H3003 N2996 0.984 . S
H3004 N2992 0.984 . S
H3005 N2992 0.985 . S
C3006 C3007 1.363 . S
C3006 C3012 1.379 . S
C3006 N3014 1.356 . S
C3007 C3006 1.363 . S
C3007 C3013 1.363 1_565 S
C3008 C3009 1.363 . S
C3008 C3013 1.379 . S
C3008 N3015 1.356 . S
C3009 C3008 1.363 . S
C3009 C3012 1.363 1_545 S
N3010 C3012 1.356 . S
N3010 H3022 0.984 . S
N3010 H3023 0.985 . S
N3011 C3013 1.356 . S
N3011 H3016 0.984 . S
N3011 H3017 0.985 . S
C3012 C3006 1.379 . S
C3012 C3009 1.363 1_565 S
C3012 N3010 1.356 . S
C3013 C3007 1.363 1_545 S
C3013 C3008 1.379 . S
C3013 N3011 1.356 . S
N3014 C3006 1.356 . S
N3014 H3020 0.984 . S
N3014 H3021 0.984 . S
N3015 C3008 1.356 . S
N3015 H3018 0.984 . S
N3015 H3019 0.985 . S
H3016 N3011 0.984 . S
H3017 N3011 0.985 . S
H3018 N3015 0.984 . S
H3019 N3015 0.985 . S
H3020 N3014 0.984 . S
H3021 N3014 0.984 . S
H3022 N3010 0.984 . S
H3023 N3010 0.985 . S
C3024 C3025 1.363 . S
C3024 C3030 1.379 . S
C3024 N3032 1.356 . S
C3025 C3024 1.363 . S
C3025 C3031 1.363 . S
C3026 C3027 1.363 . S
C3026 C3031 1.379 1_455 S
C3026 N3033 1.356 . S
C3027 C3026 1.363 . S
C3027 C3030 1.363 1_455 S
N3028 C3030 1.356 1_455 S
N3028 H3040 0.984 1_455 S
N3028 H3041 0.985 . S
N3029 C3031 1.356 . S
N3029 H3034 0.984 . S
N3029 H3035 0.985 . S
C3030 C3024 1.379 . S
C3030 C3027 1.363 1_655 S
C3030 N3028 1.356 1_655 S
C3031 C3025 1.363 . S
C3031 C3026 1.379 1_655 S
C3031 N3029 1.356 . S
N3032 C3024 1.356 . S
N3032 H3038 0.984 . S
N3032 H3039 0.984 . S
N3033 C3026 1.356 . S
N3033 H3036 0.984 . S
N3033 H3037 0.985 . S
H3034 N3029 0.984 . S
H3035 N3029 0.985 . S
H3036 N3033 0.984 . S
H3037 N3033 0.985 . S
H3038 N3032 0.984 . S
H3039 N3032 0.984 . S
H3040 N3028 0.984 1_655 S
H3041 N3028 0.985 . S
C3042 C3043 1.363 . S
C3042 C3048 1.379 . S
C3042 N3050 1.356 . S
C3043 C3042 1.363 . S
C3043 C3049 1.363 . S
C3044 C3045 1.363 . S
C3044 C3049 1.379 . S
C3044 N3051 1.356 . S
C3045 C3044 1.363 . S
C3045 C3048 1.363 . S
N3046 C3048 1.356 . S
N3046 H3058 0.984 . S
N3046 H3059 0.985 . S
N3047 C3049 1.356 . S
N3047 H3052 0.984 . S
N3047 H3053 0.985 . S
C3048 C3042 1.379 . S
C3048 C3045 1.363 . S
C3048 N3046 1.356 . S
C3049 C3043 1.363 . S
C3049 C3044 1.379 . S
C3049 N3047 1.356 . S
N3050 C3042 1.356 . S
N3050 H3056 0.984 . S
N3050 H3057 0.984 . S
N3051 C3044 1.356 . S
N3051 H3054 0.984 . S
N3051 H3055 0.985 . S
H3052 N3047 0.984 . S
H3053 N3047 0.985 . S
H3054 N3051 0.984 . S
H3055 N3051 0.985 . S
H3056 N3050 0.984 . S
H3057 N3050 0.984 . S
H3058 N3046 0.984 . S
H3059 N3046 0.985 . S
C3060 C3061 1.363 . S
C3060 C3066 1.379 1_655 S
C3060 N3068 1.356 . S
C3061 C3060 1.363 . S
C3061 C3067 1.363 . S
C3062 C3063 1.363 . S
C3062 C3067 1.379 1_455 S
C3062 N3069 1.356 . S
C3063 C3062 1.363 . S
C3063 C3066 1.363 . S
N3064 C3066 1.356 . S
N3064 H3076 0.984 . S
N3064 H3077 0.985 . S
N3065 C3067 1.356 . S
N3065 H3070 0.984 . S
N3065 H3071 0.985 . S
C3066 C3060 1.379 1_455 S
C3066 C3063 1.363 . S
C3066 N3064 1.356 . S
C3067 C3061 1.363 . S
C3067 C3062 1.379 1_655 S
C3067 N3065 1.356 . S
N3068 C3060 1.356 . S
N3068 H3074 0.984 . S
N3068 H3075 0.984 . S
N3069 C3062 1.356 . S
N3069 H3072 0.984 . S
N3069 H3073 0.985 . S
H3070 N3065 0.984 . S
H3071 N3065 0.985 . S
H3072 N3069 0.984 . S
H3073 N3069 0.985 . S
H3074 N3068 0.984 . S
H3075 N3068 0.984 . S
H3076 N3064 0.984 . S
H3077 N3064 0.985 . S
C3078 C3079 1.363 . S
C3078 C3084 1.379 . S
C3078 N3086 1.356 . S
C3079 C3078 1.363 . S
C3079 C3085 1.363 . S
C3080 C3081 1.363 . S
C3080 C3085 1.379 . S
C3080 N3087 1.356 . S
C3081 C3080 1.363 . S
C3081 C3084 1.363 . S
N3082 C3084 1.356 . S
N3082 H3094 0.984 . S
N3082 H3095 0.985 . S
N3083 C3085 1.356 . S
N3083 H3088 0.984 . S
N3083 H3089 0.985 . S
C3084 C3078 1.379 . S
C3084 C3081 1.363 . S
C3084 N3082 1.356 . S
C3085 C3079 1.363 . S
C3085 C3080 1.379 . S
C3085 N3083 1.356 . S
N3086 C3078 1.356 . S
N3086 H3092 0.984 . S
N3086 H3093 0.984 . S
N3087 C3080 1.356 . S
N3087 H3090 0.984 . S
N3087 H3091 0.985 . S
H3088 N3083 0.984 . S
H3089 N3083 0.985 . S
H3090 N3087 0.984 . S
H3091 N3087 0.985 . S
H3092 N3086 0.984 . S
H3093 N3086 0.984 . S
H3094 N3082 0.984 . S
H3095 N3082 0.985 . S
C3096 C3097 1.363 . S
C3096 C3102 1.379 . S
C3096 N3104 1.356 . S
C3097 C3096 1.363 . S
C3097 C3103 1.363 1_545 S
C3098 C3099 1.363 . S
C3098 C3103 1.379 . S
C3098 N3105 1.356 . S
C3099 C3098 1.363 . S
C3099 C3102 1.363 1_565 S
N3100 C3102 1.356 . S
N3100 H3112 0.984 . S
N3100 H3113 0.985 1_545 S
N3101 C3103 1.356 . S
N3101 H3106 0.984 1_565 S
N3101 H3107 0.985 . S
C3102 C3096 1.379 . S
C3102 C3099 1.363 1_545 S
C3102 N3100 1.356 . S
C3103 C3097 1.363 1_565 S
C3103 C3098 1.379 . S
C3103 N3101 1.356 . S
N3104 C3096 1.356 . S
N3104 H3110 0.984 . S
N3104 H3111 0.984 . S
N3105 C3098 1.356 . S
N3105 H3108 0.984 . S
N3105 H3109 0.985 . S
H3106 N3101 0.984 1_545 S
H3107 N3101 0.985 . S
H3108 N3105 0.984 . S
H3109 N3105 0.985 . S
H3110 N3104 0.984 . S
H3111 N3104 0.984 . S
H3112 N3100 0.984 . S
H3113 N3100 0.985 1_565 S
C3114 C3115 1.363 . S
C3114 C3120 1.379 1_655 S
C3114 N3122 1.356 . S
C3115 C3114 1.363 . S
C3115 C3121 1.363 . S
C3116 C3117 1.363 . S
C3116 C3121 1.379 1_455 S
C3116 N3123 1.356 . S
C3117 C3116 1.363 . S
C3117 C3120 1.363 . S
N3118 C3120 1.356 . S
N3118 H3130 0.984 . S
N3118 H3131 0.985 . S
N3119 C3121 1.356 . S
N3119 H3124 0.984 . S
N3119 H3125 0.985 . S
C3120 C3114 1.379 1_455 S
C3120 C3117 1.363 . S
C3120 N3118 1.356 . S
C3121 C3115 1.363 . S
C3121 C3116 1.379 1_655 S
C3121 N3119 1.356 . S
N3122 C3114 1.356 . S
N3122 H3128 0.984 . S
N3122 H3129 0.984 . S
N3123 C3116 1.356 . S
N3123 H3126 0.984 . S
N3123 H3127 0.985 . S
H3124 N3119 0.984 . S
H3125 N3119 0.985 . S
H3126 N3123 0.984 . S
H3127 N3123 0.985 . S
H3128 N3122 0.984 . S
H3129 N3122 0.984 . S
H3130 N3118 0.984 . S
H3131 N3118 0.985 . S
C3132 C3133 1.363 . S
C3132 C3138 1.379 . S
C3132 N3140 1.356 . S
C3133 C3132 1.363 . S
C3133 C3139 1.363 . S
C3134 C3135 1.363 . S
C3134 C3139 1.379 . S
C3134 N3141 1.356 . S
C3135 C3134 1.363 . S
C3135 C3138 1.363 . S
N3136 C3138 1.356 . S
N3136 H3148 0.984 . S
N3136 H3149 0.985 . S
N3137 C3139 1.356 . S
N3137 H3142 0.984 . S
N3137 H3143 1.002 . S
C3138 C3132 1.379 . S
C3138 C3135 1.363 . S
C3138 N3136 1.356 . S
C3139 C3133 1.363 . S
C3139 C3134 1.379 . S
C3139 N3137 1.356 . S
N3140 C3132 1.356 . S
N3140 H3146 0.984 . S
N3140 H3147 0.984 . S
N3141 C3134 1.356 . S
N3141 H3144 0.984 . S
N3141 H3145 0.985 . S
H3142 N3137 0.984 . S
H3143 N3137 1.002 . S
H3144 N3141 0.984 . S
H3145 N3141 0.985 . S
H3146 N3140 0.984 . S
H3147 N3140 0.984 . S
H3148 N3136 0.984 . S
H3149 N3136 0.985 . S
C3150 C3151 1.363 . S
C3150 C3156 1.379 . S
C3150 N3158 1.356 . S
C3151 C3150 1.363 . S
C3151 C3157 1.363 1_545 S
C3152 C3153 1.363 . S
C3152 C3157 1.379 . S
C3152 N3159 1.356 . S
C3153 C3152 1.363 . S
C3153 C3156 1.363 1_565 S
N3154 C3156 1.356 . S
N3154 H3166 0.984 . S
N3154 H3167 0.985 1_545 S
N3155 C3157 1.356 . S
N3155 H3160 0.984 1_565 S
N3155 H3161 0.985 . S
C3156 C3150 1.379 . S
C3156 C3153 1.363 1_545 S
C3156 N3154 1.356 . S
C3157 C3151 1.363 1_565 S
C3157 C3152 1.379 . S
C3157 N3155 1.356 . S
N3158 C3150 1.356 . S
N3158 H3164 0.984 . S
N3158 H3165 0.984 . S
N3159 C3152 1.356 . S
N3159 H3162 0.984 . S
N3159 H3163 0.985 . S
H3160 N3155 0.984 1_545 S
H3161 N3155 0.985 . S
H3162 N3159 0.984 . S
H3163 N3159 0.985 . S
H3164 N3158 0.984 . S
H3165 N3158 0.984 . S
H3166 N3154 0.984 . S
H3167 N3154 0.985 1_565 S
C3168 C3169 1.363 . S
C3168 C3174 1.379 . S
C3168 N3176 1.356 . S
C3169 C3168 1.363 . S
C3169 C3175 1.363 . S
C3170 C3171 1.363 . S
C3170 C3175 1.379 . S
C3170 N3177 1.356 . S
C3171 C3170 1.363 . S
C3171 C3174 1.363 . S
N3172 C3174 1.356 . S
N3172 H3184 0.984 . S
N3172 H3185 0.985 . S
N3173 C3175 1.356 . S
N3173 H3178 0.984 . S
N3173 H3179 0.985 . S
C3174 C3168 1.379 . S
C3174 C3171 1.363 . S
C3174 N3172 1.356 . S
C3175 C3169 1.363 . S
C3175 C3170 1.379 . S
C3175 N3173 1.356 . S
N3176 C3168 1.356 . S
N3176 H3182 0.984 . S
N3176 H3183 0.984 . S
N3177 C3170 1.356 . S
N3177 H3180 0.984 . S
N3177 H3181 0.985 . S
H3178 N3173 0.984 . S
H3179 N3173 0.985 . S
H3180 N3177 0.984 . S
H3181 N3177 0.985 . S
H3182 N3176 0.984 . S
H3183 N3176 0.984 . S
H3184 N3172 0.984 . S
H3185 N3172 0.985 . S
C3186 C3187 1.363 . S
C3186 C3192 1.379 . S
C3186 N3194 1.356 . S
C3187 C3186 1.363 . S
C3187 C3193 1.363 . S
C3188 C3189 1.363 . S
C3188 C3193 1.379 . S
C3188 N3195 1.356 . S
C3189 C3188 1.363 . S
C3189 C3192 1.363 . S
N3190 C3192 1.356 . S
N3190 H3202 0.984 . S
N3190 H3203 0.985 . S
N3191 C3193 1.356 . S
N3191 H3196 0.984 . S
N3191 H3197 0.985 . S
C3192 C3186 1.379 . S
C3192 C3189 1.363 . S
C3192 N3190 1.356 . S
C3193 C3187 1.363 . S
C3193 C3188 1.379 . S
C3193 N3191 1.356 . S
N3194 C3186 1.356 . S
N3194 H3200 0.984 . S
N3194 H3201 0.984 . S
N3195 C3188 1.356 . S
N3195 H3198 0.984 . S
N3195 H3199 0.985 . S
H3196 N3191 0.984 . S
H3197 N3191 0.985 . S
H3198 N3195 0.984 . S
H3199 N3195 0.985 . S
H3200 N3194 0.984 . S
H3201 N3194 0.984 . S
H3202 N3190 0.984 . S
H3203 N3190 0.985 . S
C3204 C3205 1.363 . S
C3204 C3210 1.379 . S
C3204 N3212 1.356 . S
C3205 C3204 1.363 . S
C3205 C3211 1.363 . S
C3206 C3207 1.363 . S
C3206 C3211 1.379 . S
C3206 N3213 1.356 . S
C3207 C3206 1.363 . S
C3207 C3210 1.363 . S
N3208 C3210 1.356 . S
N3208 H3220 0.984 . S
N3208 H3221 0.985 . S
N3209 C3211 1.356 . S
N3209 H3214 0.984 . S
N3209 H3215 0.985 . S
C3210 C3204 1.379 . S
C3210 C3207 1.363 . S
C3210 N3208 1.356 . S
C3211 C3205 1.363 . S
C3211 C3206 1.379 . S
C3211 N3209 1.356 . S
N3212 C3204 1.356 . S
N3212 H3218 0.984 . S
N3212 H3219 0.984 . S
N3213 C3206 1.356 . S
N3213 H3216 0.984 . S
N3213 H3217 0.985 . S
H3214 N3209 0.984 . S
H3215 N3209 0.985 . S
H3216 N3213 0.984 . S
H3217 N3213 0.985 . S
H3218 N3212 0.984 . S
H3219 N3212 0.984 . S
H3220 N3208 0.984 . S
H3221 N3208 0.985 . S
C3222 C3223 1.363 . S
C3222 C3228 1.379 . S
C3222 N3230 1.356 . S
C3223 C3222 1.363 . S
C3223 C3229 1.363 . S
C3224 C3225 1.363 . S
C3224 C3229 1.379 . S
C3224 N3231 1.356 . S
C3225 C3224 1.363 . S
C3225 C3228 1.363 . S
N3226 C3228 1.356 . S
N3226 H3238 0.984 . S
N3226 H3239 0.985 . S
N3227 C3229 1.356 . S
N3227 H3232 0.984 . S
N3227 H3233 0.985 . S
C3228 C3222 1.379 . S
C3228 C3225 1.363 . S
C3228 N3226 1.356 . S
C3229 C3223 1.363 . S
C3229 C3224 1.379 . S
C3229 N3227 1.356 . S
N3230 C3222 1.356 . S
N3230 H3236 0.984 . S
N3230 H3237 0.984 . S
N3231 C3224 1.356 . S
N3231 H3234 0.984 . S
N3231 H3235 0.985 . S
H3232 N3227 0.984 . S
H3233 N3227 0.985 . S
H3234 N3231 0.984 . S
H3235 N3231 0.985 . S
H3236 N3230 0.984 . S
H3237 N3230 0.984 . S
H3238 N3226 0.984 . S
H3239 N3226 0.985 . S
C3240 C3241 1.363 . S
C3240 C3246 1.379 . S
C3240 N3248 1.356 . S
C3241 C3240 1.363 . S
C3241 C3247 1.363 . S
C3242 C3243 1.363 . S
C3242 C3247 1.379 . S
C3242 N3249 1.356 . S
C3243 C3242 1.363 . S
C3243 C3246 1.363 . S
N3244 C3246 1.356 . S
N3244 H3256 0.984 . S
N3244 H3257 0.985 . S
N3245 C3247 1.356 . S
N3245 H3250 0.984 . S
N3245 H3251 0.985 . S
C3246 C3240 1.379 . S
C3246 C3243 1.363 . S
C3246 N3244 1.356 . S
C3247 C3241 1.363 . S
C3247 C3242 1.379 . S
C3247 N3245 1.356 . S
N3248 C3240 1.356 . S
N3248 H3254 0.984 . S
N3248 H3255 0.984 . S
N3249 C3242 1.356 . S
N3249 H3252 0.984 . S
N3249 H3253 0.985 . S
H3250 N3245 0.984 . S
H3251 N3245 0.985 . S
H3252 N3249 0.984 . S
H3253 N3249 0.985 . S
H3254 N3248 0.984 . S
H3255 N3248 0.984 . S
H3256 N3244 0.984 . S
H3257 N3244 0.985 . S
C3258 C3259 1.363 . S
C3258 C3264 1.379 . S
C3258 N3266 1.356 . S
C3259 C3258 1.363 . S
C3259 C3265 1.363 . S
C3260 C3261 1.363 . S
C3260 C3265 1.379 . S
C3260 N3267 1.356 . S
C3261 C3260 1.363 . S
C3261 C3264 1.363 . S
N3262 C3264 1.356 . S
N3262 H3274 0.984 . S
N3262 H3275 0.985 . S
N3263 C3265 1.356 . S
N3263 H3268 0.984 . S
N3263 H3269 0.985 . S
C3264 C3258 1.379 . S
C3264 C3261 1.363 . S
C3264 N3262 1.356 . S
C3265 C3259 1.363 . S
C3265 C3260 1.379 . S
C3265 N3263 1.356 . S
N3266 C3258 1.356 . S
N3266 H3272 0.984 . S
N3266 H3273 0.984 . S
N3267 C3260 1.356 . S
N3267 H3270 0.984 . S
N3267 H3271 0.985 . S
H3268 N3263 0.984 . S
H3269 N3263 0.985 . S
H3270 N3267 0.984 . S
H3271 N3267 0.985 . S
H3272 N3266 0.984 . S
H3273 N3266 0.984 . S
H3274 N3262 0.984 . S
H3275 N3262 0.985 . S
C3276 C3277 1.363 . S
C3276 C3282 1.379 . S
C3276 N3284 1.356 . S
C3277 C3276 1.363 . S
C3277 C3283 1.363 . S
C3278 C3279 1.363 . S
C3278 C3283 1.379 . S
C3278 N3285 1.356 . S
C3279 C3278 1.363 . S
C3279 C3282 1.363 . S
N3280 C3282 1.356 . S
N3280 H3292 0.984 . S
N3280 H3293 0.985 . S
N3281 C3283 1.356 . S
N3281 H3286 0.984 . S
N3281 H3287 0.985 . S
C3282 C3276 1.379 . S
C3282 C3279 1.363 . S
C3282 N3280 1.356 . S
C3283 C3277 1.363 . S
C3283 C3278 1.379 . S
C3283 N3281 1.356 . S
N3284 C3276 1.356 . S
N3284 H3290 0.984 . S
N3284 H3291 0.984 . S
N3285 C3278 1.356 . S
N3285 H3288 0.984 . S
N3285 H3289 0.985 . S
H3286 N3281 0.984 . S
H3287 N3281 0.985 . S
H3288 N3285 0.984 . S
H3289 N3285 0.985 . S
H3290 N3284 0.984 . S
H3291 N3284 0.984 . S
H3292 N3280 0.984 . S
H3293 N3280 0.985 . S
C3294 C3295 1.363 . S
C3294 C3300 1.379 . S
C3294 N3302 1.356 . S
C3295 C3294 1.363 . S
C3295 C3301 1.363 . S
C3296 C3297 1.363 . S
C3296 C3301 1.379 . S
C3296 N3303 1.356 . S
C3297 C3296 1.363 . S
C3297 C3300 1.363 . S
N3298 C3300 1.356 . S
N3298 H3310 0.984 . S
N3298 H3311 0.985 . S
N3299 C3301 1.356 . S
N3299 H3304 0.984 . S
N3299 H3305 0.985 . S
C3300 C3294 1.379 . S
C3300 C3297 1.363 . S
C3300 N3298 1.356 . S
C3301 C3295 1.363 . S
C3301 C3296 1.379 . S
C3301 N3299 1.356 . S
N3302 C3294 1.356 . S
N3302 H3308 0.984 . S
N3302 H3309 0.984 . S
N3303 C3296 1.356 . S
N3303 H3306 0.984 . S
N3303 H3307 0.985 . S
H3304 N3299 0.984 . S
H3305 N3299 0.985 . S
H3306 N3303 0.984 . S
H3307 N3303 0.985 . S
H3308 N3302 0.984 . S
H3309 N3302 0.984 . S
H3310 N3298 0.984 . S
H3311 N3298 0.985 . S
C3312 C3313 1.363 . S
C3312 C3318 1.379 . S
C3312 N3320 1.356 . S
C3313 C3312 1.363 . S
C3313 C3319 1.363 . S
C3314 C3315 1.363 . S
C3314 C3319 1.379 . S
C3314 N3321 1.356 . S
C3315 C3314 1.363 . S
C3315 C3318 1.363 . S
N3316 C3318 1.356 . S
N3316 H3328 0.984 . S
N3316 H3329 0.985 . S
N3317 C3319 1.356 . S
N3317 H3322 0.984 . S
N3317 H3323 0.985 . S
C3318 C3312 1.379 . S
C3318 C3315 1.363 . S
C3318 N3316 1.356 . S
C3319 C3313 1.363 . S
C3319 C3314 1.379 . S
C3319 N3317 1.356 . S
N3320 C3312 1.356 . S
N3320 H3326 0.984 . S
N3320 H3327 0.984 . S
N3321 C3314 1.356 . S
N3321 H3324 0.984 . S
N3321 H3325 0.985 . S
H3322 N3317 0.984 . S
H3323 N3317 0.985 . S
H3324 N3321 0.984 . S
H3325 N3321 0.985 . S
H3326 N3320 0.984 . S
H3327 N3320 0.984 . S
H3328 N3316 0.984 . S
H3329 N3316 0.985 . S
C3330 C3331 1.363 . S
C3330 C3336 1.379 . S
C3330 N3338 1.356 . S
C3331 C3330 1.363 . S
C3331 C3337 1.363 . S
C3332 C3333 1.363 . S
C3332 C3337 1.379 . S
C3332 N3339 1.356 . S
C3333 C3332 1.363 . S
C3333 C3336 1.363 . S
N3334 C3336 1.356 . S
N3334 H3346 0.984 . S
N3334 H3347 0.985 . S
N3335 C3337 1.356 . S
N3335 H3340 0.984 . S
N3335 H3341 0.985 . S
C3336 C3330 1.379 . S
C3336 C3333 1.363 . S
C3336 N3334 1.356 . S
C3337 C3331 1.363 . S
C3337 C3332 1.379 . S
C3337 N3335 1.356 . S
N3338 C3330 1.356 . S
N3338 H3344 0.984 . S
N3338 H3345 0.984 . S
N3339 C3332 1.356 . S
N3339 H3342 0.984 . S
N3339 H3343 0.985 . S
H3340 N3335 0.984 . S
H3341 N3335 0.985 . S
H3342 N3339 0.984 . S
H3343 N3339 0.985 . S
H3344 N3338 0.984 . S
H3345 N3338 0.984 . S
H3346 N3334 0.984 . S
H3347 N3334 0.985 . S
C3348 C3349 1.363 . S
C3348 C3354 1.379 . S
C3348 N3356 1.356 . S
C3349 C3348 1.363 . S
C3349 C3355 1.363 . S
C3350 C3351 1.363 . S
C3350 C3355 1.379 . S
C3350 N3357 1.356 . S
C3351 C3350 1.363 . S
C3351 C3354 1.363 . S
N3352 C3354 1.356 . S
N3352 H3364 0.984 . S
N3352 H3365 0.985 . S
N3353 C3355 1.356 . S
N3353 H3358 0.984 . S
N3353 H3359 0.985 . S
C3354 C3348 1.379 . S
C3354 C3351 1.363 . S
C3354 N3352 1.356 . S
C3355 C3349 1.363 . S
C3355 C3350 1.379 . S
C3355 N3353 1.356 . S
N3356 C3348 1.356 . S
N3356 H3362 0.984 . S
N3356 H3363 0.984 . S
N3357 C3350 1.356 . S
N3357 H3360 0.984 . S
N3357 H3361 0.985 . S
H3358 N3353 0.984 . S
H3359 N3353 0.985 . S
H3360 N3357 0.984 . S
H3361 N3357 0.985 . S
H3362 N3356 0.984 . S
H3363 N3356 0.984 . S
H3364 N3352 0.984 . S
H3365 N3352 0.985 . S
C3366 C3367 1.363 . S
C3366 C3372 1.379 . S
C3366 N3374 1.356 . S
C3367 C3366 1.363 . S
C3367 C3373 1.363 . S
C3368 C3369 1.363 . S
C3368 C3373 1.379 . S
C3368 N3375 1.356 . S
C3369 C3368 1.363 . S
C3369 C3372 1.363 . S
N3370 C3372 1.356 . S
N3370 H3382 0.984 . S
N3370 H3383 0.985 . S
N3371 C3373 1.356 . S
N3371 H3376 0.984 . S
N3371 H3377 0.985 . S
C3372 C3366 1.379 . S
C3372 C3369 1.363 . S
C3372 N3370 1.356 . S
C3373 C3367 1.363 . S
C3373 C3368 1.379 . S
C3373 N3371 1.356 . S
N3374 C3366 1.356 . S
N3374 H3380 0.984 . S
N3374 H3381 0.984 . S
N3375 C3368 1.356 . S
N3375 H3378 0.984 . S
N3375 H3379 0.985 . S
H3376 N3371 0.984 . S
H3377 N3371 0.985 . S
H3378 N3375 0.984 . S
H3379 N3375 0.985 . S
H3380 N3374 0.984 . S
H3381 N3374 0.984 . S
H3382 N3370 0.984 . S
H3383 N3370 0.985 . S
C1441 C18 1.683 . S
C1443 C89 1.792 1_545 S
C1459 C9 1.793 1_655 S
C1461 C58 1.684 1_545 S
C1477 C98 1.684 1_655 S
C1479 C49 1.793 . S
C1495 C138 1.749 . S
C1497 C169 1.857 1_455 S
C1513 C209 1.858 . S
C1515 C178 1.749 1_565 S
C1531 C218 1.750 1_455 S
C1533 C129 1.859 1_565 S
C1549 C248 1.683 . S
C1551 C339 1.792 1_565 S
C1567 C288 1.684 1_565 S
C1569 C259 1.793 1_455 S
C1585 C328 1.684 1_455 S
C1587 C299 1.793 . S
C1603 C368 1.749 . S
C1605 C419 1.857 1_655 S
C1621 C459 1.858 . S
C1623 C408 1.749 1_545 S
C1639 C379 1.859 1_545 S
C1641 C448 1.750 1_655 S
C1657 C569 1.849 . S
C1659 C498 1.738 . S
C1675 C538 1.738 . S
C1677 C489 1.849 . S
C1693 C529 1.849 . S
C1695 C578 1.739 . S
C1711 C618 1.766 . S
C1713 C649 1.874 . S
C1729 C689 1.873 . S
C1731 C658 1.765 . S
C1747 C609 1.874 . S
C1749 C698 1.766 . S
C1765 C728 1.711 . S
C1767 C819 1.820 . S
C1783 C768 1.712 . S
C1785 C739 1.821 . S
C1801 C779 1.820 . S
C1803 C808 1.711 . S
C1819 C899 1.722 . S
C1821 C848 1.631 1_554 S
C1837 C888 1.631 1_554 S
C1839 C939 1.722 . S
C1855 C859 1.721 . S
C1857 C928 1.630 1_554 S
C1873 C978 1.711 . S
C1875 C1049 1.820 . S
C1891 C1018 1.712 . S
C1893 C969 1.821 . S
C1909 C1058 1.711 . S
C1911 C1009 1.820 . S
C1927 C1098 1.631 1_556 S
C1929 C1129 1.722 . S
C1945 C1138 1.631 1_556 S
C1947 C1169 1.722 . S
C1963 C1178 1.630 1_556 S
C1965 C1089 1.721 . S
C1981 C1208 1.738 . S
C1983 C1299 1.849 . S
C1999 C1248 1.738 . S
C2001 C1219 1.849 . S
C2017 C1259 1.849 . S
C2019 C1288 1.739 . S
C2035 C1328 1.766 . S
C2037 C1379 1.874 . S
C2053 C1368 1.765 . S
C2055 C1419 1.873 . S
C2071 C1339 1.874 . S
C2073 C1408 1.766 . S
C2089 C19 1.849 . S
C2091 C818 1.829 . S
C2107 C738 1.828 1_565 S
C2109 C59 1.849 . S
C2125 C99 1.849 . S
C2127 C778 1.828 1_455 S
C2143 C139 1.771 . S
C2145 C1378 1.741 . S
C2161 C1418 1.741 1_545 S
C2163 C179 1.770 . S
C2179 C219 1.770 . S
C2181 C1338 1.741 1_655 S
C2197 C1048 1.829 . S
C2199 C249 1.849 . S
C2215 C289 1.849 . S
C2217 C968 1.828 1_545 S
C2233 C329 1.849 . S
C2235 C1008 1.828 1_655 S
C2251 C648 1.741 . S
C2253 C369 1.771 . S
C2269 C688 1.741 1_565 S
C2271 C409 1.770 . S
C2287 C608 1.741 1_455 S
C2289 C449 1.770 . S
C2305 C499 1.810 . S
C2307 C1298 1.785 . S
C2323 C539 1.810 . S
C2325 C1218 1.784 . S
C2341 C1258 1.785 . S
C2343 C579 1.810 . S
C2359 C418 1.775 . S
C2361 C619 1.803 1_455 S
C2377 C458 1.775 . S
C2379 C659 1.803 . S
C2395 C378 1.776 . S
C2397 C699 1.803 1_565 S
C2413 C88 1.824 . S
C2415 C729 1.843 1_565 S
C2431 C769 1.842 1_455 S
C2433 C8 1.824 . S
C2449 C809 1.843 . S
C2451 C48 1.824 . S
C2467 C1128 1.795 1_554 S
C2469 C849 1.837 . S
C2485 C1168 1.795 1_554 S
C2487 C889 1.836 . S
C2503 C929 1.835 . S
C2505 C1088 1.791 . S
C2521 C338 1.824 . S
C2523 C979 1.843 1_545 S
C2539 C258 1.824 . S
C2541 C1019 1.842 1_655 S
C2557 C298 1.824 . S
C2559 C1059 1.843 . S
C2575 C1099 1.837 . S
C2577 C898 1.792 . S
C2593 C938 1.795 1_556 S
C2595 C1139 1.836 . S
C2611 C1179 1.835 . S
C2613 C858 1.791 . S
C2629 C1209 1.810 . S
C2631 C568 1.785 . S
C2647 C1249 1.810 . S
C2649 C488 1.784 . S
C2665 C1289 1.810 . S
C2667 C528 1.785 . S
C2683 C1329 1.803 1_655 S
C2685 C168 1.775 . S
C2701 C208 1.775 . S
C2703 C1369 1.803 . S
C2719 C128 1.776 . S
C2721 C1409 1.803 1_545 S
C2737 C1175 2.230 . S
C2739 C15 2.224 . S
C2755 C1095 2.230 . S
C2757 C55 2.225 . S
C2773 C95 2.238 . S
C2775 C1135 2.216 . S
C2791 C535 2.394 . S
C2793 C135 2.392 . S
C2809 C175 2.392 . S
C2811 C575 2.394 . S
C2827 C215 2.392 . S
C2829 C495 2.394 . S
C2845 C245 2.238 . S
C2847 C925 2.216 . S
C2863 C285 2.238 . S
C2865 C845 2.217 . S
C2881 C325 2.238 . S
C2883 C885 2.216 . S
C2899 C1245 2.394 . S
C2901 C365 2.392 . S
C2917 C1285 2.394 . S
C2919 C405 2.392 . S
C2935 C1205 2.394 . S
C2937 C445 2.392 . S
C2953 C615 2.423 . S
C2955 C1015 2.427 . S
C2971 C655 2.424 . S
C2973 C1055 2.428 . S
C2989 C695 2.423 . S
C2991 C975 2.427 . S
C3007 C725 2.427 . S
C3009 C1405 2.423 . S
C3025 C1325 2.423 . S
C3027 C765 2.427 . S
C3043 C805 2.428 . S
C3045 C1365 2.424 . S
C3061 C165 1.258 . S
C3063 C5 1.259 . S
C3079 C205 1.258 . S
C3081 C45 1.260 . S
C3097 C125 1.258 . S
C3099 C85 1.259 . S
C3115 C255 1.259 . S
C3117 C415 1.258 . S
C3133 C455 1.258 . S
C3135 C295 1.260 . S
C3151 C335 1.259 . S
C3153 C375 1.258 . S
C3169 C645 1.321 . S
C3171 C485 1.322 . S
C3187 C685 1.320 . S
C3189 C525 1.321 . S
C3205 C605 1.320 . S
C3207 C565 1.321 . S
C3223 C895 1.529 . S
C3225 C735 1.562 . S
C3241 C775 1.550 . S
C3243 C935 1.542 . S
C3259 C815 1.550 . S
C3261 C855 1.543 . S
C3277 C965 1.549 . S
C3279 C1125 1.542 . S
C3295 C1165 1.529 . S
C3297 C1005 1.563 . S
C3313 C1045 1.550 . S
C3315 C1085 1.543 . S
C3331 C1215 1.322 . S
C3333 C1375 1.321 . S
C3349 C1415 1.320 . S
C3351 C1255 1.321 . S
C3367 C1295 1.321 . S
C3369 C1335 1.320 . S
