# Generated by pormake.
# Topology wlm, (5)-cn, num edge types: 1
# Building blocks:
#     Node 0, Type 0, BuildingBlock: BEQFEK_clean_sbu_0, # of connection points: 5
#     Node 1, Type 0, BuildingBlock: BEQFEK_clean_sbu_0, # of connection points: 5
#     Node 2, Type 0, BuildingBlock: BEQFEK_clean_sbu_0, # of connection points: 5
#     Node 3, Type 0, BuildingBlock: BEQFEK_clean_sbu_0, # of connection points: 5
#     Node 4, Type 0, BuildingBlock: BEQFEK_clean_sbu_0, # of connection points: 5
#     Node 5, Type 0, BuildingBlock: BEQFEK_clean_sbu_0, # of connection points: 5
#     Node 6, Type 0, BuildingBlock: BEQFEK_clean_sbu_0, # of connection points: 5
#     Node 7, Type 0, BuildingBlock: BEQFEK_clean_sbu_0, # of connection points: 5
#     Node 8, Type 0, BuildingBlock: BEQFEK_clean_sbu_0, # of connection points: 5
#     Node 9, Type 0, BuildingBlock: BEQFEK_clean_sbu_0, # of connection points: 5
#     Node 10, Type 0, BuildingBlock: BEQFEK_clean_sbu_0, # of connection points: 5
#     Node 11, Type 0, BuildingBlock: BEQFEK_clean_sbu_0, # of connection points: 5
#     Node 12, Type 0, BuildingBlock: BEQFEK_clean_sbu_0, # of connection points: 5
#     Node 13, Type 0, BuildingBlock: BEQFEK_clean_sbu_0, # of connection points: 5
#     Node 14, Type 0, BuildingBlock: BEQFEK_clean_sbu_0, # of connection points: 5
#     Node 15, Type 0, BuildingBlock: BEQFEK_clean_sbu_0, # of connection points: 5
#     Node 16, Type 0, BuildingBlock: BEQFEK_clean_sbu_0, # of connection points: 5
#     Node 17, Type 0, BuildingBlock: BEQFEK_clean_sbu_0, # of connection points: 5
#     Node 18, Type 0, BuildingBlock: BEQFEK_clean_sbu_0, # of connection points: 5
#     Node 19, Type 0, BuildingBlock: BEQFEK_clean_sbu_0, # of connection points: 5
#     Node 20, Type 0, BuildingBlock: BEQFEK_clean_sbu_0, # of connection points: 5
#     Node 21, Type 0, BuildingBlock: BEQFEK_clean_sbu_0, # of connection points: 5
#     Node 22, Type 0, BuildingBlock: BEQFEK_clean_sbu_0, # of connection points: 5
#     Node 23, Type 0, BuildingBlock: BEQFEK_clean_sbu_0, # of connection points: 5
#     Node 24, Type 0, BuildingBlock: BEQFEK_clean_sbu_0, # of connection points: 5
#     Node 25, Type 0, BuildingBlock: BEQFEK_clean_sbu_0, # of connection points: 5
#     Node 26, Type 0, BuildingBlock: BEQFEK_clean_sbu_0, # of connection points: 5
#     Node 27, Type 0, BuildingBlock: BEQFEK_clean_sbu_0, # of connection points: 5
#     Node 28, Type 0, BuildingBlock: BEQFEK_clean_sbu_0, # of connection points: 5
#     Node 29, Type 0, BuildingBlock: BEQFEK_clean_sbu_0, # of connection points: 5
#     Node 30, Type 0, BuildingBlock: BEQFEK_clean_sbu_0, # of connection points: 5
#     Node 31, Type 0, BuildingBlock: BEQFEK_clean_sbu_0, # of connection points: 5
#     Node 32, Type 0, BuildingBlock: BEQFEK_clean_sbu_0, # of connection points: 5
#     Node 33, Type 0, BuildingBlock: BEQFEK_clean_sbu_0, # of connection points: 5
#     Node 34, Type 0, BuildingBlock: BEQFEK_clean_sbu_0, # of connection points: 5
#     Node 35, Type 0, BuildingBlock: BEQFEK_clean_sbu_0, # of connection points: 5
#     Edge 36, Type (0, 0), BuildingBlock: UVAHIK_clean_linker_0, # of connection points: 2
#     Edge 37, Type (0, 0), BuildingBlock: UVAHIK_clean_linker_0, # of connection points: 2
#     Edge 38, Type (0, 0), BuildingBlock: UVAHIK_clean_linker_0, # of connection points: 2
#     Edge 39, Type (0, 0), BuildingBlock: UVAHIK_clean_linker_0, # of connection points: 2
#     Edge 40, Type (0, 0), BuildingBlock: UVAHIK_clean_linker_0, # of connection points: 2
#     Edge 41, Type (0, 0), BuildingBlock: UVAHIK_clean_linker_0, # of connection points: 2
#     Edge 42, Type (0, 0), BuildingBlock: UVAHIK_clean_linker_0, # of connection points: 2
#     Edge 43, Type (0, 0), BuildingBlock: UVAHIK_clean_linker_0, # of connection points: 2
#     Edge 44, Type (0, 0), BuildingBlock: UVAHIK_clean_linker_0, # of connection points: 2
#     Edge 45, Type (0, 0), BuildingBlock: UVAHIK_clean_linker_0, # of connection points: 2
#     Edge 46, Type (0, 0), BuildingBlock: UVAHIK_clean_linker_0, # of connection points: 2
#     Edge 47, Type (0, 0), BuildingBlock: UVAHIK_clean_linker_0, # of connection points: 2
#     Edge 48, Type (0, 0), BuildingBlock: UVAHIK_clean_linker_0, # of connection points: 2
#     Edge 49, Type (0, 0), BuildingBlock: UVAHIK_clean_linker_0, # of connection points: 2
#     Edge 50, Type (0, 0), BuildingBlock: UVAHIK_clean_linker_0, # of connection points: 2
#     Edge 51, Type (0, 0), BuildingBlock: UVAHIK_clean_linker_0, # of connection points: 2
#     Edge 52, Type (0, 0), BuildingBlock: UVAHIK_clean_linker_0, # of connection points: 2
#     Edge 53, Type (0, 0), BuildingBlock: UVAHIK_clean_linker_0, # of connection points: 2
#     Edge 54, Type (0, 0), BuildingBlock: UVAHIK_clean_linker_0, # of connection points: 2
#     Edge 55, Type (0, 0), BuildingBlock: UVAHIK_clean_linker_0, # of connection points: 2
#     Edge 56, Type (0, 0), BuildingBlock: UVAHIK_clean_linker_0, # of connection points: 2
#     Edge 57, Type (0, 0), BuildingBlock: UVAHIK_clean_linker_0, # of connection points: 2
#     Edge 58, Type (0, 0), BuildingBlock: UVAHIK_clean_linker_0, # of connection points: 2
#     Edge 59, Type (0, 0), BuildingBlock: UVAHIK_clean_linker_0, # of connection points: 2
#     Edge 60, Type (0, 0), BuildingBlock: UVAHIK_clean_linker_0, # of connection points: 2
#     Edge 61, Type (0, 0), BuildingBlock: UVAHIK_clean_linker_0, # of connection points: 2
#     Edge 62, Type (0, 0), BuildingBlock: UVAHIK_clean_linker_0, # of connection points: 2
#     Edge 63, Type (0, 0), BuildingBlock: UVAHIK_clean_linker_0, # of connection points: 2
#     Edge 64, Type (0, 0), BuildingBlock: UVAHIK_clean_linker_0, # of connection points: 2
#     Edge 65, Type (0, 0), BuildingBlock: UVAHIK_clean_linker_0, # of connection points: 2
#     Edge 66, Type (0, 0), BuildingBlock: UVAHIK_clean_linker_0, # of connection points: 2
#     Edge 67, Type (0, 0), BuildingBlock: UVAHIK_clean_linker_0, # of connection points: 2
#     Edge 68, Type (0, 0), BuildingBlock: UVAHIK_clean_linker_0, # of connection points: 2
#     Edge 69, Type (0, 0), BuildingBlock: UVAHIK_clean_linker_0, # of connection points: 2
#     Edge 70, Type (0, 0), BuildingBlock: UVAHIK_clean_linker_0, # of connection points: 2
#     Edge 71, Type (0, 0), BuildingBlock: UVAHIK_clean_linker_0, # of connection points: 2
#     Edge 72, Type (0, 0), BuildingBlock: UVAHIK_clean_linker_0, # of connection points: 2
#     Edge 73, Type (0, 0), BuildingBlock: UVAHIK_clean_linker_0, # of connection points: 2
#     Edge 74, Type (0, 0), BuildingBlock: UVAHIK_clean_linker_0, # of connection points: 2
#     Edge 75, Type (0, 0), BuildingBlock: UVAHIK_clean_linker_0, # of connection points: 2
#     Edge 76, Type (0, 0), BuildingBlock: UVAHIK_clean_linker_0, # of connection points: 2
#     Edge 77, Type (0, 0), BuildingBlock: UVAHIK_clean_linker_0, # of connection points: 2
#     Edge 78, Type (0, 0), BuildingBlock: UVAHIK_clean_linker_0, # of connection points: 2
#     Edge 79, Type (0, 0), BuildingBlock: UVAHIK_clean_linker_0, # of connection points: 2
#     Edge 80, Type (0, 0), BuildingBlock: UVAHIK_clean_linker_0, # of connection points: 2
#     Edge 81, Type (0, 0), BuildingBlock: UVAHIK_clean_linker_0, # of connection points: 2
#     Edge 82, Type (0, 0), BuildingBlock: UVAHIK_clean_linker_0, # of connection points: 2
#     Edge 83, Type (0, 0), BuildingBlock: UVAHIK_clean_linker_0, # of connection points: 2
#     Edge 84, Type (0, 0), BuildingBlock: UVAHIK_clean_linker_0, # of connection points: 2
#     Edge 85, Type (0, 0), BuildingBlock: UVAHIK_clean_linker_0, # of connection points: 2
#     Edge 86, Type (0, 0), BuildingBlock: UVAHIK_clean_linker_0, # of connection points: 2
#     Edge 87, Type (0, 0), BuildingBlock: UVAHIK_clean_linker_0, # of connection points: 2
#     Edge 88, Type (0, 0), BuildingBlock: UVAHIK_clean_linker_0, # of connection points: 2
#     Edge 89, Type (0, 0), BuildingBlock: UVAHIK_clean_linker_0, # of connection points: 2
#     Edge 90, Type (0, 0), BuildingBlock: UVAHIK_clean_linker_0, # of connection points: 2
#     Edge 91, Type (0, 0), BuildingBlock: UVAHIK_clean_linker_0, # of connection points: 2
#     Edge 92, Type (0, 0), BuildingBlock: UVAHIK_clean_linker_0, # of connection points: 2
#     Edge 93, Type (0, 0), BuildingBlock: UVAHIK_clean_linker_0, # of connection points: 2
#     Edge 94, Type (0, 0), BuildingBlock: UVAHIK_clean_linker_0, # of connection points: 2
#     Edge 95, Type (0, 0), BuildingBlock: UVAHIK_clean_linker_0, # of connection points: 2
#     Edge 96, Type (0, 0), BuildingBlock: UVAHIK_clean_linker_0, # of connection points: 2
#     Edge 97, Type (0, 0), BuildingBlock: UVAHIK_clean_linker_0, # of connection points: 2
#     Edge 98, Type (0, 0), BuildingBlock: UVAHIK_clean_linker_0, # of connection points: 2
#     Edge 99, Type (0, 0), BuildingBlock: UVAHIK_clean_linker_0, # of connection points: 2
#     Edge 100, Type (0, 0), BuildingBlock: UVAHIK_clean_linker_0, # of connection points: 2
#     Edge 101, Type (0, 0), BuildingBlock: UVAHIK_clean_linker_0, # of connection points: 2
#     Edge 102, Type (0, 0), BuildingBlock: UVAHIK_clean_linker_0, # of connection points: 2
#     Edge 103, Type (0, 0), BuildingBlock: UVAHIK_clean_linker_0, # of connection points: 2
#     Edge 104, Type (0, 0), BuildingBlock: UVAHIK_clean_linker_0, # of connection points: 2
#     Edge 105, Type (0, 0), BuildingBlock: UVAHIK_clean_linker_0, # of connection points: 2
#     Edge 106, Type (0, 0), BuildingBlock: UVAHIK_clean_linker_0, # of connection points: 2
#     Edge 107, Type (0, 0), BuildingBlock: UVAHIK_clean_linker_0, # of connection points: 2
#     Edge 108, Type (0, 0), BuildingBlock: UVAHIK_clean_linker_0, # of connection points: 2
#     Edge 109, Type (0, 0), BuildingBlock: UVAHIK_clean_linker_0, # of connection points: 2
#     Edge 110, Type (0, 0), BuildingBlock: UVAHIK_clean_linker_0, # of connection points: 2
#     Edge 111, Type (0, 0), BuildingBlock: UVAHIK_clean_linker_0, # of connection points: 2
#     Edge 112, Type (0, 0), BuildingBlock: UVAHIK_clean_linker_0, # of connection points: 2
#     Edge 113, Type (0, 0), BuildingBlock: UVAHIK_clean_linker_0, # of connection points: 2
#     Edge 114, Type (0, 0), BuildingBlock: UVAHIK_clean_linker_0, # of connection points: 2
#     Edge 115, Type (0, 0), BuildingBlock: UVAHIK_clean_linker_0, # of connection points: 2
#     Edge 116, Type (0, 0), BuildingBlock: UVAHIK_clean_linker_0, # of connection points: 2
#     Edge 117, Type (0, 0), BuildingBlock: UVAHIK_clean_linker_0, # of connection points: 2
#     Edge 118, Type (0, 0), BuildingBlock: UVAHIK_clean_linker_0, # of connection points: 2
#     Edge 119, Type (0, 0), BuildingBlock: UVAHIK_clean_linker_0, # of connection points: 2
#     Edge 120, Type (0, 0), BuildingBlock: UVAHIK_clean_linker_0, # of connection points: 2
#     Edge 121, Type (0, 0), BuildingBlock: UVAHIK_clean_linker_0, # of connection points: 2
#     Edge 122, Type (0, 0), BuildingBlock: UVAHIK_clean_linker_0, # of connection points: 2
#     Edge 123, Type (0, 0), BuildingBlock: UVAHIK_clean_linker_0, # of connection points: 2
#     Edge 124, Type (0, 0), BuildingBlock: UVAHIK_clean_linker_0, # of connection points: 2
#     Edge 125, Type (0, 0), BuildingBlock: UVAHIK_clean_linker_0, # of connection points: 2
# Relax obj value: 0.050
# Max RMSD: 0.097
# Mean RMSD: 0.097
data_MOF--net-wlm--node1-BEQFEK_clean_sbu_0--edge1-UVAHIK_clean_linker_0
_symmetry_space_group_name_H-M    P1
_symmetry_Int_Tables_number       1
_symmetry_cell_setting            triclinic
loop_
_symmetry_equiv_pos_as_xyz
'x, y, z'
_cell_length_a     164.53245
_cell_length_b     164.49114
_cell_length_c     23.655371
_cell_angle_alpha  89.989509
_cell_angle_beta   90.006393
_cell_angle_gamma 120.02312
loop_
_atom_site_label
_atom_site_type_symbol
_atom_site_fract_x
_atom_site_fract_y
_atom_site_fract_z
_atom_type_partial_charge
Co0 Co 0.14133 0.40022 0.29489 0.0
Co1 Co 0.13904 0.39545 0.16559 0.0
C2 C 0.15782 0.40418 0.22244 0.0
O3 O 0.15434 0.4045 0.26995 0.0
O4 O 0.15268 0.40075 0.17874 0.0
C5 C 0.1478 0.41055 0.40149 0.0
O6 O 0.15547 0.41664 0.37486 0.0
C7 C 0.14143 0.39759 0.04122 0.0
C8 C 0.12683 0.38817 0.01326 0.0
C9 C 0.13571 0.39456 0.99356 0.0
N10 N 0.13608 0.39339 0.08692 0.0
N11 N 0.1274 0.38766 0.06972 0.0
C12 C 0.15182 0.40409 0.04368 0.0
H13 H 0.15498 0.40139 0.07428 0.0
H14 H 0.15328 0.41111 0.05831 0.0
H15 H 0.15516 0.40475 0.00195 0.0
C16 C 0.13221 0.41106 0.26079 0.0
N17 N 0.13574 0.40543 0.24895 0.0
N18 N 0.13514 0.40379 0.19425 0.0
C19 C 0.13143 0.40856 0.16923 0.0
C20 C 0.12937 0.41326 0.21059 0.0
C21 C 0.13112 0.4138 0.31944 0.0
H22 H 0.12867 0.40769 0.34814 0.0
H23 H 0.13804 0.41943 0.3348 0.0
H24 H 0.12603 0.41635 0.3209 0.0
O25 O 0.13385 0.38643 0.29344 0.0
O26 O 0.13195 0.38288 0.2023 0.0
H27 H 0.12455 0.4026 0.09087 0.0
H28 H 0.12952 0.41516 0.09496 0.0
C29 C 0.13058 0.40923 0.10661 0.0
H30 H 0.13706 0.41029 0.08571 0.0
H31 H 0.1218 0.38363 0.09679 0.0
O32 O 0.14138 0.40362 0.37472 0.0
C33 C 0.13053 0.38039 0.25399 0.0
Co34 Co 0.59447 0.73993 0.30046 0.0
Co35 Co 0.60056 0.74252 0.17336 0.0
C36 C 0.59169 0.75288 0.22451 0.0
O37 O 0.59084 0.74899 0.27239 0.0
O38 O 0.5954 0.75108 0.18262 0.0
C39 C 0.58727 0.74068 0.41021 0.0
O40 O 0.5869 0.74788 0.38932 0.0
C41 C 0.59798 0.74169 0.05081 0.0
C42 C 0.61006 0.74049 0.02085 0.0
C43 C 0.60214 0.74065 0.00246 0.0
N44 N 0.60319 0.74209 0.0956 0.0
N45 N 0.61045 0.74147 0.0774 0.0
C46 C 0.58879 0.74143 0.05544 0.0
H47 H 0.58566 0.73889 0.09787 0.0
H48 H 0.58384 0.73684 0.02233 0.0
H49 H 0.58997 0.74864 0.04972 0.0
C50 C 0.58335 0.72014 0.26414 0.0
N51 N 0.58941 0.72926 0.25342 0.0
N52 N 0.5919 0.73026 0.19987 0.0
C53 C 0.58749 0.72175 0.17478 0.0
C54 C 0.5819 0.7151 0.21463 0.0
C55 C 0.57887 0.71645 0.32046 0.0
H56 H 0.57568 0.72059 0.3359 0.0
H57 H 0.57339 0.70893 0.31826 0.0
H58 H 0.58435 0.71735 0.35126 0.0
O59 O 0.60833 0.74597 0.3042 0.0
O60 O 0.61266 0.7477 0.21425 0.0
H61 H 0.59663 0.72361 0.10544 0.0
H62 H 0.58607 0.71231 0.1067 0.0
C63 C 0.58902 0.71991 0.11486 0.0
H64 H 0.58559 0.7226 0.08609 0.0
H65 H 0.61554 0.74147 0.10379 0.0
O66 O 0.59 0.73623 0.37896 0.0
C67 C 0.6147 0.74866 0.26664 0.0
Co68 Co 0.2567 0.85356 0.29694 0.0
Co69 Co 0.25407 0.85721 0.17022 0.0
C70 C 0.24375 0.83791 0.22072 0.0
O71 O 0.24766 0.84091 0.26855 0.0
O72 O 0.2455 0.84346 0.17908 0.0
C73 C 0.25546 0.84569 0.40709 0.0
O74 O 0.24788 0.83844 0.38663 0.0
C75 C 0.25482 0.85553 0.04762 0.0
C76 C 0.25609 0.86887 0.01806 0.0
C77 C 0.25586 0.86077 -0.00058 0.0
N78 N 0.2545 0.86034 0.09259 0.0
N79 N 0.25515 0.86825 0.07465 0.0
C80 C 0.25502 0.84655 0.0519 0.0
H81 H 0.25765 0.84597 0.09405 0.0
H82 H 0.25951 0.84615 0.01831 0.0
H83 H 0.24778 0.84055 0.04669 0.0
C84 C 0.27645 0.86213 0.26023 0.0
N85 N 0.26735 0.85919 0.24981 0.0
N86 N 0.26635 0.86078 0.19644 0.0
C87 C 0.27484 0.86485 0.17121 0.0
C88 C 0.28149 0.86579 0.21074 0.0
C89 C 0.2801 0.86111 0.31613 0.0
H90 H 0.27574 0.8538 0.33151 0.0
H91 H 0.28753 0.86283 0.31333 0.0
H92 H 0.27951 0.86583 0.3473 0.0
O93 O 0.25069 0.8614 0.30126 0.0
O94 O 0.24895 0.86413 0.21158 0.0
H95 H 0.27295 0.87224 0.10254 0.0
H96 H 0.28427 0.87303 0.1034 0.0
C97 C 0.27667 0.86833 0.11149 0.0
H98 H 0.274 0.86225 0.08233 0.0
H99 H 0.25521 0.87335 0.10122 0.0
O100 O 0.26037 0.8527 0.37533 0.0
C101 C 0.24801 0.86516 0.26407 0.0
Co102 Co 0.39922 0.14097 0.70723 0.0
Co103 Co 0.39433 0.13878 0.83681 0.0
C104 C 0.40221 0.15735 0.77738 0.0
O105 O 0.40265 0.15382 0.73037 0.0
O106 O 0.3991 0.15232 0.82173 0.0
C107 C 0.40893 0.14866 0.60184 0.0
O108 O 0.41312 0.15662 0.62978 0.0
C109 C 0.39852 0.14153 0.95855 0.0
C110 C 0.38512 0.13065 0.99561 0.0
C111 C 0.39405 0.13776 0.00955 0.0
N112 N 0.39251 0.1368 0.91636 0.0
N113 N 0.38452 0.13029 0.93883 0.0
C114 C 0.40805 0.14993 0.94998 0.0
H115 H 0.40945 0.15167 0.90445 0.0
H116 H 0.4135 0.14854 0.96703 0.0
H117 H 0.40854 0.156 0.97346 0.0
C118 C 0.41101 0.13309 0.74422 0.0
N119 N 0.40496 0.13615 0.75528 0.0
N120 N 0.40283 0.13502 0.80946 0.0
C121 C 0.40739 0.13107 0.83445 0.0
C122 C 0.41277 0.12981 0.79405 0.0
C123 C 0.41514 0.13354 0.68715 0.0
H124 H 0.41824 0.14078 0.67031 0.0
H125 H 0.42064 0.13153 0.68873 0.0
H126 H 0.40947 0.12879 0.65782 0.0
O127 O 0.38539 0.13279 0.70907 0.0
O128 O 0.38188 0.13122 0.80044 0.0
H129 H 0.39857 0.12487 0.90706 0.0
H130 H 0.40799 0.12231 0.90058 0.0
C131 C 0.40601 0.12778 0.89452 0.0
H132 H 0.41049 0.1338 0.92236 0.0
H133 H 0.37863 0.12566 0.9154 0.0
O134 O 0.40305 0.1412 0.62732 0.0
C135 C 0.37938 0.12946 0.74888 0.0
Co136 Co 0.85358 0.25725 0.69788 0.0
Co137 Co 0.85752 0.25535 0.82502 0.0
C138 C 0.8381 0.24483 0.77733 0.0
O139 O 0.84095 0.24841 0.72855 0.0
O140 O 0.84378 0.24686 0.81851 0.0
C141 C 0.84566 0.25484 0.58747 0.0
O142 O 0.8392 0.24671 0.60776 0.0
C143 C 0.85609 0.25573 0.94829 0.0
C144 C 0.87029 0.25903 0.97509 0.0
C145 C 0.86173 0.25747 0.99544 0.0
N146 N 0.8611 0.25626 0.90218 0.0
N147 N 0.86954 0.25813 0.91849 0.0
C148 C 0.84649 0.25463 0.94625 0.0
H149 H 0.8454 0.25727 0.90546 0.0
H150 H 0.84547 0.25847 0.98158 0.0
H151 H 0.84118 0.24707 0.95004 0.0
C152 C 0.86311 0.27736 0.7294 0.0
N153 N 0.85965 0.26824 0.74229 0.0
N154 N 0.8611 0.26747 0.7962 0.0
C155 C 0.86542 0.27609 0.81967 0.0
C156 C 0.86689 0.28265 0.77806 0.0
C157 C 0.86333 0.28088 0.67073 0.0
H158 H 0.86591 0.27746 0.64098 0.0
H159 H 0.8561 0.27893 0.65784 0.0
H160 H 0.86794 0.2886 0.66766 0.0
O161 O 0.86124 0.25108 0.69395 0.0
O162 O 0.86416 0.24984 0.78409 0.0
H163 H 0.87334 0.27645 0.89228 0.0
H164 H 0.86985 0.28527 0.89301 0.0
C165 C 0.86766 0.27794 0.88131 0.0
H166 H 0.86136 0.27323 0.90644 0.0
H167 H 0.87487 0.25903 0.89084 0.0
O168 O 0.85227 0.26051 0.61951 0.0
C169 C 0.86502 0.24857 0.73186 0.0
Co170 Co 0.73936 0.59644 0.69887 0.0
Co171 Co 0.7412 0.60146 0.82757 0.0
C172 C 0.75218 0.59338 0.77238 0.0
O173 O 0.74847 0.5927 0.72409 0.0
O174 O 0.75005 0.59674 0.81472 0.0
C175 C 0.73609 0.58647 0.59117 0.0
O176 O 0.73796 0.58054 0.61706 0.0
C177 C 0.73944 0.59754 0.95031 0.0
C178 C 0.73875 0.60978 0.98275 0.0
C179 C 0.73832 0.6015 -0.00033 0.0
N180 N 0.74029 0.60316 0.9066 0.0
N181 N 0.73994 0.61049 0.92642 0.0
C182 C 0.73996 0.58875 0.94449 0.0
H183 H 0.73275 0.58259 0.94301 0.0
H184 H 0.74373 0.58793 0.98098 0.0
H185 H 0.74355 0.5888 0.90495 0.0
C186 C 0.71937 0.58476 0.73134 0.0
N187 N 0.72842 0.59078 0.74399 0.0
N188 N 0.72912 0.59295 0.79801 0.0
C189 C 0.72049 0.5884 0.82139 0.0
C190 C 0.71406 0.58302 0.78003 0.0
C191 C 0.71596 0.58061 0.67397 0.0
H192 H 0.71973 0.57694 0.66033 0.0
H193 H 0.7083 0.57555 0.67367 0.0
H194 H 0.71758 0.58633 0.64326 0.0
O195 O 0.74523 0.61028 0.70077 0.0
O196 O 0.74633 0.61398 0.79158 0.0
H197 H 0.71068 0.58699 0.88703 0.0
H198 H 0.72056 0.58597 0.91004 0.0
C199 C 0.7183 0.58973 0.88092 0.0
H200 H 0.72214 0.5973 0.8918 0.0
H201 H 0.74037 0.6159 0.90131 0.0
O202 O 0.73619 0.59315 0.61876 0.0
C203 C 0.74757 0.61637 0.73975 0.0
Co204 Co 0.85415 0.59665 0.70387 0.0
Co205 Co 0.85713 0.60157 0.83299 0.0
C206 C 0.83808 0.59317 0.77903 0.0
O207 O 0.8413 0.59277 0.73073 0.0
O208 O 0.84343 0.59646 0.82207 0.0
C209 C 0.84753 0.58639 0.59635 0.0
O210 O 0.83988 0.58014 0.62236 0.0
C211 C 0.85528 0.59963 0.95748 0.0
C212 C 0.87005 0.60864 0.98357 0.0
C213 C 0.86117 0.6025 0.00434 0.0
N214 N 0.86051 0.60367 0.91117 0.0
N215 N 0.8693 0.60916 0.92724 0.0
C216 C 0.84483 0.59354 0.95632 0.0
H217 H 0.84186 0.59681 0.92863 0.0
H218 H 0.84295 0.58658 0.93839 0.0
H219 H 0.8417 0.59267 -0.00107 0.0
C220 C 0.86311 0.58554 0.73566 0.0
N221 N 0.85974 0.59128 0.74848 0.0
N222 N 0.86065 0.59302 0.80309 0.0
C223 C 0.86438 0.58819 0.8271 0.0
C224 C 0.86617 0.58339 0.78514 0.0
C225 C 0.8639 0.58271 0.67669 0.0
H226 H 0.8664 0.58883 0.64801 0.0
H227 H 0.85687 0.57721 0.66205 0.0
H228 H 0.86883 0.57996 0.67426 0.0
O229 O 0.86188 0.6104 0.70485 0.0
O230 O 0.86425 0.61409 0.79569 0.0
H231 H 0.87177 0.59418 0.90413 0.0
H232 H 0.86651 0.58158 0.90055 0.0
C233 C 0.86556 0.58761 0.88947 0.0
H234 H 0.85926 0.58673 0.9118 0.0
H235 H 0.87485 0.61303 0.89947 0.0
O236 O 0.85386 0.59329 0.62379 0.0
C237 C 0.86547 0.6165 0.74384 0.0
Co238 Co 0.39958 0.25719 0.69931 0.0
Co239 Co 0.39457 0.25459 0.8283 0.0
C240 C 0.40237 0.24374 0.76902 0.0
O241 O 0.4031 0.2478 0.72193 0.0
O242 O 0.39908 0.24564 0.81262 0.0
C243 C 0.40964 0.26052 0.59264 0.0
O244 O 0.41514 0.2581 0.61898 0.0
C245 C 0.39834 0.25557 0.9512 0.0
C246 C 0.38631 0.25652 0.9847 0.0
C247 C 0.39445 0.25662 0.00105 0.0
N248 N 0.39282 0.25509 0.90774 0.0
N249 N 0.38561 0.25557 0.92821 0.0
C250 C 0.40696 0.25476 0.9447 0.0
H251 H 0.40664 0.25096 0.90548 0.0
H252 H 0.41322 0.26188 0.94208 0.0
H253 H 0.40778 0.25102 0.98137 0.0
C254 C 0.41135 0.27694 0.73564 0.0
N255 N 0.40534 0.26783 0.74675 0.0
N256 N 0.40324 0.26682 0.80095 0.0
C257 C 0.40785 0.27531 0.82603 0.0
C258 C 0.41317 0.28197 0.78555 0.0
C259 C 0.41532 0.28069 0.67838 0.0
H260 H 0.40952 0.27921 0.64872 0.0
H261 H 0.41897 0.27701 0.66243 0.0
H262 H 0.42037 0.28834 0.67933 0.0
O263 O 0.38577 0.25151 0.70118 0.0
O264 O 0.38211 0.24987 0.79223 0.0
H265 H 0.39903 0.27346 0.89716 0.0
H266 H 0.40957 0.28478 0.89465 0.0
C267 C 0.4066 0.27718 0.88642 0.0
H268 H 0.41018 0.27452 0.91419 0.0
H269 H 0.3803 0.25544 0.90344 0.0
O270 O 0.40308 0.26074 0.61963 0.0
C271 C 0.3797 0.249 0.74045 0.0
Co272 Co 0.74087 0.14245 0.71242 0.0
Co273 Co 0.74245 0.1397 0.84215 0.0
C274 C 0.75281 0.15874 0.7884 0.0
O275 O 0.74944 0.1554 0.73977 0.0
O276 O 0.75072 0.15345 0.83175 0.0
C277 C 0.73712 0.14893 0.60518 0.0
O278 O 0.73806 0.15634 0.63207 0.0
C279 C 0.74213 0.1415 0.9665 0.0
C280 C 0.73615 0.12668 0.99236 0.0
C281 C 0.73897 0.13557 0.0132 0.0
N282 N 0.74094 0.13628 0.92019 0.0
N283 N 0.73751 0.12746 0.93612 0.0
C284 C 0.74665 0.15196 0.96553 0.0
H285 H 0.753 0.15486 0.93865 0.0
H286 H 0.74173 0.15398 0.94671 0.0
H287 H 0.7488 0.15506 0.00832 0.0
C288 C 0.72063 0.133 0.7415 0.0
N289 N 0.72973 0.13659 0.75551 0.0
N290 N 0.73042 0.13582 0.81041 0.0
C291 C 0.72178 0.13199 0.83341 0.0
C292 C 0.71528 0.12996 0.79049 0.0
C293 C 0.71716 0.13206 0.68205 0.0
H294 H 0.72107 0.12979 0.65413 0.0
H295 H 0.71843 0.13899 0.66708 0.0
H296 H 0.70955 0.12688 0.67891 0.0
O297 O 0.74726 0.13506 0.71519 0.0
O298 O 0.74835 0.13292 0.80668 0.0
H299 H 0.72005 0.1248 0.91168 0.0
H300 H 0.7129 0.13022 0.90541 0.0
C301 C 0.71986 0.13103 0.89564 0.0
H302 H 0.72528 0.13736 0.91778 0.0
H303 H 0.73582 0.12191 0.90827 0.0
O304 O 0.73799 0.14272 0.63196 0.0
C305 C 0.7498 0.13169 0.75534 0.0
Co306 Co 0.59738 0.85626 0.28596 0.0
Co307 Co 0.60181 0.85837 0.15625 0.0
C308 C 0.59351 0.83971 0.21401 0.0
O309 O 0.59327 0.84325 0.26145 0.0
O310 O 0.59674 0.84477 0.16983 0.0
C311 C 0.58706 0.84974 0.39228 0.0
O312 O 0.58097 0.84214 0.36514 0.0
C313 C 0.59953 0.85592 0.03191 0.0
C314 C 0.60875 0.87056 0.00389 0.0
C315 C 0.60245 0.86165 0.98425 0.0
N316 N 0.60371 0.8613 0.07754 0.0
N317 N 0.60932 0.87 0.06029 0.0
C318 C 0.59313 0.84551 0.03441 0.0
H319 H 0.59585 0.84242 0.06538 0.0
H320 H 0.58607 0.84396 0.04852 0.0
H321 H 0.59258 0.84218 0.99276 0.0
C322 C 0.5862 0.86506 0.25248 0.0
N323 N 0.5919 0.86162 0.24034 0.0
N324 N 0.59341 0.86214 0.1855 0.0
C325 C 0.58847 0.86568 0.16073 0.0
C326 C 0.58381 0.86774 0.20236 0.0
C327 C 0.58356 0.86621 0.31127 0.0
H328 H 0.58974 0.86874 0.33954 0.0
H329 H 0.578 0.8593 0.32715 0.0
H330 H 0.58097 0.87126 0.31273 0.0
O331 O 0.61116 0.86393 0.28342 0.0
O332 O 0.61444 0.86563 0.1919 0.0
H333 H 0.59415 0.87246 0.08169 0.0
H334 H 0.58157 0.86729 0.08692 0.0
C335 C 0.58762 0.86639 0.09813 0.0
H336 H 0.58662 0.85991 0.07754 0.0
H337 H 0.61332 0.87562 0.08733 0.0
O338 O 0.59404 0.85619 0.36594 0.0
C339 C 0.61708 0.86721 0.24329 0.0
Co340 Co 0.14084 0.74024 0.28942 0.0
Co341 Co 0.13837 0.74257 0.16015 0.0
C342 C 0.15722 0.75277 0.21635 0.0
O343 O 0.15383 0.74899 0.26407 0.0
O344 O 0.15201 0.75099 0.17295 0.0
C345 C 0.14724 0.73632 0.39627 0.0
O346 O 0.15483 0.73768 0.36968 0.0
C347 C 0.14068 0.74262 0.03582 0.0
C348 C 0.12612 0.73763 0.00795 0.0
C349 C 0.13495 0.73997 0.98822 0.0
N350 N 0.13537 0.7416 0.08151 0.0
N351 N 0.12672 0.73876 0.06436 0.0
C352 C 0.15104 0.74633 0.03819 0.0
H353 H 0.15237 0.74069 0.05293 0.0
H354 H 0.15439 0.74895 0.99639 0.0
H355 H 0.15431 0.7522 0.06864 0.0
C356 C 0.13174 0.72023 0.25605 0.0
N357 N 0.13522 0.72938 0.24392 0.0
N358 N 0.1345 0.73036 0.18925 0.0
C359 C 0.13075 0.72184 0.16456 0.0
C360 C 0.1288 0.71514 0.20609 0.0
C361 C 0.1308 0.71646 0.31475 0.0
H362 H 0.12832 0.72008 0.3436 0.0
H363 H 0.13778 0.71787 0.32969 0.0
H364 H 0.1258 0.7088 0.31651 0.0
O365 O 0.13335 0.74656 0.28778 0.0
O366 O 0.13128 0.74805 0.19667 0.0
H367 H 0.12377 0.72097 0.08668 0.0
H368 H 0.12854 0.7132 0.09047 0.0
C369 C 0.12975 0.72025 0.10202 0.0
H370 H 0.13623 0.72557 0.08065 0.0
H371 H 0.12115 0.73731 0.09146 0.0
O372 O 0.14091 0.73698 0.3694 0.0
C373 C 0.12996 0.74921 0.24836 0.0
Co374 Co 0.25595 0.40144 0.30729 0.0
Co375 Co 0.25457 0.39694 0.17766 0.0
C376 C 0.24405 0.40548 0.22847 0.0
O377 O 0.24753 0.40574 0.27696 0.0
O378 O 0.24602 0.40207 0.1858 0.0
C379 C 0.26146 0.4127 0.412 0.0
O380 O 0.26547 0.42038 0.38134 0.0
C381 C 0.25493 0.39939 0.05409 0.0
C382 C 0.2604 0.39025 0.02536 0.0
C383 C 0.25765 0.39647 0.00636 0.0
N384 N 0.25606 0.39512 0.09941 0.0
N385 N 0.25921 0.38957 0.08183 0.0
C386 C 0.25224 0.40683 0.05747 0.0
H387 H 0.2554 0.41122 0.09562 0.0
H388 H 0.25454 0.41137 0.01934 0.0
H389 H 0.24449 0.40341 0.06114 0.0
C390 C 0.27642 0.4117 0.27954 0.0
N391 N 0.26726 0.40662 0.26539 0.0
N392 N 0.26656 0.40523 0.21032 0.0
C393 C 0.27522 0.40974 0.1875 0.0
C394 C 0.28176 0.41388 0.23058 0.0
C395 C 0.28002 0.41363 0.33893 0.0
H396 H 0.27491 0.40817 0.36793 0.0
H397 H 0.28116 0.42059 0.35222 0.0
H398 H 0.28685 0.41381 0.34186 0.0
O399 O 0.24968 0.38768 0.30503 0.0
O400 O 0.24882 0.38428 0.21378 0.0
H401 H 0.27674 0.404 0.10976 0.0
H402 H 0.28426 0.41655 0.11556 0.0
C403 C 0.27718 0.41057 0.12532 0.0
H404 H 0.27194 0.41169 0.10275 0.0
H405 H 0.26083 0.38554 0.10862 0.0
O406 O 0.25765 0.40468 0.38855 0.0
C407 C 0.24731 0.3817 0.26535 0.0
Co408 Co 0.80822 0.73421 0.63066 0.0
Co409 Co 0.80511 0.72943 0.50165 0.0
C410 C 0.82412 0.73733 0.55704 0.0
O411 O 0.82106 0.73792 0.60543 0.0
O412 O 0.81866 0.73408 0.51451 0.0
C413 C 0.81503 0.74411 0.73822 0.0
O414 O 0.82285 0.74997 0.71203 0.0
C415 C 0.80731 0.73344 0.37895 0.0
C416 C 0.79429 0.72132 0.34641 0.0
C417 C 0.80221 0.72954 0.32957 0.0
N418 N 0.80249 0.72783 0.42261 0.0
N419 N 0.79476 0.72058 0.40272 0.0
C420 C 0.81669 0.74215 0.38482 0.0
H421 H 0.81575 0.74837 0.38639 0.0
H422 H 0.82126 0.74291 0.3483 0.0
H423 H 0.82021 0.74203 0.42431 0.0
C424 C 0.80008 0.74607 0.599 0.0
N425 N 0.80304 0.74001 0.58595 0.0
N426 N 0.8016 0.73795 0.53179 0.0
C427 C 0.79762 0.74261 0.50871 0.0
C428 C 0.79659 0.74795 0.55042 0.0
C429 C 0.80083 0.75014 0.65661 0.0
H430 H 0.80827 0.75377 0.67027 0.0
H431 H 0.79828 0.75524 0.65731 0.0
H432 H 0.79671 0.7444 0.68708 0.0
O433 O 0.80019 0.72038 0.62813 0.0
O434 O 0.79767 0.71688 0.53702 0.0
H435 H 0.78939 0.74429 0.44298 0.0
H436 H 0.80025 0.74517 0.42023 0.0
C437 C 0.79417 0.74143 0.44904 0.0
H438 H 0.79037 0.73388 0.43769 0.0
H439 H 0.78973 0.71518 0.42777 0.0
O440 O 0.80839 0.73746 0.71087 0.0
C441 C 0.79645 0.71437 0.58865 0.0
Co442 Co 0.26164 0.07328 0.6246 0.0
Co443 Co 0.26775 0.07512 0.49787 0.0
C444 C 0.2596 0.08637 0.54627 0.0
O445 O 0.25858 0.08266 0.59493 0.0
O446 O 0.26312 0.08412 0.5053 0.0
C447 C 0.25535 0.07509 0.73497 0.0
O448 O 0.25606 0.08284 0.71448 0.0
C449 C 0.26513 0.07414 0.37552 0.0
C450 C 0.2768 0.07224 0.3456 0.0
C451 C 0.26912 0.07283 0.32722 0.0
N452 N 0.27022 0.07428 0.42031 0.0
N453 N 0.27724 0.07324 0.40215 0.0
C454 C 0.25619 0.07439 0.38006 0.0
H455 H 0.25295 0.07185 0.42227 0.0
H456 H 0.25117 0.07002 0.34656 0.0
H457 H 0.25776 0.08174 0.37491 0.0
C458 C 0.24976 0.05344 0.59057 0.0
N459 N 0.25615 0.06242 0.57892 0.0
N460 N 0.25871 0.0631 0.52564 0.0
C461 C 0.25404 0.05452 0.50168 0.0
C462 C 0.24818 0.04814 0.54197 0.0
C463 C 0.24511 0.05011 0.64687 0.0
H464 H 0.24243 0.05474 0.66154 0.0
H465 H 0.23921 0.04276 0.64497 0.0
H466 H 0.25037 0.0506 0.67808 0.0
O467 O 0.27545 0.07876 0.62848 0.0
O468 O 0.27981 0.07995 0.53879 0.0
H469 H 0.25246 0.04469 0.43566 0.0
H470 H 0.25245 0.05512 0.4124 0.0
C471 C 0.25562 0.05235 0.44261 0.0
H472 H 0.26325 0.05579 0.43402 0.0
H473 H 0.2822 0.073 0.42858 0.0
O474 O 0.25714 0.06995 0.70323 0.0
C475 C 0.28181 0.08103 0.59122 0.0
Co476 Co 0.92348 0.18948 0.61505 0.0
Co477 Co 0.92065 0.19144 0.48576 0.0
C478 C 0.91067 0.17281 0.54449 0.0
O479 O 0.9146 0.17641 0.59154 0.0
O480 O 0.91231 0.17783 0.5003 0.0
C481 C 0.9275 0.18316 0.72148 0.0
O482 O 0.92583 0.17547 0.69489 0.0
C483 C 0.92026 0.18887 0.36141 0.0
C484 C 0.92505 0.20337 0.33288 0.0
C485 C 0.92275 0.19453 0.31349 0.0
N486 N 0.92134 0.19424 0.40692 0.0
N487 N 0.92405 0.20285 0.38937 0.0
C488 C 0.91668 0.17854 0.36428 0.0
H489 H 0.91103 0.17528 0.39615 0.0
H490 H 0.92246 0.17732 0.37734 0.0
H491 H 0.91382 0.17509 0.323 0.0
C492 C 0.94334 0.19834 0.57886 0.0
N493 N 0.93415 0.19489 0.568 0.0
N494 N 0.93297 0.19544 0.5134 0.0
C495 C 0.94138 0.19907 0.48754 0.0
C496 C 0.94824 0.20111 0.52817 0.0
C497 C 0.94732 0.19937 0.63701 0.0
H498 H 0.94392 0.20204 0.66622 0.0
H499 H 0.94582 0.19238 0.65241 0.0
H500 H 0.95502 0.20425 0.63757 0.0
O501 O 0.91718 0.19699 0.61348 0.0
O502 O 0.91526 0.1986 0.52231 0.0
H503 H 0.94189 0.20576 0.40909 0.0
H504 H 0.94976 0.20112 0.41238 0.0
C505 C 0.94274 0.19988 0.42478 0.0
H506 H 0.93738 0.1933 0.40446 0.0
H507 H 0.92551 0.20845 0.41625 0.0
O508 O 0.927 0.1896 0.69472 0.0
C509 C 0.91432 0.20017 0.57392 0.0
Co510 Co 0.06714 0.47576 0.04345 0.0
Co511 Co 0.06166 0.47231 0.17215 0.0
C512 C 0.06952 0.49136 0.1189 0.0
O513 O 0.0702 0.48839 0.07042 0.0
O514 O 0.06633 0.48586 0.16119 0.0
C515 C 0.07606 0.48421 0.93693 0.0
O516 O 0.07901 0.49222 0.96345 0.0
C517 C 0.06556 0.47443 0.29417 0.0
C518 C 0.05212 0.46332 0.32948 0.0
C519 C 0.06098 0.47046 0.34462 0.0
N520 N 0.05969 0.46979 0.25122 0.0
N521 N 0.05169 0.46313 0.27266 0.0
C522 C 0.07506 0.48294 0.28686 0.0
H523 H 0.07633 0.48522 0.24209 0.0
H524 H 0.08056 0.48133 0.30013 0.0
H525 H 0.07568 0.48872 0.31407 0.0
C526 C 0.07904 0.46787 0.07785 0.0
N527 N 0.07285 0.4707 0.08989 0.0
N528 N 0.0704 0.46896 0.14345 0.0
C529 C 0.07489 0.46484 0.16702 0.0
C530 C 0.08056 0.46409 0.12637 0.0
C531 C 0.08347 0.46892 0.02107 0.0
H532 H 0.08618 0.47619 0.00547 0.0
H533 H 0.0893 0.46739 0.02265 0.0
H534 H 0.07806 0.46407 0.99077 0.0
O535 O 0.05335 0.46724 0.04291 0.0
O536 O 0.04934 0.46505 0.13368 0.0
H537 H 0.07514 0.45539 0.22965 0.0
H538 H 0.07746 0.46661 0.25588 0.0
C539 C 0.07317 0.4609 0.22567 0.0
H540 H 0.06566 0.45785 0.23692 0.0
H541 H 0.04586 0.45855 0.24844 0.0
O542 O 0.07122 0.47655 0.96364 0.0
C543 C 0.04716 0.46361 0.08153 0.0
Co544 Co 0.52003 0.59042 0.03425 0.0
Co545 Co 0.5241 0.58847 0.16112 0.0
C546 C 0.50467 0.57774 0.11368 0.0
O547 O 0.50746 0.58141 0.065 0.0
O548 O 0.5104 0.57981 0.15464 0.0
C549 C 0.51217 0.58784 0.92379 0.0
O550 O 0.50594 0.5796 0.944 0.0
C551 C 0.52268 0.58868 0.2845 0.0
C552 C 0.53697 0.59222 0.31097 0.0
C553 C 0.52836 0.59048 0.33154 0.0
N554 N 0.52771 0.58935 0.23824 0.0
N555 N 0.53621 0.59136 0.25435 0.0
C556 C 0.51301 0.58739 0.28273 0.0
H557 H 0.51184 0.59002 0.24211 0.0
H558 H 0.51191 0.59114 0.31829 0.0
H559 H 0.50779 0.5798 0.2863 0.0
C560 C 0.5294 0.6105 0.06654 0.0
N561 N 0.52602 0.60138 0.07903 0.0
N562 N 0.5275 0.60057 0.13284 0.0
C563 C 0.53172 0.60916 0.1567 0.0
C564 C 0.53313 0.61576 0.11541 0.0
C565 C 0.52959 0.61407 0.00806 0.0
H566 H 0.53213 0.61067 0.97797 0.0
H567 H 0.52235 0.61215 0.99546 0.0
H568 H 0.5342 0.62179 0.0052 0.0
O569 O 0.52784 0.58441 0.02968 0.0
O570 O 0.53086 0.58315 0.11958 0.0
H571 H 0.5397 0.60961 0.22923 0.0
H572 H 0.53593 0.61822 0.23058 0.0
C573 C 0.53391 0.61095 0.21843 0.0
H574 H 0.52765 0.6061 0.24334 0.0
H575 H 0.54157 0.5924 0.22656 0.0
O576 O 0.51865 0.59367 0.95599 0.0
C577 C 0.53171 0.58194 0.06722 0.0
Co578 Co 0.40618 0.93034 0.03513 0.0
Co579 Co 0.40802 0.9349 0.16463 0.0
C580 C 0.41908 0.92711 0.10949 0.0
O581 O 0.41542 0.92675 0.06134 0.0
O582 O 0.41686 0.93013 0.15311 0.0
C583 C 0.40276 0.9201 0.92814 0.0
O584 O 0.40437 0.91404 0.9547 0.0
C585 C 0.40811 0.93298 0.28909 0.0
C586 C 0.40178 0.94147 0.31545 0.0
C587 C 0.40491 0.93563 0.33606 0.0
N588 N 0.40665 0.93685 0.24287 0.0
N589 N 0.40301 0.94204 0.2591 0.0
C590 C 0.41289 0.92729 0.28773 0.0
H591 H 0.41908 0.93076 0.2596 0.0
H592 H 0.40802 0.92023 0.27023 0.0
H593 H 0.41534 0.92661 0.33022 0.0
C594 C 0.3861 0.91884 0.06681 0.0
N595 N 0.3952 0.92463 0.07974 0.0
N596 N 0.39601 0.9262 0.13454 0.0
C597 C 0.38747 0.92119 0.15853 0.0
C598 C 0.38089 0.91646 0.1164 0.0
C599 C 0.38247 0.91619 0.00771 0.0
H600 H 0.3861 0.92239 0.97964 0.0
H601 H 0.38398 0.91072 0.99217 0.0
H602 H 0.3748 0.91346 0.00547 0.0
O603 O 0.41189 0.94407 0.03682 0.0
O604 O 0.41316 0.94745 0.12815 0.0
H605 H 0.38577 0.92676 0.23641 0.0
H606 H 0.37888 0.91414 0.23167 0.0
C607 C 0.38573 0.92038 0.22094 0.0
H608 H 0.39133 0.91973 0.24281 0.0
H609 H 0.40109 0.94572 0.23141 0.0
O610 O 0.40313 0.92696 0.95506 0.0
C611 C 0.41428 0.95002 0.07662 0.0
Co612 Co 0.52138 0.92985 0.03239 0.0
Co613 Co 0.52452 0.93505 0.16145 0.0
C614 C 0.50561 0.92743 0.10599 0.0
O615 O 0.50871 0.92677 0.05792 0.0
O616 O 0.51098 0.93053 0.14894 0.0
C617 C 0.51323 0.92059 0.92615 0.0
O618 O 0.50519 0.91703 0.95317 0.0
C619 C 0.52217 0.93096 0.28331 0.0
C620 C 0.53327 0.94433 0.31946 0.0
C621 C 0.5261 0.93545 0.33401 0.0
N622 N 0.52686 0.9369 0.24073 0.0
N623 N 0.53351 0.94486 0.26265 0.0
C624 C 0.51365 0.9215 0.27544 0.0
H625 H 0.5116 0.92018 0.23026 0.0
H626 H 0.51509 0.91596 0.29047 0.0
H627 H 0.50776 0.921 0.30101 0.0
C628 C 0.52903 0.91775 0.06712 0.0
N629 N 0.52625 0.92398 0.0791 0.0
N630 N 0.52782 0.92629 0.13293 0.0
C631 C 0.53181 0.92168 0.15672 0.0
C632 C 0.53262 0.91607 0.11595 0.0
C633 C 0.5281 0.91342 0.01013 0.0
H634 H 0.52084 0.91068 0.99426 0.0
H635 H 0.52967 0.90761 0.01149 0.0
H636 H 0.53296 0.91889 0.98017 0.0
O637 O 0.52981 0.94366 0.03314 0.0
O638 O 0.53212 0.94742 0.12411 0.0
H639 H 0.53864 0.93074 0.22754 0.0
H640 H 0.54105 0.92123 0.22009 0.0
C641 C 0.53558 0.92325 0.21575 0.0
H642 H 0.52978 0.91891 0.24532 0.0
H643 H 0.53812 0.95071 0.23885 0.0
O644 O 0.5208 0.92593 0.95243 0.0
C645 C 0.53354 0.94977 0.07219 0.0
Co646 Co 0.0668 0.59016 0.04147 0.0
Co647 Co 0.06141 0.58858 0.16934 0.0
C648 C 0.06942 0.57734 0.11931 0.0
O649 O 0.07008 0.58089 0.07048 0.0
O650 O 0.06616 0.57968 0.16119 0.0
C651 C 0.07412 0.58921 0.93187 0.0
O652 O 0.07491 0.58228 0.95349 0.0
C653 C 0.06453 0.58993 0.29134 0.0
C654 C 0.05285 0.59173 0.32234 0.0
C655 C 0.06067 0.59131 0.33997 0.0
N656 N 0.05925 0.58958 0.24711 0.0
N657 N 0.05223 0.59057 0.26592 0.0
C658 C 0.07352 0.58979 0.28586 0.0
H659 H 0.07656 0.59218 0.2431 0.0
H660 H 0.07865 0.59431 0.31844 0.0
H661 H 0.07206 0.58249 0.29178 0.0
C662 C 0.07867 0.61011 0.07322 0.0
N663 N 0.07244 0.60113 0.08616 0.0
N664 N 0.0702 0.60056 0.13997 0.0
C665 C 0.07493 0.6092 0.16303 0.0
C666 C 0.08046 0.61551 0.12154 0.0
C667 C 0.08294 0.61335 0.01594 0.0
H668 H 0.0858 0.60889 0.001 0.0
H669 H 0.08864 0.6208 0.01639 0.0
H670 H 0.07741 0.61251 0.98574 0.0
O671 O 0.05297 0.58458 0.03995 0.0
O672 O 0.04916 0.58351 0.13062 0.0
H673 H 0.06611 0.60805 0.23275 0.0
H674 H 0.07686 0.61917 0.22901 0.0
C675 C 0.07368 0.6115 0.22251 0.0
H676 H 0.07705 0.60881 0.25185 0.0
H677 H 0.04714 0.59066 0.24002 0.0
O678 O 0.07102 0.59342 0.96237 0.0
C679 C 0.04683 0.58232 0.07868 0.0
Co680 Co 0.40613 0.47537 0.04995 0.0
Co681 Co 0.40849 0.47231 0.17886 0.0
C682 C 0.41907 0.49135 0.12359 0.0
O683 O 0.41533 0.48821 0.07549 0.0
O684 O 0.41704 0.48594 0.16621 0.0
C685 C 0.40435 0.48311 0.94342 0.0
O686 O 0.40848 0.4912 0.97005 0.0
C687 C 0.40661 0.4745 0.30078 0.0
C688 C 0.40937 0.46373 0.33686 0.0
C689 C 0.40728 0.47063 0.35145 0.0
N690 N 0.40814 0.47002 0.25817 0.0
N691 N 0.40976 0.46357 0.28006 0.0
C692 C 0.40525 0.48278 0.293 0.0
H693 H 0.40581 0.48476 0.24777 0.0
H694 H 0.39824 0.48109 0.30871 0.0
H695 H 0.41058 0.4888 0.31808 0.0
C696 C 0.38632 0.46702 0.08564 0.0
N697 N 0.39541 0.47007 0.09702 0.0
N698 N 0.39629 0.46852 0.15069 0.0
C699 C 0.38772 0.46429 0.17494 0.0
C700 C 0.38116 0.4633 0.13472 0.0
C701 C 0.38275 0.46793 0.02915 0.0
H702 H 0.38706 0.47524 0.01369 0.0
H703 H 0.37529 0.4661 0.03108 0.0
H704 H 0.38351 0.46324 0.99853 0.0
O705 O 0.41208 0.46745 0.0504 0.0
O706 O 0.4137 0.46516 0.14116 0.0
H707 H 0.39036 0.4577 0.2455 0.0
H708 H 0.37829 0.45481 0.23843 0.0
C709 C 0.3857 0.4605 0.23397 0.0
H710 H 0.38693 0.46621 0.26363 0.0
H711 H 0.41123 0.45912 0.2562 0.0
O712 O 0.40257 0.47568 0.97003 0.0
C713 C 0.4147 0.46388 0.08911 0.0
Co714 Co 0.26225 0.18824 0.6174 0.0
Co715 Co 0.26773 0.19172 0.48897 0.0
C716 C 0.25994 0.17264 0.54394 0.0
O717 O 0.25895 0.1755 0.59208 0.0
O718 O 0.26335 0.17822 0.50207 0.0
C719 C 0.2525 0.18099 0.72504 0.0
O720 O 0.24751 0.17288 0.69941 0.0
C721 C 0.26375 0.18932 0.36645 0.0
C722 C 0.27623 0.20184 0.33221 0.0
C723 C 0.26781 0.19406 0.31636 0.0
N724 N 0.26946 0.19417 0.40964 0.0
N725 N 0.27692 0.20162 0.38877 0.0
C726 C 0.2548 0.18016 0.37328 0.0
H727 H 0.25474 0.17673 0.41359 0.0
H728 H 0.24879 0.18142 0.37384 0.0
H729 H 0.25384 0.17538 0.33757 0.0
C730 C 0.25023 0.19603 0.58275 0.0
N731 N 0.25648 0.19326 0.57102 0.0
N732 N 0.25889 0.19492 0.51738 0.0
C733 C 0.25429 0.1989 0.4934 0.0
C734 C 0.24861 0.19965 0.53387 0.0
C735 C 0.24584 0.19508 0.63952 0.0
H736 H 0.24272 0.18771 0.65418 0.0
H737 H 0.2403 0.19704 0.63837 0.0
H738 H 0.25134 0.19962 0.6703 0.0
O739 O 0.27605 0.19652 0.6166 0.0
O740 O 0.28009 0.19939 0.52628 0.0
H741 H 0.26353 0.20628 0.42436 0.0
H742 H 0.25345 0.20783 0.4291 0.0
C743 C 0.25594 0.20273 0.43447 0.0
H744 H 0.25209 0.19688 0.40429 0.0
H745 H 0.28245 0.20661 0.41327 0.0
O746 O 0.25865 0.18801 0.69736 0.0
C747 C 0.28228 0.2005 0.57848 0.0
Co748 Co 0.80972 0.07358 0.6331 0.0
Co749 Co 0.80637 0.07631 0.50606 0.0
C750 C 0.82559 0.08627 0.55627 0.0
O751 O 0.82246 0.08237 0.60402 0.0
O752 O 0.82012 0.08464 0.51441 0.0
C753 C 0.81752 0.07543 0.74316 0.0
O754 O 0.82422 0.08342 0.72277 0.0
C755 C 0.80803 0.07639 0.38261 0.0
C756 C 0.7939 0.07334 0.3558 0.0
C757 C 0.80242 0.0748 0.3354 0.0
N758 N 0.80301 0.07585 0.42875 0.0
N759 N 0.79463 0.07415 0.41242 0.0
C760 C 0.81756 0.07734 0.38472 0.0
H761 H 0.81857 0.0746 0.42537 0.0
H762 H 0.81854 0.07351 0.3492 0.0
H763 H 0.82296 0.08488 0.38148 0.0
C764 C 0.80012 0.05366 0.59746 0.0
N765 N 0.80366 0.06286 0.58654 0.0
N766 N 0.80249 0.06398 0.53267 0.0
C767 C 0.79827 0.0555 0.50727 0.0
C768 C 0.79658 0.04868 0.54754 0.0
C769 C 0.79969 0.04979 0.65533 0.0
H770 H 0.79722 0.05318 0.68601 0.0
H771 H 0.80685 0.05146 0.66819 0.0
H772 H 0.79491 0.04208 0.65685 0.0
O773 O 0.80225 0.07996 0.63775 0.0
O774 O 0.79977 0.08178 0.54771 0.0
H775 H 0.7909 0.05572 0.43334 0.0
H776 H 0.79423 0.04678 0.43188 0.0
C777 C 0.79643 0.05406 0.44505 0.0
H778 H 0.80291 0.05885 0.4217 0.0
H779 H 0.7893 0.07326 0.44008 0.0
O780 O 0.81076 0.06998 0.71123 0.0
C781 C 0.79873 0.0828 0.60007 0.0
Co782 Co 0.92278 0.73395 0.62649 0.0
Co783 Co 0.92094 0.72922 0.49708 0.0
C784 C 0.91023 0.7375 0.55212 0.0
O785 O 0.91387 0.73794 0.6004 0.0
O786 O 0.91232 0.73422 0.5092 0.0
C787 C 0.92671 0.74427 0.73368 0.0
O788 O 0.9257 0.75072 0.70715 0.0
C789 C 0.92174 0.73197 0.37265 0.0
C790 C 0.92575 0.72162 0.34527 0.0
C791 C 0.92419 0.72864 0.32536 0.0
N792 N 0.92213 0.72731 0.41842 0.0
N793 N 0.9244 0.72105 0.40152 0.0
C794 C 0.9189 0.73931 0.37452 0.0
H795 H 0.91352 0.73756 0.4074 0.0
H796 H 0.92509 0.74619 0.38526 0.0
H797 H 0.91598 0.73986 0.33337 0.0
C798 C 0.94292 0.74482 0.59555 0.0
N799 N 0.93379 0.73934 0.58211 0.0
N800 N 0.93302 0.73761 0.52747 0.0
C801 C 0.94165 0.74213 0.50414 0.0
C802 C 0.94821 0.74677 0.54652 0.0
C803 C 0.94648 0.74746 0.65478 0.0
H804 H 0.94274 0.74127 0.68288 0.0
H805 H 0.94504 0.753 0.6699 0.0
H806 H 0.95413 0.75009 0.65755 0.0
O807 O 0.9167 0.72017 0.62454 0.0
O808 O 0.91554 0.71665 0.53343 0.0
H809 H 0.94232 0.73543 0.42821 0.0
H810 H 0.95084 0.74782 0.43128 0.0
C811 C 0.94355 0.7424 0.44207 0.0
H812 H 0.93871 0.74403 0.41872 0.0
H813 H 0.92529 0.71655 0.42868 0.0
O814 O 0.92583 0.7372 0.70667 0.0
C815 C 0.91427 0.71415 0.58512 0.0
Co816 Co 0.47547 0.06765 0.96337 0.0
Co817 Co 0.47243 0.06276 0.83417 0.0
C818 C 0.49139 0.07064 0.88919 0.0
O819 O 0.48829 0.07128 0.9374 0.0
O820 O 0.48598 0.06741 0.84643 0.0
C821 C 0.48204 0.07795 0.07065 0.0
O822 O 0.48962 0.08427 0.04434 0.0
C823 C 0.47446 0.06544 0.70971 0.0
C824 C 0.46003 0.05528 0.68221 0.0
C825 C 0.46868 0.06219 0.66235 0.0
N826 N 0.46934 0.06085 0.75546 0.0
N827 N 0.46077 0.0547 0.73849 0.0
C828 C 0.48468 0.07263 0.71165 0.0
H829 H 0.48821 0.07083 0.74484 0.0
H830 H 0.48551 0.07959 0.72196 0.0
H831 H 0.48814 0.07307 0.67064 0.0
C832 C 0.4667 0.07894 0.93164 0.0
N833 N 0.4701 0.07324 0.91859 0.0
N834 N 0.46907 0.07143 0.86405 0.0
C835 C 0.46516 0.07612 0.84039 0.0
C836 C 0.46345 0.08096 0.88245 0.0
C837 C 0.46591 0.08175 0.9907 0.0
H838 H 0.46329 0.07558 0.0191 0.0
H839 H 0.47297 0.08715 0.00565 0.0
H840 H 0.46109 0.08461 0.99324 0.0
O841 O 0.46748 0.0539 0.96184 0.0
O842 O 0.46497 0.05025 0.87094 0.0
H843 H 0.4577 0.06941 0.76472 0.0
H844 H 0.46182 0.08186 0.76713 0.0
C845 C 0.46354 0.07634 0.77828 0.0
H846 H 0.46996 0.07782 0.75496 0.0
H847 H 0.45534 0.05029 0.76562 0.0
O848 O 0.47575 0.07098 0.04347 0.0
C849 C 0.46373 0.04783 0.92278 0.0
Co850 Co 0.93021 0.40703 0.95277 0.0
Co851 Co 0.93512 0.4097 0.82354 0.0
C852 C 0.92737 0.4205 0.88296 0.0
O853 O 0.92679 0.41651 0.93015 0.0
O854 O 0.93054 0.41855 0.83904 0.0
C855 C 0.92015 0.4038 0.05936 0.0
O856 O 0.91473 0.40631 0.03296 0.0
C857 C 0.93137 0.40871 0.7006 0.0
C858 C 0.94333 0.40762 0.66725 0.0
C859 C 0.93523 0.40759 0.65083 0.0
N860 N 0.93686 0.40916 0.74411 0.0
N861 N 0.94404 0.4086 0.72373 0.0
C862 C 0.9228 0.40961 0.70691 0.0
H863 H 0.91651 0.40252 0.71027 0.0
H864 H 0.92196 0.41326 0.66984 0.0
H865 H 0.92319 0.41353 0.74568 0.0
C866 C 0.91836 0.38733 0.91644 0.0
N867 N 0.92438 0.39644 0.90529 0.0
N868 N 0.92648 0.39745 0.85108 0.0
C869 C 0.92184 0.38895 0.82602 0.0
C870 C 0.91652 0.3823 0.86655 0.0
C871 C 0.9144 0.3836 0.97374 0.0
H872 H 0.91081 0.38732 0.98985 0.0
H873 H 0.9093 0.37595 0.97281 0.0
H874 H 0.92021 0.38502 0.00327 0.0
O875 O 0.94398 0.41243 0.95076 0.0
O876 O 0.94763 0.41462 0.85956 0.0
H877 H 0.9306 0.39074 0.75469 0.0
H878 H 0.92 0.37946 0.75723 0.0
C879 C 0.92304 0.38708 0.76555 0.0
H880 H 0.91949 0.38979 0.73796 0.0
H881 H 0.94933 0.4087 0.74856 0.0
O882 O 0.92668 0.40349 0.03244 0.0
C883 C 0.95002 0.41517 0.91121 0.0
Co884 Co 0.58907 0.52199 0.94783 0.0
Co885 Co 0.58716 0.52471 0.81832 0.0
C886 C 0.57651 0.50577 0.87378 0.0
O887 O 0.58014 0.50905 0.92197 0.0
O888 O 0.57858 0.51107 0.83051 0.0
C889 C 0.59297 0.51559 0.05499 0.0
O890 O 0.59189 0.5081 0.02838 0.0
C891 C 0.58773 0.52272 0.69387 0.0
C892 C 0.5923 0.53724 0.66676 0.0
C893 C 0.59037 0.52854 0.64668 0.0
N894 N 0.58837 0.52785 0.73975 0.0
N895 N 0.59097 0.53648 0.72302 0.0
C896 C 0.58443 0.51244 0.6956 0.0
H897 H 0.57873 0.50896 0.7269 0.0
H898 H 0.59031 0.51138 0.70873 0.0
H899 H 0.58173 0.50909 0.65389 0.0
C900 C 0.60919 0.53107 0.91641 0.0
N901 N 0.60007 0.52756 0.90331 0.0
N902 N 0.59926 0.52843 0.84862 0.0
C903 C 0.60786 0.53234 0.82491 0.0
C904 C 0.61444 0.53422 0.86709 0.0
C905 C 0.6128 0.53195 0.97548 0.0
H906 H 0.60914 0.53444 0.00386 0.0
H907 H 0.61131 0.52494 0.99043 0.0
H908 H 0.62046 0.53691 0.97795 0.0
O909 O 0.58297 0.52967 0.94561 0.0
O910 O 0.5817 0.53185 0.85438 0.0
H911 H 0.60873 0.53954 0.74791 0.0
H912 H 0.61685 0.53518 0.75171 0.0
C913 C 0.60967 0.53366 0.76263 0.0
H914 H 0.6046 0.52719 0.74017 0.0
H915 H 0.5921 0.54193 0.75033 0.0
O916 O 0.59214 0.52182 0.02804 0.0
C917 C 0.58046 0.53315 0.90598 0.0
Co918 Co 0.73207 0.80833 0.38457 0.0
Co919 Co 0.72751 0.80564 0.51416 0.0
C920 C 0.73581 0.82457 0.459 0.0
O921 O 0.73608 0.82124 0.4108 0.0
O922 O 0.73262 0.81931 0.50246 0.0
C923 C 0.74234 0.81488 0.27746 0.0
O924 O 0.74863 0.82243 0.30412 0.0
C925 C 0.7298 0.80762 0.63859 0.0
C926 C 0.72053 0.79292 0.66526 0.0
C927 C 0.72688 0.80176 0.68563 0.0
N928 N 0.72558 0.80239 0.59254 0.0
N929 N 0.71994 0.79364 0.60898 0.0
C930 C 0.73617 0.81803 0.63707 0.0
H931 H 0.73324 0.82117 0.60805 0.0
H932 H 0.74315 0.81965 0.62076 0.0
H933 H 0.73695 0.82124 0.67938 0.0
C934 C 0.74324 0.79939 0.41586 0.0
N935 N 0.73754 0.8028 0.42895 0.0
N936 N 0.73593 0.80198 0.48371 0.0
C937 C 0.74078 0.79826 0.50749 0.0
C938 C 0.74549 0.7964 0.46527 0.0
C939 C 0.74597 0.79852 0.35678 0.0
H940 H 0.73981 0.79601 0.32841 0.0
H941 H 0.75147 0.80554 0.34179 0.0
H942 H 0.7487 0.79358 0.35434 0.0
O943 O 0.7183 0.80063 0.38678 0.0
O944 O 0.7149 0.79851 0.47808 0.0
H945 H 0.73488 0.79107 0.58518 0.0
H946 H 0.74744 0.7961 0.58057 0.0
C947 C 0.74148 0.79717 0.56984 0.0
H948 H 0.74255 0.80357 0.59187 0.0
H949 H 0.71591 0.78811 0.58146 0.0
O950 O 0.73534 0.80856 0.30435 0.0
C951 C 0.71232 0.79717 0.42653 0.0
Co952 Co 0.18879 0.92326 0.3735 0.0
Co953 Co 0.19111 0.92152 0.50351 0.0
C954 C 0.17233 0.91092 0.44761 0.0
O955 O 0.17583 0.91438 0.39944 0.0
O956 O 0.17744 0.91306 0.49179 0.0
C957 C 0.18219 0.9269 0.26691 0.0
O958 O 0.1747 0.92564 0.29425 0.0
C959 C 0.18904 0.92153 0.62787 0.0
C960 C 0.20386 0.92788 0.65436 0.0
C961 C 0.19489 0.92477 0.67486 0.0
N962 N 0.19437 0.92296 0.58175 0.0
N963 N 0.2032 0.92661 0.59805 0.0
C964 C 0.17856 0.91674 0.62643 0.0
H965 H 0.17638 0.92161 0.6088 0.0
H966 H 0.17544 0.91433 0.66895 0.0
H967 H 0.17584 0.91054 0.59839 0.0
C968 C 0.19769 0.94343 0.40393 0.0
N969 N 0.19426 0.93433 0.41738 0.0
N970 N 0.19483 0.93355 0.47238 0.0
C971 C 0.19835 0.94212 0.49596 0.0
C972 C 0.2004 0.94868 0.45337 0.0
C973 C 0.1988 0.94701 0.34463 0.0
H974 H 0.20123 0.94321 0.31693 0.0
H975 H 0.19189 0.94568 0.32883 0.0
H976 H 0.20391 0.95464 0.34223 0.0
O977 O 0.19649 0.9172 0.37675 0.0
O978 O 0.19821 0.91592 0.46858 0.0
H979 H 0.20527 0.94393 0.57532 0.0
H980 H 0.19949 0.95073 0.5682 0.0
C981 C 0.19898 0.9439 0.55832 0.0
H982 H 0.19265 0.93828 0.57949 0.0
H983 H 0.20881 0.92851 0.57043 0.0
O984 O 0.18857 0.92624 0.29319 0.0
C985 C 0.19976 0.91467 0.41749 0.0
Co986 Co 0.07349 0.26259 0.36288 0.0
Co987 Co 0.07414 0.26716 0.49153 0.0
C988 C 0.08555 0.25922 0.44216 0.0
O989 O 0.08232 0.25879 0.39259 0.0
O990 O 0.08304 0.2624 0.48366 0.0
C991 C 0.07085 0.25274 0.25473 0.0
O992 O 0.07161 0.24619 0.28191 0.0
C993 C 0.07213 0.26313 0.61283 0.0
C994 C 0.069 0.27386 0.64537 0.0
C995 C 0.06991 0.26627 0.66155 0.0
N996 N 0.07246 0.26859 0.56964 0.0
N997 N 0.0707 0.27507 0.58946 0.0
C998 C 0.07306 0.25459 0.60625 0.0
H999 H 0.0708 0.25157 0.56332 0.0
H1000 H 0.06884 0.24923 0.63859 0.0
H1001 H 0.08054 0.25662 0.61175 0.0
C1002 C 0.0532 0.25071 0.3886 0.0
N1003 N 0.06212 0.25677 0.4039 0.0
N1004 N 0.06236 0.25864 0.45818 0.0
C1005 C 0.05359 0.25376 0.47922 0.0
C1006 C 0.04752 0.24856 0.43593 0.0
C1007 C 0.05028 0.24685 0.3302 0.0
H1008 H 0.05263 0.25272 0.29967 0.0
H1009 H 0.05376 0.24279 0.31885 0.0
H1010 H 0.04257 0.24218 0.32681 0.0
O1011 O 0.0793 0.27639 0.36583 0.0
O1012 O 0.0796 0.27981 0.45664 0.0
H1013 H 0.0539 0.26194 0.55036 0.0
H1014 H 0.04323 0.25082 0.54473 0.0
C1015 C 0.05095 0.25446 0.53885 0.0
H1016 H 0.05392 0.2513 0.56766 0.0
H1017 H 0.07039 0.28014 0.56449 0.0
O1018 O 0.07128 0.25961 0.28178 0.0
C1019 C 0.08129 0.28237 0.40517 0.0
Co1020 Co 0.18745 0.26391 0.37016 0.0
Co1021 Co 0.19078 0.26819 0.49962 0.0
C1022 C 0.17164 0.26009 0.44802 0.0
O1023 O 0.17467 0.25979 0.39898 0.0
O1024 O 0.17715 0.26329 0.49023 0.0
C1025 C 0.18078 0.25342 0.2641 0.0
O1026 O 0.17492 0.24609 0.29418 0.0
C1027 C 0.18803 0.26439 0.6213 0.0
C1028 C 0.20188 0.27477 0.65583 0.0
C1029 C 0.19309 0.26753 0.67123 0.0
N1030 N 0.19358 0.26954 0.57841 0.0
N1031 N 0.20183 0.27578 0.59938 0.0
C1032 C 0.17844 0.25604 0.61348 0.0
H1033 H 0.17783 0.25289 0.5711 0.0
H1034 H 0.17694 0.25067 0.64646 0.0
H1035 H 0.17315 0.2583 0.6168 0.0
C1036 C 0.19682 0.25285 0.39633 0.0
N1037 N 0.19324 0.25833 0.41147 0.0
N1038 N 0.19438 0.25992 0.46625 0.0
C1039 C 0.19854 0.25533 0.48791 0.0
C1040 C 0.20029 0.25076 0.4443 0.0
C1041 C 0.19748 0.25024 0.33661 0.0
H1042 H 0.19909 0.2562 0.30802 0.0
H1043 H 0.19064 0.24418 0.3239 0.0
H1044 H 0.203 0.24828 0.33198 0.0
O1045 O 0.19519 0.27769 0.37412 0.0
O1046 O 0.19791 0.28094 0.46542 0.0
H1047 H 0.20596 0.26193 0.56392 0.0
H1048 H 0.20238 0.24961 0.55924 0.0
C1049 C 0.20033 0.25493 0.54965 0.0
H1050 H 0.19387 0.25307 0.57375 0.0
H1051 H 0.20748 0.28061 0.57496 0.0
O1052 O 0.18649 0.26103 0.28873 0.0
C1053 C 0.19894 0.28359 0.41404 0.0
Co1054 Co 0.7351 0.92424 0.36245 0.0
Co1055 Co 0.7292 0.92252 0.48948 0.0
C1056 C 0.73753 0.91143 0.44133 0.0
O1057 O 0.73842 0.91503 0.39243 0.0
O1058 O 0.73402 0.91368 0.48231 0.0
C1059 C 0.74143 0.92247 0.25211 0.0
O1060 O 0.74083 0.91477 0.27263 0.0
C1061 C 0.73186 0.92359 0.61183 0.0
C1062 C 0.7202 0.92552 0.64161 0.0
C1063 C 0.72788 0.92493 0.66005 0.0
N1064 N 0.72677 0.92342 0.567 0.0
N1065 N 0.71976 0.92449 0.58507 0.0
C1066 C 0.7408 0.92333 0.6074 0.0
H1067 H 0.74404 0.92585 0.56519 0.0
H1068 H 0.74582 0.92771 0.64087 0.0
H1069 H 0.73923 0.91598 0.6127 0.0
C1070 C 0.74669 0.9442 0.39516 0.0
N1071 N 0.74047 0.93519 0.40743 0.0
N1072 N 0.73805 0.93453 0.46097 0.0
C1073 C 0.74268 0.94314 0.48455 0.0
C1074 C 0.74832 0.94952 0.44369 0.0
C1075 C 0.7511 0.94756 0.33832 0.0
H1076 H 0.75419 0.94327 0.32398 0.0
H1077 H 0.75664 0.95507 0.33919 0.0
H1078 H 0.7456 0.94656 0.30743 0.0
O1079 O 0.72126 0.9185 0.35902 0.0
O1080 O 0.71708 0.91742 0.44902 0.0
H1081 H 0.7337 0.94199 0.55331 0.0
H1082 H 0.74461 0.95299 0.55127 0.0
C1083 C 0.7413 0.94532 0.54402 0.0
H1084 H 0.74445 0.94243 0.57354 0.0
H1085 H 0.7148 0.92472 0.55861 0.0
O1086 O 0.73955 0.92754 0.28378 0.0
C1087 C 0.71496 0.9162 0.39676 0.0
Co1088 Co 0.07259 0.80967 0.36631 0.0
Co1089 Co 0.07505 0.80664 0.4951 0.0
C1090 C 0.0856 0.82565 0.43978 0.0
O1091 O 0.08184 0.82251 0.39175 0.0
O1092 O 0.08358 0.82026 0.48246 0.0
C1093 C 0.071 0.81753 0.25998 0.0
O1094 O 0.07533 0.82562 0.28661 0.0
C1095 C 0.07332 0.80887 0.61711 0.0
C1096 C 0.07615 0.79812 0.65295 0.0
C1097 C 0.07408 0.80503 0.66772 0.0
N1098 N 0.07478 0.80436 0.57438 0.0
N1099 N 0.07645 0.79793 0.59612 0.0
C1100 C 0.07195 0.81714 0.60946 0.0
H1101 H 0.07251 0.81914 0.56427 0.0
H1102 H 0.06491 0.81542 0.62502 0.0
H1103 H 0.07725 0.82315 0.6347 0.0
C1104 C 0.05277 0.80114 0.40241 0.0
N1105 N 0.0619 0.80434 0.41368 0.0
N1106 N 0.06283 0.80285 0.46738 0.0
C1107 C 0.05428 0.79854 0.4918 0.0
C1108 C 0.04767 0.79742 0.45162 0.0
C1109 C 0.0491 0.80178 0.34569 0.0
H1110 H 0.05005 0.79715 0.31555 0.0
H1111 H 0.05322 0.80908 0.32972 0.0
H1112 H 0.04157 0.7997 0.34753 0.0
O1113 O 0.07853 0.80175 0.36619 0.0
O1114 O 0.08022 0.79948 0.45689 0.0
H1115 H 0.057 0.79197 0.56209 0.0
H1116 H 0.04492 0.78909 0.55572 0.0
C1117 C 0.05233 0.79477 0.55088 0.0
H1118 H 0.05362 0.8005 0.58056 0.0
H1119 H 0.0779 0.79348 0.57217 0.0
O1120 O 0.069 0.81004 0.28657 0.0
C1121 C 0.08117 0.79819 0.40479 0.0
Co1122 Co 0.92903 0.52189 0.95813 0.0
Co1123 Co 0.93477 0.52526 0.83054 0.0
C1124 C 0.92631 0.50613 0.88258 0.0
O1125 O 0.92557 0.50925 0.93044 0.0
O1126 O 0.92982 0.51156 0.84011 0.0
C1127 C 0.92191 0.51388 0.06793 0.0
O1128 O 0.92158 0.50633 0.04695 0.0
C1129 C 0.93197 0.52344 0.70818 0.0
C1130 C 0.94384 0.53686 0.67778 0.0
C1131 C 0.93598 0.52869 0.65974 0.0
N1132 N 0.93721 0.52831 0.75272 0.0
N1133 N 0.94435 0.53627 0.73426 0.0
C1134 C 0.92288 0.51439 0.71319 0.0
H1135 H 0.9198 0.51376 0.75582 0.0
H1136 H 0.91783 0.51392 0.68039 0.0
H1137 H 0.9242 0.50846 0.70723 0.0
C1138 C 0.91746 0.53007 0.92276 0.0
N1139 N 0.92366 0.52723 0.91151 0.0
N1140 N 0.92603 0.52871 0.85777 0.0
C1141 C 0.9214 0.53261 0.8331 0.0
C1142 C 0.9158 0.53355 0.87342 0.0
C1143 C 0.91301 0.52915 0.97935 0.0
H1144 H 0.91011 0.52185 0.99501 0.0
H1145 H 0.9073 0.53087 0.97747 0.0
H1146 H 0.91845 0.53391 0.0098 0.0
O1147 O 0.94287 0.52996 0.96066 0.0
O1148 O 0.94695 0.53239 0.87029 0.0
H1149 H 0.93035 0.53994 0.76307 0.0
H1150 H 0.91971 0.54052 0.76537 0.0
C1151 C 0.92276 0.53595 0.77313 0.0
H1152 H 0.91933 0.5298 0.74453 0.0
H1153 H 0.94942 0.54142 0.76042 0.0
O1154 O 0.92465 0.52109 0.03683 0.0
C1155 C 0.94913 0.53364 0.92245 0.0
Co1156 Co 0.4753 0.40677 0.96352 0.0
Co1157 Co 0.47147 0.40873 0.83625 0.0
C1158 C 0.49082 0.41936 0.88471 0.0
O1159 O 0.48793 0.41573 0.93335 0.0
O1160 O 0.48518 0.41731 0.84332 0.0
C1161 C 0.48328 0.40905 0.07378 0.0
O1162 O 0.48985 0.41711 0.05338 0.0
C1163 C 0.47302 0.4084 0.71304 0.0
C1164 C 0.45883 0.40508 0.68583 0.0
C1165 C 0.4674 0.40665 0.66573 0.0
N1166 N 0.46797 0.40786 0.75899 0.0
N1167 N 0.45954 0.40598 0.74243 0.0
C1168 C 0.48262 0.40952 0.71542 0.0
H1169 H 0.4837 0.4069 0.75636 0.0
H1170 H 0.48366 0.40566 0.68027 0.0
H1171 H 0.48793 0.41708 0.71156 0.0
C1172 C 0.46591 0.38668 0.93142 0.0
N1173 N 0.46935 0.3958 0.91875 0.0
N1174 N 0.46795 0.39661 0.86481 0.0
C1175 C 0.46367 0.388 0.84111 0.0
C1176 C 0.46218 0.38141 0.88258 0.0
C1177 C 0.46565 0.38312 0.99002 0.0
H1178 H 0.463 0.38648 0.01973 0.0
H1179 H 0.47288 0.38511 0.00319 0.0
H1180 H 0.46108 0.37539 0.9928 0.0
O1181 O 0.46751 0.41283 0.96724 0.0
O1182 O 0.46471 0.41411 0.87695 0.0
H1183 H 0.45581 0.38769 0.76833 0.0
H1184 H 0.45929 0.37887 0.76755 0.0
C1185 C 0.46148 0.3862 0.7794 0.0
H1186 H 0.46779 0.39092 0.75446 0.0
H1187 H 0.45419 0.40507 0.76992 0.0
O1188 O 0.47658 0.40348 0.04191 0.0
C1189 C 0.46375 0.41533 0.92914 0.0
Co1190 Co 0.59069 0.06768 0.96185 0.0
Co1191 Co 0.58861 0.06247 0.83282 0.0
C1192 C 0.57742 0.07019 0.88798 0.0
O1193 O 0.58117 0.07084 0.93605 0.0
O1194 O 0.57964 0.06703 0.84514 0.0
C1195 C 0.59149 0.07679 0.06789 0.0
O1196 O 0.5868 0.0801 0.04065 0.0
C1197 C 0.5902 0.06647 0.71089 0.0
C1198 C 0.58797 0.05311 0.675 0.0
C1199 C 0.58959 0.06194 0.66025 0.0
N1200 N 0.58907 0.06059 0.75359 0.0
N1201 N 0.58777 0.05263 0.73181 0.0
C1202 C 0.59111 0.07592 0.71862 0.0
H1203 H 0.59012 0.07715 0.76352 0.0
H1204 H 0.59818 0.08148 0.70517 0.0
H1205 H 0.58588 0.0765 0.69176 0.0
C1206 C 0.61048 0.07971 0.92702 0.0
N1207 N 0.60145 0.0735 0.91515 0.0
N1208 N 0.60069 0.0712 0.86129 0.0
C1209 C 0.60927 0.07579 0.83737 0.0
C1210 C 0.61572 0.08139 0.87808 0.0
C1211 C 0.61391 0.08402 0.984 0.0
H1212 H 0.6094 0.08676 0.00012 0.0
H1213 H 0.6213 0.08983 0.98254 0.0
H1214 H 0.61331 0.07855 0.01384 0.0
O1215 O 0.58521 0.05384 0.96136 0.0
O1216 O 0.58381 0.05014 0.87031 0.0
H1217 H 0.61892 0.07625 0.77367 0.0
H1218 H 0.60993 0.07853 0.74876 0.0
C1219 C 0.61143 0.07421 0.77826 0.0
H1220 H 0.607 0.06672 0.76659 0.0
H1221 H 0.58661 0.04681 0.75579 0.0
O1222 O 0.594 0.07165 0.04178 0.0
C1223 C 0.58284 0.04776 0.92217 0.0
C1224 C 0.11692 0.41578 0.16832 0.0
C1225 C 0.1249 0.41905 0.20265 0.0
C1226 C 0.1128 0.42131 0.15932 0.0
C1227 C 0.10965 0.43967 0.22172 0.0
H1228 H 0.10385 0.4436 0.06872 0.0
C1229 C 0.09329 0.46285 0.17539 0.0
C1230 C 0.08644 0.45975 0.13291 0.0
C1231 C 0.09868 0.45853 0.18284 0.0
C1232 C 0.10531 0.44248 0.11177 0.0
H1233 H 0.13484 0.43058 0.25485 0.0
H1234 H 0.12742 0.44016 0.24057 0.0
H1235 H 0.11182 0.43467 0.08459 0.0
H1236 H 0.07969 0.44973 0.0653 0.0
H1237 H 0.08887 0.44195 0.07911 0.0
H1238 H 0.10285 0.44714 0.24934 0.0
C1239 C 0.12441 0.43335 0.22038 0.0
C1240 C 0.10991 0.43741 0.12074 0.0
C1241 C 0.12862 0.42787 0.22868 0.0
C1242 C 0.08504 0.45229 0.09787 0.0
C1243 C 0.09033 0.44789 0.1057 0.0
C1244 C 0.10493 0.44464 0.21285 0.0
C1245 C 0.11651 0.43013 0.18525 0.0
C1246 C 0.11206 0.4359 0.17578 0.0
C1247 C 0.09721 0.45094 0.14839 0.0
C1248 C 0.10263 0.44604 0.15775 0.0
H1249 H 0.11383 0.40893 0.14856 0.0
H1250 H 0.10663 0.41862 0.1327 0.0
H1251 H 0.11116 0.43852 0.26461 0.0
H1252 H 0.09448 0.46863 0.20268 0.0
H1253 H 0.104 0.46117 0.21548 0.0
C1254 C 0.5465 0.63084 0.15045 0.0
C1255 C 0.53787 0.62606 0.12211 0.0
C1256 C 0.55074 0.64048 0.16015 0.0
C1257 C 0.5527 0.6621 0.10875 0.0
H1258 H 0.55998 0.67094 0.26256 0.0
C1259 C 0.56888 0.70129 0.16598 0.0
C1260 C 0.57608 0.70489 0.20636 0.0
C1261 C 0.5636 0.69162 0.15656 0.0
C1262 C 0.55812 0.66862 0.21924 0.0
H1263 H 0.52699 0.62757 0.08016 0.0
H1264 H 0.53462 0.64459 0.09543 0.0
H1265 H 0.55219 0.65417 0.24256 0.0
H1266 H 0.58353 0.70144 0.26838 0.0
H1267 H 0.57456 0.68457 0.25087 0.0
H1268 H 0.55895 0.67652 0.08471 0.0
C1269 C 0.53802 0.64082 0.11067 0.0
C1270 C 0.55361 0.65902 0.20794 0.0
C1271 C 0.53369 0.63113 0.10181 0.0
C1272 C 0.57792 0.69875 0.23743 0.0
C1273 C 0.57274 0.6891 0.22752 0.0
C1274 C 0.55736 0.67174 0.11985 0.0
C1275 C 0.5465 0.64553 0.1407 0.0
C1276 C 0.55092 0.65568 0.15259 0.0
C1277 C 0.56552 0.6854 0.18682 0.0
C1278 C 0.56019 0.67513 0.17523 0.0
H1279 H 0.54994 0.62711 0.16555 0.0
H1280 H 0.55736 0.64399 0.18269 0.0
H1281 H 0.55074 0.65968 0.06565 0.0
H1282 H 0.56736 0.70596 0.14178 0.0
H1283 H 0.558 0.68904 0.12566 0.0
C1284 C 0.36552 0.90185 0.09722 0.0
C1285 C 0.3706 0.91067 0.12326 0.0
C1286 C 0.35584 0.89632 0.10572 0.0
C1287 C 0.33751 0.89225 0.20731 0.0
H1288 H 0.32021 0.88206 0.08125 0.0
C1289 C 0.29793 0.87769 0.2356 0.0
C1290 C 0.29169 0.87006 0.20227 0.0
C1291 C 0.30758 0.882 0.22616 0.0
C1292 C 0.32494 0.88469 0.11704 0.0
H1293 H 0.36957 0.92079 0.17694 0.0
H1294 H 0.35271 0.91103 0.19305 0.0
H1295 H 0.33709 0.89069 0.06354 0.0
H1296 H 0.29045 0.86078 0.13396 0.0
H1297 H 0.30738 0.86812 0.11819 0.0
H1298 H 0.32546 0.88621 0.26105 0.0
C1299 C 0.35621 0.90836 0.16642 0.0
C1300 C 0.3346 0.88966 0.10677 0.0
C1301 C 0.36584 0.91393 0.15727 0.0
C1302 C 0.2952 0.8667 0.1599 0.0
C1303 C 0.30486 0.87095 0.15075 0.0
C1304 C 0.32787 0.88719 0.21766 0.0
C1305 C 0.35113 0.89949 0.14101 0.0
C1306 C 0.34095 0.89362 0.15178 0.0
C1307 C 0.31118 0.8787 0.18352 0.0
C1308 C 0.32145 0.88349 0.17262 0.0
H1309 H 0.36907 0.89916 0.07118 0.0
H1310 H 0.35206 0.88948 0.08582 0.0
H1311 H 0.34229 0.89512 0.24279 0.0
H1312 H 0.29533 0.88043 0.26813 0.0
H1313 H 0.3122 0.88806 0.25148 0.0
C1314 C 0.4502 0.08271 0.84583 0.0
C1315 C 0.45864 0.08645 0.87629 0.0
C1316 C 0.44583 0.088 0.8373 0.0
C1317 C 0.44306 0.10688 0.89472 0.0
H1318 H 0.43582 0.10904 0.74184 0.0
C1319 C 0.42586 0.12917 0.84276 0.0
C1320 C 0.41868 0.12553 0.80223 0.0
C1321 C 0.43135 0.125 0.85136 0.0
C1322 C 0.43768 0.10841 0.78488 0.0
H1323 H 0.46902 0.09852 0.92303 0.0
H1324 H 0.46117 0.10774 0.90951 0.0
H1325 H 0.44411 0.10047 0.75907 0.0
H1326 H 0.41142 0.11469 0.73959 0.0
H1327 H 0.42079 0.10718 0.75549 0.0
H1328 H 0.43634 0.1145 0.92107 0.0
C1329 C 0.45803 0.10074 0.89181 0.0
C1330 C 0.44247 0.10355 0.79462 0.0
C1331 C 0.46249 0.09548 0.89963 0.0
C1332 C 0.41702 0.11766 0.77054 0.0
C1333 C 0.42243 0.11341 0.77954 0.0
C1334 C 0.43815 0.11165 0.88512 0.0
C1335 C 0.44973 0.09708 0.85991 0.0
C1336 C 0.44512 0.10267 0.84964 0.0
C1337 C 0.42968 0.11703 0.82004 0.0
C1338 C 0.43531 0.11239 0.83011 0.0
H1339 H 0.44701 0.07568 0.82838 0.0
H1340 H 0.43936 0.08497 0.81331 0.0
H1341 H 0.44499 0.10623 0.93758 0.0
H1342 H 0.42724 0.13528 0.86749 0.0
H1343 H 0.43695 0.12806 0.88227 0.0
C1344 C 0.86757 0.29806 0.7639 0.0
C1345 C 0.87171 0.29296 0.78421 0.0
C1346 C 0.87201 0.30777 0.77182 0.0
C1347 C 0.88832 0.32625 0.8659 0.0
H1348 H 0.89274 0.34328 0.74124 0.0
C1349 C 0.91296 0.36604 0.88823 0.0
C1350 C 0.91076 0.37208 0.85878 0.0
C1351 C 0.90774 0.35637 0.87937 0.0
C1352 C 0.89142 0.33863 0.77676 0.0
H1353 H 0.88382 0.29396 0.8269 0.0
H1354 H 0.89148 0.31091 0.8422 0.0
H1355 H 0.88434 0.32637 0.72456 0.0
H1356 H 0.90143 0.37293 0.79776 0.0
H1357 H 0.89203 0.35595 0.78337 0.0
H1358 H 0.89519 0.3384 0.91852 0.0
C1359 C 0.88479 0.3074 0.82044 0.0
C1360 C 0.88665 0.32895 0.76705 0.0
C1361 C 0.88042 0.29773 0.81176 0.0
C1362 C 0.90322 0.36834 0.82075 0.0
C1363 C 0.89791 0.35865 0.81232 0.0
C1364 C 0.89297 0.33591 0.87582 0.0
C1365 C 0.8806 0.3125 0.80085 0.0
C1366 C 0.88518 0.3227 0.8114 0.0
C1367 C 0.90014 0.35254 0.84129 0.0
C1368 C 0.8947 0.34223 0.83123 0.0
H1369 H 0.86082 0.2945 0.74285 0.0
H1370 H 0.86864 0.31156 0.75653 0.0
H1371 H 0.88714 0.32155 0.90095 0.0
H1372 H 0.91884 0.36884 0.91726 0.0
H1373 H 0.9098 0.35192 0.90155 0.0
C1374 C 0.62983 0.53502 0.88492 0.0
C1375 C 0.62474 0.53889 0.86065 0.0
C1376 C 0.63953 0.53931 0.87672 0.0
C1377 C 0.65798 0.55447 0.77799 0.0
H1378 H 0.67504 0.56012 0.90411 0.0
C1379 C 0.6978 0.57904 0.75442 0.0
C1380 C 0.70382 0.57715 0.78643 0.0
C1381 C 0.68811 0.57381 0.76277 0.0
C1382 C 0.67038 0.55845 0.86824 0.0
H1383 H 0.62574 0.55038 0.81055 0.0
H1384 H 0.64265 0.55776 0.79505 0.0
H1385 H 0.65814 0.55194 0.92096 0.0
H1386 H 0.70463 0.5683 0.85125 0.0
H1387 H 0.68764 0.55891 0.8649 0.0
H1388 H 0.67012 0.56082 0.725 0.0
C1389 C 0.63915 0.55139 0.82001 0.0
C1390 C 0.66071 0.5538 0.87803 0.0
C1391 C 0.6295 0.54718 0.82884 0.0
C1392 C 0.70005 0.56987 0.82627 0.0
C1393 C 0.69036 0.56456 0.83427 0.0
C1394 C 0.66763 0.55901 0.76808 0.0
C1395 C 0.64424 0.54746 0.84357 0.0
C1396 C 0.65444 0.55189 0.83308 0.0
C1397 C 0.68426 0.56652 0.80299 0.0
C1398 C 0.67396 0.56118 0.81316 0.0
H1399 H 0.62628 0.52859 0.90929 0.0
H1400 H 0.64331 0.53614 0.89514 0.0
H1401 H 0.65327 0.55295 0.7425 0.0
H1402 H 0.70061 0.58472 0.72396 0.0
H1403 H 0.68367 0.57565 0.73867 0.0
C1404 C 0.90267 0.53416 0.82493 0.0
C1405 C 0.90978 0.53772 0.86587 0.0
C1406 C 0.89713 0.5383 0.81671 0.0
C1407 C 0.89058 0.55464 0.88431 0.0
H1408 H 0.88402 0.55759 0.73115 0.0
C1409 C 0.8789 0.58106 0.82461 0.0
C1410 C 0.87071 0.57765 0.79197 0.0
C1411 C 0.88303 0.57555 0.83351 0.0
C1412 C 0.88572 0.55672 0.77414 0.0
H1413 H 0.91682 0.54834 0.93008 0.0
H1414 H 0.90737 0.55578 0.91495 0.0
H1415 H 0.89243 0.5491 0.74767 0.0
H1416 H 0.86049 0.56593 0.74218 0.0
H1417 H 0.86793 0.55634 0.75635 0.0
H1418 H 0.88417 0.56259 0.91031 0.0
C1419 C 0.90583 0.54965 0.89012 0.0
C1420 C 0.89051 0.55183 0.78372 0.0
C1421 C 0.91128 0.54544 0.89867 0.0
C1422 C 0.86685 0.56873 0.76712 0.0
C1423 C 0.87107 0.56325 0.77536 0.0
C1424 C 0.88591 0.55962 0.87461 0.0
C1425 C 0.89869 0.54614 0.84895 0.0
C1426 C 0.89309 0.55083 0.83891 0.0
C1427 C 0.87913 0.56659 0.80919 0.0
C1428 C 0.88354 0.5608 0.81942 0.0
H1429 H 0.90139 0.52816 0.79943 0.0
H1430 H 0.89161 0.53533 0.78527 0.0
H1431 H 0.89225 0.55382 0.92744 0.0
H1432 H 0.8821 0.58799 0.84337 0.0
H1433 H 0.88933 0.57834 0.85902 0.0
C1434 C 0.41672 0.29825 0.76446 0.0
C1435 C 0.41893 0.29219 0.79357 0.0
C1436 C 0.42187 0.30791 0.77419 0.0
C1437 C 0.43788 0.32542 0.87898 0.0
H1438 H 0.44219 0.34285 0.75684 0.0
C1439 C 0.46151 0.36599 0.8961 0.0
C1440 C 0.45736 0.37111 0.87611 0.0
C1441 C 0.4571 0.35629 0.8874 0.0
C1442 C 0.441 0.33805 0.79134 0.0
H1443 H 0.42821 0.29129 0.85471 0.0
H1444 H 0.43748 0.30823 0.87054 0.0
H1445 H 0.43431 0.32607 0.73728 0.0
H1446 H 0.44527 0.37015 0.8334 0.0
H1447 H 0.43768 0.35324 0.81679 0.0
H1448 H 0.44478 0.33752 0.93262 0.0
C1449 C 0.43165 0.30557 0.84124 0.0
C1450 C 0.43645 0.32843 0.78028 0.0
C1451 C 0.42641 0.29589 0.83196 0.0
C1452 C 0.44868 0.36637 0.84829 0.0
C1453 C 0.44435 0.35672 0.83885 0.0
C1454 C 0.44256 0.33506 0.88983 0.0
C1455 C 0.42939 0.3117 0.8128 0.0
C1456 C 0.43471 0.32197 0.82409 0.0
C1457 C 0.44855 0.35161 0.85794 0.0
C1458 C 0.44404 0.34144 0.84624 0.0
H1459 H 0.41087 0.29548 0.73518 0.0
H1460 H 0.41979 0.31237 0.75235 0.0
H1461 H 0.43655 0.32066 0.91395 0.0
H1462 H 0.46824 0.36952 0.91737 0.0
H1463 H 0.46048 0.35249 0.90234 0.0
C1464 C 0.62959 0.0942 0.82858 0.0
C1465 C 0.62595 0.08734 0.87103 0.0
C1466 C 0.63928 0.09957 0.82014 0.0
C1467 C 0.66214 0.10613 0.88845 0.0
H1468 H 0.67153 0.11172 0.73463 0.0
C1469 C 0.70018 0.11732 0.83021 0.0
C1470 C 0.70497 0.12536 0.79631 0.0
C1471 C 0.69054 0.11321 0.83871 0.0
C1472 C 0.66899 0.11028 0.77777 0.0
H1473 H 0.62938 0.08056 0.93766 0.0
H1474 H 0.64629 0.08971 0.92226 0.0
H1475 H 0.65464 0.10358 0.75166 0.0
H1476 H 0.70348 0.13531 0.74371 0.0
H1477 H 0.68645 0.1279 0.75719 0.0
H1478 H 0.67652 0.11254 0.91417 0.0
C1479 C 0.64176 0.0912 0.8964 0.0
C1480 C 0.65932 0.10566 0.78765 0.0
C1481 C 0.63208 0.08592 0.90517 0.0
C1482 C 0.69991 0.12906 0.76963 0.0
C1483 C 0.69021 0.12486 0.77749 0.0
C1484 C 0.67178 0.11064 0.87849 0.0
C1485 C 0.64548 0.09807 0.85361 0.0
C1486 C 0.65577 0.10344 0.84313 0.0
C1487 C 0.68547 0.11697 0.81275 0.0
C1488 C 0.67528 0.11267 0.82307 0.0
H1489 H 0.62494 0.09541 0.80195 0.0
H1490 H 0.64189 0.10489 0.78745 0.0
H1491 H 0.65968 0.10474 0.93175 0.0
H1492 H 0.70391 0.11424 0.85042 0.0
H1493 H 0.68701 0.10704 0.86536 0.0
C1494 C 0.54438 0.91149 0.08814 0.0
C1495 C 0.53688 0.9101 0.12269 0.0
C1496 C 0.54872 0.90615 0.09625 0.0
C1497 C 0.55182 0.89154 0.20379 0.0
H1498 H 0.5619 0.88464 0.07613 0.0
C1499 C 0.56913 0.86831 0.22128 0.0
C1500 C 0.57791 0.87208 0.19467 0.0
C1501 C 0.56352 0.87238 0.21288 0.0
C1502 C 0.55913 0.88655 0.11212 0.0
H1503 H 0.52785 0.90203 0.19191 0.0
H1504 H 0.53523 0.89244 0.20531 0.0
H1505 H 0.55289 0.89251 0.05966 0.0
H1506 H 0.58783 0.88312 0.13964 0.0
H1507 H 0.57794 0.89009 0.12372 0.0
H1508 H 0.55801 0.88544 0.25603 0.0
C1509 C 0.53793 0.89779 0.17276 0.0
C1510 C 0.55401 0.89109 0.10279 0.0
C1511 C 0.53367 0.90322 0.16498 0.0
C1512 C 0.58102 0.88 0.15983 0.0
C1513 C 0.57537 0.88397 0.15078 0.0
C1514 C 0.55685 0.88688 0.21303 0.0
C1515 C 0.54557 0.89924 0.13879 0.0
C1516 C 0.55043 0.89379 0.14855 0.0
C1517 C 0.56657 0.8802 0.17712 0.0
C1518 C 0.56067 0.88449 0.16732 0.0
H1519 H 0.54703 0.91688 0.05576 0.0
H1520 H 0.55469 0.90761 0.07004 0.0
H1521 H 0.54929 0.89363 0.2401 0.0
H1522 H 0.56654 0.86215 0.2479 0.0
H1523 H 0.55674 0.86933 0.23344 0.0
C1524 C 0.09366 0.62955 0.16753 0.0
C1525 C 0.08646 0.62576 0.12714 0.0
C1526 C 0.09905 0.63926 0.17473 0.0
C1527 C 0.10495 0.66194 0.10614 0.0
H1528 H 0.11147 0.67162 0.25899 0.0
C1529 C 0.11627 0.70007 0.16513 0.0
C1530 C 0.12437 0.70487 0.19847 0.0
C1531 C 0.11224 0.69044 0.15595 0.0
C1532 C 0.10978 0.669 0.21607 0.0
H1533 H 0.07918 0.62895 0.06259 0.0
H1534 H 0.08839 0.64592 0.07593 0.0
H1535 H 0.10337 0.6547 0.24297 0.0
H1536 H 0.13457 0.70345 0.24895 0.0
H1537 H 0.12732 0.68646 0.23425 0.0
H1538 H 0.11108 0.67627 0.07973 0.0
C1539 C 0.09009 0.64148 0.10115 0.0
C1540 C 0.10517 0.65932 0.20676 0.0
C1541 C 0.08477 0.63177 0.0936 0.0
C1542 C 0.12827 0.69986 0.22351 0.0
C1543 C 0.12415 0.69019 0.21498 0.0
C1544 C 0.10945 0.6716 0.11556 0.0
C1545 C 0.09726 0.64535 0.14206 0.0
C1546 C 0.10262 0.65566 0.1517 0.0
C1547 C 0.11615 0.68541 0.18066 0.0
C1548 C 0.11182 0.67521 0.17063 0.0
H1549 H 0.09507 0.62498 0.19359 0.0
H1550 H 0.10461 0.64199 0.20592 0.0
H1551 H 0.10329 0.6594 0.06309 0.0
H1552 H 0.11305 0.70376 0.14614 0.0
H1553 H 0.10598 0.68689 0.13003 0.0
C1554 C 0.36742 0.46219 0.18581 0.0
C1555 C 0.37096 0.45899 0.1427 0.0
C1556 C 0.35777 0.45783 0.19537 0.0
C1557 C 0.33472 0.44152 0.12956 0.0
H1558 H 0.32586 0.43784 0.28459 0.0
C1559 C 0.29653 0.41556 0.19033 0.0
C1560 C 0.29208 0.41907 0.22515 0.0
C1561 C 0.30619 0.42075 0.18149 0.0
C1562 C 0.32825 0.4389 0.24113 0.0
H1563 H 0.36737 0.44877 0.07592 0.0
H1564 H 0.35049 0.44094 0.09325 0.0
H1565 H 0.3427 0.44641 0.26548 0.0
H1566 H 0.29424 0.43056 0.27974 0.0
H1567 H 0.31128 0.43956 0.26545 0.0
H1568 H 0.32025 0.43373 0.10554 0.0
C1569 C 0.35509 0.44697 0.11883 0.0
C1570 C 0.33789 0.44384 0.23006 0.0
C1571 C 0.36474 0.45141 0.10895 0.0
C1572 C 0.29752 0.42768 0.25294 0.0
C1573 C 0.30723 0.43283 0.24463 0.0
C1574 C 0.32511 0.43649 0.1407 0.0
C1575 C 0.35148 0.4501 0.16238 0.0
C1576 C 0.34124 0.44516 0.17412 0.0
C1577 C 0.31162 0.42947 0.20803 0.0
C1578 C 0.3218 0.43508 0.19656 0.0
H1579 H 0.37214 0.46807 0.21211 0.0
H1580 H 0.35524 0.46053 0.22856 0.0
H1581 H 0.33703 0.44257 0.08596 0.0
H1582 H 0.29251 0.40883 0.16949 0.0
H1583 H 0.30943 0.41793 0.1539 0.0
C1584 C 0.76019 0.79583 0.44687 0.0
C1585 C 0.75127 0.79191 0.47189 0.0
C1586 C 0.76573 0.79169 0.45513 0.0
C1587 C 0.76945 0.77684 0.55443 0.0
H1588 H 0.78064 0.77107 0.42774 0.0
C1589 C 0.78444 0.75207 0.57663 0.0
C1590 C 0.79233 0.75391 0.54444 0.0
C1591 C 0.78007 0.75738 0.5687 0.0
C1592 C 0.77772 0.77278 0.46374 0.0
H1593 H 0.74102 0.7805 0.52355 0.0
H1594 H 0.75078 0.77339 0.53905 0.0
H1595 H 0.77187 0.7792 0.41127 0.0
H1596 H 0.802 0.76276 0.47972 0.0
H1597 H 0.79454 0.77228 0.46666 0.0
H1598 H 0.77533 0.77055 0.60714 0.0
C1599 C 0.75351 0.77968 0.51347 0.0
C1600 C 0.77267 0.7774 0.45419 0.0
C1601 C 0.74794 0.78374 0.50463 0.0
C1602 C 0.79589 0.76123 0.50483 0.0
C1603 C 0.79158 0.76662 0.49719 0.0
C1604 C 0.77458 0.77232 0.5641 0.0
C1605 C 0.76248 0.78364 0.48908 0.0
C1606 C 0.76836 0.77933 0.49936 0.0
C1607 C 0.78355 0.7647 0.52867 0.0
C1608 C 0.77865 0.7701 0.51878 0.0
H1609 H 0.76292 0.80217 0.42183 0.0
H1610 H 0.77264 0.79489 0.43606 0.0
H1611 H 0.76631 0.77838 0.59009 0.0
H1612 H 0.78153 0.74636 0.60692 0.0
H1613 H 0.77381 0.75558 0.59293 0.0
C1614 C 0.2126 0.96383 0.49516 0.0
C1615 C 0.20475 0.95896 0.45989 0.0
C1616 C 0.21649 0.97345 0.50404 0.0
C1617 C 0.21928 0.99489 0.44218 0.0
H1618 H 0.22435 0.00417 0.59632 0.0
C1619 C 0.23528 0.0343 0.49261 0.0
C1620 C 0.24212 0.03792 0.53519 0.0
C1621 C 0.22985 0.02462 0.48434 0.0
C1622 C 0.22308 0.00172 0.55299 0.0
H1623 H 0.1949 0.9603 0.40538 0.0
H1624 H 0.20193 0.97728 0.41957 0.0
H1625 H 0.2167 0.98733 0.57868 0.0
H1626 H 0.24873 0.03444 0.60258 0.0
H1627 H 0.23945 0.01752 0.58755 0.0
H1628 H 0.22596 0.00925 0.41615 0.0
C1629 C 0.205 0.9736 0.44063 0.0
C1630 C 0.21866 0.99207 0.54298 0.0
C1631 C 0.20101 0.96392 0.43237 0.0
C1632 C 0.2434 0.03176 0.56987 0.0
C1633 C 0.23805 0.02208 0.56133 0.0
C1634 C 0.22381 0.00456 0.45213 0.0
C1635 C 0.2127 0.97841 0.47713 0.0
C1636 C 0.21682 0.98858 0.4875 0.0
C1637 C 0.23124 0.01838 0.51823 0.0
C1638 C 0.22587 0.00809 0.50767 0.0
H1639 H 0.21571 0.96019 0.51605 0.0
H1640 H 0.22252 0.97703 0.53164 0.0
H1641 H 0.21799 0.99236 0.39899 0.0
H1642 H 0.23417 0.03898 0.46563 0.0
H1643 H 0.22457 0.02202 0.4514 0.0
C1644 C 0.96344 0.20137 0.5428 0.0
C1645 C 0.95845 0.20539 0.51902 0.0
C1646 C 0.97305 0.20532 0.53255 0.0
C1647 C 0.9914 0.22007 0.43105 0.0
H1648 H 0.00862 0.22509 0.55547 0.0
C1649 C 0.03131 0.24449 0.40842 0.0
C1650 C 0.03728 0.24242 0.4397 0.0
C1651 C 0.0216 0.23916 0.41574 0.0
C1652 C 0.0039 0.22358 0.52004 0.0
H1653 H 0.95953 0.21674 0.46719 0.0
H1654 H 0.9763 0.22356 0.44843 0.0
H1655 H 0.99179 0.21727 0.57365 0.0
H1656 H 0.03797 0.2331 0.50155 0.0
H1657 H 0.02095 0.22357 0.51351 0.0
H1658 H 0.00346 0.22633 0.37727 0.0
C1659 C 0.97278 0.21733 0.47452 0.0
C1660 C 0.99427 0.21913 0.53058 0.0
C1661 C 0.96322 0.21344 0.48528 0.0
C1662 C 0.03344 0.2348 0.4772 0.0
C1663 C 0.02372 0.22942 0.48425 0.0
C1664 C 0.00102 0.22444 0.42039 0.0
C1665 C 0.97779 0.21329 0.49789 0.0
C1666 C 0.98794 0.21746 0.4863 0.0
C1667 C 0.01769 0.23162 0.45427 0.0
C1668 C 0.00741 0.22637 0.46487 0.0
H1669 H 0.95987 0.1951 0.56854 0.0
H1670 H 0.97674 0.20204 0.55082 0.0
H1671 H 0.98665 0.21873 0.39602 0.0
H1672 H 0.03418 0.25042 0.3797 0.0
H1673 H 0.01719 0.24116 0.3926 0.0
C1674 C 0.23567 0.20056 0.48519 0.0
C1675 C 0.24268 0.20393 0.52677 0.0
C1676 C 0.23038 0.20494 0.47627 0.0
C1677 C 0.22447 0.22195 0.54159 0.0
H1678 H 0.21827 0.22484 0.38739 0.0
C1679 C 0.2135 0.24877 0.47871 0.0
C1680 C 0.20508 0.24522 0.44836 0.0
C1681 C 0.21767 0.24328 0.48689 0.0
C1682 C 0.21989 0.224 0.43063 0.0
H1683 H 0.24978 0.21444 0.59143 0.0
H1684 H 0.24077 0.22232 0.57503 0.0
H1685 H 0.22625 0.21597 0.40586 0.0
H1686 H 0.1946 0.23337 0.40049 0.0
H1687 H 0.20211 0.22382 0.41334 0.0
H1688 H 0.21843 0.23032 0.56584 0.0
C1689 C 0.23911 0.21614 0.55029 0.0
C1690 C 0.22442 0.21889 0.44137 0.0
C1691 C 0.2443 0.21168 0.55963 0.0
C1692 C 0.20111 0.23625 0.42395 0.0
C1693 C 0.20538 0.2308 0.43141 0.0
C1694 C 0.22008 0.22717 0.53072 0.0
C1695 C 0.2321 0.21286 0.50829 0.0
C1696 C 0.22684 0.21787 0.49699 0.0
C1697 C 0.21359 0.23421 0.46392 0.0
C1698 C 0.21784 0.22831 0.47516 0.0
H1699 H 0.23432 0.19456 0.45953 0.0
H1700 H 0.22494 0.20212 0.44427 0.0
H1701 H 0.22601 0.22113 0.58503 0.0
H1702 H 0.21679 0.25575 0.49685 0.0
H1703 H 0.2241 0.24612 0.51129 0.0
C1704 C 0.76159 0.9634 0.4901 0.0
C1705 C 0.75431 0.95974 0.45028 0.0
C1706 C 0.7669 0.97308 0.49902 0.0
C1707 C 0.77214 0.99607 0.43727 0.0
H1708 H 0.77933 0.0048 0.59139 0.0
C1709 C 0.78346 0.03372 0.50899 0.0
C1710 C 0.79196 0.03842 0.53885 0.0
C1711 C 0.77933 0.02413 0.49786 0.0
C1712 C 0.77743 0.00244 0.54813 0.0
H1713 H 0.7468 0.96312 0.38828 0.0
H1714 H 0.75582 0.98002 0.4049 0.0
H1715 H 0.77132 0.98801 0.57132 0.0
H1716 H 0.80271 0.03682 0.58173 0.0
H1717 H 0.79527 0.0199 0.56393 0.0
H1718 H 0.77794 0.01056 0.41483 0.0
C1719 C 0.75767 0.97552 0.42827 0.0
C1720 C 0.77289 0.99283 0.53645 0.0
C1721 C 0.75247 0.96585 0.41885 0.0
C1722 C 0.79612 0.03332 0.55897 0.0
C1723 C 0.7919 0.02368 0.54865 0.0
C1724 C 0.77655 0.00566 0.44915 0.0
C1725 C 0.76491 0.97926 0.46884 0.0
C1726 C 0.77013 0.98952 0.48088 0.0
C1727 C 0.78353 0.01904 0.51735 0.0
C1728 C 0.77918 0.00892 0.5047 0.0
H1729 H 0.76312 0.95875 0.51456 0.0
H1730 H 0.77252 0.97569 0.52974 0.0
H1731 H 0.77032 0.99382 0.39383 0.0
H1732 H 0.78005 0.03748 0.49394 0.0
H1733 H 0.77281 0.02067 0.47435 0.0
C1734 C 0.96309 0.74818 0.51035 0.0
C1735 C 0.95853 0.75206 0.54077 0.0
C1736 C 0.97278 0.75328 0.50245 0.0
C1737 C 0.99304 0.77755 0.5069 0.0
H1738 H 0.00728 0.7646 0.50116 0.0
C1739 C 0.03371 0.79604 0.50139 0.0
C1740 C 0.03744 0.79281 0.45956 0.0
C1741 C 0.02405 0.79135 0.51135 0.0
C1742 C 0.00337 0.76828 0.50233 0.0
H1743 H 0.96046 0.76416 0.58807 0.0
H1744 H 0.97751 0.77298 0.5765 0.0
H1745 H 0.99055 0.75578 0.52219 0.0
H1746 H 0.03422 0.78226 0.39533 0.0
H1747 H 0.01726 0.77392 0.41333 0.0
H1748 H 0.00602 0.7901 0.48846 0.0
C1749 C 0.97358 0.7661 0.55726 0.0
C1750 C 0.99378 0.76324 0.51418 0.0
C1751 C 0.96385 0.76103 0.56452 0.0
C1752 C 0.03143 0.78488 0.42749 0.0
C1753 C 0.02179 0.7801 0.43804 0.0
C1754 C 0.00267 0.78261 0.49589 0.0
C1755 C 0.97816 0.76232 0.52567 0.0
C1756 C 0.98847 0.76779 0.51597 0.0
C1757 C 0.01803 0.78327 0.48027 0.0
C1758 C 0.00788 0.77799 0.49292 0.0
H1759 H 0.95913 0.74122 0.4922 0.0
H1760 H 0.97601 0.75018 0.47719 0.0
H1761 H 0.98916 0.78127 0.50707 0.0
H1762 H 0.03828 0.80215 0.5266 0.0
H1763 H 0.02131 0.79389 0.54434 0.0
C1764 C 0.08743 0.29531 0.33347 0.0
C1765 C 0.08576 0.29246 0.3904 0.0
C1766 C 0.09185 0.30482 0.31921 0.0
C1767 C 0.1076 0.32832 0.37715 0.0
H1768 H 0.09913 0.33678 0.24871 0.0
C1769 C 0.12315 0.36756 0.32609 0.0
C1770 C 0.125 0.3703 0.26904 0.0
C1771 C 0.11808 0.35809 0.34088 0.0
C1772 C 0.10164 0.33451 0.28431 0.0
H1773 H 0.08735 0.29741 0.47694 0.0
H1774 H 0.09505 0.31402 0.4519 0.0
H1775 H 0.09067 0.32022 0.27527 0.0
H1776 H 0.12288 0.36517 0.18274 0.0
H1777 H 0.11412 0.34858 0.2087 0.0
H1778 H 0.11861 0.34258 0.386 0.0
C1779 C 0.09301 0.30888 0.41839 0.0
C1780 C 0.09679 0.32503 0.29959 0.0
C1781 C 0.08855 0.29935 0.4327 0.0
C1782 C 0.12158 0.36331 0.22707 0.0
C1783 C 0.11651 0.3538 0.24193 0.0
C1784 C 0.11246 0.33779 0.36184 0.0
C1785 C 0.09474 0.31171 0.36147 0.0
C1786 C 0.09973 0.32183 0.34612 0.0
C1787 C 0.11475 0.35109 0.29905 0.0
C1788 C 0.10954 0.341 0.31521 0.0
H1789 H 0.08538 0.29021 0.29973 0.0
H1790 H 0.09319 0.30677 0.27502 0.0
H1791 H 0.11014 0.32605 0.41262 0.0
H1792 H 0.12562 0.37275 0.35959 0.0
H1793 H 0.11672 0.35624 0.3852 0.0
C1794 C 0.63185 0.75631 0.24353 0.0
C1795 C 0.62467 0.75312 0.28421 0.0
C1796 C 0.64126 0.76076 0.26004 0.0
C1797 C 0.65683 0.76394 0.38089 0.0
H1798 H 0.67461 0.78615 0.2983 0.0
C1799 C 0.69528 0.78815 0.45434 0.0
C1800 C 0.70222 0.79164 0.412 0.0
C1801 C 0.68575 0.7832 0.43991 0.0
C1802 C 0.66976 0.7799 0.32142 0.0
H1803 H 0.62179 0.75201 0.37431 0.0
H1804 H 0.63821 0.75983 0.40296 0.0
H1805 H 0.65816 0.77792 0.27067 0.0
H1806 H 0.70453 0.79247 0.32127 0.0
H1807 H 0.688 0.78379 0.2964 0.0
H1808 H 0.66847 0.76594 0.43166 0.0
C1809 C 0.63655 0.75881 0.35831 0.0
C1810 C 0.66032 0.77518 0.30556 0.0
C1811 C 0.62713 0.75437 0.34182 0.0
C1812 C 0.6994 0.78995 0.35505 0.0
C1813 C 0.68991 0.78501 0.3407 0.0
C1814 C 0.66629 0.76866 0.39677 0.0
C1815 C 0.64372 0.76212 0.31759 0.0
C1816 C 0.65375 0.76712 0.33492 0.0
C1817 C 0.68296 0.78165 0.38287 0.0
C1818 C 0.67287 0.77668 0.36701 0.0
H1819 H 0.63022 0.75542 0.19881 0.0
H1820 H 0.64662 0.7631 0.22764 0.0
H1821 H 0.65195 0.75769 0.404 0.0
H1822 H 0.6972 0.78933 0.49861 0.0
H1823 H 0.68057 0.78076 0.47339 0.0
C1824 C 0.20735 0.90898 0.34843 0.0
C1825 C 0.20539 0.91013 0.4048 0.0
C1826 C 0.21252 0.9046 0.33595 0.0
C1827 C 0.21931 0.88813 0.39422 0.0
H1828 H 0.23774 0.89777 0.27354 0.0
C1829 C 0.24247 0.8719 0.33999 0.0
C1830 C 0.24368 0.87075 0.28224 0.0
C1831 C 0.23827 0.87707 0.35707 0.0
C1832 C 0.23256 0.89494 0.30702 0.0
H1833 H 0.20741 0.90759 0.49232 0.0
H1834 H 0.2165 0.89994 0.47036 0.0
H1835 H 0.22963 0.9062 0.30003 0.0
H1836 H 0.24144 0.8742 0.1972 0.0
H1837 H 0.23404 0.88312 0.22702 0.0
H1838 H 0.22217 0.87681 0.40077 0.0
C1839 C 0.21394 0.90239 0.43588 0.0
C1840 C 0.22792 0.89977 0.32223 0.0
C1841 C 0.20878 0.90681 0.44844 0.0
C1842 C 0.24064 0.87495 0.24202 0.0
C1843 C 0.23645 0.88012 0.25913 0.0
C1844 C 0.22395 0.88329 0.37897 0.0
C1845 C 0.21586 0.90123 0.37945 0.0
C1846 C 0.22117 0.89637 0.3656 0.0
C1847 C 0.23519 0.88123 0.31684 0.0
C1848 C 0.23056 0.88659 0.33479 0.0
H1849 H 0.20484 0.91143 0.3137 0.0
H1850 H 0.21376 0.90369 0.29202 0.0
H1851 H 0.21407 0.88526 0.42734 0.0
H1852 H 0.24475 0.86879 0.37215 0.0
H1853 H 0.2375 0.87788 0.40186 0.0
C1854 C 0.29893 0.08796 0.56895 0.0
C1855 C 0.29173 0.08515 0.60924 0.0
C1856 C 0.3083 0.09208 0.58592 0.0
C1857 C 0.32399 0.10489 0.70499 0.0
H1858 H 0.34127 0.09908 0.62802 0.0
C1859 C 0.36243 0.12017 0.77762 0.0
C1860 C 0.36928 0.1236 0.73478 0.0
C1861 C 0.3529 0.11491 0.76405 0.0
C1862 C 0.33655 0.10083 0.64965 0.0
H1863 H 0.28876 0.08434 0.69915 0.0
H1864 H 0.30509 0.09144 0.72863 0.0
H1865 H 0.32474 0.0909 0.60115 0.0
H1866 H 0.37144 0.12403 0.64403 0.0
H1867 H 0.35484 0.11492 0.62051 0.0
H1868 H 0.3358 0.11487 0.75317 0.0
C1869 C 0.3035 0.09058 0.68387 0.0
C1870 C 0.32708 0.09615 0.63423 0.0
C1871 C 0.29412 0.08645 0.66693 0.0
C1872 C 0.36637 0.12151 0.67814 0.0
C1873 C 0.35684 0.11623 0.66462 0.0
C1874 C 0.33346 0.10957 0.72044 0.0
C1875 C 0.3107 0.09349 0.64356 0.0
C1876 C 0.3207 0.09818 0.66142 0.0
C1877 C 0.34999 0.11293 0.70737 0.0
C1878 C 0.33986 0.10764 0.69265 0.0
H1879 H 0.29735 0.08707 0.52417 0.0
H1880 H 0.31369 0.09435 0.55375 0.0
H1881 H 0.3193 0.10673 0.72623 0.0
H1882 H 0.36442 0.12162 0.82171 0.0
H1883 H 0.3478 0.11237 0.79799 0.0
C1884 C 0.90881 0.20754 0.64559 0.0
C1885 C 0.90969 0.20563 0.58867 0.0
C1886 C 0.90421 0.21243 0.66008 0.0
C1887 C 0.89644 0.22834 0.60312 0.0
H1888 H 0.87959 0.2195 0.73187 0.0
C1889 C 0.87144 0.24243 0.65742 0.0
C1890 C 0.87045 0.24399 0.71485 0.0
C1891 C 0.87642 0.23797 0.64143 0.0
C1892 C 0.88435 0.22213 0.69622 0.0
H1893 H 0.90652 0.20752 0.50224 0.0
H1894 H 0.89841 0.21601 0.5277 0.0
H1895 H 0.88789 0.21133 0.70466 0.0
H1896 H 0.87404 0.24218 0.80042 0.0
H1897 H 0.88276 0.23445 0.77242 0.0
H1898 H 0.89285 0.23913 0.59469 0.0
C1899 C 0.90136 0.21378 0.56105 0.0
C1900 C 0.88911 0.21744 0.6806 0.0
C1901 C 0.90597 0.20887 0.5465 0.0
C1902 C 0.87462 0.24105 0.75584 0.0
C1903 C 0.87958 0.23658 0.73982 0.0
C1904 C 0.89166 0.23303 0.61875 0.0
C1905 C 0.90037 0.21555 0.61807 0.0
C1906 C 0.89524 0.22051 0.634 0.0
C1907 C 0.8805 0.23495 0.68245 0.0
C1908 C 0.88558 0.22999 0.6656 0.0
H1909 H 0.91163 0.20521 0.67923 0.0
H1910 H 0.90371 0.21382 0.70433 0.0
H1911 H 0.9012 0.23094 0.56745 0.0
H1912 H 0.86832 0.2446 0.6247 0.0
H1913 H 0.87691 0.23673 0.59693 0.0
C1914 C 0.78918 0.70142 0.66022 0.0
C1915 C 0.79072 0.70428 0.60331 0.0
C1916 C 0.78402 0.6919 0.67427 0.0
C1917 C 0.77673 0.66844 0.61709 0.0
H1918 H 0.75897 0.65982 0.74137 0.0
C1919 C 0.75309 0.62912 0.66695 0.0
C1920 C 0.75194 0.62643 0.72415 0.0
C1921 C 0.75743 0.63859 0.65189 0.0
C1922 C 0.76398 0.66213 0.70693 0.0
H1923 H 0.78792 0.69935 0.51652 0.0
H1924 H 0.77889 0.68274 0.54116 0.0
H1925 H 0.76718 0.6764 0.7152 0.0
H1926 H 0.75438 0.63162 0.81039 0.0
H1927 H 0.76206 0.64816 0.784 0.0
H1928 H 0.77361 0.65422 0.60908 0.0
C1929 C 0.78176 0.68787 0.57487 0.0
C1930 C 0.76867 0.67163 0.69189 0.0
C1931 C 0.7869 0.6974 0.56078 0.0
C1932 C 0.75514 0.63344 0.76594 0.0
C1933 C 0.7595 0.64292 0.75082 0.0
C1934 C 0.77205 0.65896 0.63217 0.0
C1935 C 0.78031 0.68502 0.63178 0.0
C1936 C 0.77512 0.67489 0.64689 0.0
C1937 C 0.76075 0.64561 0.6936 0.0
C1938 C 0.76563 0.65569 0.67733 0.0
H1939 H 0.79202 0.70652 0.69412 0.0
H1940 H 0.78313 0.68993 0.71849 0.0
H1941 H 0.78177 0.67075 0.58283 0.0
H1942 H 0.75066 0.62392 0.63359 0.0
H1943 H 0.75814 0.6404 0.60744 0.0
C1944 C 0.87261 0.62914 0.67059 0.0
C1945 C 0.87106 0.62654 0.72795 0.0
C1946 C 0.87766 0.63858 0.65492 0.0
C1947 C 0.89455 0.66224 0.70794 0.0
H1948 H 0.8852 0.67045 0.58266 0.0
C1949 C 0.90855 0.70132 0.65736 0.0
C1950 C 0.9098 0.70407 0.60023 0.0
C1951 C 0.90419 0.69185 0.67214 0.0
C1952 C 0.88798 0.66825 0.61721 0.0
H1953 H 0.87372 0.63188 0.81386 0.0
H1954 H 0.88248 0.6484 0.78636 0.0
H1955 H 0.87687 0.654 0.61081 0.0
H1956 H 0.90755 0.69897 0.51382 0.0
H1957 H 0.89997 0.68239 0.53977 0.0
H1958 H 0.90563 0.67653 0.71453 0.0
C1959 C 0.87985 0.64309 0.75357 0.0
C1960 C 0.8832 0.65882 0.63342 0.0
C1961 C 0.87479 0.63363 0.76932 0.0
C1962 C 0.90666 0.6971 0.55821 0.0
C1963 C 0.90228 0.6876 0.57306 0.0
C1964 C 0.89933 0.67168 0.69175 0.0
C1965 C 0.88128 0.64567 0.69615 0.0
C1966 C 0.88642 0.6557 0.67902 0.0
C1967 C 0.90097 0.68487 0.63022 0.0
C1968 C 0.89608 0.67479 0.6463 0.0
H1969 H 0.86991 0.62388 0.63751 0.0
H1970 H 0.87878 0.64031 0.61037 0.0
H1971 H 0.89729 0.66004 0.74269 0.0
H1972 H 0.91086 0.70649 0.69091 0.0
H1973 H 0.90318 0.68998 0.71653 0.0
C1974 C 0.29469 0.20774 0.6532 0.0
C1975 C 0.29224 0.20634 0.5956 0.0
C1976 C 0.30408 0.21293 0.66973 0.0
C1977 C 0.32782 0.23026 0.61885 0.0
H1978 H 0.33601 0.22049 0.74201 0.0
C1979 C 0.36691 0.24389 0.66822 0.0
C1980 C 0.36965 0.24485 0.72528 0.0
C1981 C 0.35743 0.23971 0.65357 0.0
C1982 C 0.33381 0.22339 0.70809 0.0
H1983 H 0.29779 0.20947 0.51019 0.0
H1984 H 0.3142 0.21845 0.53915 0.0
H1985 H 0.31956 0.21226 0.71385 0.0
H1986 H 0.36454 0.24229 0.81173 0.0
H1987 H 0.348 0.23504 0.78604 0.0
H1988 H 0.34211 0.24134 0.6128 0.0
C1989 C 0.30883 0.2156 0.57151 0.0
C1990 C 0.32438 0.21867 0.6919 0.0
C1991 C 0.29942 0.2104 0.55491 0.0
C1992 C 0.36268 0.24163 0.76737 0.0
C1993 C 0.3532 0.23743 0.75265 0.0
C1994 C 0.33726 0.23498 0.63503 0.0
C1995 C 0.31127 0.21685 0.62913 0.0
C1996 C 0.32128 0.22202 0.64694 0.0
C1997 C 0.35046 0.23637 0.69556 0.0
C1998 C 0.34037 0.23158 0.67967 0.0
H1999 H 0.28936 0.20477 0.68575 0.0
H2000 H 0.30571 0.21388 0.71445 0.0
H2001 H 0.32563 0.2331 0.58461 0.0
H2002 H 0.37207 0.24628 0.63465 0.0
H2003 H 0.35556 0.2389 0.6092 0.0
C2004 C 0.75791 0.12282 0.78443 0.0
C2005 C 0.75461 0.12636 0.74155 0.0
C2006 C 0.76262 0.11797 0.77076 0.0
C2007 C 0.77579 0.11487 0.65422 0.0
H2008 H 0.77085 0.0924 0.73572 0.0
C2009 C 0.78967 0.09091 0.57668 0.0
C2010 C 0.79343 0.08749 0.61748 0.0
C2011 C 0.78487 0.09552 0.59304 0.0
C2012 C 0.77237 0.09872 0.71296 0.0
H2013 H 0.75353 0.12739 0.65061 0.0
H2014 H 0.7616 0.11888 0.62704 0.0
H2015 H 0.76263 0.10073 0.76258 0.0
H2016 H 0.79499 0.08619 0.70764 0.0
H2017 H 0.78665 0.0943 0.73604 0.0
H2018 H 0.7855 0.11287 0.6045 0.0
C2019 C 0.76071 0.11999 0.67121 0.0
C2020 C 0.76767 0.10349 0.72838 0.0
C2021 C 0.75603 0.12483 0.6848 0.0
C2022 C 0.79218 0.08872 0.67505 0.0
C2023 C 0.78736 0.09332 0.6914 0.0
C2024 C 0.78047 0.1101 0.6388 0.0
C2025 C 0.76412 0.11656 0.71395 0.0
C2026 C 0.76928 0.11159 0.69892 0.0
C2027 C 0.7837 0.09683 0.65057 0.0
C2028 C 0.77878 0.10194 0.66774 0.0
H2029 H 0.75694 0.12387 0.82857 0.0
H2030 H 0.76522 0.11547 0.80468 0.0
H2031 H 0.77733 0.12119 0.63137 0.0
H2032 H 0.79046 0.09005 0.53197 0.0
H2033 H 0.78201 0.09802 0.56055 0.0
C2034 C 0.70241 0.91021 0.32226 0.0
C2035 C 0.70498 0.91181 0.37965 0.0
C2036 C 0.69296 0.90577 0.30635 0.0
C2037 C 0.66928 0.88989 0.36201 0.0
H2038 H 0.66093 0.89834 0.23297 0.0
C2039 C 0.63012 0.87485 0.31382 0.0
C2040 C 0.62721 0.87281 0.25715 0.0
C2041 C 0.63964 0.87988 0.32753 0.0
C2042 C 0.66317 0.89584 0.26873 0.0
H2043 H 0.6996 0.91016 0.46522 0.0
H2044 H 0.68316 0.90248 0.43737 0.0
H2045 H 0.67752 0.90671 0.25941 0.0
H2046 H 0.63208 0.8746 0.17034 0.0
H2047 H 0.64875 0.88331 0.19446 0.0
H2048 H 0.65499 0.87901 0.37132 0.0
C2049 C 0.68845 0.90454 0.40473 0.0
C2050 C 0.67267 0.90063 0.2839 0.0
C2051 C 0.69788 0.90899 0.42066 0.0
C2052 C 0.63407 0.87605 0.21442 0.0
C2053 C 0.64362 0.88109 0.22821 0.0
C2054 C 0.65981 0.8851 0.34684 0.0
C2055 C 0.68587 0.90281 0.34745 0.0
C2056 C 0.67581 0.89773 0.33088 0.0
C2057 C 0.64651 0.88298 0.28499 0.0
C2058 C 0.65663 0.88804 0.30021 0.0
H2059 H 0.70769 0.91228 0.28953 0.0
H2060 H 0.6912 0.90445 0.2619 0.0
H2061 H 0.6715 0.88736 0.39774 0.0
H2062 H 0.62504 0.87254 0.34786 0.0
H2063 H 0.64161 0.88137 0.37161 0.0
C2064 C 0.12292 0.755 0.32051 0.0
C2065 C 0.12448 0.75382 0.26342 0.0
C2066 C 0.11794 0.7595 0.33525 0.0
C2067 C 0.1012 0.76631 0.28011 0.0
H2068 H 0.11048 0.78401 0.40471 0.0
C2069 C 0.0868 0.79114 0.33132 0.0
C2070 C 0.08561 0.7926 0.38862 0.0
C2071 C 0.09123 0.78611 0.31594 0.0
C2072 C 0.10773 0.779 0.37029 0.0
H2073 H 0.12192 0.75637 0.177 0.0
H2074 H 0.11329 0.76432 0.20287 0.0
H2075 H 0.11883 0.77587 0.37751 0.0
H2076 H 0.08805 0.78975 0.47469 0.0
H2077 H 0.09572 0.78092 0.44777 0.0
H2078 H 0.0901 0.76949 0.27284 0.0
C2079 C 0.11585 0.76167 0.23619 0.0
C2080 C 0.11252 0.77434 0.35465 0.0
C2081 C 0.12085 0.75716 0.22137 0.0
C2082 C 0.08887 0.7888 0.43017 0.0
C2083 C 0.09332 0.78378 0.41475 0.0
C2084 C 0.0964 0.77098 0.29576 0.0
C2085 C 0.1144 0.76294 0.29333 0.0
C2086 C 0.1093 0.76793 0.30945 0.0
C2087 C 0.0946 0.78243 0.35747 0.0
C2088 C 0.09961 0.77737 0.34108 0.0
H2089 H 0.12556 0.75248 0.35408 0.0
H2090 H 0.11681 0.76023 0.37964 0.0
H2091 H 0.09847 0.76132 0.2456 0.0
H2092 H 0.08439 0.79397 0.29816 0.0
H2093 H 0.0922 0.78529 0.27145 0.0
C2094 C 0.23953 0.36466 0.23792 0.0
C2095 C 0.24273 0.3716 0.2801 0.0
C2096 C 0.23511 0.35514 0.25258 0.0
C2097 C 0.22255 0.33896 0.37089 0.0
H2098 H 0.22774 0.32172 0.28814 0.0
C2099 C 0.20826 0.30058 0.44253 0.0
C2100 C 0.2045 0.29371 0.39987 0.0
C2101 C 0.21328 0.31012 0.42855 0.0
C2102 C 0.22617 0.32644 0.31138 0.0
H2103 H 0.2439 0.37396 0.37084 0.0
H2104 H 0.23633 0.35746 0.39609 0.0
H2105 H 0.23573 0.33828 0.26167 0.0
H2106 H 0.20319 0.29153 0.30898 0.0
H2107 H 0.21185 0.30811 0.2849 0.0
H2108 H 0.21298 0.32712 0.42052 0.0
C2109 C 0.23708 0.35934 0.35173 0.0
C2110 C 0.23073 0.33592 0.29613 0.0
C2111 C 0.24147 0.36882 0.33715 0.0
C2112 C 0.20598 0.29661 0.343 0.0
C2113 C 0.21101 0.30613 0.32909 0.0
C2114 C 0.21801 0.32949 0.38619 0.0
C2115 C 0.2338 0.35238 0.30969 0.0
C2116 C 0.22896 0.34229 0.32566 0.0
C2117 C 0.21467 0.313 0.37165 0.0
C2118 C 0.21974 0.32312 0.35651 0.0
H2119 H 0.24037 0.36655 0.19358 0.0
H2120 H 0.23258 0.34994 0.21915 0.0
H2121 H 0.22091 0.34365 0.39395 0.0
H2122 H 0.20728 0.29859 0.48673 0.0
H2123 H 0.21611 0.31525 0.4623 0.0
C2124 C 0.96703 0.42633 0.89274 0.0
C2125 C 0.96002 0.41924 0.92607 0.0
C2126 C 0.97645 0.4306 0.90904 0.0
C2127 C 0.99146 0.43339 0.03471 0.0
H2128 H 0.01125 0.44411 0.92262 0.0
C2129 C 0.03009 0.45749 0.09936 0.0
C2130 C 0.03721 0.45779 0.06519 0.0
C2131 C 0.02071 0.45239 0.08232 0.0
C2132 C 0.00585 0.44103 0.9547 0.0
H2133 H 0.95735 0.41071 0.00107 0.0
H2134 H 0.97376 0.41768 0.02775 0.0
H2135 H 0.99505 0.43553 0.89223 0.0
H2136 H 0.0401 0.45272 0.98757 0.0
H2137 H 0.02373 0.44337 0.95934 0.0
H2138 H 0.00226 0.43836 0.09708 0.0
C2139 C 0.97205 0.42033 0.99047 0.0
C2140 C 0.99648 0.43624 0.93715 0.0
C2141 C 0.96262 0.41626 0.97495 0.0
C2142 C 0.03475 0.45269 0.01444 0.0
C2143 C 0.02535 0.44739 0.99807 0.0
C2144 C 0.00083 0.43798 0.05222 0.0
C2145 C 0.97911 0.42769 0.95833 0.0
C2146 C 0.98913 0.43244 0.97689 0.0
C2147 C 0.01819 0.44726 0.03135 0.0
C2148 C 0.00817 0.44198 0.01254 0.0
H2149 H 0.96521 0.42881 0.85506 0.0
H2150 H 0.9816 0.43634 0.88359 0.0
H2151 H 0.98607 0.43073 0.06691 0.0
H2152 H 0.03181 0.46143 0.13848 0.0
H2153 H 0.01549 0.45268 0.10869 0.0
C2154 C 0.57489 0.54045 0.97772 0.0
C2155 C 0.5759 0.53869 0.92072 0.0
C2156 C 0.57037 0.54541 0.99228 0.0
C2157 C 0.56299 0.56168 0.93624 0.0
H2158 H 0.54591 0.55268 0.0639 0.0
C2159 C 0.53821 0.57601 0.99203 0.0
C2160 C 0.53718 0.57743 0.04963 0.0
C2161 C 0.54316 0.57155 0.9755 0.0
C2162 C 0.55074 0.55535 0.02856 0.0
H2163 H 0.57305 0.5409 0.83425 0.0
H2164 H 0.56504 0.5495 0.85984 0.0
H2165 H 0.55406 0.54439 0.03599 0.0
H2166 H 0.54068 0.57538 0.13494 0.0
H2167 H 0.54934 0.56764 0.106 0.0
H2168 H 0.5596 0.57263 0.9288 0.0
C2169 C 0.56784 0.5471 0.89319 0.0
C2170 C 0.55541 0.5506 0.01253 0.0
C2171 C 0.57239 0.54214 0.87855 0.0
C2172 C 0.5413 0.57437 0.09024 0.0
C2173 C 0.54622 0.56989 0.07368 0.0
C2174 C 0.5583 0.56644 0.95225 0.0
C2175 C 0.56671 0.54872 0.95028 0.0
C2176 C 0.56163 0.55373 0.96637 0.0
C2177 C 0.54716 0.56837 0.01615 0.0
C2178 C 0.55215 0.56334 -0.00124 0.0
H2179 H 0.57757 0.53797 0.01136 0.0
H2180 H 0.56977 0.54669 0.03659 0.0
H2181 H 0.56782 0.56434 0.9009 0.0
H2182 H 0.53513 0.57827 0.95959 0.0
H2183 H 0.54368 0.5704 0.93087 0.0
C2184 C 0.42175 0.967 0.10477 0.0
C2185 C 0.4186 0.96012 0.06223 0.0
C2186 C 0.42609 0.97653 0.09064 0.0
C2187 C 0.42907 0.99273 0.97341 0.0
H2188 H 0.45164 0.01012 0.05455 0.0
C2189 C 0.45405 0.03075 0.89698 0.0
C2190 C 0.45793 0.0378 0.93851 0.0
C2191 C 0.44883 0.02128 0.91252 0.0
C2192 C 0.44528 0.00538 0.03192 0.0
H2193 H 0.41743 0.95787 0.97139 0.0
H2194 H 0.42505 0.97443 0.947 0.0
H2195 H 0.44318 0.99363 0.08177 0.0
H2196 H 0.45917 0.0404 0.02901 0.0
H2197 H 0.45001 0.02397 0.05579 0.0
H2198 H 0.43123 0.00449 0.9233 0.0
C2199 C 0.42408 0.97248 0.99125 0.0
C2200 C 0.44042 0.99593 0.04759 0.0
C2201 C 0.41976 0.96297 0.00532 0.0
C2202 C 0.45635 0.03517 0.99582 0.0
C2203 C 0.45113 0.02573 0.01127 0.0
C2204 C 0.43393 0.00219 0.95774 0.0
C2205 C 0.42735 0.97937 0.03369 0.0
C2206 C 0.43229 0.98948 0.01838 0.0
C2207 C 0.44737 0.01867 0.96988 0.0
C2208 C 0.44211 0.00862 0.98672 0.0
H2209 H 0.42093 0.96505 0.14901 0.0
H2210 H 0.42843 0.98167 0.12433 0.0
H2211 H 0.42275 0.98796 0.95055 0.0
H2212 H 0.45514 0.03252 0.85248 0.0
H2213 H 0.4461 0.016 0.8796 0.0
C2214 C 0.54126 0.96251 -0.00038 0.0
C2215 C 0.53947 0.9598 0.05672 0.0
C2216 C 0.54653 0.97198 0.98477 0.0
C2217 C 0.56337 0.99553 0.04097 0.0
H2218 H 0.55445 0.00416 0.91569 0.0
C2219 C 0.57734 0.03485 0.99416 0.0
C2220 C 0.57866 0.0377 0.93721 0.0
C2221 C 0.57308 0.02534 0.0083 0.0
C2222 C 0.55712 0.00185 0.95029 0.0
H2223 H 0.54198 0.96497 0.14304 0.0
H2224 H 0.55109 0.98151 0.11701 0.0
H2225 H 0.54609 0.98761 0.9413 0.0
H2226 H 0.57668 0.03274 0.8505 0.0
H2227 H 0.5693 0.01617 0.87526 0.0
H2228 H 0.57435 0.00982 0.05021 0.0
C2229 C 0.54849 0.97628 0.08375 0.0
C2230 C 0.55232 0.99236 0.96498 0.0
C2231 C 0.54322 0.9668 0.09865 0.0
C2232 C 0.57574 0.03081 0.89479 0.0
C2233 C 0.57146 0.0213 0.90895 0.0
C2234 C 0.56817 0.00504 0.02629 0.0
C2235 C 0.55014 0.97899 0.02661 0.0
C2236 C 0.55538 0.98908 0.01056 0.0
C2237 C 0.57001 0.01845 0.96586 0.0
C2238 C 0.56508 0.00831 0.98083 0.0
H2239 H 0.53853 0.95731 0.96618 0.0
H2240 H 0.54779 0.97381 0.9404 0.0
H2241 H 0.56599 0.99321 0.07582 0.0
H2242 H 0.5795 0.03996 0.02796 0.0
H2243 H 0.57197 0.02337 0.05252 0.0
C2244 C 0.9617 0.54096 0.99638 0.0
C2245 C 0.95913 0.53934 0.93903 0.0
C2246 C 0.97114 0.54611 0.01209 0.0
C2247 C 0.99482 0.56295 0.95758 0.0
H2248 H 0.00319 0.55385 0.08332 0.0
C2249 C 0.03401 0.57666 0.00608 0.0
C2250 C 0.03679 0.57805 0.06314 0.0
C2251 C 0.02452 0.57239 0.99153 0.0
C2252 C 0.00094 0.55655 0.04857 0.0
H2253 H 0.96451 0.54197 0.85317 0.0
H2254 H 0.98097 0.55084 0.88065 0.0
H2255 H 0.98666 0.54559 0.05685 0.0
H2256 H 0.03174 0.57617 0.14962 0.0
H2257 H 0.0152 0.56876 0.12411 0.0
H2258 H 0.00915 0.57386 0.94901 0.0
C2259 C 0.97567 0.54823 0.91348 0.0
C2260 C 0.99147 0.55182 0.03341 0.0
C2261 C 0.96623 0.54309 0.89774 0.0
C2262 C 0.02986 0.57517 0.10525 0.0
C2263 C 0.02037 0.57088 0.09068 0.0
C2264 C 0.00431 0.56768 0.9727 0.0
C2265 C 0.97824 0.54975 0.97085 0.0
C2266 C 0.9883 0.55494 0.98763 0.0
C2267 C 0.01759 0.56938 0.03367 0.0
C2268 C 0.00748 0.56451 0.01827 0.0
H2269 H 0.95642 0.53822 0.02933 0.0
H2270 H 0.97287 0.54728 0.05662 0.0
H2271 H 0.99259 0.56562 0.92263 0.0
H2272 H 0.03916 0.57879 0.97253 0.0
H2273 H 0.0226 0.57125 0.94724 0.0
C2274 C 0.45421 0.42287 0.90446 0.0
C2275 C 0.45824 0.41983 0.94578 0.0
C2276 C 0.44918 0.4273 0.9201 0.0
C2277 C 0.43664 0.4305 0.03983 0.0
H2278 H 0.44088 0.45256 0.95622 0.0
C2279 C 0.42263 0.45471 0.11467 0.0
C2280 C 0.41917 0.45831 0.0731 0.0
C2281 C 0.42711 0.44972 0.09929 0.0
C2282 C 0.43952 0.44634 0.97957 0.0
H2283 H 0.46005 0.41899 0.03611 0.0
H2284 H 0.45133 0.42676 0.06324 0.0
H2285 H 0.44918 0.44438 0.92899 0.0
H2286 H 0.41755 0.45929 0.98268 0.0
H2287 H 0.42524 0.45051 0.95605 0.0
H2288 H 0.42698 0.43248 0.09048 0.0
C2289 C 0.45199 0.42564 0.01876 0.0
C2290 C 0.44428 0.44165 0.96396 0.0
C2291 C 0.45703 0.42123 0.00314 0.0
C2292 C 0.42017 0.45668 0.01585 0.0
C2293 C 0.42464 0.45168 0.00052 0.0
C2294 C 0.43186 0.43518 0.05542 0.0
C2295 C 0.44805 0.42877 0.97741 0.0
C2296 C 0.4429 0.43368 0.9939 0.0
C2297 C 0.42822 0.4482 0.04201 0.0
C2298 C 0.43324 0.44316 0.02544 0.0
H2299 H 0.45496 0.42188 0.8599 0.0
H2300 H 0.44612 0.42951 0.88725 0.0
H2301 H 0.43534 0.4243 0.0633 0.0
H2302 H 0.42199 0.45585 0.15916 0.0
H2303 H 0.42988 0.44722 0.13229 0.0
C2304 C 0.17172 0.40548 0.17058 0.0
C2305 C 0.16798 0.40745 0.21872 0.0
C2306 C 0.18111 0.40778 0.16928 0.0
C2307 C 0.19976 0.41106 0.26684 0.0
H2308 H 0.21511 0.41842 0.13145 0.0
C2309 C 0.23557 0.41329 0.26785 0.0
C2310 C 0.23714 0.40869 0.22272 0.0
C2311 C 0.22834 0.41538 0.2652 0.0
C2312 C 0.2109 0.41635 0.16956 0.0
H2313 H 0.17135 0.41386 0.30195 0.0
H2314 H 0.18776 0.41793 0.29938 0.0
H2315 H 0.20009 0.41811 0.13086 0.0
H2316 H 0.23268 0.40315 0.13808 0.0
H2317 H 0.21993 0.40661 0.13395 0.0
H2318 H 0.21033 0.409 0.30511 0.0
C2319 C 0.18337 0.41446 0.26307 0.0
C2320 C 0.20231 0.41617 0.16923 0.0
C2321 C 0.17397 0.41214 0.26447 0.0
C2322 C 0.23164 0.40667 0.17366 0.0
C2323 C 0.22436 0.40871 0.17114 0.0
C2324 C 0.20832 0.41123 0.26717 0.0
C2325 C 0.18699 0.4121 0.21602 0.0
C2326 C 0.19657 0.41336 0.21762 0.0
C2327 C 0.22247 0.41286 0.21751 0.0
C2328 C 0.21391 0.41372 0.21829 0.0
H2329 H 0.16731 0.40185 0.13467 0.0
H2330 H 0.18365 0.40576 0.13265 0.0
H2331 H 0.19545 0.40869 0.30453 0.0
H2332 H 0.23977 0.41508 0.30596 0.0
H2333 H 0.22718 0.41875 0.30116 0.0
C2334 C 0.58433 0.76182 0.26357 0.0
C2335 C 0.58881 0.76004 0.2186 0.0
C2336 C 0.58251 0.76924 0.26061 0.0
C2337 C 0.58179 0.78667 0.16403 0.0
H2338 H 0.58969 0.80236 0.29799 0.0
C2339 C 0.59233 0.82581 0.16282 0.0
C2340 C 0.5904 0.82958 0.21095 0.0
C2341 C 0.59018 0.81645 0.16208 0.0
C2342 C 0.58726 0.79799 0.26058 0.0
H2343 H 0.59441 0.76435 0.1339 0.0
H2344 H 0.59139 0.7774 0.12921 0.0
H2345 H 0.58931 0.78743 0.29936 0.0
H2346 H 0.58423 0.82631 0.29482 0.0
H2347 H 0.5804 0.80996 0.2932 0.0
H2348 H 0.58 0.79742 0.12487 0.0
C2349 C 0.5892 0.773 0.16656 0.0
C2350 C 0.58705 0.78941 0.26136 0.0
C2351 C 0.59099 0.76555 0.16943 0.0
C2352 C 0.58591 0.82366 0.25732 0.0
C2353 C 0.58373 0.8143 0.25647 0.0
C2354 C 0.582 0.79528 0.16326 0.0
C2355 C 0.58516 0.77507 0.21272 0.0
C2356 C 0.58445 0.78372 0.21288 0.0
C2357 C 0.58605 0.81065 0.20937 0.0
C2358 C 0.58488 0.80109 0.2113 0.0
H2359 H 0.58243 0.75764 0.30178 0.0
H2360 H 0.57922 0.77054 0.29644 0.0
H2361 H 0.57965 0.78238 0.12623 0.0
H2362 H 0.59581 0.83016 0.12643 0.0
H2363 H 0.59216 0.81389 0.12537 0.0
C2364 C 0.23095 0.82455 0.16618 0.0
C2365 C 0.23664 0.82784 0.21464 0.0
C2366 C 0.22357 0.81527 0.16344 0.0
C2367 C 0.20769 0.79648 0.25896 0.0
H2368 H 0.19916 0.78161 0.12189 0.0
C2369 C 0.17345 0.76106 0.25716 0.0
C2370 C 0.16735 0.75974 0.21201 0.0
C2371 C 0.18283 0.76823 0.25524 0.0
C2372 C 0.20145 0.7857 0.16046 0.0
H2373 H 0.23946 0.82379 0.29648 0.0
H2374 H 0.22667 0.80762 0.2913 0.0
H2375 H 0.21414 0.79637 0.12209 0.0
H2376 H 0.16644 0.76468 0.12846 0.0
H2377 H 0.18271 0.77725 0.12557 0.0
H2378 H 0.19494 0.78604 0.29697 0.0
C2379 C 0.22777 0.81226 0.25601 0.0
C2380 C 0.21002 0.79414 0.16057 0.0
C2381 C 0.23512 0.82153 0.25888 0.0
C2382 C 0.17094 0.76548 0.16392 0.0
C2383 C 0.1803 0.77267 0.16212 0.0
C2384 C 0.19915 0.78807 0.25885 0.0
C2385 C 0.22175 0.80909 0.20898 0.0
C2386 C 0.21316 0.79969 0.20963 0.0
C2387 C 0.1863 0.77426 0.20828 0.0
C2388 C 0.19585 0.78265 0.2094 0.0
H2389 H 0.23196 0.82922 0.13123 0.0
H2390 H 0.21902 0.81307 0.12676 0.0
H2391 H 0.20981 0.80066 0.2972 0.0
H2392 H 0.17095 0.75669 0.29458 0.0
H2393 H 0.18731 0.76917 0.29109 0.0
C2394 C 0.4087 0.17311 0.73158 0.0
C2395 C 0.40494 0.16739 0.77961 0.0
C2396 C 0.41048 0.18235 0.73177 0.0
C2397 C 0.41269 0.20159 0.82419 0.0
H2398 H 0.40331 0.20823 0.69199 0.0
C2399 C 0.40342 0.23113 0.82238 0.0
C2400 C 0.405 0.23637 0.7725 0.0
C2401 C 0.40515 0.22363 0.82408 0.0
C2402 C 0.40613 0.20659 0.7288 0.0
H2403 H 0.40052 0.16705 0.86647 0.0
H2404 H 0.40347 0.18311 0.8664 0.0
H2405 H 0.40329 0.19347 0.69366 0.0
H2406 H 0.41013 0.23815 0.68625 0.0
H2407 H 0.41323 0.22515 0.68949 0.0
H2408 H 0.41529 0.21466 0.85976 0.0
C2409 C 0.40514 0.18048 0.82877 0.0
C2410 C 0.40612 0.19811 0.72977 0.0
C2411 C 0.40339 0.17125 0.82867 0.0
C2412 C 0.40873 0.2342 0.72517 0.0
C2413 C 0.41048 0.22673 0.72693 0.0
C2414 C 0.4127 0.2101 0.82321 0.0
C2415 C 0.4085 0.18606 0.77989 0.0
C2416 C 0.40929 0.19545 0.7777 0.0
C2417 C 0.40851 0.22123 0.776 0.0
C2418 C 0.40931 0.21263 0.77574 0.0
H2419 H 0.41009 0.17041 0.69326 0.0
H2420 H 0.41324 0.18652 0.69379 0.0
H2421 H 0.41528 0.19979 0.86146 0.0
H2422 H 0.40058 0.23262 0.85971 0.0
H2423 H 0.40348 0.21949 0.86237 0.0
C2424 C 0.763 0.17467 0.74582 0.0
C2425 C 0.75972 0.16888 0.79395 0.0
C2426 C 0.77026 0.18398 0.7503 0.0
C2427 C 0.79059 0.19836 0.83971 0.0
H2428 H 0.79285 0.21888 0.74746 0.0
C2429 C 0.82465 0.23397 0.83935 0.0
C2430 C 0.82807 0.23777 0.78553 0.0
C2431 C 0.81542 0.22665 0.84611 0.0
C2432 C 0.79232 0.21321 0.7734 0.0
H2433 H 0.76114 0.16859 0.88503 0.0
H2434 H 0.77374 0.1848 0.89277 0.0
H2435 H 0.77805 0.20395 0.7488 0.0
H2436 H 0.82431 0.23716 0.69702 0.0
H2437 H 0.80831 0.22428 0.70864 0.0
H2438 H 0.80491 0.20742 0.86279 0.0
C2439 C 0.7708 0.18207 0.85145 0.0
C2440 C 0.78385 0.20467 0.77419 0.0
C2441 C 0.76355 0.17278 0.84698 0.0
C2442 C 0.82192 0.23438 0.73907 0.0
C2443 C 0.81271 0.22703 0.7458 0.0
C2444 C 0.79905 0.20686 0.83882 0.0
C2445 C 0.7744 0.1877 0.80299 0.0
C2446 C 0.78296 0.1971 0.8066 0.0
C2447 C 0.80942 0.22294 0.79919 0.0
C2448 C 0.80007 0.21433 0.80487 0.0
H2449 H 0.76019 0.17193 0.7043 0.0
H2450 H 0.77293 0.18811 0.71207 0.0
H2451 H 0.79019 0.19263 0.86441 0.0
H2452 H 0.82915 0.23649 0.87615 0.0
H2453 H 0.81305 0.22377 0.88798 0.0
C2454 C 0.82221 0.58772 0.73643 0.0
C2455 C 0.82802 0.59028 0.78446 0.0
C2456 C 0.813 0.58596 0.74066 0.0
C2457 C 0.79899 0.59262 0.82888 0.0
H2458 H 0.77821 0.57433 0.73835 0.0
C2459 C 0.76337 0.59101 0.83237 0.0
C2460 C 0.75941 0.59062 0.77904 0.0
C2461 C 0.77076 0.58919 0.83795 0.0
C2462 C 0.78396 0.57949 0.76377 0.0
H2463 H 0.82844 0.59242 0.87517 0.0
H2464 H 0.81239 0.58927 0.88255 0.0
H2465 H 0.79302 0.57422 0.73941 0.0
H2466 H 0.75985 0.58758 0.69015 0.0
H2467 H 0.77285 0.58459 0.69979 0.0
H2468 H 0.79011 0.59808 0.852 0.0
C2469 C 0.81503 0.58881 0.84144 0.0
C2470 C 0.79243 0.57942 0.76439 0.0
C2471 C 0.82424 0.59058 0.8372 0.0
C2472 C 0.76275 0.58798 0.73183 0.0
C2473 C 0.77017 0.58619 0.73741 0.0
C2474 C 0.79055 0.59269 0.82824 0.0
C2475 C 0.80939 0.58671 0.79301 0.0
C2476 C 0.80008 0.58609 0.7963 0.0
C2477 C 0.77439 0.58697 0.79034 0.0
C2478 C 0.78298 0.58622 0.79502 0.0
H2479 H 0.82487 0.58738 0.69512 0.0
H2480 H 0.80886 0.58444 0.70244 0.0
H2481 H 0.8048 0.59796 0.85312 0.0
H2482 H 0.7609 0.59291 0.86977 0.0
H2483 H 0.77375 0.58969 0.87947 0.0
C2484 C 0.89875 0.73969 0.49385 0.0
C2485 C 0.90302 0.74033 0.5464 0.0
C2486 C 0.89132 0.74146 0.48939 0.0
C2487 C 0.87832 0.75125 0.56504 0.0
H2488 H 0.85718 0.73231 0.47969 0.0
C2489 C 0.8401 0.74278 0.5977 0.0
C2490 C 0.83412 0.74008 0.55049 0.0
C2491 C 0.8493 0.74455 0.59225 0.0
C2492 C 0.86306 0.73777 0.50281 0.0
H2493 H 0.90308 0.74375 0.63509 0.0
H2494 H 0.88998 0.74663 0.62746 0.0
H2495 H 0.87195 0.73236 0.47895 0.0
H2496 H 0.83329 0.73765 0.45989 0.0
H2497 H 0.84935 0.74082 0.45046 0.0
H2498 H 0.86926 0.75646 0.5902 0.0
C2499 C 0.89246 0.74489 0.58952 0.0
C2500 C 0.87155 0.7378 0.50238 0.0
C2501 C 0.89994 0.74317 0.59396 0.0
C2502 C 0.83767 0.73961 0.49728 0.0
C2503 C 0.84687 0.7414 0.49185 0.0
C2504 C 0.8698 0.75121 0.56552 0.0
C2505 C 0.88793 0.74384 0.53742 0.0
C2506 C 0.87924 0.74445 0.5341 0.0
C2507 C 0.85272 0.74368 0.53948 0.0
C2508 C 0.86204 0.74438 0.53503 0.0
H2509 H 0.90095 0.73758 0.45625 0.0
H2510 H 0.88808 0.74075 0.44844 0.0
H2511 H 0.88416 0.75654 0.58932 0.0
H2512 H 0.83761 0.74325 0.63928 0.0
H2513 H 0.8536 0.74621 0.62986 0.0
C2514 C 0.25443 0.15654 0.58315 0.0
C2515 C 0.25744 0.16271 0.53677 0.0
C2516 C 0.25278 0.14739 0.57714 0.0
C2517 C 0.2602 0.13391 0.4897 0.0
H2518 H 0.24066 0.11258 0.57071 0.0
C2519 C 0.2582 0.09804 0.48482 0.0
C2520 C 0.25708 0.09375 0.53792 0.0
C2521 C 0.25659 0.10555 0.47825 0.0
C2522 C 0.24616 0.11848 0.54793 0.0
H2523 H 0.26061 0.16394 0.44699 0.0
H2524 H 0.25768 0.14797 0.43662 0.0
H2525 H 0.2408 0.1275 0.57099 0.0
H2526 H 0.25297 0.09376 0.62514 0.0
H2527 H 0.25032 0.10694 0.61383 0.0
H2528 H 0.26575 0.12504 0.46806 0.0
C2529 C 0.25675 0.15026 0.4778 0.0
C2530 C 0.24625 0.12702 0.5481 0.0
C2531 C 0.2584 0.15941 0.48378 0.0
C2532 C 0.25394 0.09691 0.58368 0.0
C2533 C 0.25234 0.10443 0.57711 0.0
C2534 C 0.26013 0.1254 0.48958 0.0
C2535 C 0.2541 0.14421 0.52464 0.0
C2536 C 0.25337 0.13487 0.51983 0.0
C2537 C 0.25383 0.10896 0.5246 0.0
C2538 C 0.25322 0.11763 0.51957 0.0
H2539 H 0.25359 0.15885 0.62453 0.0
H2540 H 0.25084 0.14293 0.61419 0.0
H2541 H 0.26587 0.13987 0.46819 0.0
H2542 H 0.26052 0.09573 0.44853 0.0
H2543 H 0.25766 0.10881 0.43704 0.0
C2544 C 0.89798 0.15879 0.49399 0.0
C2545 C 0.90369 0.16265 0.54195 0.0
C2546 C 0.8908 0.14941 0.49369 0.0
C2547 C 0.87534 0.13105 0.59285 0.0
H2548 H 0.86738 0.11531 0.45906 0.0
C2549 C 0.84187 0.09502 0.59593 0.0
C2550 C 0.83569 0.09329 0.5506 0.0
C2551 C 0.85116 0.10235 0.59319 0.0
C2552 C 0.86951 0.11964 0.49672 0.0
H2553 H 0.90666 0.15953 0.62607 0.0
H2554 H 0.8942 0.14316 0.62524 0.0
H2555 H 0.88207 0.13034 0.45746 0.0
H2556 H 0.83457 0.09758 0.46552 0.0
H2557 H 0.85072 0.11047 0.46119 0.0
H2558 H 0.8627 0.12054 0.63168 0.0
C2559 C 0.89517 0.14743 0.58826 0.0
C2560 C 0.87792 0.12823 0.49581 0.0
C2561 C 0.90233 0.15682 0.58865 0.0
C2562 C 0.83913 0.09874 0.50131 0.0
C2563 C 0.84842 0.1061 0.49867 0.0
C2564 C 0.86696 0.12247 0.59377 0.0
C2565 C 0.88919 0.14368 0.54128 0.0
C2566 C 0.88084 0.13411 0.5436 0.0
C2567 C 0.85446 0.10814 0.54516 0.0
C2568 C 0.86386 0.11674 0.54545 0.0
H2569 H 0.89881 0.16308 0.45735 0.0
H2570 H 0.88626 0.14678 0.45706 0.0
H2571 H 0.87728 0.13546 0.63008 0.0
H2572 H 0.83949 0.09087 0.63427 0.0
H2573 H 0.85569 0.10363 0.62929 0.0
C2574 C 0.07488 0.56674 0.08019 0.0
C2575 C 0.07207 0.57004 0.12685 0.0
C2576 C 0.07658 0.55928 0.08621 0.0
C2577 C 0.06964 0.53867 0.17565 0.0
H2578 H 0.08837 0.53641 0.08838 0.0
C2579 C 0.07156 0.50476 0.17936 0.0
C2580 C 0.0721 0.50131 0.12592 0.0
C2581 C 0.07325 0.51392 0.18533 0.0
C2582 C 0.0831 0.53694 0.11294 0.0
H2583 H 0.06934 0.56839 0.21713 0.0
H2584 H 0.0724 0.55542 0.22763 0.0
H2585 H 0.08842 0.55129 0.08904 0.0
H2586 H 0.07522 0.50493 0.03725 0.0
H2587 H 0.07804 0.52086 0.04763 0.0
H2588 H 0.06416 0.52429 0.19835 0.0
C2589 C 0.07312 0.55851 0.18619 0.0
C2590 C 0.08312 0.54545 0.11332 0.0
C2591 C 0.0714 0.56596 0.18017 0.0
C2592 C 0.07473 0.50735 0.079 0.0
C2593 C 0.07641 0.51651 0.08501 0.0
C2594 C 0.06962 0.53018 0.17533 0.0
C2595 C 0.07554 0.55496 0.13904 0.0
C2596 C 0.07627 0.54635 0.14378 0.0
C2597 C 0.07551 0.51983 0.13805 0.0
C2598 C 0.07623 0.52917 0.1431 0.0
H2599 H 0.07549 0.56972 0.03852 0.0
H2600 H 0.07833 0.55666 0.04889 0.0
H2601 H 0.06417 0.53907 0.19886 0.0
H2602 H 0.06966 0.50033 0.21654 0.0
H2603 H 0.07264 0.51633 0.22689 0.0
C2604 C 0.43044 0.50503 0.18235 0.0
C2605 C 0.42628 0.50139 0.12954 0.0
C2606 C 0.43784 0.51426 0.18708 0.0
C2607 C 0.45058 0.53712 0.11208 0.0
H2608 H 0.47199 0.53965 0.19582 0.0
C2609 C 0.48847 0.56721 0.07585 0.0
C2610 C 0.4947 0.57052 0.12198 0.0
C2611 C 0.47933 0.55973 0.08255 0.0
C2612 C 0.46603 0.53914 0.1732 0.0
H2613 H 0.42635 0.50476 0.04075 0.0
H2614 H 0.43933 0.52081 0.04895 0.0
H2615 H 0.45731 0.52481 0.19735 0.0
H2616 H 0.49598 0.56891 0.21206 0.0
H2617 H 0.48 0.55595 0.22381 0.0
H2618 H 0.45944 0.55143 0.08676 0.0
C2619 C 0.43682 0.51655 0.0868 0.0
C2620 C 0.4576 0.53061 0.17406 0.0
C2621 C 0.42941 0.50732 0.08205 0.0
C2622 C 0.49142 0.56648 0.17549 0.0
C2623 C 0.48226 0.55902 0.18221 0.0
C2624 C 0.45903 0.54567 0.11128 0.0
C2625 C 0.44125 0.52006 0.13914 0.0
C2626 C 0.44983 0.52945 0.14273 0.0
C2627 C 0.47618 0.55541 0.13556 0.0
C2628 C 0.4669 0.54673 0.14104 0.0
H2629 H 0.42814 0.50068 0.21995 0.0
H2630 H 0.44101 0.5168 0.22816 0.0
H2631 H 0.44468 0.53647 0.08814 0.0
H2632 H 0.49075 0.57017 0.03404 0.0
H2633 H 0.47486 0.55707 0.0456 0.0
C2634 C 0.48987 0.9226 0.06352 0.0
C2635 C 0.49566 0.92495 0.11152 0.0
C2636 C 0.48073 0.92101 0.06804 0.0
C2637 C 0.4666 0.92732 0.15827 0.0
H2638 H 0.44594 0.9092 0.06621 0.0
C2639 C 0.43051 0.92467 0.16681 0.0
C2640 C 0.42646 0.92449 0.11415 0.0
C2641 C 0.43809 0.92311 0.17054 0.0
C2642 C 0.45165 0.91431 0.09204 0.0
H2643 H 0.49619 0.92697 0.20243 0.0
H2644 H 0.4802 0.92408 0.21029 0.0
H2645 H 0.46086 0.90932 0.06594 0.0
H2646 H 0.42695 0.92206 0.02431 0.0
H2647 H 0.44026 0.91947 0.0308 0.0
H2648 H 0.45752 0.93246 0.18342 0.0
C2649 C 0.4828 0.92366 0.16899 0.0
C2650 C 0.46019 0.91438 0.09188 0.0
C2651 C 0.49196 0.92528 0.16448 0.0
C2652 C 0.42991 0.92229 0.06558 0.0
C2653 C 0.43751 0.92074 0.06931 0.0
C2654 C 0.45808 0.92724 0.15847 0.0
C2655 C 0.47714 0.92169 0.12067 0.0
C2656 C 0.4678 0.92098 0.12441 0.0
C2657 C 0.44181 0.92134 0.12169 0.0
C2658 C 0.45055 0.92082 0.1248 0.0
H2659 H 0.49249 0.92227 0.02207 0.0
H2660 H 0.47659 0.9196 0.02989 0.0
H2661 H 0.47236 0.93261 0.18303 0.0
H2662 H 0.42798 0.92622 0.20517 0.0
H2663 H 0.44114 0.92345 0.21165 0.0
C2664 C 0.56679 0.07541 0.92996 0.0
C2665 C 0.57003 0.07276 0.88227 0.0
C2666 C 0.55929 0.07707 0.92538 0.0
C2667 C 0.53851 0.07018 0.83798 0.0
H2668 H 0.53642 0.08906 0.92472 0.0
C2669 C 0.50489 0.07241 0.83073 0.0
C2670 C 0.50137 0.07322 0.8833 0.0
C2671 C 0.51402 0.07401 0.82601 0.0
C2672 C 0.5369 0.08374 0.90042 0.0
H2673 H 0.56824 0.0703 0.79176 0.0
H2674 H 0.55519 0.07327 0.78386 0.0
H2675 H 0.55123 0.08896 0.92435 0.0
H2676 H 0.50487 0.07673 0.97178 0.0
H2677 H 0.52075 0.07932 0.9637 0.0
H2678 H 0.52415 0.06477 0.8153 0.0
C2679 C 0.55836 0.07389 0.82494 0.0
C2680 C 0.54537 0.08368 0.90017 0.0
C2681 C 0.56586 0.07222 0.82949 0.0
C2682 C 0.50734 0.07602 0.93064 0.0
C2683 C 0.51647 0.07758 0.92594 0.0
C2684 C 0.53006 0.07023 0.83829 0.0
C2685 C 0.55487 0.07615 0.87303 0.0
C2686 C 0.54622 0.07682 0.86951 0.0
C2687 C 0.51985 0.07639 0.87379 0.0
C2688 C 0.52911 0.07692 0.87007 0.0
H2689 H 0.56986 0.07592 0.97124 0.0
H2690 H 0.55671 0.07871 0.96333 0.0
H2691 H 0.53887 0.0647 0.81475 0.0
H2692 H 0.50053 0.07031 0.7933 0.0
H2693 H 0.51647 0.0732 0.78501 0.0
C2694 C 0.92053 0.42967 0.92614 0.0
C2695 C 0.92463 0.4278 0.8795 0.0
C2696 C 0.9186 0.43702 0.92427 0.0
C2697 C 0.91675 0.4539 0.82782 0.0
H2698 H 0.92459 0.46975 0.96104 0.0
C2699 C 0.9257 0.49269 0.82876 0.0
C2700 C 0.92351 0.4961 0.87751 0.0
C2701 C 0.92399 0.48347 0.8269 0.0
C2702 C 0.9222 0.46532 0.92383 0.0
H2703 H 0.92956 0.43195 0.79342 0.0
H2704 H 0.92639 0.44489 0.79071 0.0
H2705 H 0.92492 0.45517 0.96201 0.0
H2706 H 0.91718 0.49228 0.96091 0.0
H2707 H 0.91415 0.47623 0.95735 0.0
H2708 H 0.91433 0.46429 0.7892 0.0
C2709 C 0.92454 0.4406 0.82846 0.0
C2710 C 0.92238 0.45694 0.9244 0.0
C2711 C 0.92643 0.43321 0.8302 0.0
C2712 C 0.9191 0.48994 0.92303 0.0
C2713 C 0.91737 0.48074 0.9211 0.0
C2714 C 0.9166 0.46232 0.8272 0.0
C2715 C 0.92077 0.44269 0.87585 0.0
C2716 C 0.91976 0.45118 0.87623 0.0
C2717 C 0.92004 0.47748 0.87368 0.0
C2718 C 0.91942 0.46817 0.87505 0.0
H2719 H 0.91896 0.42556 0.96454 0.0
H2720 H 0.91553 0.43834 0.96113 0.0
H2721 H 0.91458 0.44955 0.79026 0.0
H2722 H 0.92906 0.49724 0.79284 0.0
H2723 H 0.92617 0.48118 0.78987 0.0
C2724 C 0.50698 0.42981 0.92345 0.0
C2725 C 0.50083 0.42654 0.87696 0.0
C2726 C 0.51614 0.43729 0.91727 0.0
C2727 C 0.52948 0.45794 0.82755 0.0
H2728 H 0.55087 0.46062 0.91232 0.0
C2729 C 0.56497 0.49198 0.81635 0.0
C2730 C 0.56933 0.49569 0.8686 0.0
C2731 C 0.55758 0.48274 0.8124 0.0
C2732 C 0.54495 0.45997 0.88852 0.0
H2733 H 0.4997 0.42819 0.78675 0.0
H2734 H 0.51571 0.44114 0.77592 0.0
H2735 H 0.5361 0.44565 0.91376 0.0
H2736 H 0.56957 0.49243 0.9573 0.0
H2737 H 0.55655 0.47637 0.95055 0.0
H2738 H 0.53817 0.47228 0.80353 0.0
C2739 C 0.51337 0.43805 0.8174 0.0
C2740 C 0.5365 0.45141 0.88932 0.0
C2741 C 0.5042 0.4306 0.82359 0.0
C2742 C 0.56636 0.48981 0.91638 0.0
C2743 C 0.55893 0.48057 0.91245 0.0
C2744 C 0.5379 0.46647 0.82675 0.0
C2745 C 0.51937 0.44164 0.86443 0.0
C2746 C 0.52863 0.45035 0.85947 0.0
C2747 C 0.55432 0.47701 0.86065 0.0
C2748 C 0.54569 0.46764 0.85783 0.0
H2749 H 0.50462 0.42683 0.96514 0.0
H2750 H 0.52055 0.43993 0.95446 0.0
H2751 H 0.52352 0.45743 0.80496 0.0
H2752 H 0.56707 0.49625 0.7786 0.0
H2753 H 0.55428 0.48015 0.77167 0.0
C2754 C 0.74295 0.90067 0.40408 0.0
C2755 C 0.74014 0.90411 0.45 0.0
C2756 C 0.74452 0.89314 0.41122 0.0
C2757 C 0.73704 0.87265 0.50274 0.0
H2758 H 0.75568 0.86968 0.4192 0.0
C2759 C 0.73821 0.83846 0.51604 0.0
C2760 C 0.73877 0.83466 0.46391 0.0
C2761 C 0.74012 0.84772 0.51965 0.0
C2762 C 0.75043 0.87041 0.44269 0.0
H2763 H 0.7373 0.90267 0.54017 0.0
H2764 H 0.74013 0.8896 0.55265 0.0
H2765 H 0.756 0.8847 0.41651 0.0
H2766 H 0.74223 0.83782 0.37507 0.0
H2767 H 0.74541 0.85393 0.38126 0.0
H2768 H 0.7313 0.85834 0.52771 0.0
C2769 C 0.74095 0.89261 0.51089 0.0
C2770 C 0.75061 0.879 0.44116 0.0
C2771 C 0.73936 0.90013 0.50375 0.0
C2772 C 0.74169 0.84049 0.41591 0.0
C2773 C 0.74359 0.84976 0.41951 0.0
C2774 C 0.73687 0.86409 0.50429 0.0
C2775 C 0.74333 0.88889 0.46446 0.0
C2776 C 0.74382 0.88016 0.47046 0.0
C2777 C 0.74262 0.85341 0.47119 0.0
C2778 C 0.74346 0.86282 0.47359 0.0
H2779 H 0.74365 0.90359 0.36212 0.0
H2780 H 0.74626 0.89039 0.37446 0.0
H2781 H 0.73161 0.87324 0.52498 0.0
H2782 H 0.73604 0.83422 0.55396 0.0
H2783 H 0.73946 0.85037 0.56028 0.0
C2784 C 0.09648 0.84143 0.3976 0.0
C2785 C 0.09283 0.83568 0.44561 0.0
C2786 C 0.10398 0.85061 0.40263 0.0
C2787 C 0.12394 0.86468 0.49629 0.0
H2788 H 0.12748 0.88526 0.39971 0.0
C2789 C 0.15805 0.9002 0.50449 0.0
C2790 C 0.1622 0.90388 0.45174 0.0
C2791 C 0.14876 0.8929 0.50791 0.0
C2792 C 0.12658 0.87957 0.42688 0.0
H2793 H 0.09379 0.83527 0.537 0.0
H2794 H 0.10677 0.85132 0.54576 0.0
H2795 H 0.11248 0.87053 0.39863 0.0
H2796 H 0.15963 0.90309 0.36131 0.0
H2797 H 0.14347 0.89028 0.36731 0.0
H2798 H 0.13807 0.87357 0.52354 0.0
C2799 C 0.10398 0.84866 0.50408 0.0
C2800 C 0.11801 0.87114 0.42625 0.0
C2801 C 0.09652 0.83947 0.49904 0.0
C2802 C 0.15669 0.9004 0.40267 0.0
C2803 C 0.14739 0.89309 0.4061 0.0
C2804 C 0.13249 0.87309 0.49699 0.0
C2805 C 0.10795 0.85426 0.4558 0.0
C2806 C 0.11665 0.86355 0.4603 0.0
C2807 C 0.14339 0.88912 0.45867 0.0
C2808 C 0.13396 0.88058 0.46166 0.0
H2809 H 0.09379 0.83874 0.3558 0.0
H2810 H 0.10692 0.85469 0.36452 0.0
H2811 H 0.12321 0.85893 0.5223 0.0
H2812 H 0.16202 0.90279 0.5432 0.0
H2813 H 0.14582 0.8901 0.54913 0.0
C2814 C 0.15816 0.25773 0.50895 0.0
C2815 C 0.1616 0.25711 0.45563 0.0
C2816 C 0.14892 0.25577 0.51515 0.0
C2817 C 0.12576 0.24528 0.44332 0.0
H2818 H 0.12341 0.26435 0.52613 0.0
C2819 C 0.09606 0.25348 0.40537 0.0
C2820 C 0.09271 0.25642 0.45115 0.0
C2821 C 0.10345 0.2517 0.41276 0.0
C2822 C 0.12387 0.25884 0.50383 0.0
H2823 H 0.15784 0.2535 0.36751 0.0
H2824 H 0.14178 0.25024 0.3782 0.0
H2825 H 0.13825 0.26451 0.52693 0.0
H2826 H 0.09416 0.25926 0.54132 0.0
H2827 H 0.107 0.25608 0.55418 0.0
H2828 H 0.11142 0.23981 0.41876 0.0
C2829 C 0.1462 0.25214 0.41536 0.0
C2830 C 0.13239 0.25894 0.50428 0.0
C2831 C 0.15545 0.25409 0.40915 0.0
C2832 C 0.09663 0.25711 0.50501 0.0
C2833 C 0.10401 0.25531 0.51239 0.0
C2834 C 0.11721 0.24518 0.44287 0.0
C2835 C 0.1429 0.25316 0.46818 0.0
C2836 C 0.1335 0.25228 0.47307 0.0
C2837 C 0.10763 0.25279 0.4661 0.0
C2838 C 0.11624 0.25209 0.47215 0.0
H2839 H 0.16268 0.25997 0.54575 0.0
H2840 H 0.14654 0.25648 0.55657 0.0
H2841 H 0.12635 0.23997 0.41957 0.0
H2842 H 0.09319 0.25284 0.36333 0.0
H2843 H 0.10614 0.24986 0.37609 0.0
C2844 C 0.14451 0.40715 0.92077 0.0
C2845 C 0.13793 0.39777 0.9342 0.0
C2846 C 0.14611 0.41015 0.86448 0.0
C2847 C 0.13457 0.40553 0.72884 0.0
H2848 H 0.15904 0.41532 0.65906 0.0
C2849 C 0.13868 0.40432 0.49056 0.0
C2850 C 0.14677 0.41124 0.46313 0.0
C2851 C 0.13786 0.40438 0.54908 0.0
C2852 C 0.15221 0.41282 0.67807 0.0
H2853 H 0.12765 0.3843 0.89932 0.0
H2854 H 0.13026 0.38963 0.80122 0.0
H2855 H 0.15726 0.41218 0.76071 0.0
H2856 H 0.16022 0.42388 0.47557 0.0
H2857 H 0.1587 0.42409 0.57843 0.0
H2858 H 0.12945 0.40617 0.64699 0.0
C2859 C 0.1343 0.39458 0.83427 0.0
C2860 C 0.1512 0.41097 0.73616 0.0
C2861 C 0.13283 0.39154 0.89031 0.0
C2862 C 0.15391 0.41843 0.49552 0.0
C2863 C 0.15307 0.41851 0.55443 0.0
C2864 C 0.1356 0.40752 0.67114 0.0
C2865 C 0.14094 0.40391 0.82094 0.0
C2866 C 0.14231 0.40704 0.7615 0.0
C2867 C 0.14507 0.41141 0.58192 0.0
C2868 C 0.14436 0.41086 0.64461 0.0
H2869 H 0.14821 0.41227 0.95359 0.0
H2870 H 0.15118 0.41741 0.85507 0.0
H2871 H 0.12768 0.40264 0.74784 0.0
H2872 H 0.13303 0.39867 0.46702 0.0
H2873 H 0.13168 0.39868 0.56865 0.0
C2874 C 0.58413 0.74426 0.50806 0.0
C2875 C 0.58579 0.73854 0.47131 0.0
C2876 C 0.5841 0.74307 0.56658 0.0
C2877 C 0.59485 0.73504 0.67054 0.0
H2878 H 0.57849 0.73765 0.77788 0.0
C2879 C 0.59961 0.7328 0.90902 0.0
C2880 C 0.59876 0.73926 0.94355 0.0
C2881 C 0.59679 0.73165 0.85259 0.0
C2882 C 0.58316 0.73699 0.7484 0.0
H2883 H 0.58803 0.72662 0.46695 0.0
H2884 H 0.58796 0.72454 0.56894 0.0
H2885 H 0.57535 0.73728 0.67653 0.0
H2886 H 0.59446 0.74974 0.94615 0.0
H2887 H 0.58967 0.74788 0.84716 0.0
H2888 H 0.60286 0.73507 0.74153 0.0
C2889 C 0.58684 0.73005 0.55253 0.0
C2890 C 0.58134 0.73674 0.69046 0.0
C2891 C 0.58685 0.73123 0.49411 0.0
C2892 C 0.59499 0.74455 0.92076 0.0
C2893 C 0.59225 0.74348 0.86405 0.0
C2894 C 0.5967 0.73536 0.72822 0.0
C2895 C 0.58575 0.73613 0.58937 0.0
C2896 C 0.5872 0.7358 0.65098 0.0
C2897 C 0.5932 0.73707 0.82914 0.0
C2898 C 0.59092 0.73637 0.76791 0.0
H2899 H 0.58324 0.74993 0.49182 0.0
H2900 H 0.58327 0.74788 0.59397 0.0
H2901 H 0.59961 0.73452 0.6411 0.0
H2902 H 0.60244 0.72859 0.92573 0.0
H2903 H 0.59747 0.72654 0.82726 0.0
C2904 C 0.26369 0.866 0.90587 0.0
C2905 C 0.25715 0.85874 0.94041 0.0
C2906 C 0.26477 0.86429 0.84941 0.0
C2907 C 0.25898 0.84518 0.74527 0.0
H2908 H 0.26214 0.86435 0.63776 0.0
C2909 C 0.25158 0.83903 0.50503 0.0
C2910 C 0.25756 0.8463 0.46823 0.0
C2911 C 0.25279 0.84019 0.56354 0.0
C2912 C 0.26141 0.85899 0.66728 0.0
H2913 H 0.24645 0.84404 0.94302 0.0
H2914 H 0.24817 0.84105 0.84394 0.0
H2915 H 0.26163 0.86711 0.73816 0.0
H2916 H 0.26989 0.8602 0.46381 0.0
H2917 H 0.27196 0.86219 0.56585 0.0
H2918 H 0.25841 0.83694 0.67347 0.0
C2919 C 0.2527 0.84801 0.86083 0.0
C2920 C 0.26113 0.86057 0.72494 0.0
C2921 C 0.2517 0.84971 0.91758 0.0
C2922 C 0.2651 0.8545 0.491 0.0
C2923 C 0.26627 0.85567 0.54942 0.0
C2924 C 0.25918 0.84357 0.68735 0.0
C2925 C 0.2592 0.8553 0.82592 0.0
C2926 C 0.25987 0.85368 0.7647 0.0
C2927 C 0.25997 0.84863 0.58627 0.0
C2928 C 0.26036 0.85045 0.64783 0.0
H2929 H 0.26801 0.87302 0.92264 0.0
H2930 H 0.26996 0.87003 0.82412 0.0
H2931 H 0.25813 0.83978 0.77476 0.0
H2932 H 0.24573 0.8326 0.48881 0.0
H2933 H 0.2478 0.83466 0.59095 0.0
C2934 C 0.40629 0.13992 0.51078 0.0
C2935 C 0.41029 0.14849 0.5401 0.0
C2936 C 0.40665 0.13977 0.4518 0.0
C2937 C 0.40745 0.15381 0.33081 0.0
H2938 H 0.41057 0.13551 0.24445 0.0
C2939 C 0.40638 0.14167 0.0835 0.0
C2940 C 0.39766 0.14058 0.06756 0.0
C2941 C 0.40939 0.14365 0.13971 0.0
C2942 C 0.40979 0.14074 0.26792 0.0
H2943 H 0.41823 0.16364 0.53064 0.0
H2944 H 0.4188 0.16337 0.42754 0.0
H2945 H 0.41368 0.13704 0.34619 0.0
H2946 H 0.38527 0.14068 0.09722 0.0
H2947 H 0.39057 0.14427 0.19524 0.0
H2948 H 0.40331 0.15733 0.25295 0.0
C2949 C 0.41533 0.15677 0.45028 0.0
C2950 C 0.41151 0.14156 0.32614 0.0
C2951 C 0.41503 0.15692 0.50932 0.0
C2952 C 0.39206 0.14158 0.10847 0.0
C2953 C 0.39511 0.14368 0.16438 0.0
C2954 C 0.40565 0.15293 0.27278 0.0
C2955 C 0.41097 0.14819 0.42087 0.0
C2956 C 0.4102 0.148 0.35833 0.0
C2957 C 0.40377 0.14466 0.18071 0.0
C2958 C 0.40664 0.14627 0.24094 0.0
H2959 H 0.40263 0.1333 0.53326 0.0
H2960 H 0.40316 0.13305 0.43033 0.0
H2961 H 0.4063 0.15878 0.35452 0.0
H2962 H 0.4107 0.14064 0.05313 0.0
H2963 H 0.41608 0.14434 0.15121 0.0
C2964 C 0.85357 0.26508 0.5039 0.0
C2965 C 0.84602 0.25685 0.52637 0.0
C2966 C 0.85469 0.26637 0.44554 0.0
C2967 C 0.84307 0.25795 0.30731 0.0
H2968 H 0.86792 0.26398 0.25752 0.0
C2969 C 0.85084 0.25179 0.07837 0.0
C2970 C 0.85956 0.25824 0.05495 0.0
C2971 C 0.84892 0.25248 0.13513 0.0
C2972 C 0.86099 0.26246 0.27048 0.0
H2973 H 0.83335 0.24384 0.50537 0.0
H2974 H 0.83533 0.2461 0.4033 0.0
H2975 H 0.86481 0.26407 0.35779 0.0
H2976 H 0.87309 0.27049 0.07181 0.0
H2977 H 0.86971 0.27186 0.17058 0.0
H2978 H 0.83924 0.2563 0.21983 0.0
C2979 C 0.84038 0.25154 0.43091 0.0
C2980 C 0.85921 0.26251 0.32803 0.0
C2981 C 0.83928 0.25023 0.48936 0.0
C2982 C 0.86632 0.26541 0.08906 0.0
C2983 C 0.86438 0.26616 0.14561 0.0
C2984 C 0.84487 0.25798 0.24954 0.0
C2985 C 0.84825 0.25949 0.40849 0.0
C2986 C 0.85021 0.26016 0.34708 0.0
C2987 C 0.85569 0.25966 0.16949 0.0
C2988 C 0.85384 0.26013 0.23051 0.0
H2989 H 0.85884 0.27038 0.53127 0.0
H2990 H 0.86075 0.27263 0.42932 0.0
H2991 H 0.83608 0.25618 0.32091 0.0
H2992 H 0.84558 0.24607 0.05324 0.0
H2993 H 0.84223 0.24723 0.15239 0.0
C2994 C 0.73338 0.5782 0.49771 0.0
C2995 C 0.73424 0.58579 0.5297 0.0
C2996 C 0.73205 0.57794 0.43909 0.0
C2997 C 0.72591 0.58948 0.32386 0.0
H2998 H 0.74072 0.58249 0.22951 0.0
C2999 C 0.73955 0.60454 0.10338 0.0
C3000 C 0.73687 0.59804 0.05882 0.0
C3001 C 0.73792 0.60151 0.1594 0.0
C3002 C 0.73646 0.58433 0.25547 0.0
H3003 H 0.73429 0.59901 0.52536 0.0
H3004 H 0.73231 0.59871 0.42415 0.0
H3005 H 0.73999 0.57976 0.33155 0.0
H3006 H 0.72981 0.58313 0.03912 0.0
H3007 H 0.72755 0.57793 0.13727 0.0
H3008 H 0.72295 0.59464 0.24802 0.0
C3009 C 0.73238 0.5928 0.44388 0.0
C3010 C 0.73598 0.58273 0.31378 0.0
C3011 C 0.73361 0.59302 0.50215 0.0
C3012 C 0.73243 0.5884 0.07185 0.0
C3013 C 0.73098 0.58538 0.12812 0.0
C3014 C 0.72653 0.59122 0.26591 0.0
C3015 C 0.73162 0.5853 0.41145 0.0
C3016 C 0.73093 0.58555 0.34888 0.0
C3017 C 0.73365 0.59192 0.17213 0.0
C3018 C 0.73199 0.58887 0.2316 0.0
H3019 H 0.73379 0.5725 0.51783 0.0
H3020 H 0.73141 0.57201 0.41544 0.0
H3021 H 0.72174 0.5915 0.34933 0.0
H3022 H 0.74293 0.61201 0.09503 0.0
H3023 H 0.74006 0.60667 0.19293 0.0
C3024 C 0.84182 0.5786 0.50163 0.0
C3025 C 0.84874 0.58586 0.53476 0.0
C3026 C 0.8429 0.57859 0.44286 0.0
C3027 C 0.8608 0.58991 0.32871 0.0
H3028 H 0.83939 0.58479 0.23512 0.0
C3029 C 0.86425 0.60554 0.10748 0.0
C3030 C 0.85904 0.59933 0.06377 0.0
C3031 C 0.86273 0.60254 0.16361 0.0
C3032 C 0.84539 0.58612 0.26078 0.0
H3033 H 0.86231 0.59867 0.53229 0.0
H3034 H 0.86405 0.59878 0.43093 0.0
H3035 H 0.83722 0.58165 0.33667 0.0
H3036 H 0.84858 0.58489 0.04461 0.0
H3037 H 0.84555 0.57981 0.14324 0.0
H3038 H 0.86902 0.59487 0.25317 0.0
C3039 C 0.85788 0.59297 0.44984 0.0
C3040 C 0.84416 0.58428 0.31883 0.0
C3041 C 0.85683 0.59296 0.50819 0.0
C3042 C 0.85236 0.58999 0.07738 0.0
C3043 C 0.85072 0.58703 0.13372 0.0
C3044 C 0.86204 0.59188 0.27099 0.0
C3045 C 0.85091 0.58584 0.41628 0.0
C3046 C 0.8519 0.5864 0.35372 0.0
C3047 C 0.85594 0.59327 0.1772 0.0
C3048 C 0.85439 0.5902 0.23683 0.0
H3049 H 0.83553 0.57302 0.5209 0.0
H3050 H 0.83745 0.57295 0.41827 0.0
H3051 H 0.86687 0.5914 0.35402 0.0
H3052 H 0.86952 0.61274 0.09825 0.0
H3053 H 0.86681 0.60749 0.19655 0.0
C3054 C 0.41771 0.26224 0.49948 0.0
C3055 C 0.41054 0.26236 0.53111 0.0
C3056 C 0.41802 0.26329 0.44063 0.0
C3057 C 0.4076 0.27017 0.32231 0.0
H3058 H 0.41229 0.25307 0.23399 0.0
C3059 C 0.3915 0.25522 0.1049 0.0
C3060 C 0.39795 0.25792 0.06004 0.0
C3061 C 0.3946 0.25687 0.1608 0.0
C3062 C 0.4111 0.25796 0.25826 0.0
H3063 H 0.39822 0.26393 0.52592 0.0
H3064 H 0.39858 0.26546 0.42425 0.0
H3065 H 0.41513 0.25433 0.336 0.0
H3066 H 0.41283 0.26493 0.03962 0.0
H3067 H 0.41814 0.26724 0.13765 0.0
H3068 H 0.40295 0.27326 0.2448 0.0
C3069 C 0.40412 0.26479 0.44442 0.0
C3070 C 0.41276 0.25874 0.31653 0.0
C3071 C 0.40386 0.26382 0.50296 0.0
C3072 C 0.4076 0.26232 0.07264 0.0
C3073 C 0.41069 0.2638 0.12879 0.0
C3074 C 0.40578 0.26926 0.26438 0.0
C3075 C 0.41113 0.26444 0.41232 0.0
C3076 C 0.41078 0.26467 0.34952 0.0
C3077 C 0.4042 0.26116 0.17306 0.0
C3078 C 0.40733 0.263 0.2323 0.0
H3079 H 0.42299 0.26118 0.52002 0.0
H3080 H 0.42358 0.26311 0.41731 0.0
H3081 H 0.40623 0.27499 0.34605 0.0
H3082 H 0.38403 0.25188 0.09683 0.0
H3083 H 0.38949 0.25479 0.19459 0.0
C3084 C 0.73533 0.14442 0.08621 0.0
C3085 C 0.73792 0.1377 0.07259 0.0
C3086 C 0.73399 0.14604 0.14256 0.0
C3087 C 0.72754 0.13463 0.27994 0.0
H3088 H 0.7421 0.15945 0.34565 0.0
C3089 C 0.73453 0.13982 0.51636 0.0
C3090 C 0.73535 0.14779 0.54362 0.0
C3091 C 0.73336 0.13881 0.45806 0.0
C3092 C 0.73782 0.15252 0.32779 0.0
H3093 H 0.74074 0.12714 0.10697 0.0
H3094 H 0.7382 0.12983 0.20523 0.0
H3095 H 0.74293 0.15733 0.24389 0.0
H3096 H 0.7353 0.16083 0.53106 0.0
H3097 H 0.73313 0.15898 0.42846 0.0
H3098 H 0.72243 0.12975 0.36324 0.0
C3099 C 0.73737 0.13395 0.17234 0.0
C3100 C 0.73833 0.15131 0.26962 0.0
C3101 C 0.73886 0.13244 0.11623 0.0
C3102 C 0.73473 0.15463 0.51124 0.0
C3103 C 0.73353 0.15359 0.45252 0.0
C3104 C 0.72692 0.13584 0.33778 0.0
C3105 C 0.73494 0.14077 0.18599 0.0
C3106 C 0.73343 0.1423 0.24566 0.0
C3107 C 0.7329 0.14569 0.42527 0.0
C3108 C 0.73232 0.14474 0.36275 0.0
H3109 H 0.73408 0.14825 0.05344 0.0
H3110 H 0.73199 0.15124 0.15212 0.0
H3111 H 0.72356 0.12764 0.26213 0.0
H3112 H 0.73497 0.13441 0.53989 0.0
H3113 H 0.73311 0.13273 0.43854 0.0
C3114 C 0.58989 0.85269 0.91155 0.0
C3115 C 0.59922 0.8594 0.92494 0.0
C3116 C 0.58687 0.85108 0.85529 0.0
C3117 C 0.59132 0.8627 0.71977 0.0
H3118 H 0.58197 0.83832 0.6495 0.0
C3119 C 0.59308 0.8588 0.48175 0.0
C3120 C 0.58626 0.8507 0.45387 0.0
C3121 C 0.59289 0.85957 0.54025 0.0
C3122 C 0.58435 0.84512 0.66866 0.0
H3123 H 0.6126 0.86988 0.89002 0.0
H3124 H 0.60724 0.86724 0.79201 0.0
H3125 H 0.585 0.84007 0.75128 0.0
H3126 H 0.57366 0.83719 0.46546 0.0
H3127 H 0.57323 0.83861 0.56829 0.0
H3128 H 0.59071 0.86782 0.63788 0.0
C3129 C 0.60234 0.86312 0.82506 0.0
C3130 C 0.58612 0.84611 0.72682 0.0
C3131 C 0.6054 0.8646 0.88104 0.0
C3132 C 0.57904 0.8435 0.48577 0.0
C3133 C 0.57882 0.84429 0.54465 0.0
C3134 C 0.58942 0.86168 0.66198 0.0
C3135 C 0.59306 0.85636 0.81175 0.0
C3136 C 0.58992 0.85497 0.75233 0.0
C3137 C 0.58583 0.8523 0.5726 0.0
C3138 C 0.58624 0.85296 0.6353 0.0
H3139 H 0.58481 0.8489 0.94438 0.0
H3140 H 0.57964 0.84592 0.84589 0.0
H3141 H 0.59411 0.86957 0.73889 0.0
H3142 H 0.59875 0.8645 0.45858 0.0
H3143 H 0.59851 0.86576 0.56022 0.0
C3144 C 0.15313 0.73425 0.49032 0.0
C3145 C 0.14615 0.73459 0.4579 0.0
C3146 C 0.15222 0.73324 0.54919 0.0
C3147 C 0.13471 0.72703 0.66533 0.0
H3148 H 0.15646 0.74344 0.75621 0.0
C3149 C 0.13212 0.74016 0.88496 0.0
C3150 C 0.13712 0.7389 0.92891 0.0
C3151 C 0.13356 0.73856 0.82894 0.0
C3152 C 0.15037 0.73874 0.73129 0.0
H3153 H 0.13264 0.73391 0.46172 0.0
H3154 H 0.13118 0.73243 0.56326 0.0
H3155 H 0.15829 0.74217 0.65452 0.0
H3156 H 0.14717 0.7344 0.94844 0.0
H3157 H 0.15009 0.73216 0.84995 0.0
H3158 H 0.12673 0.72405 0.74171 0.0
C3159 C 0.13727 0.73272 0.54374 0.0
C3160 C 0.15141 0.73796 0.67318 0.0
C3161 C 0.13816 0.73367 0.48527 0.0
C3162 C 0.14356 0.73592 0.91557 0.0
C3163 C 0.14513 0.73449 0.85929 0.0
C3164 C 0.13366 0.72793 0.72307 0.0
C3165 C 0.14431 0.73257 0.5766 0.0
C3166 C 0.14354 0.7323 0.63926 0.0
C3167 C 0.14007 0.73571 0.81567 0.0
C3168 C 0.14144 0.73396 0.75621 0.0
H3169 H 0.15936 0.7349 0.47042 0.0
H3170 H 0.15773 0.73306 0.57321 0.0
H3171 H 0.12854 0.72241 0.6408 0.0
H3172 H 0.12704 0.74236 0.89392 0.0
H3173 H 0.12961 0.73959 0.79584 0.0
C3174 C 0.2504 0.39952 0.92217 0.0
C3175 C 0.25816 0.39961 0.94747 0.0
C3176 C 0.25075 0.40203 0.86538 0.0
C3177 C 0.26586 0.41557 0.75031 0.0
H3178 H 0.24818 0.39585 0.6514 0.0
C3179 C 0.2692 0.41823 0.50601 0.0
C3180 C 0.26103 0.41315 0.4738 0.0
C3181 C 0.2688 0.41751 0.56508 0.0
C3182 C 0.25304 0.40156 0.67821 0.0
H3183 H 0.2724 0.40252 0.93439 0.0
H3184 H 0.27311 0.4072 0.83515 0.0
H3185 H 0.24749 0.39311 0.7526 0.0
H3186 H 0.246 0.40389 0.47686 0.0
H3187 H 0.24512 0.40314 0.57945 0.0
H3188 H 0.27126 0.42416 0.67652 0.0
C3189 C 0.26677 0.40514 0.85921 0.0
C3190 C 0.25266 0.39992 0.73625 0.0
C3191 C 0.26634 0.40242 0.91561 0.0
C3192 C 0.2524 0.40779 0.50114 0.0
C3193 C 0.25194 0.40728 0.55996 0.0
C3194 C 0.2661 0.41731 0.69222 0.0
C3195 C 0.25894 0.40484 0.83353 0.0
C3196 C 0.25911 0.40687 0.77265 0.0
C3197 C 0.26016 0.41186 0.59285 0.0
C3198 C 0.25973 0.41029 0.65522 0.0
H3199 H 0.24399 0.39728 0.94588 0.0
H3200 H 0.24463 0.40172 0.84617 0.0
H3201 H 0.27089 0.42103 0.77789 0.0
H3202 H 0.27594 0.42236 0.48546 0.0
H3203 H 0.2753 0.42107 0.58857 0.0
C3204 C 0.82078 0.75244 0.83135 0.0
C3205 C 0.81393 0.74489 0.79965 0.0
C3206 C 0.81976 0.75279 0.88995 0.0
C3207 C 0.80207 0.7417 0.0055 0.0
H3208 H 0.82378 0.74823 0.09968 0.0
C3209 C 0.80038 0.72652 0.22586 0.0
C3210 C 0.80427 0.73301 0.27045 0.0
C3211 C 0.80183 0.72956 0.16986 0.0
C3212 C 0.8177 0.74653 0.07376 0.0
H3213 H 0.80061 0.73184 0.80445 0.0
H3214 H 0.79899 0.7323 0.90565 0.0
H3215 H 0.82579 0.75088 0.99757 0.0
H3216 H 0.81231 0.74791 0.29023 0.0
H3217 H 0.81533 0.75311 0.19208 0.0
H3218 H 0.79394 0.73675 0.08146 0.0
C3219 C 0.80503 0.73811 0.88569 0.0
C3220 C 0.81884 0.74807 0.01542 0.0
C3221 C 0.806 0.7378 0.82745 0.0
C3222 C 0.80959 0.74264 0.25746 0.0
C3223 C 0.81121 0.74567 0.20121 0.0
C3224 C 0.80093 0.74001 0.06349 0.0
C3225 C 0.81189 0.74557 0.91783 0.0
C3226 C 0.81098 0.74541 0.98039 0.0
C3227 C 0.80727 0.73914 0.15718 0.0
C3228 C 0.80871 0.74219 0.09773 0.0
H3229 H 0.82695 0.75803 0.81104 0.0
H3230 H 0.82514 0.75869 0.91338 0.0
H3231 H 0.7959 0.73981 0.98006 0.0
H3232 H 0.7962 0.71906 0.23418 0.0
H3233 H 0.79875 0.72441 0.13631 0.0
C3234 C 0.2539 0.06514 0.81854 0.0
C3235 C 0.25377 0.07299 0.79607 0.0
C3236 C 0.25378 0.06386 0.8769 0.0
C3237 C 0.2493 0.07126 0.01514 0.0
H3238 H 0.26949 0.06733 0.06571 0.0
C3239 C 0.26269 0.07762 0.24588 0.0
C3240 C 0.26584 0.07178 0.26823 0.0
C3241 C 0.26005 0.07686 0.18911 0.0
C3242 C 0.2637 0.06825 0.05255 0.0
H3243 H 0.25275 0.08529 0.81713 0.0
H3244 H 0.25255 0.08304 0.91924 0.0
H3245 H 0.26642 0.06724 0.96529 0.0
H3246 H 0.26853 0.06046 0.24961 0.0
H3247 H 0.26369 0.05892 0.151 0.0
H3248 H 0.2466 0.07231 0.10263 0.0
C3249 C 0.25275 0.07789 0.89159 0.0
C3250 C 0.26195 0.06821 0.99488 0.0
C3251 C 0.25291 0.0792 0.83312 0.0
C3252 C 0.26618 0.06508 0.23321 0.0
C3253 C 0.26344 0.06424 0.1767 0.0
C3254 C 0.25099 0.07122 0.07306 0.0
C3255 C 0.25348 0.07037 0.91401 0.0
C3256 C 0.25478 0.06978 0.97552 0.0
C3257 C 0.26047 0.0702 0.15369 0.0
C3258 C 0.25828 0.06979 0.09242 0.0
H3259 H 0.25445 0.06016 0.79116 0.0
H3260 H 0.25419 0.05792 0.89307 0.0
H3261 H 0.24369 0.07244 0.00131 0.0
H3262 H 0.26256 0.08299 0.2717 0.0
H3263 H 0.25797 0.08169 0.17261 0.0
C3264 C 0.92925 0.17701 0.81538 0.0
C3265 C 0.92922 0.18417 0.78313 0.0
C3266 C 0.93012 0.1778 0.87432 0.0
C3267 C 0.93632 0.19511 0.99183 0.0
H3268 H 0.91927 0.17324 0.07989 0.0
C3269 C 0.92256 0.19735 0.21021 0.0
C3270 C 0.92379 0.19232 0.25416 0.0
C3271 C 0.92422 0.19596 0.15423 0.0
C3272 C 0.92414 0.17936 0.05576 0.0
H3273 H 0.93037 0.1979 0.78732 0.0
H3274 H 0.93161 0.19915 0.88904 0.0
H3275 H 0.92083 0.17164 0.97827 0.0
H3276 H 0.92825 0.18224 0.27361 0.0
H3277 H 0.93058 0.1794 0.17515 0.0
H3278 H 0.93917 0.2029 0.06893 0.0
C3279 C 0.93117 0.193 0.86934 0.0
C3280 C 0.92509 0.17845 0.99769 0.0
C3281 C 0.93036 0.19224 0.81076 0.0
C3282 C 0.92675 0.18587 0.24079 0.0
C3283 C 0.92824 0.18435 0.18452 0.0
C3284 C 0.93524 0.19603 0.04952 0.0
C3285 C 0.93096 0.18576 0.90203 0.0
C3286 C 0.93101 0.18638 0.96476 0.0
C3287 C 0.92709 0.18946 0.14097 0.0
C3288 C 0.92899 0.18821 0.08161 0.0
H3289 H 0.92843 0.17073 0.79528 0.0
H3290 H 0.93004 0.17215 0.89818 0.0
H3291 H 0.94113 0.20131 0.96813 0.0
H3292 H 0.92037 0.20243 0.21916 0.0
H3293 H 0.92325 0.19995 0.12115 0.0
C3294 C 0.07452 0.47549 0.84716 0.0
C3295 C 0.07741 0.48405 0.87518 0.0
C3296 C 0.07476 0.47516 0.78821 0.0
C3297 C 0.07303 0.48757 0.66517 0.0
H3298 H 0.07888 0.47087 0.5815 0.0
C3299 C 0.07335 0.47531 0.41964 0.0
C3300 C 0.06434 0.47333 0.4031 0.0
C3301 C 0.07627 0.47763 0.47581 0.0
C3302 C 0.07733 0.47565 0.60418 0.0
H3303 H 0.08329 0.49904 0.86337 0.0
H3304 H 0.08368 0.49844 0.76034 0.0
H3305 H 0.08223 0.4732 0.68279 0.0
H3306 H 0.05129 0.47212 0.43199 0.0
H3307 H 0.05637 0.4762 0.52996 0.0
H3308 H 0.06796 0.48987 0.58692 0.0
C3309 C 0.08115 0.49198 0.78407 0.0
C3310 C 0.07918 0.47693 0.66219 0.0
C3311 C 0.08096 0.49233 0.84309 0.0
C3312 C 0.0583 0.47369 0.4436 0.0
C3313 C 0.06124 0.47609 0.49952 0.0
C3314 C 0.07113 0.48624 0.60733 0.0
C3315 C 0.07785 0.48337 0.75597 0.0
C3316 C 0.0769 0.48278 0.69348 0.0
C3317 C 0.07023 0.47805 0.51631 0.0
C3318 C 0.0731 0.48014 0.57642 0.0
H3319 H 0.0718 0.46899 0.87065 0.0
H3320 H 0.0721 0.4684 0.76783 0.0
H3321 H 0.07111 0.49206 0.68814 0.0
H3322 H 0.07804 0.4748 0.38974 0.0
H3323 H 0.08323 0.47908 0.4876 0.0
C3324 C 0.50586 0.58305 0.82567 0.0
C3325 C 0.51251 0.58979 0.86261 0.0
C3326 C 0.50697 0.58433 0.76719 0.0
C3327 C 0.52576 0.59554 0.66427 0.0
H3328 H 0.5057 0.58886 0.55596 0.0
C3329 C 0.53287 0.59842 0.4252 0.0
C3330 C 0.52617 0.59119 0.39114 0.0
C3331 C 0.53091 0.59914 0.48177 0.0
C3332 C 0.51136 0.59067 0.58569 0.0
H3333 H 0.52515 0.60347 0.86732 0.0
H3334 H 0.52706 0.60565 0.7653 0.0
H3335 H 0.50252 0.58874 0.65698 0.0
H3336 H 0.51231 0.57885 0.38956 0.0
H3337 H 0.50892 0.57995 0.48874 0.0
H3338 H 0.53454 0.59714 0.59384 0.0
C3339 C 0.52108 0.59934 0.78161 0.0
C3340 C 0.50954 0.59064 0.64344 0.0
C3341 C 0.51996 0.59809 0.84001 0.0
C3342 C 0.51751 0.58462 0.41465 0.0
C3343 C 0.51557 0.58527 0.47143 0.0
C3344 C 0.52756 0.59549 0.60674 0.0
C3345 C 0.51475 0.59235 0.74466 0.0
C3346 C 0.51671 0.59303 0.68326 0.0
C3347 C 0.52226 0.59253 0.50573 0.0
C3348 C 0.52038 0.59299 0.56672 0.0
H3349 H 0.50002 0.57661 0.84177 0.0
H3350 H 0.50199 0.57882 0.73967 0.0
H3351 H 0.53139 0.59723 0.69407 0.0
H3352 H 0.53959 0.6036 0.40787 0.0
H3353 H 0.53617 0.60489 0.50667 0.0
C3354 C 0.40182 0.92329 0.40915 0.0
C3355 C 0.40402 0.9325 0.3955 0.0
C3356 C 0.40057 0.92033 0.46548 0.0
C3357 C 0.3934 0.9246 0.60201 0.0
H3358 H 0.40893 0.91561 0.66946 0.0
C3359 C 0.39956 0.92619 0.83952 0.0
C3360 C 0.40098 0.9194 0.86657 0.0
C3361 C 0.39852 0.92609 0.78111 0.0
C3362 C 0.40438 0.91789 0.65111 0.0
H3363 H 0.40626 0.94568 0.42989 0.0
H3364 H 0.40385 0.94042 0.52815 0.0
H3365 H 0.40991 0.91869 0.56783 0.0
H3366 H 0.4021 0.90694 0.85355 0.0
H3367 H 0.40012 0.90666 0.75084 0.0
H3368 H 0.38784 0.92384 0.68462 0.0
C3369 C 0.40327 0.93557 0.49526 0.0
C3370 C 0.40498 0.9197 0.59302 0.0
C3371 C 0.40468 0.93858 0.43915 0.0
C3372 C 0.40105 0.9123 0.83389 0.0
C3373 C 0.39997 0.91217 0.77509 0.0
C3374 C 0.39269 0.92267 0.65976 0.0
C3375 C 0.40121 0.92643 0.50888 0.0
C3376 C 0.39972 0.92335 0.56846 0.0
C3377 C 0.39879 0.91913 0.74801 0.0
C3378 C 0.39841 0.91961 0.6854 0.0
H3379 H 0.40077 0.91826 0.37642 0.0
H3380 H 0.39885 0.9132 0.47506 0.0
H3381 H 0.38915 0.92726 0.58369 0.0
H3382 H 0.39946 0.93177 0.86328 0.0
H3383 H 0.39783 0.93168 0.76181 0.0
C3384 C 0.5051 0.91502 0.83275 0.0
C3385 C 0.51344 0.91921 0.86446 0.0
C3386 C 0.5054 0.91474 0.77374 0.0
C3387 C 0.5207 0.91761 0.65146 0.0
H3388 H 0.50636 0.92729 0.57592 0.0
C3389 C 0.52257 0.93782 0.43289 0.0
C3390 C 0.52324 0.93197 0.39226 0.0
C3391 C 0.52027 0.93482 0.48878 0.0
C3392 C 0.51037 0.92453 0.59641 0.0
H3393 H 0.52861 0.92587 0.85931 0.0
H3394 H 0.52913 0.92538 0.7565 0.0
H3395 H 0.50442 0.92421 0.67733 0.0
H3396 H 0.5224 0.91856 0.37842 0.0
H3397 H 0.51835 0.91326 0.47643 0.0
H3398 H 0.52686 0.91823 0.57059 0.0
C3399 C 0.52235 0.92231 0.77718 0.0
C3400 C 0.50919 0.92269 0.65435 0.0
C3401 C 0.52206 0.92265 0.83611 0.0
C3402 C 0.52165 0.92308 0.40853 0.0
C3403 C 0.51946 0.92011 0.46472 0.0
C3404 C 0.52181 0.91938 0.59332 0.0
C3405 C 0.51404 0.91856 0.7453 0.0
C3406 C 0.51449 0.91939 0.68274 0.0
C3407 C 0.51875 0.92596 0.50538 0.0
C3408 C 0.51681 0.92307 0.56551 0.0
H3409 H 0.49834 0.91225 0.8533 0.0
H3410 H 0.49887 0.9117 0.75028 0.0
H3411 H 0.52482 0.91501 0.67216 0.0
H3412 H 0.52384 0.94474 0.42141 0.0
H3413 H 0.51992 0.93953 0.51936 0.0
C3414 C 0.06362 0.59919 0.43351 0.0
C3415 C 0.06414 0.59258 0.39861 0.0
C3416 C 0.0664 0.60014 0.48995 0.0
C3417 C 0.0792 0.59377 0.59419 0.0
H3418 H 0.06283 0.59652 0.70074 0.0
C3419 C 0.07731 0.58566 0.834 0.0
C3420 C 0.07573 0.59142 0.87094 0.0
C3421 C 0.07755 0.58703 0.77556 0.0
C3422 C 0.06757 0.59591 0.67156 0.0
H3423 H 0.06784 0.58167 0.39527 0.0
H3424 H 0.07256 0.58319 0.49426 0.0
H3425 H 0.05996 0.59647 0.60014 0.0
H3426 H 0.0739 0.60359 0.87589 0.0
H3427 H 0.07436 0.60599 0.77415 0.0
H3428 H 0.08661 0.59289 0.66647 0.0
C3429 C 0.07027 0.58785 0.47766 0.0
C3430 C 0.06594 0.59589 0.61378 0.0
C3431 C 0.06757 0.58697 0.42094 0.0
C3432 C 0.07499 0.59893 0.84854 0.0
C3433 C 0.07522 0.6003 0.79026 0.0
C3434 C 0.08081 0.59373 0.65225 0.0
C3435 C 0.0696 0.59437 0.513 0.0
C3436 C 0.0717 0.59478 0.57434 0.0
C3437 C 0.07621 0.59419 0.75311 0.0
C3438 C 0.07498 0.59477 0.69147 0.0
H3439 H 0.06105 0.60364 0.41713 0.0
H3440 H 0.06595 0.60535 0.51567 0.0
H3441 H 0.08384 0.593 0.5649 0.0
H3442 H 0.07796 0.57984 0.84999 0.0
H3443 H 0.07829 0.58219 0.74792 0.0
C3444 C 0.39875 0.47435 0.42572 0.0
C3445 C 0.4064 0.4733 0.4097 0.0
C3446 C 0.39773 0.47636 0.48191 0.0
C3447 C 0.39465 0.4738 0.61075 0.0
H3448 H 0.41635 0.49228 0.69443 0.0
C3449 C 0.39793 0.47402 0.85372 0.0
C3450 C 0.40264 0.48271 0.88176 0.0
C3451 C 0.39724 0.47362 0.79479 0.0
C3452 C 0.41018 0.48719 0.67155 0.0
H3453 H 0.41892 0.47347 0.43934 0.0
H3454 H 0.41724 0.47711 0.53728 0.0
H3455 H 0.41766 0.49043 0.59311 0.0
H3456 H 0.40985 0.49782 0.87003 0.0
H3457 H 0.40868 0.49711 0.76704 0.0
H3458 H 0.38724 0.47038 0.68965 0.0
C3459 C 0.41208 0.47646 0.50649 0.0
C3460 C 0.41097 0.48607 0.61366 0.0
C3461 C 0.41301 0.47432 0.45061 0.0
C3462 C 0.40624 0.491 0.84974 0.0
C3463 C 0.4056 0.49061 0.79074 0.0
C3464 C 0.39389 0.47485 0.66888 0.0
C3465 C 0.4044 0.47744 0.52282 0.0
C3466 C 0.40326 0.47926 0.58288 0.0
C3467 C 0.40128 0.48192 0.7626 0.0
C3468 C 0.40169 0.48146 0.70004 0.0
H3469 H 0.39339 0.47331 0.39536 0.0
H3470 H 0.39173 0.47705 0.49343 0.0
H3471 H 0.38861 0.46846 0.58808 0.0
H3472 H 0.39502 0.46749 0.87714 0.0
H3473 H 0.39393 0.46682 0.77436 0.0
C3474 C 0.25465 0.18721 0.24482 0.0
C3475 C 0.2643 0.19173 0.25747 0.0
C3476 C 0.25156 0.18535 0.18872 0.0
C3477 C 0.2553 0.19377 0.05318 0.0
H3478 H 0.24934 0.1702 0.98174 0.0
C3479 C 0.2576 0.19044 0.81387 0.0
C3480 C 0.25156 0.18192 0.78659 0.0
C3481 C 0.25736 0.19122 0.87243 0.0
C3482 C 0.25077 0.17675 0.00115 0.0
H3483 H 0.27825 0.19806 0.22093 0.0
H3484 H 0.2728 0.19493 0.12295 0.0
H3485 H 0.25226 0.17218 0.08365 0.0
H3486 H 0.24024 0.16763 0.79932 0.0
H3487 H 0.23972 0.16904 0.90199 0.0
H3488 H 0.25396 0.19846 0.97127 0.0
C3489 C 0.26768 0.19271 0.15677 0.0
C3490 C 0.25248 0.17787 0.05933 0.0
C3491 C 0.27078 0.1945 0.21272 0.0
C3492 C 0.24503 0.17428 0.81911 0.0
C3493 C 0.24476 0.17507 0.87795 0.0
C3494 C 0.25351 0.19264 0.99517 0.0
C3495 C 0.25807 0.18812 0.14453 0.0
C3496 C 0.25497 0.18646 0.08528 0.0
C3497 C 0.25103 0.18351 0.90537 0.0
C3498 C 0.2515 0.18421 0.96812 0.0
H3499 H 0.24947 0.18535 0.27777 0.0
H3500 H 0.24411 0.1819 0.17975 0.0
H3501 H 0.2572 0.20045 0.07276 0.0
H3502 H 0.26272 0.19648 0.79019 0.0
H3503 H 0.26241 0.19778 0.89199 0.0
C3504 C 0.82412 0.07986 0.84089 0.0
C3505 C 0.81711 0.07343 0.80432 0.0
C3506 C 0.82304 0.07868 0.89941 0.0
C3507 C 0.80424 0.06878 0.00324 0.0
H3508 H 0.82415 0.07439 0.11082 0.0
C3509 C 0.79751 0.06671 0.24239 0.0
C3510 C 0.80447 0.07381 0.27592 0.0
C3511 C 0.7993 0.06573 0.18591 0.0
C3512 C 0.81854 0.07288 0.08127 0.0
H3513 H 0.80381 0.06036 0.80032 0.0
H3514 H 0.80196 0.05832 0.90246 0.0
H3515 H 0.82706 0.07402 0.00975 0.0
H3516 H 0.81866 0.08564 0.27661 0.0
H3517 H 0.82176 0.08407 0.17751 0.0
H3518 H 0.7958 0.06795 0.07391 0.0
C3519 C 0.8082 0.06434 0.88582 0.0
C3520 C 0.8202 0.07263 0.0235 0.0
C3521 C 0.80929 0.06549 0.82734 0.0
C3522 C 0.81324 0.07997 0.25196 0.0
C3523 C 0.81502 0.07905 0.19524 0.0
C3524 C 0.8026 0.06909 0.06078 0.0
C3525 C 0.81493 0.07107 0.92241 0.0
C3526 C 0.81308 0.07063 0.98392 0.0
C3527 C 0.80805 0.07193 0.16148 0.0
C3528 C 0.80974 0.07121 0.10051 0.0
H3529 H 0.83025 0.08602 0.82446 0.0
H3530 H 0.82832 0.084 0.9266 0.0
H3531 H 0.79867 0.06741 0.97366 0.0
H3532 H 0.7907 0.06183 0.26004 0.0
H3533 H 0.79382 0.06008 0.16143 0.0
C3534 C 0.92933 0.75238 0.82773 0.0
C3535 C 0.92851 0.74485 0.7952 0.0
C3536 C 0.93055 0.7525 0.88642 0.0
C3537 C 0.93668 0.74087 0.00087 0.0
H3538 H 0.92134 0.74717 0.09526 0.0
C3539 C 0.92395 0.72558 0.22207 0.0
C3540 C 0.92554 0.73195 0.26604 0.0
C3541 C 0.92558 0.7286 0.16599 0.0
C3542 C 0.92575 0.74551 0.06935 0.0
H3543 H 0.92853 0.73166 0.79866 0.0
H3544 H 0.93039 0.73176 0.89991 0.0
H3545 H 0.92221 0.75014 0.99349 0.0
H3546 H 0.93072 0.74665 0.28543 0.0
H3547 H 0.93298 0.75178 0.18696 0.0
H3548 H 0.93974 0.73573 0.07639 0.0
C3549 C 0.93031 0.73768 0.88056 0.0
C3550 C 0.9263 0.74725 0.01119 0.0
C3551 C 0.92914 0.73759 0.82229 0.0
C3552 C 0.92893 0.74145 0.25265 0.0
C3553 C 0.93038 0.74444 0.19635 0.0
C3554 C 0.93601 0.73901 0.05869 0.0
C3555 C 0.93097 0.7451 0.91351 0.0
C3556 C 0.93155 0.74469 0.97605 0.0
C3557 C 0.92876 0.73804 0.15269 0.0
C3558 C 0.93036 0.7411 0.0931 0.0
H3559 H 0.92891 0.7581 0.80803 0.0
H3560 H 0.93112 0.75835 0.91055 0.0
H3561 H 0.94099 0.73905 0.97532 0.0
H3562 H 0.92144 0.71824 0.23101 0.0
H3563 H 0.92424 0.72353 0.13286 0.0
C3564 C 0.46583 0.05915 0.55902 0.0
C3565 C 0.4707 0.06548 0.60301 0.0
C3566 C 0.46729 0.06218 0.50294 0.0
C3567 C 0.48422 0.0789 0.4063 0.0
H3568 H 0.46262 0.07298 0.3125 0.0
C3569 C 0.48767 0.08595 0.16491 0.0
C3570 C 0.48084 0.07855 0.13218 0.0
C3571 C 0.48658 0.08605 0.22362 0.0
C3572 C 0.46873 0.07465 0.33797 0.0
H3573 H 0.48046 0.08013 0.6224 0.0
H3574 H 0.48343 0.08525 0.52396 0.0
H3575 H 0.46051 0.0696 0.41349 0.0
H3576 H 0.46742 0.06556 0.13529 0.0
H3577 H 0.46568 0.06562 0.23656 0.0
H3578 H 0.4924 0.08342 0.33045 0.0
C3579 C 0.47856 0.07793 0.53333 0.0
C3580 C 0.46751 0.07275 0.39575 0.0
C3581 C 0.47697 0.07494 0.58963 0.0
C3582 C 0.47283 0.07139 0.15908 0.0
C3583 C 0.47177 0.07147 0.21738 0.0
C3584 C 0.48544 0.08066 0.34817 0.0
C3585 C 0.47369 0.07158 0.48965 0.0
C3586 C 0.4752 0.07465 0.43008 0.0
C3587 C 0.47864 0.07875 0.25054 0.0
C3588 C 0.47766 0.0783 0.3131 0.0
H3589 H 0.46089 0.05184 0.56795 0.0
H3590 H 0.46348 0.05714 0.4698 0.0
H3591 H 0.49025 0.0804 0.43215 0.0
H3592 H 0.49389 0.09159 0.14536 0.0
H3593 H 0.49196 0.09181 0.24791 0.0
C3594 C 0.93816 0.40897 0.54697 0.0
C3595 C 0.93172 0.40628 0.59187 0.0
C3596 C 0.93505 0.40732 0.49109 0.0
C3597 C 0.91866 0.40636 0.39369 0.0
H3598 H 0.92323 0.38912 0.30603 0.0
C3599 C 0.91209 0.40217 0.15242 0.0
C3600 C 0.91921 0.40195 0.12088 0.0
C3601 C 0.91175 0.40111 0.21127 0.0
C3602 C 0.92194 0.394 0.32974 0.0
H3603 H 0.91685 0.39928 0.61245 0.0
H3604 H 0.91151 0.39698 0.51443 0.0
H3605 H 0.92649 0.39081 0.40731 0.0
H3606 H 0.93141 0.40017 0.12623 0.0
H3607 H 0.931 0.39862 0.2279 0.0
H3608 H 0.91472 0.41008 0.31589 0.0
C3609 C 0.91896 0.40041 0.52323 0.0
C3610 C 0.92374 0.39489 0.38768 0.0
C3611 C 0.92206 0.40189 0.57935 0.0
C3612 C 0.92581 0.40037 0.14912 0.0
C3613 C 0.92552 0.39939 0.20766 0.0
C3614 C 0.917 0.4056 0.33541 0.0
C3615 C 0.92544 0.40305 0.47891 0.0
C3616 C 0.92231 0.40122 0.4197 0.0
C3617 C 0.91855 0.39984 0.23966 0.0
C3618 C 0.91887 0.3996 0.30246 0.0
H3619 H 0.94563 0.4123 0.555 0.0
H3620 H 0.94015 0.4094 0.45725 0.0
H3621 H 0.91755 0.41132 0.41791 0.0
H3622 H 0.90687 0.40332 0.13182 0.0
H3623 H 0.90622 0.40137 0.23452 0.0
C3624 C 0.59547 0.50999 0.14895 0.0
C3625 C 0.59478 0.51677 0.11652 0.0
C3626 C 0.59667 0.51104 0.20767 0.0
C3627 C 0.60294 0.52875 0.32256 0.0
H3628 H 0.58728 0.5071 0.41619 0.0
C3629 C 0.59024 0.53144 0.54343 0.0
C3630 C 0.59164 0.52653 0.58737 0.0
C3631 C 0.59185 0.53002 0.48738 0.0
C3632 C 0.59178 0.51317 0.3905 0.0
H3633 H 0.595 0.53008 0.12015 0.0
H3634 H 0.59683 0.53177 0.22147 0.0
H3635 H 0.5882 0.50505 0.31443 0.0
H3636 H 0.59646 0.51672 0.60686 0.0
H3637 H 0.59872 0.51384 0.50837 0.0
H3638 H 0.60605 0.53691 0.39828 0.0
C3639 C 0.59666 0.52573 0.20203 0.0
C3640 C 0.59235 0.51201 0.33234 0.0
C3641 C 0.59552 0.52471 0.14371 0.0
C3642 C 0.59483 0.52025 0.57402 0.0
C3643 C 0.59627 0.5187 0.51773 0.0
C3644 C 0.60224 0.52992 0.38037 0.0
C3645 C 0.59719 0.5189 0.23489 0.0
C3646 C 0.59773 0.51983 0.29746 0.0
C3647 C 0.59485 0.52363 0.47409 0.0
C3648 C 0.59647 0.52217 0.41452 0.0
H3649 H 0.59497 0.50381 0.12917 0.0
H3650 H 0.59713 0.50568 0.23173 0.0
H3651 H 0.60734 0.53489 0.29721 0.0
H3652 H 0.58789 0.53639 0.55239 0.0
H3653 H 0.59067 0.53387 0.45428 0.0
C3654 C 0.73596 0.80571 0.1887 0.0
C3655 C 0.743 0.81375 0.21592 0.0
C3656 C 0.7361 0.80473 0.13036 0.0
C3657 C 0.74511 0.8186 0.0002 0.0
H3658 H 0.73463 0.79379 0.93374 0.0
C3659 C 0.73948 0.81047 0.75839 0.0
C3660 C 0.73011 0.80388 0.74497 0.0
C3661 C 0.74247 0.81209 0.81468 0.0
C3662 C 0.7376 0.80076 0.95179 0.0
H3663 H 0.75591 0.82696 0.20325 0.0
H3664 H 0.75624 0.82517 0.10063 0.0
H3665 H 0.73796 0.79584 0.03479 0.0
H3666 H 0.71666 0.79353 0.77975 0.0
H3667 H 0.72197 0.79619 0.87789 0.0
H3668 H 0.74471 0.82344 0.91653 0.0
C3669 C 0.75052 0.81969 0.12471 0.0
C3670 C 0.73948 0.80195 0.0096 0.0
C3671 C 0.75036 0.82069 0.18346 0.0
C3672 C 0.72389 0.79873 0.7888 0.0
C3673 C 0.72692 0.80023 0.84486 0.0
C3674 C 0.74336 0.81742 0.94205 0.0
C3675 C 0.74333 0.81172 0.09747 0.0
C3676 C 0.74293 0.81081 0.03488 0.0
C3677 C 0.73622 0.80693 0.85826 0.0
C3678 C 0.73931 0.80844 0.91784 0.0
H3679 H 0.73018 0.80021 0.21228 0.0
H3680 H 0.73033 0.79859 0.1109 0.0
H3681 H 0.7477 0.82551 0.01827 0.0
H3682 H 0.74458 0.8142 0.72554 0.0
H3683 H 0.74972 0.81719 0.8241 0.0
C3684 C 0.18567 0.92791 0.74789 0.0
C3685 C 0.19265 0.92567 0.73425 0.0
C3686 C 0.18402 0.92922 0.80421 0.0
C3687 C 0.19563 0.93642 0.94049 0.0
H3688 H 0.17113 0.92112 0.00878 0.0
C3689 C 0.19127 0.92991 0.17759 0.0
C3690 C 0.18319 0.92869 0.20536 0.0
C3691 C 0.19213 0.93102 0.1192 0.0
C3692 C 0.17796 0.92561 0.99018 0.0
H3693 H 0.20356 0.92339 0.76862 0.0
H3694 H 0.2008 0.9259 0.86679 0.0
H3695 H 0.17309 0.92013 0.90696 0.0
H3696 H 0.16978 0.92799 0.19369 0.0
H3697 H 0.17134 0.93006 0.09097 0.0
H3698 H 0.20058 0.94189 0.02309 0.0
C3699 C 0.19653 0.92648 0.83394 0.0
C3700 C 0.17908 0.925 0.93199 0.0
C3701 C 0.19808 0.92501 0.77787 0.0
C3702 C 0.17607 0.92888 0.17345 0.0
C3703 C 0.17695 0.93002 0.11466 0.0
C3704 C 0.1945 0.93712 0.99834 0.0
C3705 C 0.1895 0.9286 0.84756 0.0
C3706 C 0.18799 0.93017 0.90714 0.0
C3707 C 0.18496 0.93101 0.08686 0.0
C3708 C 0.18573 0.93147 0.02425 0.0
H3709 H 0.18169 0.92894 0.71515 0.0
H3710 H 0.17864 0.93098 0.81379 0.0
H3711 H 0.20254 0.9406 0.92195 0.0
H3712 H 0.1969 0.92982 0.20077 0.0
H3713 H 0.19831 0.93157 0.09927 0.0
C3714 C 0.07093 0.2604 0.16394 0.0
C3715 C 0.06962 0.25237 0.19275 0.0
C3716 C 0.06976 0.26025 0.10565 0.0
C3717 C 0.06907 0.24757 0.9756 0.0
H3718 H 0.05907 0.26266 0.91498 0.0
C3719 C 0.06041 0.26078 0.74946 0.0
C3720 C 0.06832 0.26227 0.71883 0.0
C3721 C 0.05915 0.25761 0.80522 0.0
C3722 C 0.0617 0.25824 0.93074 0.0
H3723 H 0.06609 0.23786 0.18294 0.0
H3724 H 0.0638 0.23752 0.08038 0.0
H3725 H 0.05911 0.26052 0.01595 0.0
H3726 H 0.0811 0.26157 0.72146 0.0
H3727 H 0.07922 0.2565 0.81985 0.0
H3728 H 0.07143 0.2451 0.88991 0.0
C3729 C 0.06588 0.24398 0.10312 0.0
C3730 C 0.06188 0.25715 0.98902 0.0
C3731 C 0.06715 0.24416 0.16181 0.0
C3732 C 0.07489 0.26037 0.74427 0.0
C3733 C 0.07375 0.25741 0.80055 0.0
C3734 C 0.06877 0.24855 0.91698 0.0
C3735 C 0.06712 0.25203 0.07448 0.0
C3736 C 0.06584 0.25206 0.0123 0.0
C3737 C 0.06595 0.25615 0.83213 0.0
C3738 C 0.06529 0.2541 0.89384 0.0
H3739 H 0.07295 0.26688 0.18634 0.0
H3740 H 0.07104 0.26666 0.08496 0.0
H3741 H 0.07217 0.24359 0.9921 0.0
H3742 H 0.0552 0.26211 0.73029 0.0
H3743 H 0.05292 0.25649 0.82749 0.0
C3744 C 0.1811 0.26141 0.74875 0.0
C3745 C 0.19011 0.2639 0.72914 0.0
C3746 C 0.17853 0.25846 0.80456 0.0
C3747 C 0.18481 0.24952 0.93065 0.0
H3748 H 0.17474 0.26279 0.01428 0.0
C3749 C 0.17611 0.24457 0.17205 0.0
C3750 C 0.18053 0.25313 0.20168 0.0
C3751 C 0.17597 0.24452 0.1128 0.0
C3752 C 0.17746 0.25897 0.99129 0.0
H3753 H 0.20345 0.26519 0.75197 0.0
H3754 H 0.19896 0.26002 0.84959 0.0
H3755 H 0.17689 0.26496 0.91221 0.0
H3756 H 0.18816 0.26831 0.19259 0.0
H3757 H 0.18777 0.26817 0.08992 0.0
H3758 H 0.18564 0.24377 0.01045 0.0
C3759 C 0.19385 0.26024 0.82168 0.0
C3760 C 0.17863 0.26015 0.9329 0.0
C3761 C 0.19645 0.26328 0.76606 0.0
C3762 C 0.18472 0.26159 0.1711 0.0
C3763 C 0.18444 0.26152 0.11228 0.0
C3764 C 0.18353 0.24824 0.98911 0.0
C3765 C 0.1849 0.25791 0.84168 0.0
C3766 C 0.18254 0.25563 0.9022 0.0
C3767 C 0.18007 0.25301 0.08255 0.0
C3768 C 0.18009 0.25317 0.02006 0.0
H3769 H 0.17614 0.26203 0.72158 0.0
H3770 H 0.17159 0.25672 0.81894 0.0
H3771 H 0.18776 0.2459 0.90785 0.0
H3772 H 0.17284 0.23795 0.19456 0.0
H3773 H 0.17257 0.23786 0.09064 0.0
C3774 C 0.73085 0.93272 0.75396 0.0
C3775 C 0.73116 0.926 0.71903 0.0
C3776 C 0.73359 0.93357 0.81047 0.0
C3777 C 0.74599 0.92655 0.91421 0.0
H3778 H 0.73053 0.93051 0.02187 0.0
C3779 C 0.74393 0.91842 0.15393 0.0
C3780 C 0.74304 0.9246 0.19107 0.0
C3781 C 0.74413 0.91977 0.09549 0.0
C3782 C 0.73502 0.92955 0.99232 0.0
H3783 H 0.73439 0.91475 0.71572 0.0
H3784 H 0.73899 0.91607 0.81479 0.0
H3785 H 0.72751 0.93047 0.92142 0.0
H3786 H 0.74237 0.93743 0.19623 0.0
H3787 H 0.74271 0.93976 0.09439 0.0
H3788 H 0.75325 0.92529 0.98601 0.0
C3789 C 0.73693 0.92091 0.79822 0.0
C3790 C 0.73329 0.92954 0.93463 0.0
C3791 C 0.73429 0.92014 0.74146 0.0
C3792 C 0.74294 0.93247 0.16877 0.0
C3793 C 0.7431 0.9338 0.11045 0.0
C3794 C 0.74766 0.92648 0.97215 0.0
C3795 C 0.73654 0.92759 0.83355 0.0
C3796 C 0.73872 0.928 0.89481 0.0
C3797 C 0.74343 0.92732 0.07322 0.0
C3798 C 0.74216 0.92795 0.01172 0.0
H3799 H 0.72851 0.93735 0.73749 0.0
H3800 H 0.73335 0.9389 0.83612 0.0
H3801 H 0.75039 0.92547 0.88467 0.0
H3802 H 0.74407 0.91232 0.16981 0.0
H3803 H 0.74434 0.91464 0.06774 0.0
C3804 C 0.07988 0.80869 0.76679 0.0
C3805 C 0.07326 0.80773 0.72604 0.0
C3806 C 0.079 0.81085 0.82273 0.0
C3807 C 0.07805 0.82041 0.93046 0.0
H3808 H 0.05414 0.8052 0.0056 0.0
C3809 C 0.07328 0.82551 0.16625 0.0
C3810 C 0.06938 0.8172 0.19825 0.0
C3811 C 0.07274 0.82514 0.10723 0.0
C3812 C 0.06084 0.80953 0.98508 0.0
H3813 H 0.06031 0.80787 0.7121 0.0
H3814 H 0.05878 0.81167 0.81014 0.0
H3815 H 0.05553 0.80323 0.90417 0.0
H3816 H 0.06134 0.80199 0.19354 0.0
H3817 H 0.06042 0.80135 0.09071 0.0
H3818 H 0.08346 0.82651 0.01142 0.0
C3819 C 0.06473 0.81091 0.7985 0.0
C3820 C 0.06162 0.80845 0.92701 0.0
C3821 C 0.06568 0.80887 0.74228 0.0
C3822 C 0.06448 0.80852 0.17013 0.0
C3823 C 0.06389 0.80816 0.11117 0.0
C3824 C 0.07726 0.82154 0.98833 0.0
C3825 C 0.07139 0.81193 0.83927 0.0
C3826 C 0.07029 0.81375 0.8994 0.0
C3827 C 0.06823 0.81645 0.07903 0.0
C3828 C 0.0687 0.81598 0.01651 0.0
H3829 H 0.08574 0.80777 0.75535 0.0
H3830 H 0.08416 0.81144 0.85338 0.0
H3831 H 0.08479 0.82465 0.91015 0.0
H3832 H 0.07705 0.83231 0.1866 0.0
H3833 H 0.07604 0.83165 0.08357 0.0
C3834 C 0.91877 0.50713 0.1657 0.0
C3835 C 0.9203 0.51447 0.12887 0.0
C3836 C 0.91856 0.50824 0.22416 0.0
C3837 C 0.92864 0.52702 0.32838 0.0
H3838 H 0.9125 0.50772 0.4349 0.0
C3839 C 0.93309 0.53387 0.56687 0.0
C3840 C 0.9325 0.52663 0.60107 0.0
C3841 C 0.93024 0.53216 0.51051 0.0
C3842 C 0.9171 0.51315 0.40565 0.0
H3843 H 0.92211 0.52846 0.12421 0.0
H3844 H 0.92173 0.53038 0.2261 0.0
H3845 H 0.90956 0.50497 0.33339 0.0
H3846 H 0.92861 0.51196 0.60327 0.0
H3847 H 0.92379 0.50898 0.50434 0.0
H3848 H 0.9364 0.53508 0.39975 0.0
C3849 C 0.92085 0.52383 0.20981 0.0
C3850 C 0.91539 0.51159 0.34762 0.0
C3851 C 0.92104 0.52272 0.15146 0.0
C3852 C 0.92895 0.51762 0.5781 0.0
C3853 C 0.92618 0.51592 0.52144 0.0
C3854 C 0.93038 0.52856 0.38614 0.0
C3855 C 0.9199 0.51672 0.24679 0.0
C3856 C 0.92118 0.51849 0.30844 0.0
C3857 C 0.92689 0.5232 0.48681 0.0
C3858 C 0.92468 0.52163 0.42553 0.0
H3859 H 0.91812 0.50066 0.14959 0.0
H3860 H 0.91785 0.50266 0.25165 0.0
H3861 H 0.93334 0.5324 0.29919 0.0
H3862 H 0.93575 0.54088 0.58377 0.0
H3863 H 0.93073 0.5379 0.4854 0.0
C3864 C 0.47833 0.41223 0.58289 0.0
C3865 C 0.46959 0.40583 0.60632 0.0
C3866 C 0.48024 0.41151 0.52617 0.0
C3867 C 0.46811 0.40155 0.39097 0.0
H3868 H 0.49294 0.40762 0.3402 0.0
C3869 C 0.47534 0.39884 0.15742 0.0
C3870 C 0.48294 0.40702 0.13485 0.0
C3871 C 0.47425 0.39755 0.21579 0.0
C3872 C 0.48598 0.40591 0.35389 0.0
H3873 H 0.45603 0.3936 0.58956 0.0
H3874 H 0.45941 0.39217 0.49089 0.0
H3875 H 0.48984 0.40757 0.44134 0.0
H3876 H 0.49572 0.41994 0.15568 0.0
H3877 H 0.49378 0.41769 0.25776 0.0
H3878 H 0.46426 0.39996 0.30373 0.0
C3879 C 0.46474 0.39787 0.5158 0.0
C3880 C 0.48421 0.40592 0.41169 0.0
C3881 C 0.46281 0.39866 0.5723 0.0
C3882 C 0.48975 0.41359 0.17176 0.0
C3883 C 0.48868 0.41228 0.23023 0.0
C3884 C 0.46986 0.40148 0.3334 0.0
C3885 C 0.47345 0.40433 0.49187 0.0
C3886 C 0.47527 0.40384 0.43084 0.0
C3887 C 0.48076 0.40439 0.25276 0.0
C3888 C 0.47883 0.40374 0.31421 0.0
H3889 H 0.4836 0.41795 0.60795 0.0
H3890 H 0.48694 0.41672 0.50886 0.0
H3891 H 0.4612 0.4001 0.40403 0.0
H3892 H 0.47002 0.39358 0.13012 0.0
H3893 H 0.46816 0.39133 0.23209 0.0
C3894 C 0.5984 0.07508 0.15828 0.0
C3895 C 0.59294 0.07815 0.12966 0.0
C3896 C 0.59891 0.07536 0.21725 0.0
C3897 C 0.58482 0.07406 0.33932 0.0
H3898 H 0.60722 0.07971 0.42417 0.0
C3899 C 0.5971 0.07436 0.58554 0.0
C3900 C 0.59006 0.06534 0.60192 0.0
C3901 C 0.59775 0.07728 0.52937 0.0
C3902 C 0.60093 0.07822 0.40115 0.0
H3903 H 0.58411 0.08438 0.14038 0.0
H3904 H 0.58499 0.08483 0.24346 0.0
H3905 H 0.60836 0.08296 0.32269 0.0
H3906 H 0.57821 0.05231 0.57286 0.0
H3907 H 0.57927 0.05742 0.47487 0.0
H3908 H 0.57734 0.06912 0.41741 0.0
C3909 C 0.58881 0.08213 0.22018 0.0
C3910 C 0.60157 0.08001 0.34305 0.0
C3911 C 0.58835 0.08191 0.16115 0.0
C3912 C 0.58366 0.05932 0.56133 0.0
C3913 C 0.58423 0.06227 0.50541 0.0
C3914 C 0.58416 0.0722 0.39725 0.0
C3915 C 0.59393 0.07868 0.24887 0.0
C3916 C 0.5935 0.0778 0.31138 0.0
C3917 C 0.59132 0.07126 0.48874 0.0
C3918 C 0.59218 0.07411 0.42857 0.0
H3919 H 0.60207 0.07219 0.13524 0.0
H3920 H 0.60286 0.07258 0.23814 0.0
H3921 H 0.57845 0.0722 0.31601 0.0
H3922 H 0.60231 0.07903 0.61554 0.0
H3923 H 0.60329 0.08424 0.51764 0.0
loop_
_geom_bond_atom_site_label_1
_geom_bond_atom_site_label_2
_geom_bond_distance
_geom_bond_site_symmetry_2
_ccdc_geom_bond_type
Co0 O3 1.970 . S
Co0 N17 1.989 . S
Co0 O25 1.967 . S
Co0 O32 1.920 . S
Co1 O4 1.966 . S
Co1 N10 2.022 . S
Co1 N18 1.993 . S
Co1 O26 1.941 . S
C2 O3 1.258 . S
C2 O4 1.263 . S
O3 Co0 1.970 . S
O3 C2 1.258 . S
O4 Co1 1.966 . S
O4 C2 1.263 . S
C5 O6 1.235 . S
C5 O32 1.289 . S
O6 C5 1.235 . S
C7 C9 1.400 1_554 S
C7 N10 1.351 . S
C7 C12 1.501 . S
C8 C9 1.387 . S
C8 N11 1.341 1_556 S
C9 C7 1.400 1_556 S
C9 C8 1.387 . S
N10 Co1 2.022 . S
N10 C7 1.351 . S
N10 N11 1.365 . S
N11 C8 1.341 1_554 S
N11 N10 1.365 . S
N11 H31 0.862 . S
C12 C7 1.501 . S
C12 H13 0.961 . S
C12 H14 0.961 . S
C12 H15 0.960 . S
H13 C12 0.961 . S
H14 C12 0.961 . S
H15 C12 0.960 . S
C16 N17 1.342 . S
C16 C20 1.401 . S
C16 C21 1.499 . S
N17 Co0 1.989 . S
N17 C16 1.342 . S
N17 N18 1.388 . S
N18 Co1 1.993 . S
N18 N17 1.388 . S
N18 C19 1.346 . S
C19 N18 1.346 . S
C19 C20 1.396 . S
C19 C29 1.510 . S
C20 C16 1.401 . S
C20 C19 1.396 . S
C21 C16 1.499 . S
C21 H22 0.959 . S
C21 H23 0.960 . S
C21 H24 0.961 . S
H22 C21 0.959 . S
H23 C21 0.960 . S
H24 C21 0.961 . S
O25 Co0 1.967 . S
O25 C33 1.258 . S
O26 Co1 1.941 . S
O26 C33 1.266 . S
H27 C29 0.959 . S
H28 C29 0.961 . S
C29 C19 1.510 . S
C29 H27 0.959 . S
C29 H28 0.961 . S
C29 H30 0.960 . S
H30 C29 0.960 . S
H31 N11 0.862 . S
O32 Co0 1.920 . S
O32 C5 1.289 . S
C33 O25 1.258 . S
C33 O26 1.266 . S
Co34 O37 1.970 . S
Co34 N51 1.989 . S
Co34 O59 1.967 . S
Co34 O66 1.920 . S
Co35 O38 1.966 . S
Co35 N44 2.022 . S
Co35 N52 1.993 . S
Co35 O60 1.941 . S
C36 O37 1.258 . S
C36 O38 1.263 . S
O37 Co34 1.970 . S
O37 C36 1.258 . S
O38 Co35 1.966 . S
O38 C36 1.263 . S
C39 O40 1.235 . S
C39 O66 1.289 . S
O40 C39 1.235 . S
C41 C43 1.400 1_554 S
C41 N44 1.351 . S
C41 C46 1.501 . S
C42 C43 1.387 . S
C42 N45 1.341 1_556 S
C43 C41 1.400 1_556 S
C43 C42 1.387 . S
N44 Co35 2.022 . S
N44 C41 1.351 . S
N44 N45 1.365 . S
N45 C42 1.341 1_554 S
N45 N44 1.365 . S
N45 H65 0.862 . S
C46 C41 1.501 . S
C46 H47 0.961 . S
C46 H48 0.961 . S
C46 H49 0.960 . S
H47 C46 0.961 . S
H48 C46 0.961 . S
H49 C46 0.960 . S
C50 N51 1.342 . S
C50 C54 1.401 . S
C50 C55 1.499 . S
N51 Co34 1.989 . S
N51 C50 1.342 . S
N51 N52 1.388 . S
N52 Co35 1.993 . S
N52 N51 1.388 . S
N52 C53 1.346 . S
C53 N52 1.346 . S
C53 C54 1.396 . S
C53 C63 1.510 . S
C54 C50 1.401 . S
C54 C53 1.396 . S
C55 C50 1.499 . S
C55 H56 0.959 . S
C55 H57 0.960 . S
C55 H58 0.961 . S
H56 C55 0.959 . S
H57 C55 0.960 . S
H58 C55 0.961 . S
O59 Co34 1.967 . S
O59 C67 1.258 . S
O60 Co35 1.941 . S
O60 C67 1.266 . S
H61 C63 0.959 . S
H62 C63 0.961 . S
C63 C53 1.510 . S
C63 H61 0.959 . S
C63 H62 0.961 . S
C63 H64 0.960 . S
H64 C63 0.960 . S
H65 N45 0.862 . S
O66 Co34 1.920 . S
O66 C39 1.289 . S
C67 O59 1.258 . S
C67 O60 1.266 . S
Co68 O71 1.970 . S
Co68 N85 1.989 . S
Co68 O93 1.967 . S
Co68 O100 1.920 . S
Co69 O72 1.966 . S
Co69 N78 2.022 . S
Co69 N86 1.993 . S
Co69 O94 1.941 . S
C70 O71 1.258 . S
C70 O72 1.263 . S
O71 Co68 1.970 . S
O71 C70 1.258 . S
O72 Co69 1.966 . S
O72 C70 1.263 . S
C73 O74 1.235 . S
C73 O100 1.289 . S
O74 C73 1.235 . S
C75 C77 1.400 1_554 S
C75 N78 1.351 . S
C75 C80 1.501 . S
C76 C77 1.387 . S
C76 N79 1.341 1_556 S
C77 C75 1.400 1_556 S
C77 C76 1.387 . S
N78 Co69 2.022 . S
N78 C75 1.351 . S
N78 N79 1.365 . S
N79 C76 1.341 1_554 S
N79 N78 1.365 . S
N79 H99 0.862 . S
C80 C75 1.501 . S
C80 H81 0.961 . S
C80 H82 0.961 . S
C80 H83 0.960 . S
H81 C80 0.961 . S
H82 C80 0.961 . S
H83 C80 0.960 . S
C84 N85 1.342 . S
C84 C88 1.401 . S
C84 C89 1.499 . S
N85 Co68 1.989 . S
N85 C84 1.342 . S
N85 N86 1.388 . S
N86 Co69 1.993 . S
N86 N85 1.388 . S
N86 C87 1.346 . S
C87 N86 1.346 . S
C87 C88 1.396 . S
C87 C97 1.510 . S
C88 C84 1.401 . S
C88 C87 1.396 . S
C89 C84 1.499 . S
C89 H90 0.959 . S
C89 H91 0.960 . S
C89 H92 0.961 . S
H90 C89 0.959 . S
H91 C89 0.960 . S
H92 C89 0.961 . S
O93 Co68 1.967 . S
O93 C101 1.258 . S
O94 Co69 1.941 . S
O94 C101 1.266 . S
H95 C97 0.959 . S
H96 C97 0.961 . S
C97 C87 1.510 . S
C97 H95 0.959 . S
C97 H96 0.961 . S
C97 H98 0.960 . S
H98 C97 0.960 . S
H99 N79 0.862 . S
O100 Co68 1.920 . S
O100 C73 1.289 . S
C101 O93 1.258 . S
C101 O94 1.266 . S
Co102 O105 1.970 . S
Co102 N119 1.989 . S
Co102 O127 1.967 . S
Co102 O134 1.920 . S
Co103 O106 1.966 . S
Co103 N112 2.022 . S
Co103 N120 1.993 . S
Co103 O128 1.941 . S
C104 O105 1.258 . S
C104 O106 1.263 . S
O105 Co102 1.970 . S
O105 C104 1.258 . S
O106 Co103 1.966 . S
O106 C104 1.263 . S
C107 O108 1.235 . S
C107 O134 1.289 . S
O108 C107 1.235 . S
C109 C111 1.400 1_556 S
C109 N112 1.351 . S
C109 C114 1.501 . S
C110 C111 1.387 . S
C110 N113 1.341 1_554 S
C111 C109 1.400 1_554 S
C111 C110 1.387 . S
N112 Co103 2.022 . S
N112 C109 1.351 . S
N112 N113 1.365 . S
N113 C110 1.341 1_556 S
N113 N112 1.365 . S
N113 H133 0.862 . S
C114 C109 1.501 . S
C114 H115 0.961 . S
C114 H116 0.961 . S
C114 H117 0.960 . S
H115 C114 0.961 . S
H116 C114 0.961 . S
H117 C114 0.960 . S
C118 N119 1.342 . S
C118 C122 1.401 . S
C118 C123 1.499 . S
N119 Co102 1.989 . S
N119 C118 1.342 . S
N119 N120 1.388 . S
N120 Co103 1.993 . S
N120 N119 1.388 . S
N120 C121 1.346 . S
C121 N120 1.346 . S
C121 C122 1.396 . S
C121 C131 1.510 . S
C122 C118 1.401 . S
C122 C121 1.396 . S
C123 C118 1.499 . S
C123 H124 0.959 . S
C123 H125 0.960 . S
C123 H126 0.961 . S
H124 C123 0.959 . S
H125 C123 0.960 . S
H126 C123 0.961 . S
O127 Co102 1.967 . S
O127 C135 1.258 . S
O128 Co103 1.941 . S
O128 C135 1.266 . S
H129 C131 0.959 . S
H130 C131 0.961 . S
C131 C121 1.510 . S
C131 H129 0.959 . S
C131 H130 0.961 . S
C131 H132 0.960 . S
H132 C131 0.960 . S
H133 N113 0.862 . S
O134 Co102 1.920 . S
O134 C107 1.289 . S
C135 O127 1.258 . S
C135 O128 1.266 . S
Co136 O139 1.970 . S
Co136 N153 1.989 . S
Co136 O161 1.967 . S
Co136 O168 1.920 . S
Co137 O140 1.966 . S
Co137 N146 2.022 . S
Co137 N154 1.993 . S
Co137 O162 1.941 . S
C138 O139 1.258 . S
C138 O140 1.263 . S
O139 Co136 1.970 . S
O139 C138 1.258 . S
O140 Co137 1.966 . S
O140 C138 1.263 . S
C141 O142 1.235 . S
C141 O168 1.289 . S
O142 C141 1.235 . S
C143 C145 1.400 1_556 S
C143 N146 1.351 . S
C143 C148 1.501 . S
C144 C145 1.387 . S
C144 N147 1.341 1_554 S
C145 C143 1.400 1_554 S
C145 C144 1.387 . S
N146 Co137 2.022 . S
N146 C143 1.351 . S
N146 N147 1.365 . S
N147 C144 1.341 1_556 S
N147 N146 1.365 . S
N147 H167 0.862 . S
C148 C143 1.501 . S
C148 H149 0.961 . S
C148 H150 0.961 . S
C148 H151 0.960 . S
H149 C148 0.961 . S
H150 C148 0.961 . S
H151 C148 0.960 . S
C152 N153 1.342 . S
C152 C156 1.401 . S
C152 C157 1.499 . S
N153 Co136 1.989 . S
N153 C152 1.342 . S
N153 N154 1.388 . S
N154 Co137 1.993 . S
N154 N153 1.388 . S
N154 C155 1.346 . S
C155 N154 1.346 . S
C155 C156 1.396 . S
C155 C165 1.510 . S
C156 C152 1.401 . S
C156 C155 1.396 . S
C157 C152 1.499 . S
C157 H158 0.959 . S
C157 H159 0.960 . S
C157 H160 0.961 . S
H158 C157 0.959 . S
H159 C157 0.960 . S
H160 C157 0.961 . S
O161 Co136 1.967 . S
O161 C169 1.258 . S
O162 Co137 1.941 . S
O162 C169 1.266 . S
H163 C165 0.959 . S
H164 C165 0.961 . S
C165 C155 1.510 . S
C165 H163 0.959 . S
C165 H164 0.961 . S
C165 H166 0.960 . S
H166 C165 0.960 . S
H167 N147 0.862 . S
O168 Co136 1.920 . S
O168 C141 1.289 . S
C169 O161 1.258 . S
C169 O162 1.266 . S
Co170 O173 1.970 . S
Co170 N187 1.989 . S
Co170 O195 1.967 . S
Co170 O202 1.920 . S
Co171 O174 1.966 . S
Co171 N180 2.022 . S
Co171 N188 1.993 . S
Co171 O196 1.941 . S
C172 O173 1.258 . S
C172 O174 1.263 . S
O173 Co170 1.970 . S
O173 C172 1.258 . S
O174 Co171 1.966 . S
O174 C172 1.263 . S
C175 O176 1.235 . S
C175 O202 1.289 . S
O176 C175 1.235 . S
C177 C179 1.400 1_556 S
C177 N180 1.351 . S
C177 C182 1.501 . S
C178 C179 1.387 . S
C178 N181 1.341 1_554 S
C179 C177 1.400 1_554 S
C179 C178 1.387 . S
N180 Co171 2.022 . S
N180 C177 1.351 . S
N180 N181 1.365 . S
N181 C178 1.341 1_556 S
N181 N180 1.365 . S
N181 H201 0.862 . S
C182 C177 1.501 . S
C182 H183 0.961 . S
C182 H184 0.961 . S
C182 H185 0.960 . S
H183 C182 0.961 . S
H184 C182 0.961 . S
H185 C182 0.960 . S
C186 N187 1.342 . S
C186 C190 1.401 . S
C186 C191 1.499 . S
N187 Co170 1.989 . S
N187 C186 1.342 . S
N187 N188 1.388 . S
N188 Co171 1.993 . S
N188 N187 1.388 . S
N188 C189 1.346 . S
C189 N188 1.346 . S
C189 C190 1.396 . S
C189 C199 1.510 . S
C190 C186 1.401 . S
C190 C189 1.396 . S
C191 C186 1.499 . S
C191 H192 0.959 . S
C191 H193 0.960 . S
C191 H194 0.961 . S
H192 C191 0.959 . S
H193 C191 0.960 . S
H194 C191 0.961 . S
O195 Co170 1.967 . S
O195 C203 1.258 . S
O196 Co171 1.941 . S
O196 C203 1.266 . S
H197 C199 0.959 . S
H198 C199 0.961 . S
C199 C189 1.510 . S
C199 H197 0.959 . S
C199 H198 0.961 . S
C199 H200 0.960 . S
H200 C199 0.960 . S
H201 N181 0.862 . S
O202 Co170 1.920 . S
O202 C175 1.289 . S
C203 O195 1.258 . S
C203 O196 1.266 . S
Co204 O207 1.970 . S
Co204 N221 1.989 . S
Co204 O229 1.967 . S
Co204 O236 1.920 . S
Co205 O208 1.966 . S
Co205 N214 2.022 . S
Co205 N222 1.993 . S
Co205 O230 1.941 . S
C206 O207 1.258 . S
C206 O208 1.263 . S
O207 Co204 1.970 . S
O207 C206 1.258 . S
O208 Co205 1.966 . S
O208 C206 1.263 . S
C209 O210 1.235 . S
C209 O236 1.289 . S
O210 C209 1.235 . S
C211 C213 1.400 1_556 S
C211 N214 1.351 . S
C211 C216 1.501 . S
C212 C213 1.387 . S
C212 N215 1.341 1_554 S
C213 C211 1.400 1_554 S
C213 C212 1.387 . S
N214 Co205 2.022 . S
N214 C211 1.351 . S
N214 N215 1.365 . S
N215 C212 1.341 1_556 S
N215 N214 1.365 . S
N215 H235 0.862 . S
C216 C211 1.501 . S
C216 H217 0.961 . S
C216 H218 0.961 . S
C216 H219 0.960 . S
H217 C216 0.961 . S
H218 C216 0.961 . S
H219 C216 0.960 . S
C220 N221 1.342 . S
C220 C224 1.401 . S
C220 C225 1.499 . S
N221 Co204 1.989 . S
N221 C220 1.342 . S
N221 N222 1.388 . S
N222 Co205 1.993 . S
N222 N221 1.388 . S
N222 C223 1.346 . S
C223 N222 1.346 . S
C223 C224 1.396 . S
C223 C233 1.510 . S
C224 C220 1.401 . S
C224 C223 1.396 . S
C225 C220 1.499 . S
C225 H226 0.959 . S
C225 H227 0.960 . S
C225 H228 0.961 . S
H226 C225 0.959 . S
H227 C225 0.960 . S
H228 C225 0.961 . S
O229 Co204 1.967 . S
O229 C237 1.258 . S
O230 Co205 1.941 . S
O230 C237 1.266 . S
H231 C233 0.959 . S
H232 C233 0.961 . S
C233 C223 1.510 . S
C233 H231 0.959 . S
C233 H232 0.961 . S
C233 H234 0.960 . S
H234 C233 0.960 . S
H235 N215 0.862 . S
O236 Co204 1.920 . S
O236 C209 1.289 . S
C237 O229 1.258 . S
C237 O230 1.266 . S
Co238 O241 1.970 . S
Co238 N255 1.989 . S
Co238 O263 1.967 . S
Co238 O270 1.920 . S
Co239 O242 1.966 . S
Co239 N248 2.022 . S
Co239 N256 1.993 . S
Co239 O264 1.941 . S
C240 O241 1.258 . S
C240 O242 1.263 . S
O241 Co238 1.970 . S
O241 C240 1.258 . S
O242 Co239 1.966 . S
O242 C240 1.263 . S
C243 O244 1.235 . S
C243 O270 1.289 . S
O244 C243 1.235 . S
C245 C247 1.400 1_556 S
C245 N248 1.351 . S
C245 C250 1.501 . S
C246 C247 1.387 . S
C246 N249 1.341 1_554 S
C247 C245 1.400 1_554 S
C247 C246 1.387 . S
N248 Co239 2.022 . S
N248 C245 1.351 . S
N248 N249 1.365 . S
N249 C246 1.341 1_556 S
N249 N248 1.365 . S
N249 H269 0.862 . S
C250 C245 1.501 . S
C250 H251 0.961 . S
C250 H252 0.961 . S
C250 H253 0.960 . S
H251 C250 0.961 . S
H252 C250 0.961 . S
H253 C250 0.960 . S
C254 N255 1.342 . S
C254 C258 1.401 . S
C254 C259 1.499 . S
N255 Co238 1.989 . S
N255 C254 1.342 . S
N255 N256 1.388 . S
N256 Co239 1.993 . S
N256 N255 1.388 . S
N256 C257 1.346 . S
C257 N256 1.346 . S
C257 C258 1.396 . S
C257 C267 1.510 . S
C258 C254 1.401 . S
C258 C257 1.396 . S
C259 C254 1.499 . S
C259 H260 0.959 . S
C259 H261 0.960 . S
C259 H262 0.961 . S
H260 C259 0.959 . S
H261 C259 0.960 . S
H262 C259 0.961 . S
O263 Co238 1.967 . S
O263 C271 1.258 . S
O264 Co239 1.941 . S
O264 C271 1.266 . S
H265 C267 0.959 . S
H266 C267 0.961 . S
C267 C257 1.510 . S
C267 H265 0.959 . S
C267 H266 0.961 . S
C267 H268 0.960 . S
H268 C267 0.960 . S
H269 N249 0.862 . S
O270 Co238 1.920 . S
O270 C243 1.289 . S
C271 O263 1.258 . S
C271 O264 1.266 . S
Co272 O275 1.970 . S
Co272 N289 1.989 . S
Co272 O297 1.967 . S
Co272 O304 1.920 . S
Co273 O276 1.966 . S
Co273 N282 2.022 . S
Co273 N290 1.993 . S
Co273 O298 1.941 . S
C274 O275 1.258 . S
C274 O276 1.263 . S
O275 Co272 1.970 . S
O275 C274 1.258 . S
O276 Co273 1.966 . S
O276 C274 1.263 . S
C277 O278 1.235 . S
C277 O304 1.289 . S
O278 C277 1.235 . S
C279 C281 1.400 1_556 S
C279 N282 1.351 . S
C279 C284 1.501 . S
C280 C281 1.387 . S
C280 N283 1.341 1_554 S
C281 C279 1.400 1_554 S
C281 C280 1.387 . S
N282 Co273 2.022 . S
N282 C279 1.351 . S
N282 N283 1.365 . S
N283 C280 1.341 1_556 S
N283 N282 1.365 . S
N283 H303 0.862 . S
C284 C279 1.501 . S
C284 H285 0.961 . S
C284 H286 0.961 . S
C284 H287 0.960 . S
H285 C284 0.961 . S
H286 C284 0.961 . S
H287 C284 0.960 . S
C288 N289 1.342 . S
C288 C292 1.401 . S
C288 C293 1.499 . S
N289 Co272 1.989 . S
N289 C288 1.342 . S
N289 N290 1.388 . S
N290 Co273 1.993 . S
N290 N289 1.388 . S
N290 C291 1.346 . S
C291 N290 1.346 . S
C291 C292 1.396 . S
C291 C301 1.510 . S
C292 C288 1.401 . S
C292 C291 1.396 . S
C293 C288 1.499 . S
C293 H294 0.959 . S
C293 H295 0.960 . S
C293 H296 0.961 . S
H294 C293 0.959 . S
H295 C293 0.960 . S
H296 C293 0.961 . S
O297 Co272 1.967 . S
O297 C305 1.258 . S
O298 Co273 1.941 . S
O298 C305 1.266 . S
H299 C301 0.959 . S
H300 C301 0.961 . S
C301 C291 1.510 . S
C301 H299 0.959 . S
C301 H300 0.961 . S
C301 H302 0.960 . S
H302 C301 0.960 . S
H303 N283 0.862 . S
O304 Co272 1.920 . S
O304 C277 1.289 . S
C305 O297 1.258 . S
C305 O298 1.266 . S
Co306 O309 1.970 . S
Co306 N323 1.989 . S
Co306 O331 1.967 . S
Co306 O338 1.920 . S
Co307 O310 1.966 . S
Co307 N316 2.022 . S
Co307 N324 1.993 . S
Co307 O332 1.941 . S
C308 O309 1.258 . S
C308 O310 1.263 . S
O309 Co306 1.970 . S
O309 C308 1.258 . S
O310 Co307 1.966 . S
O310 C308 1.263 . S
C311 O312 1.235 . S
C311 O338 1.289 . S
O312 C311 1.235 . S
C313 C315 1.400 1_554 S
C313 N316 1.351 . S
C313 C318 1.501 . S
C314 C315 1.387 . S
C314 N317 1.341 1_556 S
C315 C313 1.400 1_556 S
C315 C314 1.387 . S
N316 Co307 2.022 . S
N316 C313 1.351 . S
N316 N317 1.365 . S
N317 C314 1.341 1_554 S
N317 N316 1.365 . S
N317 H337 0.862 . S
C318 C313 1.501 . S
C318 H319 0.961 . S
C318 H320 0.961 . S
C318 H321 0.960 . S
H319 C318 0.961 . S
H320 C318 0.961 . S
H321 C318 0.960 . S
C322 N323 1.342 . S
C322 C326 1.401 . S
C322 C327 1.499 . S
N323 Co306 1.989 . S
N323 C322 1.342 . S
N323 N324 1.388 . S
N324 Co307 1.993 . S
N324 N323 1.388 . S
N324 C325 1.346 . S
C325 N324 1.346 . S
C325 C326 1.396 . S
C325 C335 1.510 . S
C326 C322 1.401 . S
C326 C325 1.396 . S
C327 C322 1.499 . S
C327 H328 0.959 . S
C327 H329 0.960 . S
C327 H330 0.961 . S
H328 C327 0.959 . S
H329 C327 0.960 . S
H330 C327 0.961 . S
O331 Co306 1.967 . S
O331 C339 1.258 . S
O332 Co307 1.941 . S
O332 C339 1.266 . S
H333 C335 0.959 . S
H334 C335 0.961 . S
C335 C325 1.510 . S
C335 H333 0.959 . S
C335 H334 0.961 . S
C335 H336 0.960 . S
H336 C335 0.960 . S
H337 N317 0.862 . S
O338 Co306 1.920 . S
O338 C311 1.289 . S
C339 O331 1.258 . S
C339 O332 1.266 . S
Co340 O343 1.970 . S
Co340 N357 1.989 . S
Co340 O365 1.967 . S
Co340 O372 1.920 . S
Co341 O344 1.966 . S
Co341 N350 2.022 . S
Co341 N358 1.993 . S
Co341 O366 1.941 . S
C342 O343 1.258 . S
C342 O344 1.263 . S
O343 Co340 1.970 . S
O343 C342 1.258 . S
O344 Co341 1.966 . S
O344 C342 1.263 . S
C345 O346 1.235 . S
C345 O372 1.289 . S
O346 C345 1.235 . S
C347 C349 1.400 1_554 S
C347 N350 1.351 . S
C347 C352 1.501 . S
C348 C349 1.387 . S
C348 N351 1.341 1_556 S
C349 C347 1.400 1_556 S
C349 C348 1.387 . S
N350 Co341 2.022 . S
N350 C347 1.351 . S
N350 N351 1.365 . S
N351 C348 1.341 1_554 S
N351 N350 1.365 . S
N351 H371 0.862 . S
C352 C347 1.501 . S
C352 H353 0.961 . S
C352 H354 0.961 . S
C352 H355 0.960 . S
H353 C352 0.961 . S
H354 C352 0.961 . S
H355 C352 0.960 . S
C356 N357 1.342 . S
C356 C360 1.401 . S
C356 C361 1.499 . S
N357 Co340 1.989 . S
N357 C356 1.342 . S
N357 N358 1.388 . S
N358 Co341 1.993 . S
N358 N357 1.388 . S
N358 C359 1.346 . S
C359 N358 1.346 . S
C359 C360 1.396 . S
C359 C369 1.510 . S
C360 C356 1.401 . S
C360 C359 1.396 . S
C361 C356 1.499 . S
C361 H362 0.959 . S
C361 H363 0.960 . S
C361 H364 0.961 . S
H362 C361 0.959 . S
H363 C361 0.960 . S
H364 C361 0.961 . S
O365 Co340 1.967 . S
O365 C373 1.258 . S
O366 Co341 1.941 . S
O366 C373 1.266 . S
H367 C369 0.959 . S
H368 C369 0.961 . S
C369 C359 1.510 . S
C369 H367 0.959 . S
C369 H368 0.961 . S
C369 H370 0.960 . S
H370 C369 0.960 . S
H371 N351 0.862 . S
O372 Co340 1.920 . S
O372 C345 1.289 . S
C373 O365 1.258 . S
C373 O366 1.266 . S
Co374 O377 1.970 . S
Co374 N391 1.989 . S
Co374 O399 1.967 . S
Co374 O406 1.920 . S
Co375 O378 1.966 . S
Co375 N384 2.022 . S
Co375 N392 1.993 . S
Co375 O400 1.941 . S
C376 O377 1.258 . S
C376 O378 1.263 . S
O377 Co374 1.970 . S
O377 C376 1.258 . S
O378 Co375 1.966 . S
O378 C376 1.263 . S
C379 O380 1.235 . S
C379 O406 1.289 . S
O380 C379 1.235 . S
C381 C383 1.400 1_554 S
C381 N384 1.351 . S
C381 C386 1.501 . S
C382 C383 1.387 . S
C382 N385 1.341 1_556 S
C383 C381 1.400 1_556 S
C383 C382 1.387 . S
N384 Co375 2.022 . S
N384 C381 1.351 . S
N384 N385 1.365 . S
N385 C382 1.341 1_554 S
N385 N384 1.365 . S
N385 H405 0.862 . S
C386 C381 1.501 . S
C386 H387 0.961 . S
C386 H388 0.961 . S
C386 H389 0.960 . S
H387 C386 0.961 . S
H388 C386 0.961 . S
H389 C386 0.960 . S
C390 N391 1.342 . S
C390 C394 1.401 . S
C390 C395 1.499 . S
N391 Co374 1.989 . S
N391 C390 1.342 . S
N391 N392 1.388 . S
N392 Co375 1.993 . S
N392 N391 1.388 . S
N392 C393 1.346 . S
C393 N392 1.346 . S
C393 C394 1.396 . S
C393 C403 1.510 . S
C394 C390 1.401 . S
C394 C393 1.396 . S
C395 C390 1.499 . S
C395 H396 0.959 . S
C395 H397 0.960 . S
C395 H398 0.961 . S
H396 C395 0.959 . S
H397 C395 0.960 . S
H398 C395 0.961 . S
O399 Co374 1.967 . S
O399 C407 1.258 . S
O400 Co375 1.941 . S
O400 C407 1.266 . S
H401 C403 0.959 . S
H402 C403 0.961 . S
C403 C393 1.510 . S
C403 H401 0.959 . S
C403 H402 0.961 . S
C403 H404 0.960 . S
H404 C403 0.960 . S
H405 N385 0.862 . S
O406 Co374 1.920 . S
O406 C379 1.289 . S
C407 O399 1.258 . S
C407 O400 1.266 . S
Co408 O411 1.970 . S
Co408 N425 1.989 . S
Co408 O433 1.967 . S
Co408 O440 1.920 . S
Co409 O412 1.966 . S
Co409 N418 2.022 . S
Co409 N426 1.993 . S
Co409 O434 1.941 . S
C410 O411 1.258 . S
C410 O412 1.263 . S
O411 Co408 1.970 . S
O411 C410 1.258 . S
O412 Co409 1.966 . S
O412 C410 1.263 . S
C413 O414 1.235 . S
C413 O440 1.289 . S
O414 C413 1.235 . S
C415 C417 1.400 . S
C415 N418 1.351 . S
C415 C420 1.501 . S
C416 C417 1.387 . S
C416 N419 1.341 . S
C417 C415 1.400 . S
C417 C416 1.387 . S
N418 Co409 2.022 . S
N418 C415 1.351 . S
N418 N419 1.365 . S
N419 C416 1.341 . S
N419 N418 1.365 . S
N419 H439 0.862 . S
C420 C415 1.501 . S
C420 H421 0.961 . S
C420 H422 0.961 . S
C420 H423 0.960 . S
H421 C420 0.961 . S
H422 C420 0.961 . S
H423 C420 0.960 . S
C424 N425 1.342 . S
C424 C428 1.401 . S
C424 C429 1.499 . S
N425 Co408 1.989 . S
N425 C424 1.342 . S
N425 N426 1.388 . S
N426 Co409 1.993 . S
N426 N425 1.388 . S
N426 C427 1.346 . S
C427 N426 1.346 . S
C427 C428 1.396 . S
C427 C437 1.510 . S
C428 C424 1.401 . S
C428 C427 1.396 . S
C429 C424 1.499 . S
C429 H430 0.959 . S
C429 H431 0.960 . S
C429 H432 0.961 . S
H430 C429 0.959 . S
H431 C429 0.960 . S
H432 C429 0.961 . S
O433 Co408 1.967 . S
O433 C441 1.258 . S
O434 Co409 1.941 . S
O434 C441 1.266 . S
H435 C437 0.959 . S
H436 C437 0.961 . S
C437 C427 1.510 . S
C437 H435 0.959 . S
C437 H436 0.961 . S
C437 H438 0.960 . S
H438 C437 0.960 . S
H439 N419 0.862 . S
O440 Co408 1.920 . S
O440 C413 1.289 . S
C441 O433 1.258 . S
C441 O434 1.266 . S
Co442 O445 1.970 . S
Co442 N459 1.989 . S
Co442 O467 1.967 . S
Co442 O474 1.920 . S
Co443 O446 1.966 . S
Co443 N452 2.022 . S
Co443 N460 1.993 . S
Co443 O468 1.941 . S
C444 O445 1.258 . S
C444 O446 1.263 . S
O445 Co442 1.970 . S
O445 C444 1.258 . S
O446 Co443 1.966 . S
O446 C444 1.263 . S
C447 O448 1.235 . S
C447 O474 1.289 . S
O448 C447 1.235 . S
C449 C451 1.400 . S
C449 N452 1.351 . S
C449 C454 1.501 . S
C450 C451 1.387 . S
C450 N453 1.341 . S
C451 C449 1.400 . S
C451 C450 1.387 . S
N452 Co443 2.022 . S
N452 C449 1.351 . S
N452 N453 1.365 . S
N453 C450 1.341 . S
N453 N452 1.365 . S
N453 H473 0.862 . S
C454 C449 1.501 . S
C454 H455 0.961 . S
C454 H456 0.961 . S
C454 H457 0.960 . S
H455 C454 0.961 . S
H456 C454 0.961 . S
H457 C454 0.960 . S
C458 N459 1.342 . S
C458 C462 1.401 . S
C458 C463 1.499 . S
N459 Co442 1.989 . S
N459 C458 1.342 . S
N459 N460 1.388 . S
N460 Co443 1.993 . S
N460 N459 1.388 . S
N460 C461 1.346 . S
C461 N460 1.346 . S
C461 C462 1.396 . S
C461 C471 1.510 . S
C462 C458 1.401 . S
C462 C461 1.396 . S
C463 C458 1.499 . S
C463 H464 0.959 . S
C463 H465 0.960 . S
C463 H466 0.961 . S
H464 C463 0.959 . S
H465 C463 0.960 . S
H466 C463 0.961 . S
O467 Co442 1.967 . S
O467 C475 1.258 . S
O468 Co443 1.941 . S
O468 C475 1.266 . S
H469 C471 0.959 . S
H470 C471 0.961 . S
C471 C461 1.510 . S
C471 H469 0.959 . S
C471 H470 0.961 . S
C471 H472 0.960 . S
H472 C471 0.960 . S
H473 N453 0.862 . S
O474 Co442 1.920 . S
O474 C447 1.289 . S
C475 O467 1.258 . S
C475 O468 1.266 . S
Co476 O479 1.970 . S
Co476 N493 1.989 . S
Co476 O501 1.967 . S
Co476 O508 1.920 . S
Co477 O480 1.966 . S
Co477 N486 2.022 . S
Co477 N494 1.993 . S
Co477 O502 1.941 . S
C478 O479 1.258 . S
C478 O480 1.263 . S
O479 Co476 1.970 . S
O479 C478 1.258 . S
O480 Co477 1.966 . S
O480 C478 1.263 . S
C481 O482 1.235 . S
C481 O508 1.289 . S
O482 C481 1.235 . S
C483 C485 1.400 . S
C483 N486 1.351 . S
C483 C488 1.501 . S
C484 C485 1.387 . S
C484 N487 1.341 . S
C485 C483 1.400 . S
C485 C484 1.387 . S
N486 Co477 2.022 . S
N486 C483 1.351 . S
N486 N487 1.365 . S
N487 C484 1.341 . S
N487 N486 1.365 . S
N487 H507 0.862 . S
C488 C483 1.501 . S
C488 H489 0.961 . S
C488 H490 0.961 . S
C488 H491 0.960 . S
H489 C488 0.961 . S
H490 C488 0.961 . S
H491 C488 0.960 . S
C492 N493 1.342 . S
C492 C496 1.401 . S
C492 C497 1.499 . S
N493 Co476 1.989 . S
N493 C492 1.342 . S
N493 N494 1.388 . S
N494 Co477 1.993 . S
N494 N493 1.388 . S
N494 C495 1.346 . S
C495 N494 1.346 . S
C495 C496 1.396 . S
C495 C505 1.510 . S
C496 C492 1.401 . S
C496 C495 1.396 . S
C497 C492 1.499 . S
C497 H498 0.959 . S
C497 H499 0.960 . S
C497 H500 0.961 . S
H498 C497 0.959 . S
H499 C497 0.960 . S
H500 C497 0.961 . S
O501 Co476 1.967 . S
O501 C509 1.258 . S
O502 Co477 1.941 . S
O502 C509 1.266 . S
H503 C505 0.959 . S
H504 C505 0.961 . S
C505 C495 1.510 . S
C505 H503 0.959 . S
C505 H504 0.961 . S
C505 H506 0.960 . S
H506 C505 0.960 . S
H507 N487 0.862 . S
O508 Co476 1.920 . S
O508 C481 1.289 . S
C509 O501 1.258 . S
C509 O502 1.266 . S
Co510 O513 1.970 . S
Co510 N527 1.989 . S
Co510 O535 1.967 . S
Co510 O542 1.920 1_554 S
Co511 O514 1.966 . S
Co511 N520 2.022 . S
Co511 N528 1.993 . S
Co511 O536 1.941 . S
C512 O513 1.258 . S
C512 O514 1.263 . S
O513 Co510 1.970 . S
O513 C512 1.258 . S
O514 Co511 1.966 . S
O514 C512 1.263 . S
C515 O516 1.235 . S
C515 O542 1.289 . S
O516 C515 1.235 . S
C517 C519 1.400 . S
C517 N520 1.351 . S
C517 C522 1.501 . S
C518 C519 1.387 . S
C518 N521 1.341 . S
C519 C517 1.400 . S
C519 C518 1.387 . S
N520 Co511 2.022 . S
N520 C517 1.351 . S
N520 N521 1.365 . S
N521 C518 1.341 . S
N521 N520 1.365 . S
N521 H541 0.862 . S
C522 C517 1.501 . S
C522 H523 0.961 . S
C522 H524 0.961 . S
C522 H525 0.960 . S
H523 C522 0.961 . S
H524 C522 0.961 . S
H525 C522 0.960 . S
C526 N527 1.342 . S
C526 C530 1.401 . S
C526 C531 1.499 . S
N527 Co510 1.989 . S
N527 C526 1.342 . S
N527 N528 1.388 . S
N528 Co511 1.993 . S
N528 N527 1.388 . S
N528 C529 1.346 . S
C529 N528 1.346 . S
C529 C530 1.396 . S
C529 C539 1.510 . S
C530 C526 1.401 . S
C530 C529 1.396 . S
C531 C526 1.499 . S
C531 H532 0.959 1_554 S
C531 H533 0.960 . S
C531 H534 0.962 . S
H532 C531 0.959 1_556 S
H533 C531 0.960 . S
H534 C531 0.962 . S
O535 Co510 1.967 . S
O535 C543 1.258 . S
O536 Co511 1.941 . S
O536 C543 1.266 . S
H537 C539 0.959 . S
H538 C539 0.961 . S
C539 C529 1.510 . S
C539 H537 0.959 . S
C539 H538 0.961 . S
C539 H540 0.960 . S
H540 C539 0.960 . S
H541 N521 0.862 . S
O542 Co510 1.920 1_556 S
O542 C515 1.289 . S
C543 O535 1.258 . S
C543 O536 1.266 . S
Co544 O547 1.970 . S
Co544 N561 1.989 . S
Co544 O569 1.967 . S
Co544 O576 1.920 1_554 S
Co545 O548 1.966 . S
Co545 N554 2.022 . S
Co545 N562 1.993 . S
Co545 O570 1.941 . S
C546 O547 1.258 . S
C546 O548 1.263 . S
O547 Co544 1.970 . S
O547 C546 1.258 . S
O548 Co545 1.966 . S
O548 C546 1.263 . S
C549 O550 1.235 . S
C549 O576 1.289 . S
O550 C549 1.235 . S
C551 C553 1.400 . S
C551 N554 1.351 . S
C551 C556 1.501 . S
C552 C553 1.387 . S
C552 N555 1.341 . S
C553 C551 1.400 . S
C553 C552 1.387 . S
N554 Co545 2.022 . S
N554 C551 1.351 . S
N554 N555 1.365 . S
N555 C552 1.341 . S
N555 N554 1.365 . S
N555 H575 0.862 . S
C556 C551 1.501 . S
C556 H557 0.961 . S
C556 H558 0.961 . S
C556 H559 0.960 . S
H557 C556 0.961 . S
H558 C556 0.961 . S
H559 C556 0.960 . S
C560 N561 1.342 . S
C560 C564 1.401 . S
C560 C565 1.499 . S
N561 Co544 1.989 . S
N561 C560 1.342 . S
N561 N562 1.388 . S
N562 Co545 1.993 . S
N562 N561 1.388 . S
N562 C563 1.346 . S
C563 N562 1.346 . S
C563 C564 1.396 . S
C563 C573 1.510 . S
C564 C560 1.401 . S
C564 C563 1.396 . S
C565 C560 1.499 . S
C565 H566 0.959 1_554 S
C565 H567 0.960 . S
C565 H568 0.962 . S
H566 C565 0.959 1_556 S
H567 C565 0.960 . S
H568 C565 0.962 . S
O569 Co544 1.967 . S
O569 C577 1.258 . S
O570 Co545 1.941 . S
O570 C577 1.266 . S
H571 C573 0.959 . S
H572 C573 0.961 . S
C573 C563 1.510 . S
C573 H571 0.959 . S
C573 H572 0.961 . S
C573 H574 0.960 . S
H574 C573 0.960 . S
H575 N555 0.862 . S
O576 Co544 1.920 1_556 S
O576 C549 1.289 . S
C577 O569 1.258 . S
C577 O570 1.266 . S
Co578 O581 1.970 . S
Co578 N595 1.989 . S
Co578 O603 1.967 . S
Co578 O610 1.920 1_554 S
Co579 O582 1.966 . S
Co579 N588 2.022 . S
Co579 N596 1.993 . S
Co579 O604 1.941 . S
C580 O581 1.258 . S
C580 O582 1.263 . S
O581 Co578 1.970 . S
O581 C580 1.258 . S
O582 Co579 1.966 . S
O582 C580 1.263 . S
C583 O584 1.235 . S
C583 O610 1.289 . S
O584 C583 1.235 . S
C585 C587 1.400 . S
C585 N588 1.351 . S
C585 C590 1.501 . S
C586 C587 1.387 . S
C586 N589 1.341 . S
C587 C585 1.400 . S
C587 C586 1.387 . S
N588 Co579 2.022 . S
N588 C585 1.351 . S
N588 N589 1.365 . S
N589 C586 1.341 . S
N589 N588 1.365 . S
N589 H609 0.862 . S
C590 C585 1.501 . S
C590 H591 0.961 . S
C590 H592 0.961 . S
C590 H593 0.960 . S
H591 C590 0.961 . S
H592 C590 0.961 . S
H593 C590 0.960 . S
C594 N595 1.342 . S
C594 C598 1.401 . S
C594 C599 1.499 . S
N595 Co578 1.989 . S
N595 C594 1.342 . S
N595 N596 1.388 . S
N596 Co579 1.993 . S
N596 N595 1.388 . S
N596 C597 1.346 . S
C597 N596 1.346 . S
C597 C598 1.396 . S
C597 C607 1.510 . S
C598 C594 1.401 . S
C598 C597 1.396 . S
C599 C594 1.499 . S
C599 H600 0.959 1_554 S
C599 H601 0.960 . S
C599 H602 0.962 . S
H600 C599 0.959 1_556 S
H601 C599 0.960 . S
H602 C599 0.962 . S
O603 Co578 1.967 . S
O603 C611 1.258 . S
O604 Co579 1.941 . S
O604 C611 1.266 . S
H605 C607 0.959 . S
H606 C607 0.961 . S
C607 C597 1.510 . S
C607 H605 0.959 . S
C607 H606 0.961 . S
C607 H608 0.960 . S
H608 C607 0.960 . S
H609 N589 0.862 . S
O610 Co578 1.920 1_556 S
O610 C583 1.289 . S
C611 O603 1.258 . S
C611 O604 1.266 . S
Co612 O615 1.970 . S
Co612 N629 1.989 . S
Co612 O637 1.967 . S
Co612 O644 1.920 1_554 S
Co613 O616 1.966 . S
Co613 N622 2.022 . S
Co613 N630 1.993 . S
Co613 O638 1.941 . S
C614 O615 1.258 . S
C614 O616 1.263 . S
O615 Co612 1.970 . S
O615 C614 1.258 . S
O616 Co613 1.966 . S
O616 C614 1.263 . S
C617 O618 1.235 . S
C617 O644 1.289 . S
O618 C617 1.235 . S
C619 C621 1.400 . S
C619 N622 1.351 . S
C619 C624 1.501 . S
C620 C621 1.387 . S
C620 N623 1.341 . S
C621 C619 1.400 . S
C621 C620 1.387 . S
N622 Co613 2.022 . S
N622 C619 1.351 . S
N622 N623 1.365 . S
N623 C620 1.341 . S
N623 N622 1.365 . S
N623 H643 0.862 . S
C624 C619 1.501 . S
C624 H625 0.961 . S
C624 H626 0.961 . S
C624 H627 0.960 . S
H625 C624 0.961 . S
H626 C624 0.961 . S
H627 C624 0.960 . S
C628 N629 1.342 . S
C628 C632 1.401 . S
C628 C633 1.499 . S
N629 Co612 1.989 . S
N629 C628 1.342 . S
N629 N630 1.388 . S
N630 Co613 1.993 . S
N630 N629 1.388 . S
N630 C631 1.346 . S
C631 N630 1.346 . S
C631 C632 1.396 . S
C631 C641 1.510 . S
C632 C628 1.401 . S
C632 C631 1.396 . S
C633 C628 1.499 . S
C633 H634 0.959 1_554 S
C633 H635 0.960 . S
C633 H636 0.962 . S
H634 C633 0.959 1_556 S
H635 C633 0.960 . S
H636 C633 0.962 . S
O637 Co612 1.967 . S
O637 C645 1.258 . S
O638 Co613 1.941 . S
O638 C645 1.266 . S
H639 C641 0.959 . S
H640 C641 0.961 . S
C641 C631 1.510 . S
C641 H639 0.959 . S
C641 H640 0.961 . S
C641 H642 0.960 . S
H642 C641 0.960 . S
H643 N623 0.862 . S
O644 Co612 1.920 1_556 S
O644 C617 1.289 . S
C645 O637 1.258 . S
C645 O638 1.266 . S
Co646 O649 1.970 . S
Co646 N663 1.989 . S
Co646 O671 1.967 . S
Co646 O678 1.920 1_554 S
Co647 O650 1.966 . S
Co647 N656 2.022 . S
Co647 N664 1.993 . S
Co647 O672 1.941 . S
C648 O649 1.258 . S
C648 O650 1.263 . S
O649 Co646 1.970 . S
O649 C648 1.258 . S
O650 Co647 1.966 . S
O650 C648 1.263 . S
C651 O652 1.235 . S
C651 O678 1.289 . S
O652 C651 1.235 . S
C653 C655 1.400 . S
C653 N656 1.351 . S
C653 C658 1.501 . S
C654 C655 1.387 . S
C654 N657 1.341 . S
C655 C653 1.400 . S
C655 C654 1.387 . S
N656 Co647 2.022 . S
N656 C653 1.351 . S
N656 N657 1.365 . S
N657 C654 1.341 . S
N657 N656 1.365 . S
N657 H677 0.862 . S
C658 C653 1.501 . S
C658 H659 0.961 . S
C658 H660 0.961 . S
C658 H661 0.960 . S
H659 C658 0.961 . S
H660 C658 0.961 . S
H661 C658 0.960 . S
C662 N663 1.342 . S
C662 C666 1.401 . S
C662 C667 1.499 . S
N663 Co646 1.989 . S
N663 C662 1.342 . S
N663 N664 1.388 . S
N664 Co647 1.993 . S
N664 N663 1.388 . S
N664 C665 1.346 . S
C665 N664 1.346 . S
C665 C666 1.396 . S
C665 C675 1.510 . S
C666 C662 1.401 . S
C666 C665 1.396 . S
C667 C662 1.499 . S
C667 H668 0.959 1_554 S
C667 H669 0.960 . S
C667 H670 0.962 . S
H668 C667 0.959 1_556 S
H669 C667 0.960 . S
H670 C667 0.962 . S
O671 Co646 1.967 . S
O671 C679 1.258 . S
O672 Co647 1.941 . S
O672 C679 1.266 . S
H673 C675 0.959 . S
H674 C675 0.961 . S
C675 C665 1.510 . S
C675 H673 0.959 . S
C675 H674 0.961 . S
C675 H676 0.960 . S
H676 C675 0.960 . S
H677 N657 0.862 . S
O678 Co646 1.920 1_556 S
O678 C651 1.289 . S
C679 O671 1.258 . S
C679 O672 1.266 . S
Co680 O683 1.970 . S
Co680 N697 1.989 . S
Co680 O705 1.967 . S
Co680 O712 1.920 1_554 S
Co681 O684 1.966 . S
Co681 N690 2.022 . S
Co681 N698 1.993 . S
Co681 O706 1.941 . S
C682 O683 1.258 . S
C682 O684 1.263 . S
O683 Co680 1.970 . S
O683 C682 1.258 . S
O684 Co681 1.966 . S
O684 C682 1.263 . S
C685 O686 1.235 . S
C685 O712 1.289 . S
O686 C685 1.235 . S
C687 C689 1.400 . S
C687 N690 1.351 . S
C687 C692 1.501 . S
C688 C689 1.387 . S
C688 N691 1.341 . S
C689 C687 1.400 . S
C689 C688 1.387 . S
N690 Co681 2.022 . S
N690 C687 1.351 . S
N690 N691 1.365 . S
N691 C688 1.341 . S
N691 N690 1.365 . S
N691 H711 0.862 . S
C692 C687 1.501 . S
C692 H693 0.961 . S
C692 H694 0.961 . S
C692 H695 0.960 . S
H693 C692 0.961 . S
H694 C692 0.961 . S
H695 C692 0.960 . S
C696 N697 1.342 . S
C696 C700 1.401 . S
C696 C701 1.499 . S
N697 Co680 1.989 . S
N697 C696 1.342 . S
N697 N698 1.388 . S
N698 Co681 1.993 . S
N698 N697 1.388 . S
N698 C699 1.346 . S
C699 N698 1.346 . S
C699 C700 1.396 . S
C699 C709 1.510 . S
C700 C696 1.401 . S
C700 C699 1.396 . S
C701 C696 1.499 . S
C701 H702 0.959 1_554 S
C701 H703 0.960 . S
C701 H704 0.962 . S
H702 C701 0.959 1_556 S
H703 C701 0.960 . S
H704 C701 0.962 . S
O705 Co680 1.967 . S
O705 C713 1.258 . S
O706 Co681 1.941 . S
O706 C713 1.266 . S
H707 C709 0.959 . S
H708 C709 0.961 . S
C709 C699 1.510 . S
C709 H707 0.959 . S
C709 H708 0.961 . S
C709 H710 0.960 . S
H710 C709 0.960 . S
H711 N691 0.862 . S
O712 Co680 1.920 1_556 S
O712 C685 1.289 . S
C713 O705 1.258 . S
C713 O706 1.266 . S
Co714 O717 1.970 . S
Co714 N731 1.989 . S
Co714 O739 1.967 . S
Co714 O746 1.920 . S
Co715 O718 1.966 . S
Co715 N724 2.022 . S
Co715 N732 1.993 . S
Co715 O740 1.941 . S
C716 O717 1.258 . S
C716 O718 1.263 . S
O717 Co714 1.970 . S
O717 C716 1.258 . S
O718 Co715 1.966 . S
O718 C716 1.263 . S
C719 O720 1.235 . S
C719 O746 1.289 . S
O720 C719 1.235 . S
C721 C723 1.400 . S
C721 N724 1.351 . S
C721 C726 1.501 . S
C722 C723 1.387 . S
C722 N725 1.341 . S
C723 C721 1.400 . S
C723 C722 1.387 . S
N724 Co715 2.022 . S
N724 C721 1.351 . S
N724 N725 1.365 . S
N725 C722 1.341 . S
N725 N724 1.365 . S
N725 H745 0.862 . S
C726 C721 1.501 . S
C726 H727 0.961 . S
C726 H728 0.961 . S
C726 H729 0.960 . S
H727 C726 0.961 . S
H728 C726 0.961 . S
H729 C726 0.960 . S
C730 N731 1.342 . S
C730 C734 1.401 . S
C730 C735 1.499 . S
N731 Co714 1.989 . S
N731 C730 1.342 . S
N731 N732 1.388 . S
N732 Co715 1.993 . S
N732 N731 1.388 . S
N732 C733 1.346 . S
C733 N732 1.346 . S
C733 C734 1.396 . S
C733 C743 1.510 . S
C734 C730 1.401 . S
C734 C733 1.396 . S
C735 C730 1.499 . S
C735 H736 0.959 . S
C735 H737 0.960 . S
C735 H738 0.961 . S
H736 C735 0.959 . S
H737 C735 0.960 . S
H738 C735 0.961 . S
O739 Co714 1.967 . S
O739 C747 1.258 . S
O740 Co715 1.941 . S
O740 C747 1.266 . S
H741 C743 0.959 . S
H742 C743 0.961 . S
C743 C733 1.510 . S
C743 H741 0.959 . S
C743 H742 0.961 . S
C743 H744 0.960 . S
H744 C743 0.960 . S
H745 N725 0.862 . S
O746 Co714 1.920 . S
O746 C719 1.289 . S
C747 O739 1.258 . S
C747 O740 1.266 . S
Co748 O751 1.970 . S
Co748 N765 1.989 . S
Co748 O773 1.967 . S
Co748 O780 1.920 . S
Co749 O752 1.966 . S
Co749 N758 2.022 . S
Co749 N766 1.993 . S
Co749 O774 1.941 . S
C750 O751 1.258 . S
C750 O752 1.263 . S
O751 Co748 1.970 . S
O751 C750 1.258 . S
O752 Co749 1.966 . S
O752 C750 1.263 . S
C753 O754 1.235 . S
C753 O780 1.289 . S
O754 C753 1.235 . S
C755 C757 1.400 . S
C755 N758 1.351 . S
C755 C760 1.501 . S
C756 C757 1.387 . S
C756 N759 1.341 . S
C757 C755 1.400 . S
C757 C756 1.387 . S
N758 Co749 2.022 . S
N758 C755 1.351 . S
N758 N759 1.365 . S
N759 C756 1.341 . S
N759 N758 1.365 . S
N759 H779 0.862 . S
C760 C755 1.501 . S
C760 H761 0.961 . S
C760 H762 0.961 . S
C760 H763 0.960 . S
H761 C760 0.961 . S
H762 C760 0.961 . S
H763 C760 0.960 . S
C764 N765 1.342 . S
C764 C768 1.401 . S
C764 C769 1.499 . S
N765 Co748 1.989 . S
N765 C764 1.342 . S
N765 N766 1.388 . S
N766 Co749 1.993 . S
N766 N765 1.388 . S
N766 C767 1.346 . S
C767 N766 1.346 . S
C767 C768 1.396 . S
C767 C777 1.510 . S
C768 C764 1.401 . S
C768 C767 1.396 . S
C769 C764 1.499 . S
C769 H770 0.959 . S
C769 H771 0.960 . S
C769 H772 0.961 . S
H770 C769 0.959 . S
H771 C769 0.960 . S
H772 C769 0.961 . S
O773 Co748 1.967 . S
O773 C781 1.258 . S
O774 Co749 1.941 . S
O774 C781 1.266 . S
H775 C777 0.959 . S
H776 C777 0.961 . S
C777 C767 1.510 . S
C777 H775 0.959 . S
C777 H776 0.961 . S
C777 H778 0.960 . S
H778 C777 0.960 . S
H779 N759 0.862 . S
O780 Co748 1.920 . S
O780 C753 1.289 . S
C781 O773 1.258 . S
C781 O774 1.266 . S
Co782 O785 1.970 . S
Co782 N799 1.989 . S
Co782 O807 1.967 . S
Co782 O814 1.920 . S
Co783 O786 1.966 . S
Co783 N792 2.022 . S
Co783 N800 1.993 . S
Co783 O808 1.941 . S
C784 O785 1.258 . S
C784 O786 1.263 . S
O785 Co782 1.970 . S
O785 C784 1.258 . S
O786 Co783 1.966 . S
O786 C784 1.263 . S
C787 O788 1.235 . S
C787 O814 1.289 . S
O788 C787 1.235 . S
C789 C791 1.400 . S
C789 N792 1.351 . S
C789 C794 1.501 . S
C790 C791 1.387 . S
C790 N793 1.341 . S
C791 C789 1.400 . S
C791 C790 1.387 . S
N792 Co783 2.022 . S
N792 C789 1.351 . S
N792 N793 1.365 . S
N793 C790 1.341 . S
N793 N792 1.365 . S
N793 H813 0.862 . S
C794 C789 1.501 . S
C794 H795 0.961 . S
C794 H796 0.961 . S
C794 H797 0.960 . S
H795 C794 0.961 . S
H796 C794 0.961 . S
H797 C794 0.960 . S
C798 N799 1.342 . S
C798 C802 1.401 . S
C798 C803 1.499 . S
N799 Co782 1.989 . S
N799 C798 1.342 . S
N799 N800 1.388 . S
N800 Co783 1.993 . S
N800 N799 1.388 . S
N800 C801 1.346 . S
C801 N800 1.346 . S
C801 C802 1.396 . S
C801 C811 1.510 . S
C802 C798 1.401 . S
C802 C801 1.396 . S
C803 C798 1.499 . S
C803 H804 0.959 . S
C803 H805 0.960 . S
C803 H806 0.961 . S
H804 C803 0.959 . S
H805 C803 0.960 . S
H806 C803 0.961 . S
O807 Co782 1.967 . S
O807 C815 1.258 . S
O808 Co783 1.941 . S
O808 C815 1.266 . S
H809 C811 0.959 . S
H810 C811 0.961 . S
C811 C801 1.510 . S
C811 H809 0.959 . S
C811 H810 0.961 . S
C811 H812 0.960 . S
H812 C811 0.960 . S
H813 N793 0.862 . S
O814 Co782 1.920 . S
O814 C787 1.289 . S
C815 O807 1.258 . S
C815 O808 1.266 . S
Co816 O819 1.970 . S
Co816 N833 1.989 . S
Co816 O841 1.967 . S
Co816 O848 1.920 1_556 S
Co817 O820 1.966 . S
Co817 N826 2.022 . S
Co817 N834 1.993 . S
Co817 O842 1.941 . S
C818 O819 1.258 . S
C818 O820 1.263 . S
O819 Co816 1.970 . S
O819 C818 1.258 . S
O820 Co817 1.966 . S
O820 C818 1.263 . S
C821 O822 1.235 . S
C821 O848 1.289 . S
O822 C821 1.235 . S
C823 C825 1.400 . S
C823 N826 1.351 . S
C823 C828 1.501 . S
C824 C825 1.387 . S
C824 N827 1.341 . S
C825 C823 1.400 . S
C825 C824 1.387 . S
N826 Co817 2.022 . S
N826 C823 1.351 . S
N826 N827 1.365 . S
N827 C824 1.341 . S
N827 N826 1.365 . S
N827 H847 0.862 . S
C828 C823 1.501 . S
C828 H829 0.961 . S
C828 H830 0.961 . S
C828 H831 0.960 . S
H829 C828 0.961 . S
H830 C828 0.961 . S
H831 C828 0.960 . S
C832 N833 1.342 . S
C832 C836 1.401 . S
C832 C837 1.499 . S
N833 Co816 1.989 . S
N833 C832 1.342 . S
N833 N834 1.388 . S
N834 Co817 1.993 . S
N834 N833 1.388 . S
N834 C835 1.346 . S
C835 N834 1.346 . S
C835 C836 1.396 . S
C835 C845 1.510 . S
C836 C832 1.401 . S
C836 C835 1.396 . S
C837 C832 1.499 . S
C837 H838 0.959 1_556 S
C837 H839 0.960 . S
C837 H840 0.962 . S
H838 C837 0.959 1_554 S
H839 C837 0.960 . S
H840 C837 0.962 . S
O841 Co816 1.967 . S
O841 C849 1.258 . S
O842 Co817 1.941 . S
O842 C849 1.266 . S
H843 C845 0.959 . S
H844 C845 0.961 . S
C845 C835 1.510 . S
C845 H843 0.959 . S
C845 H844 0.961 . S
C845 H846 0.960 . S
H846 C845 0.960 . S
H847 N827 0.862 . S
O848 Co816 1.920 1_554 S
O848 C821 1.289 . S
C849 O841 1.258 . S
C849 O842 1.266 . S
Co850 O853 1.970 . S
Co850 N867 1.989 . S
Co850 O875 1.967 . S
Co850 O882 1.920 1_556 S
Co851 O854 1.966 . S
Co851 N860 2.022 . S
Co851 N868 1.993 . S
Co851 O876 1.941 . S
C852 O853 1.258 . S
C852 O854 1.263 . S
O853 Co850 1.970 . S
O853 C852 1.258 . S
O854 Co851 1.966 . S
O854 C852 1.263 . S
C855 O856 1.235 . S
C855 O882 1.289 . S
O856 C855 1.235 . S
C857 C859 1.400 . S
C857 N860 1.351 . S
C857 C862 1.501 . S
C858 C859 1.387 . S
C858 N861 1.341 . S
C859 C857 1.400 . S
C859 C858 1.387 . S
N860 Co851 2.022 . S
N860 C857 1.351 . S
N860 N861 1.365 . S
N861 C858 1.341 . S
N861 N860 1.365 . S
N861 H881 0.862 . S
C862 C857 1.501 . S
C862 H863 0.961 . S
C862 H864 0.961 . S
C862 H865 0.960 . S
H863 C862 0.961 . S
H864 C862 0.961 . S
H865 C862 0.960 . S
C866 N867 1.342 . S
C866 C870 1.401 . S
C866 C871 1.499 . S
N867 Co850 1.989 . S
N867 C866 1.342 . S
N867 N868 1.388 . S
N868 Co851 1.993 . S
N868 N867 1.388 . S
N868 C869 1.346 . S
C869 N868 1.346 . S
C869 C870 1.396 . S
C869 C879 1.510 . S
C870 C866 1.401 . S
C870 C869 1.396 . S
C871 C866 1.499 . S
C871 H872 0.959 1_556 S
C871 H873 0.960 . S
C871 H874 0.962 . S
H872 C871 0.959 1_554 S
H873 C871 0.960 . S
H874 C871 0.962 . S
O875 Co850 1.967 . S
O875 C883 1.258 . S
O876 Co851 1.941 . S
O876 C883 1.266 . S
H877 C879 0.959 . S
H878 C879 0.961 . S
C879 C869 1.510 . S
C879 H877 0.959 . S
C879 H878 0.961 . S
C879 H880 0.960 . S
H880 C879 0.960 . S
H881 N861 0.862 . S
O882 Co850 1.920 1_554 S
O882 C855 1.289 . S
C883 O875 1.258 . S
C883 O876 1.266 . S
Co884 O887 1.970 . S
Co884 N901 1.989 . S
Co884 O909 1.967 . S
Co884 O916 1.920 1_556 S
Co885 O888 1.966 . S
Co885 N894 2.022 . S
Co885 N902 1.993 . S
Co885 O910 1.941 . S
C886 O887 1.258 . S
C886 O888 1.263 . S
O887 Co884 1.970 . S
O887 C886 1.258 . S
O888 Co885 1.966 . S
O888 C886 1.263 . S
C889 O890 1.235 . S
C889 O916 1.289 . S
O890 C889 1.235 . S
C891 C893 1.400 . S
C891 N894 1.351 . S
C891 C896 1.501 . S
C892 C893 1.387 . S
C892 N895 1.341 . S
C893 C891 1.400 . S
C893 C892 1.387 . S
N894 Co885 2.022 . S
N894 C891 1.351 . S
N894 N895 1.365 . S
N895 C892 1.341 . S
N895 N894 1.365 . S
N895 H915 0.862 . S
C896 C891 1.501 . S
C896 H897 0.961 . S
C896 H898 0.961 . S
C896 H899 0.960 . S
H897 C896 0.961 . S
H898 C896 0.961 . S
H899 C896 0.960 . S
C900 N901 1.342 . S
C900 C904 1.401 . S
C900 C905 1.499 . S
N901 Co884 1.989 . S
N901 C900 1.342 . S
N901 N902 1.388 . S
N902 Co885 1.993 . S
N902 N901 1.388 . S
N902 C903 1.346 . S
C903 N902 1.346 . S
C903 C904 1.396 . S
C903 C913 1.510 . S
C904 C900 1.401 . S
C904 C903 1.396 . S
C905 C900 1.499 . S
C905 H906 0.959 1_556 S
C905 H907 0.960 . S
C905 H908 0.962 . S
H906 C905 0.959 1_554 S
H907 C905 0.960 . S
H908 C905 0.962 . S
O909 Co884 1.967 . S
O909 C917 1.258 . S
O910 Co885 1.941 . S
O910 C917 1.266 . S
H911 C913 0.959 . S
H912 C913 0.961 . S
C913 C903 1.510 . S
C913 H911 0.959 . S
C913 H912 0.961 . S
C913 H914 0.960 . S
H914 C913 0.960 . S
H915 N895 0.862 . S
O916 Co884 1.920 1_554 S
O916 C889 1.289 . S
C917 O909 1.258 . S
C917 O910 1.266 . S
Co918 O921 1.970 . S
Co918 N935 1.989 . S
Co918 O943 1.967 . S
Co918 O950 1.920 . S
Co919 O922 1.966 . S
Co919 N928 2.022 . S
Co919 N936 1.993 . S
Co919 O944 1.941 . S
C920 O921 1.258 . S
C920 O922 1.263 . S
O921 Co918 1.970 . S
O921 C920 1.258 . S
O922 Co919 1.966 . S
O922 C920 1.263 . S
C923 O924 1.235 . S
C923 O950 1.289 . S
O924 C923 1.235 . S
C925 C927 1.400 . S
C925 N928 1.351 . S
C925 C930 1.501 . S
C926 C927 1.387 . S
C926 N929 1.341 . S
C927 C925 1.400 . S
C927 C926 1.387 . S
N928 Co919 2.022 . S
N928 C925 1.351 . S
N928 N929 1.365 . S
N929 C926 1.341 . S
N929 N928 1.365 . S
N929 H949 0.862 . S
C930 C925 1.501 . S
C930 H931 0.961 . S
C930 H932 0.961 . S
C930 H933 0.960 . S
H931 C930 0.961 . S
H932 C930 0.961 . S
H933 C930 0.960 . S
C934 N935 1.342 . S
C934 C938 1.401 . S
C934 C939 1.499 . S
N935 Co918 1.989 . S
N935 C934 1.342 . S
N935 N936 1.388 . S
N936 Co919 1.993 . S
N936 N935 1.388 . S
N936 C937 1.346 . S
C937 N936 1.346 . S
C937 C938 1.396 . S
C937 C947 1.510 . S
C938 C934 1.401 . S
C938 C937 1.396 . S
C939 C934 1.499 . S
C939 H940 0.959 . S
C939 H941 0.960 . S
C939 H942 0.961 . S
H940 C939 0.959 . S
H941 C939 0.960 . S
H942 C939 0.961 . S
O943 Co918 1.967 . S
O943 C951 1.258 . S
O944 Co919 1.941 . S
O944 C951 1.266 . S
H945 C947 0.959 . S
H946 C947 0.961 . S
C947 C937 1.510 . S
C947 H945 0.959 . S
C947 H946 0.961 . S
C947 H948 0.960 . S
H948 C947 0.960 . S
H949 N929 0.862 . S
O950 Co918 1.920 . S
O950 C923 1.289 . S
C951 O943 1.258 . S
C951 O944 1.266 . S
Co952 O955 1.970 . S
Co952 N969 1.989 . S
Co952 O977 1.967 . S
Co952 O984 1.920 . S
Co953 O956 1.966 . S
Co953 N962 2.022 . S
Co953 N970 1.993 . S
Co953 O978 1.941 . S
C954 O955 1.258 . S
C954 O956 1.263 . S
O955 Co952 1.970 . S
O955 C954 1.258 . S
O956 Co953 1.966 . S
O956 C954 1.263 . S
C957 O958 1.235 . S
C957 O984 1.289 . S
O958 C957 1.235 . S
C959 C961 1.400 . S
C959 N962 1.351 . S
C959 C964 1.501 . S
C960 C961 1.387 . S
C960 N963 1.341 . S
C961 C959 1.400 . S
C961 C960 1.387 . S
N962 Co953 2.022 . S
N962 C959 1.351 . S
N962 N963 1.365 . S
N963 C960 1.341 . S
N963 N962 1.365 . S
N963 H983 0.862 . S
C964 C959 1.501 . S
C964 H965 0.961 . S
C964 H966 0.961 . S
C964 H967 0.960 . S
H965 C964 0.961 . S
H966 C964 0.961 . S
H967 C964 0.960 . S
C968 N969 1.342 . S
C968 C972 1.401 . S
C968 C973 1.499 . S
N969 Co952 1.989 . S
N969 C968 1.342 . S
N969 N970 1.388 . S
N970 Co953 1.993 . S
N970 N969 1.388 . S
N970 C971 1.346 . S
C971 N970 1.346 . S
C971 C972 1.396 . S
C971 C981 1.510 . S
C972 C968 1.401 . S
C972 C971 1.396 . S
C973 C968 1.499 . S
C973 H974 0.959 . S
C973 H975 0.960 . S
C973 H976 0.961 . S
H974 C973 0.959 . S
H975 C973 0.960 . S
H976 C973 0.961 . S
O977 Co952 1.967 . S
O977 C985 1.258 . S
O978 Co953 1.941 . S
O978 C985 1.266 . S
H979 C981 0.959 . S
H980 C981 0.961 . S
C981 C971 1.510 . S
C981 H979 0.959 . S
C981 H980 0.961 . S
C981 H982 0.960 . S
H982 C981 0.960 . S
H983 N963 0.862 . S
O984 Co952 1.920 . S
O984 C957 1.289 . S
C985 O977 1.258 . S
C985 O978 1.266 . S
Co986 O989 1.970 . S
Co986 N1003 1.989 . S
Co986 O1011 1.967 . S
Co986 O1018 1.920 . S
Co987 O990 1.966 . S
Co987 N996 2.022 . S
Co987 N1004 1.993 . S
Co987 O1012 1.941 . S
C988 O989 1.258 . S
C988 O990 1.263 . S
O989 Co986 1.970 . S
O989 C988 1.258 . S
O990 Co987 1.966 . S
O990 C988 1.263 . S
C991 O992 1.235 . S
C991 O1018 1.289 . S
O992 C991 1.235 . S
C993 C995 1.400 . S
C993 N996 1.351 . S
C993 C998 1.501 . S
C994 C995 1.387 . S
C994 N997 1.341 . S
C995 C993 1.400 . S
C995 C994 1.387 . S
N996 Co987 2.022 . S
N996 C993 1.351 . S
N996 N997 1.365 . S
N997 C994 1.341 . S
N997 N996 1.365 . S
N997 H1017 0.862 . S
C998 C993 1.501 . S
C998 H999 0.961 . S
C998 H1000 0.961 . S
C998 H1001 0.960 . S
H999 C998 0.961 . S
H1000 C998 0.961 . S
H1001 C998 0.960 . S
C1002 N1003 1.342 . S
C1002 C1006 1.401 . S
C1002 C1007 1.499 . S
N1003 Co986 1.989 . S
N1003 C1002 1.342 . S
N1003 N1004 1.388 . S
N1004 Co987 1.993 . S
N1004 N1003 1.388 . S
N1004 C1005 1.346 . S
C1005 N1004 1.346 . S
C1005 C1006 1.396 . S
C1005 C1015 1.510 . S
C1006 C1002 1.401 . S
C1006 C1005 1.396 . S
C1007 C1002 1.499 . S
C1007 H1008 0.959 . S
C1007 H1009 0.960 . S
C1007 H1010 0.961 . S
H1008 C1007 0.959 . S
H1009 C1007 0.960 . S
H1010 C1007 0.961 . S
O1011 Co986 1.967 . S
O1011 C1019 1.258 . S
O1012 Co987 1.941 . S
O1012 C1019 1.266 . S
H1013 C1015 0.959 . S
H1014 C1015 0.961 . S
C1015 C1005 1.510 . S
C1015 H1013 0.959 . S
C1015 H1014 0.961 . S
C1015 H1016 0.960 . S
H1016 C1015 0.960 . S
H1017 N997 0.862 . S
O1018 Co986 1.920 . S
O1018 C991 1.289 . S
C1019 O1011 1.258 . S
C1019 O1012 1.266 . S
Co1020 O1023 1.970 . S
Co1020 N1037 1.989 . S
Co1020 O1045 1.967 . S
Co1020 O1052 1.920 . S
Co1021 O1024 1.966 . S
Co1021 N1030 2.022 . S
Co1021 N1038 1.993 . S
Co1021 O1046 1.941 . S
C1022 O1023 1.258 . S
C1022 O1024 1.263 . S
O1023 Co1020 1.970 . S
O1023 C1022 1.258 . S
O1024 Co1021 1.966 . S
O1024 C1022 1.263 . S
C1025 O1026 1.235 . S
C1025 O1052 1.289 . S
O1026 C1025 1.235 . S
C1027 C1029 1.400 . S
C1027 N1030 1.351 . S
C1027 C1032 1.501 . S
C1028 C1029 1.387 . S
C1028 N1031 1.341 . S
C1029 C1027 1.400 . S
C1029 C1028 1.387 . S
N1030 Co1021 2.022 . S
N1030 C1027 1.351 . S
N1030 N1031 1.365 . S
N1031 C1028 1.341 . S
N1031 N1030 1.365 . S
N1031 H1051 0.862 . S
C1032 C1027 1.501 . S
C1032 H1033 0.961 . S
C1032 H1034 0.961 . S
C1032 H1035 0.960 . S
H1033 C1032 0.961 . S
H1034 C1032 0.961 . S
H1035 C1032 0.960 . S
C1036 N1037 1.342 . S
C1036 C1040 1.401 . S
C1036 C1041 1.499 . S
N1037 Co1020 1.989 . S
N1037 C1036 1.342 . S
N1037 N1038 1.388 . S
N1038 Co1021 1.993 . S
N1038 N1037 1.388 . S
N1038 C1039 1.346 . S
C1039 N1038 1.346 . S
C1039 C1040 1.396 . S
C1039 C1049 1.510 . S
C1040 C1036 1.401 . S
C1040 C1039 1.396 . S
C1041 C1036 1.499 . S
C1041 H1042 0.959 . S
C1041 H1043 0.960 . S
C1041 H1044 0.961 . S
H1042 C1041 0.959 . S
H1043 C1041 0.960 . S
H1044 C1041 0.961 . S
O1045 Co1020 1.967 . S
O1045 C1053 1.258 . S
O1046 Co1021 1.941 . S
O1046 C1053 1.266 . S
H1047 C1049 0.959 . S
H1048 C1049 0.961 . S
C1049 C1039 1.510 . S
C1049 H1047 0.959 . S
C1049 H1048 0.961 . S
C1049 H1050 0.960 . S
H1050 C1049 0.960 . S
H1051 N1031 0.862 . S
O1052 Co1020 1.920 . S
O1052 C1025 1.289 . S
C1053 O1045 1.258 . S
C1053 O1046 1.266 . S
Co1054 O1057 1.970 . S
Co1054 N1071 1.989 . S
Co1054 O1079 1.967 . S
Co1054 O1086 1.920 . S
Co1055 O1058 1.966 . S
Co1055 N1064 2.022 . S
Co1055 N1072 1.993 . S
Co1055 O1080 1.941 . S
C1056 O1057 1.258 . S
C1056 O1058 1.263 . S
O1057 Co1054 1.970 . S
O1057 C1056 1.258 . S
O1058 Co1055 1.966 . S
O1058 C1056 1.263 . S
C1059 O1060 1.235 . S
C1059 O1086 1.289 . S
O1060 C1059 1.235 . S
C1061 C1063 1.400 . S
C1061 N1064 1.351 . S
C1061 C1066 1.501 . S
C1062 C1063 1.387 . S
C1062 N1065 1.341 . S
C1063 C1061 1.400 . S
C1063 C1062 1.387 . S
N1064 Co1055 2.022 . S
N1064 C1061 1.351 . S
N1064 N1065 1.365 . S
N1065 C1062 1.341 . S
N1065 N1064 1.365 . S
N1065 H1085 0.862 . S
C1066 C1061 1.501 . S
C1066 H1067 0.961 . S
C1066 H1068 0.961 . S
C1066 H1069 0.960 . S
H1067 C1066 0.961 . S
H1068 C1066 0.961 . S
H1069 C1066 0.960 . S
C1070 N1071 1.342 . S
C1070 C1074 1.401 . S
C1070 C1075 1.499 . S
N1071 Co1054 1.989 . S
N1071 C1070 1.342 . S
N1071 N1072 1.388 . S
N1072 Co1055 1.993 . S
N1072 N1071 1.388 . S
N1072 C1073 1.346 . S
C1073 N1072 1.346 . S
C1073 C1074 1.396 . S
C1073 C1083 1.510 . S
C1074 C1070 1.401 . S
C1074 C1073 1.396 . S
C1075 C1070 1.499 . S
C1075 H1076 0.959 . S
C1075 H1077 0.960 . S
C1075 H1078 0.961 . S
H1076 C1075 0.959 . S
H1077 C1075 0.960 . S
H1078 C1075 0.961 . S
O1079 Co1054 1.967 . S
O1079 C1087 1.258 . S
O1080 Co1055 1.941 . S
O1080 C1087 1.266 . S
H1081 C1083 0.959 . S
H1082 C1083 0.961 . S
C1083 C1073 1.510 . S
C1083 H1081 0.959 . S
C1083 H1082 0.961 . S
C1083 H1084 0.960 . S
H1084 C1083 0.960 . S
H1085 N1065 0.862 . S
O1086 Co1054 1.920 . S
O1086 C1059 1.289 . S
C1087 O1079 1.258 . S
C1087 O1080 1.266 . S
Co1088 O1091 1.970 . S
Co1088 N1105 1.989 . S
Co1088 O1113 1.967 . S
Co1088 O1120 1.920 . S
Co1089 O1092 1.966 . S
Co1089 N1098 2.022 . S
Co1089 N1106 1.993 . S
Co1089 O1114 1.941 . S
C1090 O1091 1.258 . S
C1090 O1092 1.263 . S
O1091 Co1088 1.970 . S
O1091 C1090 1.258 . S
O1092 Co1089 1.966 . S
O1092 C1090 1.263 . S
C1093 O1094 1.235 . S
C1093 O1120 1.289 . S
O1094 C1093 1.235 . S
C1095 C1097 1.400 . S
C1095 N1098 1.351 . S
C1095 C1100 1.501 . S
C1096 C1097 1.387 . S
C1096 N1099 1.341 . S
C1097 C1095 1.400 . S
C1097 C1096 1.387 . S
N1098 Co1089 2.022 . S
N1098 C1095 1.351 . S
N1098 N1099 1.365 . S
N1099 C1096 1.341 . S
N1099 N1098 1.365 . S
N1099 H1119 0.862 . S
C1100 C1095 1.501 . S
C1100 H1101 0.961 . S
C1100 H1102 0.961 . S
C1100 H1103 0.960 . S
H1101 C1100 0.961 . S
H1102 C1100 0.961 . S
H1103 C1100 0.960 . S
C1104 N1105 1.342 . S
C1104 C1108 1.401 . S
C1104 C1109 1.499 . S
N1105 Co1088 1.989 . S
N1105 C1104 1.342 . S
N1105 N1106 1.388 . S
N1106 Co1089 1.993 . S
N1106 N1105 1.388 . S
N1106 C1107 1.346 . S
C1107 N1106 1.346 . S
C1107 C1108 1.396 . S
C1107 C1117 1.510 . S
C1108 C1104 1.401 . S
C1108 C1107 1.396 . S
C1109 C1104 1.499 . S
C1109 H1110 0.959 . S
C1109 H1111 0.960 . S
C1109 H1112 0.961 . S
H1110 C1109 0.959 . S
H1111 C1109 0.960 . S
H1112 C1109 0.961 . S
O1113 Co1088 1.967 . S
O1113 C1121 1.258 . S
O1114 Co1089 1.941 . S
O1114 C1121 1.266 . S
H1115 C1117 0.959 . S
H1116 C1117 0.961 . S
C1117 C1107 1.510 . S
C1117 H1115 0.959 . S
C1117 H1116 0.961 . S
C1117 H1118 0.960 . S
H1118 C1117 0.960 . S
H1119 N1099 0.862 . S
O1120 Co1088 1.920 . S
O1120 C1093 1.289 . S
C1121 O1113 1.258 . S
C1121 O1114 1.266 . S
Co1122 O1125 1.970 . S
Co1122 N1139 1.989 . S
Co1122 O1147 1.967 . S
Co1122 O1154 1.920 1_556 S
Co1123 O1126 1.966 . S
Co1123 N1132 2.022 . S
Co1123 N1140 1.993 . S
Co1123 O1148 1.941 . S
C1124 O1125 1.258 . S
C1124 O1126 1.263 . S
O1125 Co1122 1.970 . S
O1125 C1124 1.258 . S
O1126 Co1123 1.966 . S
O1126 C1124 1.263 . S
C1127 O1128 1.235 . S
C1127 O1154 1.289 . S
O1128 C1127 1.235 . S
C1129 C1131 1.400 . S
C1129 N1132 1.351 . S
C1129 C1134 1.501 . S
C1130 C1131 1.387 . S
C1130 N1133 1.341 . S
C1131 C1129 1.400 . S
C1131 C1130 1.387 . S
N1132 Co1123 2.022 . S
N1132 C1129 1.351 . S
N1132 N1133 1.365 . S
N1133 C1130 1.341 . S
N1133 N1132 1.365 . S
N1133 H1153 0.862 . S
C1134 C1129 1.501 . S
C1134 H1135 0.961 . S
C1134 H1136 0.961 . S
C1134 H1137 0.960 . S
H1135 C1134 0.961 . S
H1136 C1134 0.961 . S
H1137 C1134 0.960 . S
C1138 N1139 1.342 . S
C1138 C1142 1.401 . S
C1138 C1143 1.499 . S
N1139 Co1122 1.989 . S
N1139 C1138 1.342 . S
N1139 N1140 1.388 . S
N1140 Co1123 1.993 . S
N1140 N1139 1.388 . S
N1140 C1141 1.346 . S
C1141 N1140 1.346 . S
C1141 C1142 1.396 . S
C1141 C1151 1.510 . S
C1142 C1138 1.401 . S
C1142 C1141 1.396 . S
C1143 C1138 1.499 . S
C1143 H1144 0.959 1_556 S
C1143 H1145 0.960 . S
C1143 H1146 0.962 . S
H1144 C1143 0.959 1_554 S
H1145 C1143 0.960 . S
H1146 C1143 0.962 . S
O1147 Co1122 1.967 . S
O1147 C1155 1.258 . S
O1148 Co1123 1.941 . S
O1148 C1155 1.266 . S
H1149 C1151 0.959 . S
H1150 C1151 0.961 . S
C1151 C1141 1.510 . S
C1151 H1149 0.959 . S
C1151 H1150 0.961 . S
C1151 H1152 0.960 . S
H1152 C1151 0.960 . S
H1153 N1133 0.862 . S
O1154 Co1122 1.920 1_554 S
O1154 C1127 1.289 . S
C1155 O1147 1.258 . S
C1155 O1148 1.266 . S
Co1156 O1159 1.970 . S
Co1156 N1173 1.989 . S
Co1156 O1181 1.967 . S
Co1156 O1188 1.920 1_556 S
Co1157 O1160 1.966 . S
Co1157 N1166 2.022 . S
Co1157 N1174 1.993 . S
Co1157 O1182 1.941 . S
C1158 O1159 1.258 . S
C1158 O1160 1.263 . S
O1159 Co1156 1.970 . S
O1159 C1158 1.258 . S
O1160 Co1157 1.966 . S
O1160 C1158 1.263 . S
C1161 O1162 1.235 . S
C1161 O1188 1.289 . S
O1162 C1161 1.235 . S
C1163 C1165 1.400 . S
C1163 N1166 1.351 . S
C1163 C1168 1.501 . S
C1164 C1165 1.387 . S
C1164 N1167 1.341 . S
C1165 C1163 1.400 . S
C1165 C1164 1.387 . S
N1166 Co1157 2.022 . S
N1166 C1163 1.351 . S
N1166 N1167 1.365 . S
N1167 C1164 1.341 . S
N1167 N1166 1.365 . S
N1167 H1187 0.862 . S
C1168 C1163 1.501 . S
C1168 H1169 0.961 . S
C1168 H1170 0.961 . S
C1168 H1171 0.960 . S
H1169 C1168 0.961 . S
H1170 C1168 0.961 . S
H1171 C1168 0.960 . S
C1172 N1173 1.342 . S
C1172 C1176 1.401 . S
C1172 C1177 1.499 . S
N1173 Co1156 1.989 . S
N1173 C1172 1.342 . S
N1173 N1174 1.388 . S
N1174 Co1157 1.993 . S
N1174 N1173 1.388 . S
N1174 C1175 1.346 . S
C1175 N1174 1.346 . S
C1175 C1176 1.396 . S
C1175 C1185 1.510 . S
C1176 C1172 1.401 . S
C1176 C1175 1.396 . S
C1177 C1172 1.499 . S
C1177 H1178 0.959 1_556 S
C1177 H1179 0.960 . S
C1177 H1180 0.962 . S
H1178 C1177 0.959 1_554 S
H1179 C1177 0.960 . S
H1180 C1177 0.962 . S
O1181 Co1156 1.967 . S
O1181 C1189 1.258 . S
O1182 Co1157 1.941 . S
O1182 C1189 1.266 . S
H1183 C1185 0.959 . S
H1184 C1185 0.961 . S
C1185 C1175 1.510 . S
C1185 H1183 0.959 . S
C1185 H1184 0.961 . S
C1185 H1186 0.960 . S
H1186 C1185 0.960 . S
H1187 N1167 0.862 . S
O1188 Co1156 1.920 1_554 S
O1188 C1161 1.289 . S
C1189 O1181 1.258 . S
C1189 O1182 1.266 . S
Co1190 O1193 1.970 . S
Co1190 N1207 1.989 . S
Co1190 O1215 1.967 . S
Co1190 O1222 1.920 1_556 S
Co1191 O1194 1.966 . S
Co1191 N1200 2.022 . S
Co1191 N1208 1.993 . S
Co1191 O1216 1.941 . S
C1192 O1193 1.258 . S
C1192 O1194 1.263 . S
O1193 Co1190 1.970 . S
O1193 C1192 1.258 . S
O1194 Co1191 1.966 . S
O1194 C1192 1.263 . S
C1195 O1196 1.235 . S
C1195 O1222 1.289 . S
O1196 C1195 1.235 . S
C1197 C1199 1.400 . S
C1197 N1200 1.351 . S
C1197 C1202 1.501 . S
C1198 C1199 1.387 . S
C1198 N1201 1.341 . S
C1199 C1197 1.400 . S
C1199 C1198 1.387 . S
N1200 Co1191 2.022 . S
N1200 C1197 1.351 . S
N1200 N1201 1.365 . S
N1201 C1198 1.341 . S
N1201 N1200 1.365 . S
N1201 H1221 0.862 . S
C1202 C1197 1.501 . S
C1202 H1203 0.961 . S
C1202 H1204 0.961 . S
C1202 H1205 0.960 . S
H1203 C1202 0.961 . S
H1204 C1202 0.961 . S
H1205 C1202 0.960 . S
C1206 N1207 1.342 . S
C1206 C1210 1.401 . S
C1206 C1211 1.499 . S
N1207 Co1190 1.989 . S
N1207 C1206 1.342 . S
N1207 N1208 1.388 . S
N1208 Co1191 1.993 . S
N1208 N1207 1.388 . S
N1208 C1209 1.346 . S
C1209 N1208 1.346 . S
C1209 C1210 1.396 . S
C1209 C1219 1.510 . S
C1210 C1206 1.401 . S
C1210 C1209 1.396 . S
C1211 C1206 1.499 . S
C1211 H1212 0.959 1_556 S
C1211 H1213 0.960 . S
C1211 H1214 0.962 . S
H1212 C1211 0.959 1_554 S
H1213 C1211 0.960 . S
H1214 C1211 0.962 . S
O1215 Co1190 1.967 . S
O1215 C1223 1.258 . S
O1216 Co1191 1.941 . S
O1216 C1223 1.266 . S
H1217 C1219 0.959 . S
H1218 C1219 0.961 . S
C1219 C1209 1.510 . S
C1219 H1217 0.959 . S
C1219 H1218 0.961 . S
C1219 H1220 0.960 . S
H1220 C1219 0.960 . S
H1221 N1201 0.862 . S
O1222 Co1190 1.920 1_554 S
O1222 C1195 1.289 . S
C1223 O1215 1.258 . S
C1223 O1216 1.266 . S
C1224 C1225 1.349 . S
C1224 C1226 1.327 . S
C1224 H1249 0.950 . S
C1225 C1224 1.349 . S
C1225 C1241 1.349 . S
C1226 C1224 1.327 . S
C1226 C1245 1.429 . S
C1226 H1250 0.950 . S
C1227 C1244 1.574 . S
C1227 C1246 1.368 . S
C1227 H1251 0.949 . S
H1228 C1232 0.949 . S
C1229 C1230 1.349 . S
C1229 C1231 1.327 . S
C1229 H1252 0.950 . S
C1230 C1229 1.349 . S
C1230 C1242 1.349 . S
C1231 C1229 1.327 . S
C1231 C1247 1.429 . S
C1231 H1253 0.950 . S
C1232 H1228 0.949 . S
C1232 C1240 1.574 . S
C1232 C1248 1.368 . S
H1233 C1241 0.950 . S
H1234 C1239 0.950 . S
H1235 C1240 0.949 . S
H1236 C1242 0.950 . S
H1237 C1243 0.950 . S
H1238 C1244 0.949 . S
C1239 H1234 0.950 . S
C1239 C1241 1.327 . S
C1239 C1245 1.429 . S
C1240 C1232 1.574 . S
C1240 H1235 0.949 . S
C1240 C1246 1.368 . S
C1241 C1225 1.349 . S
C1241 H1233 0.950 . S
C1241 C1239 1.327 . S
C1242 C1230 1.349 . S
C1242 H1236 0.950 . S
C1242 C1243 1.327 . S
C1243 H1237 0.950 . S
C1243 C1242 1.327 . S
C1243 C1247 1.429 . S
C1244 C1227 1.574 . S
C1244 H1238 0.949 . S
C1244 C1248 1.368 . S
C1245 C1226 1.429 . S
C1245 C1239 1.429 . S
C1245 C1246 1.523 . S
C1246 C1227 1.368 . S
C1246 C1240 1.368 . S
C1246 C1245 1.523 . S
C1247 C1231 1.429 . S
C1247 C1243 1.429 . S
C1247 C1248 1.523 . S
C1248 C1232 1.368 . S
C1248 C1244 1.368 . S
C1248 C1247 1.523 . S
H1249 C1224 0.950 . S
H1250 C1226 0.950 . S
H1251 C1227 0.949 . S
H1252 C1229 0.950 . S
H1253 C1231 0.950 . S
C1254 C1255 1.349 . S
C1254 C1256 1.327 . S
C1254 H1279 0.950 . S
C1255 C1254 1.349 . S
C1255 C1271 1.349 . S
C1256 C1254 1.327 . S
C1256 C1275 1.429 . S
C1256 H1280 0.950 . S
C1257 C1274 1.574 . S
C1257 C1276 1.368 . S
C1257 H1281 0.949 . S
H1258 C1262 0.949 . S
C1259 C1260 1.349 . S
C1259 C1261 1.327 . S
C1259 H1282 0.950 . S
C1260 C1259 1.349 . S
C1260 C1272 1.349 . S
C1261 C1259 1.327 . S
C1261 C1277 1.429 . S
C1261 H1283 0.950 . S
C1262 H1258 0.949 . S
C1262 C1270 1.574 . S
C1262 C1278 1.368 . S
H1263 C1271 0.950 . S
H1264 C1269 0.950 . S
H1265 C1270 0.949 . S
H1266 C1272 0.950 . S
H1267 C1273 0.950 . S
H1268 C1274 0.949 . S
C1269 H1264 0.950 . S
C1269 C1271 1.327 . S
C1269 C1275 1.429 . S
C1270 C1262 1.574 . S
C1270 H1265 0.949 . S
C1270 C1276 1.368 . S
C1271 C1255 1.349 . S
C1271 H1263 0.950 . S
C1271 C1269 1.327 . S
C1272 C1260 1.349 . S
C1272 H1266 0.950 . S
C1272 C1273 1.327 . S
C1273 H1267 0.950 . S
C1273 C1272 1.327 . S
C1273 C1277 1.429 . S
C1274 C1257 1.574 . S
C1274 H1268 0.949 . S
C1274 C1278 1.368 . S
C1275 C1256 1.429 . S
C1275 C1269 1.429 . S
C1275 C1276 1.523 . S
C1276 C1257 1.368 . S
C1276 C1270 1.368 . S
C1276 C1275 1.523 . S
C1277 C1261 1.429 . S
C1277 C1273 1.429 . S
C1277 C1278 1.523 . S
C1278 C1262 1.368 . S
C1278 C1274 1.368 . S
C1278 C1277 1.523 . S
H1279 C1254 0.950 . S
H1280 C1256 0.950 . S
H1281 C1257 0.949 . S
H1282 C1259 0.950 . S
H1283 C1261 0.950 . S
C1284 C1285 1.349 . S
C1284 C1286 1.327 . S
C1284 H1309 0.950 . S
C1285 C1284 1.349 . S
C1285 C1301 1.349 . S
C1286 C1284 1.327 . S
C1286 C1305 1.429 . S
C1286 H1310 0.950 . S
C1287 C1304 1.574 . S
C1287 C1306 1.368 . S
C1287 H1311 0.949 . S
H1288 C1292 0.949 . S
C1289 C1290 1.349 . S
C1289 C1291 1.327 . S
C1289 H1312 0.950 . S
C1290 C1289 1.349 . S
C1290 C1302 1.349 . S
C1291 C1289 1.327 . S
C1291 C1307 1.429 . S
C1291 H1313 0.950 . S
C1292 H1288 0.949 . S
C1292 C1300 1.574 . S
C1292 C1308 1.368 . S
H1293 C1301 0.950 . S
H1294 C1299 0.950 . S
H1295 C1300 0.949 . S
H1296 C1302 0.950 . S
H1297 C1303 0.950 . S
H1298 C1304 0.949 . S
C1299 H1294 0.950 . S
C1299 C1301 1.327 . S
C1299 C1305 1.429 . S
C1300 C1292 1.574 . S
C1300 H1295 0.949 . S
C1300 C1306 1.368 . S
C1301 C1285 1.349 . S
C1301 H1293 0.950 . S
C1301 C1299 1.327 . S
C1302 C1290 1.349 . S
C1302 H1296 0.950 . S
C1302 C1303 1.327 . S
C1303 H1297 0.950 . S
C1303 C1302 1.327 . S
C1303 C1307 1.429 . S
C1304 C1287 1.574 . S
C1304 H1298 0.949 . S
C1304 C1308 1.368 . S
C1305 C1286 1.429 . S
C1305 C1299 1.429 . S
C1305 C1306 1.523 . S
C1306 C1287 1.368 . S
C1306 C1300 1.368 . S
C1306 C1305 1.523 . S
C1307 C1291 1.429 . S
C1307 C1303 1.429 . S
C1307 C1308 1.523 . S
C1308 C1292 1.368 . S
C1308 C1304 1.368 . S
C1308 C1307 1.523 . S
H1309 C1284 0.950 . S
H1310 C1286 0.950 . S
H1311 C1287 0.949 . S
H1312 C1289 0.950 . S
H1313 C1291 0.950 . S
C1314 C1315 1.349 . S
C1314 C1316 1.327 . S
C1314 H1339 0.950 . S
C1315 C1314 1.349 . S
C1315 C1331 1.349 . S
C1316 C1314 1.327 . S
C1316 C1335 1.429 . S
C1316 H1340 0.950 . S
C1317 C1334 1.574 . S
C1317 C1336 1.368 . S
C1317 H1341 0.949 . S
H1318 C1322 0.949 . S
C1319 C1320 1.349 . S
C1319 C1321 1.327 . S
C1319 H1342 0.950 . S
C1320 C1319 1.349 . S
C1320 C1332 1.349 . S
C1321 C1319 1.327 . S
C1321 C1337 1.429 . S
C1321 H1343 0.950 . S
C1322 H1318 0.949 . S
C1322 C1330 1.574 . S
C1322 C1338 1.368 . S
H1323 C1331 0.950 . S
H1324 C1329 0.950 . S
H1325 C1330 0.949 . S
H1326 C1332 0.950 . S
H1327 C1333 0.950 . S
H1328 C1334 0.949 . S
C1329 H1324 0.950 . S
C1329 C1331 1.327 . S
C1329 C1335 1.429 . S
C1330 C1322 1.574 . S
C1330 H1325 0.949 . S
C1330 C1336 1.368 . S
C1331 C1315 1.349 . S
C1331 H1323 0.950 . S
C1331 C1329 1.327 . S
C1332 C1320 1.349 . S
C1332 H1326 0.950 . S
C1332 C1333 1.327 . S
C1333 H1327 0.950 . S
C1333 C1332 1.327 . S
C1333 C1337 1.429 . S
C1334 C1317 1.574 . S
C1334 H1328 0.949 . S
C1334 C1338 1.368 . S
C1335 C1316 1.429 . S
C1335 C1329 1.429 . S
C1335 C1336 1.523 . S
C1336 C1317 1.368 . S
C1336 C1330 1.368 . S
C1336 C1335 1.523 . S
C1337 C1321 1.429 . S
C1337 C1333 1.429 . S
C1337 C1338 1.523 . S
C1338 C1322 1.368 . S
C1338 C1334 1.368 . S
C1338 C1337 1.523 . S
H1339 C1314 0.950 . S
H1340 C1316 0.950 . S
H1341 C1317 0.949 . S
H1342 C1319 0.950 . S
H1343 C1321 0.950 . S
C1344 C1345 1.349 . S
C1344 C1346 1.327 . S
C1344 H1369 0.950 . S
C1345 C1344 1.349 . S
C1345 C1361 1.349 . S
C1346 C1344 1.327 . S
C1346 C1365 1.429 . S
C1346 H1370 0.950 . S
C1347 C1364 1.574 . S
C1347 C1366 1.368 . S
C1347 H1371 0.949 . S
H1348 C1352 0.949 . S
C1349 C1350 1.349 . S
C1349 C1351 1.327 . S
C1349 H1372 0.950 . S
C1350 C1349 1.349 . S
C1350 C1362 1.349 . S
C1351 C1349 1.327 . S
C1351 C1367 1.429 . S
C1351 H1373 0.950 . S
C1352 H1348 0.949 . S
C1352 C1360 1.574 . S
C1352 C1368 1.368 . S
H1353 C1361 0.950 . S
H1354 C1359 0.950 . S
H1355 C1360 0.949 . S
H1356 C1362 0.950 . S
H1357 C1363 0.950 . S
H1358 C1364 0.949 . S
C1359 H1354 0.950 . S
C1359 C1361 1.327 . S
C1359 C1365 1.429 . S
C1360 C1352 1.574 . S
C1360 H1355 0.949 . S
C1360 C1366 1.368 . S
C1361 C1345 1.349 . S
C1361 H1353 0.950 . S
C1361 C1359 1.327 . S
C1362 C1350 1.349 . S
C1362 H1356 0.950 . S
C1362 C1363 1.327 . S
C1363 H1357 0.950 . S
C1363 C1362 1.327 . S
C1363 C1367 1.429 . S
C1364 C1347 1.574 . S
C1364 H1358 0.949 . S
C1364 C1368 1.368 . S
C1365 C1346 1.429 . S
C1365 C1359 1.429 . S
C1365 C1366 1.523 . S
C1366 C1347 1.368 . S
C1366 C1360 1.368 . S
C1366 C1365 1.523 . S
C1367 C1351 1.429 . S
C1367 C1363 1.429 . S
C1367 C1368 1.523 . S
C1368 C1352 1.368 . S
C1368 C1364 1.368 . S
C1368 C1367 1.523 . S
H1369 C1344 0.950 . S
H1370 C1346 0.950 . S
H1371 C1347 0.949 . S
H1372 C1349 0.950 . S
H1373 C1351 0.950 . S
C1374 C1375 1.349 . S
C1374 C1376 1.327 . S
C1374 H1399 0.950 . S
C1375 C1374 1.349 . S
C1375 C1391 1.349 . S
C1376 C1374 1.327 . S
C1376 C1395 1.429 . S
C1376 H1400 0.950 . S
C1377 C1394 1.574 . S
C1377 C1396 1.368 . S
C1377 H1401 0.949 . S
H1378 C1382 0.949 . S
C1379 C1380 1.349 . S
C1379 C1381 1.327 . S
C1379 H1402 0.950 . S
C1380 C1379 1.349 . S
C1380 C1392 1.349 . S
C1381 C1379 1.327 . S
C1381 C1397 1.429 . S
C1381 H1403 0.950 . S
C1382 H1378 0.949 . S
C1382 C1390 1.574 . S
C1382 C1398 1.368 . S
H1383 C1391 0.950 . S
H1384 C1389 0.950 . S
H1385 C1390 0.949 . S
H1386 C1392 0.950 . S
H1387 C1393 0.950 . S
H1388 C1394 0.949 . S
C1389 H1384 0.950 . S
C1389 C1391 1.327 . S
C1389 C1395 1.429 . S
C1390 C1382 1.574 . S
C1390 H1385 0.949 . S
C1390 C1396 1.368 . S
C1391 C1375 1.349 . S
C1391 H1383 0.950 . S
C1391 C1389 1.327 . S
C1392 C1380 1.349 . S
C1392 H1386 0.950 . S
C1392 C1393 1.327 . S
C1393 H1387 0.950 . S
C1393 C1392 1.327 . S
C1393 C1397 1.429 . S
C1394 C1377 1.574 . S
C1394 H1388 0.949 . S
C1394 C1398 1.368 . S
C1395 C1376 1.429 . S
C1395 C1389 1.429 . S
C1395 C1396 1.523 . S
C1396 C1377 1.368 . S
C1396 C1390 1.368 . S
C1396 C1395 1.523 . S
C1397 C1381 1.429 . S
C1397 C1393 1.429 . S
C1397 C1398 1.523 . S
C1398 C1382 1.368 . S
C1398 C1394 1.368 . S
C1398 C1397 1.523 . S
H1399 C1374 0.950 . S
H1400 C1376 0.950 . S
H1401 C1377 0.949 . S
H1402 C1379 0.950 . S
H1403 C1381 0.950 . S
C1404 C1405 1.349 . S
C1404 C1406 1.327 . S
C1404 H1429 0.950 . S
C1405 C1404 1.349 . S
C1405 C1421 1.349 . S
C1406 C1404 1.327 . S
C1406 C1425 1.429 . S
C1406 H1430 0.950 . S
C1407 C1424 1.574 . S
C1407 C1426 1.368 . S
C1407 H1431 0.949 . S
H1408 C1412 0.949 . S
C1409 C1410 1.349 . S
C1409 C1411 1.327 . S
C1409 H1432 0.950 . S
C1410 C1409 1.349 . S
C1410 C1422 1.349 . S
C1411 C1409 1.327 . S
C1411 C1427 1.429 . S
C1411 H1433 0.950 . S
C1412 H1408 0.949 . S
C1412 C1420 1.574 . S
C1412 C1428 1.368 . S
H1413 C1421 0.950 . S
H1414 C1419 0.950 . S
H1415 C1420 0.949 . S
H1416 C1422 0.950 . S
H1417 C1423 0.950 . S
H1418 C1424 0.949 . S
C1419 H1414 0.950 . S
C1419 C1421 1.327 . S
C1419 C1425 1.429 . S
C1420 C1412 1.574 . S
C1420 H1415 0.949 . S
C1420 C1426 1.368 . S
C1421 C1405 1.349 . S
C1421 H1413 0.950 . S
C1421 C1419 1.327 . S
C1422 C1410 1.349 . S
C1422 H1416 0.950 . S
C1422 C1423 1.327 . S
C1423 H1417 0.950 . S
C1423 C1422 1.327 . S
C1423 C1427 1.429 . S
C1424 C1407 1.574 . S
C1424 H1418 0.949 . S
C1424 C1428 1.368 . S
C1425 C1406 1.429 . S
C1425 C1419 1.429 . S
C1425 C1426 1.523 . S
C1426 C1407 1.368 . S
C1426 C1420 1.368 . S
C1426 C1425 1.523 . S
C1427 C1411 1.429 . S
C1427 C1423 1.429 . S
C1427 C1428 1.523 . S
C1428 C1412 1.368 . S
C1428 C1424 1.368 . S
C1428 C1427 1.523 . S
H1429 C1404 0.950 . S
H1430 C1406 0.950 . S
H1431 C1407 0.949 . S
H1432 C1409 0.950 . S
H1433 C1411 0.950 . S
C1434 C1435 1.349 . S
C1434 C1436 1.327 . S
C1434 H1459 0.950 . S
C1435 C1434 1.349 . S
C1435 C1451 1.349 . S
C1436 C1434 1.327 . S
C1436 C1455 1.429 . S
C1436 H1460 0.950 . S
C1437 C1454 1.574 . S
C1437 C1456 1.368 . S
C1437 H1461 0.949 . S
H1438 C1442 0.949 . S
C1439 C1440 1.349 . S
C1439 C1441 1.327 . S
C1439 H1462 0.950 . S
C1440 C1439 1.349 . S
C1440 C1452 1.349 . S
C1441 C1439 1.327 . S
C1441 C1457 1.429 . S
C1441 H1463 0.950 . S
C1442 H1438 0.949 . S
C1442 C1450 1.574 . S
C1442 C1458 1.368 . S
H1443 C1451 0.950 . S
H1444 C1449 0.950 . S
H1445 C1450 0.949 . S
H1446 C1452 0.950 . S
H1447 C1453 0.950 . S
H1448 C1454 0.949 . S
C1449 H1444 0.950 . S
C1449 C1451 1.327 . S
C1449 C1455 1.429 . S
C1450 C1442 1.574 . S
C1450 H1445 0.949 . S
C1450 C1456 1.368 . S
C1451 C1435 1.349 . S
C1451 H1443 0.950 . S
C1451 C1449 1.327 . S
C1452 C1440 1.349 . S
C1452 H1446 0.950 . S
C1452 C1453 1.327 . S
C1453 H1447 0.950 . S
C1453 C1452 1.327 . S
C1453 C1457 1.429 . S
C1454 C1437 1.574 . S
C1454 H1448 0.949 . S
C1454 C1458 1.368 . S
C1455 C1436 1.429 . S
C1455 C1449 1.429 . S
C1455 C1456 1.523 . S
C1456 C1437 1.368 . S
C1456 C1450 1.368 . S
C1456 C1455 1.523 . S
C1457 C1441 1.429 . S
C1457 C1453 1.429 . S
C1457 C1458 1.523 . S
C1458 C1442 1.368 . S
C1458 C1454 1.368 . S
C1458 C1457 1.523 . S
H1459 C1434 0.950 . S
H1460 C1436 0.950 . S
H1461 C1437 0.949 . S
H1462 C1439 0.950 . S
H1463 C1441 0.950 . S
C1464 C1465 1.349 . S
C1464 C1466 1.327 . S
C1464 H1489 0.950 . S
C1465 C1464 1.349 . S
C1465 C1481 1.349 . S
C1466 C1464 1.327 . S
C1466 C1485 1.429 . S
C1466 H1490 0.950 . S
C1467 C1484 1.574 . S
C1467 C1486 1.368 . S
C1467 H1491 0.949 . S
H1468 C1472 0.949 . S
C1469 C1470 1.349 . S
C1469 C1471 1.327 . S
C1469 H1492 0.950 . S
C1470 C1469 1.349 . S
C1470 C1482 1.349 . S
C1471 C1469 1.327 . S
C1471 C1487 1.429 . S
C1471 H1493 0.950 . S
C1472 H1468 0.949 . S
C1472 C1480 1.574 . S
C1472 C1488 1.368 . S
H1473 C1481 0.950 . S
H1474 C1479 0.950 . S
H1475 C1480 0.949 . S
H1476 C1482 0.950 . S
H1477 C1483 0.950 . S
H1478 C1484 0.949 . S
C1479 H1474 0.950 . S
C1479 C1481 1.327 . S
C1479 C1485 1.429 . S
C1480 C1472 1.574 . S
C1480 H1475 0.949 . S
C1480 C1486 1.368 . S
C1481 C1465 1.349 . S
C1481 H1473 0.950 . S
C1481 C1479 1.327 . S
C1482 C1470 1.349 . S
C1482 H1476 0.950 . S
C1482 C1483 1.327 . S
C1483 H1477 0.950 . S
C1483 C1482 1.327 . S
C1483 C1487 1.429 . S
C1484 C1467 1.574 . S
C1484 H1478 0.949 . S
C1484 C1488 1.368 . S
C1485 C1466 1.429 . S
C1485 C1479 1.429 . S
C1485 C1486 1.523 . S
C1486 C1467 1.368 . S
C1486 C1480 1.368 . S
C1486 C1485 1.523 . S
C1487 C1471 1.429 . S
C1487 C1483 1.429 . S
C1487 C1488 1.523 . S
C1488 C1472 1.368 . S
C1488 C1484 1.368 . S
C1488 C1487 1.523 . S
H1489 C1464 0.950 . S
H1490 C1466 0.950 . S
H1491 C1467 0.949 . S
H1492 C1469 0.950 . S
H1493 C1471 0.950 . S
C1494 C1495 1.349 . S
C1494 C1496 1.327 . S
C1494 H1519 0.950 . S
C1495 C1494 1.349 . S
C1495 C1511 1.349 . S
C1496 C1494 1.327 . S
C1496 C1515 1.429 . S
C1496 H1520 0.950 . S
C1497 C1514 1.574 . S
C1497 C1516 1.368 . S
C1497 H1521 0.949 . S
H1498 C1502 0.949 . S
C1499 C1500 1.349 . S
C1499 C1501 1.327 . S
C1499 H1522 0.950 . S
C1500 C1499 1.349 . S
C1500 C1512 1.349 . S
C1501 C1499 1.327 . S
C1501 C1517 1.429 . S
C1501 H1523 0.950 . S
C1502 H1498 0.949 . S
C1502 C1510 1.574 . S
C1502 C1518 1.368 . S
H1503 C1511 0.950 . S
H1504 C1509 0.950 . S
H1505 C1510 0.949 . S
H1506 C1512 0.950 . S
H1507 C1513 0.950 . S
H1508 C1514 0.949 . S
C1509 H1504 0.950 . S
C1509 C1511 1.327 . S
C1509 C1515 1.429 . S
C1510 C1502 1.574 . S
C1510 H1505 0.949 . S
C1510 C1516 1.368 . S
C1511 C1495 1.349 . S
C1511 H1503 0.950 . S
C1511 C1509 1.327 . S
C1512 C1500 1.349 . S
C1512 H1506 0.950 . S
C1512 C1513 1.327 . S
C1513 H1507 0.950 . S
C1513 C1512 1.327 . S
C1513 C1517 1.429 . S
C1514 C1497 1.574 . S
C1514 H1508 0.949 . S
C1514 C1518 1.368 . S
C1515 C1496 1.429 . S
C1515 C1509 1.429 . S
C1515 C1516 1.523 . S
C1516 C1497 1.368 . S
C1516 C1510 1.368 . S
C1516 C1515 1.523 . S
C1517 C1501 1.429 . S
C1517 C1513 1.429 . S
C1517 C1518 1.523 . S
C1518 C1502 1.368 . S
C1518 C1514 1.368 . S
C1518 C1517 1.523 . S
H1519 C1494 0.950 . S
H1520 C1496 0.950 . S
H1521 C1497 0.949 . S
H1522 C1499 0.950 . S
H1523 C1501 0.950 . S
C1524 C1525 1.349 . S
C1524 C1526 1.327 . S
C1524 H1549 0.950 . S
C1525 C1524 1.349 . S
C1525 C1541 1.349 . S
C1526 C1524 1.327 . S
C1526 C1545 1.429 . S
C1526 H1550 0.950 . S
C1527 C1544 1.574 . S
C1527 C1546 1.368 . S
C1527 H1551 0.949 . S
H1528 C1532 0.949 . S
C1529 C1530 1.349 . S
C1529 C1531 1.327 . S
C1529 H1552 0.950 . S
C1530 C1529 1.349 . S
C1530 C1542 1.349 . S
C1531 C1529 1.327 . S
C1531 C1547 1.429 . S
C1531 H1553 0.950 . S
C1532 H1528 0.949 . S
C1532 C1540 1.574 . S
C1532 C1548 1.368 . S
H1533 C1541 0.950 . S
H1534 C1539 0.950 . S
H1535 C1540 0.949 . S
H1536 C1542 0.950 . S
H1537 C1543 0.950 . S
H1538 C1544 0.949 . S
C1539 H1534 0.950 . S
C1539 C1541 1.327 . S
C1539 C1545 1.429 . S
C1540 C1532 1.574 . S
C1540 H1535 0.949 . S
C1540 C1546 1.368 . S
C1541 C1525 1.349 . S
C1541 H1533 0.950 . S
C1541 C1539 1.327 . S
C1542 C1530 1.349 . S
C1542 H1536 0.950 . S
C1542 C1543 1.327 . S
C1543 H1537 0.950 . S
C1543 C1542 1.327 . S
C1543 C1547 1.429 . S
C1544 C1527 1.574 . S
C1544 H1538 0.949 . S
C1544 C1548 1.368 . S
C1545 C1526 1.429 . S
C1545 C1539 1.429 . S
C1545 C1546 1.523 . S
C1546 C1527 1.368 . S
C1546 C1540 1.368 . S
C1546 C1545 1.523 . S
C1547 C1531 1.429 . S
C1547 C1543 1.429 . S
C1547 C1548 1.523 . S
C1548 C1532 1.368 . S
C1548 C1544 1.368 . S
C1548 C1547 1.523 . S
H1549 C1524 0.950 . S
H1550 C1526 0.950 . S
H1551 C1527 0.949 . S
H1552 C1529 0.950 . S
H1553 C1531 0.950 . S
C1554 C1555 1.349 . S
C1554 C1556 1.327 . S
C1554 H1579 0.950 . S
C1555 C1554 1.349 . S
C1555 C1571 1.349 . S
C1556 C1554 1.327 . S
C1556 C1575 1.429 . S
C1556 H1580 0.950 . S
C1557 C1574 1.574 . S
C1557 C1576 1.368 . S
C1557 H1581 0.949 . S
H1558 C1562 0.949 . S
C1559 C1560 1.349 . S
C1559 C1561 1.327 . S
C1559 H1582 0.950 . S
C1560 C1559 1.349 . S
C1560 C1572 1.349 . S
C1561 C1559 1.327 . S
C1561 C1577 1.429 . S
C1561 H1583 0.950 . S
C1562 H1558 0.949 . S
C1562 C1570 1.574 . S
C1562 C1578 1.368 . S
H1563 C1571 0.950 . S
H1564 C1569 0.950 . S
H1565 C1570 0.949 . S
H1566 C1572 0.950 . S
H1567 C1573 0.950 . S
H1568 C1574 0.949 . S
C1569 H1564 0.950 . S
C1569 C1571 1.327 . S
C1569 C1575 1.429 . S
C1570 C1562 1.574 . S
C1570 H1565 0.949 . S
C1570 C1576 1.368 . S
C1571 C1555 1.349 . S
C1571 H1563 0.950 . S
C1571 C1569 1.327 . S
C1572 C1560 1.349 . S
C1572 H1566 0.950 . S
C1572 C1573 1.327 . S
C1573 H1567 0.950 . S
C1573 C1572 1.327 . S
C1573 C1577 1.429 . S
C1574 C1557 1.574 . S
C1574 H1568 0.949 . S
C1574 C1578 1.368 . S
C1575 C1556 1.429 . S
C1575 C1569 1.429 . S
C1575 C1576 1.523 . S
C1576 C1557 1.368 . S
C1576 C1570 1.368 . S
C1576 C1575 1.523 . S
C1577 C1561 1.429 . S
C1577 C1573 1.429 . S
C1577 C1578 1.523 . S
C1578 C1562 1.368 . S
C1578 C1574 1.368 . S
C1578 C1577 1.523 . S
H1579 C1554 0.950 . S
H1580 C1556 0.950 . S
H1581 C1557 0.949 . S
H1582 C1559 0.950 . S
H1583 C1561 0.950 . S
C1584 C1585 1.349 . S
C1584 C1586 1.327 . S
C1584 H1609 0.950 . S
C1585 C1584 1.349 . S
C1585 C1601 1.349 . S
C1586 C1584 1.327 . S
C1586 C1605 1.429 . S
C1586 H1610 0.950 . S
C1587 C1604 1.574 . S
C1587 C1606 1.368 . S
C1587 H1611 0.949 . S
H1588 C1592 0.949 . S
C1589 C1590 1.349 . S
C1589 C1591 1.327 . S
C1589 H1612 0.950 . S
C1590 C1589 1.349 . S
C1590 C1602 1.349 . S
C1591 C1589 1.327 . S
C1591 C1607 1.429 . S
C1591 H1613 0.950 . S
C1592 H1588 0.949 . S
C1592 C1600 1.574 . S
C1592 C1608 1.368 . S
H1593 C1601 0.950 . S
H1594 C1599 0.950 . S
H1595 C1600 0.949 . S
H1596 C1602 0.950 . S
H1597 C1603 0.950 . S
H1598 C1604 0.949 . S
C1599 H1594 0.950 . S
C1599 C1601 1.327 . S
C1599 C1605 1.429 . S
C1600 C1592 1.574 . S
C1600 H1595 0.949 . S
C1600 C1606 1.368 . S
C1601 C1585 1.349 . S
C1601 H1593 0.950 . S
C1601 C1599 1.327 . S
C1602 C1590 1.349 . S
C1602 H1596 0.950 . S
C1602 C1603 1.327 . S
C1603 H1597 0.950 . S
C1603 C1602 1.327 . S
C1603 C1607 1.429 . S
C1604 C1587 1.574 . S
C1604 H1598 0.949 . S
C1604 C1608 1.368 . S
C1605 C1586 1.429 . S
C1605 C1599 1.429 . S
C1605 C1606 1.523 . S
C1606 C1587 1.368 . S
C1606 C1600 1.368 . S
C1606 C1605 1.523 . S
C1607 C1591 1.429 . S
C1607 C1603 1.429 . S
C1607 C1608 1.523 . S
C1608 C1592 1.368 . S
C1608 C1604 1.368 . S
C1608 C1607 1.523 . S
H1609 C1584 0.950 . S
H1610 C1586 0.950 . S
H1611 C1587 0.949 . S
H1612 C1589 0.950 . S
H1613 C1591 0.950 . S
C1614 C1615 1.349 . S
C1614 C1616 1.327 . S
C1614 H1639 0.950 . S
C1615 C1614 1.349 . S
C1615 C1631 1.349 . S
C1616 C1614 1.327 . S
C1616 C1635 1.429 . S
C1616 H1640 0.950 . S
C1617 C1634 1.574 1_565 S
C1617 C1636 1.368 . S
C1617 H1641 0.949 . S
H1618 C1622 0.949 . S
C1619 C1620 1.349 . S
C1619 C1621 1.327 . S
C1619 H1642 0.950 . S
C1620 C1619 1.349 . S
C1620 C1632 1.349 . S
C1621 C1619 1.327 . S
C1621 C1637 1.429 . S
C1621 H1643 0.950 . S
C1622 H1618 0.949 . S
C1622 C1630 1.574 1_545 S
C1622 C1638 1.368 . S
H1623 C1631 0.950 . S
H1624 C1629 0.950 . S
H1625 C1630 0.949 . S
H1626 C1632 0.950 . S
H1627 C1633 0.950 . S
H1628 C1634 0.949 . S
C1629 H1624 0.950 . S
C1629 C1631 1.327 . S
C1629 C1635 1.429 . S
C1630 C1622 1.574 1_565 S
C1630 H1625 0.949 . S
C1630 C1636 1.368 . S
C1631 C1615 1.349 . S
C1631 H1623 0.950 . S
C1631 C1629 1.327 . S
C1632 C1620 1.349 . S
C1632 H1626 0.950 . S
C1632 C1633 1.327 . S
C1633 H1627 0.950 . S
C1633 C1632 1.327 . S
C1633 C1637 1.429 . S
C1634 C1617 1.574 1_545 S
C1634 H1628 0.949 . S
C1634 C1638 1.368 . S
C1635 C1616 1.429 . S
C1635 C1629 1.429 . S
C1635 C1636 1.523 . S
C1636 C1617 1.368 . S
C1636 C1630 1.368 . S
C1636 C1635 1.523 . S
C1637 C1621 1.429 . S
C1637 C1633 1.429 . S
C1637 C1638 1.523 . S
C1638 C1622 1.368 . S
C1638 C1634 1.368 . S
C1638 C1637 1.523 . S
H1639 C1614 0.950 . S
H1640 C1616 0.950 . S
H1641 C1617 0.949 . S
H1642 C1619 0.950 . S
H1643 C1621 0.950 . S
C1644 C1645 1.349 . S
C1644 C1646 1.327 . S
C1644 H1669 0.950 . S
C1645 C1644 1.349 . S
C1645 C1661 1.349 . S
C1646 C1644 1.327 . S
C1646 C1665 1.429 . S
C1646 H1670 0.950 . S
C1647 C1664 1.574 1_655 S
C1647 C1666 1.368 . S
C1647 H1671 0.949 . S
H1648 C1652 0.949 . S
C1649 C1650 1.349 . S
C1649 C1651 1.327 . S
C1649 H1672 0.950 . S
C1650 C1649 1.349 . S
C1650 C1662 1.349 . S
C1651 C1649 1.327 . S
C1651 C1667 1.429 . S
C1651 H1673 0.950 . S
C1652 H1648 0.949 . S
C1652 C1660 1.574 1_455 S
C1652 C1668 1.368 . S
H1653 C1661 0.950 . S
H1654 C1659 0.950 . S
H1655 C1660 0.949 . S
H1656 C1662 0.950 . S
H1657 C1663 0.950 . S
H1658 C1664 0.949 . S
C1659 H1654 0.950 . S
C1659 C1661 1.327 . S
C1659 C1665 1.429 . S
C1660 C1652 1.574 1_655 S
C1660 H1655 0.949 . S
C1660 C1666 1.368 . S
C1661 C1645 1.349 . S
C1661 H1653 0.950 . S
C1661 C1659 1.327 . S
C1662 C1650 1.349 . S
C1662 H1656 0.950 . S
C1662 C1663 1.327 . S
C1663 H1657 0.950 . S
C1663 C1662 1.327 . S
C1663 C1667 1.429 . S
C1664 C1647 1.574 1_455 S
C1664 H1658 0.949 . S
C1664 C1668 1.368 . S
C1665 C1646 1.429 . S
C1665 C1659 1.429 . S
C1665 C1666 1.523 . S
C1666 C1647 1.368 . S
C1666 C1660 1.368 . S
C1666 C1665 1.523 . S
C1667 C1651 1.429 . S
C1667 C1663 1.429 . S
C1667 C1668 1.523 . S
C1668 C1652 1.368 . S
C1668 C1664 1.368 . S
C1668 C1667 1.523 . S
H1669 C1644 0.950 . S
H1670 C1646 0.950 . S
H1671 C1647 0.949 . S
H1672 C1649 0.950 . S
H1673 C1651 0.950 . S
C1674 C1675 1.349 . S
C1674 C1676 1.327 . S
C1674 H1699 0.950 . S
C1675 C1674 1.349 . S
C1675 C1691 1.349 . S
C1676 C1674 1.327 . S
C1676 C1695 1.429 . S
C1676 H1700 0.950 . S
C1677 C1694 1.574 . S
C1677 C1696 1.368 . S
C1677 H1701 0.949 . S
H1678 C1682 0.949 . S
C1679 C1680 1.349 . S
C1679 C1681 1.327 . S
C1679 H1702 0.950 . S
C1680 C1679 1.349 . S
C1680 C1692 1.349 . S
C1681 C1679 1.327 . S
C1681 C1697 1.429 . S
C1681 H1703 0.950 . S
C1682 H1678 0.949 . S
C1682 C1690 1.574 . S
C1682 C1698 1.368 . S
H1683 C1691 0.950 . S
H1684 C1689 0.950 . S
H1685 C1690 0.949 . S
H1686 C1692 0.950 . S
H1687 C1693 0.950 . S
H1688 C1694 0.949 . S
C1689 H1684 0.950 . S
C1689 C1691 1.327 . S
C1689 C1695 1.429 . S
C1690 C1682 1.574 . S
C1690 H1685 0.949 . S
C1690 C1696 1.368 . S
C1691 C1675 1.349 . S
C1691 H1683 0.950 . S
C1691 C1689 1.327 . S
C1692 C1680 1.349 . S
C1692 H1686 0.950 . S
C1692 C1693 1.327 . S
C1693 H1687 0.950 . S
C1693 C1692 1.327 . S
C1693 C1697 1.429 . S
C1694 C1677 1.574 . S
C1694 H1688 0.949 . S
C1694 C1698 1.368 . S
C1695 C1676 1.429 . S
C1695 C1689 1.429 . S
C1695 C1696 1.523 . S
C1696 C1677 1.368 . S
C1696 C1690 1.368 . S
C1696 C1695 1.523 . S
C1697 C1681 1.429 . S
C1697 C1693 1.429 . S
C1697 C1698 1.523 . S
C1698 C1682 1.368 . S
C1698 C1694 1.368 . S
C1698 C1697 1.523 . S
H1699 C1674 0.950 . S
H1700 C1676 0.950 . S
H1701 C1677 0.949 . S
H1702 C1679 0.950 . S
H1703 C1681 0.950 . S
C1704 C1705 1.349 . S
C1704 C1706 1.327 . S
C1704 H1729 0.950 . S
C1705 C1704 1.349 . S
C1705 C1721 1.349 . S
C1706 C1704 1.327 . S
C1706 C1725 1.429 . S
C1706 H1730 0.950 . S
C1707 C1724 1.574 1_565 S
C1707 C1726 1.368 . S
C1707 H1731 0.949 . S
H1708 C1712 0.949 . S
C1709 C1710 1.349 . S
C1709 C1711 1.327 . S
C1709 H1732 0.950 . S
C1710 C1709 1.349 . S
C1710 C1722 1.349 . S
C1711 C1709 1.327 . S
C1711 C1727 1.429 . S
C1711 H1733 0.950 . S
C1712 H1708 0.949 . S
C1712 C1720 1.574 1_545 S
C1712 C1728 1.368 . S
H1713 C1721 0.950 . S
H1714 C1719 0.950 . S
H1715 C1720 0.949 . S
H1716 C1722 0.950 . S
H1717 C1723 0.950 . S
H1718 C1724 0.949 . S
C1719 H1714 0.950 . S
C1719 C1721 1.327 . S
C1719 C1725 1.429 . S
C1720 C1712 1.574 1_565 S
C1720 H1715 0.949 . S
C1720 C1726 1.368 . S
C1721 C1705 1.349 . S
C1721 H1713 0.950 . S
C1721 C1719 1.327 . S
C1722 C1710 1.349 . S
C1722 H1716 0.950 . S
C1722 C1723 1.327 . S
C1723 H1717 0.950 . S
C1723 C1722 1.327 . S
C1723 C1727 1.429 . S
C1724 C1707 1.574 1_545 S
C1724 H1718 0.949 . S
C1724 C1728 1.368 . S
C1725 C1706 1.429 . S
C1725 C1719 1.429 . S
C1725 C1726 1.523 . S
C1726 C1707 1.368 . S
C1726 C1720 1.368 . S
C1726 C1725 1.523 . S
C1727 C1711 1.429 . S
C1727 C1723 1.429 . S
C1727 C1728 1.523 . S
C1728 C1712 1.368 . S
C1728 C1724 1.368 . S
C1728 C1727 1.523 . S
H1729 C1704 0.950 . S
H1730 C1706 0.950 . S
H1731 C1707 0.949 . S
H1732 C1709 0.950 . S
H1733 C1711 0.950 . S
C1734 C1735 1.349 . S
C1734 C1736 1.327 . S
C1734 H1759 0.950 . S
C1735 C1734 1.349 . S
C1735 C1751 1.349 . S
C1736 C1734 1.327 . S
C1736 C1755 1.429 . S
C1736 H1760 0.950 . S
C1737 C1754 1.574 1_655 S
C1737 C1756 1.368 . S
C1737 H1761 0.949 . S
H1738 C1742 0.949 . S
C1739 C1740 1.349 . S
C1739 C1741 1.327 . S
C1739 H1762 0.950 . S
C1740 C1739 1.349 . S
C1740 C1752 1.349 . S
C1741 C1739 1.327 . S
C1741 C1757 1.429 . S
C1741 H1763 0.950 . S
C1742 H1738 0.949 . S
C1742 C1750 1.574 1_455 S
C1742 C1758 1.368 . S
H1743 C1751 0.950 . S
H1744 C1749 0.950 . S
H1745 C1750 0.949 . S
H1746 C1752 0.950 . S
H1747 C1753 0.950 . S
H1748 C1754 0.949 . S
C1749 H1744 0.950 . S
C1749 C1751 1.327 . S
C1749 C1755 1.429 . S
C1750 C1742 1.574 1_655 S
C1750 H1745 0.949 . S
C1750 C1756 1.368 . S
C1751 C1735 1.349 . S
C1751 H1743 0.950 . S
C1751 C1749 1.327 . S
C1752 C1740 1.349 . S
C1752 H1746 0.950 . S
C1752 C1753 1.327 . S
C1753 H1747 0.950 . S
C1753 C1752 1.327 . S
C1753 C1757 1.429 . S
C1754 C1737 1.574 1_455 S
C1754 H1748 0.949 . S
C1754 C1758 1.368 . S
C1755 C1736 1.429 . S
C1755 C1749 1.429 . S
C1755 C1756 1.523 . S
C1756 C1737 1.368 . S
C1756 C1750 1.368 . S
C1756 C1755 1.523 . S
C1757 C1741 1.429 . S
C1757 C1753 1.429 . S
C1757 C1758 1.523 . S
C1758 C1742 1.368 . S
C1758 C1754 1.368 . S
C1758 C1757 1.523 . S
H1759 C1734 0.950 . S
H1760 C1736 0.950 . S
H1761 C1737 0.949 . S
H1762 C1739 0.950 . S
H1763 C1741 0.950 . S
C1764 C1765 1.349 . S
C1764 C1766 1.327 . S
C1764 H1789 0.950 . S
C1765 C1764 1.349 . S
C1765 C1781 1.349 . S
C1766 C1764 1.327 . S
C1766 C1785 1.429 . S
C1766 H1790 0.950 . S
C1767 C1784 1.574 . S
C1767 C1786 1.368 . S
C1767 H1791 0.949 . S
H1768 C1772 0.949 . S
C1769 C1770 1.349 . S
C1769 C1771 1.327 . S
C1769 H1792 0.950 . S
C1770 C1769 1.349 . S
C1770 C1782 1.349 . S
C1771 C1769 1.327 . S
C1771 C1787 1.429 . S
C1771 H1793 0.950 . S
C1772 H1768 0.949 . S
C1772 C1780 1.574 . S
C1772 C1788 1.368 . S
H1773 C1781 0.950 . S
H1774 C1779 0.950 . S
H1775 C1780 0.949 . S
H1776 C1782 0.950 . S
H1777 C1783 0.950 . S
H1778 C1784 0.949 . S
C1779 H1774 0.950 . S
C1779 C1781 1.327 . S
C1779 C1785 1.429 . S
C1780 C1772 1.574 . S
C1780 H1775 0.949 . S
C1780 C1786 1.368 . S
C1781 C1765 1.349 . S
C1781 H1773 0.950 . S
C1781 C1779 1.327 . S
C1782 C1770 1.349 . S
C1782 H1776 0.950 . S
C1782 C1783 1.327 . S
C1783 H1777 0.950 . S
C1783 C1782 1.327 . S
C1783 C1787 1.429 . S
C1784 C1767 1.574 . S
C1784 H1778 0.949 . S
C1784 C1788 1.368 . S
C1785 C1766 1.429 . S
C1785 C1779 1.429 . S
C1785 C1786 1.523 . S
C1786 C1767 1.368 . S
C1786 C1780 1.368 . S
C1786 C1785 1.523 . S
C1787 C1771 1.429 . S
C1787 C1783 1.429 . S
C1787 C1788 1.523 . S
C1788 C1772 1.368 . S
C1788 C1784 1.368 . S
C1788 C1787 1.523 . S
H1789 C1764 0.950 . S
H1790 C1766 0.950 . S
H1791 C1767 0.949 . S
H1792 C1769 0.950 . S
H1793 C1771 0.950 . S
C1794 C1795 1.349 . S
C1794 C1796 1.327 . S
C1794 H1819 0.950 . S
C1795 C1794 1.349 . S
C1795 C1811 1.349 . S
C1796 C1794 1.327 . S
C1796 C1815 1.429 . S
C1796 H1820 0.950 . S
C1797 C1814 1.574 . S
C1797 C1816 1.368 . S
C1797 H1821 0.949 . S
H1798 C1802 0.949 . S
C1799 C1800 1.349 . S
C1799 C1801 1.327 . S
C1799 H1822 0.950 . S
C1800 C1799 1.349 . S
C1800 C1812 1.349 . S
C1801 C1799 1.327 . S
C1801 C1817 1.429 . S
C1801 H1823 0.950 . S
C1802 H1798 0.949 . S
C1802 C1810 1.574 . S
C1802 C1818 1.368 . S
H1803 C1811 0.950 . S
H1804 C1809 0.950 . S
H1805 C1810 0.949 . S
H1806 C1812 0.950 . S
H1807 C1813 0.950 . S
H1808 C1814 0.949 . S
C1809 H1804 0.950 . S
C1809 C1811 1.327 . S
C1809 C1815 1.429 . S
C1810 C1802 1.574 . S
C1810 H1805 0.949 . S
C1810 C1816 1.368 . S
C1811 C1795 1.349 . S
C1811 H1803 0.950 . S
C1811 C1809 1.327 . S
C1812 C1800 1.349 . S
C1812 H1806 0.950 . S
C1812 C1813 1.327 . S
C1813 H1807 0.950 . S
C1813 C1812 1.327 . S
C1813 C1817 1.429 . S
C1814 C1797 1.574 . S
C1814 H1808 0.949 . S
C1814 C1818 1.368 . S
C1815 C1796 1.429 . S
C1815 C1809 1.429 . S
C1815 C1816 1.523 . S
C1816 C1797 1.368 . S
C1816 C1810 1.368 . S
C1816 C1815 1.523 . S
C1817 C1801 1.429 . S
C1817 C1813 1.429 . S
C1817 C1818 1.523 . S
C1818 C1802 1.368 . S
C1818 C1814 1.368 . S
C1818 C1817 1.523 . S
H1819 C1794 0.950 . S
H1820 C1796 0.950 . S
H1821 C1797 0.949 . S
H1822 C1799 0.950 . S
H1823 C1801 0.950 . S
C1824 C1825 1.349 . S
C1824 C1826 1.327 . S
C1824 H1849 0.950 . S
C1825 C1824 1.349 . S
C1825 C1841 1.349 . S
C1826 C1824 1.327 . S
C1826 C1845 1.429 . S
C1826 H1850 0.950 . S
C1827 C1844 1.574 . S
C1827 C1846 1.368 . S
C1827 H1851 0.949 . S
H1828 C1832 0.949 . S
C1829 C1830 1.349 . S
C1829 C1831 1.327 . S
C1829 H1852 0.950 . S
C1830 C1829 1.349 . S
C1830 C1842 1.349 . S
C1831 C1829 1.327 . S
C1831 C1847 1.429 . S
C1831 H1853 0.950 . S
C1832 H1828 0.949 . S
C1832 C1840 1.574 . S
C1832 C1848 1.368 . S
H1833 C1841 0.950 . S
H1834 C1839 0.950 . S
H1835 C1840 0.949 . S
H1836 C1842 0.950 . S
H1837 C1843 0.950 . S
H1838 C1844 0.949 . S
C1839 H1834 0.950 . S
C1839 C1841 1.327 . S
C1839 C1845 1.429 . S
C1840 C1832 1.574 . S
C1840 H1835 0.949 . S
C1840 C1846 1.368 . S
C1841 C1825 1.349 . S
C1841 H1833 0.950 . S
C1841 C1839 1.327 . S
C1842 C1830 1.349 . S
C1842 H1836 0.950 . S
C1842 C1843 1.327 . S
C1843 H1837 0.950 . S
C1843 C1842 1.327 . S
C1843 C1847 1.429 . S
C1844 C1827 1.574 . S
C1844 H1838 0.949 . S
C1844 C1848 1.368 . S
C1845 C1826 1.429 . S
C1845 C1839 1.429 . S
C1845 C1846 1.523 . S
C1846 C1827 1.368 . S
C1846 C1840 1.368 . S
C1846 C1845 1.523 . S
C1847 C1831 1.429 . S
C1847 C1843 1.429 . S
C1847 C1848 1.523 . S
C1848 C1832 1.368 . S
C1848 C1844 1.368 . S
C1848 C1847 1.523 . S
H1849 C1824 0.950 . S
H1850 C1826 0.950 . S
H1851 C1827 0.949 . S
H1852 C1829 0.950 . S
H1853 C1831 0.950 . S
C1854 C1855 1.349 . S
C1854 C1856 1.327 . S
C1854 H1879 0.950 . S
C1855 C1854 1.349 . S
C1855 C1871 1.349 . S
C1856 C1854 1.327 . S
C1856 C1875 1.429 . S
C1856 H1880 0.950 . S
C1857 C1874 1.574 . S
C1857 C1876 1.368 . S
C1857 H1881 0.949 . S
H1858 C1862 0.949 . S
C1859 C1860 1.349 . S
C1859 C1861 1.327 . S
C1859 H1882 0.950 . S
C1860 C1859 1.349 . S
C1860 C1872 1.349 . S
C1861 C1859 1.327 . S
C1861 C1877 1.429 . S
C1861 H1883 0.950 . S
C1862 H1858 0.949 . S
C1862 C1870 1.574 . S
C1862 C1878 1.368 . S
H1863 C1871 0.950 . S
H1864 C1869 0.950 . S
H1865 C1870 0.949 . S
H1866 C1872 0.950 . S
H1867 C1873 0.950 . S
H1868 C1874 0.949 . S
C1869 H1864 0.950 . S
C1869 C1871 1.327 . S
C1869 C1875 1.429 . S
C1870 C1862 1.574 . S
C1870 H1865 0.949 . S
C1870 C1876 1.368 . S
C1871 C1855 1.349 . S
C1871 H1863 0.950 . S
C1871 C1869 1.327 . S
C1872 C1860 1.349 . S
C1872 H1866 0.950 . S
C1872 C1873 1.327 . S
C1873 H1867 0.950 . S
C1873 C1872 1.327 . S
C1873 C1877 1.429 . S
C1874 C1857 1.574 . S
C1874 H1868 0.949 . S
C1874 C1878 1.368 . S
C1875 C1856 1.429 . S
C1875 C1869 1.429 . S
C1875 C1876 1.523 . S
C1876 C1857 1.368 . S
C1876 C1870 1.368 . S
C1876 C1875 1.523 . S
C1877 C1861 1.429 . S
C1877 C1873 1.429 . S
C1877 C1878 1.523 . S
C1878 C1862 1.368 . S
C1878 C1874 1.368 . S
C1878 C1877 1.523 . S
H1879 C1854 0.950 . S
H1880 C1856 0.950 . S
H1881 C1857 0.949 . S
H1882 C1859 0.950 . S
H1883 C1861 0.950 . S
C1884 C1885 1.349 . S
C1884 C1886 1.327 . S
C1884 H1909 0.950 . S
C1885 C1884 1.349 . S
C1885 C1901 1.349 . S
C1886 C1884 1.327 . S
C1886 C1905 1.429 . S
C1886 H1910 0.950 . S
C1887 C1904 1.574 . S
C1887 C1906 1.368 . S
C1887 H1911 0.949 . S
H1888 C1892 0.949 . S
C1889 C1890 1.349 . S
C1889 C1891 1.327 . S
C1889 H1912 0.950 . S
C1890 C1889 1.349 . S
C1890 C1902 1.349 . S
C1891 C1889 1.327 . S
C1891 C1907 1.429 . S
C1891 H1913 0.950 . S
C1892 H1888 0.949 . S
C1892 C1900 1.574 . S
C1892 C1908 1.368 . S
H1893 C1901 0.950 . S
H1894 C1899 0.950 . S
H1895 C1900 0.949 . S
H1896 C1902 0.950 . S
H1897 C1903 0.950 . S
H1898 C1904 0.949 . S
C1899 H1894 0.950 . S
C1899 C1901 1.327 . S
C1899 C1905 1.429 . S
C1900 C1892 1.574 . S
C1900 H1895 0.949 . S
C1900 C1906 1.368 . S
C1901 C1885 1.349 . S
C1901 H1893 0.950 . S
C1901 C1899 1.327 . S
C1902 C1890 1.349 . S
C1902 H1896 0.950 . S
C1902 C1903 1.327 . S
C1903 H1897 0.950 . S
C1903 C1902 1.327 . S
C1903 C1907 1.429 . S
C1904 C1887 1.574 . S
C1904 H1898 0.949 . S
C1904 C1908 1.368 . S
C1905 C1886 1.429 . S
C1905 C1899 1.429 . S
C1905 C1906 1.523 . S
C1906 C1887 1.368 . S
C1906 C1900 1.368 . S
C1906 C1905 1.523 . S
C1907 C1891 1.429 . S
C1907 C1903 1.429 . S
C1907 C1908 1.523 . S
C1908 C1892 1.368 . S
C1908 C1904 1.368 . S
C1908 C1907 1.523 . S
H1909 C1884 0.950 . S
H1910 C1886 0.950 . S
H1911 C1887 0.949 . S
H1912 C1889 0.950 . S
H1913 C1891 0.950 . S
C1914 C1915 1.349 . S
C1914 C1916 1.327 . S
C1914 H1939 0.950 . S
C1915 C1914 1.349 . S
C1915 C1931 1.349 . S
C1916 C1914 1.327 . S
C1916 C1935 1.429 . S
C1916 H1940 0.950 . S
C1917 C1934 1.574 . S
C1917 C1936 1.368 . S
C1917 H1941 0.949 . S
H1918 C1922 0.949 . S
C1919 C1920 1.349 . S
C1919 C1921 1.327 . S
C1919 H1942 0.950 . S
C1920 C1919 1.349 . S
C1920 C1932 1.349 . S
C1921 C1919 1.327 . S
C1921 C1937 1.429 . S
C1921 H1943 0.950 . S
C1922 H1918 0.949 . S
C1922 C1930 1.574 . S
C1922 C1938 1.368 . S
H1923 C1931 0.950 . S
H1924 C1929 0.950 . S
H1925 C1930 0.949 . S
H1926 C1932 0.950 . S
H1927 C1933 0.950 . S
H1928 C1934 0.949 . S
C1929 H1924 0.950 . S
C1929 C1931 1.327 . S
C1929 C1935 1.429 . S
C1930 C1922 1.574 . S
C1930 H1925 0.949 . S
C1930 C1936 1.368 . S
C1931 C1915 1.349 . S
C1931 H1923 0.950 . S
C1931 C1929 1.327 . S
C1932 C1920 1.349 . S
C1932 H1926 0.950 . S
C1932 C1933 1.327 . S
C1933 H1927 0.950 . S
C1933 C1932 1.327 . S
C1933 C1937 1.429 . S
C1934 C1917 1.574 . S
C1934 H1928 0.949 . S
C1934 C1938 1.368 . S
C1935 C1916 1.429 . S
C1935 C1929 1.429 . S
C1935 C1936 1.523 . S
C1936 C1917 1.368 . S
C1936 C1930 1.368 . S
C1936 C1935 1.523 . S
C1937 C1921 1.429 . S
C1937 C1933 1.429 . S
C1937 C1938 1.523 . S
C1938 C1922 1.368 . S
C1938 C1934 1.368 . S
C1938 C1937 1.523 . S
H1939 C1914 0.950 . S
H1940 C1916 0.950 . S
H1941 C1917 0.949 . S
H1942 C1919 0.950 . S
H1943 C1921 0.950 . S
C1944 C1945 1.349 . S
C1944 C1946 1.327 . S
C1944 H1969 0.950 . S
C1945 C1944 1.349 . S
C1945 C1961 1.349 . S
C1946 C1944 1.327 . S
C1946 C1965 1.429 . S
C1946 H1970 0.950 . S
C1947 C1964 1.574 . S
C1947 C1966 1.368 . S
C1947 H1971 0.949 . S
H1948 C1952 0.949 . S
C1949 C1950 1.349 . S
C1949 C1951 1.327 . S
C1949 H1972 0.950 . S
C1950 C1949 1.349 . S
C1950 C1962 1.349 . S
C1951 C1949 1.327 . S
C1951 C1967 1.429 . S
C1951 H1973 0.950 . S
C1952 H1948 0.949 . S
C1952 C1960 1.574 . S
C1952 C1968 1.368 . S
H1953 C1961 0.950 . S
H1954 C1959 0.950 . S
H1955 C1960 0.949 . S
H1956 C1962 0.950 . S
H1957 C1963 0.950 . S
H1958 C1964 0.949 . S
C1959 H1954 0.950 . S
C1959 C1961 1.327 . S
C1959 C1965 1.429 . S
C1960 C1952 1.574 . S
C1960 H1955 0.949 . S
C1960 C1966 1.368 . S
C1961 C1945 1.349 . S
C1961 H1953 0.950 . S
C1961 C1959 1.327 . S
C1962 C1950 1.349 . S
C1962 H1956 0.950 . S
C1962 C1963 1.327 . S
C1963 H1957 0.950 . S
C1963 C1962 1.327 . S
C1963 C1967 1.429 . S
C1964 C1947 1.574 . S
C1964 H1958 0.949 . S
C1964 C1968 1.368 . S
C1965 C1946 1.429 . S
C1965 C1959 1.429 . S
C1965 C1966 1.523 . S
C1966 C1947 1.368 . S
C1966 C1960 1.368 . S
C1966 C1965 1.523 . S
C1967 C1951 1.429 . S
C1967 C1963 1.429 . S
C1967 C1968 1.523 . S
C1968 C1952 1.368 . S
C1968 C1964 1.368 . S
C1968 C1967 1.523 . S
H1969 C1944 0.950 . S
H1970 C1946 0.950 . S
H1971 C1947 0.949 . S
H1972 C1949 0.950 . S
H1973 C1951 0.950 . S
C1974 C1975 1.349 . S
C1974 C1976 1.327 . S
C1974 H1999 0.950 . S
C1975 C1974 1.349 . S
C1975 C1991 1.349 . S
C1976 C1974 1.327 . S
C1976 C1995 1.429 . S
C1976 H2000 0.950 . S
C1977 C1994 1.574 . S
C1977 C1996 1.368 . S
C1977 H2001 0.949 . S
H1978 C1982 0.949 . S
C1979 C1980 1.349 . S
C1979 C1981 1.327 . S
C1979 H2002 0.950 . S
C1980 C1979 1.349 . S
C1980 C1992 1.349 . S
C1981 C1979 1.327 . S
C1981 C1997 1.429 . S
C1981 H2003 0.950 . S
C1982 H1978 0.949 . S
C1982 C1990 1.574 . S
C1982 C1998 1.368 . S
H1983 C1991 0.950 . S
H1984 C1989 0.950 . S
H1985 C1990 0.949 . S
H1986 C1992 0.950 . S
H1987 C1993 0.950 . S
H1988 C1994 0.949 . S
C1989 H1984 0.950 . S
C1989 C1991 1.327 . S
C1989 C1995 1.429 . S
C1990 C1982 1.574 . S
C1990 H1985 0.949 . S
C1990 C1996 1.368 . S
C1991 C1975 1.349 . S
C1991 H1983 0.950 . S
C1991 C1989 1.327 . S
C1992 C1980 1.349 . S
C1992 H1986 0.950 . S
C1992 C1993 1.327 . S
C1993 H1987 0.950 . S
C1993 C1992 1.327 . S
C1993 C1997 1.429 . S
C1994 C1977 1.574 . S
C1994 H1988 0.949 . S
C1994 C1998 1.368 . S
C1995 C1976 1.429 . S
C1995 C1989 1.429 . S
C1995 C1996 1.523 . S
C1996 C1977 1.368 . S
C1996 C1990 1.368 . S
C1996 C1995 1.523 . S
C1997 C1981 1.429 . S
C1997 C1993 1.429 . S
C1997 C1998 1.523 . S
C1998 C1982 1.368 . S
C1998 C1994 1.368 . S
C1998 C1997 1.523 . S
H1999 C1974 0.950 . S
H2000 C1976 0.950 . S
H2001 C1977 0.949 . S
H2002 C1979 0.950 . S
H2003 C1981 0.950 . S
C2004 C2005 1.349 . S
C2004 C2006 1.327 . S
C2004 H2029 0.950 . S
C2005 C2004 1.349 . S
C2005 C2021 1.349 . S
C2006 C2004 1.327 . S
C2006 C2025 1.429 . S
C2006 H2030 0.950 . S
C2007 C2024 1.574 . S
C2007 C2026 1.368 . S
C2007 H2031 0.949 . S
H2008 C2012 0.949 . S
C2009 C2010 1.349 . S
C2009 C2011 1.327 . S
C2009 H2032 0.950 . S
C2010 C2009 1.349 . S
C2010 C2022 1.349 . S
C2011 C2009 1.327 . S
C2011 C2027 1.429 . S
C2011 H2033 0.950 . S
C2012 H2008 0.949 . S
C2012 C2020 1.574 . S
C2012 C2028 1.368 . S
H2013 C2021 0.950 . S
H2014 C2019 0.950 . S
H2015 C2020 0.949 . S
H2016 C2022 0.950 . S
H2017 C2023 0.950 . S
H2018 C2024 0.949 . S
C2019 H2014 0.950 . S
C2019 C2021 1.327 . S
C2019 C2025 1.429 . S
C2020 C2012 1.574 . S
C2020 H2015 0.949 . S
C2020 C2026 1.368 . S
C2021 C2005 1.349 . S
C2021 H2013 0.950 . S
C2021 C2019 1.327 . S
C2022 C2010 1.349 . S
C2022 H2016 0.950 . S
C2022 C2023 1.327 . S
C2023 H2017 0.950 . S
C2023 C2022 1.327 . S
C2023 C2027 1.429 . S
C2024 C2007 1.574 . S
C2024 H2018 0.949 . S
C2024 C2028 1.368 . S
C2025 C2006 1.429 . S
C2025 C2019 1.429 . S
C2025 C2026 1.523 . S
C2026 C2007 1.368 . S
C2026 C2020 1.368 . S
C2026 C2025 1.523 . S
C2027 C2011 1.429 . S
C2027 C2023 1.429 . S
C2027 C2028 1.523 . S
C2028 C2012 1.368 . S
C2028 C2024 1.368 . S
C2028 C2027 1.523 . S
H2029 C2004 0.950 . S
H2030 C2006 0.950 . S
H2031 C2007 0.949 . S
H2032 C2009 0.950 . S
H2033 C2011 0.950 . S
C2034 C2035 1.349 . S
C2034 C2036 1.327 . S
C2034 H2059 0.950 . S
C2035 C2034 1.349 . S
C2035 C2051 1.349 . S
C2036 C2034 1.327 . S
C2036 C2055 1.429 . S
C2036 H2060 0.950 . S
C2037 C2054 1.574 . S
C2037 C2056 1.368 . S
C2037 H2061 0.949 . S
H2038 C2042 0.949 . S
C2039 C2040 1.349 . S
C2039 C2041 1.327 . S
C2039 H2062 0.950 . S
C2040 C2039 1.349 . S
C2040 C2052 1.349 . S
C2041 C2039 1.327 . S
C2041 C2057 1.429 . S
C2041 H2063 0.950 . S
C2042 H2038 0.949 . S
C2042 C2050 1.574 . S
C2042 C2058 1.368 . S
H2043 C2051 0.950 . S
H2044 C2049 0.950 . S
H2045 C2050 0.949 . S
H2046 C2052 0.950 . S
H2047 C2053 0.950 . S
H2048 C2054 0.949 . S
C2049 H2044 0.950 . S
C2049 C2051 1.327 . S
C2049 C2055 1.429 . S
C2050 C2042 1.574 . S
C2050 H2045 0.949 . S
C2050 C2056 1.368 . S
C2051 C2035 1.349 . S
C2051 H2043 0.950 . S
C2051 C2049 1.327 . S
C2052 C2040 1.349 . S
C2052 H2046 0.950 . S
C2052 C2053 1.327 . S
C2053 H2047 0.950 . S
C2053 C2052 1.327 . S
C2053 C2057 1.429 . S
C2054 C2037 1.574 . S
C2054 H2048 0.949 . S
C2054 C2058 1.368 . S
C2055 C2036 1.429 . S
C2055 C2049 1.429 . S
C2055 C2056 1.523 . S
C2056 C2037 1.368 . S
C2056 C2050 1.368 . S
C2056 C2055 1.523 . S
C2057 C2041 1.429 . S
C2057 C2053 1.429 . S
C2057 C2058 1.523 . S
C2058 C2042 1.368 . S
C2058 C2054 1.368 . S
C2058 C2057 1.523 . S
H2059 C2034 0.950 . S
H2060 C2036 0.950 . S
H2061 C2037 0.949 . S
H2062 C2039 0.950 . S
H2063 C2041 0.950 . S
C2064 C2065 1.349 . S
C2064 C2066 1.327 . S
C2064 H2089 0.950 . S
C2065 C2064 1.349 . S
C2065 C2081 1.349 . S
C2066 C2064 1.327 . S
C2066 C2085 1.429 . S
C2066 H2090 0.950 . S
C2067 C2084 1.574 . S
C2067 C2086 1.368 . S
C2067 H2091 0.949 . S
H2068 C2072 0.949 . S
C2069 C2070 1.349 . S
C2069 C2071 1.327 . S
C2069 H2092 0.950 . S
C2070 C2069 1.349 . S
C2070 C2082 1.349 . S
C2071 C2069 1.327 . S
C2071 C2087 1.429 . S
C2071 H2093 0.950 . S
C2072 H2068 0.949 . S
C2072 C2080 1.574 . S
C2072 C2088 1.368 . S
H2073 C2081 0.950 . S
H2074 C2079 0.950 . S
H2075 C2080 0.949 . S
H2076 C2082 0.950 . S
H2077 C2083 0.950 . S
H2078 C2084 0.949 . S
C2079 H2074 0.950 . S
C2079 C2081 1.327 . S
C2079 C2085 1.429 . S
C2080 C2072 1.574 . S
C2080 H2075 0.949 . S
C2080 C2086 1.368 . S
C2081 C2065 1.349 . S
C2081 H2073 0.950 . S
C2081 C2079 1.327 . S
C2082 C2070 1.349 . S
C2082 H2076 0.950 . S
C2082 C2083 1.327 . S
C2083 H2077 0.950 . S
C2083 C2082 1.327 . S
C2083 C2087 1.429 . S
C2084 C2067 1.574 . S
C2084 H2078 0.949 . S
C2084 C2088 1.368 . S
C2085 C2066 1.429 . S
C2085 C2079 1.429 . S
C2085 C2086 1.523 . S
C2086 C2067 1.368 . S
C2086 C2080 1.368 . S
C2086 C2085 1.523 . S
C2087 C2071 1.429 . S
C2087 C2083 1.429 . S
C2087 C2088 1.523 . S
C2088 C2072 1.368 . S
C2088 C2084 1.368 . S
C2088 C2087 1.523 . S
H2089 C2064 0.950 . S
H2090 C2066 0.950 . S
H2091 C2067 0.949 . S
H2092 C2069 0.950 . S
H2093 C2071 0.950 . S
C2094 C2095 1.349 . S
C2094 C2096 1.327 . S
C2094 H2119 0.950 . S
C2095 C2094 1.349 . S
C2095 C2111 1.349 . S
C2096 C2094 1.327 . S
C2096 C2115 1.429 . S
C2096 H2120 0.950 . S
C2097 C2114 1.574 . S
C2097 C2116 1.368 . S
C2097 H2121 0.949 . S
H2098 C2102 0.949 . S
C2099 C2100 1.349 . S
C2099 C2101 1.327 . S
C2099 H2122 0.950 . S
C2100 C2099 1.349 . S
C2100 C2112 1.349 . S
C2101 C2099 1.327 . S
C2101 C2117 1.429 . S
C2101 H2123 0.950 . S
C2102 H2098 0.949 . S
C2102 C2110 1.574 . S
C2102 C2118 1.368 . S
H2103 C2111 0.950 . S
H2104 C2109 0.950 . S
H2105 C2110 0.949 . S
H2106 C2112 0.950 . S
H2107 C2113 0.950 . S
H2108 C2114 0.949 . S
C2109 H2104 0.950 . S
C2109 C2111 1.327 . S
C2109 C2115 1.429 . S
C2110 C2102 1.574 . S
C2110 H2105 0.949 . S
C2110 C2116 1.368 . S
C2111 C2095 1.349 . S
C2111 H2103 0.950 . S
C2111 C2109 1.327 . S
C2112 C2100 1.349 . S
C2112 H2106 0.950 . S
C2112 C2113 1.327 . S
C2113 H2107 0.950 . S
C2113 C2112 1.327 . S
C2113 C2117 1.429 . S
C2114 C2097 1.574 . S
C2114 H2108 0.949 . S
C2114 C2118 1.368 . S
C2115 C2096 1.429 . S
C2115 C2109 1.429 . S
C2115 C2116 1.523 . S
C2116 C2097 1.368 . S
C2116 C2110 1.368 . S
C2116 C2115 1.523 . S
C2117 C2101 1.429 . S
C2117 C2113 1.429 . S
C2117 C2118 1.523 . S
C2118 C2102 1.368 . S
C2118 C2114 1.368 . S
C2118 C2117 1.523 . S
H2119 C2094 0.950 . S
H2120 C2096 0.950 . S
H2121 C2097 0.949 . S
H2122 C2099 0.950 . S
H2123 C2101 0.950 . S
C2124 C2125 1.349 . S
C2124 C2126 1.327 . S
C2124 H2149 0.950 . S
C2125 C2124 1.349 . S
C2125 C2141 1.349 . S
C2126 C2124 1.327 . S
C2126 C2145 1.429 . S
C2126 H2150 0.950 . S
C2127 C2144 1.574 1_655 S
C2127 C2146 1.368 1_554 S
C2127 H2151 0.949 . S
H2128 C2132 0.949 . S
C2129 C2130 1.349 . S
C2129 C2131 1.327 . S
C2129 H2152 0.950 . S
C2130 C2129 1.349 . S
C2130 C2142 1.349 . S
C2131 C2129 1.327 . S
C2131 C2147 1.429 . S
C2131 H2153 0.950 . S
C2132 H2128 0.949 . S
C2132 C2140 1.574 1_455 S
C2132 C2148 1.368 1_556 S
H2133 C2141 0.950 1_554 S
H2134 C2139 0.953 . S
H2135 C2140 0.949 . S
H2136 C2142 0.950 1_556 S
H2137 C2143 0.953 . S
H2138 C2144 0.949 . S
C2139 H2134 0.953 . S
C2139 C2141 1.326 1_554 S
C2139 C2145 1.426 1_554 S
C2140 C2132 1.574 1_655 S
C2140 H2135 0.949 . S
C2140 C2146 1.368 . S
C2141 C2125 1.349 . S
C2141 H2133 0.950 1_556 S
C2141 C2139 1.326 1_556 S
C2142 C2130 1.349 . S
C2142 H2136 0.950 1_554 S
C2142 C2143 1.326 1_554 S
C2143 H2137 0.953 . S
C2143 C2142 1.326 1_556 S
C2143 C2147 1.426 1_556 S
C2144 C2127 1.574 1_455 S
C2144 H2138 0.949 . S
C2144 C2148 1.368 . S
C2145 C2126 1.429 . S
C2145 C2139 1.426 1_556 S
C2145 C2146 1.523 . S
C2146 C2127 1.368 1_556 S
C2146 C2140 1.368 . S
C2146 C2145 1.523 . S
C2147 C2131 1.429 . S
C2147 C2143 1.426 1_554 S
C2147 C2148 1.523 . S
C2148 C2132 1.368 1_554 S
C2148 C2144 1.368 . S
C2148 C2147 1.523 . S
H2149 C2124 0.950 . S
H2150 C2126 0.950 . S
H2151 C2127 0.949 . S
H2152 C2129 0.950 . S
H2153 C2131 0.950 . S
C2154 C2155 1.349 . S
C2154 C2156 1.326 1_556 S
C2154 H2179 0.950 1_556 S
C2155 C2154 1.349 . S
C2155 C2171 1.349 . S
C2156 C2154 1.326 1_554 S
C2156 C2175 1.427 1_554 S
C2156 H2180 0.953 . S
C2157 C2174 1.574 . S
C2157 C2176 1.368 . S
C2157 H2181 0.949 . S
H2158 C2162 0.949 . S
C2159 C2160 1.349 . S
C2159 C2161 1.326 1_554 S
C2159 H2182 0.950 1_554 S
C2160 C2159 1.349 . S
C2160 C2172 1.349 . S
C2161 C2159 1.326 1_556 S
C2161 C2177 1.427 1_556 S
C2161 H2183 0.953 . S
C2162 H2158 0.949 . S
C2162 C2170 1.574 . S
C2162 C2178 1.368 . S
H2163 C2171 0.950 . S
H2164 C2169 0.950 . S
H2165 C2170 0.949 . S
H2166 C2172 0.950 . S
H2167 C2173 0.950 . S
H2168 C2174 0.949 . S
C2169 H2164 0.950 . S
C2169 C2171 1.327 . S
C2169 C2175 1.429 . S
C2170 C2162 1.574 . S
C2170 H2165 0.949 . S
C2170 C2176 1.368 1_554 S
C2171 C2155 1.349 . S
C2171 H2163 0.950 . S
C2171 C2169 1.327 . S
C2172 C2160 1.349 . S
C2172 H2166 0.950 . S
C2172 C2173 1.327 . S
C2173 H2167 0.950 . S
C2173 C2172 1.327 . S
C2173 C2177 1.429 . S
C2174 C2157 1.574 . S
C2174 H2168 0.949 . S
C2174 C2178 1.368 1_556 S
C2175 C2156 1.427 1_556 S
C2175 C2169 1.429 . S
C2175 C2176 1.523 . S
C2176 C2157 1.368 . S
C2176 C2170 1.368 1_556 S
C2176 C2175 1.523 . S
C2177 C2161 1.427 1_554 S
C2177 C2173 1.429 . S
C2177 C2178 1.523 . S
C2178 C2162 1.368 . S
C2178 C2174 1.368 1_554 S
C2178 C2177 1.523 . S
H2179 C2154 0.950 1_554 S
H2180 C2156 0.953 . S
H2181 C2157 0.949 . S
H2182 C2159 0.950 1_556 S
H2183 C2161 0.953 . S
C2184 C2185 1.349 . S
C2184 C2186 1.327 . S
C2184 H2209 0.950 . S
C2185 C2184 1.349 . S
C2185 C2201 1.349 . S
C2186 C2184 1.327 . S
C2186 C2205 1.429 . S
C2186 H2210 0.950 . S
C2187 C2204 1.574 1_565 S
C2187 C2206 1.368 1_556 S
C2187 H2211 0.949 . S
H2188 C2192 0.949 . S
C2189 C2190 1.349 . S
C2189 C2191 1.327 . S
C2189 H2212 0.950 . S
C2190 C2189 1.349 . S
C2190 C2202 1.349 . S
C2191 C2189 1.327 . S
C2191 C2207 1.429 . S
C2191 H2213 0.950 . S
C2192 H2188 0.949 . S
C2192 C2200 1.574 1_545 S
C2192 C2208 1.368 1_554 S
H2193 C2201 0.950 . S
H2194 C2199 0.950 1_556 S
H2195 C2200 0.949 . S
H2196 C2202 0.950 . S
H2197 C2203 0.950 1_554 S
H2198 C2204 0.949 . S
C2199 H2194 0.950 1_554 S
C2199 C2201 1.327 . S
C2199 C2205 1.429 . S
C2200 C2192 1.574 1_565 S
C2200 H2195 0.949 . S
C2200 C2206 1.368 . S
C2201 C2185 1.349 . S
C2201 H2193 0.950 . S
C2201 C2199 1.327 . S
C2202 C2190 1.349 . S
C2202 H2196 0.950 . S
C2202 C2203 1.327 . S
C2203 H2197 0.950 1_556 S
C2203 C2202 1.327 . S
C2203 C2207 1.429 . S
C2204 C2187 1.574 1_545 S
C2204 H2198 0.949 . S
C2204 C2208 1.368 . S
C2205 C2186 1.429 . S
C2205 C2199 1.429 . S
C2205 C2206 1.523 . S
C2206 C2187 1.368 1_554 S
C2206 C2200 1.368 . S
C2206 C2205 1.523 . S
C2207 C2191 1.429 . S
C2207 C2203 1.429 . S
C2207 C2208 1.523 . S
C2208 C2192 1.368 1_556 S
C2208 C2204 1.368 . S
C2208 C2207 1.523 . S
H2209 C2184 0.950 . S
H2210 C2186 0.950 . S
H2211 C2187 0.949 . S
H2212 C2189 0.950 . S
H2213 C2191 0.950 . S
C2214 C2215 1.349 . S
C2214 C2216 1.327 . S
C2214 H2239 0.950 . S
C2215 C2214 1.349 . S
C2215 C2231 1.349 . S
C2216 C2214 1.327 . S
C2216 C2235 1.429 . S
C2216 H2240 0.950 1_554 S
C2217 C2234 1.574 1_565 S
C2217 C2236 1.368 . S
C2217 H2241 0.949 . S
H2218 C2222 0.949 . S
C2219 C2220 1.349 . S
C2219 C2221 1.327 . S
C2219 H2242 0.950 . S
C2220 C2219 1.349 . S
C2220 C2232 1.349 . S
C2221 C2219 1.327 . S
C2221 C2237 1.429 . S
C2221 H2243 0.950 1_556 S
C2222 H2218 0.949 . S
C2222 C2230 1.574 1_545 S
C2222 C2238 1.368 . S
H2223 C2231 0.950 . S
H2224 C2229 0.950 . S
H2225 C2230 0.949 . S
H2226 C2232 0.950 . S
H2227 C2233 0.950 . S
H2228 C2234 0.949 . S
C2229 H2224 0.950 . S
C2229 C2231 1.327 . S
C2229 C2235 1.429 . S
C2230 C2222 1.574 1_565 S
C2230 H2225 0.949 . S
C2230 C2236 1.368 1_556 S
C2231 C2215 1.349 . S
C2231 H2223 0.950 . S
C2231 C2229 1.327 . S
C2232 C2220 1.349 . S
C2232 H2226 0.950 . S
C2232 C2233 1.327 . S
C2233 H2227 0.950 . S
C2233 C2232 1.327 . S
C2233 C2237 1.429 . S
C2234 C2217 1.574 1_545 S
C2234 H2228 0.949 . S
C2234 C2238 1.368 1_554 S
C2235 C2216 1.429 . S
C2235 C2229 1.429 . S
C2235 C2236 1.523 . S
C2236 C2217 1.368 . S
C2236 C2230 1.368 1_554 S
C2236 C2235 1.523 . S
C2237 C2221 1.429 . S
C2237 C2233 1.429 . S
C2237 C2238 1.523 . S
C2238 C2222 1.368 . S
C2238 C2234 1.368 1_556 S
C2238 C2237 1.523 . S
H2239 C2214 0.950 . S
H2240 C2216 0.950 1_556 S
H2241 C2217 0.949 . S
H2242 C2219 0.950 . S
H2243 C2221 0.950 1_554 S
C2244 C2245 1.349 . S
C2244 C2246 1.327 . S
C2244 H2269 0.950 . S
C2245 C2244 1.349 . S
C2245 C2261 1.349 . S
C2246 C2244 1.327 . S
C2246 C2265 1.429 . S
C2246 H2270 0.950 1_556 S
C2247 C2264 1.574 1_655 S
C2247 C2266 1.368 . S
C2247 H2271 0.949 . S
H2248 C2252 0.949 . S
C2249 C2250 1.349 . S
C2249 C2251 1.327 . S
C2249 H2272 0.950 . S
C2250 C2249 1.349 . S
C2250 C2262 1.349 . S
C2251 C2249 1.327 . S
C2251 C2267 1.429 . S
C2251 H2273 0.950 1_554 S
C2252 H2248 0.949 . S
C2252 C2260 1.574 1_455 S
C2252 C2268 1.368 . S
H2253 C2261 0.950 . S
H2254 C2259 0.950 . S
H2255 C2260 0.949 . S
H2256 C2262 0.950 . S
H2257 C2263 0.950 . S
H2258 C2264 0.949 . S
C2259 H2254 0.950 . S
C2259 C2261 1.327 . S
C2259 C2265 1.429 . S
C2260 C2252 1.574 1_655 S
C2260 H2255 0.949 . S
C2260 C2266 1.368 1_554 S
C2261 C2245 1.349 . S
C2261 H2253 0.950 . S
C2261 C2259 1.327 . S
C2262 C2250 1.349 . S
C2262 H2256 0.950 . S
C2262 C2263 1.327 . S
C2263 H2257 0.950 . S
C2263 C2262 1.327 . S
C2263 C2267 1.429 . S
C2264 C2247 1.574 1_455 S
C2264 H2258 0.949 . S
C2264 C2268 1.368 1_556 S
C2265 C2246 1.429 . S
C2265 C2259 1.429 . S
C2265 C2266 1.523 . S
C2266 C2247 1.368 . S
C2266 C2260 1.368 1_556 S
C2266 C2265 1.523 . S
C2267 C2251 1.429 . S
C2267 C2263 1.429 . S
C2267 C2268 1.523 . S
C2268 C2252 1.368 . S
C2268 C2264 1.368 1_554 S
C2268 C2267 1.523 . S
H2269 C2244 0.950 . S
H2270 C2246 0.950 1_554 S
H2271 C2247 0.949 . S
H2272 C2249 0.950 . S
H2273 C2251 0.950 1_556 S
C2274 C2275 1.349 . S
C2274 C2276 1.327 . S
C2274 H2299 0.950 . S
C2275 C2274 1.349 . S
C2275 C2291 1.349 . S
C2276 C2274 1.327 . S
C2276 C2295 1.429 . S
C2276 H2300 0.950 . S
C2277 C2294 1.574 1_556 S
C2277 C2296 1.368 . S
C2277 H2301 0.949 . S
H2278 C2282 0.949 . S
C2279 C2280 1.349 . S
C2279 C2281 1.327 . S
C2279 H2302 0.950 . S
C2280 C2279 1.349 . S
C2280 C2292 1.349 . S
C2281 C2279 1.327 . S
C2281 C2297 1.429 . S
C2281 H2303 0.950 . S
C2282 H2278 0.949 . S
C2282 C2290 1.574 1_554 S
C2282 C2298 1.368 . S
H2283 C2291 0.950 . S
H2284 C2289 0.950 . S
H2285 C2290 0.949 . S
H2286 C2292 0.950 . S
H2287 C2293 0.950 . S
H2288 C2294 0.949 . S
C2289 H2284 0.950 . S
C2289 C2291 1.327 . S
C2289 C2295 1.429 . S
C2290 C2282 1.574 1_556 S
C2290 H2285 0.949 . S
C2290 C2296 1.368 . S
C2291 C2275 1.349 . S
C2291 H2283 0.950 . S
C2291 C2289 1.327 . S
C2292 C2280 1.349 . S
C2292 H2286 0.950 . S
C2292 C2293 1.327 . S
C2293 H2287 0.950 . S
C2293 C2292 1.327 . S
C2293 C2297 1.429 . S
C2294 C2277 1.574 1_554 S
C2294 H2288 0.949 . S
C2294 C2298 1.368 . S
C2295 C2276 1.429 . S
C2295 C2289 1.429 . S
C2295 C2296 1.523 . S
C2296 C2277 1.368 . S
C2296 C2290 1.368 . S
C2296 C2295 1.523 . S
C2297 C2281 1.429 . S
C2297 C2293 1.429 . S
C2297 C2298 1.523 . S
C2298 C2282 1.368 . S
C2298 C2294 1.368 . S
C2298 C2297 1.523 . S
H2299 C2274 0.950 . S
H2300 C2276 0.950 . S
H2301 C2277 0.949 . S
H2302 C2279 0.950 . S
H2303 C2281 0.950 . S
C2304 C2305 1.349 . S
C2304 C2306 1.327 . S
C2304 H2329 0.950 . S
C2305 C2304 1.349 . S
C2305 C2321 1.349 . S
C2306 C2304 1.327 . S
C2306 C2325 1.429 . S
C2306 H2330 0.950 . S
C2307 C2324 1.574 . S
C2307 C2326 1.368 . S
C2307 H2331 0.949 . S
H2308 C2312 0.949 . S
C2309 C2310 1.349 . S
C2309 C2311 1.327 . S
C2309 H2332 0.950 . S
C2310 C2309 1.349 . S
C2310 C2322 1.349 . S
C2311 C2309 1.327 . S
C2311 C2327 1.429 . S
C2311 H2333 0.950 . S
C2312 H2308 0.949 . S
C2312 C2320 1.574 . S
C2312 C2328 1.368 . S
H2313 C2321 0.950 . S
H2314 C2319 0.950 . S
H2315 C2320 0.949 . S
H2316 C2322 0.950 . S
H2317 C2323 0.950 . S
H2318 C2324 0.949 . S
C2319 H2314 0.950 . S
C2319 C2321 1.327 . S
C2319 C2325 1.429 . S
C2320 C2312 1.574 . S
C2320 H2315 0.949 . S
C2320 C2326 1.368 . S
C2321 C2305 1.349 . S
C2321 H2313 0.950 . S
C2321 C2319 1.327 . S
C2322 C2310 1.349 . S
C2322 H2316 0.950 . S
C2322 C2323 1.327 . S
C2323 H2317 0.950 . S
C2323 C2322 1.327 . S
C2323 C2327 1.429 . S
C2324 C2307 1.574 . S
C2324 H2318 0.949 . S
C2324 C2328 1.368 . S
C2325 C2306 1.429 . S
C2325 C2319 1.429 . S
C2325 C2326 1.523 . S
C2326 C2307 1.368 . S
C2326 C2320 1.368 . S
C2326 C2325 1.523 . S
C2327 C2311 1.429 . S
C2327 C2323 1.429 . S
C2327 C2328 1.523 . S
C2328 C2312 1.368 . S
C2328 C2324 1.368 . S
C2328 C2327 1.523 . S
H2329 C2304 0.950 . S
H2330 C2306 0.950 . S
H2331 C2307 0.949 . S
H2332 C2309 0.950 . S
H2333 C2311 0.950 . S
C2334 C2335 1.349 . S
C2334 C2336 1.327 . S
C2334 H2359 0.950 . S
C2335 C2334 1.349 . S
C2335 C2351 1.349 . S
C2336 C2334 1.327 . S
C2336 C2355 1.429 . S
C2336 H2360 0.950 . S
C2337 C2354 1.574 . S
C2337 C2356 1.368 . S
C2337 H2361 0.949 . S
H2338 C2342 0.949 . S
C2339 C2340 1.349 . S
C2339 C2341 1.327 . S
C2339 H2362 0.950 . S
C2340 C2339 1.349 . S
C2340 C2352 1.349 . S
C2341 C2339 1.327 . S
C2341 C2357 1.429 . S
C2341 H2363 0.950 . S
C2342 H2338 0.949 . S
C2342 C2350 1.574 . S
C2342 C2358 1.368 . S
H2343 C2351 0.950 . S
H2344 C2349 0.950 . S
H2345 C2350 0.949 . S
H2346 C2352 0.950 . S
H2347 C2353 0.950 . S
H2348 C2354 0.949 . S
C2349 H2344 0.950 . S
C2349 C2351 1.327 . S
C2349 C2355 1.429 . S
C2350 C2342 1.574 . S
C2350 H2345 0.949 . S
C2350 C2356 1.368 . S
C2351 C2335 1.349 . S
C2351 H2343 0.950 . S
C2351 C2349 1.327 . S
C2352 C2340 1.349 . S
C2352 H2346 0.950 . S
C2352 C2353 1.327 . S
C2353 H2347 0.950 . S
C2353 C2352 1.327 . S
C2353 C2357 1.429 . S
C2354 C2337 1.574 . S
C2354 H2348 0.949 . S
C2354 C2358 1.368 . S
C2355 C2336 1.429 . S
C2355 C2349 1.429 . S
C2355 C2356 1.523 . S
C2356 C2337 1.368 . S
C2356 C2350 1.368 . S
C2356 C2355 1.523 . S
C2357 C2341 1.429 . S
C2357 C2353 1.429 . S
C2357 C2358 1.523 . S
C2358 C2342 1.368 . S
C2358 C2354 1.368 . S
C2358 C2357 1.523 . S
H2359 C2334 0.950 . S
H2360 C2336 0.950 . S
H2361 C2337 0.949 . S
H2362 C2339 0.950 . S
H2363 C2341 0.950 . S
C2364 C2365 1.349 . S
C2364 C2366 1.327 . S
C2364 H2389 0.950 . S
C2365 C2364 1.349 . S
C2365 C2381 1.349 . S
C2366 C2364 1.327 . S
C2366 C2385 1.429 . S
C2366 H2390 0.950 . S
C2367 C2384 1.574 . S
C2367 C2386 1.368 . S
C2367 H2391 0.949 . S
H2368 C2372 0.949 . S
C2369 C2370 1.349 . S
C2369 C2371 1.327 . S
C2369 H2392 0.950 . S
C2370 C2369 1.349 . S
C2370 C2382 1.349 . S
C2371 C2369 1.327 . S
C2371 C2387 1.429 . S
C2371 H2393 0.950 . S
C2372 H2368 0.949 . S
C2372 C2380 1.574 . S
C2372 C2388 1.368 . S
H2373 C2381 0.950 . S
H2374 C2379 0.950 . S
H2375 C2380 0.949 . S
H2376 C2382 0.950 . S
H2377 C2383 0.950 . S
H2378 C2384 0.949 . S
C2379 H2374 0.950 . S
C2379 C2381 1.327 . S
C2379 C2385 1.429 . S
C2380 C2372 1.574 . S
C2380 H2375 0.949 . S
C2380 C2386 1.368 . S
C2381 C2365 1.349 . S
C2381 H2373 0.950 . S
C2381 C2379 1.327 . S
C2382 C2370 1.349 . S
C2382 H2376 0.950 . S
C2382 C2383 1.327 . S
C2383 H2377 0.950 . S
C2383 C2382 1.327 . S
C2383 C2387 1.429 . S
C2384 C2367 1.574 . S
C2384 H2378 0.949 . S
C2384 C2388 1.368 . S
C2385 C2366 1.429 . S
C2385 C2379 1.429 . S
C2385 C2386 1.523 . S
C2386 C2367 1.368 . S
C2386 C2380 1.368 . S
C2386 C2385 1.523 . S
C2387 C2371 1.429 . S
C2387 C2383 1.429 . S
C2387 C2388 1.523 . S
C2388 C2372 1.368 . S
C2388 C2384 1.368 . S
C2388 C2387 1.523 . S
H2389 C2364 0.950 . S
H2390 C2366 0.950 . S
H2391 C2367 0.949 . S
H2392 C2369 0.950 . S
H2393 C2371 0.950 . S
C2394 C2395 1.349 . S
C2394 C2396 1.327 . S
C2394 H2419 0.950 . S
C2395 C2394 1.349 . S
C2395 C2411 1.349 . S
C2396 C2394 1.327 . S
C2396 C2415 1.429 . S
C2396 H2420 0.950 . S
C2397 C2414 1.574 . S
C2397 C2416 1.368 . S
C2397 H2421 0.949 . S
H2398 C2402 0.949 . S
C2399 C2400 1.349 . S
C2399 C2401 1.327 . S
C2399 H2422 0.950 . S
C2400 C2399 1.349 . S
C2400 C2412 1.349 . S
C2401 C2399 1.327 . S
C2401 C2417 1.429 . S
C2401 H2423 0.950 . S
C2402 H2398 0.949 . S
C2402 C2410 1.574 . S
C2402 C2418 1.368 . S
H2403 C2411 0.950 . S
H2404 C2409 0.950 . S
H2405 C2410 0.949 . S
H2406 C2412 0.950 . S
H2407 C2413 0.950 . S
H2408 C2414 0.949 . S
C2409 H2404 0.950 . S
C2409 C2411 1.327 . S
C2409 C2415 1.429 . S
C2410 C2402 1.574 . S
C2410 H2405 0.949 . S
C2410 C2416 1.368 . S
C2411 C2395 1.349 . S
C2411 H2403 0.950 . S
C2411 C2409 1.327 . S
C2412 C2400 1.349 . S
C2412 H2406 0.950 . S
C2412 C2413 1.327 . S
C2413 H2407 0.950 . S
C2413 C2412 1.327 . S
C2413 C2417 1.429 . S
C2414 C2397 1.574 . S
C2414 H2408 0.949 . S
C2414 C2418 1.368 . S
C2415 C2396 1.429 . S
C2415 C2409 1.429 . S
C2415 C2416 1.523 . S
C2416 C2397 1.368 . S
C2416 C2410 1.368 . S
C2416 C2415 1.523 . S
C2417 C2401 1.429 . S
C2417 C2413 1.429 . S
C2417 C2418 1.523 . S
C2418 C2402 1.368 . S
C2418 C2414 1.368 . S
C2418 C2417 1.523 . S
H2419 C2394 0.950 . S
H2420 C2396 0.950 . S
H2421 C2397 0.949 . S
H2422 C2399 0.950 . S
H2423 C2401 0.950 . S
C2424 C2425 1.349 . S
C2424 C2426 1.327 . S
C2424 H2449 0.950 . S
C2425 C2424 1.349 . S
C2425 C2441 1.349 . S
C2426 C2424 1.327 . S
C2426 C2445 1.429 . S
C2426 H2450 0.950 . S
C2427 C2444 1.574 . S
C2427 C2446 1.368 . S
C2427 H2451 0.949 . S
H2428 C2432 0.949 . S
C2429 C2430 1.349 . S
C2429 C2431 1.327 . S
C2429 H2452 0.950 . S
C2430 C2429 1.349 . S
C2430 C2442 1.349 . S
C2431 C2429 1.327 . S
C2431 C2447 1.429 . S
C2431 H2453 0.950 . S
C2432 H2428 0.949 . S
C2432 C2440 1.574 . S
C2432 C2448 1.368 . S
H2433 C2441 0.950 . S
H2434 C2439 0.950 . S
H2435 C2440 0.949 . S
H2436 C2442 0.950 . S
H2437 C2443 0.950 . S
H2438 C2444 0.949 . S
C2439 H2434 0.950 . S
C2439 C2441 1.327 . S
C2439 C2445 1.429 . S
C2440 C2432 1.574 . S
C2440 H2435 0.949 . S
C2440 C2446 1.368 . S
C2441 C2425 1.349 . S
C2441 H2433 0.950 . S
C2441 C2439 1.327 . S
C2442 C2430 1.349 . S
C2442 H2436 0.950 . S
C2442 C2443 1.327 . S
C2443 H2437 0.950 . S
C2443 C2442 1.327 . S
C2443 C2447 1.429 . S
C2444 C2427 1.574 . S
C2444 H2438 0.949 . S
C2444 C2448 1.368 . S
C2445 C2426 1.429 . S
C2445 C2439 1.429 . S
C2445 C2446 1.523 . S
C2446 C2427 1.368 . S
C2446 C2440 1.368 . S
C2446 C2445 1.523 . S
C2447 C2431 1.429 . S
C2447 C2443 1.429 . S
C2447 C2448 1.523 . S
C2448 C2432 1.368 . S
C2448 C2444 1.368 . S
C2448 C2447 1.523 . S
H2449 C2424 0.950 . S
H2450 C2426 0.950 . S
H2451 C2427 0.949 . S
H2452 C2429 0.950 . S
H2453 C2431 0.950 . S
C2454 C2455 1.349 . S
C2454 C2456 1.327 . S
C2454 H2479 0.950 . S
C2455 C2454 1.349 . S
C2455 C2471 1.349 . S
C2456 C2454 1.327 . S
C2456 C2475 1.429 . S
C2456 H2480 0.950 . S
C2457 C2474 1.574 . S
C2457 C2476 1.368 . S
C2457 H2481 0.949 . S
H2458 C2462 0.949 . S
C2459 C2460 1.349 . S
C2459 C2461 1.327 . S
C2459 H2482 0.950 . S
C2460 C2459 1.349 . S
C2460 C2472 1.349 . S
C2461 C2459 1.327 . S
C2461 C2477 1.429 . S
C2461 H2483 0.950 . S
C2462 H2458 0.949 . S
C2462 C2470 1.574 . S
C2462 C2478 1.368 . S
H2463 C2471 0.950 . S
H2464 C2469 0.950 . S
H2465 C2470 0.949 . S
H2466 C2472 0.950 . S
H2467 C2473 0.950 . S
H2468 C2474 0.949 . S
C2469 H2464 0.950 . S
C2469 C2471 1.327 . S
C2469 C2475 1.429 . S
C2470 C2462 1.574 . S
C2470 H2465 0.949 . S
C2470 C2476 1.368 . S
C2471 C2455 1.349 . S
C2471 H2463 0.950 . S
C2471 C2469 1.327 . S
C2472 C2460 1.349 . S
C2472 H2466 0.950 . S
C2472 C2473 1.327 . S
C2473 H2467 0.950 . S
C2473 C2472 1.327 . S
C2473 C2477 1.429 . S
C2474 C2457 1.574 . S
C2474 H2468 0.949 . S
C2474 C2478 1.368 . S
C2475 C2456 1.429 . S
C2475 C2469 1.429 . S
C2475 C2476 1.523 . S
C2476 C2457 1.368 . S
C2476 C2470 1.368 . S
C2476 C2475 1.523 . S
C2477 C2461 1.429 . S
C2477 C2473 1.429 . S
C2477 C2478 1.523 . S
C2478 C2462 1.368 . S
C2478 C2474 1.368 . S
C2478 C2477 1.523 . S
H2479 C2454 0.950 . S
H2480 C2456 0.950 . S
H2481 C2457 0.949 . S
H2482 C2459 0.950 . S
H2483 C2461 0.950 . S
C2484 C2485 1.349 . S
C2484 C2486 1.327 . S
C2484 H2509 0.950 . S
C2485 C2484 1.349 . S
C2485 C2501 1.349 . S
C2486 C2484 1.327 . S
C2486 C2505 1.429 . S
C2486 H2510 0.950 . S
C2487 C2504 1.574 . S
C2487 C2506 1.368 . S
C2487 H2511 0.949 . S
H2488 C2492 0.949 . S
C2489 C2490 1.349 . S
C2489 C2491 1.327 . S
C2489 H2512 0.950 . S
C2490 C2489 1.349 . S
C2490 C2502 1.349 . S
C2491 C2489 1.327 . S
C2491 C2507 1.429 . S
C2491 H2513 0.950 . S
C2492 H2488 0.949 . S
C2492 C2500 1.574 . S
C2492 C2508 1.368 . S
H2493 C2501 0.950 . S
H2494 C2499 0.950 . S
H2495 C2500 0.949 . S
H2496 C2502 0.950 . S
H2497 C2503 0.950 . S
H2498 C2504 0.949 . S
C2499 H2494 0.950 . S
C2499 C2501 1.327 . S
C2499 C2505 1.429 . S
C2500 C2492 1.574 . S
C2500 H2495 0.949 . S
C2500 C2506 1.368 . S
C2501 C2485 1.349 . S
C2501 H2493 0.950 . S
C2501 C2499 1.327 . S
C2502 C2490 1.349 . S
C2502 H2496 0.950 . S
C2502 C2503 1.327 . S
C2503 H2497 0.950 . S
C2503 C2502 1.327 . S
C2503 C2507 1.429 . S
C2504 C2487 1.574 . S
C2504 H2498 0.949 . S
C2504 C2508 1.368 . S
C2505 C2486 1.429 . S
C2505 C2499 1.429 . S
C2505 C2506 1.523 . S
C2506 C2487 1.368 . S
C2506 C2500 1.368 . S
C2506 C2505 1.523 . S
C2507 C2491 1.429 . S
C2507 C2503 1.429 . S
C2507 C2508 1.523 . S
C2508 C2492 1.368 . S
C2508 C2504 1.368 . S
C2508 C2507 1.523 . S
H2509 C2484 0.950 . S
H2510 C2486 0.950 . S
H2511 C2487 0.949 . S
H2512 C2489 0.950 . S
H2513 C2491 0.950 . S
C2514 C2515 1.349 . S
C2514 C2516 1.327 . S
C2514 H2539 0.950 . S
C2515 C2514 1.349 . S
C2515 C2531 1.349 . S
C2516 C2514 1.327 . S
C2516 C2535 1.429 . S
C2516 H2540 0.950 . S
C2517 C2534 1.574 . S
C2517 C2536 1.368 . S
C2517 H2541 0.949 . S
H2518 C2522 0.949 . S
C2519 C2520 1.349 . S
C2519 C2521 1.327 . S
C2519 H2542 0.950 . S
C2520 C2519 1.349 . S
C2520 C2532 1.349 . S
C2521 C2519 1.327 . S
C2521 C2537 1.429 . S
C2521 H2543 0.950 . S
C2522 H2518 0.949 . S
C2522 C2530 1.574 . S
C2522 C2538 1.368 . S
H2523 C2531 0.950 . S
H2524 C2529 0.950 . S
H2525 C2530 0.949 . S
H2526 C2532 0.950 . S
H2527 C2533 0.950 . S
H2528 C2534 0.949 . S
C2529 H2524 0.950 . S
C2529 C2531 1.327 . S
C2529 C2535 1.429 . S
C2530 C2522 1.574 . S
C2530 H2525 0.949 . S
C2530 C2536 1.368 . S
C2531 C2515 1.349 . S
C2531 H2523 0.950 . S
C2531 C2529 1.327 . S
C2532 C2520 1.349 . S
C2532 H2526 0.950 . S
C2532 C2533 1.327 . S
C2533 H2527 0.950 . S
C2533 C2532 1.327 . S
C2533 C2537 1.429 . S
C2534 C2517 1.574 . S
C2534 H2528 0.949 . S
C2534 C2538 1.368 . S
C2535 C2516 1.429 . S
C2535 C2529 1.429 . S
C2535 C2536 1.523 . S
C2536 C2517 1.368 . S
C2536 C2530 1.368 . S
C2536 C2535 1.523 . S
C2537 C2521 1.429 . S
C2537 C2533 1.429 . S
C2537 C2538 1.523 . S
C2538 C2522 1.368 . S
C2538 C2534 1.368 . S
C2538 C2537 1.523 . S
H2539 C2514 0.950 . S
H2540 C2516 0.950 . S
H2541 C2517 0.949 . S
H2542 C2519 0.950 . S
H2543 C2521 0.950 . S
C2544 C2545 1.349 . S
C2544 C2546 1.327 . S
C2544 H2569 0.950 . S
C2545 C2544 1.349 . S
C2545 C2561 1.349 . S
C2546 C2544 1.327 . S
C2546 C2565 1.429 . S
C2546 H2570 0.950 . S
C2547 C2564 1.574 . S
C2547 C2566 1.368 . S
C2547 H2571 0.949 . S
H2548 C2552 0.949 . S
C2549 C2550 1.349 . S
C2549 C2551 1.327 . S
C2549 H2572 0.950 . S
C2550 C2549 1.349 . S
C2550 C2562 1.349 . S
C2551 C2549 1.327 . S
C2551 C2567 1.429 . S
C2551 H2573 0.950 . S
C2552 H2548 0.949 . S
C2552 C2560 1.574 . S
C2552 C2568 1.368 . S
H2553 C2561 0.950 . S
H2554 C2559 0.950 . S
H2555 C2560 0.949 . S
H2556 C2562 0.950 . S
H2557 C2563 0.950 . S
H2558 C2564 0.949 . S
C2559 H2554 0.950 . S
C2559 C2561 1.327 . S
C2559 C2565 1.429 . S
C2560 C2552 1.574 . S
C2560 H2555 0.949 . S
C2560 C2566 1.368 . S
C2561 C2545 1.349 . S
C2561 H2553 0.950 . S
C2561 C2559 1.327 . S
C2562 C2550 1.349 . S
C2562 H2556 0.950 . S
C2562 C2563 1.327 . S
C2563 H2557 0.950 . S
C2563 C2562 1.327 . S
C2563 C2567 1.429 . S
C2564 C2547 1.574 . S
C2564 H2558 0.949 . S
C2564 C2568 1.368 . S
C2565 C2546 1.429 . S
C2565 C2559 1.429 . S
C2565 C2566 1.523 . S
C2566 C2547 1.368 . S
C2566 C2560 1.368 . S
C2566 C2565 1.523 . S
C2567 C2551 1.429 . S
C2567 C2563 1.429 . S
C2567 C2568 1.523 . S
C2568 C2552 1.368 . S
C2568 C2564 1.368 . S
C2568 C2567 1.523 . S
H2569 C2544 0.950 . S
H2570 C2546 0.950 . S
H2571 C2547 0.949 . S
H2572 C2549 0.950 . S
H2573 C2551 0.950 . S
C2574 C2575 1.349 . S
C2574 C2576 1.327 . S
C2574 H2599 0.950 . S
C2575 C2574 1.349 . S
C2575 C2591 1.349 . S
C2576 C2574 1.327 . S
C2576 C2595 1.429 . S
C2576 H2600 0.950 . S
C2577 C2594 1.574 . S
C2577 C2596 1.368 . S
C2577 H2601 0.949 . S
H2578 C2582 0.949 . S
C2579 C2580 1.349 . S
C2579 C2581 1.327 . S
C2579 H2602 0.950 . S
C2580 C2579 1.349 . S
C2580 C2592 1.349 . S
C2581 C2579 1.327 . S
C2581 C2597 1.429 . S
C2581 H2603 0.950 . S
C2582 H2578 0.949 . S
C2582 C2590 1.574 . S
C2582 C2598 1.368 . S
H2583 C2591 0.950 . S
H2584 C2589 0.950 . S
H2585 C2590 0.949 . S
H2586 C2592 0.950 . S
H2587 C2593 0.950 . S
H2588 C2594 0.949 . S
C2589 H2584 0.950 . S
C2589 C2591 1.327 . S
C2589 C2595 1.429 . S
C2590 C2582 1.574 . S
C2590 H2585 0.949 . S
C2590 C2596 1.368 . S
C2591 C2575 1.349 . S
C2591 H2583 0.950 . S
C2591 C2589 1.327 . S
C2592 C2580 1.349 . S
C2592 H2586 0.950 . S
C2592 C2593 1.327 . S
C2593 H2587 0.950 . S
C2593 C2592 1.327 . S
C2593 C2597 1.429 . S
C2594 C2577 1.574 . S
C2594 H2588 0.949 . S
C2594 C2598 1.368 . S
C2595 C2576 1.429 . S
C2595 C2589 1.429 . S
C2595 C2596 1.523 . S
C2596 C2577 1.368 . S
C2596 C2590 1.368 . S
C2596 C2595 1.523 . S
C2597 C2581 1.429 . S
C2597 C2593 1.429 . S
C2597 C2598 1.523 . S
C2598 C2582 1.368 . S
C2598 C2594 1.368 . S
C2598 C2597 1.523 . S
H2599 C2574 0.950 . S
H2600 C2576 0.950 . S
H2601 C2577 0.949 . S
H2602 C2579 0.950 . S
H2603 C2581 0.950 . S
C2604 C2605 1.349 . S
C2604 C2606 1.327 . S
C2604 H2629 0.950 . S
C2605 C2604 1.349 . S
C2605 C2621 1.349 . S
C2606 C2604 1.327 . S
C2606 C2625 1.429 . S
C2606 H2630 0.950 . S
C2607 C2624 1.574 . S
C2607 C2626 1.368 . S
C2607 H2631 0.949 . S
H2608 C2612 0.949 . S
C2609 C2610 1.349 . S
C2609 C2611 1.327 . S
C2609 H2632 0.950 . S
C2610 C2609 1.349 . S
C2610 C2622 1.349 . S
C2611 C2609 1.327 . S
C2611 C2627 1.429 . S
C2611 H2633 0.950 . S
C2612 H2608 0.949 . S
C2612 C2620 1.574 . S
C2612 C2628 1.368 . S
H2613 C2621 0.950 . S
H2614 C2619 0.950 . S
H2615 C2620 0.949 . S
H2616 C2622 0.950 . S
H2617 C2623 0.950 . S
H2618 C2624 0.949 . S
C2619 H2614 0.950 . S
C2619 C2621 1.327 . S
C2619 C2625 1.429 . S
C2620 C2612 1.574 . S
C2620 H2615 0.949 . S
C2620 C2626 1.368 . S
C2621 C2605 1.349 . S
C2621 H2613 0.950 . S
C2621 C2619 1.327 . S
C2622 C2610 1.349 . S
C2622 H2616 0.950 . S
C2622 C2623 1.327 . S
C2623 H2617 0.950 . S
C2623 C2622 1.327 . S
C2623 C2627 1.429 . S
C2624 C2607 1.574 . S
C2624 H2618 0.949 . S
C2624 C2628 1.368 . S
C2625 C2606 1.429 . S
C2625 C2619 1.429 . S
C2625 C2626 1.523 . S
C2626 C2607 1.368 . S
C2626 C2620 1.368 . S
C2626 C2625 1.523 . S
C2627 C2611 1.429 . S
C2627 C2623 1.429 . S
C2627 C2628 1.523 . S
C2628 C2612 1.368 . S
C2628 C2624 1.368 . S
C2628 C2627 1.523 . S
H2629 C2604 0.950 . S
H2630 C2606 0.950 . S
H2631 C2607 0.949 . S
H2632 C2609 0.950 . S
H2633 C2611 0.950 . S
C2634 C2635 1.349 . S
C2634 C2636 1.327 . S
C2634 H2659 0.950 . S
C2635 C2634 1.349 . S
C2635 C2651 1.349 . S
C2636 C2634 1.327 . S
C2636 C2655 1.429 . S
C2636 H2660 0.950 . S
C2637 C2654 1.574 . S
C2637 C2656 1.368 . S
C2637 H2661 0.949 . S
H2638 C2642 0.949 . S
C2639 C2640 1.349 . S
C2639 C2641 1.327 . S
C2639 H2662 0.950 . S
C2640 C2639 1.349 . S
C2640 C2652 1.349 . S
C2641 C2639 1.327 . S
C2641 C2657 1.429 . S
C2641 H2663 0.950 . S
C2642 H2638 0.949 . S
C2642 C2650 1.574 . S
C2642 C2658 1.368 . S
H2643 C2651 0.950 . S
H2644 C2649 0.950 . S
H2645 C2650 0.949 . S
H2646 C2652 0.950 . S
H2647 C2653 0.950 . S
H2648 C2654 0.949 . S
C2649 H2644 0.950 . S
C2649 C2651 1.327 . S
C2649 C2655 1.429 . S
C2650 C2642 1.574 . S
C2650 H2645 0.949 . S
C2650 C2656 1.368 . S
C2651 C2635 1.349 . S
C2651 H2643 0.950 . S
C2651 C2649 1.327 . S
C2652 C2640 1.349 . S
C2652 H2646 0.950 . S
C2652 C2653 1.327 . S
C2653 H2647 0.950 . S
C2653 C2652 1.327 . S
C2653 C2657 1.429 . S
C2654 C2637 1.574 . S
C2654 H2648 0.949 . S
C2654 C2658 1.368 . S
C2655 C2636 1.429 . S
C2655 C2649 1.429 . S
C2655 C2656 1.523 . S
C2656 C2637 1.368 . S
C2656 C2650 1.368 . S
C2656 C2655 1.523 . S
C2657 C2641 1.429 . S
C2657 C2653 1.429 . S
C2657 C2658 1.523 . S
C2658 C2642 1.368 . S
C2658 C2654 1.368 . S
C2658 C2657 1.523 . S
H2659 C2634 0.950 . S
H2660 C2636 0.950 . S
H2661 C2637 0.949 . S
H2662 C2639 0.950 . S
H2663 C2641 0.950 . S
C2664 C2665 1.349 . S
C2664 C2666 1.327 . S
C2664 H2689 0.950 . S
C2665 C2664 1.349 . S
C2665 C2681 1.349 . S
C2666 C2664 1.327 . S
C2666 C2685 1.429 . S
C2666 H2690 0.950 . S
C2667 C2684 1.574 . S
C2667 C2686 1.368 . S
C2667 H2691 0.949 . S
H2668 C2672 0.949 . S
C2669 C2670 1.349 . S
C2669 C2671 1.327 . S
C2669 H2692 0.950 . S
C2670 C2669 1.349 . S
C2670 C2682 1.349 . S
C2671 C2669 1.327 . S
C2671 C2687 1.429 . S
C2671 H2693 0.950 . S
C2672 H2668 0.949 . S
C2672 C2680 1.574 . S
C2672 C2688 1.368 . S
H2673 C2681 0.950 . S
H2674 C2679 0.950 . S
H2675 C2680 0.949 . S
H2676 C2682 0.950 . S
H2677 C2683 0.950 . S
H2678 C2684 0.949 . S
C2679 H2674 0.950 . S
C2679 C2681 1.327 . S
C2679 C2685 1.429 . S
C2680 C2672 1.574 . S
C2680 H2675 0.949 . S
C2680 C2686 1.368 . S
C2681 C2665 1.349 . S
C2681 H2673 0.950 . S
C2681 C2679 1.327 . S
C2682 C2670 1.349 . S
C2682 H2676 0.950 . S
C2682 C2683 1.327 . S
C2683 H2677 0.950 . S
C2683 C2682 1.327 . S
C2683 C2687 1.429 . S
C2684 C2667 1.574 . S
C2684 H2678 0.949 . S
C2684 C2688 1.368 . S
C2685 C2666 1.429 . S
C2685 C2679 1.429 . S
C2685 C2686 1.523 . S
C2686 C2667 1.368 . S
C2686 C2680 1.368 . S
C2686 C2685 1.523 . S
C2687 C2671 1.429 . S
C2687 C2683 1.429 . S
C2687 C2688 1.523 . S
C2688 C2672 1.368 . S
C2688 C2684 1.368 . S
C2688 C2687 1.523 . S
H2689 C2664 0.950 . S
H2690 C2666 0.950 . S
H2691 C2667 0.949 . S
H2692 C2669 0.950 . S
H2693 C2671 0.950 . S
C2694 C2695 1.349 . S
C2694 C2696 1.327 . S
C2694 H2719 0.950 . S
C2695 C2694 1.349 . S
C2695 C2711 1.349 . S
C2696 C2694 1.327 . S
C2696 C2715 1.429 . S
C2696 H2720 0.950 . S
C2697 C2714 1.574 . S
C2697 C2716 1.368 . S
C2697 H2721 0.949 . S
H2698 C2702 0.949 . S
C2699 C2700 1.349 . S
C2699 C2701 1.327 . S
C2699 H2722 0.950 . S
C2700 C2699 1.349 . S
C2700 C2712 1.349 . S
C2701 C2699 1.327 . S
C2701 C2717 1.429 . S
C2701 H2723 0.950 . S
C2702 H2698 0.949 . S
C2702 C2710 1.574 . S
C2702 C2718 1.368 . S
H2703 C2711 0.950 . S
H2704 C2709 0.950 . S
H2705 C2710 0.949 . S
H2706 C2712 0.950 . S
H2707 C2713 0.950 . S
H2708 C2714 0.949 . S
C2709 H2704 0.950 . S
C2709 C2711 1.327 . S
C2709 C2715 1.429 . S
C2710 C2702 1.574 . S
C2710 H2705 0.949 . S
C2710 C2716 1.368 . S
C2711 C2695 1.349 . S
C2711 H2703 0.950 . S
C2711 C2709 1.327 . S
C2712 C2700 1.349 . S
C2712 H2706 0.950 . S
C2712 C2713 1.327 . S
C2713 H2707 0.950 . S
C2713 C2712 1.327 . S
C2713 C2717 1.429 . S
C2714 C2697 1.574 . S
C2714 H2708 0.949 . S
C2714 C2718 1.368 . S
C2715 C2696 1.429 . S
C2715 C2709 1.429 . S
C2715 C2716 1.523 . S
C2716 C2697 1.368 . S
C2716 C2710 1.368 . S
C2716 C2715 1.523 . S
C2717 C2701 1.429 . S
C2717 C2713 1.429 . S
C2717 C2718 1.523 . S
C2718 C2702 1.368 . S
C2718 C2714 1.368 . S
C2718 C2717 1.523 . S
H2719 C2694 0.950 . S
H2720 C2696 0.950 . S
H2721 C2697 0.949 . S
H2722 C2699 0.950 . S
H2723 C2701 0.950 . S
C2724 C2725 1.349 . S
C2724 C2726 1.327 . S
C2724 H2749 0.950 . S
C2725 C2724 1.349 . S
C2725 C2741 1.349 . S
C2726 C2724 1.327 . S
C2726 C2745 1.429 . S
C2726 H2750 0.950 . S
C2727 C2744 1.574 . S
C2727 C2746 1.368 . S
C2727 H2751 0.949 . S
H2728 C2732 0.949 . S
C2729 C2730 1.349 . S
C2729 C2731 1.327 . S
C2729 H2752 0.950 . S
C2730 C2729 1.349 . S
C2730 C2742 1.349 . S
C2731 C2729 1.327 . S
C2731 C2747 1.429 . S
C2731 H2753 0.950 . S
C2732 H2728 0.949 . S
C2732 C2740 1.574 . S
C2732 C2748 1.368 . S
H2733 C2741 0.950 . S
H2734 C2739 0.950 . S
H2735 C2740 0.949 . S
H2736 C2742 0.950 . S
H2737 C2743 0.950 . S
H2738 C2744 0.949 . S
C2739 H2734 0.950 . S
C2739 C2741 1.327 . S
C2739 C2745 1.429 . S
C2740 C2732 1.574 . S
C2740 H2735 0.949 . S
C2740 C2746 1.368 . S
C2741 C2725 1.349 . S
C2741 H2733 0.950 . S
C2741 C2739 1.327 . S
C2742 C2730 1.349 . S
C2742 H2736 0.950 . S
C2742 C2743 1.327 . S
C2743 H2737 0.950 . S
C2743 C2742 1.327 . S
C2743 C2747 1.429 . S
C2744 C2727 1.574 . S
C2744 H2738 0.949 . S
C2744 C2748 1.368 . S
C2745 C2726 1.429 . S
C2745 C2739 1.429 . S
C2745 C2746 1.523 . S
C2746 C2727 1.368 . S
C2746 C2740 1.368 . S
C2746 C2745 1.523 . S
C2747 C2731 1.429 . S
C2747 C2743 1.429 . S
C2747 C2748 1.523 . S
C2748 C2732 1.368 . S
C2748 C2744 1.368 . S
C2748 C2747 1.523 . S
H2749 C2724 0.950 . S
H2750 C2726 0.950 . S
H2751 C2727 0.949 . S
H2752 C2729 0.950 . S
H2753 C2731 0.950 . S
C2754 C2755 1.349 . S
C2754 C2756 1.327 . S
C2754 H2779 0.950 . S
C2755 C2754 1.349 . S
C2755 C2771 1.349 . S
C2756 C2754 1.327 . S
C2756 C2775 1.429 . S
C2756 H2780 0.950 . S
C2757 C2774 1.574 . S
C2757 C2776 1.368 . S
C2757 H2781 0.949 . S
H2758 C2762 0.949 . S
C2759 C2760 1.349 . S
C2759 C2761 1.327 . S
C2759 H2782 0.950 . S
C2760 C2759 1.349 . S
C2760 C2772 1.349 . S
C2761 C2759 1.327 . S
C2761 C2777 1.429 . S
C2761 H2783 0.950 . S
C2762 H2758 0.949 . S
C2762 C2770 1.574 . S
C2762 C2778 1.368 . S
H2763 C2771 0.950 . S
H2764 C2769 0.950 . S
H2765 C2770 0.949 . S
H2766 C2772 0.950 . S
H2767 C2773 0.950 . S
H2768 C2774 0.949 . S
C2769 H2764 0.950 . S
C2769 C2771 1.327 . S
C2769 C2775 1.429 . S
C2770 C2762 1.574 . S
C2770 H2765 0.949 . S
C2770 C2776 1.368 . S
C2771 C2755 1.349 . S
C2771 H2763 0.950 . S
C2771 C2769 1.327 . S
C2772 C2760 1.349 . S
C2772 H2766 0.950 . S
C2772 C2773 1.327 . S
C2773 H2767 0.950 . S
C2773 C2772 1.327 . S
C2773 C2777 1.429 . S
C2774 C2757 1.574 . S
C2774 H2768 0.949 . S
C2774 C2778 1.368 . S
C2775 C2756 1.429 . S
C2775 C2769 1.429 . S
C2775 C2776 1.523 . S
C2776 C2757 1.368 . S
C2776 C2770 1.368 . S
C2776 C2775 1.523 . S
C2777 C2761 1.429 . S
C2777 C2773 1.429 . S
C2777 C2778 1.523 . S
C2778 C2762 1.368 . S
C2778 C2774 1.368 . S
C2778 C2777 1.523 . S
H2779 C2754 0.950 . S
H2780 C2756 0.950 . S
H2781 C2757 0.949 . S
H2782 C2759 0.950 . S
H2783 C2761 0.950 . S
C2784 C2785 1.349 . S
C2784 C2786 1.327 . S
C2784 H2809 0.950 . S
C2785 C2784 1.349 . S
C2785 C2801 1.349 . S
C2786 C2784 1.327 . S
C2786 C2805 1.429 . S
C2786 H2810 0.950 . S
C2787 C2804 1.574 . S
C2787 C2806 1.368 . S
C2787 H2811 0.949 . S
H2788 C2792 0.949 . S
C2789 C2790 1.349 . S
C2789 C2791 1.327 . S
C2789 H2812 0.950 . S
C2790 C2789 1.349 . S
C2790 C2802 1.349 . S
C2791 C2789 1.327 . S
C2791 C2807 1.429 . S
C2791 H2813 0.950 . S
C2792 H2788 0.949 . S
C2792 C2800 1.574 . S
C2792 C2808 1.368 . S
H2793 C2801 0.950 . S
H2794 C2799 0.950 . S
H2795 C2800 0.949 . S
H2796 C2802 0.950 . S
H2797 C2803 0.950 . S
H2798 C2804 0.949 . S
C2799 H2794 0.950 . S
C2799 C2801 1.327 . S
C2799 C2805 1.429 . S
C2800 C2792 1.574 . S
C2800 H2795 0.949 . S
C2800 C2806 1.368 . S
C2801 C2785 1.349 . S
C2801 H2793 0.950 . S
C2801 C2799 1.327 . S
C2802 C2790 1.349 . S
C2802 H2796 0.950 . S
C2802 C2803 1.327 . S
C2803 H2797 0.950 . S
C2803 C2802 1.327 . S
C2803 C2807 1.429 . S
C2804 C2787 1.574 . S
C2804 H2798 0.949 . S
C2804 C2808 1.368 . S
C2805 C2786 1.429 . S
C2805 C2799 1.429 . S
C2805 C2806 1.523 . S
C2806 C2787 1.368 . S
C2806 C2800 1.368 . S
C2806 C2805 1.523 . S
C2807 C2791 1.429 . S
C2807 C2803 1.429 . S
C2807 C2808 1.523 . S
C2808 C2792 1.368 . S
C2808 C2804 1.368 . S
C2808 C2807 1.523 . S
H2809 C2784 0.950 . S
H2810 C2786 0.950 . S
H2811 C2787 0.949 . S
H2812 C2789 0.950 . S
H2813 C2791 0.950 . S
C2814 C2815 1.349 . S
C2814 C2816 1.327 . S
C2814 H2839 0.950 . S
C2815 C2814 1.349 . S
C2815 C2831 1.349 . S
C2816 C2814 1.327 . S
C2816 C2835 1.429 . S
C2816 H2840 0.950 . S
C2817 C2834 1.574 . S
C2817 C2836 1.368 . S
C2817 H2841 0.949 . S
H2818 C2822 0.949 . S
C2819 C2820 1.349 . S
C2819 C2821 1.327 . S
C2819 H2842 0.950 . S
C2820 C2819 1.349 . S
C2820 C2832 1.349 . S
C2821 C2819 1.327 . S
C2821 C2837 1.429 . S
C2821 H2843 0.950 . S
C2822 H2818 0.949 . S
C2822 C2830 1.574 . S
C2822 C2838 1.368 . S
H2823 C2831 0.950 . S
H2824 C2829 0.950 . S
H2825 C2830 0.949 . S
H2826 C2832 0.950 . S
H2827 C2833 0.950 . S
H2828 C2834 0.949 . S
C2829 H2824 0.950 . S
C2829 C2831 1.327 . S
C2829 C2835 1.429 . S
C2830 C2822 1.574 . S
C2830 H2825 0.949 . S
C2830 C2836 1.368 . S
C2831 C2815 1.349 . S
C2831 H2823 0.950 . S
C2831 C2829 1.327 . S
C2832 C2820 1.349 . S
C2832 H2826 0.950 . S
C2832 C2833 1.327 . S
C2833 H2827 0.950 . S
C2833 C2832 1.327 . S
C2833 C2837 1.429 . S
C2834 C2817 1.574 . S
C2834 H2828 0.949 . S
C2834 C2838 1.368 . S
C2835 C2816 1.429 . S
C2835 C2829 1.429 . S
C2835 C2836 1.523 . S
C2836 C2817 1.368 . S
C2836 C2830 1.368 . S
C2836 C2835 1.523 . S
C2837 C2821 1.429 . S
C2837 C2833 1.429 . S
C2837 C2838 1.523 . S
C2838 C2822 1.368 . S
C2838 C2834 1.368 . S
C2838 C2837 1.523 . S
H2839 C2814 0.950 . S
H2840 C2816 0.950 . S
H2841 C2817 0.949 . S
H2842 C2819 0.950 . S
H2843 C2821 0.950 . S
C2844 C2845 1.349 . S
C2844 C2846 1.327 . S
C2844 H2869 0.950 . S
C2845 C2844 1.349 . S
C2845 C2861 1.349 . S
C2846 C2844 1.327 . S
C2846 C2865 1.429 . S
C2846 H2870 0.950 . S
C2847 C2864 1.574 . S
C2847 C2866 1.368 . S
C2847 H2871 0.949 . S
H2848 C2852 0.949 . S
C2849 C2850 1.349 . S
C2849 C2851 1.327 . S
C2849 H2872 0.950 . S
C2850 C2849 1.349 . S
C2850 C2862 1.349 . S
C2851 C2849 1.327 . S
C2851 C2867 1.429 . S
C2851 H2873 0.950 . S
C2852 H2848 0.949 . S
C2852 C2860 1.574 . S
C2852 C2868 1.368 . S
H2853 C2861 0.950 . S
H2854 C2859 0.950 . S
H2855 C2860 0.949 . S
H2856 C2862 0.950 . S
H2857 C2863 0.950 . S
H2858 C2864 0.949 . S
C2859 H2854 0.950 . S
C2859 C2861 1.327 . S
C2859 C2865 1.429 . S
C2860 C2852 1.574 . S
C2860 H2855 0.949 . S
C2860 C2866 1.368 . S
C2861 C2845 1.349 . S
C2861 H2853 0.950 . S
C2861 C2859 1.327 . S
C2862 C2850 1.349 . S
C2862 H2856 0.950 . S
C2862 C2863 1.327 . S
C2863 H2857 0.950 . S
C2863 C2862 1.327 . S
C2863 C2867 1.429 . S
C2864 C2847 1.574 . S
C2864 H2858 0.949 . S
C2864 C2868 1.368 . S
C2865 C2846 1.429 . S
C2865 C2859 1.429 . S
C2865 C2866 1.523 . S
C2866 C2847 1.368 . S
C2866 C2860 1.368 . S
C2866 C2865 1.523 . S
C2867 C2851 1.429 . S
C2867 C2863 1.429 . S
C2867 C2868 1.523 . S
C2868 C2852 1.368 . S
C2868 C2864 1.368 . S
C2868 C2867 1.523 . S
H2869 C2844 0.950 . S
H2870 C2846 0.950 . S
H2871 C2847 0.949 . S
H2872 C2849 0.950 . S
H2873 C2851 0.950 . S
C2874 C2875 1.349 . S
C2874 C2876 1.327 . S
C2874 H2899 0.950 . S
C2875 C2874 1.349 . S
C2875 C2891 1.349 . S
C2876 C2874 1.327 . S
C2876 C2895 1.429 . S
C2876 H2900 0.950 . S
C2877 C2894 1.574 . S
C2877 C2896 1.368 . S
C2877 H2901 0.949 . S
H2878 C2882 0.949 . S
C2879 C2880 1.349 . S
C2879 C2881 1.327 . S
C2879 H2902 0.950 . S
C2880 C2879 1.349 . S
C2880 C2892 1.349 . S
C2881 C2879 1.327 . S
C2881 C2897 1.429 . S
C2881 H2903 0.950 . S
C2882 H2878 0.949 . S
C2882 C2890 1.574 . S
C2882 C2898 1.368 . S
H2883 C2891 0.950 . S
H2884 C2889 0.950 . S
H2885 C2890 0.949 . S
H2886 C2892 0.950 . S
H2887 C2893 0.950 . S
H2888 C2894 0.949 . S
C2889 H2884 0.950 . S
C2889 C2891 1.327 . S
C2889 C2895 1.429 . S
C2890 C2882 1.574 . S
C2890 H2885 0.949 . S
C2890 C2896 1.368 . S
C2891 C2875 1.349 . S
C2891 H2883 0.950 . S
C2891 C2889 1.327 . S
C2892 C2880 1.349 . S
C2892 H2886 0.950 . S
C2892 C2893 1.327 . S
C2893 H2887 0.950 . S
C2893 C2892 1.327 . S
C2893 C2897 1.429 . S
C2894 C2877 1.574 . S
C2894 H2888 0.949 . S
C2894 C2898 1.368 . S
C2895 C2876 1.429 . S
C2895 C2889 1.429 . S
C2895 C2896 1.523 . S
C2896 C2877 1.368 . S
C2896 C2890 1.368 . S
C2896 C2895 1.523 . S
C2897 C2881 1.429 . S
C2897 C2893 1.429 . S
C2897 C2898 1.523 . S
C2898 C2882 1.368 . S
C2898 C2894 1.368 . S
C2898 C2897 1.523 . S
H2899 C2874 0.950 . S
H2900 C2876 0.950 . S
H2901 C2877 0.949 . S
H2902 C2879 0.950 . S
H2903 C2881 0.950 . S
C2904 C2905 1.349 . S
C2904 C2906 1.327 . S
C2904 H2929 0.950 . S
C2905 C2904 1.349 . S
C2905 C2921 1.349 . S
C2906 C2904 1.327 . S
C2906 C2925 1.429 . S
C2906 H2930 0.950 . S
C2907 C2924 1.574 . S
C2907 C2926 1.368 . S
C2907 H2931 0.949 . S
H2908 C2912 0.949 . S
C2909 C2910 1.349 . S
C2909 C2911 1.327 . S
C2909 H2932 0.950 . S
C2910 C2909 1.349 . S
C2910 C2922 1.349 . S
C2911 C2909 1.327 . S
C2911 C2927 1.429 . S
C2911 H2933 0.950 . S
C2912 H2908 0.949 . S
C2912 C2920 1.574 . S
C2912 C2928 1.368 . S
H2913 C2921 0.950 . S
H2914 C2919 0.950 . S
H2915 C2920 0.949 . S
H2916 C2922 0.950 . S
H2917 C2923 0.950 . S
H2918 C2924 0.949 . S
C2919 H2914 0.950 . S
C2919 C2921 1.327 . S
C2919 C2925 1.429 . S
C2920 C2912 1.574 . S
C2920 H2915 0.949 . S
C2920 C2926 1.368 . S
C2921 C2905 1.349 . S
C2921 H2913 0.950 . S
C2921 C2919 1.327 . S
C2922 C2910 1.349 . S
C2922 H2916 0.950 . S
C2922 C2923 1.327 . S
C2923 H2917 0.950 . S
C2923 C2922 1.327 . S
C2923 C2927 1.429 . S
C2924 C2907 1.574 . S
C2924 H2918 0.949 . S
C2924 C2928 1.368 . S
C2925 C2906 1.429 . S
C2925 C2919 1.429 . S
C2925 C2926 1.523 . S
C2926 C2907 1.368 . S
C2926 C2920 1.368 . S
C2926 C2925 1.523 . S
C2927 C2911 1.429 . S
C2927 C2923 1.429 . S
C2927 C2928 1.523 . S
C2928 C2912 1.368 . S
C2928 C2924 1.368 . S
C2928 C2927 1.523 . S
H2929 C2904 0.950 . S
H2930 C2906 0.950 . S
H2931 C2907 0.949 . S
H2932 C2909 0.950 . S
H2933 C2911 0.950 . S
C2934 C2935 1.349 . S
C2934 C2936 1.327 . S
C2934 H2959 0.950 . S
C2935 C2934 1.349 . S
C2935 C2951 1.349 . S
C2936 C2934 1.327 . S
C2936 C2955 1.429 . S
C2936 H2960 0.950 . S
C2937 C2954 1.574 . S
C2937 C2956 1.368 . S
C2937 H2961 0.949 . S
H2938 C2942 0.949 . S
C2939 C2940 1.349 . S
C2939 C2941 1.327 . S
C2939 H2962 0.950 . S
C2940 C2939 1.349 . S
C2940 C2952 1.349 . S
C2941 C2939 1.327 . S
C2941 C2957 1.429 . S
C2941 H2963 0.950 . S
C2942 H2938 0.949 . S
C2942 C2950 1.574 . S
C2942 C2958 1.368 . S
H2943 C2951 0.950 . S
H2944 C2949 0.950 . S
H2945 C2950 0.949 . S
H2946 C2952 0.950 . S
H2947 C2953 0.950 . S
H2948 C2954 0.949 . S
C2949 H2944 0.950 . S
C2949 C2951 1.327 . S
C2949 C2955 1.429 . S
C2950 C2942 1.574 . S
C2950 H2945 0.949 . S
C2950 C2956 1.368 . S
C2951 C2935 1.349 . S
C2951 H2943 0.950 . S
C2951 C2949 1.327 . S
C2952 C2940 1.349 . S
C2952 H2946 0.950 . S
C2952 C2953 1.327 . S
C2953 H2947 0.950 . S
C2953 C2952 1.327 . S
C2953 C2957 1.429 . S
C2954 C2937 1.574 . S
C2954 H2948 0.949 . S
C2954 C2958 1.368 . S
C2955 C2936 1.429 . S
C2955 C2949 1.429 . S
C2955 C2956 1.523 . S
C2956 C2937 1.368 . S
C2956 C2950 1.368 . S
C2956 C2955 1.523 . S
C2957 C2941 1.429 . S
C2957 C2953 1.429 . S
C2957 C2958 1.523 . S
C2958 C2942 1.368 . S
C2958 C2954 1.368 . S
C2958 C2957 1.523 . S
H2959 C2934 0.950 . S
H2960 C2936 0.950 . S
H2961 C2937 0.949 . S
H2962 C2939 0.950 . S
H2963 C2941 0.950 . S
C2964 C2965 1.349 . S
C2964 C2966 1.327 . S
C2964 H2989 0.950 . S
C2965 C2964 1.349 . S
C2965 C2981 1.349 . S
C2966 C2964 1.327 . S
C2966 C2985 1.429 . S
C2966 H2990 0.950 . S
C2967 C2984 1.574 . S
C2967 C2986 1.368 . S
C2967 H2991 0.949 . S
H2968 C2972 0.949 . S
C2969 C2970 1.349 . S
C2969 C2971 1.327 . S
C2969 H2992 0.950 . S
C2970 C2969 1.349 . S
C2970 C2982 1.349 . S
C2971 C2969 1.327 . S
C2971 C2987 1.429 . S
C2971 H2993 0.950 . S
C2972 H2968 0.949 . S
C2972 C2980 1.574 . S
C2972 C2988 1.368 . S
H2973 C2981 0.950 . S
H2974 C2979 0.950 . S
H2975 C2980 0.949 . S
H2976 C2982 0.950 . S
H2977 C2983 0.950 . S
H2978 C2984 0.949 . S
C2979 H2974 0.950 . S
C2979 C2981 1.327 . S
C2979 C2985 1.429 . S
C2980 C2972 1.574 . S
C2980 H2975 0.949 . S
C2980 C2986 1.368 . S
C2981 C2965 1.349 . S
C2981 H2973 0.950 . S
C2981 C2979 1.327 . S
C2982 C2970 1.349 . S
C2982 H2976 0.950 . S
C2982 C2983 1.327 . S
C2983 H2977 0.950 . S
C2983 C2982 1.327 . S
C2983 C2987 1.429 . S
C2984 C2967 1.574 . S
C2984 H2978 0.949 . S
C2984 C2988 1.368 . S
C2985 C2966 1.429 . S
C2985 C2979 1.429 . S
C2985 C2986 1.523 . S
C2986 C2967 1.368 . S
C2986 C2980 1.368 . S
C2986 C2985 1.523 . S
C2987 C2971 1.429 . S
C2987 C2983 1.429 . S
C2987 C2988 1.523 . S
C2988 C2972 1.368 . S
C2988 C2984 1.368 . S
C2988 C2987 1.523 . S
H2989 C2964 0.950 . S
H2990 C2966 0.950 . S
H2991 C2967 0.949 . S
H2992 C2969 0.950 . S
H2993 C2971 0.950 . S
C2994 C2995 1.349 . S
C2994 C2996 1.327 . S
C2994 H3019 0.950 . S
C2995 C2994 1.349 . S
C2995 C3011 1.349 . S
C2996 C2994 1.327 . S
C2996 C3015 1.429 . S
C2996 H3020 0.950 . S
C2997 C3014 1.574 . S
C2997 C3016 1.368 . S
C2997 H3021 0.949 . S
H2998 C3002 0.949 . S
C2999 C3000 1.349 . S
C2999 C3001 1.327 . S
C2999 H3022 0.950 . S
C3000 C2999 1.349 . S
C3000 C3012 1.349 . S
C3001 C2999 1.327 . S
C3001 C3017 1.429 . S
C3001 H3023 0.950 . S
C3002 H2998 0.949 . S
C3002 C3010 1.574 . S
C3002 C3018 1.368 . S
H3003 C3011 0.950 . S
H3004 C3009 0.950 . S
H3005 C3010 0.949 . S
H3006 C3012 0.950 . S
H3007 C3013 0.950 . S
H3008 C3014 0.949 . S
C3009 H3004 0.950 . S
C3009 C3011 1.327 . S
C3009 C3015 1.429 . S
C3010 C3002 1.574 . S
C3010 H3005 0.949 . S
C3010 C3016 1.368 . S
C3011 C2995 1.349 . S
C3011 H3003 0.950 . S
C3011 C3009 1.327 . S
C3012 C3000 1.349 . S
C3012 H3006 0.950 . S
C3012 C3013 1.327 . S
C3013 H3007 0.950 . S
C3013 C3012 1.327 . S
C3013 C3017 1.429 . S
C3014 C2997 1.574 . S
C3014 H3008 0.949 . S
C3014 C3018 1.368 . S
C3015 C2996 1.429 . S
C3015 C3009 1.429 . S
C3015 C3016 1.523 . S
C3016 C2997 1.368 . S
C3016 C3010 1.368 . S
C3016 C3015 1.523 . S
C3017 C3001 1.429 . S
C3017 C3013 1.429 . S
C3017 C3018 1.523 . S
C3018 C3002 1.368 . S
C3018 C3014 1.368 . S
C3018 C3017 1.523 . S
H3019 C2994 0.950 . S
H3020 C2996 0.950 . S
H3021 C2997 0.949 . S
H3022 C2999 0.950 . S
H3023 C3001 0.950 . S
C3024 C3025 1.349 . S
C3024 C3026 1.327 . S
C3024 H3049 0.950 . S
C3025 C3024 1.349 . S
C3025 C3041 1.349 . S
C3026 C3024 1.327 . S
C3026 C3045 1.429 . S
C3026 H3050 0.950 . S
C3027 C3044 1.574 . S
C3027 C3046 1.368 . S
C3027 H3051 0.949 . S
H3028 C3032 0.949 . S
C3029 C3030 1.349 . S
C3029 C3031 1.327 . S
C3029 H3052 0.950 . S
C3030 C3029 1.349 . S
C3030 C3042 1.349 . S
C3031 C3029 1.327 . S
C3031 C3047 1.429 . S
C3031 H3053 0.950 . S
C3032 H3028 0.949 . S
C3032 C3040 1.574 . S
C3032 C3048 1.368 . S
H3033 C3041 0.950 . S
H3034 C3039 0.950 . S
H3035 C3040 0.949 . S
H3036 C3042 0.950 . S
H3037 C3043 0.950 . S
H3038 C3044 0.949 . S
C3039 H3034 0.950 . S
C3039 C3041 1.327 . S
C3039 C3045 1.429 . S
C3040 C3032 1.574 . S
C3040 H3035 0.949 . S
C3040 C3046 1.368 . S
C3041 C3025 1.349 . S
C3041 H3033 0.950 . S
C3041 C3039 1.327 . S
C3042 C3030 1.349 . S
C3042 H3036 0.950 . S
C3042 C3043 1.327 . S
C3043 H3037 0.950 . S
C3043 C3042 1.327 . S
C3043 C3047 1.429 . S
C3044 C3027 1.574 . S
C3044 H3038 0.949 . S
C3044 C3048 1.368 . S
C3045 C3026 1.429 . S
C3045 C3039 1.429 . S
C3045 C3046 1.523 . S
C3046 C3027 1.368 . S
C3046 C3040 1.368 . S
C3046 C3045 1.523 . S
C3047 C3031 1.429 . S
C3047 C3043 1.429 . S
C3047 C3048 1.523 . S
C3048 C3032 1.368 . S
C3048 C3044 1.368 . S
C3048 C3047 1.523 . S
H3049 C3024 0.950 . S
H3050 C3026 0.950 . S
H3051 C3027 0.949 . S
H3052 C3029 0.950 . S
H3053 C3031 0.950 . S
C3054 C3055 1.349 . S
C3054 C3056 1.327 . S
C3054 H3079 0.950 . S
C3055 C3054 1.349 . S
C3055 C3071 1.349 . S
C3056 C3054 1.327 . S
C3056 C3075 1.429 . S
C3056 H3080 0.950 . S
C3057 C3074 1.574 . S
C3057 C3076 1.368 . S
C3057 H3081 0.949 . S
H3058 C3062 0.949 . S
C3059 C3060 1.349 . S
C3059 C3061 1.327 . S
C3059 H3082 0.950 . S
C3060 C3059 1.349 . S
C3060 C3072 1.349 . S
C3061 C3059 1.327 . S
C3061 C3077 1.429 . S
C3061 H3083 0.950 . S
C3062 H3058 0.949 . S
C3062 C3070 1.574 . S
C3062 C3078 1.368 . S
H3063 C3071 0.950 . S
H3064 C3069 0.950 . S
H3065 C3070 0.949 . S
H3066 C3072 0.950 . S
H3067 C3073 0.950 . S
H3068 C3074 0.949 . S
C3069 H3064 0.950 . S
C3069 C3071 1.327 . S
C3069 C3075 1.429 . S
C3070 C3062 1.574 . S
C3070 H3065 0.949 . S
C3070 C3076 1.368 . S
C3071 C3055 1.349 . S
C3071 H3063 0.950 . S
C3071 C3069 1.327 . S
C3072 C3060 1.349 . S
C3072 H3066 0.950 . S
C3072 C3073 1.327 . S
C3073 H3067 0.950 . S
C3073 C3072 1.327 . S
C3073 C3077 1.429 . S
C3074 C3057 1.574 . S
C3074 H3068 0.949 . S
C3074 C3078 1.368 . S
C3075 C3056 1.429 . S
C3075 C3069 1.429 . S
C3075 C3076 1.523 . S
C3076 C3057 1.368 . S
C3076 C3070 1.368 . S
C3076 C3075 1.523 . S
C3077 C3061 1.429 . S
C3077 C3073 1.429 . S
C3077 C3078 1.523 . S
C3078 C3062 1.368 . S
C3078 C3074 1.368 . S
C3078 C3077 1.523 . S
H3079 C3054 0.950 . S
H3080 C3056 0.950 . S
H3081 C3057 0.949 . S
H3082 C3059 0.950 . S
H3083 C3061 0.950 . S
C3084 C3085 1.349 . S
C3084 C3086 1.327 . S
C3084 H3109 0.950 . S
C3085 C3084 1.349 . S
C3085 C3101 1.349 . S
C3086 C3084 1.327 . S
C3086 C3105 1.429 . S
C3086 H3110 0.950 . S
C3087 C3104 1.574 . S
C3087 C3106 1.368 . S
C3087 H3111 0.949 . S
H3088 C3092 0.949 . S
C3089 C3090 1.349 . S
C3089 C3091 1.327 . S
C3089 H3112 0.950 . S
C3090 C3089 1.349 . S
C3090 C3102 1.349 . S
C3091 C3089 1.327 . S
C3091 C3107 1.429 . S
C3091 H3113 0.950 . S
C3092 H3088 0.949 . S
C3092 C3100 1.574 . S
C3092 C3108 1.368 . S
H3093 C3101 0.950 . S
H3094 C3099 0.950 . S
H3095 C3100 0.949 . S
H3096 C3102 0.950 . S
H3097 C3103 0.950 . S
H3098 C3104 0.949 . S
C3099 H3094 0.950 . S
C3099 C3101 1.327 . S
C3099 C3105 1.429 . S
C3100 C3092 1.574 . S
C3100 H3095 0.949 . S
C3100 C3106 1.368 . S
C3101 C3085 1.349 . S
C3101 H3093 0.950 . S
C3101 C3099 1.327 . S
C3102 C3090 1.349 . S
C3102 H3096 0.950 . S
C3102 C3103 1.327 . S
C3103 H3097 0.950 . S
C3103 C3102 1.327 . S
C3103 C3107 1.429 . S
C3104 C3087 1.574 . S
C3104 H3098 0.949 . S
C3104 C3108 1.368 . S
C3105 C3086 1.429 . S
C3105 C3099 1.429 . S
C3105 C3106 1.523 . S
C3106 C3087 1.368 . S
C3106 C3100 1.368 . S
C3106 C3105 1.523 . S
C3107 C3091 1.429 . S
C3107 C3103 1.429 . S
C3107 C3108 1.523 . S
C3108 C3092 1.368 . S
C3108 C3104 1.368 . S
C3108 C3107 1.523 . S
H3109 C3084 0.950 . S
H3110 C3086 0.950 . S
H3111 C3087 0.949 . S
H3112 C3089 0.950 . S
H3113 C3091 0.950 . S
C3114 C3115 1.349 . S
C3114 C3116 1.327 . S
C3114 H3139 0.950 . S
C3115 C3114 1.349 . S
C3115 C3131 1.349 . S
C3116 C3114 1.327 . S
C3116 C3135 1.429 . S
C3116 H3140 0.950 . S
C3117 C3134 1.574 . S
C3117 C3136 1.368 . S
C3117 H3141 0.949 . S
H3118 C3122 0.949 . S
C3119 C3120 1.349 . S
C3119 C3121 1.327 . S
C3119 H3142 0.950 . S
C3120 C3119 1.349 . S
C3120 C3132 1.349 . S
C3121 C3119 1.327 . S
C3121 C3137 1.429 . S
C3121 H3143 0.950 . S
C3122 H3118 0.949 . S
C3122 C3130 1.574 . S
C3122 C3138 1.368 . S
H3123 C3131 0.950 . S
H3124 C3129 0.950 . S
H3125 C3130 0.949 . S
H3126 C3132 0.950 . S
H3127 C3133 0.950 . S
H3128 C3134 0.949 . S
C3129 H3124 0.950 . S
C3129 C3131 1.327 . S
C3129 C3135 1.429 . S
C3130 C3122 1.574 . S
C3130 H3125 0.949 . S
C3130 C3136 1.368 . S
C3131 C3115 1.349 . S
C3131 H3123 0.950 . S
C3131 C3129 1.327 . S
C3132 C3120 1.349 . S
C3132 H3126 0.950 . S
C3132 C3133 1.327 . S
C3133 H3127 0.950 . S
C3133 C3132 1.327 . S
C3133 C3137 1.429 . S
C3134 C3117 1.574 . S
C3134 H3128 0.949 . S
C3134 C3138 1.368 . S
C3135 C3116 1.429 . S
C3135 C3129 1.429 . S
C3135 C3136 1.523 . S
C3136 C3117 1.368 . S
C3136 C3130 1.368 . S
C3136 C3135 1.523 . S
C3137 C3121 1.429 . S
C3137 C3133 1.429 . S
C3137 C3138 1.523 . S
C3138 C3122 1.368 . S
C3138 C3134 1.368 . S
C3138 C3137 1.523 . S
H3139 C3114 0.950 . S
H3140 C3116 0.950 . S
H3141 C3117 0.949 . S
H3142 C3119 0.950 . S
H3143 C3121 0.950 . S
C3144 C3145 1.349 . S
C3144 C3146 1.327 . S
C3144 H3169 0.950 . S
C3145 C3144 1.349 . S
C3145 C3161 1.349 . S
C3146 C3144 1.327 . S
C3146 C3165 1.429 . S
C3146 H3170 0.950 . S
C3147 C3164 1.574 . S
C3147 C3166 1.368 . S
C3147 H3171 0.949 . S
H3148 C3152 0.949 . S
C3149 C3150 1.349 . S
C3149 C3151 1.327 . S
C3149 H3172 0.950 . S
C3150 C3149 1.349 . S
C3150 C3162 1.349 . S
C3151 C3149 1.327 . S
C3151 C3167 1.429 . S
C3151 H3173 0.950 . S
C3152 H3148 0.949 . S
C3152 C3160 1.574 . S
C3152 C3168 1.368 . S
H3153 C3161 0.950 . S
H3154 C3159 0.950 . S
H3155 C3160 0.949 . S
H3156 C3162 0.950 . S
H3157 C3163 0.950 . S
H3158 C3164 0.949 . S
C3159 H3154 0.950 . S
C3159 C3161 1.327 . S
C3159 C3165 1.429 . S
C3160 C3152 1.574 . S
C3160 H3155 0.949 . S
C3160 C3166 1.368 . S
C3161 C3145 1.349 . S
C3161 H3153 0.950 . S
C3161 C3159 1.327 . S
C3162 C3150 1.349 . S
C3162 H3156 0.950 . S
C3162 C3163 1.327 . S
C3163 H3157 0.950 . S
C3163 C3162 1.327 . S
C3163 C3167 1.429 . S
C3164 C3147 1.574 . S
C3164 H3158 0.949 . S
C3164 C3168 1.368 . S
C3165 C3146 1.429 . S
C3165 C3159 1.429 . S
C3165 C3166 1.523 . S
C3166 C3147 1.368 . S
C3166 C3160 1.368 . S
C3166 C3165 1.523 . S
C3167 C3151 1.429 . S
C3167 C3163 1.429 . S
C3167 C3168 1.523 . S
C3168 C3152 1.368 . S
C3168 C3164 1.368 . S
C3168 C3167 1.523 . S
H3169 C3144 0.950 . S
H3170 C3146 0.950 . S
H3171 C3147 0.949 . S
H3172 C3149 0.950 . S
H3173 C3151 0.950 . S
C3174 C3175 1.349 . S
C3174 C3176 1.327 . S
C3174 H3199 0.950 . S
C3175 C3174 1.349 . S
C3175 C3191 1.349 . S
C3176 C3174 1.327 . S
C3176 C3195 1.429 . S
C3176 H3200 0.950 . S
C3177 C3194 1.574 . S
C3177 C3196 1.368 . S
C3177 H3201 0.949 . S
H3178 C3182 0.949 . S
C3179 C3180 1.349 . S
C3179 C3181 1.327 . S
C3179 H3202 0.950 . S
C3180 C3179 1.349 . S
C3180 C3192 1.349 . S
C3181 C3179 1.327 . S
C3181 C3197 1.429 . S
C3181 H3203 0.950 . S
C3182 H3178 0.949 . S
C3182 C3190 1.574 . S
C3182 C3198 1.368 . S
H3183 C3191 0.950 . S
H3184 C3189 0.950 . S
H3185 C3190 0.949 . S
H3186 C3192 0.950 . S
H3187 C3193 0.950 . S
H3188 C3194 0.949 . S
C3189 H3184 0.950 . S
C3189 C3191 1.327 . S
C3189 C3195 1.429 . S
C3190 C3182 1.574 . S
C3190 H3185 0.949 . S
C3190 C3196 1.368 . S
C3191 C3175 1.349 . S
C3191 H3183 0.950 . S
C3191 C3189 1.327 . S
C3192 C3180 1.349 . S
C3192 H3186 0.950 . S
C3192 C3193 1.327 . S
C3193 H3187 0.950 . S
C3193 C3192 1.327 . S
C3193 C3197 1.429 . S
C3194 C3177 1.574 . S
C3194 H3188 0.949 . S
C3194 C3198 1.368 . S
C3195 C3176 1.429 . S
C3195 C3189 1.429 . S
C3195 C3196 1.523 . S
C3196 C3177 1.368 . S
C3196 C3190 1.368 . S
C3196 C3195 1.523 . S
C3197 C3181 1.429 . S
C3197 C3193 1.429 . S
C3197 C3198 1.523 . S
C3198 C3182 1.368 . S
C3198 C3194 1.368 . S
C3198 C3197 1.523 . S
H3199 C3174 0.950 . S
H3200 C3176 0.950 . S
H3201 C3177 0.949 . S
H3202 C3179 0.950 . S
H3203 C3181 0.950 . S
C3204 C3205 1.349 . S
C3204 C3206 1.327 . S
C3204 H3229 0.950 . S
C3205 C3204 1.349 . S
C3205 C3221 1.349 . S
C3206 C3204 1.327 . S
C3206 C3225 1.429 . S
C3206 H3230 0.950 . S
C3207 C3224 1.574 1_556 S
C3207 C3226 1.368 . S
C3207 H3231 0.949 . S
H3208 C3212 0.949 . S
C3209 C3210 1.349 . S
C3209 C3211 1.327 . S
C3209 H3232 0.950 . S
C3210 C3209 1.349 . S
C3210 C3222 1.349 . S
C3211 C3209 1.327 . S
C3211 C3227 1.429 . S
C3211 H3233 0.950 . S
C3212 H3208 0.949 . S
C3212 C3220 1.593 . S
C3212 C3228 1.368 . S
H3213 C3221 0.950 . S
H3214 C3219 0.950 . S
H3215 C3220 0.939 1_556 S
H3216 C3222 0.950 . S
H3217 C3223 0.950 . S
H3218 C3224 0.949 . S
C3219 H3214 0.950 . S
C3219 C3221 1.327 . S
C3219 C3225 1.429 . S
C3220 C3212 1.593 . S
C3220 H3215 0.939 1_554 S
C3220 C3226 1.360 1_554 S
C3221 C3205 1.349 . S
C3221 H3213 0.950 . S
C3221 C3219 1.327 . S
C3222 C3210 1.349 . S
C3222 H3216 0.950 . S
C3222 C3223 1.327 . S
C3223 H3217 0.950 . S
C3223 C3222 1.327 . S
C3223 C3227 1.429 . S
C3224 C3207 1.574 1_554 S
C3224 H3218 0.949 . S
C3224 C3228 1.368 . S
C3225 C3206 1.429 . S
C3225 C3219 1.429 . S
C3225 C3226 1.523 . S
C3226 C3207 1.368 . S
C3226 C3220 1.360 1_556 S
C3226 C3225 1.523 . S
C3227 C3211 1.429 . S
C3227 C3223 1.429 . S
C3227 C3228 1.523 . S
C3228 C3212 1.368 . S
C3228 C3224 1.368 . S
C3228 C3227 1.523 . S
H3229 C3204 0.950 . S
H3230 C3206 0.950 . S
H3231 C3207 0.949 . S
H3232 C3209 0.950 . S
H3233 C3211 0.950 . S
C3234 C3235 1.349 . S
C3234 C3236 1.327 . S
C3234 H3259 0.950 . S
C3235 C3234 1.349 . S
C3235 C3251 1.349 . S
C3236 C3234 1.327 . S
C3236 C3255 1.429 . S
C3236 H3260 0.950 . S
C3237 C3254 1.574 1_556 S
C3237 C3256 1.368 . S
C3237 H3261 0.949 . S
H3238 C3242 0.949 . S
C3239 C3240 1.349 . S
C3239 C3241 1.327 . S
C3239 H3262 0.950 . S
C3240 C3239 1.349 . S
C3240 C3252 1.349 . S
C3241 C3239 1.327 . S
C3241 C3257 1.429 . S
C3241 H3263 0.950 . S
C3242 H3238 0.949 . S
C3242 C3250 1.574 1_554 S
C3242 C3258 1.368 . S
H3243 C3251 0.950 . S
H3244 C3249 0.950 . S
H3245 C3250 0.949 . S
H3246 C3252 0.950 . S
H3247 C3253 0.950 . S
H3248 C3254 0.949 . S
C3249 H3244 0.950 . S
C3249 C3251 1.327 . S
C3249 C3255 1.429 . S
C3250 C3242 1.574 1_556 S
C3250 H3245 0.949 . S
C3250 C3256 1.368 . S
C3251 C3235 1.349 . S
C3251 H3243 0.950 . S
C3251 C3249 1.327 . S
C3252 C3240 1.349 . S
C3252 H3246 0.950 . S
C3252 C3253 1.327 . S
C3253 H3247 0.950 . S
C3253 C3252 1.327 . S
C3253 C3257 1.429 . S
C3254 C3237 1.574 1_554 S
C3254 H3248 0.949 . S
C3254 C3258 1.368 . S
C3255 C3236 1.429 . S
C3255 C3249 1.429 . S
C3255 C3256 1.523 . S
C3256 C3237 1.368 . S
C3256 C3250 1.368 . S
C3256 C3255 1.523 . S
C3257 C3241 1.429 . S
C3257 C3253 1.429 . S
C3257 C3258 1.523 . S
C3258 C3242 1.368 . S
C3258 C3254 1.368 . S
C3258 C3257 1.523 . S
H3259 C3234 0.950 . S
H3260 C3236 0.950 . S
H3261 C3237 0.949 . S
H3262 C3239 0.950 . S
H3263 C3241 0.950 . S
C3264 C3265 1.349 . S
C3264 C3266 1.327 . S
C3264 H3289 0.950 . S
C3265 C3264 1.349 . S
C3265 C3281 1.349 . S
C3266 C3264 1.327 . S
C3266 C3285 1.429 . S
C3266 H3290 0.950 . S
C3267 C3284 1.574 1_556 S
C3267 C3286 1.368 . S
C3267 H3291 0.949 . S
H3268 C3272 0.949 . S
C3269 C3270 1.349 . S
C3269 C3271 1.327 . S
C3269 H3292 0.950 . S
C3270 C3269 1.349 . S
C3270 C3282 1.349 . S
C3271 C3269 1.327 . S
C3271 C3287 1.429 . S
C3271 H3293 0.950 . S
C3272 H3268 0.949 . S
C3272 C3280 1.593 . S
C3272 C3288 1.368 . S
H3273 C3281 0.950 . S
H3274 C3279 0.950 . S
H3275 C3280 0.939 1_556 S
H3276 C3282 0.950 . S
H3277 C3283 0.950 . S
H3278 C3284 0.949 . S
C3279 H3274 0.950 . S
C3279 C3281 1.327 . S
C3279 C3285 1.429 . S
C3280 C3272 1.593 . S
C3280 H3275 0.939 1_554 S
C3280 C3286 1.360 1_554 S
C3281 C3265 1.349 . S
C3281 H3273 0.950 . S
C3281 C3279 1.327 . S
C3282 C3270 1.349 . S
C3282 H3276 0.950 . S
C3282 C3283 1.327 . S
C3283 H3277 0.950 . S
C3283 C3282 1.327 . S
C3283 C3287 1.429 . S
C3284 C3267 1.574 1_554 S
C3284 H3278 0.949 . S
C3284 C3288 1.368 . S
C3285 C3266 1.429 . S
C3285 C3279 1.429 . S
C3285 C3286 1.523 . S
C3286 C3267 1.368 . S
C3286 C3280 1.360 1_556 S
C3286 C3285 1.523 . S
C3287 C3271 1.429 . S
C3287 C3283 1.429 . S
C3287 C3288 1.523 . S
C3288 C3272 1.368 . S
C3288 C3284 1.368 . S
C3288 C3287 1.523 . S
H3289 C3264 0.950 . S
H3290 C3266 0.950 . S
H3291 C3267 0.949 . S
H3292 C3269 0.950 . S
H3293 C3271 0.950 . S
C3294 C3295 1.349 . S
C3294 C3296 1.327 . S
C3294 H3319 0.950 . S
C3295 C3294 1.349 . S
C3295 C3311 1.349 . S
C3296 C3294 1.327 . S
C3296 C3315 1.429 . S
C3296 H3320 0.950 . S
C3297 C3314 1.574 . S
C3297 C3316 1.368 . S
C3297 H3321 0.949 . S
H3298 C3302 0.949 . S
C3299 C3300 1.349 . S
C3299 C3301 1.327 . S
C3299 H3322 0.950 . S
C3300 C3299 1.349 . S
C3300 C3312 1.349 . S
C3301 C3299 1.327 . S
C3301 C3317 1.429 . S
C3301 H3323 0.950 . S
C3302 H3298 0.949 . S
C3302 C3310 1.574 . S
C3302 C3318 1.368 . S
H3303 C3311 0.950 . S
H3304 C3309 0.950 . S
H3305 C3310 0.949 . S
H3306 C3312 0.950 . S
H3307 C3313 0.950 . S
H3308 C3314 0.949 . S
C3309 H3304 0.950 . S
C3309 C3311 1.327 . S
C3309 C3315 1.429 . S
C3310 C3302 1.574 . S
C3310 H3305 0.949 . S
C3310 C3316 1.368 . S
C3311 C3295 1.349 . S
C3311 H3303 0.950 . S
C3311 C3309 1.327 . S
C3312 C3300 1.349 . S
C3312 H3306 0.950 . S
C3312 C3313 1.327 . S
C3313 H3307 0.950 . S
C3313 C3312 1.327 . S
C3313 C3317 1.429 . S
C3314 C3297 1.574 . S
C3314 H3308 0.949 . S
C3314 C3318 1.368 . S
C3315 C3296 1.429 . S
C3315 C3309 1.429 . S
C3315 C3316 1.523 . S
C3316 C3297 1.368 . S
C3316 C3310 1.368 . S
C3316 C3315 1.523 . S
C3317 C3301 1.429 . S
C3317 C3313 1.429 . S
C3317 C3318 1.523 . S
C3318 C3302 1.368 . S
C3318 C3314 1.368 . S
C3318 C3317 1.523 . S
H3319 C3294 0.950 . S
H3320 C3296 0.950 . S
H3321 C3297 0.949 . S
H3322 C3299 0.950 . S
H3323 C3301 0.950 . S
C3324 C3325 1.349 . S
C3324 C3326 1.327 . S
C3324 H3349 0.950 . S
C3325 C3324 1.349 . S
C3325 C3341 1.349 . S
C3326 C3324 1.327 . S
C3326 C3345 1.429 . S
C3326 H3350 0.950 . S
C3327 C3344 1.574 . S
C3327 C3346 1.368 . S
C3327 H3351 0.949 . S
H3328 C3332 0.949 . S
C3329 C3330 1.349 . S
C3329 C3331 1.327 . S
C3329 H3352 0.950 . S
C3330 C3329 1.349 . S
C3330 C3342 1.349 . S
C3331 C3329 1.327 . S
C3331 C3347 1.429 . S
C3331 H3353 0.950 . S
C3332 H3328 0.949 . S
C3332 C3340 1.574 . S
C3332 C3348 1.368 . S
H3333 C3341 0.950 . S
H3334 C3339 0.950 . S
H3335 C3340 0.949 . S
H3336 C3342 0.950 . S
H3337 C3343 0.950 . S
H3338 C3344 0.949 . S
C3339 H3334 0.950 . S
C3339 C3341 1.327 . S
C3339 C3345 1.429 . S
C3340 C3332 1.574 . S
C3340 H3335 0.949 . S
C3340 C3346 1.368 . S
C3341 C3325 1.349 . S
C3341 H3333 0.950 . S
C3341 C3339 1.327 . S
C3342 C3330 1.349 . S
C3342 H3336 0.950 . S
C3342 C3343 1.327 . S
C3343 H3337 0.950 . S
C3343 C3342 1.327 . S
C3343 C3347 1.429 . S
C3344 C3327 1.574 . S
C3344 H3338 0.949 . S
C3344 C3348 1.368 . S
C3345 C3326 1.429 . S
C3345 C3339 1.429 . S
C3345 C3346 1.523 . S
C3346 C3327 1.368 . S
C3346 C3340 1.368 . S
C3346 C3345 1.523 . S
C3347 C3331 1.429 . S
C3347 C3343 1.429 . S
C3347 C3348 1.523 . S
C3348 C3332 1.368 . S
C3348 C3344 1.368 . S
C3348 C3347 1.523 . S
H3349 C3324 0.950 . S
H3350 C3326 0.950 . S
H3351 C3327 0.949 . S
H3352 C3329 0.950 . S
H3353 C3331 0.950 . S
C3354 C3355 1.349 . S
C3354 C3356 1.327 . S
C3354 H3379 0.950 . S
C3355 C3354 1.349 . S
C3355 C3371 1.349 . S
C3356 C3354 1.327 . S
C3356 C3375 1.429 . S
C3356 H3380 0.950 . S
C3357 C3374 1.574 . S
C3357 C3376 1.368 . S
C3357 H3381 0.949 . S
H3358 C3362 0.949 . S
C3359 C3360 1.349 . S
C3359 C3361 1.327 . S
C3359 H3382 0.950 . S
C3360 C3359 1.349 . S
C3360 C3372 1.349 . S
C3361 C3359 1.327 . S
C3361 C3377 1.429 . S
C3361 H3383 0.950 . S
C3362 H3358 0.949 . S
C3362 C3370 1.574 . S
C3362 C3378 1.368 . S
H3363 C3371 0.950 . S
H3364 C3369 0.950 . S
H3365 C3370 0.949 . S
H3366 C3372 0.950 . S
H3367 C3373 0.950 . S
H3368 C3374 0.949 . S
C3369 H3364 0.950 . S
C3369 C3371 1.327 . S
C3369 C3375 1.429 . S
C3370 C3362 1.574 . S
C3370 H3365 0.949 . S
C3370 C3376 1.368 . S
C3371 C3355 1.349 . S
C3371 H3363 0.950 . S
C3371 C3369 1.327 . S
C3372 C3360 1.349 . S
C3372 H3366 0.950 . S
C3372 C3373 1.327 . S
C3373 H3367 0.950 . S
C3373 C3372 1.327 . S
C3373 C3377 1.429 . S
C3374 C3357 1.574 . S
C3374 H3368 0.949 . S
C3374 C3378 1.368 . S
C3375 C3356 1.429 . S
C3375 C3369 1.429 . S
C3375 C3376 1.523 . S
C3376 C3357 1.368 . S
C3376 C3370 1.368 . S
C3376 C3375 1.523 . S
C3377 C3361 1.429 . S
C3377 C3373 1.429 . S
C3377 C3378 1.523 . S
C3378 C3362 1.368 . S
C3378 C3374 1.368 . S
C3378 C3377 1.523 . S
H3379 C3354 0.950 . S
H3380 C3356 0.950 . S
H3381 C3357 0.949 . S
H3382 C3359 0.950 . S
H3383 C3361 0.950 . S
C3384 C3385 1.349 . S
C3384 C3386 1.327 . S
C3384 H3409 0.950 . S
C3385 C3384 1.349 . S
C3385 C3401 1.349 . S
C3386 C3384 1.327 . S
C3386 C3405 1.429 . S
C3386 H3410 0.950 . S
C3387 C3404 1.574 . S
C3387 C3406 1.368 . S
C3387 H3411 0.949 . S
H3388 C3392 0.949 . S
C3389 C3390 1.349 . S
C3389 C3391 1.327 . S
C3389 H3412 0.950 . S
C3390 C3389 1.349 . S
C3390 C3402 1.349 . S
C3391 C3389 1.327 . S
C3391 C3407 1.429 . S
C3391 H3413 0.950 . S
C3392 H3388 0.949 . S
C3392 C3400 1.574 . S
C3392 C3408 1.368 . S
H3393 C3401 0.950 . S
H3394 C3399 0.950 . S
H3395 C3400 0.949 . S
H3396 C3402 0.950 . S
H3397 C3403 0.950 . S
H3398 C3404 0.949 . S
C3399 H3394 0.950 . S
C3399 C3401 1.327 . S
C3399 C3405 1.429 . S
C3400 C3392 1.574 . S
C3400 H3395 0.949 . S
C3400 C3406 1.368 . S
C3401 C3385 1.349 . S
C3401 H3393 0.950 . S
C3401 C3399 1.327 . S
C3402 C3390 1.349 . S
C3402 H3396 0.950 . S
C3402 C3403 1.327 . S
C3403 H3397 0.950 . S
C3403 C3402 1.327 . S
C3403 C3407 1.429 . S
C3404 C3387 1.574 . S
C3404 H3398 0.949 . S
C3404 C3408 1.368 . S
C3405 C3386 1.429 . S
C3405 C3399 1.429 . S
C3405 C3406 1.523 . S
C3406 C3387 1.368 . S
C3406 C3400 1.368 . S
C3406 C3405 1.523 . S
C3407 C3391 1.429 . S
C3407 C3403 1.429 . S
C3407 C3408 1.523 . S
C3408 C3392 1.368 . S
C3408 C3404 1.368 . S
C3408 C3407 1.523 . S
H3409 C3384 0.950 . S
H3410 C3386 0.950 . S
H3411 C3387 0.949 . S
H3412 C3389 0.950 . S
H3413 C3391 0.950 . S
C3414 C3415 1.349 . S
C3414 C3416 1.327 . S
C3414 H3439 0.950 . S
C3415 C3414 1.349 . S
C3415 C3431 1.349 . S
C3416 C3414 1.327 . S
C3416 C3435 1.429 . S
C3416 H3440 0.950 . S
C3417 C3434 1.574 . S
C3417 C3436 1.368 . S
C3417 H3441 0.949 . S
H3418 C3422 0.949 . S
C3419 C3420 1.349 . S
C3419 C3421 1.327 . S
C3419 H3442 0.950 . S
C3420 C3419 1.349 . S
C3420 C3432 1.349 . S
C3421 C3419 1.327 . S
C3421 C3437 1.429 . S
C3421 H3443 0.950 . S
C3422 H3418 0.949 . S
C3422 C3430 1.574 . S
C3422 C3438 1.368 . S
H3423 C3431 0.950 . S
H3424 C3429 0.950 . S
H3425 C3430 0.949 . S
H3426 C3432 0.950 . S
H3427 C3433 0.950 . S
H3428 C3434 0.949 . S
C3429 H3424 0.950 . S
C3429 C3431 1.327 . S
C3429 C3435 1.429 . S
C3430 C3422 1.574 . S
C3430 H3425 0.949 . S
C3430 C3436 1.368 . S
C3431 C3415 1.349 . S
C3431 H3423 0.950 . S
C3431 C3429 1.327 . S
C3432 C3420 1.349 . S
C3432 H3426 0.950 . S
C3432 C3433 1.327 . S
C3433 H3427 0.950 . S
C3433 C3432 1.327 . S
C3433 C3437 1.429 . S
C3434 C3417 1.574 . S
C3434 H3428 0.949 . S
C3434 C3438 1.368 . S
C3435 C3416 1.429 . S
C3435 C3429 1.429 . S
C3435 C3436 1.523 . S
C3436 C3417 1.368 . S
C3436 C3430 1.368 . S
C3436 C3435 1.523 . S
C3437 C3421 1.429 . S
C3437 C3433 1.429 . S
C3437 C3438 1.523 . S
C3438 C3422 1.368 . S
C3438 C3434 1.368 . S
C3438 C3437 1.523 . S
H3439 C3414 0.950 . S
H3440 C3416 0.950 . S
H3441 C3417 0.949 . S
H3442 C3419 0.950 . S
H3443 C3421 0.950 . S
C3444 C3445 1.349 . S
C3444 C3446 1.327 . S
C3444 H3469 0.950 . S
C3445 C3444 1.349 . S
C3445 C3461 1.349 . S
C3446 C3444 1.327 . S
C3446 C3465 1.429 . S
C3446 H3470 0.950 . S
C3447 C3464 1.574 . S
C3447 C3466 1.368 . S
C3447 H3471 0.949 . S
H3448 C3452 0.949 . S
C3449 C3450 1.349 . S
C3449 C3451 1.327 . S
C3449 H3472 0.950 . S
C3450 C3449 1.349 . S
C3450 C3462 1.349 . S
C3451 C3449 1.327 . S
C3451 C3467 1.429 . S
C3451 H3473 0.950 . S
C3452 H3448 0.949 . S
C3452 C3460 1.574 . S
C3452 C3468 1.368 . S
H3453 C3461 0.950 . S
H3454 C3459 0.950 . S
H3455 C3460 0.949 . S
H3456 C3462 0.950 . S
H3457 C3463 0.950 . S
H3458 C3464 0.949 . S
C3459 H3454 0.950 . S
C3459 C3461 1.327 . S
C3459 C3465 1.429 . S
C3460 C3452 1.574 . S
C3460 H3455 0.949 . S
C3460 C3466 1.368 . S
C3461 C3445 1.349 . S
C3461 H3453 0.950 . S
C3461 C3459 1.327 . S
C3462 C3450 1.349 . S
C3462 H3456 0.950 . S
C3462 C3463 1.327 . S
C3463 H3457 0.950 . S
C3463 C3462 1.327 . S
C3463 C3467 1.429 . S
C3464 C3447 1.574 . S
C3464 H3458 0.949 . S
C3464 C3468 1.368 . S
C3465 C3446 1.429 . S
C3465 C3459 1.429 . S
C3465 C3466 1.523 . S
C3466 C3447 1.368 . S
C3466 C3460 1.368 . S
C3466 C3465 1.523 . S
C3467 C3451 1.429 . S
C3467 C3463 1.429 . S
C3467 C3468 1.523 . S
C3468 C3452 1.368 . S
C3468 C3464 1.368 . S
C3468 C3467 1.523 . S
H3469 C3444 0.950 . S
H3470 C3446 0.950 . S
H3471 C3447 0.949 . S
H3472 C3449 0.950 . S
H3473 C3451 0.950 . S
C3474 C3475 1.349 . S
C3474 C3476 1.327 . S
C3474 H3499 0.950 . S
C3475 C3474 1.349 . S
C3475 C3491 1.349 . S
C3476 C3474 1.327 . S
C3476 C3495 1.429 . S
C3476 H3500 0.950 . S
C3477 C3494 1.574 1_554 S
C3477 C3496 1.368 . S
C3477 H3501 0.949 . S
H3478 C3482 0.940 1_556 S
C3479 C3480 1.349 . S
C3479 C3481 1.327 . S
C3479 H3502 0.950 . S
C3480 C3479 1.349 . S
C3480 C3492 1.349 . S
C3481 C3479 1.327 . S
C3481 C3497 1.429 . S
C3481 H3503 0.950 . S
C3482 H3478 0.940 1_554 S
C3482 C3490 1.592 . S
C3482 C3498 1.361 1_554 S
H3483 C3491 0.950 . S
H3484 C3489 0.950 . S
H3485 C3490 0.949 . S
H3486 C3492 0.950 . S
H3487 C3493 0.950 . S
H3488 C3494 0.949 . S
C3489 H3484 0.950 . S
C3489 C3491 1.327 . S
C3489 C3495 1.429 . S
C3490 C3482 1.592 . S
C3490 H3485 0.949 . S
C3490 C3496 1.368 . S
C3491 C3475 1.349 . S
C3491 H3483 0.950 . S
C3491 C3489 1.327 . S
C3492 C3480 1.349 . S
C3492 H3486 0.950 . S
C3492 C3493 1.327 . S
C3493 H3487 0.950 . S
C3493 C3492 1.327 . S
C3493 C3497 1.429 . S
C3494 C3477 1.574 1_556 S
C3494 H3488 0.949 . S
C3494 C3498 1.368 . S
C3495 C3476 1.429 . S
C3495 C3489 1.429 . S
C3495 C3496 1.523 . S
C3496 C3477 1.368 . S
C3496 C3490 1.368 . S
C3496 C3495 1.523 . S
C3497 C3481 1.429 . S
C3497 C3493 1.429 . S
C3497 C3498 1.523 . S
C3498 C3482 1.361 1_556 S
C3498 C3494 1.368 . S
C3498 C3497 1.523 . S
H3499 C3474 0.950 . S
H3500 C3476 0.950 . S
H3501 C3477 0.949 . S
H3502 C3479 0.950 . S
H3503 C3481 0.950 . S
C3504 C3505 1.349 . S
C3504 C3506 1.327 . S
C3504 H3529 0.950 . S
C3505 C3504 1.349 . S
C3505 C3521 1.349 . S
C3506 C3504 1.327 . S
C3506 C3525 1.429 . S
C3506 H3530 0.950 . S
C3507 C3524 1.574 1_556 S
C3507 C3526 1.368 . S
C3507 H3531 0.949 . S
H3508 C3512 0.949 . S
C3509 C3510 1.349 . S
C3509 C3511 1.327 . S
C3509 H3532 0.950 . S
C3510 C3509 1.349 . S
C3510 C3522 1.349 . S
C3511 C3509 1.327 . S
C3511 C3527 1.429 . S
C3511 H3533 0.950 . S
C3512 H3508 0.949 . S
C3512 C3520 1.560 1_554 S
C3512 C3528 1.368 . S
H3513 C3521 0.950 . S
H3514 C3519 0.950 . S
H3515 C3520 0.957 . S
H3516 C3522 0.950 . S
H3517 C3523 0.950 . S
H3518 C3524 0.949 . S
C3519 H3514 0.950 . S
C3519 C3521 1.327 . S
C3519 C3525 1.429 . S
C3520 C3512 1.560 1_556 S
C3520 H3515 0.957 . S
C3520 C3526 1.374 . S
C3521 C3505 1.349 . S
C3521 H3513 0.950 . S
C3521 C3519 1.327 . S
C3522 C3510 1.349 . S
C3522 H3516 0.950 . S
C3522 C3523 1.327 . S
C3523 H3517 0.950 . S
C3523 C3522 1.327 . S
C3523 C3527 1.429 . S
C3524 C3507 1.574 1_554 S
C3524 H3518 0.949 . S
C3524 C3528 1.368 . S
C3525 C3506 1.429 . S
C3525 C3519 1.429 . S
C3525 C3526 1.523 . S
C3526 C3507 1.368 . S
C3526 C3520 1.374 . S
C3526 C3525 1.523 . S
C3527 C3511 1.429 . S
C3527 C3523 1.429 . S
C3527 C3528 1.523 . S
C3528 C3512 1.368 . S
C3528 C3524 1.368 . S
C3528 C3527 1.523 . S
H3529 C3504 0.950 . S
H3530 C3506 0.950 . S
H3531 C3507 0.949 . S
H3532 C3509 0.950 . S
H3533 C3511 0.950 . S
C3534 C3535 1.349 . S
C3534 C3536 1.327 . S
C3534 H3559 0.950 . S
C3535 C3534 1.349 . S
C3535 C3551 1.349 . S
C3536 C3534 1.327 . S
C3536 C3555 1.429 . S
C3536 H3560 0.950 . S
C3537 C3554 1.574 1_556 S
C3537 C3556 1.368 . S
C3537 H3561 0.949 . S
H3538 C3542 0.949 . S
C3539 C3540 1.349 . S
C3539 C3541 1.327 . S
C3539 H3562 0.950 . S
C3540 C3539 1.349 . S
C3540 C3552 1.349 . S
C3541 C3539 1.327 . S
C3541 C3557 1.429 . S
C3541 H3563 0.950 . S
C3542 H3538 0.949 . S
C3542 C3550 1.591 . S
C3542 C3558 1.368 . S
H3543 C3551 0.950 . S
H3544 C3549 0.950 . S
H3545 C3550 0.940 1_556 S
H3546 C3552 0.950 . S
H3547 C3553 0.950 . S
H3548 C3554 0.949 . S
C3549 H3544 0.950 . S
C3549 C3551 1.327 . S
C3549 C3555 1.429 . S
C3550 C3542 1.591 . S
C3550 H3545 0.940 1_554 S
C3550 C3556 1.361 1_554 S
C3551 C3535 1.349 . S
C3551 H3543 0.950 . S
C3551 C3549 1.327 . S
C3552 C3540 1.349 . S
C3552 H3546 0.950 . S
C3552 C3553 1.327 . S
C3553 H3547 0.950 . S
C3553 C3552 1.327 . S
C3553 C3557 1.429 . S
C3554 C3537 1.574 1_554 S
C3554 H3548 0.949 . S
C3554 C3558 1.368 . S
C3555 C3536 1.429 . S
C3555 C3549 1.429 . S
C3555 C3556 1.523 . S
C3556 C3537 1.368 . S
C3556 C3550 1.361 1_556 S
C3556 C3555 1.523 . S
C3557 C3541 1.429 . S
C3557 C3553 1.429 . S
C3557 C3558 1.523 . S
C3558 C3542 1.368 . S
C3558 C3554 1.368 . S
C3558 C3557 1.523 . S
H3559 C3534 0.950 . S
H3560 C3536 0.950 . S
H3561 C3537 0.949 . S
H3562 C3539 0.950 . S
H3563 C3541 0.950 . S
C3564 C3565 1.349 . S
C3564 C3566 1.327 . S
C3564 H3589 0.950 . S
C3565 C3564 1.349 . S
C3565 C3581 1.349 . S
C3566 C3564 1.327 . S
C3566 C3585 1.429 . S
C3566 H3590 0.950 . S
C3567 C3584 1.574 . S
C3567 C3586 1.368 . S
C3567 H3591 0.949 . S
H3568 C3572 0.949 . S
C3569 C3570 1.349 . S
C3569 C3571 1.327 . S
C3569 H3592 0.950 . S
C3570 C3569 1.349 . S
C3570 C3582 1.349 . S
C3571 C3569 1.327 . S
C3571 C3587 1.429 . S
C3571 H3593 0.950 . S
C3572 H3568 0.949 . S
C3572 C3580 1.574 . S
C3572 C3588 1.368 . S
H3573 C3581 0.950 . S
H3574 C3579 0.950 . S
H3575 C3580 0.949 . S
H3576 C3582 0.950 . S
H3577 C3583 0.950 . S
H3578 C3584 0.949 . S
C3579 H3574 0.950 . S
C3579 C3581 1.327 . S
C3579 C3585 1.429 . S
C3580 C3572 1.574 . S
C3580 H3575 0.949 . S
C3580 C3586 1.368 . S
C3581 C3565 1.349 . S
C3581 H3573 0.950 . S
C3581 C3579 1.327 . S
C3582 C3570 1.349 . S
C3582 H3576 0.950 . S
C3582 C3583 1.327 . S
C3583 H3577 0.950 . S
C3583 C3582 1.327 . S
C3583 C3587 1.429 . S
C3584 C3567 1.574 . S
C3584 H3578 0.949 . S
C3584 C3588 1.368 . S
C3585 C3566 1.429 . S
C3585 C3579 1.429 . S
C3585 C3586 1.523 . S
C3586 C3567 1.368 . S
C3586 C3580 1.368 . S
C3586 C3585 1.523 . S
C3587 C3571 1.429 . S
C3587 C3583 1.429 . S
C3587 C3588 1.523 . S
C3588 C3572 1.368 . S
C3588 C3584 1.368 . S
C3588 C3587 1.523 . S
H3589 C3564 0.950 . S
H3590 C3566 0.950 . S
H3591 C3567 0.949 . S
H3592 C3569 0.950 . S
H3593 C3571 0.950 . S
C3594 C3595 1.349 . S
C3594 C3596 1.327 . S
C3594 H3619 0.950 . S
C3595 C3594 1.349 . S
C3595 C3611 1.349 . S
C3596 C3594 1.327 . S
C3596 C3615 1.429 . S
C3596 H3620 0.950 . S
C3597 C3614 1.574 . S
C3597 C3616 1.368 . S
C3597 H3621 0.949 . S
H3598 C3602 0.949 . S
C3599 C3600 1.349 . S
C3599 C3601 1.327 . S
C3599 H3622 0.950 . S
C3600 C3599 1.349 . S
C3600 C3612 1.349 . S
C3601 C3599 1.327 . S
C3601 C3617 1.429 . S
C3601 H3623 0.950 . S
C3602 H3598 0.949 . S
C3602 C3610 1.574 . S
C3602 C3618 1.368 . S
H3603 C3611 0.950 . S
H3604 C3609 0.950 . S
H3605 C3610 0.949 . S
H3606 C3612 0.950 . S
H3607 C3613 0.950 . S
H3608 C3614 0.949 . S
C3609 H3604 0.950 . S
C3609 C3611 1.327 . S
C3609 C3615 1.429 . S
C3610 C3602 1.574 . S
C3610 H3605 0.949 . S
C3610 C3616 1.368 . S
C3611 C3595 1.349 . S
C3611 H3603 0.950 . S
C3611 C3609 1.327 . S
C3612 C3600 1.349 . S
C3612 H3606 0.950 . S
C3612 C3613 1.327 . S
C3613 H3607 0.950 . S
C3613 C3612 1.327 . S
C3613 C3617 1.429 . S
C3614 C3597 1.574 . S
C3614 H3608 0.949 . S
C3614 C3618 1.368 . S
C3615 C3596 1.429 . S
C3615 C3609 1.429 . S
C3615 C3616 1.523 . S
C3616 C3597 1.368 . S
C3616 C3610 1.368 . S
C3616 C3615 1.523 . S
C3617 C3601 1.429 . S
C3617 C3613 1.429 . S
C3617 C3618 1.523 . S
C3618 C3602 1.368 . S
C3618 C3614 1.368 . S
C3618 C3617 1.523 . S
H3619 C3594 0.950 . S
H3620 C3596 0.950 . S
H3621 C3597 0.949 . S
H3622 C3599 0.950 . S
H3623 C3601 0.950 . S
C3624 C3625 1.349 . S
C3624 C3626 1.327 . S
C3624 H3649 0.950 . S
C3625 C3624 1.349 . S
C3625 C3641 1.349 . S
C3626 C3624 1.327 . S
C3626 C3645 1.429 . S
C3626 H3650 0.950 . S
C3627 C3644 1.574 . S
C3627 C3646 1.368 . S
C3627 H3651 0.949 . S
H3628 C3632 0.949 . S
C3629 C3630 1.349 . S
C3629 C3631 1.327 . S
C3629 H3652 0.950 . S
C3630 C3629 1.349 . S
C3630 C3642 1.349 . S
C3631 C3629 1.327 . S
C3631 C3647 1.429 . S
C3631 H3653 0.950 . S
C3632 H3628 0.949 . S
C3632 C3640 1.574 . S
C3632 C3648 1.368 . S
H3633 C3641 0.950 . S
H3634 C3639 0.950 . S
H3635 C3640 0.949 . S
H3636 C3642 0.950 . S
H3637 C3643 0.950 . S
H3638 C3644 0.949 . S
C3639 H3634 0.950 . S
C3639 C3641 1.327 . S
C3639 C3645 1.429 . S
C3640 C3632 1.574 . S
C3640 H3635 0.949 . S
C3640 C3646 1.368 . S
C3641 C3625 1.349 . S
C3641 H3633 0.950 . S
C3641 C3639 1.327 . S
C3642 C3630 1.349 . S
C3642 H3636 0.950 . S
C3642 C3643 1.327 . S
C3643 H3637 0.950 . S
C3643 C3642 1.327 . S
C3643 C3647 1.429 . S
C3644 C3627 1.574 . S
C3644 H3638 0.949 . S
C3644 C3648 1.368 . S
C3645 C3626 1.429 . S
C3645 C3639 1.429 . S
C3645 C3646 1.523 . S
C3646 C3627 1.368 . S
C3646 C3640 1.368 . S
C3646 C3645 1.523 . S
C3647 C3631 1.429 . S
C3647 C3643 1.429 . S
C3647 C3648 1.523 . S
C3648 C3632 1.368 . S
C3648 C3644 1.368 . S
C3648 C3647 1.523 . S
H3649 C3624 0.950 . S
H3650 C3626 0.950 . S
H3651 C3627 0.949 . S
H3652 C3629 0.950 . S
H3653 C3631 0.950 . S
C3654 C3655 1.349 . S
C3654 C3656 1.327 . S
C3654 H3679 0.950 . S
C3655 C3654 1.349 . S
C3655 C3671 1.349 . S
C3656 C3654 1.327 . S
C3656 C3675 1.429 . S
C3656 H3680 0.950 . S
C3657 C3674 1.587 . S
C3657 C3676 1.363 1_556 S
C3657 H3681 0.942 1_556 S
H3658 C3662 0.949 . S
C3659 C3660 1.349 . S
C3659 C3661 1.327 . S
C3659 H3682 0.950 . S
C3660 C3659 1.349 . S
C3660 C3672 1.349 . S
C3661 C3659 1.327 . S
C3661 C3677 1.429 . S
C3661 H3683 0.950 . S
C3662 H3658 0.949 . S
C3662 C3670 1.574 1_556 S
C3662 C3678 1.368 . S
H3663 C3671 0.950 . S
H3664 C3669 0.950 . S
H3665 C3670 0.949 . S
H3666 C3672 0.950 . S
H3667 C3673 0.950 . S
H3668 C3674 0.949 . S
C3669 H3664 0.950 . S
C3669 C3671 1.327 . S
C3669 C3675 1.429 . S
C3670 C3662 1.574 1_554 S
C3670 H3665 0.949 . S
C3670 C3676 1.368 . S
C3671 C3655 1.349 . S
C3671 H3663 0.950 . S
C3671 C3669 1.327 . S
C3672 C3660 1.349 . S
C3672 H3666 0.950 . S
C3672 C3673 1.327 . S
C3673 H3667 0.950 . S
C3673 C3672 1.327 . S
C3673 C3677 1.429 . S
C3674 C3657 1.587 . S
C3674 H3668 0.949 . S
C3674 C3678 1.368 . S
C3675 C3656 1.429 . S
C3675 C3669 1.429 . S
C3675 C3676 1.523 . S
C3676 C3657 1.363 1_554 S
C3676 C3670 1.368 . S
C3676 C3675 1.523 . S
C3677 C3661 1.429 . S
C3677 C3673 1.429 . S
C3677 C3678 1.523 . S
C3678 C3662 1.368 . S
C3678 C3674 1.368 . S
C3678 C3677 1.523 . S
H3679 C3654 0.950 . S
H3680 C3656 0.950 . S
H3681 C3657 0.942 1_554 S
H3682 C3659 0.950 . S
H3683 C3661 0.950 . S
C3684 C3685 1.349 . S
C3684 C3686 1.327 . S
C3684 H3709 0.950 . S
C3685 C3684 1.349 . S
C3685 C3701 1.349 . S
C3686 C3684 1.327 . S
C3686 C3705 1.429 . S
C3686 H3710 0.950 . S
C3687 C3704 1.574 1_556 S
C3687 C3706 1.368 . S
C3687 H3711 0.949 . S
H3688 C3692 0.949 1_554 S
C3689 C3690 1.349 . S
C3689 C3691 1.327 . S
C3689 H3712 0.950 . S
C3690 C3689 1.349 . S
C3690 C3702 1.349 . S
C3691 C3689 1.327 . S
C3691 C3707 1.429 . S
C3691 H3713 0.950 . S
C3692 H3688 0.949 1_556 S
C3692 C3700 1.574 . S
C3692 C3708 1.368 1_556 S
H3693 C3701 0.950 . S
H3694 C3699 0.950 . S
H3695 C3700 0.949 . S
H3696 C3702 0.950 . S
H3697 C3703 0.950 . S
H3698 C3704 0.949 . S
C3699 H3694 0.950 . S
C3699 C3701 1.327 . S
C3699 C3705 1.429 . S
C3700 C3692 1.574 . S
C3700 H3695 0.949 . S
C3700 C3706 1.368 . S
C3701 C3685 1.349 . S
C3701 H3693 0.950 . S
C3701 C3699 1.327 . S
C3702 C3690 1.349 . S
C3702 H3696 0.950 . S
C3702 C3703 1.327 . S
C3703 H3697 0.950 . S
C3703 C3702 1.327 . S
C3703 C3707 1.429 . S
C3704 C3687 1.574 1_554 S
C3704 H3698 0.949 . S
C3704 C3708 1.368 . S
C3705 C3686 1.429 . S
C3705 C3699 1.429 . S
C3705 C3706 1.523 . S
C3706 C3687 1.368 . S
C3706 C3700 1.368 . S
C3706 C3705 1.523 . S
C3707 C3691 1.429 . S
C3707 C3703 1.429 . S
C3707 C3708 1.523 . S
C3708 C3692 1.368 1_554 S
C3708 C3704 1.368 . S
C3708 C3707 1.523 . S
H3709 C3684 0.950 . S
H3710 C3686 0.950 . S
H3711 C3687 0.949 . S
H3712 C3689 0.950 . S
H3713 C3691 0.950 . S
C3714 C3715 1.349 . S
C3714 C3716 1.327 . S
C3714 H3739 0.950 . S
C3715 C3714 1.349 . S
C3715 C3731 1.349 . S
C3716 C3714 1.327 . S
C3716 C3735 1.429 . S
C3716 H3740 0.950 . S
C3717 C3734 1.592 . S
C3717 C3736 1.360 1_556 S
C3717 H3741 0.940 1_556 S
H3718 C3722 0.949 . S
C3719 C3720 1.349 . S
C3719 C3721 1.327 . S
C3719 H3742 0.950 . S
C3720 C3719 1.349 . S
C3720 C3732 1.349 . S
C3721 C3719 1.327 . S
C3721 C3737 1.429 . S
C3721 H3743 0.950 . S
C3722 H3718 0.949 . S
C3722 C3730 1.574 1_556 S
C3722 C3738 1.368 . S
H3723 C3731 0.950 . S
H3724 C3729 0.950 . S
H3725 C3730 0.949 . S
H3726 C3732 0.950 . S
H3727 C3733 0.950 . S
H3728 C3734 0.949 . S
C3729 H3724 0.950 . S
C3729 C3731 1.327 . S
C3729 C3735 1.429 . S
C3730 C3722 1.574 1_554 S
C3730 H3725 0.949 . S
C3730 C3736 1.368 . S
C3731 C3715 1.349 . S
C3731 H3723 0.950 . S
C3731 C3729 1.327 . S
C3732 C3720 1.349 . S
C3732 H3726 0.950 . S
C3732 C3733 1.327 . S
C3733 H3727 0.950 . S
C3733 C3732 1.327 . S
C3733 C3737 1.429 . S
C3734 C3717 1.592 . S
C3734 H3728 0.949 . S
C3734 C3738 1.368 . S
C3735 C3716 1.429 . S
C3735 C3729 1.429 . S
C3735 C3736 1.523 . S
C3736 C3717 1.360 1_554 S
C3736 C3730 1.368 . S
C3736 C3735 1.523 . S
C3737 C3721 1.429 . S
C3737 C3733 1.429 . S
C3737 C3738 1.523 . S
C3738 C3722 1.368 . S
C3738 C3734 1.368 . S
C3738 C3737 1.523 . S
H3739 C3714 0.950 . S
H3740 C3716 0.950 . S
H3741 C3717 0.940 1_554 S
H3742 C3719 0.950 . S
H3743 C3721 0.950 . S
C3744 C3745 1.349 . S
C3744 C3746 1.327 . S
C3744 H3769 0.950 . S
C3745 C3744 1.349 . S
C3745 C3761 1.349 . S
C3746 C3744 1.327 . S
C3746 C3765 1.429 . S
C3746 H3770 0.950 . S
C3747 C3764 1.591 . S
C3747 C3766 1.368 . S
C3747 H3771 0.949 . S
H3748 C3752 0.949 . S
C3749 C3750 1.349 . S
C3749 C3751 1.327 . S
C3749 H3772 0.950 . S
C3750 C3749 1.349 . S
C3750 C3762 1.349 . S
C3751 C3749 1.327 . S
C3751 C3767 1.429 . S
C3751 H3773 0.950 . S
C3752 H3748 0.949 . S
C3752 C3760 1.574 1_554 S
C3752 C3768 1.368 . S
H3753 C3761 0.950 . S
H3754 C3759 0.950 . S
H3755 C3760 0.949 . S
H3756 C3762 0.950 . S
H3757 C3763 0.950 . S
H3758 C3764 0.940 1_554 S
C3759 H3754 0.950 . S
C3759 C3761 1.327 . S
C3759 C3765 1.429 . S
C3760 C3752 1.574 1_556 S
C3760 H3755 0.949 . S
C3760 C3766 1.368 . S
C3761 C3745 1.349 . S
C3761 H3753 0.950 . S
C3761 C3759 1.327 . S
C3762 C3750 1.349 . S
C3762 H3756 0.950 . S
C3762 C3763 1.327 . S
C3763 H3757 0.950 . S
C3763 C3762 1.327 . S
C3763 C3767 1.429 . S
C3764 C3747 1.591 . S
C3764 H3758 0.940 1_556 S
C3764 C3768 1.361 1_556 S
C3765 C3746 1.429 . S
C3765 C3759 1.429 . S
C3765 C3766 1.523 . S
C3766 C3747 1.368 . S
C3766 C3760 1.368 . S
C3766 C3765 1.523 . S
C3767 C3751 1.429 . S
C3767 C3763 1.429 . S
C3767 C3768 1.523 . S
C3768 C3752 1.368 . S
C3768 C3764 1.361 1_554 S
C3768 C3767 1.523 . S
H3769 C3744 0.950 . S
H3770 C3746 0.950 . S
H3771 C3747 0.949 . S
H3772 C3749 0.950 . S
H3773 C3751 0.950 . S
C3774 C3775 1.349 . S
C3774 C3776 1.327 . S
C3774 H3799 0.950 . S
C3775 C3774 1.349 . S
C3775 C3791 1.349 . S
C3776 C3774 1.327 . S
C3776 C3795 1.429 . S
C3776 H3800 0.950 . S
C3777 C3794 1.574 1_556 S
C3777 C3796 1.368 . S
C3777 H3801 0.949 . S
H3778 C3782 0.949 . S
C3779 C3780 1.349 . S
C3779 C3781 1.327 . S
C3779 H3802 0.950 . S
C3780 C3779 1.349 . S
C3780 C3792 1.349 . S
C3781 C3779 1.327 . S
C3781 C3797 1.429 . S
C3781 H3803 0.950 . S
C3782 H3778 0.949 . S
C3782 C3790 1.574 1_554 S
C3782 C3798 1.368 . S
H3783 C3791 0.950 . S
H3784 C3789 0.950 . S
H3785 C3790 0.949 . S
H3786 C3792 0.950 . S
H3787 C3793 0.950 . S
H3788 C3794 0.949 . S
C3789 H3784 0.950 . S
C3789 C3791 1.327 . S
C3789 C3795 1.429 . S
C3790 C3782 1.574 1_556 S
C3790 H3785 0.949 . S
C3790 C3796 1.368 . S
C3791 C3775 1.349 . S
C3791 H3783 0.950 . S
C3791 C3789 1.327 . S
C3792 C3780 1.349 . S
C3792 H3786 0.950 . S
C3792 C3793 1.327 . S
C3793 H3787 0.950 . S
C3793 C3792 1.327 . S
C3793 C3797 1.429 . S
C3794 C3777 1.574 1_554 S
C3794 H3788 0.949 . S
C3794 C3798 1.368 . S
C3795 C3776 1.429 . S
C3795 C3789 1.429 . S
C3795 C3796 1.523 . S
C3796 C3777 1.368 . S
C3796 C3790 1.368 . S
C3796 C3795 1.523 . S
C3797 C3781 1.429 . S
C3797 C3793 1.429 . S
C3797 C3798 1.523 . S
C3798 C3782 1.368 . S
C3798 C3794 1.368 . S
C3798 C3797 1.523 . S
H3799 C3774 0.950 . S
H3800 C3776 0.950 . S
H3801 C3777 0.949 . S
H3802 C3779 0.950 . S
H3803 C3781 0.950 . S
C3804 C3805 1.349 . S
C3804 C3806 1.327 . S
C3804 H3829 0.950 . S
C3805 C3804 1.349 . S
C3805 C3821 1.349 . S
C3806 C3804 1.327 . S
C3806 C3825 1.429 . S
C3806 H3830 0.950 . S
C3807 C3824 1.594 . S
C3807 C3826 1.368 . S
C3807 H3831 0.949 . S
H3808 C3812 0.949 . S
C3809 C3810 1.349 . S
C3809 C3811 1.327 . S
C3809 H3832 0.950 . S
C3810 C3809 1.349 . S
C3810 C3822 1.349 . S
C3811 C3809 1.327 . S
C3811 C3827 1.429 . S
C3811 H3833 0.950 . S
C3812 H3808 0.949 . S
C3812 C3820 1.574 1_554 S
C3812 C3828 1.368 . S
H3813 C3821 0.950 . S
H3814 C3819 0.950 . S
H3815 C3820 0.949 . S
H3816 C3822 0.950 . S
H3817 C3823 0.950 . S
H3818 C3824 0.939 1_554 S
C3819 H3814 0.950 . S
C3819 C3821 1.327 . S
C3819 C3825 1.429 . S
C3820 C3812 1.574 1_556 S
C3820 H3815 0.949 . S
C3820 C3826 1.368 . S
C3821 C3805 1.349 . S
C3821 H3813 0.950 . S
C3821 C3819 1.327 . S
C3822 C3810 1.349 . S
C3822 H3816 0.950 . S
C3822 C3823 1.327 . S
C3823 H3817 0.950 . S
C3823 C3822 1.327 . S
C3823 C3827 1.429 . S
C3824 C3807 1.594 . S
C3824 H3818 0.939 1_556 S
C3824 C3828 1.360 1_556 S
C3825 C3806 1.429 . S
C3825 C3819 1.429 . S
C3825 C3826 1.523 . S
C3826 C3807 1.368 . S
C3826 C3820 1.368 . S
C3826 C3825 1.523 . S
C3827 C3811 1.429 . S
C3827 C3823 1.429 . S
C3827 C3828 1.523 . S
C3828 C3812 1.368 . S
C3828 C3824 1.360 1_554 S
C3828 C3827 1.523 . S
H3829 C3804 0.950 . S
H3830 C3806 0.950 . S
H3831 C3807 0.949 . S
H3832 C3809 0.950 . S
H3833 C3811 0.950 . S
C3834 C3835 1.349 . S
C3834 C3836 1.327 . S
C3834 H3859 0.950 . S
C3835 C3834 1.349 . S
C3835 C3851 1.349 . S
C3836 C3834 1.327 . S
C3836 C3855 1.429 . S
C3836 H3860 0.950 . S
C3837 C3854 1.574 . S
C3837 C3856 1.368 . S
C3837 H3861 0.949 . S
H3838 C3842 0.949 . S
C3839 C3840 1.349 . S
C3839 C3841 1.327 . S
C3839 H3862 0.950 . S
C3840 C3839 1.349 . S
C3840 C3852 1.349 . S
C3841 C3839 1.327 . S
C3841 C3857 1.429 . S
C3841 H3863 0.950 . S
C3842 H3838 0.949 . S
C3842 C3850 1.574 . S
C3842 C3858 1.368 . S
H3843 C3851 0.950 . S
H3844 C3849 0.950 . S
H3845 C3850 0.949 . S
H3846 C3852 0.950 . S
H3847 C3853 0.950 . S
H3848 C3854 0.949 . S
C3849 H3844 0.950 . S
C3849 C3851 1.327 . S
C3849 C3855 1.429 . S
C3850 C3842 1.574 . S
C3850 H3845 0.949 . S
C3850 C3856 1.368 . S
C3851 C3835 1.349 . S
C3851 H3843 0.950 . S
C3851 C3849 1.327 . S
C3852 C3840 1.349 . S
C3852 H3846 0.950 . S
C3852 C3853 1.327 . S
C3853 H3847 0.950 . S
C3853 C3852 1.327 . S
C3853 C3857 1.429 . S
C3854 C3837 1.574 . S
C3854 H3848 0.949 . S
C3854 C3858 1.368 . S
C3855 C3836 1.429 . S
C3855 C3849 1.429 . S
C3855 C3856 1.523 . S
C3856 C3837 1.368 . S
C3856 C3850 1.368 . S
C3856 C3855 1.523 . S
C3857 C3841 1.429 . S
C3857 C3853 1.429 . S
C3857 C3858 1.523 . S
C3858 C3842 1.368 . S
C3858 C3854 1.368 . S
C3858 C3857 1.523 . S
H3859 C3834 0.950 . S
H3860 C3836 0.950 . S
H3861 C3837 0.949 . S
H3862 C3839 0.950 . S
H3863 C3841 0.950 . S
C3864 C3865 1.349 . S
C3864 C3866 1.327 . S
C3864 H3889 0.950 . S
C3865 C3864 1.349 . S
C3865 C3881 1.349 . S
C3866 C3864 1.327 . S
C3866 C3885 1.429 . S
C3866 H3890 0.950 . S
C3867 C3884 1.574 . S
C3867 C3886 1.368 . S
C3867 H3891 0.949 . S
H3868 C3872 0.949 . S
C3869 C3870 1.349 . S
C3869 C3871 1.327 . S
C3869 H3892 0.950 . S
C3870 C3869 1.349 . S
C3870 C3882 1.349 . S
C3871 C3869 1.327 . S
C3871 C3887 1.429 . S
C3871 H3893 0.950 . S
C3872 H3868 0.949 . S
C3872 C3880 1.574 . S
C3872 C3888 1.368 . S
H3873 C3881 0.950 . S
H3874 C3879 0.950 . S
H3875 C3880 0.949 . S
H3876 C3882 0.950 . S
H3877 C3883 0.950 . S
H3878 C3884 0.949 . S
C3879 H3874 0.950 . S
C3879 C3881 1.327 . S
C3879 C3885 1.429 . S
C3880 C3872 1.574 . S
C3880 H3875 0.949 . S
C3880 C3886 1.368 . S
C3881 C3865 1.349 . S
C3881 H3873 0.950 . S
C3881 C3879 1.327 . S
C3882 C3870 1.349 . S
C3882 H3876 0.950 . S
C3882 C3883 1.327 . S
C3883 H3877 0.950 . S
C3883 C3882 1.327 . S
C3883 C3887 1.429 . S
C3884 C3867 1.574 . S
C3884 H3878 0.949 . S
C3884 C3888 1.368 . S
C3885 C3866 1.429 . S
C3885 C3879 1.429 . S
C3885 C3886 1.523 . S
C3886 C3867 1.368 . S
C3886 C3880 1.368 . S
C3886 C3885 1.523 . S
C3887 C3871 1.429 . S
C3887 C3883 1.429 . S
C3887 C3888 1.523 . S
C3888 C3872 1.368 . S
C3888 C3884 1.368 . S
C3888 C3887 1.523 . S
H3889 C3864 0.950 . S
H3890 C3866 0.950 . S
H3891 C3867 0.949 . S
H3892 C3869 0.950 . S
H3893 C3871 0.950 . S
C3894 C3895 1.349 . S
C3894 C3896 1.327 . S
C3894 H3919 0.950 . S
C3895 C3894 1.349 . S
C3895 C3911 1.349 . S
C3896 C3894 1.327 . S
C3896 C3915 1.429 . S
C3896 H3920 0.950 . S
C3897 C3914 1.574 . S
C3897 C3916 1.368 . S
C3897 H3921 0.949 . S
H3898 C3902 0.949 . S
C3899 C3900 1.349 . S
C3899 C3901 1.327 . S
C3899 H3922 0.950 . S
C3900 C3899 1.349 . S
C3900 C3912 1.349 . S
C3901 C3899 1.327 . S
C3901 C3917 1.429 . S
C3901 H3923 0.950 . S
C3902 H3898 0.949 . S
C3902 C3910 1.574 . S
C3902 C3918 1.368 . S
H3903 C3911 0.950 . S
H3904 C3909 0.950 . S
H3905 C3910 0.949 . S
H3906 C3912 0.950 . S
H3907 C3913 0.950 . S
H3908 C3914 0.949 . S
C3909 H3904 0.950 . S
C3909 C3911 1.327 . S
C3909 C3915 1.429 . S
C3910 C3902 1.574 . S
C3910 H3905 0.949 . S
C3910 C3916 1.368 . S
C3911 C3895 1.349 . S
C3911 H3903 0.950 . S
C3911 C3909 1.327 . S
C3912 C3900 1.349 . S
C3912 H3906 0.950 . S
C3912 C3913 1.327 . S
C3913 H3907 0.950 . S
C3913 C3912 1.327 . S
C3913 C3917 1.429 . S
C3914 C3897 1.574 . S
C3914 H3908 0.949 . S
C3914 C3918 1.368 . S
C3915 C3896 1.429 . S
C3915 C3909 1.429 . S
C3915 C3916 1.523 . S
C3916 C3897 1.368 . S
C3916 C3910 1.368 . S
C3916 C3915 1.523 . S
C3917 C3901 1.429 . S
C3917 C3913 1.429 . S
C3917 C3918 1.523 . S
C3918 C3902 1.368 . S
C3918 C3914 1.368 . S
C3918 C3917 1.523 . S
H3919 C3894 0.950 . S
H3920 C3896 0.950 . S
H3921 C3897 0.949 . S
H3922 C3899 0.950 . S
H3923 C3901 0.950 . S
C1225 C20 1.482 . S
C1230 C530 1.482 . S
C1255 C564 1.480 . S
C1260 C54 1.480 . S
C1285 C598 1.480 . S
C1290 C88 1.480 . S
C1315 C836 1.482 . S
C1320 C122 1.482 . S
C1345 C156 1.480 . S
C1350 C870 1.480 . S
C1375 C904 1.480 . S
C1380 C190 1.480 . S
C1405 C1142 1.482 . S
C1410 C224 1.482 . S
C1435 C258 1.480 . S
C1440 C1176 1.480 . S
C1465 C1210 1.480 . S
C1470 C292 1.480 . S
C1495 C632 1.482 . S
C1500 C326 1.482 . S
C1525 C666 1.480 . S
C1530 C360 1.480 . S
C1555 C700 1.480 . S
C1560 C394 1.480 . S
C1585 C938 1.482 . S
C1590 C428 1.482 . S
C1615 C972 1.480 . S
C1620 C462 1.480 . S
C1645 C496 1.480 . S
C1650 C1006 1.480 . S
C1675 C734 1.482 . S
C1680 C1040 1.482 . S
C1705 C1074 1.480 . S
C1710 C768 1.480 . S
C1735 C802 1.480 . S
C1740 C1108 1.480 . S
C1765 C1019 1.483 . S
C1770 C33 1.483 . S
C1795 C67 1.483 . S
C1800 C951 1.483 . S
C1825 C985 1.482 . S
C1830 C101 1.482 . S
C1855 C475 1.483 . S
C1860 C135 1.483 . S
C1885 C509 1.482 . S
C1890 C169 1.482 . S
C1915 C441 1.483 . S
C1920 C203 1.483 . S
C1945 C237 1.483 . S
C1950 C815 1.483 . S
C1975 C747 1.483 . S
C1980 C271 1.483 . S
C2005 C305 1.482 . S
C2010 C781 1.482 . S
C2035 C1087 1.483 . S
C2040 C339 1.483 . S
C2065 C373 1.482 . S
C2070 C1121 1.482 . S
C2095 C407 1.483 . S
C2100 C1053 1.483 . S
C2125 C883 1.483 . S
C2130 C543 1.483 . S
C2155 C917 1.482 . S
C2160 C577 1.482 . S
C2185 C611 1.483 . S
C2190 C849 1.483 . S
C2215 C645 1.483 . S
C2220 C1223 1.483 . S
C2245 C1155 1.483 . S
C2250 C679 1.483 . S
C2275 C1189 1.482 . S
C2280 C713 1.482 . S
C2305 C2 1.480 . S
C2310 C376 1.480 . S
C2335 C36 1.480 . S
C2340 C308 1.480 . S
C2365 C70 1.478 . S
C2370 C342 1.478 . S
C2395 C104 1.480 . S
C2400 C240 1.480 . S
C2425 C274 1.478 . S
C2430 C138 1.478 . S
C2455 C206 1.480 . S
C2460 C172 1.480 . S
C2485 C784 1.480 . S
C2490 C410 1.480 . S
C2515 C716 1.480 . S
C2520 C444 1.480 . S
C2545 C478 1.478 . S
C2550 C750 1.478 . S
C2575 C648 1.480 . S
C2580 C512 1.480 . S
C2605 C682 1.479 . S
C2610 C546 1.479 . S
C2635 C614 1.480 . S
C2640 C580 1.480 . S
C2665 C1192 1.480 . S
C2670 C818 1.480 . S
C2695 C852 1.480 . S
C2700 C1124 1.480 . S
C2725 C1158 1.479 . S
C2730 C886 1.479 . S
C2755 C1056 1.480 . S
C2760 C920 1.480 . S
C2785 C1090 1.478 . S
C2790 C954 1.478 . S
C2815 C1022 1.480 . S
C2820 C988 1.480 . S
C2845 C9 1.298 . S
C2850 C5 1.352 . S
C2875 C39 1.352 . S
C2880 C43 1.298 . S
C2905 C77 1.298 . S
C2910 C73 1.352 . S
C2935 C107 1.352 . S
C2940 C111 1.298 . S
C2965 C141 1.352 . S
C2970 C145 1.298 . S
C2995 C175 1.352 . S
C3000 C179 1.298 . S
C3025 C209 1.352 . S
C3030 C213 1.298 . S
C3055 C243 1.352 . S
C3060 C247 1.298 . S
C3085 C281 1.298 . S
C3090 C277 1.352 . S
C3115 C315 1.298 . S
C3120 C311 1.352 . S
C3145 C345 1.352 . S
C3150 C349 1.298 . S
C3175 C383 1.298 . S
C3180 C379 1.352 . S
C3205 C413 1.352 . S
C3210 C417 1.298 . S
C3235 C447 1.352 . S
C3240 C451 1.298 . S
C3265 C481 1.352 . S
C3270 C485 1.298 . S
C3295 C515 1.352 . S
C3300 C519 1.298 . S
C3325 C549 1.352 . S
C3330 C553 1.298 . S
C3355 C587 1.298 . S
C3360 C583 1.352 . S
C3385 C617 1.352 . S
C3390 C621 1.298 . S
C3415 C655 1.298 . S
C3420 C651 1.352 . S
C3445 C689 1.298 . S
C3450 C685 1.352 . S
C3475 C723 1.298 . S
C3480 C719 1.352 . S
C3505 C753 1.352 . S
C3510 C757 1.298 . S
C3535 C787 1.352 . S
C3540 C791 1.298 . S
C3565 C825 1.298 . S
C3570 C821 1.352 . S
C3595 C859 1.298 . S
C3600 C855 1.352 . S
C3625 C889 1.352 . S
C3630 C893 1.298 . S
C3655 C923 1.352 . S
C3660 C927 1.298 . S
C3685 C961 1.298 . S
C3690 C957 1.352 . S
C3715 C991 1.352 . S
C3720 C995 1.298 . S
C3745 C1029 1.298 . S
C3750 C1025 1.352 . S
C3775 C1063 1.298 . S
C3780 C1059 1.352 . S
C3805 C1097 1.298 . S
C3810 C1093 1.352 . S
C3835 C1127 1.352 . S
C3840 C1131 1.298 . S
C3865 C1165 1.298 . S
C3870 C1161 1.352 . S
C3895 C1195 1.352 . S
C3900 C1199 1.298 . S
