# Generated by pormake.
# Topology kag, (6)-cn, num edge types: 1
# Building blocks:
#     Node 0, Type 0, BuildingBlock: JUFBIX_clean_sbu_0, # of connection points: 6
#     Node 1, Type 0, BuildingBlock: JUFBIX_clean_sbu_0, # of connection points: 6
#     Node 2, Type 0, BuildingBlock: JUFBIX_clean_sbu_0, # of connection points: 6
#     Edge 3, Type (0, 0), BuildingBlock: XUDNAN_clean_linker_2, # of connection points: 2
#     Edge 4, Type (0, 0), BuildingBlock: XUDNAN_clean_linker_2, # of connection points: 2
#     Edge 5, Type (0, 0), BuildingBlock: XUDNAN_clean_linker_2, # of connection points: 2
#     Edge 6, Type (0, 0), BuildingBlock: XUDNAN_clean_linker_2, # of connection points: 2
#     Edge 7, Type (0, 0), BuildingBlock: XUDNAN_clean_linker_2, # of connection points: 2
#     Edge 8, Type (0, 0), BuildingBlock: XUDNAN_clean_linker_2, # of connection points: 2
#     Edge 9, Type (0, 0), BuildingBlock: XUDNAN_clean_linker_2, # of connection points: 2
#     Edge 10, Type (0, 0), BuildingBlock: XUDNAN_clean_linker_2, # of connection points: 2
#     Edge 11, Type (0, 0), BuildingBlock: XUDNAN_clean_linker_2, # of connection points: 2
# Relax obj value: 0.260
# Max RMSD: 0.229
# Mean RMSD: 0.152
data_MOF--net-kag--node1-JUFBIX_clean_sbu_0--edge1-XUDNAN_clean_linker_2
_symmetry_space_group_name_H-M    P1
_symmetry_Int_Tables_number       1
_symmetry_cell_setting            triclinic
loop_
_symmetry_equiv_pos_as_xyz
'x, y, z'
_cell_length_a     29.777285
_cell_length_b     38.30397
_cell_length_c     14.909455
_cell_angle_alpha  90.275114
_cell_angle_beta   93.705301
_cell_angle_gamma 120.89682
loop_
_atom_site_label
_atom_site_type_symbol
_atom_site_fract_x
_atom_site_fract_y
_atom_site_fract_z
_atom_type_partial_charge
Co0 Co 0.9814 0.4554 0.02261 0.0
C1 C 0.01263 0.49418 0.85775 0.0
Co2 Co 0.0372 0.52167 0.03204 0.0
C3 C 0.89228 0.37308 0.04172 0.0
C4 C 0.9452 0.37675 0.94657 0.0
N5 N 0.93686 0.39969 1.0043 0.0
N6 N 0.87274 0.3344 0.00956 0.0
C7 C 0.90605 0.33684 0.94952 0.0
H8 H 0.8749 0.38193 0.09194 0.0
H9 H 0.97779 0.38838 0.90452 0.0
C10 C 1.00529 0.48509 0.19698 0.0
N11 N 0.08511 0.57686 0.05095 0.0
C12 C 0.09708 0.6085 0.99776 0.0
C13 C 0.12223 0.59257 0.12062 0.0
N14 N 0.14059 0.64287 0.03141 0.0
C15 C 0.15623 0.63299 0.10878 0.0
C16 C 0.93282 0.50105 0.01961 0.0
O17 O 0.97806 0.45129 0.15221 0.0
O18 O 0.03308 0.51704 0.15549 0.0
O19 O 0.98026 0.53051 0.02599 0.0
O20 O 0.92341 0.46455 0.01631 0.0
O21 O 0.04023 0.526 0.90807 0.0
H22 H 0.12616 0.57527 0.17445 0.0
H23 H 0.07641 0.60589 0.9333 0.0
O24 O 0.98463 0.46024 0.89343 0.0
O25 O 0.03991 0.44725 0.02931 0.0
O26 O 0.09417 0.51301 0.03773 0.0
C27 C 0.08669 0.47738 0.03489 0.0
H28 H 0.90189 0.31173 0.90881 0.0
H29 H 0.19091 0.65333 0.15208 0.0
Co30 Co 0.5084 0.9801 0.97661 0.0
C31 C 0.48939 -0.00132 0.80366 0.0
Co32 Co 0.45536 0.00438 0.96851 0.0
C33 C 0.53386 0.91851 0.01646 0.0
C34 C 0.59456 0.96796 0.94973 0.0
N35 N 0.54791 0.95522 0.98335 0.0
N36 N 0.56945 0.90744 1.00379 0.0
C37 C 0.60789 0.9387 0.96215 0.0
H38 H 0.49704 0.89949 0.04591 0.0
H39 H 0.61672 -0.00383 0.91609 0.0
C40 C 0.47467 0.98829 0.14177 0.0
N41 N 0.41677 0.02976 0.96168 0.0
C42 C 0.4324 0.06529 0.92193 0.0
C43 C 0.37526 0.02291 0.00626 0.0
N44 N 0.40387 0.08205 0.94229 0.0
C45 C 0.36725 0.05507 0.99457 0.0
C46 C 0.39992 0.92258 0.94505 0.0
O47 O 0.50333 0.97718 0.10589 0.0
O48 O 0.4488 -0.0004 0.09177 0.0
O49 O 0.39427 0.95321 0.94611 0.0
O50 O 0.44573 0.92791 0.95802 0.0
O51 O 0.46248 0.00946 0.84553 0.0
H52 H 0.3547 -0.0022 0.04963 0.0
H53 H 0.46637 0.07965 0.8831 0.0
O54 O 0.51333 0.9837 0.84725 0.0
O55 O 0.57063 0.03308 0.99533 0.0
O56 O 0.51639 0.05567 0.99175 0.0
C57 C 0.56287 0.06268 1.00172 0.0
H58 H 0.6429 0.9402 0.94096 0.0
H59 H 0.33924 0.05953 0.02786 0.0
Co60 Co 0.50201 0.47011 0.02167 0.0
C61 C 0.52347 0.50569 0.1944 0.0
Co62 Co 0.53415 0.53648 0.02547 0.0
C63 C 0.48059 0.38876 0.9789 0.0
C64 C 0.43121 0.39004 0.07544 0.0
N65 N 0.47067 0.41425 0.02459 0.0
N66 N 0.44867 0.34954 0.99919 0.0
C67 C 0.41763 0.35036 0.06004 0.0
H68 H 0.51045 0.39886 0.93147 0.0
H69 H 0.41367 0.40066 0.12145 0.0
C70 C 0.51416 0.49923 0.85288 0.0
N71 N 0.56484 0.59281 0.02245 0.0
C72 C 0.54658 0.61688 0.04825 0.0
C73 C 0.60993 0.61821 0.98517 0.0
N74 N 0.57838 0.65619 0.02786 0.0
C75 C 0.61845 0.65698 0.98876 0.0
C76 C 0.60918 0.5119 0.02893 0.0
O77 O 0.49821 0.46723 0.89686 0.0
O78 O 0.53074 0.53319 0.89511 0.0
O79 O 0.6025 0.54219 0.03069 0.0
O80 O 0.56925 0.47615 0.02533 0.0
O81 O 0.53773 0.53908 0.15596 0.0
H82 H 0.6345 0.60904 0.95477 0.0
H83 H 0.50967 0.60547 0.07821 0.0
O84 O 0.50661 0.47332 0.14651 0.0
O85 O 0.43495 0.46389 0.0177 0.0
O86 O 0.46522 0.52939 0.0205 0.0
C87 C 0.42638 0.49304 0.01802 0.0
H88 H 0.38812 0.32429 0.09308 0.0
H89 H 0.65149 0.68357 0.96346 0.0
H90 H 0.98036 0.4338 0.72288 0.0
H91 H 0.04207 0.56328 0.76988 0.0
H92 H 0.04107 0.5721 0.60741 0.0
H93 H 0.05615 0.44509 0.53497 0.0
H94 H 1.00514 0.40045 0.47185 0.0
H95 H 1.00725 0.40269 0.59288 0.0
H96 H 0.91188 0.38791 0.58371 0.0
H97 H 0.90952 0.38572 0.46256 0.0
H98 H 0.89552 0.42024 0.51974 0.0
H99 H 0.03581 0.56891 0.44586 0.0
H100 H 0.03137 0.55506 0.28504 0.0
H101 H 0.975 0.42744 0.33096 0.0
C102 C 0.99328 0.46386 0.69854 0.0
C103 C 0.01128 0.49788 0.75918 0.0
C104 C 0.0284 0.53683 0.72506 0.0
C105 C 0.02771 0.54216 0.63272 0.0
C106 C 0.01007 0.50833 0.57491 0.0
C107 C 0.99346 0.46994 0.60555 0.0
C108 C 0.97893 0.43954 0.52687 0.0
C109 C 0.01397 0.42084 0.53197 0.0
C110 C 0.92048 0.40639 0.52301 0.0
C111 C 0.9906 0.46719 0.44784 0.0
C112 C 0.00799 0.50657 0.47836 0.0
C113 C 0.02234 0.53826 0.42081 0.0
C114 C 0.01983 0.52993 0.32921 0.0
C115 C 1.00332 0.49015 0.29493 0.0
C116 C 0.98764 0.45806 0.35507 0.0
H117 H 0.5063 0.95456 0.28018 0.0
H118 H 0.44551 0.03487 0.2269 0.0
H119 H 0.44917 0.04838 0.38813 0.0
H120 H 0.43259 0.91084 0.47525 0.0
H121 H 0.48404 0.90757 0.53792 0.0
H122 H 0.47947 0.9048 0.41673 0.0
H123 H 0.57541 0.96497 0.41826 0.0
H124 H 0.58012 0.96811 0.53952 0.0
H125 H 0.59405 0.0123 0.47703 0.0
H126 H 0.45889 0.05474 0.54978 0.0
H127 H 0.46587 0.04841 0.71222 0.0
H128 H 0.51704 0.96193 0.67282 0.0
C129 C 0.49385 0.97494 0.30286 0.0
C130 C 0.47559 0.9936 0.24046 0.0
C131 C 0.45929 0.0199 0.27277 0.0
C132 C 0.46156 0.02811 0.36453 0.0
C133 C 0.47978 0.00959 0.42405 0.0
C134 C 0.49503 0.98313 0.39554 0.0
C135 C 0.5104 0.9661 0.47617 0.0
C136 C 0.47447 0.91956 0.47652 0.0
C137 C 0.56846 0.97863 0.47781 0.0
C138 C 0.50097 0.9871 0.55354 0.0
C139 C 0.48399 0.01238 0.52073 0.0
C140 C 0.47193 0.03496 0.57668 0.0
C141 C 0.47598 0.03102 0.66913 0.0
C142 C 0.49159 0.0044 0.70557 0.0
C143 C 0.50524 0.98263 0.64696 0.0
H144 H 0.52336 0.55402 0.72228 0.0
H145 H 0.5128 0.43768 0.76183 0.0
H146 H 0.51952 0.4306 0.60105 0.0
H147 H 0.44423 0.52324 0.51074 0.0
H148 H 0.48208 0.5715 0.45977 0.0
H149 H 0.4793 0.56959 0.58011 0.0
H150 H 0.58079 0.60768 0.60054 0.0
H151 H 0.58386 0.60957 0.48016 0.0
H152 H 0.61516 0.58733 0.54551 0.0
H153 H 0.52607 0.43398 0.44126 0.0
H154 H 0.52629 0.44525 0.28046 0.0
H155 H 0.53015 0.55869 0.33199 0.0
C156 C 0.52268 0.52723 0.69674 0.0
C157 C 0.51747 0.49638 0.75486 0.0
C158 C 0.51635 0.4616 0.71898 0.0
C159 C 0.5205 0.45735 0.62761 0.0
C160 C 0.52545 0.48797 0.57224 0.0
C161 C 0.52614 0.52212 0.60436 0.0
C162 C 0.52939 0.54916 0.52736 0.0
C163 C 0.48085 0.55362 0.51902 0.0
C164 C 0.58034 0.59092 0.53912 0.0
C165 C 0.52995 0.52444 0.44759 0.0
C166 C 0.5282 0.48956 0.47639 0.0
C167 C 0.52737 0.46111 0.41748 0.0
C168 C 0.52733 0.46785 0.32593 0.0
C169 C 0.52782 0.50274 0.29318 0.0
C170 C 0.53001 0.53188 0.35506 0.0
H171 H 0.19121 0.53635 0.0426 0.0
H172 H 0.08485 0.40521 0.02507 0.0
H173 H 0.16052 0.39564 0.01833 0.0
H174 H 0.2807 0.53927 0.8894 0.0
H175 H 0.33841 0.57946 0.95172 0.0
H176 H 0.27616 0.57625 0.9573 0.0
H177 H 0.28464 0.57455 0.13098 0.0
H178 H 0.34705 0.57794 0.126 0.0
H179 H 0.29537 0.53658 0.18197 0.0
H180 H 0.24658 0.40014 0.01107 0.0
H181 H 0.33816 0.41777 0.00708 0.0
H182 H 0.38998 0.54645 0.02893 0.0
C183 C 0.18377 0.50558 0.03783 0.0
C184 C 0.13203 0.47145 0.03454 0.0
C185 C 0.12407 0.43176 0.02795 0.0
C186 C 0.16679 0.42603 0.02393 0.0
C187 C 0.21715 0.46031 0.02659 0.0
C188 C 0.22594 0.49931 0.03366 0.0
C189 C 0.28404 0.53091 0.03462 0.0
C190 C 0.29548 0.55806 0.95341 0.0
C191 C 0.30394 0.5565 0.12371 0.0
C192 C 0.30658 0.50352 0.02684 0.0
C193 C 0.26716 0.46294 0.02225 0.0
C194 C 0.27779 0.43177 0.01474 0.0
C195 C 0.33011 0.44221 0.01244 0.0
C196 C 0.37146 0.48357 0.01764 0.0
C197 C 0.35934 0.51461 0.0246 0.0
H198 H 0.66915 0.09625 0.98547 0.0
H199 H 0.55337 0.12535 0.06185 0.0
H200 H 0.62224 0.19734 0.08653 0.0
H201 H 0.77897 0.17188 0.14249 0.0
H202 H 0.82698 0.18415 0.06181 0.0
H203 H 0.76963 0.13377 0.05977 0.0
H204 H 0.74651 0.14039 0.89255 0.0
H205 H 0.80362 0.19073 0.89415 0.0
H206 H 0.7397 0.18294 0.8611 0.0
H207 H 0.70135 0.26682 0.09136 0.0
H208 H 0.78574 0.32956 0.07084 0.0
H209 H 0.851 0.25632 0.99297 0.0
C210 C 0.65862 0.11769 0.00911 0.0
C211 C 0.60597 0.10512 0.02201 0.0
C212 C 0.59347 0.13421 0.05138 0.0
C213 C 0.63235 0.17523 0.06612 0.0
C214 C 0.6837 0.18685 0.05142 0.0
C215 C 0.69707 0.15905 0.02367 0.0
C216 C 0.75462 0.18029 0.00626 0.0
C217 C 0.7843 0.16671 0.07149 0.0
C218 C 0.76148 0.17316 0.90767 0.0
C219 C 0.77088 0.22425 0.02632 0.0
C220 C 0.72956 0.22731 0.05342 0.0
C221 C 0.73432 0.26488 0.07136 0.0
C222 C 0.78249 0.30038 0.0599 0.0
C223 C 0.8251 0.29803 0.03012 0.0
C224 C 0.81918 0.2593 0.01496 0.0
H225 H 0.61479 0.87147 0.91962 0.0
H226 H 0.51312 0.85522 0.13132 0.0
H227 H 0.50336 0.78832 0.16083 0.0
H228 H 0.54579 0.7681 0.83599 0.0
H229 H 0.60446 0.76819 0.81242 0.0
H230 H 0.60346 0.81477 0.80897 0.0
H231 H 0.68455 0.84944 0.92482 0.0
H232 H 0.68585 0.80298 0.92851 0.0
H233 H 0.68233 0.82639 0.03087 0.0
H234 H 0.50527 0.72248 0.16678 0.0
H235 H 0.5189 0.66442 0.14855 0.0
H236 H 0.61853 0.72484 0.93196 0.0
C237 C 0.59103 0.85426 0.97307 0.0
C238 C 0.56491 0.86888 0.02329 0.0
C239 C 0.53322 0.84465 0.09131 0.0
C240 C 0.52761 0.80664 0.10887 0.0
C241 C 0.55389 0.7932 0.05782 0.0
C242 C 0.58495 0.81635 0.9913 0.0
C243 C 0.60859 0.79501 0.94505 0.0
C244 C 0.58941 0.78598 0.84468 0.0
C245 C 0.6689 0.81994 0.95814 0.0
C246 C 0.58629 0.75629 0.99622 0.0
C247 C 0.55477 0.75564 0.06095 0.0
C248 C 0.52987 0.72271 0.11617 0.0
C249 C 0.53763 0.68974 0.10501 0.0
C250 C 0.57005 0.68991 0.03915 0.0
C251 C 0.59432 0.72377 0.98411 0.0
H252 H 0.82557 0.44671 0.01652 0.0
H253 H 0.94259 0.57585 0.02076 0.0
H254 H 0.87289 0.59216 0.02382 0.0
H255 H 0.72603 0.45209 0.87322 0.0
H256 H 0.67213 0.41451 0.93242 0.0
H257 H 0.73117 0.41254 0.92928 0.0
H258 H 0.74015 0.41422 0.10343 0.0
H259 H 0.68124 0.41634 0.10703 0.0
H260 H 0.74142 0.45504 0.16652 0.0
H261 H 0.79142 0.59522 0.02888 0.0
H262 H 0.70247 0.58443 0.03246 0.0
H263 H 0.63713 0.45357 0.02452 0.0
C264 C 0.83648 0.47839 0.01763 0.0
C265 C 0.88974 0.50995 0.01837 0.0
C266 C 0.90223 0.55104 0.02017 0.0
C267 C 0.86287 0.56071 0.02196 0.0
C268 C 0.81096 0.52902 0.02182 0.0
C269 C 0.79752 0.48868 0.0194 0.0
C270 C 0.73851 0.46061 0.02021 0.0
C271 C 0.71562 0.43333 0.93362 0.0
C272 C 0.72453 0.43505 0.10432 0.0
C273 C 0.72115 0.49155 0.02373 0.0
C274 C 0.76365 0.53081 0.02464 0.0
C275 C 0.75776 0.56461 0.02807 0.0
C276 C 0.70703 0.55816 0.03021 0.0
C277 C 0.6627 0.5182 0.02888 0.0
C278 C 0.67013 0.48453 0.02575 0.0
H279 H 0.24485 0.68686 0.02132 0.0
H280 H 0.10057 0.68539 0.95132 0.0
H281 H 0.15212 0.75651 0.90241 0.0
H282 H 0.31476 0.78253 0.11827 0.0
H283 H 0.37706 0.79573 0.07756 0.0
H284 H 0.32883 0.74327 0.09203 0.0
H285 H 0.33185 0.72567 0.92521 0.0
H286 H 0.38061 0.77821 0.91058 0.0
H287 H 0.32094 0.75337 0.83759 0.0
H288 H 0.22013 0.83072 0.88619 0.0
H289 H 0.29815 0.90028 0.89406 0.0
H290 H 0.39725 0.85123 0.97122 0.0
C291 C 0.22424 0.70133 0.99373 0.0
C292 C 0.16906 0.68118 0.99009 0.0
C293 C 0.14295 0.70059 0.95366 0.0
C294 C 0.1719 0.74081 0.92603 0.0
C295 C 0.22663 0.76047 0.93372 0.0
C296 C 0.25244 0.74101 0.9652 0.0
C297 C 0.31131 0.76937 0.97362 0.0
C298 C 0.33429 0.77293 0.07114 0.0
C299 C 0.33772 0.75585 0.90779 0.0
C300 C 0.31469 0.80848 0.94625 0.0
C301 C 0.2656 0.80278 0.92251 0.0
C302 C 0.25881 0.83537 0.90263 0.0
C303 C 0.30328 0.87475 0.90776 0.0
C304 C 0.35373 0.88106 0.93271 0.0
C305 C 0.35933 0.84733 0.95058 0.0
H306 H 0.36732 0.27126 0.98988 0.0
H307 H 0.53151 0.34737 0.93903 0.0
H308 H 0.53444 0.28596 0.90002 0.0
H309 H 0.37983 0.19743 0.10106 0.0
H310 H 0.31779 0.15486 0.05656 0.0
H311 H 0.32612 0.20469 0.06659 0.0
H312 H 0.29825 0.20062 0.89672 0.0
H313 H 0.28958 0.15058 0.88618 0.0
H314 H 0.33241 0.19013 0.81516 0.0
H315 H 0.52283 0.21689 0.88676 0.0
H316 H 0.49816 0.14567 0.89794 0.0
H317 H 0.34048 0.11355 0.95588 0.0
C318 C 0.40377 0.27511 0.96955 0.0
C319 C 0.4492 0.31419 0.96754 0.0
C320 C 0.496 0.31785 0.93986 0.0
C321 C 0.49807 0.28311 0.9178 0.0
C322 C 0.45288 0.24503 0.92292 0.0
C323 C 0.40648 0.24083 0.94743 0.0
C324 C 0.36473 0.19648 0.95474 0.0
C325 C 0.34606 0.18788 0.05041 0.0
C326 C 0.31851 0.18371 0.88396 0.0
C327 C 0.39556 0.17642 0.93398 0.0
C328 C 0.44605 0.20494 0.91461 0.0
C329 C 0.48304 0.19416 0.89978 0.0
C330 C 0.46832 0.15324 0.90594 0.0
C331 C 0.41687 0.12333 0.92701 0.0
C332 C 0.37997 0.13533 0.93956 0.0
loop_
_geom_bond_atom_site_label_1
_geom_bond_atom_site_label_2
_geom_bond_distance
_geom_bond_site_symmetry_2
_ccdc_geom_bond_type
Co0 N5 2.057 1_554 S
Co0 O17 2.021 . S
Co0 O20 2.062 . S
Co0 O24 2.117 1_554 S
Co0 O25 2.020 1_655 S
C1 O21 1.259 . S
C1 O24 1.258 1_455 S
Co2 N11 2.057 1_556 S
Co2 O18 2.117 1_556 S
Co2 O19 2.020 1_455 S
Co2 O21 2.021 . S
Co2 O26 2.062 . S
C3 N5 1.316 1_554 S
C3 N6 1.347 1_554 S
C3 H8 0.931 . S
C4 N5 1.375 . S
C4 C7 1.350 . S
C4 H9 0.930 . S
N5 Co0 2.057 1_556 S
N5 C3 1.316 1_556 S
N5 C4 1.375 . S
N6 C3 1.347 1_556 S
N6 C7 1.373 . S
C7 C4 1.350 . S
C7 N6 1.373 . S
C7 H28 0.931 . S
H8 C3 0.931 . S
H9 C4 0.930 . S
C10 O17 1.259 . S
C10 O18 1.258 1_655 S
N11 Co2 2.057 1_554 S
N11 C12 1.316 1_554 S
N11 C13 1.375 . S
C12 N11 1.316 1_556 S
C12 N14 1.347 1_556 S
C12 H23 0.931 . S
C13 N11 1.375 . S
C13 C15 1.350 . S
C13 H22 0.930 . S
N14 C12 1.347 1_554 S
N14 C15 1.373 . S
C15 C13 1.350 . S
C15 N14 1.373 . S
C15 H29 0.931 . S
C16 O19 1.256 1_554 S
C16 O20 1.255 . S
O17 Co0 2.021 . S
O17 C10 1.259 . S
O18 Co2 2.117 1_554 S
O18 C10 1.258 1_455 S
O19 Co2 2.020 1_655 S
O19 C16 1.256 1_556 S
O20 Co0 2.062 . S
O20 C16 1.255 . S
O21 C1 1.259 . S
O21 Co2 2.021 . S
H22 C13 0.930 . S
H23 C12 0.931 . S
O24 Co0 2.117 1_556 S
O24 C1 1.258 1_655 S
O25 Co0 2.020 1_455 S
O25 C27 1.256 1_554 S
O26 Co2 2.062 . S
O26 C27 1.255 . S
C27 O25 1.256 1_556 S
C27 O26 1.255 . S
H28 C7 0.931 . S
H29 C15 0.931 . S
Co30 N35 2.057 1_554 S
Co30 O47 2.021 . S
Co30 O50 2.062 . S
Co30 O54 2.117 1_554 S
Co30 O55 2.020 1_565 S
C31 O51 1.259 . S
C31 O54 1.258 1_545 S
Co32 N41 2.057 1_556 S
Co32 O48 2.117 1_556 S
Co32 O49 2.020 1_545 S
Co32 O51 2.021 . S
Co32 O56 2.062 . S
C33 N35 1.316 1_554 S
C33 N36 1.347 1_554 S
C33 H38 0.931 . S
C34 N35 1.375 . S
C34 C37 1.350 . S
C34 H39 0.930 . S
N35 Co30 2.057 1_556 S
N35 C33 1.316 1_556 S
N35 C34 1.375 . S
N36 C33 1.347 1_556 S
N36 C37 1.373 . S
C37 C34 1.350 . S
C37 N36 1.373 . S
C37 H58 0.931 . S
H38 C33 0.931 . S
H39 C34 0.930 . S
C40 O47 1.259 . S
C40 O48 1.258 1_565 S
N41 Co32 2.057 1_554 S
N41 C42 1.316 1_554 S
N41 C43 1.375 . S
C42 N41 1.316 1_556 S
C42 N44 1.347 1_556 S
C42 H53 0.931 . S
C43 N41 1.375 . S
C43 C45 1.350 . S
C43 H52 0.930 . S
N44 C42 1.347 1_554 S
N44 C45 1.373 . S
C45 C43 1.350 . S
C45 N44 1.373 . S
C45 H59 0.931 . S
C46 O49 1.256 . S
C46 O50 1.254 1_556 S
O47 Co30 2.021 . S
O47 C40 1.259 . S
O48 Co32 2.117 1_554 S
O48 C40 1.258 1_545 S
O49 Co32 2.020 1_565 S
O49 C46 1.256 . S
O50 Co30 2.062 . S
O50 C46 1.254 1_554 S
O51 C31 1.259 . S
O51 Co32 2.021 . S
H52 C43 0.930 . S
H53 C42 0.931 . S
O54 Co30 2.117 1_556 S
O54 C31 1.258 1_565 S
O55 Co30 2.020 1_545 S
O55 C57 1.257 . S
O56 Co32 2.062 . S
O56 C57 1.254 1_556 S
C57 O55 1.257 . S
C57 O56 1.254 1_554 S
H58 C37 0.931 . S
H59 C45 0.931 . S
Co60 N65 2.057 1_556 S
Co60 O77 2.021 . S
Co60 O80 2.062 . S
Co60 O84 2.117 1_556 S
Co60 O85 2.020 . S
C61 O81 1.259 . S
C61 O84 1.258 . S
Co62 N71 2.057 1_554 S
Co62 O78 2.117 1_554 S
Co62 O79 2.020 . S
Co62 O81 2.021 . S
Co62 O86 2.062 . S
C63 N65 1.316 1_556 S
C63 N66 1.347 1_556 S
C63 H68 0.931 . S
C64 N65 1.375 . S
C64 C67 1.350 . S
C64 H69 0.930 . S
N65 Co60 2.057 1_554 S
N65 C63 1.316 1_554 S
N65 C64 1.375 . S
N66 C63 1.347 1_554 S
N66 C67 1.373 . S
C67 C64 1.350 . S
C67 N66 1.373 . S
C67 H88 0.931 . S
H68 C63 0.931 . S
H69 C64 0.930 . S
C70 O77 1.259 . S
C70 O78 1.258 . S
N71 Co62 2.057 1_556 S
N71 C72 1.316 1_556 S
N71 C73 1.375 . S
C72 N71 1.316 1_554 S
C72 N74 1.347 1_554 S
C72 H83 0.931 . S
C73 N71 1.375 . S
C73 C75 1.350 . S
C73 H82 0.930 . S
N74 C72 1.347 1_556 S
N74 C75 1.373 . S
C75 C73 1.350 . S
C75 N74 1.373 . S
C75 H89 0.931 . S
C76 O79 1.256 . S
C76 O80 1.254 1_554 S
O77 Co60 2.021 . S
O77 C70 1.259 . S
O78 Co62 2.117 1_556 S
O78 C70 1.258 . S
O79 Co62 2.020 . S
O79 C76 1.256 . S
O80 Co60 2.062 . S
O80 C76 1.254 1_556 S
O81 C61 1.259 . S
O81 Co62 2.021 . S
H82 C73 0.930 . S
H83 C72 0.931 . S
O84 Co60 2.117 1_554 S
O84 C61 1.258 . S
O85 Co60 2.020 . S
O85 C87 1.256 . S
O86 Co62 2.062 . S
O86 C87 1.254 1_554 S
C87 O85 1.256 . S
C87 O86 1.254 1_556 S
H88 C67 0.931 . S
H89 C75 0.931 . S
H90 C102 0.930 . S
H91 C104 0.930 . S
H92 C105 0.930 . S
H93 C109 0.959 . S
H94 C109 0.959 . S
H95 C109 0.961 . S
H96 C110 0.960 . S
H97 C110 0.961 . S
H98 C110 0.959 . S
H99 C113 0.920 . S
H100 C114 0.924 . S
H101 C116 0.930 . S
C102 H90 0.930 . S
C102 C103 1.399 . S
C102 C107 1.399 . S
C103 C102 1.399 . S
C103 C104 1.376 . S
C104 H91 0.930 . S
C104 C103 1.376 . S
C104 C105 1.388 . S
C105 H92 0.930 . S
C105 C104 1.388 . S
C105 C106 1.390 . S
C106 C105 1.390 . S
C106 C107 1.394 . S
C106 C112 1.465 . S
C107 C102 1.399 . S
C107 C106 1.394 . S
C107 C108 1.516 . S
C108 C107 1.516 . S
C108 C109 1.502 1_655 S
C108 C110 1.561 . S
C108 C111 1.526 . S
C109 H93 0.959 . S
C109 H94 0.959 . S
C109 H95 0.961 . S
C109 C108 1.502 1_455 S
C110 H96 0.960 . S
C110 H97 0.961 . S
C110 H98 0.959 . S
C110 C108 1.561 . S
C111 C108 1.526 . S
C111 C112 1.396 . S
C111 C116 1.390 . S
C112 C106 1.465 . S
C112 C111 1.396 . S
C112 C113 1.399 . S
C113 H99 0.920 . S
C113 C112 1.399 . S
C113 C114 1.381 1_655 S
C114 H100 0.924 . S
C114 C113 1.381 1_455 S
C114 C115 1.407 1_455 S
C115 C114 1.407 1_655 S
C115 C116 1.384 . S
C116 H101 0.930 . S
C116 C111 1.390 . S
C116 C115 1.384 . S
H117 C129 0.930 . S
H118 C131 0.930 . S
H119 C132 0.930 . S
H120 C136 0.959 . S
H121 C136 0.959 . S
H122 C136 0.961 . S
H123 C137 0.960 . S
H124 C137 0.961 . S
H125 C137 0.959 . S
H126 C140 0.929 . S
H127 C141 0.931 . S
H128 C143 0.930 . S
C129 H117 0.930 . S
C129 C130 1.399 1_565 S
C129 C134 1.399 . S
C130 C129 1.399 1_545 S
C130 C131 1.376 . S
C131 H118 0.930 . S
C131 C130 1.376 . S
C131 C132 1.388 . S
C132 H119 0.930 . S
C132 C131 1.388 . S
C132 C133 1.390 . S
C133 C132 1.390 . S
C133 C134 1.394 1_545 S
C133 C139 1.465 . S
C134 C129 1.399 . S
C134 C133 1.394 1_565 S
C134 C135 1.516 . S
C135 C134 1.516 . S
C135 C136 1.502 . S
C135 C137 1.561 . S
C135 C138 1.526 . S
C136 H120 0.959 . S
C136 H121 0.959 . S
C136 H122 0.961 . S
C136 C135 1.502 . S
C137 H123 0.960 . S
C137 H124 0.961 . S
C137 H125 0.959 . S
C137 C135 1.561 . S
C138 C135 1.526 . S
C138 C139 1.396 1_565 S
C138 C143 1.390 . S
C139 C133 1.465 . S
C139 C138 1.396 1_545 S
C139 C140 1.399 . S
C140 H126 0.929 . S
C140 C139 1.399 . S
C140 C141 1.385 . S
C141 H127 0.931 . S
C141 C140 1.385 . S
C141 C142 1.389 . S
C142 C141 1.389 . S
C142 C143 1.387 1_545 S
C143 H128 0.930 . S
C143 C138 1.390 . S
C143 C142 1.387 1_565 S
H144 C156 0.930 . S
H145 C158 0.930 . S
H146 C159 0.930 . S
H147 C163 0.959 . S
H148 C163 0.959 . S
H149 C163 0.961 . S
H150 C164 0.960 . S
H151 C164 0.961 . S
H152 C164 0.959 . S
H153 C167 0.929 . S
H154 C168 0.931 . S
H155 C170 0.930 . S
C156 H144 0.930 . S
C156 C157 1.399 . S
C156 C161 1.399 . S
C157 C156 1.399 . S
C157 C158 1.376 . S
C158 H145 0.930 . S
C158 C157 1.376 . S
C158 C159 1.388 . S
C159 H146 0.930 . S
C159 C158 1.388 . S
C159 C160 1.390 . S
C160 C159 1.390 . S
C160 C161 1.394 . S
C160 C166 1.465 . S
C161 C156 1.399 . S
C161 C160 1.394 . S
C161 C162 1.516 . S
C162 C161 1.516 . S
C162 C163 1.502 . S
C162 C164 1.561 . S
C162 C165 1.526 . S
C163 H147 0.959 . S
C163 H148 0.959 . S
C163 H149 0.961 . S
C163 C162 1.502 . S
C164 H150 0.960 . S
C164 H151 0.961 . S
C164 H152 0.959 . S
C164 C162 1.561 . S
C165 C162 1.526 . S
C165 C166 1.396 . S
C165 C170 1.390 . S
C166 C160 1.465 . S
C166 C165 1.396 . S
C166 C167 1.399 . S
C167 H153 0.929 . S
C167 C166 1.399 . S
C167 C168 1.385 . S
C168 H154 0.931 . S
C168 C167 1.385 . S
C168 C169 1.389 . S
C169 C168 1.389 . S
C169 C170 1.387 . S
C170 H155 0.930 . S
C170 C165 1.390 . S
C170 C169 1.387 . S
H171 C183 0.930 . S
H172 C185 0.930 . S
H173 C186 0.930 . S
H174 C190 0.959 . S
H175 C190 0.959 . S
H176 C190 0.961 . S
H177 C191 0.960 . S
H178 C191 0.961 . S
H179 C191 0.959 . S
H180 C194 0.929 . S
H181 C195 0.931 . S
H182 C197 0.930 . S
C183 H171 0.930 . S
C183 C184 1.399 1_554 S
C183 C188 1.399 . S
C184 C183 1.399 1_556 S
C184 C185 1.376 . S
C185 H172 0.930 . S
C185 C184 1.376 . S
C185 C186 1.388 . S
C186 H173 0.930 . S
C186 C185 1.388 . S
C186 C187 1.390 . S
C187 C186 1.390 . S
C187 C188 1.394 1_556 S
C187 C193 1.465 . S
C188 C183 1.399 . S
C188 C187 1.394 1_554 S
C188 C189 1.516 . S
C189 C188 1.516 . S
C189 C190 1.502 . S
C189 C191 1.561 . S
C189 C192 1.526 . S
C190 H174 0.959 . S
C190 H175 0.959 . S
C190 H176 0.961 . S
C190 C189 1.502 . S
C191 H177 0.960 . S
C191 H178 0.961 . S
C191 H179 0.959 . S
C191 C189 1.561 . S
C192 C189 1.526 . S
C192 C193 1.396 1_554 S
C192 C197 1.390 . S
C193 C187 1.465 . S
C193 C192 1.396 1_556 S
C193 C194 1.399 . S
C194 H180 0.929 . S
C194 C193 1.399 . S
C194 C195 1.385 . S
C195 H181 0.931 . S
C195 C194 1.385 . S
C195 C196 1.389 . S
C196 C195 1.389 . S
C196 C197 1.387 1_556 S
C197 H182 0.930 . S
C197 C192 1.390 . S
C197 C196 1.387 1_554 S
H198 C210 0.930 . S
H199 C212 0.930 . S
H200 C213 0.930 . S
H201 C217 0.959 . S
H202 C217 0.959 . S
H203 C217 0.961 . S
H204 C218 0.960 . S
H205 C218 0.961 . S
H206 C218 0.959 . S
H207 C221 0.929 . S
H208 C222 0.931 . S
H209 C224 0.930 . S
C210 H198 0.930 . S
C210 C211 1.399 1_556 S
C210 C215 1.399 . S
C211 C210 1.399 1_554 S
C211 C212 1.376 . S
C212 H199 0.930 . S
C212 C211 1.376 . S
C212 C213 1.388 . S
C213 H200 0.930 . S
C213 C212 1.388 . S
C213 C214 1.390 . S
C214 C213 1.390 . S
C214 C215 1.394 1_554 S
C214 C220 1.465 . S
C215 C210 1.399 . S
C215 C214 1.394 1_556 S
C215 C216 1.516 . S
C216 C215 1.516 . S
C216 C217 1.502 . S
C216 C218 1.561 . S
C216 C219 1.526 . S
C217 H201 0.959 . S
C217 H202 0.959 . S
C217 H203 0.961 . S
C217 C216 1.502 . S
C218 H204 0.960 . S
C218 H205 0.961 . S
C218 H206 0.959 . S
C218 C216 1.561 . S
C219 C216 1.526 . S
C219 C220 1.396 1_556 S
C219 C224 1.390 . S
C220 C214 1.465 . S
C220 C219 1.396 1_554 S
C220 C221 1.399 . S
C221 H207 0.929 . S
C221 C220 1.399 . S
C221 C222 1.385 . S
C222 H208 0.931 . S
C222 C221 1.385 . S
C222 C223 1.389 . S
C223 C222 1.389 . S
C223 C224 1.387 1_554 S
C224 H209 0.930 . S
C224 C219 1.390 . S
C224 C223 1.387 1_556 S
H225 C237 0.930 . S
H226 C239 0.930 . S
H227 C240 0.930 . S
H228 C244 0.959 . S
H229 C244 0.959 . S
H230 C244 0.961 . S
H231 C245 0.960 . S
H232 C245 0.961 . S
H233 C245 0.959 . S
H234 C248 0.929 . S
H235 C249 0.931 . S
H236 C251 0.930 . S
C237 H225 0.930 . S
C237 C238 1.399 1_556 S
C237 C242 1.399 . S
C238 C237 1.399 1_554 S
C238 C239 1.376 . S
C239 H226 0.930 . S
C239 C238 1.376 . S
C239 C240 1.388 . S
C240 H227 0.930 . S
C240 C239 1.388 . S
C240 C241 1.390 . S
C241 C240 1.390 . S
C241 C242 1.394 1_554 S
C241 C247 1.465 . S
C242 C237 1.399 . S
C242 C241 1.394 1_556 S
C242 C243 1.516 . S
C243 C242 1.516 . S
C243 C244 1.502 . S
C243 C245 1.561 . S
C243 C246 1.526 . S
C244 H228 0.959 . S
C244 H229 0.959 . S
C244 H230 0.961 . S
C244 C243 1.502 . S
C245 H231 0.960 . S
C245 H232 0.961 . S
C245 H233 0.959 . S
C245 C243 1.561 . S
C246 C243 1.526 . S
C246 C247 1.396 1_556 S
C246 C251 1.390 . S
C247 C241 1.465 . S
C247 C246 1.396 1_554 S
C247 C248 1.399 . S
C248 H234 0.929 . S
C248 C247 1.399 . S
C248 C249 1.385 . S
C249 H235 0.931 . S
C249 C248 1.385 . S
C249 C250 1.389 . S
C250 C249 1.389 . S
C250 C251 1.387 1_554 S
C251 H236 0.930 . S
C251 C246 1.390 . S
C251 C250 1.387 1_556 S
H252 C264 0.930 . S
H253 C266 0.930 . S
H254 C267 0.930 . S
H255 C271 0.959 . S
H256 C271 0.959 . S
H257 C271 0.961 . S
H258 C272 0.960 . S
H259 C272 0.961 . S
H260 C272 0.959 . S
H261 C275 0.929 . S
H262 C276 0.931 . S
H263 C278 0.930 . S
C264 H252 0.930 . S
C264 C265 1.399 1_554 S
C264 C269 1.399 . S
C265 C264 1.399 1_556 S
C265 C266 1.376 . S
C266 H253 0.930 . S
C266 C265 1.376 . S
C266 C267 1.388 . S
C267 H254 0.930 . S
C267 C266 1.388 . S
C267 C268 1.390 . S
C268 C267 1.390 . S
C268 C269 1.394 1_556 S
C268 C274 1.465 . S
C269 C264 1.399 . S
C269 C268 1.394 1_554 S
C269 C270 1.516 . S
C270 C269 1.516 . S
C270 C271 1.502 . S
C270 C272 1.561 . S
C270 C273 1.526 . S
C271 H255 0.959 . S
C271 H256 0.959 . S
C271 H257 0.961 . S
C271 C270 1.502 . S
C272 H258 0.960 . S
C272 H259 0.961 . S
C272 H260 0.959 . S
C272 C270 1.561 . S
C273 C270 1.526 . S
C273 C274 1.396 1_554 S
C273 C278 1.390 . S
C274 C268 1.465 . S
C274 C273 1.396 1_556 S
C274 C275 1.399 . S
C275 H261 0.929 . S
C275 C274 1.399 . S
C275 C276 1.385 . S
C276 H262 0.931 . S
C276 C275 1.385 . S
C276 C277 1.389 . S
C277 C276 1.389 . S
C277 C278 1.387 1_556 S
C278 H263 0.930 . S
C278 C273 1.390 . S
C278 C277 1.387 1_554 S
H279 C291 0.930 . S
H280 C293 0.930 . S
H281 C294 0.930 . S
H282 C298 0.959 . S
H283 C298 0.959 . S
H284 C298 0.961 . S
H285 C299 0.960 . S
H286 C299 0.961 . S
H287 C299 0.959 . S
H288 C302 0.929 . S
H289 C303 0.931 . S
H290 C305 0.930 . S
C291 H279 0.930 . S
C291 C292 1.399 1_556 S
C291 C296 1.399 . S
C292 C291 1.399 1_554 S
C292 C293 1.376 . S
C293 H280 0.930 . S
C293 C292 1.376 . S
C293 C294 1.388 . S
C294 H281 0.930 . S
C294 C293 1.388 . S
C294 C295 1.390 . S
C295 C294 1.390 . S
C295 C296 1.394 1_554 S
C295 C301 1.465 . S
C296 C291 1.399 . S
C296 C295 1.394 1_556 S
C296 C297 1.516 . S
C297 C296 1.516 . S
C297 C298 1.502 . S
C297 C299 1.561 . S
C297 C300 1.526 . S
C298 H282 0.959 . S
C298 H283 0.959 . S
C298 H284 0.961 . S
C298 C297 1.502 . S
C299 H285 0.960 . S
C299 H286 0.961 . S
C299 H287 0.959 . S
C299 C297 1.561 . S
C300 C297 1.526 . S
C300 C301 1.396 1_556 S
C300 C305 1.390 . S
C301 C295 1.465 . S
C301 C300 1.396 1_554 S
C301 C302 1.399 . S
C302 H288 0.929 . S
C302 C301 1.399 . S
C302 C303 1.385 . S
C303 H289 0.931 . S
C303 C302 1.385 . S
C303 C304 1.389 . S
C304 C303 1.389 . S
C304 C305 1.387 1_554 S
C305 H290 0.930 . S
C305 C300 1.390 . S
C305 C304 1.387 1_556 S
H306 C318 0.930 . S
H307 C320 0.930 . S
H308 C321 0.930 . S
H309 C325 0.959 . S
H310 C325 0.959 . S
H311 C325 0.961 . S
H312 C326 0.960 . S
H313 C326 0.961 . S
H314 C326 0.959 . S
H315 C329 0.929 . S
H316 C330 0.931 . S
H317 C332 0.930 . S
C318 H306 0.930 . S
C318 C319 1.399 . S
C318 C323 1.399 . S
C319 C318 1.399 . S
C319 C320 1.376 . S
C320 H307 0.930 . S
C320 C319 1.376 . S
C320 C321 1.388 . S
C321 H308 0.930 . S
C321 C320 1.388 . S
C321 C322 1.390 . S
C322 C321 1.390 . S
C322 C323 1.394 . S
C322 C328 1.465 . S
C323 C318 1.399 . S
C323 C322 1.394 . S
C323 C324 1.516 . S
C324 C323 1.516 . S
C324 C325 1.502 1_556 S
C324 C326 1.561 . S
C324 C327 1.526 . S
C325 H309 0.959 . S
C325 H310 0.959 . S
C325 H311 0.961 . S
C325 C324 1.502 1_554 S
C326 H312 0.960 . S
C326 H313 0.961 . S
C326 H314 0.959 . S
C326 C324 1.561 . S
C327 C324 1.526 . S
C327 C328 1.396 . S
C327 C332 1.390 . S
C328 C322 1.465 . S
C328 C327 1.396 . S
C328 C329 1.399 . S
C329 H315 0.929 . S
C329 C328 1.399 . S
C329 C330 1.385 . S
C330 H316 0.931 . S
C330 C329 1.385 . S
C330 C331 1.389 . S
C331 C330 1.389 . S
C331 C332 1.387 . S
C332 H317 0.930 . S
C332 C327 1.390 . S
C332 C331 1.387 . S
C103 C1 1.480 1_655 S
C115 C10 1.498 . S
C130 C40 1.487 1_545 S
C142 C31 1.498 . S
C157 C70 1.498 . S
C169 C61 1.491 . S
C184 C27 1.611 . S
C196 C87 1.606 . S
C211 C57 1.110 . S
C223 N6 1.158 1_554 S
C238 N36 0.822 1_554 S
C250 N74 0.819 1_554 S
C265 C16 1.615 1_556 S
C277 C76 1.608 1_556 S
C292 N14 1.080 . S
C304 C46 1.137 1_554 S
C319 N66 0.808 1_556 S
C331 N44 0.761 1_556 S
