# Generated by pormake.
# Topology ukm, (4)-cn, num edge types: 1
# Building blocks:
#     Node 0, Type 0, BuildingBlock: NAHDIM_clean_sbu_0, # of connection points: 4
#     Node 1, Type 0, BuildingBlock: NAHDIM_clean_sbu_0, # of connection points: 4
#     Node 2, Type 0, BuildingBlock: NAHDIM_clean_sbu_0, # of connection points: 4
#     Node 3, Type 0, BuildingBlock: NAHDIM_clean_sbu_0, # of connection points: 4
#     Node 4, Type 0, BuildingBlock: NAHDIM_clean_sbu_0, # of connection points: 4
#     Node 5, Type 0, BuildingBlock: NAHDIM_clean_sbu_0, # of connection points: 4
#     Node 6, Type 0, BuildingBlock: NAHDIM_clean_sbu_0, # of connection points: 4
#     Node 7, Type 0, BuildingBlock: NAHDIM_clean_sbu_0, # of connection points: 4
#     Node 8, Type 0, BuildingBlock: NAHDIM_clean_sbu_0, # of connection points: 4
#     Node 9, Type 0, BuildingBlock: NAHDIM_clean_sbu_0, # of connection points: 4
#     Node 10, Type 0, BuildingBlock: NAHDIM_clean_sbu_0, # of connection points: 4
#     Node 11, Type 0, BuildingBlock: NAHDIM_clean_sbu_0, # of connection points: 4
#     Node 12, Type 0, BuildingBlock: NAHDIM_clean_sbu_0, # of connection points: 4
#     Node 13, Type 0, BuildingBlock: NAHDIM_clean_sbu_0, # of connection points: 4
#     Node 14, Type 0, BuildingBlock: NAHDIM_clean_sbu_0, # of connection points: 4
#     Node 15, Type 0, BuildingBlock: NAHDIM_clean_sbu_0, # of connection points: 4
#     Node 16, Type 0, BuildingBlock: NAHDIM_clean_sbu_0, # of connection points: 4
#     Node 17, Type 0, BuildingBlock: NAHDIM_clean_sbu_0, # of connection points: 4
#     Node 18, Type 0, BuildingBlock: NAHDIM_clean_sbu_0, # of connection points: 4
#     Node 19, Type 0, BuildingBlock: NAHDIM_clean_sbu_0, # of connection points: 4
#     Node 20, Type 0, BuildingBlock: NAHDIM_clean_sbu_0, # of connection points: 4
#     Node 21, Type 0, BuildingBlock: NAHDIM_clean_sbu_0, # of connection points: 4
#     Node 22, Type 0, BuildingBlock: NAHDIM_clean_sbu_0, # of connection points: 4
#     Node 23, Type 0, BuildingBlock: NAHDIM_clean_sbu_0, # of connection points: 4
#     Node 24, Type 0, BuildingBlock: NAHDIM_clean_sbu_0, # of connection points: 4
#     Node 25, Type 0, BuildingBlock: NAHDIM_clean_sbu_0, # of connection points: 4
#     Node 26, Type 0, BuildingBlock: NAHDIM_clean_sbu_0, # of connection points: 4
#     Node 27, Type 0, BuildingBlock: NAHDIM_clean_sbu_0, # of connection points: 4
#     Node 28, Type 0, BuildingBlock: NAHDIM_clean_sbu_0, # of connection points: 4
#     Node 29, Type 0, BuildingBlock: NAHDIM_clean_sbu_0, # of connection points: 4
#     Node 30, Type 0, BuildingBlock: NAHDIM_clean_sbu_0, # of connection points: 4
#     Node 31, Type 0, BuildingBlock: NAHDIM_clean_sbu_0, # of connection points: 4
#     Edge 32, Type (0, 0), BuildingBlock: CIFDUS_clean_linker_0, # of connection points: 2
#     Edge 33, Type (0, 0), BuildingBlock: CIFDUS_clean_linker_0, # of connection points: 2
#     Edge 34, Type (0, 0), BuildingBlock: CIFDUS_clean_linker_0, # of connection points: 2
#     Edge 35, Type (0, 0), BuildingBlock: CIFDUS_clean_linker_0, # of connection points: 2
#     Edge 36, Type (0, 0), BuildingBlock: CIFDUS_clean_linker_0, # of connection points: 2
#     Edge 37, Type (0, 0), BuildingBlock: CIFDUS_clean_linker_0, # of connection points: 2
#     Edge 38, Type (0, 0), BuildingBlock: CIFDUS_clean_linker_0, # of connection points: 2
#     Edge 39, Type (0, 0), BuildingBlock: CIFDUS_clean_linker_0, # of connection points: 2
#     Edge 40, Type (0, 0), BuildingBlock: CIFDUS_clean_linker_0, # of connection points: 2
#     Edge 41, Type (0, 0), BuildingBlock: CIFDUS_clean_linker_0, # of connection points: 2
#     Edge 42, Type (0, 0), BuildingBlock: CIFDUS_clean_linker_0, # of connection points: 2
#     Edge 43, Type (0, 0), BuildingBlock: CIFDUS_clean_linker_0, # of connection points: 2
#     Edge 44, Type (0, 0), BuildingBlock: CIFDUS_clean_linker_0, # of connection points: 2
#     Edge 45, Type (0, 0), BuildingBlock: CIFDUS_clean_linker_0, # of connection points: 2
#     Edge 46, Type (0, 0), BuildingBlock: CIFDUS_clean_linker_0, # of connection points: 2
#     Edge 47, Type (0, 0), BuildingBlock: CIFDUS_clean_linker_0, # of connection points: 2
#     Edge 48, Type (0, 0), BuildingBlock: CIFDUS_clean_linker_0, # of connection points: 2
#     Edge 49, Type (0, 0), BuildingBlock: CIFDUS_clean_linker_0, # of connection points: 2
#     Edge 50, Type (0, 0), BuildingBlock: CIFDUS_clean_linker_0, # of connection points: 2
#     Edge 51, Type (0, 0), BuildingBlock: CIFDUS_clean_linker_0, # of connection points: 2
#     Edge 52, Type (0, 0), BuildingBlock: CIFDUS_clean_linker_0, # of connection points: 2
#     Edge 53, Type (0, 0), BuildingBlock: CIFDUS_clean_linker_0, # of connection points: 2
#     Edge 54, Type (0, 0), BuildingBlock: CIFDUS_clean_linker_0, # of connection points: 2
#     Edge 55, Type (0, 0), BuildingBlock: CIFDUS_clean_linker_0, # of connection points: 2
#     Edge 56, Type (0, 0), BuildingBlock: CIFDUS_clean_linker_0, # of connection points: 2
#     Edge 57, Type (0, 0), BuildingBlock: CIFDUS_clean_linker_0, # of connection points: 2
#     Edge 58, Type (0, 0), BuildingBlock: CIFDUS_clean_linker_0, # of connection points: 2
#     Edge 59, Type (0, 0), BuildingBlock: CIFDUS_clean_linker_0, # of connection points: 2
#     Edge 60, Type (0, 0), BuildingBlock: CIFDUS_clean_linker_0, # of connection points: 2
#     Edge 61, Type (0, 0), BuildingBlock: CIFDUS_clean_linker_0, # of connection points: 2
#     Edge 62, Type (0, 0), BuildingBlock: CIFDUS_clean_linker_0, # of connection points: 2
#     Edge 63, Type (0, 0), BuildingBlock: CIFDUS_clean_linker_0, # of connection points: 2
#     Edge 64, Type (0, 0), BuildingBlock: CIFDUS_clean_linker_0, # of connection points: 2
#     Edge 65, Type (0, 0), BuildingBlock: CIFDUS_clean_linker_0, # of connection points: 2
#     Edge 66, Type (0, 0), BuildingBlock: CIFDUS_clean_linker_0, # of connection points: 2
#     Edge 67, Type (0, 0), BuildingBlock: CIFDUS_clean_linker_0, # of connection points: 2
#     Edge 68, Type (0, 0), BuildingBlock: CIFDUS_clean_linker_0, # of connection points: 2
#     Edge 69, Type (0, 0), BuildingBlock: CIFDUS_clean_linker_0, # of connection points: 2
#     Edge 70, Type (0, 0), BuildingBlock: CIFDUS_clean_linker_0, # of connection points: 2
#     Edge 71, Type (0, 0), BuildingBlock: CIFDUS_clean_linker_0, # of connection points: 2
#     Edge 72, Type (0, 0), BuildingBlock: CIFDUS_clean_linker_0, # of connection points: 2
#     Edge 73, Type (0, 0), BuildingBlock: CIFDUS_clean_linker_0, # of connection points: 2
#     Edge 74, Type (0, 0), BuildingBlock: CIFDUS_clean_linker_0, # of connection points: 2
#     Edge 75, Type (0, 0), BuildingBlock: CIFDUS_clean_linker_0, # of connection points: 2
#     Edge 76, Type (0, 0), BuildingBlock: CIFDUS_clean_linker_0, # of connection points: 2
#     Edge 77, Type (0, 0), BuildingBlock: CIFDUS_clean_linker_0, # of connection points: 2
#     Edge 78, Type (0, 0), BuildingBlock: CIFDUS_clean_linker_0, # of connection points: 2
#     Edge 79, Type (0, 0), BuildingBlock: CIFDUS_clean_linker_0, # of connection points: 2
#     Edge 80, Type (0, 0), BuildingBlock: CIFDUS_clean_linker_0, # of connection points: 2
#     Edge 81, Type (0, 0), BuildingBlock: CIFDUS_clean_linker_0, # of connection points: 2
#     Edge 82, Type (0, 0), BuildingBlock: CIFDUS_clean_linker_0, # of connection points: 2
#     Edge 83, Type (0, 0), BuildingBlock: CIFDUS_clean_linker_0, # of connection points: 2
#     Edge 84, Type (0, 0), BuildingBlock: CIFDUS_clean_linker_0, # of connection points: 2
#     Edge 85, Type (0, 0), BuildingBlock: CIFDUS_clean_linker_0, # of connection points: 2
#     Edge 86, Type (0, 0), BuildingBlock: CIFDUS_clean_linker_0, # of connection points: 2
#     Edge 87, Type (0, 0), BuildingBlock: CIFDUS_clean_linker_0, # of connection points: 2
#     Edge 88, Type (0, 0), BuildingBlock: CIFDUS_clean_linker_0, # of connection points: 2
#     Edge 89, Type (0, 0), BuildingBlock: CIFDUS_clean_linker_0, # of connection points: 2
#     Edge 90, Type (0, 0), BuildingBlock: CIFDUS_clean_linker_0, # of connection points: 2
#     Edge 91, Type (0, 0), BuildingBlock: CIFDUS_clean_linker_0, # of connection points: 2
#     Edge 92, Type (0, 0), BuildingBlock: CIFDUS_clean_linker_0, # of connection points: 2
#     Edge 93, Type (0, 0), BuildingBlock: CIFDUS_clean_linker_0, # of connection points: 2
#     Edge 94, Type (0, 0), BuildingBlock: CIFDUS_clean_linker_0, # of connection points: 2
#     Edge 95, Type (0, 0), BuildingBlock: CIFDUS_clean_linker_0, # of connection points: 2
# Relax obj value: 0.264
# Max RMSD: 0.216
# Mean RMSD: 0.216
data_MOF--net-ukm--node1-NAHDIM_clean_sbu_0--edge1-CIFDUS_clean_linker_0
_symmetry_space_group_name_H-M    P1
_symmetry_Int_Tables_number       1
_symmetry_cell_setting            triclinic
loop_
_symmetry_equiv_pos_as_xyz
'x, y, z'
_cell_length_a     22.796949
_cell_length_b     92.64654
_cell_length_c     33.766992
_cell_angle_alpha  89.983645
_cell_angle_beta   90.088791
_cell_angle_gamma 90.067122
loop_
_atom_site_label
_atom_site_type_symbol
_atom_site_fract_x
_atom_site_fract_y
_atom_site_fract_z
_atom_type_partial_charge
C0 C 0.97916 0.2822 0.29483 0.0
O1 O 0.01286 0.28328 0.32628 0.0
O2 O 0.08811 0.30908 0.31579 0.0
Zn3 Zn 0.02018 0.3113 0.27769 0.0
O4 O 0.052 0.31551 0.22383 0.0
C5 C 0.96112 0.33254 0.32684 0.0
O6 O 0.976 0.32402 0.3563 0.0
O7 O 0.97327 0.29304 0.27214 0.0
C8 C 0.1001 0.32203 0.21752 0.0
O9 O 0.13267 0.32623 0.24751 0.0
C10 C 0.1297 0.30039 0.30804 0.0
O11 O 0.12641 0.29243 0.27591 0.0
O12 O 0.97231 0.32864 0.29165 0.0
C13 C 0.18217 0.97107 0.24641 0.0
O14 O 0.12479 0.9701 0.24464 0.0
O15 O 0.09438 0.94441 0.30268 0.0
Zn16 Zn 0.16842 0.94166 0.27042 0.0
O17 O 0.14257 0.93368 0.21817 0.0
C18 C 0.19879 0.91387 0.29366 0.0
O19 O 0.14885 0.91189 0.27496 0.0
O20 O 0.21145 0.96031 0.25892 0.0
C21 C 0.17227 0.92604 0.19433 0.0
O22 O 0.22732 0.92305 0.20241 0.0
C23 C 0.04564 0.94609 0.28481 0.0
O24 O 0.04514 0.94711 0.24602 0.0
O25 O 0.21877 0.92663 0.29724 0.0
C26 C 0.02348 0.96361 0.93939 0.0
O27 O 0.0769 0.96391 0.92503 0.0
O28 O 0.11467 0.93717 0.8969 0.0
Zn29 Zn 0.03367 0.93354 0.91953 0.0
O30 O 0.04628 0.92258 0.96969 0.0
C31 C 0.95344 0.91129 0.89657 0.0
O32 O 0.94037 0.91173 0.93444 0.0
O33 O 0.99352 0.95206 0.93646 0.0
C34 C 0.08227 0.91223 0.97397 0.0
O35 O 0.11084 0.90732 0.94302 0.0
C36 C 0.15766 0.93931 0.92033 0.0
O37 O 0.14796 0.93999 0.95863 0.0
O38 O 0.98804 0.92078 0.88255 0.0
C39 C 0.23985 0.28128 0.92726 0.0
O40 O 0.19893 0.28217 0.89996 0.0
O41 O 0.15577 0.31112 0.89903 0.0
Zn42 Zn 0.23476 0.31257 0.92632 0.0
O43 O 0.22013 0.32139 0.97962 0.0
C44 C 0.32986 0.33297 0.90952 0.0
O45 O 0.3447 0.33081 0.9466 0.0
O46 O 0.2656 0.29271 0.93875 0.0
C47 C 0.25457 0.31882 0.00841 0.0
O48 O 0.30234 0.31123 0.00231 0.0
C49 C 0.11186 0.30685 0.91911 0.0
O50 O 0.11962 0.30339 0.95649 0.0
O51 O 0.28821 0.32559 0.89457 0.0
C52 C 0.95731 0.71248 0.70505 0.0
O53 O 0.92889 0.71013 0.67179 0.0
O54 O 0.84699 0.68652 0.69062 0.0
Zn55 Zn 0.91981 0.68346 0.72321 0.0
O56 O 0.89454 0.67703 0.77704 0.0
C57 C 0.97908 0.66718 0.6625 0.0
O58 O 0.96445 0.67822 0.64016 0.0
O59 O 0.96214 0.7023 0.73007 0.0
C60 C 0.84842 0.66964 0.78318 0.0
O61 O 0.81624 0.66538 0.75307 0.0
C62 C 0.80477 0.69378 0.70495 0.0
O63 O 0.81062 0.69962 0.74019 0.0
O64 O 0.96778 0.66763 0.69927 0.0
C65 C 0.81818 0.03184 0.72588 0.0
O66 O 0.85938 0.0341 0.7524 0.0
O67 O 0.94491 0.05395 0.67188 0.0
Zn68 Zn 0.86722 0.05784 0.69788 0.0
O69 O 0.88113 0.06314 0.75459 0.0
C70 C 0.86255 0.08682 0.68347 0.0
O71 O 0.9104 0.08502 0.70463 0.0
O72 O 0.81283 0.04066 0.69719 0.0
C73 C 0.83958 0.06904 0.77367 0.0
O74 O 0.78855 0.07086 0.75624 0.0
C75 C 0.97756 0.043 0.67706 0.0
O76 O 0.9598 0.03247 0.70018 0.0
O77 O 0.83304 0.07577 0.67319 0.0
C78 C 0.96645 0.03338 0.07149 0.0
O79 O 0.91163 0.03421 0.08308 0.0
O80 O 0.87248 0.06395 0.08064 0.0
Zn81 Zn 0.95923 0.06459 0.06827 0.0
O82 O 0.96553 0.071 0.01214 0.0
C83 C 0.02839 0.08961 0.08962 0.0
O84 O 0.04557 0.08893 0.05256 0.0
O85 O 0.99665 0.04488 0.06862 0.0
C86 C 0.9312 0.08024 -0.00306 0.0
O87 O 0.89226 0.08672 0.01938 0.0
C88 C 0.83497 0.05861 0.05681 0.0
O89 O 0.85295 0.05242 0.024 0.0
O90 O 0.99665 0.07951 0.10351 0.0
C91 C 0.77177 0.71283 0.06297 0.0
O92 O 0.82244 0.7103 0.04588 0.0
O93 O 0.88125 0.69138 0.11978 0.0
Zn94 Zn 0.8035 0.68617 0.0946 0.0
O95 O 0.8211 0.67825 0.04065 0.0
C96 C 0.73695 0.66021 0.11292 0.0
O97 O 0.71566 0.66182 0.07706 0.0
O98 O 0.7523 0.70373 0.08796 0.0
C99 C 0.78513 0.67811 0.01192 0.0
O100 O 0.73153 0.68294 0.01716 0.0
C101 C 0.92762 0.69254 0.09907 0.0
O102 O 0.92389 0.69147 0.06038 0.0
O103 O 0.7694 0.67007 0.12734 0.0
C104 C 0.05268 0.78822 0.79774 0.0
O105 O 0.07623 0.79096 0.83247 0.0
O106 O 0.15873 0.81615 0.8145 0.0
Zn107 Zn 0.08873 0.81756 0.77828 0.0
O108 O 0.11734 0.82332 0.7245 0.0
C109 C 0.99835 0.83192 0.82624 0.0
O110 O 0.99519 0.81976 0.84616 0.0
O111 O 0.05075 0.79814 0.77178 0.0
C112 C 0.16615 0.82953 0.71805 0.0
O113 O 0.20033 0.83295 0.74797 0.0
C114 C 0.19795 0.80676 0.8074 0.0
O115 O 0.19039 0.79781 0.77763 0.0
O116 O 0.03343 0.8329 0.79717 0.0
C117 C 0.24876 0.45599 0.77215 0.0
O118 O 0.21088 0.45026 0.7474 0.0
O119 O 0.15684 0.43023 0.84769 0.0
Zn120 Zn 0.22737 0.42913 0.8115 0.0
O121 O 0.19682 0.42207 0.7594 0.0
C122 C 0.32497 0.41402 0.85589 0.0
O123 O 0.33657 0.42582 0.87602 0.0
O124 O 0.26397 0.44888 0.80282 0.0
C125 C 0.21979 0.41241 0.73772 0.0
O126 O 0.26732 0.40571 0.74977 0.0
C127 C 0.11224 0.43708 0.83502 0.0
O128 O 0.11584 0.4438 0.80086 0.0
O129 O 0.28392 0.41402 0.83041 0.0
C130 C 0.02606 0.46201 0.46867 0.0
O131 O 0.07566 0.45918 0.48692 0.0
O132 O 0.1183 0.43363 0.41886 0.0
Zn133 Zn 0.04339 0.43303 0.45113 0.0
O134 O 0.06158 0.42972 0.50823 0.0
C135 C 0.97819 0.4126 0.40078 0.0
O136 O 0.99101 0.42117 0.37101 0.0
O137 O 0.00164 0.45208 0.44847 0.0
C138 C 0.08556 0.41835 0.52153 0.0
O139 O 0.10117 0.40808 0.4969 0.0
C140 C 0.1678 0.43559 0.43549 0.0
O141 O 0.17003 0.43746 0.474 0.0
O142 O 0.99395 0.41611 0.43551 0.0
C143 C 0.2477 0.78617 0.4476 0.0
O144 O 0.19672 0.78897 0.46391 0.0
O145 O 0.13749 0.80301 0.38429 0.0
Zn146 Zn 0.21162 0.81103 0.40883 0.0
O147 O 0.19035 0.82041 0.46049 0.0
C148 C 0.26978 0.83742 0.38209 0.0
O149 O 0.28615 0.83872 0.41921 0.0
O150 O 0.26657 0.79453 0.42054 0.0
C151 C 0.22709 0.82197 0.48849 0.0
O152 O 0.28192 0.81811 0.48294 0.0
C153 C 0.09107 0.80104 0.40444 0.0
O154 O 0.09143 0.80407 0.44244 0.0
O155 O 0.24262 0.82608 0.37128 0.0
C156 C 0.85639 0.21099 0.19084 0.0
O157 O 0.81277 0.20966 0.16564 0.0
O158 O 0.76338 0.18041 0.17793 0.0
Zn159 Zn 0.84444 0.17985 0.20221 0.0
O160 O 0.84041 0.17296 0.258 0.0
C161 C 0.93858 0.16792 0.14997 0.0
O162 O 0.94776 0.1809 0.13556 0.0
O163 O 0.87801 0.19979 0.20689 0.0
C164 C 0.80898 0.16306 0.27303 0.0
O165 O 0.77103 0.15604 0.25092 0.0
C166 C 0.72033 0.18437 0.19922 0.0
O167 O 0.72974 0.18794 0.23634 0.0
O168 O 0.89819 0.16588 0.17523 0.0
C169 C 0.78456 0.52236 0.19425 0.0
O170 O 0.82544 0.52494 0.22077 0.0
O171 O 0.90265 0.54658 0.13365 0.0
Zn172 Zn 0.82804 0.54914 0.16471 0.0
O173 O 0.85056 0.55391 0.22073 0.0
C174 C 0.80729 0.57843 0.15281 0.0
O175 O 0.85715 0.57847 0.17237 0.0
O176 O 0.7777 0.53118 0.16571 0.0
C177 C 0.81461 0.5603 0.24345 0.0
O178 O 0.76196 0.5635 0.23026 0.0
C179 C 0.93818 0.53622 0.1394 0.0
O180 O 0.92445 0.52606 0.16491 0.0
O181 O 0.78422 0.56641 0.14335 0.0
C182 C 0.91228 0.54095 0.52242 0.0
O183 O 0.86624 0.54422 0.50082 0.0
O184 O 0.81205 0.56833 0.56749 0.0
Zn185 Zn 0.89245 0.56971 0.54205 0.0
O186 O 0.88434 0.5738 0.48422 0.0
C187 C 0.96125 0.58589 0.6004 0.0
O188 O 0.95711 0.57425 0.62244 0.0
O189 O 0.93347 0.55049 0.54548 0.0
C190 C 0.85405 0.58365 0.46797 0.0
O191 O 0.82523 0.59288 0.49014 0.0
C192 C 0.76638 0.56547 0.5472 0.0
O193 O 0.77137 0.56327 0.50896 0.0
O194 O 0.93839 0.58594 0.56609 0.0
C195 C 0.83066 0.21166 0.53239 0.0
O196 O 0.87863 0.2096 0.51162 0.0
O197 O 0.95329 0.1942 0.60022 0.0
Zn198 Zn 0.8789 0.18779 0.57268 0.0
O199 O 0.89646 0.17939 0.51949 0.0
C200 C 0.85134 0.17026 0.64088 0.0
O201 O 0.87865 0.18053 0.6604 0.0
O202 O 0.82181 0.20392 0.56295 0.0
C203 C 0.85649 0.17197 0.50288 0.0
O204 O 0.80733 0.16956 0.52205 0.0
C205 C 0.0032 0.1933 0.58365 0.0
O206 O 0.0061 0.18922 0.54645 0.0
O207 O 0.84317 0.1717 0.60393 0.0
C208 C 0.6654 0.27131 0.78551 0.0
O209 O 0.71057 0.27303 0.76184 0.0
O210 O 0.77135 0.30102 0.81371 0.0
Zn211 Zn 0.6878 0.30085 0.79369 0.0
O212 O 0.68314 0.30233 0.7345 0.0
C213 C 0.64945 0.32974 0.79764 0.0
O214 O 0.68352 0.33016 0.76632 0.0
O215 O 0.6483 0.28199 0.80617 0.0
C216 C 0.6313 0.30179 0.72064 0.0
O217 O 0.58704 0.30068 0.74535 0.0
C218 C 0.81384 0.30606 0.79361 0.0
O219 O 0.80372 0.3111 0.75788 0.0
O220 O 0.64379 0.31786 0.8162 0.0
C221 C 0.62677 0.96289 0.78349 0.0
O222 O 0.58387 0.96097 0.75803 0.0
O223 O 0.50448 0.93869 0.82717 0.0
Zn224 Zn 0.5856 0.93554 0.80506 0.0
O225 O 0.58048 0.93094 0.74764 0.0
C226 C 0.65169 0.91611 0.86014 0.0
O227 O 0.66169 0.9271 0.88379 0.0
O228 O 0.63612 0.95327 0.80962 0.0
C229 C 0.54814 0.92122 0.7326 0.0
O230 O 0.51295 0.91366 0.75538 0.0
C231 C 0.46252 0.94303 0.80533 0.0
O232 O 0.47272 0.94604 0.76797 0.0
O233 O 0.62217 0.91792 0.82865 0.0
C234 C 0.60455 0.95283 0.43345 0.0
O235 O 0.65723 0.95223 0.44924 0.0
O236 O 0.71951 0.92967 0.39847 0.0
Zn237 Zn 0.64065 0.92515 0.42235 0.0
O238 O 0.64751 0.92385 0.48124 0.0
C239 C 0.63164 0.89519 0.42151 0.0
O240 O 0.67215 0.89751 0.44848 0.0
O241 O 0.5855 0.94184 0.4148 0.0
C242 C 0.60208 0.9201 0.50036 0.0
O243 O 0.55403 0.91678 0.48082 0.0
C244 C 0.76679 0.9282 0.41811 0.0
O245 O 0.76436 0.92335 0.45462 0.0
O246 O 0.61002 0.90593 0.40308 0.0
C247 C 0.61657 0.26795 0.42734 0.0
O248 O 0.56617 0.26854 0.44612 0.0
O249 O 0.49482 0.29053 0.3908 0.0
Zn250 Zn 0.57566 0.29515 0.41163 0.0
O251 O 0.57643 0.29807 0.47067 0.0
C252 C 0.59465 0.32524 0.40461 0.0
O253 O 0.56672 0.32466 0.43855 0.0
O254 O 0.63031 0.27832 0.40446 0.0
C255 C 0.62767 0.29993 0.48476 0.0
O256 O 0.67247 0.30028 0.46033 0.0
C257 C 0.44963 0.29701 0.40376 0.0
O258 O 0.45566 0.30647 0.43246 0.0
O259 O 0.60474 0.31357 0.38597 0.0
C260 C 0.42092 0.70133 0.19823 0.0
O261 O 0.36866 0.70074 0.21449 0.0
O262 O 0.30318 0.67995 0.15117 0.0
Zn263 Zn 0.37934 0.6745 0.17802 0.0
O264 O 0.36543 0.6715 0.23594 0.0
C265 C 0.38421 0.64462 0.16974 0.0
O266 O 0.34062 0.64637 0.19468 0.0
O267 O 0.43729 0.69092 0.17631 0.0
C268 C 0.4056 0.66631 0.25776 0.0
O269 O 0.45519 0.66217 0.24159 0.0
C270 C 0.25788 0.68312 0.17133 0.0
O271 O 0.26107 0.68299 0.21016 0.0
O272 O 0.40991 0.65574 0.15598 0.0
C273 C 0.38509 0.03429 0.16247 0.0
O274 O 0.44173 0.0357 0.16867 0.0
O275 O 0.47358 0.06433 0.12141 0.0
Zn276 Zn 0.39991 0.06405 0.1542 0.0
O277 O 0.42683 0.06524 0.21021 0.0
C278 C 0.30161 0.08331 0.12752 0.0
O279 O 0.27945 0.07263 0.10673 0.0
O280 O 0.35582 0.0453 0.15174 0.0
C281 C 0.3878 0.06658 0.23665 0.0
O282 O 0.33245 0.06734 0.22593 0.0
C283 C 0.50904 0.0744 0.13056 0.0
O284 O 0.49214 0.08415 0.15639 0.0
O285 O 0.34942 0.08158 0.14631 0.0
C286 C 0.43117 0.02087 0.51792 0.0
O287 O 0.38172 0.02305 0.49879 0.0
O288 O 0.32288 0.04497 0.57669 0.0
Zn289 Zn 0.39957 0.04809 0.54857 0.0
O290 O 0.37954 0.05444 0.49392 0.0
C291 C 0.43876 0.06686 0.61068 0.0
O292 O 0.40972 0.05759 0.63269 0.0
O293 O 0.44774 0.03008 0.54353 0.0
C294 C 0.42011 0.0573 0.4695 0.0
O295 O 0.47505 0.05618 0.48092 0.0
C296 C 0.28902 0.05585 0.57498 0.0
O297 O 0.30756 0.06755 0.55688 0.0
O298 O 0.44363 0.06443 0.57385 0.0
C299 C 0.37881 0.71323 0.53587 0.0
O300 O 0.42757 0.70965 0.51768 0.0
O301 O 0.47481 0.68665 0.58696 0.0
Zn302 Zn 0.39549 0.68489 0.56048 0.0
O303 O 0.40412 0.67893 0.5041 0.0
C304 C 0.30871 0.66901 0.61162 0.0
O305 O 0.29604 0.68099 0.63054 0.0
O306 O 0.355 0.70412 0.55903 0.0
C307 C 0.42842 0.6674 0.49218 0.0
O308 O 0.45304 0.65862 0.51782 0.0
C309 C 0.52188 0.68757 0.5669 0.0
O310 O 0.51916 0.68742 0.52807 0.0
O311 O 0.34728 0.66908 0.58454 0.0
C312 C 0.60408 0.76637 0.29149 0.0
O313 O 0.65054 0.76939 0.27006 0.0
O314 O 0.71887 0.78865 0.35033 0.0
Zn315 Zn 0.63994 0.79254 0.32577 0.0
O316 O 0.649 0.80071 0.27159 0.0
C317 C 0.61337 0.81088 0.39212 0.0
O318 O 0.64551 0.80153 0.41172 0.0
O319 O 0.59072 0.77468 0.32008 0.0
C320 C 0.68288 0.81099 0.26179 0.0
O321 O 0.71856 0.81668 0.28809 0.0
C322 C 0.76516 0.78608 0.33066 0.0
O323 O 0.76186 0.78483 0.29197 0.0
O324 O 0.60079 0.80834 0.35617 0.0
C325 C 0.60034 0.45209 0.25143 0.0
O326 O 0.55687 0.45005 0.22646 0.0
O327 O 0.48052 0.42858 0.29983 0.0
Zn328 Zn 0.55934 0.42484 0.27487 0.0
O329 O 0.55374 0.41975 0.21754 0.0
C330 C 0.5977 0.40719 0.33977 0.0
O331 O 0.58037 0.41833 0.36075 0.0
O332 O 0.61027 0.44257 0.27777 0.0
C333 C 0.51406 0.41314 0.19838 0.0
O334 O 0.46691 0.40846 0.21666 0.0
C335 C 0.43514 0.43369 0.28303 0.0
O336 O 0.43732 0.43733 0.24546 0.0
O337 O 0.59542 0.4079 0.30228 0.0
C338 C 0.6239 0.46138 0.92804 0.0
O339 O 0.6744 0.45833 0.94488 0.0
O340 O 0.73321 0.43894 0.88679 0.0
Zn341 Zn 0.64947 0.43405 0.90124 0.0
O342 O 0.64573 0.42575 0.95624 0.0
C343 C 0.58547 0.40892 0.87035 0.0
O344 O 0.55892 0.40894 0.90478 0.0
O345 O 0.60227 0.45239 0.90353 0.0
C346 C 0.59691 0.42639 0.97432 0.0
O347 O 0.55138 0.43214 0.95639 0.0
C348 C 0.77772 0.43334 0.90355 0.0
O349 O 0.76986 0.42405 0.93246 0.0
O350 O 0.62101 0.41907 0.86198 0.0
C351 C 0.62838 0.78494 0.97745 0.0
O352 O 0.57798 0.78766 0.99473 0.0
O353 O 0.52763 0.81083 0.92769 0.0
Zn354 Zn 0.60564 0.81315 0.95468 0.0
O355 O 0.59236 0.81782 0.01155 0.0
C356 C 0.65122 0.83213 0.89407 0.0
O357 O 0.62934 0.82243 0.86978 0.0
O358 O 0.65067 0.79452 0.95499 0.0
C359 C 0.63579 0.82214 0.03195 0.0
O360 O 0.68628 0.82439 0.01426 0.0
C361 C 0.48932 0.82057 0.93327 0.0
O362 O 0.50246 0.8316 0.95608 0.0
O363 O 0.64893 0.82985 0.93107 0.0
C364 C 0.48376 0.20083 0.72801 0.0
O365 O 0.43236 0.20115 0.74553 0.0
O366 O 0.36298 0.18144 0.67254 0.0
Zn367 Zn 0.43219 0.17502 0.70547 0.0
O368 O 0.40887 0.17237 0.76227 0.0
C369 C 0.4196 0.14577 0.6977 0.0
O370 O 0.37194 0.15001 0.71616 0.0
O371 O 0.49595 0.19016 0.70575 0.0
C372 C 0.44491 0.16613 0.78535 0.0
O373 O 0.49581 0.16188 0.77141 0.0
C374 C 0.31564 0.1862 0.68752 0.0
O375 O 0.31162 0.18753 0.72615 0.0
O376 O 0.45679 0.15522 0.68681 0.0
C377 C 0.33383 0.53571 0.70299 0.0
O378 O 0.37352 0.54124 0.72679 0.0
O379 O 0.42946 0.56347 0.65614 0.0
Zn380 Zn 0.34563 0.56384 0.67541 0.0
O381 O 0.3416 0.57064 0.73142 0.0
C382 C 0.26502 0.58687 0.65763 0.0
O383 O 0.24798 0.58466 0.69427 0.0
O384 O 0.31297 0.54357 0.67541 0.0
C385 C 0.36886 0.58101 0.7477 0.0
O386 O 0.40654 0.58872 0.72724 0.0
C387 C 0.47489 0.56235 0.67786 0.0
O388 O 0.46899 0.56109 0.71638 0.0
O389 O 0.30157 0.5782 0.64206 0.0
C390 C 0.39772 0.52214 -0.00349 0.0
O391 O 0.34711 0.5256 0.98045 0.0
O392 O 0.28879 0.54363 0.05099 0.0
Zn393 Zn 0.3722 0.54805 0.03521 0.0
O394 O 0.37003 0.55918 0.98471 0.0
C395 C 0.38943 0.56233 0.11019 0.0
O396 O 0.35157 0.55269 0.12293 0.0
O397 O 0.41843 0.5301 0.02387 0.0
C398 C 0.41287 0.56705 0.97401 0.0
O399 O 0.45981 0.56782 -0.00345 0.0
C400 C 0.2522 0.55389 0.04727 0.0
O401 O 0.2707 0.56637 0.0336 0.0
O402 O 0.40851 0.56137 0.07501 0.0
C403 C 0.28861 0.21689 0.08042 0.0
O404 O 0.33529 0.21541 0.10288 0.0
O405 O 0.37575 0.18628 0.09901 0.0
Zn406 Zn 0.2941 0.18586 0.07525 0.0
O407 O 0.30088 0.17953 0.01914 0.0
C408 C 0.25742 0.16675 0.13688 0.0
O409 O 0.29211 0.175 0.15825 0.0
O410 O 0.25974 0.20573 0.07034 0.0
C411 C 0.3327 0.1692 0.00715 0.0
O412 O 0.36355 0.1617 0.0328 0.0
C413 C 0.41991 0.18981 0.07813 0.0
O414 O 0.41185 0.19375 0.04115 0.0
O415 O 0.2453 0.17065 0.10179 0.0
H416 H 0.95178 0.39992 0.33009 0.0
H417 H 0.95668 0.39173 0.45596 0.0
H418 H 0.9424 0.36605 0.44422 0.0
H419 H 0.94455 0.34564 0.39808 0.0
H420 H 0.94143 0.35375 0.27217 0.0
H421 H 0.93776 0.37965 0.2842 0.0
C422 C 0.94854 0.39257 0.35498 0.0
C423 C 0.95675 0.39773 0.39373 0.0
C424 C 0.94121 0.37772 0.34806 0.0
C425 C 0.95149 0.38805 0.42571 0.0
C426 C 0.94346 0.37332 0.41907 0.0
C427 C 0.94182 0.35305 0.37327 0.0
C428 C 0.94475 0.34775 0.33434 0.0
C429 C 0.94078 0.36798 0.38032 0.0
C430 C 0.94018 0.35751 0.30252 0.0
C431 C 0.93831 0.37236 0.30932 0.0
H432 H 0.1968 0.8867 0.26609 0.0
H433 H 0.26908 0.91302 0.35946 0.0
H434 H 0.30594 0.89135 0.39295 0.0
H435 H 0.30534 0.86483 0.39961 0.0
H436 H 0.23211 0.83882 0.30551 0.0
H437 H 0.20912 0.86051 0.26791 0.0
C438 C 0.22126 0.88769 0.29355 0.0
C439 C 0.22929 0.90133 0.31081 0.0
C440 C 0.242 0.87525 0.31249 0.0
C441 C 0.26212 0.90257 0.34584 0.0
C442 C 0.28294 0.89019 0.36502 0.0
C443 C 0.2855 0.86388 0.37051 0.0
C444 C 0.26929 0.85021 0.35584 0.0
C445 C 0.27142 0.87644 0.34922 0.0
C446 C 0.24432 0.84919 0.31783 0.0
C447 C 0.23086 0.8616 0.29633 0.0
H448 H 0.91566 0.88534 0.92446 0.0
H449 H 0.96958 0.90707 0.81736 0.0
H450 H 0.97923 0.88389 0.7838 0.0
H451 H 0.98954 0.85769 0.78868 0.0
H452 H 0.94144 0.83587 0.89684 0.0
H453 H 0.91149 0.85885 0.92595 0.0
C454 C 0.92802 0.88505 0.89347 0.0
C455 C 0.94313 0.89791 0.8737 0.0
C456 C 0.93553 0.87165 0.87475 0.0
C457 C 0.95854 0.89732 0.83344 0.0
C458 C 0.96439 0.88406 0.81428 0.0
C459 C 0.97162 0.8579 0.81842 0.0
C460 C 0.9691 0.84513 0.84091 0.0
C461 C 0.95588 0.87117 0.83526 0.0
C462 C 0.94459 0.84556 0.87905 0.0
C463 C 0.92764 0.85872 0.89578 0.0
H464 H 0.32523 0.38962 0.81225 0.0
H465 H 0.38424 0.4069 0.92407 0.0
H466 H 0.40407 0.38245 0.94802 0.0
H467 H 0.38414 0.3564 0.94177 0.0
H468 H 0.31771 0.33954 0.83124 0.0
H469 H 0.32237 0.36357 0.80194 0.0
C470 C 0.34348 0.38807 0.84163 0.0
C471 C 0.35147 0.4 0.86682 0.0
C472 C 0.35277 0.37402 0.85557 0.0
C473 C 0.37677 0.39787 0.90432 0.0
C474 C 0.38778 0.38388 0.9181 0.0
C475 C 0.37228 0.3579 0.91093 0.0
C476 C 0.3491 0.34627 0.88901 0.0
C477 C 0.37284 0.37187 0.89473 0.0
C478 C 0.33461 0.34837 0.84897 0.0
C479 C 0.33702 0.36212 0.83224 0.0
H480 H 0.98215 0.61092 0.5611 0.0
H481 H 0.98967 0.59175 0.67755 0.0
H482 H 0.0065 0.61551 0.70681 0.0
H483 H 0.00276 0.64186 0.7001 0.0
H484 H 0.99057 0.661 0.58374 0.0
H485 H 0.99313 0.63707 0.55366 0.0
C486 C 0.98839 0.61189 0.59284 0.0
C487 C 0.98323 0.59962 0.61721 0.0
C488 C 0.99676 0.62559 0.60952 0.0
C489 C 0.99268 0.60104 0.65816 0.0
C490 C 0.00208 0.61463 0.67494 0.0
C491 C 0.00184 0.64083 0.6681 0.0
C492 C 0.99503 0.6532 0.64426 0.0
C493 C 0.0017 0.62703 0.65104 0.0
C494 C 0.99497 0.65167 0.60285 0.0
C495 C 0.99613 0.63797 0.5856 0.0
H496 H 0.8837 0.11084 0.72549 0.0
H497 H 0.79913 0.09572 0.61897 0.0
H498 H 0.7805 0.12073 0.59866 0.0
H499 H 0.79941 0.14668 0.60783 0.0
H500 H 0.88499 0.16148 0.71463 0.0
H501 H 0.89083 0.13672 0.73871 0.0
C502 C 0.86075 0.11303 0.69796 0.0
C503 C 0.8439 0.10156 0.67325 0.0
C504 C 0.8504 0.12733 0.68663 0.0
C505 C 0.81288 0.10444 0.63822 0.0
C506 C 0.80242 0.11871 0.62662 0.0
C507 C 0.8184 0.14453 0.6367 0.0
C508 C 0.8428 0.15589 0.65905 0.0
C509 C 0.82257 0.13023 0.65009 0.0
C510 C 0.86639 0.15294 0.69665 0.0
C511 C 0.87009 0.13877 0.71036 0.0
H512 H 0.95552 0.14295 0.18926 0.0
H513 H -0.0001 0.16485 0.0806 0.0
H514 H 0.04356 0.1426 0.05477 0.0
H515 H 0.05397 0.11617 0.05941 0.0
H516 H 0.00517 0.09442 0.16761 0.0
H517 H 0.97992 0.11749 0.19773 0.0
C518 C 0.9753 0.14291 0.16005 0.0
C519 C 0.97315 0.15539 0.13641 0.0
C520 C 0.99948 0.1301 0.14536 0.0
C521 C 0.00037 0.1553 0.09913 0.0
C522 C 0.0252 0.14258 0.08436 0.0
C523 C 0.03931 0.1165 0.08993 0.0
C524 C 0.0301 0.10355 0.11093 0.0
C525 C 0.02291 0.12978 0.10665 0.0
C526 C 0.01171 0.1042 0.15059 0.0
C527 C 0.9969 0.11739 0.16776 0.0
H528 H 0.81545 0.60302 0.19464 0.0
H529 H 0.73348 0.58466 0.09109 0.0
H530 H 0.69566 0.6085 0.07249 0.0
H531 H 0.69713 0.63488 0.08167 0.0
H532 H 0.78019 0.65293 0.18558 0.0
H533 H 0.80498 0.62878 0.20862 0.0
C534 C 0.78892 0.60423 0.16813 0.0
C535 C 0.77832 0.59224 0.1437 0.0
C536 C 0.76745 0.61788 0.15781 0.0
C537 C 0.74263 0.59382 0.11007 0.0
C538 C 0.72113 0.60742 0.09946 0.0
C539 C 0.71945 0.63353 0.10981 0.0
C540 C 0.73787 0.64573 0.13143 0.0
C541 C 0.73476 0.6196 0.12253 0.0
C542 C 0.76619 0.64375 0.16805 0.0
C543 C 0.78073 0.62994 0.18117 0.0
H544 H 0.54448 0.38239 0.89106 0.0
H545 H 0.62888 0.40547 0.79568 0.0
H546 H 0.65026 0.38269 0.76246 0.0
H547 H 0.65734 0.35641 0.76526 0.0
H548 H 0.57864 0.3332 0.86254 0.0
H549 H 0.54235 0.35589 0.89016 0.0
C550 C 0.5665 0.38247 0.86261 0.0
C551 C 0.58599 0.39561 0.8462 0.0
C552 C 0.58059 0.36931 0.84438 0.0
C553 C 0.61405 0.3955 0.80918 0.0
C554 C 0.62658 0.38248 0.79026 0.0
C555 C 0.63181 0.35626 0.79233 0.0
C556 C 0.62173 0.34315 0.81222 0.0
C557 C 0.6122 0.36933 0.80842 0.0
C558 C 0.58777 0.34316 0.84694 0.0
C559 C 0.56699 0.35613 0.86274 0.0
H560 H 0.68675 0.85523 0.93778 0.0
H561 H 0.64907 0.84194 0.81779 0.0
H562 H 0.65365 0.86701 0.79593 0.0
H563 H 0.6542 0.89267 0.81252 0.0
H564 H 0.68772 0.9062 0.93277 0.0
H565 H 0.69971 0.88099 0.95282 0.0
C566 C 0.68056 0.85777 0.9067 0.0
C567 C 0.66638 0.84674 0.87959 0.0
C568 C 0.68181 0.87225 0.89449 0.0
C569 C 0.65934 0.85022 0.83937 0.0
C570 C 0.66169 0.86456 0.82686 0.0
C571 C 0.66479 0.89014 0.84307 0.0
C572 C 0.66878 0.90127 0.87132 0.0
C573 C 0.67054 0.87567 0.85444 0.0
C574 C 0.68382 0.89782 0.91054 0.0
C575 C 0.69046 0.88341 0.92203 0.0
H576 H 0.56663 0.83406 0.35382 0.0
H577 H 0.64336 0.82104 0.46529 0.0
H578 H 0.65083 0.84625 0.48548 0.0
H579 H 0.64743 0.87185 0.46802 0.0
H580 H 0.5733 0.88507 0.35611 0.0
H581 H 0.55276 0.85983 0.33955 0.0
C582 C 0.58395 0.83669 0.38287 0.0
C583 C 0.60535 0.82567 0.40774 0.0
C584 C 0.58949 0.85123 0.3939 0.0
C585 C 0.6271 0.8293 0.4454 0.0
C586 C 0.63172 0.84372 0.45689 0.0
C587 C 0.62642 0.86923 0.44008 0.0
C588 C 0.61299 0.88026 0.41294 0.0
C589 C 0.61514 0.85476 0.43075 0.0
C590 C 0.58455 0.87674 0.3773 0.0
C591 C 0.57289 0.86232 0.36783 0.0
H592 H 0.59624 0.35088 0.44263 0.0
H593 H 0.62603 0.33151 0.32819 0.0
H594 H 0.63685 0.35549 0.29865 0.0
H595 H 0.62668 0.38181 0.30428 0.0
H596 H 0.5943 0.40098 0.41877 0.0
H597 H 0.59654 0.37715 0.44946 0.0
C598 C 0.60564 0.35188 0.41126 0.0
C599 C 0.6093 0.33946 0.38748 0.0
C600 C 0.61111 0.36565 0.3945 0.0
C601 C 0.6226 0.34092 0.34707 0.0
C602 C 0.62859 0.35463 0.33016 0.0
C603 C 0.62096 0.38081 0.33605 0.0
C604 C 0.60936 0.39315 0.3591 0.0
C605 C 0.62126 0.36705 0.35342 0.0
C606 C 0.60275 0.39166 0.40026 0.0
C607 C 0.6038 0.37803 0.41784 0.0
H608 H 0.44872 0.58625 0.08581 0.0
H609 H 0.34688 0.56938 0.18322 0.0
H610 H 0.34103 0.59347 0.21209 0.0
H611 H 0.3538 0.61956 0.20515 0.0
H612 H 0.45291 0.63667 0.10693 0.0
H613 H 0.471 0.61216 0.0829 0.0
C614 C 0.42618 0.58776 0.11376 0.0
C615 C 0.39743 0.57605 0.13199 0.0
C616 C 0.42166 0.60171 0.12968 0.0
C617 C 0.36894 0.57822 0.16837 0.0
C618 C 0.36525 0.59201 0.18479 0.0
C619 C 0.37974 0.61794 0.17861 0.0
C620 C 0.40101 0.62991 0.15738 0.0
C621 C 0.38952 0.60388 0.1649 0.0
C622 C 0.43557 0.62763 0.12357 0.0
C623 C 0.44586 0.61362 0.10982 0.0
H624 H 0.20526 0.14538 0.09347 0.0
H625 H 0.29322 0.15341 0.20475 0.0
H626 H 0.30804 0.1276 0.21383 0.0
H627 H 0.31209 0.10349 0.18458 0.0
H628 H 0.22669 0.09518 0.07281 0.0
H629 H 0.19417 0.12036 0.06973 0.0
C630 C 0.22639 0.14148 0.12021 0.0
C631 C 0.24966 0.15138 0.14784 0.0
C632 C 0.23629 0.12661 0.12475 0.0
C633 C 0.27579 0.14609 0.18266 0.0
C634 C 0.28469 0.13131 0.18776 0.0
C635 C 0.2858 0.10715 0.15972 0.0
C636 C 0.27326 0.09764 0.12838 0.0
C637 C 0.26793 0.12159 0.15802 0.0
C638 C 0.23765 0.10237 0.09699 0.0
C639 C 0.21923 0.11677 0.09519 0.0
H640 H 0.40305 0.07861 0.67984 0.0
H641 H 0.50681 0.08768 0.57599 0.0
H642 H 0.51602 0.11293 0.5962 0.0
H643 H 0.48425 0.13301 0.63937 0.0
H644 H 0.37423 0.12373 0.74012 0.0
H645 H 0.37806 0.09804 0.72526 0.0
C646 C 0.42868 0.08602 0.66198 0.0
C647 C 0.45376 0.0813 0.62634 0.0
C648 C 0.43199 0.10058 0.67298 0.0
C649 C 0.48671 0.09108 0.6035 0.0
C650 C 0.49179 0.10553 0.61494 0.0
C651 C 0.46194 0.12531 0.65831 0.0
C652 C 0.42845 0.13024 0.69046 0.0
C653 C 0.46298 0.11051 0.64897 0.0
C654 C 0.39959 0.12019 0.71481 0.0
C655 C 0.40184 0.10549 0.70642 0.0
H656 H 0.30494 0.64468 0.56777 0.0
H657 H 0.25208 0.66205 0.68076 0.0
H658 H 0.22288 0.63788 0.70271 0.0
H659 H 0.22722 0.61155 0.6931 0.0
H660 H 0.28498 0.59442 0.58082 0.0
H661 H 0.29614 0.61885 0.55495 0.0
C662 C 0.2864 0.64323 0.59708 0.0
C663 C 0.28197 0.65506 0.62298 0.0
C664 C 0.27074 0.62934 0.60962 0.0
C665 C 0.25655 0.65307 0.66044 0.0
C666 C 0.24002 0.63925 0.67302 0.0
C667 C 0.24076 0.61314 0.66263 0.0
C668 C 0.2563 0.60118 0.63913 0.0
C669 C 0.249 0.62724 0.64835 0.0
C670 C 0.27347 0.60345 0.59967 0.0
C671 C 0.28019 0.61741 0.58492 0.0
H672 H 0.34639 0.31027 0.42139 0.0
H673 H 0.42292 0.27882 0.34259 0.0
H674 H 0.32973 0.27651 0.30751 0.0
H675 H 0.22822 0.28438 0.29684 0.0
H676 H 0.15205 0.31611 0.37494 0.0
H677 H 0.2433 0.31725 0.41274 0.0
C678 C 0.34264 0.30282 0.39674 0.0
C679 C 0.3918 0.2948 0.38454 0.0
C680 C 0.289 0.30163 0.37643 0.0
C681 C 0.38595 0.28518 0.35257 0.0
C682 C 0.33264 0.28386 0.33242 0.0
C683 C 0.23134 0.29147 0.32231 0.0
C684 C 0.18338 0.3002 0.33284 0.0
C685 C 0.28414 0.29218 0.34373 0.0
C686 C 0.18828 0.3093 0.36604 0.0
C687 C 0.24052 0.30998 0.38767 0.0
H688 H 0.02776 0.93753 0.3611 0.0
H689 H 0.937 0.95265 0.25674 0.0
H690 H 0.84287 0.94889 0.28927 0.0
H691 H 0.7861 0.94005 0.34571 0.0
H692 H 0.87612 0.9245 0.44987 0.0
H693 H 0.97062 0.92969 0.41901 0.0
C694 C 0.98741 0.94017 0.34567 0.0
C695 C 0.98944 0.9453 0.30649 0.0
C696 C 0.93322 0.93777 0.36433 0.0
C697 C 0.93672 0.94862 0.28685 0.0
C698 C 0.8828 0.94644 0.30538 0.0
C699 C 0.82635 0.93782 0.36175 0.0
C700 C 0.82398 0.93179 0.39991 0.0
C701 C 0.88051 0.94079 0.34383 0.0
C702 C 0.87662 0.92908 0.42036 0.0
C703 C 0.93074 0.93205 0.40275 0.0
H704 H 0.42807 0.94077 0.8821 0.0
H705 H 0.36109 0.94667 0.76354 0.0
H706 H 0.26079 0.94628 0.78865 0.0
H707 H 0.1919 0.94345 0.84401 0.0
H708 H 0.2592 0.938 0.96265 0.0
H709 H 0.35946 0.93906 0.93772 0.0
C710 C 0.39155 0.94202 0.86176 0.0
C711 C 0.40208 0.94366 0.82101 0.0
C712 C 0.33398 0.94183 0.87637 0.0
C713 C 0.35426 0.94539 0.79508 0.0
C714 C 0.29683 0.94513 0.80938 0.0
C715 C 0.22853 0.94253 0.86439 0.0
C716 C 0.2181 0.94059 0.90506 0.0
C717 C 0.28615 0.94322 0.84992 0.0
C718 C 0.26599 0.93953 0.93118 0.0
C719 C 0.32339 0.9401 0.91697 0.0
H720 H 0.84732 0.29858 0.86823 0.0
H721 H 0.91501 0.31502 0.75771 0.0
H722 H 0.01317 0.31658 0.78649 0.0
H723 H 0.07971 0.31357 0.84337 0.0
H724 H 0.01113 0.29737 0.95394 0.0
H725 H 0.9136 0.29545 0.92474 0.0
C726 C 0.88352 0.30247 0.85034 0.0
C727 C 0.87367 0.30667 0.81084 0.0
C728 C 0.93981 0.30342 0.86712 0.0
C729 C 0.92121 0.31172 0.7882 0.0
C730 C 0.97743 0.31262 0.80464 0.0
C731 C 0.04347 0.30961 0.86107 0.0
C732 C 0.05288 0.30564 0.90083 0.0
C733 C 0.98722 0.30856 0.84412 0.0
C734 C 0.0053 0.30052 0.9233 0.0
C735 C 0.94939 0.29941 0.90662 0.0
H736 H 0.78325 0.68717 0.62801 0.0
H737 H 0.69854 0.7016 0.73513 0.0
H738 H 0.60332 0.70092 0.70194 0.0
H739 H 0.54375 0.69553 0.64299 0.0
H740 H 0.62914 0.68189 0.53534 0.0
H741 H 0.72442 0.68294 0.56828 0.0
C742 C 0.74397 0.69023 0.64404 0.0
C743 C 0.74792 0.69436 0.684 0.0
C744 C 0.68945 0.68989 0.62475 0.0
C745 C 0.69673 0.69841 0.7043 0.0
C746 C 0.64221 0.69796 0.6854 0.0
C747 C 0.58324 0.69278 0.62679 0.0
C748 C 0.57938 0.68855 0.5869 0.0
C749 C 0.63799 0.69359 0.64575 0.0
C750 C 0.63094 0.68519 0.56609 0.0
C751 C 0.68545 0.68577 0.5849 0.0
H752 H 0.03036 0.06435 0.63547 0.0
H753 H 0.05806 0.02102 0.67866 0.0
H754 H 0.15711 0.02109 0.65086 0.0
H755 H 0.23633 0.03367 0.61489 0.0
H756 H 0.20729 0.07716 0.57309 0.0
H757 H 0.10835 0.07677 0.59993 0.0
C758 C 0.05784 0.05487 0.63871 0.0
C759 C 0.03672 0.04269 0.65908 0.0
C760 C 0.11469 0.05503 0.62304 0.0
C761 C 0.07318 0.03054 0.6631 0.0
C762 C 0.12987 0.03058 0.64726 0.0
C763 C 0.20834 0.04306 0.61169 0.0
C764 C 0.22931 0.05542 0.59201 0.0
C765 C 0.1512 0.0428 0.62731 0.0
C766 C 0.19244 0.0675 0.58812 0.0
C767 C 0.13572 0.0673 0.60342 0.0
H768 H 0.56 0.0557 0.07832 0.0
H769 H 0.59736 0.09239 0.15316 0.0
H770 H 0.70116 0.09062 0.1372 0.0
H771 H 0.78211 0.07816 0.10429 0.0
H772 H 0.74581 0.04203 0.02751 0.0
H773 H 0.64096 0.04405 0.04203 0.0
C774 C 0.59078 0.06339 0.09084 0.0
C775 C 0.57082 0.0741 0.11711 0.0
C776 C 0.65073 0.06233 0.08152 0.0
C777 C 0.61134 0.08401 0.13292 0.0
C778 C 0.67088 0.08299 0.12395 0.0
C779 C 0.75125 0.07069 0.09084 0.0
C780 C 0.77164 0.05985 0.06529 0.0
C781 C 0.69115 0.07208 0.09878 0.0
C782 C 0.73111 0.05044 0.04744 0.0
C783 C 0.6712 0.05159 0.05572 0.0
H784 H 0.03417 0.69089 0.0636 0.0
H785 H 0.95196 0.6953 0.17808 0.0
H786 H 0.04766 0.69358 0.21033 0.0
H787 H 0.15351 0.6892 0.20623 0.0
H788 H 0.23521 0.68405 0.09181 0.0
H789 H 0.14063 0.68772 0.05934 0.0
C790 C 0.03713 0.69164 0.09559 0.0
C791 C 0.98587 0.69314 0.11839 0.0
C792 C 0.09213 0.69039 0.11397 0.0
C793 C 0.99066 0.69409 0.15981 0.0
C794 C 0.04536 0.69307 0.1783 0.0
C795 C 0.1508 0.68897 0.17417 0.0
C796 C 0.20136 0.68624 0.15152 0.0
C797 C 0.09621 0.69094 0.1557 0.0
C798 C 0.19697 0.68605 0.10999 0.0
C799 C 0.14289 0.68815 0.09138 0.0
H800 H 0.44987 0.79984 0.88261 0.0
H801 H 0.39758 0.83924 0.94095 0.0
H802 H 0.302 0.83808 0.90857 0.0
H803 H 0.2342 0.82628 0.86236 0.0
H804 H 0.28694 0.78714 0.80299 0.0
H805 H 0.38121 0.78777 0.83734 0.0
C806 C 0.41753 0.80816 0.88835 0.0
C807 C 0.43101 0.81963 0.91411 0.0
C808 C 0.36267 0.80747 0.86948 0.0
C809 C 0.38852 0.8303 0.92119 0.0
C810 C 0.33376 0.82965 0.9027 0.0
C811 C 0.26611 0.81783 0.85712 0.0
C812 C 0.25351 0.80669 0.8301 0.0
C813 C 0.32049 0.81833 0.87663 0.0
C814 C 0.29551 0.79586 0.82357 0.0
C815 C 0.3495 0.79621 0.84317 0.0
H816 H 0.88188 0.42285 0.93119 0.0
H817 H 0.80819 0.4513 0.84286 0.0
H818 H 0.90562 0.45563 0.81572 0.0
H819 H 0.01068 0.45038 0.8146 0.0
H820 H 0.08517 0.42174 0.90206 0.0
H821 H 0.98854 0.41859 0.9322 0.0
C822 C 0.88714 0.43007 0.90616 0.0
C823 C 0.83758 0.43664 0.88895 0.0
C824 C 0.94343 0.43248 0.89048 0.0
C825 C 0.84538 0.44602 0.85663 0.0
C826 C 0.90115 0.44852 0.84103 0.0
C827 C 0.00602 0.44353 0.84046 0.0
C828 C 0.05514 0.43624 0.85585 0.0
C829 C 0.95033 0.44165 0.85736 0.0
C830 C 0.04815 0.42747 0.88952 0.0
C831 C 0.99283 0.42562 0.90671 0.0
H832 H 0.4217 0.43223 0.36262 0.0
H833 H 0.3243 0.43803 0.2541 0.0
H834 H 0.23264 0.43907 0.29159 0.0
H835 H 0.18006 0.43787 0.35533 0.0
H836 H 0.27902 0.43283 0.46358 0.0
H837 H 0.37009 0.43194 0.42599 0.0
C838 C 0.38045 0.43374 0.34711 0.0
C839 C 0.37982 0.43498 0.30562 0.0
C840 C 0.32814 0.43443 0.36881 0.0
C841 C 0.32603 0.43707 0.28605 0.0
C842 C 0.27357 0.43762 0.30745 0.0
C843 C 0.22158 0.43657 0.37065 0.0
C844 C 0.22268 0.43536 0.41219 0.0
C845 C 0.27407 0.43623 0.34885 0.0
C846 C 0.27687 0.43382 0.43165 0.0
C847 C 0.32904 0.43328 0.41018 0.0
H848 H 0.87323 0.78628 0.29646 0.0
H849 H 0.78663 0.78724 0.41009 0.0
H850 H 0.88061 0.79104 0.44304 0.0
H851 H 0.98595 0.79589 0.43929 0.0
H852 H 0.07269 0.79559 0.32572 0.0
H853 H 0.98003 0.78965 0.29314 0.0
C854 C 0.87496 0.78713 0.32847 0.0
C855 C 0.82287 0.78657 0.3507 0.0
C856 C 0.9291 0.78955 0.34725 0.0
C857 C 0.82599 0.7877 0.39219 0.0
C858 C 0.87971 0.78991 0.41109 0.0
C859 C 0.98478 0.79443 0.40743 0.0
C860 C 0.03612 0.79632 0.38498 0.0
C861 C 0.93133 0.79116 0.38885 0.0
C862 C 0.03378 0.79428 0.34374 0.0
C863 C 0.98078 0.79089 0.32505 0.0
H864 H 0.68895 0.18587 0.1216 0.0
H865 H 0.61718 0.1847 0.23973 0.0
H866 H 0.51787 0.1861 0.21279 0.0
H867 H 0.4513 0.18776 0.15569 0.0
H868 H 0.52328 0.19003 0.0377 0.0
H869 H 0.62245 0.18815 0.06457 0.0
C870 C 0.65153 0.18586 0.14141 0.0
C871 C 0.66039 0.18511 0.18257 0.0
C872 C 0.59456 0.18693 0.12576 0.0
C873 C 0.61154 0.18529 0.20791 0.0
C874 C 0.55472 0.18608 0.19255 0.0
C875 C 0.4887 0.18784 0.13586 0.0
C876 C 0.47988 0.18901 0.09476 0.0
C877 C 0.5457 0.18693 0.15153 0.0
C878 C 0.52882 0.1892 0.06948 0.0
C879 C 0.58559 0.18808 0.0848 0.0
H880 H 0.20164 0.53073 0.08388 0.0
H881 H 0.16328 0.57316 0.03764 0.0
H882 H 0.062 0.571 0.05976 0.0
H883 H 0.98551 0.55764 0.09478 0.0
H884 H 0.02353 0.5155 0.14291 0.0
H885 H 0.1235 0.51694 0.11715 0.0
C886 C 0.17103 0.53947 0.07844 0.0
C887 C 0.1902 0.55211 0.05929 0.0
C888 C 0.11275 0.53822 0.09158 0.0
C889 C 0.14991 0.56333 0.05248 0.0
C890 C 0.09187 0.56211 0.06509 0.0
C891 C 0.0154 0.5487 0.09936 0.0
C892 C 0.99702 0.53651 0.12087 0.0
C893 C 0.07299 0.54968 0.08503 0.0
C894 C 0.03652 0.52504 0.12656 0.0
C895 C 0.09377 0.52586 0.1119 0.0
H896 H 0.74087 0.56568 0.62613 0.0
H897 H 0.66039 0.56353 0.51041 0.0
H898 H 0.56356 0.56235 0.54062 0.0
H899 H 0.50153 0.562 0.59957 0.0
H900 H 0.58104 0.56371 0.71559 0.0
H901 H 0.67836 0.56494 0.68553 0.0
C902 C 0.70213 0.56497 0.60754 0.0
C903 C 0.70795 0.56472 0.56607 0.0
C904 C 0.64637 0.56419 0.62512 0.0
C905 C 0.6573 0.56372 0.54241 0.0
C906 C 0.6018 0.56305 0.55964 0.0
C907 C 0.54009 0.56264 0.61835 0.0
C908 C 0.53394 0.56279 0.65976 0.0
C909 C 0.59583 0.56329 0.60092 0.0
C910 C 0.58448 0.56355 0.6836 0.0
C911 C 0.64018 0.56428 0.66645 0.0
H912 H 0.11567 0.18978 0.55881 0.0
H913 H 0.01283 0.20011 0.66224 0.0
H914 H 0.10128 0.19979 0.70307 0.0
H915 H 0.20651 0.19475 0.7103 0.0
H916 H 0.30868 0.18385 0.60699 0.0
H917 H 0.22179 0.1863 0.56531 0.0
C918 C 0.11259 0.19212 0.5902 0.0
C919 C 0.05754 0.19485 0.60742 0.0
C920 C 0.16349 0.19172 0.61364 0.0
C921 C 0.05455 0.19792 0.64817 0.0
C922 C 0.10512 0.1977 0.67161 0.0
C923 C 0.20995 0.19303 0.67862 0.0
C924 C 0.26402 0.18899 0.66192 0.0
C925 C 0.15963 0.19431 0.6548 0.0
C926 C 0.26761 0.18688 0.62074 0.0
C927 C 0.21789 0.18827 0.59683 0.0
H928 H 0.91723 0.21733 0.2576 0.0
H929 H 0.8367 0.23706 0.15529 0.0
H930 H 0.86504 0.26096 0.17956 0.0
H931 H 0.91379 0.27613 0.22937 0.0
H932 H 0.99251 0.25627 0.33225 0.0
H933 H 0.96274 0.2325 0.30842 0.0
C934 C 0.90621 0.22684 0.24041 0.0
C935 C 0.87547 0.22542 0.20445 0.0
C936 C 0.92172 0.24051 0.25485 0.0
C937 C 0.86063 0.23787 0.18294 0.0
C938 C 0.87666 0.25153 0.19686 0.0
C939 C 0.92406 0.26662 0.24679 0.0
C940 C 0.95557 0.268 0.28251 0.0
C941 C 0.90719 0.25297 0.23278 0.0
C942 C 0.96833 0.25555 0.30468 0.0
C943 C 0.95159 0.24193 0.29098 0.0
H944 H 0.29861 0.97461 0.23088 0.0
H945 H 0.13208 -0.00332 0.2258 0.0
H946 H 0.1794 0.0178 0.19683 0.0
H947 H 0.26814 0.03019 0.17385 0.0
H948 H 0.43492 0.00826 0.17936 0.0
H949 H 0.38723 0.98686 0.20662 0.0
C950 C 0.27272 0.98407 0.22365 0.0
C951 C 0.21194 0.98407 0.23072 0.0
C952 C 0.30012 -0.00384 0.20665 0.0
C953 C 0.17898 -0.00362 0.22078 0.0
C954 C 0.20595 0.00846 0.20408 0.0
C955 C 0.29398 0.02066 0.18052 0.0
C956 C 0.35499 0.02083 0.17449 0.0
C957 C 0.26646 0.00847 0.19682 0.0
C958 C 0.38786 0.00843 0.18368 0.0
C959 C 0.36068 -0.0038 0.19945 0.0
H960 H 0.90214 0.01005 0.04873 0.0
H961 H 0.07862 0.02705 0.04946 0.0
H962 H 0.11111 0.00708 0.00782 0.0
H963 H 0.08854 0.98563 0.96853 0.0
H964 H 0.91239 0.9685 0.96728 0.0
H965 H 0.88038 0.98789 0.01143 0.0
C966 C 0.94794 0.00927 0.04038 0.0
C967 C 0.9879 0.02005 0.0522 0.0
C968 C 0.96609 -0.00207 0.0157 0.0
C969 C 0.04697 0.01891 0.04079 0.0
C970 C 0.0655 0.00755 0.01675 0.0
C971 C 0.04299 0.98617 0.97763 0.0
C972 C 0.00273 0.97573 0.96422 0.0
C973 C 0.0252 -0.00282 0.00338 0.0
C974 C 0.94414 0.97647 0.97691 0.0
C975 C 0.92591 0.98751 0.00231 0.0
H976 H 0.22864 0.22068 0.01172 0.0
H977 H 0.33005 0.24367 0.09948 0.0
H978 H 0.32634 0.2655 0.05879 0.0
H979 H 0.29663 0.27779 -0.00244 0.0
H980 H 0.1967 0.25457 0.90939 0.0
H981 H 0.1987 0.23296 0.95075 0.0
C982 C 0.24917 0.23052 0.02231 0.0
C983 C 0.27922 0.23058 0.05877 0.0
C984 C 0.24822 0.24289 -0.00168 0.0
C985 C 0.30638 0.24337 0.07165 0.0
C986 C 0.30464 0.25582 0.04826 0.0
C987 C 0.27584 0.26796 0.98712 0.0
C988 C 0.24688 0.26779 0.95025 0.0
C989 C 0.27643 0.25563 0.01129 0.0
C990 C 0.21958 0.25499 0.93751 0.0
C991 C 0.22035 0.24265 0.96126 0.0
H992 H 0.99512 0.72202 0.77684 0.0
H993 H 0.96177 0.73617 0.65705 0.0
H994 H 0.98675 0.7609 0.67555 0.0
H995 H 0.01665 0.77851 0.72577 0.0
H996 H 0.04944 0.76444 0.8457 0.0
H997 H 0.02534 0.73966 0.82709 0.0
C998 C 0.99378 0.73048 0.75465 0.0
C999 C 0.97676 0.72723 0.71556 0.0
C1000 C 0.00744 0.74471 0.7656 0.0
C1001 C 0.97479 0.73836 0.68732 0.0
C1002 C 0.98888 0.75252 0.6979 0.0
C1003 C 0.01824 0.77006 0.74796 0.0
C1004 C 0.03468 0.77336 0.78713 0.0
C1005 C 0.00481 0.75583 0.73701 0.0
C1006 C 0.03679 0.76223 0.81537 0.0
C1007 C 0.02321 0.74803 0.80473 0.0
H1008 H 0.62534 0.98303 0.72525 0.0
H1009 H 0.71693 0.97098 0.8323 0.0
H1010 H 0.78436 0.99125 0.82353 0.0
H1011 H 0.81783 0.0121 0.78511 0.0
H1012 H 0.72687 0.02401 0.67769 0.0
H1013 H 0.65862 0.00393 0.68693 0.0
C1014 C 0.65984 0.98485 0.74683 0.0
C1015 C 0.66604 0.97551 0.77944 0.0
C1016 C 0.6987 -0.00358 0.74141 0.0
C1017 C 0.71117 0.97801 0.80697 0.0
C1018 C 0.7498 0.98958 0.80193 0.0
C1019 C 0.78317 0.01031 0.76362 0.0
C1020 C 0.77752 0.01953 0.7307 0.0
C1021 C 0.74412 -0.00121 0.76915 0.0
C1022 C 0.73227 0.01706 0.70324 0.0
C1023 C 0.69317 0.0056 0.70855 0.0
H1024 H 0.59825 0.7646 0.03159 0.0
H1025 H 0.73165 0.77536 0.9458 0.0
H1026 H 0.78753 0.75397 0.96497 0.0
H1027 H 0.79934 0.73259 0.00681 0.0
H1028 H 0.66655 0.72191 0.0931 0.0
H1029 H 0.6096 0.74304 0.07305 0.0
C1030 C 0.63937 0.76224 0.01686 0.0
C1031 C 0.6607 0.77157 0.98724 0.0
C1032 C 0.67151 0.75002 0.02829 0.0
C1033 C 0.7142 0.76836 0.96864 0.0
C1034 C 0.74624 0.75615 0.97965 0.0
C1035 C 0.75798 0.73487 0.02134 0.0
C1036 C 0.73733 0.72569 0.05152 0.0
C1037 C 0.72549 0.74698 0.00962 0.0
C1038 C 0.68352 0.7288 0.06985 0.0
C1039 C 0.6509 0.74086 0.05836 0.0
H1040 H 0.36564 0.51763 0.76238 0.0
H1041 H 0.25524 0.5202 0.65858 0.0
H1042 H 0.22013 0.49565 0.67075 0.0
H1043 H 0.21992 0.47371 0.71124 0.0
H1044 H 0.32933 0.47126 0.81557 0.0
H1045 H 0.36584 0.49564 0.80269 0.0
C1046 C 0.334 0.51284 0.74229 0.0
C1047 C 0.31309 0.52076 0.70957 0.0
C1048 C 0.31383 0.49878 0.74959 0.0
C1049 C 0.27201 0.51436 0.68396 0.0
C1050 C 0.25193 0.50032 0.69092 0.0
C1051 C 0.25186 0.47846 0.73119 0.0
C1052 C 0.27186 0.47065 0.76436 0.0
C1053 C 0.2724 0.49247 0.72371 0.0
C1054 C 0.31318 0.47702 0.78986 0.0
C1055 C 0.33406 0.49096 0.7825 0.0
H1056 H 0.06138 0.48371 0.51699 0.0
H1057 H 0.92746 0.47225 0.43199 0.0
H1058 H 0.88021 0.49563 0.44184 0.0
H1059 H 0.87698 0.51917 0.47451 0.0
H1060 H 0.01042 0.53065 0.55983 0.0
H1061 H 0.05776 0.50725 0.55005 0.0
C1062 C 0.02196 0.48633 0.50048 0.0
C1063 C 0.99805 0.47626 0.4737 0.0
C1064 C 0.99485 0.49972 0.50649 0.0
C1065 C 0.94678 0.47981 0.45274 0.0
C1066 C 0.91971 0.49316 0.4584 0.0
C1067 C 0.91635 0.51658 0.4911 0.0
C1068 C 0.94015 0.52665 0.51788 0.0
C1069 C 0.94333 0.50317 0.48524 0.0
C1070 C 0.99117 0.52308 0.53909 0.0
C1071 C 0.01831 0.50973 0.53344 0.0
H1072 H 0.41366 0.73322 0.48203 0.0
H1073 H 0.27843 0.72426 0.56808 0.0
H1074 H 0.22713 0.74632 0.54888 0.0
H1075 H 0.21877 0.7675 0.50606 0.0
H1076 H 0.35284 0.77632 0.41912 0.0
H1077 H 0.40669 0.75485 0.44039 0.0
C1078 C 0.37317 0.73612 0.49683 0.0
C1079 C 0.34981 0.72707 0.5264 0.0
C1080 C 0.34361 0.74871 0.48534 0.0
C1081 C 0.2973 0.73101 0.5452 0.0
C1082 C 0.26789 0.7436 0.53418 0.0
C1083 C 0.25984 0.76477 0.49175 0.0
C1084 C 0.2816 0.77346 0.46087 0.0
C1085 C 0.29032 0.75243 0.50399 0.0
C1086 C 0.33504 0.76979 0.44286 0.0
C1087 C 0.36583 0.75752 0.45501 0.0
H1088 H 0.59752 0.47214 0.19293 0.0
H1089 H 0.69045 0.46055 0.29982 0.0
H1090 H 0.75596 0.4812 0.2911 0.0
H1091 H 0.78696 0.50239 0.25304 0.0
H1092 H 0.69445 0.51387 0.14588 0.0
H1093 H 0.62871 0.49329 0.15476 0.0
C1094 C 0.63194 0.47414 0.21446 0.0
C1095 C 0.63897 0.46482 0.24705 0.0
C1096 C 0.66965 0.48595 0.20911 0.0
C1097 C 0.68402 0.46755 0.2745 0.0
C1098 C 0.72155 0.47934 0.2695 0.0
C1099 C 0.75252 0.5004 0.23153 0.0
C1100 C 0.74568 0.50967 0.19882 0.0
C1101 C 0.71484 0.48858 0.23686 0.0
C1102 C 0.70076 0.50691 0.1713 0.0
C1103 C 0.66307 0.49515 0.17639 0.0
H1104 H 0.8343 0.22842 0.46626 0.0
H1105 H 0.72431 0.21746 0.56592 0.0
H1106 H 0.64719 0.23317 0.54044 0.0
H1107 H 0.6114 0.2501 0.49056 0.0
H1108 H 0.7217 0.26179 0.39181 0.0
H1109 H 0.79815 0.24546 0.41601 0.0
C1110 C 0.79357 0.2295 0.48253 0.0
C1111 C 0.78521 0.22178 0.51804 0.0
C1112 C 0.7493 0.23854 0.46768 0.0
C1113 C 0.73205 0.2233 0.53862 0.0
C1114 C 0.6878 0.23223 0.52399 0.0
C1115 C 0.65185 0.24898 0.47399 0.0
C1116 C 0.66069 0.25709 0.43926 0.0
C1117 C 0.69592 0.23986 0.48854 0.0
C1118 C 0.71372 0.25562 0.41851 0.0
C1119 C 0.75751 0.24635 0.43245 0.0
H1120 H 0.68216 0.24831 0.73683 0.0
H1121 H 0.56757 0.26451 0.82832 0.0
H1122 H 0.50231 0.24389 0.81895 0.0
H1123 H 0.4751 0.22209 0.78253 0.0
H1124 H 0.58855 0.20584 0.69056 0.0
H1125 H 0.65708 0.22575 0.70237 0.0
C1126 C 0.64326 0.24726 0.75506 0.0
C1127 C 0.62968 0.25799 0.78315 0.0
C1128 C 0.60548 0.23547 0.74915 0.0
C1129 C 0.57906 0.25644 0.80646 0.0
C1130 C 0.54158 0.24468 0.80102 0.0
C1131 C 0.51481 0.22287 0.765 0.0
C1132 C 0.52641 0.21257 0.73541 0.0
C1133 C 0.55386 0.23429 0.772 0.0
C1134 C 0.57844 0.21367 0.71337 0.0
C1135 C 0.61763 0.22504 0.72014 0.0
H1136 H 0.41003 6e-05 0.46279 0.0
H1137 H 0.53884 0.01429 0.5483 0.0
H1138 H 0.60445 0.99489 0.52807 0.0
H1139 H 0.62532 0.97403 0.48648 0.0
H1140 H 0.4965 0.95916 0.40197 0.0
H1141 H 0.4309 0.97886 0.42119 0.0
C1142 C 0.45235 -0.00111 0.47713 0.0
C1143 C 0.46943 0.00862 0.50707 0.0
C1144 C 0.48999 0.98771 0.46532 0.0
C1145 C 0.52447 0.00695 0.52528 0.0
C1146 C 0.56215 -0.00411 0.51363 0.0
C1147 C 0.5831 0.97513 0.47194 0.0
C1148 C 0.56595 0.96519 0.44264 0.0
C1149 C 0.54543 0.98626 0.48363 0.0
C1150 C 0.51081 0.9667 0.4245 0.0
C1151 C 0.47325 0.97793 0.43558 0.0
H1152 H 0.61943 0.74738 0.23097 0.0
H1153 H 0.50074 0.75836 0.32589 0.0
H1154 H 0.43332 0.73946 0.30435 0.0
H1155 H 0.40751 0.72016 0.25844 0.0
H1156 H 0.52616 0.70859 0.16417 0.0
H1157 H 0.59419 0.72757 0.18545 0.0
C1158 C 0.57895 0.74561 0.24709 0.0
C1159 C 0.56514 0.7543 0.27999 0.0
C1160 C 0.54026 0.73473 0.23448 0.0
C1161 C 0.51252 0.75183 0.30053 0.0
C1162 C 0.47383 0.74106 0.28815 0.0
C1163 C 0.44806 0.72182 0.2423 0.0
C1164 C 0.46158 0.71305 0.20955 0.0
C1165 C 0.48709 0.73254 0.25504 0.0
C1166 C 0.51469 0.71524 0.18938 0.0
C1167 C 0.55359 0.72605 0.2016 0.0
H1168 H 0.51034 0.4683 0.91079 0.0
H1169 H 0.66173 0.48286 0.97666 0.0
H1170 H 0.60489 0.50266 0.00442 0.0
H1171 H 0.51185 0.51559 0.01128 0.0
H1172 H 0.36036 0.50132 0.94515 0.0
H1173 H 0.41746 0.48165 0.91651 0.0
C1174 C 0.53103 0.47589 0.9309 0.0
C1175 C 0.5902 0.47408 0.9416 0.0
C1176 C 0.49793 0.48723 0.94709 0.0
C1177 C 0.61623 0.48398 0.9679 0.0
C1178 C 0.58373 0.49529 0.98394 0.0
C1179 C 0.49121 0.50813 0.99078 0.0
C1180 C 0.43186 0.50988 0.98059 0.0
C1181 C 0.52442 0.49694 0.97407 0.0
C1182 C 0.40597 0.5002 0.95362 0.0
C1183 C 0.43862 0.48896 0.93712 0.0
H1184 H 0.21243 0.32398 0.19175 0.0
H1185 H 0.03267 0.32426 0.15158 0.0
H1186 H 0.06534 0.32521 0.08283 0.0
H1187 H 0.14438 0.32368 0.03434 0.0
H1188 H 0.32411 0.32114 0.07389 0.0
H1189 H 0.29224 0.32353 0.14274 0.0
C1190 C 0.18056 0.32447 0.1679 0.0
C1191 C 0.12035 0.32401 0.17653 0.0
C1192 C 0.19965 0.32454 0.12841 0.0
C1193 C 0.07932 0.32449 0.1455 0.0
C1194 C 0.09792 0.32505 0.10624 0.0
C1195 C 0.17667 0.32392 0.05797 0.0
C1196 C 0.23643 0.32224 0.04918 0.0
C1197 C 0.15791 0.32475 0.09736 0.0
C1198 C 0.27777 0.32238 0.08007 0.0
C1199 C 0.25958 0.32371 0.11938 0.0
H1200 H 0.02226 0.91625 0.04148 0.0
H1201 H 0.18895 0.9015 -0.00305 0.0
H1202 H 0.23091 0.90297 0.06356 0.0
H1203 H 0.22384 0.91226 0.13194 0.0
H1204 H 0.05721 0.92816 0.17427 0.0
H1205 H 0.01184 0.92249 0.11105 0.0
C1206 C 0.06744 0.91305 0.04653 0.0
C1207 C 0.10273 0.90902 0.0144 0.0
C1208 C 0.09167 0.91444 0.08437 0.0
C1209 C 0.16089 0.90467 0.02129 0.0
C1210 C 0.18509 0.90567 0.05928 0.0
C1211 C 0.17747 0.9143 0.12745 0.0
C1212 C 0.14436 0.92093 0.15745 0.0
C1213 C 0.15155 0.91118 0.09066 0.0
C1214 C 0.08409 0.92333 0.15142 0.0
C1215 C 0.05792 0.92005 0.1153 0.0
H1216 H 0.91378 0.66936 0.84972 0.0
H1217 H 0.73532 0.66632 0.80794 0.0
H1218 H 0.69939 0.66765 0.87609 0.0
H1219 H 0.71891 0.67223 0.9468 0.0
H1220 H 0.89813 0.67485 0.98786 0.0
H1221 H 0.93354 0.67104 0.92072 0.0
C1222 C 0.86706 0.6688 0.85563 0.0
C1223 C 0.82719 0.66793 0.82403 0.0
C1224 C 0.84686 0.66963 0.89466 0.0
C1225 C 0.76683 0.66698 0.83192 0.0
C1226 C 0.74627 0.66785 0.87081 0.0
C1227 C 0.76568 0.67182 0.94105 0.0
C1228 C 0.80577 0.67405 0.97211 0.0
C1229 C 0.78588 0.66958 0.90231 0.0
C1230 C 0.86628 0.67326 0.96442 0.0
C1231 C 0.88665 0.67112 0.92602 0.0
H1232 H 0.94144 0.06878 0.81491 0.0
H1233 H 0.75846 0.08021 0.82461 0.0
H1234 H 0.77293 0.08678 0.89399 0.0
H1235 H 0.83552 0.08707 0.95323 0.0
H1236 H 0.0172 0.07453 0.94375 0.0
H1237 H 0.00556 0.0709 0.87257 0.0
C1238 C 0.90474 0.07278 0.8321 0.0
C1239 C 0.84881 0.07381 0.81484 0.0
C1240 C 0.91322 0.07641 0.87192 0.0
C1241 C 0.80188 0.07918 0.83736 0.0
C1242 C 0.81011 0.08297 0.877 0.0
C1243 C 0.87286 0.08388 0.93539 0.0
C1244 C 0.92704 0.081 0.95356 0.0
C1245 C 0.86535 0.08136 0.89476 0.0
C1246 C 0.97498 0.07674 0.93028 0.0
C1247 C 0.96829 0.07459 0.88969 0.0
H1248 H 0.09985 0.82968 0.65165 0.0
H1249 H 0.27883 0.83306 0.69239 0.0
H1250 H 0.31371 0.83229 0.62398 0.0
H1251 H 0.29348 0.82817 0.55328 0.0
H1252 H 0.11396 0.82491 0.51314 0.0
H1253 H 0.07921 0.82827 0.58067 0.0
C1254 C 0.14647 0.83041 0.64552 0.0
C1255 C 0.18676 0.83121 0.67695 0.0
C1256 C 0.16613 0.8299 0.60629 0.0
C1257 C 0.24695 0.83239 0.66864 0.0
C1258 C 0.26693 0.83188 0.62957 0.0
C1259 C 0.24676 0.82837 0.55926 0.0
C1260 C 0.20646 0.82608 0.52833 0.0
C1261 C 0.22696 0.83025 0.59824 0.0
C1262 C 0.14601 0.82656 0.53643 0.0
C1263 C 0.12602 0.82843 0.57508 0.0
H1264 H 0.12879 0.42627 0.70349 0.0
H1265 H 0.25835 0.39329 0.68145 0.0
H1266 H 0.22478 0.39132 0.61278 0.0
H1267 H 0.16345 0.40039 0.55785 0.0
H1268 H 0.03783 0.43424 0.58065 0.0
H1269 H 0.06508 0.43438 0.65036 0.0
C1270 C 0.1495 0.41854 0.68387 0.0
C1271 C 0.19632 0.41002 0.69748 0.0
C1272 C 0.1309 0.41768 0.64448 0.0
C1273 C 0.22237 0.40003 0.67163 0.0
C1274 C 0.20329 0.39892 0.63236 0.0
C1275 C 0.14164 0.40766 0.57822 0.0
C1276 C 0.09903 0.41735 0.56412 0.0
C1277 C 0.15833 0.4079 0.61827 0.0
C1278 C 0.07119 0.42676 0.59074 0.0
C1279 C 0.08666 0.42685 0.63061 0.0
H1280 H 0.90054 0.16932 0.32027 0.0
H1281 H 0.72607 0.15125 0.32203 0.0
H1282 H 0.72815 0.15084 0.3946 0.0
H1283 H 0.77535 0.15838 0.45691 0.0
H1284 H 0.94913 0.17701 0.45389 0.0
H1285 H 0.95171 0.17428 0.38219 0.0
C1286 C 0.86315 0.16514 0.33652 0.0
C1287 C 0.81281 0.16056 0.31602 0.0
C1288 C 0.86444 0.16513 0.3779 0.0
C1289 C 0.76519 0.1549 0.33729 0.0
C1290 C 0.76628 0.15474 0.37871 0.0
C1291 C 0.81413 0.16165 0.44064 0.0
C1292 C 0.86156 0.16812 0.46064 0.0
C1293 C 0.81502 0.16025 0.39928 0.0
C1294 C 0.91176 0.17214 0.43919 0.0
C1295 C 0.91325 0.17062 0.39817 0.0
H1296 H 0.9166 0.56833 0.41491 0.0
H1297 H 0.76826 0.59702 0.42445 0.0
H1298 H 0.74374 0.59261 0.3549 0.0
H1299 H 0.76058 0.57916 0.29302 0.0
H1300 H 0.90913 0.55045 0.28454 0.0
H1301 H 0.93723 0.55627 0.35237 0.0
C1302 C 0.87918 0.57374 0.40172 0.0
C1303 C 0.84395 0.58287 0.42486 0.0
C1304 C 0.865 0.57101 0.36212 0.0
C1305 C 0.79608 0.58994 0.40723 0.0
C1306 C 0.78181 0.58734 0.36757 0.0
C1307 C 0.79911 0.5742 0.30604 0.0
C1308 C 0.83234 0.56427 0.284 0.0
C1309 C 0.81522 0.57764 0.34503 0.0
C1310 C 0.88268 0.55808 0.30097 0.0
C1311 C 0.89881 0.5614 0.33973 0.0
H1312 H 0.54574 0.29938 0.54319 0.0
H1313 H 0.73209 0.30327 0.52297 0.0
H1314 H 0.74954 0.30451 0.59409 0.0
H1315 H 0.71234 0.30393 0.66206 0.0
H1316 H 0.52609 0.29993 0.68246 0.0
H1317 H 0.50829 0.29934 0.61125 0.0
C1318 C 0.59013 0.30055 0.55434 0.0
C1319 C 0.63748 0.3012 0.52782 0.0
C1320 C 0.59998 0.30122 0.59531 0.0
C1321 C 0.69478 0.30273 0.54273 0.0
C1322 C 0.70488 0.30343 0.58342 0.0
C1323 C 0.66784 0.30297 0.65094 0.0
C1324 C 0.62069 0.30194 0.67752 0.0
C1325 C 0.65786 0.3026 0.60998 0.0
C1326 C 0.56326 0.30073 0.66264 0.0
C1327 C 0.55298 0.30038 0.6219 0.0
H1328 H 0.51892 0.90939 0.54991 0.0
H1329 H 0.68614 0.93138 0.54848 0.0
H1330 H 0.68437 0.93324 0.62041 0.0
H1331 H 0.63405 0.92954 0.68307 0.0
H1332 H 0.46777 0.90725 0.68589 0.0
H1333 H 0.47061 0.90451 0.61375 0.0
C1334 C 0.55505 0.91454 0.56539 0.0
C1335 C 0.60237 0.92033 0.54394 0.0
C1336 C 0.55388 0.91554 0.60681 0.0
C1337 C 0.64917 0.92684 0.56433 0.0
C1338 C 0.64817 0.92795 0.60543 0.0
C1339 C 0.59838 0.92407 0.66795 0.0
C1340 C 0.55048 0.91873 0.68959 0.0
C1341 C 0.60049 0.92249 0.62684 0.0
C1342 C 0.50507 0.91147 0.66974 0.0
C1343 C 0.50662 0.90993 0.62857 0.0
H1344 H 0.35334 0.67746 0.43743 0.0
H1345 H 0.5056 0.65033 0.45148 0.0
H1346 H 0.51061 0.64698 0.37954 0.0
H1347 H 0.47454 0.65303 0.31261 0.0
H1348 H 0.32064 0.67983 0.30011 0.0
H1349 H 0.31326 0.68197 0.37174 0.0
C1350 C 0.38756 0.67077 0.42476 0.0
C1351 C 0.42949 0.6643 0.44947 0.0
C1352 C 0.38987 0.66886 0.38376 0.0
C1353 C 0.47292 0.65545 0.43288 0.0
C1354 C 0.47588 0.65358 0.39183 0.0
C1355 C 0.43919 0.65925 0.32563 0.0
C1356 C 0.39855 0.66636 0.30111 0.0
C1357 C 0.43504 0.66042 0.36696 0.0
C1358 C 0.35257 0.67426 0.31831 0.0
C1359 C 0.34837 0.67553 0.35927 0.0
H1360 H 0.49509 0.06019 0.40759 0.0
H1361 H 0.31149 0.06213 0.43849 0.0
H1362 H 0.28572 0.06603 0.36925 0.0
H1363 H 0.31464 0.06749 0.29972 0.0
H1364 H 0.49791 0.06499 0.26833 0.0
H1365 H 0.52442 0.06279 0.33811 0.0
C1366 C 0.44949 0.06158 0.39922 0.0
C1367 C 0.4053 0.06076 0.42807 0.0
C1368 C 0.43485 0.06366 0.3593 0.0
C1369 C 0.34639 0.06261 0.41679 0.0
C1370 C 0.33155 0.06484 0.37721 0.0
C1371 C 0.36043 0.06656 0.30812 0.0
C1372 C 0.40414 0.0663 0.2789 0.0
C1373 C 0.37533 0.06515 0.34817 0.0
C1374 C 0.46331 0.06514 0.29028 0.0
C1375 C 0.47856 0.06388 0.33016 0.0
H1376 H 0.72132 0.82947 0.08461 0.0
H1377 H 0.54172 0.81473 0.07722 0.0
H1378 H 0.53983 0.81096 0.14853 0.0
H1379 H 0.5917 0.80955 0.21155 0.0
H1380 H 0.77083 0.82425 0.2203 0.0
H1381 H 0.7703 0.83045 0.14969 0.0
C1382 C 0.68152 0.82563 0.09868 0.0
C1383 C 0.63206 0.82218 0.07555 0.0
C1384 C 0.68083 0.82335 0.13975 0.0
C1385 C 0.58059 0.81736 0.09426 0.0
C1386 C 0.57948 0.81515 0.13503 0.0
C1387 C 0.63055 0.8142 0.19804 0.0
C1388 C 0.68156 0.81622 0.22069 0.0
C1389 C 0.62981 0.81771 0.1578 0.0
C1390 C 0.73117 0.82253 0.20322 0.0
C1391 C 0.7309 0.82603 0.16292 0.0
H1392 H 0.49702 0.41988 0.01391 0.0
H1393 H 0.68527 0.42179 0.0272 0.0
H1394 H 0.67596 0.41634 0.09766 0.0
H1395 H 0.61408 0.4134 0.15619 0.0
H1396 H 0.42593 0.4113 0.14352 0.0
H1397 H 0.43545 0.41421 0.0717 0.0
C1398 C 0.53601 0.41899 0.0322 0.0
C1399 C 0.59168 0.42146 0.01563 0.0
C1400 C 0.53033 0.41583 0.07263 0.0
C1401 C 0.64192 0.42001 0.03939 0.0
C1402 C 0.63664 0.41693 0.07965 0.0
C1403 C 0.57518 0.4134 0.13762 0.0
C1404 C 0.51936 0.41235 0.15499 0.0
C1405 C 0.58102 0.41518 0.09668 0.0
C1406 C 0.46935 0.41211 0.13071 0.0
C1407 C 0.47478 0.41388 0.08976 0.0
H1408 H 0.34418 0.17367 0.82223 0.0
H1409 H 0.5125 0.1537 0.84293 0.0
H1410 H 0.4899 0.15146 0.91335 0.0
H1411 H 0.42518 0.15681 0.96969 0.0
H1412 H 0.25879 0.17765 0.94857 0.0
H1413 H 0.27752 0.17771 0.87752 0.0
C1414 C 0.37585 0.16875 0.84206 0.0
C1415 C 0.43013 0.164 0.82745 0.0
C1416 C 0.36288 0.16762 0.88244 0.0
C1417 C 0.4705 0.15755 0.8535 0.0
C1418 C 0.45762 0.15624 0.89377 0.0
C1419 C 0.39265 0.16113 0.94943 0.0
C1420 C 0.34087 0.16727 0.96426 0.0
C1421 C 0.40431 0.16145 0.90866 0.0
C1422 C 0.2992 0.17294 0.93779 0.0
C1423 C 0.3099 0.17302 0.8972 0.0
H1424 H 0.31916 0.57009 0.92587 0.0
H1425 H 0.50424 0.57951 0.93394 0.0
H1426 H 0.50472 0.58733 0.86475 0.0
H1427 H 0.45533 0.58792 0.79964 0.0
H1428 H 0.27185 0.57686 0.79186 0.0
H1429 H 0.26759 0.57351 0.86345 0.0
C1430 C 0.35951 0.57402 0.91267 0.0
C1431 C 0.4118 0.57393 0.93465 0.0
C1432 C 0.35969 0.57818 0.87287 0.0
C1433 C 0.46347 0.57932 0.91743 0.0
C1434 C 0.46382 0.58376 0.87786 0.0
C1435 C 0.41416 0.5852 0.8139 0.0
C1436 C 0.36408 0.58252 0.79081 0.0
C1437 C 0.41261 0.58275 0.85492 0.0
C1438 C 0.31099 0.57886 0.80929 0.0
C1439 C 0.3086 0.57688 0.8501 0.0
loop_
_geom_bond_atom_site_label_1
_geom_bond_atom_site_label_2
_geom_bond_distance
_geom_bond_site_symmetry_2
_ccdc_geom_bond_type
C0 O1 1.160 . S
C0 O7 1.185 . S
O1 C0 1.160 . S
O2 Zn3 1.899 . S
O2 C10 1.284 . S
Zn3 O2 1.899 . S
Zn3 O4 2.032 . S
Zn3 O7 2.086 . S
Zn3 O12 1.977 . S
O4 Zn3 2.032 . S
O4 C8 1.278 . S
C5 O6 1.203 . S
C5 O12 1.267 . S
O6 C5 1.203 . S
O7 C0 1.185 . S
O7 Zn3 2.086 . S
C8 O4 1.278 . S
C8 O9 1.211 . S
O9 C8 1.211 . S
C10 O2 1.284 . S
C10 O11 1.273 . S
O11 C10 1.273 . S
O12 Zn3 1.977 . S
O12 C5 1.267 . S
C13 O14 1.160 . S
C13 O20 1.185 . S
O14 C13 1.160 . S
O15 Zn16 1.899 . S
O15 C23 1.284 . S
Zn16 O15 1.899 . S
Zn16 O17 2.032 . S
Zn16 O20 2.086 . S
Zn16 O25 1.977 . S
O17 Zn16 2.032 . S
O17 C21 1.278 . S
C18 O19 1.203 . S
C18 O25 1.267 . S
O19 C18 1.203 . S
O20 C13 1.185 . S
O20 Zn16 2.086 . S
C21 O17 1.278 . S
C21 O22 1.211 . S
O22 C21 1.211 . S
C23 O15 1.284 . S
C23 O24 1.273 . S
O24 C23 1.273 . S
O25 Zn16 1.977 . S
O25 C18 1.267 . S
C26 O27 1.160 . S
C26 O33 1.185 . S
O27 C26 1.160 . S
O28 Zn29 1.899 . S
O28 C36 1.284 . S
Zn29 O28 1.899 . S
Zn29 O30 2.032 1_556 S
Zn29 O33 2.086 . S
Zn29 O38 1.977 . S
O30 Zn29 2.032 1_554 S
O30 C34 1.278 . S
C31 O32 1.203 . S
C31 O38 1.267 . S
O32 C31 1.203 . S
O33 C26 1.185 . S
O33 Zn29 2.086 . S
C34 O30 1.278 . S
C34 O35 1.211 . S
O35 C34 1.211 . S
C36 O28 1.284 . S
C36 O37 1.273 . S
O37 C36 1.273 . S
O38 Zn29 1.977 . S
O38 C31 1.267 . S
C39 O40 1.160 . S
C39 O46 1.185 . S
O40 C39 1.160 . S
O41 Zn42 1.899 . S
O41 C49 1.284 . S
Zn42 O41 1.899 . S
Zn42 O43 2.032 1_556 S
Zn42 O46 2.086 . S
Zn42 O51 1.977 . S
O43 Zn42 2.032 1_554 S
O43 C47 1.278 . S
C44 O45 1.203 . S
C44 O51 1.267 . S
O45 C44 1.203 . S
O46 C39 1.185 . S
O46 Zn42 2.086 . S
C47 O43 1.278 . S
C47 O48 1.211 . S
O48 C47 1.211 . S
C49 O41 1.284 . S
C49 O50 1.273 . S
O50 C49 1.273 . S
O51 Zn42 1.977 . S
O51 C44 1.267 . S
C52 O53 1.160 . S
C52 O59 1.185 . S
O53 C52 1.160 . S
O54 Zn55 1.899 . S
O54 C62 1.284 . S
Zn55 O54 1.899 . S
Zn55 O56 2.032 . S
Zn55 O59 2.086 . S
Zn55 O64 1.977 . S
O56 Zn55 2.032 . S
O56 C60 1.278 . S
C57 O58 1.203 . S
C57 O64 1.267 . S
O58 C57 1.203 . S
O59 C52 1.185 . S
O59 Zn55 2.086 . S
C60 O56 1.278 . S
C60 O61 1.211 . S
O61 C60 1.211 . S
C62 O54 1.284 . S
C62 O63 1.273 . S
O63 C62 1.273 . S
O64 Zn55 1.977 . S
O64 C57 1.267 . S
C65 O66 1.160 . S
C65 O72 1.185 . S
O66 C65 1.160 . S
O67 Zn68 1.899 . S
O67 C75 1.284 . S
Zn68 O67 1.899 . S
Zn68 O69 2.032 . S
Zn68 O72 2.086 . S
Zn68 O77 1.977 . S
O69 Zn68 2.032 . S
O69 C73 1.278 . S
C70 O71 1.203 . S
C70 O77 1.267 . S
O71 C70 1.203 . S
O72 C65 1.185 . S
O72 Zn68 2.086 . S
C73 O69 1.278 . S
C73 O74 1.211 . S
O74 C73 1.211 . S
C75 O67 1.284 . S
C75 O76 1.273 . S
O76 C75 1.273 . S
O77 Zn68 1.977 . S
O77 C70 1.267 . S
C78 O79 1.160 . S
C78 O85 1.185 . S
O79 C78 1.160 . S
O80 Zn81 1.899 . S
O80 C88 1.284 . S
Zn81 O80 1.899 . S
Zn81 O82 2.032 1_554 S
Zn81 O85 2.086 . S
Zn81 O90 1.977 . S
O82 Zn81 2.032 1_556 S
O82 C86 1.278 . S
C83 O84 1.203 . S
C83 O90 1.267 . S
O84 C83 1.203 . S
O85 C78 1.185 . S
O85 Zn81 2.086 . S
C86 O82 1.278 . S
C86 O87 1.211 . S
O87 C86 1.211 . S
C88 O80 1.284 . S
C88 O89 1.273 . S
O89 C88 1.273 . S
O90 Zn81 1.977 . S
O90 C83 1.267 . S
C91 O92 1.160 . S
C91 O98 1.185 . S
O92 C91 1.160 . S
O93 Zn94 1.899 . S
O93 C101 1.284 . S
Zn94 O93 1.899 . S
Zn94 O95 2.032 1_554 S
Zn94 O98 2.086 . S
Zn94 O103 1.977 . S
O95 Zn94 2.032 1_556 S
O95 C99 1.278 . S
C96 O97 1.203 . S
C96 O103 1.267 . S
O97 C96 1.203 . S
O98 C91 1.185 . S
O98 Zn94 2.086 . S
C99 O95 1.278 . S
C99 O100 1.211 . S
O100 C99 1.211 . S
C101 O93 1.284 . S
C101 O102 1.273 . S
O102 C101 1.273 . S
O103 Zn94 1.977 . S
O103 C96 1.267 . S
C104 O105 1.160 . S
C104 O111 1.185 . S
O105 C104 1.160 . S
O106 Zn107 1.899 . S
O106 C114 1.284 . S
Zn107 O106 1.899 . S
Zn107 O108 2.032 . S
Zn107 O111 2.086 . S
Zn107 O116 1.977 . S
O108 Zn107 2.032 . S
O108 C112 1.278 . S
C109 O110 1.203 . S
C109 O116 1.267 . S
O110 C109 1.203 . S
O111 C104 1.185 . S
O111 Zn107 2.086 . S
C112 O108 1.278 . S
C112 O113 1.211 . S
O113 C112 1.211 . S
C114 O106 1.284 . S
C114 O115 1.273 . S
O115 C114 1.273 . S
O116 Zn107 1.977 . S
O116 C109 1.267 . S
C117 O118 1.160 . S
C117 O124 1.185 . S
O118 C117 1.160 . S
O119 Zn120 1.899 . S
O119 C127 1.284 . S
Zn120 O119 1.899 . S
Zn120 O121 2.032 . S
Zn120 O124 2.086 . S
Zn120 O129 1.977 . S
O121 Zn120 2.032 . S
O121 C125 1.278 . S
C122 O123 1.203 . S
C122 O129 1.267 . S
O123 C122 1.203 . S
O124 C117 1.185 . S
O124 Zn120 2.086 . S
C125 O121 1.278 . S
C125 O126 1.211 . S
O126 C125 1.211 . S
C127 O119 1.284 . S
C127 O128 1.273 . S
O128 C127 1.273 . S
O129 Zn120 1.977 . S
O129 C122 1.267 . S
C130 O131 1.160 . S
C130 O137 1.185 . S
O131 C130 1.160 . S
O132 Zn133 1.899 . S
O132 C140 1.284 . S
Zn133 O132 1.899 . S
Zn133 O134 2.032 . S
Zn133 O137 2.086 . S
Zn133 O142 1.977 . S
O134 Zn133 2.032 . S
O134 C138 1.278 . S
C135 O136 1.203 . S
C135 O142 1.267 . S
O136 C135 1.203 . S
O137 C130 1.185 . S
O137 Zn133 2.086 . S
C138 O134 1.278 . S
C138 O139 1.211 . S
O139 C138 1.211 . S
C140 O132 1.284 . S
C140 O141 1.273 . S
O141 C140 1.273 . S
O142 Zn133 1.977 . S
O142 C135 1.267 . S
C143 O144 1.160 . S
C143 O150 1.185 . S
O144 C143 1.160 . S
O145 Zn146 1.899 . S
O145 C153 1.284 . S
Zn146 O145 1.899 . S
Zn146 O147 2.032 . S
Zn146 O150 2.086 . S
Zn146 O155 1.977 . S
O147 Zn146 2.032 . S
O147 C151 1.278 . S
C148 O149 1.203 . S
C148 O155 1.267 . S
O149 C148 1.203 . S
O150 C143 1.185 . S
O150 Zn146 2.086 . S
C151 O147 1.278 . S
C151 O152 1.211 . S
O152 C151 1.211 . S
C153 O145 1.284 . S
C153 O154 1.273 . S
O154 C153 1.273 . S
O155 Zn146 1.977 . S
O155 C148 1.267 . S
C156 O157 1.160 . S
C156 O163 1.185 . S
O157 C156 1.160 . S
O158 Zn159 1.899 . S
O158 C166 1.284 . S
Zn159 O158 1.899 . S
Zn159 O160 2.032 . S
Zn159 O163 2.086 . S
Zn159 O168 1.977 . S
O160 Zn159 2.032 . S
O160 C164 1.278 . S
C161 O162 1.203 . S
C161 O168 1.267 . S
O162 C161 1.203 . S
O163 C156 1.185 . S
O163 Zn159 2.086 . S
C164 O160 1.278 . S
C164 O165 1.211 . S
O165 C164 1.211 . S
C166 O158 1.284 . S
C166 O167 1.273 . S
O167 C166 1.273 . S
O168 Zn159 1.977 . S
O168 C161 1.267 . S
C169 O170 1.160 . S
C169 O176 1.185 . S
O170 C169 1.160 . S
O171 Zn172 1.899 . S
O171 C179 1.284 . S
Zn172 O171 1.899 . S
Zn172 O173 2.032 . S
Zn172 O176 2.086 . S
Zn172 O181 1.977 . S
O173 Zn172 2.032 . S
O173 C177 1.278 . S
C174 O175 1.203 . S
C174 O181 1.267 . S
O175 C174 1.203 . S
O176 C169 1.185 . S
O176 Zn172 2.086 . S
C177 O173 1.278 . S
C177 O178 1.211 . S
O178 C177 1.211 . S
C179 O171 1.284 . S
C179 O180 1.273 . S
O180 C179 1.273 . S
O181 Zn172 1.977 . S
O181 C174 1.267 . S
C182 O183 1.160 . S
C182 O189 1.185 . S
O183 C182 1.160 . S
O184 Zn185 1.899 . S
O184 C192 1.284 . S
Zn185 O184 1.899 . S
Zn185 O186 2.032 . S
Zn185 O189 2.086 . S
Zn185 O194 1.977 . S
O186 Zn185 2.032 . S
O186 C190 1.278 . S
C187 O188 1.203 . S
C187 O194 1.267 . S
O188 C187 1.203 . S
O189 C182 1.185 . S
O189 Zn185 2.086 . S
C190 O186 1.278 . S
C190 O191 1.211 . S
O191 C190 1.211 . S
C192 O184 1.284 . S
C192 O193 1.273 . S
O193 C192 1.273 . S
O194 Zn185 1.977 . S
O194 C187 1.267 . S
C195 O196 1.160 . S
C195 O202 1.185 . S
O196 C195 1.160 . S
O197 Zn198 1.899 . S
O197 C205 1.284 . S
Zn198 O197 1.899 . S
Zn198 O199 2.032 . S
Zn198 O202 2.086 . S
Zn198 O207 1.977 . S
O199 Zn198 2.032 . S
O199 C203 1.278 . S
C200 O201 1.203 . S
C200 O207 1.267 . S
O201 C200 1.203 . S
O202 C195 1.185 . S
O202 Zn198 2.086 . S
C203 O199 1.278 . S
C203 O204 1.211 . S
O204 C203 1.211 . S
C205 O197 1.284 . S
C205 O206 1.273 . S
O206 C205 1.273 . S
O207 Zn198 1.977 . S
O207 C200 1.267 . S
C208 O209 1.160 . S
C208 O215 1.185 . S
O209 C208 1.160 . S
O210 Zn211 1.899 . S
O210 C218 1.284 . S
Zn211 O210 1.899 . S
Zn211 O212 2.032 . S
Zn211 O215 2.086 . S
Zn211 O220 1.977 . S
O212 Zn211 2.032 . S
O212 C216 1.278 . S
C213 O214 1.203 . S
C213 O220 1.267 . S
O214 C213 1.203 . S
O215 C208 1.185 . S
O215 Zn211 2.086 . S
C216 O212 1.278 . S
C216 O217 1.211 . S
O217 C216 1.211 . S
C218 O210 1.284 . S
C218 O219 1.273 . S
O219 C218 1.273 . S
O220 Zn211 1.977 . S
O220 C213 1.267 . S
C221 O222 1.160 . S
C221 O228 1.185 . S
O222 C221 1.160 . S
O223 Zn224 1.899 . S
O223 C231 1.284 . S
Zn224 O223 1.899 . S
Zn224 O225 2.032 . S
Zn224 O228 2.086 . S
Zn224 O233 1.977 . S
O225 Zn224 2.032 . S
O225 C229 1.278 . S
C226 O227 1.203 . S
C226 O233 1.267 . S
O227 C226 1.203 . S
O228 C221 1.185 . S
O228 Zn224 2.086 . S
C229 O225 1.278 . S
C229 O230 1.211 . S
O230 C229 1.211 . S
C231 O223 1.284 . S
C231 O232 1.273 . S
O232 C231 1.273 . S
O233 Zn224 1.977 . S
O233 C226 1.267 . S
C234 O235 1.160 . S
C234 O241 1.185 . S
O235 C234 1.160 . S
O236 Zn237 1.899 . S
O236 C244 1.284 . S
Zn237 O236 1.899 . S
Zn237 O238 2.032 . S
Zn237 O241 2.086 . S
Zn237 O246 1.977 . S
O238 Zn237 2.032 . S
O238 C242 1.278 . S
C239 O240 1.203 . S
C239 O246 1.267 . S
O240 C239 1.203 . S
O241 C234 1.185 . S
O241 Zn237 2.086 . S
C242 O238 1.278 . S
C242 O243 1.211 . S
O243 C242 1.211 . S
C244 O236 1.284 . S
C244 O245 1.273 . S
O245 C244 1.273 . S
O246 Zn237 1.977 . S
O246 C239 1.267 . S
C247 O248 1.160 . S
C247 O254 1.185 . S
O248 C247 1.160 . S
O249 Zn250 1.899 . S
O249 C257 1.284 . S
Zn250 O249 1.899 . S
Zn250 O251 2.032 . S
Zn250 O254 2.086 . S
Zn250 O259 1.977 . S
O251 Zn250 2.032 . S
O251 C255 1.278 . S
C252 O253 1.203 . S
C252 O259 1.267 . S
O253 C252 1.203 . S
O254 C247 1.185 . S
O254 Zn250 2.086 . S
C255 O251 1.278 . S
C255 O256 1.211 . S
O256 C255 1.211 . S
C257 O249 1.284 . S
C257 O258 1.273 . S
O258 C257 1.273 . S
O259 Zn250 1.977 . S
O259 C252 1.267 . S
C260 O261 1.160 . S
C260 O267 1.185 . S
O261 C260 1.160 . S
O262 Zn263 1.899 . S
O262 C270 1.284 . S
Zn263 O262 1.899 . S
Zn263 O264 2.032 . S
Zn263 O267 2.086 . S
Zn263 O272 1.977 . S
O264 Zn263 2.032 . S
O264 C268 1.278 . S
C265 O266 1.203 . S
C265 O272 1.267 . S
O266 C265 1.203 . S
O267 C260 1.185 . S
O267 Zn263 2.086 . S
C268 O264 1.278 . S
C268 O269 1.211 . S
O269 C268 1.211 . S
C270 O262 1.284 . S
C270 O271 1.273 . S
O271 C270 1.273 . S
O272 Zn263 1.977 . S
O272 C265 1.267 . S
C273 O274 1.160 . S
C273 O280 1.185 . S
O274 C273 1.160 . S
O275 Zn276 1.899 . S
O275 C283 1.284 . S
Zn276 O275 1.899 . S
Zn276 O277 2.032 . S
Zn276 O280 2.086 . S
Zn276 O285 1.977 . S
O277 Zn276 2.032 . S
O277 C281 1.278 . S
C278 O279 1.203 . S
C278 O285 1.267 . S
O279 C278 1.203 . S
O280 C273 1.185 . S
O280 Zn276 2.086 . S
C281 O277 1.278 . S
C281 O282 1.211 . S
O282 C281 1.211 . S
C283 O275 1.284 . S
C283 O284 1.273 . S
O284 C283 1.273 . S
O285 Zn276 1.977 . S
O285 C278 1.267 . S
C286 O287 1.160 . S
C286 O293 1.185 . S
O287 C286 1.160 . S
O288 Zn289 1.899 . S
O288 C296 1.284 . S
Zn289 O288 1.899 . S
Zn289 O290 2.032 . S
Zn289 O293 2.086 . S
Zn289 O298 1.977 . S
O290 Zn289 2.032 . S
O290 C294 1.278 . S
C291 O292 1.203 . S
C291 O298 1.267 . S
O292 C291 1.203 . S
O293 C286 1.185 . S
O293 Zn289 2.086 . S
C294 O290 1.278 . S
C294 O295 1.211 . S
O295 C294 1.211 . S
C296 O288 1.284 . S
C296 O297 1.273 . S
O297 C296 1.273 . S
O298 Zn289 1.977 . S
O298 C291 1.267 . S
C299 O300 1.160 . S
C299 O306 1.185 . S
O300 C299 1.160 . S
O301 Zn302 1.899 . S
O301 C309 1.284 . S
Zn302 O301 1.899 . S
Zn302 O303 2.032 . S
Zn302 O306 2.086 . S
Zn302 O311 1.977 . S
O303 Zn302 2.032 . S
O303 C307 1.278 . S
C304 O305 1.203 . S
C304 O311 1.267 . S
O305 C304 1.203 . S
O306 C299 1.185 . S
O306 Zn302 2.086 . S
C307 O303 1.278 . S
C307 O308 1.211 . S
O308 C307 1.211 . S
C309 O301 1.284 . S
C309 O310 1.273 . S
O310 C309 1.273 . S
O311 Zn302 1.977 . S
O311 C304 1.267 . S
C312 O313 1.160 . S
C312 O319 1.185 . S
O313 C312 1.160 . S
O314 Zn315 1.899 . S
O314 C322 1.284 . S
Zn315 O314 1.899 . S
Zn315 O316 2.032 . S
Zn315 O319 2.086 . S
Zn315 O324 1.977 . S
O316 Zn315 2.032 . S
O316 C320 1.278 . S
C317 O318 1.203 . S
C317 O324 1.267 . S
O318 C317 1.203 . S
O319 C312 1.185 . S
O319 Zn315 2.086 . S
C320 O316 1.278 . S
C320 O321 1.211 . S
O321 C320 1.211 . S
C322 O314 1.284 . S
C322 O323 1.273 . S
O323 C322 1.273 . S
O324 Zn315 1.977 . S
O324 C317 1.267 . S
C325 O326 1.160 . S
C325 O332 1.185 . S
O326 C325 1.160 . S
O327 Zn328 1.899 . S
O327 C335 1.284 . S
Zn328 O327 1.899 . S
Zn328 O329 2.032 . S
Zn328 O332 2.086 . S
Zn328 O337 1.977 . S
O329 Zn328 2.032 . S
O329 C333 1.278 . S
C330 O331 1.203 . S
C330 O337 1.267 . S
O331 C330 1.203 . S
O332 C325 1.185 . S
O332 Zn328 2.086 . S
C333 O329 1.278 . S
C333 O334 1.211 . S
O334 C333 1.211 . S
C335 O327 1.284 . S
C335 O336 1.273 . S
O336 C335 1.273 . S
O337 Zn328 1.977 . S
O337 C330 1.267 . S
C338 O339 1.160 . S
C338 O345 1.185 . S
O339 C338 1.160 . S
O340 Zn341 1.899 . S
O340 C348 1.284 . S
Zn341 O340 1.899 . S
Zn341 O342 2.032 1_556 S
Zn341 O345 2.086 . S
Zn341 O350 1.977 . S
O342 Zn341 2.032 1_554 S
O342 C346 1.278 . S
C343 O344 1.203 . S
C343 O350 1.267 . S
O344 C343 1.203 . S
O345 C338 1.185 . S
O345 Zn341 2.086 . S
C346 O342 1.278 . S
C346 O347 1.211 . S
O347 C346 1.211 . S
C348 O340 1.284 . S
C348 O349 1.273 . S
O349 C348 1.273 . S
O350 Zn341 1.977 . S
O350 C343 1.267 . S
C351 O352 1.160 . S
C351 O358 1.185 . S
O352 C351 1.160 . S
O353 Zn354 1.899 . S
O353 C361 1.284 . S
Zn354 O353 1.899 . S
Zn354 O355 2.032 1_556 S
Zn354 O358 2.086 . S
Zn354 O363 1.977 . S
O355 Zn354 2.032 1_554 S
O355 C359 1.278 . S
C356 O357 1.203 . S
C356 O363 1.267 . S
O357 C356 1.203 . S
O358 C351 1.185 . S
O358 Zn354 2.086 . S
C359 O355 1.278 . S
C359 O360 1.211 . S
O360 C359 1.211 . S
C361 O353 1.284 . S
C361 O362 1.273 . S
O362 C361 1.273 . S
O363 Zn354 1.977 . S
O363 C356 1.267 . S
C364 O365 1.160 . S
C364 O371 1.185 . S
O365 C364 1.160 . S
O366 Zn367 1.899 . S
O366 C374 1.284 . S
Zn367 O366 1.899 . S
Zn367 O368 2.032 . S
Zn367 O371 2.086 . S
Zn367 O376 1.977 . S
O368 Zn367 2.032 . S
O368 C372 1.278 . S
C369 O370 1.203 . S
C369 O376 1.267 . S
O370 C369 1.203 . S
O371 C364 1.185 . S
O371 Zn367 2.086 . S
C372 O368 1.278 . S
C372 O373 1.211 . S
O373 C372 1.211 . S
C374 O366 1.284 . S
C374 O375 1.273 . S
O375 C374 1.273 . S
O376 Zn367 1.977 . S
O376 C369 1.267 . S
C377 O378 1.160 . S
C377 O384 1.185 . S
O378 C377 1.160 . S
O379 Zn380 1.899 . S
O379 C387 1.284 . S
Zn380 O379 1.899 . S
Zn380 O381 2.032 . S
Zn380 O384 2.086 . S
Zn380 O389 1.977 . S
O381 Zn380 2.032 . S
O381 C385 1.278 . S
C382 O383 1.203 . S
C382 O389 1.267 . S
O383 C382 1.203 . S
O384 C377 1.185 . S
O384 Zn380 2.086 . S
C385 O381 1.278 . S
C385 O386 1.211 . S
O386 C385 1.211 . S
C387 O379 1.284 . S
C387 O388 1.273 . S
O388 C387 1.273 . S
O389 Zn380 1.977 . S
O389 C382 1.267 . S
C390 O391 1.160 . S
C390 O397 1.185 . S
O391 C390 1.160 . S
O392 Zn393 1.899 . S
O392 C400 1.284 . S
Zn393 O392 1.899 . S
Zn393 O394 2.032 1_554 S
Zn393 O397 2.086 . S
Zn393 O402 1.977 . S
O394 Zn393 2.032 1_556 S
O394 C398 1.278 . S
C395 O396 1.203 . S
C395 O402 1.267 . S
O396 C395 1.203 . S
O397 C390 1.185 . S
O397 Zn393 2.086 . S
C398 O394 1.278 . S
C398 O399 1.211 . S
O399 C398 1.211 . S
C400 O392 1.284 . S
C400 O401 1.273 . S
O401 C400 1.273 . S
O402 Zn393 1.977 . S
O402 C395 1.267 . S
C403 O404 1.160 . S
C403 O410 1.185 . S
O404 C403 1.160 . S
O405 Zn406 1.899 . S
O405 C413 1.284 . S
Zn406 O405 1.899 . S
Zn406 O407 2.032 1_554 S
Zn406 O410 2.086 . S
Zn406 O415 1.977 . S
O407 Zn406 2.032 1_556 S
O407 C411 1.278 . S
C408 O409 1.203 . S
C408 O415 1.267 . S
O409 C408 1.203 . S
O410 C403 1.185 . S
O410 Zn406 2.086 . S
C411 O407 1.278 . S
C411 O412 1.211 . S
O412 C411 1.211 . S
C413 O405 1.284 . S
C413 O414 1.273 . S
O414 C413 1.273 . S
O415 Zn406 1.977 . S
O415 C408 1.267 . S
H416 C422 0.930 . S
H417 C425 0.933 . S
H418 C426 0.930 . S
H419 C427 0.930 1_655 S
H420 C430 0.930 . S
H421 C431 0.930 . S
C422 H416 0.930 . S
C422 C423 1.355 . S
C422 C424 1.415 . S
C423 C422 1.355 . S
C423 C425 1.415 1_455 S
C424 C422 1.415 . S
C424 C429 1.425 . S
C424 C431 1.409 . S
C425 H417 0.933 . S
C425 C423 1.415 1_655 S
C425 C426 1.363 . S
C426 H418 0.930 . S
C426 C425 1.363 . S
C426 C429 1.409 1_655 S
C427 H419 0.930 1_455 S
C427 C428 1.355 . S
C427 C429 1.415 . S
C428 C427 1.355 . S
C428 C430 1.419 . S
C429 C424 1.425 . S
C429 C426 1.409 1_455 S
C429 C427 1.415 . S
C430 H420 0.930 . S
C430 C428 1.419 . S
C430 C431 1.362 . S
C431 H421 0.930 . S
C431 C424 1.409 . S
C431 C430 1.362 . S
H432 C438 0.930 . S
H433 C441 0.930 . S
H434 C442 0.930 . S
H435 C443 0.930 . S
H436 C446 0.930 . S
H437 C447 0.930 . S
C438 H432 0.930 . S
C438 C439 1.355 . S
C438 C440 1.415 . S
C439 C438 1.355 . S
C439 C441 1.419 . S
C440 C438 1.415 . S
C440 C445 1.425 . S
C440 C447 1.409 . S
C441 H433 0.930 . S
C441 C439 1.419 . S
C441 C442 1.362 . S
C442 H434 0.930 . S
C442 C441 1.362 . S
C442 C445 1.409 . S
C443 H435 0.930 . S
C443 C444 1.355 . S
C443 C445 1.415 . S
C444 C443 1.355 . S
C444 C446 1.419 . S
C445 C440 1.425 . S
C445 C442 1.409 . S
C445 C443 1.415 . S
C446 H436 0.930 . S
C446 C444 1.419 . S
C446 C447 1.362 . S
C447 H437 0.930 . S
C447 C440 1.409 . S
C447 C446 1.362 . S
H448 C454 0.930 . S
H449 C457 0.930 . S
H450 C458 0.930 . S
H451 C459 0.930 1_655 S
H452 C462 0.930 . S
H453 C463 0.930 . S
C454 H448 0.930 . S
C454 C455 1.355 . S
C454 C456 1.415 . S
C455 C454 1.355 . S
C455 C457 1.419 1_455 S
C456 C454 1.415 . S
C456 C461 1.425 . S
C456 C463 1.409 . S
C457 H449 0.930 . S
C457 C455 1.419 1_655 S
C457 C458 1.362 . S
C458 H450 0.930 . S
C458 C457 1.362 . S
C458 C461 1.409 1_655 S
C459 H451 0.930 1_455 S
C459 C460 1.355 . S
C459 C461 1.415 . S
C460 C459 1.355 . S
C460 C462 1.419 . S
C461 C456 1.425 . S
C461 C458 1.409 1_455 S
C461 C459 1.415 . S
C462 H452 0.930 . S
C462 C460 1.419 . S
C462 C463 1.362 . S
C463 H453 0.930 . S
C463 C456 1.409 . S
C463 C462 1.362 . S
H464 C470 0.930 . S
H465 C473 0.930 . S
H466 C474 0.930 . S
H467 C475 0.930 . S
H468 C478 0.930 . S
H469 C479 0.930 . S
C470 H464 0.930 . S
C470 C471 1.355 . S
C470 C472 1.415 . S
C471 C470 1.355 . S
C471 C473 1.419 . S
C472 C470 1.415 . S
C472 C477 1.425 . S
C472 C479 1.409 . S
C473 H465 0.930 . S
C473 C471 1.419 . S
C473 C474 1.362 . S
C474 H466 0.930 . S
C474 C473 1.362 . S
C474 C477 1.409 . S
C475 H467 0.930 . S
C475 C476 1.355 . S
C475 C477 1.415 . S
C476 C475 1.355 . S
C476 C478 1.419 . S
C477 C472 1.425 . S
C477 C474 1.409 . S
C477 C475 1.415 . S
C478 H468 0.930 . S
C478 C476 1.419 . S
C478 C479 1.362 . S
C479 H469 0.930 . S
C479 C472 1.409 . S
C479 C478 1.362 . S
H480 C486 0.930 1_455 S
H481 C489 0.930 . S
H482 C490 0.930 . S
H483 C491 0.930 . S
H484 C494 0.930 . S
H485 C495 0.930 . S
C486 H480 0.930 1_655 S
C486 C487 1.355 . S
C486 C488 1.415 . S
C487 C486 1.355 . S
C487 C489 1.419 . S
C488 C486 1.415 . S
C488 C493 1.425 . S
C488 C495 1.409 1_655 S
C489 H481 0.930 . S
C489 C487 1.419 . S
C489 C490 1.362 . S
C490 H482 0.930 . S
C490 C489 1.362 . S
C490 C493 1.409 . S
C491 H483 0.930 . S
C491 C492 1.355 . S
C491 C493 1.415 . S
C492 C491 1.355 . S
C492 C494 1.419 1_655 S
C493 C488 1.425 . S
C493 C490 1.409 . S
C493 C491 1.415 . S
C494 H484 0.930 . S
C494 C492 1.419 1_455 S
C494 C495 1.362 . S
C495 H485 0.930 . S
C495 C488 1.409 1_455 S
C495 C494 1.362 . S
H496 C502 0.930 . S
H497 C505 0.930 . S
H498 C506 0.930 . S
H499 C507 0.930 . S
H500 C510 0.930 . S
H501 C511 0.930 . S
C502 H496 0.930 . S
C502 C503 1.355 . S
C502 C504 1.415 . S
C503 C502 1.355 . S
C503 C505 1.419 . S
C504 C502 1.415 . S
C504 C509 1.425 . S
C504 C511 1.409 . S
C505 H497 0.930 . S
C505 C503 1.419 . S
C505 C506 1.362 . S
C506 H498 0.930 . S
C506 C505 1.362 . S
C506 C509 1.409 . S
C507 H499 0.930 . S
C507 C508 1.355 . S
C507 C509 1.415 . S
C508 C507 1.355 . S
C508 C510 1.419 . S
C509 C504 1.425 . S
C509 C506 1.409 . S
C509 C507 1.415 . S
C510 H500 0.930 . S
C510 C508 1.419 . S
C510 C511 1.362 . S
C511 H501 0.930 . S
C511 C504 1.409 . S
C511 C510 1.362 . S
H512 C518 0.930 1_455 S
H513 C521 0.930 . S
H514 C522 0.930 . S
H515 C523 0.930 . S
H516 C526 0.930 . S
H517 C527 0.930 . S
C518 H512 0.930 1_655 S
C518 C519 1.355 . S
C518 C520 1.415 . S
C519 C518 1.355 . S
C519 C521 1.419 . S
C520 C518 1.415 . S
C520 C525 1.425 . S
C520 C527 1.409 1_655 S
C521 H513 0.930 . S
C521 C519 1.419 . S
C521 C522 1.362 . S
C522 H514 0.930 . S
C522 C521 1.362 . S
C522 C525 1.409 . S
C523 H515 0.930 . S
C523 C524 1.355 . S
C523 C525 1.415 . S
C524 C523 1.355 . S
C524 C526 1.419 1_655 S
C525 C520 1.425 . S
C525 C522 1.409 . S
C525 C523 1.415 . S
C526 H516 0.930 . S
C526 C524 1.419 1_455 S
C526 C527 1.362 . S
C527 H517 0.930 . S
C527 C520 1.409 1_455 S
C527 C526 1.362 . S
H528 C534 0.930 . S
H529 C537 0.930 . S
H530 C538 0.930 . S
H531 C539 0.930 . S
H532 C542 0.930 . S
H533 C543 0.930 . S
C534 H528 0.930 . S
C534 C535 1.355 . S
C534 C536 1.415 . S
C535 C534 1.355 . S
C535 C537 1.419 . S
C536 C534 1.415 . S
C536 C541 1.425 . S
C536 C543 1.409 . S
C537 H529 0.930 . S
C537 C535 1.419 . S
C537 C538 1.362 . S
C538 H530 0.930 . S
C538 C537 1.362 . S
C538 C541 1.409 . S
C539 H531 0.930 . S
C539 C540 1.355 . S
C539 C541 1.415 . S
C540 C539 1.355 . S
C540 C542 1.419 . S
C541 C536 1.425 . S
C541 C538 1.409 . S
C541 C539 1.415 . S
C542 H532 0.930 . S
C542 C540 1.419 . S
C542 C543 1.362 . S
C543 H533 0.930 . S
C543 C536 1.409 . S
C543 C542 1.362 . S
H544 C550 0.930 . S
H545 C553 0.930 . S
H546 C554 0.930 . S
H547 C555 0.930 . S
H548 C558 0.930 . S
H549 C559 0.930 . S
C550 H544 0.930 . S
C550 C551 1.355 . S
C550 C552 1.415 . S
C551 C550 1.355 . S
C551 C553 1.419 . S
C552 C550 1.415 . S
C552 C557 1.425 . S
C552 C559 1.409 . S
C553 H545 0.930 . S
C553 C551 1.419 . S
C553 C554 1.362 . S
C554 H546 0.930 . S
C554 C553 1.362 . S
C554 C557 1.409 . S
C555 H547 0.930 . S
C555 C556 1.355 . S
C555 C557 1.415 . S
C556 C555 1.355 . S
C556 C558 1.419 . S
C557 C552 1.425 . S
C557 C554 1.409 . S
C557 C555 1.415 . S
C558 H548 0.930 . S
C558 C556 1.419 . S
C558 C559 1.362 . S
C559 H549 0.930 . S
C559 C552 1.409 . S
C559 C558 1.362 . S
H560 C566 0.930 . S
H561 C569 0.930 . S
H562 C570 0.930 . S
H563 C571 0.930 . S
H564 C574 0.930 . S
H565 C575 0.930 . S
C566 H560 0.930 . S
C566 C567 1.355 . S
C566 C568 1.415 . S
C567 C566 1.355 . S
C567 C569 1.419 . S
C568 C566 1.415 . S
C568 C573 1.425 . S
C568 C575 1.409 . S
C569 H561 0.930 . S
C569 C567 1.419 . S
C569 C570 1.362 . S
C570 H562 0.930 . S
C570 C569 1.362 . S
C570 C573 1.409 . S
C571 H563 0.930 . S
C571 C572 1.355 . S
C571 C573 1.415 . S
C572 C571 1.355 . S
C572 C574 1.419 . S
C573 C568 1.425 . S
C573 C570 1.409 . S
C573 C571 1.415 . S
C574 H564 0.930 . S
C574 C572 1.419 . S
C574 C575 1.362 . S
C575 H565 0.930 . S
C575 C568 1.409 . S
C575 C574 1.362 . S
H576 C582 0.930 . S
H577 C585 0.930 . S
H578 C586 0.930 . S
H579 C587 0.930 . S
H580 C590 0.930 . S
H581 C591 0.930 . S
C582 H576 0.930 . S
C582 C583 1.355 . S
C582 C584 1.415 . S
C583 C582 1.355 . S
C583 C585 1.419 . S
C584 C582 1.415 . S
C584 C589 1.425 . S
C584 C591 1.409 . S
C585 H577 0.930 . S
C585 C583 1.419 . S
C585 C586 1.362 . S
C586 H578 0.930 . S
C586 C585 1.362 . S
C586 C589 1.409 . S
C587 H579 0.930 . S
C587 C588 1.355 . S
C587 C589 1.415 . S
C588 C587 1.355 . S
C588 C590 1.419 . S
C589 C584 1.425 . S
C589 C586 1.409 . S
C589 C587 1.415 . S
C590 H580 0.930 . S
C590 C588 1.419 . S
C590 C591 1.362 . S
C591 H581 0.930 . S
C591 C584 1.409 . S
C591 C590 1.362 . S
H592 C598 0.930 . S
H593 C601 0.930 . S
H594 C602 0.930 . S
H595 C603 0.930 . S
H596 C606 0.930 . S
H597 C607 0.930 . S
C598 H592 0.930 . S
C598 C599 1.355 . S
C598 C600 1.415 . S
C599 C598 1.355 . S
C599 C601 1.419 . S
C600 C598 1.415 . S
C600 C605 1.425 . S
C600 C607 1.409 . S
C601 H593 0.930 . S
C601 C599 1.419 . S
C601 C602 1.362 . S
C602 H594 0.930 . S
C602 C601 1.362 . S
C602 C605 1.409 . S
C603 H595 0.930 . S
C603 C604 1.355 . S
C603 C605 1.415 . S
C604 C603 1.355 . S
C604 C606 1.419 . S
C605 C600 1.425 . S
C605 C602 1.409 . S
C605 C603 1.415 . S
C606 H596 0.930 . S
C606 C604 1.419 . S
C606 C607 1.362 . S
C607 H597 0.930 . S
C607 C600 1.409 . S
C607 C606 1.362 . S
H608 C614 0.930 . S
H609 C617 0.930 . S
H610 C618 0.930 . S
H611 C619 0.930 . S
H612 C622 0.930 . S
H613 C623 0.930 . S
C614 H608 0.930 . S
C614 C615 1.355 . S
C614 C616 1.415 . S
C615 C614 1.355 . S
C615 C617 1.419 . S
C616 C614 1.415 . S
C616 C621 1.425 . S
C616 C623 1.409 . S
C617 H609 0.930 . S
C617 C615 1.419 . S
C617 C618 1.362 . S
C618 H610 0.930 . S
C618 C617 1.362 . S
C618 C621 1.409 . S
C619 H611 0.930 . S
C619 C620 1.355 . S
C619 C621 1.415 . S
C620 C619 1.355 . S
C620 C622 1.419 . S
C621 C616 1.425 . S
C621 C618 1.409 . S
C621 C619 1.415 . S
C622 H612 0.930 . S
C622 C620 1.419 . S
C622 C623 1.362 . S
C623 H613 0.930 . S
C623 C616 1.409 . S
C623 C622 1.362 . S
H624 C630 0.930 . S
H625 C633 0.930 . S
H626 C634 0.930 . S
H627 C635 0.930 . S
H628 C638 0.930 . S
H629 C639 0.930 . S
C630 H624 0.930 . S
C630 C631 1.355 . S
C630 C632 1.415 . S
C631 C630 1.355 . S
C631 C633 1.419 . S
C632 C630 1.415 . S
C632 C637 1.425 . S
C632 C639 1.409 . S
C633 H625 0.930 . S
C633 C631 1.419 . S
C633 C634 1.362 . S
C634 H626 0.930 . S
C634 C633 1.362 . S
C634 C637 1.409 . S
C635 H627 0.930 . S
C635 C636 1.355 . S
C635 C637 1.415 . S
C636 C635 1.355 . S
C636 C638 1.419 . S
C637 C632 1.425 . S
C637 C634 1.409 . S
C637 C635 1.415 . S
C638 H628 0.930 . S
C638 C636 1.419 . S
C638 C639 1.362 . S
C639 H629 0.930 . S
C639 C632 1.409 . S
C639 C638 1.362 . S
H640 C646 0.930 . S
H641 C649 0.930 . S
H642 C650 0.930 . S
H643 C651 0.930 . S
H644 C654 0.930 . S
H645 C655 0.930 . S
C646 H640 0.930 . S
C646 C647 1.355 . S
C646 C648 1.415 . S
C647 C646 1.355 . S
C647 C649 1.419 . S
C648 C646 1.415 . S
C648 C653 1.425 . S
C648 C655 1.409 . S
C649 H641 0.930 . S
C649 C647 1.419 . S
C649 C650 1.362 . S
C650 H642 0.930 . S
C650 C649 1.362 . S
C650 C653 1.409 . S
C651 H643 0.930 . S
C651 C652 1.355 . S
C651 C653 1.415 . S
C652 C651 1.355 . S
C652 C654 1.419 . S
C653 C648 1.425 . S
C653 C650 1.409 . S
C653 C651 1.415 . S
C654 H644 0.930 . S
C654 C652 1.419 . S
C654 C655 1.362 . S
C655 H645 0.930 . S
C655 C648 1.409 . S
C655 C654 1.362 . S
H656 C662 0.930 . S
H657 C665 0.930 . S
H658 C666 0.930 . S
H659 C667 0.930 . S
H660 C670 0.930 . S
H661 C671 0.930 . S
C662 H656 0.930 . S
C662 C663 1.355 . S
C662 C664 1.415 . S
C663 C662 1.355 . S
C663 C665 1.419 . S
C664 C662 1.415 . S
C664 C669 1.425 . S
C664 C671 1.409 . S
C665 H657 0.930 . S
C665 C663 1.419 . S
C665 C666 1.362 . S
C666 H658 0.930 . S
C666 C665 1.362 . S
C666 C669 1.409 . S
C667 H659 0.930 . S
C667 C668 1.355 . S
C667 C669 1.415 . S
C668 C667 1.355 . S
C668 C670 1.419 . S
C669 C664 1.425 . S
C669 C666 1.409 . S
C669 C667 1.415 . S
C670 H660 0.930 . S
C670 C668 1.419 . S
C670 C671 1.362 . S
C671 H661 0.930 . S
C671 C664 1.409 . S
C671 C670 1.362 . S
H672 C678 0.930 . S
H673 C681 0.930 . S
H674 C682 0.930 . S
H675 C683 0.930 . S
H676 C686 0.930 . S
H677 C687 0.930 . S
C678 H672 0.930 . S
C678 C679 1.355 . S
C678 C680 1.415 . S
C679 C678 1.355 . S
C679 C681 1.419 . S
C680 C678 1.415 . S
C680 C685 1.425 . S
C680 C687 1.409 . S
C681 H673 0.930 . S
C681 C679 1.419 . S
C681 C682 1.362 . S
C682 H674 0.930 . S
C682 C681 1.362 . S
C682 C685 1.409 . S
C683 H675 0.930 . S
C683 C684 1.355 . S
C683 C685 1.415 . S
C684 C683 1.355 . S
C684 C686 1.419 . S
C685 C680 1.425 . S
C685 C682 1.409 . S
C685 C683 1.415 . S
C686 H676 0.930 . S
C686 C684 1.419 . S
C686 C687 1.362 . S
C687 H677 0.930 . S
C687 C680 1.409 . S
C687 C686 1.362 . S
H688 C694 0.930 . S
H689 C697 0.930 . S
H690 C698 0.930 . S
H691 C699 0.930 . S
H692 C702 0.930 . S
H693 C703 0.930 . S
C694 H688 0.930 . S
C694 C695 1.355 . S
C694 C696 1.415 . S
C695 C694 1.355 . S
C695 C697 1.419 . S
C696 C694 1.415 . S
C696 C701 1.425 . S
C696 C703 1.409 . S
C697 H689 0.930 . S
C697 C695 1.419 . S
C697 C698 1.362 . S
C698 H690 0.930 . S
C698 C697 1.362 . S
C698 C701 1.409 . S
C699 H691 0.930 . S
C699 C700 1.355 . S
C699 C701 1.415 . S
C700 C699 1.355 . S
C700 C702 1.419 . S
C701 C696 1.425 . S
C701 C698 1.409 . S
C701 C699 1.415 . S
C702 H692 0.930 . S
C702 C700 1.419 . S
C702 C703 1.362 . S
C703 H693 0.930 . S
C703 C696 1.409 . S
C703 C702 1.362 . S
H704 C710 0.930 . S
H705 C713 0.930 . S
H706 C714 0.930 . S
H707 C715 0.930 . S
H708 C718 0.930 . S
H709 C719 0.930 . S
C710 H704 0.930 . S
C710 C711 1.355 . S
C710 C712 1.415 . S
C711 C710 1.355 . S
C711 C713 1.419 . S
C712 C710 1.415 . S
C712 C717 1.425 . S
C712 C719 1.409 . S
C713 H705 0.930 . S
C713 C711 1.419 . S
C713 C714 1.362 . S
C714 H706 0.930 . S
C714 C713 1.362 . S
C714 C717 1.409 . S
C715 H707 0.930 . S
C715 C716 1.355 . S
C715 C717 1.415 . S
C716 C715 1.355 . S
C716 C718 1.419 . S
C717 C712 1.425 . S
C717 C714 1.409 . S
C717 C715 1.415 . S
C718 H708 0.930 . S
C718 C716 1.419 . S
C718 C719 1.362 . S
C719 H709 0.930 . S
C719 C712 1.409 . S
C719 C718 1.362 . S
H720 C726 0.930 . S
H721 C729 0.930 . S
H722 C730 0.930 . S
H723 C731 0.930 . S
H724 C734 0.930 . S
H725 C735 0.930 . S
C726 H720 0.930 . S
C726 C727 1.355 . S
C726 C728 1.415 . S
C727 C726 1.355 . S
C727 C729 1.419 . S
C728 C726 1.415 . S
C728 C733 1.425 . S
C728 C735 1.409 . S
C729 H721 0.930 . S
C729 C727 1.419 . S
C729 C730 1.362 . S
C730 H722 0.930 . S
C730 C729 1.362 . S
C730 C733 1.409 . S
C731 H723 0.930 . S
C731 C732 1.355 . S
C731 C733 1.415 . S
C732 C731 1.355 . S
C732 C734 1.419 . S
C733 C728 1.425 . S
C733 C730 1.409 . S
C733 C731 1.415 . S
C734 H724 0.930 . S
C734 C732 1.419 . S
C734 C735 1.362 . S
C735 H725 0.930 . S
C735 C728 1.409 . S
C735 C734 1.362 . S
H736 C742 0.930 . S
H737 C745 0.930 . S
H738 C746 0.930 . S
H739 C747 0.930 . S
H740 C750 0.930 . S
H741 C751 0.930 . S
C742 H736 0.930 . S
C742 C743 1.355 . S
C742 C744 1.415 . S
C743 C742 1.355 . S
C743 C745 1.419 . S
C744 C742 1.415 . S
C744 C749 1.425 . S
C744 C751 1.409 . S
C745 H737 0.930 . S
C745 C743 1.419 . S
C745 C746 1.362 . S
C746 H738 0.930 . S
C746 C745 1.362 . S
C746 C749 1.409 . S
C747 H739 0.930 . S
C747 C748 1.355 . S
C747 C749 1.415 . S
C748 C747 1.355 . S
C748 C750 1.419 . S
C749 C744 1.425 . S
C749 C746 1.409 . S
C749 C747 1.415 . S
C750 H740 0.930 . S
C750 C748 1.419 . S
C750 C751 1.362 . S
C751 H741 0.930 . S
C751 C744 1.409 . S
C751 C750 1.362 . S
H752 C758 0.930 . S
H753 C761 0.930 . S
H754 C762 0.930 . S
H755 C763 0.930 . S
H756 C766 0.930 . S
H757 C767 0.930 . S
C758 H752 0.930 . S
C758 C759 1.355 . S
C758 C760 1.415 . S
C759 C758 1.355 . S
C759 C761 1.419 . S
C760 C758 1.415 . S
C760 C765 1.425 . S
C760 C767 1.409 . S
C761 H753 0.930 . S
C761 C759 1.419 . S
C761 C762 1.362 . S
C762 H754 0.930 . S
C762 C761 1.362 . S
C762 C765 1.409 . S
C763 H755 0.930 . S
C763 C764 1.355 . S
C763 C765 1.415 . S
C764 C763 1.355 . S
C764 C766 1.419 . S
C765 C760 1.425 . S
C765 C762 1.409 . S
C765 C763 1.415 . S
C766 H756 0.930 . S
C766 C764 1.419 . S
C766 C767 1.362 . S
C767 H757 0.930 . S
C767 C760 1.409 . S
C767 C766 1.362 . S
H768 C774 0.930 . S
H769 C777 0.930 . S
H770 C778 0.930 . S
H771 C779 0.930 . S
H772 C782 0.930 . S
H773 C783 0.930 . S
C774 H768 0.930 . S
C774 C775 1.355 . S
C774 C776 1.415 . S
C775 C774 1.355 . S
C775 C777 1.419 . S
C776 C774 1.415 . S
C776 C781 1.425 . S
C776 C783 1.409 . S
C777 H769 0.930 . S
C777 C775 1.419 . S
C777 C778 1.362 . S
C778 H770 0.930 . S
C778 C777 1.362 . S
C778 C781 1.409 . S
C779 H771 0.930 . S
C779 C780 1.355 . S
C779 C781 1.415 . S
C780 C779 1.355 . S
C780 C782 1.419 . S
C781 C776 1.425 . S
C781 C778 1.409 . S
C781 C779 1.415 . S
C782 H772 0.930 . S
C782 C780 1.419 . S
C782 C783 1.362 . S
C783 H773 0.930 . S
C783 C776 1.409 . S
C783 C782 1.362 . S
H784 C790 0.930 . S
H785 C793 0.930 . S
H786 C794 0.930 . S
H787 C795 0.930 . S
H788 C798 0.930 . S
H789 C799 0.930 . S
C790 H784 0.930 . S
C790 C791 1.355 . S
C790 C792 1.415 . S
C791 C790 1.355 . S
C791 C793 1.419 . S
C792 C790 1.415 . S
C792 C797 1.425 . S
C792 C799 1.409 . S
C793 H785 0.930 . S
C793 C791 1.419 . S
C793 C794 1.362 . S
C794 H786 0.930 . S
C794 C793 1.362 . S
C794 C797 1.409 . S
C795 H787 0.930 . S
C795 C796 1.355 . S
C795 C797 1.415 . S
C796 C795 1.355 . S
C796 C798 1.419 . S
C797 C792 1.425 . S
C797 C794 1.409 . S
C797 C795 1.415 . S
C798 H788 0.930 . S
C798 C796 1.419 . S
C798 C799 1.362 . S
C799 H789 0.930 . S
C799 C792 1.409 . S
C799 C798 1.362 . S
H800 C806 0.930 . S
H801 C809 0.930 . S
H802 C810 0.930 . S
H803 C811 0.930 . S
H804 C814 0.930 . S
H805 C815 0.930 . S
C806 H800 0.930 . S
C806 C807 1.355 . S
C806 C808 1.415 . S
C807 C806 1.355 . S
C807 C809 1.419 . S
C808 C806 1.415 . S
C808 C813 1.425 . S
C808 C815 1.409 . S
C809 H801 0.930 . S
C809 C807 1.419 . S
C809 C810 1.362 . S
C810 H802 0.930 . S
C810 C809 1.362 . S
C810 C813 1.409 . S
C811 H803 0.930 . S
C811 C812 1.355 . S
C811 C813 1.415 . S
C812 C811 1.355 . S
C812 C814 1.419 . S
C813 C808 1.425 . S
C813 C810 1.409 . S
C813 C811 1.415 . S
C814 H804 0.930 . S
C814 C812 1.419 . S
C814 C815 1.362 . S
C815 H805 0.930 . S
C815 C808 1.409 . S
C815 C814 1.362 . S
H816 C822 0.930 . S
H817 C825 0.930 . S
H818 C826 0.930 . S
H819 C827 0.930 . S
H820 C830 0.930 1_455 S
H821 C831 0.930 . S
C822 H816 0.930 . S
C822 C823 1.355 . S
C822 C824 1.415 . S
C823 C822 1.355 . S
C823 C825 1.419 . S
C824 C822 1.415 . S
C824 C829 1.425 . S
C824 C831 1.409 . S
C825 H817 0.930 . S
C825 C823 1.419 . S
C825 C826 1.362 . S
C826 H818 0.930 . S
C826 C825 1.362 . S
C826 C829 1.409 . S
C827 H819 0.930 . S
C827 C828 1.355 . S
C827 C829 1.415 . S
C828 C827 1.355 . S
C828 C830 1.419 . S
C829 C824 1.425 . S
C829 C826 1.409 . S
C829 C827 1.415 . S
C830 H820 0.930 1_655 S
C830 C828 1.419 . S
C830 C831 1.362 . S
C831 H821 0.930 . S
C831 C824 1.409 . S
C831 C830 1.362 . S
H832 C838 0.930 . S
H833 C841 0.930 . S
H834 C842 0.930 . S
H835 C843 0.930 . S
H836 C846 0.930 . S
H837 C847 0.930 . S
C838 H832 0.930 . S
C838 C839 1.355 . S
C838 C840 1.415 . S
C839 C838 1.355 . S
C839 C841 1.419 . S
C840 C838 1.415 . S
C840 C845 1.425 . S
C840 C847 1.409 . S
C841 H833 0.930 . S
C841 C839 1.419 . S
C841 C842 1.362 . S
C842 H834 0.930 . S
C842 C841 1.362 . S
C842 C845 1.409 . S
C843 H835 0.930 . S
C843 C844 1.355 . S
C843 C845 1.415 . S
C844 C843 1.355 . S
C844 C846 1.419 . S
C845 C840 1.425 . S
C845 C842 1.409 . S
C845 C843 1.415 . S
C846 H836 0.930 . S
C846 C844 1.419 . S
C846 C847 1.362 . S
C847 H837 0.930 . S
C847 C840 1.409 . S
C847 C846 1.362 . S
H848 C854 0.930 . S
H849 C857 0.930 . S
H850 C858 0.930 . S
H851 C859 0.930 . S
H852 C862 0.930 1_455 S
H853 C863 0.930 . S
C854 H848 0.930 . S
C854 C855 1.355 . S
C854 C856 1.415 . S
C855 C854 1.355 . S
C855 C857 1.419 . S
C856 C854 1.415 . S
C856 C861 1.425 . S
C856 C863 1.409 . S
C857 H849 0.930 . S
C857 C855 1.419 . S
C857 C858 1.362 . S
C858 H850 0.930 . S
C858 C857 1.362 . S
C858 C861 1.409 . S
C859 H851 0.930 . S
C859 C860 1.355 . S
C859 C861 1.415 . S
C860 C859 1.355 . S
C860 C862 1.419 . S
C861 C856 1.425 . S
C861 C858 1.409 . S
C861 C859 1.415 . S
C862 H852 0.930 1_655 S
C862 C860 1.419 . S
C862 C863 1.362 . S
C863 H853 0.930 . S
C863 C856 1.409 . S
C863 C862 1.362 . S
H864 C870 0.930 . S
H865 C873 0.930 . S
H866 C874 0.930 . S
H867 C875 0.930 . S
H868 C878 0.930 . S
H869 C879 0.930 . S
C870 H864 0.930 . S
C870 C871 1.355 . S
C870 C872 1.415 . S
C871 C870 1.355 . S
C871 C873 1.419 . S
C872 C870 1.415 . S
C872 C877 1.425 . S
C872 C879 1.409 . S
C873 H865 0.930 . S
C873 C871 1.419 . S
C873 C874 1.362 . S
C874 H866 0.930 . S
C874 C873 1.362 . S
C874 C877 1.409 . S
C875 H867 0.930 . S
C875 C876 1.355 . S
C875 C877 1.415 . S
C876 C875 1.355 . S
C876 C878 1.419 . S
C877 C872 1.425 . S
C877 C874 1.409 . S
C877 C875 1.415 . S
C878 H868 0.930 . S
C878 C876 1.419 . S
C878 C879 1.362 . S
C879 H869 0.930 . S
C879 C872 1.409 . S
C879 C878 1.362 . S
H880 C886 0.930 . S
H881 C889 0.930 . S
H882 C890 0.930 . S
H883 C891 0.930 . S
H884 C894 0.930 . S
H885 C895 0.930 . S
C886 H880 0.930 . S
C886 C887 1.355 . S
C886 C888 1.415 . S
C887 C886 1.355 . S
C887 C889 1.419 . S
C888 C886 1.415 . S
C888 C893 1.425 . S
C888 C895 1.409 . S
C889 H881 0.930 . S
C889 C887 1.419 . S
C889 C890 1.362 . S
C890 H882 0.930 . S
C890 C889 1.362 . S
C890 C893 1.409 . S
C891 H883 0.930 . S
C891 C892 1.355 . S
C891 C893 1.415 . S
C892 C891 1.355 . S
C892 C894 1.419 . S
C893 C888 1.425 . S
C893 C890 1.409 . S
C893 C891 1.415 . S
C894 H884 0.930 . S
C894 C892 1.419 . S
C894 C895 1.362 . S
C895 H885 0.930 . S
C895 C888 1.409 . S
C895 C894 1.362 . S
H896 C902 0.930 . S
H897 C905 0.930 . S
H898 C906 0.930 . S
H899 C907 0.930 . S
H900 C910 0.930 . S
H901 C911 0.930 . S
C902 H896 0.930 . S
C902 C903 1.355 . S
C902 C904 1.415 . S
C903 C902 1.355 . S
C903 C905 1.419 . S
C904 C902 1.415 . S
C904 C909 1.425 . S
C904 C911 1.409 . S
C905 H897 0.930 . S
C905 C903 1.419 . S
C905 C906 1.362 . S
C906 H898 0.930 . S
C906 C905 1.362 . S
C906 C909 1.409 . S
C907 H899 0.930 . S
C907 C908 1.355 . S
C907 C909 1.415 . S
C908 C907 1.355 . S
C908 C910 1.419 . S
C909 C904 1.425 . S
C909 C906 1.409 . S
C909 C907 1.415 . S
C910 H900 0.930 . S
C910 C908 1.419 . S
C910 C911 1.362 . S
C911 H901 0.930 . S
C911 C904 1.409 . S
C911 C910 1.362 . S
H912 C918 0.930 . S
H913 C921 0.930 1_655 S
H914 C922 0.930 . S
H915 C923 0.930 . S
H916 C926 0.930 . S
H917 C927 0.930 . S
C918 H912 0.930 . S
C918 C919 1.355 . S
C918 C920 1.415 . S
C919 C918 1.355 . S
C919 C921 1.419 . S
C920 C918 1.415 . S
C920 C925 1.425 . S
C920 C927 1.409 . S
C921 H913 0.930 1_455 S
C921 C919 1.419 . S
C921 C922 1.362 . S
C922 H914 0.930 . S
C922 C921 1.362 . S
C922 C925 1.409 . S
C923 H915 0.930 . S
C923 C924 1.355 . S
C923 C925 1.415 . S
C924 C923 1.355 . S
C924 C926 1.419 . S
C925 C920 1.425 . S
C925 C922 1.409 . S
C925 C923 1.415 . S
C926 H916 0.930 . S
C926 C924 1.419 . S
C926 C927 1.362 . S
C927 H917 0.930 . S
C927 C920 1.409 . S
C927 C926 1.362 . S
H928 C934 0.930 . S
H929 C937 0.930 . S
H930 C938 0.930 . S
H931 C939 0.930 . S
H932 C942 0.930 . S
H933 C943 0.930 . S
C934 H928 0.930 . S
C934 C935 1.355 1_455 S
C934 C936 1.415 . S
C935 C934 1.355 1_655 S
C935 C937 1.419 . S
C936 C934 1.415 . S
C936 C941 1.425 1_455 S
C936 C943 1.409 . S
C937 H929 0.930 . S
C937 C935 1.419 . S
C937 C938 1.362 . S
C938 H930 0.930 . S
C938 C937 1.362 . S
C938 C941 1.409 . S
C939 H931 0.930 . S
C939 C940 1.355 1_655 S
C939 C941 1.415 . S
C940 C939 1.355 1_455 S
C940 C942 1.419 . S
C941 C936 1.425 1_655 S
C941 C938 1.409 . S
C941 C939 1.415 . S
C942 H932 0.930 . S
C942 C940 1.419 . S
C942 C943 1.362 . S
C943 H933 0.930 . S
C943 C936 1.409 . S
C943 C942 1.362 . S
H944 C950 0.930 . S
H945 C953 0.930 . S
H946 C954 0.930 . S
H947 C955 0.930 . S
H948 C958 0.930 . S
H949 C959 0.930 . S
C950 H944 0.930 . S
C950 C951 1.355 . S
C950 C952 1.415 1_565 S
C951 C950 1.355 . S
C951 C953 1.419 . S
C952 C950 1.415 1_545 S
C952 C957 1.425 1_545 S
C952 C959 1.409 . S
C953 H945 0.930 . S
C953 C951 1.419 . S
C953 C954 1.362 . S
C954 H946 0.930 . S
C954 C953 1.362 . S
C954 C957 1.409 . S
C955 H947 0.930 . S
C955 C956 1.355 . S
C955 C957 1.415 1_545 S
C956 C955 1.355 . S
C956 C958 1.419 . S
C957 C952 1.425 1_565 S
C957 C954 1.409 . S
C957 C955 1.415 1_565 S
C958 H948 0.930 . S
C958 C956 1.419 . S
C958 C959 1.362 . S
C959 H949 0.930 . S
C959 C952 1.409 . S
C959 C958 1.362 . S
H960 C966 0.930 . S
H961 C969 0.930 . S
H962 C970 0.930 . S
H963 C971 0.930 . S
H964 C974 0.930 . S
H965 C975 0.930 . S
C966 H960 0.930 . S
C966 C967 1.355 . S
C966 C968 1.415 1_545 S
C967 C966 1.355 . S
C967 C969 1.419 1_655 S
C968 C966 1.415 1_565 S
C968 C973 1.425 1_664 S
C968 C975 1.409 . S
C969 H961 0.930 . S
C969 C967 1.419 1_455 S
C969 C970 1.362 1_554 S
C970 H962 0.930 . S
C970 C969 1.362 1_556 S
C970 C973 1.409 . S
C971 H963 0.930 . S
C971 C972 1.355 . S
C971 C973 1.415 1_565 S
C972 C971 1.355 . S
C972 C974 1.419 1_455 S
C973 C968 1.425 1_446 S
C973 C970 1.409 . S
C973 C971 1.415 1_545 S
C974 H964 0.930 . S
C974 C972 1.419 1_655 S
C974 C975 1.362 1_556 S
C975 H965 0.930 . S
C975 C968 1.409 . S
C975 C974 1.362 1_554 S
H976 C982 0.930 . S
H977 C985 0.930 . S
H978 C986 0.930 . S
H979 C987 0.930 . S
H980 C990 0.930 . S
H981 C991 0.930 . S
C982 H976 0.930 . S
C982 C983 1.355 . S
C982 C984 1.415 . S
C983 C982 1.355 . S
C983 C985 1.419 . S
C984 C982 1.415 . S
C984 C989 1.425 1_554 S
C984 C991 1.409 . S
C985 H977 0.930 . S
C985 C983 1.419 . S
C985 C986 1.362 1_554 S
C986 H978 0.930 . S
C986 C985 1.362 1_556 S
C986 C989 1.409 . S
C987 H979 0.930 . S
C987 C988 1.355 . S
C987 C989 1.415 . S
C988 C987 1.355 . S
C988 C990 1.419 . S
C989 C984 1.425 1_556 S
C989 C986 1.409 . S
C989 C987 1.415 . S
C990 H980 0.930 . S
C990 C988 1.419 . S
C990 C991 1.362 1_556 S
C991 H981 0.930 . S
C991 C984 1.409 . S
C991 C990 1.362 1_554 S
H992 C998 0.930 . S
H993 C1001 0.930 . S
H994 C1002 0.930 . S
H995 C1003 0.930 . S
H996 C1006 0.930 . S
H997 C1007 0.930 . S
C998 H992 0.930 . S
C998 C999 1.355 1_455 S
C998 C1000 1.415 . S
C999 C998 1.355 1_655 S
C999 C1001 1.419 . S
C1000 C998 1.415 . S
C1000 C1005 1.425 1_455 S
C1000 C1007 1.409 . S
C1001 H993 0.930 . S
C1001 C999 1.419 . S
C1001 C1002 1.362 . S
C1002 H994 0.930 . S
C1002 C1001 1.362 . S
C1002 C1005 1.409 . S
C1003 H995 0.930 . S
C1003 C1004 1.355 1_655 S
C1003 C1005 1.415 . S
C1004 C1003 1.355 1_455 S
C1004 C1006 1.419 . S
C1005 C1000 1.425 1_655 S
C1005 C1002 1.409 . S
C1005 C1003 1.415 . S
C1006 H996 0.930 . S
C1006 C1004 1.419 . S
C1006 C1007 1.362 . S
C1007 H997 0.930 . S
C1007 C1000 1.409 . S
C1007 C1006 1.362 . S
H1008 C1014 0.930 . S
H1009 C1017 0.930 . S
H1010 C1018 0.930 . S
H1011 C1019 0.930 . S
H1012 C1022 0.930 . S
H1013 C1023 0.930 . S
C1014 H1008 0.930 . S
C1014 C1015 1.355 . S
C1014 C1016 1.415 . S
C1015 C1014 1.355 . S
C1015 C1017 1.419 . S
C1016 C1014 1.415 . S
C1016 C1021 1.425 1_565 S
C1016 C1023 1.409 . S
C1017 H1009 0.930 . S
C1017 C1015 1.419 . S
C1017 C1018 1.362 1_565 S
C1018 H1010 0.930 . S
C1018 C1017 1.362 1_545 S
C1018 C1021 1.409 . S
C1019 H1011 0.930 . S
C1019 C1020 1.355 . S
C1019 C1021 1.415 . S
C1020 C1019 1.355 . S
C1020 C1022 1.419 . S
C1021 C1016 1.425 1_545 S
C1021 C1018 1.409 . S
C1021 C1019 1.415 . S
C1022 H1012 0.930 . S
C1022 C1020 1.419 . S
C1022 C1023 1.362 1_545 S
C1023 H1013 0.930 . S
C1023 C1016 1.409 . S
C1023 C1022 1.362 1_565 S
H1024 C1030 0.930 . S
H1025 C1033 0.930 . S
H1026 C1034 0.930 . S
H1027 C1035 0.930 . S
H1028 C1038 0.930 . S
H1029 C1039 0.930 . S
C1030 H1024 0.930 . S
C1030 C1031 1.355 . S
C1030 C1032 1.415 . S
C1031 C1030 1.355 . S
C1031 C1033 1.419 . S
C1032 C1030 1.415 . S
C1032 C1037 1.425 1_556 S
C1032 C1039 1.409 . S
C1033 H1025 0.930 . S
C1033 C1031 1.419 . S
C1033 C1034 1.362 1_556 S
C1034 H1026 0.930 . S
C1034 C1033 1.362 1_554 S
C1034 C1037 1.409 . S
C1035 H1027 0.930 . S
C1035 C1036 1.355 . S
C1035 C1037 1.415 . S
C1036 C1035 1.355 . S
C1036 C1038 1.419 . S
C1037 C1032 1.425 1_554 S
C1037 C1034 1.409 . S
C1037 C1035 1.415 . S
C1038 H1028 0.930 . S
C1038 C1036 1.419 . S
C1038 C1039 1.362 1_554 S
C1039 H1029 0.930 . S
C1039 C1032 1.409 . S
C1039 C1038 1.362 1_556 S
H1040 C1046 0.930 . S
H1041 C1049 0.930 . S
H1042 C1050 0.930 . S
H1043 C1051 0.930 . S
H1044 C1054 0.930 . S
H1045 C1055 0.930 . S
C1046 H1040 0.930 . S
C1046 C1047 1.355 . S
C1046 C1048 1.415 . S
C1047 C1046 1.355 . S
C1047 C1049 1.419 . S
C1048 C1046 1.415 . S
C1048 C1053 1.425 . S
C1048 C1055 1.409 . S
C1049 H1041 0.930 . S
C1049 C1047 1.419 . S
C1049 C1050 1.362 . S
C1050 H1042 0.930 . S
C1050 C1049 1.362 . S
C1050 C1053 1.409 . S
C1051 H1043 0.930 . S
C1051 C1052 1.355 . S
C1051 C1053 1.415 . S
C1052 C1051 1.355 . S
C1052 C1054 1.419 . S
C1053 C1048 1.425 . S
C1053 C1050 1.409 . S
C1053 C1051 1.415 . S
C1054 H1044 0.930 . S
C1054 C1052 1.419 . S
C1054 C1055 1.362 . S
C1055 H1045 0.930 . S
C1055 C1048 1.409 . S
C1055 C1054 1.362 . S
H1056 C1062 0.930 . S
H1057 C1065 0.930 . S
H1058 C1066 0.930 . S
H1059 C1067 0.930 . S
H1060 C1070 0.930 . S
H1061 C1071 0.930 . S
C1062 H1056 0.930 . S
C1062 C1063 1.355 . S
C1062 C1064 1.415 . S
C1063 C1062 1.355 . S
C1063 C1065 1.419 1_455 S
C1064 C1062 1.415 . S
C1064 C1069 1.425 1_455 S
C1064 C1071 1.409 . S
C1065 H1057 0.930 . S
C1065 C1063 1.419 1_655 S
C1065 C1066 1.362 . S
C1066 H1058 0.930 . S
C1066 C1065 1.362 . S
C1066 C1069 1.409 . S
C1067 H1059 0.930 . S
C1067 C1068 1.355 . S
C1067 C1069 1.415 . S
C1068 C1067 1.355 . S
C1068 C1070 1.419 1_655 S
C1069 C1064 1.425 1_655 S
C1069 C1066 1.409 . S
C1069 C1067 1.415 . S
C1070 H1060 0.930 . S
C1070 C1068 1.419 1_455 S
C1070 C1071 1.362 . S
C1071 H1061 0.930 . S
C1071 C1064 1.409 . S
C1071 C1070 1.362 . S
H1072 C1078 0.930 . S
H1073 C1081 0.930 . S
H1074 C1082 0.930 . S
H1075 C1083 0.930 . S
H1076 C1086 0.930 . S
H1077 C1087 0.930 . S
C1078 H1072 0.930 . S
C1078 C1079 1.355 . S
C1078 C1080 1.415 . S
C1079 C1078 1.355 . S
C1079 C1081 1.419 . S
C1080 C1078 1.415 . S
C1080 C1085 1.425 . S
C1080 C1087 1.409 . S
C1081 H1073 0.930 . S
C1081 C1079 1.419 . S
C1081 C1082 1.362 . S
C1082 H1074 0.930 . S
C1082 C1081 1.362 . S
C1082 C1085 1.409 . S
C1083 H1075 0.930 . S
C1083 C1084 1.355 . S
C1083 C1085 1.415 . S
C1084 C1083 1.355 . S
C1084 C1086 1.419 . S
C1085 C1080 1.425 . S
C1085 C1082 1.409 . S
C1085 C1083 1.415 . S
C1086 H1076 0.930 . S
C1086 C1084 1.419 . S
C1086 C1087 1.362 . S
C1087 H1077 0.930 . S
C1087 C1080 1.409 . S
C1087 C1086 1.362 . S
H1088 C1094 0.930 . S
H1089 C1097 0.930 . S
H1090 C1098 0.930 . S
H1091 C1099 0.930 . S
H1092 C1102 0.930 . S
H1093 C1103 0.930 . S
C1094 H1088 0.930 . S
C1094 C1095 1.355 . S
C1094 C1096 1.415 . S
C1095 C1094 1.355 . S
C1095 C1097 1.419 . S
C1096 C1094 1.415 . S
C1096 C1101 1.425 . S
C1096 C1103 1.409 . S
C1097 H1089 0.930 . S
C1097 C1095 1.419 . S
C1097 C1098 1.362 . S
C1098 H1090 0.930 . S
C1098 C1097 1.362 . S
C1098 C1101 1.409 . S
C1099 H1091 0.930 . S
C1099 C1100 1.355 . S
C1099 C1101 1.415 . S
C1100 C1099 1.355 . S
C1100 C1102 1.419 . S
C1101 C1096 1.425 . S
C1101 C1098 1.409 . S
C1101 C1099 1.415 . S
C1102 H1092 0.930 . S
C1102 C1100 1.419 . S
C1102 C1103 1.362 . S
C1103 H1093 0.930 . S
C1103 C1096 1.409 . S
C1103 C1102 1.362 . S
H1104 C1110 0.930 . S
H1105 C1113 0.930 . S
H1106 C1114 0.930 . S
H1107 C1115 0.930 . S
H1108 C1118 0.930 . S
H1109 C1119 0.930 . S
C1110 H1104 0.930 . S
C1110 C1111 1.355 . S
C1110 C1112 1.415 . S
C1111 C1110 1.355 . S
C1111 C1113 1.419 . S
C1112 C1110 1.415 . S
C1112 C1117 1.425 . S
C1112 C1119 1.409 . S
C1113 H1105 0.930 . S
C1113 C1111 1.419 . S
C1113 C1114 1.362 . S
C1114 H1106 0.930 . S
C1114 C1113 1.362 . S
C1114 C1117 1.409 . S
C1115 H1107 0.930 . S
C1115 C1116 1.355 . S
C1115 C1117 1.415 . S
C1116 C1115 1.355 . S
C1116 C1118 1.419 . S
C1117 C1112 1.425 . S
C1117 C1114 1.409 . S
C1117 C1115 1.415 . S
C1118 H1108 0.930 . S
C1118 C1116 1.419 . S
C1118 C1119 1.362 . S
C1119 H1109 0.930 . S
C1119 C1112 1.409 . S
C1119 C1118 1.362 . S
H1120 C1126 0.930 . S
H1121 C1129 0.930 . S
H1122 C1130 0.930 . S
H1123 C1131 0.930 . S
H1124 C1134 0.930 . S
H1125 C1135 0.930 . S
C1126 H1120 0.930 . S
C1126 C1127 1.355 . S
C1126 C1128 1.415 . S
C1127 C1126 1.355 . S
C1127 C1129 1.419 . S
C1128 C1126 1.415 . S
C1128 C1133 1.425 . S
C1128 C1135 1.409 . S
C1129 H1121 0.930 . S
C1129 C1127 1.419 . S
C1129 C1130 1.362 . S
C1130 H1122 0.930 . S
C1130 C1129 1.362 . S
C1130 C1133 1.409 . S
C1131 H1123 0.930 . S
C1131 C1132 1.355 . S
C1131 C1133 1.415 . S
C1132 C1131 1.355 . S
C1132 C1134 1.419 . S
C1133 C1128 1.425 . S
C1133 C1130 1.409 . S
C1133 C1131 1.415 . S
C1134 H1124 0.930 . S
C1134 C1132 1.419 . S
C1134 C1135 1.362 . S
C1135 H1125 0.930 . S
C1135 C1128 1.409 . S
C1135 C1134 1.362 . S
H1136 C1142 0.930 . S
H1137 C1145 0.930 . S
H1138 C1146 0.930 . S
H1139 C1147 0.930 . S
H1140 C1150 0.930 . S
H1141 C1151 0.930 . S
C1142 H1136 0.930 . S
C1142 C1143 1.355 . S
C1142 C1144 1.415 . S
C1143 C1142 1.355 . S
C1143 C1145 1.419 . S
C1144 C1142 1.415 . S
C1144 C1149 1.425 1_545 S
C1144 C1151 1.409 1_545 S
C1145 H1137 0.930 . S
C1145 C1143 1.419 . S
C1145 C1146 1.362 . S
C1146 H1138 0.930 . S
C1146 C1145 1.362 . S
C1146 C1149 1.409 1_545 S
C1147 H1139 0.930 . S
C1147 C1148 1.355 . S
C1147 C1149 1.415 . S
C1148 C1147 1.355 . S
C1148 C1150 1.419 . S
C1149 C1144 1.425 1_565 S
C1149 C1146 1.409 1_565 S
C1149 C1147 1.415 . S
C1150 H1140 0.930 . S
C1150 C1148 1.419 . S
C1150 C1151 1.362 . S
C1151 H1141 0.930 . S
C1151 C1144 1.409 1_565 S
C1151 C1150 1.362 . S
H1152 C1158 0.930 . S
H1153 C1161 0.930 . S
H1154 C1162 0.930 . S
H1155 C1163 0.930 . S
H1156 C1166 0.930 . S
H1157 C1167 0.930 . S
C1158 H1152 0.930 . S
C1158 C1159 1.355 . S
C1158 C1160 1.415 . S
C1159 C1158 1.355 . S
C1159 C1161 1.419 . S
C1160 C1158 1.415 . S
C1160 C1165 1.425 . S
C1160 C1167 1.409 . S
C1161 H1153 0.930 . S
C1161 C1159 1.419 . S
C1161 C1162 1.362 . S
C1162 H1154 0.930 . S
C1162 C1161 1.362 . S
C1162 C1165 1.409 . S
C1163 H1155 0.930 . S
C1163 C1164 1.355 . S
C1163 C1165 1.415 . S
C1164 C1163 1.355 . S
C1164 C1166 1.419 . S
C1165 C1160 1.425 . S
C1165 C1162 1.409 . S
C1165 C1163 1.415 . S
C1166 H1156 0.930 . S
C1166 C1164 1.419 . S
C1166 C1167 1.362 . S
C1167 H1157 0.930 . S
C1167 C1160 1.409 . S
C1167 C1166 1.362 . S
H1168 C1174 0.930 . S
H1169 C1177 0.930 . S
H1170 C1178 0.930 . S
H1171 C1179 0.930 . S
H1172 C1182 0.930 . S
H1173 C1183 0.930 . S
C1174 H1168 0.930 . S
C1174 C1175 1.355 . S
C1174 C1176 1.415 1_556 S
C1175 C1174 1.355 . S
C1175 C1177 1.419 . S
C1176 C1174 1.415 1_554 S
C1176 C1181 1.425 1_554 S
C1176 C1183 1.409 . S
C1177 H1169 0.930 . S
C1177 C1175 1.419 . S
C1177 C1178 1.362 . S
C1178 H1170 0.930 . S
C1178 C1177 1.362 . S
C1178 C1181 1.409 . S
C1179 H1171 0.930 . S
C1179 C1180 1.355 . S
C1179 C1181 1.415 1_554 S
C1180 C1179 1.355 . S
C1180 C1182 1.419 . S
C1181 C1176 1.425 1_556 S
C1181 C1178 1.409 . S
C1181 C1179 1.415 1_556 S
C1182 H1172 0.930 . S
C1182 C1180 1.419 . S
C1182 C1183 1.362 . S
C1183 H1173 0.930 . S
C1183 C1176 1.409 . S
C1183 C1182 1.362 . S
H1184 C1190 0.930 . S
H1185 C1193 0.930 . S
H1186 C1194 0.930 . S
H1187 C1195 0.930 . S
H1188 C1198 0.930 . S
H1189 C1199 0.930 . S
C1190 H1184 0.930 . S
C1190 C1191 1.355 . S
C1190 C1192 1.415 . S
C1191 C1190 1.355 . S
C1191 C1193 1.419 . S
C1192 C1190 1.415 . S
C1192 C1197 1.425 . S
C1192 C1199 1.409 . S
C1193 H1185 0.930 . S
C1193 C1191 1.419 . S
C1193 C1194 1.362 . S
C1194 H1186 0.930 . S
C1194 C1193 1.362 . S
C1194 C1197 1.409 . S
C1195 H1187 0.930 . S
C1195 C1196 1.355 . S
C1195 C1197 1.415 . S
C1196 C1195 1.355 . S
C1196 C1198 1.419 . S
C1197 C1192 1.425 . S
C1197 C1194 1.409 . S
C1197 C1195 1.415 . S
C1198 H1188 0.930 . S
C1198 C1196 1.419 . S
C1198 C1199 1.362 . S
C1199 H1189 0.930 . S
C1199 C1192 1.409 . S
C1199 C1198 1.362 . S
H1200 C1206 0.930 . S
H1201 C1209 0.930 . S
H1202 C1210 0.930 . S
H1203 C1211 0.930 . S
H1204 C1214 0.930 . S
H1205 C1215 0.930 . S
C1206 H1200 0.930 . S
C1206 C1207 1.355 . S
C1206 C1208 1.415 . S
C1207 C1206 1.355 . S
C1207 C1209 1.419 . S
C1208 C1206 1.415 . S
C1208 C1213 1.425 . S
C1208 C1215 1.409 . S
C1209 H1201 0.930 . S
C1209 C1207 1.419 . S
C1209 C1210 1.362 . S
C1210 H1202 0.930 . S
C1210 C1209 1.362 . S
C1210 C1213 1.409 . S
C1211 H1203 0.930 . S
C1211 C1212 1.355 . S
C1211 C1213 1.415 . S
C1212 C1211 1.355 . S
C1212 C1214 1.419 . S
C1213 C1208 1.425 . S
C1213 C1210 1.409 . S
C1213 C1211 1.415 . S
C1214 H1204 0.930 . S
C1214 C1212 1.419 . S
C1214 C1215 1.362 . S
C1215 H1205 0.930 . S
C1215 C1208 1.409 . S
C1215 C1214 1.362 . S
H1216 C1222 0.930 . S
H1217 C1225 0.930 . S
H1218 C1226 0.930 . S
H1219 C1227 0.930 . S
H1220 C1230 0.930 . S
H1221 C1231 0.930 . S
C1222 H1216 0.930 . S
C1222 C1223 1.355 . S
C1222 C1224 1.415 . S
C1223 C1222 1.355 . S
C1223 C1225 1.419 . S
C1224 C1222 1.415 . S
C1224 C1229 1.425 . S
C1224 C1231 1.409 . S
C1225 H1217 0.930 . S
C1225 C1223 1.419 . S
C1225 C1226 1.362 . S
C1226 H1218 0.930 . S
C1226 C1225 1.362 . S
C1226 C1229 1.409 . S
C1227 H1219 0.930 . S
C1227 C1228 1.355 . S
C1227 C1229 1.415 . S
C1228 C1227 1.355 . S
C1228 C1230 1.419 . S
C1229 C1224 1.425 . S
C1229 C1226 1.409 . S
C1229 C1227 1.415 . S
C1230 H1220 0.930 . S
C1230 C1228 1.419 . S
C1230 C1231 1.362 . S
C1231 H1221 0.930 . S
C1231 C1224 1.409 . S
C1231 C1230 1.362 . S
H1232 C1238 0.930 . S
H1233 C1241 0.930 . S
H1234 C1242 0.930 . S
H1235 C1243 0.930 . S
H1236 C1246 0.930 . S
H1237 C1247 0.930 . S
C1238 H1232 0.930 . S
C1238 C1239 1.355 . S
C1238 C1240 1.415 . S
C1239 C1238 1.355 . S
C1239 C1241 1.419 . S
C1240 C1238 1.415 . S
C1240 C1245 1.425 . S
C1240 C1247 1.409 . S
C1241 H1233 0.930 . S
C1241 C1239 1.419 . S
C1241 C1242 1.362 . S
C1242 H1234 0.930 . S
C1242 C1241 1.362 . S
C1242 C1245 1.409 . S
C1243 H1235 0.930 . S
C1243 C1244 1.355 . S
C1243 C1245 1.415 . S
C1244 C1243 1.355 . S
C1244 C1246 1.419 . S
C1245 C1240 1.425 . S
C1245 C1242 1.409 . S
C1245 C1243 1.415 . S
C1246 H1236 0.930 . S
C1246 C1244 1.419 . S
C1246 C1247 1.362 . S
C1247 H1237 0.930 . S
C1247 C1240 1.409 . S
C1247 C1246 1.362 . S
H1248 C1254 0.930 . S
H1249 C1257 0.930 . S
H1250 C1258 0.930 . S
H1251 C1259 0.930 . S
H1252 C1262 0.930 . S
H1253 C1263 0.930 . S
C1254 H1248 0.930 . S
C1254 C1255 1.355 . S
C1254 C1256 1.415 . S
C1255 C1254 1.355 . S
C1255 C1257 1.419 . S
C1256 C1254 1.415 . S
C1256 C1261 1.425 . S
C1256 C1263 1.409 . S
C1257 H1249 0.930 . S
C1257 C1255 1.419 . S
C1257 C1258 1.362 . S
C1258 H1250 0.930 . S
C1258 C1257 1.362 . S
C1258 C1261 1.409 . S
C1259 H1251 0.930 . S
C1259 C1260 1.355 . S
C1259 C1261 1.415 . S
C1260 C1259 1.355 . S
C1260 C1262 1.419 . S
C1261 C1256 1.425 . S
C1261 C1258 1.409 . S
C1261 C1259 1.415 . S
C1262 H1252 0.930 . S
C1262 C1260 1.419 . S
C1262 C1263 1.362 . S
C1263 H1253 0.930 . S
C1263 C1256 1.409 . S
C1263 C1262 1.362 . S
H1264 C1270 0.930 . S
H1265 C1273 0.930 . S
H1266 C1274 0.930 . S
H1267 C1275 0.930 . S
H1268 C1278 0.930 . S
H1269 C1279 0.930 . S
C1270 H1264 0.930 . S
C1270 C1271 1.355 . S
C1270 C1272 1.415 . S
C1271 C1270 1.355 . S
C1271 C1273 1.419 . S
C1272 C1270 1.415 . S
C1272 C1277 1.425 . S
C1272 C1279 1.409 . S
C1273 H1265 0.930 . S
C1273 C1271 1.419 . S
C1273 C1274 1.362 . S
C1274 H1266 0.930 . S
C1274 C1273 1.362 . S
C1274 C1277 1.409 . S
C1275 H1267 0.930 . S
C1275 C1276 1.355 . S
C1275 C1277 1.415 . S
C1276 C1275 1.355 . S
C1276 C1278 1.419 . S
C1277 C1272 1.425 . S
C1277 C1274 1.409 . S
C1277 C1275 1.415 . S
C1278 H1268 0.930 . S
C1278 C1276 1.419 . S
C1278 C1279 1.362 . S
C1279 H1269 0.930 . S
C1279 C1272 1.409 . S
C1279 C1278 1.362 . S
H1280 C1286 0.930 . S
H1281 C1289 0.930 . S
H1282 C1290 0.930 . S
H1283 C1291 0.930 . S
H1284 C1294 0.930 . S
H1285 C1295 0.930 . S
C1286 H1280 0.930 . S
C1286 C1287 1.355 . S
C1286 C1288 1.415 . S
C1287 C1286 1.355 . S
C1287 C1289 1.419 . S
C1288 C1286 1.415 . S
C1288 C1293 1.425 . S
C1288 C1295 1.409 . S
C1289 H1281 0.930 . S
C1289 C1287 1.419 . S
C1289 C1290 1.362 . S
C1290 H1282 0.930 . S
C1290 C1289 1.362 . S
C1290 C1293 1.409 . S
C1291 H1283 0.930 . S
C1291 C1292 1.355 . S
C1291 C1293 1.415 . S
C1292 C1291 1.355 . S
C1292 C1294 1.419 . S
C1293 C1288 1.425 . S
C1293 C1290 1.409 . S
C1293 C1291 1.415 . S
C1294 H1284 0.930 . S
C1294 C1292 1.419 . S
C1294 C1295 1.362 . S
C1295 H1285 0.930 . S
C1295 C1288 1.409 . S
C1295 C1294 1.362 . S
H1296 C1302 0.930 . S
H1297 C1305 0.930 . S
H1298 C1306 0.930 . S
H1299 C1307 0.930 . S
H1300 C1310 0.930 . S
H1301 C1311 0.930 . S
C1302 H1296 0.930 . S
C1302 C1303 1.355 . S
C1302 C1304 1.415 . S
C1303 C1302 1.355 . S
C1303 C1305 1.419 . S
C1304 C1302 1.415 . S
C1304 C1309 1.425 . S
C1304 C1311 1.409 . S
C1305 H1297 0.930 . S
C1305 C1303 1.419 . S
C1305 C1306 1.362 . S
C1306 H1298 0.930 . S
C1306 C1305 1.362 . S
C1306 C1309 1.409 . S
C1307 H1299 0.930 . S
C1307 C1308 1.355 . S
C1307 C1309 1.415 . S
C1308 C1307 1.355 . S
C1308 C1310 1.419 . S
C1309 C1304 1.425 . S
C1309 C1306 1.409 . S
C1309 C1307 1.415 . S
C1310 H1300 0.930 . S
C1310 C1308 1.419 . S
C1310 C1311 1.362 . S
C1311 H1301 0.930 . S
C1311 C1304 1.409 . S
C1311 C1310 1.362 . S
H1312 C1318 0.930 . S
H1313 C1321 0.930 . S
H1314 C1322 0.930 . S
H1315 C1323 0.930 . S
H1316 C1326 0.930 . S
H1317 C1327 0.930 . S
C1318 H1312 0.930 . S
C1318 C1319 1.355 . S
C1318 C1320 1.415 . S
C1319 C1318 1.355 . S
C1319 C1321 1.419 . S
C1320 C1318 1.415 . S
C1320 C1325 1.425 . S
C1320 C1327 1.409 . S
C1321 H1313 0.930 . S
C1321 C1319 1.419 . S
C1321 C1322 1.362 . S
C1322 H1314 0.930 . S
C1322 C1321 1.362 . S
C1322 C1325 1.409 . S
C1323 H1315 0.930 . S
C1323 C1324 1.355 . S
C1323 C1325 1.415 . S
C1324 C1323 1.355 . S
C1324 C1326 1.419 . S
C1325 C1320 1.425 . S
C1325 C1322 1.409 . S
C1325 C1323 1.415 . S
C1326 H1316 0.930 . S
C1326 C1324 1.419 . S
C1326 C1327 1.362 . S
C1327 H1317 0.930 . S
C1327 C1320 1.409 . S
C1327 C1326 1.362 . S
H1328 C1334 0.930 . S
H1329 C1337 0.930 . S
H1330 C1338 0.930 . S
H1331 C1339 0.930 . S
H1332 C1342 0.930 . S
H1333 C1343 0.930 . S
C1334 H1328 0.930 . S
C1334 C1335 1.355 . S
C1334 C1336 1.415 . S
C1335 C1334 1.355 . S
C1335 C1337 1.419 . S
C1336 C1334 1.415 . S
C1336 C1341 1.425 . S
C1336 C1343 1.409 . S
C1337 H1329 0.930 . S
C1337 C1335 1.419 . S
C1337 C1338 1.362 . S
C1338 H1330 0.930 . S
C1338 C1337 1.362 . S
C1338 C1341 1.409 . S
C1339 H1331 0.930 . S
C1339 C1340 1.355 . S
C1339 C1341 1.415 . S
C1340 C1339 1.355 . S
C1340 C1342 1.419 . S
C1341 C1336 1.425 . S
C1341 C1338 1.409 . S
C1341 C1339 1.415 . S
C1342 H1332 0.930 . S
C1342 C1340 1.419 . S
C1342 C1343 1.362 . S
C1343 H1333 0.930 . S
C1343 C1336 1.409 . S
C1343 C1342 1.362 . S
H1344 C1350 0.930 . S
H1345 C1353 0.930 . S
H1346 C1354 0.930 . S
H1347 C1355 0.930 . S
H1348 C1358 0.930 . S
H1349 C1359 0.930 . S
C1350 H1344 0.930 . S
C1350 C1351 1.355 . S
C1350 C1352 1.415 . S
C1351 C1350 1.355 . S
C1351 C1353 1.419 . S
C1352 C1350 1.415 . S
C1352 C1357 1.425 . S
C1352 C1359 1.409 . S
C1353 H1345 0.930 . S
C1353 C1351 1.419 . S
C1353 C1354 1.362 . S
C1354 H1346 0.930 . S
C1354 C1353 1.362 . S
C1354 C1357 1.409 . S
C1355 H1347 0.930 . S
C1355 C1356 1.355 . S
C1355 C1357 1.415 . S
C1356 C1355 1.355 . S
C1356 C1358 1.419 . S
C1357 C1352 1.425 . S
C1357 C1354 1.409 . S
C1357 C1355 1.415 . S
C1358 H1348 0.930 . S
C1358 C1356 1.419 . S
C1358 C1359 1.362 . S
C1359 H1349 0.930 . S
C1359 C1352 1.409 . S
C1359 C1358 1.362 . S
H1360 C1366 0.930 . S
H1361 C1369 0.930 . S
H1362 C1370 0.930 . S
H1363 C1371 0.930 . S
H1364 C1374 0.930 . S
H1365 C1375 0.930 . S
C1366 H1360 0.930 . S
C1366 C1367 1.355 . S
C1366 C1368 1.415 . S
C1367 C1366 1.355 . S
C1367 C1369 1.419 . S
C1368 C1366 1.415 . S
C1368 C1373 1.425 . S
C1368 C1375 1.409 . S
C1369 H1361 0.930 . S
C1369 C1367 1.419 . S
C1369 C1370 1.362 . S
C1370 H1362 0.930 . S
C1370 C1369 1.362 . S
C1370 C1373 1.409 . S
C1371 H1363 0.930 . S
C1371 C1372 1.355 . S
C1371 C1373 1.415 . S
C1372 C1371 1.355 . S
C1372 C1374 1.419 . S
C1373 C1368 1.425 . S
C1373 C1370 1.409 . S
C1373 C1371 1.415 . S
C1374 H1364 0.930 . S
C1374 C1372 1.419 . S
C1374 C1375 1.362 . S
C1375 H1365 0.930 . S
C1375 C1368 1.409 . S
C1375 C1374 1.362 . S
H1376 C1382 0.930 . S
H1377 C1385 0.930 . S
H1378 C1386 0.930 . S
H1379 C1387 0.930 . S
H1380 C1390 0.930 . S
H1381 C1391 0.930 . S
C1382 H1376 0.930 . S
C1382 C1383 1.355 . S
C1382 C1384 1.415 . S
C1383 C1382 1.355 . S
C1383 C1385 1.419 . S
C1384 C1382 1.415 . S
C1384 C1389 1.425 . S
C1384 C1391 1.409 . S
C1385 H1377 0.930 . S
C1385 C1383 1.419 . S
C1385 C1386 1.362 . S
C1386 H1378 0.930 . S
C1386 C1385 1.362 . S
C1386 C1389 1.409 . S
C1387 H1379 0.930 . S
C1387 C1388 1.355 . S
C1387 C1389 1.415 . S
C1388 C1387 1.355 . S
C1388 C1390 1.419 . S
C1389 C1384 1.425 . S
C1389 C1386 1.409 . S
C1389 C1387 1.415 . S
C1390 H1380 0.930 . S
C1390 C1388 1.419 . S
C1390 C1391 1.362 . S
C1391 H1381 0.930 . S
C1391 C1384 1.409 . S
C1391 C1390 1.362 . S
H1392 C1398 0.930 . S
H1393 C1401 0.930 . S
H1394 C1402 0.930 . S
H1395 C1403 0.930 . S
H1396 C1406 0.930 . S
H1397 C1407 0.930 . S
C1398 H1392 0.930 . S
C1398 C1399 1.355 . S
C1398 C1400 1.415 . S
C1399 C1398 1.355 . S
C1399 C1401 1.419 . S
C1400 C1398 1.415 . S
C1400 C1405 1.425 . S
C1400 C1407 1.409 . S
C1401 H1393 0.930 . S
C1401 C1399 1.419 . S
C1401 C1402 1.362 . S
C1402 H1394 0.930 . S
C1402 C1401 1.362 . S
C1402 C1405 1.409 . S
C1403 H1395 0.930 . S
C1403 C1404 1.355 . S
C1403 C1405 1.415 . S
C1404 C1403 1.355 . S
C1404 C1406 1.419 . S
C1405 C1400 1.425 . S
C1405 C1402 1.409 . S
C1405 C1403 1.415 . S
C1406 H1396 0.930 . S
C1406 C1404 1.419 . S
C1406 C1407 1.362 . S
C1407 H1397 0.930 . S
C1407 C1400 1.409 . S
C1407 C1406 1.362 . S
H1408 C1414 0.930 . S
H1409 C1417 0.930 . S
H1410 C1418 0.930 . S
H1411 C1419 0.930 . S
H1412 C1422 0.930 . S
H1413 C1423 0.930 . S
C1414 H1408 0.930 . S
C1414 C1415 1.355 . S
C1414 C1416 1.415 . S
C1415 C1414 1.355 . S
C1415 C1417 1.419 . S
C1416 C1414 1.415 . S
C1416 C1421 1.425 . S
C1416 C1423 1.409 . S
C1417 H1409 0.930 . S
C1417 C1415 1.419 . S
C1417 C1418 1.362 . S
C1418 H1410 0.930 . S
C1418 C1417 1.362 . S
C1418 C1421 1.409 . S
C1419 H1411 0.930 . S
C1419 C1420 1.355 . S
C1419 C1421 1.415 . S
C1420 C1419 1.355 . S
C1420 C1422 1.419 . S
C1421 C1416 1.425 . S
C1421 C1418 1.409 . S
C1421 C1419 1.415 . S
C1422 H1412 0.930 . S
C1422 C1420 1.419 . S
C1422 C1423 1.362 . S
C1423 H1413 0.930 . S
C1423 C1416 1.409 . S
C1423 C1422 1.362 . S
H1424 C1430 0.930 . S
H1425 C1433 0.930 . S
H1426 C1434 0.930 . S
H1427 C1435 0.930 . S
H1428 C1438 0.930 . S
H1429 C1439 0.930 . S
C1430 H1424 0.930 . S
C1430 C1431 1.355 . S
C1430 C1432 1.415 . S
C1431 C1430 1.355 . S
C1431 C1433 1.419 . S
C1432 C1430 1.415 . S
C1432 C1437 1.425 . S
C1432 C1439 1.409 . S
C1433 H1425 0.930 . S
C1433 C1431 1.419 . S
C1433 C1434 1.362 . S
C1434 H1426 0.930 . S
C1434 C1433 1.362 . S
C1434 C1437 1.409 . S
C1435 H1427 0.930 . S
C1435 C1436 1.355 . S
C1435 C1437 1.415 . S
C1436 C1435 1.355 . S
C1436 C1438 1.419 . S
C1437 C1432 1.425 . S
C1437 C1434 1.409 . S
C1437 C1435 1.415 . S
C1438 H1428 0.930 . S
C1438 C1436 1.419 . S
C1438 C1439 1.362 . S
C1439 H1429 0.930 . S
C1439 C1432 1.409 . S
C1439 C1438 1.362 . S
C423 C135 1.148 . S
C428 C5 1.028 . S
C439 C18 1.088 . S
C444 C148 1.117 . S
C455 C31 1.145 . S
C460 C109 1.050 . S
C471 C122 1.055 . S
C476 C44 1.142 . S
C487 C187 1.043 . S
C492 C57 1.148 . S
C503 C70 1.135 . S
C508 C200 1.033 . S
C519 C161 1.030 . S
C524 C83 1.151 . S
C535 C174 1.127 . S
C540 C96 1.076 . S
C551 C343 1.070 . S
C556 C213 1.131 . S
C567 C356 1.148 . S
C572 C226 1.028 . S
C583 C317 1.030 . S
C588 C239 1.151 . S
C599 C252 1.151 . S
C604 C330 1.035 . S
C615 C395 1.031 . S
C620 C265 1.151 . S
C631 C408 1.051 . S
C636 C278 1.144 . S
C647 C291 1.116 . S
C652 C369 1.047 . S
C663 C304 1.071 . S
C668 C382 1.130 . S
C679 C257 1.552 . S
C684 C10 1.546 . S
C695 C23 1.520 1_655 S
C700 C244 1.508 . S
C711 C231 1.509 . S
C716 C36 1.522 . S
C727 C218 1.528 . S
C732 C49 1.510 1_655 S
C743 C62 1.509 . S
C748 C309 1.518 . S
C759 C75 1.535 1_455 S
C764 C296 1.514 . S
C775 C283 1.510 . S
C780 C88 1.528 . S
C791 C101 1.549 1_455 S
C796 C270 1.528 . S
C807 C361 1.513 . S
C812 C114 1.534 . S
C823 C348 1.551 . S
C828 C127 1.533 1_655 S
C839 C335 1.510 . S
C844 C140 1.527 . S
C855 C322 1.552 . S
C860 C153 1.540 1_655 S
C871 C166 1.513 . S
C876 C413 1.510 . S
C887 C400 1.509 . S
C892 C179 1.523 1_455 S
C903 C192 1.508 . S
C908 C387 1.520 . S
C919 C205 1.538 1_455 S
C924 C374 1.552 . S
C935 C156 1.359 . S
C940 C0 1.359 . S
C951 C13 1.361 . S
C956 C273 1.361 . S
C967 C78 1.435 . S
C972 C26 1.435 . S
C983 C403 1.374 . S
C988 C39 1.374 . S
C999 C52 1.357 . S
C1004 C104 1.357 . S
C1015 C221 1.463 . S
C1020 C65 1.463 . S
C1031 C351 1.405 . S
C1036 C91 1.405 . S
C1047 C377 1.464 . S
C1052 C117 1.464 . S
C1063 C130 1.452 . S
C1068 C182 1.452 . S
C1079 C299 1.464 . S
C1084 C143 1.464 . S
C1095 C325 1.383 . S
C1100 C169 1.383 . S
C1111 C195 1.439 . S
C1116 C247 1.439 . S
C1127 C208 1.392 . S
C1132 C364 1.392 . S
C1143 C286 1.465 . S
C1148 C234 1.465 . S
C1159 C312 1.443 . S
C1164 C260 1.443 . S
C1175 C338 1.416 . S
C1180 C390 1.416 . S
C1191 C8 0.853 . S
C1196 C47 0.850 . S
C1207 C34 0.855 . S
C1212 C21 0.871 . S
C1223 C60 0.837 . S
C1228 C99 0.882 . S
C1239 C73 0.845 . S
C1244 C86 0.859 . S
C1255 C112 0.853 . S
C1260 C151 0.873 . S
C1271 C125 0.835 . S
C1276 C138 0.883 . S
C1287 C164 0.843 . S
C1292 C203 0.880 . S
C1303 C190 0.834 . S
C1308 C177 0.874 . S
C1319 C255 0.878 . S
C1324 C216 0.832 . S
C1335 C242 0.882 . S
C1340 C229 0.839 . S
C1351 C307 0.833 . S
C1356 C268 0.875 . S
C1367 C294 0.854 . S
C1372 C281 0.872 . S
C1383 C359 0.882 . S
C1388 C320 0.836 . S
C1399 C346 0.880 . S
C1404 C333 0.842 . S
C1415 C372 0.842 . S
C1420 C411 0.862 . S
C1431 C398 0.841 . S
C1436 C385 0.864 . S
