# Generated by pormake.
# Topology uki, (4)-cn, num edge types: 1
# Building blocks:
#     Node 0, Type 0, BuildingBlock: QUQFOY_clean_sbu_3, # of connection points: 4
#     Node 1, Type 0, BuildingBlock: QUQFOY_clean_sbu_3, # of connection points: 4
#     Node 2, Type 0, BuildingBlock: QUQFOY_clean_sbu_3, # of connection points: 4
#     Node 3, Type 0, BuildingBlock: QUQFOY_clean_sbu_3, # of connection points: 4
#     Node 4, Type 0, BuildingBlock: QUQFOY_clean_sbu_3, # of connection points: 4
#     Node 5, Type 0, BuildingBlock: QUQFOY_clean_sbu_3, # of connection points: 4
#     Node 6, Type 0, BuildingBlock: QUQFOY_clean_sbu_3, # of connection points: 4
#     Node 7, Type 0, BuildingBlock: QUQFOY_clean_sbu_3, # of connection points: 4
#     Node 8, Type 0, BuildingBlock: QUQFOY_clean_sbu_3, # of connection points: 4
#     Node 9, Type 0, BuildingBlock: QUQFOY_clean_sbu_3, # of connection points: 4
#     Node 10, Type 0, BuildingBlock: QUQFOY_clean_sbu_3, # of connection points: 4
#     Node 11, Type 0, BuildingBlock: QUQFOY_clean_sbu_3, # of connection points: 4
#     Node 12, Type 0, BuildingBlock: QUQFOY_clean_sbu_3, # of connection points: 4
#     Node 13, Type 0, BuildingBlock: QUQFOY_clean_sbu_3, # of connection points: 4
#     Node 14, Type 0, BuildingBlock: QUQFOY_clean_sbu_3, # of connection points: 4
#     Node 15, Type 0, BuildingBlock: QUQFOY_clean_sbu_3, # of connection points: 4
#     Edge 16, Type (0, 0), BuildingBlock: MIFKUJ_clean_linker_0, # of connection points: 2
#     Edge 17, Type (0, 0), BuildingBlock: MIFKUJ_clean_linker_0, # of connection points: 2
#     Edge 18, Type (0, 0), BuildingBlock: MIFKUJ_clean_linker_0, # of connection points: 2
#     Edge 19, Type (0, 0), BuildingBlock: MIFKUJ_clean_linker_0, # of connection points: 2
#     Edge 20, Type (0, 0), BuildingBlock: MIFKUJ_clean_linker_0, # of connection points: 2
#     Edge 21, Type (0, 0), BuildingBlock: MIFKUJ_clean_linker_0, # of connection points: 2
#     Edge 22, Type (0, 0), BuildingBlock: MIFKUJ_clean_linker_0, # of connection points: 2
#     Edge 23, Type (0, 0), BuildingBlock: MIFKUJ_clean_linker_0, # of connection points: 2
#     Edge 24, Type (0, 0), BuildingBlock: MIFKUJ_clean_linker_0, # of connection points: 2
#     Edge 25, Type (0, 0), BuildingBlock: MIFKUJ_clean_linker_0, # of connection points: 2
#     Edge 26, Type (0, 0), BuildingBlock: MIFKUJ_clean_linker_0, # of connection points: 2
#     Edge 27, Type (0, 0), BuildingBlock: MIFKUJ_clean_linker_0, # of connection points: 2
#     Edge 28, Type (0, 0), BuildingBlock: MIFKUJ_clean_linker_0, # of connection points: 2
#     Edge 29, Type (0, 0), BuildingBlock: MIFKUJ_clean_linker_0, # of connection points: 2
#     Edge 30, Type (0, 0), BuildingBlock: MIFKUJ_clean_linker_0, # of connection points: 2
#     Edge 31, Type (0, 0), BuildingBlock: MIFKUJ_clean_linker_0, # of connection points: 2
#     Edge 32, Type (0, 0), BuildingBlock: MIFKUJ_clean_linker_0, # of connection points: 2
#     Edge 33, Type (0, 0), BuildingBlock: MIFKUJ_clean_linker_0, # of connection points: 2
#     Edge 34, Type (0, 0), BuildingBlock: MIFKUJ_clean_linker_0, # of connection points: 2
#     Edge 35, Type (0, 0), BuildingBlock: MIFKUJ_clean_linker_0, # of connection points: 2
#     Edge 36, Type (0, 0), BuildingBlock: MIFKUJ_clean_linker_0, # of connection points: 2
#     Edge 37, Type (0, 0), BuildingBlock: MIFKUJ_clean_linker_0, # of connection points: 2
#     Edge 38, Type (0, 0), BuildingBlock: MIFKUJ_clean_linker_0, # of connection points: 2
#     Edge 39, Type (0, 0), BuildingBlock: MIFKUJ_clean_linker_0, # of connection points: 2
#     Edge 40, Type (0, 0), BuildingBlock: MIFKUJ_clean_linker_0, # of connection points: 2
#     Edge 41, Type (0, 0), BuildingBlock: MIFKUJ_clean_linker_0, # of connection points: 2
#     Edge 42, Type (0, 0), BuildingBlock: MIFKUJ_clean_linker_0, # of connection points: 2
#     Edge 43, Type (0, 0), BuildingBlock: MIFKUJ_clean_linker_0, # of connection points: 2
#     Edge 44, Type (0, 0), BuildingBlock: MIFKUJ_clean_linker_0, # of connection points: 2
#     Edge 45, Type (0, 0), BuildingBlock: MIFKUJ_clean_linker_0, # of connection points: 2
#     Edge 46, Type (0, 0), BuildingBlock: MIFKUJ_clean_linker_0, # of connection points: 2
#     Edge 47, Type (0, 0), BuildingBlock: MIFKUJ_clean_linker_0, # of connection points: 2
# Relax obj value: 0.098
# Max RMSD: 0.202
# Mean RMSD: 0.200
data_MOF--net-uki--node1-QUQFOY_clean_sbu_3--edge1-MIFKUJ_clean_linker_0
_symmetry_space_group_name_H-M    P1
_symmetry_Int_Tables_number       1
_symmetry_cell_setting            triclinic
loop_
_symmetry_equiv_pos_as_xyz
'x, y, z'
_cell_length_a     40.293555
_cell_length_b     39.872157
_cell_length_c     95.216987
_cell_angle_alpha  89.916051
_cell_angle_beta   89.934552
_cell_angle_gamma 89.94888
loop_
_atom_site_label
_atom_site_type_symbol
_atom_site_fract_x
_atom_site_fract_y
_atom_site_fract_z
_atom_type_partial_charge
C0 C 0.11458 0.13146 0.25866 0.0
O1 O 0.11987 0.14959 0.24791 0.0
Cd2 Cd 0.12976 0.20895 0.24946 0.0
O3 O 0.11783 0.14355 0.27095 0.0
Cd4 Cd 0.13366 0.19523 0.28328 0.0
C5 C 0.06179 0.22686 0.27074 0.0
O6 O 0.17129 0.22105 0.26638 0.0
O7 O 0.15032 0.25311 0.2824 0.0
O8 O 0.17541 0.16791 0.29766 0.0
C9 C 0.16944 0.25 0.27189 0.0
O10 O 0.07705 0.22857 0.25901 0.0
C11 C 0.16228 0.17545 0.30937 0.0
O12 O 0.07572 0.21414 0.28154 0.0
O13 O 0.13485 0.19125 0.30898 0.0
C14 C 0.21169 0.82725 0.7478 0.0
O15 O 0.19136 0.84368 0.75538 0.0
Cd16 Cd 0.1466 0.87924 0.7468 0.0
O17 O 0.2098 0.82828 0.73445 0.0
Cd18 Cd 0.17773 0.85387 0.71532 0.0
C19 C 0.19457 0.93304 0.72689 0.0
O20 O 0.12418 0.85232 0.7269 0.0
O21 O 0.12525 0.87558 0.70658 0.0
O22 O 0.1847 0.80344 0.70101 0.0
C23 C 0.10896 0.86928 0.71766 0.0
O24 O 0.17407 0.92829 0.73691 0.0
C25 C 0.19603 0.81916 0.6904 0.0
O26 O 0.20279 0.90956 0.71849 0.0
O27 O 0.19938 0.85071 0.69158 0.0
C28 C 0.8897 0.85767 0.25923 0.0
O29 O 0.8825 0.84125 0.24822 0.0
Cd30 Cd 0.86661 0.78326 0.24871 0.0
O31 O 0.88557 0.84475 0.27136 0.0
Cd32 Cd 0.86502 0.7932 0.28276 0.0
C33 C 0.93356 0.75693 0.26876 0.0
O34 O 0.82316 0.77727 0.26545 0.0
O35 O 0.83669 0.73992 0.28087 0.0
O36 O 0.83393 0.82773 0.29941 0.0
C37 C 0.81863 0.74823 0.27055 0.0
O38 O 0.91797 0.75761 0.25711 0.0
C39 C 0.84312 0.81144 0.3102 0.0
O40 O 0.92072 0.7693 0.27985 0.0
O41 O 0.86363 0.78764 0.30827 0.0
C42 C 0.78457 0.1819 0.74821 0.0
O43 O 0.80545 0.17036 0.75699 0.0
Cd44 Cd 0.85388 0.13649 0.75129 0.0
O45 O 0.78843 0.17717 0.73507 0.0
Cd46 Cd 0.82501 0.15076 0.71767 0.0
C47 C 0.81204 0.07412 0.73344 0.0
O48 O 0.87653 0.15789 0.7302 0.0
O49 O 0.88053 0.13486 0.70995 0.0
O50 O 0.8149 0.19678 0.70129 0.0
C51 C 0.8944 0.14195 0.72149 0.0
O52 O 0.82969 0.08371 0.74379 0.0
C53 C 0.80538 0.17784 0.69133 0.0
O54 O 0.80513 0.09382 0.72326 0.0
O55 O 0.80444 0.1465 0.6938 0.0
C56 C 0.10829 0.35691 0.98908 0.0
O57 O 0.11351 0.34066 0.00034 0.0
Cd58 Cd 0.11791 0.28083 -2e-05 0.0
O59 O 0.11048 0.3424 0.97721 0.0
Cd60 Cd 0.12464 0.28795 0.96652 0.0
C61 C 0.04863 0.26959 0.97873 0.0
O62 O 0.16047 0.26272 0.98431 0.0
O63 O 0.13613 0.22895 0.96988 0.0
O64 O 0.1659 0.31484 0.95156 0.0
C65 C 0.15655 0.23297 0.97986 0.0
O66 O 0.06292 0.26774 0.99065 0.0
C67 C 0.15542 0.30215 0.94017 0.0
O68 O 0.06493 0.27745 0.96772 0.0
O69 O 0.12993 0.28345 0.94097 0.0
C70 C 0.27941 0.81295 0.99379 0.0
O71 O 0.29862 0.82744 0.98508 0.0
Cd72 Cd 0.34366 0.86508 0.99115 0.0
O73 O 0.28344 0.81665 0.00697 0.0
Cd74 Cd 0.3191 0.845 0.02432 0.0
C75 C 0.29773 0.92167 0.01076 0.0
O76 O 0.37078 0.84265 0.01118 0.0
O77 O 0.3729 0.86684 0.0313 0.0
O78 O 0.31552 0.79606 0.0397 0.0
C79 C 0.38743 0.8599 0.01987 0.0
O80 O 0.31474 0.91427 -0.00011 0.0
C81 C 0.30487 0.8124 0.05025 0.0
O82 O 0.29406 0.90077 0.0208 0.0
O83 O 0.30042 0.84373 0.0486 0.0
C84 C 0.88324 0.62913 0.98357 0.0
O85 O 0.87718 0.64397 0.99508 0.0
Cd86 Cd 0.87615 0.70395 0.99564 0.0
O87 O 0.88269 0.64535 0.97204 0.0
Cd88 Cd 0.86995 0.70136 0.96238 0.0
C89 C 0.94618 0.71657 0.97489 0.0
O90 O 0.83418 0.72567 0.98044 0.0
O91 O 0.85999 0.76029 0.96678 0.0
O92 O 0.82757 0.67871 0.94683 0.0
C93 C 0.839 0.75574 0.97653 0.0
O94 O 0.93204 0.71653 0.98688 0.0
C95 C 0.83979 0.69091 0.93563 0.0
O96 O 0.92962 0.71111 0.96373 0.0
O97 O 0.86662 0.70743 0.93683 0.0
C98 C 0.71614 0.1767 -0.00072 0.0
O99 O 0.6963 0.16402 0.99036 0.0
Cd100 Cd 0.65225 0.12472 0.99588 0.0
O101 O 0.71293 0.1704 0.01234 0.0
Cd102 Cd 0.6785 0.1397 0.02947 0.0
C103 C 0.69981 0.06573 0.01367 0.0
O104 O 0.62645 0.14297 0.01689 0.0
O105 O 0.62542 0.11566 0.03636 0.0
O106 O 0.68188 0.1873 0.04546 0.0
C107 C 0.61052 0.12384 0.02516 0.0
O108 O 0.68237 0.07486 0.00317 0.0
C109 C 0.69359 0.17046 0.05567 0.0
O110 O 0.70372 0.08484 0.02429 0.0
O111 O 0.69855 0.13935 0.05361 0.0
C112 C 0.59955 0.64584 0.75988 0.0
O113 O 0.60402 0.66295 0.74879 0.0
Cd114 Cd 0.60721 0.72275 0.75028 0.0
O115 O 0.60197 0.65963 0.77189 0.0
Cd116 Cd 0.61592 0.71397 0.78281 0.0
C117 C 0.53915 0.73296 0.77225 0.0
O118 O 0.65135 0.74109 0.76522 0.0
O119 O 0.62536 0.77343 0.77977 0.0
O120 O 0.65929 0.68811 0.79697 0.0
C121 C 0.64677 0.77039 0.77008 0.0
O122 O 0.55246 0.73519 0.76014 0.0
C123 C 0.64868 0.69911 0.80865 0.0
O124 O 0.55633 0.72469 0.78294 0.0
O125 O 0.62215 0.71639 0.80837 0.0
C126 C 0.72855 0.32804 0.24684 0.0
O127 O 0.70691 0.33698 0.25582 0.0
Cd128 Cd 0.65934 0.37178 0.25034 0.0
O129 O 0.7245 0.33441 0.23383 0.0
Cd130 Cd 0.68584 0.35917 0.2166 0.0
C131 C 0.7021 0.43412 0.23207 0.0
O132 O 0.63431 0.35237 0.22941 0.0
O133 O 0.6314 0.37981 0.20998 0.0
O134 O 0.69276 0.31016 0.20164 0.0
C135 C 0.61717 0.37063 0.22121 0.0
O136 O 0.686 0.4232 0.24267 0.0
C137 C 0.70128 0.32674 0.1908 0.0
O138 O 0.70688 0.41595 0.22122 0.0
O139 O 0.7032 0.35843 0.19207 0.0
C140 C 0.38863 0.3614 0.76446 0.0
O141 O 0.38144 0.34653 0.75309 0.0
Cd142 Cd 0.37714 0.28649 0.75283 0.0
O143 O 0.38815 0.34542 0.77604 0.0
Cd144 Cd 0.37376 0.28977 0.78574 0.0
C145 C 0.4477 0.2692 0.77261 0.0
O146 O 0.33569 0.26524 0.76843 0.0
O147 O 0.36413 0.23104 0.78133 0.0
O148 O 0.33365 0.31593 0.8014 0.0
C149 C 0.34167 0.23523 0.77219 0.0
O150 O 0.43225 0.26923 0.76093 0.0
C151 C 0.34419 0.30186 0.81251 0.0
O152 O 0.43295 0.27744 0.78395 0.0
O153 O 0.36912 0.28252 0.81125 0.0
C154 C 0.27176 0.67234 0.24389 0.0
O155 O 0.29212 0.6626 0.25324 0.0
Cd156 Cd 0.33806 0.6249 0.2488 0.0
O157 O 0.27665 0.6654 0.23098 0.0
Cd158 Cd 0.31566 0.63789 0.2146 0.0
C159 C 0.29213 0.5653 0.23072 0.0
O160 O 0.36621 0.64276 0.2282 0.0
O161 O 0.36983 0.61481 0.20896 0.0
O162 O 0.31158 0.68488 0.1982 0.0
C163 C 0.38343 0.62382 0.22033 0.0
O164 O 0.30751 0.57519 0.24165 0.0
C165 C 0.30286 0.66682 0.18783 0.0
O166 O 0.29085 0.58305 0.21957 0.0
O167 O 0.29967 0.63554 0.19005 0.0
C168 C 0.59501 0.84991 0.48639 0.0
O169 O 0.6005 0.83181 0.49712 0.0
Cd170 Cd 0.61361 0.77318 0.49543 0.0
O171 O 0.60033 0.83852 0.47409 0.0
Cd172 Cd 0.62146 0.788 0.46209 0.0
C173 C 0.54922 0.75363 0.47267 0.0
O174 O 0.65894 0.76497 0.47981 0.0
O175 O 0.64239 0.7313 0.46352 0.0
O176 O 0.66036 0.82061 0.44796 0.0
C177 C 0.66027 0.73605 0.47428 0.0
O178 O 0.56287 0.7516 0.48472 0.0
C179 C 0.65064 0.80902 0.43624 0.0
O180 O 0.56427 0.76731 0.46236 0.0
O181 O 0.62642 0.78861 0.43653 0.0
C182 C 0.77883 0.31689 0.49642 0.0
O183 O 0.79943 0.33045 0.48802 0.0
Cd184 Cd 0.84433 0.36768 0.49482 0.0
O185 O 0.78122 0.32137 0.50963 0.0
Cd186 Cd 0.81451 0.34978 0.52768 0.0
C187 C 0.79653 0.4259 0.51277 0.0
O188 O 0.86774 0.34683 0.5159 0.0
O189 O 0.86735 0.37143 0.53594 0.0
O190 O 0.80821 0.30122 0.54306 0.0
C191 C 0.8832 0.36454 0.52482 0.0
O192 O 0.8153 0.41771 0.50254 0.0
C193 C 0.79689 0.31794 0.55338 0.0
O194 O 0.79053 0.40548 0.5228 0.0
O195 O 0.79314 0.34932 0.55158 0.0
C196 C 0.38561 0.13546 0.48929 0.0
O197 O 0.38201 0.1539 0.50005 0.0
Cd198 Cd 0.37787 0.21365 0.49801 0.0
O199 O 0.38319 0.14793 0.47701 0.0
Cd200 Cd 0.37094 0.20135 0.4649 0.0
C201 C 0.4464 0.22491 0.47638 0.0
O202 O 0.33465 0.22826 0.48199 0.0
O203 O 0.35757 0.26056 0.46653 0.0
O204 O 0.32759 0.17655 0.45052 0.0
C205 C 0.33734 0.25733 0.47666 0.0
O206 O 0.43244 0.22751 0.48835 0.0
C207 C 0.34102 0.18348 0.43881 0.0
O208 O 0.43013 0.21492 0.4657 0.0
O209 O 0.36901 0.19815 0.43919 0.0
C210 C 0.21366 0.67597 0.49701 0.0
O211 O 0.19152 0.66561 0.48855 0.0
Cd212 Cd 0.14514 0.62995 0.4951 0.0
O213 O 0.21133 0.67001 0.51012 0.0
Cd214 Cd 0.17619 0.6433 0.52803 0.0
C215 C 0.19202 0.5687 0.51169 0.0
O216 O 0.12267 0.64917 0.51666 0.0
O217 O 0.12344 0.62163 0.53609 0.0
O218 O 0.18457 0.68964 0.54437 0.0
C219 C 0.10724 0.63061 0.52534 0.0
O220 O 0.17364 0.57844 0.50157 0.0
C221 C 0.19565 0.67113 0.55421 0.0
O222 O 0.19794 0.58762 0.52219 0.0
O223 O 0.19829 0.63995 0.55167 0.0
H224 H 0.16705 0.31416 0.28132 0.0
H225 H 0.18589 0.36457 0.2693 0.0
H226 H 0.22243 0.30467 0.2349 0.0
H227 H 0.20359 0.25359 0.24696 0.0
H228 H 0.26632 0.35536 0.24324 0.0
H229 H 0.15343 0.34576 0.22972 0.0
H230 H 0.09357 0.33601 0.23316 0.0
H231 H 0.08756 0.42261 0.25978 0.0
H232 H 0.14752 0.43261 0.2567 0.0
H233 H 0.28762 0.51829 0.20994 0.0
H234 H 0.2642 0.46146 0.21209 0.0
H235 H 0.23487 0.4829 0.25472 0.0
H236 H 0.25916 0.53889 0.25282 0.0
H237 H 0.18519 0.4475 0.23575 0.0
H238 H 0.29855 0.44551 0.25435 0.0
H239 H 0.35875 0.45548 0.25223 0.0
H240 H 0.36276 0.39077 0.21625 0.0
H241 H 0.30243 0.38082 0.21807 0.0
C242 C 0.17922 0.31157 0.27123 0.0
C243 C 0.18362 0.27993 0.26503 0.0
C244 C 0.1898 0.34043 0.26434 0.0
C245 C 0.20487 0.33831 0.25109 0.0
C246 C 0.21053 0.30673 0.24507 0.0
C247 C 0.19983 0.27767 0.25197 0.0
C248 C 0.21468 0.36948 0.24379 0.0
C249 C 0.24847 0.37517 0.2412 0.0
C250 C 0.19134 0.39538 0.24127 0.0
C251 C 0.15508 0.38985 0.24301 0.0
C252 C 0.13941 0.36263 0.23637 0.0
C253 C 0.10544 0.35707 0.23826 0.0
C254 C 0.08678 0.37866 0.2467 0.0
C255 C 0.10205 0.40592 0.25324 0.0
C256 C 0.13603 0.41158 0.25141 0.0
C257 C 0.27577 0.51088 0.21968 0.0
C258 C 0.27527 0.53267 0.23125 0.0
C259 C 0.26247 0.47859 0.22088 0.0
C260 C 0.24783 0.46828 0.23355 0.0
C261 C 0.24596 0.49062 0.24486 0.0
C262 C 0.25997 0.52241 0.24379 0.0
C263 C 0.23674 0.43344 0.23562 0.0
C264 C 0.20277 0.4272 0.23729 0.0
C265 C 0.25981 0.40705 0.2373 0.0
C266 C 0.296 0.41282 0.23622 0.0
C267 C 0.31224 0.43369 0.24591 0.0
C268 C 0.34637 0.43928 0.24478 0.0
C269 C 0.36455 0.42387 0.23409 0.0
C270 C 0.34865 0.40276 0.22451 0.0
C271 C 0.31449 0.39713 0.22558 0.0
H272 H 0.39094 0.42826 0.23328 0.0
H273 H 0.0605 0.37427 0.24815 0.0
H274 H 0.50258 0.74365 0.79625 0.0
H275 H 0.44213 0.75122 0.79797 0.0
H276 H 0.43383 0.74039 0.75306 0.0
H277 H 0.49366 0.73329 0.7512 0.0
H278 H 0.40327 0.80141 0.78445 0.0
H279 H 0.3648 0.69352 0.74624 0.0
H280 H 0.38266 0.6359 0.74059 0.0
H281 H 0.42653 0.62611 0.78145 0.0
H282 H 0.4084 0.68337 0.78747 0.0
H283 H 0.25819 0.7889 0.73461 0.0
H284 H 0.3085 0.7652 0.74455 0.0
H285 H 0.27931 0.79931 0.78575 0.0
H286 H 0.22886 0.82406 0.77575 0.0
H287 H 0.32467 0.71968 0.76367 0.0
H288 H 0.35144 0.82357 0.80309 0.0
H289 H 0.33617 0.88224 0.80826 0.0
H290 H 0.31884 0.90041 0.76442 0.0
H291 H 0.33444 0.84194 0.75897 0.0
C292 C 0.4878 0.74287 0.78676 0.0
C293 C 0.50291 0.73803 0.77359 0.0
C294 C 0.45336 0.74714 0.78777 0.0
C295 C 0.43358 0.74585 0.77566 0.0
C296 C 0.44863 0.74093 0.76255 0.0
C297 C 0.4829 0.73718 0.76151 0.0
C298 C 0.39732 0.75144 0.77632 0.0
C299 C 0.38584 0.78323 0.78029 0.0
C300 C 0.37479 0.72771 0.77078 0.0
C301 C 0.38538 0.69295 0.76728 0.0
C302 C 0.37805 0.67903 0.75407 0.0
C303 C 0.38826 0.64642 0.75079 0.0
C304 C 0.4058 0.62741 0.76064 0.0
C305 C 0.41304 0.64091 0.77381 0.0
C306 C 0.40284 0.67347 0.77715 0.0
C307 C 0.26214 0.79113 0.74582 0.0
C308 C 0.23967 0.80886 0.75435 0.0
C309 C 0.29092 0.77733 0.75151 0.0
C310 C 0.29794 0.78085 0.76586 0.0
C311 C 0.27462 0.79673 0.7746 0.0
C312 C 0.24576 0.81076 0.76888 0.0
C313 C 0.33097 0.77024 0.77114 0.0
C314 C 0.34185 0.73747 0.76826 0.0
C315 C 0.35304 0.79312 0.77761 0.0
C316 C 0.34363 0.8283 0.78067 0.0
C317 C 0.34437 0.84011 0.79456 0.0
C318 C 0.3357 0.8733 0.79753 0.0
C319 C 0.32643 0.89498 0.78668 0.0
C320 C 0.32591 0.88354 0.77281 0.0
C321 C 0.33464 0.85037 0.76978 0.0
H322 H 0.31978 0.92065 0.78903 0.0
H323 H 0.41378 0.60223 0.75807 0.0
H324 H 0.71259 0.47195 0.25523 0.0
H325 H 0.7263 0.5312 0.25631 0.0
H326 H 0.73206 0.53535 0.21109 0.0
H327 H 0.71874 0.4752 0.20991 0.0
H328 H 0.78172 0.5723 0.22433 0.0
H329 H 0.66527 0.56316 0.2262 0.0
H330 H 0.61249 0.53826 0.23398 0.0
H331 H 0.6296 0.57385 0.27587 0.0
H332 H 0.68336 0.59751 0.26854 0.0
H333 H 0.79981 0.74602 0.24295 0.0
H334 H 0.77174 0.69932 0.23104 0.0
H335 H 0.76212 0.64762 0.27066 0.0
H336 H 0.79047 0.69364 0.28251 0.0
H337 H 0.70515 0.64235 0.25281 0.0
H338 H 0.82704 0.63158 0.25167 0.0
H339 H 0.88266 0.65194 0.24497 0.0
H340 H 0.85342 0.6541 0.20161 0.0
H341 H 0.79744 0.63417 0.20811 0.0
C342 C 0.71696 0.4853 0.24549 0.0
C343 C 0.71414 0.46904 0.23247 0.0
C344 C 0.72471 0.5192 0.24612 0.0
C345 C 0.72927 0.53779 0.23377 0.0
C346 C 0.72823 0.52142 0.22073 0.0
C347 C 0.7207 0.48715 0.22008 0.0
C348 C 0.73436 0.57442 0.23481 0.0
C349 C 0.76453 0.58795 0.23016 0.0
C350 C 0.71178 0.59479 0.24241 0.0
C351 C 0.67859 0.58205 0.24679 0.0
C352 C 0.65795 0.56553 0.2371 0.0
C353 C 0.62789 0.55148 0.24145 0.0
C354 C 0.61768 0.55447 0.25542 0.0
C355 C 0.63755 0.57153 0.26506 0.0
C356 C 0.66791 0.58519 0.26081 0.0
C357 C 0.79103 0.72497 0.24912 0.0
C358 C 0.79748 0.72317 0.26361 0.0
C359 C 0.77508 0.6984 0.24232 0.0
C360 C 0.765 0.6701 0.24999 0.0
C361 C 0.7696 0.66935 0.26458 0.0
C362 C 0.78596 0.69551 0.27132 0.0
C363 C 0.7531 0.63945 0.24293 0.0
C364 C 0.72162 0.62709 0.24645 0.0
C365 C 0.77434 0.62018 0.23428 0.0
C366 C 0.80801 0.63184 0.23038 0.0
C367 C 0.83242 0.63665 0.24072 0.0
C368 C 0.864 0.64807 0.23696 0.0
C369 C 0.87154 0.65442 0.22288 0.0
C370 C 0.84752 0.64926 0.21252 0.0
C371 C 0.81587 0.63791 0.21624 0.0
H372 H 0.896 0.66325 0.21998 0.0
H373 H 0.59436 0.54363 0.25876 0.0
H374 H 0.48628 0.25256 0.75019 0.0
H375 H 0.54491 0.23843 0.74999 0.0
H376 H 0.54929 0.25103 0.79494 0.0
H377 H 0.49013 0.26588 0.79524 0.0
H378 H 0.60275 0.27974 0.78177 0.0
H379 H 0.55045 0.17336 0.78186 0.0
H380 H 0.51039 0.12986 0.7748 0.0
H381 H 0.55056 0.13011 0.73301 0.0
H382 H 0.59055 0.17399 0.73976 0.0
H383 H 0.76447 0.19355 0.77543 0.0
H384 H 0.70891 0.2108 0.78324 0.0
H385 H 0.67823 0.22134 0.74011 0.0
H386 H 0.73328 0.20476 0.7322 0.0
H387 H 0.63917 0.17615 0.75737 0.0
H388 H 0.68675 0.28829 0.75744 0.0
H389 H 0.72667 0.33136 0.76509 0.0
H390 H 0.69577 0.31784 0.8079 0.0
H391 H 0.65596 0.27431 0.80051 0.0
C392 C 0.49952 0.25228 0.76008 0.0
C393 C 0.48337 0.26016 0.77275 0.0
C394 C 0.5331 0.24407 0.75994 0.0
C395 C 0.55134 0.24316 0.77247 0.0
C396 C 0.53558 0.25143 0.78516 0.0
C397 C 0.50178 0.25978 0.78531 0.0
C398 C 0.5869 0.23369 0.77203 0.0
C399 C 0.61077 0.25674 0.77672 0.0
C400 C 0.59733 0.2037 0.76543 0.0
C401 C 0.57342 0.17713 0.76131 0.0
C402 C 0.55061 0.16431 0.77114 0.0
C403 C 0.52793 0.13956 0.7672 0.0
C404 C 0.5279 0.12726 0.75346 0.0
C405 C 0.55061 0.13966 0.74365 0.0
C406 C 0.57333 0.16444 0.74753 0.0
C407 C 0.74609 0.20021 0.76762 0.0
C408 C 0.75326 0.19742 0.75318 0.0
C409 C 0.71441 0.21003 0.77211 0.0
C410 C 0.68955 0.21701 0.76223 0.0
C411 C 0.69712 0.21584 0.74787 0.0
C412 C 0.72868 0.2064 0.74339 0.0
C413 C 0.6548 0.22279 0.76658 0.0
C414 C 0.63113 0.19884 0.76267 0.0
C415 C 0.64471 0.25169 0.77402 0.0
C416 C 0.66873 0.27772 0.77845 0.0
C417 C 0.68874 0.29422 0.7685 0.0
C418 C 0.71128 0.31879 0.77278 0.0
C419 C 0.71385 0.32725 0.78698 0.0
C420 C 0.69381 0.31121 0.79691 0.0
C421 C 0.67125 0.2866 0.79268 0.0
H422 H 0.73129 0.34629 0.79027 0.0
H423 H 0.51031 0.1081 0.75043 0.0
H424 H 0.29536 0.96898 0.99018 0.0
H425 H 0.27403 0.02582 0.99168 0.0
H426 H 0.24489 0.00881 0.0347 0.0
H427 H 0.26674 0.95132 0.03337 0.0
H428 H 0.19548 0.03867 0.01837 0.0
H429 H 0.30689 0.06564 0.03103 0.0
H430 H 0.36803 0.06301 0.02998 0.0
H431 H 0.36586 0.09335 0.98673 0.0
H432 H 0.30473 0.09728 0.98765 0.0
H433 H 0.19995 0.23295 0.00204 0.0
H434 H 0.22421 0.1839 0.01381 0.0
H435 H 0.17171 0.11859 0.98541 0.0
H436 H 0.14738 0.16706 0.97373 0.0
H437 H 0.26423 0.13556 0.00331 0.0
H438 H 0.14721 0.04917 0.00172 0.0
H439 H 0.08658 0.05475 0.00432 0.0
H440 H 0.09977 0.14434 0.02864 0.0
H441 H 0.1605 0.13904 0.02638 0.0
C442 C 0.28454 0.97717 1e-05 0.0
C443 C 0.28295 0.9556 0.01169 0.0
C444 C 0.27261 0.00983 0.00088 0.0
C445 C 0.25857 0.0217 0.01339 0.0
C446 C 0.25606 0.00015 0.02501 0.0
C447 C 0.26835 0.96732 0.02419 0.0
C448 C 0.24482 0.05606 0.0137 0.0
C449 C 0.21047 0.06006 0.01532 0.0
C450 C 0.2646 0.08405 0.0101 0.0
C451 C 0.30129 0.08164 0.00941 0.0
C452 C 0.31947 0.0717 0.0213 0.0
C453 C 0.35411 0.07009 0.02074 0.0
C454 C 0.3708 0.07766 0.00826 0.0
C455 C 0.3529 0.08741 0.99638 0.0
C456 C 0.31828 0.08966 0.99695 0.0
C457 C 0.19354 0.2081 -0.00164 0.0
C458 C 0.17173 0.20383 0.98698 0.0
C459 C 0.20736 0.18017 0.00509 0.0
C460 C 0.19928 0.14765 0.00063 0.0
C461 C 0.17769 0.14345 0.98922 0.0
C462 C 0.16401 0.17122 0.98248 0.0
C463 C 0.21457 0.11779 0.00724 0.0
C464 C 0.24922 0.11459 0.00683 0.0
C465 C 0.19504 0.09074 0.01221 0.0
C466 C 0.15848 0.09375 0.01382 0.0
C467 C 0.13722 0.06992 0.00771 0.0
C468 C 0.10281 0.07308 0.00911 0.0
C469 C 0.08933 0.09991 0.01662 0.0
C470 C 0.11024 0.12361 0.02279 0.0
C471 C 0.14466 0.12056 0.02144 0.0
H472 H 0.06269 0.10232 0.01768 0.0
H473 H 0.3976 0.07606 0.00783 0.0
H474 H 0.23638 0.77517 0.0093 0.0
H475 H 0.18399 0.75093 0.00172 0.0
H476 H 0.20301 0.78373 0.95928 0.0
H477 H 0.25558 0.80862 0.96684 0.0
H478 H 0.143 0.80291 0.9677 0.0
H479 H 0.20155 0.70004 0.96723 0.0
H480 H 0.23882 0.65544 0.97578 0.0
H481 H 0.17393 0.63746 0.01078 0.0
H482 H 0.13649 0.6823 0.00257 0.0
H483 H 0.98427 0.72979 0.95159 0.0
H484 H 0.04446 0.73893 0.95075 0.0
H485 H 0.0502 0.72346 0.99552 0.0
H486 H 0.99042 0.71449 0.99648 0.0
H487 H 0.10037 0.69035 0.98069 0.0
H488 H 0.04893 0.80064 0.98318 0.0
H489 H 0.01186 0.84563 0.97476 0.0
H490 H 0.06445 0.84879 0.93553 0.0
H491 H 0.10157 0.80346 0.94366 0.0
C492 C 0.22978 0.7768 -0.0017 0.0
C493 C 0.25013 0.79405 0.9887 0.0
C494 C 0.19985 0.76268 0.99395 0.0
C495 C 0.18964 0.76528 0.9799 0.0
C496 C 0.21045 0.78136 0.97017 0.0
C497 C 0.24053 0.79548 0.9745 0.0
C498 C 0.15583 0.75412 0.97586 0.0
C499 C 0.13395 0.77798 0.97019 0.0
C500 C 0.14383 0.72175 0.97928 0.0
C501 C 0.16628 0.69472 0.98431 0.0
C502 C 0.19534 0.68677 0.97681 0.0
C503 C 0.21648 0.6614 0.98159 0.0
C504 C 0.20878 0.64366 0.99383 0.0
C505 C 0.17987 0.65122 0.0013 0.0
C506 C 0.15864 0.67658 0.99657 0.0
C507 C -0.00161 0.72828 0.96124 0.0
C508 C 0.9825 0.72179 0.97412 0.0
C509 C 0.03273 0.73347 0.96073 0.0
C510 C 0.05169 0.73197 0.97308 0.0
C511 C 0.036 0.72467 0.98587 0.0
C512 C 0.00176 0.71984 0.98641 0.0
C513 C 0.08767 0.73945 0.97297 0.0
C514 C 0.10981 0.71493 0.97787 0.0
C515 C 0.09997 0.77115 0.96882 0.0
C516 C 0.07771 0.79839 0.96395 0.0
C517 C 0.05238 0.81073 0.97271 0.0
C518 C 0.03141 0.83632 0.968 0.0
C519 C 0.03572 0.84997 0.9546 0.0
C520 C 0.06109 0.83812 0.9459 0.0
C521 C 0.0821 0.81249 0.95055 0.0
H522 H 0.01947 0.8698 0.95098 0.0
H523 H 0.22518 0.62402 0.99751 0.0
H524 H 0.85024 0.82203 0.97178 0.0
H525 H 0.82568 0.86977 0.98387 0.0
H526 H 0.76878 0.80271 0.01008 0.0
H527 H 0.79329 0.75443 -0.0021 0.0
H528 H 0.73104 0.85341 -0.00022 0.0
H529 H 0.83199 0.84386 0.02458 0.0
H530 H 0.89225 0.83647 0.0278 0.0
H531 H 0.91045 0.92862 0.00573 0.0
H532 H 0.85032 0.93635 0.00219 0.0
H533 H 0.7285 0.031 0.03553 0.0
H534 H 0.74988 0.97325 0.03503 0.0
H535 H 0.72537 0.96635 0.99105 0.0
H536 H 0.70499 0.02376 0.99134 0.0
H537 H 0.80059 0.94594 0.01838 0.0
H538 H 0.69235 0.89038 0.98492 0.0
H539 H 0.63148 0.89538 0.98317 0.0
H540 H 0.62671 0.93033 0.02575 0.0
H541 H 0.68751 0.92531 0.02781 0.0
C542 C 0.83258 0.81733 0.98013 0.0
C543 C 0.82373 0.78445 0.9839 0.0
C544 C 0.81874 0.84467 0.98711 0.0
C545 C 0.79584 0.83975 -0.00197 0.0
C546 C 0.78662 0.80698 0.00175 0.0
C547 C 0.80061 0.77949 0.99478 0.0
C548 C 0.78063 0.86921 0.00496 0.0
C549 C 0.74616 0.87349 0.00401 0.0
C550 C 0.80033 0.89493 0.01089 0.0
C551 C 0.83658 0.89062 0.01308 0.0
C552 C 0.84883 0.86247 0.02034 0.0
C553 C 0.88298 0.85822 0.02223 0.0
C554 C 0.90516 0.88205 0.01696 0.0
C555 C 0.89323 0.9102 0.00982 0.0
C556 C 0.8591 0.91456 0.00789 0.0
C557 C 0.72789 0.01719 0.02575 0.0
C558 C 0.71466 0.03181 0.01351 0.0
C559 C 0.73991 0.98423 0.02551 0.0
C560 C 0.73847 0.96541 0.01308 0.0
C561 C 0.72598 0.98022 0.00083 0.0
C562 C 0.71441 0.0131 0.00102 0.0
C563 C 0.75134 0.93074 0.01243 0.0
C564 C 0.78538 0.92552 0.0145 0.0
C565 C 0.73117 0.90396 0.00776 0.0
C566 C 0.69457 0.90749 0.00651 0.0
C567 C 0.67832 0.89896 0.99394 0.0
C568 C 0.64382 0.90179 0.99289 0.0
C569 C 0.62523 0.91295 0.00437 0.0
C570 C 0.64113 0.92154 0.01689 0.0
C571 C 0.67564 0.91886 0.01798 0.0
H572 H 0.59853 0.91521 0.00353 0.0
H573 H 0.93159 0.87871 0.01843 0.0
H574 H 0.76355 0.20623 0.01551 0.0
H575 H 0.81516 0.2318 0.00783 0.0
H576 H 0.78668 0.21801 0.96455 0.0
H577 H 0.73492 0.19144 0.9722 0.0
H578 H 0.84678 0.19519 0.9685 0.0
H579 H 0.79352 0.29764 0.97915 0.0
H580 H 0.76039 0.33838 0.99268 0.0
H581 H 0.83298 0.337 0.02565 0.0
H582 H 0.86631 0.29585 0.01245 0.0
H583 H 0.00865 0.26744 0.95532 0.0
H584 H 0.94809 0.26083 0.95472 0.0
H585 H 0.94609 0.25477 -6e-05 0.0
H586 H 0.00603 0.26134 0.00068 0.0
H587 H 0.8976 0.2968 0.98937 0.0
H588 H 0.94251 0.18483 0.98046 0.0
H589 H 0.97543 0.14387 0.96692 0.0
H590 H 0.91748 0.165 0.93013 0.0
H591 H 0.88448 0.20641 0.94343 0.0
C592 C 0.76788 0.20908 0.00434 0.0
C593 C 0.74511 0.19655 0.99447 0.0
C594 C 0.7974 0.224 -5e-05 0.0
C595 C 0.80473 0.22721 0.98559 0.0
C596 C 0.78151 0.2159 0.97568 0.0
C597 C 0.75191 0.20079 0.98008 0.0
C598 C 0.83806 0.23914 0.98117 0.0
C599 C 0.85756 0.21793 0.97275 0.0
C600 C 0.85233 0.26867 0.98679 0.0
C601 C 0.83236 0.29347 0.99481 0.0
C602 C 0.80232 0.30582 0.98933 0.0
C603 C 0.78351 0.32902 0.99694 0.0
C604 C 0.79455 0.34024 0.01002 0.0
C605 C 0.82446 0.3283 0.01551 0.0
C606 C 0.84335 0.30507 0.00796 0.0
C607 C 0.99528 0.2646 0.96512 0.0
C608 C 0.01225 0.26463 0.97804 0.0
C609 C 0.96072 0.26091 0.96476 0.0
C610 C 0.94267 0.25732 0.9773 0.0
C611 C 0.95954 0.25765 0.99015 0.0
C612 C 0.99391 0.26115 0.99053 0.0
C613 C 0.9063 0.25211 0.97727 0.0
C614 C 0.88635 0.27462 0.98482 0.0
C615 C 0.89157 0.22391 0.97083 0.0
C616 C 0.91135 0.199 0.96288 0.0
C617 C 0.93699 0.18094 0.96945 0.0
C618 C 0.95562 0.15761 0.96183 0.0
C619 C 0.94863 0.15193 0.94766 0.0
C620 C 0.92292 0.16949 0.9411 0.0
C621 C 0.90425 0.19288 0.94867 0.0
H622 H 0.96307 0.13385 0.94178 0.0
H623 H 0.77995 0.35821 0.01589 0.0
H624 H 0.63135 0.83583 0.77461 0.0
H625 H 0.65953 0.88525 0.76545 0.0
H626 H 0.72893 0.82189 0.74332 0.0
H627 H 0.69999 0.77206 0.75214 0.0
H628 H 0.71878 0.90565 0.7703 0.0
H629 H 0.75917 0.86455 0.71452 0.0
H630 H 0.73986 0.82756 0.69546 0.0
H631 H 0.63941 0.8377 0.70996 0.0
H632 H 0.65806 0.87508 0.72899 0.0
H633 H 0.83645 0.02039 0.74767 0.0
H634 H 0.81033 0.96572 0.7508 0.0
H635 H 0.73056 0.99552 0.72327 0.0
H636 H 0.75713 0.05022 0.71978 0.0
H637 H 0.74508 0.92896 0.7203 0.0
H638 H 0.72172 0.00552 0.75794 0.0
H639 H 0.73588 0.04567 0.77667 0.0
H640 H 0.79168 0.96938 0.79807 0.0
H641 H 0.77822 0.92889 0.77934 0.0
C642 C 0.65247 0.83235 0.76772 0.0
C643 C 0.66355 0.80007 0.76413 0.0
C644 C 0.66858 0.86065 0.76249 0.0
C645 C 0.69628 0.85733 0.75365 0.0
C646 C 0.70729 0.82509 0.74994 0.0
C647 C 0.69088 0.79665 0.75505 0.0
C648 C 0.71442 0.88776 0.74903 0.0
C649 C 0.72451 0.91063 0.75936 0.0
C650 C 0.72164 0.89453 0.73474 0.0
C651 C 0.71009 0.87231 0.72327 0.0
C652 C 0.73296 0.85896 0.71361 0.0
C653 C 0.72212 0.83792 0.70282 0.0
C654 C 0.68845 0.83019 0.70153 0.0
C655 C 0.66551 0.84359 0.71101 0.0
C656 C 0.67621 0.86466 0.72181 0.0
C657 C 0.81354 0.01518 0.74214 0.0
C658 C 0.7984 0.03979 0.73372 0.0
C659 C 0.79872 0.9839 0.7439 0.0
C660 C 0.76816 0.97689 0.73752 0.0
C661 C 0.75409 0.00053 0.72834 0.0
C662 C 0.7692 0.03178 0.72641 0.0
C663 C 0.74941 0.94648 0.7416 0.0
C664 C 0.73936 0.92372 0.73122 0.0
C665 C 0.74136 0.9401 0.75583 0.0
C666 C 0.74922 0.96428 0.76718 0.0
C667 C 0.73718 -0.00262 0.76659 0.0
C668 C 0.74506 0.02018 0.77721 0.0
C669 C 0.76473 0.0101 0.78854 0.0
C670 C 0.77648 0.97716 0.78928 0.0
C671 C 0.76872 0.95427 0.77868 0.0
H672 H 0.77082 0.0278 0.79675 0.0
H673 H 0.68012 0.81389 0.69317 0.0
H674 H 0.02649 0.25673 0.24983 0.0
H675 H 0.96887 0.27429 0.25014 0.0
H676 H 0.95987 0.24228 0.29327 0.0
H677 H 0.01807 0.22382 0.293 0.0
H678 H 0.90721 0.2218 0.27764 0.0
H679 H 0.96156 0.32497 0.28596 0.0
H680 H 0.00343 0.36935 0.28268 0.0
H681 H 0.96761 0.3874 0.2409 0.0
H682 H 0.92582 0.34277 0.24383 0.0
H683 H 0.74606 0.30738 0.27342 0.0
H684 H 0.80127 0.28947 0.28137 0.0
H685 H 0.83833 0.29864 0.23905 0.0
H686 H 0.78361 0.316 0.23098 0.0
H687 H 0.8753 0.33443 0.25997 0.0
H688 H 0.82701 0.22451 0.25123 0.0
H689 H 0.78574 0.17969 0.25486 0.0
H690 H 0.81025 0.17585 0.29871 0.0
H691 H 0.85138 0.22103 0.29537 0.0
C692 C 0.0125 0.2535 0.25945 0.0
C693 C 0.02702 0.2389 0.27141 0.0
C694 C 0.97948 0.26376 0.25962 0.0
C695 C 0.96019 0.26009 0.27179 0.0
C696 C 0.97442 0.24551 0.28379 0.0
C697 C 0.00767 0.2351 0.28363 0.0
C698 C 0.92491 0.27072 0.27155 0.0
C699 C 0.90016 0.2467 0.27412 0.0
C700 C 0.91573 0.30317 0.2669 0.0
C701 C 0.94059 0.33038 0.26511 0.0
C702 C 0.96271 0.33826 0.27604 0.0
C703 C 0.98643 0.36348 0.27425 0.0
C704 C 0.98819 0.38117 0.26159 0.0
C705 C 0.96619 0.37369 0.25071 0.0
C706 C 0.94244 0.34847 0.25244 0.0
C707 C 0.76586 0.3051 0.26578 0.0
C708 C 0.76042 0.31328 0.25157 0.0
C709 C 0.79734 0.29491 0.27035 0.0
C710 C 0.82381 0.29302 0.2608 0.0
C711 C 0.8182 0.30017 0.24659 0.0
C712 C 0.78681 0.30994 0.24199 0.0
C713 C 0.85791 0.28513 0.26551 0.0
C714 C 0.88237 0.30981 0.26381 0.0
C715 C 0.8667 0.25348 0.27109 0.0
C716 C 0.84191 0.22646 0.27309 0.0
C717 C 0.82333 0.21438 0.26168 0.0
C718 C 0.80004 0.18884 0.26368 0.0
C719 C 0.79528 0.17502 0.27702 0.0
C720 C 0.8139 0.18664 0.28839 0.0
C721 C 0.8372 0.2122 0.28645 0.0
H722 H 0.77726 0.15524 0.27854 0.0
H723 H 0.00656 0.40069 0.26023 0.0
H724 H 0.26028 0.94679 0.7241 0.0
H725 H 0.28676 0.00165 0.72745 0.0
H726 H 0.19042 0.04833 0.73048 0.0
H727 H 0.16395 0.99354 0.72724 0.0
H728 H 0.24625 0.088 0.71596 0.0
H729 H 0.21496 0.0286 0.75911 0.0
H730 H 0.21386 0.97723 0.77356 0.0
H731 H 0.3204 0.97369 0.77316 0.0
H732 H 0.32204 0.02484 0.75853 0.0
H733 H 0.28294 0.2321 0.75778 0.0
H734 H 0.2585 0.18261 0.74657 0.0
H735 H 0.34441 0.12416 0.75832 0.0
H736 H 0.36785 0.17281 0.7701 0.0
H737 H 0.29377 0.09009 0.76403 0.0
H738 H 0.32709 0.15227 0.72323 0.0
H739 H 0.33017 0.20116 0.70739 0.0
H740 H 0.22447 0.19844 0.70184 0.0
H741 H 0.2207 0.14978 0.7178 0.0
C742 C 0.24487 0.96896 0.72504 0.0
C743 C 0.21021 0.96615 0.7257 0.0
C744 C 0.25994 0.00017 0.72693 0.0
C745 C 0.24044 0.02885 0.72927 0.0
C746 C 0.20579 0.02646 0.72864 0.0
C747 C 0.19076 0.99521 0.72698 0.0
C748 C 0.25582 0.05971 0.73477 0.0
C749 C 0.25655 0.08875 0.72648 0.0
C750 C 0.26953 0.06024 0.7484 0.0
C751 C 0.26861 0.03032 0.75765 0.0
C752 C 0.23813 0.01677 0.76206 0.0
C753 C 0.2374 0.98771 0.77029 0.0
C754 C 0.26704 0.97216 0.77426 0.0
C755 C 0.29746 0.98575 0.77008 0.0
C756 C 0.29831 0.01479 0.76184 0.0
C757 C 0.29653 0.20865 0.7579 0.0
C758 C 0.32712 0.20618 0.76488 0.0
C759 C 0.28271 0.18045 0.75141 0.0
C760 C 0.29976 0.14963 0.75145 0.0
C761 C 0.33065 0.14752 0.75819 0.0
C762 C 0.34404 0.17538 0.76492 0.0
C763 C 0.28493 0.11899 0.74518 0.0
C764 C 0.28392 0.08974 0.75343 0.0
C765 C 0.2714 0.11835 0.73143 0.0
C766 C 0.27359 0.14758 0.72182 0.0
C767 C 0.30448 0.16225 0.71872 0.0
C768 C 0.30635 0.1899 0.70971 0.0
C769 C 0.27753 0.20295 0.70364 0.0
C770 C 0.24677 0.18833 0.70656 0.0
C771 C 0.24476 0.1607 0.71558 0.0
H772 H 0.27903 0.22435 0.69667 0.0
H773 H 0.2664 0.94961 0.78059 0.0
H774 H 0.96777 0.72883 0.24704 0.0
H775 H 0.02617 0.71394 0.24622 0.0
H776 H 0.03689 0.74129 0.2898 0.0
H777 H 0.97811 0.75717 0.29064 0.0
H778 H 0.08598 0.76745 0.27462 0.0
H779 H 0.04029 0.65875 0.27976 0.0
H780 H 0.00248 0.61141 0.27525 0.0
H781 H 0.03846 0.60449 0.23289 0.0
H782 H 0.07616 0.65211 0.23707 0.0
H783 H 0.25129 0.69096 0.27033 0.0
H784 H 0.19489 0.70667 0.27749 0.0
H785 H 0.16306 0.70246 0.23433 0.0
H786 H 0.21905 0.68728 0.22703 0.0
H787 H 0.12622 0.66119 0.25356 0.0
H788 H 0.16764 0.7749 0.24863 0.0
H789 H 0.20558 0.82169 0.25392 0.0
H790 H 0.17816 0.81685 0.29747 0.0
H791 H 0.14037 0.76969 0.29246 0.0
C792 C 0.98231 0.73136 0.25654 0.0
C793 C 0.96816 0.74425 0.26891 0.0
C794 C 0.01578 0.72265 0.25606 0.0
C795 C 0.0359 0.72613 0.26799 0.0
C796 C 0.0218 0.73833 0.28048 0.0
C797 C 0.98817 0.74721 0.28096 0.0
C798 C 0.07191 0.71857 0.26701 0.0
C799 C 0.09483 0.74391 0.27031 0.0
C800 C 0.08351 0.68796 0.26129 0.0
C801 C 0.06094 0.65917 0.25872 0.0
C802 C 0.03999 0.64729 0.26945 0.0
C803 C 0.01859 0.62038 0.26696 0.0
C804 C 0.01803 0.60498 0.25379 0.0
C805 C 0.03892 0.61644 0.24309 0.0
C806 C 0.06035 0.64336 0.24552 0.0
C807 C 0.23246 0.69407 0.26233 0.0
C808 C 0.23968 0.68758 0.24811 0.0
C809 C 0.20027 0.70301 0.26645 0.0
C810 C 0.17486 0.70538 0.25644 0.0
C811 C 0.18235 0.70052 0.24221 0.0
C812 C 0.21446 0.69198 0.23806 0.0
C813 C 0.13991 0.71043 0.26072 0.0
C814 C 0.1173 0.68448 0.25808 0.0
C815 C 0.12874 0.74024 0.2672 0.0
C816 C 0.15152 0.76848 0.27021 0.0
C817 C 0.16997 0.78357 0.25936 0.0
C818 C 0.19138 0.81022 0.2623 0.0
C819 C 0.19437 0.82216 0.27603 0.0
C820 C 0.17588 0.80753 0.28684 0.0
C821 C 0.15445 0.78086 0.28396 0.0
H822 H 0.21094 0.8428 0.27828 0.0
H823 H 0.00144 0.58415 0.25188 0.0
H824 H 0.81107 0.47729 0.495 0.0
H825 H 0.78829 0.53366 0.49494 0.0
H826 H 0.72713 0.50932 0.53072 0.0
H827 H 0.75019 0.45223 0.53097 0.0
H828 H 0.69235 0.53927 0.50885 0.0
H829 H 0.78543 0.56759 0.53703 0.0
H830 H 0.84391 0.56631 0.54459 0.0
H831 H 0.87431 0.60558 0.50459 0.0
H832 H 0.81583 0.60796 0.49692 0.0
H833 H 0.68943 0.73455 0.50031 0.0
H834 H 0.71201 0.68523 0.51249 0.0
H835 H 0.69121 0.6244 0.47613 0.0
H836 H 0.66844 0.67309 0.46402 0.0
H837 H 0.76285 0.64123 0.50648 0.0
H838 H 0.66031 0.55099 0.48599 0.0
H839 H 0.60112 0.55364 0.47954 0.0
H840 H 0.58736 0.63799 0.50692 0.0
H841 H 0.64634 0.63554 0.51371 0.0
C842 C 0.79285 0.48375 0.50292 0.0
C843 C 0.78232 0.46013 0.51296 0.0
C844 C 0.78013 0.51618 0.50296 0.0
C845 C 0.75645 0.52577 0.51296 0.0
C846 C 0.74568 0.50239 0.52301 0.0
C847 C 0.75877 0.46983 0.5231 0.0
C848 C 0.74134 0.55946 0.5119 0.0
C849 C 0.70755 0.56171 0.50857 0.0
C850 C 0.76111 0.58873 0.51185 0.0
C851 C 0.79629 0.58785 0.5164 0.0
C852 C 0.8046 0.57592 0.52984 0.0
C853 C 0.83773 0.57507 0.53416 0.0
C854 C 0.86286 0.58553 0.52503 0.0
C855 C 0.85483 0.59742 0.51164 0.0
C856 C 0.82166 0.59881 0.50735 0.0
C857 C 0.68995 0.71069 0.4949 0.0
C858 C 0.67688 0.70757 0.48127 0.0
C859 C 0.7028 0.6826 0.50187 0.0
C860 C 0.70259 0.65111 0.49531 0.0
C861 C 0.69088 0.64835 0.48149 0.0
C862 C 0.67802 0.67624 0.47456 0.0
C863 C 0.7142 0.6207 0.50275 0.0
C864 C 0.74733 0.61908 0.50719 0.0
C865 C 0.69362 0.59209 0.50406 0.0
C866 C 0.65783 0.59313 0.50033 0.0
C867 C 0.64461 0.56992 0.49074 0.0
C868 C 0.6111 0.57144 0.48699 0.0
C869 C 0.5905 0.59599 0.4928 0.0
C870 C 0.60335 0.61902 0.50241 0.0
C871 C 0.63683 0.61759 0.5062 0.0
H872 H 0.56458 0.59716 0.48986 0.0
H873 H 0.88853 0.58452 0.52835 0.0
H874 H 0.73236 0.2826 0.51148 0.0
H875 H 0.68047 0.25923 0.50307 0.0
H876 H 0.70684 0.2855 0.46052 0.0
H877 H 0.75898 0.30984 0.46895 0.0
H878 H 0.64637 0.30656 0.46622 0.0
H879 H 0.70077 0.20237 0.4706 0.0
H880 H 0.73544 0.15819 0.48125 0.0
H881 H 0.66647 0.14901 0.51544 0.0
H882 H 0.63163 0.1935 0.50513 0.0
H883 H 0.4842 0.23209 0.45246 0.0
H884 H 0.54445 0.24117 0.45109 0.0
H885 H 0.55004 0.24102 0.49631 0.0
H886 H 0.49035 0.23241 0.49781 0.0
H887 H 0.59783 0.19928 0.48281 0.0
H888 H 0.55153 0.31266 0.48 0.0
H889 H 0.51732 0.35671 0.46897 0.0
H890 H 0.57237 0.34629 0.43057 0.0
H891 H 0.60664 0.30183 0.44135 0.0
C892 C 0.72751 0.28299 0.50029 0.0
C893 C 0.74981 0.2983 0.4909 0.0
C894 C 0.69783 0.26933 0.49547 0.0
C895 C 0.68983 0.27025 0.48113 0.0
C896 C 0.71255 0.2844 0.47163 0.0
C897 C 0.74238 0.29819 0.47646 0.0
C898 C 0.65635 0.25935 0.4765 0.0
C899 C 0.63606 0.28267 0.4695 0.0
C900 C 0.64274 0.22826 0.4808 0.0
C901 C 0.66361 0.20142 0.4871 0.0
C902 C 0.69309 0.19111 0.48044 0.0
C903 C 0.71277 0.16597 0.48641 0.0
C904 C 0.70318 0.15082 0.49902 0.0
C905 C 0.67386 0.16075 0.50567 0.0
C906 C 0.6541 0.1859 0.49975 0.0
C907 C 0.49829 0.23412 0.46209 0.0
C908 C 0.48245 0.23161 0.47524 0.0
C909 C 0.53265 0.23926 0.46129 0.0
C910 C 0.5516 0.24159 0.47361 0.0
C911 C 0.53583 0.23907 0.48669 0.0
C912 C 0.50164 0.23438 0.48751 0.0
C913 C 0.5879 0.24705 0.47316 0.0
C914 C 0.60859 0.22267 0.47918 0.0
C915 C 0.60192 0.27696 0.46785 0.0
C916 C 0.58131 0.30363 0.46141 0.0
C917 C 0.55611 0.31953 0.46916 0.0
C918 C 0.53677 0.34463 0.46297 0.0
C919 C 0.54258 0.35421 0.44906 0.0
C920 C 0.56783 0.33878 0.44133 0.0
C921 C 0.58723 0.31365 0.44748 0.0
H922 H 0.52759 0.37365 0.44428 0.0
H923 H 0.71845 0.13136 0.50362 0.0
H924 H 0.19368 0.52682 0.4892 0.0
H925 H 0.2152 0.46984 0.48818 0.0
H926 H 0.24552 0.47645 0.53152 0.0
H927 H 0.22332 0.53373 0.53274 0.0
H928 H 0.29438 0.4511 0.51405 0.0
H929 H 0.18189 0.42795 0.52476 0.0
H930 H 0.12109 0.43324 0.52288 0.0
H931 H 0.12503 0.39822 0.4803 0.0
H932 H 0.18592 0.39296 0.48188 0.0
H933 H 0.29214 0.25831 0.49816 0.0
H934 H 0.26585 0.3077 0.50876 0.0
H935 H 0.31862 0.37175 0.47983 0.0
H936 H 0.34491 0.32283 0.46923 0.0
H937 H 0.22571 0.35629 0.49692 0.0
H938 H 0.34307 0.44134 0.49684 0.0
H939 H 0.4036 0.43534 0.4997 0.0
H940 H 0.38914 0.34525 0.52369 0.0
H941 H 0.32851 0.35097 0.52116 0.0
C942 C 0.20458 0.51613 0.49859 0.0
C943 C 0.2064 0.53465 0.51111 0.0
C944 C 0.21681 0.48352 0.49799 0.0
C945 C 0.23137 0.46881 0.50985 0.0
C946 C 0.23404 0.48737 0.5223 0.0
C947 C 0.22147 0.52005 0.52296 0.0
C948 C 0.24509 0.43455 0.50881 0.0
C949 C 0.27937 0.43021 0.51048 0.0
C950 C 0.22524 0.40724 0.50446 0.0
C951 C 0.18854 0.4101 0.50344 0.0
C952 C 0.16983 0.42147 0.51498 0.0
C953 C 0.13533 0.42436 0.51398 0.0
C954 C 0.1192 0.41592 0.5015 0.0
C955 C 0.13755 0.40458 0.48999 0.0
C956 C 0.17206 0.40155 0.49094 0.0
C957 C 0.2981 0.28294 0.49407 0.0
C958 C 0.32068 0.28673 0.4829 0.0
C959 C 0.28306 0.31106 0.50012 0.0
C960 C 0.29068 0.34331 0.49519 0.0
C961 C 0.31285 0.34707 0.48393 0.0
C962 C 0.32772 0.31907 0.47784 0.0
C963 C 0.27522 0.37333 0.50153 0.0
C964 C 0.24063 0.3769 0.50081 0.0
C965 C 0.29474 0.39981 0.50695 0.0
C966 C 0.33121 0.3965 0.50873 0.0
C967 C 0.35278 0.42037 0.5028 0.0
C968 C 0.38712 0.41699 0.50435 0.0
C969 C 0.40021 0.38989 0.51185 0.0
C970 C 0.37898 0.36617 0.51785 0.0
C971 C 0.34462 0.36945 0.51634 0.0
H972 H 0.4268 0.3873 0.51302 0.0
H973 H 0.0925 0.41837 0.50072 0.0
H974 H 0.51214 0.71968 0.49191 0.0
H975 H 0.45352 0.70613 0.49075 0.0
H976 H 0.44818 0.74771 0.44896 0.0
H977 H 0.50731 0.76217 0.45014 0.0
H978 H 0.39823 0.77046 0.46486 0.0
H979 H 0.44047 0.66323 0.45379 0.0
H980 H 0.47671 0.61358 0.45563 0.0
H981 H 0.43872 0.5932 0.49691 0.0
H982 H 0.40261 0.64302 0.49542 0.0
H983 H 0.22978 0.69156 0.46963 0.0
H984 H 0.28494 0.70676 0.46062 0.0
H985 H 0.32322 0.70754 0.50285 0.0
H986 H 0.26861 0.69321 0.51198 0.0
H987 H 0.35367 0.6603 0.4801 0.0
H988 H 0.32048 0.7755 0.49175 0.0
H989 H 0.28477 0.82541 0.48928 0.0
H990 H 0.30548 0.82875 0.44505 0.0
H991 H 0.34096 0.7785 0.44725 0.0
C992 C 0.49875 0.72566 0.48238 0.0
C993 C 0.51448 0.7421 0.47113 0.0
C994 C 0.46516 0.71767 0.4817 0.0
C995 C 0.4465 0.72552 0.4697 0.0
C996 C 0.46217 0.7413 0.45829 0.0
C997 C 0.49597 0.74939 0.45897 0.0
C998 C 0.41026 0.71899 0.46969 0.0
C999 C 0.38843 0.74613 0.46783 0.0
C1000 C 0.39739 0.68726 0.47356 0.0
C1001 C 0.41888 0.65701 0.4745 0.0
C1002 C 0.43997 0.64829 0.46329 0.0
C1003 C 0.46048 0.62009 0.46427 0.0
C1004 C 0.46004 0.60027 0.47638 0.0
C1005 C 0.43902 0.60857 0.48753 0.0
C1006 C 0.41847 0.63676 0.48661 0.0
C1007 C 0.24976 0.69574 0.47702 0.0
C1008 C 0.2448 0.69087 0.49153 0.0
C1009 C 0.2812 0.70436 0.47184 0.0
C1010 C 0.30799 0.70797 0.4811 0.0
C1011 C 0.30275 0.70474 0.49557 0.0
C1012 C 0.27144 0.69661 0.50076 0.0
C1013 C 0.34223 0.71204 0.47587 0.0
C1014 C 0.36354 0.68432 0.47673 0.0
C1015 C 0.35449 0.74304 0.47094 0.0
C1016 C 0.33289 0.77294 0.46962 0.0
C1017 C 0.31704 0.78659 0.48147 0.0
C1018 C 0.29695 0.81502 0.48013 0.0
C1019 C 0.29274 0.83016 0.467 0.0
C1020 C 0.30868 0.81694 0.4552 0.0
C1021 C 0.32878 0.78849 0.45649 0.0
H1022 H 0.27722 0.8522 0.46599 0.0
H1023 H 0.47597 0.57847 0.47712 0.0
H1024 H 0.27586 0.16794 0.43501 0.0
H1025 H 0.24652 0.16048 0.41286 0.0
H1026 H 0.33831 0.17436 0.39016 0.0
H1027 H 0.36753 0.18343 0.41235 0.0
H1028 H 0.29367 0.20903 0.37818 0.0
H1029 H 0.29743 0.09544 0.39348 0.0
H1030 H 0.29065 0.04765 0.40969 0.0
H1031 H 0.18558 0.06532 0.41133 0.0
H1032 H 0.19178 0.11353 0.39528 0.0
H1033 H 0.22671 0.15659 0.31287 0.0
H1034 H 0.25735 0.15181 0.33494 0.0
H1035 H 0.16806 0.17378 0.35816 0.0
H1036 H 0.13719 0.17931 0.33606 0.0
H1037 H 0.21257 0.11802 0.36909 0.0
H1038 H 0.2125 0.23487 0.3543 0.0
H1039 H 0.22163 0.28019 0.33708 0.0
H1040 H 0.32415 0.25195 0.33346 0.0
H1041 H 0.31546 0.2061 0.35051 0.0
C1042 C 0.28987 0.16907 0.42531 0.0
C1043 C 0.324 0.17626 0.42541 0.0
C1044 C 0.27308 0.16457 0.41263 0.0
C1045 C 0.29022 0.16633 0.39979 0.0
C1046 C 0.3245 0.17286 0.39991 0.0
C1047 C 0.34121 0.17796 0.41259 0.0
C1048 C 0.272 0.16344 0.38627 0.0
C1049 C 0.27642 0.18873 0.37615 0.0
C1050 C 0.249 0.13729 0.38361 0.0
C1051 C 0.24513 0.10829 0.39327 0.0
C1052 C 0.27291 0.0893 0.39738 0.0
C1053 C 0.26916 0.0621 0.40653 0.0
C1054 C 0.23772 0.0535 0.41156 0.0
C1055 C 0.20993 0.07203 0.40744 0.0
C1056 C 0.21355 0.09927 0.3983 0.0
C1057 C 0.21343 0.15992 0.32267 0.0
C1058 C 0.17956 0.16852 0.32274 0.0
C1059 C 0.23099 0.1572 0.33525 0.0
C1060 C 0.21493 0.16258 0.34811 0.0
C1061 C 0.18079 0.16948 0.34829 0.0
C1062 C 0.16327 0.17275 0.33569 0.0
C1063 C 0.23437 0.16355 0.36126 0.0
C1064 C 0.23009 0.13802 0.37122 0.0
C1065 C 0.25793 0.1891 0.3637 0.0
C1066 C 0.26324 0.21684 0.35355 0.0
C1067 C 0.23691 0.23813 0.34974 0.0
C1068 C 0.24202 0.26395 0.34003 0.0
C1069 C 0.27343 0.26889 0.33415 0.0
C1070 C 0.29982 0.24807 0.338 0.0
C1071 C 0.29482 0.22217 0.34769 0.0
H1072 H 0.27734 0.28889 0.32663 0.0
H1073 H 0.23487 0.03244 0.41865 0.0
H1074 H 0.19912 0.73702 0.56202 0.0
H1075 H 0.20726 0.75924 0.58572 0.0
H1076 H 0.21696 0.65857 0.60183 0.0
H1077 H 0.2091 0.63614 0.57818 0.0
H1078 H 0.17049 0.69742 0.6162 0.0
H1079 H 0.28343 0.70574 0.60082 0.0
H1080 H 0.32887 0.72216 0.58488 0.0
H1081 H 0.30362 0.82597 0.59034 0.0
H1082 H 0.25769 0.81015 0.60617 0.0
H1083 H 0.20038 0.75163 0.68562 0.0
H1084 H 0.2082 0.72352 0.66302 0.0
H1085 H 0.21437 0.81972 0.64234 0.0
H1086 H 0.20787 0.84786 0.66491 0.0
H1087 H 0.25671 0.77897 0.63077 0.0
H1088 H 0.14114 0.77227 0.64344 0.0
H1089 H 0.09345 0.758 0.65856 0.0
H1090 H 0.12083 0.65395 0.6572 0.0
H1091 H 0.16895 0.66768 0.6422 0.0
C1092 C 0.2034 0.71964 0.57058 0.0
C1093 C 0.20338 0.68484 0.56824 0.0
C1094 C 0.20817 0.73237 0.5841 0.0
C1095 C 0.21282 0.71051 0.5955 0.0
C1096 C 0.21346 0.67581 0.59315 0.0
C1097 C 0.20903 0.66308 0.57963 0.0
C1098 C 0.21472 0.72381 0.60998 0.0
C1099 C 0.18969 0.71477 0.61949 0.0
C1100 C 0.23927 0.74711 0.61408 0.0
C1101 C 0.26693 0.75672 0.60459 0.0
C1102 C 0.28738 0.73205 0.59853 0.0
C1103 C 0.31326 0.74126 0.58953 0.0
C1104 C 0.31908 0.77508 0.58657 0.0
C1105 C 0.29906 0.79977 0.59264 0.0
C1106 C 0.27313 0.7907 0.60163 0.0
C1107 C 0.20374 0.76675 0.67626 0.0
C1108 C 0.20324 0.80193 0.67701 0.0
C1109 C 0.20808 0.75067 0.66335 0.0
C1110 C 0.21122 0.7695 0.65093 0.0
C1111 C 0.21194 0.80463 0.65176 0.0
C1112 C 0.20811 0.8207 0.66467 0.0
C1113 C 0.21222 0.75286 0.63699 0.0
C1114 C 0.23771 0.76133 0.62755 0.0
C1115 C 0.18778 0.72936 0.63285 0.0
C1116 C 0.15884 0.72105 0.64184 0.0
C1117 C 0.13712 0.74638 0.64645 0.0
C1118 C 0.10999 0.73839 0.65499 0.0
C1119 C 0.10417 0.7051 0.65888 0.0
C1120 C 0.12541 0.67973 0.6542 0.0
C1121 C 0.1526 0.68759 0.64568 0.0
H1122 H 0.08315 0.69896 0.66548 0.0
H1123 H 0.33913 0.78215 0.5796 0.0
H1124 H 0.63946 0.78269 0.41021 0.0
H1125 H 0.67334 0.78993 0.38914 0.0
H1126 H 0.73578 0.86013 0.4112 0.0
H1127 H 0.70241 0.85244 0.43243 0.0
H1128 H 0.68984 0.83941 0.37222 0.0
H1129 H 0.81607 0.84809 0.40092 0.0
H1130 H 0.84163 0.82991 0.42322 0.0
H1131 H 0.77283 0.74797 0.42598 0.0
H1132 H 0.74719 0.76539 0.40362 0.0
H1133 H 0.80862 0.86683 0.31886 0.0
H1134 H 0.77832 0.87388 0.34096 0.0
H1135 H 0.81183 0.77631 0.35464 0.0
H1136 H 0.84336 0.76992 0.33293 0.0
H1137 H 0.81016 0.81446 0.37604 0.0
H1138 H 0.73319 0.79085 0.33864 0.0
H1139 H 0.70587 0.80029 0.3158 0.0
H1140 H 0.67299 0.89733 0.32955 0.0
H1141 H 0.70046 0.88859 0.35243 0.0
C1142 C 0.66016 0.79998 0.41054 0.0
C1143 C 0.66844 0.81675 0.42303 0.0
C1144 C 0.67947 0.80416 0.39847 0.0
C1145 C 0.7074 0.82518 0.39865 0.0
C1146 C 0.71469 0.84332 0.41089 0.0
C1147 C 0.6955 0.83901 0.423 0.0
C1148 C 0.72976 0.82659 0.38625 0.0
C1149 C 0.71619 0.8342 0.37307 0.0
C1150 C 0.76405 0.81917 0.3873 0.0
C1151 C 0.77947 0.80833 0.4007 0.0
C1152 C 0.80647 0.82616 0.40628 0.0
C1153 C 0.82096 0.81598 0.41892 0.0
C1154 C 0.80877 0.78789 0.42604 0.0
C1155 C 0.78215 0.76982 0.42049 0.0
C1156 C 0.76761 0.77985 0.40784 0.0
C1157 C 0.80993 0.84716 0.3267 0.0
C1158 C 0.82816 0.81772 0.32414 0.0
C1159 C 0.79243 0.8511 0.33928 0.0
C1160 C 0.7921 0.82529 0.34936 0.0
C1161 C 0.81158 0.79658 0.34705 0.0
C1162 C 0.82959 0.79292 0.33461 0.0
C1163 C 0.77026 0.82715 0.36194 0.0
C1164 C 0.78392 0.82019 0.37519 0.0
C1165 C 0.73581 0.834 0.36088 0.0
C1166 C 0.71917 0.83922 0.34717 0.0
C1167 C 0.7203 0.81428 0.33676 0.0
C1168 C 0.70477 0.81949 0.32381 0.0
C1169 C 0.68779 0.84943 0.32121 0.0
C1170 C 0.6862 0.87418 0.33157 0.0
C1171 C 0.70173 0.86911 0.34453 0.0
H1172 H 0.67578 0.85342 0.31118 0.0
H1173 H 0.82001 0.78007 0.43583 0.0
H1174 H 0.79218 0.14256 0.66745 0.0
H1175 H 0.78382 0.16476 0.64377 0.0
H1176 H 0.79226 0.26565 0.65962 0.0
H1177 H 0.80074 0.24366 0.68339 0.0
H1178 H 0.74095 0.25724 0.63943 0.0
H1179 H 0.85762 0.23214 0.64539 0.0
H1180 H 0.90511 0.19564 0.65121 0.0
H1181 H 0.87645 0.12698 0.61871 0.0
H1182 H 0.82849 0.16287 0.61283 0.0
H1183 H 0.78412 0.34889 0.57834 0.0
H1184 H 0.77849 0.32285 0.60142 0.0
H1185 H 0.7883 0.22491 0.58259 0.0
H1186 H 0.79511 0.25097 0.5595 0.0
H1187 H 0.82699 0.22873 0.60407 0.0
H1188 H 0.71293 0.25469 0.59659 0.0
H1189 H 0.66452 0.2898 0.59066 0.0
H1190 H 0.68595 0.35462 0.62545 0.0
H1191 H 0.73478 0.32016 0.63148 0.0
C1192 C 0.7919 0.16949 0.66594 0.0
C1193 C 0.79738 0.19137 0.67727 0.0
C1194 C 0.78716 0.1821 0.6524 0.0
C1195 C 0.78772 0.2168 0.64996 0.0
C1196 C 0.79175 0.23878 0.66132 0.0
C1197 C 0.79673 0.22617 0.67487 0.0
C1198 C 0.78614 0.23007 0.63545 0.0
C1199 C 0.75984 0.25131 0.63169 0.0
C1200 C 0.81034 0.22147 0.62531 0.0
C1201 C 0.83928 0.19999 0.62878 0.0
C1202 C 0.86129 0.20912 0.63956 0.0
C1203 C 0.88832 0.18857 0.64286 0.0
C1204 C 0.89374 0.15895 0.63536 0.0
C1205 C 0.87219 0.14989 0.62453 0.0
C1206 C 0.8451 0.17033 0.6212 0.0
C1207 C 0.78466 0.32178 0.57909 0.0
C1208 C 0.79015 0.30197 0.56711 0.0
C1209 C 0.78124 0.30689 0.59229 0.0
C1210 C 0.7826 0.27185 0.59376 0.0
C1211 C 0.78717 0.25199 0.58173 0.0
C1212 C 0.79099 0.2669 0.56854 0.0
C1213 C 0.78174 0.25617 0.60792 0.0
C1214 C 0.80775 0.23449 0.61168 0.0
C1215 C 0.75707 0.26417 0.61799 0.0
C1216 C 0.72769 0.28497 0.61441 0.0
C1217 C 0.70747 0.27657 0.60291 0.0
C1218 C 0.67993 0.29634 0.59954 0.0
C1219 C 0.6722 0.32446 0.60765 0.0
C1220 C 0.69198 0.33284 0.61917 0.0
C1221 C 0.71957 0.31318 0.62258 0.0
H1222 H 0.65087 0.33973 0.60503 0.0
H1223 H 0.91468 0.14308 0.63793 0.0
H1224 H 0.20526 0.34673 0.93478 0.0
H1225 H 0.23694 0.35319 0.91303 0.0
H1226 H 0.17863 0.27504 0.89378 0.0
H1227 H 0.14618 0.26928 0.91533 0.0
H1228 H 0.27636 0.31266 0.90031 0.0
H1229 H 0.17354 0.28537 0.85893 0.0
H1230 H 0.11355 0.29511 0.85575 0.0
H1231 H 0.11786 0.37908 0.88387 0.0
H1232 H 0.17794 0.37013 0.88707 0.0
H1233 H 0.3488 0.26292 0.83604 0.0
H1234 H 0.31717 0.2685 0.85782 0.0
H1235 H 0.27016 0.35785 0.84162 0.0
H1236 H 0.30064 0.35144 0.81958 0.0
H1237 H 0.22568 0.32216 0.85303 0.0
H1238 H 0.33197 0.35939 0.86816 0.0
H1239 H 0.39262 0.35723 0.87148 0.0
H1240 H 0.38257 0.26755 0.89614 0.0
H1241 H 0.32187 0.26892 0.89282 0.0
C1242 C 0.19893 0.33121 0.92585 0.0
C1243 C 0.17316 0.30756 0.92675 0.0
C1244 C 0.21715 0.33484 0.91344 0.0
C1245 C 0.21007 0.3148 0.9017 0.0
C1246 C 0.18417 0.29129 0.90257 0.0
C1247 C 0.1657 0.28792 0.91492 0.0
C1248 C 0.23062 0.31745 0.88877 0.0
C1249 C 0.26527 0.31489 0.88998 0.0
C1250 C 0.21631 0.32113 0.87528 0.0
C1251 C 0.1802 0.32686 0.87334 0.0
C1252 C 0.16171 0.30599 0.86439 0.0
C1253 C 0.12768 0.31136 0.8626 0.0
C1254 C 0.11188 0.33763 0.86964 0.0
C1255 C 0.1301 0.35866 0.87847 0.0
C1256 C 0.16413 0.35342 0.88029 0.0
C1257 C 0.33195 0.28392 0.83719 0.0
C1258 C 0.3272 0.30675 0.82612 0.0
C1259 C 0.31396 0.2872 0.84967 0.0
C1260 C 0.2915 0.31386 0.85148 0.0
C1261 C 0.28724 0.33703 0.8405 0.0
C1262 C 0.30477 0.33342 0.82792 0.0
C1263 C 0.27142 0.31676 0.86455 0.0
C1264 C 0.23683 0.32022 0.86337 0.0
C1265 C 0.28589 0.31501 0.87808 0.0
C1266 C 0.32239 0.31413 0.88014 0.0
C1267 C 0.34271 0.33908 0.87421 0.0
C1268 C 0.3771 0.33802 0.87611 0.0
C1269 C 0.39145 0.31223 0.88399 0.0
C1270 C 0.37142 0.2875 0.89002 0.0
C1271 C 0.33702 0.28843 0.88816 0.0
H1272 H 0.41807 0.31144 0.88544 0.0
H1273 H 0.08554 0.34174 0.86824 0.0
H1274 H 0.29503 0.63305 0.16317 0.0
H1275 H 0.29059 0.65675 0.13954 0.0
H1276 H 0.29495 0.75661 0.15676 0.0
H1277 H 0.29971 0.73311 0.18048 0.0
H1278 H 0.24577 0.74749 0.13521 0.0
H1279 H 0.36227 0.72712 0.14375 0.0
H1280 H 0.41052 0.69251 0.1504 0.0
H1281 H 0.38953 0.6245 0.11664 0.0
H1282 H 0.34083 0.65848 0.10991 0.0
H1283 H 0.2906 0.84253 0.07525 0.0
H1284 H 0.28511 0.81601 0.09824 0.0
H1285 H 0.30027 0.71884 0.07936 0.0
H1286 H 0.30676 0.74539 0.05635 0.0
H1287 H 0.33717 0.72426 0.10161 0.0
H1288 H 0.22294 0.74475 0.09191 0.0
H1289 H 0.17361 0.77757 0.08511 0.0
H1290 H 0.18802 0.8427 0.12045 0.0
H1291 H 0.23773 0.81055 0.12736 0.0
C1292 C 0.29478 0.66007 0.16195 0.0
C1293 C 0.29791 0.68124 0.17367 0.0
C1294 C 0.29228 0.67353 0.14845 0.0
C1295 C 0.29266 0.70838 0.14644 0.0
C1296 C 0.29461 0.72963 0.15813 0.0
C1297 C 0.29746 0.71618 0.17165 0.0
C1298 C 0.29257 0.72257 0.13207 0.0
C1299 C 0.26586 0.74277 0.12787 0.0
C1300 C 0.31836 0.71549 0.12243 0.0
C1301 C 0.34771 0.69513 0.12643 0.0
C1302 C 0.36777 0.70462 0.13782 0.0
C1303 C 0.39524 0.68515 0.14159 0.0
C1304 C 0.40303 0.65627 0.13397 0.0
C1305 C 0.38343 0.64685 0.12254 0.0
C1306 C 0.35591 0.66621 0.11874 0.0
C1307 C 0.29246 0.81548 0.07596 0.0
C1308 C 0.29916 0.79604 0.06398 0.0
C1309 C 0.28912 0.80031 0.08912 0.0
C1310 C 0.29188 0.76536 0.09053 0.0
C1311 C 0.29802 0.74584 0.07853 0.0
C1312 C 0.30165 0.76104 0.06538 0.0
C1313 C 0.29032 0.74943 0.10463 0.0
C1314 C 0.31683 0.72889 0.10884 0.0
C1315 C 0.26415 0.75596 0.1142 0.0
C1316 C 0.23426 0.7754 0.11008 0.0
C1317 C 0.21576 0.76623 0.09817 0.0
C1318 C 0.18769 0.78469 0.09431 0.0
C1319 C 0.17774 0.81225 0.10232 0.0
C1320 C 0.19579 0.82137 0.11424 0.0
C1321 C 0.22389 0.80301 0.11815 0.0
H1322 H 0.156 0.8265 0.09931 0.0
H1323 H 0.42431 0.64123 0.1369 0.0
H1324 H 0.78165 0.65816 0.93026 0.0
H1325 H 0.75132 0.65584 0.90809 0.0
H1326 H 0.82863 0.71325 0.88793 0.0
H1327 H 0.85893 0.71608 0.91015 0.0
H1328 H 0.76934 0.73823 0.88173 0.0
H1329 H 0.81957 0.62967 0.88128 0.0
H1330 H 0.83459 0.57397 0.89061 0.0
H1331 H 0.7315 0.54753 0.89332 0.0
H1332 H 0.71583 0.60327 0.88418 0.0
H1333 H 0.70516 0.66215 0.81224 0.0
H1334 H 0.73893 0.65732 0.83348 0.0
H1335 H 0.66864 0.71873 0.856 0.0
H1336 H 0.63483 0.72392 0.83478 0.0
H1337 H 0.72814 0.63336 0.85984 0.0
H1338 H 0.71213 0.77132 0.87737 0.0
H1339 H 0.70108 0.82679 0.86683 0.0
H1340 H 0.74359 0.79387 0.82783 0.0
H1341 H 0.75531 0.7384 0.8382 0.0
C1342 C 0.79237 0.67004 0.92108 0.0
C1343 C 0.82269 0.68735 0.92197 0.0
C1344 C 0.77505 0.66857 0.9084 0.0
C1345 C 0.7878 0.68419 0.89632 0.0
C1346 C 0.81832 0.70104 0.89712 0.0
C1347 C 0.83566 0.70254 0.90981 0.0
C1348 C 0.76854 0.68428 0.88304 0.0
C1349 C 0.76038 0.71527 0.87695 0.0
C1350 C 0.75719 0.65433 0.87668 0.0
C1351 C 0.76652 0.62077 0.88216 0.0
C1352 C 0.80009 0.61208 0.88397 0.0
C1353 C 0.80873 0.58048 0.88921 0.0
C1354 C 0.78402 0.55726 0.89259 0.0
C1355 C 0.75062 0.56556 0.89071 0.0
C1356 C 0.74184 0.59714 0.88549 0.0
C1357 C 0.69672 0.67439 0.82175 0.0
C1358 C 0.66744 0.69363 0.82181 0.0
C1359 C 0.71601 0.67152 0.83388 0.0
C1360 C 0.70651 0.688 0.84625 0.0
C1361 C 0.67665 0.70618 0.84649 0.0
C1362 C 0.6573 0.70902 0.83437 0.0
C1363 C 0.72849 0.68731 0.85873 0.0
C1364 C 0.73711 0.65626 0.86466 0.0
C1365 C 0.7408 0.71717 0.86481 0.0
C1366 C 0.73427 0.75061 0.85853 0.0
C1367 C 0.71922 0.77597 0.86656 0.0
C1368 C 0.71283 0.8074 0.86062 0.0
C1369 C 0.72152 0.81381 0.84666 0.0
C1370 C 0.73675 0.78884 0.83863 0.0
C1371 C 0.74323 0.75738 0.84453 0.0
H1372 H 0.71652 0.83815 0.84207 0.0
H1373 H 0.79076 0.53281 0.89663 0.0
H1374 H 0.71137 0.13929 0.08011 0.0
H1375 H 0.71872 0.16485 0.10324 0.0
H1376 H 0.69788 0.26232 0.08562 0.0
H1377 H 0.69047 0.23698 0.06244 0.0
H1378 H 0.75125 0.26242 0.10467 0.0
H1379 H 0.63802 0.22251 0.10209 0.0
H1380 H 0.59477 0.17977 0.09827 0.0
H1381 H 0.63552 0.11972 0.13152 0.0
H1382 H 0.67932 0.16192 0.13541 0.0
H1383 H 0.70638 0.35597 0.16495 0.0
H1384 H 0.71123 0.32801 0.14225 0.0
H1385 H 0.71502 0.2319 0.16312 0.0
H1386 H 0.7089 0.25972 0.18584 0.0
H1387 H 0.67376 0.22848 0.14263 0.0
H1388 H 0.78471 0.26875 0.14667 0.0
H1389 H 0.82917 0.31011 0.15062 0.0
H1390 H 0.79551 0.36744 0.11518 0.0
H1391 H 0.75054 0.32666 0.11112 0.0
C1392 C 0.7086 0.1662 0.08113 0.0
C1393 C 0.70011 0.18611 0.06947 0.0
C1394 C 0.71276 0.18074 0.09435 0.0
C1395 C 0.70856 0.21541 0.09614 0.0
C1396 C 0.70122 0.2355 0.08444 0.0
C1397 C 0.69685 0.22097 0.07123 0.0
C1398 C 0.71027 0.23055 0.11032 0.0
C1399 C 0.73418 0.25528 0.11297 0.0
C1400 C 0.68857 0.22046 0.12121 0.0
C1401 C 0.66214 0.19519 0.11893 0.0
C1402 C 0.63791 0.20006 0.10851 0.0
C1403 C 0.61327 0.17596 0.10634 0.0
C1404 C 0.61245 0.147 0.11462 0.0
C1405 C 0.63622 0.14213 0.12511 0.0
C1406 C 0.66094 0.16614 0.1273 0.0
C1407 C 0.70862 0.3289 0.16471 0.0
C1408 C 0.7072 0.31003 0.17717 0.0
C1409 C 0.71159 0.31293 0.15172 0.0
C1410 C 0.7139 0.27781 0.15095 0.0
C1411 C 0.71327 0.259 0.16343 0.0
C1412 C 0.70984 0.27493 0.17641 0.0
C1413 C 0.71477 0.26064 0.1371 0.0
C1414 C 0.69119 0.23552 0.13445 0.0
C1415 C 0.73702 0.27018 0.12628 0.0
C1416 C 0.76407 0.29477 0.12867 0.0
C1417 C 0.78663 0.2903 0.13978 0.0
C1418 C 0.81195 0.31363 0.14203 0.0
C1419 C 0.81512 0.34142 0.13318 0.0
C1420 C 0.79301 0.34591 0.12204 0.0
C1421 C 0.76762 0.32268 0.11975 0.0
H1422 H 0.83474 0.35945 0.13493 0.0
H1423 H 0.59336 0.12837 0.11293 0.0
H1424 H 0.9146 0.89608 0.28043 0.0
H1425 H 0.95182 0.94375 0.27829 0.0
H1426 H 0.9423 0.94069 0.23318 0.0
H1427 H 0.90552 0.89214 0.23519 0.0
H1428 H 0.00541 0.9433 0.24031 0.0
H1429 H 0.90907 0.00573 0.25261 0.0
H1430 H 0.85887 0.02057 0.26607 0.0
H1431 H 0.91789 0.03577 0.30303 0.0
H1432 H 0.96842 0.02057 0.28985 0.0
H1433 H 0.09276 0.10163 0.23443 0.0
H1434 H 0.0552 0.05366 0.23278 0.0
H1435 H 0.06252 0.03856 0.27753 0.0
H1436 H 0.09995 0.08634 0.27932 0.0
H1437 H -0.00179 0.04778 0.26834 0.0
H1438 H 0.09422 0.98188 0.25568 0.0
H1439 H 0.14383 0.96787 0.24168 0.0
H1440 H 0.08404 0.9611 0.20449 0.0
H1441 H 0.03411 0.97552 0.21825 0.0
C1442 C 0.91983 0.90586 0.27004 0.0
C1443 C 0.90719 0.89014 0.25798 0.0
C1444 C 0.9411 0.93326 0.26884 0.0
C1445 C 0.94975 0.9459 0.25557 0.0
C1446 C 0.936 0.93126 0.24352 0.0
C1447 C 0.91483 0.90364 0.2447 0.0
C1448 C 0.97508 0.97266 0.25436 0.0
C1449 C 0.00353 0.96647 0.24622 0.0
C1450 C 0.97289 0.00261 0.26226 0.0
C1451 C 0.94253 0.01177 0.27025 0.0
C1452 C 0.91132 0.01199 0.26364 0.0
C1453 C 0.88281 0.02051 0.27121 0.0
C1454 C 0.88518 0.02905 0.2854 0.0
C1455 C 0.91609 0.02914 0.29204 0.0
C1456 C 0.94468 0.02062 0.28451 0.0
C1457 C 0.08715 0.08754 0.24387 0.0
C1458 C 0.09897 0.09813 0.25704 0.0
C1459 C 0.06564 0.06015 0.2429 0.0
C1460 C 0.05585 0.0429 0.25506 0.0
C1461 C 0.06959 0.05182 0.26805 0.0
C1462 C 0.09109 0.07907 0.26903 0.0
C1463 C 0.02873 0.01799 0.25457 0.0
C1464 C -0.00011 0.0247 0.26235 0.0
C1465 C 0.03047 0.98875 0.24624 0.0
C1466 C 0.06049 0.98016 0.23797 0.0
C1467 C 0.0917 0.97773 0.24449 0.0
C1468 C 0.11987 0.96963 0.23661 0.0
C1469 C 0.11711 0.9637 0.22219 0.0
C1470 C 0.08615 0.96576 0.21565 0.0
C1471 C 0.05791 0.97386 0.22349 0.0
H1472 H 0.13895 0.95742 0.21611 0.0
H1473 H 0.86307 0.03565 0.29125 0.0
H1474 H 0.94349 0.11948 0.70463 0.0
H1475 H 0.97928 0.07141 0.70928 0.0
H1476 H 0.94541 0.06876 0.75223 0.0
H1477 H 0.91019 0.11775 0.74775 0.0
H1478 H 0.01349 0.04604 0.74811 0.0
H1479 H 0.90351 0.0239 0.73123 0.0
H1480 H 0.85539 0.0322 0.71562 0.0
H1481 H 0.91438 0.00437 0.67996 0.0
H1482 H 0.96309 -0.00356 0.69527 0.0
H1483 H 0.07872 0.87842 0.74335 0.0
H1484 H 0.0378 0.92189 0.74924 0.0
H1485 H 0.03434 0.95177 0.70566 0.0
H1486 H 0.0737 0.90804 0.69971 0.0
H1487 H 0.97562 0.95555 0.71619 0.0
H1488 H 0.08771 0.98791 0.73295 0.0
H1489 H 0.13606 0.98104 0.74866 0.0
H1490 H 0.07271 0.98928 0.78471 0.0
H1491 H 0.02392 0.99568 0.76929 0.0
C1492 C 0.94465 0.10954 0.71522 0.0
C1493 C 0.92349 0.12186 0.72573 0.0
C1494 C 0.96497 0.08197 0.71784 0.0
C1495 C 0.96411 0.06599 0.73097 0.0
C1496 C 0.94607 0.08059 0.74199 0.0
C1497 C 0.92595 0.1086 0.7394 0.0
C1498 C 0.97807 0.0318 0.73231 0.0
C1499 C 0.00497 0.02601 0.74131 0.0
C1500 C 0.9665 0.00557 0.72361 0.0
C1501 C 0.93701 0.00971 0.71441 0.0
C1502 C 0.90629 0.01972 0.72005 0.0
C1503 C 0.8789 0.02435 0.71126 0.0
C1504 C 0.88181 0.01885 0.69683 0.0
C1505 C 0.91214 0.00862 0.69115 0.0
C1506 C 0.93965 0.00401 0.69988 0.0
C1507 C 0.06851 0.89375 0.735 0.0
C1508 C 0.07972 0.89011 0.72108 0.0
C1509 C 0.04542 0.9188 0.73841 0.0
C1510 C 0.03359 0.94067 0.72795 0.0
C1511 C 0.04318 0.9354 0.71395 0.0
C1512 C 0.0658 0.91035 0.71055 0.0
C1513 C 0.01267 0.97032 0.73124 0.0
C1514 C 0.98392 0.97524 0.72321 0.0
C1515 C 0.02265 0.99559 0.74083 0.0
C1516 C 0.05214 0.99186 0.74998 0.0
C1517 C 0.08408 0.98804 0.74423 0.0
C1518 C 0.11155 0.98426 0.75306 0.0
C1519 C 0.10745 0.98465 0.76763 0.0
C1520 C 0.07586 0.9889 0.77342 0.0
C1521 C 0.04829 0.99258 0.76465 0.0
H1522 H 0.12878 0.98175 0.77443 0.0
H1523 H 0.86055 0.02248 0.69006 0.0
H1524 H 0.07975 0.38692 0.01186 0.0
H1525 H 0.04103 0.43404 0.01138 0.0
H1526 H 0.06172 0.44935 0.9674 0.0
H1527 H 0.10033 0.402 0.96771 0.0
H1528 H 0.05233 0.50958 0.98273 0.0
H1529 H -0.00016 0.40355 0.97465 0.0
H1530 H 0.98515 0.34466 0.97959 0.0
H1531 H 0.93874 0.37431 0.01824 0.0
H1532 H 0.95374 0.43333 0.01367 0.0
H1533 H 0.90939 0.59427 0.96153 0.0
H1534 H 0.94665 0.54621 0.96304 0.0
H1535 H 0.92804 0.53874 0.00752 0.0
H1536 H 0.89084 0.58719 0.00621 0.0
H1537 H 0.93614 0.47467 0.99232 0.0
H1538 H 0.98931 0.58204 -0.0004 0.0
H1539 H 0.00251 0.64057 0.99334 0.0
H1540 H 0.0467 0.60751 0.95471 0.0
H1541 H 0.03317 0.54879 0.96062 0.0
C1542 C 0.07691 0.40091 0.00218 0.0
C1543 C 0.09278 0.39045 0.98976 0.0
C1544 C 0.05458 0.42767 0.00191 0.0
C1545 C 0.0481 0.44458 0.98929 0.0
C1546 C 0.06627 0.43636 0.97721 0.0
C1547 C 0.08834 0.40934 0.97742 0.0
C1548 C 0.02023 0.46855 0.98835 0.0
C1549 C 0.02692 0.50193 0.98473 0.0
C1550 C 0.98713 0.45841 0.99105 0.0
C1551 C 0.97832 0.42285 0.9939 0.0
C1552 C 0.98687 0.39748 0.98429 0.0
C1553 C 0.97842 0.36408 0.987 0.0
C1554 C 0.96111 0.35574 -0.00076 0.0
C1555 C 0.95222 0.3808 0.00878 0.0
C1556 C 0.9607 0.41423 0.00613 0.0
C1557 C 0.91237 0.5819 0.97159 0.0
C1558 C 0.89762 0.59499 0.98381 0.0
C1559 C 0.93378 0.55449 0.97241 0.0
C1560 C 0.9405 0.53953 0.98543 0.0
C1561 C 0.92323 0.55022 0.9974 0.0
C1562 C 0.902 0.5779 0.99662 0.0
C1563 C 0.96831 0.51565 0.98677 0.0
C1564 C 0.96159 0.48231 0.99043 0.0
C1565 C 0.00136 0.52573 0.98398 0.0
C1566 C 0.00989 0.56102 0.98049 0.0
C1567 C 0.00156 0.58726 0.98971 0.0
C1568 C 0.00914 0.62048 0.98624 0.0
C1569 C 0.02536 0.62776 0.97362 0.0
C1570 C 0.03409 0.60183 0.96447 0.0
C1571 C 0.02648 0.56857 0.96788 0.0
H1572 H 0.03124 0.65347 0.97095 0.0
H1573 H 0.95449 0.3299 0.00131 0.0
H1574 H 0.43383 0.88509 0.03734 0.0
H1575 H 0.47296 0.93 0.0321 0.0
H1576 H 0.44629 0.92557 0.98832 0.0
H1577 H 0.40695 0.88006 0.99349 0.0
H1578 H 0.52243 0.94227 -0.00152 0.0
H1579 H 0.40782 0.98198 -0.00161 0.0
H1580 H 0.3509 0.97807 0.00751 0.0
H1581 H 0.38573 -0.00027 0.04912 0.0
H1582 H 0.44317 0.00386 0.04015 0.0
H1583 H 0.59059 0.10867 -0.0017 0.0
H1584 H 0.55075 0.06489 0.99164 0.0
H1585 H 0.52632 0.04975 0.03532 0.0
H1586 H 0.56587 0.09305 0.04197 0.0
H1587 H 0.4718 0.04497 0.01883 0.0
H1588 H 0.58652 0.00525 0.01881 0.0
H1589 H 0.64429 0.00331 0.01036 0.0
H1590 H 0.61041 0.97759 0.96902 0.0
H1591 H 0.55231 0.98021 0.97716 0.0
C1592 C 0.4371 0.89281 0.02651 0.0
C1593 C 0.41709 0.87938 0.01585 0.0
C1594 C 0.45951 0.91842 0.02353 0.0
C1595 C 0.46221 0.93119 0.00986 0.0
C1596 C 0.44459 0.91584 -0.00108 0.0
C1597 C 0.42215 0.88988 0.00189 0.0
C1598 C 0.47883 0.96388 0.00785 0.0
C1599 C 0.51118 0.96504 0.00251 0.0
C1600 C 0.46415 0.99331 0.01329 0.0
C1601 C 0.42965 0.99313 0.01862 0.0
C1602 C 0.40329 0.98597 0.00948 0.0
C1603 C 0.37094 0.98363 0.01463 0.0
C1604 C 0.3646 0.98836 0.02892 0.0
C1605 C 0.39067 0.99591 0.03806 0.0
C1606 C 0.42312 -0.00153 0.03294 0.0
C1607 C 0.57604 0.09661 0.00642 0.0
C1608 C 0.58151 0.104 0.02067 0.0
C1609 C 0.55348 0.07147 0.00261 0.0
C1610 C 0.53601 0.05371 0.01301 0.0
C1611 C 0.53962 0.06302 0.02712 0.0
C1612 C 0.56224 0.08779 0.03092 0.0
C1613 C 0.51595 0.02363 0.00963 0.0
C1614 C 0.48285 0.02276 0.01419 0.0
C1615 C 0.53009 0.99461 0.00339 0.0
C1616 C 0.56504 0.99355 -0.00147 0.0
C1617 C 0.59135 -0.00026 0.00787 0.0
C1618 C 0.62417 -0.00143 0.00312 0.0
C1619 C 0.63101 0.99061 0.98912 0.0
C1620 C 0.60505 0.98394 0.97983 0.0
C1621 C 0.57218 0.98536 0.9845 0.0
H1622 H 0.65638 0.98915 0.98548 0.0
H1623 H 0.33949 0.98649 0.03289 0.0
H1624 H 0.41398 0.3973 0.78635 0.0
H1625 H 0.44856 0.44733 0.78488 0.0
H1626 H 0.43123 0.45287 0.74026 0.0
H1627 H 0.39664 0.40256 0.74157 0.0
H1628 H 0.5062 0.44668 0.76922 0.0
H1629 H 0.44021 0.53882 0.731 0.0
H1630 H 0.38385 0.55872 0.72525 0.0
H1631 H 0.35007 0.53063 0.7664 0.0
H1632 H 0.4063 0.51105 0.77247 0.0
H1633 H 0.57563 0.61416 0.73652 0.0
H1634 H 0.54078 0.56405 0.73607 0.0
H1635 H 0.55542 0.55089 0.7806 0.0
H1636 H 0.59035 0.60079 0.78117 0.0
H1637 H 0.48226 0.56027 0.75052 0.0
H1638 H 0.54735 0.46786 0.78878 0.0
H1639 H 0.60401 0.45025 0.79524 0.0
H1640 H 0.63963 0.48012 0.75459 0.0
H1641 H 0.58313 0.49746 0.74781 0.0
C1642 C 0.41679 0.40954 0.77626 0.0
C1643 C 0.40288 0.39562 0.76404 0.0
C1644 C 0.43668 0.43809 0.77545 0.0
C1645 C 0.44266 0.45356 0.76246 0.0
C1646 C 0.42681 0.44132 0.7504 0.0
C1647 C 0.40707 0.41254 0.75117 0.0
C1648 C 0.46834 0.47992 0.76132 0.0
C1649 C 0.5009 0.47168 0.76529 0.0
C1650 C 0.46154 0.51209 0.75577 0.0
C1651 C 0.42739 0.52296 0.75211 0.0
C1652 C 0.42073 0.53681 0.73881 0.0
C1653 C 0.38882 0.54809 0.7355 0.0
C1654 C 0.36335 0.54578 0.74543 0.0
C1655 C 0.36976 0.53221 0.75869 0.0
C1656 C 0.40164 0.52092 0.76205 0.0
C1657 C 0.57226 0.60008 0.74615 0.0
C1658 C 0.58555 0.61165 0.75891 0.0
C1659 C 0.55213 0.57158 0.74588 0.0
C1660 C 0.54538 0.55393 0.75831 0.0
C1661 C 0.56049 0.56404 0.77087 0.0
C1662 C 0.58045 0.59261 0.77117 0.0
C1663 C 0.52007 0.52705 0.75847 0.0
C1664 C 0.4876 0.53517 0.75433 0.0
C1665 C 0.52691 0.49477 0.76389 0.0
C1666 C 0.56101 0.48427 0.76784 0.0
C1667 C 0.56725 0.47057 0.7812 0.0
C1668 C 0.59935 0.46064 0.78492 0.0
C1669 C 0.62542 0.46416 0.77535 0.0
C1670 C 0.61944 0.47754 0.76202 0.0
C1671 C 0.58738 0.48748 0.75824 0.0
H1672 H 0.65025 0.45646 0.77825 0.0
H1673 H 0.33869 0.55462 0.74286 0.0
H1674 H 0.59931 0.3893 0.24795 0.0
H1675 H 0.55713 0.43133 0.25415 0.0
H1676 H 0.52653 0.4363 0.21081 0.0
H1677 H 0.56857 0.39491 0.20457 0.0
H1678 H 0.55649 0.49777 0.24222 0.0
H1679 H 0.44884 0.45035 0.20854 0.0
H1680 H 0.42384 0.39662 0.20131 0.0
H1681 H 0.45469 0.35137 0.24011 0.0
H1682 H 0.47993 0.40483 0.24756 0.0
H1683 H 0.43299 0.59856 0.20444 0.0
H1684 H 0.47265 0.55513 0.21127 0.0
H1685 H 0.43811 0.56069 0.25406 0.0
H1686 H 0.39853 0.60488 0.24733 0.0
H1687 H 0.43691 0.49191 0.23001 0.0
H1688 H 0.5053 0.56327 0.26364 0.0
H1689 H 0.53192 0.61792 0.26838 0.0
H1690 H 0.57831 0.61557 0.22776 0.0
H1691 H 0.55202 0.56084 0.22286 0.0
C1692 C 0.58291 0.39865 0.23985 0.0
C1693 C 0.58717 0.38888 0.22577 0.0
C1694 C 0.55906 0.42285 0.24338 0.0
C1695 C 0.53874 0.43689 0.23294 0.0
C1696 C 0.54171 0.42556 0.21906 0.0
C1697 C 0.56571 0.40186 0.21551 0.0
C1698 C 0.5162 0.46532 0.23604 0.0
C1699 C 0.53013 0.4962 0.23999 0.0
C1700 C 0.48198 0.46356 0.23285 0.0
C1701 C 0.4662 0.43157 0.2286 0.0
C1702 C 0.45013 0.42897 0.21555 0.0
C1703 C 0.43608 0.39853 0.21139 0.0
C1704 C 0.4377 0.37059 0.22024 0.0
C1705 C 0.45348 0.37302 0.23326 0.0
C1706 C 0.46775 0.40334 0.23744 0.0
C1707 C 0.43457 0.59134 0.2154 0.0
C1708 C 0.41261 0.60494 0.22534 0.0
C1709 C 0.45712 0.56648 0.21926 0.0
C1710 C 0.45795 0.55464 0.23311 0.0
C1711 C 0.43773 0.56967 0.24332 0.0
C1712 C 0.41532 0.595 0.23948 0.0
C1713 C 0.47723 0.52404 0.2362 0.0
C1714 C 0.46286 0.49297 0.23301 0.0
C1715 C 0.51094 0.5256 0.24001 0.0
C1716 C 0.52698 0.55809 0.24295 0.0
C1717 C 0.52125 0.57447 0.25576 0.0
C1718 C 0.53625 0.6054 0.25847 0.0
C1719 C 0.55682 0.62019 0.24838 0.0
C1720 C 0.56237 0.60411 0.23556 0.0
C1721 C 0.54754 0.5731 0.23283 0.0
H1722 H 0.56845 0.64411 0.2505 0.0
H1723 H 0.42668 0.34709 0.21702 0.0
H1724 H 0.39741 0.08959 0.46862 0.0
H1725 H 0.42903 0.03781 0.47071 0.0
H1726 H 0.434 0.05067 0.51564 0.0
H1727 H 0.40277 0.10303 0.51363 0.0
H1728 H 0.49409 0.0421 0.50495 0.0
H1729 H 0.39128 0.98485 0.5012 0.0
H1730 H 0.33621 0.97066 0.49166 0.0
H1731 H 0.38077 0.94234 0.45245 0.0
H1732 H 0.43609 0.95683 0.46167 0.0
H1733 H 0.57855 0.88233 0.51082 0.0
H1734 H 0.5408 0.93008 0.51334 0.0
H1735 H 0.53315 0.93779 0.46829 0.0
H1736 H 0.57086 0.89037 0.46562 0.0
H1737 H 0.47182 0.93292 0.48194 0.0
H1738 H 0.57376 0.99588 0.48538 0.0
H1739 H 0.6286 0.01004 0.49517 0.0
H1740 H 0.58449 0.02679 0.53564 0.0
H1741 H 0.52941 0.01227 0.52612 0.0
C1742 C 0.40449 0.08106 0.479 0.0
C1743 C 0.39787 0.10068 0.49094 0.0
C1744 C 0.42249 0.05131 0.48018 0.0
C1745 C 0.43392 0.04037 0.49334 0.0
C1746 C 0.42551 0.05874 0.50539 0.0
C1747 C 0.4075 0.08858 0.50422 0.0
C1748 C 0.45763 0.01202 0.4942 0.0
C1749 C 0.48892 0.01794 0.5002 0.0
C1750 C 0.45114 0.98077 0.48775 0.0
C1751 C 0.41786 0.97217 0.48211 0.0
C1752 C 0.38933 0.97588 0.4905 0.0
C1753 C 0.35806 0.96772 0.48516 0.0
C1754 C 0.35499 0.95566 0.47145 0.0
C1755 C 0.38319 0.9517 0.46306 0.0
C1756 C 0.41452 0.95984 0.46835 0.0
C1757 C 0.5694 0.89461 0.50144 0.0
C1758 C 0.57755 0.88235 0.48802 0.0
C1759 C 0.5478 0.92185 0.50291 0.0
C1760 C 0.53402 0.93716 0.491 0.0
C1761 C 0.54337 0.92607 0.4776 0.0
C1762 C 0.56511 0.89908 0.47612 0.0
C1763 C 0.50828 0.96338 0.49241 0.0
C1764 C 0.47668 0.95696 0.48685 0.0
C1765 C 0.51441 0.99406 0.49933 0.0
C1766 C 0.54754 0.00257 0.50508 0.0
C1767 C 0.5758 0.00223 0.4964 0.0
C1768 C 0.60692 0.01041 0.50189 0.0
C1769 C 0.61005 0.0192 0.51603 0.0
C1770 C 0.58205 0.0199 0.52469 0.0
C1771 C 0.55087 0.01172 0.51925 0.0
H1772 H 0.63416 0.02555 0.52026 0.0
H1773 H 0.33076 0.94934 0.46734 0.0
H1774 H 0.92646 0.39303 0.54286 0.0
H1775 H 0.96371 0.43971 0.53788 0.0
H1776 H 0.94191 0.43142 0.4937 0.0
H1777 H 0.90471 0.38403 0.49861 0.0
H1778 H 0.01144 0.45097 0.50145 0.0
H1779 H 0.89717 0.48342 0.50959 0.0
H1780 H 0.84502 0.47955 0.52301 0.0
H1781 H 0.89421 0.51592 0.55987 0.0
H1782 H 0.94697 0.51937 0.54679 0.0
H1783 H 0.08318 0.61497 0.4991 0.0
H1784 H 0.04148 0.57183 0.49386 0.0
H1785 H 0.02294 0.5596 0.53823 0.0
H1786 H 0.06389 0.60254 0.54343 0.0
H1787 H 0.96737 0.55341 0.52449 0.0
H1788 H 0.0801 0.51139 0.51977 0.0
H1789 H 0.13608 0.50739 0.50949 0.0
H1790 H 0.0939 0.48504 0.46918 0.0
H1791 H 0.03755 0.48945 0.47921 0.0
C1792 C 0.93037 0.4004 0.53203 0.0
C1793 C 0.91228 0.38527 0.52115 0.0
C1794 C 0.95157 0.42714 0.52921 0.0
C1795 C 0.95484 0.43944 0.51547 0.0
C1796 C 0.93944 0.42236 0.50438 0.0
C1797 C 0.91827 0.39527 0.5072 0.0
C1798 C 0.97106 0.47229 0.51322 0.0
C1799 C 0.00153 0.47364 0.50615 0.0
C1800 C 0.95819 0.50164 0.51956 0.0
C1801 C 0.92607 0.50144 0.52722 0.0
C1802 C 0.8969 0.49052 0.52057 0.0
C1803 C 0.86724 0.48832 0.52812 0.0
C1804 C 0.8663 0.49725 0.54228 0.0
C1805 C 0.895 0.50882 0.54891 0.0
C1806 C 0.92479 0.51097 0.54142 0.0
C1807 C 0.06941 0.60377 0.50767 0.0
C1808 C 0.07693 0.61184 0.52168 0.0
C1809 C 0.04586 0.57891 0.50468 0.0
C1810 C 0.02957 0.562 0.51567 0.0
C1811 C 0.03523 0.57214 0.52957 0.0
C1812 C 0.05867 0.59673 0.53254 0.0
C1813 C 0.00857 0.53204 0.51315 0.0
C1814 C 0.97696 0.53116 0.51933 0.0
C1815 C 0.02081 0.50301 0.50626 0.0
C1816 C 0.05463 0.50138 0.50017 0.0
C1817 C 0.08275 0.50616 0.50867 0.0
C1818 C 0.11456 0.50382 0.50288 0.0
C1819 C 0.11855 0.49625 0.48865 0.0
C1820 C 0.09075 0.4911 0.48018 0.0
C1821 C 0.05888 0.49357 0.4859 0.0
H1822 H 0.14314 0.49394 0.4842 0.0
H1823 H 0.84326 0.49547 0.54809 0.0
loop_
_geom_bond_atom_site_label_1
_geom_bond_atom_site_label_2
_geom_bond_distance
_geom_bond_site_symmetry_2
_ccdc_geom_bond_type
C0 O1 1.306 . S
C0 O3 1.160 . S
O1 C0 1.306 . S
O1 Cd2 2.228 . S
Cd2 O1 2.228 . S
Cd2 O6 2.273 . S
Cd2 O10 2.277 . S
O3 C0 1.160 . S
O3 Cd4 2.203 . S
Cd4 O3 2.203 . S
Cd4 O6 2.411 . S
Cd4 O7 2.333 . S
Cd4 O8 2.352 . S
Cd4 O12 2.277 . S
Cd4 O13 2.356 . S
C5 O10 1.209 . S
C5 O12 1.226 . S
O6 Cd2 2.273 . S
O6 Cd4 2.411 . S
O6 C9 1.320 . S
O7 Cd4 2.333 . S
O7 C9 1.214 . S
O8 Cd4 2.352 . S
O8 C11 1.258 . S
C9 O6 1.320 . S
C9 O7 1.214 . S
O10 Cd2 2.277 . S
O10 C5 1.209 . S
C11 O8 1.258 . S
C11 O13 1.282 . S
O12 Cd4 2.277 . S
O12 C5 1.226 . S
O13 Cd4 2.356 . S
O13 C11 1.282 . S
C14 O15 1.306 . S
C14 O17 1.160 . S
O15 C14 1.306 . S
O15 Cd16 2.228 . S
Cd16 O15 2.228 . S
Cd16 O20 2.273 . S
Cd16 O24 2.277 . S
O17 C14 1.160 . S
O17 Cd18 2.203 . S
Cd18 O17 2.203 . S
Cd18 O20 2.411 . S
Cd18 O21 2.333 . S
Cd18 O22 2.352 . S
Cd18 O26 2.277 . S
Cd18 O27 2.356 . S
C19 O24 1.209 . S
C19 O26 1.226 . S
O20 Cd16 2.273 . S
O20 Cd18 2.411 . S
O20 C23 1.320 . S
O21 Cd18 2.333 . S
O21 C23 1.214 . S
O22 Cd18 2.352 . S
O22 C25 1.258 . S
C23 O20 1.320 . S
C23 O21 1.214 . S
O24 Cd16 2.277 . S
O24 C19 1.209 . S
C25 O22 1.258 . S
C25 O27 1.282 . S
O26 Cd18 2.277 . S
O26 C19 1.226 . S
O27 Cd18 2.356 . S
O27 C25 1.282 . S
C28 O29 1.306 . S
C28 O31 1.160 . S
O29 C28 1.306 . S
O29 Cd30 2.228 . S
Cd30 O29 2.228 . S
Cd30 O34 2.273 . S
Cd30 O38 2.277 . S
O31 C28 1.160 . S
O31 Cd32 2.203 . S
Cd32 O31 2.203 . S
Cd32 O34 2.411 . S
Cd32 O35 2.333 . S
Cd32 O36 2.352 . S
Cd32 O40 2.277 . S
Cd32 O41 2.356 . S
C33 O38 1.209 . S
C33 O40 1.226 . S
O34 Cd30 2.273 . S
O34 Cd32 2.411 . S
O34 C37 1.320 . S
O35 Cd32 2.333 . S
O35 C37 1.214 . S
O36 Cd32 2.352 . S
O36 C39 1.258 . S
C37 O34 1.320 . S
C37 O35 1.214 . S
O38 Cd30 2.277 . S
O38 C33 1.209 . S
C39 O36 1.258 . S
C39 O41 1.282 . S
O40 Cd32 2.277 . S
O40 C33 1.226 . S
O41 Cd32 2.356 . S
O41 C39 1.282 . S
C42 O43 1.306 . S
C42 O45 1.160 . S
O43 C42 1.306 . S
O43 Cd44 2.228 . S
Cd44 O43 2.228 . S
Cd44 O48 2.273 . S
Cd44 O52 2.277 . S
O45 C42 1.160 . S
O45 Cd46 2.203 . S
Cd46 O45 2.203 . S
Cd46 O48 2.411 . S
Cd46 O49 2.333 . S
Cd46 O50 2.352 . S
Cd46 O54 2.277 . S
Cd46 O55 2.356 . S
C47 O52 1.209 . S
C47 O54 1.226 . S
O48 Cd44 2.273 . S
O48 Cd46 2.411 . S
O48 C51 1.320 . S
O49 Cd46 2.333 . S
O49 C51 1.214 . S
O50 Cd46 2.352 . S
O50 C53 1.258 . S
C51 O48 1.320 . S
C51 O49 1.214 . S
O52 Cd44 2.277 . S
O52 C47 1.209 . S
C53 O50 1.258 . S
C53 O55 1.282 . S
O54 Cd46 2.277 . S
O54 C47 1.226 . S
O55 Cd46 2.356 . S
O55 C53 1.282 . S
C56 O57 1.306 . S
C56 O59 1.160 . S
O57 C56 1.306 . S
O57 Cd58 2.228 . S
Cd58 O57 2.228 . S
Cd58 O62 2.273 . S
Cd58 O66 2.277 . S
O59 C56 1.160 . S
O59 Cd60 2.203 . S
Cd60 O59 2.203 . S
Cd60 O62 2.411 . S
Cd60 O63 2.333 . S
Cd60 O64 2.352 . S
Cd60 O68 2.277 . S
Cd60 O69 2.356 . S
C61 O66 1.209 . S
C61 O68 1.226 . S
O62 Cd58 2.273 . S
O62 Cd60 2.411 . S
O62 C65 1.320 . S
O63 Cd60 2.333 . S
O63 C65 1.214 . S
O64 Cd60 2.352 . S
O64 C67 1.258 . S
C65 O62 1.320 . S
C65 O63 1.214 . S
O66 Cd58 2.277 . S
O66 C61 1.209 . S
C67 O64 1.258 . S
C67 O69 1.282 . S
O68 Cd60 2.277 . S
O68 C61 1.226 . S
O69 Cd60 2.356 . S
O69 C67 1.282 . S
C70 O71 1.306 . S
C70 O73 1.160 . S
O71 C70 1.306 . S
O71 Cd72 2.228 . S
Cd72 O71 2.228 . S
Cd72 O76 2.273 . S
Cd72 O80 2.277 . S
O73 C70 1.160 . S
O73 Cd74 2.203 . S
Cd74 O73 2.203 . S
Cd74 O76 2.411 . S
Cd74 O77 2.333 . S
Cd74 O78 2.352 . S
Cd74 O82 2.277 . S
Cd74 O83 2.356 . S
C75 O80 1.209 . S
C75 O82 1.226 . S
O76 Cd72 2.273 . S
O76 Cd74 2.411 . S
O76 C79 1.320 . S
O77 Cd74 2.333 . S
O77 C79 1.214 . S
O78 Cd74 2.352 . S
O78 C81 1.258 . S
C79 O76 1.320 . S
C79 O77 1.214 . S
O80 Cd72 2.277 . S
O80 C75 1.209 . S
C81 O78 1.258 . S
C81 O83 1.282 . S
O82 Cd74 2.277 . S
O82 C75 1.226 . S
O83 Cd74 2.356 . S
O83 C81 1.282 . S
C84 O85 1.306 . S
C84 O87 1.160 . S
O85 C84 1.306 . S
O85 Cd86 2.228 . S
Cd86 O85 2.228 . S
Cd86 O90 2.273 . S
Cd86 O94 2.277 . S
O87 C84 1.160 . S
O87 Cd88 2.203 . S
Cd88 O87 2.203 . S
Cd88 O90 2.411 . S
Cd88 O91 2.333 . S
Cd88 O92 2.352 . S
Cd88 O96 2.277 . S
Cd88 O97 2.356 . S
C89 O94 1.209 . S
C89 O96 1.226 . S
O90 Cd86 2.273 . S
O90 Cd88 2.411 . S
O90 C93 1.320 . S
O91 Cd88 2.333 . S
O91 C93 1.214 . S
O92 Cd88 2.352 . S
O92 C95 1.258 . S
C93 O90 1.320 . S
C93 O91 1.214 . S
O94 Cd86 2.277 . S
O94 C89 1.209 . S
C95 O92 1.258 . S
C95 O97 1.282 . S
O96 Cd88 2.277 . S
O96 C89 1.226 . S
O97 Cd88 2.356 . S
O97 C95 1.282 . S
C98 O99 1.306 . S
C98 O101 1.160 . S
O99 C98 1.306 . S
O99 Cd100 2.228 . S
Cd100 O99 2.228 . S
Cd100 O104 2.273 . S
Cd100 O108 2.277 . S
O101 C98 1.160 . S
O101 Cd102 2.203 . S
Cd102 O101 2.203 . S
Cd102 O104 2.411 . S
Cd102 O105 2.333 . S
Cd102 O106 2.352 . S
Cd102 O110 2.277 . S
Cd102 O111 2.356 . S
C103 O108 1.209 . S
C103 O110 1.226 . S
O104 Cd100 2.273 . S
O104 Cd102 2.411 . S
O104 C107 1.320 . S
O105 Cd102 2.333 . S
O105 C107 1.214 . S
O106 Cd102 2.352 . S
O106 C109 1.258 . S
C107 O104 1.320 . S
C107 O105 1.214 . S
O108 Cd100 2.277 . S
O108 C103 1.209 . S
C109 O106 1.258 . S
C109 O111 1.282 . S
O110 Cd102 2.277 . S
O110 C103 1.226 . S
O111 Cd102 2.356 . S
O111 C109 1.282 . S
C112 O113 1.306 . S
C112 O115 1.160 . S
O113 C112 1.306 . S
O113 Cd114 2.228 . S
Cd114 O113 2.228 . S
Cd114 O118 2.273 . S
Cd114 O122 2.277 . S
O115 C112 1.160 . S
O115 Cd116 2.203 . S
Cd116 O115 2.203 . S
Cd116 O118 2.411 . S
Cd116 O119 2.333 . S
Cd116 O120 2.352 . S
Cd116 O124 2.277 . S
Cd116 O125 2.356 . S
C117 O122 1.209 . S
C117 O124 1.226 . S
O118 Cd114 2.273 . S
O118 Cd116 2.411 . S
O118 C121 1.320 . S
O119 Cd116 2.333 . S
O119 C121 1.214 . S
O120 Cd116 2.352 . S
O120 C123 1.258 . S
C121 O118 1.320 . S
C121 O119 1.214 . S
O122 Cd114 2.277 . S
O122 C117 1.209 . S
C123 O120 1.258 . S
C123 O125 1.282 . S
O124 Cd116 2.277 . S
O124 C117 1.226 . S
O125 Cd116 2.356 . S
O125 C123 1.282 . S
C126 O127 1.306 . S
C126 O129 1.160 . S
O127 C126 1.306 . S
O127 Cd128 2.228 . S
Cd128 O127 2.228 . S
Cd128 O132 2.273 . S
Cd128 O136 2.277 . S
O129 C126 1.160 . S
O129 Cd130 2.203 . S
Cd130 O129 2.203 . S
Cd130 O132 2.411 . S
Cd130 O133 2.333 . S
Cd130 O134 2.352 . S
Cd130 O138 2.277 . S
Cd130 O139 2.356 . S
C131 O136 1.209 . S
C131 O138 1.226 . S
O132 Cd128 2.273 . S
O132 Cd130 2.411 . S
O132 C135 1.320 . S
O133 Cd130 2.333 . S
O133 C135 1.214 . S
O134 Cd130 2.352 . S
O134 C137 1.258 . S
C135 O132 1.320 . S
C135 O133 1.214 . S
O136 Cd128 2.277 . S
O136 C131 1.209 . S
C137 O134 1.258 . S
C137 O139 1.282 . S
O138 Cd130 2.277 . S
O138 C131 1.226 . S
O139 Cd130 2.356 . S
O139 C137 1.282 . S
C140 O141 1.306 . S
C140 O143 1.160 . S
O141 C140 1.306 . S
O141 Cd142 2.228 . S
Cd142 O141 2.228 . S
Cd142 O146 2.273 . S
Cd142 O150 2.277 . S
O143 C140 1.160 . S
O143 Cd144 2.203 . S
Cd144 O143 2.203 . S
Cd144 O146 2.411 . S
Cd144 O147 2.333 . S
Cd144 O148 2.352 . S
Cd144 O152 2.277 . S
Cd144 O153 2.356 . S
C145 O150 1.209 . S
C145 O152 1.226 . S
O146 Cd142 2.273 . S
O146 Cd144 2.411 . S
O146 C149 1.320 . S
O147 Cd144 2.333 . S
O147 C149 1.214 . S
O148 Cd144 2.352 . S
O148 C151 1.258 . S
C149 O146 1.320 . S
C149 O147 1.214 . S
O150 Cd142 2.277 . S
O150 C145 1.209 . S
C151 O148 1.258 . S
C151 O153 1.282 . S
O152 Cd144 2.277 . S
O152 C145 1.226 . S
O153 Cd144 2.356 . S
O153 C151 1.282 . S
C154 O155 1.306 . S
C154 O157 1.160 . S
O155 C154 1.306 . S
O155 Cd156 2.228 . S
Cd156 O155 2.228 . S
Cd156 O160 2.273 . S
Cd156 O164 2.277 . S
O157 C154 1.160 . S
O157 Cd158 2.203 . S
Cd158 O157 2.203 . S
Cd158 O160 2.411 . S
Cd158 O161 2.333 . S
Cd158 O162 2.352 . S
Cd158 O166 2.277 . S
Cd158 O167 2.356 . S
C159 O164 1.209 . S
C159 O166 1.226 . S
O160 Cd156 2.273 . S
O160 Cd158 2.411 . S
O160 C163 1.320 . S
O161 Cd158 2.333 . S
O161 C163 1.214 . S
O162 Cd158 2.352 . S
O162 C165 1.258 . S
C163 O160 1.320 . S
C163 O161 1.214 . S
O164 Cd156 2.277 . S
O164 C159 1.209 . S
C165 O162 1.258 . S
C165 O167 1.282 . S
O166 Cd158 2.277 . S
O166 C159 1.226 . S
O167 Cd158 2.356 . S
O167 C165 1.282 . S
C168 O169 1.306 . S
C168 O171 1.160 . S
O169 C168 1.306 . S
O169 Cd170 2.228 . S
Cd170 O169 2.228 . S
Cd170 O174 2.273 . S
Cd170 O178 2.277 . S
O171 C168 1.160 . S
O171 Cd172 2.203 . S
Cd172 O171 2.203 . S
Cd172 O174 2.411 . S
Cd172 O175 2.333 . S
Cd172 O176 2.352 . S
Cd172 O180 2.277 . S
Cd172 O181 2.356 . S
C173 O178 1.209 . S
C173 O180 1.226 . S
O174 Cd170 2.273 . S
O174 Cd172 2.411 . S
O174 C177 1.320 . S
O175 Cd172 2.333 . S
O175 C177 1.214 . S
O176 Cd172 2.352 . S
O176 C179 1.258 . S
C177 O174 1.320 . S
C177 O175 1.214 . S
O178 Cd170 2.277 . S
O178 C173 1.209 . S
C179 O176 1.258 . S
C179 O181 1.282 . S
O180 Cd172 2.277 . S
O180 C173 1.226 . S
O181 Cd172 2.356 . S
O181 C179 1.282 . S
C182 O183 1.306 . S
C182 O185 1.160 . S
O183 C182 1.306 . S
O183 Cd184 2.228 . S
Cd184 O183 2.228 . S
Cd184 O188 2.273 . S
Cd184 O192 2.277 . S
O185 C182 1.160 . S
O185 Cd186 2.203 . S
Cd186 O185 2.203 . S
Cd186 O188 2.411 . S
Cd186 O189 2.333 . S
Cd186 O190 2.352 . S
Cd186 O194 2.277 . S
Cd186 O195 2.356 . S
C187 O192 1.209 . S
C187 O194 1.226 . S
O188 Cd184 2.273 . S
O188 Cd186 2.411 . S
O188 C191 1.320 . S
O189 Cd186 2.333 . S
O189 C191 1.214 . S
O190 Cd186 2.352 . S
O190 C193 1.258 . S
C191 O188 1.320 . S
C191 O189 1.214 . S
O192 Cd184 2.277 . S
O192 C187 1.209 . S
C193 O190 1.258 . S
C193 O195 1.282 . S
O194 Cd186 2.277 . S
O194 C187 1.226 . S
O195 Cd186 2.356 . S
O195 C193 1.282 . S
C196 O197 1.306 . S
C196 O199 1.160 . S
O197 C196 1.306 . S
O197 Cd198 2.228 . S
Cd198 O197 2.228 . S
Cd198 O202 2.273 . S
Cd198 O206 2.277 . S
O199 C196 1.160 . S
O199 Cd200 2.203 . S
Cd200 O199 2.203 . S
Cd200 O202 2.411 . S
Cd200 O203 2.333 . S
Cd200 O204 2.352 . S
Cd200 O208 2.277 . S
Cd200 O209 2.356 . S
C201 O206 1.209 . S
C201 O208 1.226 . S
O202 Cd198 2.273 . S
O202 Cd200 2.411 . S
O202 C205 1.320 . S
O203 Cd200 2.333 . S
O203 C205 1.214 . S
O204 Cd200 2.352 . S
O204 C207 1.258 . S
C205 O202 1.320 . S
C205 O203 1.214 . S
O206 Cd198 2.277 . S
O206 C201 1.209 . S
C207 O204 1.258 . S
C207 O209 1.282 . S
O208 Cd200 2.277 . S
O208 C201 1.226 . S
O209 Cd200 2.356 . S
O209 C207 1.282 . S
C210 O211 1.306 . S
C210 O213 1.160 . S
O211 C210 1.306 . S
O211 Cd212 2.228 . S
Cd212 O211 2.228 . S
Cd212 O216 2.273 . S
Cd212 O220 2.277 . S
O213 C210 1.160 . S
O213 Cd214 2.203 . S
Cd214 O213 2.203 . S
Cd214 O216 2.411 . S
Cd214 O217 2.333 . S
Cd214 O218 2.352 . S
Cd214 O222 2.277 . S
Cd214 O223 2.356 . S
C215 O220 1.209 . S
C215 O222 1.226 . S
O216 Cd212 2.273 . S
O216 Cd214 2.411 . S
O216 C219 1.320 . S
O217 Cd214 2.333 . S
O217 C219 1.214 . S
O218 Cd214 2.352 . S
O218 C221 1.258 . S
C219 O216 1.320 . S
C219 O217 1.214 . S
O220 Cd212 2.277 . S
O220 C215 1.209 . S
C221 O218 1.258 . S
C221 O223 1.282 . S
O222 Cd214 2.277 . S
O222 C215 1.226 . S
O223 Cd214 2.356 . S
O223 C221 1.282 . S
H224 C242 0.951 . S
H225 C244 0.951 . S
H226 C246 0.950 . S
H227 C247 0.950 . S
H228 C249 0.950 . S
H229 C252 0.950 . S
H230 C253 0.950 . S
H231 C255 0.950 . S
H232 C256 0.950 . S
H233 C257 0.951 . S
H234 C259 0.951 . S
H235 C261 0.950 . S
H236 C262 0.950 . S
H237 C264 0.950 . S
H238 C267 0.950 . S
H239 C268 0.950 . S
H240 C270 0.950 . S
H241 C271 0.950 . S
C242 H224 0.951 . S
C242 C243 1.366 . S
C242 C244 1.388 . S
C243 C242 1.366 . S
C243 C247 1.385 . S
C244 H225 0.951 . S
C244 C242 1.388 . S
C244 C245 1.366 . S
C245 C244 1.366 . S
C245 C246 1.414 . S
C245 C248 1.499 . S
C246 H226 0.950 . S
C246 C245 1.414 . S
C246 C247 1.374 . S
C247 H227 0.950 . S
C247 C243 1.385 . S
C247 C246 1.374 . S
C248 C245 1.499 . S
C248 C249 1.373 . S
C248 C250 1.389 . S
C249 H228 0.950 . S
C249 C248 1.373 . S
C249 C265 1.377 . S
C250 C248 1.389 . S
C250 C251 1.524 . S
C250 C264 1.377 . S
C251 C250 1.524 . S
C251 C252 1.397 . S
C251 C256 1.363 . S
C252 H229 0.950 . S
C252 C251 1.397 . S
C252 C253 1.334 . S
C253 H230 0.950 . S
C253 C252 1.334 . S
C253 C254 1.287 . S
C254 C253 1.287 . S
C254 C255 1.524 . S
C254 H273 0.913 . S
C255 H231 0.950 . S
C255 C254 1.524 . S
C255 C256 1.415 . S
C256 H232 0.950 . S
C256 C251 1.363 . S
C256 C255 1.415 . S
C257 H233 0.951 . S
C257 C258 1.366 . S
C257 C259 1.388 . S
C258 C257 1.366 . S
C258 C262 1.385 . S
C259 H234 0.951 . S
C259 C257 1.388 . S
C259 C260 1.366 . S
C260 C259 1.366 . S
C260 C261 1.414 . S
C260 C263 1.499 . S
C261 H235 0.950 . S
C261 C260 1.414 . S
C261 C262 1.374 . S
C262 H236 0.950 . S
C262 C258 1.385 . S
C262 C261 1.374 . S
C263 C260 1.499 . S
C263 C264 1.373 . S
C263 C265 1.389 . S
C264 H237 0.950 . S
C264 C250 1.377 . S
C264 C263 1.373 . S
C265 C249 1.377 . S
C265 C263 1.389 . S
C265 C266 1.524 . S
C266 C265 1.524 . S
C266 C267 1.397 . S
C266 C271 1.363 . S
C267 H238 0.950 . S
C267 C266 1.397 . S
C267 C268 1.334 . S
C268 H239 0.950 . S
C268 C267 1.334 . S
C268 C269 1.287 . S
C269 C268 1.287 . S
C269 C270 1.524 . S
C269 H272 0.999 . S
C270 H240 0.950 . S
C270 C269 1.524 . S
C270 C271 1.415 . S
C271 H241 0.950 . S
C271 C266 1.363 . S
C271 C270 1.415 . S
H272 C269 0.999 . S
H273 C254 0.913 . S
H274 C292 0.951 . S
H275 C294 0.951 . S
H276 C296 0.950 . S
H277 C297 0.950 . S
H278 C299 0.950 . S
H279 C302 0.950 . S
H280 C303 0.950 . S
H281 C305 0.950 . S
H282 C306 0.950 . S
H283 C307 0.951 . S
H284 C309 0.951 . S
H285 C311 0.950 . S
H286 C312 0.950 . S
H287 C314 0.950 . S
H288 C317 0.950 . S
H289 C318 0.950 . S
H290 C320 0.950 . S
H291 C321 0.950 . S
C292 H274 0.951 . S
C292 C293 1.366 . S
C292 C294 1.388 . S
C293 C292 1.366 . S
C293 C297 1.385 . S
C294 H275 0.951 . S
C294 C292 1.388 . S
C294 C295 1.366 . S
C295 C294 1.366 . S
C295 C296 1.414 . S
C295 C298 1.499 . S
C296 H276 0.950 . S
C296 C295 1.414 . S
C296 C297 1.374 . S
C297 H277 0.950 . S
C297 C293 1.385 . S
C297 C296 1.374 . S
C298 C295 1.499 . S
C298 C299 1.373 . S
C298 C300 1.389 . S
C299 H278 0.950 . S
C299 C298 1.373 . S
C299 C315 1.377 . S
C300 C298 1.389 . S
C300 C301 1.524 . S
C300 C314 1.377 . S
C301 C300 1.524 . S
C301 C302 1.397 . S
C301 C306 1.363 . S
C302 H279 0.950 . S
C302 C301 1.397 . S
C302 C303 1.334 . S
C303 H280 0.950 . S
C303 C302 1.334 . S
C303 C304 1.287 . S
C304 C303 1.287 . S
C304 C305 1.524 . S
C304 H323 0.913 . S
C305 H281 0.950 . S
C305 C304 1.524 . S
C305 C306 1.415 . S
C306 H282 0.950 . S
C306 C301 1.363 . S
C306 C305 1.415 . S
C307 H283 0.951 . S
C307 C308 1.366 . S
C307 C309 1.388 . S
C308 C307 1.366 . S
C308 C312 1.385 . S
C309 H284 0.951 . S
C309 C307 1.388 . S
C309 C310 1.366 . S
C310 C309 1.366 . S
C310 C311 1.414 . S
C310 C313 1.499 . S
C311 H285 0.950 . S
C311 C310 1.414 . S
C311 C312 1.374 . S
C312 H286 0.950 . S
C312 C308 1.385 . S
C312 C311 1.374 . S
C313 C310 1.499 . S
C313 C314 1.373 . S
C313 C315 1.389 . S
C314 H287 0.950 . S
C314 C300 1.377 . S
C314 C313 1.373 . S
C315 C299 1.377 . S
C315 C313 1.389 . S
C315 C316 1.524 . S
C316 C315 1.524 . S
C316 C317 1.397 . S
C316 C321 1.363 . S
C317 H288 0.950 . S
C317 C316 1.397 . S
C317 C318 1.334 . S
C318 H289 0.950 . S
C318 C317 1.334 . S
C318 C319 1.287 . S
C319 C318 1.287 . S
C319 C320 1.524 . S
C319 H322 0.999 . S
C320 H290 0.950 . S
C320 C319 1.524 . S
C320 C321 1.415 . S
C321 H291 0.950 . S
C321 C316 1.363 . S
C321 C320 1.415 . S
H322 C319 0.999 . S
H323 C304 0.913 . S
H324 C342 0.951 . S
H325 C344 0.951 . S
H326 C346 0.950 . S
H327 C347 0.950 . S
H328 C349 0.950 . S
H329 C352 0.950 . S
H330 C353 0.950 . S
H331 C355 0.950 . S
H332 C356 0.950 . S
H333 C357 0.951 . S
H334 C359 0.951 . S
H335 C361 0.950 . S
H336 C362 0.950 . S
H337 C364 0.950 . S
H338 C367 0.950 . S
H339 C368 0.950 . S
H340 C370 0.950 . S
H341 C371 0.950 . S
C342 H324 0.951 . S
C342 C343 1.366 . S
C342 C344 1.388 . S
C343 C342 1.366 . S
C343 C347 1.385 . S
C344 H325 0.951 . S
C344 C342 1.388 . S
C344 C345 1.366 . S
C345 C344 1.366 . S
C345 C346 1.414 . S
C345 C348 1.499 . S
C346 H326 0.950 . S
C346 C345 1.414 . S
C346 C347 1.374 . S
C347 H327 0.950 . S
C347 C343 1.385 . S
C347 C346 1.374 . S
C348 C345 1.499 . S
C348 C349 1.373 . S
C348 C350 1.389 . S
C349 H328 0.950 . S
C349 C348 1.373 . S
C349 C365 1.377 . S
C350 C348 1.389 . S
C350 C351 1.524 . S
C350 C364 1.377 . S
C351 C350 1.524 . S
C351 C352 1.397 . S
C351 C356 1.363 . S
C352 H329 0.950 . S
C352 C351 1.397 . S
C352 C353 1.334 . S
C353 H330 0.950 . S
C353 C352 1.334 . S
C353 C354 1.287 . S
C354 C353 1.287 . S
C354 C355 1.524 . S
C354 H373 0.913 . S
C355 H331 0.950 . S
C355 C354 1.524 . S
C355 C356 1.415 . S
C356 H332 0.950 . S
C356 C351 1.363 . S
C356 C355 1.415 . S
C357 H333 0.951 . S
C357 C358 1.366 . S
C357 C359 1.388 . S
C358 C357 1.366 . S
C358 C362 1.385 . S
C359 H334 0.951 . S
C359 C357 1.388 . S
C359 C360 1.366 . S
C360 C359 1.366 . S
C360 C361 1.414 . S
C360 C363 1.499 . S
C361 H335 0.950 . S
C361 C360 1.414 . S
C361 C362 1.374 . S
C362 H336 0.950 . S
C362 C358 1.385 . S
C362 C361 1.374 . S
C363 C360 1.499 . S
C363 C364 1.373 . S
C363 C365 1.389 . S
C364 H337 0.950 . S
C364 C350 1.377 . S
C364 C363 1.373 . S
C365 C349 1.377 . S
C365 C363 1.389 . S
C365 C366 1.524 . S
C366 C365 1.524 . S
C366 C367 1.397 . S
C366 C371 1.363 . S
C367 H338 0.950 . S
C367 C366 1.397 . S
C367 C368 1.334 . S
C368 H339 0.950 . S
C368 C367 1.334 . S
C368 C369 1.287 . S
C369 C368 1.287 . S
C369 C370 1.524 . S
C369 H372 0.999 . S
C370 H340 0.950 . S
C370 C369 1.524 . S
C370 C371 1.415 . S
C371 H341 0.950 . S
C371 C366 1.363 . S
C371 C370 1.415 . S
H372 C369 0.999 . S
H373 C354 0.913 . S
H374 C392 0.951 . S
H375 C394 0.951 . S
H376 C396 0.950 . S
H377 C397 0.950 . S
H378 C399 0.950 . S
H379 C402 0.950 . S
H380 C403 0.950 . S
H381 C405 0.950 . S
H382 C406 0.950 . S
H383 C407 0.951 . S
H384 C409 0.951 . S
H385 C411 0.950 . S
H386 C412 0.950 . S
H387 C414 0.950 . S
H388 C417 0.950 . S
H389 C418 0.950 . S
H390 C420 0.950 . S
H391 C421 0.950 . S
C392 H374 0.951 . S
C392 C393 1.366 . S
C392 C394 1.388 . S
C393 C392 1.366 . S
C393 C397 1.385 . S
C394 H375 0.951 . S
C394 C392 1.388 . S
C394 C395 1.366 . S
C395 C394 1.366 . S
C395 C396 1.414 . S
C395 C398 1.499 . S
C396 H376 0.950 . S
C396 C395 1.414 . S
C396 C397 1.374 . S
C397 H377 0.950 . S
C397 C393 1.385 . S
C397 C396 1.374 . S
C398 C395 1.499 . S
C398 C399 1.373 . S
C398 C400 1.389 . S
C399 H378 0.950 . S
C399 C398 1.373 . S
C399 C415 1.377 . S
C400 C398 1.389 . S
C400 C401 1.524 . S
C400 C414 1.377 . S
C401 C400 1.524 . S
C401 C402 1.397 . S
C401 C406 1.363 . S
C402 H379 0.950 . S
C402 C401 1.397 . S
C402 C403 1.334 . S
C403 H380 0.950 . S
C403 C402 1.334 . S
C403 C404 1.287 . S
C404 C403 1.287 . S
C404 C405 1.524 . S
C404 H423 0.913 . S
C405 H381 0.950 . S
C405 C404 1.524 . S
C405 C406 1.415 . S
C406 H382 0.950 . S
C406 C401 1.363 . S
C406 C405 1.415 . S
C407 H383 0.951 . S
C407 C408 1.366 . S
C407 C409 1.388 . S
C408 C407 1.366 . S
C408 C412 1.385 . S
C409 H384 0.951 . S
C409 C407 1.388 . S
C409 C410 1.366 . S
C410 C409 1.366 . S
C410 C411 1.414 . S
C410 C413 1.499 . S
C411 H385 0.950 . S
C411 C410 1.414 . S
C411 C412 1.374 . S
C412 H386 0.950 . S
C412 C408 1.385 . S
C412 C411 1.374 . S
C413 C410 1.499 . S
C413 C414 1.373 . S
C413 C415 1.389 . S
C414 H387 0.950 . S
C414 C400 1.377 . S
C414 C413 1.373 . S
C415 C399 1.377 . S
C415 C413 1.389 . S
C415 C416 1.524 . S
C416 C415 1.524 . S
C416 C417 1.397 . S
C416 C421 1.363 . S
C417 H388 0.950 . S
C417 C416 1.397 . S
C417 C418 1.334 . S
C418 H389 0.950 . S
C418 C417 1.334 . S
C418 C419 1.287 . S
C419 C418 1.287 . S
C419 C420 1.524 . S
C419 H422 0.999 . S
C420 H390 0.950 . S
C420 C419 1.524 . S
C420 C421 1.415 . S
C421 H391 0.950 . S
C421 C416 1.363 . S
C421 C420 1.415 . S
H422 C419 0.999 . S
H423 C404 0.913 . S
H424 C442 0.951 . S
H425 C444 0.955 . S
H426 C446 0.950 . S
H427 C447 0.950 1_565 S
H428 C449 0.950 . S
H429 C452 0.950 . S
H430 C453 0.950 . S
H431 C455 0.950 . S
H432 C456 0.950 . S
H433 C457 0.949 . S
H434 C459 0.957 1_554 S
H435 C461 0.950 . S
H436 C462 0.950 . S
H437 C464 0.964 . S
H438 C467 0.950 . S
H439 C468 0.950 . S
H440 C470 0.950 . S
H441 C471 0.950 . S
C442 H424 0.951 . S
C442 C443 1.366 . S
C442 C444 1.388 1_565 S
C443 C442 1.366 . S
C443 C447 1.385 1_565 S
C444 H425 0.955 . S
C444 C442 1.388 1_545 S
C444 C445 1.366 . S
C445 C444 1.366 . S
C445 C446 1.414 . S
C445 C448 1.499 . S
C446 H426 0.950 . S
C446 C445 1.414 . S
C446 C447 1.374 . S
C447 H427 0.950 1_545 S
C447 C443 1.385 1_545 S
C447 C446 1.374 . S
C448 C445 1.499 . S
C448 C449 1.373 . S
C448 C450 1.389 . S
C449 H428 0.950 . S
C449 C448 1.373 . S
C449 C465 1.377 . S
C450 C448 1.389 . S
C450 C451 1.524 . S
C450 C464 1.361 1_554 S
C451 C450 1.524 . S
C451 C452 1.397 . S
C451 C456 1.363 1_554 S
C452 H429 0.950 . S
C452 C451 1.397 . S
C452 C453 1.334 . S
C453 H430 0.950 . S
C453 C452 1.334 . S
C453 C454 1.287 . S
C454 C453 1.287 . S
C454 C455 1.524 1_554 S
C454 H473 0.913 . S
C455 H431 0.950 . S
C455 C454 1.524 1_556 S
C455 C456 1.415 . S
C456 H432 0.950 . S
C456 C451 1.363 1_556 S
C456 C455 1.415 . S
C457 H433 0.949 . S
C457 C458 1.366 . S
C457 C459 1.385 . S
C458 C457 1.366 . S
C458 C462 1.385 . S
C459 H434 0.957 1_556 S
C459 C457 1.385 . S
C459 C460 1.362 . S
C460 C459 1.362 . S
C460 C461 1.414 . S
C460 C463 1.499 . S
C461 H435 0.950 . S
C461 C460 1.414 . S
C461 C462 1.374 . S
C462 H436 0.950 . S
C462 C458 1.385 . S
C462 C461 1.374 . S
C463 C460 1.499 . S
C463 C464 1.377 . S
C463 C465 1.389 1_556 S
C464 H437 0.964 . S
C464 C450 1.361 1_556 S
C464 C463 1.377 . S
C465 C449 1.377 . S
C465 C463 1.389 1_554 S
C465 C466 1.524 . S
C466 C465 1.524 . S
C466 C467 1.397 1_554 S
C466 C471 1.363 . S
C467 H438 0.950 . S
C467 C466 1.397 1_556 S
C467 C468 1.334 . S
C468 H439 0.950 . S
C468 C467 1.334 . S
C468 C469 1.287 . S
C469 C468 1.287 . S
C469 C470 1.524 1_556 S
C469 H472 0.999 . S
C470 H440 0.950 . S
C470 C469 1.524 1_554 S
C470 C471 1.415 . S
C471 H441 0.950 . S
C471 C466 1.363 . S
C471 C470 1.415 . S
H472 C469 0.999 . S
H473 C454 0.913 . S
H474 C492 0.951 . S
H475 C494 0.951 . S
H476 C496 0.967 . S
H477 C497 0.950 . S
H478 C499 0.950 . S
H479 C502 0.950 . S
H480 C503 0.950 . S
H481 C505 0.950 . S
H482 C506 0.950 . S
H483 C507 0.951 . S
H484 C509 0.951 . S
H485 C511 0.950 . S
H486 C512 0.950 . S
H487 C514 0.950 . S
H488 C517 0.950 . S
H489 C518 0.928 1_655 S
H490 C520 0.950 . S
H491 C521 0.968 . S
C492 H474 0.951 . S
C492 C493 1.366 . S
C492 C494 1.388 . S
C493 C492 1.366 . S
C493 C497 1.385 . S
C494 H475 0.951 . S
C494 C492 1.388 . S
C494 C495 1.366 . S
C495 C494 1.366 . S
C495 C496 1.414 . S
C495 C498 1.499 1_554 S
C496 H476 0.967 . S
C496 C495 1.414 . S
C496 C497 1.374 . S
C497 H477 0.950 . S
C497 C493 1.385 . S
C497 C496 1.374 . S
C498 C495 1.499 1_556 S
C498 C499 1.373 1_556 S
C498 C500 1.389 . S
C499 H478 0.950 . S
C499 C498 1.373 1_554 S
C499 C515 1.377 1_554 S
C500 C498 1.389 . S
C500 C501 1.524 . S
C500 C514 1.377 . S
C501 C500 1.524 . S
C501 C502 1.397 . S
C501 C506 1.363 . S
C502 H479 0.950 . S
C502 C501 1.397 . S
C502 C503 1.334 . S
C503 H480 0.950 . S
C503 C502 1.334 . S
C503 C504 1.287 . S
C504 C503 1.287 . S
C504 C505 1.524 . S
C504 H523 0.913 . S
C505 H481 0.950 . S
C505 C504 1.524 . S
C505 C506 1.415 . S
C506 H482 0.950 . S
C506 C501 1.363 . S
C506 C505 1.415 . S
C507 H483 0.951 . S
C507 C508 1.366 . S
C507 C509 1.388 1_655 S
C508 C507 1.366 . S
C508 C512 1.385 1_655 S
C509 H484 0.951 . S
C509 C507 1.388 1_455 S
C509 C510 1.366 . S
C510 C509 1.366 . S
C510 C511 1.414 . S
C510 C513 1.499 . S
C511 H485 0.950 . S
C511 C510 1.414 . S
C511 C512 1.374 . S
C512 H486 0.950 . S
C512 C508 1.385 1_455 S
C512 C511 1.374 . S
C513 C510 1.499 . S
C513 C514 1.373 . S
C513 C515 1.389 . S
C514 H487 0.950 . S
C514 C500 1.377 . S
C514 C513 1.373 . S
C515 C499 1.377 1_556 S
C515 C513 1.389 . S
C515 C516 1.524 1_556 S
C516 C515 1.524 1_554 S
C516 C517 1.397 . S
C516 C521 1.363 . S
C517 H488 0.950 . S
C517 C516 1.397 . S
C517 C518 1.362 . S
C518 H489 0.928 1_455 S
C518 C517 1.362 . S
C518 C519 1.283 1_455 S
C519 C518 1.283 1_655 S
C519 C520 1.524 1_655 S
C519 H522 0.999 . S
C520 H490 0.950 . S
C520 C519 1.524 1_455 S
C520 C521 1.415 . S
C521 H491 0.968 . S
C521 C516 1.363 . S
C521 C520 1.415 . S
H522 C519 0.999 . S
H523 C504 0.913 . S
H524 C542 0.951 . S
H525 C544 0.951 . S
H526 C546 1.005 . S
H527 C547 0.944 1_554 S
H528 C549 0.950 . S
H529 C552 0.950 . S
H530 C553 0.950 . S
H531 C555 0.950 . S
H532 C556 0.950 . S
H533 C557 0.951 . S
H534 C559 0.951 . S
H535 C561 0.906 1_556 S
H536 C562 0.950 . S
H537 C564 0.950 . S
H538 C567 0.950 1_556 S
H539 C568 0.950 . S
H540 C570 0.950 . S
H541 C571 0.950 . S
C542 H524 0.951 . S
C542 C543 1.366 . S
C542 C544 1.388 . S
C543 C542 1.366 . S
C543 C547 1.385 . S
C544 H525 0.951 . S
C544 C542 1.388 . S
C544 C545 1.366 . S
C545 C544 1.366 . S
C545 C546 1.385 1_556 S
C545 C548 1.503 . S
C546 H526 1.005 . S
C546 C545 1.385 1_554 S
C546 C547 1.351 1_554 S
C547 H527 0.944 1_556 S
C547 C543 1.385 . S
C547 C546 1.351 1_556 S
C548 C545 1.503 . S
C548 C549 1.370 1_556 S
C548 C550 1.388 1_556 S
C549 H528 0.950 . S
C549 C548 1.370 1_554 S
C549 C565 1.377 . S
C550 C548 1.388 1_554 S
C550 C551 1.518 1_554 S
C550 C564 1.388 . S
C551 C550 1.518 1_556 S
C551 C552 1.397 1_556 S
C551 C556 1.363 . S
C552 H529 0.950 . S
C552 C551 1.397 1_554 S
C552 C553 1.334 . S
C553 H530 0.950 . S
C553 C552 1.334 . S
C553 C554 1.287 1_554 S
C554 C553 1.287 1_556 S
C554 C555 1.524 . S
C554 H573 0.913 . S
C555 H531 0.950 . S
C555 C554 1.524 . S
C555 C556 1.415 . S
C556 H532 0.950 . S
C556 C551 1.363 . S
C556 C555 1.415 . S
C557 H533 0.951 . S
C557 C558 1.366 1_565 S
C557 C559 1.388 . S
C558 C557 1.366 1_545 S
C558 C562 1.385 . S
C559 H534 0.951 . S
C559 C557 1.388 . S
C559 C560 1.366 . S
C560 C559 1.366 . S
C560 C561 1.414 . S
C560 C563 1.499 . S
C561 H535 0.906 1_554 S
C561 C560 1.414 . S
C561 C562 1.374 1_565 S
C562 H536 0.950 . S
C562 C558 1.385 . S
C562 C561 1.374 1_545 S
C563 C560 1.499 . S
C563 C564 1.373 . S
C563 C565 1.389 . S
C564 H537 0.950 . S
C564 C550 1.388 . S
C564 C563 1.373 . S
C565 C549 1.377 . S
C565 C563 1.389 . S
C565 C566 1.524 . S
C566 C565 1.524 . S
C566 C567 1.397 . S
C566 C571 1.363 . S
C567 H538 0.950 1_554 S
C567 C566 1.397 . S
C567 C568 1.334 . S
C568 H539 0.950 . S
C568 C567 1.334 . S
C568 C569 1.287 . S
C569 C568 1.287 . S
C569 C570 1.524 . S
C569 H572 0.999 . S
C570 H540 0.950 . S
C570 C569 1.524 . S
C570 C571 1.415 . S
C571 H541 0.950 . S
C571 C566 1.363 . S
C571 C570 1.415 . S
H572 C569 0.999 . S
H573 C554 0.913 . S
H574 C592 0.951 . S
H575 C594 0.951 . S
H576 C596 0.923 1_556 S
H577 C597 0.950 . S
H578 C599 0.950 . S
H579 C602 0.950 . S
H580 C603 0.950 . S
H581 C605 0.950 . S
H582 C606 0.950 . S
H583 C607 0.951 . S
H584 C609 0.951 . S
H585 C611 0.950 . S
H586 C612 0.950 . S
H587 C614 0.950 . S
H588 C617 0.950 . S
H589 C618 0.950 . S
H590 C620 0.950 . S
H591 C621 0.950 . S
C592 H574 0.951 . S
C592 C593 1.366 . S
C592 C594 1.388 . S
C593 C592 1.366 . S
C593 C597 1.385 . S
C594 H575 0.951 . S
C594 C592 1.388 . S
C594 C595 1.366 . S
C595 C594 1.366 . S
C595 C596 1.414 . S
C595 C598 1.492 1_554 S
C596 H576 0.923 1_554 S
C596 C595 1.414 . S
C596 C597 1.374 . S
C597 H577 0.950 . S
C597 C593 1.385 . S
C597 C596 1.374 . S
C598 C595 1.492 1_556 S
C598 C599 1.390 . S
C598 C600 1.380 1_556 S
C599 H578 0.950 . S
C599 C598 1.390 . S
C599 C615 1.377 . S
C600 C598 1.380 1_554 S
C600 C601 1.524 . S
C600 C614 1.377 . S
C601 C600 1.524 . S
C601 C602 1.397 . S
C601 C606 1.363 . S
C602 H579 0.950 . S
C602 C601 1.397 . S
C602 C603 1.334 . S
C603 H580 0.950 . S
C603 C602 1.334 . S
C603 C604 1.287 . S
C604 C603 1.287 . S
C604 C605 1.524 . S
C604 H623 0.913 . S
C605 H581 0.950 . S
C605 C604 1.524 . S
C605 C606 1.415 . S
C606 H582 0.950 . S
C606 C601 1.363 . S
C606 C605 1.415 . S
C607 H583 0.951 . S
C607 C608 1.366 1_655 S
C607 C609 1.388 . S
C608 C607 1.366 1_455 S
C608 C612 1.385 . S
C609 H584 0.951 . S
C609 C607 1.388 . S
C609 C610 1.366 . S
C610 C609 1.366 . S
C610 C611 1.414 . S
C610 C613 1.499 . S
C611 H585 0.950 . S
C611 C610 1.414 . S
C611 C612 1.374 1_655 S
C612 H586 0.950 . S
C612 C608 1.385 . S
C612 C611 1.374 1_455 S
C613 C610 1.499 . S
C613 C614 1.373 1_556 S
C613 C615 1.389 . S
C614 H587 0.950 . S
C614 C600 1.377 . S
C614 C613 1.373 1_554 S
C615 C599 1.377 . S
C615 C613 1.389 . S
C615 C616 1.524 . S
C616 C615 1.524 . S
C616 C617 1.397 . S
C616 C621 1.363 . S
C617 H588 0.950 . S
C617 C616 1.397 . S
C617 C618 1.334 . S
C618 H589 0.950 . S
C618 C617 1.334 . S
C618 C619 1.287 . S
C619 C618 1.287 . S
C619 C620 1.524 . S
C619 H622 0.999 . S
C620 H590 0.950 . S
C620 C619 1.524 . S
C620 C621 1.415 . S
C621 H591 0.950 . S
C621 C616 1.363 . S
C621 C620 1.415 . S
H622 C619 0.999 . S
H623 C604 0.913 . S
H624 C642 0.951 . S
H625 C644 0.951 . S
H626 C646 0.950 . S
H627 C647 0.950 . S
H628 C649 0.950 . S
H629 C652 0.950 . S
H630 C653 0.950 . S
H631 C655 0.950 . S
H632 C656 0.950 . S
H633 C657 0.951 1_545 S
H634 C659 0.951 . S
H635 C661 0.950 . S
H636 C662 0.950 . S
H637 C664 0.950 . S
H638 C667 0.950 . S
H639 C668 0.950 1_545 S
H640 C670 0.950 . S
H641 C671 0.950 . S
C642 H624 0.951 . S
C642 C643 1.366 . S
C642 C644 1.388 . S
C643 C642 1.366 . S
C643 C647 1.385 . S
C644 H625 0.951 . S
C644 C642 1.388 . S
C644 C645 1.366 . S
C645 C644 1.366 . S
C645 C646 1.414 . S
C645 C648 1.499 . S
C646 H626 0.950 . S
C646 C645 1.414 . S
C646 C647 1.374 . S
C647 H627 0.950 . S
C647 C643 1.385 . S
C647 C646 1.374 . S
C648 C645 1.499 . S
C648 C649 1.373 . S
C648 C650 1.389 . S
C649 H628 0.950 . S
C649 C648 1.373 . S
C649 C665 1.377 . S
C650 C648 1.389 . S
C650 C651 1.524 . S
C650 C664 1.377 . S
C651 C650 1.524 . S
C651 C652 1.397 . S
C651 C656 1.363 . S
C652 H629 0.950 . S
C652 C651 1.397 . S
C652 C653 1.334 . S
C653 H630 0.950 . S
C653 C652 1.334 . S
C653 C654 1.287 . S
C654 C653 1.287 . S
C654 C655 1.524 . S
C654 H673 0.913 . S
C655 H631 0.950 . S
C655 C654 1.524 . S
C655 C656 1.415 . S
C656 H632 0.950 . S
C656 C651 1.363 . S
C656 C655 1.415 . S
C657 H633 0.951 1_565 S
C657 C658 1.366 1_565 S
C657 C659 1.388 . S
C658 C657 1.366 1_545 S
C658 C662 1.385 . S
C659 H634 0.951 . S
C659 C657 1.388 . S
C659 C660 1.366 . S
C660 C659 1.366 . S
C660 C661 1.414 . S
C660 C663 1.499 . S
C661 H635 0.950 . S
C661 C660 1.414 . S
C661 C662 1.374 1_565 S
C662 H636 0.950 . S
C662 C658 1.385 . S
C662 C661 1.374 1_545 S
C663 C660 1.499 . S
C663 C664 1.373 . S
C663 C665 1.389 . S
C664 H637 0.950 . S
C664 C650 1.377 . S
C664 C663 1.373 . S
C665 C649 1.377 . S
C665 C663 1.389 . S
C665 C666 1.524 . S
C666 C665 1.524 . S
C666 C667 1.397 . S
C666 C671 1.363 . S
C667 H638 0.950 . S
C667 C666 1.397 . S
C667 C668 1.334 . S
C668 H639 0.950 1_565 S
C668 C667 1.334 . S
C668 C669 1.287 . S
C669 C668 1.287 . S
C669 C670 1.524 . S
C669 H672 0.999 1_565 S
C670 H640 0.950 . S
C670 C669 1.524 . S
C670 C671 1.415 . S
C671 H641 0.950 . S
C671 C666 1.363 . S
C671 C670 1.415 . S
H672 C669 0.999 1_545 S
H673 C654 0.913 . S
H674 C692 0.951 . S
H675 C694 0.951 . S
H676 C696 0.950 . S
H677 C697 0.950 . S
H678 C699 0.950 . S
H679 C702 0.950 . S
H680 C703 0.950 . S
H681 C705 0.950 . S
H682 C706 0.950 . S
H683 C707 0.951 . S
H684 C709 0.951 . S
H685 C711 0.950 . S
H686 C712 0.950 . S
H687 C714 0.950 . S
H688 C717 0.950 . S
H689 C718 0.950 . S
H690 C720 0.950 . S
H691 C721 0.950 . S
C692 H674 0.951 . S
C692 C693 1.366 . S
C692 C694 1.388 1_455 S
C693 C692 1.366 . S
C693 C697 1.385 1_455 S
C694 H675 0.951 . S
C694 C692 1.388 1_655 S
C694 C695 1.366 . S
C695 C694 1.366 . S
C695 C696 1.414 . S
C695 C698 1.499 . S
C696 H676 0.950 . S
C696 C695 1.414 . S
C696 C697 1.374 . S
C697 H677 0.950 . S
C697 C693 1.385 1_655 S
C697 C696 1.374 . S
C698 C695 1.499 . S
C698 C699 1.373 . S
C698 C700 1.389 . S
C699 H678 0.950 . S
C699 C698 1.373 . S
C699 C715 1.377 . S
C700 C698 1.389 . S
C700 C701 1.524 . S
C700 C714 1.377 . S
C701 C700 1.524 . S
C701 C702 1.397 . S
C701 C706 1.363 . S
C702 H679 0.950 . S
C702 C701 1.397 . S
C702 C703 1.334 . S
C703 H680 0.950 . S
C703 C702 1.334 . S
C703 C704 1.287 . S
C704 C703 1.287 . S
C704 C705 1.524 . S
C704 H723 0.913 . S
C705 H681 0.950 . S
C705 C704 1.524 . S
C705 C706 1.415 . S
C706 H682 0.950 . S
C706 C701 1.363 . S
C706 C705 1.415 . S
C707 H683 0.951 . S
C707 C708 1.366 . S
C707 C709 1.388 . S
C708 C707 1.366 . S
C708 C712 1.385 . S
C709 H684 0.951 . S
C709 C707 1.388 . S
C709 C710 1.366 . S
C710 C709 1.366 . S
C710 C711 1.414 . S
C710 C713 1.499 . S
C711 H685 0.950 . S
C711 C710 1.414 . S
C711 C712 1.374 . S
C712 H686 0.950 . S
C712 C708 1.385 . S
C712 C711 1.374 . S
C713 C710 1.499 . S
C713 C714 1.373 . S
C713 C715 1.389 . S
C714 H687 0.950 . S
C714 C700 1.377 . S
C714 C713 1.373 . S
C715 C699 1.377 . S
C715 C713 1.389 . S
C715 C716 1.524 . S
C716 C715 1.524 . S
C716 C717 1.397 . S
C716 C721 1.363 . S
C717 H688 0.950 . S
C717 C716 1.397 . S
C717 C718 1.334 . S
C718 H689 0.950 . S
C718 C717 1.334 . S
C718 C719 1.287 . S
C719 C718 1.287 . S
C719 C720 1.524 . S
C719 H722 0.999 . S
C720 H690 0.950 . S
C720 C719 1.524 . S
C720 C721 1.415 . S
C721 H691 0.950 . S
C721 C716 1.363 . S
C721 C720 1.415 . S
H722 C719 0.999 . S
H723 C704 0.913 . S
H724 C742 0.951 . S
H725 C744 0.951 . S
H726 C746 0.950 . S
H727 C747 0.950 . S
H728 C749 0.950 . S
H729 C752 0.950 . S
H730 C753 0.950 . S
H731 C755 0.950 . S
H732 C756 0.950 . S
H733 C757 0.951 . S
H734 C759 0.951 . S
H735 C761 0.950 . S
H736 C762 0.950 . S
H737 C764 0.950 . S
H738 C767 0.950 . S
H739 C768 0.950 . S
H740 C770 0.950 . S
H741 C771 0.950 . S
C742 H724 0.951 . S
C742 C743 1.366 . S
C742 C744 1.388 1_565 S
C743 C742 1.366 . S
C743 C747 1.385 1_565 S
C744 H725 0.951 . S
C744 C742 1.388 1_545 S
C744 C745 1.366 . S
C745 C744 1.366 . S
C745 C746 1.414 . S
C745 C748 1.499 . S
C746 H726 0.950 . S
C746 C745 1.414 . S
C746 C747 1.374 . S
C747 H727 0.950 . S
C747 C743 1.385 1_545 S
C747 C746 1.374 . S
C748 C745 1.499 . S
C748 C749 1.373 . S
C748 C750 1.389 . S
C749 H728 0.950 . S
C749 C748 1.373 . S
C749 C765 1.377 . S
C750 C748 1.389 . S
C750 C751 1.524 . S
C750 C764 1.377 . S
C751 C750 1.524 . S
C751 C752 1.397 . S
C751 C756 1.363 . S
C752 H729 0.950 . S
C752 C751 1.397 . S
C752 C753 1.334 1_545 S
C753 H730 0.950 . S
C753 C752 1.334 1_565 S
C753 C754 1.287 . S
C754 C753 1.287 . S
C754 C755 1.524 1_565 S
C754 H773 0.913 . S
C755 H731 0.950 . S
C755 C754 1.524 1_545 S
C755 C756 1.415 . S
C756 H732 0.950 . S
C756 C751 1.363 . S
C756 C755 1.415 . S
C757 H733 0.951 . S
C757 C758 1.366 . S
C757 C759 1.388 . S
C758 C757 1.366 . S
C758 C762 1.385 . S
C759 H734 0.951 . S
C759 C757 1.388 . S
C759 C760 1.366 . S
C760 C759 1.366 . S
C760 C761 1.414 . S
C760 C763 1.499 . S
C761 H735 0.950 . S
C761 C760 1.414 . S
C761 C762 1.374 . S
C762 H736 0.950 . S
C762 C758 1.385 . S
C762 C761 1.374 . S
C763 C760 1.499 . S
C763 C764 1.373 . S
C763 C765 1.389 . S
C764 H737 0.950 . S
C764 C750 1.377 . S
C764 C763 1.373 . S
C765 C749 1.377 . S
C765 C763 1.389 . S
C765 C766 1.524 . S
C766 C765 1.524 . S
C766 C767 1.397 . S
C766 C771 1.363 . S
C767 H738 0.950 . S
C767 C766 1.397 . S
C767 C768 1.334 . S
C768 H739 0.950 . S
C768 C767 1.334 . S
C768 C769 1.287 . S
C769 C768 1.287 . S
C769 C770 1.524 . S
C769 H772 0.999 . S
C770 H740 0.950 . S
C770 C769 1.524 . S
C770 C771 1.415 . S
C771 H741 0.950 . S
C771 C766 1.363 . S
C771 C770 1.415 . S
H772 C769 0.999 . S
H773 C754 0.913 . S
H774 C792 0.951 . S
H775 C794 0.951 . S
H776 C796 0.950 . S
H777 C797 0.950 . S
H778 C799 0.950 . S
H779 C802 0.950 . S
H780 C803 0.950 . S
H781 C805 0.950 . S
H782 C806 0.950 . S
H783 C807 0.951 . S
H784 C809 0.951 . S
H785 C811 0.950 . S
H786 C812 0.950 . S
H787 C814 0.950 . S
H788 C817 0.950 . S
H789 C818 0.950 . S
H790 C820 0.950 . S
H791 C821 0.950 . S
C792 H774 0.951 . S
C792 C793 1.366 . S
C792 C794 1.388 1_655 S
C793 C792 1.366 . S
C793 C797 1.385 1_655 S
C794 H775 0.951 . S
C794 C792 1.388 1_455 S
C794 C795 1.366 . S
C795 C794 1.366 . S
C795 C796 1.414 . S
C795 C798 1.499 . S
C796 H776 0.950 . S
C796 C795 1.414 . S
C796 C797 1.374 . S
C797 H777 0.950 . S
C797 C793 1.385 1_455 S
C797 C796 1.374 . S
C798 C795 1.499 . S
C798 C799 1.373 . S
C798 C800 1.389 . S
C799 H778 0.950 . S
C799 C798 1.373 . S
C799 C815 1.377 . S
C800 C798 1.389 . S
C800 C801 1.524 . S
C800 C814 1.377 . S
C801 C800 1.524 . S
C801 C802 1.397 . S
C801 C806 1.363 . S
C802 H779 0.950 . S
C802 C801 1.397 . S
C802 C803 1.334 . S
C803 H780 0.950 . S
C803 C802 1.334 . S
C803 C804 1.287 . S
C804 C803 1.287 . S
C804 C805 1.524 . S
C804 H823 0.913 . S
C805 H781 0.950 . S
C805 C804 1.524 . S
C805 C806 1.415 . S
C806 H782 0.950 . S
C806 C801 1.363 . S
C806 C805 1.415 . S
C807 H783 0.951 . S
C807 C808 1.366 . S
C807 C809 1.388 . S
C808 C807 1.366 . S
C808 C812 1.385 . S
C809 H784 0.951 . S
C809 C807 1.388 . S
C809 C810 1.366 . S
C810 C809 1.366 . S
C810 C811 1.414 . S
C810 C813 1.499 . S
C811 H785 0.950 . S
C811 C810 1.414 . S
C811 C812 1.374 . S
C812 H786 0.950 . S
C812 C808 1.385 . S
C812 C811 1.374 . S
C813 C810 1.499 . S
C813 C814 1.373 . S
C813 C815 1.389 . S
C814 H787 0.950 . S
C814 C800 1.377 . S
C814 C813 1.373 . S
C815 C799 1.377 . S
C815 C813 1.389 . S
C815 C816 1.524 . S
C816 C815 1.524 . S
C816 C817 1.397 . S
C816 C821 1.363 . S
C817 H788 0.950 . S
C817 C816 1.397 . S
C817 C818 1.334 . S
C818 H789 0.950 . S
C818 C817 1.334 . S
C818 C819 1.287 . S
C819 C818 1.287 . S
C819 C820 1.524 . S
C819 H822 0.999 . S
C820 H790 0.950 . S
C820 C819 1.524 . S
C820 C821 1.415 . S
C821 H791 0.950 . S
C821 C816 1.363 . S
C821 C820 1.415 . S
H822 C819 0.999 . S
H823 C804 0.913 . S
H824 C842 0.951 . S
H825 C844 0.951 . S
H826 C846 0.950 . S
H827 C847 0.950 . S
H828 C849 0.950 . S
H829 C852 0.950 . S
H830 C853 0.950 . S
H831 C855 0.950 . S
H832 C856 0.950 . S
H833 C857 0.951 . S
H834 C859 0.951 . S
H835 C861 0.950 . S
H836 C862 0.950 . S
H837 C864 0.950 . S
H838 C867 0.950 . S
H839 C868 0.950 . S
H840 C870 0.950 . S
H841 C871 0.950 . S
C842 H824 0.951 . S
C842 C843 1.366 . S
C842 C844 1.388 . S
C843 C842 1.366 . S
C843 C847 1.385 . S
C844 H825 0.951 . S
C844 C842 1.388 . S
C844 C845 1.366 . S
C845 C844 1.366 . S
C845 C846 1.414 . S
C845 C848 1.499 . S
C846 H826 0.950 . S
C846 C845 1.414 . S
C846 C847 1.374 . S
C847 H827 0.950 . S
C847 C843 1.385 . S
C847 C846 1.374 . S
C848 C845 1.499 . S
C848 C849 1.373 . S
C848 C850 1.389 . S
C849 H828 0.950 . S
C849 C848 1.373 . S
C849 C865 1.377 . S
C850 C848 1.389 . S
C850 C851 1.524 . S
C850 C864 1.377 . S
C851 C850 1.524 . S
C851 C852 1.397 . S
C851 C856 1.363 . S
C852 H829 0.950 . S
C852 C851 1.397 . S
C852 C853 1.334 . S
C853 H830 0.950 . S
C853 C852 1.334 . S
C853 C854 1.287 . S
C854 C853 1.287 . S
C854 C855 1.524 . S
C854 H873 0.913 . S
C855 H831 0.950 . S
C855 C854 1.524 . S
C855 C856 1.415 . S
C856 H832 0.950 . S
C856 C851 1.363 . S
C856 C855 1.415 . S
C857 H833 0.951 . S
C857 C858 1.366 . S
C857 C859 1.388 . S
C858 C857 1.366 . S
C858 C862 1.385 . S
C859 H834 0.951 . S
C859 C857 1.388 . S
C859 C860 1.366 . S
C860 C859 1.366 . S
C860 C861 1.414 . S
C860 C863 1.499 . S
C861 H835 0.950 . S
C861 C860 1.414 . S
C861 C862 1.374 . S
C862 H836 0.950 . S
C862 C858 1.385 . S
C862 C861 1.374 . S
C863 C860 1.499 . S
C863 C864 1.373 . S
C863 C865 1.389 . S
C864 H837 0.950 . S
C864 C850 1.377 . S
C864 C863 1.373 . S
C865 C849 1.377 . S
C865 C863 1.389 . S
C865 C866 1.524 . S
C866 C865 1.524 . S
C866 C867 1.397 . S
C866 C871 1.363 . S
C867 H838 0.950 . S
C867 C866 1.397 . S
C867 C868 1.334 . S
C868 H839 0.950 . S
C868 C867 1.334 . S
C868 C869 1.287 . S
C869 C868 1.287 . S
C869 C870 1.524 . S
C869 H872 0.999 . S
C870 H840 0.950 . S
C870 C869 1.524 . S
C870 C871 1.415 . S
C871 H841 0.950 . S
C871 C866 1.363 . S
C871 C870 1.415 . S
H872 C869 0.999 . S
H873 C854 0.913 . S
H874 C892 0.951 . S
H875 C894 0.951 . S
H876 C896 0.950 . S
H877 C897 0.950 . S
H878 C899 0.950 . S
H879 C902 0.950 . S
H880 C903 0.950 . S
H881 C905 0.950 . S
H882 C906 0.950 . S
H883 C907 0.951 . S
H884 C909 0.951 . S
H885 C911 0.950 . S
H886 C912 0.950 . S
H887 C914 0.950 . S
H888 C917 0.950 . S
H889 C918 0.950 . S
H890 C920 0.950 . S
H891 C921 0.950 . S
C892 H874 0.951 . S
C892 C893 1.366 . S
C892 C894 1.388 . S
C893 C892 1.366 . S
C893 C897 1.385 . S
C894 H875 0.951 . S
C894 C892 1.388 . S
C894 C895 1.366 . S
C895 C894 1.366 . S
C895 C896 1.414 . S
C895 C898 1.499 . S
C896 H876 0.950 . S
C896 C895 1.414 . S
C896 C897 1.374 . S
C897 H877 0.950 . S
C897 C893 1.385 . S
C897 C896 1.374 . S
C898 C895 1.499 . S
C898 C899 1.373 . S
C898 C900 1.389 . S
C899 H878 0.950 . S
C899 C898 1.373 . S
C899 C915 1.377 . S
C900 C898 1.389 . S
C900 C901 1.524 . S
C900 C914 1.377 . S
C901 C900 1.524 . S
C901 C902 1.397 . S
C901 C906 1.363 . S
C902 H879 0.950 . S
C902 C901 1.397 . S
C902 C903 1.334 . S
C903 H880 0.950 . S
C903 C902 1.334 . S
C903 C904 1.287 . S
C904 C903 1.287 . S
C904 C905 1.524 . S
C904 H923 0.913 . S
C905 H881 0.950 . S
C905 C904 1.524 . S
C905 C906 1.415 . S
C906 H882 0.950 . S
C906 C901 1.363 . S
C906 C905 1.415 . S
C907 H883 0.951 . S
C907 C908 1.366 . S
C907 C909 1.388 . S
C908 C907 1.366 . S
C908 C912 1.385 . S
C909 H884 0.951 . S
C909 C907 1.388 . S
C909 C910 1.366 . S
C910 C909 1.366 . S
C910 C911 1.414 . S
C910 C913 1.499 . S
C911 H885 0.950 . S
C911 C910 1.414 . S
C911 C912 1.374 . S
C912 H886 0.950 . S
C912 C908 1.385 . S
C912 C911 1.374 . S
C913 C910 1.499 . S
C913 C914 1.373 . S
C913 C915 1.389 . S
C914 H887 0.950 . S
C914 C900 1.377 . S
C914 C913 1.373 . S
C915 C899 1.377 . S
C915 C913 1.389 . S
C915 C916 1.524 . S
C916 C915 1.524 . S
C916 C917 1.397 . S
C916 C921 1.363 . S
C917 H888 0.950 . S
C917 C916 1.397 . S
C917 C918 1.334 . S
C918 H889 0.950 . S
C918 C917 1.334 . S
C918 C919 1.287 . S
C919 C918 1.287 . S
C919 C920 1.524 . S
C919 H922 0.999 . S
C920 H890 0.950 . S
C920 C919 1.524 . S
C920 C921 1.415 . S
C921 H891 0.950 . S
C921 C916 1.363 . S
C921 C920 1.415 . S
H922 C919 0.999 . S
H923 C904 0.913 . S
H924 C942 0.951 . S
H925 C944 0.951 . S
H926 C946 0.950 . S
H927 C947 0.950 . S
H928 C949 0.950 . S
H929 C952 0.950 . S
H930 C953 0.950 . S
H931 C955 0.950 . S
H932 C956 0.950 . S
H933 C957 0.951 . S
H934 C959 0.951 . S
H935 C961 0.950 . S
H936 C962 0.950 . S
H937 C964 0.950 . S
H938 C967 0.950 . S
H939 C968 0.950 . S
H940 C970 0.950 . S
H941 C971 0.950 . S
C942 H924 0.951 . S
C942 C943 1.366 . S
C942 C944 1.388 . S
C943 C942 1.366 . S
C943 C947 1.385 . S
C944 H925 0.951 . S
C944 C942 1.388 . S
C944 C945 1.366 . S
C945 C944 1.366 . S
C945 C946 1.414 . S
C945 C948 1.499 . S
C946 H926 0.950 . S
C946 C945 1.414 . S
C946 C947 1.374 . S
C947 H927 0.950 . S
C947 C943 1.385 . S
C947 C946 1.374 . S
C948 C945 1.499 . S
C948 C949 1.373 . S
C948 C950 1.389 . S
C949 H928 0.950 . S
C949 C948 1.373 . S
C949 C965 1.377 . S
C950 C948 1.389 . S
C950 C951 1.524 . S
C950 C964 1.377 . S
C951 C950 1.524 . S
C951 C952 1.397 . S
C951 C956 1.363 . S
C952 H929 0.950 . S
C952 C951 1.397 . S
C952 C953 1.334 . S
C953 H930 0.950 . S
C953 C952 1.334 . S
C953 C954 1.287 . S
C954 C953 1.287 . S
C954 C955 1.524 . S
C954 H973 0.913 . S
C955 H931 0.950 . S
C955 C954 1.524 . S
C955 C956 1.415 . S
C956 H932 0.950 . S
C956 C951 1.363 . S
C956 C955 1.415 . S
C957 H933 0.951 . S
C957 C958 1.366 . S
C957 C959 1.388 . S
C958 C957 1.366 . S
C958 C962 1.385 . S
C959 H934 0.951 . S
C959 C957 1.388 . S
C959 C960 1.366 . S
C960 C959 1.366 . S
C960 C961 1.414 . S
C960 C963 1.499 . S
C961 H935 0.950 . S
C961 C960 1.414 . S
C961 C962 1.374 . S
C962 H936 0.950 . S
C962 C958 1.385 . S
C962 C961 1.374 . S
C963 C960 1.499 . S
C963 C964 1.373 . S
C963 C965 1.389 . S
C964 H937 0.950 . S
C964 C950 1.377 . S
C964 C963 1.373 . S
C965 C949 1.377 . S
C965 C963 1.389 . S
C965 C966 1.524 . S
C966 C965 1.524 . S
C966 C967 1.397 . S
C966 C971 1.363 . S
C967 H938 0.950 . S
C967 C966 1.397 . S
C967 C968 1.334 . S
C968 H939 0.950 . S
C968 C967 1.334 . S
C968 C969 1.287 . S
C969 C968 1.287 . S
C969 C970 1.524 . S
C969 H972 0.999 . S
C970 H940 0.950 . S
C970 C969 1.524 . S
C970 C971 1.415 . S
C971 H941 0.950 . S
C971 C966 1.363 . S
C971 C970 1.415 . S
H972 C969 0.999 . S
H973 C954 0.913 . S
H974 C992 0.951 . S
H975 C994 0.951 . S
H976 C996 0.950 . S
H977 C997 0.950 . S
H978 C999 0.950 . S
H979 C1002 0.950 . S
H980 C1003 0.950 . S
H981 C1005 0.950 . S
H982 C1006 0.950 . S
H983 C1007 0.951 . S
H984 C1009 0.951 . S
H985 C1011 0.950 . S
H986 C1012 0.950 . S
H987 C1014 0.950 . S
H988 C1017 0.950 . S
H989 C1018 0.950 . S
H990 C1020 0.950 . S
H991 C1021 0.950 . S
C992 H974 0.951 . S
C992 C993 1.366 . S
C992 C994 1.388 . S
C993 C992 1.366 . S
C993 C997 1.385 . S
C994 H975 0.951 . S
C994 C992 1.388 . S
C994 C995 1.366 . S
C995 C994 1.366 . S
C995 C996 1.414 . S
C995 C998 1.499 . S
C996 H976 0.950 . S
C996 C995 1.414 . S
C996 C997 1.374 . S
C997 H977 0.950 . S
C997 C993 1.385 . S
C997 C996 1.374 . S
C998 C995 1.499 . S
C998 C999 1.373 . S
C998 C1000 1.389 . S
C999 H978 0.950 . S
C999 C998 1.373 . S
C999 C1015 1.377 . S
C1000 C998 1.389 . S
C1000 C1001 1.524 . S
C1000 C1014 1.377 . S
C1001 C1000 1.524 . S
C1001 C1002 1.397 . S
C1001 C1006 1.363 . S
C1002 H979 0.950 . S
C1002 C1001 1.397 . S
C1002 C1003 1.334 . S
C1003 H980 0.950 . S
C1003 C1002 1.334 . S
C1003 C1004 1.287 . S
C1004 C1003 1.287 . S
C1004 C1005 1.524 . S
C1004 H1023 0.913 . S
C1005 H981 0.950 . S
C1005 C1004 1.524 . S
C1005 C1006 1.415 . S
C1006 H982 0.950 . S
C1006 C1001 1.363 . S
C1006 C1005 1.415 . S
C1007 H983 0.951 . S
C1007 C1008 1.366 . S
C1007 C1009 1.388 . S
C1008 C1007 1.366 . S
C1008 C1012 1.385 . S
C1009 H984 0.951 . S
C1009 C1007 1.388 . S
C1009 C1010 1.366 . S
C1010 C1009 1.366 . S
C1010 C1011 1.414 . S
C1010 C1013 1.499 . S
C1011 H985 0.950 . S
C1011 C1010 1.414 . S
C1011 C1012 1.374 . S
C1012 H986 0.950 . S
C1012 C1008 1.385 . S
C1012 C1011 1.374 . S
C1013 C1010 1.499 . S
C1013 C1014 1.373 . S
C1013 C1015 1.389 . S
C1014 H987 0.950 . S
C1014 C1000 1.377 . S
C1014 C1013 1.373 . S
C1015 C999 1.377 . S
C1015 C1013 1.389 . S
C1015 C1016 1.524 . S
C1016 C1015 1.524 . S
C1016 C1017 1.397 . S
C1016 C1021 1.363 . S
C1017 H988 0.950 . S
C1017 C1016 1.397 . S
C1017 C1018 1.334 . S
C1018 H989 0.950 . S
C1018 C1017 1.334 . S
C1018 C1019 1.287 . S
C1019 C1018 1.287 . S
C1019 C1020 1.524 . S
C1019 H1022 0.999 . S
C1020 H990 0.950 . S
C1020 C1019 1.524 . S
C1020 C1021 1.415 . S
C1021 H991 0.950 . S
C1021 C1016 1.363 . S
C1021 C1020 1.415 . S
H1022 C1019 0.999 . S
H1023 C1004 0.913 . S
H1024 C1042 0.951 . S
H1025 C1044 0.951 . S
H1026 C1046 0.950 . S
H1027 C1047 0.950 . S
H1028 C1049 0.950 . S
H1029 C1052 0.950 . S
H1030 C1053 0.950 . S
H1031 C1055 0.950 . S
H1032 C1056 0.950 . S
H1033 C1057 0.951 . S
H1034 C1059 0.951 . S
H1035 C1061 0.950 . S
H1036 C1062 0.950 . S
H1037 C1064 0.950 . S
H1038 C1067 0.950 . S
H1039 C1068 0.950 . S
H1040 C1070 0.950 . S
H1041 C1071 0.950 . S
C1042 H1024 0.951 . S
C1042 C1043 1.366 . S
C1042 C1044 1.388 . S
C1043 C1042 1.366 . S
C1043 C1047 1.385 . S
C1044 H1025 0.951 . S
C1044 C1042 1.388 . S
C1044 C1045 1.366 . S
C1045 C1044 1.366 . S
C1045 C1046 1.414 . S
C1045 C1048 1.499 . S
C1046 H1026 0.950 . S
C1046 C1045 1.414 . S
C1046 C1047 1.374 . S
C1047 H1027 0.950 . S
C1047 C1043 1.385 . S
C1047 C1046 1.374 . S
C1048 C1045 1.499 . S
C1048 C1049 1.373 . S
C1048 C1050 1.389 . S
C1049 H1028 0.950 . S
C1049 C1048 1.373 . S
C1049 C1065 1.377 . S
C1050 C1048 1.389 . S
C1050 C1051 1.524 . S
C1050 C1064 1.377 . S
C1051 C1050 1.524 . S
C1051 C1052 1.397 . S
C1051 C1056 1.363 . S
C1052 H1029 0.950 . S
C1052 C1051 1.397 . S
C1052 C1053 1.334 . S
C1053 H1030 0.950 . S
C1053 C1052 1.334 . S
C1053 C1054 1.287 . S
C1054 C1053 1.287 . S
C1054 C1055 1.524 . S
C1054 H1073 0.913 . S
C1055 H1031 0.950 . S
C1055 C1054 1.524 . S
C1055 C1056 1.415 . S
C1056 H1032 0.950 . S
C1056 C1051 1.363 . S
C1056 C1055 1.415 . S
C1057 H1033 0.951 . S
C1057 C1058 1.366 . S
C1057 C1059 1.388 . S
C1058 C1057 1.366 . S
C1058 C1062 1.385 . S
C1059 H1034 0.951 . S
C1059 C1057 1.388 . S
C1059 C1060 1.366 . S
C1060 C1059 1.366 . S
C1060 C1061 1.414 . S
C1060 C1063 1.499 . S
C1061 H1035 0.950 . S
C1061 C1060 1.414 . S
C1061 C1062 1.374 . S
C1062 H1036 0.950 . S
C1062 C1058 1.385 . S
C1062 C1061 1.374 . S
C1063 C1060 1.499 . S
C1063 C1064 1.373 . S
C1063 C1065 1.389 . S
C1064 H1037 0.950 . S
C1064 C1050 1.377 . S
C1064 C1063 1.373 . S
C1065 C1049 1.377 . S
C1065 C1063 1.389 . S
C1065 C1066 1.524 . S
C1066 C1065 1.524 . S
C1066 C1067 1.397 . S
C1066 C1071 1.363 . S
C1067 H1038 0.950 . S
C1067 C1066 1.397 . S
C1067 C1068 1.334 . S
C1068 H1039 0.950 . S
C1068 C1067 1.334 . S
C1068 C1069 1.287 . S
C1069 C1068 1.287 . S
C1069 C1070 1.524 . S
C1069 H1072 0.999 . S
C1070 H1040 0.950 . S
C1070 C1069 1.524 . S
C1070 C1071 1.415 . S
C1071 H1041 0.950 . S
C1071 C1066 1.363 . S
C1071 C1070 1.415 . S
H1072 C1069 0.999 . S
H1073 C1054 0.913 . S
H1074 C1092 0.951 . S
H1075 C1094 0.951 . S
H1076 C1096 0.950 . S
H1077 C1097 0.950 . S
H1078 C1099 0.950 . S
H1079 C1102 0.950 . S
H1080 C1103 0.950 . S
H1081 C1105 0.950 . S
H1082 C1106 0.950 . S
H1083 C1107 0.951 . S
H1084 C1109 0.951 . S
H1085 C1111 0.950 . S
H1086 C1112 0.950 . S
H1087 C1114 0.950 . S
H1088 C1117 0.950 . S
H1089 C1118 0.950 . S
H1090 C1120 0.950 . S
H1091 C1121 0.950 . S
C1092 H1074 0.951 . S
C1092 C1093 1.366 . S
C1092 C1094 1.388 . S
C1093 C1092 1.366 . S
C1093 C1097 1.385 . S
C1094 H1075 0.951 . S
C1094 C1092 1.388 . S
C1094 C1095 1.366 . S
C1095 C1094 1.366 . S
C1095 C1096 1.414 . S
C1095 C1098 1.499 . S
C1096 H1076 0.950 . S
C1096 C1095 1.414 . S
C1096 C1097 1.374 . S
C1097 H1077 0.950 . S
C1097 C1093 1.385 . S
C1097 C1096 1.374 . S
C1098 C1095 1.499 . S
C1098 C1099 1.373 . S
C1098 C1100 1.389 . S
C1099 H1078 0.950 . S
C1099 C1098 1.373 . S
C1099 C1115 1.377 . S
C1100 C1098 1.389 . S
C1100 C1101 1.524 . S
C1100 C1114 1.377 . S
C1101 C1100 1.524 . S
C1101 C1102 1.397 . S
C1101 C1106 1.363 . S
C1102 H1079 0.950 . S
C1102 C1101 1.397 . S
C1102 C1103 1.334 . S
C1103 H1080 0.950 . S
C1103 C1102 1.334 . S
C1103 C1104 1.287 . S
C1104 C1103 1.287 . S
C1104 C1105 1.524 . S
C1104 H1123 0.913 . S
C1105 H1081 0.950 . S
C1105 C1104 1.524 . S
C1105 C1106 1.415 . S
C1106 H1082 0.950 . S
C1106 C1101 1.363 . S
C1106 C1105 1.415 . S
C1107 H1083 0.951 . S
C1107 C1108 1.366 . S
C1107 C1109 1.388 . S
C1108 C1107 1.366 . S
C1108 C1112 1.385 . S
C1109 H1084 0.951 . S
C1109 C1107 1.388 . S
C1109 C1110 1.366 . S
C1110 C1109 1.366 . S
C1110 C1111 1.414 . S
C1110 C1113 1.499 . S
C1111 H1085 0.950 . S
C1111 C1110 1.414 . S
C1111 C1112 1.374 . S
C1112 H1086 0.950 . S
C1112 C1108 1.385 . S
C1112 C1111 1.374 . S
C1113 C1110 1.499 . S
C1113 C1114 1.373 . S
C1113 C1115 1.389 . S
C1114 H1087 0.950 . S
C1114 C1100 1.377 . S
C1114 C1113 1.373 . S
C1115 C1099 1.377 . S
C1115 C1113 1.389 . S
C1115 C1116 1.524 . S
C1116 C1115 1.524 . S
C1116 C1117 1.397 . S
C1116 C1121 1.363 . S
C1117 H1088 0.950 . S
C1117 C1116 1.397 . S
C1117 C1118 1.334 . S
C1118 H1089 0.950 . S
C1118 C1117 1.334 . S
C1118 C1119 1.287 . S
C1119 C1118 1.287 . S
C1119 C1120 1.524 . S
C1119 H1122 0.999 . S
C1120 H1090 0.950 . S
C1120 C1119 1.524 . S
C1120 C1121 1.415 . S
C1121 H1091 0.950 . S
C1121 C1116 1.363 . S
C1121 C1120 1.415 . S
H1122 C1119 0.999 . S
H1123 C1104 0.913 . S
H1124 C1142 0.951 . S
H1125 C1144 0.951 . S
H1126 C1146 0.950 . S
H1127 C1147 0.950 . S
H1128 C1149 0.950 . S
H1129 C1152 0.950 . S
H1130 C1153 0.950 . S
H1131 C1155 0.950 . S
H1132 C1156 0.950 . S
H1133 C1157 0.951 . S
H1134 C1159 0.951 . S
H1135 C1161 0.950 . S
H1136 C1162 0.950 . S
H1137 C1164 0.950 . S
H1138 C1167 0.950 . S
H1139 C1168 0.950 . S
H1140 C1170 0.950 . S
H1141 C1171 0.950 . S
C1142 H1124 0.951 . S
C1142 C1143 1.366 . S
C1142 C1144 1.388 . S
C1143 C1142 1.366 . S
C1143 C1147 1.385 . S
C1144 H1125 0.951 . S
C1144 C1142 1.388 . S
C1144 C1145 1.366 . S
C1145 C1144 1.366 . S
C1145 C1146 1.414 . S
C1145 C1148 1.499 . S
C1146 H1126 0.950 . S
C1146 C1145 1.414 . S
C1146 C1147 1.374 . S
C1147 H1127 0.950 . S
C1147 C1143 1.385 . S
C1147 C1146 1.374 . S
C1148 C1145 1.499 . S
C1148 C1149 1.373 . S
C1148 C1150 1.389 . S
C1149 H1128 0.950 . S
C1149 C1148 1.373 . S
C1149 C1165 1.377 . S
C1150 C1148 1.389 . S
C1150 C1151 1.524 . S
C1150 C1164 1.377 . S
C1151 C1150 1.524 . S
C1151 C1152 1.397 . S
C1151 C1156 1.363 . S
C1152 H1129 0.950 . S
C1152 C1151 1.397 . S
C1152 C1153 1.334 . S
C1153 H1130 0.950 . S
C1153 C1152 1.334 . S
C1153 C1154 1.287 . S
C1154 C1153 1.287 . S
C1154 C1155 1.524 . S
C1154 H1173 0.913 . S
C1155 H1131 0.950 . S
C1155 C1154 1.524 . S
C1155 C1156 1.415 . S
C1156 H1132 0.950 . S
C1156 C1151 1.363 . S
C1156 C1155 1.415 . S
C1157 H1133 0.951 . S
C1157 C1158 1.366 . S
C1157 C1159 1.388 . S
C1158 C1157 1.366 . S
C1158 C1162 1.385 . S
C1159 H1134 0.951 . S
C1159 C1157 1.388 . S
C1159 C1160 1.366 . S
C1160 C1159 1.366 . S
C1160 C1161 1.414 . S
C1160 C1163 1.499 . S
C1161 H1135 0.950 . S
C1161 C1160 1.414 . S
C1161 C1162 1.374 . S
C1162 H1136 0.950 . S
C1162 C1158 1.385 . S
C1162 C1161 1.374 . S
C1163 C1160 1.499 . S
C1163 C1164 1.373 . S
C1163 C1165 1.389 . S
C1164 H1137 0.950 . S
C1164 C1150 1.377 . S
C1164 C1163 1.373 . S
C1165 C1149 1.377 . S
C1165 C1163 1.389 . S
C1165 C1166 1.524 . S
C1166 C1165 1.524 . S
C1166 C1167 1.397 . S
C1166 C1171 1.363 . S
C1167 H1138 0.950 . S
C1167 C1166 1.397 . S
C1167 C1168 1.334 . S
C1168 H1139 0.950 . S
C1168 C1167 1.334 . S
C1168 C1169 1.287 . S
C1169 C1168 1.287 . S
C1169 C1170 1.524 . S
C1169 H1172 0.999 . S
C1170 H1140 0.950 . S
C1170 C1169 1.524 . S
C1170 C1171 1.415 . S
C1171 H1141 0.950 . S
C1171 C1166 1.363 . S
C1171 C1170 1.415 . S
H1172 C1169 0.999 . S
H1173 C1154 0.913 . S
H1174 C1192 0.951 . S
H1175 C1194 0.951 . S
H1176 C1196 0.950 . S
H1177 C1197 0.950 . S
H1178 C1199 0.950 . S
H1179 C1202 0.950 . S
H1180 C1203 0.950 . S
H1181 C1205 0.950 . S
H1182 C1206 0.950 . S
H1183 C1207 0.951 . S
H1184 C1209 0.951 . S
H1185 C1211 0.950 . S
H1186 C1212 0.950 . S
H1187 C1214 0.950 . S
H1188 C1217 0.950 . S
H1189 C1218 0.950 . S
H1190 C1220 0.950 . S
H1191 C1221 0.950 . S
C1192 H1174 0.951 . S
C1192 C1193 1.366 . S
C1192 C1194 1.388 . S
C1193 C1192 1.366 . S
C1193 C1197 1.385 . S
C1194 H1175 0.951 . S
C1194 C1192 1.388 . S
C1194 C1195 1.366 . S
C1195 C1194 1.366 . S
C1195 C1196 1.414 . S
C1195 C1198 1.499 . S
C1196 H1176 0.950 . S
C1196 C1195 1.414 . S
C1196 C1197 1.374 . S
C1197 H1177 0.950 . S
C1197 C1193 1.385 . S
C1197 C1196 1.374 . S
C1198 C1195 1.499 . S
C1198 C1199 1.373 . S
C1198 C1200 1.389 . S
C1199 H1178 0.950 . S
C1199 C1198 1.373 . S
C1199 C1215 1.377 . S
C1200 C1198 1.389 . S
C1200 C1201 1.524 . S
C1200 C1214 1.377 . S
C1201 C1200 1.524 . S
C1201 C1202 1.397 . S
C1201 C1206 1.363 . S
C1202 H1179 0.950 . S
C1202 C1201 1.397 . S
C1202 C1203 1.334 . S
C1203 H1180 0.950 . S
C1203 C1202 1.334 . S
C1203 C1204 1.287 . S
C1204 C1203 1.287 . S
C1204 C1205 1.524 . S
C1204 H1223 0.913 . S
C1205 H1181 0.950 . S
C1205 C1204 1.524 . S
C1205 C1206 1.415 . S
C1206 H1182 0.950 . S
C1206 C1201 1.363 . S
C1206 C1205 1.415 . S
C1207 H1183 0.951 . S
C1207 C1208 1.366 . S
C1207 C1209 1.388 . S
C1208 C1207 1.366 . S
C1208 C1212 1.385 . S
C1209 H1184 0.951 . S
C1209 C1207 1.388 . S
C1209 C1210 1.366 . S
C1210 C1209 1.366 . S
C1210 C1211 1.414 . S
C1210 C1213 1.499 . S
C1211 H1185 0.950 . S
C1211 C1210 1.414 . S
C1211 C1212 1.374 . S
C1212 H1186 0.950 . S
C1212 C1208 1.385 . S
C1212 C1211 1.374 . S
C1213 C1210 1.499 . S
C1213 C1214 1.373 . S
C1213 C1215 1.389 . S
C1214 H1187 0.950 . S
C1214 C1200 1.377 . S
C1214 C1213 1.373 . S
C1215 C1199 1.377 . S
C1215 C1213 1.389 . S
C1215 C1216 1.524 . S
C1216 C1215 1.524 . S
C1216 C1217 1.397 . S
C1216 C1221 1.363 . S
C1217 H1188 0.950 . S
C1217 C1216 1.397 . S
C1217 C1218 1.334 . S
C1218 H1189 0.950 . S
C1218 C1217 1.334 . S
C1218 C1219 1.287 . S
C1219 C1218 1.287 . S
C1219 C1220 1.524 . S
C1219 H1222 0.999 . S
C1220 H1190 0.950 . S
C1220 C1219 1.524 . S
C1220 C1221 1.415 . S
C1221 H1191 0.950 . S
C1221 C1216 1.363 . S
C1221 C1220 1.415 . S
H1222 C1219 0.999 . S
H1223 C1204 0.913 . S
H1224 C1242 0.951 . S
H1225 C1244 0.951 . S
H1226 C1246 0.950 . S
H1227 C1247 0.950 . S
H1228 C1249 0.950 . S
H1229 C1252 0.950 . S
H1230 C1253 0.950 . S
H1231 C1255 0.950 . S
H1232 C1256 0.950 . S
H1233 C1257 0.951 . S
H1234 C1259 0.951 . S
H1235 C1261 0.950 . S
H1236 C1262 0.950 . S
H1237 C1264 0.950 . S
H1238 C1267 0.950 . S
H1239 C1268 0.950 . S
H1240 C1270 0.950 . S
H1241 C1271 0.950 . S
C1242 H1224 0.951 . S
C1242 C1243 1.366 . S
C1242 C1244 1.388 . S
C1243 C1242 1.366 . S
C1243 C1247 1.385 . S
C1244 H1225 0.951 . S
C1244 C1242 1.388 . S
C1244 C1245 1.366 . S
C1245 C1244 1.366 . S
C1245 C1246 1.414 . S
C1245 C1248 1.499 . S
C1246 H1226 0.950 . S
C1246 C1245 1.414 . S
C1246 C1247 1.374 . S
C1247 H1227 0.950 . S
C1247 C1243 1.385 . S
C1247 C1246 1.374 . S
C1248 C1245 1.499 . S
C1248 C1249 1.373 . S
C1248 C1250 1.389 . S
C1249 H1228 0.950 . S
C1249 C1248 1.373 . S
C1249 C1265 1.377 . S
C1250 C1248 1.389 . S
C1250 C1251 1.524 . S
C1250 C1264 1.377 . S
C1251 C1250 1.524 . S
C1251 C1252 1.397 . S
C1251 C1256 1.363 . S
C1252 H1229 0.950 . S
C1252 C1251 1.397 . S
C1252 C1253 1.334 . S
C1253 H1230 0.950 . S
C1253 C1252 1.334 . S
C1253 C1254 1.287 . S
C1254 C1253 1.287 . S
C1254 C1255 1.524 . S
C1254 H1273 0.913 . S
C1255 H1231 0.950 . S
C1255 C1254 1.524 . S
C1255 C1256 1.415 . S
C1256 H1232 0.950 . S
C1256 C1251 1.363 . S
C1256 C1255 1.415 . S
C1257 H1233 0.951 . S
C1257 C1258 1.366 . S
C1257 C1259 1.388 . S
C1258 C1257 1.366 . S
C1258 C1262 1.385 . S
C1259 H1234 0.951 . S
C1259 C1257 1.388 . S
C1259 C1260 1.366 . S
C1260 C1259 1.366 . S
C1260 C1261 1.414 . S
C1260 C1263 1.499 . S
C1261 H1235 0.950 . S
C1261 C1260 1.414 . S
C1261 C1262 1.374 . S
C1262 H1236 0.950 . S
C1262 C1258 1.385 . S
C1262 C1261 1.374 . S
C1263 C1260 1.499 . S
C1263 C1264 1.373 . S
C1263 C1265 1.389 . S
C1264 H1237 0.950 . S
C1264 C1250 1.377 . S
C1264 C1263 1.373 . S
C1265 C1249 1.377 . S
C1265 C1263 1.389 . S
C1265 C1266 1.524 . S
C1266 C1265 1.524 . S
C1266 C1267 1.397 . S
C1266 C1271 1.363 . S
C1267 H1238 0.950 . S
C1267 C1266 1.397 . S
C1267 C1268 1.334 . S
C1268 H1239 0.950 . S
C1268 C1267 1.334 . S
C1268 C1269 1.287 . S
C1269 C1268 1.287 . S
C1269 C1270 1.524 . S
C1269 H1272 0.999 . S
C1270 H1240 0.950 . S
C1270 C1269 1.524 . S
C1270 C1271 1.415 . S
C1271 H1241 0.950 . S
C1271 C1266 1.363 . S
C1271 C1270 1.415 . S
H1272 C1269 0.999 . S
H1273 C1254 0.913 . S
H1274 C1292 0.951 . S
H1275 C1294 0.951 . S
H1276 C1296 0.950 . S
H1277 C1297 0.950 . S
H1278 C1299 0.950 . S
H1279 C1302 0.950 . S
H1280 C1303 0.950 . S
H1281 C1305 0.950 . S
H1282 C1306 0.950 . S
H1283 C1307 0.951 . S
H1284 C1309 0.951 . S
H1285 C1311 0.950 . S
H1286 C1312 0.950 . S
H1287 C1314 0.950 . S
H1288 C1317 0.950 . S
H1289 C1318 0.950 . S
H1290 C1320 0.950 . S
H1291 C1321 0.950 . S
C1292 H1274 0.951 . S
C1292 C1293 1.366 . S
C1292 C1294 1.388 . S
C1293 C1292 1.366 . S
C1293 C1297 1.385 . S
C1294 H1275 0.951 . S
C1294 C1292 1.388 . S
C1294 C1295 1.366 . S
C1295 C1294 1.366 . S
C1295 C1296 1.414 . S
C1295 C1298 1.499 . S
C1296 H1276 0.950 . S
C1296 C1295 1.414 . S
C1296 C1297 1.374 . S
C1297 H1277 0.950 . S
C1297 C1293 1.385 . S
C1297 C1296 1.374 . S
C1298 C1295 1.499 . S
C1298 C1299 1.373 . S
C1298 C1300 1.389 . S
C1299 H1278 0.950 . S
C1299 C1298 1.373 . S
C1299 C1315 1.377 . S
C1300 C1298 1.389 . S
C1300 C1301 1.524 . S
C1300 C1314 1.377 . S
C1301 C1300 1.524 . S
C1301 C1302 1.397 . S
C1301 C1306 1.363 . S
C1302 H1279 0.950 . S
C1302 C1301 1.397 . S
C1302 C1303 1.334 . S
C1303 H1280 0.950 . S
C1303 C1302 1.334 . S
C1303 C1304 1.287 . S
C1304 C1303 1.287 . S
C1304 C1305 1.524 . S
C1304 H1323 0.913 . S
C1305 H1281 0.950 . S
C1305 C1304 1.524 . S
C1305 C1306 1.415 . S
C1306 H1282 0.950 . S
C1306 C1301 1.363 . S
C1306 C1305 1.415 . S
C1307 H1283 0.951 . S
C1307 C1308 1.366 . S
C1307 C1309 1.388 . S
C1308 C1307 1.366 . S
C1308 C1312 1.385 . S
C1309 H1284 0.951 . S
C1309 C1307 1.388 . S
C1309 C1310 1.366 . S
C1310 C1309 1.366 . S
C1310 C1311 1.414 . S
C1310 C1313 1.499 . S
C1311 H1285 0.950 . S
C1311 C1310 1.414 . S
C1311 C1312 1.374 . S
C1312 H1286 0.950 . S
C1312 C1308 1.385 . S
C1312 C1311 1.374 . S
C1313 C1310 1.499 . S
C1313 C1314 1.373 . S
C1313 C1315 1.389 . S
C1314 H1287 0.950 . S
C1314 C1300 1.377 . S
C1314 C1313 1.373 . S
C1315 C1299 1.377 . S
C1315 C1313 1.389 . S
C1315 C1316 1.524 . S
C1316 C1315 1.524 . S
C1316 C1317 1.397 . S
C1316 C1321 1.363 . S
C1317 H1288 0.950 . S
C1317 C1316 1.397 . S
C1317 C1318 1.334 . S
C1318 H1289 0.950 . S
C1318 C1317 1.334 . S
C1318 C1319 1.287 . S
C1319 C1318 1.287 . S
C1319 C1320 1.524 . S
C1319 H1322 0.999 . S
C1320 H1290 0.950 . S
C1320 C1319 1.524 . S
C1320 C1321 1.415 . S
C1321 H1291 0.950 . S
C1321 C1316 1.363 . S
C1321 C1320 1.415 . S
H1322 C1319 0.999 . S
H1323 C1304 0.913 . S
H1324 C1342 0.951 . S
H1325 C1344 0.951 . S
H1326 C1346 0.950 . S
H1327 C1347 0.950 . S
H1328 C1349 0.950 . S
H1329 C1352 0.950 . S
H1330 C1353 0.950 . S
H1331 C1355 0.950 . S
H1332 C1356 0.950 . S
H1333 C1357 0.951 . S
H1334 C1359 0.951 . S
H1335 C1361 0.950 . S
H1336 C1362 0.950 . S
H1337 C1364 0.950 . S
H1338 C1367 0.950 . S
H1339 C1368 0.950 . S
H1340 C1370 0.950 . S
H1341 C1371 0.950 . S
C1342 H1324 0.951 . S
C1342 C1343 1.366 . S
C1342 C1344 1.388 . S
C1343 C1342 1.366 . S
C1343 C1347 1.385 . S
C1344 H1325 0.951 . S
C1344 C1342 1.388 . S
C1344 C1345 1.366 . S
C1345 C1344 1.366 . S
C1345 C1346 1.414 . S
C1345 C1348 1.499 . S
C1346 H1326 0.950 . S
C1346 C1345 1.414 . S
C1346 C1347 1.374 . S
C1347 H1327 0.950 . S
C1347 C1343 1.385 . S
C1347 C1346 1.374 . S
C1348 C1345 1.499 . S
C1348 C1349 1.373 . S
C1348 C1350 1.389 . S
C1349 H1328 0.950 . S
C1349 C1348 1.373 . S
C1349 C1365 1.377 . S
C1350 C1348 1.389 . S
C1350 C1351 1.524 . S
C1350 C1364 1.377 . S
C1351 C1350 1.524 . S
C1351 C1352 1.397 . S
C1351 C1356 1.363 . S
C1352 H1329 0.950 . S
C1352 C1351 1.397 . S
C1352 C1353 1.334 . S
C1353 H1330 0.950 . S
C1353 C1352 1.334 . S
C1353 C1354 1.287 . S
C1354 C1353 1.287 . S
C1354 C1355 1.524 . S
C1354 H1373 0.913 . S
C1355 H1331 0.950 . S
C1355 C1354 1.524 . S
C1355 C1356 1.415 . S
C1356 H1332 0.950 . S
C1356 C1351 1.363 . S
C1356 C1355 1.415 . S
C1357 H1333 0.951 . S
C1357 C1358 1.366 . S
C1357 C1359 1.388 . S
C1358 C1357 1.366 . S
C1358 C1362 1.385 . S
C1359 H1334 0.951 . S
C1359 C1357 1.388 . S
C1359 C1360 1.366 . S
C1360 C1359 1.366 . S
C1360 C1361 1.414 . S
C1360 C1363 1.499 . S
C1361 H1335 0.950 . S
C1361 C1360 1.414 . S
C1361 C1362 1.374 . S
C1362 H1336 0.950 . S
C1362 C1358 1.385 . S
C1362 C1361 1.374 . S
C1363 C1360 1.499 . S
C1363 C1364 1.373 . S
C1363 C1365 1.389 . S
C1364 H1337 0.950 . S
C1364 C1350 1.377 . S
C1364 C1363 1.373 . S
C1365 C1349 1.377 . S
C1365 C1363 1.389 . S
C1365 C1366 1.524 . S
C1366 C1365 1.524 . S
C1366 C1367 1.397 . S
C1366 C1371 1.363 . S
C1367 H1338 0.950 . S
C1367 C1366 1.397 . S
C1367 C1368 1.334 . S
C1368 H1339 0.950 . S
C1368 C1367 1.334 . S
C1368 C1369 1.287 . S
C1369 C1368 1.287 . S
C1369 C1370 1.524 . S
C1369 H1372 0.999 . S
C1370 H1340 0.950 . S
C1370 C1369 1.524 . S
C1370 C1371 1.415 . S
C1371 H1341 0.950 . S
C1371 C1366 1.363 . S
C1371 C1370 1.415 . S
H1372 C1369 0.999 . S
H1373 C1354 0.913 . S
H1374 C1392 0.951 . S
H1375 C1394 0.951 . S
H1376 C1396 0.950 . S
H1377 C1397 0.950 . S
H1378 C1399 0.950 . S
H1379 C1402 0.950 . S
H1380 C1403 0.950 . S
H1381 C1405 0.950 . S
H1382 C1406 0.950 . S
H1383 C1407 0.951 . S
H1384 C1409 0.951 . S
H1385 C1411 0.950 . S
H1386 C1412 0.950 . S
H1387 C1414 0.950 . S
H1388 C1417 0.950 . S
H1389 C1418 0.950 . S
H1390 C1420 0.950 . S
H1391 C1421 0.950 . S
C1392 H1374 0.951 . S
C1392 C1393 1.366 . S
C1392 C1394 1.388 . S
C1393 C1392 1.366 . S
C1393 C1397 1.385 . S
C1394 H1375 0.951 . S
C1394 C1392 1.388 . S
C1394 C1395 1.366 . S
C1395 C1394 1.366 . S
C1395 C1396 1.414 . S
C1395 C1398 1.499 . S
C1396 H1376 0.950 . S
C1396 C1395 1.414 . S
C1396 C1397 1.374 . S
C1397 H1377 0.950 . S
C1397 C1393 1.385 . S
C1397 C1396 1.374 . S
C1398 C1395 1.499 . S
C1398 C1399 1.373 . S
C1398 C1400 1.389 . S
C1399 H1378 0.950 . S
C1399 C1398 1.373 . S
C1399 C1415 1.377 . S
C1400 C1398 1.389 . S
C1400 C1401 1.524 . S
C1400 C1414 1.377 . S
C1401 C1400 1.524 . S
C1401 C1402 1.397 . S
C1401 C1406 1.363 . S
C1402 H1379 0.950 . S
C1402 C1401 1.397 . S
C1402 C1403 1.334 . S
C1403 H1380 0.950 . S
C1403 C1402 1.334 . S
C1403 C1404 1.287 . S
C1404 C1403 1.287 . S
C1404 C1405 1.524 . S
C1404 H1423 0.913 . S
C1405 H1381 0.950 . S
C1405 C1404 1.524 . S
C1405 C1406 1.415 . S
C1406 H1382 0.950 . S
C1406 C1401 1.363 . S
C1406 C1405 1.415 . S
C1407 H1383 0.951 . S
C1407 C1408 1.366 . S
C1407 C1409 1.388 . S
C1408 C1407 1.366 . S
C1408 C1412 1.385 . S
C1409 H1384 0.951 . S
C1409 C1407 1.388 . S
C1409 C1410 1.366 . S
C1410 C1409 1.366 . S
C1410 C1411 1.414 . S
C1410 C1413 1.499 . S
C1411 H1385 0.950 . S
C1411 C1410 1.414 . S
C1411 C1412 1.374 . S
C1412 H1386 0.950 . S
C1412 C1408 1.385 . S
C1412 C1411 1.374 . S
C1413 C1410 1.499 . S
C1413 C1414 1.373 . S
C1413 C1415 1.389 . S
C1414 H1387 0.950 . S
C1414 C1400 1.377 . S
C1414 C1413 1.373 . S
C1415 C1399 1.377 . S
C1415 C1413 1.389 . S
C1415 C1416 1.524 . S
C1416 C1415 1.524 . S
C1416 C1417 1.397 . S
C1416 C1421 1.363 . S
C1417 H1388 0.950 . S
C1417 C1416 1.397 . S
C1417 C1418 1.334 . S
C1418 H1389 0.950 . S
C1418 C1417 1.334 . S
C1418 C1419 1.287 . S
C1419 C1418 1.287 . S
C1419 C1420 1.524 . S
C1419 H1422 0.999 . S
C1420 H1390 0.950 . S
C1420 C1419 1.524 . S
C1420 C1421 1.415 . S
C1421 H1391 0.950 . S
C1421 C1416 1.363 . S
C1421 C1420 1.415 . S
H1422 C1419 0.999 . S
H1423 C1404 0.913 . S
H1424 C1442 0.951 . S
H1425 C1444 0.951 . S
H1426 C1446 0.950 . S
H1427 C1447 0.950 . S
H1428 C1449 0.950 . S
H1429 C1452 0.950 . S
H1430 C1453 0.950 . S
H1431 C1455 0.950 . S
H1432 C1456 0.950 1_455 S
H1433 C1457 0.951 . S
H1434 C1459 0.951 . S
H1435 C1461 0.950 . S
H1436 C1462 0.950 . S
H1437 C1464 0.950 . S
H1438 C1467 0.950 . S
H1439 C1468 0.950 . S
H1440 C1470 0.950 . S
H1441 C1471 0.950 1_655 S
C1442 H1424 0.951 . S
C1442 C1443 1.366 . S
C1442 C1444 1.388 . S
C1443 C1442 1.366 . S
C1443 C1447 1.385 . S
C1444 H1425 0.951 . S
C1444 C1442 1.388 . S
C1444 C1445 1.366 . S
C1445 C1444 1.366 . S
C1445 C1446 1.414 . S
C1445 C1448 1.499 . S
C1446 H1426 0.950 . S
C1446 C1445 1.414 . S
C1446 C1447 1.374 . S
C1447 H1427 0.950 . S
C1447 C1443 1.385 . S
C1447 C1446 1.374 . S
C1448 C1445 1.499 . S
C1448 C1449 1.373 . S
C1448 C1450 1.389 . S
C1449 H1428 0.950 . S
C1449 C1448 1.373 . S
C1449 C1465 1.377 1_665 S
C1450 C1448 1.389 . S
C1450 C1451 1.524 . S
C1450 C1464 1.377 1_665 S
C1451 C1450 1.524 . S
C1451 C1452 1.397 . S
C1451 C1456 1.363 . S
C1452 H1429 0.950 . S
C1452 C1451 1.397 . S
C1452 C1453 1.334 . S
C1453 H1430 0.950 . S
C1453 C1452 1.334 . S
C1453 C1454 1.287 . S
C1454 C1453 1.287 . S
C1454 C1455 1.524 . S
C1454 H1473 0.913 . S
C1455 H1431 0.950 . S
C1455 C1454 1.524 . S
C1455 C1456 1.415 . S
C1456 H1432 0.950 1_655 S
C1456 C1451 1.363 . S
C1456 C1455 1.415 . S
C1457 H1433 0.951 . S
C1457 C1458 1.366 . S
C1457 C1459 1.388 . S
C1458 C1457 1.366 . S
C1458 C1462 1.385 . S
C1459 H1434 0.951 . S
C1459 C1457 1.388 . S
C1459 C1460 1.366 . S
C1460 C1459 1.366 . S
C1460 C1461 1.414 . S
C1460 C1463 1.499 . S
C1461 H1435 0.950 . S
C1461 C1460 1.414 . S
C1461 C1462 1.374 . S
C1462 H1436 0.950 . S
C1462 C1458 1.385 . S
C1462 C1461 1.374 . S
C1463 C1460 1.499 . S
C1463 C1464 1.373 . S
C1463 C1465 1.389 . S
C1464 H1437 0.950 . S
C1464 C1450 1.377 1_445 S
C1464 C1463 1.373 . S
C1465 C1449 1.377 1_445 S
C1465 C1463 1.389 . S
C1465 C1466 1.524 . S
C1466 C1465 1.524 . S
C1466 C1467 1.397 . S
C1466 C1471 1.363 . S
C1467 H1438 0.950 . S
C1467 C1466 1.397 . S
C1467 C1468 1.334 . S
C1468 H1439 0.950 . S
C1468 C1467 1.334 . S
C1468 C1469 1.287 . S
C1469 C1468 1.287 . S
C1469 C1470 1.524 . S
C1469 H1472 0.999 . S
C1470 H1440 0.950 . S
C1470 C1469 1.524 . S
C1470 C1471 1.415 . S
C1471 H1441 0.950 1_455 S
C1471 C1466 1.363 . S
C1471 C1470 1.415 . S
H1472 C1469 0.999 . S
H1473 C1454 0.913 . S
H1474 C1492 0.951 . S
H1475 C1494 0.951 . S
H1476 C1496 0.950 . S
H1477 C1497 0.950 . S
H1478 C1499 0.950 . S
H1479 C1502 0.950 1_565 S
H1480 C1503 0.950 . S
H1481 C1505 0.945 1_455 S
H1482 C1506 0.950 1_455 S
H1483 C1507 0.951 . S
H1484 C1509 0.951 . S
H1485 C1511 0.950 . S
H1486 C1512 0.950 . S
H1487 C1514 0.950 . S
H1488 C1517 0.950 1_545 S
H1489 C1518 0.950 . S
H1490 C1520 0.945 1_655 S
H1491 C1521 0.950 1_655 S
C1492 H1474 0.951 . S
C1492 C1493 1.366 . S
C1492 C1494 1.388 . S
C1493 C1492 1.366 . S
C1493 C1497 1.385 . S
C1494 H1475 0.951 . S
C1494 C1492 1.388 . S
C1494 C1495 1.366 . S
C1495 C1494 1.366 . S
C1495 C1496 1.414 . S
C1495 C1498 1.499 . S
C1496 H1476 0.950 . S
C1496 C1495 1.414 . S
C1496 C1497 1.374 . S
C1497 H1477 0.950 . S
C1497 C1493 1.385 . S
C1497 C1496 1.374 . S
C1498 C1495 1.499 . S
C1498 C1499 1.373 . S
C1498 C1500 1.389 . S
C1499 H1478 0.950 . S
C1499 C1498 1.373 . S
C1499 C1515 1.377 1_645 S
C1500 C1498 1.389 . S
C1500 C1501 1.524 . S
C1500 C1514 1.377 1_645 S
C1501 C1500 1.524 . S
C1501 C1502 1.397 . S
C1501 C1506 1.363 . S
C1502 H1479 0.950 1_545 S
C1502 C1501 1.397 . S
C1502 C1503 1.334 . S
C1503 H1480 0.950 . S
C1503 C1502 1.334 . S
C1503 C1504 1.287 . S
C1504 C1503 1.287 . S
C1504 C1505 1.524 . S
C1504 H1523 0.913 . S
C1505 H1481 0.945 1_655 S
C1505 C1504 1.524 . S
C1505 C1506 1.415 . S
C1506 H1482 0.950 1_655 S
C1506 C1501 1.363 . S
C1506 C1505 1.415 . S
C1507 H1483 0.951 . S
C1507 C1508 1.366 . S
C1507 C1509 1.388 . S
C1508 C1507 1.366 . S
C1508 C1512 1.385 . S
C1509 H1484 0.951 . S
C1509 C1507 1.388 . S
C1509 C1510 1.366 . S
C1510 C1509 1.366 . S
C1510 C1511 1.414 . S
C1510 C1513 1.499 . S
C1511 H1485 0.950 . S
C1511 C1510 1.414 . S
C1511 C1512 1.374 . S
C1512 H1486 0.950 . S
C1512 C1508 1.385 . S
C1512 C1511 1.374 . S
C1513 C1510 1.499 . S
C1513 C1514 1.373 . S
C1513 C1515 1.389 . S
C1514 H1487 0.950 . S
C1514 C1500 1.377 1_465 S
C1514 C1513 1.373 . S
C1515 C1499 1.377 1_465 S
C1515 C1513 1.389 . S
C1515 C1516 1.524 . S
C1516 C1515 1.524 . S
C1516 C1517 1.397 . S
C1516 C1521 1.363 . S
C1517 H1488 0.950 1_565 S
C1517 C1516 1.397 . S
C1517 C1518 1.334 . S
C1518 H1489 0.950 . S
C1518 C1517 1.334 . S
C1518 C1519 1.287 . S
C1519 C1518 1.287 . S
C1519 C1520 1.524 . S
C1519 H1522 0.999 . S
C1520 H1490 0.945 1_455 S
C1520 C1519 1.524 . S
C1520 C1521 1.415 . S
C1521 H1491 0.950 1_455 S
C1521 C1516 1.363 . S
C1521 C1520 1.415 . S
H1522 C1519 0.999 . S
H1523 C1504 0.913 . S
H1524 C1542 0.951 . S
H1525 C1544 0.973 . S
H1526 C1546 0.950 . S
H1527 C1547 0.950 . S
H1528 C1549 0.950 . S
H1529 C1552 0.950 1_455 S
H1530 C1553 0.950 1_455 S
H1531 C1555 0.950 . S
H1532 C1556 0.950 . S
H1533 C1557 0.951 . S
H1534 C1559 0.973 . S
H1535 C1561 0.950 . S
H1536 C1562 0.950 . S
H1537 C1564 0.950 . S
H1538 C1567 0.950 1_655 S
H1539 C1568 0.950 1_655 S
H1540 C1570 0.950 . S
H1541 C1571 0.950 . S
C1542 H1524 0.951 . S
C1542 C1543 1.366 . S
C1542 C1544 1.388 . S
C1543 C1542 1.366 . S
C1543 C1547 1.385 . S
C1544 H1525 0.973 . S
C1544 C1542 1.388 . S
C1544 C1545 1.366 . S
C1545 C1544 1.366 . S
C1545 C1546 1.414 . S
C1545 C1548 1.499 . S
C1546 H1526 0.950 . S
C1546 C1545 1.414 . S
C1546 C1547 1.374 . S
C1547 H1527 0.950 . S
C1547 C1543 1.385 . S
C1547 C1546 1.374 . S
C1548 C1545 1.499 . S
C1548 C1549 1.373 . S
C1548 C1550 1.389 1_455 S
C1549 H1528 0.950 . S
C1549 C1548 1.373 . S
C1549 C1565 1.377 . S
C1550 C1548 1.389 1_655 S
C1550 C1551 1.524 . S
C1550 C1564 1.377 . S
C1551 C1550 1.524 . S
C1551 C1552 1.397 . S
C1551 C1556 1.363 . S
C1552 H1529 0.950 1_655 S
C1552 C1551 1.397 . S
C1552 C1553 1.334 . S
C1553 H1530 0.950 1_655 S
C1553 C1552 1.334 . S
C1553 C1554 1.287 . S
C1554 C1553 1.287 . S
C1554 C1555 1.524 . S
C1554 H1573 0.913 . S
C1555 H1531 0.950 . S
C1555 C1554 1.524 . S
C1555 C1556 1.415 . S
C1556 H1532 0.950 . S
C1556 C1551 1.363 . S
C1556 C1555 1.415 . S
C1557 H1533 0.951 . S
C1557 C1558 1.366 . S
C1557 C1559 1.388 . S
C1558 C1557 1.366 . S
C1558 C1562 1.385 . S
C1559 H1534 0.973 . S
C1559 C1557 1.388 . S
C1559 C1560 1.366 . S
C1560 C1559 1.366 . S
C1560 C1561 1.414 . S
C1560 C1563 1.499 . S
C1561 H1535 0.950 . S
C1561 C1560 1.414 . S
C1561 C1562 1.374 . S
C1562 H1536 0.950 . S
C1562 C1558 1.385 . S
C1562 C1561 1.374 . S
C1563 C1560 1.499 . S
C1563 C1564 1.373 . S
C1563 C1565 1.389 1_655 S
C1564 H1537 0.950 . S
C1564 C1550 1.377 . S
C1564 C1563 1.373 . S
C1565 C1549 1.377 . S
C1565 C1563 1.389 1_455 S
C1565 C1566 1.524 . S
C1566 C1565 1.524 . S
C1566 C1567 1.397 . S
C1566 C1571 1.363 . S
C1567 H1538 0.950 1_455 S
C1567 C1566 1.397 . S
C1567 C1568 1.334 1_556 S
C1568 H1539 0.950 1_455 S
C1568 C1567 1.334 1_554 S
C1568 C1569 1.287 . S
C1569 C1568 1.287 . S
C1569 C1570 1.524 1_554 S
C1569 H1572 0.999 . S
C1570 H1540 0.950 . S
C1570 C1569 1.524 1_556 S
C1570 C1571 1.415 . S
C1571 H1541 0.950 . S
C1571 C1566 1.363 . S
C1571 C1570 1.415 . S
H1572 C1569 0.999 . S
H1573 C1554 0.913 . S
H1574 C1592 0.951 . S
H1575 C1594 0.951 . S
H1576 C1596 0.950 . S
H1577 C1597 0.950 . S
H1578 C1599 0.950 . S
H1579 C1602 0.950 . S
H1580 C1603 0.950 . S
H1581 C1605 0.950 . S
H1582 C1606 0.950 . S
H1583 C1607 0.951 . S
H1584 C1609 0.951 . S
H1585 C1611 0.950 . S
H1586 C1612 0.950 . S
H1587 C1614 0.950 . S
H1588 C1617 0.921 1_554 S
H1589 C1618 0.950 . S
H1590 C1620 0.950 . S
H1591 C1621 0.956 . S
C1592 H1574 0.951 . S
C1592 C1593 1.366 . S
C1592 C1594 1.388 . S
C1593 C1592 1.366 . S
C1593 C1597 1.385 . S
C1594 H1575 0.951 . S
C1594 C1592 1.388 . S
C1594 C1595 1.366 . S
C1595 C1594 1.366 . S
C1595 C1596 1.414 . S
C1595 C1598 1.499 . S
C1596 H1576 0.950 . S
C1596 C1595 1.414 . S
C1596 C1597 1.374 . S
C1597 H1577 0.950 . S
C1597 C1593 1.385 . S
C1597 C1596 1.374 . S
C1598 C1595 1.499 . S
C1598 C1599 1.373 . S
C1598 C1600 1.389 . S
C1599 H1578 0.950 . S
C1599 C1598 1.373 . S
C1599 C1615 1.377 1_565 S
C1600 C1598 1.389 . S
C1600 C1601 1.524 . S
C1600 C1614 1.377 1_565 S
C1601 C1600 1.524 . S
C1601 C1602 1.397 . S
C1601 C1606 1.363 . S
C1602 H1579 0.950 . S
C1602 C1601 1.397 . S
C1602 C1603 1.334 . S
C1603 H1580 0.950 . S
C1603 C1602 1.334 . S
C1603 C1604 1.287 . S
C1604 C1603 1.287 . S
C1604 C1605 1.524 . S
C1604 H1623 0.913 . S
C1605 H1581 0.950 . S
C1605 C1604 1.524 . S
C1605 C1606 1.415 . S
C1606 H1582 0.950 . S
C1606 C1601 1.363 . S
C1606 C1605 1.415 . S
C1607 H1583 0.951 . S
C1607 C1608 1.366 . S
C1607 C1609 1.388 . S
C1608 C1607 1.366 . S
C1608 C1612 1.385 . S
C1609 H1584 0.951 . S
C1609 C1607 1.388 . S
C1609 C1610 1.366 . S
C1610 C1609 1.366 . S
C1610 C1611 1.414 . S
C1610 C1613 1.499 . S
C1611 H1585 0.950 . S
C1611 C1610 1.414 . S
C1611 C1612 1.374 . S
C1612 H1586 0.950 . S
C1612 C1608 1.385 . S
C1612 C1611 1.374 . S
C1613 C1610 1.499 . S
C1613 C1614 1.373 . S
C1613 C1615 1.389 . S
C1614 H1587 0.950 . S
C1614 C1600 1.377 1_545 S
C1614 C1613 1.373 . S
C1615 C1599 1.377 1_545 S
C1615 C1613 1.389 . S
C1615 C1616 1.524 . S
C1616 C1615 1.524 . S
C1616 C1617 1.381 1_554 S
C1616 C1621 1.363 1_554 S
C1617 H1588 0.921 1_556 S
C1617 C1616 1.381 1_556 S
C1617 C1618 1.380 . S
C1618 H1589 0.950 . S
C1618 C1617 1.380 . S
C1618 C1619 1.287 . S
C1619 C1618 1.287 . S
C1619 C1620 1.524 . S
C1619 H1622 0.999 . S
C1620 H1590 0.950 . S
C1620 C1619 1.524 . S
C1620 C1621 1.415 . S
C1621 H1591 0.956 . S
C1621 C1616 1.363 1_556 S
C1621 C1620 1.415 . S
H1622 C1619 0.999 . S
H1623 C1604 0.913 . S
H1624 C1642 0.951 . S
H1625 C1644 0.951 . S
H1626 C1646 0.950 . S
H1627 C1647 0.950 . S
H1628 C1649 0.950 . S
H1629 C1652 0.950 . S
H1630 C1653 0.950 . S
H1631 C1655 0.950 . S
H1632 C1656 0.950 . S
H1633 C1657 0.951 . S
H1634 C1659 0.951 . S
H1635 C1661 0.950 . S
H1636 C1662 0.950 . S
H1637 C1664 0.950 . S
H1638 C1667 0.950 . S
H1639 C1668 0.950 . S
H1640 C1670 0.950 . S
H1641 C1671 0.950 . S
C1642 H1624 0.951 . S
C1642 C1643 1.366 . S
C1642 C1644 1.388 . S
C1643 C1642 1.366 . S
C1643 C1647 1.385 . S
C1644 H1625 0.951 . S
C1644 C1642 1.388 . S
C1644 C1645 1.366 . S
C1645 C1644 1.366 . S
C1645 C1646 1.414 . S
C1645 C1648 1.499 . S
C1646 H1626 0.950 . S
C1646 C1645 1.414 . S
C1646 C1647 1.374 . S
C1647 H1627 0.950 . S
C1647 C1643 1.385 . S
C1647 C1646 1.374 . S
C1648 C1645 1.499 . S
C1648 C1649 1.373 . S
C1648 C1650 1.389 . S
C1649 H1628 0.950 . S
C1649 C1648 1.373 . S
C1649 C1665 1.377 . S
C1650 C1648 1.389 . S
C1650 C1651 1.524 . S
C1650 C1664 1.377 . S
C1651 C1650 1.524 . S
C1651 C1652 1.397 . S
C1651 C1656 1.363 . S
C1652 H1629 0.950 . S
C1652 C1651 1.397 . S
C1652 C1653 1.334 . S
C1653 H1630 0.950 . S
C1653 C1652 1.334 . S
C1653 C1654 1.287 . S
C1654 C1653 1.287 . S
C1654 C1655 1.524 . S
C1654 H1673 0.913 . S
C1655 H1631 0.950 . S
C1655 C1654 1.524 . S
C1655 C1656 1.415 . S
C1656 H1632 0.950 . S
C1656 C1651 1.363 . S
C1656 C1655 1.415 . S
C1657 H1633 0.951 . S
C1657 C1658 1.366 . S
C1657 C1659 1.388 . S
C1658 C1657 1.366 . S
C1658 C1662 1.385 . S
C1659 H1634 0.951 . S
C1659 C1657 1.388 . S
C1659 C1660 1.366 . S
C1660 C1659 1.366 . S
C1660 C1661 1.414 . S
C1660 C1663 1.499 . S
C1661 H1635 0.950 . S
C1661 C1660 1.414 . S
C1661 C1662 1.374 . S
C1662 H1636 0.950 . S
C1662 C1658 1.385 . S
C1662 C1661 1.374 . S
C1663 C1660 1.499 . S
C1663 C1664 1.373 . S
C1663 C1665 1.389 . S
C1664 H1637 0.950 . S
C1664 C1650 1.377 . S
C1664 C1663 1.373 . S
C1665 C1649 1.377 . S
C1665 C1663 1.389 . S
C1665 C1666 1.524 . S
C1666 C1665 1.524 . S
C1666 C1667 1.397 . S
C1666 C1671 1.363 . S
C1667 H1638 0.950 . S
C1667 C1666 1.397 . S
C1667 C1668 1.334 . S
C1668 H1639 0.950 . S
C1668 C1667 1.334 . S
C1668 C1669 1.287 . S
C1669 C1668 1.287 . S
C1669 C1670 1.524 . S
C1669 H1672 0.999 . S
C1670 H1640 0.950 . S
C1670 C1669 1.524 . S
C1670 C1671 1.415 . S
C1671 H1641 0.950 . S
C1671 C1666 1.363 . S
C1671 C1670 1.415 . S
H1672 C1669 0.999 . S
H1673 C1654 0.913 . S
H1674 C1692 0.951 . S
H1675 C1694 0.951 . S
H1676 C1696 0.950 . S
H1677 C1697 0.950 . S
H1678 C1699 0.950 . S
H1679 C1702 0.950 . S
H1680 C1703 0.950 . S
H1681 C1705 0.950 . S
H1682 C1706 0.950 . S
H1683 C1707 0.951 . S
H1684 C1709 0.951 . S
H1685 C1711 0.950 . S
H1686 C1712 0.950 . S
H1687 C1714 0.950 . S
H1688 C1717 0.950 . S
H1689 C1718 0.950 . S
H1690 C1720 0.950 . S
H1691 C1721 0.950 . S
C1692 H1674 0.951 . S
C1692 C1693 1.366 . S
C1692 C1694 1.388 . S
C1693 C1692 1.366 . S
C1693 C1697 1.385 . S
C1694 H1675 0.951 . S
C1694 C1692 1.388 . S
C1694 C1695 1.366 . S
C1695 C1694 1.366 . S
C1695 C1696 1.414 . S
C1695 C1698 1.499 . S
C1696 H1676 0.950 . S
C1696 C1695 1.414 . S
C1696 C1697 1.374 . S
C1697 H1677 0.950 . S
C1697 C1693 1.385 . S
C1697 C1696 1.374 . S
C1698 C1695 1.499 . S
C1698 C1699 1.373 . S
C1698 C1700 1.389 . S
C1699 H1678 0.950 . S
C1699 C1698 1.373 . S
C1699 C1715 1.377 . S
C1700 C1698 1.389 . S
C1700 C1701 1.524 . S
C1700 C1714 1.377 . S
C1701 C1700 1.524 . S
C1701 C1702 1.397 . S
C1701 C1706 1.363 . S
C1702 H1679 0.950 . S
C1702 C1701 1.397 . S
C1702 C1703 1.334 . S
C1703 H1680 0.950 . S
C1703 C1702 1.334 . S
C1703 C1704 1.287 . S
C1704 C1703 1.287 . S
C1704 C1705 1.524 . S
C1704 H1723 0.913 . S
C1705 H1681 0.950 . S
C1705 C1704 1.524 . S
C1705 C1706 1.415 . S
C1706 H1682 0.950 . S
C1706 C1701 1.363 . S
C1706 C1705 1.415 . S
C1707 H1683 0.951 . S
C1707 C1708 1.366 . S
C1707 C1709 1.388 . S
C1708 C1707 1.366 . S
C1708 C1712 1.385 . S
C1709 H1684 0.951 . S
C1709 C1707 1.388 . S
C1709 C1710 1.366 . S
C1710 C1709 1.366 . S
C1710 C1711 1.414 . S
C1710 C1713 1.499 . S
C1711 H1685 0.950 . S
C1711 C1710 1.414 . S
C1711 C1712 1.374 . S
C1712 H1686 0.950 . S
C1712 C1708 1.385 . S
C1712 C1711 1.374 . S
C1713 C1710 1.499 . S
C1713 C1714 1.373 . S
C1713 C1715 1.389 . S
C1714 H1687 0.950 . S
C1714 C1700 1.377 . S
C1714 C1713 1.373 . S
C1715 C1699 1.377 . S
C1715 C1713 1.389 . S
C1715 C1716 1.524 . S
C1716 C1715 1.524 . S
C1716 C1717 1.397 . S
C1716 C1721 1.363 . S
C1717 H1688 0.950 . S
C1717 C1716 1.397 . S
C1717 C1718 1.334 . S
C1718 H1689 0.950 . S
C1718 C1717 1.334 . S
C1718 C1719 1.287 . S
C1719 C1718 1.287 . S
C1719 C1720 1.524 . S
C1719 H1722 0.999 . S
C1720 H1690 0.950 . S
C1720 C1719 1.524 . S
C1720 C1721 1.415 . S
C1721 H1691 0.950 . S
C1721 C1716 1.363 . S
C1721 C1720 1.415 . S
H1722 C1719 0.999 . S
H1723 C1704 0.913 . S
H1724 C1742 0.951 . S
H1725 C1744 0.951 . S
H1726 C1746 0.950 . S
H1727 C1747 0.950 . S
H1728 C1749 0.950 . S
H1729 C1752 0.950 . S
H1730 C1753 0.961 . S
H1731 C1755 0.950 . S
H1732 C1756 0.950 . S
H1733 C1757 0.951 . S
H1734 C1759 0.951 . S
H1735 C1761 0.950 . S
H1736 C1762 0.950 . S
H1737 C1764 0.950 . S
H1738 C1767 0.950 . S
H1739 C1768 0.961 . S
H1740 C1770 0.950 . S
H1741 C1771 0.950 . S
C1742 H1724 0.951 . S
C1742 C1743 1.366 . S
C1742 C1744 1.388 . S
C1743 C1742 1.366 . S
C1743 C1747 1.385 . S
C1744 H1725 0.951 . S
C1744 C1742 1.388 . S
C1744 C1745 1.366 . S
C1745 C1744 1.366 . S
C1745 C1746 1.414 . S
C1745 C1748 1.499 . S
C1746 H1726 0.950 . S
C1746 C1745 1.414 . S
C1746 C1747 1.374 . S
C1747 H1727 0.950 . S
C1747 C1743 1.385 . S
C1747 C1746 1.374 . S
C1748 C1745 1.499 . S
C1748 C1749 1.373 . S
C1748 C1750 1.389 1_545 S
C1749 H1728 0.950 . S
C1749 C1748 1.373 . S
C1749 C1765 1.377 . S
C1750 C1748 1.389 1_565 S
C1750 C1751 1.524 . S
C1750 C1764 1.377 . S
C1751 C1750 1.524 . S
C1751 C1752 1.397 1_565 S
C1751 C1756 1.363 . S
C1752 H1729 0.950 . S
C1752 C1751 1.397 1_545 S
C1752 C1753 1.337 . S
C1753 H1730 0.961 . S
C1753 C1752 1.337 . S
C1753 C1754 1.273 1_545 S
C1754 C1753 1.273 1_565 S
C1754 C1755 1.524 . S
C1754 H1773 0.913 . S
C1755 H1731 0.950 . S
C1755 C1754 1.524 . S
C1755 C1756 1.415 . S
C1756 H1732 0.950 . S
C1756 C1751 1.363 . S
C1756 C1755 1.415 . S
C1757 H1733 0.951 . S
C1757 C1758 1.366 . S
C1757 C1759 1.388 . S
C1758 C1757 1.366 . S
C1758 C1762 1.385 . S
C1759 H1734 0.951 . S
C1759 C1757 1.388 . S
C1759 C1760 1.366 . S
C1760 C1759 1.366 . S
C1760 C1761 1.414 . S
C1760 C1763 1.499 . S
C1761 H1735 0.950 . S
C1761 C1760 1.414 . S
C1761 C1762 1.374 . S
C1762 H1736 0.950 . S
C1762 C1758 1.385 . S
C1762 C1761 1.374 . S
C1763 C1760 1.499 . S
C1763 C1764 1.373 . S
C1763 C1765 1.389 1_565 S
C1764 H1737 0.950 . S
C1764 C1750 1.377 . S
C1764 C1763 1.373 . S
C1765 C1749 1.377 . S
C1765 C1763 1.389 1_545 S
C1765 C1766 1.524 . S
C1766 C1765 1.524 . S
C1766 C1767 1.397 1_545 S
C1766 C1771 1.363 . S
C1767 H1738 0.950 . S
C1767 C1766 1.397 1_565 S
C1767 C1768 1.337 . S
C1768 H1739 0.961 . S
C1768 C1767 1.337 . S
C1768 C1769 1.273 1_565 S
C1769 C1768 1.273 1_545 S
C1769 C1770 1.524 . S
C1769 H1772 0.999 . S
C1770 H1740 0.950 . S
C1770 C1769 1.524 . S
C1770 C1771 1.415 . S
C1771 H1741 0.950 . S
C1771 C1766 1.363 . S
C1771 C1770 1.415 . S
H1772 C1769 0.999 . S
H1773 C1754 0.913 . S
H1774 C1792 0.951 . S
H1775 C1794 0.951 . S
H1776 C1796 0.950 . S
H1777 C1797 0.950 . S
H1778 C1799 0.950 . S
H1779 C1802 0.950 . S
H1780 C1803 0.950 . S
H1781 C1805 0.950 1_455 S
H1782 C1806 0.939 1_455 S
H1783 C1807 0.951 . S
H1784 C1809 0.951 . S
H1785 C1811 0.950 . S
H1786 C1812 0.950 . S
H1787 C1814 0.950 . S
H1788 C1817 0.950 . S
H1789 C1818 0.950 . S
H1790 C1820 0.950 1_655 S
H1791 C1821 0.939 1_655 S
C1792 H1774 0.951 . S
C1792 C1793 1.366 . S
C1792 C1794 1.388 . S
C1793 C1792 1.366 . S
C1793 C1797 1.385 . S
C1794 H1775 0.951 . S
C1794 C1792 1.388 . S
C1794 C1795 1.366 . S
C1795 C1794 1.366 . S
C1795 C1796 1.414 . S
C1795 C1798 1.499 . S
C1796 H1776 0.950 . S
C1796 C1795 1.414 . S
C1796 C1797 1.374 . S
C1797 H1777 0.950 . S
C1797 C1793 1.385 . S
C1797 C1796 1.374 . S
C1798 C1795 1.499 . S
C1798 C1799 1.373 . S
C1798 C1800 1.389 . S
C1799 H1778 0.950 . S
C1799 C1798 1.373 . S
C1799 C1815 1.377 1_655 S
C1800 C1798 1.389 . S
C1800 C1801 1.524 . S
C1800 C1814 1.377 1_655 S
C1801 C1800 1.524 . S
C1801 C1802 1.397 . S
C1801 C1806 1.370 . S
C1802 H1779 0.950 . S
C1802 C1801 1.397 . S
C1802 C1803 1.334 . S
C1803 H1780 0.950 . S
C1803 C1802 1.334 . S
C1803 C1804 1.287 . S
C1804 C1803 1.287 . S
C1804 C1805 1.524 . S
C1804 H1823 0.913 . S
C1805 H1781 0.950 1_655 S
C1805 C1804 1.524 . S
C1805 C1806 1.418 . S
C1806 H1782 0.939 1_655 S
C1806 C1801 1.370 . S
C1806 C1805 1.418 . S
C1807 H1783 0.951 . S
C1807 C1808 1.366 . S
C1807 C1809 1.388 . S
C1808 C1807 1.366 . S
C1808 C1812 1.385 . S
C1809 H1784 0.951 . S
C1809 C1807 1.388 . S
C1809 C1810 1.366 . S
C1810 C1809 1.366 . S
C1810 C1811 1.414 . S
C1810 C1813 1.499 . S
C1811 H1785 0.950 . S
C1811 C1810 1.414 . S
C1811 C1812 1.374 . S
C1812 H1786 0.950 . S
C1812 C1808 1.385 . S
C1812 C1811 1.374 . S
C1813 C1810 1.499 . S
C1813 C1814 1.373 . S
C1813 C1815 1.389 . S
C1814 H1787 0.950 . S
C1814 C1800 1.377 1_455 S
C1814 C1813 1.373 . S
C1815 C1799 1.377 1_455 S
C1815 C1813 1.389 . S
C1815 C1816 1.524 . S
C1816 C1815 1.524 . S
C1816 C1817 1.397 . S
C1816 C1821 1.370 . S
C1817 H1788 0.950 . S
C1817 C1816 1.397 . S
C1817 C1818 1.334 . S
C1818 H1789 0.950 . S
C1818 C1817 1.334 . S
C1818 C1819 1.287 . S
C1819 C1818 1.287 . S
C1819 C1820 1.524 . S
C1819 H1822 0.999 . S
C1820 H1790 0.950 1_455 S
C1820 C1819 1.524 . S
C1820 C1821 1.418 . S
C1821 H1791 0.939 1_455 S
C1821 C1816 1.370 . S
C1821 C1820 1.418 . S
H1822 C1819 0.999 . S
H1823 C1804 0.913 . S
C243 C9 1.062 . S
C258 C159 1.085 . S
C293 C117 1.098 . S
C308 C14 1.082 . S
C343 C131 1.085 . S
C358 C37 1.062 . S
C393 C145 1.098 . S
C408 C42 1.081 . S
C443 C75 1.085 . S
C458 C65 1.062 . S
C493 C70 1.082 . S
C508 C89 1.098 . S
C543 C93 1.062 . S
C558 C103 1.085 . S
C593 C98 1.082 . S
C608 C61 1.097 . S
C643 C121 1.061 . S
C658 C47 1.085 . S
C693 C5 1.097 . S
C708 C126 1.082 . S
C743 C19 1.085 . S
C758 C149 1.061 . S
C793 C33 1.097 . S
C808 C154 1.082 . S
C843 C187 1.084 . S
C858 C177 1.062 . S
C893 C182 1.082 . S
C908 C201 1.097 . S
C943 C215 1.084 . S
C958 C205 1.062 . S
C993 C173 1.097 . S
C1008 C210 1.082 . S
C1043 C207 1.560 . S
C1058 C11 1.560 . S
C1093 C221 1.610 . S
C1108 C25 1.610 . S
C1143 C179 1.560 . S
C1158 C39 1.560 . S
C1193 C53 1.610 . S
C1208 C193 1.610 . S
C1243 C67 1.560 . S
C1258 C151 1.560 . S
C1293 C165 1.610 . S
C1308 C81 1.610 . S
C1343 C95 1.560 . S
C1358 C123 1.560 . S
C1393 C109 1.610 . S
C1408 C137 1.610 . S
C1443 C28 1.088 . S
C1458 C0 1.088 . S
C1493 C51 1.121 . S
C1508 C23 1.121 . S
C1543 C56 1.089 . S
C1558 C84 1.089 . S
C1593 C79 1.121 . S
C1608 C107 1.121 . S
C1643 C140 1.088 . S
C1658 C112 1.088 . S
C1693 C135 1.121 . S
C1708 C163 1.120 . S
C1743 C196 1.088 . S
C1758 C168 1.088 . S
C1793 C191 1.121 . S
C1808 C219 1.121 . S
