# Generated by pormake.
# Topology vbm, (6)-cn, num edge types: 1
# Building blocks:
#     Node 0, Type 0, BuildingBlock: HISSIN_clean_sbu_0, # of connection points: 6
#     Node 1, Type 0, BuildingBlock: HISSIN_clean_sbu_0, # of connection points: 6
#     Node 2, Type 0, BuildingBlock: HISSIN_clean_sbu_0, # of connection points: 6
#     Node 3, Type 0, BuildingBlock: HISSIN_clean_sbu_0, # of connection points: 6
#     Node 4, Type 0, BuildingBlock: HISSIN_clean_sbu_0, # of connection points: 6
#     Node 5, Type 0, BuildingBlock: HISSIN_clean_sbu_0, # of connection points: 6
#     Node 6, Type 0, BuildingBlock: HISSIN_clean_sbu_0, # of connection points: 6
#     Node 7, Type 0, BuildingBlock: HISSIN_clean_sbu_0, # of connection points: 6
#     Node 8, Type 0, BuildingBlock: HISSIN_clean_sbu_0, # of connection points: 6
#     Node 9, Type 0, BuildingBlock: HISSIN_clean_sbu_0, # of connection points: 6
#     Node 10, Type 0, BuildingBlock: HISSIN_clean_sbu_0, # of connection points: 6
#     Node 11, Type 0, BuildingBlock: HISSIN_clean_sbu_0, # of connection points: 6
#     Node 12, Type 0, BuildingBlock: HISSIN_clean_sbu_0, # of connection points: 6
#     Node 13, Type 0, BuildingBlock: HISSIN_clean_sbu_0, # of connection points: 6
#     Node 14, Type 0, BuildingBlock: HISSIN_clean_sbu_0, # of connection points: 6
#     Node 15, Type 0, BuildingBlock: HISSIN_clean_sbu_0, # of connection points: 6
#     Edge 16, Type (0, 0), BuildingBlock: OJICUG_clean_linker_0, # of connection points: 2
#     Edge 17, Type (0, 0), BuildingBlock: OJICUG_clean_linker_0, # of connection points: 2
#     Edge 18, Type (0, 0), BuildingBlock: OJICUG_clean_linker_0, # of connection points: 2
#     Edge 19, Type (0, 0), BuildingBlock: OJICUG_clean_linker_0, # of connection points: 2
#     Edge 20, Type (0, 0), BuildingBlock: OJICUG_clean_linker_0, # of connection points: 2
#     Edge 21, Type (0, 0), BuildingBlock: OJICUG_clean_linker_0, # of connection points: 2
#     Edge 22, Type (0, 0), BuildingBlock: OJICUG_clean_linker_0, # of connection points: 2
#     Edge 23, Type (0, 0), BuildingBlock: OJICUG_clean_linker_0, # of connection points: 2
#     Edge 24, Type (0, 0), BuildingBlock: OJICUG_clean_linker_0, # of connection points: 2
#     Edge 25, Type (0, 0), BuildingBlock: OJICUG_clean_linker_0, # of connection points: 2
#     Edge 26, Type (0, 0), BuildingBlock: OJICUG_clean_linker_0, # of connection points: 2
#     Edge 27, Type (0, 0), BuildingBlock: OJICUG_clean_linker_0, # of connection points: 2
#     Edge 28, Type (0, 0), BuildingBlock: OJICUG_clean_linker_0, # of connection points: 2
#     Edge 29, Type (0, 0), BuildingBlock: OJICUG_clean_linker_0, # of connection points: 2
#     Edge 30, Type (0, 0), BuildingBlock: OJICUG_clean_linker_0, # of connection points: 2
#     Edge 31, Type (0, 0), BuildingBlock: OJICUG_clean_linker_0, # of connection points: 2
#     Edge 32, Type (0, 0), BuildingBlock: OJICUG_clean_linker_0, # of connection points: 2
#     Edge 33, Type (0, 0), BuildingBlock: OJICUG_clean_linker_0, # of connection points: 2
#     Edge 34, Type (0, 0), BuildingBlock: OJICUG_clean_linker_0, # of connection points: 2
#     Edge 35, Type (0, 0), BuildingBlock: OJICUG_clean_linker_0, # of connection points: 2
#     Edge 36, Type (0, 0), BuildingBlock: OJICUG_clean_linker_0, # of connection points: 2
#     Edge 37, Type (0, 0), BuildingBlock: OJICUG_clean_linker_0, # of connection points: 2
#     Edge 38, Type (0, 0), BuildingBlock: OJICUG_clean_linker_0, # of connection points: 2
#     Edge 39, Type (0, 0), BuildingBlock: OJICUG_clean_linker_0, # of connection points: 2
#     Edge 40, Type (0, 0), BuildingBlock: OJICUG_clean_linker_0, # of connection points: 2
#     Edge 41, Type (0, 0), BuildingBlock: OJICUG_clean_linker_0, # of connection points: 2
#     Edge 42, Type (0, 0), BuildingBlock: OJICUG_clean_linker_0, # of connection points: 2
#     Edge 43, Type (0, 0), BuildingBlock: OJICUG_clean_linker_0, # of connection points: 2
#     Edge 44, Type (0, 0), BuildingBlock: OJICUG_clean_linker_0, # of connection points: 2
#     Edge 45, Type (0, 0), BuildingBlock: OJICUG_clean_linker_0, # of connection points: 2
#     Edge 46, Type (0, 0), BuildingBlock: OJICUG_clean_linker_0, # of connection points: 2
#     Edge 47, Type (0, 0), BuildingBlock: OJICUG_clean_linker_0, # of connection points: 2
#     Edge 48, Type (0, 0), BuildingBlock: OJICUG_clean_linker_0, # of connection points: 2
#     Edge 49, Type (0, 0), BuildingBlock: OJICUG_clean_linker_0, # of connection points: 2
#     Edge 50, Type (0, 0), BuildingBlock: OJICUG_clean_linker_0, # of connection points: 2
#     Edge 51, Type (0, 0), BuildingBlock: OJICUG_clean_linker_0, # of connection points: 2
#     Edge 52, Type (0, 0), BuildingBlock: OJICUG_clean_linker_0, # of connection points: 2
#     Edge 53, Type (0, 0), BuildingBlock: OJICUG_clean_linker_0, # of connection points: 2
#     Edge 54, Type (0, 0), BuildingBlock: OJICUG_clean_linker_0, # of connection points: 2
#     Edge 55, Type (0, 0), BuildingBlock: OJICUG_clean_linker_0, # of connection points: 2
#     Edge 56, Type (0, 0), BuildingBlock: OJICUG_clean_linker_0, # of connection points: 2
#     Edge 57, Type (0, 0), BuildingBlock: OJICUG_clean_linker_0, # of connection points: 2
#     Edge 58, Type (0, 0), BuildingBlock: OJICUG_clean_linker_0, # of connection points: 2
#     Edge 59, Type (0, 0), BuildingBlock: OJICUG_clean_linker_0, # of connection points: 2
#     Edge 60, Type (0, 0), BuildingBlock: OJICUG_clean_linker_0, # of connection points: 2
#     Edge 61, Type (0, 0), BuildingBlock: OJICUG_clean_linker_0, # of connection points: 2
#     Edge 62, Type (0, 0), BuildingBlock: OJICUG_clean_linker_0, # of connection points: 2
#     Edge 63, Type (0, 0), BuildingBlock: OJICUG_clean_linker_0, # of connection points: 2
# Relax obj value: 0.061
# Max RMSD: 0.150
# Mean RMSD: 0.150
data_MOF--net-vbm--node1-HISSIN_clean_sbu_0--edge1-OJICUG_clean_linker_0
_symmetry_space_group_name_H-M    P1
_symmetry_Int_Tables_number       1
_symmetry_cell_setting            triclinic
loop_
_symmetry_equiv_pos_as_xyz
'x, y, z'
_cell_length_a     39.507098
_cell_length_b     21.200563
_cell_length_c     41.772071
_cell_angle_alpha  89.960494
_cell_angle_beta   89.977508
_cell_angle_gamma 89.997928
loop_
_atom_site_label
_atom_site_type_symbol
_atom_site_fract_x
_atom_site_fract_y
_atom_site_fract_z
_atom_type_partial_charge
Eu0 Eu 0.13664 0.08963 0.12283 0.0
Eu1 Eu 0.1017 0.22201 0.14778 0.0
C2 C 0.11988 0.11071 0.19643 0.0
C3 C 0.1568 0.91533 0.11364 0.0
C4 C 0.12874 0.89883 0.13247 0.0
C5 C 0.17137 0.80437 0.10884 0.0
C6 C 0.12187 0.83548 0.13924 0.0
C7 C 0.17818 0.86781 0.10205 0.0
C8 C 0.14298 0.78734 0.12736 0.0
C9 C 0.16334 0.98177 0.10544 0.0
O10 O 0.1578 0.22776 0.15487 0.0
O11 O 0.17413 0.16794 0.11227 0.0
C12 C 0.18001 0.2135 0.13281 0.0
O13 O 0.10888 0.13148 0.0813 0.0
O14 O 0.0995 0.2972 0.1834 0.0
O15 O 0.06774 0.30225 0.14129 0.0
O16 O 0.11383 0.23546 0.0949 0.0
C17 C 0.10855 0.19124 0.07342 0.0
O18 O 0.08369 0.06297 0.1382 0.0
O19 O 0.05794 0.16012 0.13428 0.0
O20 O 0.09625 0.15169 0.18864 0.0
O21 O 0.13932 1.01028 0.08972 0.0
O22 O 0.17557 1.01697 0.12824 0.0
O23 O 0.1438 0.0957 0.17611 0.0
C24 C 0.08926 0.39783 0.16145 0.0
C25 C 0.11874 0.41213 0.14415 0.0
C26 C 0.07883 0.50987 0.16858 0.0
C27 C 0.12818 0.47497 0.13904 0.0
C28 C 0.06942 0.44701 0.17365 0.0
C29 C 0.10831 0.5247 0.15114 0.0
C30 C 0.07889 0.33191 0.16651 0.0
C31 C 0.05634 0.09833 0.13617 0.0
H32 H 0.11191 0.93495 0.14159 0.0
H33 H 0.18843 0.76869 0.0997 0.0
H34 H 0.09958 0.82418 0.15321 0.0
H35 H 0.20003 0.87973 0.08758 0.0
H36 H 0.13441 0.37464 0.13459 0.0
H37 H 0.06269 0.54688 0.17786 0.0
H38 H 0.15122 0.48458 0.12586 0.0
H39 H 0.0465 0.4368 0.18694 0.0
Eu40 Eu 0.84392 0.99018 0.12285 0.0
Eu41 Eu 0.87877 0.85772 0.14789 0.0
C42 C 0.86063 0.96909 0.19647 0.0
C43 C 0.82374 0.1645 0.11365 0.0
C44 C 0.85151 0.18092 0.13284 0.0
C45 C 0.80937 0.27551 0.10854 0.0
C46 C 0.85833 0.24426 0.13965 0.0
C47 C 0.80261 0.21208 0.10171 0.0
C48 C 0.83747 0.29247 0.12742 0.0
C49 C 0.8173 0.09809 0.10538 0.0
O50 O 0.82265 0.8521 0.15496 0.0
O51 O 0.80642 0.91193 0.1123 0.0
C52 C 0.80049 0.86638 0.13287 0.0
O53 O 0.87163 0.94822 0.08132 0.0
O54 O 0.88083 0.78246 0.18354 0.0
O55 O 0.91273 0.77747 0.1415 0.0
O56 O 0.86666 0.84425 0.09503 0.0
C57 C 0.87195 0.88845 0.0735 0.0
O58 O 0.89686 1.01671 0.13822 0.0
O59 O 0.92258 0.91953 0.13434 0.0
O60 O 0.88422 0.92802 0.18871 0.0
O61 O 0.84145 0.06971 0.08978 0.0
O62 O 0.80492 0.06275 0.12809 0.0
O63 O 0.83673 0.98419 0.17613 0.0
C64 C 0.89111 0.68187 0.16163 0.0
C65 C 0.86188 0.66763 0.14398 0.0
C66 C 0.90128 0.56981 0.1691 0.0
C67 C 0.85244 0.6048 0.13884 0.0
C68 C 0.91069 0.63266 0.17418 0.0
C69 C 0.87206 0.55504 0.15129 0.0
C70 C 0.90148 0.74777 0.1667 0.0
C71 C 0.9242 0.98132 0.1362 0.0
H72 H 0.86815 0.14475 0.14223 0.0
H73 H 0.7925 0.31124 0.09912 0.0
H74 H 0.8804 0.2555 0.15392 0.0
H75 H 0.78099 0.20022 0.08694 0.0
H76 H 0.84641 0.70515 0.13414 0.0
H77 H 0.91722 0.53277 0.17866 0.0
H78 H 0.8296 0.59523 0.12537 0.0
H79 H 0.93341 0.64283 0.18776 0.0
Eu80 Eu 0.13667 0.99001 0.38841 0.0
Eu81 Eu 0.10173 0.85763 0.3635 0.0
C82 C 0.11991 0.96892 0.31482 0.0
C83 C 0.15686 0.1643 0.39757 0.0
C84 C 0.1288 0.18082 0.37876 0.0
C85 C 0.17143 0.27526 0.40236 0.0
C86 C 0.12194 0.24417 0.37199 0.0
C87 C 0.17824 0.21181 0.40914 0.0
C88 C 0.14305 0.2923 0.38386 0.0
C89 C 0.16338 0.09787 0.40578 0.0
O90 O 0.15784 0.85187 0.35638 0.0
O91 O 0.17415 0.91169 0.39897 0.0
C92 C 0.18004 0.86612 0.37843 0.0
O93 O 0.10891 0.94818 0.42996 0.0
O94 O 0.09953 0.78244 0.32788 0.0
O95 O 0.06778 0.77739 0.37002 0.0
O96 O 0.11386 0.8442 0.41637 0.0
C97 C 0.10858 0.88843 0.43785 0.0
O98 O 0.08373 1.01667 0.37307 0.0
O99 O 0.05797 0.91954 0.37701 0.0
O100 O 0.09629 0.92793 0.32263 0.0
O101 O 0.13935 0.06938 0.4215 0.0
O102 O 0.17561 0.06264 0.38297 0.0
O103 O 0.14384 0.98393 0.33513 0.0
C104 C 0.0893 0.68181 0.34984 0.0
C105 C 0.11879 0.66752 0.36711 0.0
C106 C 0.07889 0.56977 0.34271 0.0
C107 C 0.12824 0.60467 0.37221 0.0
C108 C 0.06947 0.63263 0.33765 0.0
C109 C 0.10837 0.55494 0.36012 0.0
C110 C 0.07893 0.74773 0.34479 0.0
C111 C 0.05638 0.98133 0.37511 0.0
H112 H 0.11197 0.14471 0.36964 0.0
H113 H 0.1885 0.31093 0.41149 0.0
H114 H 0.09966 0.25548 0.35803 0.0
H115 H 0.20008 0.19988 0.42361 0.0
H116 H 0.13445 0.70501 0.37666 0.0
H117 H 0.06275 0.53276 0.33344 0.0
H118 H 0.15128 0.59506 0.38538 0.0
H119 H 0.04655 0.64284 0.32437 0.0
Eu120 Eu 0.84397 0.08963 0.38842 0.0
Eu121 Eu 0.87886 0.22208 0.3634 0.0
C122 C 0.86068 0.11079 0.3148 0.0
C123 C 0.8238 0.91531 0.39764 0.0
C124 C 0.85158 0.8989 0.37843 0.0
C125 C 0.80949 0.80429 0.4028 0.0
C126 C 0.85843 0.83556 0.37164 0.0
C127 C 0.80269 0.86771 0.40961 0.0
C128 C 0.83759 0.78734 0.3839 0.0
C129 C 0.81732 0.98172 0.40588 0.0
O130 O 0.82275 0.22776 0.35634 0.0
O131 O 0.80647 0.16791 0.39899 0.0
C132 C 0.80057 0.21348 0.37842 0.0
O133 O 0.87169 0.1315 0.42994 0.0
O134 O 0.88096 0.29736 0.32777 0.0
O135 O 0.91284 0.30228 0.3698 0.0
O136 O 0.86674 0.23549 0.41627 0.0
C137 C 0.87202 0.19126 0.43778 0.0
O138 O 0.89691 0.06306 0.37302 0.0
O139 O 0.92265 0.16021 0.37691 0.0
O140 O 0.88429 0.1518 0.32255 0.0
O141 O 0.84142 1.01014 0.42151 0.0
O142 O 0.805 1.01703 0.38314 0.0
O143 O 0.83678 0.09571 0.33515 0.0
C144 C 0.89126 0.39793 0.3497 0.0
C145 C 0.86204 0.41218 0.36738 0.0
C146 C 0.90143 0.50998 0.3422 0.0
C147 C 0.85261 0.47502 0.37252 0.0
C148 C 0.91084 0.44713 0.33711 0.0
C149 C 0.87223 0.52477 0.36005 0.0
C150 C 0.90162 0.33202 0.34461 0.0
C151 C 0.92426 0.09842 0.37504 0.0
H152 H 0.86821 0.93508 0.36901 0.0
H153 H 0.79263 0.76854 0.41225 0.0
H154 H 0.8805 0.82434 0.35736 0.0
H155 H 0.78107 0.87956 0.42439 0.0
H156 H 0.84657 0.37468 0.37724 0.0
H157 H 0.91737 0.54701 0.33262 0.0
H158 H 0.82978 0.4846 0.38602 0.0
H159 H 0.93354 0.43695 0.3235 0.0
Eu160 Eu 0.87876 0.85746 0.86349 0.0
Eu161 Eu 0.84382 0.98984 0.88842 0.0
C162 C 0.87192 0.88825 0.93784 0.0
C163 C 0.89124 0.68163 0.84985 0.0
C164 C 0.86212 0.66731 0.86768 0.0
C165 C 0.90134 0.56962 0.84222 0.0
C166 C 0.85271 0.60445 0.87283 0.0
C167 C 0.91073 0.63249 0.83713 0.0
C168 C 0.87224 0.55476 0.86021 0.0
C169 C 0.90157 0.74756 0.84475 0.0
O170 O 0.89676 1.01651 0.87304 0.0
O171 O 0.92252 0.91937 0.87696 0.0
C172 C 0.92411 0.98116 0.87507 0.0
O173 O 0.8842 0.92777 0.82261 0.0
O174 O 0.84118 0.06919 0.92154 0.0
O175 O 0.80489 0.06249 0.88306 0.0
O176 O 0.83666 0.98381 0.83515 0.0
C177 C 0.86059 0.96879 0.81482 0.0
O178 O 0.82265 0.85168 0.85641 0.0
O179 O 0.80633 0.91152 0.899 0.0
O180 O 0.87159 0.948 0.92995 0.0
O181 O 0.88092 0.78221 0.82789 0.0
O182 O 0.91276 0.77728 0.86994 0.0
O183 O 0.86664 0.84402 0.91637 0.0
C184 C 0.82366 0.16413 0.89765 0.0
C185 C 0.85135 0.18054 0.87832 0.0
C186 C 0.80955 0.27518 0.90304 0.0
C187 C 0.85825 0.2439 0.87157 0.0
C188 C 0.8027 0.21174 0.9098 0.0
C189 C 0.83756 0.29213 0.884 0.0
C190 C 0.81714 0.09769 0.90585 0.0
C191 C 0.80045 0.86594 0.87847 0.0
H192 H 0.84672 0.70477 0.87764 0.0
H193 H 0.91722 0.53263 0.83253 0.0
H194 H 0.82995 0.59482 0.88644 0.0
H195 H 0.93336 0.64273 0.82341 0.0
H196 H 0.86787 0.14434 0.86877 0.0
H197 H 0.7928 0.31094 0.91262 0.0
H198 H 0.88025 0.25512 0.85718 0.0
H199 H 0.78115 0.1999 0.92469 0.0
Eu200 Eu 0.10167 0.22183 0.86338 0.0
Eu201 Eu 0.1365 0.08937 0.88845 0.0
C202 C 0.10846 0.19112 0.93777 0.0
C203 C 0.08933 0.39769 0.84966 0.0
C204 C 0.11835 0.41194 0.86762 0.0
C205 C 0.07937 0.50974 0.84191 0.0
C206 C 0.12778 0.47476 0.87277 0.0
C207 C 0.06995 0.44689 0.83681 0.0
C208 C 0.10836 0.52452 0.86003 0.0
C209 C 0.07897 0.33179 0.84456 0.0
O210 O 0.08358 0.06284 0.87303 0.0
O211 O 0.05786 0.16001 0.8769 0.0
C212 C 0.05624 0.09822 0.87504 0.0
O213 O 0.09626 0.15154 0.82255 0.0
O214 O 0.13893 1.00983 0.92151 0.0
O215 O 0.17551 1.01682 0.88326 0.0
O216 O 0.14373 0.09535 0.83517 0.0
C217 C 0.11986 0.11046 0.81481 0.0
O218 O 0.15779 0.22743 0.85632 0.0
O219 O 0.174 0.16763 0.899 0.0
O220 O 0.10877 0.13135 0.92995 0.0
O221 O 0.09966 0.29712 0.82774 0.0
O222 O 0.06769 0.30206 0.86974 0.0
O223 O 0.11377 0.2353 0.91625 0.0
C224 C 0.1567 0.91506 0.89768 0.0
C225 C 0.12914 0.89867 0.8782 0.0
C226 C 0.17085 0.80401 0.90308 0.0
C227 C 0.12232 0.83532 0.8714 0.0
C228 C 0.17762 0.86744 0.9099 0.0
C229 C 0.14296 0.78709 0.88392 0.0
C230 C 0.16311 0.98147 0.90595 0.0
C231 C 0.17995 0.21316 0.87842 0.0
H232 H 0.13367 0.37442 0.87767 0.0
H233 H 0.06358 0.54678 0.83212 0.0
H234 H 0.15046 0.48433 0.88648 0.0
H235 H 0.04741 0.43672 0.82299 0.0
H236 H 0.11265 0.93487 0.8686 0.0
H237 H 0.18756 0.76825 0.91273 0.0
H238 H 0.10041 0.82411 0.85691 0.0
H239 H 0.19907 0.87927 0.92489 0.0
Eu240 Eu 0.8789 0.22202 0.6478 0.0
Eu241 Eu 0.84398 0.08965 0.62286 0.0
C242 C 0.87208 0.19128 0.57344 0.0
C243 C 0.89136 0.39784 0.66145 0.0
C244 C 0.86208 0.41216 0.64389 0.0
C245 C 0.90162 0.50987 0.66883 0.0
C246 C 0.85265 0.47501 0.63876 0.0
C247 C 0.91102 0.447 0.67392 0.0
C248 C 0.87235 0.52472 0.65112 0.0
C249 C 0.9017 0.33191 0.66654 0.0
O250 O 0.89691 0.06299 0.63824 0.0
O251 O 0.92267 0.16011 0.63431 0.0
C252 C 0.92426 0.09833 0.63621 0.0
O253 O 0.8843 0.1517 0.68868 0.0
O254 O 0.84136 1.01029 0.58975 0.0
O255 O 0.80504 1.017 0.62824 0.0
O256 O 0.83677 0.09569 0.67613 0.0
C257 C 0.86068 0.1107 0.69646 0.0
O258 O 0.82279 0.22779 0.65489 0.0
O259 O 0.8065 0.16797 0.6123 0.0
O260 O 0.87176 0.13152 0.58132 0.0
O261 O 0.88105 0.29724 0.68341 0.0
O262 O 0.91289 0.30222 0.64133 0.0
O263 O 0.86679 0.23549 0.59493 0.0
C264 C 0.82384 0.91535 0.61365 0.0
C265 C 0.8517 0.8989 0.63273 0.0
C266 C 0.80951 0.80434 0.60856 0.0
C267 C 0.85858 0.83554 0.63949 0.0
C268 C 0.80268 0.86778 0.60178 0.0
C269 C 0.83769 0.78736 0.62734 0.0
C270 C 0.81731 0.98179 0.60544 0.0
C271 C 0.8006 0.21354 0.63284 0.0
H272 H 0.84654 0.37468 0.63413 0.0
H273 H 0.91763 0.54686 0.67832 0.0
H274 H 0.82976 0.48464 0.62536 0.0
H275 H 0.93378 0.43677 0.68743 0.0
H276 H 0.86836 0.93506 0.64207 0.0
H277 H 0.79261 0.76862 0.59919 0.0
H278 H 0.88071 0.82429 0.65368 0.0
H279 H 0.78099 0.87967 0.58709 0.0
Eu280 Eu 0.10174 0.85749 0.64788 0.0
Eu281 Eu 0.13666 0.98994 0.6229 0.0
C282 C 0.10859 0.88838 0.57351 0.0
C283 C 0.08934 0.68163 0.66157 0.0
C284 C 0.11859 0.66739 0.64393 0.0
C285 C 0.07916 0.56958 0.66904 0.0
C286 C 0.12803 0.60456 0.6388 0.0
C287 C 0.06974 0.63243 0.67412 0.0
C288 C 0.10839 0.5548 0.65125 0.0
C289 C 0.07897 0.74754 0.66665 0.0
O290 O 0.08372 1.01653 0.63828 0.0
O291 O 0.05797 0.91939 0.63438 0.0
C292 C 0.05637 0.98118 0.63626 0.0
O293 O 0.0963 0.92774 0.68873 0.0
O294 O 0.13925 0.06944 0.58982 0.0
O295 O 0.17563 0.06253 0.62822 0.0
O296 O 0.14384 0.98379 0.67617 0.0
C297 C 0.11991 0.96873 0.6965 0.0
O298 O 0.15785 0.85177 0.65494 0.0
O299 O 0.17414 0.91166 0.61231 0.0
O300 O 0.10893 0.94813 0.58137 0.0
O301 O 0.09961 0.7822 0.68351 0.0
O302 O 0.06778 0.77728 0.64145 0.0
O303 O 0.11386 0.84413 0.59501 0.0
C304 C 0.15685 0.16426 0.61371 0.0
C305 C 0.12905 0.18067 0.63288 0.0
C306 C 0.17119 0.27527 0.60858 0.0
C307 C 0.12219 0.24402 0.63966 0.0
C308 C 0.17799 0.21185 0.60178 0.0
C309 C 0.14306 0.29222 0.62744 0.0
C310 C 0.16334 0.09784 0.60547 0.0
C311 C 0.18004 0.86605 0.63286 0.0
H312 H 0.13408 0.7049 0.63411 0.0
H313 H 0.06319 0.53255 0.67859 0.0
H314 H 0.15089 0.59498 0.62534 0.0
H315 H 0.04701 0.64261 0.6877 0.0
H316 H 0.11239 0.1445 0.64226 0.0
H317 H 0.18807 0.31101 0.59916 0.0
H318 H 0.10009 0.25525 0.65391 0.0
H319 H 0.19964 0.2 0.58703 0.0
Eu320 Eu 0.63656 0.58984 0.12279 0.0
Eu321 Eu 0.60165 0.72222 0.14778 0.0
C322 C 0.61984 0.61085 0.19642 0.0
C323 C 0.65673 0.41555 0.11356 0.0
C324 C 0.62886 0.39908 0.13265 0.0
C325 C 0.6711 0.30455 0.1085 0.0
C326 C 0.62199 0.33572 0.13943 0.0
C327 C 0.67791 0.36799 0.10171 0.0
C328 C 0.64291 0.28755 0.12729 0.0
C329 C 0.66323 0.48198 0.10534 0.0
O330 O 0.65776 0.72792 0.15486 0.0
O331 O 0.67406 0.66815 0.11224 0.0
C332 C 0.67996 0.71367 0.1328 0.0
O333 O 0.60882 0.63178 0.08127 0.0
O334 O 0.59951 0.79743 0.1834 0.0
O335 O 0.56767 0.80244 0.14135 0.0
O336 O 0.61378 0.73574 0.09491 0.0
C337 C 0.60849 0.69155 0.07341 0.0
O338 O 0.58363 0.5632 0.13819 0.0
O339 O 0.55787 0.66034 0.1343 0.0
O340 O 0.59623 0.65188 0.18865 0.0
O341 O 0.63916 0.51047 0.08969 0.0
O342 O 0.67552 0.51721 0.12811 0.0
O343 O 0.64374 0.5958 0.17607 0.0
C344 C 0.58922 0.89804 0.16146 0.0
C345 C 0.61852 0.91234 0.14389 0.0
C346 C 0.57897 1.01008 0.16883 0.0
C347 C 0.62795 0.97519 0.13875 0.0
C348 C 0.56956 0.94721 0.17392 0.0
C349 C 0.60825 1.02491 0.15111 0.0
C350 C 0.57887 0.83212 0.16655 0.0
C351 C 0.55628 0.59855 0.13618 0.0
H352 H 0.61217 0.43523 0.14198 0.0
H353 H 0.68802 0.26883 0.09915 0.0
H354 H 0.59985 0.32445 0.15361 0.0
H355 H 0.69961 0.37988 0.08702 0.0
H356 H 0.63406 0.87486 0.13413 0.0
H357 H 0.56296 0.04708 0.17831 0.0
H358 H 0.65085 0.9848 0.12535 0.0
H359 H 0.54679 0.937 0.18743 0.0
Eu360 Eu 0.34388 0.49017 0.12289 0.0
Eu361 Eu 0.3788 0.35771 0.14785 0.0
C362 C 0.36062 0.46894 0.19649 0.0
C363 C 0.32369 0.66449 0.11372 0.0
C364 C 0.35158 0.68092 0.13276 0.0
C365 C 0.30927 0.77549 0.10871 0.0
C366 C 0.35843 0.74426 0.13954 0.0
C367 C 0.30247 0.71206 0.10192 0.0
C368 C 0.33748 0.79245 0.12745 0.0
C369 C 0.3172 0.59807 0.10549 0.0
O370 O 0.32268 0.35198 0.15494 0.0
O371 O 0.3064 0.41188 0.11232 0.0
C372 C 0.3005 0.36628 0.13287 0.0
O373 O 0.37163 0.44836 0.08135 0.0
O374 O 0.38094 0.28243 0.18348 0.0
O375 O 0.41276 0.27749 0.14139 0.0
O376 O 0.36668 0.34436 0.09499 0.0
C377 C 0.37196 0.38861 0.07349 0.0
O378 O 0.39682 0.51676 0.13825 0.0
O379 O 0.42257 0.41962 0.13433 0.0
O380 O 0.38424 0.42795 0.1887 0.0
O381 O 0.34128 0.56966 0.08981 0.0
O382 O 0.30492 0.56276 0.12825 0.0
O383 O 0.3367 0.484 0.17617 0.0
C384 C 0.3912 0.18185 0.16154 0.0
C385 C 0.36188 0.16762 0.14402 0.0
C386 C 0.40145 0.0698 0.16889 0.0
C387 C 0.35243 0.10479 0.13891 0.0
C388 C 0.41088 0.13264 0.17396 0.0
C389 C 0.37214 0.05502 0.15123 0.0
C390 C 0.40157 0.24776 0.1666 0.0
C391 C 0.42417 0.48141 0.13621 0.0
H392 H 0.36829 0.64475 0.14205 0.0
H393 H 0.29232 0.81122 0.0994 0.0
H394 H 0.38058 0.7555 0.15369 0.0
H395 H 0.28076 0.7002 0.08727 0.0
H396 H 0.34633 0.20513 0.13429 0.0
H397 H 0.41747 1.03276 0.17834 0.0
H398 H 0.32951 0.09522 0.12555 0.0
H399 H 0.43366 0.14282 0.18743 0.0
Eu400 Eu 0.63667 0.49012 0.38845 0.0
Eu401 Eu 0.60179 0.35772 0.36348 0.0
C402 C 0.61992 0.46913 0.31484 0.0
C403 C 0.65688 0.6644 0.39764 0.0
C404 C 0.62911 0.68088 0.37844 0.0
C405 C 0.67121 0.7754 0.4028 0.0
C406 C 0.62227 0.74424 0.37166 0.0
C407 C 0.67799 0.71195 0.4096 0.0
C408 C 0.64311 0.79241 0.38391 0.0
C409 C 0.66333 0.59796 0.40589 0.0
O410 O 0.6579 0.35207 0.35636 0.0
O411 O 0.67417 0.41181 0.39899 0.0
C412 C 0.68008 0.36629 0.37843 0.0
O413 O 0.60894 0.44816 0.42999 0.0
O414 O 0.59967 0.28253 0.32786 0.0
O415 O 0.56783 0.27748 0.36993 0.0
O416 O 0.61391 0.34421 0.41635 0.0
C417 C 0.60863 0.38839 0.43785 0.0
O418 O 0.58373 0.51673 0.37309 0.0
O419 O 0.558 0.41957 0.377 0.0
O420 O 0.59633 0.42806 0.32262 0.0
O421 O 0.63922 0.56953 0.42152 0.0
O422 O 0.67566 0.5627 0.38314 0.0
O423 O 0.64383 0.48421 0.33516 0.0
C424 C 0.5894 0.1819 0.3498 0.0
C425 C 0.61863 0.16761 0.36746 0.0
C426 C 0.57925 0.06987 0.3423 0.0
C427 C 0.62807 0.10477 0.37258 0.0
C428 C 0.56983 0.13273 0.33723 0.0
C429 C 0.60846 0.05504 0.36012 0.0
C430 C 0.57903 0.24781 0.34472 0.0
C431 C 0.55638 0.48136 0.37512 0.0
H432 H 0.61247 0.64473 0.36904 0.0
H433 H 0.68807 0.81111 0.41224 0.0
H434 H 0.6002 0.75552 0.35739 0.0
H435 H 0.69961 0.70005 0.42437 0.0
H436 H 0.63409 0.2051 0.3773 0.0
H437 H 0.56332 1.03286 0.33273 0.0
H438 H 0.65091 0.09516 0.38606 0.0
H439 H 0.54712 0.14294 0.32364 0.0
Eu440 Eu 0.34396 0.58953 0.38841 0.0
Eu441 Eu 0.37883 0.72198 0.36337 0.0
C442 C 0.36066 0.61067 0.31479 0.0
C443 C 0.32379 0.41521 0.39762 0.0
C444 C 0.35173 0.39876 0.37863 0.0
C445 C 0.30929 0.30423 0.40253 0.0
C446 C 0.35857 0.33542 0.37182 0.0
C447 C 0.30251 0.36765 0.40935 0.0
C448 C 0.33755 0.28725 0.38384 0.0
C449 C 0.31731 0.48162 0.40587 0.0
O450 O 0.32272 0.72764 0.35632 0.0
O451 O 0.30646 0.6678 0.39897 0.0
C452 C 0.30054 0.71336 0.37841 0.0
O453 O 0.37167 0.63144 0.42992 0.0
O454 O 0.38093 0.79723 0.32772 0.0
O455 O 0.41279 0.80222 0.36976 0.0
O456 O 0.36671 0.73542 0.41624 0.0
C457 C 0.372 0.69121 0.43775 0.0
O458 O 0.3969 0.56297 0.37302 0.0
O459 O 0.42262 0.66014 0.37689 0.0
O460 O 0.38428 0.65169 0.32254 0.0
O461 O 0.34141 0.51004 0.4215 0.0
O462 O 0.30499 0.51693 0.38313 0.0
O463 O 0.33675 0.59562 0.33514 0.0
C464 C 0.3912 0.89783 0.34963 0.0
C465 C 0.36183 0.91207 0.36708 0.0
C466 C 0.40152 1.00989 0.34236 0.0
C467 C 0.35239 0.9749 0.37221 0.0
C468 C 0.41094 0.94704 0.33728 0.0
C469 C 0.37216 1.02467 0.35996 0.0
C470 C 0.40157 0.83193 0.34456 0.0
C471 C 0.42424 0.59835 0.37503 0.0
H472 H 0.36849 0.43491 0.36939 0.0
H473 H 0.29229 0.26851 0.41178 0.0
H474 H 0.38076 0.32417 0.35772 0.0
H475 H 0.28076 0.37953 0.42396 0.0
H476 H 0.34623 0.87456 0.37676 0.0
H477 H 0.41759 0.04693 0.33297 0.0
H478 H 0.32943 0.98448 0.38552 0.0
H479 H 0.43377 0.93687 0.32385 0.0
Eu480 Eu 0.37875 0.35756 0.86349 0.0
Eu481 Eu 0.34374 0.48995 0.88835 0.0
C482 C 0.37188 0.3885 0.93782 0.0
C483 C 0.39124 0.18173 0.84988 0.0
C484 C 0.36179 0.16744 0.86723 0.0
C485 C 0.40161 0.06969 0.84268 0.0
C486 C 0.35234 0.10459 0.87234 0.0
C487 C 0.41104 0.13256 0.83762 0.0
C488 C 0.37218 0.05487 0.86017 0.0
C489 C 0.4016 0.24765 0.84481 0.0
O490 O 0.39668 0.51667 0.87299 0.0
O491 O 0.42248 0.41957 0.87693 0.0
C492 C 0.42405 0.48136 0.87502 0.0
O493 O 0.38419 0.42781 0.82259 0.0
O494 O 0.34097 0.56927 0.92147 0.0
O495 O 0.30483 0.5626 0.88286 0.0
O496 O 0.3366 0.48374 0.83508 0.0
C497 C 0.36055 0.46875 0.81478 0.0
O498 O 0.32265 0.35172 0.85638 0.0
O499 O 0.30628 0.41159 0.89895 0.0
O500 O 0.37154 0.44823 0.9299 0.0
O501 O 0.38101 0.28233 0.82789 0.0
O502 O 0.41271 0.27735 0.87004 0.0
O503 O 0.36661 0.34422 0.91637 0.0
C504 C 0.32355 0.66423 0.89752 0.0
C505 C 0.35159 0.68072 0.87866 0.0
C506 C 0.30907 0.77522 0.90242 0.0
C507 C 0.35848 0.74408 0.87192 0.0
C508 C 0.30223 0.71177 0.90918 0.0
C509 C 0.33743 0.79223 0.88387 0.0
C510 C 0.31699 0.59779 0.9057 0.0
C511 C 0.30043 0.36598 0.87842 0.0
H512 H 0.34615 0.20493 0.87684 0.0
H513 H 0.41772 1.03269 0.83335 0.0
H514 H 0.32933 0.09498 0.88556 0.0
H515 H 0.43392 0.14277 0.82428 0.0
H516 H 0.36838 0.64459 0.86948 0.0
H517 H 0.29205 0.81091 0.91162 0.0
H518 H 0.38075 0.75536 0.85791 0.0
H519 H 0.2804 0.69986 0.92369 0.0
Eu520 Eu 0.60164 0.72209 0.86335 0.0
Eu521 Eu 0.63637 0.58961 0.88853 0.0
C522 C 0.60833 0.69152 0.93777 0.0
C523 C 0.58932 0.89797 0.8497 0.0
C524 C 0.61704 0.91232 0.86939 0.0
C525 C 0.58061 1.00991 0.84034 0.0
C526 C 0.62641 0.97514 0.87463 0.0
C527 C 0.57124 0.94706 0.83517 0.0
C528 C 0.60827 1.02479 0.86022 0.0
C529 C 0.57903 0.83207 0.84446 0.0
O530 O 0.58349 0.56311 0.87299 0.0
O531 O 0.55778 0.6603 0.87681 0.0
C532 C 0.55615 0.59851 0.87495 0.0
O533 O 0.5963 0.65178 0.82252 0.0
O534 O 0.63851 0.50998 0.92156 0.0
O535 O 0.67547 0.51717 0.88364 0.0
O536 O 0.64365 0.59529 0.83524 0.0
C537 C 0.61985 0.61058 0.81483 0.0
O538 O 0.65778 0.72753 0.85635 0.0
O539 O 0.67389 0.66784 0.89909 0.0
O540 O 0.6086 0.63174 0.92997 0.0
O541 O 0.59988 0.79752 0.82776 0.0
O542 O 0.56757 0.8022 0.86952 0.0
O543 O 0.61367 0.73566 0.91623 0.0
C544 C 0.65663 0.41531 0.8979 0.0
C545 C 0.63041 0.39909 0.8768 0.0
C546 C 0.66943 0.30408 0.90502 0.0
C547 C 0.62358 0.33573 0.87001 0.0
C548 C 0.67621 0.36751 0.9118 0.0
C549 C 0.64286 0.28733 0.88421 0.0
C550 C 0.66289 0.48175 0.90622 0.0
C551 C 0.67989 0.71329 0.87848 0.0
H552 H 0.63138 0.87489 0.88073 0.0
H553 H 0.56581 0.04689 0.82919 0.0
H554 H 0.64808 0.98478 0.88973 0.0
H555 H 0.54972 0.93681 0.81996 0.0
H556 H 0.61493 0.43545 0.86592 0.0
H557 H 0.68508 0.26816 0.91602 0.0
H558 H 0.60269 0.32466 0.85421 0.0
H559 H 0.69659 0.37921 0.92809 0.0
Eu560 Eu 0.37884 0.72187 0.64775 0.0
Eu561 Eu 0.34396 0.58948 0.62278 0.0
C562 C 0.37204 0.69118 0.57339 0.0
C563 C 0.39124 0.89769 0.66143 0.0
C564 C 0.362 0.91199 0.64379 0.0
C565 C 0.40143 1.00972 0.66888 0.0
C566 C 0.35257 0.97483 0.63866 0.0
C567 C 0.41084 0.94686 0.67396 0.0
C568 C 0.3722 1.02455 0.65109 0.0
C569 C 0.4016 0.83177 0.66651 0.0
O570 O 0.39688 0.56284 0.63818 0.0
O571 O 0.42263 0.65999 0.63427 0.0
C572 C 0.42423 0.5982 0.63617 0.0
O573 O 0.38425 0.65154 0.68862 0.0
O574 O 0.3414 0.51009 0.58968 0.0
O575 O 0.30499 0.51687 0.62809 0.0
O576 O 0.33674 0.59546 0.67605 0.0
C577 C 0.36063 0.61052 0.69639 0.0
O578 O 0.32273 0.72755 0.65485 0.0
O579 O 0.30647 0.66778 0.61222 0.0
O580 O 0.37174 0.63141 0.58126 0.0
O581 O 0.38095 0.79708 0.68337 0.0
O582 O 0.41281 0.8021 0.64131 0.0
O583 O 0.36673 0.73537 0.59489 0.0
C584 C 0.32378 0.41519 0.61356 0.0
C585 C 0.35158 0.39872 0.63271 0.0
C586 C 0.30944 0.30419 0.60843 0.0
C587 C 0.35843 0.33536 0.6395 0.0
C588 C 0.30265 0.36764 0.60164 0.0
C589 C 0.33756 0.28719 0.62728 0.0
C590 C 0.3173 0.48163 0.60533 0.0
C591 C 0.30055 0.7133 0.63278 0.0
H592 H 0.34652 0.8745 0.63397 0.0
H593 H 0.41739 0.04673 0.67843 0.0
H594 H 0.32972 0.98444 0.6252 0.0
H595 H 0.43356 0.93664 0.68753 0.0
H596 H 0.36823 0.43486 0.6421 0.0
H597 H 0.29256 0.26848 0.59902 0.0
H598 H 0.38052 0.32408 0.65373 0.0
H599 H 0.281 0.37954 0.58689 0.0
Eu600 Eu 0.60182 0.3576 0.6479 0.0
Eu601 Eu 0.63664 0.49008 0.62282 0.0
C602 C 0.60862 0.38832 0.5735 0.0
C603 C 0.58949 0.18174 0.66159 0.0
C604 C 0.61799 0.16746 0.64289 0.0
C605 C 0.58005 0.06973 0.67006 0.0
C606 C 0.62741 0.10464 0.63772 0.0
C607 C 0.57064 0.13257 0.67518 0.0
C608 C 0.60851 0.05491 0.65119 0.0
C609 C 0.57914 0.24763 0.66675 0.0
O610 O 0.58371 0.5166 0.63826 0.0
O611 O 0.558 0.41941 0.63441 0.0
C612 C 0.55637 0.4812 0.63626 0.0
O613 O 0.59638 0.42789 0.68874 0.0
O614 O 0.63899 0.56967 0.58978 0.0
O615 O 0.67569 0.56255 0.62791 0.0
O616 O 0.64382 0.48421 0.67611 0.0
C617 C 0.61995 0.46901 0.69647 0.0
O618 O 0.65794 0.35206 0.65495 0.0
O619 O 0.67415 0.41182 0.61225 0.0
O620 O 0.60893 0.44809 0.58132 0.0
O621 O 0.59987 0.28226 0.68352 0.0
O622 O 0.56782 0.27742 0.64161 0.0
O623 O 0.61392 0.34412 0.59503 0.0
C624 C 0.6569 0.66438 0.61356 0.0
C625 C 0.62988 0.68069 0.63374 0.0
C626 C 0.6705 0.77551 0.60741 0.0
C627 C 0.62306 0.74405 0.64053 0.0
C628 C 0.67728 0.71207 0.60061 0.0
C629 C 0.64315 0.79236 0.62729 0.0
C630 C 0.66325 0.59795 0.60526 0.0
C631 C 0.6801 0.36631 0.63284 0.0
H632 H 0.6329 0.20494 0.63228 0.0
H633 H 0.56467 1.03271 0.68044 0.0
H634 H 0.64968 0.09504 0.62341 0.0
H635 H 0.54851 0.14277 0.6896 0.0
H636 H 0.6138 0.64442 0.6439 0.0
H637 H 0.68678 0.81134 0.59717 0.0
H638 H 0.60156 0.7552 0.65559 0.0
H639 H 0.6983 0.7003 0.58505 0.0
C640 C 0.22614 0.26988 0.10283 0.0
C641 C 0.21164 0.25022 0.13191 0.0
H642 H 0.26539 0.32461 0.08025 0.0
C643 C 0.22597 0.27054 0.16083 0.0
H644 H 0.21515 0.25547 0.08023 0.0
C645 C 0.25454 0.30899 0.16085 0.0
C646 C 0.26888 0.32952 0.13194 0.0
H647 H 0.21515 0.25633 0.18357 0.0
H648 H 0.26535 0.32306 0.1836 0.0
C649 C 0.2544 0.31005 0.10284 0.0
C650 C 0.7545 0.80914 0.16084 0.0
C651 C 0.76885 0.82964 0.13193 0.0
H652 H 0.71509 0.75652 0.18356 0.0
C653 C 0.75438 0.81016 0.10284 0.0
H654 H 0.7653 0.82321 0.18359 0.0
C655 C 0.72611 0.77001 0.10282 0.0
C656 C 0.7116 0.75038 0.13189 0.0
H657 H 0.76538 0.8247 0.08025 0.0
H658 H 0.71513 0.7556 0.08021 0.0
C659 C 0.72592 0.77071 0.16082 0.0
C660 C 0.25445 0.76969 0.40842 0.0
C661 C 0.2689 0.75008 0.37934 0.0
H662 H 0.21521 0.8244 0.43102 0.0
C663 C 0.25453 0.77043 0.35042 0.0
H664 H 0.26546 0.75527 0.43102 0.0
C665 C 0.22596 0.80888 0.35042 0.0
C666 C 0.21166 0.82936 0.37934 0.0
H667 H 0.26533 0.75624 0.32768 0.0
H668 H 0.21513 0.82296 0.32768 0.0
C669 C 0.22618 0.80987 0.40842 0.0
C670 C 0.75459 0.27062 0.35043 0.0
C671 C 0.76893 0.25021 0.37935 0.0
H672 H 0.71521 0.32322 0.32769 0.0
C673 C 0.75446 0.26979 0.40844 0.0
H674 H 0.7654 0.25647 0.32769 0.0
C675 C 0.72619 0.30998 0.40843 0.0
C676 C 0.7117 0.32953 0.37935 0.0
H677 H 0.76545 0.25533 0.43103 0.0
H678 H 0.71522 0.32448 0.43103 0.0
C679 C 0.72603 0.30909 0.35043 0.0
C680 C 0.72594 0.76972 0.9085 0.0
C681 C 0.71155 0.74995 0.87941 0.0
H682 H 0.76512 0.82452 0.93108 0.0
C683 C 0.72601 0.7701 0.85049 0.0
H684 H 0.71486 0.75544 0.9311 0.0
C685 C 0.75459 0.80853 0.85048 0.0
C686 C 0.76882 0.82918 0.87939 0.0
H687 H 0.71527 0.7558 0.82775 0.0
H688 H 0.76548 0.82247 0.82774 0.0
C689 C 0.75422 0.80986 0.90848 0.0
C690 C 0.25455 0.30864 0.85042 0.0
C691 C 0.26881 0.3292 0.87934 0.0
H692 H 0.21523 0.25594 0.82769 0.0
C693 C 0.25425 0.30976 0.90843 0.0
H694 H 0.26542 0.32269 0.82768 0.0
C695 C 0.22599 0.26957 0.90843 0.0
C696 C 0.21158 0.24988 0.87935 0.0
H697 H 0.26518 0.32434 0.93103 0.0
H698 H 0.21495 0.25519 0.93103 0.0
C699 C 0.22599 0.27018 0.85042 0.0
C700 C 0.72618 0.30993 0.60282 0.0
C701 C 0.71174 0.32961 0.63191 0.0
H702 H 0.76539 0.25517 0.58023 0.0
C703 C 0.72613 0.30932 0.66083 0.0
H704 H 0.71515 0.3243 0.58023 0.0
C705 C 0.7547 0.27086 0.66083 0.0
C706 C 0.76898 0.25031 0.63192 0.0
H707 H 0.71535 0.32356 0.68357 0.0
H708 H 0.76554 0.25682 0.68357 0.0
C709 C 0.75445 0.26975 0.60283 0.0
C710 C 0.22618 0.80987 0.60282 0.0
C711 C 0.21167 0.8293 0.63192 0.0
H712 H 0.26546 0.75534 0.58019 0.0
C713 C 0.22598 0.80874 0.66083 0.0
H714 H 0.21521 0.82446 0.58023 0.0
C715 C 0.25455 0.77029 0.66081 0.0
C716 C 0.26891 0.75001 0.63187 0.0
H717 H 0.21515 0.82277 0.68358 0.0
H718 H 0.26534 0.75605 0.68354 0.0
C719 C 0.25445 0.7697 0.6028 0.0
C720 C 0.14972 1.02185 0.26962 0.0
C721 C 0.11916 1.00261 0.28376 0.0
H722 H 0.17375 0.07092 0.23103 0.0
C723 C 0.08844 1.02102 0.26952 0.0
H724 H 0.17376 1.00877 0.28018 0.0
C725 C 0.08844 0.0586 0.24177 0.0
C726 C 0.11914 0.07703 0.22749 0.0
H727 H 0.06452 1.00767 0.28024 0.0
H728 H 0.0645 0.07192 0.23107 0.0
C729 C 0.14971 0.05782 0.24161 0.0
C730 C 0.83084 0.05801 0.26963 0.0
C731 C 0.86141 0.07715 0.28375 0.0
H732 H 0.80677 1.00904 0.23107 0.0
C733 C 0.89211 0.05867 0.26949 0.0
H734 H 0.8068 0.07114 0.2802 0.0
C735 C 0.89209 1.02111 0.24176 0.0
C736 C 0.86138 1.00278 0.22751 0.0
H737 H 0.91605 0.07194 0.28019 0.0
H738 H 0.91602 1.00773 0.23105 0.0
C739 C 0.83082 1.02206 0.24163 0.0
C740 C 0.83082 0.05778 0.74164 0.0
C741 C 0.8614 0.077 0.72752 0.0
H742 H 0.80675 1.0087 0.78021 0.0
C743 C 0.89209 0.05853 0.74178 0.0
H744 H 0.80679 0.07091 0.73107 0.0
C745 C 0.89207 1.02092 0.76951 0.0
C746 C 0.86135 1.00251 0.78377 0.0
H747 H 0.91603 0.07185 0.73107 0.0
H748 H 0.91599 1.00755 0.78022 0.0
C749 C 0.8308 1.02178 0.76965 0.0
C750 C 0.08843 0.05843 0.76951 0.0
C751 C 0.11913 0.07678 0.78378 0.0
H752 H 0.06452 1.00758 0.73106 0.0
C753 C 0.1497 0.0575 0.76968 0.0
H754 H 0.0645 0.07181 0.78019 0.0
C755 C 0.14972 1.02155 0.74168 0.0
C756 C 0.11916 1.00239 0.72755 0.0
H757 H 0.17374 0.07054 0.78026 0.0
H758 H 0.17376 1.00842 0.73113 0.0
C759 C 0.08844 1.02086 0.74178 0.0
C760 C 0.64972 0.52209 0.26963 0.0
C761 C 0.61916 0.50282 0.28378 0.0
H762 H 0.67373 0.57115 0.23102 0.0
C763 C 0.58844 0.52118 0.26952 0.0
H764 H 0.67377 0.50904 0.28019 0.0
C765 C 0.58842 0.55874 0.24177 0.0
C766 C 0.61912 0.57719 0.22748 0.0
H767 H 0.56452 0.50781 0.28024 0.0
H768 H 0.56449 0.57202 0.23106 0.0
C769 C 0.6497 0.55803 0.2416 0.0
C770 C 0.39209 0.5586 0.26948 0.0
C771 C 0.36139 0.577 0.28375 0.0
H772 H 0.41601 0.5077 0.23103 0.0
C773 C 0.33082 0.55778 0.26966 0.0
H774 H 0.41603 0.57193 0.28016 0.0
C775 C 0.33081 0.52182 0.24167 0.0
C776 C 0.36137 0.50261 0.22753 0.0
H777 H 0.30678 0.57086 0.28024 0.0
H778 H 0.30676 0.50873 0.23112 0.0
C779 C 0.39208 0.52103 0.24175 0.0
C780 C 0.39203 0.52089 0.76948 0.0
C781 C 0.36131 0.50241 0.78372 0.0
H782 H 0.41598 0.57185 0.73104 0.0
C783 C 0.33076 0.52157 0.76956 0.0
H784 H 0.41595 0.5076 0.78021 0.0
C785 C 0.33077 0.55754 0.74154 0.0
C786 C 0.36135 0.57683 0.72744 0.0
H787 H 0.3067 0.50844 0.78011 0.0
H788 H 0.30674 0.57059 0.73095 0.0
C789 C 0.39205 0.55847 0.74173 0.0
C790 C 0.64972 0.55767 0.76969 0.0
C791 C 0.61915 0.57693 0.78379 0.0
H792 H 0.6738 0.50865 0.73113 0.0
C793 C 0.58845 0.55861 0.7695 0.0
H794 H 0.67376 0.57069 0.78029 0.0
C795 C 0.58847 0.52108 0.74176 0.0
C796 C 0.61919 0.50263 0.72752 0.0
H797 H 0.56452 0.57197 0.78018 0.0
H798 H 0.56455 0.50781 0.73103 0.0
C799 C 0.64975 0.52177 0.74168 0.0
C800 C 0.12304 0.24905 0.98868 0.0
C801 C 0.10265 0.20592 0.97186 0.0
H802 H 0.14087 0.27885 0.03508 0.0
C803 C 0.0801 0.16753 0.989 0.0
H804 H 0.14082 0.27878 0.97594 0.0
C805 C 0.08012 0.16757 0.02228 0.0
C806 C 0.10269 0.206 0.03932 0.0
H807 H 0.06388 0.1343 0.97662 0.0
H808 H 0.06392 0.13436 0.03473 0.0
C809 C 0.12306 0.24909 0.02241 0.0
C810 C 0.8574 0.83043 0.98885 0.0
C811 C 0.87777 0.87353 0.97194 0.0
H812 H 0.83962 0.80073 0.03531 0.0
C813 C 0.90031 0.91199 0.98899 0.0
H814 H 0.83962 0.80064 0.97618 0.0
C815 C 0.90032 0.91205 0.02228 0.0
C816 C 0.87777 0.87364 0.03941 0.0
H817 H 0.91651 0.94521 0.97654 0.0
H818 H 0.91652 0.94531 0.03466 0.0
C819 C 0.8574 0.83048 0.02258 0.0
C820 C 0.08024 0.91219 0.48904 0.0
C821 C 0.10275 0.87368 0.47196 0.0
H822 H 0.06406 0.94546 0.53474 0.0
C823 C 0.12308 0.83049 0.48882 0.0
H824 H 0.06406 0.94547 0.47662 0.0
C825 C 0.12309 0.83048 0.52256 0.0
C826 C 0.10275 0.87367 0.53942 0.0
H827 H 0.14084 0.80067 0.47612 0.0
H828 H 0.14084 0.80065 0.53526 0.0
C829 C 0.08024 0.91218 0.52233 0.0
C830 C 0.90043 0.16757 0.52225 0.0
C831 C 0.87791 0.20604 0.53934 0.0
H832 H 0.9166 0.1343 0.47655 0.0
C833 C 0.85754 0.24918 0.52247 0.0
H834 H 0.91663 0.13432 0.53466 0.0
C835 C 0.85752 0.24917 0.48873 0.0
C836 C 0.87787 0.20601 0.47187 0.0
H837 H 0.83977 0.27897 0.53517 0.0
H838 H 0.83974 0.27895 0.47603 0.0
C839 C 0.90042 0.16756 0.48896 0.0
C840 C 0.57999 0.66805 0.02229 0.0
C841 C 0.60262 0.70638 0.03932 0.0
H842 H 0.56368 0.63489 0.97662 0.0
C843 C 0.62302 0.74941 0.02241 0.0
H844 H 0.56377 0.63489 0.03474 0.0
C845 C 0.62298 0.74941 0.98868 0.0
C846 C 0.60252 0.70637 0.97186 0.0
H847 H 0.64087 0.77908 0.03507 0.0
H848 H 0.64079 0.77907 0.97594 0.0
C849 C 0.57994 0.66806 0.989 0.0
C850 C 0.40023 0.41242 0.98897 0.0
C851 C 0.37774 0.37383 0.97193 0.0
H852 H 0.4164 0.44579 0.03464 0.0
C853 C 0.35745 0.3306 0.98883 0.0
H854 H 0.41637 0.44573 0.97652 0.0
C855 C 0.35747 0.33063 0.02256 0.0
C856 C 0.37778 0.3739 0.03938 0.0
H857 H 0.33972 0.30071 0.97616 0.0
H858 H 0.33975 0.30076 0.0353 0.0
C859 C 0.40025 0.41245 0.02226 0.0
C860 C 0.6232 0.33049 0.48882 0.0
C861 C 0.6028 0.37358 0.47195 0.0
H862 H 0.64101 0.30075 0.53525 0.0
C863 C 0.58022 0.41193 0.48904 0.0
H864 H 0.64101 0.30079 0.47611 0.0
C865 C 0.58021 0.41191 0.52233 0.0
C866 C 0.60279 0.37352 0.53941 0.0
H867 H 0.56399 0.44514 0.47662 0.0
H868 H 0.56398 0.44509 0.53474 0.0
C869 C 0.6232 0.33047 0.52255 0.0
C870 C 0.35748 0.74908 0.52243 0.0
C871 C 0.37787 0.70598 0.53929 0.0
H872 H 0.33966 0.77883 0.476 0.0
C873 C 0.40043 0.66758 0.5222 0.0
H874 H 0.33968 0.77881 0.53514 0.0
C875 C 0.40042 0.66759 0.48892 0.0
C876 C 0.37785 0.70599 0.47184 0.0
H877 H 0.41665 0.63437 0.53462 0.0
H878 H 0.41663 0.63438 0.4765 0.0
C879 C 0.35747 0.74909 0.4887 0.0
C880 C 0.96113 0.07733 0.13675 0.0
C881 C 0.95796 1.01138 0.13662 0.0
H882 H -0.00543 0.15646 0.13667 0.0
C883 C 0.98747 0.97417 0.13669 0.0
H884 H 0.93895 0.10738 0.13671 0.0
C885 C 0.01942 1.00228 0.13674 0.0
C886 C 0.02258 0.06823 0.13661 0.0
H887 H 0.98597 0.92316 0.13667 0.0
H888 H 0.0416 0.97224 0.13669 0.0
C889 C -0.00692 0.10544 0.13669 0.0
C890 C 0.96116 1.00237 0.37451 0.0
C891 C 0.95801 0.06833 0.37462 0.0
H892 H -0.0054 0.92323 0.37463 0.0
C893 C 0.98752 0.10552 0.37455 0.0
H894 H 0.93898 0.97234 0.37456 0.0
C895 C 0.01947 0.07739 0.37451 0.0
C896 C 0.02262 1.01144 0.37466 0.0
H897 H 0.98604 0.15653 0.37456 0.0
H898 H 0.04166 0.10742 0.37456 0.0
C899 C -0.00688 0.97424 0.37459 0.0
C900 C -0.00703 0.10535 0.87452 0.0
C901 C 0.02248 0.06815 0.8746 0.0
H902 H 0.93883 0.10726 0.87452 0.0
C903 C 0.01932 1.00219 0.87448 0.0
H904 H -0.00554 0.15636 0.87454 0.0
C905 C 0.98737 0.97407 0.87454 0.0
C906 C 0.95787 1.01127 0.87462 0.0
H907 H 0.04151 0.97215 0.87453 0.0
H908 H 0.98589 0.92306 0.87457 0.0
C909 C 0.96102 0.07722 0.87448 0.0
C910 C 0.98752 0.10539 0.63673 0.0
C911 C 0.95801 0.06821 0.63666 0.0
H912 H 0.04166 0.10727 0.63676 0.0
C913 C 0.96116 1.00225 0.6368 0.0
H914 H 0.98605 0.1564 0.6367 0.0
C915 C -0.0069 0.97411 0.63676 0.0
C916 C 0.02262 1.01129 0.63669 0.0
H917 H 0.93897 0.97223 0.63676 0.0
H918 H -0.00542 0.92309 0.63674 0.0
C919 C 0.01947 0.07724 0.6368 0.0
C920 C 0.46107 0.57748 0.13677 0.0
C921 C 0.45792 0.51152 0.13664 0.0
H922 H 0.49449 0.65663 0.13669 0.0
C923 C 0.48744 0.47434 0.1367 0.0
H924 H 0.43888 0.6075 0.13674 0.0
C925 C 0.51938 0.50248 0.13675 0.0
C926 C 0.52253 0.56844 0.13662 0.0
H927 H 0.48596 0.42333 0.13667 0.0
H928 H 0.54157 0.47246 0.13669 0.0
C929 C 0.49301 0.60562 0.13671 0.0
C930 C 0.46117 0.50233 0.37452 0.0
C931 C 0.458 0.56828 0.37462 0.0
H932 H 0.49462 0.42321 0.37465 0.0
C933 C 0.4875 0.6055 0.37454 0.0
H934 H 0.43899 0.47228 0.37457 0.0
C935 C 0.51946 0.57738 0.37451 0.0
C936 C 0.52263 0.51143 0.37467 0.0
H937 H 0.48601 0.65651 0.37455 0.0
H938 H 0.54164 0.60744 0.37455 0.0
C939 C 0.49313 0.47422 0.3746 0.0
C940 C 0.48731 0.47433 0.87445 0.0
C941 C 0.45779 0.51151 0.87455 0.0
H942 H 0.54144 0.47245 0.87441 0.0
C943 C 0.46093 0.57746 0.87441 0.0
H944 H 0.48584 0.42332 0.87448 0.0
C945 C 0.49288 0.60562 0.87444 0.0
C946 C 0.52239 0.56843 0.87451 0.0
H947 H 0.43874 0.60748 0.87447 0.0
H948 H 0.49436 0.65663 0.87447 0.0
C949 C 0.51925 0.50248 0.87438 0.0
C950 C 0.48749 0.60533 0.63673 0.0
C951 C 0.45799 0.56812 0.63663 0.0
H952 H 0.54162 0.60727 0.63678 0.0
C953 C 0.46115 0.50216 0.63678 0.0
H954 H 0.486 0.65634 0.63669 0.0
C955 C 0.49311 0.47405 0.63675 0.0
C956 C 0.52261 0.51127 0.63669 0.0
H957 H 0.43897 0.47212 0.63672 0.0
H958 H 0.49461 0.42304 0.63673 0.0
C959 C 0.51944 0.57722 0.63681 0.0
C960 C 0.13906 0.674 0.10967 0.0
C961 C 0.13501 0.71971 0.13377 0.0
H962 H 0.13343 0.57723 0.09603 0.0
C963 C 0.12266 0.70046 0.16382 0.0
H964 H 0.14799 0.68721 0.08609 0.0
C965 C 0.11427 0.63731 0.16952 0.0
C966 C 0.11801 0.59171 0.14532 0.0
H967 H 0.11974 0.73413 0.18311 0.0
H968 H 0.10512 0.62411 0.19303 0.0
C969 C 0.13069 0.61084 0.11537 0.0
C970 C 0.84182 0.40573 0.10963 0.0
C971 C 0.84542 0.36007 0.13385 0.0
H972 H 0.84778 0.50243 0.09593 0.0
C973 C 0.8573 0.37937 0.16404 0.0
H974 H 0.83326 0.39248 0.08594 0.0
C975 C 0.86568 0.44251 0.16976 0.0
C976 C 0.86238 0.48804 0.14544 0.0
H977 H 0.85986 0.34574 0.18341 0.0
H978 H 0.87445 0.45575 0.19337 0.0
C979 C 0.85017 0.46887 0.11535 0.0
C980 C 0.13914 0.40564 0.40156 0.0
C981 C 0.13509 0.35993 0.37746 0.0
H982 H 0.1335 0.5024 0.41521 0.0
C983 C 0.12274 0.3792 0.34741 0.0
H984 H 0.14806 0.39241 0.42513 0.0
C985 C 0.11434 0.44235 0.34173 0.0
C986 C 0.11808 0.48793 0.36593 0.0
H987 H 0.11982 0.34553 0.32813 0.0
H988 H 0.1052 0.45555 0.31822 0.0
C989 C 0.13076 0.4688 0.39586 0.0
C990 C 0.86583 0.63729 0.34157 0.0
C991 C 0.86254 0.59177 0.3659 0.0
H992 H 0.85999 0.73404 0.3279 0.0
C993 C 0.85035 0.61096 0.396 0.0
H994 H 0.8746 0.62403 0.31795 0.0
C995 C 0.84198 0.6741 0.40172 0.0
C996 C 0.84556 0.71974 0.37749 0.0
H997 H 0.84797 0.57741 0.41543 0.0
H998 H 0.83343 0.68737 0.42541 0.0
C999 C 0.85744 0.70042 0.34729 0.0
C1000 C 0.84219 0.40523 0.90192 0.0
C1001 C 0.84557 0.35974 0.87762 0.0
H1002 H 0.84833 0.50181 0.91569 0.0
C1003 C 0.85728 0.37922 0.84737 0.0
H1004 H 0.83378 0.39183 0.92564 0.0
C1005 C 0.86567 0.44237 0.84167 0.0
C1006 C 0.86257 0.48773 0.86605 0.0
H1007 H 0.85968 0.34572 0.82794 0.0
H1008 H 0.8743 0.45575 0.81801 0.0
C1009 C 0.85056 0.46838 0.89621 0.0
C1010 C 0.1151 0.63693 0.84148 0.0
C1011 C 0.11804 0.59152 0.86589 0.0
H1012 H 0.1212 0.7336 0.82775 0.0
C1013 C 0.12988 0.61081 0.8961 0.0
H1014 H 0.10661 0.62359 0.81778 0.0
C1015 C 0.13824 0.67394 0.90183 0.0
C1016 C 0.135 0.71948 0.8775 0.0
H1017 H 0.13198 0.57734 0.9156 0.0
H1018 H 0.1465 0.68729 0.92559 0.0
C1019 C 0.12348 0.70006 0.8472 0.0
C1020 C 0.85768 0.70037 0.66388 0.0
C1021 C 0.84568 0.71974 0.63373 0.0
H1022 H 0.87495 0.62393 0.69317 0.0
C1023 C 0.84198 0.67413 0.60953 0.0
H1024 H 0.86033 0.73396 0.68324 0.0
C1025 C 0.85035 0.61098 0.61524 0.0
C1026 C 0.86267 0.59174 0.64529 0.0
H1027 H 0.83333 0.68744 0.58587 0.0
H1028 H 0.84788 0.57746 0.59583 0.0
C1029 C 0.86608 0.63722 0.66958 0.0
C1030 C 0.13871 0.40548 0.60962 0.0
C1031 C 0.13508 0.35983 0.63384 0.0
H1032 H 0.13275 0.50217 0.5959 0.0
C1033 C 0.12315 0.37914 0.66402 0.0
H1034 H 0.1473 0.39221 0.58594 0.0
C1035 C 0.11476 0.44228 0.66973 0.0
C1036 C 0.11809 0.4878 0.64541 0.0
H1037 H 0.12056 0.34552 0.6834 0.0
H1038 H 0.10594 0.45553 0.69334 0.0
C1039 C 0.13034 0.46862 0.61533 0.0
C1040 C 0.63029 0.11115 0.11522 0.0
C1041 C 0.61794 0.09193 0.14527 0.0
H1042 H 0.64733 0.1876 0.08584 0.0
C1043 C 0.61452 0.13742 0.16956 0.0
H1044 H 0.63278 0.07762 0.09581 0.0
C1045 C 0.62291 0.20057 0.16385 0.0
C1046 C 0.63493 0.21993 0.13369 0.0
H1047 H 0.60563 0.12414 0.19315 0.0
H1048 H 0.62024 0.23417 0.1832 0.0
C1049 C 0.63866 0.1743 0.1095 0.0
C1050 C 0.34168 0.90575 0.10967 0.0
C1051 C 0.34545 0.86006 0.13385 0.0
H1052 H 0.34754 1.00248 0.09597 0.0
C1053 C 0.35751 0.87932 0.16398 0.0
H1054 H 0.33298 0.89252 0.08603 0.0
C1055 C 0.3659 0.94246 0.16968 0.0
C1056 C 0.36244 0.98803 0.1454 0.0
H1057 H 0.3602 0.84567 0.18333 0.0
H1058 H 0.37482 0.95567 0.19325 0.0
C1059 C 0.35006 0.96889 0.11537 0.0
C1060 C 0.63035 0.96875 0.39604 0.0
C1061 C 0.61816 0.98803 0.36595 0.0
H1062 H 0.64727 0.89225 0.42543 0.0
C1063 C 0.61488 0.94259 0.34162 0.0
H1064 H 0.63272 1.00224 0.41548 0.0
C1065 C 0.62328 0.87944 0.34732 0.0
C1066 C 0.63514 0.86003 0.37751 0.0
H1067 H 0.60611 0.95592 0.318 0.0
H1068 H 0.62073 0.84589 0.32793 0.0
C1069 C 0.63872 0.9056 0.40175 0.0
C1070 C 0.36603 0.13729 0.34157 0.0
C1071 C 0.36247 0.09167 0.36581 0.0
H1072 H 0.36043 0.23413 0.32798 0.0
C1073 C 0.34999 0.11075 0.39583 0.0
H1074 H 0.37503 0.12413 0.31801 0.0
C1075 C 0.34162 0.17389 0.40155 0.0
C1076 C 0.3455 0.21964 0.37741 0.0
H1077 H 0.34738 0.07711 0.4152 0.0
H1078 H 0.33285 0.18707 0.42518 0.0
C1079 C 0.35765 0.20043 0.34729 0.0
C1080 C 0.35771 0.87916 0.84742 0.0
C1081 C 0.34542 0.85985 0.87748 0.0
H1082 H 0.37523 0.95555 0.81822 0.0
C1083 C 0.34145 0.90552 0.90162 0.0
H1084 H 0.36058 0.84552 0.82811 0.0
C1085 C 0.34984 0.96868 0.89594 0.0
C1086 C 0.36246 0.98785 0.86597 0.0
H1087 H 0.33257 0.89226 0.92521 0.0
H1088 H 0.34716 1.00225 0.9153 0.0
C1089 C 0.36613 0.94231 0.84174 0.0
C1090 C 0.62546 0.19958 0.847 0.0
C1091 C 0.63482 0.21975 0.87784 0.0
H1092 H 0.61032 0.12248 0.81715 0.0
C1093 C 0.63584 0.17498 0.9027 0.0
H1094 H 0.62491 0.2325 0.82718 0.0
C1095 C 0.62749 0.11186 0.89694 0.0
C1096 C 0.61786 0.0918 0.86617 0.0
H1097 H 0.64238 0.18896 0.92685 0.0
H1098 H 0.62786 0.07902 0.91681 0.0
C1099 C 0.61709 0.13644 0.84125 0.0
C1100 C 0.35028 0.11083 0.61517 0.0
C1101 C 0.36251 0.09157 0.64526 0.0
H1102 H 0.33334 0.18731 0.58578 0.0
C1103 C 0.36583 0.13702 0.66957 0.0
H1104 H 0.34788 0.07733 0.59575 0.0
C1105 C 0.35744 0.20017 0.66387 0.0
C1106 C 0.34553 0.21956 0.63369 0.0
H1107 H 0.37463 0.12371 0.69318 0.0
H1108 H 0.36002 0.23374 0.68324 0.0
C1109 C 0.34191 0.17398 0.60946 0.0
C1110 C 0.62452 0.8797 0.66422 0.0
C1111 C 0.63515 0.85996 0.63367 0.0
H1112 H 0.60836 0.95644 0.69383 0.0
C1113 C 0.63746 0.90516 0.60909 0.0
H1114 H 0.62296 0.84643 0.68385 0.0
C1115 C 0.62909 0.96829 0.61483 0.0
C1116 C 0.61817 0.98792 0.64529 0.0
H1117 H 0.64501 0.89154 0.58515 0.0
H1118 H 0.63048 1.00149 0.59515 0.0
C1119 C 0.61614 0.94283 0.66995 0.0
loop_
_geom_bond_atom_site_label_1
_geom_bond_atom_site_label_2
_geom_bond_distance
_geom_bond_site_symmetry_2
_ccdc_geom_bond_type
Eu0 C9 2.828 1_545 S
Eu0 O11 2.392 . S
Eu0 O13 2.418 . S
Eu0 O18 2.373 . S
Eu0 O21 2.488 1_545 S
Eu0 O22 2.471 1_545 S
Eu0 O23 2.349 . S
Eu1 O10 2.373 . S
Eu1 O14 2.488 . S
Eu1 O15 2.471 . S
Eu1 O16 2.349 . S
Eu1 O19 2.392 . S
Eu1 O20 2.418 . S
Eu1 C30 2.828 . S
C2 O20 1.244 . S
C2 O23 1.265 . S
C3 C4 1.379 . S
C3 C7 1.373 . S
C3 C9 1.505 . S
C4 C3 1.379 . S
C4 C6 1.369 . S
C4 H32 0.930 . S
C5 C7 1.383 . S
C5 C8 1.382 . S
C5 H33 0.930 . S
C6 C4 1.369 . S
C6 C8 1.392 . S
C6 H34 0.930 . S
C7 C3 1.373 . S
C7 C5 1.383 . S
C7 H35 0.931 . S
C8 C5 1.382 . S
C8 C6 1.392 . S
C9 Eu0 2.828 1_565 S
C9 C3 1.505 . S
C9 O21 1.249 . S
C9 O22 1.244 . S
O10 Eu1 2.373 . S
O10 C12 1.258 . S
O11 Eu0 2.392 . S
O11 C12 1.242 . S
C12 O10 1.258 . S
C12 O11 1.242 . S
O13 Eu0 2.418 . S
O13 C17 1.244 . S
O14 Eu1 2.488 . S
O14 C30 1.249 . S
O15 Eu1 2.471 . S
O15 C30 1.244 . S
O16 Eu1 2.349 . S
O16 C17 1.265 . S
C17 O13 1.244 . S
C17 O16 1.265 . S
O18 Eu0 2.373 . S
O18 C31 1.258 . S
O19 Eu1 2.392 . S
O19 C31 1.242 . S
O20 Eu1 2.418 . S
O20 C2 1.244 . S
O21 Eu0 2.488 1_565 S
O21 C9 1.249 . S
O22 Eu0 2.471 1_565 S
O22 C9 1.244 . S
O23 Eu0 2.349 . S
O23 C2 1.265 . S
C24 C25 1.379 . S
C24 C28 1.373 . S
C24 C30 1.505 . S
C25 C24 1.379 . S
C25 C27 1.369 . S
C25 H36 0.930 . S
C26 C28 1.383 . S
C26 C29 1.382 . S
C26 H37 0.930 . S
C27 C25 1.369 . S
C27 C29 1.392 . S
C27 H38 0.930 . S
C28 C24 1.373 . S
C28 C26 1.383 . S
C28 H39 0.931 . S
C29 C26 1.382 . S
C29 C27 1.392 . S
C30 Eu1 2.828 . S
C30 O14 1.249 . S
C30 O15 1.244 . S
C30 C24 1.505 . S
C31 O18 1.258 . S
C31 O19 1.242 . S
H32 C4 0.930 . S
H33 C5 0.930 . S
H34 C6 0.930 . S
H35 C7 0.931 . S
H36 C25 0.930 . S
H37 C26 0.930 . S
H38 C27 0.930 . S
H39 C28 0.931 . S
Eu40 C49 2.828 1_565 S
Eu40 O51 2.392 . S
Eu40 O53 2.418 . S
Eu40 O58 2.373 . S
Eu40 O61 2.488 1_565 S
Eu40 O62 2.471 1_565 S
Eu40 O63 2.349 . S
Eu41 O50 2.373 . S
Eu41 O54 2.488 . S
Eu41 O55 2.471 . S
Eu41 O56 2.349 . S
Eu41 O59 2.392 . S
Eu41 O60 2.418 . S
Eu41 C70 2.828 . S
C42 O60 1.244 . S
C42 O63 1.265 . S
C43 C44 1.379 . S
C43 C47 1.373 . S
C43 C49 1.505 . S
C44 C43 1.379 . S
C44 C46 1.369 . S
C44 H72 0.930 . S
C45 C47 1.383 . S
C45 C48 1.382 . S
C45 H73 0.930 . S
C46 C44 1.369 . S
C46 C48 1.392 . S
C46 H74 0.930 . S
C47 C43 1.373 . S
C47 C45 1.383 . S
C47 H75 0.931 . S
C48 C45 1.382 . S
C48 C46 1.392 . S
C49 Eu40 2.828 1_545 S
C49 C43 1.505 . S
C49 O61 1.249 . S
C49 O62 1.244 . S
O50 Eu41 2.373 . S
O50 C52 1.258 . S
O51 Eu40 2.392 . S
O51 C52 1.242 . S
C52 O50 1.258 . S
C52 O51 1.242 . S
O53 Eu40 2.418 . S
O53 C57 1.244 . S
O54 Eu41 2.488 . S
O54 C70 1.249 . S
O55 Eu41 2.471 . S
O55 C70 1.244 . S
O56 Eu41 2.349 . S
O56 C57 1.265 . S
C57 O53 1.244 . S
C57 O56 1.265 . S
O58 Eu40 2.373 . S
O58 C71 1.258 . S
O59 Eu41 2.392 . S
O59 C71 1.242 . S
O60 Eu41 2.418 . S
O60 C42 1.244 . S
O61 Eu40 2.488 1_545 S
O61 C49 1.249 . S
O62 Eu40 2.471 1_545 S
O62 C49 1.244 . S
O63 Eu40 2.349 . S
O63 C42 1.265 . S
C64 C65 1.379 . S
C64 C68 1.373 . S
C64 C70 1.505 . S
C65 C64 1.379 . S
C65 C67 1.369 . S
C65 H76 0.930 . S
C66 C68 1.383 . S
C66 C69 1.382 . S
C66 H77 0.930 . S
C67 C65 1.369 . S
C67 C69 1.392 . S
C67 H78 0.930 . S
C68 C64 1.373 . S
C68 C66 1.383 . S
C68 H79 0.931 . S
C69 C66 1.382 . S
C69 C67 1.392 . S
C70 Eu41 2.828 . S
C70 O54 1.249 . S
C70 O55 1.244 . S
C70 C64 1.505 . S
C71 O58 1.258 . S
C71 O59 1.242 . S
H72 C44 0.930 . S
H73 C45 0.930 . S
H74 C46 0.930 . S
H75 C47 0.931 . S
H76 C65 0.930 . S
H77 C66 0.930 . S
H78 C67 0.930 . S
H79 C68 0.931 . S
Eu80 C89 2.828 1_565 S
Eu80 O91 2.392 . S
Eu80 O93 2.418 . S
Eu80 O98 2.373 . S
Eu80 O101 2.488 1_565 S
Eu80 O102 2.471 1_565 S
Eu80 O103 2.349 . S
Eu81 O90 2.373 . S
Eu81 O94 2.488 . S
Eu81 O95 2.471 . S
Eu81 O96 2.349 . S
Eu81 O99 2.392 . S
Eu81 O100 2.418 . S
Eu81 C110 2.828 . S
C82 O100 1.244 . S
C82 O103 1.265 . S
C83 C84 1.379 . S
C83 C87 1.373 . S
C83 C89 1.505 . S
C84 C83 1.379 . S
C84 C86 1.369 . S
C84 H112 0.930 . S
C85 C87 1.383 . S
C85 C88 1.382 . S
C85 H113 0.930 . S
C86 C84 1.369 . S
C86 C88 1.392 . S
C86 H114 0.930 . S
C87 C83 1.373 . S
C87 C85 1.383 . S
C87 H115 0.931 . S
C88 C85 1.382 . S
C88 C86 1.392 . S
C89 Eu80 2.828 1_545 S
C89 C83 1.505 . S
C89 O101 1.249 . S
C89 O102 1.244 . S
O90 Eu81 2.373 . S
O90 C92 1.258 . S
O91 Eu80 2.392 . S
O91 C92 1.242 . S
C92 O90 1.258 . S
C92 O91 1.242 . S
O93 Eu80 2.418 . S
O93 C97 1.244 . S
O94 Eu81 2.488 . S
O94 C110 1.249 . S
O95 Eu81 2.471 . S
O95 C110 1.244 . S
O96 Eu81 2.349 . S
O96 C97 1.265 . S
C97 O93 1.244 . S
C97 O96 1.265 . S
O98 Eu80 2.373 . S
O98 C111 1.258 . S
O99 Eu81 2.392 . S
O99 C111 1.242 . S
O100 Eu81 2.418 . S
O100 C82 1.244 . S
O101 Eu80 2.488 1_545 S
O101 C89 1.249 . S
O102 Eu80 2.471 1_545 S
O102 C89 1.244 . S
O103 Eu80 2.349 . S
O103 C82 1.265 . S
C104 C105 1.379 . S
C104 C108 1.373 . S
C104 C110 1.505 . S
C105 C104 1.379 . S
C105 C107 1.369 . S
C105 H116 0.930 . S
C106 C108 1.383 . S
C106 C109 1.382 . S
C106 H117 0.930 . S
C107 C105 1.369 . S
C107 C109 1.392 . S
C107 H118 0.930 . S
C108 C104 1.373 . S
C108 C106 1.383 . S
C108 H119 0.931 . S
C109 C106 1.382 . S
C109 C107 1.392 . S
C110 Eu81 2.828 . S
C110 O94 1.249 . S
C110 O95 1.244 . S
C110 C104 1.505 . S
C111 O98 1.258 . S
C111 O99 1.242 . S
H112 C84 0.930 . S
H113 C85 0.930 . S
H114 C86 0.930 . S
H115 C87 0.931 . S
H116 C105 0.930 . S
H117 C106 0.930 . S
H118 C107 0.930 . S
H119 C108 0.931 . S
Eu120 C129 2.828 1_545 S
Eu120 O131 2.392 . S
Eu120 O133 2.418 . S
Eu120 O138 2.373 . S
Eu120 O141 2.488 1_545 S
Eu120 O142 2.471 1_545 S
Eu120 O143 2.349 . S
Eu121 O130 2.373 . S
Eu121 O134 2.488 . S
Eu121 O135 2.471 . S
Eu121 O136 2.349 . S
Eu121 O139 2.392 . S
Eu121 O140 2.418 . S
Eu121 C150 2.828 . S
C122 O140 1.244 . S
C122 O143 1.265 . S
C123 C124 1.379 . S
C123 C127 1.373 . S
C123 C129 1.505 . S
C124 C123 1.379 . S
C124 C126 1.369 . S
C124 H152 0.930 . S
C125 C127 1.383 . S
C125 C128 1.382 . S
C125 H153 0.930 . S
C126 C124 1.369 . S
C126 C128 1.392 . S
C126 H154 0.930 . S
C127 C123 1.373 . S
C127 C125 1.383 . S
C127 H155 0.931 . S
C128 C125 1.382 . S
C128 C126 1.392 . S
C129 Eu120 2.828 1_565 S
C129 C123 1.505 . S
C129 O141 1.249 . S
C129 O142 1.244 . S
O130 Eu121 2.373 . S
O130 C132 1.258 . S
O131 Eu120 2.392 . S
O131 C132 1.242 . S
C132 O130 1.258 . S
C132 O131 1.242 . S
O133 Eu120 2.418 . S
O133 C137 1.244 . S
O134 Eu121 2.488 . S
O134 C150 1.249 . S
O135 Eu121 2.471 . S
O135 C150 1.244 . S
O136 Eu121 2.349 . S
O136 C137 1.265 . S
C137 O133 1.244 . S
C137 O136 1.265 . S
O138 Eu120 2.373 . S
O138 C151 1.258 . S
O139 Eu121 2.392 . S
O139 C151 1.242 . S
O140 Eu121 2.418 . S
O140 C122 1.244 . S
O141 Eu120 2.488 1_565 S
O141 C129 1.249 . S
O142 Eu120 2.471 1_565 S
O142 C129 1.244 . S
O143 Eu120 2.349 . S
O143 C122 1.265 . S
C144 C145 1.379 . S
C144 C148 1.373 . S
C144 C150 1.505 . S
C145 C144 1.379 . S
C145 C147 1.369 . S
C145 H156 0.930 . S
C146 C148 1.383 . S
C146 C149 1.382 . S
C146 H157 0.930 . S
C147 C145 1.369 . S
C147 C149 1.392 . S
C147 H158 0.930 . S
C148 C144 1.373 . S
C148 C146 1.383 . S
C148 H159 0.931 . S
C149 C146 1.382 . S
C149 C147 1.392 . S
C150 Eu121 2.828 . S
C150 O134 1.249 . S
C150 O135 1.244 . S
C150 C144 1.505 . S
C151 O138 1.258 . S
C151 O139 1.242 . S
H152 C124 0.930 . S
H153 C125 0.930 . S
H154 C126 0.930 . S
H155 C127 0.931 . S
H156 C145 0.930 . S
H157 C146 0.930 . S
H158 C147 0.930 . S
H159 C148 0.931 . S
Eu160 C169 2.828 . S
Eu160 O171 2.392 . S
Eu160 O173 2.418 . S
Eu160 O178 2.373 . S
Eu160 O181 2.488 . S
Eu160 O182 2.471 . S
Eu160 O183 2.349 . S
Eu161 O170 2.373 . S
Eu161 O174 2.488 1_565 S
Eu161 O175 2.471 1_565 S
Eu161 O176 2.349 . S
Eu161 O179 2.392 . S
Eu161 O180 2.418 . S
Eu161 C190 2.828 1_565 S
C162 O180 1.244 . S
C162 O183 1.265 . S
C163 C164 1.379 . S
C163 C167 1.373 . S
C163 C169 1.505 . S
C164 C163 1.379 . S
C164 C166 1.369 . S
C164 H192 0.930 . S
C165 C167 1.383 . S
C165 C168 1.382 . S
C165 H193 0.930 . S
C166 C164 1.369 . S
C166 C168 1.392 . S
C166 H194 0.930 . S
C167 C163 1.373 . S
C167 C165 1.383 . S
C167 H195 0.931 . S
C168 C165 1.382 . S
C168 C166 1.392 . S
C169 Eu160 2.828 . S
C169 C163 1.505 . S
C169 O181 1.249 . S
C169 O182 1.244 . S
O170 Eu161 2.373 . S
O170 C172 1.258 . S
O171 Eu160 2.392 . S
O171 C172 1.242 . S
C172 O170 1.258 . S
C172 O171 1.242 . S
O173 Eu160 2.418 . S
O173 C177 1.244 . S
O174 Eu161 2.488 1_545 S
O174 C190 1.249 . S
O175 Eu161 2.471 1_545 S
O175 C190 1.244 . S
O176 Eu161 2.349 . S
O176 C177 1.265 . S
C177 O173 1.244 . S
C177 O176 1.265 . S
O178 Eu160 2.373 . S
O178 C191 1.258 . S
O179 Eu161 2.392 . S
O179 C191 1.242 . S
O180 Eu161 2.418 . S
O180 C162 1.244 . S
O181 Eu160 2.488 . S
O181 C169 1.249 . S
O182 Eu160 2.471 . S
O182 C169 1.244 . S
O183 Eu160 2.349 . S
O183 C162 1.265 . S
C184 C185 1.379 . S
C184 C188 1.373 . S
C184 C190 1.505 . S
C185 C184 1.379 . S
C185 C187 1.369 . S
C185 H196 0.930 . S
C186 C188 1.383 . S
C186 C189 1.382 . S
C186 H197 0.930 . S
C187 C185 1.369 . S
C187 C189 1.392 . S
C187 H198 0.930 . S
C188 C184 1.373 . S
C188 C186 1.383 . S
C188 H199 0.931 . S
C189 C186 1.382 . S
C189 C187 1.392 . S
C190 Eu161 2.828 1_545 S
C190 O174 1.249 . S
C190 O175 1.244 . S
C190 C184 1.505 . S
C191 O178 1.258 . S
C191 O179 1.242 . S
H192 C164 0.930 . S
H193 C165 0.930 . S
H194 C166 0.930 . S
H195 C167 0.931 . S
H196 C185 0.930 . S
H197 C186 0.930 . S
H198 C187 0.930 . S
H199 C188 0.931 . S
Eu200 C209 2.828 . S
Eu200 O211 2.392 . S
Eu200 O213 2.418 . S
Eu200 O218 2.373 . S
Eu200 O221 2.488 . S
Eu200 O222 2.471 . S
Eu200 O223 2.349 . S
Eu201 O210 2.373 . S
Eu201 O214 2.488 1_545 S
Eu201 O215 2.471 1_545 S
Eu201 O216 2.349 . S
Eu201 O219 2.392 . S
Eu201 O220 2.418 . S
Eu201 C230 2.828 1_545 S
C202 O220 1.244 . S
C202 O223 1.265 . S
C203 C204 1.379 . S
C203 C207 1.373 . S
C203 C209 1.505 . S
C204 C203 1.379 . S
C204 C206 1.369 . S
C204 H232 0.930 . S
C205 C207 1.383 . S
C205 C208 1.382 . S
C205 H233 0.930 . S
C206 C204 1.369 . S
C206 C208 1.392 . S
C206 H234 0.930 . S
C207 C203 1.373 . S
C207 C205 1.383 . S
C207 H235 0.931 . S
C208 C205 1.382 . S
C208 C206 1.392 . S
C209 Eu200 2.828 . S
C209 C203 1.505 . S
C209 O221 1.249 . S
C209 O222 1.244 . S
O210 Eu201 2.373 . S
O210 C212 1.258 . S
O211 Eu200 2.392 . S
O211 C212 1.242 . S
C212 O210 1.258 . S
C212 O211 1.242 . S
O213 Eu200 2.418 . S
O213 C217 1.244 . S
O214 Eu201 2.488 1_565 S
O214 C230 1.249 . S
O215 Eu201 2.471 1_565 S
O215 C230 1.244 . S
O216 Eu201 2.349 . S
O216 C217 1.265 . S
C217 O213 1.244 . S
C217 O216 1.265 . S
O218 Eu200 2.373 . S
O218 C231 1.258 . S
O219 Eu201 2.392 . S
O219 C231 1.242 . S
O220 Eu201 2.418 . S
O220 C202 1.244 . S
O221 Eu200 2.488 . S
O221 C209 1.249 . S
O222 Eu200 2.471 . S
O222 C209 1.244 . S
O223 Eu200 2.349 . S
O223 C202 1.265 . S
C224 C225 1.379 . S
C224 C228 1.373 . S
C224 C230 1.505 . S
C225 C224 1.379 . S
C225 C227 1.369 . S
C225 H236 0.930 . S
C226 C228 1.383 . S
C226 C229 1.382 . S
C226 H237 0.930 . S
C227 C225 1.369 . S
C227 C229 1.392 . S
C227 H238 0.930 . S
C228 C224 1.373 . S
C228 C226 1.383 . S
C228 H239 0.931 . S
C229 C226 1.382 . S
C229 C227 1.392 . S
C230 Eu201 2.828 1_565 S
C230 O214 1.249 . S
C230 O215 1.244 . S
C230 C224 1.505 . S
C231 O218 1.258 . S
C231 O219 1.242 . S
H232 C204 0.930 . S
H233 C205 0.930 . S
H234 C206 0.930 . S
H235 C207 0.931 . S
H236 C225 0.930 . S
H237 C226 0.930 . S
H238 C227 0.930 . S
H239 C228 0.931 . S
Eu240 C249 2.828 . S
Eu240 O251 2.392 . S
Eu240 O253 2.418 . S
Eu240 O258 2.373 . S
Eu240 O261 2.488 . S
Eu240 O262 2.471 . S
Eu240 O263 2.349 . S
Eu241 O250 2.373 . S
Eu241 O254 2.488 1_545 S
Eu241 O255 2.471 1_545 S
Eu241 O256 2.349 . S
Eu241 O259 2.392 . S
Eu241 O260 2.418 . S
Eu241 C270 2.828 1_545 S
C242 O260 1.244 . S
C242 O263 1.265 . S
C243 C244 1.379 . S
C243 C247 1.373 . S
C243 C249 1.505 . S
C244 C243 1.379 . S
C244 C246 1.369 . S
C244 H272 0.930 . S
C245 C247 1.383 . S
C245 C248 1.382 . S
C245 H273 0.930 . S
C246 C244 1.369 . S
C246 C248 1.392 . S
C246 H274 0.930 . S
C247 C243 1.373 . S
C247 C245 1.383 . S
C247 H275 0.931 . S
C248 C245 1.382 . S
C248 C246 1.392 . S
C249 Eu240 2.828 . S
C249 C243 1.505 . S
C249 O261 1.249 . S
C249 O262 1.244 . S
O250 Eu241 2.373 . S
O250 C252 1.258 . S
O251 Eu240 2.392 . S
O251 C252 1.242 . S
C252 O250 1.258 . S
C252 O251 1.242 . S
O253 Eu240 2.418 . S
O253 C257 1.244 . S
O254 Eu241 2.488 1_565 S
O254 C270 1.249 . S
O255 Eu241 2.471 1_565 S
O255 C270 1.244 . S
O256 Eu241 2.349 . S
O256 C257 1.265 . S
C257 O253 1.244 . S
C257 O256 1.265 . S
O258 Eu240 2.373 . S
O258 C271 1.258 . S
O259 Eu241 2.392 . S
O259 C271 1.242 . S
O260 Eu241 2.418 . S
O260 C242 1.244 . S
O261 Eu240 2.488 . S
O261 C249 1.249 . S
O262 Eu240 2.471 . S
O262 C249 1.244 . S
O263 Eu240 2.349 . S
O263 C242 1.265 . S
C264 C265 1.379 . S
C264 C268 1.373 . S
C264 C270 1.505 . S
C265 C264 1.379 . S
C265 C267 1.369 . S
C265 H276 0.930 . S
C266 C268 1.383 . S
C266 C269 1.382 . S
C266 H277 0.930 . S
C267 C265 1.369 . S
C267 C269 1.392 . S
C267 H278 0.930 . S
C268 C264 1.373 . S
C268 C266 1.383 . S
C268 H279 0.931 . S
C269 C266 1.382 . S
C269 C267 1.392 . S
C270 Eu241 2.828 1_565 S
C270 O254 1.249 . S
C270 O255 1.244 . S
C270 C264 1.505 . S
C271 O258 1.258 . S
C271 O259 1.242 . S
H272 C244 0.930 . S
H273 C245 0.930 . S
H274 C246 0.930 . S
H275 C247 0.931 . S
H276 C265 0.930 . S
H277 C266 0.930 . S
H278 C267 0.930 . S
H279 C268 0.931 . S
Eu280 C289 2.828 . S
Eu280 O291 2.392 . S
Eu280 O293 2.418 . S
Eu280 O298 2.373 . S
Eu280 O301 2.488 . S
Eu280 O302 2.471 . S
Eu280 O303 2.349 . S
Eu281 O290 2.373 . S
Eu281 O294 2.488 1_565 S
Eu281 O295 2.471 1_565 S
Eu281 O296 2.349 . S
Eu281 O299 2.392 . S
Eu281 O300 2.418 . S
Eu281 C310 2.828 1_565 S
C282 O300 1.244 . S
C282 O303 1.265 . S
C283 C284 1.379 . S
C283 C287 1.373 . S
C283 C289 1.505 . S
C284 C283 1.379 . S
C284 C286 1.369 . S
C284 H312 0.930 . S
C285 C287 1.383 . S
C285 C288 1.382 . S
C285 H313 0.930 . S
C286 C284 1.369 . S
C286 C288 1.392 . S
C286 H314 0.930 . S
C287 C283 1.373 . S
C287 C285 1.383 . S
C287 H315 0.931 . S
C288 C285 1.382 . S
C288 C286 1.392 . S
C289 Eu280 2.828 . S
C289 C283 1.505 . S
C289 O301 1.249 . S
C289 O302 1.244 . S
O290 Eu281 2.373 . S
O290 C292 1.258 . S
O291 Eu280 2.392 . S
O291 C292 1.242 . S
C292 O290 1.258 . S
C292 O291 1.242 . S
O293 Eu280 2.418 . S
O293 C297 1.244 . S
O294 Eu281 2.488 1_545 S
O294 C310 1.249 . S
O295 Eu281 2.471 1_545 S
O295 C310 1.244 . S
O296 Eu281 2.349 . S
O296 C297 1.265 . S
C297 O293 1.244 . S
C297 O296 1.265 . S
O298 Eu280 2.373 . S
O298 C311 1.258 . S
O299 Eu281 2.392 . S
O299 C311 1.242 . S
O300 Eu281 2.418 . S
O300 C282 1.244 . S
O301 Eu280 2.488 . S
O301 C289 1.249 . S
O302 Eu280 2.471 . S
O302 C289 1.244 . S
O303 Eu280 2.349 . S
O303 C282 1.265 . S
C304 C305 1.379 . S
C304 C308 1.373 . S
C304 C310 1.505 . S
C305 C304 1.379 . S
C305 C307 1.369 . S
C305 H316 0.930 . S
C306 C308 1.383 . S
C306 C309 1.382 . S
C306 H317 0.930 . S
C307 C305 1.369 . S
C307 C309 1.392 . S
C307 H318 0.930 . S
C308 C304 1.373 . S
C308 C306 1.383 . S
C308 H319 0.931 . S
C309 C306 1.382 . S
C309 C307 1.392 . S
C310 Eu281 2.828 1_545 S
C310 O294 1.249 . S
C310 O295 1.244 . S
C310 C304 1.505 . S
C311 O298 1.258 . S
C311 O299 1.242 . S
H312 C284 0.930 . S
H313 C285 0.930 . S
H314 C286 0.930 . S
H315 C287 0.931 . S
H316 C305 0.930 . S
H317 C306 0.930 . S
H318 C307 0.930 . S
H319 C308 0.931 . S
Eu320 C329 2.828 . S
Eu320 O331 2.392 . S
Eu320 O333 2.418 . S
Eu320 O338 2.373 . S
Eu320 O341 2.488 . S
Eu320 O342 2.471 . S
Eu320 O343 2.349 . S
Eu321 O330 2.373 . S
Eu321 O334 2.488 . S
Eu321 O335 2.471 . S
Eu321 O336 2.349 . S
Eu321 O339 2.392 . S
Eu321 O340 2.418 . S
Eu321 C350 2.828 . S
C322 O340 1.244 . S
C322 O343 1.265 . S
C323 C324 1.379 . S
C323 C327 1.373 . S
C323 C329 1.505 . S
C324 C323 1.379 . S
C324 C326 1.369 . S
C324 H352 0.930 . S
C325 C327 1.383 . S
C325 C328 1.382 . S
C325 H353 0.930 . S
C326 C324 1.369 . S
C326 C328 1.392 . S
C326 H354 0.930 . S
C327 C323 1.373 . S
C327 C325 1.383 . S
C327 H355 0.931 . S
C328 C325 1.382 . S
C328 C326 1.392 . S
C329 Eu320 2.828 . S
C329 C323 1.505 . S
C329 O341 1.249 . S
C329 O342 1.244 . S
O330 Eu321 2.373 . S
O330 C332 1.258 . S
O331 Eu320 2.392 . S
O331 C332 1.242 . S
C332 O330 1.258 . S
C332 O331 1.242 . S
O333 Eu320 2.418 . S
O333 C337 1.244 . S
O334 Eu321 2.488 . S
O334 C350 1.249 . S
O335 Eu321 2.471 . S
O335 C350 1.244 . S
O336 Eu321 2.349 . S
O336 C337 1.265 . S
C337 O333 1.244 . S
C337 O336 1.265 . S
O338 Eu320 2.373 . S
O338 C351 1.258 . S
O339 Eu321 2.392 . S
O339 C351 1.242 . S
O340 Eu321 2.418 . S
O340 C322 1.244 . S
O341 Eu320 2.488 . S
O341 C329 1.249 . S
O342 Eu320 2.471 . S
O342 C329 1.244 . S
O343 Eu320 2.349 . S
O343 C322 1.265 . S
C344 C345 1.379 . S
C344 C348 1.373 . S
C344 C350 1.505 . S
C345 C344 1.379 . S
C345 C347 1.369 . S
C345 H356 0.930 . S
C346 C348 1.383 . S
C346 C349 1.382 . S
C346 H357 0.930 . S
C347 C345 1.369 . S
C347 C349 1.392 . S
C347 H358 0.930 . S
C348 C344 1.373 . S
C348 C346 1.383 . S
C348 H359 0.931 . S
C349 C346 1.382 . S
C349 C347 1.392 . S
C350 Eu321 2.828 . S
C350 O334 1.249 . S
C350 O335 1.244 . S
C350 C344 1.505 . S
C351 O338 1.258 . S
C351 O339 1.242 . S
H352 C324 0.930 . S
H353 C325 0.930 . S
H354 C326 0.930 . S
H355 C327 0.931 . S
H356 C345 0.930 . S
H357 C346 0.930 . S
H358 C347 0.930 . S
H359 C348 0.931 . S
Eu360 C369 2.828 . S
Eu360 O371 2.392 . S
Eu360 O373 2.418 . S
Eu360 O378 2.373 . S
Eu360 O381 2.488 . S
Eu360 O382 2.471 . S
Eu360 O383 2.349 . S
Eu361 O370 2.373 . S
Eu361 O374 2.488 . S
Eu361 O375 2.471 . S
Eu361 O376 2.349 . S
Eu361 O379 2.392 . S
Eu361 O380 2.418 . S
Eu361 C390 2.828 . S
C362 O380 1.244 . S
C362 O383 1.265 . S
C363 C364 1.379 . S
C363 C367 1.373 . S
C363 C369 1.505 . S
C364 C363 1.379 . S
C364 C366 1.369 . S
C364 H392 0.930 . S
C365 C367 1.383 . S
C365 C368 1.382 . S
C365 H393 0.930 . S
C366 C364 1.369 . S
C366 C368 1.392 . S
C366 H394 0.930 . S
C367 C363 1.373 . S
C367 C365 1.383 . S
C367 H395 0.931 . S
C368 C365 1.382 . S
C368 C366 1.392 . S
C369 Eu360 2.828 . S
C369 C363 1.505 . S
C369 O381 1.249 . S
C369 O382 1.244 . S
O370 Eu361 2.373 . S
O370 C372 1.258 . S
O371 Eu360 2.392 . S
O371 C372 1.242 . S
C372 O370 1.258 . S
C372 O371 1.242 . S
O373 Eu360 2.418 . S
O373 C377 1.244 . S
O374 Eu361 2.488 . S
O374 C390 1.249 . S
O375 Eu361 2.471 . S
O375 C390 1.244 . S
O376 Eu361 2.349 . S
O376 C377 1.265 . S
C377 O373 1.244 . S
C377 O376 1.265 . S
O378 Eu360 2.373 . S
O378 C391 1.258 . S
O379 Eu361 2.392 . S
O379 C391 1.242 . S
O380 Eu361 2.418 . S
O380 C362 1.244 . S
O381 Eu360 2.488 . S
O381 C369 1.249 . S
O382 Eu360 2.471 . S
O382 C369 1.244 . S
O383 Eu360 2.349 . S
O383 C362 1.265 . S
C384 C385 1.379 . S
C384 C388 1.373 . S
C384 C390 1.505 . S
C385 C384 1.379 . S
C385 C387 1.369 . S
C385 H396 0.930 . S
C386 C388 1.383 . S
C386 C389 1.382 . S
C386 H397 0.930 . S
C387 C385 1.369 . S
C387 C389 1.392 . S
C387 H398 0.930 . S
C388 C384 1.373 . S
C388 C386 1.383 . S
C388 H399 0.931 . S
C389 C386 1.382 . S
C389 C387 1.392 . S
C390 Eu361 2.828 . S
C390 O374 1.249 . S
C390 O375 1.244 . S
C390 C384 1.505 . S
C391 O378 1.258 . S
C391 O379 1.242 . S
H392 C364 0.930 . S
H393 C365 0.930 . S
H394 C366 0.930 . S
H395 C367 0.931 . S
H396 C385 0.930 . S
H397 C386 0.930 . S
H398 C387 0.930 . S
H399 C388 0.931 . S
Eu400 C409 2.828 . S
Eu400 O411 2.392 . S
Eu400 O413 2.418 . S
Eu400 O418 2.373 . S
Eu400 O421 2.488 . S
Eu400 O422 2.471 . S
Eu400 O423 2.349 . S
Eu401 O410 2.373 . S
Eu401 O414 2.488 . S
Eu401 O415 2.471 . S
Eu401 O416 2.349 . S
Eu401 O419 2.392 . S
Eu401 O420 2.418 . S
Eu401 C430 2.828 . S
C402 O420 1.244 . S
C402 O423 1.265 . S
C403 C404 1.379 . S
C403 C407 1.373 . S
C403 C409 1.505 . S
C404 C403 1.379 . S
C404 C406 1.369 . S
C404 H432 0.930 . S
C405 C407 1.383 . S
C405 C408 1.382 . S
C405 H433 0.930 . S
C406 C404 1.369 . S
C406 C408 1.392 . S
C406 H434 0.930 . S
C407 C403 1.373 . S
C407 C405 1.383 . S
C407 H435 0.931 . S
C408 C405 1.382 . S
C408 C406 1.392 . S
C409 Eu400 2.828 . S
C409 C403 1.505 . S
C409 O421 1.249 . S
C409 O422 1.244 . S
O410 Eu401 2.373 . S
O410 C412 1.258 . S
O411 Eu400 2.392 . S
O411 C412 1.242 . S
C412 O410 1.258 . S
C412 O411 1.242 . S
O413 Eu400 2.418 . S
O413 C417 1.244 . S
O414 Eu401 2.488 . S
O414 C430 1.249 . S
O415 Eu401 2.471 . S
O415 C430 1.244 . S
O416 Eu401 2.349 . S
O416 C417 1.265 . S
C417 O413 1.244 . S
C417 O416 1.265 . S
O418 Eu400 2.373 . S
O418 C431 1.258 . S
O419 Eu401 2.392 . S
O419 C431 1.242 . S
O420 Eu401 2.418 . S
O420 C402 1.244 . S
O421 Eu400 2.488 . S
O421 C409 1.249 . S
O422 Eu400 2.471 . S
O422 C409 1.244 . S
O423 Eu400 2.349 . S
O423 C402 1.265 . S
C424 C425 1.379 . S
C424 C428 1.373 . S
C424 C430 1.505 . S
C425 C424 1.379 . S
C425 C427 1.369 . S
C425 H436 0.930 . S
C426 C428 1.383 . S
C426 C429 1.382 . S
C426 H437 0.930 . S
C427 C425 1.369 . S
C427 C429 1.392 . S
C427 H438 0.930 . S
C428 C424 1.373 . S
C428 C426 1.383 . S
C428 H439 0.931 . S
C429 C426 1.382 . S
C429 C427 1.392 . S
C430 Eu401 2.828 . S
C430 O414 1.249 . S
C430 O415 1.244 . S
C430 C424 1.505 . S
C431 O418 1.258 . S
C431 O419 1.242 . S
H432 C404 0.930 . S
H433 C405 0.930 . S
H434 C406 0.930 . S
H435 C407 0.931 . S
H436 C425 0.930 . S
H437 C426 0.930 . S
H438 C427 0.930 . S
H439 C428 0.931 . S
Eu440 C449 2.828 . S
Eu440 O451 2.392 . S
Eu440 O453 2.418 . S
Eu440 O458 2.373 . S
Eu440 O461 2.488 . S
Eu440 O462 2.471 . S
Eu440 O463 2.349 . S
Eu441 O450 2.373 . S
Eu441 O454 2.488 . S
Eu441 O455 2.471 . S
Eu441 O456 2.349 . S
Eu441 O459 2.392 . S
Eu441 O460 2.418 . S
Eu441 C470 2.828 . S
C442 O460 1.244 . S
C442 O463 1.265 . S
C443 C444 1.379 . S
C443 C447 1.373 . S
C443 C449 1.505 . S
C444 C443 1.379 . S
C444 C446 1.369 . S
C444 H472 0.930 . S
C445 C447 1.383 . S
C445 C448 1.382 . S
C445 H473 0.930 . S
C446 C444 1.369 . S
C446 C448 1.392 . S
C446 H474 0.930 . S
C447 C443 1.373 . S
C447 C445 1.383 . S
C447 H475 0.931 . S
C448 C445 1.382 . S
C448 C446 1.392 . S
C449 Eu440 2.828 . S
C449 C443 1.505 . S
C449 O461 1.249 . S
C449 O462 1.244 . S
O450 Eu441 2.373 . S
O450 C452 1.258 . S
O451 Eu440 2.392 . S
O451 C452 1.242 . S
C452 O450 1.258 . S
C452 O451 1.242 . S
O453 Eu440 2.418 . S
O453 C457 1.244 . S
O454 Eu441 2.488 . S
O454 C470 1.249 . S
O455 Eu441 2.471 . S
O455 C470 1.244 . S
O456 Eu441 2.349 . S
O456 C457 1.265 . S
C457 O453 1.244 . S
C457 O456 1.265 . S
O458 Eu440 2.373 . S
O458 C471 1.258 . S
O459 Eu441 2.392 . S
O459 C471 1.242 . S
O460 Eu441 2.418 . S
O460 C442 1.244 . S
O461 Eu440 2.488 . S
O461 C449 1.249 . S
O462 Eu440 2.471 . S
O462 C449 1.244 . S
O463 Eu440 2.349 . S
O463 C442 1.265 . S
C464 C465 1.379 . S
C464 C468 1.373 . S
C464 C470 1.505 . S
C465 C464 1.379 . S
C465 C467 1.369 . S
C465 H476 0.930 . S
C466 C468 1.383 . S
C466 C469 1.382 . S
C466 H477 0.930 . S
C467 C465 1.369 . S
C467 C469 1.392 . S
C467 H478 0.930 . S
C468 C464 1.373 . S
C468 C466 1.383 . S
C468 H479 0.931 . S
C469 C466 1.382 . S
C469 C467 1.392 . S
C470 Eu441 2.828 . S
C470 O454 1.249 . S
C470 O455 1.244 . S
C470 C464 1.505 . S
C471 O458 1.258 . S
C471 O459 1.242 . S
H472 C444 0.930 . S
H473 C445 0.930 . S
H474 C446 0.930 . S
H475 C447 0.931 . S
H476 C465 0.930 . S
H477 C466 0.930 . S
H478 C467 0.930 . S
H479 C468 0.931 . S
Eu480 C489 2.828 . S
Eu480 O491 2.392 . S
Eu480 O493 2.418 . S
Eu480 O498 2.373 . S
Eu480 O501 2.488 . S
Eu480 O502 2.471 . S
Eu480 O503 2.349 . S
Eu481 O490 2.373 . S
Eu481 O494 2.488 . S
Eu481 O495 2.471 . S
Eu481 O496 2.349 . S
Eu481 O499 2.392 . S
Eu481 O500 2.418 . S
Eu481 C510 2.828 . S
C482 O500 1.244 . S
C482 O503 1.265 . S
C483 C484 1.379 . S
C483 C487 1.373 . S
C483 C489 1.505 . S
C484 C483 1.379 . S
C484 C486 1.369 . S
C484 H512 0.930 . S
C485 C487 1.383 . S
C485 C488 1.382 . S
C485 H513 0.930 . S
C486 C484 1.369 . S
C486 C488 1.392 . S
C486 H514 0.930 . S
C487 C483 1.373 . S
C487 C485 1.383 . S
C487 H515 0.931 . S
C488 C485 1.382 . S
C488 C486 1.392 . S
C489 Eu480 2.828 . S
C489 C483 1.505 . S
C489 O501 1.249 . S
C489 O502 1.244 . S
O490 Eu481 2.373 . S
O490 C492 1.258 . S
O491 Eu480 2.392 . S
O491 C492 1.242 . S
C492 O490 1.258 . S
C492 O491 1.242 . S
O493 Eu480 2.418 . S
O493 C497 1.244 . S
O494 Eu481 2.488 . S
O494 C510 1.249 . S
O495 Eu481 2.471 . S
O495 C510 1.244 . S
O496 Eu481 2.349 . S
O496 C497 1.265 . S
C497 O493 1.244 . S
C497 O496 1.265 . S
O498 Eu480 2.373 . S
O498 C511 1.258 . S
O499 Eu481 2.392 . S
O499 C511 1.242 . S
O500 Eu481 2.418 . S
O500 C482 1.244 . S
O501 Eu480 2.488 . S
O501 C489 1.249 . S
O502 Eu480 2.471 . S
O502 C489 1.244 . S
O503 Eu480 2.349 . S
O503 C482 1.265 . S
C504 C505 1.379 . S
C504 C508 1.373 . S
C504 C510 1.505 . S
C505 C504 1.379 . S
C505 C507 1.369 . S
C505 H516 0.930 . S
C506 C508 1.383 . S
C506 C509 1.382 . S
C506 H517 0.930 . S
C507 C505 1.369 . S
C507 C509 1.392 . S
C507 H518 0.930 . S
C508 C504 1.373 . S
C508 C506 1.383 . S
C508 H519 0.931 . S
C509 C506 1.382 . S
C509 C507 1.392 . S
C510 Eu481 2.828 . S
C510 O494 1.249 . S
C510 O495 1.244 . S
C510 C504 1.505 . S
C511 O498 1.258 . S
C511 O499 1.242 . S
H512 C484 0.930 . S
H513 C485 0.930 . S
H514 C486 0.930 . S
H515 C487 0.931 . S
H516 C505 0.930 . S
H517 C506 0.930 . S
H518 C507 0.930 . S
H519 C508 0.931 . S
Eu520 C529 2.828 . S
Eu520 O531 2.392 . S
Eu520 O533 2.418 . S
Eu520 O538 2.373 . S
Eu520 O541 2.488 . S
Eu520 O542 2.471 . S
Eu520 O543 2.349 . S
Eu521 O530 2.373 . S
Eu521 O534 2.488 . S
Eu521 O535 2.471 . S
Eu521 O536 2.349 . S
Eu521 O539 2.392 . S
Eu521 O540 2.418 . S
Eu521 C550 2.828 . S
C522 O540 1.244 . S
C522 O543 1.265 . S
C523 C524 1.379 . S
C523 C527 1.373 . S
C523 C529 1.505 . S
C524 C523 1.379 . S
C524 C526 1.369 . S
C524 H552 0.930 . S
C525 C527 1.383 . S
C525 C528 1.382 . S
C525 H553 0.930 . S
C526 C524 1.369 . S
C526 C528 1.392 . S
C526 H554 0.930 . S
C527 C523 1.373 . S
C527 C525 1.383 . S
C527 H555 0.931 . S
C528 C525 1.382 . S
C528 C526 1.392 . S
C529 Eu520 2.828 . S
C529 C523 1.505 . S
C529 O541 1.249 . S
C529 O542 1.244 . S
O530 Eu521 2.373 . S
O530 C532 1.258 . S
O531 Eu520 2.392 . S
O531 C532 1.242 . S
C532 O530 1.258 . S
C532 O531 1.242 . S
O533 Eu520 2.418 . S
O533 C537 1.244 . S
O534 Eu521 2.488 . S
O534 C550 1.249 . S
O535 Eu521 2.471 . S
O535 C550 1.244 . S
O536 Eu521 2.349 . S
O536 C537 1.265 . S
C537 O533 1.244 . S
C537 O536 1.265 . S
O538 Eu520 2.373 . S
O538 C551 1.258 . S
O539 Eu521 2.392 . S
O539 C551 1.242 . S
O540 Eu521 2.418 . S
O540 C522 1.244 . S
O541 Eu520 2.488 . S
O541 C529 1.249 . S
O542 Eu520 2.471 . S
O542 C529 1.244 . S
O543 Eu520 2.349 . S
O543 C522 1.265 . S
C544 C545 1.379 . S
C544 C548 1.373 . S
C544 C550 1.505 . S
C545 C544 1.379 . S
C545 C547 1.369 . S
C545 H556 0.930 . S
C546 C548 1.383 . S
C546 C549 1.382 . S
C546 H557 0.930 . S
C547 C545 1.369 . S
C547 C549 1.392 . S
C547 H558 0.930 . S
C548 C544 1.373 . S
C548 C546 1.383 . S
C548 H559 0.931 . S
C549 C546 1.382 . S
C549 C547 1.392 . S
C550 Eu521 2.828 . S
C550 O534 1.249 . S
C550 O535 1.244 . S
C550 C544 1.505 . S
C551 O538 1.258 . S
C551 O539 1.242 . S
H552 C524 0.930 . S
H553 C525 0.930 . S
H554 C526 0.930 . S
H555 C527 0.931 . S
H556 C545 0.930 . S
H557 C546 0.930 . S
H558 C547 0.930 . S
H559 C548 0.931 . S
Eu560 C569 2.828 . S
Eu560 O571 2.392 . S
Eu560 O573 2.418 . S
Eu560 O578 2.373 . S
Eu560 O581 2.488 . S
Eu560 O582 2.471 . S
Eu560 O583 2.349 . S
Eu561 O570 2.373 . S
Eu561 O574 2.488 . S
Eu561 O575 2.471 . S
Eu561 O576 2.349 . S
Eu561 O579 2.392 . S
Eu561 O580 2.418 . S
Eu561 C590 2.828 . S
C562 O580 1.244 . S
C562 O583 1.265 . S
C563 C564 1.379 . S
C563 C567 1.373 . S
C563 C569 1.505 . S
C564 C563 1.379 . S
C564 C566 1.369 . S
C564 H592 0.930 . S
C565 C567 1.383 . S
C565 C568 1.382 . S
C565 H593 0.930 . S
C566 C564 1.369 . S
C566 C568 1.392 . S
C566 H594 0.930 . S
C567 C563 1.373 . S
C567 C565 1.383 . S
C567 H595 0.931 . S
C568 C565 1.382 . S
C568 C566 1.392 . S
C569 Eu560 2.828 . S
C569 C563 1.505 . S
C569 O581 1.249 . S
C569 O582 1.244 . S
O570 Eu561 2.373 . S
O570 C572 1.258 . S
O571 Eu560 2.392 . S
O571 C572 1.242 . S
C572 O570 1.258 . S
C572 O571 1.242 . S
O573 Eu560 2.418 . S
O573 C577 1.244 . S
O574 Eu561 2.488 . S
O574 C590 1.249 . S
O575 Eu561 2.471 . S
O575 C590 1.244 . S
O576 Eu561 2.349 . S
O576 C577 1.265 . S
C577 O573 1.244 . S
C577 O576 1.265 . S
O578 Eu560 2.373 . S
O578 C591 1.258 . S
O579 Eu561 2.392 . S
O579 C591 1.242 . S
O580 Eu561 2.418 . S
O580 C562 1.244 . S
O581 Eu560 2.488 . S
O581 C569 1.249 . S
O582 Eu560 2.471 . S
O582 C569 1.244 . S
O583 Eu560 2.349 . S
O583 C562 1.265 . S
C584 C585 1.379 . S
C584 C588 1.373 . S
C584 C590 1.505 . S
C585 C584 1.379 . S
C585 C587 1.369 . S
C585 H596 0.930 . S
C586 C588 1.383 . S
C586 C589 1.382 . S
C586 H597 0.930 . S
C587 C585 1.369 . S
C587 C589 1.392 . S
C587 H598 0.930 . S
C588 C584 1.373 . S
C588 C586 1.383 . S
C588 H599 0.931 . S
C589 C586 1.382 . S
C589 C587 1.392 . S
C590 Eu561 2.828 . S
C590 O574 1.249 . S
C590 O575 1.244 . S
C590 C584 1.505 . S
C591 O578 1.258 . S
C591 O579 1.242 . S
H592 C564 0.930 . S
H593 C565 0.930 . S
H594 C566 0.930 . S
H595 C567 0.931 . S
H596 C585 0.930 . S
H597 C586 0.930 . S
H598 C587 0.930 . S
H599 C588 0.931 . S
Eu600 C609 2.828 . S
Eu600 O611 2.392 . S
Eu600 O613 2.418 . S
Eu600 O618 2.373 . S
Eu600 O621 2.488 . S
Eu600 O622 2.471 . S
Eu600 O623 2.349 . S
Eu601 O610 2.373 . S
Eu601 O614 2.488 . S
Eu601 O615 2.471 . S
Eu601 O616 2.349 . S
Eu601 O619 2.392 . S
Eu601 O620 2.418 . S
Eu601 C630 2.828 . S
C602 O620 1.244 . S
C602 O623 1.265 . S
C603 C604 1.379 . S
C603 C607 1.373 . S
C603 C609 1.505 . S
C604 C603 1.379 . S
C604 C606 1.369 . S
C604 H632 0.930 . S
C605 C607 1.383 . S
C605 C608 1.382 . S
C605 H633 0.930 . S
C606 C604 1.369 . S
C606 C608 1.392 . S
C606 H634 0.930 . S
C607 C603 1.373 . S
C607 C605 1.383 . S
C607 H635 0.931 . S
C608 C605 1.382 . S
C608 C606 1.392 . S
C609 Eu600 2.828 . S
C609 C603 1.505 . S
C609 O621 1.249 . S
C609 O622 1.244 . S
O610 Eu601 2.373 . S
O610 C612 1.258 . S
O611 Eu600 2.392 . S
O611 C612 1.242 . S
C612 O610 1.258 . S
C612 O611 1.242 . S
O613 Eu600 2.418 . S
O613 C617 1.244 . S
O614 Eu601 2.488 . S
O614 C630 1.249 . S
O615 Eu601 2.471 . S
O615 C630 1.244 . S
O616 Eu601 2.349 . S
O616 C617 1.265 . S
C617 O613 1.244 . S
C617 O616 1.265 . S
O618 Eu600 2.373 . S
O618 C631 1.258 . S
O619 Eu601 2.392 . S
O619 C631 1.242 . S
O620 Eu601 2.418 . S
O620 C602 1.244 . S
O621 Eu600 2.488 . S
O621 C609 1.249 . S
O622 Eu600 2.471 . S
O622 C609 1.244 . S
O623 Eu600 2.349 . S
O623 C602 1.265 . S
C624 C625 1.379 . S
C624 C628 1.373 . S
C624 C630 1.505 . S
C625 C624 1.379 . S
C625 C627 1.369 . S
C625 H636 0.930 . S
C626 C628 1.383 . S
C626 C629 1.382 . S
C626 H637 0.930 . S
C627 C625 1.369 . S
C627 C629 1.392 . S
C627 H638 0.930 . S
C628 C624 1.373 . S
C628 C626 1.383 . S
C628 H639 0.931 . S
C629 C626 1.382 . S
C629 C627 1.392 . S
C630 Eu601 2.828 . S
C630 O614 1.249 . S
C630 O615 1.244 . S
C630 C624 1.505 . S
C631 O618 1.258 . S
C631 O619 1.242 . S
H632 C604 0.930 . S
H633 C605 0.930 . S
H634 C606 0.930 . S
H635 C607 0.931 . S
H636 C625 0.930 . S
H637 C626 0.930 . S
H638 C627 0.930 . S
H639 C628 0.931 . S
C640 C641 1.387 . S
C640 H644 0.950 . S
C640 C649 1.390 . S
C641 C640 1.387 . S
C641 C643 1.387 . S
H642 C649 0.950 . S
C643 C641 1.387 . S
C643 C645 1.390 . S
C643 H647 0.950 . S
H644 C640 0.950 . S
C645 C643 1.390 . S
C645 C646 1.387 . S
C645 H648 0.950 . S
C646 C645 1.387 . S
C646 C649 1.387 . S
H647 C643 0.950 . S
H648 C645 0.950 . S
C649 C640 1.390 . S
C649 H642 0.950 . S
C649 C646 1.387 . S
C650 C651 1.387 . S
C650 H654 0.950 . S
C650 C659 1.390 . S
C651 C650 1.387 . S
C651 C653 1.387 . S
H652 C659 0.950 . S
C653 C651 1.387 . S
C653 C655 1.390 . S
C653 H657 0.950 . S
H654 C650 0.950 . S
C655 C653 1.390 . S
C655 C656 1.387 . S
C655 H658 0.950 . S
C656 C655 1.387 . S
C656 C659 1.387 . S
H657 C653 0.950 . S
H658 C655 0.950 . S
C659 C650 1.390 . S
C659 H652 0.950 . S
C659 C656 1.387 . S
C660 C661 1.387 . S
C660 H664 0.950 . S
C660 C669 1.390 . S
C661 C660 1.387 . S
C661 C663 1.387 . S
H662 C669 0.950 . S
C663 C661 1.387 . S
C663 C665 1.390 . S
C663 H667 0.950 . S
H664 C660 0.950 . S
C665 C663 1.390 . S
C665 C666 1.387 . S
C665 H668 0.950 . S
C666 C665 1.387 . S
C666 C669 1.387 . S
H667 C663 0.950 . S
H668 C665 0.950 . S
C669 C660 1.390 . S
C669 H662 0.950 . S
C669 C666 1.387 . S
C670 C671 1.387 . S
C670 H674 0.950 . S
C670 C679 1.390 . S
C671 C670 1.387 . S
C671 C673 1.387 . S
H672 C679 0.950 . S
C673 C671 1.387 . S
C673 C675 1.390 . S
C673 H677 0.950 . S
H674 C670 0.950 . S
C675 C673 1.390 . S
C675 C676 1.387 . S
C675 H678 0.950 . S
C676 C675 1.387 . S
C676 C679 1.387 . S
H677 C673 0.950 . S
H678 C675 0.950 . S
C679 C670 1.390 . S
C679 H672 0.950 . S
C679 C676 1.387 . S
C680 C681 1.387 . S
C680 H684 0.950 . S
C680 C689 1.390 . S
C681 C680 1.387 . S
C681 C683 1.387 . S
H682 C689 0.950 . S
C683 C681 1.387 . S
C683 C685 1.390 . S
C683 H687 0.950 . S
H684 C680 0.950 . S
C685 C683 1.390 . S
C685 C686 1.387 . S
C685 H688 0.950 . S
C686 C685 1.387 . S
C686 C689 1.387 . S
H687 C683 0.950 . S
H688 C685 0.950 . S
C689 C680 1.390 . S
C689 H682 0.950 . S
C689 C686 1.387 . S
C690 C691 1.387 . S
C690 H694 0.950 . S
C690 C699 1.390 . S
C691 C690 1.387 . S
C691 C693 1.387 . S
H692 C699 0.950 . S
C693 C691 1.387 . S
C693 C695 1.390 . S
C693 H697 0.950 . S
H694 C690 0.950 . S
C695 C693 1.390 . S
C695 C696 1.387 . S
C695 H698 0.950 . S
C696 C695 1.387 . S
C696 C699 1.387 . S
H697 C693 0.950 . S
H698 C695 0.950 . S
C699 C690 1.390 . S
C699 H692 0.950 . S
C699 C696 1.387 . S
C700 C701 1.387 . S
C700 H704 0.950 . S
C700 C709 1.390 . S
C701 C700 1.387 . S
C701 C703 1.387 . S
H702 C709 0.950 . S
C703 C701 1.387 . S
C703 C705 1.390 . S
C703 H707 0.950 . S
H704 C700 0.950 . S
C705 C703 1.390 . S
C705 C706 1.387 . S
C705 H708 0.950 . S
C706 C705 1.387 . S
C706 C709 1.387 . S
H707 C703 0.950 . S
H708 C705 0.950 . S
C709 C700 1.390 . S
C709 H702 0.950 . S
C709 C706 1.387 . S
C710 C711 1.387 . S
C710 H714 0.950 . S
C710 C719 1.390 . S
C711 C710 1.387 . S
C711 C713 1.387 . S
H712 C719 0.950 . S
C713 C711 1.387 . S
C713 C715 1.390 . S
C713 H717 0.950 . S
H714 C710 0.950 . S
C715 C713 1.390 . S
C715 C716 1.387 . S
C715 H718 0.950 . S
C716 C715 1.387 . S
C716 C719 1.387 . S
H717 C713 0.950 . S
H718 C715 0.950 . S
C719 C710 1.390 . S
C719 H712 0.950 . S
C719 C716 1.387 . S
C720 C721 1.387 . S
C720 H724 0.950 . S
C720 C729 1.390 1_565 S
C721 C720 1.387 . S
C721 C723 1.387 . S
H722 C729 0.950 . S
C723 C721 1.387 . S
C723 C725 1.390 1_565 S
C723 H727 0.950 . S
H724 C720 0.950 . S
C725 C723 1.390 1_545 S
C725 C726 1.387 . S
C725 H728 0.950 . S
C726 C725 1.387 . S
C726 C729 1.387 . S
H727 C723 0.950 . S
H728 C725 0.950 . S
C729 C720 1.390 1_545 S
C729 H722 0.950 . S
C729 C726 1.387 . S
C730 C731 1.387 . S
C730 H734 0.950 . S
C730 C739 1.390 1_545 S
C731 C730 1.387 . S
C731 C733 1.387 . S
H732 C739 0.950 . S
C733 C731 1.387 . S
C733 C735 1.390 1_545 S
C733 H737 0.950 . S
H734 C730 0.950 . S
C735 C733 1.390 1_565 S
C735 C736 1.387 . S
C735 H738 0.950 . S
C736 C735 1.387 . S
C736 C739 1.387 . S
H737 C733 0.950 . S
H738 C735 0.950 . S
C739 C730 1.390 1_565 S
C739 H732 0.950 . S
C739 C736 1.387 . S
C740 C741 1.387 . S
C740 H744 0.950 . S
C740 C749 1.390 1_545 S
C741 C740 1.387 . S
C741 C743 1.387 . S
H742 C749 0.950 . S
C743 C741 1.387 . S
C743 C745 1.390 1_545 S
C743 H747 0.950 . S
H744 C740 0.950 . S
C745 C743 1.390 1_565 S
C745 C746 1.387 . S
C745 H748 0.950 . S
C746 C745 1.387 . S
C746 C749 1.387 . S
H747 C743 0.950 . S
H748 C745 0.950 . S
C749 C740 1.390 1_565 S
C749 H742 0.950 . S
C749 C746 1.387 . S
C750 C751 1.387 . S
C750 H754 0.950 . S
C750 C759 1.390 1_545 S
C751 C750 1.387 . S
C751 C753 1.387 . S
H752 C759 0.950 . S
C753 C751 1.387 . S
C753 C755 1.390 1_545 S
C753 H757 0.950 . S
H754 C750 0.950 . S
C755 C753 1.390 1_565 S
C755 C756 1.387 . S
C755 H758 0.950 . S
C756 C755 1.387 . S
C756 C759 1.387 . S
H757 C753 0.950 . S
H758 C755 0.950 . S
C759 C750 1.390 1_565 S
C759 H752 0.950 . S
C759 C756 1.387 . S
C760 C761 1.387 . S
C760 H764 0.950 . S
C760 C769 1.390 . S
C761 C760 1.387 . S
C761 C763 1.387 . S
H762 C769 0.950 . S
C763 C761 1.387 . S
C763 C765 1.390 . S
C763 H767 0.950 . S
H764 C760 0.950 . S
C765 C763 1.390 . S
C765 C766 1.387 . S
C765 H768 0.950 . S
C766 C765 1.387 . S
C766 C769 1.387 . S
H767 C763 0.950 . S
H768 C765 0.950 . S
C769 C760 1.390 . S
C769 H762 0.950 . S
C769 C766 1.387 . S
C770 C771 1.387 . S
C770 H774 0.950 . S
C770 C779 1.390 . S
C771 C770 1.387 . S
C771 C773 1.387 . S
H772 C779 0.950 . S
C773 C771 1.387 . S
C773 C775 1.390 . S
C773 H777 0.950 . S
H774 C770 0.950 . S
C775 C773 1.390 . S
C775 C776 1.387 . S
C775 H778 0.950 . S
C776 C775 1.387 . S
C776 C779 1.387 . S
H777 C773 0.950 . S
H778 C775 0.950 . S
C779 C770 1.390 . S
C779 H772 0.950 . S
C779 C776 1.387 . S
C780 C781 1.387 . S
C780 H784 0.950 . S
C780 C789 1.390 . S
C781 C780 1.387 . S
C781 C783 1.387 . S
H782 C789 0.950 . S
C783 C781 1.387 . S
C783 C785 1.390 . S
C783 H787 0.950 . S
H784 C780 0.950 . S
C785 C783 1.390 . S
C785 C786 1.387 . S
C785 H788 0.950 . S
C786 C785 1.387 . S
C786 C789 1.387 . S
H787 C783 0.950 . S
H788 C785 0.950 . S
C789 C780 1.390 . S
C789 H782 0.950 . S
C789 C786 1.387 . S
C790 C791 1.387 . S
C790 H794 0.950 . S
C790 C799 1.390 . S
C791 C790 1.387 . S
C791 C793 1.387 . S
H792 C799 0.950 . S
C793 C791 1.387 . S
C793 C795 1.390 . S
C793 H797 0.950 . S
H794 C790 0.950 . S
C795 C793 1.390 . S
C795 C796 1.387 . S
C795 H798 0.950 . S
C796 C795 1.387 . S
C796 C799 1.387 . S
H797 C793 0.950 . S
H798 C795 0.950 . S
C799 C790 1.390 . S
C799 H792 0.950 . S
C799 C796 1.387 . S
C800 C801 1.387 . S
C800 H804 0.950 . S
C800 C809 1.390 1_556 S
C801 C800 1.387 . S
C801 C803 1.387 . S
H802 C809 0.950 . S
C803 C801 1.387 . S
C803 C805 1.390 1_556 S
C803 H807 0.950 . S
H804 C800 0.950 . S
C805 C803 1.390 1_554 S
C805 C806 1.387 . S
C805 H808 0.950 . S
C806 C805 1.387 . S
C806 C809 1.387 . S
H807 C803 0.950 . S
H808 C805 0.950 . S
C809 C800 1.390 1_554 S
C809 H802 0.950 . S
C809 C806 1.387 . S
C810 C811 1.387 . S
C810 H814 0.950 . S
C810 C819 1.390 1_556 S
C811 C810 1.387 . S
C811 C813 1.387 . S
H812 C819 0.950 . S
C813 C811 1.387 . S
C813 C815 1.390 1_556 S
C813 H817 0.950 . S
H814 C810 0.950 . S
C815 C813 1.390 1_554 S
C815 C816 1.387 . S
C815 H818 0.950 . S
C816 C815 1.387 . S
C816 C819 1.387 . S
H817 C813 0.950 . S
H818 C815 0.950 . S
C819 C810 1.390 1_554 S
C819 H812 0.950 . S
C819 C816 1.387 . S
C820 C821 1.387 . S
C820 H824 0.950 . S
C820 C829 1.390 . S
C821 C820 1.387 . S
C821 C823 1.387 . S
H822 C829 0.950 . S
C823 C821 1.387 . S
C823 C825 1.390 . S
C823 H827 0.950 . S
H824 C820 0.950 . S
C825 C823 1.390 . S
C825 C826 1.387 . S
C825 H828 0.950 . S
C826 C825 1.387 . S
C826 C829 1.387 . S
H827 C823 0.950 . S
H828 C825 0.950 . S
C829 C820 1.390 . S
C829 H822 0.950 . S
C829 C826 1.387 . S
C830 C831 1.387 . S
C830 H834 0.950 . S
C830 C839 1.390 . S
C831 C830 1.387 . S
C831 C833 1.387 . S
H832 C839 0.950 . S
C833 C831 1.387 . S
C833 C835 1.390 . S
C833 H837 0.950 . S
H834 C830 0.950 . S
C835 C833 1.390 . S
C835 C836 1.387 . S
C835 H838 0.950 . S
C836 C835 1.387 . S
C836 C839 1.387 . S
H837 C833 0.950 . S
H838 C835 0.950 . S
C839 C830 1.390 . S
C839 H832 0.950 . S
C839 C836 1.387 . S
C840 C841 1.387 . S
C840 H844 0.950 . S
C840 C849 1.390 1_554 S
C841 C840 1.387 . S
C841 C843 1.387 . S
H842 C849 0.950 . S
C843 C841 1.387 . S
C843 C845 1.390 1_554 S
C843 H847 0.950 . S
H844 C840 0.950 . S
C845 C843 1.390 1_556 S
C845 C846 1.387 . S
C845 H848 0.950 . S
C846 C845 1.387 . S
C846 C849 1.387 . S
H847 C843 0.950 . S
H848 C845 0.950 . S
C849 C840 1.390 1_556 S
C849 H842 0.950 . S
C849 C846 1.387 . S
C850 C851 1.387 . S
C850 H854 0.950 . S
C850 C859 1.390 1_556 S
C851 C850 1.387 . S
C851 C853 1.387 . S
H852 C859 0.950 . S
C853 C851 1.387 . S
C853 C855 1.390 1_556 S
C853 H857 0.950 . S
H854 C850 0.950 . S
C855 C853 1.390 1_554 S
C855 C856 1.387 . S
C855 H858 0.950 . S
C856 C855 1.387 . S
C856 C859 1.387 . S
H857 C853 0.950 . S
H858 C855 0.950 . S
C859 C850 1.390 1_554 S
C859 H852 0.950 . S
C859 C856 1.387 . S
C860 C861 1.387 . S
C860 H864 0.950 . S
C860 C869 1.390 . S
C861 C860 1.387 . S
C861 C863 1.387 . S
H862 C869 0.950 . S
C863 C861 1.387 . S
C863 C865 1.390 . S
C863 H867 0.950 . S
H864 C860 0.950 . S
C865 C863 1.390 . S
C865 C866 1.387 . S
C865 H868 0.950 . S
C866 C865 1.387 . S
C866 C869 1.387 . S
H867 C863 0.950 . S
H868 C865 0.950 . S
C869 C860 1.390 . S
C869 H862 0.950 . S
C869 C866 1.387 . S
C870 C871 1.387 . S
C870 H874 0.950 . S
C870 C879 1.390 . S
C871 C870 1.387 . S
C871 C873 1.387 . S
H872 C879 0.950 . S
C873 C871 1.387 . S
C873 C875 1.390 . S
C873 H877 0.950 . S
H874 C870 0.950 . S
C875 C873 1.390 . S
C875 C876 1.387 . S
C875 H878 0.950 . S
C876 C875 1.387 . S
C876 C879 1.387 . S
H877 C873 0.950 . S
H878 C875 0.950 . S
C879 C870 1.390 . S
C879 H872 0.950 . S
C879 C876 1.387 . S
C880 C881 1.387 . S
C880 H884 0.950 . S
C880 C889 1.390 1_665 S
C881 C880 1.387 . S
C881 C883 1.387 . S
H882 C889 0.950 . S
C883 C881 1.387 . S
C883 C885 1.390 1_665 S
C883 H887 0.950 . S
H884 C880 0.950 . S
C885 C883 1.390 1_445 S
C885 C886 1.387 . S
C885 H888 0.950 . S
C886 C885 1.387 . S
C886 C889 1.387 . S
H887 C883 0.950 . S
H888 C885 0.950 . S
C889 C880 1.390 1_445 S
C889 H882 0.950 . S
C889 C886 1.387 . S
C890 C891 1.387 . S
C890 H894 0.950 . S
C890 C899 1.390 1_645 S
C891 C890 1.387 . S
C891 C893 1.387 . S
H892 C899 0.950 . S
C893 C891 1.387 . S
C893 C895 1.390 1_645 S
C893 H897 0.950 . S
H894 C890 0.950 . S
C895 C893 1.390 1_465 S
C895 C896 1.387 . S
C895 H898 0.950 . S
C896 C895 1.387 . S
C896 C899 1.387 . S
H897 C893 0.950 . S
H898 C895 0.950 . S
C899 C890 1.390 1_465 S
C899 H892 0.950 . S
C899 C896 1.387 . S
C900 C901 1.387 . S
C900 H904 0.950 . S
C900 C909 1.390 1_445 S
C901 C900 1.387 . S
C901 C903 1.387 . S
H902 C909 0.950 . S
C903 C901 1.387 . S
C903 C905 1.390 1_445 S
C903 H907 0.950 . S
H904 C900 0.950 . S
C905 C903 1.390 1_665 S
C905 C906 1.387 . S
C905 H908 0.950 . S
C906 C905 1.387 . S
C906 C909 1.387 . S
H907 C903 0.950 . S
H908 C905 0.950 . S
C909 C900 1.390 1_665 S
C909 H902 0.950 . S
C909 C906 1.387 . S
C910 C911 1.387 . S
C910 H914 0.950 . S
C910 C919 1.390 1_645 S
C911 C910 1.387 . S
C911 C913 1.387 . S
H912 C919 0.950 . S
C913 C911 1.387 . S
C913 C915 1.390 1_645 S
C913 H917 0.950 . S
H914 C910 0.950 . S
C915 C913 1.390 1_465 S
C915 C916 1.387 . S
C915 H918 0.950 . S
C916 C915 1.387 . S
C916 C919 1.387 . S
H917 C913 0.950 . S
H918 C915 0.950 . S
C919 C910 1.390 1_465 S
C919 H912 0.950 . S
C919 C916 1.387 . S
C920 C921 1.387 . S
C920 H924 0.950 . S
C920 C929 1.390 . S
C921 C920 1.387 . S
C921 C923 1.387 . S
H922 C929 0.950 . S
C923 C921 1.387 . S
C923 C925 1.390 . S
C923 H927 0.950 . S
H924 C920 0.950 . S
C925 C923 1.390 . S
C925 C926 1.387 . S
C925 H928 0.950 . S
C926 C925 1.387 . S
C926 C929 1.387 . S
H927 C923 0.950 . S
H928 C925 0.950 . S
C929 C920 1.390 . S
C929 H922 0.950 . S
C929 C926 1.387 . S
C930 C931 1.387 . S
C930 H934 0.950 . S
C930 C939 1.390 . S
C931 C930 1.387 . S
C931 C933 1.387 . S
H932 C939 0.950 . S
C933 C931 1.387 . S
C933 C935 1.390 . S
C933 H937 0.950 . S
H934 C930 0.950 . S
C935 C933 1.390 . S
C935 C936 1.387 . S
C935 H938 0.950 . S
C936 C935 1.387 . S
C936 C939 1.387 . S
H937 C933 0.950 . S
H938 C935 0.950 . S
C939 C930 1.390 . S
C939 H932 0.950 . S
C939 C936 1.387 . S
C940 C941 1.387 . S
C940 H944 0.950 . S
C940 C949 1.390 . S
C941 C940 1.387 . S
C941 C943 1.387 . S
H942 C949 0.950 . S
C943 C941 1.387 . S
C943 C945 1.390 . S
C943 H947 0.950 . S
H944 C940 0.950 . S
C945 C943 1.390 . S
C945 C946 1.387 . S
C945 H948 0.950 . S
C946 C945 1.387 . S
C946 C949 1.387 . S
H947 C943 0.950 . S
H948 C945 0.950 . S
C949 C940 1.390 . S
C949 H942 0.950 . S
C949 C946 1.387 . S
C950 C951 1.387 . S
C950 H954 0.950 . S
C950 C959 1.390 . S
C951 C950 1.387 . S
C951 C953 1.387 . S
H952 C959 0.950 . S
C953 C951 1.387 . S
C953 C955 1.390 . S
C953 H957 0.950 . S
H954 C950 0.950 . S
C955 C953 1.390 . S
C955 C956 1.387 . S
C955 H958 0.950 . S
C956 C955 1.387 . S
C956 C959 1.387 . S
H957 C953 0.950 . S
H958 C955 0.950 . S
C959 C950 1.390 . S
C959 H952 0.950 . S
C959 C956 1.387 . S
C960 C961 1.387 . S
C960 H964 0.950 . S
C960 C969 1.390 . S
C961 C960 1.387 . S
C961 C963 1.387 . S
H962 C969 0.950 . S
C963 C961 1.387 . S
C963 C965 1.390 . S
C963 H967 0.950 . S
H964 C960 0.950 . S
C965 C963 1.390 . S
C965 C966 1.387 . S
C965 H968 0.950 . S
C966 C965 1.387 . S
C966 C969 1.387 . S
H967 C963 0.950 . S
H968 C965 0.950 . S
C969 C960 1.390 . S
C969 H962 0.950 . S
C969 C966 1.387 . S
C970 C971 1.387 . S
C970 H974 0.950 . S
C970 C979 1.390 . S
C971 C970 1.387 . S
C971 C973 1.387 . S
H972 C979 0.950 . S
C973 C971 1.387 . S
C973 C975 1.390 . S
C973 H977 0.950 . S
H974 C970 0.950 . S
C975 C973 1.390 . S
C975 C976 1.387 . S
C975 H978 0.950 . S
C976 C975 1.387 . S
C976 C979 1.387 . S
H977 C973 0.950 . S
H978 C975 0.950 . S
C979 C970 1.390 . S
C979 H972 0.950 . S
C979 C976 1.387 . S
C980 C981 1.387 . S
C980 H984 0.950 . S
C980 C989 1.390 . S
C981 C980 1.387 . S
C981 C983 1.387 . S
H982 C989 0.950 . S
C983 C981 1.387 . S
C983 C985 1.390 . S
C983 H987 0.950 . S
H984 C980 0.950 . S
C985 C983 1.390 . S
C985 C986 1.387 . S
C985 H988 0.950 . S
C986 C985 1.387 . S
C986 C989 1.387 . S
H987 C983 0.950 . S
H988 C985 0.950 . S
C989 C980 1.390 . S
C989 H982 0.950 . S
C989 C986 1.387 . S
C990 C991 1.387 . S
C990 H994 0.950 . S
C990 C999 1.390 . S
C991 C990 1.387 . S
C991 C993 1.387 . S
H992 C999 0.950 . S
C993 C991 1.387 . S
C993 C995 1.390 . S
C993 H997 0.950 . S
H994 C990 0.950 . S
C995 C993 1.390 . S
C995 C996 1.387 . S
C995 H998 0.950 . S
C996 C995 1.387 . S
C996 C999 1.387 . S
H997 C993 0.950 . S
H998 C995 0.950 . S
C999 C990 1.390 . S
C999 H992 0.950 . S
C999 C996 1.387 . S
C1000 C1001 1.387 . S
C1000 H1004 0.950 . S
C1000 C1009 1.390 . S
C1001 C1000 1.387 . S
C1001 C1003 1.387 . S
H1002 C1009 0.950 . S
C1003 C1001 1.387 . S
C1003 C1005 1.390 . S
C1003 H1007 0.950 . S
H1004 C1000 0.950 . S
C1005 C1003 1.390 . S
C1005 C1006 1.387 . S
C1005 H1008 0.950 . S
C1006 C1005 1.387 . S
C1006 C1009 1.387 . S
H1007 C1003 0.950 . S
H1008 C1005 0.950 . S
C1009 C1000 1.390 . S
C1009 H1002 0.950 . S
C1009 C1006 1.387 . S
C1010 C1011 1.387 . S
C1010 H1014 0.950 . S
C1010 C1019 1.390 . S
C1011 C1010 1.387 . S
C1011 C1013 1.387 . S
H1012 C1019 0.950 . S
C1013 C1011 1.387 . S
C1013 C1015 1.390 . S
C1013 H1017 0.950 . S
H1014 C1010 0.950 . S
C1015 C1013 1.390 . S
C1015 C1016 1.387 . S
C1015 H1018 0.950 . S
C1016 C1015 1.387 . S
C1016 C1019 1.387 . S
H1017 C1013 0.950 . S
H1018 C1015 0.950 . S
C1019 C1010 1.390 . S
C1019 H1012 0.950 . S
C1019 C1016 1.387 . S
C1020 C1021 1.387 . S
C1020 H1024 0.950 . S
C1020 C1029 1.390 . S
C1021 C1020 1.387 . S
C1021 C1023 1.387 . S
H1022 C1029 0.950 . S
C1023 C1021 1.387 . S
C1023 C1025 1.390 . S
C1023 H1027 0.950 . S
H1024 C1020 0.950 . S
C1025 C1023 1.390 . S
C1025 C1026 1.387 . S
C1025 H1028 0.950 . S
C1026 C1025 1.387 . S
C1026 C1029 1.387 . S
H1027 C1023 0.950 . S
H1028 C1025 0.950 . S
C1029 C1020 1.390 . S
C1029 H1022 0.950 . S
C1029 C1026 1.387 . S
C1030 C1031 1.387 . S
C1030 H1034 0.950 . S
C1030 C1039 1.390 . S
C1031 C1030 1.387 . S
C1031 C1033 1.387 . S
H1032 C1039 0.950 . S
C1033 C1031 1.387 . S
C1033 C1035 1.390 . S
C1033 H1037 0.950 . S
H1034 C1030 0.950 . S
C1035 C1033 1.390 . S
C1035 C1036 1.387 . S
C1035 H1038 0.950 . S
C1036 C1035 1.387 . S
C1036 C1039 1.387 . S
H1037 C1033 0.950 . S
H1038 C1035 0.950 . S
C1039 C1030 1.390 . S
C1039 H1032 0.950 . S
C1039 C1036 1.387 . S
C1040 C1041 1.387 . S
C1040 H1044 0.950 . S
C1040 C1049 1.390 . S
C1041 C1040 1.387 . S
C1041 C1043 1.387 . S
H1042 C1049 0.950 . S
C1043 C1041 1.387 . S
C1043 C1045 1.390 . S
C1043 H1047 0.950 . S
H1044 C1040 0.950 . S
C1045 C1043 1.390 . S
C1045 C1046 1.387 . S
C1045 H1048 0.950 . S
C1046 C1045 1.387 . S
C1046 C1049 1.387 . S
H1047 C1043 0.950 . S
H1048 C1045 0.950 . S
C1049 C1040 1.390 . S
C1049 H1042 0.950 . S
C1049 C1046 1.387 . S
C1050 C1051 1.387 . S
C1050 H1054 0.950 . S
C1050 C1059 1.390 . S
C1051 C1050 1.387 . S
C1051 C1053 1.387 . S
H1052 C1059 0.950 . S
C1053 C1051 1.387 . S
C1053 C1055 1.390 . S
C1053 H1057 0.950 . S
H1054 C1050 0.950 . S
C1055 C1053 1.390 . S
C1055 C1056 1.387 . S
C1055 H1058 0.950 . S
C1056 C1055 1.387 . S
C1056 C1059 1.387 . S
H1057 C1053 0.950 . S
H1058 C1055 0.950 . S
C1059 C1050 1.390 . S
C1059 H1052 0.950 . S
C1059 C1056 1.387 . S
C1060 C1061 1.387 . S
C1060 H1064 0.950 . S
C1060 C1069 1.390 . S
C1061 C1060 1.387 . S
C1061 C1063 1.387 . S
H1062 C1069 0.950 . S
C1063 C1061 1.387 . S
C1063 C1065 1.390 . S
C1063 H1067 0.950 . S
H1064 C1060 0.950 . S
C1065 C1063 1.390 . S
C1065 C1066 1.387 . S
C1065 H1068 0.950 . S
C1066 C1065 1.387 . S
C1066 C1069 1.387 . S
H1067 C1063 0.950 . S
H1068 C1065 0.950 . S
C1069 C1060 1.390 . S
C1069 H1062 0.950 . S
C1069 C1066 1.387 . S
C1070 C1071 1.387 . S
C1070 H1074 0.950 . S
C1070 C1079 1.390 . S
C1071 C1070 1.387 . S
C1071 C1073 1.387 . S
H1072 C1079 0.950 . S
C1073 C1071 1.387 . S
C1073 C1075 1.390 . S
C1073 H1077 0.950 . S
H1074 C1070 0.950 . S
C1075 C1073 1.390 . S
C1075 C1076 1.387 . S
C1075 H1078 0.950 . S
C1076 C1075 1.387 . S
C1076 C1079 1.387 . S
H1077 C1073 0.950 . S
H1078 C1075 0.950 . S
C1079 C1070 1.390 . S
C1079 H1072 0.950 . S
C1079 C1076 1.387 . S
C1080 C1081 1.387 . S
C1080 H1084 0.950 . S
C1080 C1089 1.390 . S
C1081 C1080 1.387 . S
C1081 C1083 1.387 . S
H1082 C1089 0.950 . S
C1083 C1081 1.387 . S
C1083 C1085 1.390 . S
C1083 H1087 0.950 . S
H1084 C1080 0.950 . S
C1085 C1083 1.390 . S
C1085 C1086 1.387 . S
C1085 H1088 0.950 . S
C1086 C1085 1.387 . S
C1086 C1089 1.387 . S
H1087 C1083 0.950 . S
H1088 C1085 0.950 . S
C1089 C1080 1.390 . S
C1089 H1082 0.950 . S
C1089 C1086 1.387 . S
C1090 C1091 1.387 . S
C1090 H1094 0.950 . S
C1090 C1099 1.390 . S
C1091 C1090 1.387 . S
C1091 C1093 1.387 . S
H1092 C1099 0.950 . S
C1093 C1091 1.387 . S
C1093 C1095 1.390 . S
C1093 H1097 0.950 . S
H1094 C1090 0.950 . S
C1095 C1093 1.390 . S
C1095 C1096 1.387 . S
C1095 H1098 0.950 . S
C1096 C1095 1.387 . S
C1096 C1099 1.387 . S
H1097 C1093 0.950 . S
H1098 C1095 0.950 . S
C1099 C1090 1.390 . S
C1099 H1092 0.950 . S
C1099 C1096 1.387 . S
C1100 C1101 1.387 . S
C1100 H1104 0.950 . S
C1100 C1109 1.390 . S
C1101 C1100 1.387 . S
C1101 C1103 1.387 . S
H1102 C1109 0.950 . S
C1103 C1101 1.387 . S
C1103 C1105 1.390 . S
C1103 H1107 0.950 . S
H1104 C1100 0.950 . S
C1105 C1103 1.390 . S
C1105 C1106 1.387 . S
C1105 H1108 0.950 . S
C1106 C1105 1.387 . S
C1106 C1109 1.387 . S
H1107 C1103 0.950 . S
H1108 C1105 0.950 . S
C1109 C1100 1.390 . S
C1109 H1102 0.950 . S
C1109 C1106 1.387 . S
C1110 C1111 1.387 . S
C1110 H1114 0.950 . S
C1110 C1119 1.390 . S
C1111 C1110 1.387 . S
C1111 C1113 1.387 . S
H1112 C1119 0.950 . S
C1113 C1111 1.387 . S
C1113 C1115 1.390 . S
C1113 H1117 0.950 . S
H1114 C1110 0.950 . S
C1115 C1113 1.390 . S
C1115 C1116 1.387 . S
C1115 H1118 0.950 . S
C1116 C1115 1.387 . S
C1116 C1119 1.387 . S
H1117 C1113 0.950 . S
H1118 C1115 0.950 . S
C1119 C1110 1.390 . S
C1119 H1112 0.950 . S
C1119 C1116 1.387 . S
C641 C12 1.609 . S
C646 C372 1.609 . S
C651 C52 1.607 . S
C656 C332 1.607 . S
C661 C452 1.609 . S
C666 C92 1.609 . S
C671 C132 1.607 . S
C676 C412 1.607 . S
C681 C551 1.607 . S
C686 C191 1.607 . S
C691 C511 1.609 . S
C696 C231 1.609 . S
C701 C631 1.607 . S
C706 C271 1.607 . S
C711 C311 1.607 . S
C716 C591 1.607 . S
C721 C82 1.785 . S
C726 C2 1.785 . S
C731 C122 1.785 . S
C736 C42 1.785 . S
C741 C257 1.786 . S
C746 C177 1.786 . S
C751 C217 1.785 . S
C756 C297 1.785 . S
C761 C402 1.785 . S
C766 C322 1.785 . S
C771 C442 1.786 . S
C776 C362 1.786 . S
C781 C497 1.785 . S
C786 C577 1.785 . S
C791 C537 1.786 . S
C796 C617 1.786 . S
C801 C202 1.540 . S
C806 C17 1.539 . S
C811 C162 1.538 . S
C816 C57 1.541 . S
C821 C97 1.541 . S
C826 C282 1.539 . S
C831 C242 1.540 . S
C836 C137 1.539 . S
C841 C337 1.538 . S
C846 C522 1.541 . S
C851 C482 1.540 . S
C856 C377 1.540 . S
C861 C417 1.541 . S
C866 C602 1.538 . S
C871 C562 1.538 . S
C876 C457 1.541 . S
C881 C71 1.639 . S
C886 C31 1.639 . S
C891 C151 1.639 . S
C896 C111 1.639 . S
C901 C212 1.636 . S
C906 C172 1.636 . S
C911 C252 1.639 . S
C916 C292 1.639 . S
C921 C391 1.639 . S
C926 C351 1.639 . S
C931 C471 1.639 . S
C936 C431 1.639 . S
C941 C492 1.639 . S
C946 C532 1.639 . S
C951 C572 1.639 . S
C956 C612 1.639 . S
C961 C8 1.462 . S
C966 C29 1.462 . S
C971 C48 1.462 . S
C976 C69 1.462 . S
C981 C88 1.462 . S
C986 C109 1.462 . S
C991 C149 1.459 . S
C996 C128 1.459 . S
C1001 C189 1.459 . S
C1006 C168 1.459 . S
C1011 C208 1.462 . S
C1016 C229 1.462 . S
C1021 C269 1.462 . S
C1026 C248 1.462 . S
C1031 C309 1.459 . S
C1036 C288 1.459 . S
C1041 C349 1.462 1_545 S
C1046 C328 1.462 . S
C1051 C368 1.462 . S
C1056 C389 1.462 1_565 S
C1061 C429 1.462 1_565 S
C1066 C408 1.462 . S
C1071 C469 1.459 1_545 S
C1076 C448 1.459 . S
C1081 C509 1.462 . S
C1086 C488 1.462 1_565 S
C1091 C549 1.461 . S
C1096 C528 1.461 1_545 S
C1101 C568 1.459 1_545 S
C1106 C589 1.459 . S
C1111 C629 1.462 . S
C1116 C608 1.462 1_565 S
