# Generated by pormake.
# Topology ukr, (4)-cn, num edge types: 1
# Building blocks:
#     Node 0, Type 0, BuildingBlock: QUQFOY_clean_sbu_3, # of connection points: 4
#     Node 1, Type 0, BuildingBlock: QUQFOY_clean_sbu_3, # of connection points: 4
#     Node 2, Type 0, BuildingBlock: QUQFOY_clean_sbu_3, # of connection points: 4
#     Node 3, Type 0, BuildingBlock: QUQFOY_clean_sbu_3, # of connection points: 4
#     Node 4, Type 0, BuildingBlock: QUQFOY_clean_sbu_3, # of connection points: 4
#     Node 5, Type 0, BuildingBlock: QUQFOY_clean_sbu_3, # of connection points: 4
#     Node 6, Type 0, BuildingBlock: QUQFOY_clean_sbu_3, # of connection points: 4
#     Node 7, Type 0, BuildingBlock: QUQFOY_clean_sbu_3, # of connection points: 4
#     Node 8, Type 0, BuildingBlock: QUQFOY_clean_sbu_3, # of connection points: 4
#     Node 9, Type 0, BuildingBlock: QUQFOY_clean_sbu_3, # of connection points: 4
#     Node 10, Type 0, BuildingBlock: QUQFOY_clean_sbu_3, # of connection points: 4
#     Node 11, Type 0, BuildingBlock: QUQFOY_clean_sbu_3, # of connection points: 4
#     Node 12, Type 0, BuildingBlock: QUQFOY_clean_sbu_3, # of connection points: 4
#     Node 13, Type 0, BuildingBlock: QUQFOY_clean_sbu_3, # of connection points: 4
#     Node 14, Type 0, BuildingBlock: QUQFOY_clean_sbu_3, # of connection points: 4
#     Node 15, Type 0, BuildingBlock: QUQFOY_clean_sbu_3, # of connection points: 4
#     Node 16, Type 0, BuildingBlock: QUQFOY_clean_sbu_3, # of connection points: 4
#     Node 17, Type 0, BuildingBlock: QUQFOY_clean_sbu_3, # of connection points: 4
#     Node 18, Type 0, BuildingBlock: QUQFOY_clean_sbu_3, # of connection points: 4
#     Node 19, Type 0, BuildingBlock: QUQFOY_clean_sbu_3, # of connection points: 4
#     Node 20, Type 0, BuildingBlock: QUQFOY_clean_sbu_3, # of connection points: 4
#     Node 21, Type 0, BuildingBlock: QUQFOY_clean_sbu_3, # of connection points: 4
#     Node 22, Type 0, BuildingBlock: QUQFOY_clean_sbu_3, # of connection points: 4
#     Node 23, Type 0, BuildingBlock: QUQFOY_clean_sbu_3, # of connection points: 4
#     Node 24, Type 0, BuildingBlock: QUQFOY_clean_sbu_3, # of connection points: 4
#     Node 25, Type 0, BuildingBlock: QUQFOY_clean_sbu_3, # of connection points: 4
#     Node 26, Type 0, BuildingBlock: QUQFOY_clean_sbu_3, # of connection points: 4
#     Node 27, Type 0, BuildingBlock: QUQFOY_clean_sbu_3, # of connection points: 4
#     Node 28, Type 0, BuildingBlock: QUQFOY_clean_sbu_3, # of connection points: 4
#     Node 29, Type 0, BuildingBlock: QUQFOY_clean_sbu_3, # of connection points: 4
#     Node 30, Type 0, BuildingBlock: QUQFOY_clean_sbu_3, # of connection points: 4
#     Node 31, Type 0, BuildingBlock: QUQFOY_clean_sbu_3, # of connection points: 4
#     Node 32, Type 0, BuildingBlock: QUQFOY_clean_sbu_3, # of connection points: 4
#     Node 33, Type 0, BuildingBlock: QUQFOY_clean_sbu_3, # of connection points: 4
#     Node 34, Type 0, BuildingBlock: QUQFOY_clean_sbu_3, # of connection points: 4
#     Node 35, Type 0, BuildingBlock: QUQFOY_clean_sbu_3, # of connection points: 4
#     Node 36, Type 0, BuildingBlock: QUQFOY_clean_sbu_3, # of connection points: 4
#     Node 37, Type 0, BuildingBlock: QUQFOY_clean_sbu_3, # of connection points: 4
#     Node 38, Type 0, BuildingBlock: QUQFOY_clean_sbu_3, # of connection points: 4
#     Node 39, Type 0, BuildingBlock: QUQFOY_clean_sbu_3, # of connection points: 4
#     Node 40, Type 0, BuildingBlock: QUQFOY_clean_sbu_3, # of connection points: 4
#     Node 41, Type 0, BuildingBlock: QUQFOY_clean_sbu_3, # of connection points: 4
#     Node 42, Type 0, BuildingBlock: QUQFOY_clean_sbu_3, # of connection points: 4
#     Node 43, Type 0, BuildingBlock: QUQFOY_clean_sbu_3, # of connection points: 4
#     Node 44, Type 0, BuildingBlock: QUQFOY_clean_sbu_3, # of connection points: 4
#     Node 45, Type 0, BuildingBlock: QUQFOY_clean_sbu_3, # of connection points: 4
#     Node 46, Type 0, BuildingBlock: QUQFOY_clean_sbu_3, # of connection points: 4
#     Node 47, Type 0, BuildingBlock: QUQFOY_clean_sbu_3, # of connection points: 4
#     Edge 48, Type (0, 0), None
#     Edge 49, Type (0, 0), None
#     Edge 50, Type (0, 0), None
#     Edge 51, Type (0, 0), None
#     Edge 52, Type (0, 0), None
#     Edge 53, Type (0, 0), None
#     Edge 54, Type (0, 0), None
#     Edge 55, Type (0, 0), None
#     Edge 56, Type (0, 0), None
#     Edge 57, Type (0, 0), None
#     Edge 58, Type (0, 0), None
#     Edge 59, Type (0, 0), None
#     Edge 60, Type (0, 0), None
#     Edge 61, Type (0, 0), None
#     Edge 62, Type (0, 0), None
#     Edge 63, Type (0, 0), None
#     Edge 64, Type (0, 0), None
#     Edge 65, Type (0, 0), None
#     Edge 66, Type (0, 0), None
#     Edge 67, Type (0, 0), None
#     Edge 68, Type (0, 0), None
#     Edge 69, Type (0, 0), None
#     Edge 70, Type (0, 0), None
#     Edge 71, Type (0, 0), None
#     Edge 72, Type (0, 0), None
#     Edge 73, Type (0, 0), None
#     Edge 74, Type (0, 0), None
#     Edge 75, Type (0, 0), None
#     Edge 76, Type (0, 0), None
#     Edge 77, Type (0, 0), None
#     Edge 78, Type (0, 0), None
#     Edge 79, Type (0, 0), None
#     Edge 80, Type (0, 0), None
#     Edge 81, Type (0, 0), None
#     Edge 82, Type (0, 0), None
#     Edge 83, Type (0, 0), None
#     Edge 84, Type (0, 0), None
#     Edge 85, Type (0, 0), None
#     Edge 86, Type (0, 0), None
#     Edge 87, Type (0, 0), None
#     Edge 88, Type (0, 0), None
#     Edge 89, Type (0, 0), None
#     Edge 90, Type (0, 0), None
#     Edge 91, Type (0, 0), None
#     Edge 92, Type (0, 0), None
#     Edge 93, Type (0, 0), None
#     Edge 94, Type (0, 0), None
#     Edge 95, Type (0, 0), None
#     Edge 96, Type (0, 0), None
#     Edge 97, Type (0, 0), None
#     Edge 98, Type (0, 0), None
#     Edge 99, Type (0, 0), None
#     Edge 100, Type (0, 0), None
#     Edge 101, Type (0, 0), None
#     Edge 102, Type (0, 0), None
#     Edge 103, Type (0, 0), None
#     Edge 104, Type (0, 0), None
#     Edge 105, Type (0, 0), None
#     Edge 106, Type (0, 0), None
#     Edge 107, Type (0, 0), None
#     Edge 108, Type (0, 0), None
#     Edge 109, Type (0, 0), None
#     Edge 110, Type (0, 0), None
#     Edge 111, Type (0, 0), None
#     Edge 112, Type (0, 0), None
#     Edge 113, Type (0, 0), None
#     Edge 114, Type (0, 0), None
#     Edge 115, Type (0, 0), None
#     Edge 116, Type (0, 0), None
#     Edge 117, Type (0, 0), None
#     Edge 118, Type (0, 0), None
#     Edge 119, Type (0, 0), None
#     Edge 120, Type (0, 0), None
#     Edge 121, Type (0, 0), None
#     Edge 122, Type (0, 0), None
#     Edge 123, Type (0, 0), None
#     Edge 124, Type (0, 0), None
#     Edge 125, Type (0, 0), None
#     Edge 126, Type (0, 0), None
#     Edge 127, Type (0, 0), None
#     Edge 128, Type (0, 0), None
#     Edge 129, Type (0, 0), None
#     Edge 130, Type (0, 0), None
#     Edge 131, Type (0, 0), None
#     Edge 132, Type (0, 0), None
#     Edge 133, Type (0, 0), None
#     Edge 134, Type (0, 0), None
#     Edge 135, Type (0, 0), None
#     Edge 136, Type (0, 0), None
#     Edge 137, Type (0, 0), None
#     Edge 138, Type (0, 0), None
#     Edge 139, Type (0, 0), None
#     Edge 140, Type (0, 0), None
#     Edge 141, Type (0, 0), None
#     Edge 142, Type (0, 0), None
#     Edge 143, Type (0, 0), None
# Relax obj value: 0.431
# Max RMSD: 0.185
# Mean RMSD: 0.185
data_MOF--net-ukr--node1-QUQFOY_clean_sbu_3--edge1-none
_symmetry_space_group_name_H-M    P1
_symmetry_Int_Tables_number       1
_symmetry_cell_setting            triclinic
loop_
_symmetry_equiv_pos_as_xyz
'x, y, z'
_cell_length_a     32.536924
_cell_length_b     32.536924
_cell_length_c     32.868108
_cell_angle_alpha  90.0
_cell_angle_beta   90.0
_cell_angle_gamma 90.0
loop_
_atom_site_label
_atom_site_type_symbol
_atom_site_fract_x
_atom_site_fract_y
_atom_site_fract_z
_atom_type_partial_charge
C0 C 0.10729 0.20551 0.16986 0.0
O1 O 0.10575 0.21779 0.13346 0.0
Cd2 Cd 0.09807 0.2956 0.14516 0.0
O3 O 0.10363 0.23285 0.19679 0.0
Cd4 Cd 0.09491 0.29254 0.14989 0.0
C5 C 0.18074 0.30354 0.11169 0.0
O6 O 0.0913 0.31745 0.21753 0.0
O7 O 0.10969 0.36513 0.17635 0.0
O8 O 0.02981 0.25765 0.1414 0.0
C9 C 0.10283 0.35426 0.21281 0.0
O10 O 0.16306 0.33349 0.12822 0.0
C11 C 0.01132 0.28534 0.12152 0.0
O12 O 0.15925 0.27154 0.10774 0.0
O13 O 0.03243 0.31621 0.11031 0.0
C14 C 0.26767 0.60729 0.66986 0.0
O15 O 0.25538 0.60575 0.63346 0.0
Cd16 Cd 0.17757 0.59807 0.64516 0.0
O17 O 0.24032 0.60363 0.69679 0.0
Cd18 Cd 0.18063 0.59491 0.64989 0.0
C19 C 0.16963 0.68074 0.61169 0.0
O20 O 0.15573 0.5913 0.71753 0.0
O21 O 0.10805 0.60969 0.67635 0.0
O22 O 0.21552 0.52981 0.6414 0.0
C23 C 0.11891 0.60283 0.71281 0.0
O24 O 0.13968 0.66306 0.62822 0.0
C25 C 0.18783 0.51132 0.62152 0.0
O26 O 0.20163 0.65925 0.60774 0.0
O27 O 0.15696 0.53243 0.61031 0.0
C28 C 0.86588 0.76767 0.16986 0.0
O29 O 0.86742 0.75538 0.13346 0.0
Cd30 Cd 0.87511 0.67757 0.14516 0.0
O31 O 0.86954 0.74032 0.19679 0.0
Cd32 Cd 0.87826 0.68063 0.14989 0.0
C33 C 0.79243 0.66963 0.11169 0.0
O34 O 0.88187 0.65573 0.21753 0.0
O35 O 0.86348 0.60805 0.17635 0.0
O36 O 0.94337 0.71552 0.1414 0.0
C37 C 0.87034 0.61891 0.21281 0.0
O38 O 0.81012 0.63968 0.12822 0.0
C39 C 0.96185 0.68783 0.12152 0.0
O40 O 0.81392 0.70163 0.10774 0.0
O41 O 0.94075 0.65696 0.11031 0.0
C42 C 0.70551 0.36588 0.66986 0.0
O43 O 0.71779 0.36742 0.63346 0.0
Cd44 Cd 0.7956 0.37511 0.64516 0.0
O45 O 0.73285 0.36954 0.69679 0.0
Cd46 Cd 0.79254 0.37826 0.64989 0.0
C47 C 0.80354 0.29243 0.61169 0.0
O48 O 0.81745 0.38187 0.71753 0.0
O49 O 0.86513 0.36348 0.67635 0.0
O50 O 0.75765 0.44337 0.6414 0.0
C51 C 0.85426 0.37034 0.71281 0.0
O52 O 0.83349 0.31012 0.62822 0.0
C53 C 0.78534 0.46185 0.62152 0.0
O54 O 0.77154 0.31392 0.60774 0.0
O55 O 0.81621 0.44075 0.61031 0.0
C56 C 0.10903 0.77782 0.77989 0.0
O57 O 0.09915 0.76653 0.74443 0.0
Cd58 Cd 0.12968 0.70098 0.73242 0.0
O59 O 0.11428 0.75072 0.80743 0.0
Cd60 Cd 0.08762 0.67791 0.81201 0.0
C61 C 0.1831 0.67371 0.82455 0.0
O62 O 0.07825 0.65369 0.74251 0.0
O63 O 0.10606 0.61017 0.783 0.0
O64 O 0.02415 0.71182 0.81598 0.0
C65 C 0.09504 0.61892 0.74703 0.0
O66 O 0.17917 0.683 0.78695 0.0
C67 C 0.00667 0.68713 0.84026 0.0
O68 O 0.15203 0.67077 0.848 0.0
O69 O 0.02824 0.65798 0.85507 0.0
C70 C 0.69536 0.60903 0.27989 0.0
O71 O 0.70665 0.59915 0.24443 0.0
Cd72 Cd 0.77219 0.62968 0.23242 0.0
O73 O 0.72246 0.61428 0.30743 0.0
Cd74 Cd 0.79526 0.58762 0.31201 0.0
C75 C 0.79947 0.6831 0.32455 0.0
O76 O 0.81948 0.57825 0.24251 0.0
O77 O 0.863 0.60606 0.283 0.0
O78 O 0.76135 0.52415 0.31598 0.0
C79 C 0.85425 0.59504 0.24703 0.0
O80 O 0.79017 0.67917 0.28695 0.0
C81 C 0.78605 0.50667 0.34026 0.0
O82 O 0.8024 0.65203 0.348 0.0
O83 O 0.81519 0.52824 0.35507 0.0
C84 C 0.86414 0.19536 0.77989 0.0
O85 O 0.87402 0.20665 0.74443 0.0
Cd86 Cd 0.84349 0.27219 0.73242 0.0
O87 O 0.85889 0.22246 0.80743 0.0
Cd88 Cd 0.88555 0.29526 0.81201 0.0
C89 C 0.79007 0.29947 0.82455 0.0
O90 O 0.89492 0.31948 0.74251 0.0
O91 O 0.86711 0.363 0.783 0.0
O92 O 0.94902 0.26135 0.81598 0.0
C93 C 0.87813 0.35425 0.74703 0.0
O94 O 0.794 0.29017 0.78695 0.0
C95 C 0.9665 0.28605 0.84026 0.0
O96 O 0.82114 0.3024 0.848 0.0
O97 O 0.94493 0.31519 0.85507 0.0
C98 C 0.27782 0.36414 0.27989 0.0
O99 O 0.26653 0.37402 0.24443 0.0
Cd100 Cd 0.20098 0.34349 0.23242 0.0
O101 O 0.25072 0.35889 0.30743 0.0
Cd102 Cd 0.17791 0.38555 0.31201 0.0
C103 C 0.17371 0.29007 0.32455 0.0
O104 O 0.15369 0.39492 0.24251 0.0
O105 O 0.11017 0.36711 0.283 0.0
O106 O 0.21182 0.44902 0.31598 0.0
C107 C 0.11892 0.37813 0.24703 0.0
O108 O 0.183 0.294 0.28695 0.0
C109 C 0.18713 0.4665 0.34026 0.0
O110 O 0.17077 0.32114 0.348 0.0
O111 O 0.15798 0.44493 0.35507 0.0
C112 C 0.24773 0.15979 0.17471 0.0
O113 O 0.22554 0.16749 0.20496 0.0
Cd114 Cd 0.18326 0.10816 0.2025 0.0
O115 O 0.24211 0.12579 0.15677 0.0
Cd116 Cd 0.18269 0.08692 0.1894 0.0
C117 C 0.12177 0.16412 0.18032 0.0
O118 O 0.21278 0.07613 0.25892 0.0
O119 O 0.14779 0.08547 0.26094 0.0
O120 O 0.21573 0.02793 0.16062 0.0
C121 C 0.18085 0.07885 0.28048 0.0
O122 O 0.1249 0.15324 0.21713 0.0
C123 C 0.18333 0.00676 0.15631 0.0
O124 O 0.14012 0.14233 0.15403 0.0
O125 O 0.14925 0.02432 0.16395 0.0
C126 C 0.31338 0.74773 0.67471 0.0
O127 O 0.30568 0.72554 0.70496 0.0
Cd128 Cd 0.36501 0.68326 0.7025 0.0
O129 O 0.34738 0.74211 0.65677 0.0
Cd130 Cd 0.38625 0.68269 0.6894 0.0
C131 C 0.30905 0.62177 0.68032 0.0
O132 O 0.39704 0.71278 0.75892 0.0
O133 O 0.3877 0.64779 0.76094 0.0
O134 O 0.44524 0.71573 0.66062 0.0
C135 C 0.39432 0.68085 0.78048 0.0
O136 O 0.31993 0.6249 0.71713 0.0
C137 C 0.46641 0.68333 0.65631 0.0
O138 O 0.33084 0.64012 0.65403 0.0
O139 O 0.44885 0.64925 0.66395 0.0
C140 C 0.72545 0.81338 0.17471 0.0
O141 O 0.74763 0.80568 0.20496 0.0
Cd142 Cd 0.78992 0.86501 0.2025 0.0
O143 O 0.73106 0.84738 0.15677 0.0
Cd144 Cd 0.79048 0.88625 0.1894 0.0
C145 C 0.8514 0.80905 0.18032 0.0
O146 O 0.76039 0.89704 0.25892 0.0
O147 O 0.82538 0.8877 0.26094 0.0
O148 O 0.75744 0.94524 0.16062 0.0
C149 C 0.79233 0.89432 0.28048 0.0
O150 O 0.84827 0.81993 0.21713 0.0
C151 C 0.78984 0.96641 0.15631 0.0
O152 O 0.83305 0.83084 0.15403 0.0
O153 O 0.82392 0.94885 0.16395 0.0
C154 C 0.65979 0.22545 0.67471 0.0
O155 O 0.66749 0.24763 0.70496 0.0
Cd156 Cd 0.60816 0.28992 0.7025 0.0
O157 O 0.62579 0.23106 0.65677 0.0
Cd158 Cd 0.58692 0.29048 0.6894 0.0
C159 C 0.66412 0.3514 0.68032 0.0
O160 O 0.57613 0.26039 0.75892 0.0
O161 O 0.58547 0.32538 0.76094 0.0
O162 O 0.52793 0.25744 0.66062 0.0
C163 C 0.57885 0.29233 0.78048 0.0
O164 O 0.65324 0.34827 0.71713 0.0
C165 C 0.50676 0.28984 0.65631 0.0
O166 O 0.64233 0.33305 0.65403 0.0
O167 O 0.52432 0.32392 0.66395 0.0
C168 C 0.25711 0.81034 0.79373 0.0
O169 O 0.22917 0.80527 0.76775 0.0
Cd170 Cd 0.19587 0.8725 0.76905 0.0
O171 O 0.25948 0.8455 0.81006 0.0
Cd172 Cd 0.19927 0.88197 0.77708 0.0
C173 C 0.12878 0.81805 0.7837 0.0
O174 O 0.23241 0.89444 0.70959 0.0
O175 O 0.16843 0.88187 0.7035 0.0
O176 O 0.22217 0.94577 0.80637 0.0
C177 C 0.20213 0.8897 0.68606 0.0
O178 O 0.12602 0.84394 0.75522 0.0
C179 C 0.18678 0.96207 0.80837 0.0
O180 O 0.15797 0.82309 0.8085 0.0
O181 O 0.15609 0.93936 0.80024 0.0
C182 C 0.66283 0.75711 0.29373 0.0
O183 O 0.6679 0.72917 0.26775 0.0
Cd184 Cd 0.60067 0.69587 0.26905 0.0
O185 O 0.62767 0.75948 0.31006 0.0
Cd186 Cd 0.5912 0.69927 0.27708 0.0
C187 C 0.65512 0.62878 0.2837 0.0
O188 O 0.57873 0.73241 0.20959 0.0
O189 O 0.5913 0.66843 0.2035 0.0
O190 O 0.5274 0.72217 0.30637 0.0
C191 C 0.58347 0.70213 0.18606 0.0
O192 O 0.62923 0.62602 0.25522 0.0
C193 C 0.5111 0.68678 0.30837 0.0
O194 O 0.65008 0.65797 0.3085 0.0
O195 O 0.53382 0.65609 0.30024 0.0
C196 C 0.71607 0.16283 0.79373 0.0
O197 O 0.74401 0.1679 0.76775 0.0
Cd198 Cd 0.7773 0.10067 0.76905 0.0
O199 O 0.71369 0.12767 0.81006 0.0
Cd200 Cd 0.77391 0.0912 0.77708 0.0
C201 C 0.84439 0.15512 0.7837 0.0
O202 O 0.74076 0.07873 0.70959 0.0
O203 O 0.80474 0.0913 0.7035 0.0
O204 O 0.751 0.0274 0.80637 0.0
C205 C 0.77104 0.08347 0.68606 0.0
O206 O 0.84716 0.12923 0.75522 0.0
C207 C 0.78639 0.0111 0.80837 0.0
O208 O 0.8152 0.15008 0.8085 0.0
O209 O 0.81708 0.03382 0.80024 0.0
C210 C 0.31034 0.21607 0.29373 0.0
O211 O 0.30527 0.24401 0.26775 0.0
Cd212 Cd 0.3725 0.2773 0.26905 0.0
O213 O 0.3455 0.21369 0.31006 0.0
Cd214 Cd 0.38197 0.27391 0.27708 0.0
C215 C 0.31805 0.34439 0.2837 0.0
O216 O 0.39444 0.24076 0.20959 0.0
O217 O 0.38187 0.30474 0.2035 0.0
O218 O 0.44577 0.251 0.30637 0.0
C219 C 0.3897 0.27104 0.18606 0.0
O220 O 0.34394 0.34716 0.25522 0.0
C221 C 0.46207 0.28639 0.30837 0.0
O222 O 0.32309 0.3152 0.3085 0.0
O223 O 0.43936 0.31708 0.30024 0.0
C224 C 0.2258 0.30238 0.10914 0.0
O225 O 0.24552 0.32824 0.13039 0.0
Cd226 Cd 0.29988 0.29759 0.1683 0.0
O227 O 0.24381 0.27029 0.09574 0.0
Cd228 Cd 0.31729 0.246 0.08776 0.0
C229 C 0.27312 0.19233 0.15766 0.0
O230 O 0.35753 0.29229 0.12656 0.0
O231 O 0.37939 0.22999 0.12806 0.0
O232 O 0.32466 0.27795 0.02296 0.0
C233 C 0.38129 0.26609 0.14262 0.0
O234 O 0.27517 0.22633 0.17702 0.0
C235 C 0.33165 0.24479 0.00381 0.0
O236 O 0.28686 0.18874 0.12163 0.0
O237 O 0.33375 0.21158 0.02415 0.0
C238 C 0.22471 0.66546 0.83881 0.0
O239 O 0.24444 0.63871 0.81877 0.0
Cd240 Cd 0.30222 0.66954 0.78838 0.0
O241 O 0.24406 0.69453 0.85643 0.0
Cd242 Cd 0.31788 0.71079 0.87433 0.0
C243 C 0.28083 0.77487 0.80774 0.0
O244 O 0.3551 0.66112 0.83586 0.0
O245 O 0.38516 0.71942 0.84003 0.0
O246 O 0.31452 0.67742 0.93977 0.0
C247 C 0.38382 0.68411 0.82363 0.0
O248 O 0.28043 0.74246 0.78587 0.0
C249 C 0.32625 0.70887 0.95951 0.0
O250 O 0.29532 0.77445 0.84368 0.0
O251 O 0.33517 0.74109 0.93948 0.0
C252 C 0.80772 0.72471 0.33881 0.0
O253 O 0.83446 0.74444 0.31877 0.0
Cd254 Cd 0.80363 0.80222 0.28838 0.0
O255 O 0.77864 0.74406 0.35643 0.0
Cd256 Cd 0.76238 0.81788 0.37433 0.0
C257 C 0.6983 0.78083 0.30774 0.0
O258 O 0.81205 0.8551 0.33586 0.0
O259 O 0.75375 0.88516 0.34003 0.0
O260 O 0.79575 0.81452 0.43977 0.0
C261 C 0.78906 0.88382 0.32363 0.0
O262 O 0.73071 0.78043 0.28587 0.0
C263 C 0.7643 0.82625 0.45951 0.0
O264 O 0.69872 0.79532 0.34368 0.0
O265 O 0.73208 0.83517 0.43948 0.0
C266 C 0.74846 0.30772 0.83881 0.0
O267 O 0.72873 0.33446 0.81877 0.0
Cd268 Cd 0.67095 0.30363 0.78838 0.0
O269 O 0.72911 0.27864 0.85643 0.0
Cd270 Cd 0.65529 0.26238 0.87433 0.0
C271 C 0.69234 0.1983 0.80774 0.0
O272 O 0.61807 0.31205 0.83586 0.0
O273 O 0.58802 0.25375 0.84003 0.0
O274 O 0.65865 0.29575 0.93977 0.0
C275 C 0.58935 0.28906 0.82363 0.0
O276 O 0.69274 0.23071 0.78587 0.0
C277 C 0.64692 0.2643 0.95951 0.0
O278 O 0.67786 0.19872 0.84368 0.0
O279 O 0.638 0.23208 0.93948 0.0
C280 C 0.16546 0.24846 0.33881 0.0
O281 O 0.13871 0.22873 0.31877 0.0
Cd282 Cd 0.16954 0.17095 0.28838 0.0
O283 O 0.19453 0.22911 0.35643 0.0
Cd284 Cd 0.21079 0.15529 0.37433 0.0
C285 C 0.27487 0.19234 0.30774 0.0
O286 O 0.16112 0.11807 0.33586 0.0
O287 O 0.21942 0.08802 0.34003 0.0
O288 O 0.17742 0.15865 0.43977 0.0
C289 C 0.18411 0.08935 0.32363 0.0
O290 O 0.24246 0.19274 0.28587 0.0
C291 C 0.20887 0.14692 0.45951 0.0
O292 O 0.27445 0.17786 0.34368 0.0
O293 O 0.24109 0.138 0.43948 0.0
C294 C 0.74737 0.67079 0.10914 0.0
O295 O 0.72765 0.64493 0.13039 0.0
Cd296 Cd 0.67329 0.67558 0.1683 0.0
O297 O 0.72936 0.70289 0.09574 0.0
Cd298 Cd 0.65588 0.72718 0.08776 0.0
C299 C 0.70005 0.78084 0.15766 0.0
O300 O 0.61564 0.68088 0.12656 0.0
O301 O 0.59378 0.74318 0.12806 0.0
O302 O 0.64852 0.69522 0.02296 0.0
C303 C 0.59188 0.70708 0.14262 0.0
O304 O 0.698 0.74684 0.17702 0.0
C305 C 0.64152 0.72838 0.00381 0.0
O306 O 0.68631 0.78444 0.12163 0.0
O307 O 0.63942 0.76159 0.02415 0.0
C308 C 0.80238 0.24737 0.60914 0.0
O309 O 0.82824 0.22765 0.63039 0.0
Cd310 Cd 0.79759 0.17329 0.6683 0.0
O311 O 0.77029 0.22936 0.59574 0.0
Cd312 Cd 0.746 0.15588 0.58776 0.0
C313 C 0.69233 0.20005 0.65766 0.0
O314 O 0.79229 0.11564 0.62656 0.0
O315 O 0.72999 0.09378 0.62806 0.0
O316 O 0.77795 0.14852 0.52296 0.0
C317 C 0.76609 0.09188 0.64262 0.0
O318 O 0.72633 0.198 0.67702 0.0
C319 C 0.74479 0.14152 0.50381 0.0
O320 O 0.68874 0.18631 0.62163 0.0
O321 O 0.71158 0.13942 0.52415 0.0
C322 C 0.17079 0.7258 0.60914 0.0
O323 O 0.14493 0.74552 0.63039 0.0
Cd324 Cd 0.17558 0.79988 0.6683 0.0
O325 O 0.20289 0.74381 0.59574 0.0
Cd326 Cd 0.22718 0.81729 0.58776 0.0
C327 C 0.28084 0.77312 0.65766 0.0
O328 O 0.18088 0.85753 0.62656 0.0
O329 O 0.24318 0.87939 0.62806 0.0
O330 O 0.19522 0.82466 0.52296 0.0
C331 C 0.20708 0.88129 0.64262 0.0
O332 O 0.24684 0.77517 0.67702 0.0
C333 C 0.22838 0.83165 0.50381 0.0
O334 O 0.28444 0.78686 0.62163 0.0
O335 O 0.26159 0.83375 0.52415 0.0
C336 C 0.86588 0.76767 0.7935 0.0
O337 O 0.86743 0.75538 0.8299 0.0
Cd338 Cd 0.87511 0.67757 0.8182 0.0
O339 O 0.86954 0.74032 0.76657 0.0
Cd340 Cd 0.87826 0.68063 0.81347 0.0
C341 C 0.79243 0.66963 0.85168 0.0
O342 O 0.88186 0.65572 0.74583 0.0
O343 O 0.86348 0.60804 0.78701 0.0
O344 O 0.94337 0.71552 0.82195 0.0
C345 C 0.87034 0.61891 0.75056 0.0
O346 O 0.81012 0.63968 0.83515 0.0
C347 C 0.96185 0.68783 0.84182 0.0
O348 O 0.81392 0.70163 0.85562 0.0
O349 O 0.94074 0.65697 0.85306 0.0
C350 C 0.70551 0.36588 0.2935 0.0
O351 O 0.71779 0.36743 0.3299 0.0
Cd352 Cd 0.7956 0.37511 0.3182 0.0
O353 O 0.73285 0.36954 0.26657 0.0
Cd354 Cd 0.79254 0.37826 0.31347 0.0
C355 C 0.80354 0.29243 0.35168 0.0
O356 O 0.81745 0.38186 0.24583 0.0
O357 O 0.86513 0.36348 0.28701 0.0
O358 O 0.75765 0.44337 0.32195 0.0
C359 C 0.85426 0.37034 0.25056 0.0
O360 O 0.83349 0.31012 0.33515 0.0
C361 C 0.78535 0.46185 0.34182 0.0
O362 O 0.77154 0.31392 0.35562 0.0
O363 O 0.81621 0.44074 0.35306 0.0
C364 C 0.1073 0.20551 0.7935 0.0
O365 O 0.10574 0.21779 0.8299 0.0
Cd366 Cd 0.09806 0.2956 0.8182 0.0
O367 O 0.10364 0.23285 0.76657 0.0
Cd368 Cd 0.09491 0.29254 0.81347 0.0
C369 C 0.18074 0.30354 0.85168 0.0
O370 O 0.09131 0.31745 0.74583 0.0
O371 O 0.10969 0.36513 0.78701 0.0
O372 O 0.0298 0.25765 0.82195 0.0
C373 C 0.10283 0.35426 0.75056 0.0
O374 O 0.16305 0.33349 0.83515 0.0
C375 C 0.01132 0.28535 0.84182 0.0
O376 O 0.15925 0.27154 0.85562 0.0
O377 O 0.03243 0.31621 0.85306 0.0
C378 C 0.26767 0.6073 0.2935 0.0
O379 O 0.25538 0.60574 0.3299 0.0
Cd380 Cd 0.17757 0.59806 0.3182 0.0
O381 O 0.24032 0.60364 0.26657 0.0
Cd382 Cd 0.18063 0.59491 0.31347 0.0
C383 C 0.16963 0.68074 0.35168 0.0
O384 O 0.15572 0.59131 0.24583 0.0
O385 O 0.10804 0.60969 0.28701 0.0
O386 O 0.21552 0.5298 0.32195 0.0
C387 C 0.11891 0.60283 0.25056 0.0
O388 O 0.13968 0.66305 0.33515 0.0
C389 C 0.18783 0.51132 0.34182 0.0
O390 O 0.20163 0.65925 0.35562 0.0
O391 O 0.15697 0.53243 0.35306 0.0
C392 C 0.86414 0.19535 0.18347 0.0
O393 O 0.87403 0.20664 0.21893 0.0
Cd394 Cd 0.8435 0.27218 0.23095 0.0
O395 O 0.85889 0.22245 0.15593 0.0
Cd396 Cd 0.88555 0.29526 0.15135 0.0
C397 C 0.79007 0.29946 0.13882 0.0
O398 O 0.89492 0.31948 0.22085 0.0
O399 O 0.86712 0.36299 0.18036 0.0
O400 O 0.94903 0.26135 0.14739 0.0
C401 C 0.87813 0.35424 0.21633 0.0
O402 O 0.79401 0.29017 0.17642 0.0
C403 C 0.9665 0.28605 0.12311 0.0
O404 O 0.82114 0.30239 0.11537 0.0
O405 O 0.94492 0.31519 0.10829 0.0
C406 C 0.27782 0.36414 0.68347 0.0
O407 O 0.26653 0.37403 0.71893 0.0
Cd408 Cd 0.20099 0.3435 0.73095 0.0
O409 O 0.25072 0.35889 0.65593 0.0
Cd410 Cd 0.17791 0.38555 0.65135 0.0
C411 C 0.17371 0.29007 0.63882 0.0
O412 O 0.15369 0.39492 0.72085 0.0
O413 O 0.11018 0.36712 0.68036 0.0
O414 O 0.21182 0.44903 0.64739 0.0
C415 C 0.11893 0.37813 0.71633 0.0
O416 O 0.183 0.29401 0.67642 0.0
C417 C 0.18712 0.4665 0.62311 0.0
O418 O 0.17078 0.32114 0.61537 0.0
O419 O 0.15798 0.44492 0.60829 0.0
C420 C 0.10903 0.77782 0.18347 0.0
O421 O 0.09914 0.76653 0.21893 0.0
Cd422 Cd 0.12967 0.70099 0.23095 0.0
O423 O 0.11428 0.75072 0.15593 0.0
Cd424 Cd 0.08762 0.67791 0.15135 0.0
C425 C 0.1831 0.67371 0.13882 0.0
O426 O 0.07825 0.65369 0.22085 0.0
O427 O 0.10605 0.61018 0.18036 0.0
O428 O 0.02414 0.71182 0.14739 0.0
C429 C 0.09504 0.61893 0.21633 0.0
O430 O 0.17917 0.683 0.17642 0.0
C431 C 0.00668 0.68712 0.12311 0.0
O432 O 0.15203 0.67078 0.11537 0.0
O433 O 0.02825 0.65798 0.10829 0.0
C434 C 0.69535 0.60903 0.68347 0.0
O435 O 0.70664 0.59914 0.71893 0.0
Cd436 Cd 0.77218 0.62967 0.73095 0.0
O437 O 0.72245 0.61428 0.65593 0.0
Cd438 Cd 0.79526 0.58762 0.65135 0.0
C439 C 0.79946 0.6831 0.63882 0.0
O440 O 0.81948 0.57825 0.72085 0.0
O441 O 0.86299 0.60605 0.68036 0.0
O442 O 0.76135 0.52414 0.64739 0.0
C443 C 0.85424 0.59504 0.71633 0.0
O444 O 0.79017 0.67917 0.67642 0.0
C445 C 0.78605 0.50668 0.62311 0.0
O446 O 0.80239 0.65203 0.61537 0.0
O447 O 0.81519 0.52825 0.60829 0.0
C448 C 0.72545 0.81338 0.78866 0.0
O449 O 0.74763 0.80568 0.7584 0.0
Cd450 Cd 0.78992 0.86501 0.76087 0.0
O451 O 0.73107 0.84738 0.80661 0.0
Cd452 Cd 0.79048 0.88625 0.77397 0.0
C453 C 0.8514 0.80905 0.78305 0.0
O454 O 0.76039 0.89704 0.70445 0.0
O455 O 0.82538 0.8877 0.70243 0.0
O456 O 0.75743 0.94524 0.80274 0.0
C457 C 0.79233 0.89432 0.68289 0.0
O458 O 0.84827 0.81993 0.74624 0.0
C459 C 0.78984 0.9664 0.80705 0.0
O460 O 0.83305 0.83084 0.80934 0.0
O461 O 0.82392 0.94885 0.79942 0.0
C462 C 0.65979 0.22545 0.28866 0.0
O463 O 0.66749 0.24763 0.2584 0.0
Cd464 Cd 0.60816 0.28992 0.26087 0.0
O465 O 0.62579 0.23107 0.30661 0.0
Cd466 Cd 0.58692 0.29048 0.27397 0.0
C467 C 0.66412 0.3514 0.28305 0.0
O468 O 0.57613 0.26039 0.20445 0.0
O469 O 0.58547 0.32538 0.20243 0.0
O470 O 0.52793 0.25743 0.30274 0.0
C471 C 0.57885 0.29233 0.18289 0.0
O472 O 0.65324 0.34827 0.24624 0.0
C473 C 0.50677 0.28984 0.30705 0.0
O474 O 0.64233 0.33305 0.30934 0.0
O475 O 0.52432 0.32392 0.29942 0.0
C476 C 0.24772 0.15979 0.78866 0.0
O477 O 0.22554 0.16749 0.7584 0.0
Cd478 Cd 0.18326 0.10816 0.76087 0.0
O479 O 0.24211 0.12579 0.80661 0.0
Cd480 Cd 0.18269 0.08692 0.77397 0.0
C481 C 0.12177 0.16412 0.78305 0.0
O482 O 0.21278 0.07613 0.70445 0.0
O483 O 0.14779 0.08547 0.70243 0.0
O484 O 0.21574 0.02793 0.80274 0.0
C485 C 0.18085 0.07885 0.68289 0.0
O486 O 0.1249 0.15324 0.74624 0.0
C487 C 0.18333 0.00677 0.80705 0.0
O488 O 0.14012 0.14233 0.80934 0.0
O489 O 0.14925 0.02432 0.79942 0.0
C490 C 0.31338 0.74772 0.28866 0.0
O491 O 0.30568 0.72554 0.2584 0.0
Cd492 Cd 0.36501 0.68326 0.26087 0.0
O493 O 0.34738 0.74211 0.30661 0.0
Cd494 Cd 0.38625 0.68269 0.27397 0.0
C495 C 0.30905 0.62177 0.28305 0.0
O496 O 0.39704 0.71278 0.20445 0.0
O497 O 0.3877 0.64779 0.20243 0.0
O498 O 0.44524 0.71574 0.30274 0.0
C499 C 0.39432 0.68085 0.18289 0.0
O500 O 0.31993 0.6249 0.24624 0.0
C501 C 0.4664 0.68333 0.30705 0.0
O502 O 0.33084 0.64012 0.30934 0.0
O503 O 0.44885 0.64925 0.29942 0.0
C504 C 0.71607 0.16283 0.16964 0.0
O505 O 0.74401 0.1679 0.19562 0.0
Cd506 Cd 0.7773 0.10067 0.19432 0.0
O507 O 0.71369 0.12767 0.15331 0.0
Cd508 Cd 0.77391 0.0912 0.18629 0.0
C509 C 0.84439 0.15512 0.17966 0.0
O510 O 0.74076 0.07873 0.25378 0.0
O511 O 0.80475 0.09131 0.25986 0.0
O512 O 0.751 0.0274 0.157 0.0
C513 C 0.77104 0.08347 0.27731 0.0
O514 O 0.84716 0.12923 0.20814 0.0
C515 C 0.78639 0.01111 0.15501 0.0
O516 O 0.8152 0.15008 0.15486 0.0
O517 O 0.81708 0.03382 0.16313 0.0
C518 C 0.31034 0.21607 0.66964 0.0
O519 O 0.30527 0.24401 0.69562 0.0
Cd520 Cd 0.3725 0.2773 0.69432 0.0
O521 O 0.3455 0.21369 0.65331 0.0
Cd522 Cd 0.38197 0.27391 0.68629 0.0
C523 C 0.31805 0.34439 0.67966 0.0
O524 O 0.39444 0.24076 0.75378 0.0
O525 O 0.38186 0.30475 0.75986 0.0
O526 O 0.44578 0.251 0.657 0.0
C527 C 0.3897 0.27104 0.77731 0.0
O528 O 0.34394 0.34716 0.70814 0.0
C529 C 0.46206 0.28639 0.65501 0.0
O530 O 0.32309 0.3152 0.65486 0.0
O531 O 0.43935 0.31708 0.66313 0.0
C532 C 0.25711 0.81034 0.16964 0.0
O533 O 0.22916 0.80527 0.19562 0.0
Cd534 Cd 0.19587 0.8725 0.19432 0.0
O535 O 0.25948 0.8455 0.15331 0.0
Cd536 Cd 0.19926 0.88197 0.18629 0.0
C537 C 0.12878 0.81805 0.17966 0.0
O538 O 0.23241 0.89444 0.25378 0.0
O539 O 0.16843 0.88186 0.25986 0.0
O540 O 0.22217 0.94578 0.157 0.0
C541 C 0.20213 0.8897 0.27731 0.0
O542 O 0.12601 0.84394 0.20814 0.0
C543 C 0.18678 0.96206 0.15501 0.0
O544 O 0.15797 0.82309 0.15486 0.0
O545 O 0.15609 0.93935 0.16313 0.0
C546 C 0.66283 0.75711 0.66964 0.0
O547 O 0.6679 0.72916 0.69562 0.0
Cd548 Cd 0.60067 0.69587 0.69432 0.0
O549 O 0.62767 0.75948 0.65331 0.0
Cd550 Cd 0.5912 0.69926 0.68629 0.0
C551 C 0.65512 0.62878 0.67966 0.0
O552 O 0.57873 0.73241 0.75378 0.0
O553 O 0.59131 0.66843 0.75986 0.0
O554 O 0.5274 0.72217 0.657 0.0
C555 C 0.58347 0.70213 0.77731 0.0
O556 O 0.62923 0.62601 0.70814 0.0
C557 C 0.51111 0.68678 0.65501 0.0
O558 O 0.65008 0.65797 0.65486 0.0
O559 O 0.53382 0.65609 0.66313 0.0
C560 C 0.74737 0.67079 0.85423 0.0
O561 O 0.72765 0.64493 0.83298 0.0
Cd562 Cd 0.6733 0.67558 0.79507 0.0
O563 O 0.72936 0.70289 0.86763 0.0
Cd564 Cd 0.65589 0.72717 0.87561 0.0
C565 C 0.70005 0.78084 0.80571 0.0
O566 O 0.61565 0.68088 0.83681 0.0
O567 O 0.59378 0.74318 0.83531 0.0
O568 O 0.64852 0.69522 0.9404 0.0
C569 C 0.59188 0.70708 0.82075 0.0
O570 O 0.698 0.74684 0.78635 0.0
C571 C 0.64153 0.72838 0.95956 0.0
O572 O 0.68631 0.78444 0.84174 0.0
O573 O 0.63942 0.76159 0.93921 0.0
C574 C 0.74846 0.30771 0.12456 0.0
O575 O 0.72873 0.33445 0.1446 0.0
Cd576 Cd 0.67095 0.30363 0.17499 0.0
O577 O 0.72911 0.27863 0.10694 0.0
Cd578 Cd 0.65529 0.26238 0.08904 0.0
C579 C 0.69234 0.1983 0.15563 0.0
O580 O 0.61807 0.31205 0.12751 0.0
O581 O 0.58801 0.25375 0.12334 0.0
O582 O 0.65865 0.29575 0.0236 0.0
C583 C 0.58935 0.28906 0.13974 0.0
O584 O 0.69274 0.23071 0.1775 0.0
C585 C 0.64692 0.2643 0.00386 0.0
O586 O 0.67786 0.19871 0.11969 0.0
O587 O 0.638 0.23208 0.02389 0.0
C588 C 0.16546 0.24846 0.62456 0.0
O589 O 0.13872 0.22873 0.6446 0.0
Cd590 Cd 0.16954 0.17095 0.67499 0.0
O591 O 0.19454 0.22911 0.60694 0.0
Cd592 Cd 0.21079 0.15529 0.58904 0.0
C593 C 0.27487 0.19234 0.65563 0.0
O594 O 0.16112 0.11807 0.62751 0.0
O595 O 0.21942 0.08801 0.62334 0.0
O596 O 0.17742 0.15865 0.5236 0.0
C597 C 0.18411 0.08935 0.63974 0.0
O598 O 0.24246 0.19274 0.6775 0.0
C599 C 0.20888 0.14692 0.50386 0.0
O600 O 0.27446 0.17786 0.61969 0.0
O601 O 0.24109 0.138 0.52389 0.0
C602 C 0.22471 0.66546 0.12456 0.0
O603 O 0.24444 0.63872 0.1446 0.0
Cd604 Cd 0.30223 0.66954 0.17499 0.0
O605 O 0.24406 0.69454 0.10694 0.0
Cd606 Cd 0.31788 0.71079 0.08904 0.0
C607 C 0.28083 0.77487 0.15563 0.0
O608 O 0.3551 0.66112 0.12751 0.0
O609 O 0.38516 0.71942 0.12334 0.0
O610 O 0.31452 0.67742 0.0236 0.0
C611 C 0.38383 0.68411 0.13974 0.0
O612 O 0.28043 0.74246 0.1775 0.0
C613 C 0.32625 0.70888 0.00386 0.0
O614 O 0.29532 0.77446 0.11969 0.0
O615 O 0.33517 0.74109 0.02389 0.0
C616 C 0.80771 0.72471 0.62456 0.0
O617 O 0.83445 0.74444 0.6446 0.0
Cd618 Cd 0.80363 0.80223 0.67499 0.0
O619 O 0.77863 0.74406 0.60694 0.0
Cd620 Cd 0.76238 0.81788 0.58904 0.0
C621 C 0.6983 0.78083 0.65563 0.0
O622 O 0.81205 0.8551 0.62751 0.0
O623 O 0.75375 0.88516 0.62334 0.0
O624 O 0.79575 0.81452 0.5236 0.0
C625 C 0.78906 0.88383 0.63974 0.0
O626 O 0.73071 0.78043 0.6775 0.0
C627 C 0.7643 0.82625 0.50386 0.0
O628 O 0.69871 0.79532 0.61969 0.0
O629 O 0.73208 0.83517 0.52389 0.0
C630 C 0.2258 0.30238 0.85423 0.0
O631 O 0.24552 0.32824 0.83298 0.0
Cd632 Cd 0.29987 0.29759 0.79507 0.0
O633 O 0.24381 0.27028 0.86763 0.0
Cd634 Cd 0.31729 0.246 0.87561 0.0
C635 C 0.27312 0.19233 0.80571 0.0
O636 O 0.35753 0.29229 0.83681 0.0
O637 O 0.37939 0.23 0.83531 0.0
O638 O 0.32465 0.27795 0.9404 0.0
C639 C 0.38129 0.26609 0.82075 0.0
O640 O 0.27517 0.22633 0.78635 0.0
C641 C 0.33164 0.24479 0.95956 0.0
O642 O 0.28686 0.18874 0.84174 0.0
O643 O 0.33375 0.21158 0.93921 0.0
C644 C 0.17079 0.7258 0.35423 0.0
O645 O 0.14493 0.74552 0.33298 0.0
Cd646 Cd 0.17558 0.79987 0.29507 0.0
O647 O 0.20289 0.74381 0.36763 0.0
Cd648 Cd 0.22717 0.81729 0.37561 0.0
C649 C 0.28084 0.77312 0.30571 0.0
O650 O 0.18088 0.85753 0.33681 0.0
O651 O 0.24318 0.87939 0.33531 0.0
O652 O 0.19522 0.82465 0.4404 0.0
C653 C 0.20708 0.88129 0.32075 0.0
O654 O 0.24684 0.77517 0.28635 0.0
C655 C 0.22838 0.83164 0.45956 0.0
O656 O 0.28444 0.78686 0.34174 0.0
O657 O 0.26159 0.83375 0.43921 0.0
C658 C 0.80238 0.24737 0.35423 0.0
O659 O 0.82824 0.22765 0.33298 0.0
Cd660 Cd 0.79759 0.1733 0.29507 0.0
O661 O 0.77028 0.22936 0.36763 0.0
Cd662 Cd 0.746 0.15589 0.37561 0.0
C663 C 0.69233 0.20005 0.30571 0.0
O664 O 0.79229 0.11565 0.33681 0.0
O665 O 0.73 0.09378 0.33531 0.0
O666 O 0.77795 0.14852 0.4404 0.0
C667 C 0.76609 0.09188 0.32075 0.0
O668 O 0.72633 0.198 0.28635 0.0
C669 C 0.74479 0.14153 0.45956 0.0
O670 O 0.68874 0.18631 0.34174 0.0
O671 O 0.71158 0.13942 0.43921 0.0
loop_
_geom_bond_atom_site_label_1
_geom_bond_atom_site_label_2
_geom_bond_distance
_geom_bond_site_symmetry_2
_ccdc_geom_bond_type
C0 O1 1.306 . S
C0 O3 1.160 . S
O1 C0 1.306 . S
O1 Cd2 2.228 . S
Cd2 O1 2.228 . S
Cd2 O6 2.273 . S
Cd2 O10 2.277 . S
O3 C0 1.160 . S
O3 Cd4 2.203 . S
Cd4 O3 2.203 . S
Cd4 O6 2.411 . S
Cd4 O7 2.333 . S
Cd4 O8 2.352 . S
Cd4 O12 2.277 . S
Cd4 O13 2.356 . S
C5 O10 1.209 . S
C5 O12 1.226 . S
O6 Cd2 2.273 . S
O6 Cd4 2.411 . S
O6 C9 1.320 . S
O7 Cd4 2.333 . S
O7 C9 1.214 . S
O8 Cd4 2.352 . S
O8 C11 1.258 . S
C9 O6 1.320 . S
C9 O7 1.214 . S
O10 Cd2 2.277 . S
O10 C5 1.209 . S
C11 O8 1.258 . S
C11 O13 1.282 . S
O12 Cd4 2.277 . S
O12 C5 1.226 . S
O13 Cd4 2.356 . S
O13 C11 1.282 . S
C14 O15 1.306 . S
C14 O17 1.160 . S
O15 C14 1.306 . S
O15 Cd16 2.228 . S
Cd16 O15 2.228 . S
Cd16 O20 2.273 . S
Cd16 O24 2.277 . S
O17 C14 1.160 . S
O17 Cd18 2.203 . S
Cd18 O17 2.203 . S
Cd18 O20 2.411 . S
Cd18 O21 2.333 . S
Cd18 O22 2.352 . S
Cd18 O26 2.277 . S
Cd18 O27 2.356 . S
C19 O24 1.209 . S
C19 O26 1.226 . S
O20 Cd16 2.273 . S
O20 Cd18 2.411 . S
O20 C23 1.320 . S
O21 Cd18 2.333 . S
O21 C23 1.214 . S
O22 Cd18 2.352 . S
O22 C25 1.258 . S
C23 O20 1.320 . S
C23 O21 1.214 . S
O24 Cd16 2.277 . S
O24 C19 1.209 . S
C25 O22 1.258 . S
C25 O27 1.282 . S
O26 Cd18 2.277 . S
O26 C19 1.226 . S
O27 Cd18 2.356 . S
O27 C25 1.282 . S
C28 O29 1.306 . S
C28 O31 1.160 . S
O29 C28 1.306 . S
O29 Cd30 2.228 . S
Cd30 O29 2.228 . S
Cd30 O34 2.273 . S
Cd30 O38 2.277 . S
O31 C28 1.160 . S
O31 Cd32 2.203 . S
Cd32 O31 2.203 . S
Cd32 O34 2.411 . S
Cd32 O35 2.333 . S
Cd32 O36 2.352 . S
Cd32 O40 2.277 . S
Cd32 O41 2.356 . S
C33 O38 1.209 . S
C33 O40 1.226 . S
O34 Cd30 2.273 . S
O34 Cd32 2.411 . S
O34 C37 1.320 . S
O35 Cd32 2.333 . S
O35 C37 1.214 . S
O36 Cd32 2.352 . S
O36 C39 1.258 . S
C37 O34 1.320 . S
C37 O35 1.214 . S
O38 Cd30 2.277 . S
O38 C33 1.209 . S
C39 O36 1.258 . S
C39 O41 1.282 . S
O40 Cd32 2.277 . S
O40 C33 1.226 . S
O41 Cd32 2.356 . S
O41 C39 1.282 . S
C42 O43 1.306 . S
C42 O45 1.160 . S
O43 C42 1.306 . S
O43 Cd44 2.228 . S
Cd44 O43 2.228 . S
Cd44 O48 2.273 . S
Cd44 O52 2.277 . S
O45 C42 1.160 . S
O45 Cd46 2.203 . S
Cd46 O45 2.203 . S
Cd46 O48 2.411 . S
Cd46 O49 2.333 . S
Cd46 O50 2.352 . S
Cd46 O54 2.277 . S
Cd46 O55 2.356 . S
C47 O52 1.209 . S
C47 O54 1.226 . S
O48 Cd44 2.273 . S
O48 Cd46 2.411 . S
O48 C51 1.320 . S
O49 Cd46 2.333 . S
O49 C51 1.214 . S
O50 Cd46 2.352 . S
O50 C53 1.258 . S
C51 O48 1.320 . S
C51 O49 1.214 . S
O52 Cd44 2.277 . S
O52 C47 1.209 . S
C53 O50 1.258 . S
C53 O55 1.282 . S
O54 Cd46 2.277 . S
O54 C47 1.226 . S
O55 Cd46 2.356 . S
O55 C53 1.282 . S
C56 O57 1.306 . S
C56 O59 1.160 . S
O57 C56 1.306 . S
O57 Cd58 2.228 . S
Cd58 O57 2.228 . S
Cd58 O62 2.273 . S
Cd58 O66 2.277 . S
O59 C56 1.160 . S
O59 Cd60 2.203 . S
Cd60 O59 2.203 . S
Cd60 O62 2.411 . S
Cd60 O63 2.333 . S
Cd60 O64 2.352 . S
Cd60 O68 2.277 . S
Cd60 O69 2.356 . S
C61 O66 1.209 . S
C61 O68 1.226 . S
O62 Cd58 2.273 . S
O62 Cd60 2.411 . S
O62 C65 1.320 . S
O63 Cd60 2.333 . S
O63 C65 1.214 . S
O64 Cd60 2.352 . S
O64 C67 1.258 . S
C65 O62 1.320 . S
C65 O63 1.214 . S
O66 Cd58 2.277 . S
O66 C61 1.209 . S
C67 O64 1.258 . S
C67 O69 1.282 . S
O68 Cd60 2.277 . S
O68 C61 1.226 . S
O69 Cd60 2.356 . S
O69 C67 1.282 . S
C70 O71 1.306 . S
C70 O73 1.160 . S
O71 C70 1.306 . S
O71 Cd72 2.228 . S
Cd72 O71 2.228 . S
Cd72 O76 2.273 . S
Cd72 O80 2.277 . S
O73 C70 1.160 . S
O73 Cd74 2.203 . S
Cd74 O73 2.203 . S
Cd74 O76 2.411 . S
Cd74 O77 2.333 . S
Cd74 O78 2.352 . S
Cd74 O82 2.277 . S
Cd74 O83 2.356 . S
C75 O80 1.209 . S
C75 O82 1.226 . S
O76 Cd72 2.273 . S
O76 Cd74 2.411 . S
O76 C79 1.320 . S
O77 Cd74 2.333 . S
O77 C79 1.214 . S
O78 Cd74 2.352 . S
O78 C81 1.258 . S
C79 O76 1.320 . S
C79 O77 1.214 . S
O80 Cd72 2.277 . S
O80 C75 1.209 . S
C81 O78 1.258 . S
C81 O83 1.282 . S
O82 Cd74 2.277 . S
O82 C75 1.226 . S
O83 Cd74 2.356 . S
O83 C81 1.282 . S
C84 O85 1.306 . S
C84 O87 1.160 . S
O85 C84 1.306 . S
O85 Cd86 2.228 . S
Cd86 O85 2.228 . S
Cd86 O90 2.273 . S
Cd86 O94 2.277 . S
O87 C84 1.160 . S
O87 Cd88 2.203 . S
Cd88 O87 2.203 . S
Cd88 O90 2.411 . S
Cd88 O91 2.333 . S
Cd88 O92 2.352 . S
Cd88 O96 2.277 . S
Cd88 O97 2.356 . S
C89 O94 1.209 . S
C89 O96 1.226 . S
O90 Cd86 2.273 . S
O90 Cd88 2.411 . S
O90 C93 1.320 . S
O91 Cd88 2.333 . S
O91 C93 1.214 . S
O92 Cd88 2.352 . S
O92 C95 1.258 . S
C93 O90 1.320 . S
C93 O91 1.214 . S
O94 Cd86 2.277 . S
O94 C89 1.209 . S
C95 O92 1.258 . S
C95 O97 1.282 . S
O96 Cd88 2.277 . S
O96 C89 1.226 . S
O97 Cd88 2.356 . S
O97 C95 1.282 . S
C98 O99 1.306 . S
C98 O101 1.160 . S
O99 C98 1.306 . S
O99 Cd100 2.228 . S
Cd100 O99 2.228 . S
Cd100 O104 2.273 . S
Cd100 O108 2.277 . S
O101 C98 1.160 . S
O101 Cd102 2.203 . S
Cd102 O101 2.203 . S
Cd102 O104 2.411 . S
Cd102 O105 2.333 . S
Cd102 O106 2.352 . S
Cd102 O110 2.277 . S
Cd102 O111 2.356 . S
C103 O108 1.209 . S
C103 O110 1.226 . S
O104 Cd100 2.273 . S
O104 Cd102 2.411 . S
O104 C107 1.320 . S
O105 Cd102 2.333 . S
O105 C107 1.214 . S
O106 Cd102 2.352 . S
O106 C109 1.258 . S
C107 O104 1.320 . S
C107 O105 1.214 . S
O108 Cd100 2.277 . S
O108 C103 1.209 . S
C109 O106 1.258 . S
C109 O111 1.282 . S
O110 Cd102 2.277 . S
O110 C103 1.226 . S
O111 Cd102 2.356 . S
O111 C109 1.282 . S
C112 O113 1.306 . S
C112 O115 1.160 . S
O113 C112 1.306 . S
O113 Cd114 2.228 . S
Cd114 O113 2.228 . S
Cd114 O118 2.273 . S
Cd114 O122 2.277 . S
O115 C112 1.160 . S
O115 Cd116 2.203 . S
Cd116 O115 2.203 . S
Cd116 O118 2.411 . S
Cd116 O119 2.333 . S
Cd116 O120 2.352 . S
Cd116 O124 2.277 . S
Cd116 O125 2.356 . S
C117 O122 1.209 . S
C117 O124 1.226 . S
O118 Cd114 2.273 . S
O118 Cd116 2.411 . S
O118 C121 1.320 . S
O119 Cd116 2.333 . S
O119 C121 1.214 . S
O120 Cd116 2.352 . S
O120 C123 1.258 . S
C121 O118 1.320 . S
C121 O119 1.214 . S
O122 Cd114 2.277 . S
O122 C117 1.209 . S
C123 O120 1.258 . S
C123 O125 1.282 . S
O124 Cd116 2.277 . S
O124 C117 1.226 . S
O125 Cd116 2.356 . S
O125 C123 1.282 . S
C126 O127 1.306 . S
C126 O129 1.160 . S
O127 C126 1.306 . S
O127 Cd128 2.228 . S
Cd128 O127 2.228 . S
Cd128 O132 2.273 . S
Cd128 O136 2.277 . S
O129 C126 1.160 . S
O129 Cd130 2.203 . S
Cd130 O129 2.203 . S
Cd130 O132 2.411 . S
Cd130 O133 2.333 . S
Cd130 O134 2.352 . S
Cd130 O138 2.277 . S
Cd130 O139 2.356 . S
C131 O136 1.209 . S
C131 O138 1.226 . S
O132 Cd128 2.273 . S
O132 Cd130 2.411 . S
O132 C135 1.320 . S
O133 Cd130 2.333 . S
O133 C135 1.214 . S
O134 Cd130 2.352 . S
O134 C137 1.258 . S
C135 O132 1.320 . S
C135 O133 1.214 . S
O136 Cd128 2.277 . S
O136 C131 1.209 . S
C137 O134 1.258 . S
C137 O139 1.282 . S
O138 Cd130 2.277 . S
O138 C131 1.226 . S
O139 Cd130 2.356 . S
O139 C137 1.282 . S
C140 O141 1.306 . S
C140 O143 1.160 . S
O141 C140 1.306 . S
O141 Cd142 2.228 . S
Cd142 O141 2.228 . S
Cd142 O146 2.273 . S
Cd142 O150 2.277 . S
O143 C140 1.160 . S
O143 Cd144 2.203 . S
Cd144 O143 2.203 . S
Cd144 O146 2.411 . S
Cd144 O147 2.333 . S
Cd144 O148 2.352 . S
Cd144 O152 2.277 . S
Cd144 O153 2.356 . S
C145 O150 1.209 . S
C145 O152 1.226 . S
O146 Cd142 2.273 . S
O146 Cd144 2.411 . S
O146 C149 1.320 . S
O147 Cd144 2.333 . S
O147 C149 1.214 . S
O148 Cd144 2.352 . S
O148 C151 1.258 . S
C149 O146 1.320 . S
C149 O147 1.214 . S
O150 Cd142 2.277 . S
O150 C145 1.209 . S
C151 O148 1.258 . S
C151 O153 1.282 . S
O152 Cd144 2.277 . S
O152 C145 1.226 . S
O153 Cd144 2.356 . S
O153 C151 1.282 . S
C154 O155 1.306 . S
C154 O157 1.160 . S
O155 C154 1.306 . S
O155 Cd156 2.228 . S
Cd156 O155 2.228 . S
Cd156 O160 2.273 . S
Cd156 O164 2.277 . S
O157 C154 1.160 . S
O157 Cd158 2.203 . S
Cd158 O157 2.203 . S
Cd158 O160 2.411 . S
Cd158 O161 2.333 . S
Cd158 O162 2.352 . S
Cd158 O166 2.277 . S
Cd158 O167 2.356 . S
C159 O164 1.209 . S
C159 O166 1.226 . S
O160 Cd156 2.273 . S
O160 Cd158 2.411 . S
O160 C163 1.320 . S
O161 Cd158 2.333 . S
O161 C163 1.214 . S
O162 Cd158 2.352 . S
O162 C165 1.258 . S
C163 O160 1.320 . S
C163 O161 1.214 . S
O164 Cd156 2.277 . S
O164 C159 1.209 . S
C165 O162 1.258 . S
C165 O167 1.282 . S
O166 Cd158 2.277 . S
O166 C159 1.226 . S
O167 Cd158 2.356 . S
O167 C165 1.282 . S
C168 O169 1.306 . S
C168 O171 1.160 . S
O169 C168 1.306 . S
O169 Cd170 2.228 . S
Cd170 O169 2.228 . S
Cd170 O174 2.273 . S
Cd170 O178 2.277 . S
O171 C168 1.160 . S
O171 Cd172 2.203 . S
Cd172 O171 2.203 . S
Cd172 O174 2.411 . S
Cd172 O175 2.333 . S
Cd172 O176 2.352 . S
Cd172 O180 2.277 . S
Cd172 O181 2.356 . S
C173 O178 1.209 . S
C173 O180 1.226 . S
O174 Cd170 2.273 . S
O174 Cd172 2.411 . S
O174 C177 1.320 . S
O175 Cd172 2.333 . S
O175 C177 1.214 . S
O176 Cd172 2.352 . S
O176 C179 1.258 . S
C177 O174 1.320 . S
C177 O175 1.214 . S
O178 Cd170 2.277 . S
O178 C173 1.209 . S
C179 O176 1.258 . S
C179 O181 1.282 . S
O180 Cd172 2.277 . S
O180 C173 1.226 . S
O181 Cd172 2.356 . S
O181 C179 1.282 . S
C182 O183 1.306 . S
C182 O185 1.160 . S
O183 C182 1.306 . S
O183 Cd184 2.228 . S
Cd184 O183 2.228 . S
Cd184 O188 2.273 . S
Cd184 O192 2.277 . S
O185 C182 1.160 . S
O185 Cd186 2.203 . S
Cd186 O185 2.203 . S
Cd186 O188 2.411 . S
Cd186 O189 2.333 . S
Cd186 O190 2.352 . S
Cd186 O194 2.277 . S
Cd186 O195 2.356 . S
C187 O192 1.209 . S
C187 O194 1.226 . S
O188 Cd184 2.273 . S
O188 Cd186 2.411 . S
O188 C191 1.320 . S
O189 Cd186 2.333 . S
O189 C191 1.214 . S
O190 Cd186 2.352 . S
O190 C193 1.258 . S
C191 O188 1.320 . S
C191 O189 1.214 . S
O192 Cd184 2.277 . S
O192 C187 1.209 . S
C193 O190 1.258 . S
C193 O195 1.282 . S
O194 Cd186 2.277 . S
O194 C187 1.226 . S
O195 Cd186 2.356 . S
O195 C193 1.282 . S
C196 O197 1.306 . S
C196 O199 1.160 . S
O197 C196 1.306 . S
O197 Cd198 2.228 . S
Cd198 O197 2.228 . S
Cd198 O202 2.273 . S
Cd198 O206 2.277 . S
O199 C196 1.160 . S
O199 Cd200 2.203 . S
Cd200 O199 2.203 . S
Cd200 O202 2.411 . S
Cd200 O203 2.333 . S
Cd200 O204 2.352 . S
Cd200 O208 2.277 . S
Cd200 O209 2.356 . S
C201 O206 1.209 . S
C201 O208 1.226 . S
O202 Cd198 2.273 . S
O202 Cd200 2.411 . S
O202 C205 1.320 . S
O203 Cd200 2.333 . S
O203 C205 1.214 . S
O204 Cd200 2.352 . S
O204 C207 1.258 . S
C205 O202 1.320 . S
C205 O203 1.214 . S
O206 Cd198 2.277 . S
O206 C201 1.209 . S
C207 O204 1.258 . S
C207 O209 1.282 . S
O208 Cd200 2.277 . S
O208 C201 1.226 . S
O209 Cd200 2.356 . S
O209 C207 1.282 . S
C210 O211 1.306 . S
C210 O213 1.160 . S
O211 C210 1.306 . S
O211 Cd212 2.228 . S
Cd212 O211 2.228 . S
Cd212 O216 2.273 . S
Cd212 O220 2.277 . S
O213 C210 1.160 . S
O213 Cd214 2.203 . S
Cd214 O213 2.203 . S
Cd214 O216 2.411 . S
Cd214 O217 2.333 . S
Cd214 O218 2.352 . S
Cd214 O222 2.277 . S
Cd214 O223 2.356 . S
C215 O220 1.209 . S
C215 O222 1.226 . S
O216 Cd212 2.273 . S
O216 Cd214 2.411 . S
O216 C219 1.320 . S
O217 Cd214 2.333 . S
O217 C219 1.214 . S
O218 Cd214 2.352 . S
O218 C221 1.258 . S
C219 O216 1.320 . S
C219 O217 1.214 . S
O220 Cd212 2.277 . S
O220 C215 1.209 . S
C221 O218 1.258 . S
C221 O223 1.282 . S
O222 Cd214 2.277 . S
O222 C215 1.226 . S
O223 Cd214 2.356 . S
O223 C221 1.282 . S
C224 O225 1.306 . S
C224 O227 1.160 . S
O225 C224 1.306 . S
O225 Cd226 2.228 . S
Cd226 O225 2.228 . S
Cd226 O230 2.273 . S
Cd226 O234 2.277 . S
O227 C224 1.160 . S
O227 Cd228 2.203 . S
Cd228 O227 2.203 . S
Cd228 O230 2.411 . S
Cd228 O231 2.333 . S
Cd228 O232 2.352 . S
Cd228 O236 2.277 . S
Cd228 O237 2.356 . S
C229 O234 1.209 . S
C229 O236 1.226 . S
O230 Cd226 2.273 . S
O230 Cd228 2.411 . S
O230 C233 1.320 . S
O231 Cd228 2.333 . S
O231 C233 1.214 . S
O232 Cd228 2.352 . S
O232 C235 1.258 . S
C233 O230 1.320 . S
C233 O231 1.214 . S
O234 Cd226 2.277 . S
O234 C229 1.209 . S
C235 O232 1.258 . S
C235 O237 1.282 . S
O236 Cd228 2.277 . S
O236 C229 1.226 . S
O237 Cd228 2.356 . S
O237 C235 1.282 . S
C238 O239 1.306 . S
C238 O241 1.160 . S
O239 C238 1.306 . S
O239 Cd240 2.228 . S
Cd240 O239 2.228 . S
Cd240 O244 2.273 . S
Cd240 O248 2.277 . S
O241 C238 1.160 . S
O241 Cd242 2.203 . S
Cd242 O241 2.203 . S
Cd242 O244 2.411 . S
Cd242 O245 2.333 . S
Cd242 O246 2.352 . S
Cd242 O250 2.277 . S
Cd242 O251 2.356 . S
C243 O248 1.209 . S
C243 O250 1.226 . S
O244 Cd240 2.273 . S
O244 Cd242 2.411 . S
O244 C247 1.320 . S
O245 Cd242 2.333 . S
O245 C247 1.214 . S
O246 Cd242 2.352 . S
O246 C249 1.258 . S
C247 O244 1.320 . S
C247 O245 1.214 . S
O248 Cd240 2.277 . S
O248 C243 1.209 . S
C249 O246 1.258 . S
C249 O251 1.282 . S
O250 Cd242 2.277 . S
O250 C243 1.226 . S
O251 Cd242 2.356 . S
O251 C249 1.282 . S
C252 O253 1.306 . S
C252 O255 1.160 . S
O253 C252 1.306 . S
O253 Cd254 2.228 . S
Cd254 O253 2.228 . S
Cd254 O258 2.273 . S
Cd254 O262 2.277 . S
O255 C252 1.160 . S
O255 Cd256 2.203 . S
Cd256 O255 2.203 . S
Cd256 O258 2.411 . S
Cd256 O259 2.333 . S
Cd256 O260 2.352 . S
Cd256 O264 2.277 . S
Cd256 O265 2.356 . S
C257 O262 1.209 . S
C257 O264 1.226 . S
O258 Cd254 2.273 . S
O258 Cd256 2.411 . S
O258 C261 1.320 . S
O259 Cd256 2.333 . S
O259 C261 1.214 . S
O260 Cd256 2.352 . S
O260 C263 1.258 . S
C261 O258 1.320 . S
C261 O259 1.214 . S
O262 Cd254 2.277 . S
O262 C257 1.209 . S
C263 O260 1.258 . S
C263 O265 1.282 . S
O264 Cd256 2.277 . S
O264 C257 1.226 . S
O265 Cd256 2.356 . S
O265 C263 1.282 . S
C266 O267 1.306 . S
C266 O269 1.160 . S
O267 C266 1.306 . S
O267 Cd268 2.228 . S
Cd268 O267 2.228 . S
Cd268 O272 2.273 . S
Cd268 O276 2.277 . S
O269 C266 1.160 . S
O269 Cd270 2.203 . S
Cd270 O269 2.203 . S
Cd270 O272 2.411 . S
Cd270 O273 2.333 . S
Cd270 O274 2.352 . S
Cd270 O278 2.277 . S
Cd270 O279 2.356 . S
C271 O276 1.209 . S
C271 O278 1.226 . S
O272 Cd268 2.273 . S
O272 Cd270 2.411 . S
O272 C275 1.320 . S
O273 Cd270 2.333 . S
O273 C275 1.214 . S
O274 Cd270 2.352 . S
O274 C277 1.258 . S
C275 O272 1.320 . S
C275 O273 1.214 . S
O276 Cd268 2.277 . S
O276 C271 1.209 . S
C277 O274 1.258 . S
C277 O279 1.282 . S
O278 Cd270 2.277 . S
O278 C271 1.226 . S
O279 Cd270 2.356 . S
O279 C277 1.282 . S
C280 O281 1.306 . S
C280 O283 1.160 . S
O281 C280 1.306 . S
O281 Cd282 2.228 . S
Cd282 O281 2.228 . S
Cd282 O286 2.273 . S
Cd282 O290 2.277 . S
O283 C280 1.160 . S
O283 Cd284 2.203 . S
Cd284 O283 2.203 . S
Cd284 O286 2.411 . S
Cd284 O287 2.333 . S
Cd284 O288 2.352 . S
Cd284 O292 2.277 . S
Cd284 O293 2.356 . S
C285 O290 1.209 . S
C285 O292 1.226 . S
O286 Cd282 2.273 . S
O286 Cd284 2.411 . S
O286 C289 1.320 . S
O287 Cd284 2.333 . S
O287 C289 1.214 . S
O288 Cd284 2.352 . S
O288 C291 1.258 . S
C289 O286 1.320 . S
C289 O287 1.214 . S
O290 Cd282 2.277 . S
O290 C285 1.209 . S
C291 O288 1.258 . S
C291 O293 1.282 . S
O292 Cd284 2.277 . S
O292 C285 1.226 . S
O293 Cd284 2.356 . S
O293 C291 1.282 . S
C294 O295 1.306 . S
C294 O297 1.160 . S
O295 C294 1.306 . S
O295 Cd296 2.228 . S
Cd296 O295 2.228 . S
Cd296 O300 2.273 . S
Cd296 O304 2.277 . S
O297 C294 1.160 . S
O297 Cd298 2.203 . S
Cd298 O297 2.203 . S
Cd298 O300 2.411 . S
Cd298 O301 2.333 . S
Cd298 O302 2.352 . S
Cd298 O306 2.277 . S
Cd298 O307 2.356 . S
C299 O304 1.209 . S
C299 O306 1.226 . S
O300 Cd296 2.273 . S
O300 Cd298 2.411 . S
O300 C303 1.320 . S
O301 Cd298 2.333 . S
O301 C303 1.214 . S
O302 Cd298 2.352 . S
O302 C305 1.258 . S
C303 O300 1.320 . S
C303 O301 1.214 . S
O304 Cd296 2.277 . S
O304 C299 1.209 . S
C305 O302 1.258 . S
C305 O307 1.282 . S
O306 Cd298 2.277 . S
O306 C299 1.226 . S
O307 Cd298 2.356 . S
O307 C305 1.282 . S
C308 O309 1.306 . S
C308 O311 1.160 . S
O309 C308 1.306 . S
O309 Cd310 2.228 . S
Cd310 O309 2.228 . S
Cd310 O314 2.273 . S
Cd310 O318 2.277 . S
O311 C308 1.160 . S
O311 Cd312 2.203 . S
Cd312 O311 2.203 . S
Cd312 O314 2.411 . S
Cd312 O315 2.333 . S
Cd312 O316 2.352 . S
Cd312 O320 2.277 . S
Cd312 O321 2.356 . S
C313 O318 1.209 . S
C313 O320 1.226 . S
O314 Cd310 2.273 . S
O314 Cd312 2.411 . S
O314 C317 1.320 . S
O315 Cd312 2.333 . S
O315 C317 1.214 . S
O316 Cd312 2.352 . S
O316 C319 1.258 . S
C317 O314 1.320 . S
C317 O315 1.214 . S
O318 Cd310 2.277 . S
O318 C313 1.209 . S
C319 O316 1.258 . S
C319 O321 1.282 . S
O320 Cd312 2.277 . S
O320 C313 1.226 . S
O321 Cd312 2.356 . S
O321 C319 1.282 . S
C322 O323 1.306 . S
C322 O325 1.160 . S
O323 C322 1.306 . S
O323 Cd324 2.228 . S
Cd324 O323 2.228 . S
Cd324 O328 2.273 . S
Cd324 O332 2.277 . S
O325 C322 1.160 . S
O325 Cd326 2.203 . S
Cd326 O325 2.203 . S
Cd326 O328 2.411 . S
Cd326 O329 2.333 . S
Cd326 O330 2.352 . S
Cd326 O334 2.277 . S
Cd326 O335 2.356 . S
C327 O332 1.209 . S
C327 O334 1.226 . S
O328 Cd324 2.273 . S
O328 Cd326 2.411 . S
O328 C331 1.320 . S
O329 Cd326 2.333 . S
O329 C331 1.214 . S
O330 Cd326 2.352 . S
O330 C333 1.258 . S
C331 O328 1.320 . S
C331 O329 1.214 . S
O332 Cd324 2.277 . S
O332 C327 1.209 . S
C333 O330 1.258 . S
C333 O335 1.282 . S
O334 Cd326 2.277 . S
O334 C327 1.226 . S
O335 Cd326 2.356 . S
O335 C333 1.282 . S
C336 O337 1.306 . S
C336 O339 1.160 . S
O337 C336 1.306 . S
O337 Cd338 2.228 . S
Cd338 O337 2.228 . S
Cd338 O342 2.273 . S
Cd338 O346 2.277 . S
O339 C336 1.160 . S
O339 Cd340 2.203 . S
Cd340 O339 2.203 . S
Cd340 O342 2.411 . S
Cd340 O343 2.333 . S
Cd340 O344 2.352 . S
Cd340 O348 2.277 . S
Cd340 O349 2.356 . S
C341 O346 1.209 . S
C341 O348 1.226 . S
O342 Cd338 2.273 . S
O342 Cd340 2.411 . S
O342 C345 1.320 . S
O343 Cd340 2.333 . S
O343 C345 1.214 . S
O344 Cd340 2.352 . S
O344 C347 1.258 . S
C345 O342 1.320 . S
C345 O343 1.214 . S
O346 Cd338 2.277 . S
O346 C341 1.209 . S
C347 O344 1.258 . S
C347 O349 1.282 . S
O348 Cd340 2.277 . S
O348 C341 1.226 . S
O349 Cd340 2.356 . S
O349 C347 1.282 . S
C350 O351 1.306 . S
C350 O353 1.160 . S
O351 C350 1.306 . S
O351 Cd352 2.228 . S
Cd352 O351 2.228 . S
Cd352 O356 2.273 . S
Cd352 O360 2.277 . S
O353 C350 1.160 . S
O353 Cd354 2.203 . S
Cd354 O353 2.203 . S
Cd354 O356 2.411 . S
Cd354 O357 2.333 . S
Cd354 O358 2.352 . S
Cd354 O362 2.277 . S
Cd354 O363 2.356 . S
C355 O360 1.209 . S
C355 O362 1.226 . S
O356 Cd352 2.273 . S
O356 Cd354 2.411 . S
O356 C359 1.320 . S
O357 Cd354 2.333 . S
O357 C359 1.214 . S
O358 Cd354 2.352 . S
O358 C361 1.258 . S
C359 O356 1.320 . S
C359 O357 1.214 . S
O360 Cd352 2.277 . S
O360 C355 1.209 . S
C361 O358 1.258 . S
C361 O363 1.282 . S
O362 Cd354 2.277 . S
O362 C355 1.226 . S
O363 Cd354 2.356 . S
O363 C361 1.282 . S
C364 O365 1.306 . S
C364 O367 1.160 . S
O365 C364 1.306 . S
O365 Cd366 2.228 . S
Cd366 O365 2.228 . S
Cd366 O370 2.273 . S
Cd366 O374 2.277 . S
O367 C364 1.160 . S
O367 Cd368 2.203 . S
Cd368 O367 2.203 . S
Cd368 O370 2.411 . S
Cd368 O371 2.333 . S
Cd368 O372 2.352 . S
Cd368 O376 2.277 . S
Cd368 O377 2.356 . S
C369 O374 1.209 . S
C369 O376 1.226 . S
O370 Cd366 2.273 . S
O370 Cd368 2.411 . S
O370 C373 1.320 . S
O371 Cd368 2.333 . S
O371 C373 1.214 . S
O372 Cd368 2.352 . S
O372 C375 1.258 . S
C373 O370 1.320 . S
C373 O371 1.214 . S
O374 Cd366 2.277 . S
O374 C369 1.209 . S
C375 O372 1.258 . S
C375 O377 1.282 . S
O376 Cd368 2.277 . S
O376 C369 1.226 . S
O377 Cd368 2.356 . S
O377 C375 1.282 . S
C378 O379 1.306 . S
C378 O381 1.160 . S
O379 C378 1.306 . S
O379 Cd380 2.228 . S
Cd380 O379 2.228 . S
Cd380 O384 2.273 . S
Cd380 O388 2.277 . S
O381 C378 1.160 . S
O381 Cd382 2.203 . S
Cd382 O381 2.203 . S
Cd382 O384 2.411 . S
Cd382 O385 2.333 . S
Cd382 O386 2.352 . S
Cd382 O390 2.277 . S
Cd382 O391 2.356 . S
C383 O388 1.209 . S
C383 O390 1.226 . S
O384 Cd380 2.273 . S
O384 Cd382 2.411 . S
O384 C387 1.320 . S
O385 Cd382 2.333 . S
O385 C387 1.214 . S
O386 Cd382 2.352 . S
O386 C389 1.258 . S
C387 O384 1.320 . S
C387 O385 1.214 . S
O388 Cd380 2.277 . S
O388 C383 1.209 . S
C389 O386 1.258 . S
C389 O391 1.282 . S
O390 Cd382 2.277 . S
O390 C383 1.226 . S
O391 Cd382 2.356 . S
O391 C389 1.282 . S
C392 O393 1.306 . S
C392 O395 1.160 . S
O393 C392 1.306 . S
O393 Cd394 2.228 . S
Cd394 O393 2.228 . S
Cd394 O398 2.273 . S
Cd394 O402 2.277 . S
O395 C392 1.160 . S
O395 Cd396 2.203 . S
Cd396 O395 2.203 . S
Cd396 O398 2.411 . S
Cd396 O399 2.333 . S
Cd396 O400 2.352 . S
Cd396 O404 2.277 . S
Cd396 O405 2.356 . S
C397 O402 1.209 . S
C397 O404 1.226 . S
O398 Cd394 2.273 . S
O398 Cd396 2.411 . S
O398 C401 1.320 . S
O399 Cd396 2.333 . S
O399 C401 1.214 . S
O400 Cd396 2.352 . S
O400 C403 1.258 . S
C401 O398 1.320 . S
C401 O399 1.214 . S
O402 Cd394 2.277 . S
O402 C397 1.209 . S
C403 O400 1.258 . S
C403 O405 1.282 . S
O404 Cd396 2.277 . S
O404 C397 1.226 . S
O405 Cd396 2.356 . S
O405 C403 1.282 . S
C406 O407 1.306 . S
C406 O409 1.160 . S
O407 C406 1.306 . S
O407 Cd408 2.228 . S
Cd408 O407 2.228 . S
Cd408 O412 2.273 . S
Cd408 O416 2.277 . S
O409 C406 1.160 . S
O409 Cd410 2.203 . S
Cd410 O409 2.203 . S
Cd410 O412 2.411 . S
Cd410 O413 2.333 . S
Cd410 O414 2.352 . S
Cd410 O418 2.277 . S
Cd410 O419 2.356 . S
C411 O416 1.209 . S
C411 O418 1.226 . S
O412 Cd408 2.273 . S
O412 Cd410 2.411 . S
O412 C415 1.320 . S
O413 Cd410 2.333 . S
O413 C415 1.214 . S
O414 Cd410 2.352 . S
O414 C417 1.258 . S
C415 O412 1.320 . S
C415 O413 1.214 . S
O416 Cd408 2.277 . S
O416 C411 1.209 . S
C417 O414 1.258 . S
C417 O419 1.282 . S
O418 Cd410 2.277 . S
O418 C411 1.226 . S
O419 Cd410 2.356 . S
O419 C417 1.282 . S
C420 O421 1.306 . S
C420 O423 1.160 . S
O421 C420 1.306 . S
O421 Cd422 2.228 . S
Cd422 O421 2.228 . S
Cd422 O426 2.273 . S
Cd422 O430 2.277 . S
O423 C420 1.160 . S
O423 Cd424 2.203 . S
Cd424 O423 2.203 . S
Cd424 O426 2.411 . S
Cd424 O427 2.333 . S
Cd424 O428 2.352 . S
Cd424 O432 2.277 . S
Cd424 O433 2.356 . S
C425 O430 1.209 . S
C425 O432 1.226 . S
O426 Cd422 2.273 . S
O426 Cd424 2.411 . S
O426 C429 1.320 . S
O427 Cd424 2.333 . S
O427 C429 1.214 . S
O428 Cd424 2.352 . S
O428 C431 1.258 . S
C429 O426 1.320 . S
C429 O427 1.214 . S
O430 Cd422 2.277 . S
O430 C425 1.209 . S
C431 O428 1.258 . S
C431 O433 1.282 . S
O432 Cd424 2.277 . S
O432 C425 1.226 . S
O433 Cd424 2.356 . S
O433 C431 1.282 . S
C434 O435 1.306 . S
C434 O437 1.160 . S
O435 C434 1.306 . S
O435 Cd436 2.228 . S
Cd436 O435 2.228 . S
Cd436 O440 2.273 . S
Cd436 O444 2.277 . S
O437 C434 1.160 . S
O437 Cd438 2.203 . S
Cd438 O437 2.203 . S
Cd438 O440 2.411 . S
Cd438 O441 2.333 . S
Cd438 O442 2.352 . S
Cd438 O446 2.277 . S
Cd438 O447 2.356 . S
C439 O444 1.209 . S
C439 O446 1.226 . S
O440 Cd436 2.273 . S
O440 Cd438 2.411 . S
O440 C443 1.320 . S
O441 Cd438 2.333 . S
O441 C443 1.214 . S
O442 Cd438 2.352 . S
O442 C445 1.258 . S
C443 O440 1.320 . S
C443 O441 1.214 . S
O444 Cd436 2.277 . S
O444 C439 1.209 . S
C445 O442 1.258 . S
C445 O447 1.282 . S
O446 Cd438 2.277 . S
O446 C439 1.226 . S
O447 Cd438 2.356 . S
O447 C445 1.282 . S
C448 O449 1.306 . S
C448 O451 1.160 . S
O449 C448 1.306 . S
O449 Cd450 2.228 . S
Cd450 O449 2.228 . S
Cd450 O454 2.273 . S
Cd450 O458 2.277 . S
O451 C448 1.160 . S
O451 Cd452 2.203 . S
Cd452 O451 2.203 . S
Cd452 O454 2.411 . S
Cd452 O455 2.333 . S
Cd452 O456 2.352 . S
Cd452 O460 2.277 . S
Cd452 O461 2.356 . S
C453 O458 1.209 . S
C453 O460 1.226 . S
O454 Cd450 2.273 . S
O454 Cd452 2.411 . S
O454 C457 1.320 . S
O455 Cd452 2.333 . S
O455 C457 1.214 . S
O456 Cd452 2.352 . S
O456 C459 1.258 . S
C457 O454 1.320 . S
C457 O455 1.214 . S
O458 Cd450 2.277 . S
O458 C453 1.209 . S
C459 O456 1.258 . S
C459 O461 1.282 . S
O460 Cd452 2.277 . S
O460 C453 1.226 . S
O461 Cd452 2.356 . S
O461 C459 1.282 . S
C462 O463 1.306 . S
C462 O465 1.160 . S
O463 C462 1.306 . S
O463 Cd464 2.228 . S
Cd464 O463 2.228 . S
Cd464 O468 2.273 . S
Cd464 O472 2.277 . S
O465 C462 1.160 . S
O465 Cd466 2.203 . S
Cd466 O465 2.203 . S
Cd466 O468 2.411 . S
Cd466 O469 2.333 . S
Cd466 O470 2.352 . S
Cd466 O474 2.277 . S
Cd466 O475 2.356 . S
C467 O472 1.209 . S
C467 O474 1.226 . S
O468 Cd464 2.273 . S
O468 Cd466 2.411 . S
O468 C471 1.320 . S
O469 Cd466 2.333 . S
O469 C471 1.214 . S
O470 Cd466 2.352 . S
O470 C473 1.258 . S
C471 O468 1.320 . S
C471 O469 1.214 . S
O472 Cd464 2.277 . S
O472 C467 1.209 . S
C473 O470 1.258 . S
C473 O475 1.282 . S
O474 Cd466 2.277 . S
O474 C467 1.226 . S
O475 Cd466 2.356 . S
O475 C473 1.282 . S
C476 O477 1.306 . S
C476 O479 1.160 . S
O477 C476 1.306 . S
O477 Cd478 2.228 . S
Cd478 O477 2.228 . S
Cd478 O482 2.273 . S
Cd478 O486 2.277 . S
O479 C476 1.160 . S
O479 Cd480 2.203 . S
Cd480 O479 2.203 . S
Cd480 O482 2.411 . S
Cd480 O483 2.333 . S
Cd480 O484 2.352 . S
Cd480 O488 2.277 . S
Cd480 O489 2.356 . S
C481 O486 1.209 . S
C481 O488 1.226 . S
O482 Cd478 2.273 . S
O482 Cd480 2.411 . S
O482 C485 1.320 . S
O483 Cd480 2.333 . S
O483 C485 1.214 . S
O484 Cd480 2.352 . S
O484 C487 1.258 . S
C485 O482 1.320 . S
C485 O483 1.214 . S
O486 Cd478 2.277 . S
O486 C481 1.209 . S
C487 O484 1.258 . S
C487 O489 1.282 . S
O488 Cd480 2.277 . S
O488 C481 1.226 . S
O489 Cd480 2.356 . S
O489 C487 1.282 . S
C490 O491 1.306 . S
C490 O493 1.160 . S
O491 C490 1.306 . S
O491 Cd492 2.228 . S
Cd492 O491 2.228 . S
Cd492 O496 2.273 . S
Cd492 O500 2.277 . S
O493 C490 1.160 . S
O493 Cd494 2.203 . S
Cd494 O493 2.203 . S
Cd494 O496 2.411 . S
Cd494 O497 2.333 . S
Cd494 O498 2.352 . S
Cd494 O502 2.277 . S
Cd494 O503 2.356 . S
C495 O500 1.209 . S
C495 O502 1.226 . S
O496 Cd492 2.273 . S
O496 Cd494 2.411 . S
O496 C499 1.320 . S
O497 Cd494 2.333 . S
O497 C499 1.214 . S
O498 Cd494 2.352 . S
O498 C501 1.258 . S
C499 O496 1.320 . S
C499 O497 1.214 . S
O500 Cd492 2.277 . S
O500 C495 1.209 . S
C501 O498 1.258 . S
C501 O503 1.282 . S
O502 Cd494 2.277 . S
O502 C495 1.226 . S
O503 Cd494 2.356 . S
O503 C501 1.282 . S
C504 O505 1.306 . S
C504 O507 1.160 . S
O505 C504 1.306 . S
O505 Cd506 2.228 . S
Cd506 O505 2.228 . S
Cd506 O510 2.273 . S
Cd506 O514 2.277 . S
O507 C504 1.160 . S
O507 Cd508 2.203 . S
Cd508 O507 2.203 . S
Cd508 O510 2.411 . S
Cd508 O511 2.333 . S
Cd508 O512 2.352 . S
Cd508 O516 2.277 . S
Cd508 O517 2.356 . S
C509 O514 1.209 . S
C509 O516 1.226 . S
O510 Cd506 2.273 . S
O510 Cd508 2.411 . S
O510 C513 1.320 . S
O511 Cd508 2.333 . S
O511 C513 1.214 . S
O512 Cd508 2.352 . S
O512 C515 1.258 . S
C513 O510 1.320 . S
C513 O511 1.214 . S
O514 Cd506 2.277 . S
O514 C509 1.209 . S
C515 O512 1.258 . S
C515 O517 1.282 . S
O516 Cd508 2.277 . S
O516 C509 1.226 . S
O517 Cd508 2.356 . S
O517 C515 1.282 . S
C518 O519 1.306 . S
C518 O521 1.160 . S
O519 C518 1.306 . S
O519 Cd520 2.228 . S
Cd520 O519 2.228 . S
Cd520 O524 2.273 . S
Cd520 O528 2.277 . S
O521 C518 1.160 . S
O521 Cd522 2.203 . S
Cd522 O521 2.203 . S
Cd522 O524 2.411 . S
Cd522 O525 2.333 . S
Cd522 O526 2.352 . S
Cd522 O530 2.277 . S
Cd522 O531 2.356 . S
C523 O528 1.209 . S
C523 O530 1.226 . S
O524 Cd520 2.273 . S
O524 Cd522 2.411 . S
O524 C527 1.320 . S
O525 Cd522 2.333 . S
O525 C527 1.214 . S
O526 Cd522 2.352 . S
O526 C529 1.258 . S
C527 O524 1.320 . S
C527 O525 1.214 . S
O528 Cd520 2.277 . S
O528 C523 1.209 . S
C529 O526 1.258 . S
C529 O531 1.282 . S
O530 Cd522 2.277 . S
O530 C523 1.226 . S
O531 Cd522 2.356 . S
O531 C529 1.282 . S
C532 O533 1.306 . S
C532 O535 1.160 . S
O533 C532 1.306 . S
O533 Cd534 2.228 . S
Cd534 O533 2.228 . S
Cd534 O538 2.273 . S
Cd534 O542 2.277 . S
O535 C532 1.160 . S
O535 Cd536 2.203 . S
Cd536 O535 2.203 . S
Cd536 O538 2.411 . S
Cd536 O539 2.333 . S
Cd536 O540 2.352 . S
Cd536 O544 2.277 . S
Cd536 O545 2.356 . S
C537 O542 1.209 . S
C537 O544 1.226 . S
O538 Cd534 2.273 . S
O538 Cd536 2.411 . S
O538 C541 1.320 . S
O539 Cd536 2.333 . S
O539 C541 1.214 . S
O540 Cd536 2.352 . S
O540 C543 1.258 . S
C541 O538 1.320 . S
C541 O539 1.214 . S
O542 Cd534 2.277 . S
O542 C537 1.209 . S
C543 O540 1.258 . S
C543 O545 1.282 . S
O544 Cd536 2.277 . S
O544 C537 1.226 . S
O545 Cd536 2.356 . S
O545 C543 1.282 . S
C546 O547 1.306 . S
C546 O549 1.160 . S
O547 C546 1.306 . S
O547 Cd548 2.228 . S
Cd548 O547 2.228 . S
Cd548 O552 2.273 . S
Cd548 O556 2.277 . S
O549 C546 1.160 . S
O549 Cd550 2.203 . S
Cd550 O549 2.203 . S
Cd550 O552 2.411 . S
Cd550 O553 2.333 . S
Cd550 O554 2.352 . S
Cd550 O558 2.277 . S
Cd550 O559 2.356 . S
C551 O556 1.209 . S
C551 O558 1.226 . S
O552 Cd548 2.273 . S
O552 Cd550 2.411 . S
O552 C555 1.320 . S
O553 Cd550 2.333 . S
O553 C555 1.214 . S
O554 Cd550 2.352 . S
O554 C557 1.258 . S
C555 O552 1.320 . S
C555 O553 1.214 . S
O556 Cd548 2.277 . S
O556 C551 1.209 . S
C557 O554 1.258 . S
C557 O559 1.282 . S
O558 Cd550 2.277 . S
O558 C551 1.226 . S
O559 Cd550 2.356 . S
O559 C557 1.282 . S
C560 O561 1.306 . S
C560 O563 1.160 . S
O561 C560 1.306 . S
O561 Cd562 2.228 . S
Cd562 O561 2.228 . S
Cd562 O566 2.273 . S
Cd562 O570 2.277 . S
O563 C560 1.160 . S
O563 Cd564 2.203 . S
Cd564 O563 2.203 . S
Cd564 O566 2.411 . S
Cd564 O567 2.333 . S
Cd564 O568 2.352 . S
Cd564 O572 2.277 . S
Cd564 O573 2.356 . S
C565 O570 1.209 . S
C565 O572 1.226 . S
O566 Cd562 2.273 . S
O566 Cd564 2.411 . S
O566 C569 1.320 . S
O567 Cd564 2.333 . S
O567 C569 1.214 . S
O568 Cd564 2.352 . S
O568 C571 1.258 . S
C569 O566 1.320 . S
C569 O567 1.214 . S
O570 Cd562 2.277 . S
O570 C565 1.209 . S
C571 O568 1.258 . S
C571 O573 1.282 . S
O572 Cd564 2.277 . S
O572 C565 1.226 . S
O573 Cd564 2.356 . S
O573 C571 1.282 . S
C574 O575 1.306 . S
C574 O577 1.160 . S
O575 C574 1.306 . S
O575 Cd576 2.228 . S
Cd576 O575 2.228 . S
Cd576 O580 2.273 . S
Cd576 O584 2.277 . S
O577 C574 1.160 . S
O577 Cd578 2.203 . S
Cd578 O577 2.203 . S
Cd578 O580 2.411 . S
Cd578 O581 2.333 . S
Cd578 O582 2.352 . S
Cd578 O586 2.277 . S
Cd578 O587 2.356 . S
C579 O584 1.209 . S
C579 O586 1.226 . S
O580 Cd576 2.273 . S
O580 Cd578 2.411 . S
O580 C583 1.320 . S
O581 Cd578 2.333 . S
O581 C583 1.214 . S
O582 Cd578 2.352 . S
O582 C585 1.258 . S
C583 O580 1.320 . S
C583 O581 1.214 . S
O584 Cd576 2.277 . S
O584 C579 1.209 . S
C585 O582 1.258 . S
C585 O587 1.282 . S
O586 Cd578 2.277 . S
O586 C579 1.226 . S
O587 Cd578 2.356 . S
O587 C585 1.282 . S
C588 O589 1.306 . S
C588 O591 1.160 . S
O589 C588 1.306 . S
O589 Cd590 2.228 . S
Cd590 O589 2.228 . S
Cd590 O594 2.273 . S
Cd590 O598 2.277 . S
O591 C588 1.160 . S
O591 Cd592 2.203 . S
Cd592 O591 2.203 . S
Cd592 O594 2.411 . S
Cd592 O595 2.333 . S
Cd592 O596 2.352 . S
Cd592 O600 2.277 . S
Cd592 O601 2.356 . S
C593 O598 1.209 . S
C593 O600 1.226 . S
O594 Cd590 2.273 . S
O594 Cd592 2.411 . S
O594 C597 1.320 . S
O595 Cd592 2.333 . S
O595 C597 1.214 . S
O596 Cd592 2.352 . S
O596 C599 1.258 . S
C597 O594 1.320 . S
C597 O595 1.214 . S
O598 Cd590 2.277 . S
O598 C593 1.209 . S
C599 O596 1.258 . S
C599 O601 1.282 . S
O600 Cd592 2.277 . S
O600 C593 1.226 . S
O601 Cd592 2.356 . S
O601 C599 1.282 . S
C602 O603 1.306 . S
C602 O605 1.160 . S
O603 C602 1.306 . S
O603 Cd604 2.228 . S
Cd604 O603 2.228 . S
Cd604 O608 2.273 . S
Cd604 O612 2.277 . S
O605 C602 1.160 . S
O605 Cd606 2.203 . S
Cd606 O605 2.203 . S
Cd606 O608 2.411 . S
Cd606 O609 2.333 . S
Cd606 O610 2.352 . S
Cd606 O614 2.277 . S
Cd606 O615 2.356 . S
C607 O612 1.209 . S
C607 O614 1.226 . S
O608 Cd604 2.273 . S
O608 Cd606 2.411 . S
O608 C611 1.320 . S
O609 Cd606 2.333 . S
O609 C611 1.214 . S
O610 Cd606 2.352 . S
O610 C613 1.258 . S
C611 O608 1.320 . S
C611 O609 1.214 . S
O612 Cd604 2.277 . S
O612 C607 1.209 . S
C613 O610 1.258 . S
C613 O615 1.282 . S
O614 Cd606 2.277 . S
O614 C607 1.226 . S
O615 Cd606 2.356 . S
O615 C613 1.282 . S
C616 O617 1.306 . S
C616 O619 1.160 . S
O617 C616 1.306 . S
O617 Cd618 2.228 . S
Cd618 O617 2.228 . S
Cd618 O622 2.273 . S
Cd618 O626 2.277 . S
O619 C616 1.160 . S
O619 Cd620 2.203 . S
Cd620 O619 2.203 . S
Cd620 O622 2.411 . S
Cd620 O623 2.333 . S
Cd620 O624 2.352 . S
Cd620 O628 2.277 . S
Cd620 O629 2.356 . S
C621 O626 1.209 . S
C621 O628 1.226 . S
O622 Cd618 2.273 . S
O622 Cd620 2.411 . S
O622 C625 1.320 . S
O623 Cd620 2.333 . S
O623 C625 1.214 . S
O624 Cd620 2.352 . S
O624 C627 1.258 . S
C625 O622 1.320 . S
C625 O623 1.214 . S
O626 Cd618 2.277 . S
O626 C621 1.209 . S
C627 O624 1.258 . S
C627 O629 1.282 . S
O628 Cd620 2.277 . S
O628 C621 1.226 . S
O629 Cd620 2.356 . S
O629 C627 1.282 . S
C630 O631 1.306 . S
C630 O633 1.160 . S
O631 C630 1.306 . S
O631 Cd632 2.228 . S
Cd632 O631 2.228 . S
Cd632 O636 2.273 . S
Cd632 O640 2.277 . S
O633 C630 1.160 . S
O633 Cd634 2.203 . S
Cd634 O633 2.203 . S
Cd634 O636 2.411 . S
Cd634 O637 2.333 . S
Cd634 O638 2.352 . S
Cd634 O642 2.277 . S
Cd634 O643 2.356 . S
C635 O640 1.209 . S
C635 O642 1.226 . S
O636 Cd632 2.273 . S
O636 Cd634 2.411 . S
O636 C639 1.320 . S
O637 Cd634 2.333 . S
O637 C639 1.214 . S
O638 Cd634 2.352 . S
O638 C641 1.258 . S
C639 O636 1.320 . S
C639 O637 1.214 . S
O640 Cd632 2.277 . S
O640 C635 1.209 . S
C641 O638 1.258 . S
C641 O643 1.282 . S
O642 Cd634 2.277 . S
O642 C635 1.226 . S
O643 Cd634 2.356 . S
O643 C641 1.282 . S
C644 O645 1.306 . S
C644 O647 1.160 . S
O645 C644 1.306 . S
O645 Cd646 2.228 . S
Cd646 O645 2.228 . S
Cd646 O650 2.273 . S
Cd646 O654 2.277 . S
O647 C644 1.160 . S
O647 Cd648 2.203 . S
Cd648 O647 2.203 . S
Cd648 O650 2.411 . S
Cd648 O651 2.333 . S
Cd648 O652 2.352 . S
Cd648 O656 2.277 . S
Cd648 O657 2.356 . S
C649 O654 1.209 . S
C649 O656 1.226 . S
O650 Cd646 2.273 . S
O650 Cd648 2.411 . S
O650 C653 1.320 . S
O651 Cd648 2.333 . S
O651 C653 1.214 . S
O652 Cd648 2.352 . S
O652 C655 1.258 . S
C653 O650 1.320 . S
C653 O651 1.214 . S
O654 Cd646 2.277 . S
O654 C649 1.209 . S
C655 O652 1.258 . S
C655 O657 1.282 . S
O656 Cd648 2.277 . S
O656 C649 1.226 . S
O657 Cd648 2.356 . S
O657 C655 1.282 . S
C658 O659 1.306 . S
C658 O661 1.160 . S
O659 C658 1.306 . S
O659 Cd660 2.228 . S
Cd660 O659 2.228 . S
Cd660 O664 2.273 . S
Cd660 O668 2.277 . S
O661 C658 1.160 . S
O661 Cd662 2.203 . S
Cd662 O661 2.203 . S
Cd662 O664 2.411 . S
Cd662 O665 2.333 . S
Cd662 O666 2.352 . S
Cd662 O670 2.277 . S
Cd662 O671 2.356 . S
C663 O668 1.209 . S
C663 O670 1.226 . S
O664 Cd660 2.273 . S
O664 Cd662 2.411 . S
O664 C667 1.320 . S
O665 Cd662 2.333 . S
O665 C667 1.214 . S
O666 Cd662 2.352 . S
O666 C669 1.258 . S
C667 O664 1.320 . S
C667 O665 1.214 . S
O668 Cd660 2.277 . S
O668 C663 1.209 . S
C669 O666 1.258 . S
C669 O671 1.282 . S
O670 Cd662 2.277 . S
O670 C663 1.226 . S
O671 Cd662 2.356 . S
O671 C669 1.282 . S
C403 C11 1.193 1_655 S
C25 C417 1.193 . S
C431 C39 1.193 1_455 S
C53 C445 1.193 . S
C347 C67 1.193 1_655 S
C81 C361 1.193 . S
C375 C95 1.193 1_455 S
C109 C389 1.193 . S
C543 C123 1.193 1_565 S
C557 C137 1.193 . S
C515 C151 1.193 1_545 S
C165 C529 1.193 . S
C487 C179 1.193 1_545 S
C501 C193 1.193 . S
C207 C459 1.193 1_545 S
C473 C221 1.193 . S
C235 C641 1.193 1_554 S
C613 C249 1.193 1_554 S
C627 C263 1.193 . S
C585 C277 1.193 1_554 S
C599 C291 1.193 . S
C305 C571 1.193 1_554 S
C319 C669 1.193 . S
C655 C333 1.193 . S
C107 C9 1.987 . S
C65 C23 1.987 . S
C79 C37 1.987 . S
C93 C51 1.987 . S
C289 C121 1.987 . S
C247 C135 1.987 . S
C261 C149 1.987 . S
C275 C163 1.987 . S
C331 C177 1.987 . S
C303 C191 1.987 . S
C205 C317 1.987 . S
C233 C219 1.987 . S
C443 C345 1.987 . S
C401 C359 1.987 . S
C373 C415 1.987 . S
C387 C429 1.987 . S
C457 C625 1.987 . S
C471 C583 1.987 . S
C597 C485 1.987 . S
C611 C499 1.987 . S
C667 C513 1.987 . S
C639 C527 1.987 . S
C653 C541 1.987 . S
C555 C569 1.987 . S
C0 C117 1.477 . S
C131 C14 1.477 . S
C145 C28 1.477 . S
C159 C42 1.477 . S
C56 C173 1.477 . S
C187 C70 1.477 . S
C84 C201 1.477 . S
C215 C98 1.477 . S
C229 C112 1.477 . S
C327 C126 1.477 . S
C140 C299 1.477 . S
C154 C313 1.477 . S
C168 C243 1.477 . S
C182 C257 1.477 . S
C196 C271 1.477 . S
C210 C285 1.477 . S
C224 C5 1.477 . S
C238 C61 1.477 . S
C252 C75 1.477 . S
C266 C89 1.477 . S
C280 C103 1.477 . S
C294 C33 1.477 . S
C47 C308 1.477 . S
C19 C322 1.477 . S
C453 C336 1.477 . S
C467 C350 1.477 . S
C481 C364 1.477 . S
C495 C378 1.477 . S
C509 C392 1.477 . S
C406 C523 1.477 . S
C537 C420 1.477 . S
C434 C551 1.477 . S
C565 C448 1.477 . S
C462 C663 1.477 . S
C476 C635 1.477 . S
C649 C490 1.477 . S
C579 C504 1.477 . S
C518 C593 1.477 . S
C532 C607 1.477 . S
C621 C546 1.477 . S
C341 C560 1.477 . S
C397 C574 1.477 . S
C411 C588 1.477 . S
C602 C425 1.477 . S
C439 C616 1.477 . S
C369 C630 1.477 . S
C644 C383 1.477 . S
C355 C658 1.477 . S
