# Generated by pormake.
# Topology wip, (6)-cn, num edge types: 1
# Building blocks:
#     Node 0, Type 0, BuildingBlock: CIFDUS_clean_sbu_1, # of connection points: 6
#     Node 1, Type 0, BuildingBlock: CIFDUS_clean_sbu_1, # of connection points: 6
#     Node 2, Type 0, BuildingBlock: CIFDUS_clean_sbu_1, # of connection points: 6
#     Node 3, Type 0, BuildingBlock: CIFDUS_clean_sbu_1, # of connection points: 6
#     Node 4, Type 0, BuildingBlock: CIFDUS_clean_sbu_1, # of connection points: 6
#     Node 5, Type 0, BuildingBlock: CIFDUS_clean_sbu_1, # of connection points: 6
#     Node 6, Type 0, BuildingBlock: CIFDUS_clean_sbu_1, # of connection points: 6
#     Node 7, Type 0, BuildingBlock: CIFDUS_clean_sbu_1, # of connection points: 6
#     Node 8, Type 0, BuildingBlock: CIFDUS_clean_sbu_1, # of connection points: 6
#     Node 9, Type 0, BuildingBlock: CIFDUS_clean_sbu_1, # of connection points: 6
#     Node 10, Type 0, BuildingBlock: CIFDUS_clean_sbu_1, # of connection points: 6
#     Node 11, Type 0, BuildingBlock: CIFDUS_clean_sbu_1, # of connection points: 6
#     Node 12, Type 0, BuildingBlock: CIFDUS_clean_sbu_1, # of connection points: 6
#     Node 13, Type 0, BuildingBlock: CIFDUS_clean_sbu_1, # of connection points: 6
#     Node 14, Type 0, BuildingBlock: CIFDUS_clean_sbu_1, # of connection points: 6
#     Node 15, Type 0, BuildingBlock: CIFDUS_clean_sbu_1, # of connection points: 6
#     Node 16, Type 0, BuildingBlock: CIFDUS_clean_sbu_1, # of connection points: 6
#     Node 17, Type 0, BuildingBlock: CIFDUS_clean_sbu_1, # of connection points: 6
#     Node 18, Type 0, BuildingBlock: CIFDUS_clean_sbu_1, # of connection points: 6
#     Node 19, Type 0, BuildingBlock: CIFDUS_clean_sbu_1, # of connection points: 6
#     Node 20, Type 0, BuildingBlock: CIFDUS_clean_sbu_1, # of connection points: 6
#     Node 21, Type 0, BuildingBlock: CIFDUS_clean_sbu_1, # of connection points: 6
#     Node 22, Type 0, BuildingBlock: CIFDUS_clean_sbu_1, # of connection points: 6
#     Node 23, Type 0, BuildingBlock: CIFDUS_clean_sbu_1, # of connection points: 6
#     Node 24, Type 0, BuildingBlock: CIFDUS_clean_sbu_1, # of connection points: 6
#     Node 25, Type 0, BuildingBlock: CIFDUS_clean_sbu_1, # of connection points: 6
#     Node 26, Type 0, BuildingBlock: CIFDUS_clean_sbu_1, # of connection points: 6
#     Node 27, Type 0, BuildingBlock: CIFDUS_clean_sbu_1, # of connection points: 6
#     Node 28, Type 0, BuildingBlock: CIFDUS_clean_sbu_1, # of connection points: 6
#     Node 29, Type 0, BuildingBlock: CIFDUS_clean_sbu_1, # of connection points: 6
#     Node 30, Type 0, BuildingBlock: CIFDUS_clean_sbu_1, # of connection points: 6
#     Node 31, Type 0, BuildingBlock: CIFDUS_clean_sbu_1, # of connection points: 6
#     Edge 32, Type (0, 0), None
#     Edge 33, Type (0, 0), None
#     Edge 34, Type (0, 0), None
#     Edge 35, Type (0, 0), None
#     Edge 36, Type (0, 0), None
#     Edge 37, Type (0, 0), None
#     Edge 38, Type (0, 0), None
#     Edge 39, Type (0, 0), None
#     Edge 40, Type (0, 0), None
#     Edge 41, Type (0, 0), None
#     Edge 42, Type (0, 0), None
#     Edge 43, Type (0, 0), None
#     Edge 44, Type (0, 0), None
#     Edge 45, Type (0, 0), None
#     Edge 46, Type (0, 0), None
#     Edge 47, Type (0, 0), None
#     Edge 48, Type (0, 0), None
#     Edge 49, Type (0, 0), None
#     Edge 50, Type (0, 0), None
#     Edge 51, Type (0, 0), None
#     Edge 52, Type (0, 0), None
#     Edge 53, Type (0, 0), None
#     Edge 54, Type (0, 0), None
#     Edge 55, Type (0, 0), None
#     Edge 56, Type (0, 0), None
#     Edge 57, Type (0, 0), None
#     Edge 58, Type (0, 0), None
#     Edge 59, Type (0, 0), None
#     Edge 60, Type (0, 0), None
#     Edge 61, Type (0, 0), None
#     Edge 62, Type (0, 0), None
#     Edge 63, Type (0, 0), None
#     Edge 64, Type (0, 0), None
#     Edge 65, Type (0, 0), None
#     Edge 66, Type (0, 0), None
#     Edge 67, Type (0, 0), None
#     Edge 68, Type (0, 0), None
#     Edge 69, Type (0, 0), None
#     Edge 70, Type (0, 0), None
#     Edge 71, Type (0, 0), None
#     Edge 72, Type (0, 0), None
#     Edge 73, Type (0, 0), None
#     Edge 74, Type (0, 0), None
#     Edge 75, Type (0, 0), None
#     Edge 76, Type (0, 0), None
#     Edge 77, Type (0, 0), None
#     Edge 78, Type (0, 0), None
#     Edge 79, Type (0, 0), None
#     Edge 80, Type (0, 0), None
#     Edge 81, Type (0, 0), None
#     Edge 82, Type (0, 0), None
#     Edge 83, Type (0, 0), None
#     Edge 84, Type (0, 0), None
#     Edge 85, Type (0, 0), None
#     Edge 86, Type (0, 0), None
#     Edge 87, Type (0, 0), None
#     Edge 88, Type (0, 0), None
#     Edge 89, Type (0, 0), None
#     Edge 90, Type (0, 0), None
#     Edge 91, Type (0, 0), None
#     Edge 92, Type (0, 0), None
#     Edge 93, Type (0, 0), None
#     Edge 94, Type (0, 0), None
#     Edge 95, Type (0, 0), None
#     Edge 96, Type (0, 0), None
#     Edge 97, Type (0, 0), None
#     Edge 98, Type (0, 0), None
#     Edge 99, Type (0, 0), None
#     Edge 100, Type (0, 0), None
#     Edge 101, Type (0, 0), None
#     Edge 102, Type (0, 0), None
#     Edge 103, Type (0, 0), None
#     Edge 104, Type (0, 0), None
#     Edge 105, Type (0, 0), None
#     Edge 106, Type (0, 0), None
#     Edge 107, Type (0, 0), None
#     Edge 108, Type (0, 0), None
#     Edge 109, Type (0, 0), None
#     Edge 110, Type (0, 0), None
#     Edge 111, Type (0, 0), None
#     Edge 112, Type (0, 0), None
#     Edge 113, Type (0, 0), None
#     Edge 114, Type (0, 0), None
#     Edge 115, Type (0, 0), None
#     Edge 116, Type (0, 0), None
#     Edge 117, Type (0, 0), None
#     Edge 118, Type (0, 0), None
#     Edge 119, Type (0, 0), None
#     Edge 120, Type (0, 0), None
#     Edge 121, Type (0, 0), None
#     Edge 122, Type (0, 0), None
#     Edge 123, Type (0, 0), None
#     Edge 124, Type (0, 0), None
#     Edge 125, Type (0, 0), None
#     Edge 126, Type (0, 0), None
#     Edge 127, Type (0, 0), None
# Relax obj value: 0.533
# Max RMSD: 0.243
# Mean RMSD: 0.242
data_MOF--net-wip--node1-CIFDUS_clean_sbu_1--edge1-none
_symmetry_space_group_name_H-M    P1
_symmetry_Int_Tables_number       1
_symmetry_cell_setting            triclinic
loop_
_symmetry_equiv_pos_as_xyz
'x, y, z'
_cell_length_a     34.089657
_cell_length_b     34.098746
_cell_length_c     10.624319
_cell_angle_alpha  90.002496
_cell_angle_beta   90.000205
_cell_angle_gamma 90.000327
loop_
_atom_site_label
_atom_site_type_symbol
_atom_site_fract_x
_atom_site_fract_y
_atom_site_fract_z
_atom_type_partial_charge
O0 O 0.01511 0.39204 0.28598 0.0
Mn1 Mn 0.05139 0.42995 0.15476 0.0
O2 O 0.96071 0.42713 0.28187 0.0
Mn3 Mn -0.00458 0.46667 0.31455 0.0
O4 O 0.08026 0.46864 1.02799 0.0
O5 O 0.08757 0.39061 0.13289 0.0
Mn6 Mn 0.09552 0.38071 0.96736 0.0
O7 O 0.01534 0.40713 1.03 0.0
O8 O 0.10994 0.43217 0.88648 0.0
O9 O 0.09124 0.45574 0.27292 0.0
O10 O 0.04361 0.44852 0.38707 0.0
O11 O 0.12737 0.34969 0.09119 0.0
O12 O 0.0432 0.36377 0.90556 0.0
C13 C 0.01168 0.5057 0.17124 0.0
C14 C 0.97677 0.39464 0.30448 0.0
C15 C 0.10033 0.46718 0.92645 0.0
C16 C 0.11082 0.36711 0.18546 0.0
C17 C 0.01196 0.38153 0.94533 0.0
C18 C 0.07514 0.46597 0.37124 0.0
O19 O 0.01256 0.46919 0.16427 0.0
O20 O -0.01125 0.51764 0.25772 0.0
O21 O 0.83131 0.76522 0.53603 0.0
Mn22 Mn 0.79339 0.80149 0.40482 0.0
O23 O 0.79623 0.71083 0.53189 0.0
Mn24 Mn 0.75666 0.74552 0.56458 0.0
O25 O 0.75468 0.83035 0.27805 0.0
O26 O 0.83274 0.83768 0.38296 0.0
Mn27 Mn 0.84262 0.84563 0.21742 0.0
O28 O 0.81621 0.76546 0.28004 0.0
O29 O 0.79115 0.86002 0.13652 0.0
O30 O 0.76759 0.84133 0.52299 0.0
O31 O 0.77482 0.7937 0.63712 0.0
O32 O 0.87362 0.87751 0.34122 0.0
O33 O 0.85959 0.79332 0.15562 0.0
C34 C 0.71762 0.76178 0.42126 0.0
C35 C 0.82872 0.72689 0.55452 0.0
C36 C 0.75613 0.85041 0.17649 0.0
C37 C 0.85622 0.86095 0.43551 0.0
C38 C 0.84182 0.76208 0.19537 0.0
C39 C 0.75736 0.82522 0.62129 0.0
O40 O 0.75414 0.76267 0.41431 0.0
O41 O 0.70568 0.73884 0.50773 0.0
O42 O 0.45809 0.58143 0.78604 0.0
Mn43 Mn 0.42181 0.54353 0.65481 0.0
O44 O 0.51248 0.54635 0.78192 0.0
Mn45 Mn 0.47778 0.5068 0.8146 0.0
O46 O 0.39294 0.50484 0.52804 0.0
O47 O 0.38562 0.58287 0.63293 0.0
Mn48 Mn 0.37768 0.59276 0.4674 0.0
O49 O 0.45786 0.56634 0.53006 0.0
O50 O 0.36326 0.54131 0.38651 0.0
O51 O 0.38195 0.51774 0.77297 0.0
O52 O 0.42959 0.52496 0.88713 0.0
O53 O 0.34581 0.62378 0.5912 0.0
O54 O 0.43 0.60971 0.40561 0.0
C55 C 0.46151 0.46777 0.67127 0.0
C56 C 0.49643 0.57884 0.80455 0.0
C57 C 0.37287 0.50629 0.42649 0.0
C58 C 0.36236 0.60636 0.68548 0.0
C59 C 0.46124 0.59194 0.44539 0.0
C60 C 0.39805 0.50751 0.87129 0.0
O61 O 0.46063 0.50429 0.66433 0.0
O62 O 0.48445 0.45583 0.75775 0.0
O63 O 0.65698 0.20805 0.78001 0.0
Mn64 Mn 0.67979 0.17202 0.90479 0.0
O65 O 0.61359 0.18019 0.65561 0.0
Mn66 Mn 0.63055 0.12788 0.71739 0.0
O67 O 0.70558 0.13217 1.02296 0.0
O68 O 0.71905 0.21083 0.91428 0.0
Mn69 Mn 0.71653 0.22798 0.06455 0.0
O70 O 0.64188 0.2083 1.036 0.0
O71 O 0.69837 0.17981 0.13709 0.0
O72 O 0.71849 0.14315 0.77802 0.0
O73 O 0.68201 0.11349 0.63647 0.0
O74 O 0.76752 0.23464 1.00771 0.0
O75 O 0.67698 0.26268 1.03185 0.0
C76 C 0.61697 0.11255 0.93548 0.0
C77 C 0.63136 0.21143 0.69534 0.0
C78 C 0.71582 0.14828 0.12126 0.0
C79 C 0.75557 0.2117 0.92124 0.0
C80 C 0.64448 0.24663 1.05449 0.0
C81 C 0.71704 0.12309 0.67645 0.0
O82 O 0.64043 0.13584 0.88294 0.0
O83 O 0.59956 0.09599 0.84119 0.0
O84 O 0.01513 0.5814 0.48112 0.0
Mn85 Mn 0.05141 0.54349 0.61233 0.0
O86 O 0.96073 0.54632 0.48524 0.0
Mn87 Mn -0.00457 0.50678 0.45247 0.0
O88 O 0.08028 0.50479 0.73907 0.0
O89 O 0.0876 0.58284 0.63422 0.0
Mn90 Mn 0.09555 0.59273 0.79975 0.0
O91 O 0.01537 0.56631 0.73714 0.0
O92 O 0.10994 0.54127 0.88065 0.0
O93 O 0.09126 0.51771 0.49415 0.0
O94 O 0.0436 0.52494 0.37981 0.0
O95 O 0.12743 0.62374 0.67595 0.0
O96 O 0.04323 0.6097 0.8615 0.0
C97 C 0.01172 0.46773 0.59575 0.0
C98 C 0.97679 0.57881 0.46263 0.0
C99 C 0.10032 0.50626 0.84067 0.0
C100 C 0.11087 0.60633 0.58167 0.0
C101 C 0.01199 0.59193 0.82177 0.0
C102 C 0.07515 0.50753 0.39582 0.0
O103 O 0.0126 0.50425 0.60272 0.0
O104 O -0.01123 0.4558 0.50927 0.0
O105 O 0.65699 0.76546 0.98714 0.0
Mn106 Mn 0.6798 0.80149 0.86234 0.0
O107 O 0.61358 0.79331 0.11148 0.0
Mn108 Mn 0.63055 0.84562 1.04973 0.0
O109 O 0.70559 0.84133 0.74416 0.0
O110 O 0.71907 0.76269 0.85275 0.0
Mn111 Mn 0.71653 0.74552 0.70249 0.0
O112 O 0.64189 0.76521 0.73112 0.0
O113 O 0.69836 0.79368 0.62983 0.0
O114 O 0.71851 0.83036 0.9891 0.0
O115 O 0.68202 0.86001 0.13067 0.0
O116 O 0.76753 0.73887 0.7593 0.0
O117 O 0.67698 0.71083 0.73526 0.0
C118 C 0.61696 0.86095 0.83165 0.0
C119 C 0.63136 0.76208 0.07177 0.0
C120 C 0.71578 0.82522 0.64585 0.0
C121 C 0.75559 0.76181 0.84578 0.0
C122 C 0.64449 0.72688 0.71264 0.0
C123 C 0.71704 0.8504 0.0907 0.0
O124 O 0.64044 0.83767 0.88419 0.0
O125 O 0.59955 0.8775 0.92593 0.0
O126 O 0.45807 0.39207 0.98115 0.0
Mn127 Mn 0.42179 0.42998 0.11236 0.0
O128 O 0.51247 0.42715 0.98527 0.0
Mn129 Mn 0.47777 0.46669 0.9525 0.0
O130 O 0.39292 0.46868 0.23912 0.0
O131 O 0.3856 0.39064 0.13426 0.0
Mn132 Mn 0.37764 0.38075 0.29978 0.0
O133 O 0.45783 0.40717 0.23717 0.0
O134 O 0.36326 0.4322 0.38069 0.0
O135 O 0.38194 0.45576 0.99419 0.0
O136 O 0.4296 0.44853 0.87985 0.0
O137 O 0.34575 0.34977 0.17597 0.0
O138 O 0.42996 0.36378 0.36151 0.0
C139 C 0.46148 0.50574 0.0958 0.0
C140 C 0.49642 0.39466 0.96265 0.0
C141 C 0.37288 0.46721 0.34071 0.0
C142 C 0.36231 0.36717 0.0817 0.0
C143 C 0.46121 0.38154 0.3218 0.0
C144 C 0.39805 0.46595 0.89586 0.0
O145 O 0.4606 0.46923 0.10276 0.0
O146 O 0.48443 0.51767 1.00932 0.0
O147 O 0.8313 0.20825 0.2311 0.0
Mn148 Mn 0.79338 0.17198 0.3623 0.0
O149 O 0.79623 0.26264 0.23525 0.0
Mn150 Mn 0.75667 0.22796 0.20247 0.0
O151 O 0.75466 0.14313 0.48906 0.0
O152 O 0.83273 0.13579 0.38418 0.0
Mn153 Mn 0.84261 0.12784 0.54973 0.0
O154 O 0.8162 0.20801 0.48711 0.0
O155 O 0.79114 0.11347 0.63064 0.0
O156 O 0.76758 0.13215 0.24412 0.0
O157 O 0.77482 0.1798 0.1298 0.0
O158 O 0.87361 0.09595 0.42595 0.0
O159 O 0.8596 0.18015 0.61148 0.0
C160 C 0.71761 0.21169 0.34575 0.0
C161 C 0.82872 0.24658 0.21262 0.0
C162 C 0.75613 0.12309 0.59066 0.0
C163 C 0.85621 0.11251 0.33165 0.0
C164 C 0.84183 0.21138 0.57175 0.0
C165 C 0.75739 0.14827 0.14581 0.0
O166 O 0.75413 0.2108 0.35272 0.0
O167 O 0.70568 0.23463 0.25928 0.0
O168 O 0.91789 0.51231 0.24827 0.0
Mn169 Mn 0.934 0.56039 0.10755 0.0
O170 O 0.86591 0.53309 0.35779 0.0
Mn171 Mn 0.87105 0.58675 0.29682 0.0
O172 O 0.95807 0.60386 0.97912 0.0
O173 O 0.98311 0.54262 1.04489 0.0
Mn174 Mn 0.97604 0.51622 0.91016 0.0
O175 O 0.90123 0.52968 0.96774 0.0
O176 O 0.95308 0.56095 0.83274 0.0
O177 O 0.96415 0.58989 0.25016 0.0
O178 O 0.9168 0.60663 0.38508 0.0
O179 O 0.02807 0.51281 0.9639 0.0
O180 O 0.94023 0.48412 0.99933 0.0
C181 C 0.85847 0.60258 0.08184 0.0
C182 C 0.89228 0.50632 0.33994 0.0
C183 C 0.96932 0.59242 0.86872 0.0
C184 C 0.01543 0.52833 0.06461 0.0
C185 C 0.90873 0.49363 0.94912 0.0
C186 C 0.95358 0.59974 0.36126 0.0
O187 O 0.88661 0.58536 0.13676 0.0
O188 O 0.83558 0.61256 0.1733 0.0
O189 O 0.19367 0.1514 0.71776 0.0
Mn190 Mn 0.16294 0.18414 0.85755 0.0
O191 O 0.23921 0.19043 0.74936 0.0
Mn192 Mn 0.20707 0.22619 0.66012 0.0
O193 O 0.13339 0.21425 1.00017 0.0
O194 O 0.138 0.13674 0.88673 0.0
Mn195 Mn 0.13661 0.12119 1.0468 0.0
O196 O 0.21105 0.16807 0.99827 0.0
O197 O 0.11668 0.16692 0.13501 0.0
O198 O 0.11943 0.20816 0.72914 0.0
O199 O 0.16233 0.2032 0.58286 0.0
O200 O 0.11082 0.08571 0.9233 0.0
O201 O 0.19029 0.1161 0.10782 0.0
C202 C 0.19496 0.2656 0.81478 0.0
C203 C 0.22973 0.15892 0.69916 0.0
C204 C 0.1236 0.20369 0.11133 0.0
C205 C 0.12079 0.1086 0.83183 0.0
C206 C 0.21705 0.14248 0.08997 0.0
C207 C 0.13084 0.21945 0.61874 0.0
O208 O 0.18069 0.23328 0.79487 0.0
O209 O 0.21043 0.27819 0.71392 0.0
O210 O 0.57197 0.44379 0.46778 0.0
Mn211 Mn 0.5392 0.41308 0.60758 0.0
O212 O 0.53296 0.48935 0.49938 0.0
Mn213 Mn 0.49716 0.45725 0.4102 0.0
O214 O 0.50905 0.38358 0.75018 0.0
O215 O 0.5866 0.38811 0.63678 0.0
Mn216 Mn 0.60216 0.38673 0.79684 0.0
O217 O 0.5553 0.46116 0.74831 0.0
O218 O 0.5564 0.36684 0.88509 0.0
O219 O 0.51513 0.36961 0.47913 0.0
O220 O 0.52012 0.41252 0.33277 0.0
O221 O 0.63764 0.36094 0.67331 0.0
O222 O 0.60728 0.44039 0.85783 0.0
C223 C 0.45776 0.44514 0.56465 0.0
C224 C 0.56447 0.47984 0.44917 0.0
C225 C 0.51963 0.37373 0.86128 0.0
C226 C 0.61474 0.37091 0.58186 0.0
C227 C 0.58091 0.46715 0.83998 0.0
C228 C 0.50388 0.38105 0.36874 0.0
O229 O 0.49008 0.43085 0.54492 0.0
O230 O 0.44513 0.46067 0.46394 0.0
O231 O 0.27955 0.82209 0.21775 0.0
Mn232 Mn 0.31027 0.78934 0.35753 0.0
O233 O 0.234 0.78307 0.24934 0.0
Mn234 Mn 0.26612 0.7473 0.16009 0.0
O235 O 0.33981 0.75922 0.50013 0.0
O236 O 0.33523 0.83674 0.3867 0.0
Mn237 Mn 0.33663 0.85228 0.54677 0.0
O238 O 0.26217 0.80543 0.49826 0.0
O239 O 0.35654 0.80655 0.63497 0.0
O240 O 0.35377 0.76531 0.22911 0.0
O241 O 0.31088 0.77028 0.08284 0.0
O242 O 0.36241 0.88776 0.42327 0.0
O243 O 0.28295 0.85739 0.60781 0.0
C244 C 0.27823 0.70789 0.31474 0.0
C245 C 0.24349 0.81458 0.19915 0.0
C246 C 0.34961 0.76978 0.6113 0.0
C247 C 0.35243 0.86488 0.3318 0.0
C248 C 0.25618 0.83102 0.58996 0.0
C249 C 0.34236 0.75403 0.11872 0.0
O250 O 0.2925 0.74021 0.29484 0.0
O251 O 0.26275 0.6953 0.21388 0.0
O252 O 0.9179 0.46114 0.51873 0.0
Mn253 Mn 0.93398 0.41308 0.65949 0.0
O254 O 0.86591 0.44037 0.40925 0.0
Mn255 Mn 0.87103 0.3867 0.47024 0.0
O256 O 0.95804 0.36962 0.78798 0.0
O257 O 0.98309 0.43088 0.72213 0.0
Mn258 Mn 0.97605 0.45729 0.85685 0.0
O259 O 0.90121 0.4438 0.79923 0.0
O260 O 0.95307 0.41257 0.93427 0.0
O261 O 0.96413 0.38355 0.51694 0.0
O262 O 0.91678 0.36681 0.38201 0.0
O263 O 0.02808 0.46063 0.80309 0.0
O264 O 0.94027 0.48941 0.76763 0.0
C265 C 0.85847 0.37088 0.68523 0.0
C266 C 0.89228 0.46713 0.42707 0.0
C267 C 0.96929 0.38107 0.89834 0.0
C268 C 0.01543 0.44511 0.70239 0.0
C269 C 0.90874 0.47985 0.81765 0.0
C270 C 0.95356 0.3737 0.40584 0.0
O271 O 0.88659 0.3881 0.6303 0.0
O272 O 0.83557 0.3609 0.59378 0.0
O273 O 0.27957 0.15143 0.54929 0.0
Mn274 Mn 0.31028 0.18421 0.40959 0.0
O275 O 0.23395 0.19046 0.5177 0.0
Mn276 Mn 0.26606 0.22624 0.60701 0.0
O277 O 0.33982 0.21436 0.26705 0.0
O278 O 0.33529 0.13683 0.38041 0.0
Mn279 Mn 0.3367 0.1213 0.22033 0.0
O280 O 0.26221 0.1681 0.26881 0.0
O281 O 0.3566 0.16705 0.13219 0.0
O282 O 0.35375 0.20826 0.53806 0.0
O283 O 0.31082 0.20328 0.68425 0.0
O284 O 0.3625 0.08582 0.34382 0.0
O285 O 0.28303 0.11615 0.15927 0.0
C286 C 0.27822 0.26565 0.45234 0.0
C287 C 0.24351 0.15895 0.5677 0.0
C288 C 0.34963 0.20381 0.15588 0.0
C289 C 0.3525 0.1087 0.4353 0.0
C290 C 0.25624 0.1425 0.17711 0.0
C291 C 0.34232 0.21954 0.64842 0.0
O292 O 0.29245 0.23331 0.47226 0.0
O293 O 0.26273 0.27824 0.55318 0.0
O294 O 0.57199 0.52967 0.29928 0.0
Mn295 Mn 0.53922 0.5604 0.15955 0.0
O296 O 0.53293 0.48407 0.26768 0.0
Mn297 Mn 0.49715 0.51619 0.35691 0.0
O298 O 0.50906 0.58992 1.01701 0.0
O299 O 0.58661 0.58537 0.13035 0.0
Mn300 Mn 0.60216 0.58677 0.97028 0.0
O301 O 0.5553 0.51233 1.01878 0.0
O302 O 0.55641 0.60666 0.88208 0.0
O303 O 0.51516 0.60385 0.28805 0.0
O304 O 0.52013 0.5609 0.43433 0.0
O305 O 0.63764 0.61256 0.09381 0.0
O306 O 0.60729 0.53311 0.90928 0.0
C307 C 0.45777 0.52837 0.20245 0.0
C308 C 0.56446 0.49362 0.3177 0.0
C309 C 0.51964 0.59977 0.90591 0.0
C310 C 0.61474 0.60258 0.18527 0.0
C311 C 0.58091 0.50634 0.92711 0.0
C312 C 0.50391 0.5924 0.39841 0.0
O313 O 0.49012 0.54259 0.22219 0.0
O314 O 0.44512 0.51285 0.30314 0.0
O315 O 0.19365 0.82209 1.04928 0.0
Mn316 Mn 0.16293 0.78932 0.90956 0.0
O317 O 0.23926 0.78304 1.01768 0.0
Mn318 Mn 0.20713 0.74728 0.10697 0.0
O319 O 0.13338 0.75918 0.76701 0.0
O320 O 0.13795 0.8367 0.8804 0.0
Mn321 Mn 0.13654 0.85225 0.72034 0.0
O322 O 0.21101 0.80541 0.76879 0.0
O323 O 0.11663 0.8065 0.63216 0.0
O324 O 0.11945 0.76528 1.03802 0.0
O325 O 0.16238 0.77025 0.18423 0.0
O326 O 0.11075 0.88772 0.84385 0.0
O327 O 0.19021 0.85737 0.65928 0.0
C328 C 0.19497 0.70787 0.95228 0.0
C329 C 0.22971 0.81456 0.06769 0.0
C330 C 0.12358 0.76974 0.65584 0.0
C331 C 0.12074 0.86484 0.93531 0.0
C332 C 0.21699 0.83102 0.67711 0.0
C333 C 0.13088 0.754 0.14838 0.0
O334 O 0.18075 0.74021 0.97222 0.0
O335 O 0.21045 0.69527 1.05313 0.0
O336 O 0.51509 0.89206 0.786 0.0
Mn337 Mn 0.55137 0.92996 0.65479 0.0
O338 O 0.46069 0.92714 0.78186 0.0
Mn339 Mn 0.4954 0.96669 0.81456 0.0
O340 O 0.58025 0.96865 0.52803 0.0
O341 O 0.58756 0.89061 0.63293 0.0
Mn342 Mn 0.59551 0.88073 0.46738 0.0
O343 O 0.51532 0.90715 0.53002 0.0
O344 O 0.60992 0.93218 0.3865 0.0
O345 O 0.59123 0.95574 0.77297 0.0
O346 O 0.54359 0.94853 0.8871 0.0
O347 O 0.62737 0.8497 0.59117 0.0
O348 O 0.54318 0.86378 0.40557 0.0
C349 C 0.51167 0.00571 0.67124 0.0
C350 C 0.47674 0.89466 0.80449 0.0
C351 C 0.60031 0.9672 0.42647 0.0
C352 C 0.61082 0.86711 0.68547 0.0
C353 C 0.51194 0.88155 0.44534 0.0
C354 C 0.57513 0.96597 0.87127 0.0
O355 O 0.51255 0.9692 0.66429 0.0
O356 O 0.48873 0.01766 0.75772 0.0
O357 O 0.33128 0.26532 1.03603 0.0
Mn358 Mn 0.29334 0.30157 0.90481 0.0
O359 O 0.2962 0.21091 1.03193 0.0
Mn360 Mn 0.25663 0.24559 0.06457 0.0
O361 O 0.25462 0.33039 0.77802 0.0
O362 O 0.33267 0.33778 0.88297 0.0
Mn363 Mn 0.34256 0.34574 0.71745 0.0
O364 O 0.31618 0.26554 0.78005 0.0
O365 O 0.29109 0.36012 0.63658 0.0
O366 O 0.26751 0.3414 1.02296 0.0
O367 O 0.27478 0.29378 0.13709 0.0
O368 O 0.37357 0.3776 0.84127 0.0
O369 O 0.35955 0.29344 0.65566 0.0
C370 C 0.2176 0.2618 0.92135 0.0
C371 C 0.32868 0.22699 1.05452 0.0
C372 C 0.25607 0.35047 0.67652 0.0
C373 C 0.35616 0.36104 0.93553 0.0
C374 C 0.34179 0.2622 0.69537 0.0
C375 C 0.25731 0.3253 0.12128 0.0
O376 O 0.25412 0.26272 0.91429 0.0
O377 O 0.20563 0.23889 1.00782 0.0
O378 O 0.95811 0.08141 0.28606 0.0
Mn379 Mn 0.92182 0.04351 0.15484 0.0
O380 O 0.0125 0.04633 0.28192 0.0
Mn381 Mn 0.9778 0.00679 0.31461 0.0
O382 O 0.89296 0.00481 1.02807 0.0
O383 O 0.88563 0.08285 0.13297 0.0
Mn384 Mn 0.87769 0.09273 0.96742 0.0
O385 O 0.95787 0.06632 1.03007 0.0
O386 O 0.86328 0.04128 0.88653 0.0
O387 O 0.88197 0.01772 0.27301 0.0
O388 O 0.92961 0.02494 0.38715 0.0
O389 O 0.84581 0.12375 0.09119 0.0
O390 O 0.93001 0.10968 0.90563 0.0
C391 C 0.96154 0.96776 0.17128 0.0
C392 C -0.00355 0.07882 0.30456 0.0
C393 C 0.87289 0.00626 0.9265 0.0
C394 C 0.86236 0.10635 0.18549 0.0
C395 C 0.96125 0.09192 0.9454 0.0
C396 C 0.89808 0.00749 0.37132 0.0
O397 O 0.96065 0.00427 0.16434 0.0
O398 O 0.98447 0.95581 0.25775 0.0
O399 O 0.157 0.70799 0.28001 0.0
Mn400 Mn 0.17983 0.67196 0.40478 0.0
O401 O 0.11362 0.6801 0.15564 0.0
Mn402 Mn 0.1306 0.6278 0.21742 0.0
O403 O 0.20564 0.63212 0.52292 0.0
O404 O 0.21906 0.71079 0.41425 0.0
Mn405 Mn 0.21656 0.72793 0.56453 0.0
O406 O 0.1419 0.70822 0.53599 0.0
O407 O 0.1984 0.67975 0.63705 0.0
O408 O 0.21854 0.64312 0.27799 0.0
O409 O 0.18206 0.61341 0.13652 0.0
O410 O 0.26756 0.73461 0.50779 0.0
O411 O 0.17701 0.76262 0.53188 0.0
C412 C 0.11701 0.61248 0.4355 0.0
C413 C 0.13139 0.71134 0.19534 0.0
C414 C 0.21586 0.64822 0.62124 0.0
C415 C 0.25558 0.7117 0.42131 0.0
C416 C 0.14452 0.74655 0.55447 0.0
C417 C 0.21708 0.62304 0.17647 0.0
O418 O 0.14048 0.63576 0.38295 0.0
O419 O 0.0996 0.59592 0.34123 0.0
O420 O 0.51513 0.08143 0.98111 0.0
Mn421 Mn 0.55141 0.04351 0.11232 0.0
O422 O 0.46073 0.04636 0.98524 0.0
Mn423 Mn 0.49542 0.00681 0.95246 0.0
O424 O 0.58027 0.00481 0.23908 0.0
O425 O 0.5876 0.08286 0.1342 0.0
Mn426 Mn 0.59554 0.09275 0.29974 0.0
O427 O 0.51536 0.06633 0.23712 0.0
O428 O 0.60993 0.04129 0.38065 0.0
O429 O 0.59125 0.01773 0.99414 0.0
O430 O 0.54359 0.02496 0.8798 0.0
O431 O 0.62739 0.12378 0.17594 0.0
O432 O 0.54323 0.10972 0.3615 0.0
C433 C 0.51169 0.96776 0.09575 0.0
C434 C 0.47679 0.07884 0.96262 0.0
C435 C 0.60031 0.00628 0.34068 0.0
C436 C 0.61084 0.10637 0.08165 0.0
C437 C 0.51198 0.09195 0.32176 0.0
C438 C 0.57513 0.00754 0.89582 0.0
O439 O 0.51259 0.00427 0.10272 0.0
O440 O 0.48874 0.95583 1.00927 0.0
O441 O 0.15699 0.26547 0.48722 0.0
Mn442 Mn 0.17979 0.30152 0.3624 0.0
O443 O 0.11355 0.29334 0.61146 0.0
Mn444 Mn 0.13051 0.34565 0.54973 0.0
O445 O 0.20555 0.34137 0.24424 0.0
O446 O 0.21906 0.26273 0.35282 0.0
Mn447 Mn 0.21655 0.24558 0.20255 0.0
O448 O 0.14189 0.26522 0.23119 0.0
O449 O 0.19834 0.29372 0.1299 0.0
O450 O 0.21847 0.33039 0.48916 0.0
O451 O 0.18197 0.36006 0.63066 0.0
O452 O 0.26757 0.23895 0.25926 0.0
O453 O 0.17703 0.21085 0.23527 0.0
C454 C 0.11693 0.36095 0.33164 0.0
C455 C 0.13136 0.26211 0.57183 0.0
C456 C 0.21574 0.32527 0.1459 0.0
C457 C 0.25558 0.26186 0.34574 0.0
C458 C 0.14453 0.2269 0.2127 0.0
C459 C 0.21699 0.35044 0.59072 0.0
O460 O 0.14041 0.33768 0.38423 0.0
O461 O 0.09952 0.37752 0.42589 0.0
O462 O 0.95809 0.89204 0.48113 0.0
Mn463 Mn 0.92181 0.92995 0.61235 0.0
O464 O 0.01249 0.92712 0.48527 0.0
Mn465 Mn 0.97779 0.96666 0.4525 0.0
O466 O 0.89294 0.96865 0.73912 0.0
O467 O 0.88562 0.89061 0.63423 0.0
Mn468 Mn 0.87767 0.88072 0.79976 0.0
O469 O 0.95786 0.90714 0.73715 0.0
O470 O 0.86328 0.93217 0.88068 0.0
O471 O 0.88196 0.95573 0.49418 0.0
O472 O 0.92962 0.94851 0.37984 0.0
O473 O 0.8458 0.8497 0.67596 0.0
O474 O 0.92999 0.86375 0.86151 0.0
C475 C 0.96151 0.00571 0.5958 0.0
C476 C -0.00357 0.89463 0.46264 0.0
C477 C 0.8729 0.96718 0.84071 0.0
C478 C 0.86236 0.86711 0.58168 0.0
C479 C 0.96123 0.88152 0.82178 0.0
C480 C 0.89808 0.96592 0.39587 0.0
O481 O 0.96063 0.9692 0.60276 0.0
O482 O 0.98446 0.01764 0.50932 0.0
O483 O 0.3313 0.70825 0.73115 0.0
Mn484 Mn 0.29339 0.67197 0.86235 0.0
O485 O 0.29618 0.76264 0.73525 0.0
Mn486 Mn 0.25664 0.72793 0.70252 0.0
O487 O 0.25469 0.64311 0.98911 0.0
O488 O 0.33275 0.63579 0.88421 0.0
Mn489 Mn 0.34265 0.62783 1.04972 0.0
O490 O 0.3162 0.70801 0.98718 0.0
O491 O 0.29118 0.61343 0.13063 0.0
O492 O 0.26761 0.63212 0.74418 0.0
O493 O 0.27484 0.67977 0.62986 0.0
O494 O 0.37364 0.59595 0.9259 0.0
O495 O 0.35962 0.68013 0.11145 0.0
C496 C 0.21761 0.71166 0.8457 0.0
C497 C 0.32867 0.74658 0.71267 0.0
C498 C 0.25616 0.62306 0.09067 0.0
C499 C 0.35623 0.61252 0.83164 0.0
C500 C 0.34183 0.71137 0.0718 0.0
C501 C 0.25743 0.64823 0.64585 0.0
O502 O 0.25413 0.71077 0.85277 0.0
O503 O 0.20563 0.73457 0.75923 0.0
O504 O 0.41788 0.01234 0.74828 0.0
Mn505 Mn 0.43399 0.06042 0.60756 0.0
O506 O 0.36591 0.03314 0.85783 0.0
Mn507 Mn 0.37106 0.08681 0.79685 0.0
O508 O 0.45807 0.10388 0.47911 0.0
O509 O 0.4831 0.04263 0.54489 0.0
Mn510 Mn 0.47602 0.01624 0.41017 0.0
O511 O 0.40121 0.02972 0.46775 0.0
O512 O 0.45307 0.06097 0.33274 0.0
O513 O 0.46415 0.08992 0.75015 0.0
O514 O 0.41681 0.10668 0.88508 0.0
O515 O 0.52805 0.01281 0.46391 0.0
O516 O 0.44021 0.98415 0.49935 0.0
C517 C 0.35849 0.10265 0.58188 0.0
C518 C 0.39227 0.00636 0.83996 0.0
C519 C 0.46931 0.09244 0.36872 0.0
C520 C 0.51542 0.02834 0.56461 0.0
C521 C 0.4087 -0.00634 0.44914 0.0
C522 C 0.45359 0.09978 0.86125 0.0
O523 O 0.3866 0.0854 0.63678 0.0
O524 O 0.33561 0.11266 0.67334 0.0
O525 O 0.69365 0.65136 0.21776 0.0
Mn526 Mn 0.66293 0.68411 0.35757 0.0
O527 O 0.73921 0.69036 0.24936 0.0
Mn528 Mn 0.7071 0.72615 0.16019 0.0
O529 O 0.63341 0.71425 0.50017 0.0
O530 O 0.63796 0.63672 0.38677 0.0
Mn531 Mn 0.63656 0.62117 0.54683 0.0
O532 O 0.71102 0.66801 0.49829 0.0
O533 O 0.61666 0.66691 0.63507 0.0
O534 O 0.61944 0.70817 0.22912 0.0
O535 O 0.66236 0.70319 0.08275 0.0
O536 O 0.61077 0.5857 0.42329 0.0
O537 O 0.69024 0.61605 0.60782 0.0
C538 C 0.69498 0.76553 0.31464 0.0
C539 C 0.72971 0.65885 0.19916 0.0
C540 C 0.62355 0.70367 0.61127 0.0
C541 C 0.62076 0.60859 0.33184 0.0
C542 C 0.71701 0.64241 0.58997 0.0
C543 C 0.63088 0.71942 0.11873 0.0
O544 O 0.68069 0.73322 0.29491 0.0
O545 O 0.71051 0.77816 0.21394 0.0
O546 O 0.07199 0.94377 0.9678 0.0
Mn547 Mn 0.03922 0.91306 0.10759 0.0
O548 O 0.03299 -0.01067 0.9994 0.0
Mn549 Mn -0.00281 0.95723 0.91021 0.0
O550 O 0.00907 0.88356 0.25018 0.0
O551 O 0.08661 0.88809 0.1368 0.0
Mn552 Mn 0.10217 0.88669 0.29687 0.0
O553 O 0.05533 0.96114 0.24833 0.0
O554 O 0.05641 0.8668 0.3851 0.0
O555 O 0.01515 0.8696 0.97913 0.0
O556 O 0.02014 0.91251 0.83277 0.0
O557 O 0.13763 0.86087 0.17335 0.0
O558 O 0.1073 0.94035 0.35787 0.0
C559 C 0.95779 0.94513 0.06465 0.0
C560 C 0.0645 0.97982 0.9492 0.0
C561 C 0.01964 0.8737 0.36127 0.0
C562 C 0.11474 0.87087 0.08189 0.0
C563 C 0.08094 0.96713 0.34001 0.0
C564 C 0.00391 0.88103 0.86874 0.0
O565 O -0.00989 0.93084 1.04492 0.0
O566 O 0.94516 0.96065 0.96394 0.0
O567 O 0.77957 0.32212 0.71776 0.0
Mn568 Mn 0.81028 0.28936 0.85756 0.0
O569 O 0.73399 0.28313 0.74935 0.0
Mn570 Mn 0.7661 0.24733 0.66017 0.0
O571 O 0.8398 0.25921 1.00015 0.0
O572 O 0.83527 0.33674 0.88675 0.0
Mn573 Mn 0.83667 0.35229 1.04682 0.0
O574 O 0.7622 0.30547 0.99829 0.0
O575 O 0.85656 0.30655 0.13505 0.0
O576 O 0.85376 0.26529 0.72911 0.0
O577 O 0.81084 0.27028 0.58274 0.0
O578 O 0.86246 0.38776 0.92327 0.0
O579 O 0.78299 0.35743 0.10782 0.0
C580 C 0.7782 0.20795 0.81461 0.0
C581 C 0.74351 0.31463 0.69916 0.0
C582 C 0.84966 0.26978 0.11124 0.0
C583 C 0.85246 0.36488 0.83182 0.0
C584 C 0.75621 0.33108 0.08997 0.0
C585 C 0.84232 0.25405 0.61871 0.0
O586 O 0.7925 0.24026 0.79489 0.0
O587 O 0.76267 0.19532 0.71391 0.0
O588 O 0.41787 0.96118 1.01876 0.0
Mn589 Mn 0.43395 0.9131 0.15951 0.0
O590 O 0.36588 0.94041 0.90926 0.0
Mn591 Mn 0.371 0.88674 0.97024 0.0
O592 O 0.45801 0.86964 0.28799 0.0
O593 O 0.48306 0.93091 0.22214 0.0
Mn594 Mn 0.47603 0.95731 0.35686 0.0
O595 O 0.40118 0.94383 0.29926 0.0
O596 O 0.45306 0.91259 0.43429 0.0
O597 O 0.4641 0.88358 1.01695 0.0
O598 O 0.41675 0.86684 0.88202 0.0
O599 O 0.52806 0.96065 0.30308 0.0
O600 O 0.44024 -0.01057 0.26765 0.0
C601 C 0.35843 0.87091 0.18522 0.0
C602 C 0.39226 0.96717 0.92709 0.0
C603 C 0.46927 0.8811 0.39835 0.0
C604 C 0.51541 0.94513 0.20239 0.0
C605 C 0.40872 0.97988 0.31768 0.0
C606 C 0.45353 0.87373 0.90585 0.0
O607 O 0.38656 0.88813 0.13031 0.0
O608 O 0.33553 0.86093 0.09376 0.0
O609 O 0.77955 0.65135 1.04928 0.0
Mn610 Mn 0.81028 0.68411 0.90954 0.0
O611 O 0.73393 0.69038 1.01766 0.0
Mn612 Mn 0.76605 0.72616 0.10688 0.0
O613 O 0.8398 0.71426 0.76698 0.0
O614 O 0.83527 0.63673 0.88034 0.0
Mn615 Mn 0.83666 0.62118 0.72027 0.0
O616 O 0.7622 0.66802 0.76877 0.0
O617 O 0.85655 0.66692 0.63206 0.0
O618 O 0.85374 0.70817 1.03802 0.0
O619 O 0.81079 0.7032 0.18431 0.0
O620 O 0.86245 0.58571 0.8438 0.0
O621 O 0.78298 0.61605 0.65926 0.0
C622 C 0.77822 0.76553 0.95242 0.0
C623 C 0.74349 0.65887 0.06769 0.0
C624 C 0.84966 0.70369 0.65588 0.0
C625 C 0.85246 0.60859 0.93526 0.0
C626 C 0.75621 0.64241 0.6771 0.0
C627 C 0.84229 0.71943 0.14838 0.0
O628 O 0.79247 0.7332 0.97216 0.0
O629 O 0.7627 0.77818 1.05311 0.0
O630 O 0.07202 0.02966 0.79933 0.0
Mn631 Mn 0.03925 0.06038 0.65958 0.0
O632 O 0.03297 0.98405 0.7677 0.0
Mn633 Mn -0.00282 0.01617 0.85692 0.0
O634 O 0.00909 0.08989 0.51702 0.0
O635 O 0.08664 0.08536 0.63037 0.0
Mn636 Mn 0.10219 0.08675 0.4703 0.0
O637 O 0.05534 0.01231 0.51882 0.0
O638 O 0.05644 0.10664 0.38209 0.0
O639 O 0.01518 0.10383 0.78807 0.0
O640 O 0.02014 0.06089 0.93435 0.0
O641 O 0.13767 0.11255 0.59379 0.0
O642 O 0.10731 0.03308 0.40929 0.0
C643 C 0.9578 0.02834 0.70245 0.0
C644 C 0.06449 -0.00639 0.81773 0.0
C645 C 0.01966 0.09975 0.40592 0.0
C646 C 0.11478 0.10257 0.68526 0.0
C647 C 0.08094 0.00632 0.42714 0.0
C648 C 0.00392 0.09238 0.89842 0.0
O649 O -0.00985 0.04257 0.7222 0.0
O650 O 0.94514 0.01282 0.80313 0.0
O651 O 0.69367 0.32215 0.54928 0.0
Mn652 Mn 0.66293 0.2894 0.40952 0.0
O653 O 0.73928 0.28311 0.51766 0.0
Mn654 Mn 0.70715 0.24733 0.60686 0.0
O655 O 0.6334 0.25926 0.26695 0.0
O656 O 0.63796 0.33678 0.38034 0.0
Mn657 Mn 0.63657 0.35234 0.22028 0.0
O658 O 0.71102 0.30548 0.26877 0.0
O659 O 0.61667 0.30661 0.13204 0.0
O660 O 0.61946 0.26534 0.53799 0.0
O661 O 0.66242 0.2703 0.68429 0.0
O662 O 0.61078 0.38781 0.34383 0.0
O663 O 0.69025 0.35746 0.15929 0.0
C664 C 0.69497 0.20797 0.45238 0.0
C665 C 0.72972 0.31462 0.56769 0.0
C666 C 0.62355 0.26984 0.15585 0.0
C667 C 0.62076 0.36492 0.43528 0.0
C668 C 0.71702 0.33109 0.17711 0.0
C669 C 0.63091 0.25409 0.64836 0.0
O670 O 0.68073 0.2403 0.47213 0.0
O671 O 0.71049 0.19532 0.55307 0.0
loop_
_geom_bond_atom_site_label_1
_geom_bond_atom_site_label_2
_geom_bond_distance
_geom_bond_site_symmetry_2
_ccdc_geom_bond_type
O0 Mn1 2.163 . S
O0 C14 1.244 . S
Mn1 O0 2.163 . S
Mn1 O4 2.160 1_554 S
Mn1 O5 2.221 . S
Mn1 O7 2.163 1_554 S
Mn1 O9 2.160 . S
Mn1 O19 2.221 . S
O2 Mn3 2.087 1_655 S
O2 C14 1.256 1_655 S
Mn3 O2 2.087 1_455 S
Mn3 O10 2.089 . S
Mn3 O19 2.290 . S
Mn3 O20 2.251 1_455 S
O4 Mn1 2.160 1_556 S
O4 C15 1.239 . S
O5 Mn1 2.221 . S
O5 Mn6 2.290 1_554 S
O5 C16 1.278 . S
Mn6 O5 2.290 1_556 S
Mn6 O8 2.089 . S
Mn6 O11 2.251 1_556 S
Mn6 O12 2.087 . S
O7 Mn1 2.163 1_556 S
O7 C17 1.244 . S
O8 Mn6 2.089 . S
O8 C15 1.256 . S
O9 Mn1 2.160 . S
O9 C18 1.239 . S
O10 Mn3 2.089 . S
O10 C18 1.256 . S
O11 Mn6 2.251 1_554 S
O11 C16 1.241 . S
O12 Mn6 2.087 . S
O12 C17 1.256 . S
C13 O19 1.278 1_655 S
C13 O20 1.241 . S
C14 O0 1.244 . S
C14 O2 1.256 1_455 S
C15 O4 1.239 . S
C15 O8 1.256 . S
C16 O5 1.278 . S
C16 O11 1.241 . S
C17 O7 1.244 . S
C17 O12 1.256 . S
C18 O9 1.239 . S
C18 O10 1.256 . S
O19 Mn1 2.221 . S
O19 Mn3 2.290 . S
O19 C13 1.278 1_455 S
O20 Mn3 2.251 1_655 S
O20 C13 1.241 . S
O21 Mn22 2.163 . S
O21 C35 1.244 . S
Mn22 O21 2.163 . S
Mn22 O25 2.160 . S
Mn22 O26 2.221 . S
Mn22 O28 2.163 . S
Mn22 O30 2.160 . S
Mn22 O40 2.221 . S
O23 Mn24 2.087 . S
O23 C35 1.256 . S
Mn24 O23 2.087 . S
Mn24 O31 2.089 . S
Mn24 O40 2.290 . S
Mn24 O41 2.251 . S
O25 Mn22 2.160 . S
O25 C36 1.239 . S
O26 Mn22 2.221 . S
O26 Mn27 2.290 . S
O26 C37 1.278 . S
Mn27 O26 2.290 . S
Mn27 O29 2.089 . S
Mn27 O32 2.251 . S
Mn27 O33 2.087 . S
O28 Mn22 2.163 . S
O28 C38 1.244 . S
O29 Mn27 2.089 . S
O29 C36 1.256 . S
O30 Mn22 2.160 . S
O30 C39 1.239 . S
O31 Mn24 2.089 . S
O31 C39 1.256 . S
O32 Mn27 2.251 . S
O32 C37 1.241 . S
O33 Mn27 2.087 . S
O33 C38 1.256 . S
C34 O40 1.278 . S
C34 O41 1.241 . S
C35 O21 1.244 . S
C35 O23 1.256 . S
C36 O25 1.239 . S
C36 O29 1.256 . S
C37 O26 1.278 . S
C37 O32 1.241 . S
C38 O28 1.244 . S
C38 O33 1.256 . S
C39 O30 1.239 . S
C39 O31 1.256 . S
O40 Mn22 2.221 . S
O40 Mn24 2.290 . S
O40 C34 1.278 . S
O41 Mn24 2.251 . S
O41 C34 1.241 . S
O42 Mn43 2.163 . S
O42 C56 1.244 . S
Mn43 O42 2.163 . S
Mn43 O46 2.160 . S
Mn43 O47 2.221 . S
Mn43 O49 2.163 . S
Mn43 O51 2.160 . S
Mn43 O61 2.221 . S
O44 Mn45 2.087 . S
O44 C56 1.256 . S
Mn45 O44 2.087 . S
Mn45 O52 2.089 . S
Mn45 O61 2.290 . S
Mn45 O62 2.251 . S
O46 Mn43 2.160 . S
O46 C57 1.239 . S
O47 Mn43 2.221 . S
O47 Mn48 2.290 . S
O47 C58 1.278 . S
Mn48 O47 2.290 . S
Mn48 O50 2.089 . S
Mn48 O53 2.251 . S
Mn48 O54 2.087 . S
O49 Mn43 2.163 . S
O49 C59 1.244 . S
O50 Mn48 2.089 . S
O50 C57 1.256 . S
O51 Mn43 2.160 . S
O51 C60 1.239 . S
O52 Mn45 2.089 . S
O52 C60 1.256 . S
O53 Mn48 2.251 . S
O53 C58 1.241 . S
O54 Mn48 2.087 . S
O54 C59 1.256 . S
C55 O61 1.278 . S
C55 O62 1.241 . S
C56 O42 1.244 . S
C56 O44 1.256 . S
C57 O46 1.239 . S
C57 O50 1.256 . S
C58 O47 1.278 . S
C58 O53 1.241 . S
C59 O49 1.244 . S
C59 O54 1.256 . S
C60 O51 1.239 . S
C60 O52 1.256 . S
O61 Mn43 2.221 . S
O61 Mn45 2.290 . S
O61 C55 1.278 . S
O62 Mn45 2.251 . S
O62 C55 1.241 . S
O63 Mn64 2.163 . S
O63 C77 1.244 . S
Mn64 O63 2.163 . S
Mn64 O67 2.160 . S
Mn64 O68 2.221 . S
Mn64 O70 2.163 . S
Mn64 O72 2.160 . S
Mn64 O82 2.221 . S
O65 Mn66 2.087 . S
O65 C77 1.256 . S
Mn66 O65 2.087 . S
Mn66 O73 2.089 . S
Mn66 O82 2.290 . S
Mn66 O83 2.251 . S
O67 Mn64 2.160 . S
O67 C78 1.239 1_556 S
O68 Mn64 2.221 . S
O68 Mn69 2.290 1_556 S
O68 C79 1.278 . S
Mn69 O68 2.290 1_554 S
Mn69 O71 2.089 . S
Mn69 O74 2.251 1_554 S
Mn69 O75 2.087 . S
O70 Mn64 2.163 . S
O70 C80 1.244 1_556 S
O71 Mn69 2.089 . S
O71 C78 1.256 . S
O72 Mn64 2.160 . S
O72 C81 1.239 . S
O73 Mn66 2.089 . S
O73 C81 1.256 . S
O74 Mn69 2.251 1_556 S
O74 C79 1.241 . S
O75 Mn69 2.087 . S
O75 C80 1.256 . S
C76 O82 1.278 . S
C76 O83 1.241 . S
C77 O63 1.244 . S
C77 O65 1.256 . S
C78 O67 1.239 1_554 S
C78 O71 1.256 . S
C79 O68 1.278 . S
C79 O74 1.241 . S
C80 O70 1.244 1_554 S
C80 O75 1.256 . S
C81 O72 1.239 . S
C81 O73 1.256 . S
O82 Mn64 2.221 . S
O82 Mn66 2.290 . S
O82 C76 1.278 . S
O83 Mn66 2.251 . S
O83 C76 1.241 . S
O84 Mn85 2.163 . S
O84 C98 1.244 . S
Mn85 O84 2.163 . S
Mn85 O88 2.160 . S
Mn85 O89 2.221 . S
Mn85 O91 2.163 . S
Mn85 O93 2.160 . S
Mn85 O103 2.221 . S
O86 Mn87 2.087 1_655 S
O86 C98 1.256 1_655 S
Mn87 O86 2.087 1_455 S
Mn87 O94 2.089 . S
Mn87 O103 2.290 . S
Mn87 O104 2.251 1_455 S
O88 Mn85 2.160 . S
O88 C99 1.239 . S
O89 Mn85 2.221 . S
O89 Mn90 2.290 . S
O89 C100 1.278 . S
Mn90 O89 2.290 . S
Mn90 O92 2.089 . S
Mn90 O95 2.251 . S
Mn90 O96 2.087 . S
O91 Mn85 2.163 . S
O91 C101 1.244 . S
O92 Mn90 2.089 . S
O92 C99 1.256 . S
O93 Mn85 2.160 . S
O93 C102 1.239 . S
O94 Mn87 2.089 . S
O94 C102 1.256 . S
O95 Mn90 2.251 . S
O95 C100 1.241 . S
O96 Mn90 2.087 . S
O96 C101 1.256 . S
C97 O103 1.278 1_655 S
C97 O104 1.241 . S
C98 O84 1.244 . S
C98 O86 1.256 1_455 S
C99 O88 1.239 . S
C99 O92 1.256 . S
C100 O89 1.278 . S
C100 O95 1.241 . S
C101 O91 1.244 . S
C101 O96 1.256 . S
C102 O93 1.239 . S
C102 O94 1.256 . S
O103 Mn85 2.221 . S
O103 Mn87 2.290 . S
O103 C97 1.278 1_455 S
O104 Mn87 2.251 1_655 S
O104 C97 1.241 . S
O105 Mn106 2.163 . S
O105 C119 1.244 1_556 S
Mn106 O105 2.163 . S
Mn106 O109 2.160 . S
Mn106 O110 2.221 . S
Mn106 O112 2.163 . S
Mn106 O114 2.160 . S
Mn106 O124 2.221 . S
O107 Mn108 2.087 . S
O107 C119 1.256 . S
Mn108 O107 2.087 . S
Mn108 O115 2.089 . S
Mn108 O124 2.290 1_554 S
Mn108 O125 2.251 1_554 S
O109 Mn106 2.160 . S
O109 C120 1.239 . S
O110 Mn106 2.221 . S
O110 Mn111 2.290 . S
O110 C121 1.278 . S
Mn111 O110 2.290 . S
Mn111 O113 2.089 . S
Mn111 O116 2.251 . S
Mn111 O117 2.087 . S
O112 Mn106 2.163 . S
O112 C122 1.244 . S
O113 Mn111 2.089 . S
O113 C120 1.256 . S
O114 Mn106 2.160 . S
O114 C123 1.239 1_556 S
O115 Mn108 2.089 . S
O115 C123 1.256 . S
O116 Mn111 2.251 . S
O116 C121 1.241 . S
O117 Mn111 2.087 . S
O117 C122 1.256 . S
C118 O124 1.278 . S
C118 O125 1.241 . S
C119 O105 1.244 1_554 S
C119 O107 1.256 . S
C120 O109 1.239 . S
C120 O113 1.256 . S
C121 O110 1.278 . S
C121 O116 1.241 . S
C122 O112 1.244 . S
C122 O117 1.256 . S
C123 O114 1.239 1_554 S
C123 O115 1.256 . S
O124 Mn106 2.221 . S
O124 Mn108 2.290 1_556 S
O124 C118 1.278 . S
O125 Mn108 2.251 1_556 S
O125 C118 1.241 . S
O126 Mn127 2.163 1_556 S
O126 C140 1.244 . S
Mn127 O126 2.163 1_554 S
Mn127 O130 2.160 . S
Mn127 O131 2.221 . S
Mn127 O133 2.163 . S
Mn127 O135 2.160 1_554 S
Mn127 O145 2.221 . S
O128 Mn129 2.087 . S
O128 C140 1.256 . S
Mn129 O128 2.087 . S
Mn129 O136 2.089 . S
Mn129 O145 2.290 1_556 S
Mn129 O146 2.251 . S
O130 Mn127 2.160 . S
O130 C141 1.239 . S
O131 Mn127 2.221 . S
O131 Mn132 2.290 . S
O131 C142 1.278 . S
Mn132 O131 2.290 . S
Mn132 O134 2.089 . S
Mn132 O137 2.251 . S
Mn132 O138 2.087 . S
O133 Mn127 2.163 . S
O133 C143 1.244 . S
O134 Mn132 2.089 . S
O134 C141 1.256 . S
O135 Mn127 2.160 1_556 S
O135 C144 1.239 . S
O136 Mn129 2.089 . S
O136 C144 1.256 . S
O137 Mn132 2.251 . S
O137 C142 1.241 . S
O138 Mn132 2.087 . S
O138 C143 1.256 . S
C139 O145 1.278 . S
C139 O146 1.241 1_554 S
C140 O126 1.244 . S
C140 O128 1.256 . S
C141 O130 1.239 . S
C141 O134 1.256 . S
C142 O131 1.278 . S
C142 O137 1.241 . S
C143 O133 1.244 . S
C143 O138 1.256 . S
C144 O135 1.239 . S
C144 O136 1.256 . S
O145 Mn127 2.221 . S
O145 Mn129 2.290 1_554 S
O145 C139 1.278 . S
O146 Mn129 2.251 . S
O146 C139 1.241 1_556 S
O147 Mn148 2.163 . S
O147 C161 1.244 . S
Mn148 O147 2.163 . S
Mn148 O151 2.160 . S
Mn148 O152 2.221 . S
Mn148 O154 2.163 . S
Mn148 O156 2.160 . S
Mn148 O166 2.221 . S
O149 Mn150 2.087 . S
O149 C161 1.256 . S
Mn150 O149 2.087 . S
Mn150 O157 2.089 . S
Mn150 O166 2.290 . S
Mn150 O167 2.251 . S
O151 Mn148 2.160 . S
O151 C162 1.239 . S
O152 Mn148 2.221 . S
O152 Mn153 2.290 . S
O152 C163 1.278 . S
Mn153 O152 2.290 . S
Mn153 O155 2.089 . S
Mn153 O158 2.251 . S
Mn153 O159 2.087 . S
O154 Mn148 2.163 . S
O154 C164 1.244 . S
O155 Mn153 2.089 . S
O155 C162 1.256 . S
O156 Mn148 2.160 . S
O156 C165 1.239 . S
O157 Mn150 2.089 . S
O157 C165 1.256 . S
O158 Mn153 2.251 . S
O158 C163 1.241 . S
O159 Mn153 2.087 . S
O159 C164 1.256 . S
C160 O166 1.278 . S
C160 O167 1.241 . S
C161 O147 1.244 . S
C161 O149 1.256 . S
C162 O151 1.239 . S
C162 O155 1.256 . S
C163 O152 1.278 . S
C163 O158 1.241 . S
C164 O154 1.244 . S
C164 O159 1.256 . S
C165 O156 1.239 . S
C165 O157 1.256 . S
O166 Mn148 2.221 . S
O166 Mn150 2.290 . S
O166 C160 1.278 . S
O167 Mn150 2.251 . S
O167 C160 1.241 . S
O168 Mn169 2.163 . S
O168 C182 1.244 . S
Mn169 O168 2.163 . S
Mn169 O172 2.160 1_554 S
Mn169 O173 2.221 . S
Mn169 O175 2.163 1_554 S
Mn169 O177 2.160 . S
Mn169 O187 2.221 . S
O170 Mn171 2.087 . S
O170 C182 1.256 . S
Mn171 O170 2.087 . S
Mn171 O178 2.089 . S
Mn171 O187 2.290 . S
Mn171 O188 2.251 . S
O172 Mn169 2.160 1_556 S
O172 C183 1.239 . S
O173 Mn169 2.221 . S
O173 Mn174 2.290 1_554 S
O173 C184 1.278 1_655 S
Mn174 O173 2.290 1_556 S
Mn174 O176 2.089 . S
Mn174 O179 2.251 1_655 S
Mn174 O180 2.087 . S
O175 Mn169 2.163 1_556 S
O175 C185 1.244 . S
O176 Mn174 2.089 . S
O176 C183 1.256 . S
O177 Mn169 2.160 . S
O177 C186 1.239 . S
O178 Mn171 2.089 . S
O178 C186 1.256 . S
O179 Mn174 2.251 1_455 S
O179 C184 1.241 1_556 S
O180 Mn174 2.087 . S
O180 C185 1.256 . S
C181 O187 1.278 . S
C181 O188 1.241 . S
C182 O168 1.244 . S
C182 O170 1.256 . S
C183 O172 1.239 . S
C183 O176 1.256 . S
C184 O173 1.278 1_455 S
C184 O179 1.241 1_554 S
C185 O175 1.244 . S
C185 O180 1.256 . S
C186 O177 1.239 . S
C186 O178 1.256 . S
O187 Mn169 2.221 . S
O187 Mn171 2.290 . S
O187 C181 1.278 . S
O188 Mn171 2.251 . S
O188 C181 1.241 . S
O189 Mn190 2.163 . S
O189 C203 1.244 . S
Mn190 O189 2.163 . S
Mn190 O193 2.160 . S
Mn190 O194 2.221 . S
Mn190 O196 2.163 . S
Mn190 O198 2.160 . S
Mn190 O208 2.221 . S
O191 Mn192 2.087 . S
O191 C203 1.256 . S
Mn192 O191 2.087 . S
Mn192 O199 2.089 . S
Mn192 O208 2.290 . S
Mn192 O209 2.251 . S
O193 Mn190 2.160 . S
O193 C204 1.239 1_556 S
O194 Mn190 2.221 . S
O194 Mn195 2.290 1_556 S
O194 C205 1.278 . S
Mn195 O194 2.290 1_554 S
Mn195 O197 2.089 . S
Mn195 O200 2.251 1_554 S
Mn195 O201 2.087 . S
O196 Mn190 2.163 . S
O196 C206 1.244 1_556 S
O197 Mn195 2.089 . S
O197 C204 1.256 . S
O198 Mn190 2.160 . S
O198 C207 1.239 . S
O199 Mn192 2.089 . S
O199 C207 1.256 . S
O200 Mn195 2.251 1_556 S
O200 C205 1.241 . S
O201 Mn195 2.087 . S
O201 C206 1.256 . S
C202 O208 1.278 . S
C202 O209 1.241 . S
C203 O189 1.244 . S
C203 O191 1.256 . S
C204 O193 1.239 1_554 S
C204 O197 1.256 . S
C205 O194 1.278 . S
C205 O200 1.241 . S
C206 O196 1.244 1_554 S
C206 O201 1.256 . S
C207 O198 1.239 . S
C207 O199 1.256 . S
O208 Mn190 2.221 . S
O208 Mn192 2.290 . S
O208 C202 1.278 . S
O209 Mn192 2.251 . S
O209 C202 1.241 . S
O210 Mn211 2.163 . S
O210 C224 1.244 . S
Mn211 O210 2.163 . S
Mn211 O214 2.160 . S
Mn211 O215 2.221 . S
Mn211 O217 2.163 . S
Mn211 O219 2.160 . S
Mn211 O229 2.221 . S
O212 Mn213 2.087 . S
O212 C224 1.256 . S
Mn213 O212 2.087 . S
Mn213 O220 2.089 . S
Mn213 O229 2.290 . S
Mn213 O230 2.251 . S
O214 Mn211 2.160 . S
O214 C225 1.239 . S
O215 Mn211 2.221 . S
O215 Mn216 2.290 . S
O215 C226 1.278 . S
Mn216 O215 2.290 . S
Mn216 O218 2.089 . S
Mn216 O221 2.251 . S
Mn216 O222 2.087 . S
O217 Mn211 2.163 . S
O217 C227 1.244 . S
O218 Mn216 2.089 . S
O218 C225 1.256 . S
O219 Mn211 2.160 . S
O219 C228 1.239 . S
O220 Mn213 2.089 . S
O220 C228 1.256 . S
O221 Mn216 2.251 . S
O221 C226 1.241 . S
O222 Mn216 2.087 . S
O222 C227 1.256 . S
C223 O229 1.278 . S
C223 O230 1.241 . S
C224 O210 1.244 . S
C224 O212 1.256 . S
C225 O214 1.239 . S
C225 O218 1.256 . S
C226 O215 1.278 . S
C226 O221 1.241 . S
C227 O217 1.244 . S
C227 O222 1.256 . S
C228 O219 1.239 . S
C228 O220 1.256 . S
O229 Mn211 2.221 . S
O229 Mn213 2.290 . S
O229 C223 1.278 . S
O230 Mn213 2.251 . S
O230 C223 1.241 . S
O231 Mn232 2.163 . S
O231 C245 1.244 . S
Mn232 O231 2.163 . S
Mn232 O235 2.160 . S
Mn232 O236 2.221 . S
Mn232 O238 2.163 . S
Mn232 O240 2.160 . S
Mn232 O250 2.221 . S
O233 Mn234 2.087 . S
O233 C245 1.256 . S
Mn234 O233 2.087 . S
Mn234 O241 2.089 . S
Mn234 O250 2.290 . S
Mn234 O251 2.251 . S
O235 Mn232 2.160 . S
O235 C246 1.239 . S
O236 Mn232 2.221 . S
O236 Mn237 2.290 . S
O236 C247 1.278 . S
Mn237 O236 2.290 . S
Mn237 O239 2.089 . S
Mn237 O242 2.251 . S
Mn237 O243 2.087 . S
O238 Mn232 2.163 . S
O238 C248 1.244 . S
O239 Mn237 2.089 . S
O239 C246 1.256 . S
O240 Mn232 2.160 . S
O240 C249 1.239 . S
O241 Mn234 2.089 . S
O241 C249 1.256 . S
O242 Mn237 2.251 . S
O242 C247 1.241 . S
O243 Mn237 2.087 . S
O243 C248 1.256 . S
C244 O250 1.278 . S
C244 O251 1.241 . S
C245 O231 1.244 . S
C245 O233 1.256 . S
C246 O235 1.239 . S
C246 O239 1.256 . S
C247 O236 1.278 . S
C247 O242 1.241 . S
C248 O238 1.244 . S
C248 O243 1.256 . S
C249 O240 1.239 . S
C249 O241 1.256 . S
O250 Mn232 2.221 . S
O250 Mn234 2.290 . S
O250 C244 1.278 . S
O251 Mn234 2.251 . S
O251 C244 1.241 . S
O252 Mn253 2.163 . S
O252 C266 1.244 . S
Mn253 O252 2.163 . S
Mn253 O256 2.160 . S
Mn253 O257 2.221 . S
Mn253 O259 2.163 . S
Mn253 O261 2.160 . S
Mn253 O271 2.221 . S
O254 Mn255 2.087 . S
O254 C266 1.256 . S
Mn255 O254 2.087 . S
Mn255 O262 2.089 . S
Mn255 O271 2.290 . S
Mn255 O272 2.251 . S
O256 Mn253 2.160 . S
O256 C267 1.239 . S
O257 Mn253 2.221 . S
O257 Mn258 2.290 . S
O257 C268 1.278 1_655 S
Mn258 O257 2.290 . S
Mn258 O260 2.089 . S
Mn258 O263 2.251 1_655 S
Mn258 O264 2.087 . S
O259 Mn253 2.163 . S
O259 C269 1.244 . S
O260 Mn258 2.089 . S
O260 C267 1.256 . S
O261 Mn253 2.160 . S
O261 C270 1.239 . S
O262 Mn255 2.089 . S
O262 C270 1.256 . S
O263 Mn258 2.251 1_455 S
O263 C268 1.241 . S
O264 Mn258 2.087 . S
O264 C269 1.256 . S
C265 O271 1.278 . S
C265 O272 1.241 . S
C266 O252 1.244 . S
C266 O254 1.256 . S
C267 O256 1.239 . S
C267 O260 1.256 . S
C268 O257 1.278 1_455 S
C268 O263 1.241 . S
C269 O259 1.244 . S
C269 O264 1.256 . S
C270 O261 1.239 . S
C270 O262 1.256 . S
O271 Mn253 2.221 . S
O271 Mn255 2.290 . S
O271 C265 1.278 . S
O272 Mn255 2.251 . S
O272 C265 1.241 . S
O273 Mn274 2.163 . S
O273 C287 1.244 . S
Mn274 O273 2.163 . S
Mn274 O277 2.160 . S
Mn274 O278 2.221 . S
Mn274 O280 2.163 . S
Mn274 O282 2.160 . S
Mn274 O292 2.221 . S
O275 Mn276 2.087 . S
O275 C287 1.256 . S
Mn276 O275 2.087 . S
Mn276 O283 2.089 . S
Mn276 O292 2.290 . S
Mn276 O293 2.251 . S
O277 Mn274 2.160 . S
O277 C288 1.239 . S
O278 Mn274 2.221 . S
O278 Mn279 2.290 . S
O278 C289 1.278 . S
Mn279 O278 2.290 . S
Mn279 O281 2.089 . S
Mn279 O284 2.251 . S
Mn279 O285 2.087 . S
O280 Mn274 2.163 . S
O280 C290 1.244 . S
O281 Mn279 2.089 . S
O281 C288 1.256 . S
O282 Mn274 2.160 . S
O282 C291 1.239 . S
O283 Mn276 2.089 . S
O283 C291 1.256 . S
O284 Mn279 2.251 . S
O284 C289 1.241 . S
O285 Mn279 2.087 . S
O285 C290 1.256 . S
C286 O292 1.278 . S
C286 O293 1.241 . S
C287 O273 1.244 . S
C287 O275 1.256 . S
C288 O277 1.239 . S
C288 O281 1.256 . S
C289 O278 1.278 . S
C289 O284 1.241 . S
C290 O280 1.244 . S
C290 O285 1.256 . S
C291 O282 1.239 . S
C291 O283 1.256 . S
O292 Mn274 2.221 . S
O292 Mn276 2.290 . S
O292 C286 1.278 . S
O293 Mn276 2.251 . S
O293 C286 1.241 . S
O294 Mn295 2.163 . S
O294 C308 1.244 . S
Mn295 O294 2.163 . S
Mn295 O298 2.160 1_554 S
Mn295 O299 2.221 . S
Mn295 O301 2.163 1_554 S
Mn295 O303 2.160 . S
Mn295 O313 2.221 . S
O296 Mn297 2.087 . S
O296 C308 1.256 . S
Mn297 O296 2.087 . S
Mn297 O304 2.089 . S
Mn297 O313 2.290 . S
Mn297 O314 2.251 . S
O298 Mn295 2.160 1_556 S
O298 C309 1.239 . S
O299 Mn295 2.221 . S
O299 Mn300 2.290 1_554 S
O299 C310 1.278 . S
Mn300 O299 2.290 1_556 S
Mn300 O302 2.089 . S
Mn300 O305 2.251 1_556 S
Mn300 O306 2.087 . S
O301 Mn295 2.163 1_556 S
O301 C311 1.244 . S
O302 Mn300 2.089 . S
O302 C309 1.256 . S
O303 Mn295 2.160 . S
O303 C312 1.239 . S
O304 Mn297 2.089 . S
O304 C312 1.256 . S
O305 Mn300 2.251 1_554 S
O305 C310 1.241 . S
O306 Mn300 2.087 . S
O306 C311 1.256 . S
C307 O313 1.278 . S
C307 O314 1.241 . S
C308 O294 1.244 . S
C308 O296 1.256 . S
C309 O298 1.239 . S
C309 O302 1.256 . S
C310 O299 1.278 . S
C310 O305 1.241 . S
C311 O301 1.244 . S
C311 O306 1.256 . S
C312 O303 1.239 . S
C312 O304 1.256 . S
O313 Mn295 2.221 . S
O313 Mn297 2.290 . S
O313 C307 1.278 . S
O314 Mn297 2.251 . S
O314 C307 1.241 . S
O315 Mn316 2.163 . S
O315 C329 1.244 1_556 S
Mn316 O315 2.163 . S
Mn316 O319 2.160 . S
Mn316 O320 2.221 . S
Mn316 O322 2.163 . S
Mn316 O324 2.160 . S
Mn316 O334 2.221 . S
O317 Mn318 2.087 . S
O317 C329 1.256 . S
Mn318 O317 2.087 . S
Mn318 O325 2.089 . S
Mn318 O334 2.290 1_554 S
Mn318 O335 2.251 1_554 S
O319 Mn316 2.160 . S
O319 C330 1.239 . S
O320 Mn316 2.221 . S
O320 Mn321 2.290 . S
O320 C331 1.278 . S
Mn321 O320 2.290 . S
Mn321 O323 2.089 . S
Mn321 O326 2.251 . S
Mn321 O327 2.087 . S
O322 Mn316 2.163 . S
O322 C332 1.244 . S
O323 Mn321 2.089 . S
O323 C330 1.256 . S
O324 Mn316 2.160 . S
O324 C333 1.239 1_556 S
O325 Mn318 2.089 . S
O325 C333 1.256 . S
O326 Mn321 2.251 . S
O326 C331 1.241 . S
O327 Mn321 2.087 . S
O327 C332 1.256 . S
C328 O334 1.278 . S
C328 O335 1.241 . S
C329 O315 1.244 1_554 S
C329 O317 1.256 . S
C330 O319 1.239 . S
C330 O323 1.256 . S
C331 O320 1.278 . S
C331 O326 1.241 . S
C332 O322 1.244 . S
C332 O327 1.256 . S
C333 O324 1.239 1_554 S
C333 O325 1.256 . S
O334 Mn316 2.221 . S
O334 Mn318 2.290 1_556 S
O334 C328 1.278 . S
O335 Mn318 2.251 1_556 S
O335 C328 1.241 . S
O336 Mn337 2.163 . S
O336 C350 1.244 . S
Mn337 O336 2.163 . S
Mn337 O340 2.160 . S
Mn337 O341 2.221 . S
Mn337 O343 2.163 . S
Mn337 O345 2.160 . S
Mn337 O355 2.221 . S
O338 Mn339 2.104 . S
O338 C350 1.256 . S
Mn339 O338 2.104 . S
Mn339 O346 2.090 . S
Mn339 O355 2.292 . S
Mn339 O356 2.250 1_565 S
O340 Mn337 2.160 . S
O340 C351 1.239 . S
O341 Mn337 2.221 . S
O341 Mn342 2.290 . S
O341 C352 1.278 . S
Mn342 O341 2.290 . S
Mn342 O344 2.089 . S
Mn342 O347 2.251 . S
Mn342 O348 2.087 . S
O343 Mn337 2.163 . S
O343 C353 1.244 . S
O344 Mn342 2.089 . S
O344 C351 1.256 . S
O345 Mn337 2.160 . S
O345 C354 1.239 . S
O346 Mn339 2.090 . S
O346 C354 1.256 . S
O347 Mn342 2.251 . S
O347 C352 1.241 . S
O348 Mn342 2.087 . S
O348 C353 1.256 . S
C349 O355 1.274 1_545 S
C349 O356 1.242 . S
C350 O336 1.244 . S
C350 O338 1.256 . S
C351 O340 1.239 . S
C351 O344 1.256 . S
C352 O341 1.278 . S
C352 O347 1.241 . S
C353 O343 1.244 . S
C353 O348 1.256 . S
C354 O345 1.239 . S
C354 O346 1.256 . S
O355 Mn337 2.221 . S
O355 Mn339 2.292 . S
O355 C349 1.274 1_565 S
O356 Mn339 2.250 1_545 S
O356 C349 1.242 . S
O357 Mn358 2.163 . S
O357 C371 1.244 1_556 S
Mn358 O357 2.163 . S
Mn358 O361 2.160 . S
Mn358 O362 2.221 . S
Mn358 O364 2.163 . S
Mn358 O366 2.160 . S
Mn358 O376 2.221 . S
O359 Mn360 2.087 . S
O359 C371 1.256 . S
Mn360 O359 2.087 . S
Mn360 O367 2.089 . S
Mn360 O376 2.290 1_554 S
Mn360 O377 2.251 1_554 S
O361 Mn358 2.160 . S
O361 C372 1.239 . S
O362 Mn358 2.221 . S
O362 Mn363 2.290 . S
O362 C373 1.278 . S
Mn363 O362 2.290 . S
Mn363 O365 2.089 . S
Mn363 O368 2.251 . S
Mn363 O369 2.087 . S
O364 Mn358 2.163 . S
O364 C374 1.244 . S
O365 Mn363 2.089 . S
O365 C372 1.256 . S
O366 Mn358 2.160 . S
O366 C375 1.239 1_556 S
O367 Mn360 2.089 . S
O367 C375 1.256 . S
O368 Mn363 2.251 . S
O368 C373 1.241 . S
O369 Mn363 2.087 . S
O369 C374 1.256 . S
C370 O376 1.278 . S
C370 O377 1.241 . S
C371 O357 1.244 1_554 S
C371 O359 1.256 . S
C372 O361 1.239 . S
C372 O365 1.256 . S
C373 O362 1.278 . S
C373 O368 1.241 . S
C374 O364 1.244 . S
C374 O369 1.256 . S
C375 O366 1.239 1_554 S
C375 O367 1.256 . S
O376 Mn358 2.221 . S
O376 Mn360 2.290 1_556 S
O376 C370 1.278 . S
O377 Mn360 2.251 1_556 S
O377 C370 1.241 . S
O378 Mn379 2.163 . S
O378 C392 1.244 . S
Mn379 O378 2.163 . S
Mn379 O382 2.160 1_554 S
Mn379 O383 2.221 . S
Mn379 O385 2.163 1_554 S
Mn379 O387 2.160 . S
Mn379 O397 2.221 . S
O380 Mn381 2.104 1_455 S
O380 C392 1.256 1_455 S
Mn381 O380 2.104 1_655 S
Mn381 O388 2.090 . S
Mn381 O397 2.292 . S
Mn381 O398 2.250 1_645 S
O382 Mn379 2.160 1_556 S
O382 C393 1.239 . S
O383 Mn379 2.221 . S
O383 Mn384 2.290 1_554 S
O383 C394 1.278 . S
Mn384 O383 2.290 1_556 S
Mn384 O386 2.089 . S
Mn384 O389 2.251 1_556 S
Mn384 O390 2.087 . S
O385 Mn379 2.163 1_556 S
O385 C395 1.244 . S
O386 Mn384 2.089 . S
O386 C393 1.256 . S
O387 Mn379 2.160 . S
O387 C396 1.239 . S
O388 Mn381 2.090 . S
O388 C396 1.256 . S
O389 Mn384 2.251 1_554 S
O389 C394 1.241 . S
O390 Mn384 2.087 . S
O390 C395 1.256 . S
C391 O397 1.275 1_465 S
C391 O398 1.242 . S
C392 O378 1.244 . S
C392 O380 1.256 1_655 S
C393 O382 1.239 . S
C393 O386 1.256 . S
C394 O383 1.278 . S
C394 O389 1.241 . S
C395 O385 1.244 . S
C395 O390 1.256 . S
C396 O387 1.239 . S
C396 O388 1.256 . S
O397 Mn379 2.221 . S
O397 Mn381 2.292 . S
O397 C391 1.275 1_645 S
O398 Mn381 2.250 1_465 S
O398 C391 1.242 . S
O399 Mn400 2.163 . S
O399 C413 1.244 . S
Mn400 O399 2.163 . S
Mn400 O403 2.160 . S
Mn400 O404 2.221 . S
Mn400 O406 2.163 . S
Mn400 O408 2.160 . S
Mn400 O418 2.221 . S
O401 Mn402 2.087 . S
O401 C413 1.256 . S
Mn402 O401 2.087 . S
Mn402 O409 2.089 . S
Mn402 O418 2.290 . S
Mn402 O419 2.251 . S
O403 Mn400 2.160 . S
O403 C414 1.239 . S
O404 Mn400 2.221 . S
O404 Mn405 2.290 . S
O404 C415 1.278 . S
Mn405 O404 2.290 . S
Mn405 O407 2.089 . S
Mn405 O410 2.251 . S
Mn405 O411 2.087 . S
O406 Mn400 2.163 . S
O406 C416 1.244 . S
O407 Mn405 2.089 . S
O407 C414 1.256 . S
O408 Mn400 2.160 . S
O408 C417 1.239 . S
O409 Mn402 2.089 . S
O409 C417 1.256 . S
O410 Mn405 2.251 . S
O410 C415 1.241 . S
O411 Mn405 2.087 . S
O411 C416 1.256 . S
C412 O418 1.278 . S
C412 O419 1.241 . S
C413 O399 1.244 . S
C413 O401 1.256 . S
C414 O403 1.239 . S
C414 O407 1.256 . S
C415 O404 1.278 . S
C415 O410 1.241 . S
C416 O406 1.244 . S
C416 O411 1.256 . S
C417 O408 1.239 . S
C417 O409 1.256 . S
O418 Mn400 2.221 . S
O418 Mn402 2.290 . S
O418 C412 1.278 . S
O419 Mn402 2.251 . S
O419 C412 1.241 . S
O420 Mn421 2.163 1_556 S
O420 C434 1.244 . S
Mn421 O420 2.163 1_554 S
Mn421 O424 2.160 . S
Mn421 O425 2.221 . S
Mn421 O427 2.163 . S
Mn421 O429 2.160 1_554 S
Mn421 O439 2.221 . S
O422 Mn423 2.105 . S
O422 C434 1.256 . S
Mn423 O422 2.105 . S
Mn423 O430 2.090 . S
Mn423 O439 2.292 1_556 S
Mn423 O440 2.250 1_545 S
O424 Mn421 2.160 . S
O424 C435 1.239 . S
O425 Mn421 2.221 . S
O425 Mn426 2.290 . S
O425 C436 1.278 . S
Mn426 O425 2.290 . S
Mn426 O428 2.089 . S
Mn426 O431 2.251 . S
Mn426 O432 2.087 . S
O427 Mn421 2.163 . S
O427 C437 1.244 . S
O428 Mn426 2.089 . S
O428 C435 1.256 . S
O429 Mn421 2.160 1_556 S
O429 C438 1.239 . S
O430 Mn423 2.090 . S
O430 C438 1.256 . S
O431 Mn426 2.251 . S
O431 C436 1.241 . S
O432 Mn426 2.087 . S
O432 C437 1.256 . S
C433 O439 1.275 1_565 S
C433 O440 1.242 1_554 S
C434 O420 1.244 . S
C434 O422 1.256 . S
C435 O424 1.239 . S
C435 O428 1.256 . S
C436 O425 1.278 . S
C436 O431 1.241 . S
C437 O427 1.244 . S
C437 O432 1.256 . S
C438 O429 1.239 . S
C438 O430 1.256 . S
O439 Mn421 2.221 . S
O439 Mn423 2.292 1_554 S
O439 C433 1.275 1_545 S
O440 Mn423 2.250 1_565 S
O440 C433 1.242 1_556 S
O441 Mn442 2.163 . S
O441 C455 1.244 . S
Mn442 O441 2.163 . S
Mn442 O445 2.160 . S
Mn442 O446 2.221 . S
Mn442 O448 2.163 . S
Mn442 O450 2.160 . S
Mn442 O460 2.221 . S
O443 Mn444 2.087 . S
O443 C455 1.256 . S
Mn444 O443 2.087 . S
Mn444 O451 2.089 . S
Mn444 O460 2.290 . S
Mn444 O461 2.251 . S
O445 Mn442 2.160 . S
O445 C456 1.239 . S
O446 Mn442 2.221 . S
O446 Mn447 2.290 . S
O446 C457 1.278 . S
Mn447 O446 2.290 . S
Mn447 O449 2.089 . S
Mn447 O452 2.251 . S
Mn447 O453 2.087 . S
O448 Mn442 2.163 . S
O448 C458 1.244 . S
O449 Mn447 2.089 . S
O449 C456 1.256 . S
O450 Mn442 2.160 . S
O450 C459 1.239 . S
O451 Mn444 2.089 . S
O451 C459 1.256 . S
O452 Mn447 2.251 . S
O452 C457 1.241 . S
O453 Mn447 2.087 . S
O453 C458 1.256 . S
C454 O460 1.278 . S
C454 O461 1.241 . S
C455 O441 1.244 . S
C455 O443 1.256 . S
C456 O445 1.239 . S
C456 O449 1.256 . S
C457 O446 1.278 . S
C457 O452 1.241 . S
C458 O448 1.244 . S
C458 O453 1.256 . S
C459 O450 1.239 . S
C459 O451 1.256 . S
O460 Mn442 2.221 . S
O460 Mn444 2.290 . S
O460 C454 1.278 . S
O461 Mn444 2.251 . S
O461 C454 1.241 . S
O462 Mn463 2.163 . S
O462 C476 1.244 . S
Mn463 O462 2.163 . S
Mn463 O466 2.160 . S
Mn463 O467 2.221 . S
Mn463 O469 2.163 . S
Mn463 O471 2.160 . S
Mn463 O481 2.221 . S
O464 Mn465 2.105 1_455 S
O464 C476 1.256 1_455 S
Mn465 O464 2.105 1_655 S
Mn465 O472 2.090 . S
Mn465 O481 2.292 . S
Mn465 O482 2.250 1_665 S
O466 Mn463 2.160 . S
O466 C477 1.239 . S
O467 Mn463 2.221 . S
O467 Mn468 2.290 . S
O467 C478 1.278 . S
Mn468 O467 2.290 . S
Mn468 O470 2.089 . S
Mn468 O473 2.251 . S
Mn468 O474 2.087 . S
O469 Mn463 2.163 . S
O469 C479 1.244 . S
O470 Mn468 2.089 . S
O470 C477 1.256 . S
O471 Mn463 2.160 . S
O471 C480 1.239 . S
O472 Mn465 2.090 . S
O472 C480 1.256 . S
O473 Mn468 2.251 . S
O473 C478 1.241 . S
O474 Mn468 2.087 . S
O474 C479 1.256 . S
C475 O481 1.275 1_445 S
C475 O482 1.242 . S
C476 O462 1.244 . S
C476 O464 1.256 1_655 S
C477 O466 1.239 . S
C477 O470 1.256 . S
C478 O467 1.278 . S
C478 O473 1.241 . S
C479 O469 1.244 . S
C479 O474 1.256 . S
C480 O471 1.239 . S
C480 O472 1.256 . S
O481 Mn463 2.221 . S
O481 Mn465 2.292 . S
O481 C475 1.275 1_665 S
O482 Mn465 2.250 1_445 S
O482 C475 1.242 . S
O483 Mn484 2.163 . S
O483 C497 1.244 . S
Mn484 O483 2.163 . S
Mn484 O487 2.160 . S
Mn484 O488 2.221 . S
Mn484 O490 2.163 . S
Mn484 O492 2.160 . S
Mn484 O502 2.221 . S
O485 Mn486 2.087 . S
O485 C497 1.256 . S
Mn486 O485 2.087 . S
Mn486 O493 2.089 . S
Mn486 O502 2.290 . S
Mn486 O503 2.251 . S
O487 Mn484 2.160 . S
O487 C498 1.239 1_556 S
O488 Mn484 2.221 . S
O488 Mn489 2.290 1_556 S
O488 C499 1.278 . S
Mn489 O488 2.290 1_554 S
Mn489 O491 2.089 . S
Mn489 O494 2.251 1_554 S
Mn489 O495 2.087 . S
O490 Mn484 2.163 . S
O490 C500 1.244 1_556 S
O491 Mn489 2.089 . S
O491 C498 1.256 . S
O492 Mn484 2.160 . S
O492 C501 1.239 . S
O493 Mn486 2.089 . S
O493 C501 1.256 . S
O494 Mn489 2.251 1_556 S
O494 C499 1.241 . S
O495 Mn489 2.087 . S
O495 C500 1.256 . S
C496 O502 1.278 . S
C496 O503 1.241 . S
C497 O483 1.244 . S
C497 O485 1.256 . S
C498 O487 1.239 1_554 S
C498 O491 1.256 . S
C499 O488 1.278 . S
C499 O494 1.241 . S
C500 O490 1.244 1_554 S
C500 O495 1.256 . S
C501 O492 1.239 . S
C501 O493 1.256 . S
O502 Mn484 2.221 . S
O502 Mn486 2.290 . S
O502 C496 1.278 . S
O503 Mn486 2.251 . S
O503 C496 1.241 . S
O504 Mn505 2.163 . S
O504 C518 1.244 . S
Mn505 O504 2.163 . S
Mn505 O508 2.160 . S
Mn505 O509 2.221 . S
Mn505 O511 2.163 . S
Mn505 O513 2.160 . S
Mn505 O523 2.221 . S
O506 Mn507 2.087 . S
O506 C518 1.256 . S
Mn507 O506 2.087 . S
Mn507 O514 2.089 . S
Mn507 O523 2.290 . S
Mn507 O524 2.251 . S
O508 Mn505 2.160 . S
O508 C519 1.239 . S
O509 Mn505 2.221 . S
O509 Mn510 2.287 1_545 S
O509 C520 1.278 1_545 S
Mn510 O509 2.287 1_565 S
Mn510 O512 2.076 1_565 S
Mn510 O515 2.261 . S
Mn510 O516 2.090 . S
O511 Mn505 2.163 . S
O511 C521 1.244 . S
O512 Mn510 2.076 1_545 S
O512 C519 1.256 . S
O513 Mn505 2.160 . S
O513 C522 1.239 . S
O514 Mn507 2.089 . S
O514 C522 1.256 . S
O515 Mn510 2.261 . S
O515 C520 1.241 . S
O516 Mn510 2.090 . S
O516 C521 1.256 1_565 S
C517 O523 1.278 . S
C517 O524 1.241 . S
C518 O504 1.244 . S
C518 O506 1.256 . S
C519 O508 1.239 . S
C519 O512 1.256 . S
C520 O509 1.278 1_565 S
C520 O515 1.241 . S
C521 O511 1.244 . S
C521 O516 1.256 1_545 S
C522 O513 1.239 . S
C522 O514 1.256 . S
O523 Mn505 2.221 . S
O523 Mn507 2.290 . S
O523 C517 1.278 . S
O524 Mn507 2.251 . S
O524 C517 1.241 . S
O525 Mn526 2.163 . S
O525 C539 1.244 . S
Mn526 O525 2.163 . S
Mn526 O529 2.160 . S
Mn526 O530 2.221 . S
Mn526 O532 2.163 . S
Mn526 O534 2.160 . S
Mn526 O544 2.221 . S
O527 Mn528 2.087 . S
O527 C539 1.256 . S
Mn528 O527 2.087 . S
Mn528 O535 2.089 . S
Mn528 O544 2.290 . S
Mn528 O545 2.251 . S
O529 Mn526 2.160 . S
O529 C540 1.239 . S
O530 Mn526 2.221 . S
O530 Mn531 2.290 . S
O530 C541 1.278 . S
Mn531 O530 2.290 . S
Mn531 O533 2.089 . S
Mn531 O536 2.251 . S
Mn531 O537 2.087 . S
O532 Mn526 2.163 . S
O532 C542 1.244 . S
O533 Mn531 2.089 . S
O533 C540 1.256 . S
O534 Mn526 2.160 . S
O534 C543 1.239 . S
O535 Mn528 2.089 . S
O535 C543 1.256 . S
O536 Mn531 2.251 . S
O536 C541 1.241 . S
O537 Mn531 2.087 . S
O537 C542 1.256 . S
C538 O544 1.278 . S
C538 O545 1.241 . S
C539 O525 1.244 . S
C539 O527 1.256 . S
C540 O529 1.239 . S
C540 O533 1.256 . S
C541 O530 1.278 . S
C541 O536 1.241 . S
C542 O532 1.244 . S
C542 O537 1.256 . S
C543 O534 1.239 . S
C543 O535 1.256 . S
O544 Mn526 2.221 . S
O544 Mn528 2.290 . S
O544 C538 1.278 . S
O545 Mn528 2.251 . S
O545 C538 1.241 . S
O546 Mn547 2.163 1_556 S
O546 C560 1.244 . S
Mn547 O546 2.163 1_554 S
Mn547 O550 2.160 . S
Mn547 O551 2.221 . S
Mn547 O553 2.163 . S
Mn547 O555 2.160 1_554 S
Mn547 O565 2.221 . S
O548 Mn549 2.090 . S
O548 C560 1.256 1_545 S
Mn549 O548 2.090 . S
Mn549 O556 2.075 1_545 S
Mn549 O565 2.287 1_546 S
Mn549 O566 2.261 1_455 S
O550 Mn547 2.160 . S
O550 C561 1.239 . S
O551 Mn547 2.221 . S
O551 Mn552 2.290 . S
O551 C562 1.278 . S
Mn552 O551 2.290 . S
Mn552 O554 2.089 . S
Mn552 O557 2.251 . S
Mn552 O558 2.087 . S
O553 Mn547 2.163 . S
O553 C563 1.244 . S
O554 Mn552 2.089 . S
O554 C561 1.256 . S
O555 Mn547 2.160 1_556 S
O555 C564 1.239 . S
O556 Mn549 2.075 1_565 S
O556 C564 1.256 . S
O557 Mn552 2.251 . S
O557 C562 1.241 . S
O558 Mn552 2.087 . S
O558 C563 1.256 . S
C559 O565 1.278 1_645 S
C559 O566 1.241 1_554 S
C560 O546 1.244 . S
C560 O548 1.256 1_565 S
C561 O550 1.239 . S
C561 O554 1.256 . S
C562 O551 1.278 . S
C562 O557 1.241 . S
C563 O553 1.244 . S
C563 O558 1.256 . S
C564 O555 1.239 . S
C564 O556 1.256 . S
O565 Mn547 2.221 . S
O565 Mn549 2.287 1_564 S
O565 C559 1.278 1_465 S
O566 Mn549 2.261 1_655 S
O566 C559 1.241 1_556 S
O567 Mn568 2.163 . S
O567 C581 1.244 . S
Mn568 O567 2.163 . S
Mn568 O571 2.160 . S
Mn568 O572 2.221 . S
Mn568 O574 2.163 . S
Mn568 O576 2.160 . S
Mn568 O586 2.221 . S
O569 Mn570 2.087 . S
O569 C581 1.256 . S
Mn570 O569 2.087 . S
Mn570 O577 2.089 . S
Mn570 O586 2.290 . S
Mn570 O587 2.251 . S
O571 Mn568 2.160 . S
O571 C582 1.239 1_556 S
O572 Mn568 2.221 . S
O572 Mn573 2.290 1_556 S
O572 C583 1.278 . S
Mn573 O572 2.290 1_554 S
Mn573 O575 2.089 . S
Mn573 O578 2.251 1_554 S
Mn573 O579 2.087 . S
O574 Mn568 2.163 . S
O574 C584 1.244 1_556 S
O575 Mn573 2.089 . S
O575 C582 1.256 . S
O576 Mn568 2.160 . S
O576 C585 1.239 . S
O577 Mn570 2.089 . S
O577 C585 1.256 . S
O578 Mn573 2.251 1_556 S
O578 C583 1.241 . S
O579 Mn573 2.087 . S
O579 C584 1.256 . S
C580 O586 1.278 . S
C580 O587 1.241 . S
C581 O567 1.244 . S
C581 O569 1.256 . S
C582 O571 1.239 1_554 S
C582 O575 1.256 . S
C583 O572 1.278 . S
C583 O578 1.241 . S
C584 O574 1.244 1_554 S
C584 O579 1.256 . S
C585 O576 1.239 . S
C585 O577 1.256 . S
O586 Mn568 2.221 . S
O586 Mn570 2.290 . S
O586 C580 1.278 . S
O587 Mn570 2.251 . S
O587 C580 1.241 . S
O588 Mn589 2.163 1_556 S
O588 C602 1.244 . S
Mn589 O588 2.163 1_554 S
Mn589 O592 2.160 . S
Mn589 O593 2.221 . S
Mn589 O595 2.163 . S
Mn589 O597 2.160 1_554 S
Mn589 O607 2.221 . S
O590 Mn591 2.087 . S
O590 C602 1.256 . S
Mn591 O590 2.087 . S
Mn591 O598 2.089 . S
Mn591 O607 2.290 1_556 S
Mn591 O608 2.251 1_556 S
O592 Mn589 2.160 . S
O592 C603 1.239 . S
O593 Mn589 2.221 . S
O593 Mn594 2.286 1_565 S
O593 C604 1.278 1_565 S
Mn594 O593 2.286 1_545 S
Mn594 O596 2.074 1_545 S
Mn594 O599 2.262 . S
Mn594 O600 2.090 . S
O595 Mn589 2.163 . S
O595 C605 1.244 . S
O596 Mn594 2.074 1_565 S
O596 C603 1.256 . S
O597 Mn589 2.160 1_556 S
O597 C606 1.239 . S
O598 Mn591 2.089 . S
O598 C606 1.256 . S
O599 Mn594 2.262 . S
O599 C604 1.241 . S
O600 Mn594 2.090 . S
O600 C605 1.256 1_545 S
C601 O607 1.278 . S
C601 O608 1.241 . S
C602 O588 1.244 . S
C602 O590 1.256 . S
C603 O592 1.239 . S
C603 O596 1.256 . S
C604 O593 1.278 1_545 S
C604 O599 1.241 . S
C605 O595 1.244 . S
C605 O600 1.256 1_565 S
C606 O597 1.239 . S
C606 O598 1.256 . S
O607 Mn589 2.221 . S
O607 Mn591 2.290 1_554 S
O607 C601 1.278 . S
O608 Mn591 2.251 1_554 S
O608 C601 1.241 . S
O609 Mn610 2.163 . S
O609 C623 1.244 1_556 S
Mn610 O609 2.163 . S
Mn610 O613 2.160 . S
Mn610 O614 2.221 . S
Mn610 O616 2.163 . S
Mn610 O618 2.160 . S
Mn610 O628 2.221 . S
O611 Mn612 2.087 . S
O611 C623 1.256 . S
Mn612 O611 2.087 . S
Mn612 O619 2.089 . S
Mn612 O628 2.290 1_554 S
Mn612 O629 2.251 1_554 S
O613 Mn610 2.160 . S
O613 C624 1.239 . S
O614 Mn610 2.221 . S
O614 Mn615 2.290 . S
O614 C625 1.278 . S
Mn615 O614 2.290 . S
Mn615 O617 2.089 . S
Mn615 O620 2.251 . S
Mn615 O621 2.087 . S
O616 Mn610 2.163 . S
O616 C626 1.244 . S
O617 Mn615 2.089 . S
O617 C624 1.256 . S
O618 Mn610 2.160 . S
O618 C627 1.239 1_556 S
O619 Mn612 2.089 . S
O619 C627 1.256 . S
O620 Mn615 2.251 . S
O620 C625 1.241 . S
O621 Mn615 2.087 . S
O621 C626 1.256 . S
C622 O628 1.278 . S
C622 O629 1.241 . S
C623 O609 1.244 1_554 S
C623 O611 1.256 . S
C624 O613 1.239 . S
C624 O617 1.256 . S
C625 O614 1.278 . S
C625 O620 1.241 . S
C626 O616 1.244 . S
C626 O621 1.256 . S
C627 O618 1.239 1_554 S
C627 O619 1.256 . S
O628 Mn610 2.221 . S
O628 Mn612 2.290 1_556 S
O628 C622 1.278 . S
O629 Mn612 2.251 1_556 S
O629 C622 1.241 . S
O630 Mn631 2.163 . S
O630 C644 1.244 . S
Mn631 O630 2.163 . S
Mn631 O634 2.160 . S
Mn631 O635 2.221 . S
Mn631 O637 2.163 . S
Mn631 O639 2.160 . S
Mn631 O649 2.221 . S
O632 Mn633 2.090 . S
O632 C644 1.256 1_565 S
Mn633 O632 2.090 . S
Mn633 O640 2.075 1_565 S
Mn633 O649 2.286 1_565 S
Mn633 O650 2.262 1_455 S
O634 Mn631 2.160 . S
O634 C645 1.239 . S
O635 Mn631 2.221 . S
O635 Mn636 2.290 . S
O635 C646 1.278 . S
Mn636 O635 2.290 . S
Mn636 O638 2.089 . S
Mn636 O641 2.251 . S
Mn636 O642 2.087 . S
O637 Mn631 2.163 . S
O637 C647 1.244 . S
O638 Mn636 2.089 . S
O638 C645 1.256 . S
O639 Mn631 2.160 . S
O639 C648 1.239 . S
O640 Mn633 2.075 1_545 S
O640 C648 1.256 . S
O641 Mn636 2.251 . S
O641 C646 1.241 . S
O642 Mn636 2.087 . S
O642 C647 1.256 . S
C643 O649 1.278 1_665 S
C643 O650 1.241 . S
C644 O630 1.244 . S
C644 O632 1.256 1_545 S
C645 O634 1.239 . S
C645 O638 1.256 . S
C646 O635 1.278 . S
C646 O641 1.241 . S
C647 O637 1.244 . S
C647 O642 1.256 . S
C648 O639 1.239 . S
C648 O640 1.256 . S
O649 Mn631 2.221 . S
O649 Mn633 2.286 1_545 S
O649 C643 1.278 1_445 S
O650 Mn633 2.262 1_655 S
O650 C643 1.241 . S
O651 Mn652 2.163 . S
O651 C665 1.244 . S
Mn652 O651 2.163 . S
Mn652 O655 2.160 . S
Mn652 O656 2.221 . S
Mn652 O658 2.163 . S
Mn652 O660 2.160 . S
Mn652 O670 2.221 . S
O653 Mn654 2.087 . S
O653 C665 1.256 . S
Mn654 O653 2.087 . S
Mn654 O661 2.089 . S
Mn654 O670 2.290 . S
Mn654 O671 2.251 . S
O655 Mn652 2.160 . S
O655 C666 1.239 . S
O656 Mn652 2.221 . S
O656 Mn657 2.290 . S
O656 C667 1.278 . S
Mn657 O656 2.290 . S
Mn657 O659 2.089 . S
Mn657 O662 2.251 . S
Mn657 O663 2.087 . S
O658 Mn652 2.163 . S
O658 C668 1.244 . S
O659 Mn657 2.089 . S
O659 C666 1.256 . S
O660 Mn652 2.160 . S
O660 C669 1.239 . S
O661 Mn654 2.089 . S
O661 C669 1.256 . S
O662 Mn657 2.251 . S
O662 C667 1.241 . S
O663 Mn657 2.087 . S
O663 C668 1.256 . S
C664 O670 1.278 . S
C664 O671 1.241 . S
C665 O651 1.244 . S
C665 O653 1.256 . S
C666 O655 1.239 . S
C666 O659 1.256 . S
C667 O656 1.278 . S
C667 O662 1.241 . S
C668 O658 1.244 . S
C668 O663 1.256 . S
C669 O660 1.239 . S
C669 O661 1.256 . S
O670 Mn652 2.221 . S
O670 Mn654 2.290 . S
O670 C664 1.278 . S
O671 Mn654 2.251 . S
O671 C664 1.241 . S
C18 C102 0.724 . S
C120 C39 0.724 . S
C60 C144 0.724 . S
C165 C78 0.724 . S
C185 C269 0.966 . S
C203 C287 0.966 . S
C308 C224 0.966 . S
C245 C329 0.966 . S
C438 C354 0.724 1_545 S
C375 C456 0.724 . S
C396 C480 0.724 1_545 S
C414 C501 0.724 . S
C521 C605 0.966 1_545 S
C623 C539 0.966 . S
C560 C644 0.966 1_565 S
C665 C581 0.966 . S
C454 C16 2.353 . S
C478 C37 2.353 . S
C499 C58 2.352 . S
C76 C436 2.353 1_556 S
C100 C412 2.353 . S
C352 C118 2.352 . S
C142 C373 2.353 1_554 S
C163 C394 2.353 . S
C181 C625 2.330 1_554 S
C646 C205 2.330 . S
C667 C226 2.330 . S
C247 C601 2.329 . S
C265 C583 2.330 . S
C289 C517 2.330 . S
C310 C541 2.329 . S
C331 C562 2.330 1_556 S
C184 C13 0.965 1_455 S
C34 C538 0.964 . S
C223 C55 0.965 . S
C79 C580 0.964 . S
C268 C97 0.964 1_455 S
C622 C121 0.964 . S
C139 C307 0.964 . S
C160 C664 0.964 . S
C370 C202 0.964 . S
C415 C244 0.964 . S
C286 C457 0.964 . S
C496 C328 0.964 . S
C520 C349 0.955 1_565 S
C559 C391 0.955 1_645 S
C604 C433 0.955 1_545 S
C475 C643 0.955 1_445 S
C17 C267 1.671 1_455 S
C627 C38 1.672 . S
C312 C59 1.671 . S
C77 C669 1.672 . S
C183 C101 1.671 1_655 S
C543 C119 1.672 . S
C228 C143 1.671 . S
C585 C164 1.672 . S
C98 C186 1.702 1_455 S
C458 C204 1.702 . S
C140 C225 1.702 . S
C246 C497 1.702 . S
C14 C270 1.702 1_455 S
C371 C288 1.702 . S
C309 C56 1.702 . S
C330 C416 1.702 . S
C603 C353 1.671 . S
C291 C374 1.672 . S
C395 C648 1.671 1_655 S
C333 C413 1.672 . S
C437 C519 1.671 . S
C455 C207 1.672 . S
C564 C479 1.671 1_455 S
C249 C500 1.672 . S
C522 C434 1.702 . S
C540 C122 1.702 . S
C561 C476 1.702 1_455 S
C582 C161 1.702 . S
C350 C606 1.702 . S
C35 C624 1.702 . S
C645 C392 1.702 1_455 S
C80 C666 1.702 . S
C99 C15 2.171 . S
C123 C36 2.171 . S
C57 C141 2.171 . S
C162 C81 2.171 . S
C266 C182 2.369 . S
C206 C290 2.369 . S
C227 C311 2.369 . S
C332 C248 2.369 . S
C351 C435 2.171 1_565 S
C459 C372 2.171 . S
C393 C477 2.171 1_545 S
C417 C498 2.171 . S
C602 C518 2.369 1_565 S
C626 C542 2.369 . S
C563 C647 2.369 1_565 S
C668 C584 2.369 . S
