# Generated by pormake.
# Topology unw, (4)-cn, num edge types: 1
# Building blocks:
#     Node 0, Type 0, BuildingBlock: GALJAG_clean_sbu_0, # of connection points: 4
#     Node 1, Type 0, BuildingBlock: GALJAG_clean_sbu_0, # of connection points: 4
#     Node 2, Type 0, BuildingBlock: GALJAG_clean_sbu_0, # of connection points: 4
#     Node 3, Type 0, BuildingBlock: GALJAG_clean_sbu_0, # of connection points: 4
#     Node 4, Type 0, BuildingBlock: GALJAG_clean_sbu_0, # of connection points: 4
#     Node 5, Type 0, BuildingBlock: GALJAG_clean_sbu_0, # of connection points: 4
#     Node 6, Type 0, BuildingBlock: GALJAG_clean_sbu_0, # of connection points: 4
#     Node 7, Type 0, BuildingBlock: GALJAG_clean_sbu_0, # of connection points: 4
#     Node 8, Type 0, BuildingBlock: GALJAG_clean_sbu_0, # of connection points: 4
#     Node 9, Type 0, BuildingBlock: GALJAG_clean_sbu_0, # of connection points: 4
#     Node 10, Type 0, BuildingBlock: GALJAG_clean_sbu_0, # of connection points: 4
#     Node 11, Type 0, BuildingBlock: GALJAG_clean_sbu_0, # of connection points: 4
#     Node 12, Type 0, BuildingBlock: GALJAG_clean_sbu_0, # of connection points: 4
#     Node 13, Type 0, BuildingBlock: GALJAG_clean_sbu_0, # of connection points: 4
#     Node 14, Type 0, BuildingBlock: GALJAG_clean_sbu_0, # of connection points: 4
#     Node 15, Type 0, BuildingBlock: GALJAG_clean_sbu_0, # of connection points: 4
#     Node 16, Type 0, BuildingBlock: GALJAG_clean_sbu_0, # of connection points: 4
#     Node 17, Type 0, BuildingBlock: GALJAG_clean_sbu_0, # of connection points: 4
#     Node 18, Type 0, BuildingBlock: GALJAG_clean_sbu_0, # of connection points: 4
#     Node 19, Type 0, BuildingBlock: GALJAG_clean_sbu_0, # of connection points: 4
#     Node 20, Type 0, BuildingBlock: GALJAG_clean_sbu_0, # of connection points: 4
#     Node 21, Type 0, BuildingBlock: GALJAG_clean_sbu_0, # of connection points: 4
#     Node 22, Type 0, BuildingBlock: GALJAG_clean_sbu_0, # of connection points: 4
#     Node 23, Type 0, BuildingBlock: GALJAG_clean_sbu_0, # of connection points: 4
#     Edge 24, Type (0, 0), BuildingBlock: AJUNOK_clean_linker_0, # of connection points: 2
#     Edge 25, Type (0, 0), BuildingBlock: AJUNOK_clean_linker_0, # of connection points: 2
#     Edge 26, Type (0, 0), BuildingBlock: AJUNOK_clean_linker_0, # of connection points: 2
#     Edge 27, Type (0, 0), BuildingBlock: AJUNOK_clean_linker_0, # of connection points: 2
#     Edge 28, Type (0, 0), BuildingBlock: AJUNOK_clean_linker_0, # of connection points: 2
#     Edge 29, Type (0, 0), BuildingBlock: AJUNOK_clean_linker_0, # of connection points: 2
#     Edge 30, Type (0, 0), BuildingBlock: AJUNOK_clean_linker_0, # of connection points: 2
#     Edge 31, Type (0, 0), BuildingBlock: AJUNOK_clean_linker_0, # of connection points: 2
#     Edge 32, Type (0, 0), BuildingBlock: AJUNOK_clean_linker_0, # of connection points: 2
#     Edge 33, Type (0, 0), BuildingBlock: AJUNOK_clean_linker_0, # of connection points: 2
#     Edge 34, Type (0, 0), BuildingBlock: AJUNOK_clean_linker_0, # of connection points: 2
#     Edge 35, Type (0, 0), BuildingBlock: AJUNOK_clean_linker_0, # of connection points: 2
#     Edge 36, Type (0, 0), BuildingBlock: AJUNOK_clean_linker_0, # of connection points: 2
#     Edge 37, Type (0, 0), BuildingBlock: AJUNOK_clean_linker_0, # of connection points: 2
#     Edge 38, Type (0, 0), BuildingBlock: AJUNOK_clean_linker_0, # of connection points: 2
#     Edge 39, Type (0, 0), BuildingBlock: AJUNOK_clean_linker_0, # of connection points: 2
#     Edge 40, Type (0, 0), BuildingBlock: AJUNOK_clean_linker_0, # of connection points: 2
#     Edge 41, Type (0, 0), BuildingBlock: AJUNOK_clean_linker_0, # of connection points: 2
#     Edge 42, Type (0, 0), BuildingBlock: AJUNOK_clean_linker_0, # of connection points: 2
#     Edge 43, Type (0, 0), BuildingBlock: AJUNOK_clean_linker_0, # of connection points: 2
#     Edge 44, Type (0, 0), BuildingBlock: AJUNOK_clean_linker_0, # of connection points: 2
#     Edge 45, Type (0, 0), BuildingBlock: AJUNOK_clean_linker_0, # of connection points: 2
#     Edge 46, Type (0, 0), BuildingBlock: AJUNOK_clean_linker_0, # of connection points: 2
#     Edge 47, Type (0, 0), BuildingBlock: AJUNOK_clean_linker_0, # of connection points: 2
#     Edge 48, Type (0, 0), BuildingBlock: AJUNOK_clean_linker_0, # of connection points: 2
#     Edge 49, Type (0, 0), BuildingBlock: AJUNOK_clean_linker_0, # of connection points: 2
#     Edge 50, Type (0, 0), BuildingBlock: AJUNOK_clean_linker_0, # of connection points: 2
#     Edge 51, Type (0, 0), BuildingBlock: AJUNOK_clean_linker_0, # of connection points: 2
#     Edge 52, Type (0, 0), BuildingBlock: AJUNOK_clean_linker_0, # of connection points: 2
#     Edge 53, Type (0, 0), BuildingBlock: AJUNOK_clean_linker_0, # of connection points: 2
#     Edge 54, Type (0, 0), BuildingBlock: AJUNOK_clean_linker_0, # of connection points: 2
#     Edge 55, Type (0, 0), BuildingBlock: AJUNOK_clean_linker_0, # of connection points: 2
#     Edge 56, Type (0, 0), BuildingBlock: AJUNOK_clean_linker_0, # of connection points: 2
#     Edge 57, Type (0, 0), BuildingBlock: AJUNOK_clean_linker_0, # of connection points: 2
#     Edge 58, Type (0, 0), BuildingBlock: AJUNOK_clean_linker_0, # of connection points: 2
#     Edge 59, Type (0, 0), BuildingBlock: AJUNOK_clean_linker_0, # of connection points: 2
#     Edge 60, Type (0, 0), BuildingBlock: AJUNOK_clean_linker_0, # of connection points: 2
#     Edge 61, Type (0, 0), BuildingBlock: AJUNOK_clean_linker_0, # of connection points: 2
#     Edge 62, Type (0, 0), BuildingBlock: AJUNOK_clean_linker_0, # of connection points: 2
#     Edge 63, Type (0, 0), BuildingBlock: AJUNOK_clean_linker_0, # of connection points: 2
#     Edge 64, Type (0, 0), BuildingBlock: AJUNOK_clean_linker_0, # of connection points: 2
#     Edge 65, Type (0, 0), BuildingBlock: AJUNOK_clean_linker_0, # of connection points: 2
#     Edge 66, Type (0, 0), BuildingBlock: AJUNOK_clean_linker_0, # of connection points: 2
#     Edge 67, Type (0, 0), BuildingBlock: AJUNOK_clean_linker_0, # of connection points: 2
#     Edge 68, Type (0, 0), BuildingBlock: AJUNOK_clean_linker_0, # of connection points: 2
#     Edge 69, Type (0, 0), BuildingBlock: AJUNOK_clean_linker_0, # of connection points: 2
#     Edge 70, Type (0, 0), BuildingBlock: AJUNOK_clean_linker_0, # of connection points: 2
#     Edge 71, Type (0, 0), BuildingBlock: AJUNOK_clean_linker_0, # of connection points: 2
# Relax obj value: 0.374
# Max RMSD: 0.256
# Mean RMSD: 0.255
data_MOF--net-unw--node1-GALJAG_clean_sbu_0--edge1-AJUNOK_clean_linker_0
_symmetry_space_group_name_H-M    P1
_symmetry_Int_Tables_number       1
_symmetry_cell_setting            triclinic
loop_
_symmetry_equiv_pos_as_xyz
'x, y, z'
_cell_length_a     35.167468
_cell_length_b     35.122919
_cell_length_c     35.132784
_cell_angle_alpha  90.018267
_cell_angle_beta   89.983607
_cell_angle_gamma 90.042524
loop_
_atom_site_label
_atom_site_type_symbol
_atom_site_fract_x
_atom_site_fract_y
_atom_site_fract_z
_atom_type_partial_charge
In0 In 0.11809 0.36966 0.25018 0.0
O1 O 0.05685 0.35175 0.24313 0.0
O2 O 0.07322 0.38113 0.29427 0.0
C3 C 0.17401 0.35116 0.20426 0.0
C4 C 0.13599 0.30953 0.29148 0.0
C5 C 0.13488 0.43974 0.228 0.0
O6 O 0.13957 0.34517 0.19432 0.0
O7 O 0.17917 0.36459 0.23732 0.0
O8 O 0.14354 0.42755 0.26101 0.0
O9 O 0.11188 0.41885 0.20944 0.0
C10 C 0.0482 0.36168 0.27693 0.0
O11 O 0.14308 0.34319 0.30319 0.0
O12 O 0.12054 0.30706 0.25899 0.0
In13 In 0.61417 0.12991 0.25707 0.0
O14 O 0.64268 0.15394 0.20454 0.0
O15 O 0.61865 0.19203 0.24609 0.0
C16 C 0.62927 0.05914 0.27874 0.0
C17 C 0.54556 0.13948 0.22743 0.0
C18 C 0.66764 0.14944 0.30557 0.0
O19 O 0.63911 0.07185 0.2463 0.0
O20 O 0.60623 0.08011 0.29711 0.0
O21 O 0.63282 0.15601 0.31351 0.0
O22 O 0.67433 0.13459 0.27344 0.0
C23 C 0.63572 0.18812 0.21463 0.0
O24 O 0.55303 0.14942 0.2615 0.0
O25 O 0.57077 0.11927 0.21138 0.0
In26 In 0.87143 0.62433 0.24371 0.0
O27 O 0.84397 0.64769 0.29715 0.0
O28 O 0.86582 0.68616 0.25444 0.0
C29 C 0.86362 0.5542 0.21699 0.0
C30 C 0.9401 0.63815 0.27125 0.0
C31 C 0.81309 0.64209 0.2003 0.0
O32 O 0.85269 0.56325 0.25038 0.0
O33 O 0.88361 0.57908 0.19998 0.0
O34 O 0.84706 0.64975 0.18988 0.0
O35 O 0.80958 0.62586 0.23234 0.0
C36 C 0.84976 0.68199 0.28649 0.0
O37 O 0.93089 0.64762 0.23747 0.0
O38 O 0.91667 0.61642 0.28821 0.0
In39 In 0.37447 0.87424 0.25095 0.0
O40 O 0.35857 0.9358 0.24554 0.0
O41 O 0.38585 0.9168 0.29725 0.0
C42 C 0.36001 0.80889 0.21806 0.0
C43 C 0.30945 0.86271 0.28542 0.0
C44 C 0.44233 0.86385 0.2211 0.0
O45 O 0.35231 0.84058 0.20184 0.0
O46 O 0.37428 0.81086 0.25133 0.0
O47 O 0.43539 0.85656 0.25601 0.0
O48 O 0.41665 0.88246 0.20355 0.0
C49 C 0.36764 0.94296 0.28 0.0
O50 O 0.34112 0.85424 0.30119 0.0
O51 O 0.31121 0.87618 0.25178 0.0
In52 In 0.11528 0.62319 0.74957 0.0
O53 O 0.14197 0.64803 0.69668 0.0
O54 O 0.11868 0.68535 0.73975 0.0
C55 C 0.12576 0.55385 0.77681 0.0
C56 C 0.04661 0.6338 0.72078 0.0
C57 C 0.17419 0.64063 0.7921 0.0
O58 O 0.13564 0.56282 0.74307 0.0
O59 O 0.1049 0.57802 0.79386 0.0
O60 O 0.14048 0.64884 0.80299 0.0
O61 O 0.17723 0.6249 0.75974 0.0
C62 C 0.13478 0.68198 0.70761 0.0
O63 O 0.05482 0.64402 0.75464 0.0
O64 O 0.07118 0.61288 0.70446 0.0
In65 In 0.36915 0.1246 0.74638 0.0
O66 O 0.34559 0.15001 0.69207 0.0
O67 O 0.30731 0.12812 0.73475 0.0
C68 C 0.43886 0.1386 0.7713 0.0
C69 C 0.35986 0.05426 0.72064 0.0
C70 C 0.34963 0.18194 0.79049 0.0
O71 O 0.42835 0.14769 0.73783 0.0
O72 O 0.41624 0.1168 0.78924 0.0
O73 O 0.34258 0.14771 0.8006 0.0
O74 O 0.3651 0.18622 0.75821 0.0
C75 C 0.31139 0.14356 0.70242 0.0
O76 O 0.34917 0.06392 0.75393 0.0
O77 O 0.38032 0.07852 0.70334 0.0
In78 In 0.87096 0.3754 0.74189 0.0
O79 O 0.84877 0.43495 0.73448 0.0
O80 O 0.87946 0.42137 0.78574 0.0
C81 C 0.85338 0.31441 0.70195 0.0
C82 C 0.81231 0.35729 0.78445 0.0
C83 C 0.94036 0.36738 0.71407 0.0
O84 O 0.84568 0.34776 0.68966 0.0
O85 O 0.8695 0.31275 0.73423 0.0
O86 O 0.9321 0.35729 0.74794 0.0
O87 O 0.91507 0.38672 0.69695 0.0
C88 C 0.85787 0.44456 0.76827 0.0
O89 O 0.84622 0.35045 0.79567 0.0
O90 O 0.80892 0.37214 0.7517 0.0
In91 In 0.6175 0.87329 0.74903 0.0
O92 O 0.64179 0.84682 0.6955 0.0
O93 O 0.67942 0.87044 0.73796 0.0
C94 C 0.54775 0.85972 0.77385 0.0
C95 C 0.6285 0.94283 0.72245 0.0
C96 C 0.63669 0.81601 0.79306 0.0
O97 O 0.55812 0.85099 0.74023 0.0
O98 O 0.57047 0.88132 0.79192 0.0
O99 O 0.64354 0.85023 0.80332 0.0
O100 O 0.62148 0.81171 0.76066 0.0
C101 C 0.67576 0.85445 0.70585 0.0
O102 O 0.63824 0.93365 0.75616 0.0
O103 O 0.60747 0.91889 0.70536 0.0
In104 In 0.25457 0.12472 0.37621 0.0
O105 O 0.26379 0.1502 0.43441 0.0
O106 O 0.21377 0.11647 0.42496 0.0
C107 C 0.29701 0.14705 0.3183 0.0
C108 C 0.20516 0.17736 0.35631 0.0
C109 C 0.28186 0.05496 0.36658 0.0
O110 O 0.3071 0.15398 0.35247 0.0
O111 O 0.26596 0.12926 0.31438 0.0
O112 O 0.24819 0.06382 0.35672 0.0
O113 O 0.29911 0.07969 0.3865 0.0
C114 C 0.231 0.14023 0.44609 0.0
O115 O 0.19803 0.14227 0.35004 0.0
O116 O 0.23715 0.18482 0.37099 0.0
In117 In 0.87195 0.24339 0.37496 0.0
O118 O 0.85027 0.29269 0.34139 0.0
O119 O 0.8724 0.24329 0.31158 0.0
C120 C 0.86327 0.21565 0.44388 0.0
C121 C 0.93972 0.27377 0.36577 0.0
C122 C 0.80692 0.20896 0.36316 0.0
O123 O 0.85551 0.25025 0.43603 0.0
O124 O 0.88178 0.19751 0.41849 0.0
O125 O 0.8386 0.19295 0.35517 0.0
O126 O 0.80871 0.2428 0.37614 0.0
C127 C 0.85832 0.27665 0.3097 0.0
O128 O 0.9331 0.23902 0.35731 0.0
O129 O 0.91377 0.29066 0.38459 0.0
In130 In 0.74231 0.87574 0.37216 0.0
O131 O 0.79554 0.85048 0.34621 0.0
O132 O 0.75138 0.81354 0.36788 0.0
C133 C 0.71772 0.94621 0.36211 0.0
C134 C 0.76776 0.86195 0.44163 0.0
C135 C 0.69982 0.85893 0.31282 0.0
O136 O 0.75129 0.93623 0.3528 0.0
O137 O 0.6995 0.92232 0.38228 0.0
O138 O 0.68861 0.85117 0.34654 0.0
O139 O 0.73233 0.87427 0.30996 0.0
C140 C 0.78392 0.8166 0.35267 0.0
O141 O 0.7339 0.85363 0.43174 0.0
O142 O 0.78592 0.88309 0.41856 0.0
In143 In 0.11712 0.7573 0.36784 0.0
O144 O 0.1447 0.7024 0.34774 0.0
O145 O 0.1232 0.74244 0.30676 0.0
C146 C 0.13124 0.78152 0.43814 0.0
C147 C 0.04736 0.73033 0.35757 0.0
C148 C 0.17062 0.8052 0.34643 0.0
O149 O 0.1417 0.74882 0.42662 0.0
O150 O 0.10856 0.79899 0.41612 0.0
O151 O 0.13583 0.8126 0.33929 0.0
O152 O 0.17729 0.77385 0.36279 0.0
C153 C 0.13912 0.71075 0.31288 0.0
O154 O 0.0568 0.76345 0.34629 0.0
O155 O 0.07125 0.71406 0.37915 0.0
In156 In 0.24825 0.87162 0.62139 0.0
O157 O 0.24195 0.93143 0.64399 0.0
O158 O 0.29249 0.91726 0.6126 0.0
C159 C 0.20307 0.81503 0.64104 0.0
C160 C 0.29167 0.84951 0.67847 0.0
C161 C 0.221 0.86287 0.55148 0.0
O162 O 0.19395 0.8495 0.64808 0.0
O163 O 0.23471 0.81014 0.62447 0.0
O164 O 0.25416 0.85139 0.56053 0.0
O165 O 0.20463 0.88364 0.57611 0.0
C166 C 0.27544 0.94094 0.63396 0.0
O167 O 0.30163 0.84318 0.64407 0.0
O168 O 0.2602 0.86646 0.68295 0.0
In169 In 0.12413 0.25864 0.6163 0.0
O170 O 0.14502 0.2032 0.64194 0.0
O171 O 0.18521 0.24453 0.62055 0.0
C172 C 0.05416 0.2846 0.62683 0.0
C173 C 0.13822 0.23397 0.54661 0.0
C174 C 0.14476 0.30095 0.67479 0.0
O175 O 0.06369 0.25098 0.63642 0.0
O176 O 0.07831 0.3024 0.60667 0.0
O177 O 0.15144 0.31183 0.64078 0.0
O178 O 0.12821 0.2691 0.67823 0.0
C179 C 0.17961 0.21214 0.63537 0.0
O180 O 0.14776 0.26729 0.55729 0.0
O181 O 0.11551 0.21661 0.56875 0.0
In182 In 0.75001 0.11592 0.62324 0.0
O183 O 0.69706 0.14195 0.64838 0.0
O184 O 0.74015 0.11846 0.68547 0.0
C185 C 0.77597 0.12719 0.55362 0.0
C186 C 0.72129 0.0472 0.63343 0.0
C187 C 0.79157 0.17557 0.64092 0.0
O188 O 0.74207 0.13577 0.56311 0.0
O189 O 0.7941 0.10688 0.57747 0.0
O190 O 0.80305 0.14196 0.64885 0.0
O191 O 0.75919 0.17814 0.62522 0.0
C192 C 0.70793 0.13436 0.68224 0.0
O193 O 0.75515 0.05527 0.6437 0.0
O194 O 0.70513 0.07186 0.61252 0.0
In195 In 0.86882 0.74673 0.61966 0.0
O196 O 0.84728 0.73886 0.55975 0.0
O197 O 0.87677 0.79067 0.57361 0.0
C198 C 0.85124 0.70267 0.6776 0.0
C199 C 0.81045 0.78899 0.64025 0.0
C200 C 0.93881 0.72122 0.63038 0.0
O201 O 0.84326 0.69259 0.64358 0.0
O202 O 0.86698 0.73491 0.68145 0.0
O203 O 0.92894 0.75458 0.64067 0.0
O204 O 0.9152 0.70391 0.60915 0.0
C205 C 0.85593 0.77274 0.5501 0.0
O206 O 0.8445 0.80034 0.64594 0.0
O207 O 0.8069 0.75654 0.62487 0.0
In208 In 0.37359 0.25617 0.1217 0.0
O209 O 0.35607 0.25012 0.06054 0.0
O210 O 0.38425 0.30177 0.07809 0.0
C211 C 0.35678 0.21604 0.18232 0.0
C212 C 0.31133 0.2941 0.13796 0.0
C213 C 0.44216 0.22838 0.13365 0.0
O214 O 0.3495 0.20345 0.14893 0.0
O215 O 0.37145 0.24906 0.18426 0.0
O216 O 0.43354 0.26238 0.14308 0.0
O217 O 0.41819 0.21142 0.11245 0.0
C218 C 0.36527 0.28435 0.05263 0.0
O219 O 0.34418 0.3077 0.14568 0.0
O220 O 0.31075 0.2614 0.12247 0.0
In221 In 0.37197 0.74177 0.87447 0.0
O222 O 0.34737 0.79458 0.84742 0.0
O223 O 0.36977 0.74956 0.81188 0.0
C224 C 0.36138 0.71656 0.94469 0.0
C225 C 0.4412 0.76842 0.86242 0.0
C226 C 0.31166 0.70114 0.85669 0.0
O227 O 0.35235 0.7503 0.93489 0.0
O228 O 0.38128 0.69823 0.92066 0.0
O229 O 0.34516 0.68867 0.85012 0.0
O230 O 0.30955 0.73389 0.87184 0.0
C231 C 0.3547 0.78231 0.81393 0.0
O232 O 0.43216 0.73428 0.85396 0.0
O233 O 0.41731 0.7862 0.88297 0.0
In234 In 0.24802 0.37944 0.8735 0.0
O235 O 0.24308 0.36 0.93418 0.0
O236 O 0.29358 0.39042 0.91706 0.0
C237 C 0.20897 0.36281 0.81219 0.0
C238 C 0.28757 0.31855 0.85556 0.0
C239 C 0.21744 0.44745 0.86454 0.0
O240 O 0.19657 0.35408 0.8453 0.0
O241 O 0.24122 0.37912 0.81084 0.0
O242 O 0.25169 0.44054 0.85472 0.0
O243 O 0.20139 0.42177 0.88443 0.0
C244 C 0.27698 0.37022 0.94214 0.0
O245 O 0.30015 0.35198 0.84846 0.0
O246 O 0.25508 0.31672 0.87133 0.0
In247 In 0.62124 0.24719 0.87171 0.0
O248 O 0.56191 0.25793 0.84952 0.0
O249 O 0.57252 0.20631 0.88033 0.0
C250 C 0.6784 0.29149 0.85112 0.0
C251 C 0.64095 0.2016 0.81531 0.0
C252 C 0.63564 0.27023 0.94213 0.0
O253 O 0.64406 0.30191 0.84574 0.0
O254 O 0.6828 0.25905 0.86612 0.0
O255 O 0.64362 0.2367 0.93098 0.0
O256 O 0.61452 0.28916 0.91978 0.0
C257 C 0.55024 0.22493 0.85888 0.0
O258 O 0.64647 0.19185 0.84984 0.0
O259 O 0.62606 0.23401 0.8103 0.0
In260 In 0.74439 0.62084 0.87277 0.0
O261 O 0.75149 0.64108 0.93333 0.0
O262 O 0.70067 0.61047 0.9182 0.0
C263 C 0.78615 0.63949 0.81346 0.0
C264 C 0.7026 0.68045 0.85536 0.0
C265 C 0.7695 0.55116 0.85961 0.0
O266 O 0.7981 0.64546 0.8473 0.0
O267 O 0.75325 0.62495 0.81057 0.0
O268 O 0.73574 0.56119 0.85113 0.0
O269 O 0.78768 0.57429 0.88071 0.0
C270 C 0.71779 0.63118 0.94241 0.0
O271 O 0.69095 0.6467 0.84838 0.0
O272 O 0.73531 0.68319 0.87035 0.0
In273 In 0.61905 0.74981 0.1182 0.0
O274 O 0.63949 0.7557 0.05761 0.0
O275 O 0.60829 0.70541 0.07345 0.0
C276 C 0.63814 0.79277 0.17663 0.0
C277 C 0.67787 0.70731 0.13609 0.0
C278 C 0.5495 0.77508 0.13101 0.0
O279 O 0.64413 0.80403 0.14256 0.0
O280 O 0.62343 0.75999 0.18016 0.0
O281 O 0.55957 0.74141 0.13994 0.0
O282 O 0.57247 0.79307 0.1096 0.0
C283 C 0.62924 0.72194 0.04904 0.0
O284 O 0.64409 0.69661 0.14416 0.0
O285 O 0.68109 0.73954 0.12015 0.0
In286 In 0.2562 0.61517 0.13083 0.0
O287 O 0.20125 0.64281 0.15057 0.0
O288 O 0.24031 0.61978 0.19173 0.0
C289 C 0.27964 0.62982 0.06035 0.0
C290 C 0.23051 0.54512 0.14257 0.0
C291 C 0.30181 0.67023 0.154 0.0
O292 O 0.24648 0.6385 0.07184 0.0
O293 O 0.29833 0.60824 0.0825 0.0
O294 O 0.31054 0.63551 0.16007 0.0
O295 O 0.27067 0.67597 0.13698 0.0
C296 C 0.20892 0.63612 0.1854 0.0
O297 O 0.26377 0.55513 0.15279 0.0
O298 O 0.21365 0.56829 0.12064 0.0
In299 In 0.75651 0.36846 0.1184 0.0
O300 O 0.74892 0.42826 0.14076 0.0
O301 O 0.7993 0.41564 0.10879 0.0
C302 C 0.70824 0.31603 0.14261 0.0
C303 C 0.80338 0.34475 0.17211 0.0
C304 C 0.73007 0.35494 0.04896 0.0
O305 O 0.70145 0.35128 0.14783 0.0
O306 O 0.73903 0.30834 0.12573 0.0
O307 O 0.76324 0.34464 0.05903 0.0
O308 O 0.71352 0.37764 0.07163 0.0
C309 C 0.78188 0.43885 0.13031 0.0
O310 O 0.81039 0.33753 0.13724 0.0
O311 O 0.77341 0.36347 0.17868 0.0
C312 C 0.17301 0.50343 0.14915 0.0
C313 C 0.20844 0.51554 0.16336 0.0
C314 C 0.14859 0.48042 0.17092 0.0
C315 C 0.15818 0.46911 0.20817 0.0
H316 H 0.16385 0.51212 0.12103 0.0
H317 H 0.12208 0.47113 0.15825 0.0
S318 S 0.24725 0.49414 0.25933 0.0
N319 N 0.25166 0.51486 0.21741 0.0
N320 N 0.20572 0.47227 0.25842 0.0
C321 C 0.19339 0.4814 0.22291 0.0
C322 C 0.21854 0.50428 0.20048 0.0
C323 C 0.50318 0.19538 0.21621 0.0
C324 C 0.51633 0.15944 0.20435 0.0
C325 C 0.48117 0.21839 0.19216 0.0
C326 C 0.47092 0.2063 0.15533 0.0
H327 H 0.51085 0.20645 0.24395 0.0
H328 H 0.4713 0.24551 0.20301 0.0
S329 S 0.49736 0.1143 0.1107 0.0
N330 N 0.51738 0.11281 0.15319 0.0
N331 N 0.47513 0.15564 0.1084 0.0
C332 C 0.48347 0.17025 0.14323 0.0
C333 C 0.50632 0.14696 0.16759 0.0
C334 C 0.78933 0.48234 0.18603 0.0
C335 C 0.80231 0.47017 0.15012 0.0
C336 C 0.81059 0.50768 0.20838 0.0
C337 C 0.84557 0.52244 0.19562 0.0
H338 H 0.76284 0.47155 0.19752 0.0
H339 H 0.79887 0.51657 0.23548 0.0
S340 S 0.89237 0.49976 0.10365 0.0
N341 N 0.85275 0.47448 0.10301 0.0
N342 N 0.89224 0.52299 0.14454 0.0
C343 C 0.85891 0.51061 0.15972 0.0
C344 C 0.83743 0.48434 0.13711 0.0
C345 C 0.50394 0.82959 0.13877 0.0
C346 C 0.52018 0.79594 0.15316 0.0
C347 C 0.48004 0.85241 0.16139 0.0
C348 C 0.47237 0.8431 0.19966 0.0
H349 H 0.50975 0.83837 0.10979 0.0
H350 H 0.46722 0.87737 0.14866 0.0
S351 S 0.51005 0.75916 0.25179 0.0
N352 N 0.52793 0.75515 0.20857 0.0
N353 N 0.48406 0.79823 0.25113 0.0
C354 C 0.48926 0.80997 0.21462 0.0
C355 C 0.51279 0.78633 0.19137 0.0
C356 C 0.20669 0.49046 0.80907 0.0
C357 C 0.19452 0.47697 0.84479 0.0
C358 C 0.18319 0.51332 0.78636 0.0
C359 C 0.14664 0.52422 0.79856 0.0
H360 H 0.23429 0.48247 0.79793 0.0
H361 H 0.19433 0.52338 0.75943 0.0
S362 S 0.10124 0.49699 0.88993 0.0
N363 N 0.14324 0.47601 0.89119 0.0
N364 N 0.09953 0.52007 0.84901 0.0
C365 C 0.13417 0.51124 0.83434 0.0
C366 C 0.15795 0.48741 0.85729 0.0
C367 C 0.50693 0.1689 0.84983 0.0
C368 C 0.51906 0.20526 0.83802 0.0
C369 C 0.48218 0.14686 0.82741 0.0
C370 C 0.46915 0.15987 0.79184 0.0
H371 H 0.51699 0.15709 0.87646 0.0
H372 H 0.4731 0.1194 0.83814 0.0
S373 S 0.492 0.25332 0.74782 0.0
N374 N 0.5155 0.25351 0.78846 0.0
N375 N 0.46971 0.21199 0.74622 0.0
C376 C 0.48104 0.1962 0.77967 0.0
C377 C 0.50566 0.21893 0.8028 0.0
C378 C 0.82699 0.51025 0.84867 0.0
C379 C 0.79003 0.52122 0.83778 0.0
C380 C 0.84944 0.48673 0.82534 0.0
C381 C 0.83625 0.47396 0.78971 0.0
H382 H 0.83887 0.52023 0.87531 0.0
H383 H 0.87732 0.47836 0.8354 0.0
S384 S 0.74143 0.49431 0.74778 0.0
N385 N 0.74114 0.51693 0.78894 0.0
N386 N 0.78343 0.4736 0.74499 0.0
C387 C 0.79939 0.48481 0.77841 0.0
C388 C 0.77625 0.50808 0.80248 0.0
C389 C 0.50647 0.84899 0.83118 0.0
C390 C 0.51805 0.83765 0.7945 0.0
C391 C 0.48297 0.82572 0.85373 0.0
C392 C 0.47084 0.7897 0.84095 0.0
H393 H 0.51587 0.876 0.84274 0.0
H394 H 0.47404 0.83616 0.88134 0.0
S395 S 0.49314 0.74639 0.74707 0.0
N396 N 0.5152 0.78786 0.74639 0.0
N397 N 0.47189 0.74403 0.78887 0.0
C398 C 0.48242 0.77788 0.80443 0.0
C399 C 0.50567 0.80188 0.78117 0.0
C400 C 0.14911 0.17549 0.50724 0.0
C401 C 0.1608 0.21228 0.5181 0.0
C402 C 0.17278 0.1516 0.48563 0.0
C403 C 0.20948 0.16317 0.47446 0.0
H404 H 0.12153 0.1648 0.51589 0.0
H405 H 0.162 0.12394 0.47727 0.0
S406 S 0.25415 0.25667 0.49588 0.0
N407 N 0.21181 0.2591 0.51598 0.0
N408 N 0.25635 0.21416 0.47601 0.0
C409 C 0.22169 0.1998 0.48539 0.0
C410 C 0.19733 0.22438 0.50685 0.0
C411 C 0.83236 0.13596 0.51053 0.0
C412 C 0.79649 0.14841 0.52331 0.0
C413 C 0.85464 0.15845 0.48598 0.0
C414 C 0.84248 0.19479 0.47425 0.0
H415 H 0.84338 0.10867 0.51967 0.0
H416 H 0.88154 0.14722 0.476 0.0
S417 S 0.75095 0.24096 0.49997 0.0
N418 N 0.74987 0.19958 0.52213 0.0
N419 N 0.79194 0.24201 0.47718 0.0
C420 C 0.80685 0.20773 0.4872 0.0
C421 C 0.7838 0.1845 0.51132 0.0
C422 C 0.82343 0.8533 0.48544 0.0
C423 C 0.78836 0.84005 0.47137 0.0
C424 C 0.84601 0.83069 0.50951 0.0
C425 C 0.83493 0.79351 0.51975 0.0
H426 H 0.83361 0.88137 0.47769 0.0
H427 H 0.87222 0.84264 0.52047 0.0
S428 S 0.74643 0.74454 0.48901 0.0
N429 N 0.7441 0.78684 0.46874 0.0
N430 N 0.78667 0.74427 0.51314 0.0
C431 C 0.80025 0.77964 0.50523 0.0
C432 C 0.77692 0.80293 0.48138 0.0
C433 C 0.18822 0.78876 0.48006 0.0
C434 C 0.15206 0.80185 0.46889 0.0
C435 C 0.21128 0.80992 0.50488 0.0
C436 C 0.19903 0.84494 0.52003 0.0
H437 H 0.19932 0.76224 0.46891 0.0
H438 H 0.23852 0.79811 0.51305 0.0
S439 S 0.10693 0.89229 0.49953 0.0
N440 N 0.10543 0.8526 0.47437 0.0
N441 N 0.14833 0.89195 0.5217 0.0
C442 C 0.16299 0.85849 0.50902 0.0
C443 C 0.13964 0.83707 0.48337 0.0
C444 C 0.68625 0.98313 0.71287 0.0
C445 C 0.64974 0.97213 0.70058 0.0
C446 C 0.71012 0.00536 0.68983 0.0
C447 C 0.69839 0.01796 0.65365 0.0
H448 H 0.69704 0.97364 0.74014 0.0
H449 H 0.73763 0.01358 0.70102 0.0
S450 S 0.6054 0.99727 0.60812 0.0
N451 N 0.60312 0.97535 0.64963 0.0
N452 N 0.6476 0.01789 0.60671 0.0
C453 C 0.66189 0.00733 0.64105 0.0
C454 C 0.6377 0.98432 0.66439 0.0
C455 C 0.97998 0.7119 0.68756 0.0
C456 C 0.96889 0.69982 0.65097 0.0
C457 C 0.00322 0.68923 0.71077 0.0
C458 C 0.0168 0.65365 0.69829 0.0
H459 H 0.96978 0.73869 0.69893 0.0
H460 H 0.01135 0.70025 0.7384 0.0
S461 S 0.99637 0.6089 0.60476 0.0
N462 N 0.97312 0.64971 0.60346 0.0
N463 N 0.01757 0.60752 0.64667 0.0
C464 C 0.00613 0.64128 0.66169 0.0
C465 C 0.98206 0.66423 0.63817 0.0
C466 C 0.30543 0.00941 0.71192 0.0
C467 C 0.34107 0.0228 0.6995 0.0
C468 C 0.28358 0.98462 0.6895 0.0
C469 C 0.2966 0.9717 0.65386 0.0
H470 H 0.29366 0.01898 0.73877 0.0
H471 H 0.25658 0.97485 0.70069 0.0
S472 S 0.38831 0.99766 0.60841 0.0
N473 N 0.38843 0.02121 0.64911 0.0
N474 N 0.34781 0.97383 0.60741 0.0
C475 C 0.33238 0.98451 0.64122 0.0
C476 C 0.35447 0.01018 0.6639 0.0
C477 C 0.01001 0.29166 0.682 0.0
C478 C 0.02295 0.30516 0.64656 0.0
C479 C 0.98513 0.31315 0.7046 0.0
C480 C 0.97163 0.34888 0.69253 0.0
H481 H 0.01992 0.26461 0.69297 0.0
H482 H 0.97562 0.30108 0.73133 0.0
S483 S 0.99652 0.39719 0.60197 0.0
N484 N 0.02061 0.35685 0.60061 0.0
N485 N 0.97287 0.39674 0.6426 0.0
C486 C 0.98409 0.36268 0.65705 0.0
C487 C 0.00993 0.34098 0.63422 0.0
C488 C 0.66139 0.98948 0.35524 0.0
C489 C 0.69734 0.97754 0.34224 0.0
C490 C 0.63884 0.01466 0.33386 0.0
C491 C 0.65089 0.02831 0.29814 0.0
H492 H 0.65037 0.97902 0.38208 0.0
H493 H 0.61179 0.02366 0.34556 0.0
S494 S 0.74252 0.00523 0.25072 0.0
N495 N 0.74387 0.98133 0.29111 0.0
N496 N 0.70142 0.02785 0.25077 0.0
C497 C 0.68669 0.01633 0.28465 0.0
C498 C 0.70994 0.9913 0.30675 0.0
C499 C 0.9824 0.69481 0.27915 0.0
C500 C 0.96961 0.65938 0.29289 0.0
C501 C 0.00552 0.71864 0.30135 0.0
C502 C 0.01725 0.70792 0.33812 0.0
H503 H 0.97381 0.70475 0.25127 0.0
H504 H 0.01515 0.74522 0.28903 0.0
S505 S 0.99163 0.61818 0.38765 0.0
N506 N 0.97007 0.61501 0.34602 0.0
N507 N 0.01425 0.65941 0.38734 0.0
C508 C 0.00474 0.67258 0.35225 0.0
C509 C 0.98083 0.64843 0.32977 0.0
C510 C 0.31325 0.98756 0.28859 0.0
C511 C 0.34847 0.97374 0.30167 0.0
C512 C 0.29093 0.01192 0.31093 0.0
C513 C 0.3031 0.02409 0.3471 0.0
H514 H 0.30217 0.97868 0.26122 0.0
H515 H 0.26435 0.02212 0.29917 0.0
S516 S 0.39316 0.99644 0.3946 0.0
N517 N 0.39426 0.97366 0.35346 0.0
N518 N 0.3529 0.02066 0.39493 0.0
C519 C 0.33837 0.01075 0.36049 0.0
C520 C 0.36087 0.98533 0.33795 0.0
C521 C 0.00553 0.30581 0.28663 0.0
C522 C 0.01761 0.34213 0.29852 0.0
C523 C 0.98217 0.28312 0.3097 0.0
C524 C 0.96937 0.29596 0.34544 0.0
H525 H 0.01516 0.29417 0.25975 0.0
H526 H 0.97334 0.25561 0.29889 0.0
S527 S 0.99198 0.38926 0.38951 0.0
N528 N 0.01491 0.38995 0.34848 0.0
N529 N 0.96988 0.34778 0.39129 0.0
C530 C 0.98072 0.33244 0.35748 0.0
C531 C 0.00506 0.35537 0.3342 0.0
C532 C 0.7089 0.68755 0.98492 0.0
C533 C 0.69606 0.65169 0.97237 0.0
C534 C 0.68606 0.71101 0.00778 0.0
C535 C 0.64952 0.69949 0.0195 0.0
H536 H 0.73646 0.69819 0.97616 0.0
H537 H 0.69765 0.73802 0.01713 0.0
S538 S 0.60267 0.60796 0.99516 0.0
N539 N 0.64431 0.60577 0.97352 0.0
N540 N 0.6018 0.64945 0.01727 0.0
C541 C 0.63646 0.66355 0.00752 0.0
C542 C 0.65958 0.63979 0.98385 0.0
C543 C 0.33385 0.6383 0.01449 0.0
C544 C 0.29879 0.65103 0.02908 0.0
C545 C 0.35477 0.66033 0.9884 0.0
C546 C 0.342 0.69645 0.97656 0.0
H547 H 0.3453 0.61109 0.02336 0.0
H548 H 0.38106 0.64881 0.97719 0.0
S549 S 0.25248 0.74353 0.00715 0.0
N550 N 0.2525 0.70249 0.02998 0.0
N551 N 0.29198 0.74398 0.9818 0.0
C552 C 0.30725 0.70976 0.9914 0.0
C553 C 0.2856 0.68703 0.01732 0.0
C554 C 0.28746 0.31445 0.98463 0.0
C555 C 0.29907 0.35081 0.97243 0.0
C556 C 0.31033 0.29229 0.00859 0.0
C557 C 0.34559 0.30574 0.02198 0.0
H558 H 0.26083 0.30242 0.97481 0.0
H559 H 0.29963 0.26479 0.01756 0.0
S560 S 0.38915 0.39914 -0.00127 0.0
N561 N 0.34852 0.39911 0.97514 0.0
N562 N 0.39097 0.35798 0.0214 0.0
C563 C 0.35754 0.34214 0.01021 0.0
C564 C 0.33445 0.36451 0.98519 0.0
C565 C 0.67383 0.34928 0.0055 0.0
C566 C 0.7079 0.33388 0.01974 0.0
C567 C 0.64959 0.32784 0.98199 0.0
C568 C 0.65797 0.28979 0.97237 0.0
H569 H 0.66574 0.37817 0.01266 0.0
H570 H 0.6243 0.34144 0.97082 0.0
S571 S 0.7425 0.23514 0.00447 0.0
N572 N 0.74803 0.27763 0.02373 0.0
N573 N 0.70239 0.23728 0.98021 0.0
C574 C 0.69154 0.27375 0.98722 0.0
C575 C 0.71654 0.29581 0.01059 0.0
C576 C 0.14425 0.23919 0.29419 0.0
C577 C 0.14761 0.27496 0.3122 0.0
C578 C 0.16029 0.20647 0.31023 0.0
C579 C 0.18018 0.20863 0.34467 0.0
H580 H 0.13088 0.23667 0.26654 0.0
H581 H 0.15935 0.18005 0.29433 0.0
S582 S 0.19026 0.29333 0.40694 0.0
N583 N 0.16733 0.30916 0.3691 0.0
N584 N 0.19755 0.24755 0.39922 0.0
C585 C 0.18085 0.24336 0.36457 0.0
C586 C 0.16452 0.27663 0.34832 0.0
C587 C 0.73624 0.21226 0.35764 0.0
C588 C 0.76994 0.19059 0.35563 0.0
C589 C 0.70153 0.19744 0.34481 0.0
C590 C 0.69967 0.16057 0.32971 0.0
H591 H 0.73699 0.2416 0.36711 0.0
H592 H 0.67685 0.21587 0.34396 0.0
S593 S 0.77751 0.08963 0.32545 0.0
N594 N 0.7977 0.12839 0.34281 0.0
N595 N 0.73244 0.10076 0.31857 0.0
C596 C 0.73222 0.13749 0.33083 0.0
C597 C 0.76746 0.15246 0.34384 0.0
C598 C 0.84741 0.75216 0.2952 0.0
C599 C 0.83685 0.71562 0.30803 0.0
C600 C 0.83182 0.78502 0.31131 0.0
C601 C 0.80496 0.78245 0.34066 0.0
H602 H 0.86692 0.75552 0.27157 0.0
H603 H 0.83945 0.81242 0.29939 0.0
S604 S 0.77208 0.69403 0.38844 0.0
N605 N 0.80112 0.67906 0.35467 0.0
N606 N 0.7717 0.74091 0.38511 0.0
C607 C 0.79605 0.74627 0.35553 0.0
C608 C 0.81207 0.71279 0.33919 0.0
C609 C 0.23888 0.85598 0.28206 0.0
C610 C 0.27255 0.85508 0.30383 0.0
C611 C 0.20431 0.84311 0.29719 0.0
C612 C 0.20259 0.82905 0.33446 0.0
H613 H 0.23957 0.86461 0.25247 0.0
H614 H 0.17964 0.84146 0.27879 0.0
S615 S 0.28042 0.82791 0.40556 0.0
N616 N 0.30042 0.84441 0.36635 0.0
N617 N 0.23546 0.82006 0.39458 0.0
C618 C 0.23512 0.83122 0.35752 0.0
C619 C 0.27019 0.84428 0.34224 0.0
C620 C 0.17618 0.71265 0.65917 0.0
C621 C 0.14713 0.71586 0.68629 0.0
C622 C 0.19272 0.74511 0.64324 0.0
C623 C 0.18068 0.78191 0.65377 0.0
H624 H 0.18756 0.68502 0.65157 0.0
H625 H 0.21616 0.74124 0.62361 0.0
S626 S 0.10116 0.80527 0.71896 0.0
N627 N 0.10363 0.75833 0.71958 0.0
N628 N 0.13497 0.81948 0.68959 0.0
C629 C 0.14975 0.78542 0.67873 0.0
C630 C 0.13292 0.75232 0.69505 0.0
C631 C 0.24124 0.14871 0.69538 0.0
C632 C 0.27782 0.15578 0.68048 0.0
C633 C 0.20887 0.16486 0.67893 0.0
C634 C 0.21207 0.18868 0.64714 0.0
H635 H 0.23761 0.13199 0.72103 0.0
H636 H 0.18157 0.16052 0.69258 0.0
S637 S 0.30004 0.21023 0.59286 0.0
N638 N 0.31455 0.18385 0.62894 0.0
N639 N 0.25354 0.21422 0.59788 0.0
C640 C 0.24796 0.19342 0.63004 0.0
C641 C 0.28094 0.17693 0.64675 0.0
C642 C 0.83663 0.20972 0.68348 0.0
C643 C 0.81243 0.21019 0.65181 0.0
C644 C 0.85113 0.24366 0.69841 0.0
C645 C 0.84208 0.27918 0.68204 0.0
H646 H 0.84274 0.18325 0.69807 0.0
H647 H 0.86838 0.24205 0.7239 0.0
S648 S 0.78514 0.29471 0.59461 0.0
N649 N 0.78384 0.24824 0.60151 0.0
N650 N 0.81119 0.31214 0.62962 0.0
C651 C 0.82021 0.27969 0.64864 0.0
C652 C 0.80533 0.24512 0.63352 0.0
C653 C 0.74018 0.79542 0.64401 0.0
C654 C 0.77646 0.81021 0.65263 0.0
C655 C 0.70724 0.81142 0.65945 0.0
C656 C 0.70949 0.84264 0.68416 0.0
H657 H 0.73715 0.77033 0.62632 0.0
H658 H 0.68013 0.79796 0.65359 0.0
S659 S 0.79672 0.89603 0.71063 0.0
N660 N 0.81216 0.86075 0.68368 0.0
N661 N 0.75009 0.89099 0.71277 0.0
C662 C 0.74523 0.85947 0.69082 0.0
C663 C 0.77881 0.84322 0.675 0.0
C664 C 0.30572 0.14866 0.24825 0.0
C665 C 0.31753 0.16104 0.28452 0.0
C666 C 0.32005 0.1653 0.21513 0.0
C667 C 0.34656 0.19505 0.21711 0.0
H668 H 0.28415 0.12681 0.24531 0.0
H669 H 0.30893 0.15594 0.18793 0.0
S670 S 0.39094 0.23402 0.3048 0.0
N671 N 0.36033 0.20192 0.32035 0.0
N672 N 0.38754 0.2333 0.25794 0.0
C673 C 0.36058 0.20598 0.25306 0.0
C674 C 0.34602 0.1889 0.28685 0.0
C675 C 0.83613 0.33259 0.27274 0.0
C676 C 0.8504 0.29528 0.27292 0.0
C677 C 0.82382 0.3495 0.23902 0.0
C678 C 0.82545 0.32981 0.20423 0.0
H679 H 0.83299 0.34843 0.29902 0.0
H680 H 0.81122 0.37762 0.24053 0.0
S681 S 0.86445 0.23323 0.18841 0.0
N682 N 0.86885 0.24036 0.23468 0.0
N683 N 0.84532 0.27251 0.17112 0.0
C684 C 0.84214 0.29361 0.20338 0.0
C685 C 0.85466 0.27619 0.23786 0.0
C686 C 0.63886 0.80059 0.24691 0.0
C687 C 0.64928 0.81455 0.21075 0.0
C688 C 0.65332 0.81681 0.28022 0.0
C689 C 0.67881 0.84743 0.2785 0.0
H690 H 0.62052 0.77594 0.2496 0.0
H691 H 0.64616 0.80388 0.30729 0.0
S692 S 0.70974 0.89887 0.19151 0.0
N693 N 0.6827 0.86389 0.17553 0.0
N694 N 0.70992 0.89457 0.2383 0.0
C695 C 0.68713 0.8636 0.24277 0.0
C696 C 0.67231 0.84712 0.2088 0.0
C697 C 0.16182 0.6815 0.21204 0.0
C698 C 0.18559 0.64994 0.21722 0.0
C699 C 0.14547 0.69983 0.2433 0.0
C700 C 0.15224 0.68715 0.28077 0.0
H701 H 0.15755 0.69346 0.18394 0.0
H702 H 0.12867 0.72512 0.23801 0.0
S703 S 0.20683 0.60131 0.30858 0.0
N704 N 0.21104 0.60344 0.26183 0.0
N705 N 0.18029 0.63813 0.32074 0.0
C706 C 0.17351 0.6538 0.28604 0.0
C707 C 0.19022 0.63513 0.25417 0.0
C708 C 0.31691 0.83244 0.78138 0.0
C709 C 0.34377 0.80307 0.77918 0.0
C710 C 0.30175 0.84856 0.74838 0.0
C711 C 0.31302 0.83604 0.71197 0.0
H712 H 0.30615 0.84187 0.8087 0.0
H713 H 0.27996 0.87013 0.75155 0.0
S714 S 0.38699 0.76394 0.69095 0.0
N715 N 0.38448 0.76505 0.73786 0.0
N716 N 0.35568 0.79545 0.67571 0.0
C717 C 0.34185 0.80859 0.70935 0.0
C718 C 0.35727 0.79203 0.74303 0.0
C719 C 0.16075 0.32375 0.77839 0.0
C720 C 0.18891 0.35198 0.77705 0.0
C721 C 0.14535 0.30884 0.74494 0.0
C722 C 0.15743 0.32173 0.70894 0.0
H723 H 0.15175 0.31179 0.80535 0.0
H724 H 0.12475 0.28602 0.74743 0.0
S725 S 0.22624 0.39948 0.69029 0.0
N726 N 0.2252 0.39554 0.73711 0.0
N727 N 0.19615 0.36723 0.67404 0.0
C728 C 0.18362 0.35182 0.70723 0.0
C729 C 0.19944 0.36699 0.74138 0.0
C730 C 0.6588 0.17471 0.71305 0.0
C731 C 0.68642 0.14614 0.71617 0.0
C732 C 0.64269 0.19094 0.74554 0.0
C733 C 0.65353 0.17907 0.78228 0.0
H734 H 0.65097 0.18602 0.68546 0.0
H735 H 0.6227 0.21409 0.74175 0.0
S736 S 0.71993 0.10057 0.80544 0.0
N737 N 0.72042 0.10306 0.75852 0.0
N738 N 0.69008 0.13389 0.81975 0.0
C739 C 0.67888 0.14847 0.78573 0.0
C740 C 0.69541 0.13195 0.75258 0.0
C741 C 0.80753 0.65733 0.70967 0.0
C742 C 0.83971 0.68079 0.71131 0.0
C743 C 0.79154 0.6426 0.74297 0.0
C744 C 0.80729 0.65071 0.77899 0.0
H745 H 0.7933 0.65214 0.68282 0.0
H746 H 0.76568 0.62601 0.74046 0.0
S747 S 0.89588 0.70492 0.79744 0.0
N748 N 0.89001 0.70727 0.75088 0.0
N749 N 0.85982 0.67951 0.81364 0.0
C750 C 0.84128 0.67158 0.78064 0.0
C751 C 0.85752 0.68668 0.7467 0.0
C752 C 0.20683 0.30807 0.1588 0.0
C753 C 0.20695 0.34141 0.18064 0.0
C754 C 0.2407 0.29402 0.14331 0.0
C755 C 0.2756 0.31301 0.1491 0.0
H756 H 0.18103 0.29147 0.15577 0.0
H757 H 0.2397 0.2671 0.12828 0.0
S758 S 0.28887 0.4057 0.19794 0.0
N759 N 0.24318 0.39609 0.2028 0.0
N760 N 0.3069 0.36979 0.17356 0.0
C761 C 0.2753 0.34815 0.16813 0.0
C762 C 0.24089 0.36233 0.18397 0.0
C763 C 0.2411 0.69695 0.85401 0.0
C764 C 0.27676 0.68101 0.84495 0.0
C765 C 0.20748 0.68221 0.83871 0.0
C766 C 0.20844 0.65116 0.81368 0.0
H767 H 0.23914 0.72202 0.87188 0.0
H768 H 0.1809 0.69653 0.84488 0.0
S769 S 0.29351 0.59504 0.78603 0.0
N770 N 0.31038 0.62953 0.81316 0.0
N771 N 0.24708 0.60169 0.78436 0.0
C772 C 0.2435 0.63316 0.80663 0.0
C773 C 0.27774 0.64811 0.82231 0.0
C774 C 0.29033 0.24784 0.85063 0.0
C775 C 0.30751 0.2835 0.84384 0.0
C776 C 0.30556 0.21433 0.83542 0.0
C777 C 0.33833 0.21547 0.81278 0.0
H778 H 0.26399 0.24585 0.86651 0.0
H779 H 0.29036 0.1878 0.83959 0.0
S780 S 0.39786 0.30024 0.79198 0.0
N781 N 0.36183 0.31702 0.81701 0.0
N782 N 0.39043 0.25397 0.78834 0.0
C783 C 0.35737 0.2504 0.80811 0.0
C784 C 0.34197 0.28449 0.82368 0.0
C785 C 0.74836 0.30055 0.84891 0.0
C786 C 0.71184 0.31348 0.83861 0.0
C787 C 0.78109 0.31653 0.83303 0.0
C788 C 0.77842 0.34586 0.80616 0.0
H789 H 0.75177 0.27681 0.86829 0.0
H790 H 0.80845 0.30441 0.84033 0.0
S791 S 0.69012 0.39438 0.77454 0.0
N792 N 0.67523 0.36054 0.80358 0.0
N793 N 0.73692 0.3908 0.77362 0.0
C794 C 0.74232 0.36107 0.79779 0.0
C795 C 0.70893 0.34484 0.81409 0.0
C796 C 0.69737 0.75098 0.85228 0.0
C797 C 0.68136 0.71496 0.84458 0.0
C798 C 0.68114 0.78428 0.8378 0.0
C799 C 0.6485 0.78256 0.81506 0.0
H800 H 0.72361 0.75349 0.86824 0.0
H801 H 0.69554 0.81115 0.84252 0.0
S802 S 0.59157 0.69647 0.79244 0.0
N803 N 0.62812 0.68028 0.81709 0.0
N804 N 0.59755 0.74302 0.78982 0.0
C805 C 0.63047 0.74719 0.80968 0.0
C806 C 0.64693 0.71328 0.82449 0.0
C807 C 0.7098 0.65991 0.17762 0.0
C808 C 0.71187 0.68574 0.14732 0.0
C809 C 0.74285 0.64435 0.19321 0.0
C810 C 0.77907 0.654 0.17893 0.0
H811 H 0.68273 0.65322 0.19075 0.0
H812 H 0.73996 0.62586 0.21772 0.0
S813 S 0.79896 0.71508 0.09523 0.0
N814 N 0.75229 0.71643 0.10012 0.0
N815 N 0.81458 0.68717 0.12964 0.0
C816 C 0.78126 0.67745 0.14669 0.0
C817 C 0.74757 0.69337 0.13084 0.0
C818 C 0.33321 0.77173 0.16425 0.0
C819 C 0.35104 0.77203 0.19999 0.0
C820 C 0.31983 0.73786 0.14842 0.0
C821 C 0.32394 0.70298 0.16761 0.0
H822 H 0.32809 0.79801 0.14896 0.0
H823 H 0.30466 0.73926 0.1216 0.0
S824 S 0.37267 0.68744 0.25967 0.0
N825 N 0.37549 0.73384 0.25251 0.0
N826 N 0.34995 0.66997 0.22241 0.0
C827 C 0.34405 0.70229 0.20201 0.0
C828 C 0.35765 0.73694 0.21835 0.0
C829 C 0.69138 0.24756 0.14483 0.0
C830 C 0.68429 0.28499 0.15734 0.0
C831 C 0.67405 0.21636 0.16231 0.0
C832 C 0.64908 0.22148 0.19299 0.0
H833 H 0.7116 0.24211 0.12219 0.0
H834 H 0.68158 0.18804 0.1527 0.0
S835 S 0.61712 0.314 0.2332 0.0
N836 N 0.64786 0.32573 0.19967 0.0
N837 N 0.61485 0.26705 0.23263 0.0
C838 C 0.63973 0.25891 0.20414 0.0
C839 C 0.65742 0.29073 0.18623 0.0
loop_
_geom_bond_atom_site_label_1
_geom_bond_atom_site_label_2
_geom_bond_distance
_geom_bond_site_symmetry_2
_ccdc_geom_bond_type
In0 O1 2.294 . S
In0 O2 2.326 . S
In0 O6 2.266 . S
In0 O7 2.326 . S
In0 O8 2.266 . S
In0 O9 2.326 . S
In0 O11 2.294 . S
In0 O12 2.326 . S
O1 In0 2.294 . S
O1 C10 1.240 . S
O2 In0 2.326 . S
O2 C10 1.252 . S
C3 O6 1.252 . S
C3 O7 1.260 . S
C4 O11 1.240 . S
C4 O12 1.252 . S
C5 O8 1.252 . S
C5 O9 1.260 . S
O6 In0 2.266 . S
O6 C3 1.252 . S
O7 In0 2.326 . S
O7 C3 1.260 . S
O8 In0 2.266 . S
O8 C5 1.252 . S
O9 In0 2.326 . S
O9 C5 1.260 . S
C10 O1 1.240 . S
C10 O2 1.252 . S
O11 In0 2.294 . S
O11 C4 1.240 . S
O12 In0 2.326 . S
O12 C4 1.252 . S
In13 O14 2.294 . S
In13 O15 2.326 . S
In13 O19 2.266 . S
In13 O20 2.326 . S
In13 O21 2.266 . S
In13 O22 2.326 . S
In13 O24 2.294 . S
In13 O25 2.326 . S
O14 In13 2.294 . S
O14 C23 1.240 . S
O15 In13 2.326 . S
O15 C23 1.252 . S
C16 O19 1.252 . S
C16 O20 1.260 . S
C17 O24 1.240 . S
C17 O25 1.252 . S
C18 O21 1.252 . S
C18 O22 1.260 . S
O19 In13 2.266 . S
O19 C16 1.252 . S
O20 In13 2.326 . S
O20 C16 1.260 . S
O21 In13 2.266 . S
O21 C18 1.252 . S
O22 In13 2.326 . S
O22 C18 1.260 . S
C23 O14 1.240 . S
C23 O15 1.252 . S
O24 In13 2.294 . S
O24 C17 1.240 . S
O25 In13 2.326 . S
O25 C17 1.252 . S
In26 O27 2.294 . S
In26 O28 2.326 . S
In26 O32 2.266 . S
In26 O33 2.326 . S
In26 O34 2.266 . S
In26 O35 2.326 . S
In26 O37 2.294 . S
In26 O38 2.326 . S
O27 In26 2.294 . S
O27 C36 1.240 . S
O28 In26 2.326 . S
O28 C36 1.252 . S
C29 O32 1.252 . S
C29 O33 1.260 . S
C30 O37 1.240 . S
C30 O38 1.252 . S
C31 O34 1.252 . S
C31 O35 1.260 . S
O32 In26 2.266 . S
O32 C29 1.252 . S
O33 In26 2.326 . S
O33 C29 1.260 . S
O34 In26 2.266 . S
O34 C31 1.252 . S
O35 In26 2.326 . S
O35 C31 1.260 . S
C36 O27 1.240 . S
C36 O28 1.252 . S
O37 In26 2.294 . S
O37 C30 1.240 . S
O38 In26 2.326 . S
O38 C30 1.252 . S
In39 O40 2.294 . S
In39 O41 2.326 . S
In39 O45 2.266 . S
In39 O46 2.326 . S
In39 O47 2.266 . S
In39 O48 2.326 . S
In39 O50 2.294 . S
In39 O51 2.326 . S
O40 In39 2.294 . S
O40 C49 1.240 . S
O41 In39 2.326 . S
O41 C49 1.252 . S
C42 O45 1.252 . S
C42 O46 1.260 . S
C43 O50 1.240 . S
C43 O51 1.252 . S
C44 O47 1.252 . S
C44 O48 1.260 . S
O45 In39 2.266 . S
O45 C42 1.252 . S
O46 In39 2.326 . S
O46 C42 1.260 . S
O47 In39 2.266 . S
O47 C44 1.252 . S
O48 In39 2.326 . S
O48 C44 1.260 . S
C49 O40 1.240 . S
C49 O41 1.252 . S
O50 In39 2.294 . S
O50 C43 1.240 . S
O51 In39 2.326 . S
O51 C43 1.252 . S
In52 O53 2.294 . S
In52 O54 2.326 . S
In52 O58 2.266 . S
In52 O59 2.326 . S
In52 O60 2.266 . S
In52 O61 2.326 . S
In52 O63 2.294 . S
In52 O64 2.326 . S
O53 In52 2.294 . S
O53 C62 1.240 . S
O54 In52 2.326 . S
O54 C62 1.252 . S
C55 O58 1.252 . S
C55 O59 1.260 . S
C56 O63 1.240 . S
C56 O64 1.252 . S
C57 O60 1.252 . S
C57 O61 1.260 . S
O58 In52 2.266 . S
O58 C55 1.252 . S
O59 In52 2.326 . S
O59 C55 1.260 . S
O60 In52 2.266 . S
O60 C57 1.252 . S
O61 In52 2.326 . S
O61 C57 1.260 . S
C62 O53 1.240 . S
C62 O54 1.252 . S
O63 In52 2.294 . S
O63 C56 1.240 . S
O64 In52 2.326 . S
O64 C56 1.252 . S
In65 O66 2.294 . S
In65 O67 2.326 . S
In65 O71 2.266 . S
In65 O72 2.326 . S
In65 O73 2.266 . S
In65 O74 2.326 . S
In65 O76 2.294 . S
In65 O77 2.326 . S
O66 In65 2.294 . S
O66 C75 1.240 . S
O67 In65 2.326 . S
O67 C75 1.252 . S
C68 O71 1.252 . S
C68 O72 1.260 . S
C69 O76 1.240 . S
C69 O77 1.252 . S
C70 O73 1.252 . S
C70 O74 1.260 . S
O71 In65 2.266 . S
O71 C68 1.252 . S
O72 In65 2.326 . S
O72 C68 1.260 . S
O73 In65 2.266 . S
O73 C70 1.252 . S
O74 In65 2.326 . S
O74 C70 1.260 . S
C75 O66 1.240 . S
C75 O67 1.252 . S
O76 In65 2.294 . S
O76 C69 1.240 . S
O77 In65 2.326 . S
O77 C69 1.252 . S
In78 O79 2.294 . S
In78 O80 2.326 . S
In78 O84 2.266 . S
In78 O85 2.326 . S
In78 O86 2.266 . S
In78 O87 2.326 . S
In78 O89 2.294 . S
In78 O90 2.326 . S
O79 In78 2.294 . S
O79 C88 1.240 . S
O80 In78 2.326 . S
O80 C88 1.252 . S
C81 O84 1.252 . S
C81 O85 1.260 . S
C82 O89 1.240 . S
C82 O90 1.252 . S
C83 O86 1.252 . S
C83 O87 1.260 . S
O84 In78 2.266 . S
O84 C81 1.252 . S
O85 In78 2.326 . S
O85 C81 1.260 . S
O86 In78 2.266 . S
O86 C83 1.252 . S
O87 In78 2.326 . S
O87 C83 1.260 . S
C88 O79 1.240 . S
C88 O80 1.252 . S
O89 In78 2.294 . S
O89 C82 1.240 . S
O90 In78 2.326 . S
O90 C82 1.252 . S
In91 O92 2.294 . S
In91 O93 2.326 . S
In91 O97 2.266 . S
In91 O98 2.326 . S
In91 O99 2.266 . S
In91 O100 2.326 . S
In91 O102 2.294 . S
In91 O103 2.326 . S
O92 In91 2.294 . S
O92 C101 1.240 . S
O93 In91 2.326 . S
O93 C101 1.252 . S
C94 O97 1.252 . S
C94 O98 1.260 . S
C95 O102 1.240 . S
C95 O103 1.252 . S
C96 O99 1.252 . S
C96 O100 1.260 . S
O97 In91 2.266 . S
O97 C94 1.252 . S
O98 In91 2.326 . S
O98 C94 1.260 . S
O99 In91 2.266 . S
O99 C96 1.252 . S
O100 In91 2.326 . S
O100 C96 1.260 . S
C101 O92 1.240 . S
C101 O93 1.252 . S
O102 In91 2.294 . S
O102 C95 1.240 . S
O103 In91 2.326 . S
O103 C95 1.252 . S
In104 O105 2.294 . S
In104 O106 2.326 . S
In104 O110 2.266 . S
In104 O111 2.326 . S
In104 O112 2.266 . S
In104 O113 2.326 . S
In104 O115 2.294 . S
In104 O116 2.326 . S
O105 In104 2.294 . S
O105 C114 1.240 . S
O106 In104 2.326 . S
O106 C114 1.252 . S
C107 O110 1.252 . S
C107 O111 1.260 . S
C108 O115 1.240 . S
C108 O116 1.252 . S
C109 O112 1.252 . S
C109 O113 1.260 . S
O110 In104 2.266 . S
O110 C107 1.252 . S
O111 In104 2.326 . S
O111 C107 1.260 . S
O112 In104 2.266 . S
O112 C109 1.252 . S
O113 In104 2.326 . S
O113 C109 1.260 . S
C114 O105 1.240 . S
C114 O106 1.252 . S
O115 In104 2.294 . S
O115 C108 1.240 . S
O116 In104 2.326 . S
O116 C108 1.252 . S
In117 O118 2.294 . S
In117 O119 2.326 . S
In117 O123 2.266 . S
In117 O124 2.326 . S
In117 O125 2.266 . S
In117 O126 2.326 . S
In117 O128 2.294 . S
In117 O129 2.326 . S
O118 In117 2.294 . S
O118 C127 1.240 . S
O119 In117 2.326 . S
O119 C127 1.252 . S
C120 O123 1.252 . S
C120 O124 1.260 . S
C121 O128 1.240 . S
C121 O129 1.252 . S
C122 O125 1.252 . S
C122 O126 1.260 . S
O123 In117 2.266 . S
O123 C120 1.252 . S
O124 In117 2.326 . S
O124 C120 1.260 . S
O125 In117 2.266 . S
O125 C122 1.252 . S
O126 In117 2.326 . S
O126 C122 1.260 . S
C127 O118 1.240 . S
C127 O119 1.252 . S
O128 In117 2.294 . S
O128 C121 1.240 . S
O129 In117 2.326 . S
O129 C121 1.252 . S
In130 O131 2.294 . S
In130 O132 2.326 . S
In130 O136 2.266 . S
In130 O137 2.326 . S
In130 O138 2.266 . S
In130 O139 2.326 . S
In130 O141 2.294 . S
In130 O142 2.326 . S
O131 In130 2.294 . S
O131 C140 1.240 . S
O132 In130 2.326 . S
O132 C140 1.252 . S
C133 O136 1.252 . S
C133 O137 1.260 . S
C134 O141 1.240 . S
C134 O142 1.252 . S
C135 O138 1.252 . S
C135 O139 1.260 . S
O136 In130 2.266 . S
O136 C133 1.252 . S
O137 In130 2.326 . S
O137 C133 1.260 . S
O138 In130 2.266 . S
O138 C135 1.252 . S
O139 In130 2.326 . S
O139 C135 1.260 . S
C140 O131 1.240 . S
C140 O132 1.252 . S
O141 In130 2.294 . S
O141 C134 1.240 . S
O142 In130 2.326 . S
O142 C134 1.252 . S
In143 O144 2.294 . S
In143 O145 2.326 . S
In143 O149 2.266 . S
In143 O150 2.326 . S
In143 O151 2.266 . S
In143 O152 2.326 . S
In143 O154 2.294 . S
In143 O155 2.326 . S
O144 In143 2.294 . S
O144 C153 1.240 . S
O145 In143 2.326 . S
O145 C153 1.252 . S
C146 O149 1.252 . S
C146 O150 1.260 . S
C147 O154 1.240 . S
C147 O155 1.252 . S
C148 O151 1.252 . S
C148 O152 1.260 . S
O149 In143 2.266 . S
O149 C146 1.252 . S
O150 In143 2.326 . S
O150 C146 1.260 . S
O151 In143 2.266 . S
O151 C148 1.252 . S
O152 In143 2.326 . S
O152 C148 1.260 . S
C153 O144 1.240 . S
C153 O145 1.252 . S
O154 In143 2.294 . S
O154 C147 1.240 . S
O155 In143 2.326 . S
O155 C147 1.252 . S
In156 O157 2.294 . S
In156 O158 2.326 . S
In156 O162 2.266 . S
In156 O163 2.326 . S
In156 O164 2.266 . S
In156 O165 2.326 . S
In156 O167 2.294 . S
In156 O168 2.326 . S
O157 In156 2.294 . S
O157 C166 1.240 . S
O158 In156 2.326 . S
O158 C166 1.252 . S
C159 O162 1.252 . S
C159 O163 1.260 . S
C160 O167 1.240 . S
C160 O168 1.252 . S
C161 O164 1.252 . S
C161 O165 1.260 . S
O162 In156 2.266 . S
O162 C159 1.252 . S
O163 In156 2.326 . S
O163 C159 1.260 . S
O164 In156 2.266 . S
O164 C161 1.252 . S
O165 In156 2.326 . S
O165 C161 1.260 . S
C166 O157 1.240 . S
C166 O158 1.252 . S
O167 In156 2.294 . S
O167 C160 1.240 . S
O168 In156 2.326 . S
O168 C160 1.252 . S
In169 O170 2.294 . S
In169 O171 2.326 . S
In169 O175 2.266 . S
In169 O176 2.326 . S
In169 O177 2.266 . S
In169 O178 2.326 . S
In169 O180 2.294 . S
In169 O181 2.326 . S
O170 In169 2.294 . S
O170 C179 1.240 . S
O171 In169 2.326 . S
O171 C179 1.252 . S
C172 O175 1.252 . S
C172 O176 1.260 . S
C173 O180 1.240 . S
C173 O181 1.252 . S
C174 O177 1.252 . S
C174 O178 1.260 . S
O175 In169 2.266 . S
O175 C172 1.252 . S
O176 In169 2.326 . S
O176 C172 1.260 . S
O177 In169 2.266 . S
O177 C174 1.252 . S
O178 In169 2.326 . S
O178 C174 1.260 . S
C179 O170 1.240 . S
C179 O171 1.252 . S
O180 In169 2.294 . S
O180 C173 1.240 . S
O181 In169 2.326 . S
O181 C173 1.252 . S
In182 O183 2.294 . S
In182 O184 2.326 . S
In182 O188 2.266 . S
In182 O189 2.326 . S
In182 O190 2.266 . S
In182 O191 2.326 . S
In182 O193 2.294 . S
In182 O194 2.326 . S
O183 In182 2.294 . S
O183 C192 1.240 . S
O184 In182 2.326 . S
O184 C192 1.252 . S
C185 O188 1.252 . S
C185 O189 1.260 . S
C186 O193 1.240 . S
C186 O194 1.252 . S
C187 O190 1.252 . S
C187 O191 1.260 . S
O188 In182 2.266 . S
O188 C185 1.252 . S
O189 In182 2.326 . S
O189 C185 1.260 . S
O190 In182 2.266 . S
O190 C187 1.252 . S
O191 In182 2.326 . S
O191 C187 1.260 . S
C192 O183 1.240 . S
C192 O184 1.252 . S
O193 In182 2.294 . S
O193 C186 1.240 . S
O194 In182 2.326 . S
O194 C186 1.252 . S
In195 O196 2.294 . S
In195 O197 2.326 . S
In195 O201 2.266 . S
In195 O202 2.326 . S
In195 O203 2.266 . S
In195 O204 2.326 . S
In195 O206 2.294 . S
In195 O207 2.326 . S
O196 In195 2.294 . S
O196 C205 1.240 . S
O197 In195 2.326 . S
O197 C205 1.252 . S
C198 O201 1.252 . S
C198 O202 1.260 . S
C199 O206 1.240 . S
C199 O207 1.252 . S
C200 O203 1.252 . S
C200 O204 1.260 . S
O201 In195 2.266 . S
O201 C198 1.252 . S
O202 In195 2.326 . S
O202 C198 1.260 . S
O203 In195 2.266 . S
O203 C200 1.252 . S
O204 In195 2.326 . S
O204 C200 1.260 . S
C205 O196 1.240 . S
C205 O197 1.252 . S
O206 In195 2.294 . S
O206 C199 1.240 . S
O207 In195 2.326 . S
O207 C199 1.252 . S
In208 O209 2.294 . S
In208 O210 2.326 . S
In208 O214 2.266 . S
In208 O215 2.326 . S
In208 O216 2.266 . S
In208 O217 2.326 . S
In208 O219 2.294 . S
In208 O220 2.326 . S
O209 In208 2.294 . S
O209 C218 1.240 . S
O210 In208 2.326 . S
O210 C218 1.252 . S
C211 O214 1.252 . S
C211 O215 1.260 . S
C212 O219 1.240 . S
C212 O220 1.252 . S
C213 O216 1.252 . S
C213 O217 1.260 . S
O214 In208 2.266 . S
O214 C211 1.252 . S
O215 In208 2.326 . S
O215 C211 1.260 . S
O216 In208 2.266 . S
O216 C213 1.252 . S
O217 In208 2.326 . S
O217 C213 1.260 . S
C218 O209 1.240 . S
C218 O210 1.252 . S
O219 In208 2.294 . S
O219 C212 1.240 . S
O220 In208 2.326 . S
O220 C212 1.252 . S
In221 O222 2.294 . S
In221 O223 2.326 . S
In221 O227 2.266 . S
In221 O228 2.326 . S
In221 O229 2.266 . S
In221 O230 2.326 . S
In221 O232 2.294 . S
In221 O233 2.326 . S
O222 In221 2.294 . S
O222 C231 1.240 . S
O223 In221 2.326 . S
O223 C231 1.252 . S
C224 O227 1.252 . S
C224 O228 1.260 . S
C225 O232 1.240 . S
C225 O233 1.252 . S
C226 O229 1.252 . S
C226 O230 1.260 . S
O227 In221 2.266 . S
O227 C224 1.252 . S
O228 In221 2.326 . S
O228 C224 1.260 . S
O229 In221 2.266 . S
O229 C226 1.252 . S
O230 In221 2.326 . S
O230 C226 1.260 . S
C231 O222 1.240 . S
C231 O223 1.252 . S
O232 In221 2.294 . S
O232 C225 1.240 . S
O233 In221 2.326 . S
O233 C225 1.252 . S
In234 O235 2.294 . S
In234 O236 2.326 . S
In234 O240 2.266 . S
In234 O241 2.326 . S
In234 O242 2.266 . S
In234 O243 2.326 . S
In234 O245 2.294 . S
In234 O246 2.326 . S
O235 In234 2.294 . S
O235 C244 1.240 . S
O236 In234 2.326 . S
O236 C244 1.252 . S
C237 O240 1.252 . S
C237 O241 1.260 . S
C238 O245 1.240 . S
C238 O246 1.252 . S
C239 O242 1.252 . S
C239 O243 1.260 . S
O240 In234 2.266 . S
O240 C237 1.252 . S
O241 In234 2.326 . S
O241 C237 1.260 . S
O242 In234 2.266 . S
O242 C239 1.252 . S
O243 In234 2.326 . S
O243 C239 1.260 . S
C244 O235 1.240 . S
C244 O236 1.252 . S
O245 In234 2.294 . S
O245 C238 1.240 . S
O246 In234 2.326 . S
O246 C238 1.252 . S
In247 O248 2.294 . S
In247 O249 2.326 . S
In247 O253 2.266 . S
In247 O254 2.326 . S
In247 O255 2.266 . S
In247 O256 2.326 . S
In247 O258 2.294 . S
In247 O259 2.326 . S
O248 In247 2.294 . S
O248 C257 1.240 . S
O249 In247 2.326 . S
O249 C257 1.252 . S
C250 O253 1.252 . S
C250 O254 1.260 . S
C251 O258 1.240 . S
C251 O259 1.252 . S
C252 O255 1.252 . S
C252 O256 1.260 . S
O253 In247 2.266 . S
O253 C250 1.252 . S
O254 In247 2.326 . S
O254 C250 1.260 . S
O255 In247 2.266 . S
O255 C252 1.252 . S
O256 In247 2.326 . S
O256 C252 1.260 . S
C257 O248 1.240 . S
C257 O249 1.252 . S
O258 In247 2.294 . S
O258 C251 1.240 . S
O259 In247 2.326 . S
O259 C251 1.252 . S
In260 O261 2.294 . S
In260 O262 2.326 . S
In260 O266 2.266 . S
In260 O267 2.326 . S
In260 O268 2.266 . S
In260 O269 2.326 . S
In260 O271 2.294 . S
In260 O272 2.326 . S
O261 In260 2.294 . S
O261 C270 1.240 . S
O262 In260 2.326 . S
O262 C270 1.252 . S
C263 O266 1.252 . S
C263 O267 1.260 . S
C264 O271 1.240 . S
C264 O272 1.252 . S
C265 O268 1.252 . S
C265 O269 1.260 . S
O266 In260 2.266 . S
O266 C263 1.252 . S
O267 In260 2.326 . S
O267 C263 1.260 . S
O268 In260 2.266 . S
O268 C265 1.252 . S
O269 In260 2.326 . S
O269 C265 1.260 . S
C270 O261 1.240 . S
C270 O262 1.252 . S
O271 In260 2.294 . S
O271 C264 1.240 . S
O272 In260 2.326 . S
O272 C264 1.252 . S
In273 O274 2.294 . S
In273 O275 2.326 . S
In273 O279 2.266 . S
In273 O280 2.326 . S
In273 O281 2.266 . S
In273 O282 2.326 . S
In273 O284 2.294 . S
In273 O285 2.326 . S
O274 In273 2.294 . S
O274 C283 1.240 . S
O275 In273 2.326 . S
O275 C283 1.252 . S
C276 O279 1.252 . S
C276 O280 1.260 . S
C277 O284 1.240 . S
C277 O285 1.252 . S
C278 O281 1.252 . S
C278 O282 1.260 . S
O279 In273 2.266 . S
O279 C276 1.252 . S
O280 In273 2.326 . S
O280 C276 1.260 . S
O281 In273 2.266 . S
O281 C278 1.252 . S
O282 In273 2.326 . S
O282 C278 1.260 . S
C283 O274 1.240 . S
C283 O275 1.252 . S
O284 In273 2.294 . S
O284 C277 1.240 . S
O285 In273 2.326 . S
O285 C277 1.252 . S
In286 O287 2.294 . S
In286 O288 2.326 . S
In286 O292 2.266 . S
In286 O293 2.326 . S
In286 O294 2.266 . S
In286 O295 2.326 . S
In286 O297 2.294 . S
In286 O298 2.326 . S
O287 In286 2.294 . S
O287 C296 1.240 . S
O288 In286 2.326 . S
O288 C296 1.252 . S
C289 O292 1.252 . S
C289 O293 1.260 . S
C290 O297 1.240 . S
C290 O298 1.252 . S
C291 O294 1.252 . S
C291 O295 1.260 . S
O292 In286 2.266 . S
O292 C289 1.252 . S
O293 In286 2.326 . S
O293 C289 1.260 . S
O294 In286 2.266 . S
O294 C291 1.252 . S
O295 In286 2.326 . S
O295 C291 1.260 . S
C296 O287 1.240 . S
C296 O288 1.252 . S
O297 In286 2.294 . S
O297 C290 1.240 . S
O298 In286 2.326 . S
O298 C290 1.252 . S
In299 O300 2.294 . S
In299 O301 2.326 . S
In299 O305 2.266 . S
In299 O306 2.326 . S
In299 O307 2.266 . S
In299 O308 2.326 . S
In299 O310 2.294 . S
In299 O311 2.326 . S
O300 In299 2.294 . S
O300 C309 1.240 . S
O301 In299 2.326 . S
O301 C309 1.252 . S
C302 O305 1.252 . S
C302 O306 1.260 . S
C303 O310 1.240 . S
C303 O311 1.252 . S
C304 O307 1.252 . S
C304 O308 1.260 . S
O305 In299 2.266 . S
O305 C302 1.252 . S
O306 In299 2.326 . S
O306 C302 1.260 . S
O307 In299 2.266 . S
O307 C304 1.252 . S
O308 In299 2.326 . S
O308 C304 1.260 . S
C309 O300 1.240 . S
C309 O301 1.252 . S
O310 In299 2.294 . S
O310 C303 1.240 . S
O311 In299 2.326 . S
O311 C303 1.252 . S
C312 C313 1.369 . S
C312 C314 1.419 . S
C312 H316 0.930 . S
C313 C312 1.369 . S
C313 C322 1.429 . S
C314 C312 1.419 . S
C314 C315 1.363 . S
C314 H317 0.929 . S
C315 C314 1.363 . S
C315 C321 1.428 . S
H316 C312 0.930 . S
H317 C314 0.929 . S
S318 N319 1.613 . S
S318 N320 1.610 . S
N319 S318 1.613 . S
N319 C322 1.350 . S
N320 S318 1.610 . S
N320 C321 1.351 . S
C321 C315 1.428 . S
C321 N320 1.351 . S
C321 C322 1.434 . S
C322 C313 1.429 . S
C322 N319 1.350 . S
C322 C321 1.434 . S
C323 C324 1.369 . S
C323 C325 1.419 . S
C323 H327 0.930 . S
C324 C323 1.369 . S
C324 C333 1.429 . S
C325 C323 1.419 . S
C325 C326 1.363 . S
C325 H328 0.929 . S
C326 C325 1.363 . S
C326 C332 1.428 . S
H327 C323 0.930 . S
H328 C325 0.929 . S
S329 N330 1.613 . S
S329 N331 1.610 . S
N330 S329 1.613 . S
N330 C333 1.350 . S
N331 S329 1.610 . S
N331 C332 1.351 . S
C332 C326 1.428 . S
C332 N331 1.351 . S
C332 C333 1.434 . S
C333 C324 1.429 . S
C333 N330 1.350 . S
C333 C332 1.434 . S
C334 C335 1.369 . S
C334 C336 1.419 . S
C334 H338 0.930 . S
C335 C334 1.369 . S
C335 C344 1.429 . S
C336 C334 1.419 . S
C336 C337 1.363 . S
C336 H339 0.929 . S
C337 C336 1.363 . S
C337 C343 1.428 . S
H338 C334 0.930 . S
H339 C336 0.929 . S
S340 N341 1.613 . S
S340 N342 1.610 . S
N341 S340 1.613 . S
N341 C344 1.350 . S
N342 S340 1.610 . S
N342 C343 1.351 . S
C343 C337 1.428 . S
C343 N342 1.351 . S
C343 C344 1.434 . S
C344 C335 1.429 . S
C344 N341 1.350 . S
C344 C343 1.434 . S
C345 C346 1.369 . S
C345 C347 1.419 . S
C345 H349 0.930 . S
C346 C345 1.369 . S
C346 C355 1.429 . S
C347 C345 1.419 . S
C347 C348 1.363 . S
C347 H350 0.929 . S
C348 C347 1.363 . S
C348 C354 1.428 . S
H349 C345 0.930 . S
H350 C347 0.929 . S
S351 N352 1.613 . S
S351 N353 1.610 . S
N352 S351 1.613 . S
N352 C355 1.350 . S
N353 S351 1.610 . S
N353 C354 1.351 . S
C354 C348 1.428 . S
C354 N353 1.351 . S
C354 C355 1.434 . S
C355 C346 1.429 . S
C355 N352 1.350 . S
C355 C354 1.434 . S
C356 C357 1.369 . S
C356 C358 1.419 . S
C356 H360 0.930 . S
C357 C356 1.369 . S
C357 C366 1.429 . S
C358 C356 1.419 . S
C358 C359 1.363 . S
C358 H361 0.929 . S
C359 C358 1.363 . S
C359 C365 1.428 . S
H360 C356 0.930 . S
H361 C358 0.929 . S
S362 N363 1.613 . S
S362 N364 1.610 . S
N363 S362 1.613 . S
N363 C366 1.350 . S
N364 S362 1.610 . S
N364 C365 1.351 . S
C365 C359 1.428 . S
C365 N364 1.351 . S
C365 C366 1.434 . S
C366 C357 1.429 . S
C366 N363 1.350 . S
C366 C365 1.434 . S
C367 C368 1.369 . S
C367 C369 1.419 . S
C367 H371 0.930 . S
C368 C367 1.369 . S
C368 C377 1.429 . S
C369 C367 1.419 . S
C369 C370 1.363 . S
C369 H372 0.929 . S
C370 C369 1.363 . S
C370 C376 1.428 . S
H371 C367 0.930 . S
H372 C369 0.929 . S
S373 N374 1.613 . S
S373 N375 1.610 . S
N374 S373 1.613 . S
N374 C377 1.350 . S
N375 S373 1.610 . S
N375 C376 1.351 . S
C376 C370 1.428 . S
C376 N375 1.351 . S
C376 C377 1.434 . S
C377 C368 1.429 . S
C377 N374 1.350 . S
C377 C376 1.434 . S
C378 C379 1.369 . S
C378 C380 1.419 . S
C378 H382 0.930 . S
C379 C378 1.369 . S
C379 C388 1.429 . S
C380 C378 1.419 . S
C380 C381 1.363 . S
C380 H383 0.929 . S
C381 C380 1.363 . S
C381 C387 1.428 . S
H382 C378 0.930 . S
H383 C380 0.929 . S
S384 N385 1.613 . S
S384 N386 1.610 . S
N385 S384 1.613 . S
N385 C388 1.350 . S
N386 S384 1.610 . S
N386 C387 1.351 . S
C387 C381 1.428 . S
C387 N386 1.351 . S
C387 C388 1.434 . S
C388 C379 1.429 . S
C388 N385 1.350 . S
C388 C387 1.434 . S
C389 C390 1.369 . S
C389 C391 1.419 . S
C389 H393 0.930 . S
C390 C389 1.369 . S
C390 C399 1.429 . S
C391 C389 1.419 . S
C391 C392 1.363 . S
C391 H394 0.929 . S
C392 C391 1.363 . S
C392 C398 1.428 . S
H393 C389 0.930 . S
H394 C391 0.929 . S
S395 N396 1.613 . S
S395 N397 1.610 . S
N396 S395 1.613 . S
N396 C399 1.350 . S
N397 S395 1.610 . S
N397 C398 1.351 . S
C398 C392 1.428 . S
C398 N397 1.351 . S
C398 C399 1.434 . S
C399 C390 1.429 . S
C399 N396 1.350 . S
C399 C398 1.434 . S
C400 C401 1.369 . S
C400 C402 1.419 . S
C400 H404 0.930 . S
C401 C400 1.369 . S
C401 C410 1.429 . S
C402 C400 1.419 . S
C402 C403 1.363 . S
C402 H405 0.929 . S
C403 C402 1.363 . S
C403 C409 1.428 . S
H404 C400 0.930 . S
H405 C402 0.929 . S
S406 N407 1.613 . S
S406 N408 1.610 . S
N407 S406 1.613 . S
N407 C410 1.350 . S
N408 S406 1.610 . S
N408 C409 1.351 . S
C409 C403 1.428 . S
C409 N408 1.351 . S
C409 C410 1.434 . S
C410 C401 1.429 . S
C410 N407 1.350 . S
C410 C409 1.434 . S
C411 C412 1.369 . S
C411 C413 1.419 . S
C411 H415 0.930 . S
C412 C411 1.369 . S
C412 C421 1.429 . S
C413 C411 1.419 . S
C413 C414 1.363 . S
C413 H416 0.929 . S
C414 C413 1.363 . S
C414 C420 1.428 . S
H415 C411 0.930 . S
H416 C413 0.929 . S
S417 N418 1.613 . S
S417 N419 1.610 . S
N418 S417 1.613 . S
N418 C421 1.350 . S
N419 S417 1.610 . S
N419 C420 1.351 . S
C420 C414 1.428 . S
C420 N419 1.351 . S
C420 C421 1.434 . S
C421 C412 1.429 . S
C421 N418 1.350 . S
C421 C420 1.434 . S
C422 C423 1.369 . S
C422 C424 1.419 . S
C422 H426 0.930 . S
C423 C422 1.369 . S
C423 C432 1.429 . S
C424 C422 1.419 . S
C424 C425 1.363 . S
C424 H427 0.929 . S
C425 C424 1.363 . S
C425 C431 1.428 . S
H426 C422 0.930 . S
H427 C424 0.929 . S
S428 N429 1.613 . S
S428 N430 1.610 . S
N429 S428 1.613 . S
N429 C432 1.350 . S
N430 S428 1.610 . S
N430 C431 1.351 . S
C431 C425 1.428 . S
C431 N430 1.351 . S
C431 C432 1.434 . S
C432 C423 1.429 . S
C432 N429 1.350 . S
C432 C431 1.434 . S
C433 C434 1.369 . S
C433 C435 1.419 . S
C433 H437 0.930 . S
C434 C433 1.369 . S
C434 C443 1.429 . S
C435 C433 1.419 . S
C435 C436 1.363 . S
C435 H438 0.929 . S
C436 C435 1.363 . S
C436 C442 1.428 . S
H437 C433 0.930 . S
H438 C435 0.929 . S
S439 N440 1.613 . S
S439 N441 1.610 . S
N440 S439 1.613 . S
N440 C443 1.350 . S
N441 S439 1.610 . S
N441 C442 1.351 . S
C442 C436 1.428 . S
C442 N441 1.351 . S
C442 C443 1.434 . S
C443 C434 1.429 . S
C443 N440 1.350 . S
C443 C442 1.434 . S
C444 C445 1.369 . S
C444 C446 1.419 . S
C444 H448 0.930 . S
C445 C444 1.369 . S
C445 C454 1.429 1_565 S
C446 C444 1.419 . S
C446 C447 1.363 1_565 S
C446 H449 0.929 . S
C447 C446 1.363 1_545 S
C447 C453 1.428 . S
H448 C444 0.930 . S
H449 C446 0.929 . S
S450 N451 1.613 . S
S450 N452 1.610 . S
N451 S450 1.613 . S
N451 C454 1.350 . S
N452 S450 1.610 . S
N452 C453 1.351 . S
C453 C447 1.428 . S
C453 N452 1.351 . S
C453 C454 1.434 . S
C454 C445 1.429 1_545 S
C454 N451 1.350 . S
C454 C453 1.434 . S
C455 C456 1.369 . S
C455 C457 1.419 . S
C455 H459 0.930 . S
C456 C455 1.369 . S
C456 C465 1.429 1_655 S
C457 C455 1.419 . S
C457 C458 1.363 1_655 S
C457 H460 0.929 . S
C458 C457 1.363 1_455 S
C458 C464 1.428 . S
H459 C455 0.930 . S
H460 C457 0.929 . S
S461 N462 1.613 . S
S461 N463 1.610 . S
N462 S461 1.613 . S
N462 C465 1.350 . S
N463 S461 1.610 . S
N463 C464 1.351 . S
C464 C458 1.428 . S
C464 N463 1.351 . S
C464 C465 1.434 . S
C465 C456 1.429 1_455 S
C465 N462 1.350 . S
C465 C464 1.434 . S
C466 C467 1.369 . S
C466 C468 1.419 1_545 S
C466 H470 0.930 . S
C467 C466 1.369 . S
C467 C476 1.429 . S
C468 C466 1.419 1_565 S
C468 C469 1.363 . S
C468 H471 0.929 . S
C469 C468 1.363 . S
C469 C475 1.428 . S
H470 C466 0.930 . S
H471 C468 0.929 . S
S472 N473 1.613 1_565 S
S472 N474 1.610 . S
N473 S472 1.613 1_545 S
N473 C476 1.350 . S
N474 S472 1.610 . S
N474 C475 1.351 . S
C475 C469 1.428 . S
C475 N474 1.351 . S
C475 C476 1.434 1_565 S
C476 C467 1.429 . S
C476 N473 1.350 . S
C476 C475 1.434 1_545 S
C477 C478 1.369 1_655 S
C477 C479 1.419 . S
C477 H481 0.930 . S
C478 C477 1.369 1_455 S
C478 C487 1.429 . S
C479 C477 1.419 . S
C479 C480 1.363 . S
C479 H482 0.929 . S
C480 C479 1.363 . S
C480 C486 1.428 1_655 S
H481 C477 0.930 . S
H482 C479 0.929 . S
S483 N484 1.613 . S
S483 N485 1.610 . S
N484 S483 1.613 . S
N484 C487 1.350 . S
N485 S483 1.610 . S
N485 C486 1.351 . S
C486 C480 1.428 1_455 S
C486 N485 1.351 . S
C486 C487 1.434 . S
C487 C478 1.429 . S
C487 N484 1.350 . S
C487 C486 1.434 . S
C488 C489 1.369 . S
C488 C490 1.419 1_565 S
C488 H492 0.930 . S
C489 C488 1.369 . S
C489 C498 1.429 . S
C490 C488 1.419 1_545 S
C490 C491 1.363 . S
C490 H493 0.929 . S
C491 C490 1.363 . S
C491 C497 1.428 . S
H492 C488 0.930 . S
H493 C490 0.929 . S
S494 N495 1.613 . S
S494 N496 1.610 1_565 S
N495 S494 1.613 . S
N495 C498 1.350 . S
N496 S494 1.610 1_545 S
N496 C497 1.351 . S
C497 C491 1.428 . S
C497 N496 1.351 . S
C497 C498 1.434 1_545 S
C498 C489 1.429 . S
C498 N495 1.350 . S
C498 C497 1.434 1_565 S
C499 C500 1.369 1_455 S
C499 C501 1.419 . S
C499 H503 0.930 . S
C500 C499 1.369 1_655 S
C500 C509 1.429 . S
C501 C499 1.419 . S
C501 C502 1.363 . S
C501 H504 0.929 . S
C502 C501 1.363 . S
C502 C508 1.428 1_455 S
H503 C499 0.930 . S
H504 C501 0.929 . S
S505 N506 1.613 . S
S505 N507 1.610 . S
N506 S505 1.613 . S
N506 C509 1.350 . S
N507 S505 1.610 . S
N507 C508 1.351 . S
C508 C502 1.428 1_655 S
C508 N507 1.351 . S
C508 C509 1.434 . S
C509 C500 1.429 . S
C509 N506 1.350 . S
C509 C508 1.434 . S
C510 C511 1.369 . S
C510 C512 1.419 . S
C510 H514 0.930 . S
C511 C510 1.369 . S
C511 C520 1.429 1_565 S
C512 C510 1.419 . S
C512 C513 1.363 1_565 S
C512 H515 0.929 . S
C513 C512 1.363 1_545 S
C513 C519 1.428 . S
H514 C510 0.930 . S
H515 C512 0.929 . S
S516 N517 1.613 . S
S516 N518 1.610 . S
N517 S516 1.613 . S
N517 C520 1.350 . S
N518 S516 1.610 . S
N518 C519 1.351 . S
C519 C513 1.428 . S
C519 N518 1.351 . S
C519 C520 1.434 . S
C520 C511 1.429 1_545 S
C520 N517 1.350 . S
C520 C519 1.434 . S
C521 C522 1.369 . S
C521 C523 1.419 1_455 S
C521 H525 0.930 . S
C522 C521 1.369 . S
C522 C531 1.429 . S
C523 C521 1.419 1_655 S
C523 C524 1.363 . S
C523 H526 0.929 . S
C524 C523 1.363 . S
C524 C530 1.428 . S
H525 C521 0.930 . S
H526 C523 0.929 . S
S527 N528 1.613 . S
S527 N529 1.610 1_455 S
N528 S527 1.613 . S
N528 C531 1.350 . S
N529 S527 1.610 1_655 S
N529 C530 1.351 . S
C530 C524 1.428 . S
C530 N529 1.351 . S
C530 C531 1.434 1_655 S
C531 C522 1.429 . S
C531 N528 1.350 . S
C531 C530 1.434 1_455 S
C532 C533 1.369 . S
C532 C534 1.419 . S
C532 H536 0.930 . S
C533 C532 1.369 . S
C533 C542 1.429 1_556 S
C534 C532 1.419 . S
C534 C535 1.363 1_556 S
C534 H537 0.929 . S
C535 C534 1.363 1_554 S
C535 C541 1.428 . S
H536 C532 0.930 . S
H537 C534 0.929 . S
S538 N539 1.613 . S
S538 N540 1.610 . S
N539 S538 1.613 . S
N539 C542 1.350 . S
N540 S538 1.610 . S
N540 C541 1.351 . S
C541 C535 1.428 . S
C541 N540 1.351 . S
C541 C542 1.434 . S
C542 C533 1.429 1_554 S
C542 N539 1.350 . S
C542 C541 1.434 . S
C543 C544 1.369 . S
C543 C545 1.419 1_554 S
C543 H547 0.930 . S
C544 C543 1.369 . S
C544 C553 1.429 . S
C545 C543 1.419 1_556 S
C545 C546 1.363 . S
C545 H548 0.929 . S
C546 C545 1.363 . S
C546 C552 1.428 . S
H547 C543 0.930 . S
H548 C545 0.929 . S
S549 N550 1.613 . S
S549 N551 1.610 1_554 S
N550 S549 1.613 . S
N550 C553 1.350 . S
N551 S549 1.610 1_556 S
N551 C552 1.351 . S
C552 C546 1.428 . S
C552 N551 1.351 . S
C552 C553 1.434 1_556 S
C553 C544 1.429 . S
C553 N550 1.350 . S
C553 C552 1.434 1_554 S
C554 C555 1.369 . S
C554 C556 1.419 . S
C554 H558 0.930 . S
C555 C554 1.369 . S
C555 C564 1.429 1_556 S
C556 C554 1.419 . S
C556 C557 1.363 1_556 S
C556 H559 0.929 . S
C557 C556 1.363 1_554 S
C557 C563 1.428 . S
H558 C554 0.930 . S
H559 C556 0.929 . S
S560 N561 1.613 . S
S560 N562 1.610 . S
N561 S560 1.613 . S
N561 C564 1.350 . S
N562 S560 1.610 . S
N562 C563 1.351 . S
C563 C557 1.428 . S
C563 N562 1.351 . S
C563 C564 1.434 . S
C564 C555 1.429 1_554 S
C564 N561 1.350 . S
C564 C563 1.434 . S
C565 C566 1.369 1_556 S
C565 C567 1.419 . S
C565 H569 0.930 . S
C566 C565 1.369 1_554 S
C566 C575 1.429 . S
C567 C565 1.419 . S
C567 C568 1.363 . S
C567 H570 0.929 . S
C568 C567 1.363 . S
C568 C574 1.428 1_556 S
H569 C565 0.930 . S
H570 C567 0.929 . S
S571 N572 1.613 . S
S571 N573 1.610 . S
N572 S571 1.613 . S
N572 C575 1.350 . S
N573 S571 1.610 . S
N573 C574 1.351 . S
C574 C568 1.428 1_554 S
C574 N573 1.351 . S
C574 C575 1.434 . S
C575 C566 1.429 . S
C575 N572 1.350 . S
C575 C574 1.434 . S
C576 C577 1.369 . S
C576 C578 1.419 . S
C576 H580 0.930 . S
C577 C576 1.369 . S
C577 C586 1.429 . S
C578 C576 1.419 . S
C578 C579 1.363 . S
C578 H581 0.929 . S
C579 C578 1.363 . S
C579 C585 1.428 . S
H580 C576 0.930 . S
H581 C578 0.929 . S
S582 N583 1.613 . S
S582 N584 1.610 . S
N583 S582 1.613 . S
N583 C586 1.350 . S
N584 S582 1.610 . S
N584 C585 1.351 . S
C585 C579 1.428 . S
C585 N584 1.351 . S
C585 C586 1.434 . S
C586 C577 1.429 . S
C586 N583 1.350 . S
C586 C585 1.434 . S
C587 C588 1.369 . S
C587 C589 1.419 . S
C587 H591 0.930 . S
C588 C587 1.369 . S
C588 C597 1.429 . S
C589 C587 1.419 . S
C589 C590 1.363 . S
C589 H592 0.929 . S
C590 C589 1.363 . S
C590 C596 1.428 . S
H591 C587 0.930 . S
H592 C589 0.929 . S
S593 N594 1.613 . S
S593 N595 1.610 . S
N594 S593 1.613 . S
N594 C597 1.350 . S
N595 S593 1.610 . S
N595 C596 1.351 . S
C596 C590 1.428 . S
C596 N595 1.351 . S
C596 C597 1.434 . S
C597 C588 1.429 . S
C597 N594 1.350 . S
C597 C596 1.434 . S
C598 C599 1.369 . S
C598 C600 1.419 . S
C598 H602 0.930 . S
C599 C598 1.369 . S
C599 C608 1.429 . S
C600 C598 1.419 . S
C600 C601 1.363 . S
C600 H603 0.929 . S
C601 C600 1.363 . S
C601 C607 1.428 . S
H602 C598 0.930 . S
H603 C600 0.929 . S
S604 N605 1.613 . S
S604 N606 1.610 . S
N605 S604 1.613 . S
N605 C608 1.350 . S
N606 S604 1.610 . S
N606 C607 1.351 . S
C607 C601 1.428 . S
C607 N606 1.351 . S
C607 C608 1.434 . S
C608 C599 1.429 . S
C608 N605 1.350 . S
C608 C607 1.434 . S
C609 C610 1.369 . S
C609 C611 1.419 . S
C609 H613 0.930 . S
C610 C609 1.369 . S
C610 C619 1.429 . S
C611 C609 1.419 . S
C611 C612 1.363 . S
C611 H614 0.929 . S
C612 C611 1.363 . S
C612 C618 1.428 . S
H613 C609 0.930 . S
H614 C611 0.929 . S
S615 N616 1.613 . S
S615 N617 1.610 . S
N616 S615 1.613 . S
N616 C619 1.350 . S
N617 S615 1.610 . S
N617 C618 1.351 . S
C618 C612 1.428 . S
C618 N617 1.351 . S
C618 C619 1.434 . S
C619 C610 1.429 . S
C619 N616 1.350 . S
C619 C618 1.434 . S
C620 C621 1.369 . S
C620 C622 1.419 . S
C620 H624 0.930 . S
C621 C620 1.369 . S
C621 C630 1.429 . S
C622 C620 1.419 . S
C622 C623 1.363 . S
C622 H625 0.929 . S
C623 C622 1.363 . S
C623 C629 1.428 . S
H624 C620 0.930 . S
H625 C622 0.929 . S
S626 N627 1.613 . S
S626 N628 1.610 . S
N627 S626 1.613 . S
N627 C630 1.350 . S
N628 S626 1.610 . S
N628 C629 1.351 . S
C629 C623 1.428 . S
C629 N628 1.351 . S
C629 C630 1.434 . S
C630 C621 1.429 . S
C630 N627 1.350 . S
C630 C629 1.434 . S
C631 C632 1.369 . S
C631 C633 1.419 . S
C631 H635 0.930 . S
C632 C631 1.369 . S
C632 C641 1.429 . S
C633 C631 1.419 . S
C633 C634 1.363 . S
C633 H636 0.929 . S
C634 C633 1.363 . S
C634 C640 1.428 . S
H635 C631 0.930 . S
H636 C633 0.929 . S
S637 N638 1.613 . S
S637 N639 1.610 . S
N638 S637 1.613 . S
N638 C641 1.350 . S
N639 S637 1.610 . S
N639 C640 1.351 . S
C640 C634 1.428 . S
C640 N639 1.351 . S
C640 C641 1.434 . S
C641 C632 1.429 . S
C641 N638 1.350 . S
C641 C640 1.434 . S
C642 C643 1.369 . S
C642 C644 1.419 . S
C642 H646 0.930 . S
C643 C642 1.369 . S
C643 C652 1.429 . S
C644 C642 1.419 . S
C644 C645 1.363 . S
C644 H647 0.929 . S
C645 C644 1.363 . S
C645 C651 1.428 . S
H646 C642 0.930 . S
H647 C644 0.929 . S
S648 N649 1.613 . S
S648 N650 1.610 . S
N649 S648 1.613 . S
N649 C652 1.350 . S
N650 S648 1.610 . S
N650 C651 1.351 . S
C651 C645 1.428 . S
C651 N650 1.351 . S
C651 C652 1.434 . S
C652 C643 1.429 . S
C652 N649 1.350 . S
C652 C651 1.434 . S
C653 C654 1.369 . S
C653 C655 1.419 . S
C653 H657 0.930 . S
C654 C653 1.369 . S
C654 C663 1.429 . S
C655 C653 1.419 . S
C655 C656 1.363 . S
C655 H658 0.929 . S
C656 C655 1.363 . S
C656 C662 1.428 . S
H657 C653 0.930 . S
H658 C655 0.929 . S
S659 N660 1.613 . S
S659 N661 1.610 . S
N660 S659 1.613 . S
N660 C663 1.350 . S
N661 S659 1.610 . S
N661 C662 1.351 . S
C662 C656 1.428 . S
C662 N661 1.351 . S
C662 C663 1.434 . S
C663 C654 1.429 . S
C663 N660 1.350 . S
C663 C662 1.434 . S
C664 C665 1.369 . S
C664 C666 1.419 . S
C664 H668 0.930 . S
C665 C664 1.369 . S
C665 C674 1.429 . S
C666 C664 1.419 . S
C666 C667 1.363 . S
C666 H669 0.929 . S
C667 C666 1.363 . S
C667 C673 1.428 . S
H668 C664 0.930 . S
H669 C666 0.929 . S
S670 N671 1.613 . S
S670 N672 1.610 . S
N671 S670 1.613 . S
N671 C674 1.350 . S
N672 S670 1.610 . S
N672 C673 1.351 . S
C673 C667 1.428 . S
C673 N672 1.351 . S
C673 C674 1.434 . S
C674 C665 1.429 . S
C674 N671 1.350 . S
C674 C673 1.434 . S
C675 C676 1.369 . S
C675 C677 1.419 . S
C675 H679 0.930 . S
C676 C675 1.369 . S
C676 C685 1.429 . S
C677 C675 1.419 . S
C677 C678 1.363 . S
C677 H680 0.929 . S
C678 C677 1.363 . S
C678 C684 1.428 . S
H679 C675 0.930 . S
H680 C677 0.929 . S
S681 N682 1.613 . S
S681 N683 1.610 . S
N682 S681 1.613 . S
N682 C685 1.350 . S
N683 S681 1.610 . S
N683 C684 1.351 . S
C684 C678 1.428 . S
C684 N683 1.351 . S
C684 C685 1.434 . S
C685 C676 1.429 . S
C685 N682 1.350 . S
C685 C684 1.434 . S
C686 C687 1.369 . S
C686 C688 1.419 . S
C686 H690 0.930 . S
C687 C686 1.369 . S
C687 C696 1.429 . S
C688 C686 1.419 . S
C688 C689 1.363 . S
C688 H691 0.929 . S
C689 C688 1.363 . S
C689 C695 1.428 . S
H690 C686 0.930 . S
H691 C688 0.929 . S
S692 N693 1.613 . S
S692 N694 1.610 . S
N693 S692 1.613 . S
N693 C696 1.350 . S
N694 S692 1.610 . S
N694 C695 1.351 . S
C695 C689 1.428 . S
C695 N694 1.351 . S
C695 C696 1.434 . S
C696 C687 1.429 . S
C696 N693 1.350 . S
C696 C695 1.434 . S
C697 C698 1.369 . S
C697 C699 1.419 . S
C697 H701 0.930 . S
C698 C697 1.369 . S
C698 C707 1.429 . S
C699 C697 1.419 . S
C699 C700 1.363 . S
C699 H702 0.929 . S
C700 C699 1.363 . S
C700 C706 1.428 . S
H701 C697 0.930 . S
H702 C699 0.929 . S
S703 N704 1.613 . S
S703 N705 1.610 . S
N704 S703 1.613 . S
N704 C707 1.350 . S
N705 S703 1.610 . S
N705 C706 1.351 . S
C706 C700 1.428 . S
C706 N705 1.351 . S
C706 C707 1.434 . S
C707 C698 1.429 . S
C707 N704 1.350 . S
C707 C706 1.434 . S
C708 C709 1.369 . S
C708 C710 1.419 . S
C708 H712 0.930 . S
C709 C708 1.369 . S
C709 C718 1.429 . S
C710 C708 1.419 . S
C710 C711 1.363 . S
C710 H713 0.929 . S
C711 C710 1.363 . S
C711 C717 1.428 . S
H712 C708 0.930 . S
H713 C710 0.929 . S
S714 N715 1.613 . S
S714 N716 1.610 . S
N715 S714 1.613 . S
N715 C718 1.350 . S
N716 S714 1.610 . S
N716 C717 1.351 . S
C717 C711 1.428 . S
C717 N716 1.351 . S
C717 C718 1.434 . S
C718 C709 1.429 . S
C718 N715 1.350 . S
C718 C717 1.434 . S
C719 C720 1.369 . S
C719 C721 1.419 . S
C719 H723 0.930 . S
C720 C719 1.369 . S
C720 C729 1.429 . S
C721 C719 1.419 . S
C721 C722 1.363 . S
C721 H724 0.929 . S
C722 C721 1.363 . S
C722 C728 1.428 . S
H723 C719 0.930 . S
H724 C721 0.929 . S
S725 N726 1.613 . S
S725 N727 1.610 . S
N726 S725 1.613 . S
N726 C729 1.350 . S
N727 S725 1.610 . S
N727 C728 1.351 . S
C728 C722 1.428 . S
C728 N727 1.351 . S
C728 C729 1.434 . S
C729 C720 1.429 . S
C729 N726 1.350 . S
C729 C728 1.434 . S
C730 C731 1.369 . S
C730 C732 1.419 . S
C730 H734 0.930 . S
C731 C730 1.369 . S
C731 C740 1.429 . S
C732 C730 1.419 . S
C732 C733 1.363 . S
C732 H735 0.929 . S
C733 C732 1.363 . S
C733 C739 1.428 . S
H734 C730 0.930 . S
H735 C732 0.929 . S
S736 N737 1.613 . S
S736 N738 1.610 . S
N737 S736 1.613 . S
N737 C740 1.350 . S
N738 S736 1.610 . S
N738 C739 1.351 . S
C739 C733 1.428 . S
C739 N738 1.351 . S
C739 C740 1.434 . S
C740 C731 1.429 . S
C740 N737 1.350 . S
C740 C739 1.434 . S
C741 C742 1.369 . S
C741 C743 1.419 . S
C741 H745 0.930 . S
C742 C741 1.369 . S
C742 C751 1.429 . S
C743 C741 1.419 . S
C743 C744 1.363 . S
C743 H746 0.929 . S
C744 C743 1.363 . S
C744 C750 1.428 . S
H745 C741 0.930 . S
H746 C743 0.929 . S
S747 N748 1.613 . S
S747 N749 1.610 . S
N748 S747 1.613 . S
N748 C751 1.350 . S
N749 S747 1.610 . S
N749 C750 1.351 . S
C750 C744 1.428 . S
C750 N749 1.351 . S
C750 C751 1.434 . S
C751 C742 1.429 . S
C751 N748 1.350 . S
C751 C750 1.434 . S
C752 C753 1.369 . S
C752 C754 1.419 . S
C752 H756 0.930 . S
C753 C752 1.369 . S
C753 C762 1.429 . S
C754 C752 1.419 . S
C754 C755 1.363 . S
C754 H757 0.929 . S
C755 C754 1.363 . S
C755 C761 1.428 . S
H756 C752 0.930 . S
H757 C754 0.929 . S
S758 N759 1.613 . S
S758 N760 1.610 . S
N759 S758 1.613 . S
N759 C762 1.350 . S
N760 S758 1.610 . S
N760 C761 1.351 . S
C761 C755 1.428 . S
C761 N760 1.351 . S
C761 C762 1.434 . S
C762 C753 1.429 . S
C762 N759 1.350 . S
C762 C761 1.434 . S
C763 C764 1.369 . S
C763 C765 1.419 . S
C763 H767 0.930 . S
C764 C763 1.369 . S
C764 C773 1.429 . S
C765 C763 1.419 . S
C765 C766 1.363 . S
C765 H768 0.929 . S
C766 C765 1.363 . S
C766 C772 1.428 . S
H767 C763 0.930 . S
H768 C765 0.929 . S
S769 N770 1.613 . S
S769 N771 1.610 . S
N770 S769 1.613 . S
N770 C773 1.350 . S
N771 S769 1.610 . S
N771 C772 1.351 . S
C772 C766 1.428 . S
C772 N771 1.351 . S
C772 C773 1.434 . S
C773 C764 1.429 . S
C773 N770 1.350 . S
C773 C772 1.434 . S
C774 C775 1.369 . S
C774 C776 1.419 . S
C774 H778 0.930 . S
C775 C774 1.369 . S
C775 C784 1.429 . S
C776 C774 1.419 . S
C776 C777 1.363 . S
C776 H779 0.929 . S
C777 C776 1.363 . S
C777 C783 1.428 . S
H778 C774 0.930 . S
H779 C776 0.929 . S
S780 N781 1.613 . S
S780 N782 1.610 . S
N781 S780 1.613 . S
N781 C784 1.350 . S
N782 S780 1.610 . S
N782 C783 1.351 . S
C783 C777 1.428 . S
C783 N782 1.351 . S
C783 C784 1.434 . S
C784 C775 1.429 . S
C784 N781 1.350 . S
C784 C783 1.434 . S
C785 C786 1.369 . S
C785 C787 1.419 . S
C785 H789 0.930 . S
C786 C785 1.369 . S
C786 C795 1.429 . S
C787 C785 1.419 . S
C787 C788 1.363 . S
C787 H790 0.929 . S
C788 C787 1.363 . S
C788 C794 1.428 . S
H789 C785 0.930 . S
H790 C787 0.929 . S
S791 N792 1.613 . S
S791 N793 1.610 . S
N792 S791 1.613 . S
N792 C795 1.350 . S
N793 S791 1.610 . S
N793 C794 1.351 . S
C794 C788 1.428 . S
C794 N793 1.351 . S
C794 C795 1.434 . S
C795 C786 1.429 . S
C795 N792 1.350 . S
C795 C794 1.434 . S
C796 C797 1.369 . S
C796 C798 1.419 . S
C796 H800 0.930 . S
C797 C796 1.369 . S
C797 C806 1.429 . S
C798 C796 1.419 . S
C798 C799 1.363 . S
C798 H801 0.929 . S
C799 C798 1.363 . S
C799 C805 1.428 . S
H800 C796 0.930 . S
H801 C798 0.929 . S
S802 N803 1.613 . S
S802 N804 1.610 . S
N803 S802 1.613 . S
N803 C806 1.350 . S
N804 S802 1.610 . S
N804 C805 1.351 . S
C805 C799 1.428 . S
C805 N804 1.351 . S
C805 C806 1.434 . S
C806 C797 1.429 . S
C806 N803 1.350 . S
C806 C805 1.434 . S
C807 C808 1.369 . S
C807 C809 1.419 . S
C807 H811 0.930 . S
C808 C807 1.369 . S
C808 C817 1.429 . S
C809 C807 1.419 . S
C809 C810 1.363 . S
C809 H812 0.929 . S
C810 C809 1.363 . S
C810 C816 1.428 . S
H811 C807 0.930 . S
H812 C809 0.929 . S
S813 N814 1.613 . S
S813 N815 1.610 . S
N814 S813 1.613 . S
N814 C817 1.350 . S
N815 S813 1.610 . S
N815 C816 1.351 . S
C816 C810 1.428 . S
C816 N815 1.351 . S
C816 C817 1.434 . S
C817 C808 1.429 . S
C817 N814 1.350 . S
C817 C816 1.434 . S
C818 C819 1.369 . S
C818 C820 1.419 . S
C818 H822 0.930 . S
C819 C818 1.369 . S
C819 C828 1.429 . S
C820 C818 1.419 . S
C820 C821 1.363 . S
C820 H823 0.929 . S
C821 C820 1.363 . S
C821 C827 1.428 . S
H822 C818 0.930 . S
H823 C820 0.929 . S
S824 N825 1.613 . S
S824 N826 1.610 . S
N825 S824 1.613 . S
N825 C828 1.350 . S
N826 S824 1.610 . S
N826 C827 1.351 . S
C827 C821 1.428 . S
C827 N826 1.351 . S
C827 C828 1.434 . S
C828 C819 1.429 . S
C828 N825 1.350 . S
C828 C827 1.434 . S
C829 C830 1.369 . S
C829 C831 1.419 . S
C829 H833 0.930 . S
C830 C829 1.369 . S
C830 C839 1.429 . S
C831 C829 1.419 . S
C831 C832 1.363 . S
C831 H834 0.929 . S
C832 C831 1.363 . S
C832 C838 1.428 . S
H833 C829 0.930 . S
H834 C831 0.929 . S
S835 N836 1.613 . S
S835 N837 1.610 . S
N836 S835 1.613 . S
N836 C839 1.350 . S
N837 S835 1.610 . S
N837 C838 1.351 . S
C838 C832 1.428 . S
C838 N837 1.351 . S
C838 C839 1.434 . S
C839 C830 1.429 . S
C839 N836 1.350 . S
C839 C838 1.434 . S
C313 C290 1.657 . S
C315 C5 1.669 . S
C324 C17 1.648 . S
C326 C213 1.669 . S
C335 C309 1.659 . S
C337 C29 1.663 . S
C346 C278 1.663 . S
C348 C44 1.665 . S
C357 C239 1.659 . S
C359 C55 1.668 . S
C368 C257 1.651 . S
C370 C68 1.670 . S
C379 C265 1.667 . S
C381 C88 1.652 . S
C390 C94 1.674 . S
C392 C225 1.653 . S
C401 C173 1.666 . S
C403 C114 1.657 . S
C412 C185 1.666 . S
C414 C120 1.659 . S
C423 C134 1.657 . S
C425 C205 1.663 . S
C434 C146 1.662 . S
C436 C161 1.666 . S
C445 C95 1.658 . S
C447 C186 1.655 . S
C456 C200 1.672 . S
C458 C56 1.653 . S
C467 C69 1.652 . S
C469 C166 1.655 . S
C478 C172 1.661 . S
C480 C83 1.671 . S
C489 C133 1.668 . S
C491 C16 1.666 . S
C500 C30 1.648 . S
C502 C147 1.658 . S
C511 C49 1.660 . S
C513 C109 1.665 . S
C522 C10 1.653 . S
C524 C121 1.659 . S
C533 C270 1.658 . S
C535 C283 1.654 . S
C544 C289 1.663 . S
C546 C224 1.662 . S
C555 C244 1.659 . S
C557 C218 1.653 . S
C566 C304 1.661 . S
C568 C252 1.668 . S
C577 C4 1.145 . S
C579 C108 1.136 . S
C588 C122 1.156 . S
C590 C18 1.150 . S
C599 C36 1.145 . S
C601 C140 1.135 . S
C610 C43 1.153 . S
C612 C148 1.140 . S
C621 C62 1.145 . S
C623 C159 1.146 . S
C632 C75 1.143 . S
C634 C179 1.135 . S
C643 C187 1.147 . S
C645 C81 1.154 . S
C654 C199 1.144 . S
C656 C101 1.138 . S
C665 C107 1.147 . S
C667 C211 1.141 . S
C676 C127 1.135 . S
C678 C303 1.141 . S
C687 C276 1.155 . S
C689 C135 1.148 . S
C698 C296 1.141 . S
C700 C153 1.146 . S
C709 C231 1.135 . S
C711 C160 1.143 . S
C720 C237 1.143 . S
C722 C174 1.152 . S
C731 C192 1.137 . S
C733 C251 1.146 . S
C742 C198 1.151 . S
C744 C263 1.151 . S
C753 C3 1.135 . S
C755 C212 1.148 . S
C764 C226 1.153 . S
C766 C57 1.150 . S
C775 C238 1.150 . S
C777 C70 1.133 . S
C786 C250 1.148 . S
C788 C82 1.147 . S
C797 C264 1.147 . S
C799 C96 1.130 . S
C808 C277 1.144 . S
C810 C31 1.144 . S
C819 C42 1.148 . S
C821 C291 1.154 . S
C830 C302 1.143 . S
C832 C23 1.148 . S
