# Generated by pormake.
# Topology lcs, (4)-cn, num edge types: 1
# Building blocks:
#     Node 0, Type 0, BuildingBlock: AZAVOO_clean_sbu_0, # of connection points: 4
#     Node 1, Type 0, BuildingBlock: AZAVOO_clean_sbu_0, # of connection points: 4
#     Node 2, Type 0, BuildingBlock: AZAVOO_clean_sbu_0, # of connection points: 4
#     Node 3, Type 0, BuildingBlock: AZAVOO_clean_sbu_0, # of connection points: 4
#     Node 4, Type 0, BuildingBlock: AZAVOO_clean_sbu_0, # of connection points: 4
#     Node 5, Type 0, BuildingBlock: AZAVOO_clean_sbu_0, # of connection points: 4
#     Node 6, Type 0, BuildingBlock: AZAVOO_clean_sbu_0, # of connection points: 4
#     Node 7, Type 0, BuildingBlock: AZAVOO_clean_sbu_0, # of connection points: 4
#     Node 8, Type 0, BuildingBlock: AZAVOO_clean_sbu_0, # of connection points: 4
#     Node 9, Type 0, BuildingBlock: AZAVOO_clean_sbu_0, # of connection points: 4
#     Node 10, Type 0, BuildingBlock: AZAVOO_clean_sbu_0, # of connection points: 4
#     Node 11, Type 0, BuildingBlock: AZAVOO_clean_sbu_0, # of connection points: 4
#     Node 12, Type 0, BuildingBlock: AZAVOO_clean_sbu_0, # of connection points: 4
#     Node 13, Type 0, BuildingBlock: AZAVOO_clean_sbu_0, # of connection points: 4
#     Node 14, Type 0, BuildingBlock: AZAVOO_clean_sbu_0, # of connection points: 4
#     Node 15, Type 0, BuildingBlock: AZAVOO_clean_sbu_0, # of connection points: 4
#     Node 16, Type 0, BuildingBlock: AZAVOO_clean_sbu_0, # of connection points: 4
#     Node 17, Type 0, BuildingBlock: AZAVOO_clean_sbu_0, # of connection points: 4
#     Node 18, Type 0, BuildingBlock: AZAVOO_clean_sbu_0, # of connection points: 4
#     Node 19, Type 0, BuildingBlock: AZAVOO_clean_sbu_0, # of connection points: 4
#     Node 20, Type 0, BuildingBlock: AZAVOO_clean_sbu_0, # of connection points: 4
#     Node 21, Type 0, BuildingBlock: AZAVOO_clean_sbu_0, # of connection points: 4
#     Node 22, Type 0, BuildingBlock: AZAVOO_clean_sbu_0, # of connection points: 4
#     Node 23, Type 0, BuildingBlock: AZAVOO_clean_sbu_0, # of connection points: 4
#     Edge 24, Type (0, 0), BuildingBlock: MIFKUJ_clean_linker_0, # of connection points: 2
#     Edge 25, Type (0, 0), BuildingBlock: MIFKUJ_clean_linker_0, # of connection points: 2
#     Edge 26, Type (0, 0), BuildingBlock: MIFKUJ_clean_linker_0, # of connection points: 2
#     Edge 27, Type (0, 0), BuildingBlock: MIFKUJ_clean_linker_0, # of connection points: 2
#     Edge 28, Type (0, 0), BuildingBlock: MIFKUJ_clean_linker_0, # of connection points: 2
#     Edge 29, Type (0, 0), BuildingBlock: MIFKUJ_clean_linker_0, # of connection points: 2
#     Edge 30, Type (0, 0), BuildingBlock: MIFKUJ_clean_linker_0, # of connection points: 2
#     Edge 31, Type (0, 0), BuildingBlock: MIFKUJ_clean_linker_0, # of connection points: 2
#     Edge 32, Type (0, 0), BuildingBlock: MIFKUJ_clean_linker_0, # of connection points: 2
#     Edge 33, Type (0, 0), BuildingBlock: MIFKUJ_clean_linker_0, # of connection points: 2
#     Edge 34, Type (0, 0), BuildingBlock: MIFKUJ_clean_linker_0, # of connection points: 2
#     Edge 35, Type (0, 0), BuildingBlock: MIFKUJ_clean_linker_0, # of connection points: 2
#     Edge 36, Type (0, 0), BuildingBlock: MIFKUJ_clean_linker_0, # of connection points: 2
#     Edge 37, Type (0, 0), BuildingBlock: MIFKUJ_clean_linker_0, # of connection points: 2
#     Edge 38, Type (0, 0), BuildingBlock: MIFKUJ_clean_linker_0, # of connection points: 2
#     Edge 39, Type (0, 0), BuildingBlock: MIFKUJ_clean_linker_0, # of connection points: 2
#     Edge 40, Type (0, 0), BuildingBlock: MIFKUJ_clean_linker_0, # of connection points: 2
#     Edge 41, Type (0, 0), BuildingBlock: MIFKUJ_clean_linker_0, # of connection points: 2
#     Edge 42, Type (0, 0), BuildingBlock: MIFKUJ_clean_linker_0, # of connection points: 2
#     Edge 43, Type (0, 0), BuildingBlock: MIFKUJ_clean_linker_0, # of connection points: 2
#     Edge 44, Type (0, 0), BuildingBlock: MIFKUJ_clean_linker_0, # of connection points: 2
#     Edge 45, Type (0, 0), BuildingBlock: MIFKUJ_clean_linker_0, # of connection points: 2
#     Edge 46, Type (0, 0), BuildingBlock: MIFKUJ_clean_linker_0, # of connection points: 2
#     Edge 47, Type (0, 0), BuildingBlock: MIFKUJ_clean_linker_0, # of connection points: 2
#     Edge 48, Type (0, 0), BuildingBlock: MIFKUJ_clean_linker_0, # of connection points: 2
#     Edge 49, Type (0, 0), BuildingBlock: MIFKUJ_clean_linker_0, # of connection points: 2
#     Edge 50, Type (0, 0), BuildingBlock: MIFKUJ_clean_linker_0, # of connection points: 2
#     Edge 51, Type (0, 0), BuildingBlock: MIFKUJ_clean_linker_0, # of connection points: 2
#     Edge 52, Type (0, 0), BuildingBlock: MIFKUJ_clean_linker_0, # of connection points: 2
#     Edge 53, Type (0, 0), BuildingBlock: MIFKUJ_clean_linker_0, # of connection points: 2
#     Edge 54, Type (0, 0), BuildingBlock: MIFKUJ_clean_linker_0, # of connection points: 2
#     Edge 55, Type (0, 0), BuildingBlock: MIFKUJ_clean_linker_0, # of connection points: 2
#     Edge 56, Type (0, 0), BuildingBlock: MIFKUJ_clean_linker_0, # of connection points: 2
#     Edge 57, Type (0, 0), BuildingBlock: MIFKUJ_clean_linker_0, # of connection points: 2
#     Edge 58, Type (0, 0), BuildingBlock: MIFKUJ_clean_linker_0, # of connection points: 2
#     Edge 59, Type (0, 0), BuildingBlock: MIFKUJ_clean_linker_0, # of connection points: 2
#     Edge 60, Type (0, 0), BuildingBlock: MIFKUJ_clean_linker_0, # of connection points: 2
#     Edge 61, Type (0, 0), BuildingBlock: MIFKUJ_clean_linker_0, # of connection points: 2
#     Edge 62, Type (0, 0), BuildingBlock: MIFKUJ_clean_linker_0, # of connection points: 2
#     Edge 63, Type (0, 0), BuildingBlock: MIFKUJ_clean_linker_0, # of connection points: 2
#     Edge 64, Type (0, 0), BuildingBlock: MIFKUJ_clean_linker_0, # of connection points: 2
#     Edge 65, Type (0, 0), BuildingBlock: MIFKUJ_clean_linker_0, # of connection points: 2
#     Edge 66, Type (0, 0), BuildingBlock: MIFKUJ_clean_linker_0, # of connection points: 2
#     Edge 67, Type (0, 0), BuildingBlock: MIFKUJ_clean_linker_0, # of connection points: 2
#     Edge 68, Type (0, 0), BuildingBlock: MIFKUJ_clean_linker_0, # of connection points: 2
#     Edge 69, Type (0, 0), BuildingBlock: MIFKUJ_clean_linker_0, # of connection points: 2
#     Edge 70, Type (0, 0), BuildingBlock: MIFKUJ_clean_linker_0, # of connection points: 2
#     Edge 71, Type (0, 0), BuildingBlock: MIFKUJ_clean_linker_0, # of connection points: 2
# Relax obj value: 0.138
# Max RMSD: 0.189
# Mean RMSD: 0.183
data_MOF--net-lcs--node1-AZAVOO_clean_sbu_0--edge1-MIFKUJ_clean_linker_0
_symmetry_space_group_name_H-M    P1
_symmetry_Int_Tables_number       1
_symmetry_cell_setting            triclinic
loop_
_symmetry_equiv_pos_as_xyz
'x, y, z'
_cell_length_a     63.295421
_cell_length_b     62.353893
_cell_length_c     62.332995
_cell_angle_alpha  93.591459
_cell_angle_beta   93.583757
_cell_angle_gamma 93.607116
loop_
_atom_site_label
_atom_site_type_symbol
_atom_site_fract_x
_atom_site_fract_y
_atom_site_fract_z
_atom_type_partial_charge
Mg0 Mg 0.01511 0.26576 0.44011 0.0
O1 O 0.99415 0.24531 0.41407 0.0
O2 O 0.96509 0.26293 0.40708 0.0
Mg3 Mg 0.96738 0.29428 0.42847 0.0
C4 C 0.97622 0.24679 0.40384 0.0
C5 C 0.04288 0.22669 0.44109 0.0
O6 O 0.026 0.21891 0.44998 0.0
O7 O 0.02509 0.28905 0.41527 0.0
O8 O 0.99576 0.30688 0.4106 0.0
O9 O -0.00214 0.24943 0.46539 0.0
O10 O 0.98868 0.27952 0.45149 0.0
C11 C 0.01499 0.30383 0.40677 0.0
C12 C 0.98451 0.26421 0.46379 0.0
O13 O 0.04292 0.24544 0.4342 0.0
Mg14 Mg 0.98859 0.74612 0.57943 0.0
O15 O 0.00346 0.76987 0.60655 0.0
O16 O 0.9775 0.78038 0.62671 0.0
Mg17 Mg 0.94606 0.76403 0.61205 0.0
C18 C 0.99702 0.78091 0.62252 0.0
C19 C 0.02804 0.73681 0.55406 0.0
O20 O 0.01545 0.74354 0.53869 0.0
O21 O 0.98406 0.71995 0.60307 0.0
O22 O 0.95678 0.73106 0.62086 0.0
O23 O 0.98374 0.77354 0.55864 0.0
O24 O 0.96042 0.76147 0.58078 0.0
C25 C 0.97038 0.71725 0.61703 0.0
C26 C 0.96613 0.77571 0.56779 0.0
O27 O 0.02141 0.73561 0.57279 0.0
Mg28 Mg 0.50502 0.77068 0.94365 0.0
O29 O 0.49157 0.74602 0.9164 0.0
O30 O 0.46103 0.75784 0.90324 0.0
Mg31 Mg 0.45431 0.78874 0.92258 0.0
C32 C 0.47521 0.74413 0.90312 0.0
C33 C 0.53909 0.73795 0.94996 0.0
O34 O 0.52211 0.72685 0.95529 0.0
O35 O 0.51408 0.79428 0.91882 0.0
O36 O 0.48273 0.80619 0.90845 0.0
O37 O 0.48805 0.75246 0.96782 0.0
O38 O 0.47431 0.778 0.94936 0.0
C39 C 0.50289 0.80656 0.90784 0.0
C40 C 0.4718 0.76302 0.96249 0.0
O41 O 0.53727 0.75675 0.9436 0.0
Mg42 Mg 0.48207 0.255 0.08049 0.0
O43 O 0.49549 0.27812 0.10857 0.0
O44 O 0.46953 0.28667 0.12951 0.0
Mg45 Mg 0.43906 0.26863 0.11445 0.0
C46 C 0.48894 0.28825 0.12502 0.0
C47 C 0.52121 0.23047 0.06514 0.0
O48 O 0.50646 0.21508 0.05931 0.0
O49 O 0.47958 0.22737 0.10274 0.0
O50 O 0.45233 0.23628 0.12183 0.0
O51 O 0.47484 0.28325 0.06163 0.0
O52 O 0.4525 0.26749 0.08257 0.0
C53 C 0.46653 0.22343 0.11705 0.0
C54 C 0.45688 0.283 0.07053 0.0
O55 O 0.51596 0.24816 0.07381 0.0
Mg56 Mg 0.98958 0.7834 0.17928 0.0
O57 O 0.96428 0.76901 0.15348 0.0
O58 O 0.95594 0.79511 0.13213 0.0
Mg59 Mg 0.97521 0.82617 0.14452 0.0
C60 C 0.95375 0.77564 0.13733 0.0
C61 C 0.01464 0.748 0.19896 0.0
O62 O 0.02695 0.76546 0.2046 0.0
O63 O 0.01467 0.78365 0.15464 0.0
O64 O 0.00573 0.81101 0.13513 0.0
O65 O 0.96422 0.79383 0.20052 0.0
O66 O 0.97876 0.81377 0.17662 0.0
C67 C 0.01798 0.79611 0.13952 0.0
C68 C 0.9651 0.81163 0.19085 0.0
O69 O 0.99722 0.74977 0.18813 0.0
Mg70 Mg 0.52879 0.73568 0.35089 0.0
O71 O 0.52678 0.76086 0.3258 0.0
O72 O 0.55842 0.76511 0.31198 0.0
Mg73 Mg 0.5805 0.74249 0.32804 0.0
C74 C 0.53912 0.76969 0.31297 0.0
C75 C 0.48362 0.74917 0.35955 0.0
O76 O 0.4948 0.76752 0.3643 0.0
O77 O 0.52732 0.70965 0.32382 0.0
O78 O 0.55954 0.71391 0.3113 0.0
O79 O 0.5396 0.76107 0.37633 0.0
O80 O 0.56126 0.74347 0.35622 0.0
C81 C 0.54111 0.70414 0.31084 0.0
C82 C 0.55868 0.75862 0.37068 0.0
O83 O 0.4929 0.733 0.35233 0.0
Mg84 Mg 0.49188 0.27566 0.67029 0.0
O85 O 0.46584 0.26066 0.64551 0.0
O86 O 0.45689 0.28642 0.62396 0.0
Mg87 Mg 0.4764 0.31769 0.63507 0.0
C88 C 0.45485 0.26707 0.62954 0.0
C89 C 0.50015 0.23825 0.69964 0.0
O90 O 0.49397 0.25276 0.71368 0.0
O91 O 0.51601 0.27529 0.64473 0.0
O92 O 0.50658 0.30228 0.62495 0.0
O93 O 0.46728 0.28658 0.69224 0.0
O94 O 0.48084 0.30591 0.66733 0.0
C95 C 0.51888 0.2874 0.62924 0.0
C96 C 0.46774 0.30412 0.68214 0.0
O97 O 0.50031 0.24247 0.67997 0.0
Mg98 Mg 0.02775 0.22401 0.84881 0.0
O99 O 0.02255 0.25381 0.83014 0.0
O100 O 0.05292 0.2636 0.81579 0.0
Mg101 Mg 0.07787 0.24096 0.82664 0.0
C102 C 0.03342 0.26612 0.81873 0.0
C103 C 0.98608 0.20175 0.86088 0.0
O104 O 0.00038 0.18953 0.86891 0.0
O105 O 0.02771 0.20396 0.81732 0.0
O106 O 0.05951 0.21314 0.80573 0.0
O107 O 0.03699 0.2442 0.87872 0.0
O108 O 0.05957 0.23452 0.85474 0.0
C109 C 0.0418 0.2019 0.80372 0.0
C110 C 0.05601 0.24556 0.8722 0.0
O111 O 0.9922 0.21753 0.85036 0.0
Mg112 Mg 0.42816 0.98247 0.23685 0.0
O113 O 0.40183 0.96718 0.2124 0.0
O114 O 0.38744 0.93825 0.22693 0.0
Mg115 Mg 0.40536 0.93385 0.25912 0.0
C116 C 0.38836 0.95094 0.21167 0.0
C117 C 0.44499 0.01783 0.20828 0.0
O118 O 0.45939 0.00369 0.20627 0.0
O119 O 0.40399 0.99498 0.25961 0.0
O120 O 0.3932 0.96469 0.27415 0.0
O121 O 0.4518 0.96239 0.22137 0.0
O122 O 0.43293 0.95227 0.24802 0.0
C123 C 0.39328 0.98508 0.27311 0.0
C124 C 0.44646 0.94769 0.23414 0.0
O125 O 0.42944 0.01372 0.21967 0.0
Mg126 Mg 0.26928 0.0908 0.4791 0.0
O127 O 0.2945 0.11553 0.49591 0.0
O128 O 0.3041 0.13795 0.47108 0.0
Mg129 Mg 0.28699 0.12678 0.43857 0.0
C130 C 0.30536 0.132 0.49033 0.0
C131 C 0.27071 0.07571 0.52685 0.0
O132 O 0.29123 0.07637 0.52461 0.0
O133 O 0.24502 0.11612 0.47801 0.0
O134 O 0.25536 0.13598 0.45145 0.0
O135 O 0.29414 0.06862 0.46987 0.0
O136 O 0.28288 0.09417 0.44993 0.0
C137 C 0.24233 0.13138 0.4656 0.0
C138 C 0.29551 0.07904 0.45261 0.0
O139 O 0.25834 0.08081 0.51142 0.0
Mg140 Mg 0.15439 0.99235 0.75497 0.0
O141 O 0.13523 0.96078 0.74258 0.0
O142 O 0.11371 0.95236 0.76837 0.0
Mg143 Mg 0.11899 0.97732 0.79668 0.0
C144 C 0.12075 0.94852 0.74986 0.0
C145 C 0.18528 0.00122 0.71979 0.0
O146 O 0.19822 0.0004 0.737 0.0
O147 O 0.12523 0.0109 0.74833 0.0
O148 O 0.10473 0.00183 0.77473 0.0
O149 O 0.17936 0.97405 0.77087 0.0
O150 O 0.15122 0.98467 0.78672 0.0
C151 C 0.10819 0.01219 0.75811 0.0
C152 C 0.16817 0.97428 0.78758 0.0
O153 O 0.16545 0.99786 0.72147 0.0
Mg154 Mg 0.23913 0.81895 0.99681 0.0
O155 O 0.26259 0.84073 0.0195 0.0
O156 O 0.29275 0.84554 0.00307 0.0
Mg157 Mg 0.28853 0.82709 0.97004 0.0
C158 C 0.28164 0.84878 0.01923 0.0
C159 C 0.21328 0.82016 0.03694 0.0
O160 O 0.2307 0.81189 0.04422 0.0
O161 O 0.23291 0.84688 0.97575 0.0
O162 O 0.26316 0.84957 0.95912 0.0
O163 O 0.25244 0.79013 0.01066 0.0
O164 O 0.26403 0.80541 0.98213 0.0
C165 C 0.24453 0.85546 0.96212 0.0
C166 C 0.26611 0.79124 0.99611 0.0
O167 O 0.21214 0.82623 0.01784 0.0
Mg168 Mg 0.23587 0.40664 0.02773 0.0
O169 O 0.24111 0.42849 0.00019 0.0
O170 O 0.20978 0.43955 0.98838 0.0
Mg171 Mg 0.18454 0.42469 0.00848 0.0
C172 C 0.22988 0.43934 0.98764 0.0
C173 C 0.27771 0.40011 0.05354 0.0
O174 O 0.26359 0.3919 0.06585 0.0
O175 O 0.23151 0.43604 0.04958 0.0
O176 O 0.19973 0.44598 0.03775 0.0
O177 O 0.23078 0.37781 0.00499 0.0
O178 O 0.20519 0.39826 0.01472 0.0
C179 C 0.2164 0.44857 0.05058 0.0
C180 C 0.2111 0.38229 0.00289 0.0
O181 O 0.27129 0.40856 0.03652 0.0
Mg182 Mg 0.77841 0.18049 0.00775 0.0
O183 O 0.76451 0.15389 0.98321 0.0
O184 O 0.78945 0.1314 0.97546 0.0
Mg185 Mg 0.8199 0.14432 0.99506 0.0
C186 C 0.7705 0.13719 0.97307 0.0
C187 C 0.74015 0.20351 0.02718 0.0
O188 O 0.75556 0.21582 0.03759 0.0
O189 O 0.77807 0.15699 0.03428 0.0
O190 O 0.80458 0.13648 0.02632 0.0
O191 O 0.78829 0.19993 0.98064 0.0
O192 O 0.80837 0.17706 0.99658 0.0
C193 C 0.78989 0.14171 0.03841 0.0
C194 C 0.80561 0.18989 0.9814 0.0
O195 O 0.74468 0.18846 0.01392 0.0
Mg196 Mg 0.10834 0.50365 0.26483 0.0
O197 O 0.12912 0.51386 0.2958 0.0
O198 O 0.15045 0.48728 0.30175 0.0
Mg199 Mg 0.14309 0.46028 0.27549 0.0
C200 C 0.1439 0.50574 0.30692 0.0
C201 C 0.08181 0.53982 0.24989 0.0
O202 O 0.07143 0.5224 0.24067 0.0
O203 O 0.1365 0.51056 0.2452 0.0
O204 O 0.1564 0.48286 0.25089 0.0
O205 O 0.08417 0.48783 0.28388 0.0
O206 O 0.11096 0.47143 0.27064 0.0
C207 C 0.15292 0.50029 0.24189 0.0
C208 C 0.09489 0.47083 0.28235 0.0
O209 O 0.09843 0.53781 0.26192 0.0
Mg210 Mg 0.74759 0.90175 0.52825 0.0
O211 O 0.75034 0.92853 0.50498 0.0
O212 O 0.71793 0.93944 0.49714 0.0
Mg213 Mg 0.69466 0.9201 0.51613 0.0
C214 C 0.73792 0.94059 0.49515 0.0
C215 C 0.7959 0.90226 0.52035 0.0
O216 O 0.78813 0.90107 0.50023 0.0
O217 O 0.74376 0.92695 0.55507 0.0
O218 O 0.71103 0.93699 0.54739 0.0
O219 O 0.74195 0.87723 0.50086 0.0
O220 O 0.71646 0.89394 0.51628 0.0
C221 C 0.72834 0.93837 0.55927 0.0
C222 C 0.72205 0.88085 0.50113 0.0
O223 O 0.7833 0.9037 0.53538 0.0
Mg224 Mg 0.82691 0.02819 0.2798 0.0
O225 O 0.85402 0.05384 0.29057 0.0
O226 O 0.87172 0.04188 0.3192 0.0
Mg227 Mg 0.85579 0.00988 0.32739 0.0
C228 C 0.86901 0.05599 0.30546 0.0
C229 C 0.80375 0.0494 0.24224 0.0
O230 O 0.78878 0.04837 0.25588 0.0
O231 O 0.85001 0.00512 0.26611 0.0
O232 O 0.86603 0.99387 0.29599 0.0
O233 O 0.80538 0.04482 0.30161 0.0
O234 O 0.82645 0.01953 0.31114 0.0
C235 C 0.86315 0.99348 0.27551 0.0
C236 C 0.81338 0.03359 0.3165 0.0
O237 O 0.82175 0.04262 0.24748 0.0
Mg238 Mg 0.28404 0.67389 0.50507 0.0
O239 O 0.26954 0.64816 0.47989 0.0
O240 O 0.29508 0.62754 0.46938 0.0
Mg241 Mg 0.32641 0.64143 0.48683 0.0
C242 C 0.27572 0.63227 0.4686 0.0
C243 C 0.24459 0.69923 0.51507 0.0
O244 O 0.25765 0.71514 0.51018 0.0
O245 O 0.2871 0.64869 0.52968 0.0
O246 O 0.31483 0.63113 0.51921 0.0
O247 O 0.29058 0.69608 0.47923 0.0
O248 O 0.31307 0.67317 0.49124 0.0
C249 C 0.30054 0.63451 0.5324 0.0
C250 C 0.30853 0.68735 0.47781 0.0
O251 O 0.25089 0.68028 0.51471 0.0
Mg252 Mg 0.33898 0.52453 0.77778 0.0
O253 O 0.36739 0.54773 0.79079 0.0
O254 O 0.38253 0.53321 0.81938 0.0
Mg255 Mg 0.36385 0.50188 0.82519 0.0
C256 C 0.38167 0.54815 0.8063 0.0
C257 C 0.31825 0.54404 0.73829 0.0
O258 O 0.3017 0.53886 0.74908 0.0
O259 O 0.36078 0.50031 0.76406 0.0
O260 O 0.37455 0.48644 0.79367 0.0
O261 O 0.31762 0.54181 0.79921 0.0
O262 O 0.33621 0.51447 0.80835 0.0
C263 C 0.37257 0.48726 0.77324 0.0
C264 C 0.32385 0.52922 0.81375 0.0
O265 O 0.33664 0.54061 0.74615 0.0
Mg266 Mg 0.61034 0.0027 0.76625 0.0
O267 O 0.62888 0.015 0.79812 0.0
O268 O 0.64781 0.98805 0.80889 0.0
Mg269 Mg 0.64159 0.95912 0.78483 0.0
C270 C 0.64204 0.00724 0.81148 0.0
C271 C 0.59269 0.04845 0.77212 0.0
O272 O 0.58835 0.04123 0.79081 0.0
O273 O 0.64067 0.00617 0.74893 0.0
O274 O 0.6586 0.97874 0.76017 0.0
O275 O 0.58343 0.98991 0.78396 0.0
O276 O 0.61064 0.97124 0.77557 0.0
C277 C 0.65692 0.99507 0.74893 0.0
C278 C 0.5933 0.97241 0.78523 0.0
O279 O 0.60224 0.03668 0.75899 0.0
Mg280 Mg 0.76567 0.60514 0.98462 0.0
O281 O 0.79288 0.62802 0.00063 0.0
O282 O 0.80216 0.65093 0.97613 0.0
Mg283 Mg 0.78268 0.64186 0.94443 0.0
C284 C 0.80418 0.64418 0.99503 0.0
C285 C 0.73765 0.58854 0.01973 0.0
O286 O 0.72355 0.58977 0.00354 0.0
O287 O 0.74295 0.63188 0.98646 0.0
O288 O 0.75276 0.65235 0.96012 0.0
O289 O 0.78836 0.58192 0.97259 0.0
O290 O 0.7773 0.60893 0.95457 0.0
C291 C 0.74047 0.64788 0.97496 0.0
C292 C 0.78905 0.59287 0.95564 0.0
O293 O 0.75698 0.5941 0.01729 0.0
Mg294 Mg 0.914 0.48349 0.74286 0.0
O295 O 0.88868 0.46704 0.71799 0.0
O296 O 0.8727 0.43977 0.73376 0.0
Mg297 Mg 0.88825 0.43774 0.76752 0.0
C298 C 0.87482 0.45117 0.71762 0.0
C299 C 0.93466 0.51646 0.71407 0.0
O300 O 0.94937 0.50259 0.71559 0.0
O301 O 0.88865 0.49848 0.76238 0.0
O302 O 0.87562 0.46993 0.77844 0.0
O303 O 0.93814 0.4614 0.73138 0.0
O304 O 0.91705 0.45465 0.75734 0.0
C305 C 0.87642 0.49006 0.77557 0.0
C306 C 0.93158 0.44841 0.74532 0.0
O307 O 0.91747 0.51294 0.72318 0.0
Mg308 Mg 0.74335 0.32066 0.49012 0.0
O309 O 0.76157 0.34412 0.51591 0.0
O310 O 0.79184 0.35584 0.50257 0.0
Mg311 Mg 0.79286 0.34039 0.46856 0.0
C312 C 0.77917 0.35553 0.51771 0.0
C313 C 0.7141 0.31305 0.52698 0.0
O314 O 0.7318 0.30564 0.5347 0.0
O315 O 0.73377 0.34861 0.47072 0.0
O316 O 0.76462 0.35958 0.4579 0.0
O317 O 0.76046 0.29364 0.50295 0.0
O318 O 0.77159 0.31341 0.47709 0.0
C319 C 0.74476 0.36114 0.45966 0.0
C320 C 0.77501 0.29852 0.49006 0.0
O321 O 0.71377 0.32134 0.50887 0.0
Mg322 Mg 0.64769 0.49634 0.25613 0.0
O323 O 0.62894 0.46408 0.24615 0.0
O324 O 0.60981 0.45547 0.27374 0.0
Mg325 Mg 0.61606 0.48168 0.3009 0.0
C326 C 0.61568 0.45148 0.25475 0.0
C327 C 0.67523 0.50645 0.21871 0.0
O328 O 0.68916 0.50811 0.23537 0.0
O329 O 0.61753 0.51365 0.2509 0.0
O330 O 0.5992 0.50448 0.27888 0.0
O331 O 0.67397 0.47888 0.271 0.0
O332 O 0.6469 0.49018 0.28836 0.0
C333 C 0.60107 0.5144 0.26169 0.0
C334 C 0.66389 0.47991 0.28846 0.0
O335 O 0.65602 0.50081 0.22158 0.0
H336 H 0.06368 0.46638 0.31021 0.0
H337 H 0.05503 0.43552 0.33092 0.0
H338 H 0.10543 0.40178 0.30344 0.0
H339 H 0.11385 0.43247 0.28211 0.0
H340 H 0.07049 0.37535 0.30467 0.0
H341 H 0.11221 0.42312 0.35462 0.0
H342 H 0.1242 0.45777 0.37418 0.0
H343 H 0.06397 0.46047 0.40199 0.0
H344 H 0.05148 0.426 0.38232 0.0
H345 H 0.05262 0.29916 0.38766 0.0
H346 H 0.07094 0.32503 0.36578 0.0
H347 H 0.02065 0.36791 0.37312 0.0
H348 H 0.00221 0.34233 0.39456 0.0
H349 H 0.06316 0.387 0.38327 0.0
H350 H 0.02107 0.34074 0.32808 0.0
H351 H 0.01044 0.30582 0.30836 0.0
H352 H 0.07458 0.29957 0.29135 0.0
H353 H 0.08563 0.33436 0.31124 0.0
C354 C 0.07296 0.45242 0.30854 0.0
C355 C 0.08964 0.45199 0.29472 0.0
C356 C 0.06806 0.43483 0.32048 0.0
C357 C 0.07987 0.41653 0.31904 0.0
C358 C 0.09625 0.41582 0.30491 0.0
C359 C 0.10111 0.43343 0.29285 0.0
C360 C 0.0748 0.39821 0.33227 0.0
C361 C 0.06932 0.37778 0.32193 0.0
C362 C 0.07338 0.40135 0.3548 0.0
C363 C 0.08086 0.42201 0.36688 0.0
C364 C 0.10147 0.43116 0.3648 0.0
C365 C 0.10836 0.45077 0.37592 0.0
C366 C 0.09484 0.46132 0.3893 0.0
C367 C 0.07442 0.45227 0.39162 0.0
C368 C 0.06743 0.43268 0.38051 0.0
C369 C 0.04545 0.31406 0.38451 0.0
C370 C 0.02596 0.31869 0.39286 0.0
C371 C 0.0559 0.32876 0.37201 0.0
C372 C 0.04712 0.34833 0.36796 0.0
C373 C 0.02768 0.35289 0.37617 0.0
C374 C 0.01713 0.33818 0.38834 0.0
C375 C 0.05808 0.36451 0.35552 0.0
C376 C 0.06477 0.38452 0.36608 0.0
C377 C 0.0609 0.36086 0.33331 0.0
C378 C 0.05422 0.33998 0.32139 0.0
C379 C 0.03294 0.33181 0.32033 0.0
C380 C 0.02683 0.31207 0.30908 0.0
C381 C 0.04184 0.30044 0.29868 0.0
C382 C 0.06298 0.30857 0.29946 0.0
C383 C 0.06917 0.32829 0.31071 0.0
H384 H 0.03707 0.28517 0.28997 0.0
H385 H 0.10021 0.47651 0.39789 0.0
H386 H 0.96059 0.79631 0.53077 0.0
H387 H 0.93623 0.8245 0.52372 0.0
H388 H 0.91951 0.82569 0.58985 0.0
H389 H 0.94342 0.79745 0.59674 0.0
H390 H 0.88546 0.82108 0.56432 0.0
H391 H 0.94817 0.8683 0.56934 0.0
H392 H 0.98422 0.88113 0.56115 0.0
H393 H 0.96291 0.88599 0.49497 0.0
H394 H 0.92676 0.87289 0.5027 0.0
H395 H 0.81666 0.90297 0.56016 0.0
H396 H 0.85081 0.88849 0.56902 0.0
H397 H 0.85998 0.877 0.50141 0.0
H398 H 0.82581 0.89161 0.49231 0.0
H399 H 0.89878 0.88889 0.52823 0.0
H400 H 0.83688 0.83827 0.52374 0.0
H401 H 0.80088 0.82605 0.53276 0.0
H402 H 0.82181 0.82829 0.59979 0.0
H403 H 0.85788 0.84085 0.59117 0.0
C404 C 0.95188 0.80283 0.54382 0.0
C405 C 0.95343 0.79432 0.56415 0.0
C406 C 0.93808 0.81901 0.53983 0.0
C407 C 0.92599 0.8272 0.55626 0.0
C408 C 0.92848 0.81946 0.57686 0.0
C409 C 0.94202 0.80315 0.58075 0.0
C410 C 0.90923 0.84217 0.5516 0.0
C411 C 0.88855 0.83609 0.5568 0.0
C412 C 0.91308 0.86151 0.54128 0.0
C413 C 0.93479 0.86941 0.53656 0.0
C414 C 0.9512 0.87193 0.553 0.0
C415 C 0.97165 0.87929 0.54845 0.0
C416 C 0.97587 0.88432 0.52754 0.0
C417 C 0.95963 0.88206 0.51115 0.0
C418 C 0.93914 0.87469 0.51562 0.0
C419 C 0.82614 0.89787 0.54713 0.0
C420 C 0.81831 0.898 0.52553 0.0
C421 C 0.84569 0.88967 0.55224 0.0
C422 C 0.85769 0.88139 0.53586 0.0
C423 C 0.85089 0.88331 0.51426 0.0
C424 C 0.8313 0.89155 0.50911 0.0
C425 C 0.87533 0.86779 0.54125 0.0
C426 C 0.89596 0.87398 0.53599 0.0
C427 C 0.87159 0.84855 0.55168 0.0
C428 C 0.84999 0.84071 0.55684 0.0
C429 C 0.83376 0.8363 0.54041 0.0
C430 C 0.81335 0.8293 0.54545 0.0
C431 C 0.80905 0.82645 0.56684 0.0
C432 C 0.82516 0.83054 0.58323 0.0
C433 C 0.84559 0.83759 0.57828 0.0
H434 H 0.79324 0.82103 0.57071 0.0
H435 H 0.99171 0.89002 0.52405 0.0
H436 H 0.37791 0.58851 0.79208 0.0
H437 H 0.39986 0.62122 0.804 0.0
H438 H 0.44139 0.58396 0.84208 0.0
H439 H 0.41917 0.55133 0.83075 0.0
H440 H 0.43019 0.61615 0.86577 0.0
H441 H 0.45737 0.60894 0.79622 0.0
H442 H 0.45581 0.60389 0.75659 0.0
H443 H 0.42395 0.66233 0.75155 0.0
H444 H 0.42505 0.66759 0.79116 0.0
H445 H 0.49673 0.70728 0.90284 0.0
H446 H 0.48724 0.67355 0.8812 0.0
H447 H 0.43622 0.70325 0.84778 0.0
H448 H 0.44558 0.737 0.86918 0.0
H449 H 0.4564 0.67389 0.82091 0.0
H450 H 0.42719 0.67895 0.89074 0.0
H451 H 0.43066 0.68483 0.93025 0.0
H452 H 0.46671 0.62902 0.9346 0.0
H453 H 0.46445 0.62346 0.89494 0.0
C454 C 0.39195 0.58722 0.80264 0.0
C455 C 0.39669 0.56734 0.8106 0.0
C456 C 0.40456 0.60594 0.8094 0.0
C457 C 0.42236 0.60508 0.82391 0.0
C458 C 0.4277 0.58506 0.83097 0.0
C459 C 0.41498 0.56641 0.82445 0.0
C460 C 0.43416 0.62519 0.83334 0.0
C461 C 0.43634 0.62853 0.85589 0.0
C462 C 0.44179 0.64161 0.82053 0.0
C463 C 0.44115 0.63856 0.79669 0.0
C464 C 0.44989 0.62063 0.78667 0.0
C465 C 0.44911 0.61775 0.7642 0.0
C466 C 0.43975 0.63276 0.75156 0.0
C467 C 0.43118 0.65071 0.76136 0.0
C468 C 0.43191 0.65367 0.78382 0.0
C469 C 0.48377 0.70679 0.89059 0.0
C470 C 0.47168 0.72474 0.88802 0.0
C471 C 0.4784 0.6875 0.87822 0.0
C472 C 0.46088 0.68587 0.86309 0.0
C473 C 0.44979 0.70418 0.85938 0.0
C474 C 0.45506 0.72341 0.87179 0.0
C475 C 0.45237 0.66463 0.85316 0.0
C476 C 0.45061 0.66122 0.83063 0.0
C477 C 0.44517 0.64805 0.86596 0.0
C478 C 0.4459 0.65096 0.88983 0.0
C479 C 0.43605 0.66804 0.90008 0.0
C480 C 0.43779 0.67132 0.92252 0.0
C481 C 0.4488 0.65725 0.93495 0.0
C482 C 0.45819 0.63992 0.92495 0.0
C483 C 0.45679 0.63676 0.90248 0.0
H484 H 0.45005 0.65977 0.95234 0.0
H485 H 0.43916 0.6305 0.73417 0.0
H486 H 0.53802 0.19618 0.04428 0.0
H487 H 0.57538 0.19158 0.0385 0.0
H488 H 0.59281 0.25294 0.07297 0.0
H489 H 0.55554 0.25788 0.07841 0.0
H490 H 0.61327 0.2495 0.03753 0.0
H491 H 0.60093 0.20518 0.09601 0.0
H492 H 0.58271 0.17673 0.11515 0.0
H493 H 0.59662 0.12929 0.06602 0.0
H494 H 0.61468 0.15752 0.04641 0.0
H495 H 0.72427 0.23601 0.05166 0.0
H496 H 0.68711 0.24053 0.05859 0.0
H497 H 0.66821 0.18239 0.0191 0.0
H498 H 0.70524 0.17771 0.01209 0.0
H499 H 0.64885 0.1843 0.0577 0.0
H500 H 0.66097 0.22966 -0.00074 0.0
H501 H 0.67956 0.25858 0.98105 0.0
H502 H 0.66649 0.30467 0.0318 0.0
H503 H 0.64806 0.27595 0.05047 0.0
C504 C 0.54981 0.20868 0.05066 0.0
C505 C 0.5438 0.22739 0.0618 0.0
C506 C 0.57117 0.20598 0.04743 0.0
C507 C 0.58693 0.22182 0.05551 0.0
C508 C 0.58094 0.24052 0.06659 0.0
C509 C 0.55961 0.24328 0.06972 0.0
C510 C 0.60963 0.21914 0.05208 0.0
C511 C 0.62111 0.23537 0.04223 0.0
C512 C 0.61978 0.20054 0.05786 0.0
C513 C 0.60898 0.18351 0.06963 0.0
C514 C 0.59996 0.18871 0.0892 0.0
C515 C 0.58968 0.17262 0.10015 0.0
C516 C 0.58846 0.15123 0.09178 0.0
C517 C 0.59756 0.14588 0.07246 0.0
C518 C 0.60783 0.16191 0.06144 0.0
C519 C 0.71221 0.2242 0.04442 0.0
C520 C 0.71771 0.20655 0.03126 0.0
C521 C 0.69099 0.22683 0.04837 0.0
C522 C 0.67493 0.21184 0.03925 0.0
C523 C 0.68038 0.19411 0.02629 0.0
C524 C 0.70155 0.19154 0.02223 0.0
C525 C 0.65238 0.21464 0.04315 0.0
C526 C 0.64096 0.19842 0.05307 0.0
C527 C 0.64232 0.23333 0.0376 0.0
C528 C 0.65333 0.25062 0.02636 0.0
C529 C 0.66221 0.24593 0.00662 0.0
C530 C 0.67269 0.26229 0.9962 0.0
C531 C 0.67426 0.28344 0.00529 0.0
C532 C 0.66529 0.28828 0.02479 0.0
C533 C 0.65481 0.27197 0.03529 0.0
H534 H 0.68237 0.29609 0.9972 0.0
H535 H 0.58049 0.1388 0.10028 0.0
H536 H 0.10123 0.57924 0.26362 0.0
H537 H 0.08963 0.6147 0.25552 0.0
H538 H 0.03444 0.58462 0.21871 0.0
H539 H 0.04611 0.54915 0.22639 0.0
H540 H 0.05257 0.61575 0.19743 0.0
H541 H 0.03091 0.60883 0.26933 0.0
H542 H 0.03592 0.60228 0.30787 0.0
H543 H 0.08207 0.65608 0.31742 0.0
H544 H 0.07753 0.66278 0.27885 0.0
H545 H 0.994 0.7085 0.18817 0.0
H546 H 0.00539 0.67329 0.19745 0.0
H547 H 0.06154 0.70391 0.23209 0.0
H548 H 0.0502 0.73918 0.22307 0.0
H549 H 0.04314 0.67272 0.25459 0.0
H550 H 0.06471 0.67967 0.18277 0.0
H551 H 0.05986 0.68616 0.14421 0.0
H552 H 0.01392 0.63218 0.13452 0.0
H553 H 0.01829 0.62556 0.17311 0.0
C554 C 0.08658 0.58017 0.25388 0.0
C555 C 0.07457 0.56137 0.24569 0.0
C556 C 0.07993 0.60046 0.24932 0.0
C557 C 0.06105 0.60232 0.23668 0.0
C558 C 0.04906 0.58357 0.22849 0.0
C559 C 0.05573 0.5633 0.23296 0.0
C560 C 0.05394 0.62378 0.23164 0.0
C561 C 0.05022 0.6281 0.20994 0.0
C562 C 0.05138 0.64007 0.24794 0.0
C563 C 0.05402 0.63617 0.27117 0.0
C564 C 0.04223 0.61917 0.27962 0.0
C565 C 0.04497 0.61545 0.30147 0.0
C566 C 0.05934 0.62872 0.31507 0.0
C567 C 0.07096 0.64579 0.30686 0.0
C568 C 0.0683 0.64957 0.28501 0.0
C569 C 0.00875 0.70776 0.19779 0.0
C570 C 0.02123 0.72665 0.20482 0.0
C571 C 0.01528 0.68761 0.20301 0.0
C572 C 0.03442 0.68598 0.21527 0.0
C573 C 0.04672 0.70481 0.2226 0.0
C574 C 0.04024 0.72495 0.21736 0.0
C575 C 0.04168 0.66462 0.22041 0.0
C576 C 0.04546 0.66034 0.2421 0.0
C577 C 0.04429 0.64835 0.2041 0.0
C578 C 0.04167 0.65226 0.18088 0.0
C579 C 0.05345 0.66929 0.17246 0.0
C580 C 0.05081 0.67298 0.15059 0.0
C581 C 0.03655 0.65963 0.13693 0.0
C582 C 0.02494 0.64253 0.14512 0.0
C583 C 0.02751 0.63879 0.16698 0.0
H584 H 0.03453 0.6625 0.12001 0.0
H585 H 0.06144 0.62581 0.33198 0.0
H586 H 0.5571 0.79403 0.3983 0.0
H587 H 0.58685 0.8167 0.4158 0.0
H588 H 0.63067 0.77881 0.38211 0.0
H589 H 0.60093 0.75576 0.36476 0.0
H590 H 0.64213 0.78435 0.42415 0.0
H591 H 0.62257 0.82958 0.36875 0.0
H592 H 0.59864 0.84952 0.34585 0.0
H593 H 0.58342 0.8886 0.40122 0.0
H594 H 0.60695 0.86859 0.42456 0.0
H595 H 0.72969 0.85417 0.46646 0.0
H596 H 0.70364 0.8354 0.44005 0.0
H597 H 0.65318 0.86536 0.47148 0.0
H598 H 0.67908 0.88419 0.49796 0.0
H599 H 0.64765 0.86423 0.42683 0.0
H600 H 0.66396 0.8156 0.4822 0.0
H601 H 0.68775 0.7953 0.50497 0.0
H602 H 0.70928 0.76259 0.44854 0.0
H603 H 0.6858 0.78293 0.42541 0.0
C604 C 0.57305 0.79061 0.39445 0.0
C605 C 0.57667 0.77311 0.38013 0.0
C606 C 0.59004 0.80368 0.40437 0.0
C607 C 0.61096 0.79958 0.40007 0.0
C608 C 0.61463 0.78229 0.38557 0.0
C609 C 0.59762 0.76919 0.37562 0.0
C610 C 0.62895 0.81253 0.41186 0.0
C611 C 0.6436 0.8018 0.42436 0.0
C612 C 0.63061 0.83532 0.41243 0.0
C613 C 0.61644 0.84745 0.39845 0.0
C614 C 0.61399 0.8423 0.37609 0.0
C615 C 0.60051 0.85364 0.36301 0.0
C616 C 0.5895 0.87032 0.37207 0.0
C617 C 0.59195 0.87568 0.39423 0.0
C618 C 0.60538 0.86434 0.40739 0.0
C619 C 0.71306 0.85691 0.46767 0.0
C620 C 0.70644 0.87063 0.48436 0.0
C621 C 0.69822 0.84617 0.45257 0.0
C622 C 0.6765 0.84888 0.45394 0.0
C623 C 0.66989 0.86311 0.47013 0.0
C624 C 0.68472 0.87382 0.48528 0.0
C625 C 0.66055 0.83602 0.43927 0.0
C626 C 0.6463 0.84677 0.42631 0.0
C627 C 0.65926 0.81324 0.43819 0.0
C628 C 0.67332 0.80096 0.45208 0.0
C629 C 0.6739 0.80421 0.47464 0.0
C630 C 0.6873 0.79267 0.48762 0.0
C631 C 0.70007 0.77772 0.47821 0.0
C632 C 0.69941 0.77422 0.4558 0.0
C633 C 0.68606 0.78573 0.44276 0.0
H634 H 0.71043 0.7688 0.48828 0.0
H635 H 0.57911 0.87912 0.36192 0.0
H636 H 0.47227 0.3451 0.67 0.0
H637 H 0.45371 0.37597 0.68254 0.0
H638 H 0.41419 0.33475 0.71894 0.0
H639 H 0.43351 0.30374 0.7071 0.0
H640 H 0.41646 0.38946 0.68038 0.0
H641 H 0.40343 0.36099 0.76531 0.0
H642 H 0.41907 0.33704 0.79116 0.0
H643 H 0.47937 0.34571 0.76379 0.0
H644 H 0.46415 0.3699 0.73797 0.0
H645 H 0.35605 0.46511 0.73642 0.0
H646 H 0.37031 0.4339 0.71809 0.0
H647 H 0.42648 0.44209 0.76165 0.0
H648 H 0.4115 0.47232 0.78087 0.0
H649 H 0.41448 0.40324 0.75943 0.0
H650 H 0.42447 0.45354 0.70514 0.0
H651 H 0.41367 0.48037 0.67988 0.0
H652 H 0.36867 0.43345 0.64657 0.0
H653 H 0.37904 0.40639 0.67179 0.0
C654 C 0.45947 0.3425 0.68048 0.0
C655 C 0.45448 0.32202 0.68775 0.0
C656 C 0.4488 0.3602 0.68759 0.0
C657 C 0.43277 0.3578 0.70197 0.0
C658 C 0.42684 0.33709 0.70822 0.0
C659 C 0.43781 0.31937 0.70139 0.0
C660 C 0.42349 0.37723 0.71144 0.0
C661 C 0.41594 0.39246 0.69767 0.0
C662 C 0.42323 0.38141 0.734 0.0
C663 C 0.43257 0.36703 0.74956 0.0
C664 C 0.42003 0.35781 0.76486 0.0
C665 C 0.42882 0.3442 0.77949 0.0
C666 C 0.45017 0.3398 0.77906 0.0
C667 C 0.46281 0.34907 0.76405 0.0
C668 C 0.45411 0.36271 0.7494 0.0
C669 C 0.37161 0.46043 0.74178 0.0
C670 C 0.38274 0.47105 0.75999 0.0
C671 C 0.37979 0.44262 0.73127 0.0
C672 C 0.39958 0.43564 0.73835 0.0
C673 C 0.41111 0.447 0.75596 0.0
C674 C 0.40265 0.46435 0.76685 0.0
C675 C 0.40776 0.41578 0.72842 0.0
C676 C 0.41493 0.40032 0.74212 0.0
C677 C 0.40846 0.41185 0.70585 0.0
C678 C 0.40239 0.42801 0.69049 0.0
C679 C 0.41219 0.44898 0.6925 0.0
C680 C 0.40616 0.46422 0.67818 0.0
C681 C 0.39045 0.45864 0.66167 0.0
C682 C 0.38082 0.43776 0.65938 0.0
C683 C 0.38678 0.42246 0.67367 0.0
H684 H 0.38577 0.47047 0.65063 0.0
H685 H 0.45694 0.32924 0.79039 0.0
H686 H 0.96907 0.17228 0.88653 0.0
H687 H 0.93352 0.17023 0.89929 0.0
H688 H 0.91664 0.22227 0.86045 0.0
H689 H 0.95259 0.22481 0.84798 0.0
H690 H 0.9053 0.22993 0.89953 0.0
H691 H 0.89402 0.17022 0.84879 0.0
H692 H 0.9015 0.13638 0.82895 0.0
H693 H 0.89993 0.10333 0.88727 0.0
H694 H 0.89276 0.13702 0.90755 0.0
H695 H 0.80317 0.21287 0.9452 0.0
H696 H 0.82908 0.21515 0.91752 0.0
H697 H 0.86848 0.17307 0.95203 0.0
H698 H 0.84328 0.1712 0.97981 0.0
H699 H 0.86221 0.16187 0.90692 0.0
H700 H 0.88088 0.22444 0.95747 0.0
H701 H 0.87326 0.25856 0.97674 0.0
H702 H 0.85965 0.28619 0.91642 0.0
H703 H 0.86693 0.25209 0.89679 0.0
C704 C 0.95775 0.1831 0.88041 0.0
C705 C 0.96371 0.19878 0.86632 0.0
C706 C 0.93731 0.1818 0.88762 0.0
C707 C 0.92227 0.19594 0.88065 0.0
C708 C 0.92796 0.21117 0.86601 0.0
C709 C 0.94849 0.21256 0.85887 0.0
C710 C 0.9014 0.19591 0.89029 0.0
C711 C 0.89558 0.21513 0.90061 0.0
C712 C 0.8887 0.17662 0.89184 0.0
C713 C 0.89293 0.15622 0.87972 0.0
C714 C 0.8954 0.15577 0.85742 0.0
C715 C 0.89957 0.1366 0.84609 0.0
C716 C 0.90121 0.11772 0.85685 0.0
C717 C 0.89864 0.11796 0.87896 0.0
C718 C 0.89449 0.13709 0.89038 0.0
C719 C 0.81736 0.20411 0.94685 0.0
C720 C 0.82103 0.19164 0.9646 0.0
C721 C 0.83208 0.20539 0.93102 0.0
C722 C 0.85056 0.19411 0.93269 0.0
C723 C 0.85417 0.18165 0.95032 0.0
C724 C 0.83968 0.18059 0.9662 0.0
C725 C 0.86677 0.19564 0.91666 0.0
C726 C 0.87166 0.17672 0.9052 0.0
C727 C 0.87848 0.2152 0.91388 0.0
C728 C 0.87416 0.23566 0.92569 0.0
C729 C 0.87607 0.23773 0.94833 0.0
C730 C 0.87186 0.25707 0.95931 0.0
C731 C 0.8659 0.27451 0.94782 0.0
C732 C 0.86421 0.27265 0.9253 0.0
C733 C 0.86838 0.25333 0.91424 0.0
H734 H 0.86265 0.28947 0.95635 0.0
H735 H 0.90444 0.1029 0.84804 0.0
H736 H 0.31377 0.04093 0.44648 0.0
H737 H 0.33336 0.02905 0.4159 0.0
H738 H 0.33001 0.09173 0.39062 0.0
H739 H 0.30969 0.10333 0.42067 0.0
H740 H 0.31926 0.06334 0.36006 0.0
H741 H 0.37789 0.07257 0.41181 0.0
H742 H 0.39824 0.06914 0.44632 0.0
H743 H 0.3952 0.00042 0.43433 0.0
H744 H 0.37456 0.00339 0.39988 0.0
H745 H 0.38934 0.0289 0.27767 0.0
H746 H 0.37485 0.04903 0.30791 0.0
H747 H 0.35882 0.98946 0.3365 0.0
H748 H 0.37282 0.96929 0.30655 0.0
H749 H 0.38309 0.02121 0.36456 0.0
H750 H 0.32078 0.01362 0.31404 0.0
H751 H 0.30136 0.01851 0.27933 0.0
H752 H 0.31378 0.08704 0.28911 0.0
H753 H 0.33353 0.08252 0.32377 0.0
C754 C 0.31754 0.0523 0.43461 0.0
C755 C 0.31009 0.07304 0.43596 0.0
C756 C 0.32883 0.04552 0.41714 0.0
C757 C 0.33334 0.05955 0.40097 0.0
C758 C 0.32666 0.08058 0.40281 0.0
C759 C 0.31506 0.08722 0.42007 0.0
C760 C 0.34356 0.05174 0.38139 0.0
C761 C 0.3335 0.05455 0.36109 0.0
C762 C 0.36205 0.0401 0.38261 0.0
C763 C 0.37454 0.03821 0.40331 0.0
C764 C 0.38143 0.05671 0.41659 0.0
C765 C 0.39304 0.05485 0.43614 0.0
C766 C 0.39798 0.03458 0.44253 0.0
C767 C 0.39135 0.01612 0.42936 0.0
C768 C 0.37972 0.01788 0.4098 0.0
C769 C 0.38245 0.02008 0.29024 0.0
C770 C 0.38235 0.99747 0.28968 0.0
C771 C 0.37425 0.03161 0.3075 0.0
C772 C 0.36598 0.02067 0.32447 0.0
C773 C 0.36531 0.99816 0.32363 0.0
C774 C 0.37324 0.98667 0.30637 0.0
C775 C 0.35847 0.03245 0.34355 0.0
C776 C 0.36908 0.03038 0.36368 0.0
C777 C 0.34072 0.04503 0.34216 0.0
C778 C 0.32886 0.04772 0.32135 0.0
C779 C 0.31955 0.02972 0.30868 0.0
C780 C 0.30844 0.03243 0.28905 0.0
C781 C 0.3064 0.05307 0.28198 0.0
C782 C 0.31541 0.07106 0.29458 0.0
C783 C 0.32655 0.06843 0.31422 0.0
H784 H 0.29779 0.05514 0.26678 0.0
H785 H 0.40697 0.03317 0.45767 0.0
H786 H 0.16292 0.01044 0.68277 0.0
H787 H 0.1772 0.02277 0.64977 0.0
H788 H 0.24088 0.01808 0.67725 0.0
H789 H 0.22676 0.00624 0.71042 0.0
H790 H 0.23789 0.05498 0.65906 0.0
H791 H 0.21735 0.98071 0.63788 0.0
H792 H 0.19279 0.94823 0.63267 0.0
H793 H 0.15163 0.98084 0.59011 0.0
H794 H 0.17582 0.01362 0.59529 0.0
H795 H 0.29238 0.06396 0.56324 0.0
H796 H 0.27753 0.05123 0.59582 0.0
H797 H 0.21431 0.05853 0.56843 0.0
H798 H 0.22897 0.07104 0.53574 0.0
H799 H 0.2167 0.02052 0.58636 0.0
H800 H 0.23708 0.09456 0.60723 0.0
H801 H 0.26113 0.12738 0.61275 0.0
H802 H 0.30225 0.09546 0.65596 0.0
H803 H 0.27859 0.06233 0.65047 0.0
C804 C 0.17996 0.01188 0.68173 0.0
C805 C 0.1937 0.00735 0.69923 0.0
C806 C 0.18811 0.01887 0.66282 0.0
C807 C 0.21013 0.02119 0.66094 0.0
C808 C 0.22385 0.01646 0.67833 0.0
C809 C 0.21573 0.00961 0.69727 0.0
C810 C 0.21897 0.02913 0.64114 0.0
C811 C 0.23348 0.04724 0.64319 0.0
C812 C 0.2128 0.01942 0.62037 0.0
C813 C 0.1983 -0.00032 0.61714 0.0
C814 C 0.20299 0.981 0.62753 0.0
C815 C 0.18914 0.96253 0.62456 0.0
C816 C 0.17063 0.96249 0.61111 0.0
C817 C 0.16596 0.9809 0.60055 0.0
C818 C 0.17974 -0.00058 0.60348 0.0
C819 C 0.27532 0.06292 0.56416 0.0
C820 C 0.26187 0.06853 0.54688 0.0
C821 C 0.26686 0.05571 0.58283 0.0
C822 C 0.24481 0.05408 0.58462 0.0
C823 C 0.23136 0.05964 0.56739 0.0
C824 C 0.2398 0.06687 0.54874 0.0
C825 C 0.23571 0.04626 0.60432 0.0
C826 C 0.22113 0.02822 0.60224 0.0
C827 C 0.24181 0.05604 0.62507 0.0
C828 C 0.25616 0.07589 0.62827 0.0
C829 C 0.25136 0.09447 0.61775 0.0
C830 C 0.2649 0.11314 0.6209 0.0
C831 C 0.28323 0.11349 0.63466 0.0
C832 C 0.28806 0.09516 0.64529 0.0
C833 C 0.27458 0.07643 0.64217 0.0
H834 H 0.29364 0.12799 0.63718 0.0
H835 H 0.15994 0.94817 0.60884 0.0
H836 H 0.14627 0.9686 0.82365 0.0
H837 H 0.15704 0.94963 0.85516 0.0
H838 H 0.21574 0.93599 0.82702 0.0
H839 H 0.2046 0.95406 0.79502 0.0
H840 H 0.20062 0.90191 0.84341 0.0
H841 H 0.21165 0.97655 0.86876 0.0
H842 H 0.20149 0.01368 0.87626 0.0
H843 H 0.15438 0.99082 0.91757 0.0
H844 H 0.16409 0.9535 0.9101 0.0
H845 H 0.26488 0.87684 0.93169 0.0
H846 H 0.24943 0.89876 0.90465 0.0
H847 H 0.189 0.89232 0.93269 0.0
H848 H 0.20431 0.87006 0.96001 0.0
H849 H 0.20169 0.9355 0.91784 0.0
H850 H 0.19299 0.86047 0.89296 0.0
H851 H 0.20535 0.82413 0.88596 0.0
H852 H 0.25053 0.84917 0.84373 0.0
H853 H 0.23865 0.88574 0.85074 0.0
C854 C 0.16137 0.96141 0.82405 0.0
C855 C 0.17449 0.96271 0.80671 0.0
C856 C 0.16763 0.95075 0.84222 0.0
C857 C 0.18734 0.94162 0.84363 0.0
C858 C 0.20044 0.94289 0.82632 0.0
C859 C 0.19406 0.95326 0.80803 0.0
C860 C 0.19426 0.9303 0.86287 0.0
C861 C 0.20101 0.9094 0.85963 0.0
C862 C 0.19427 0.93978 0.88416 0.0
C863 C 0.18844 0.96221 0.88868 0.0
C864 C 0.19901 0.97942 0.87931 0.0
C865 C 0.19335 0.00051 0.88358 0.0
C866 C 0.17726 0.0046 0.89733 0.0
C867 C 0.16682 0.98762 0.90689 0.0
C868 C 0.1724 0.9665 0.90266 0.0
C869 C 0.24837 0.88025 0.9324 0.0
C870 C 0.23576 0.87138 0.94789 0.0
C871 C 0.23959 0.89283 0.9169 0.0
C872 C 0.21806 0.89687 0.91655 0.0
C873 C 0.20566 0.88928 0.93272 0.0
C874 C 0.21443 0.87654 0.94827 0.0
C875 C 0.20837 0.90747 0.89816 0.0
C876 C 0.20107 0.92809 0.90158 0.0
C877 C 0.20805 0.89789 0.87697 0.0
C878 C 0.21504 0.87586 0.87252 0.0
C879 C 0.20567 0.85825 0.88231 0.0
C880 C 0.21257 0.83761 0.87832 0.0
C881 C 0.22875 0.83435 0.86445 0.0
C882 C 0.23801 0.85172 0.85449 0.0
C883 C 0.23119 0.8724 0.85844 0.0
H884 H 0.23407 0.81835 0.86138 0.0
H885 H 0.1729 0.02093 0.90062 0.0
H886 H 0.26627 0.85363 0.05927 0.0
H887 H 0.28317 0.8739 0.09124 0.0
H888 H 0.33589 0.89383 0.0548 0.0
H889 H 0.31934 0.87321 0.02289 0.0
H890 H 0.35015 0.88168 0.09192 0.0
H891 H 0.29738 0.92874 0.06952 0.0
H892 H 0.26147 0.93895 0.05857 0.0
H893 H 0.23974 0.92222 0.11963 0.0
H894 H 0.27547 0.91163 0.13084 0.0
H895 H 0.39565 0.9614 0.17071 0.0
H896 H 0.37589 0.94705 0.13728 0.0
H897 H 0.33066 0.91314 0.17404 0.0
H898 H 0.35052 0.92704 0.20752 0.0
H899 H 0.31281 0.93415 0.13641 0.0
H900 H 0.36556 0.88519 0.15736 0.0
H901 H 0.40182 0.87595 0.16824 0.0
H902 H 0.42384 0.89768 0.10901 0.0
H903 H 0.38773 0.90737 0.09793 0.0
C904 C 0.28139 0.86245 0.05799 0.0
C905 C 0.29141 0.86181 0.03846 0.0
C906 C 0.29101 0.87412 0.07629 0.0
C907 C 0.31069 0.88566 0.07539 0.0
C908 C 0.32069 0.88509 0.05591 0.0
C909 C 0.31117 0.87331 0.03764 0.0
C910 C 0.32119 0.89776 0.09492 0.0
C911 C 0.34206 0.89341 0.10139 0.0
C912 C 0.31056 0.9128 0.1076 0.0
C913 C 0.28906 0.91921 0.10094 0.0
C914 C 0.28491 0.92709 0.08055 0.0
C915 C 0.26459 0.93297 0.07431 0.0
C916 C 0.24832 0.93119 0.08837 0.0
C917 C 0.25235 0.92357 0.10874 0.0
C918 C 0.27264 0.91765 0.11506 0.0
C919 C 0.38126 0.95124 0.17169 0.0
C920 C 0.3747 0.94524 0.19173 0.0
C921 C 0.37005 0.94301 0.15259 0.0
C922 C 0.35193 0.92895 0.15325 0.0
C923 C 0.34461 0.92398 0.17323 0.0
C924 C 0.35601 0.93188 0.19232 0.0
C925 C 0.34162 0.91803 0.13317 0.0
C926 C 0.32084 0.92255 0.12672 0.0
C927 C 0.35234 0.90325 0.12041 0.0
C928 C 0.37401 0.89725 0.12694 0.0
C929 C 0.37817 0.88819 0.14675 0.0
C930 C 0.39869 0.88283 0.15293 0.0
C931 C 0.41514 0.88629 0.13935 0.0
C932 C 0.41109 0.89505 0.11953 0.0
C933 C 0.3906 0.90046 0.11328 0.0
H934 H 0.43102 0.88215 0.14417 0.0
H935 H 0.2326 0.93575 0.08351 0.0
H936 H 0.31121 0.41569 0.03193 0.0
H937 H 0.34788 0.40539 0.03547 0.0
H938 H 0.33204 0.36589 0.08735 0.0
H939 H 0.29569 0.37658 0.08437 0.0
H940 H 0.37099 0.38358 0.09493 0.0
H941 H 0.33009 0.34557 0.03356 0.0
H942 H 0.30891 0.34347 -0.00121 0.0
H943 H 0.36038 0.37618 0.96966 0.0
H944 H 0.38177 0.37868 0.00435 0.0
H945 H 0.41852 0.28632 0.08753 0.0
H946 H 0.39509 0.31558 0.08514 0.0
H947 H 0.43814 0.34859 0.04538 0.0
H948 H 0.46238 0.31944 0.04832 0.0
H949 H 0.39305 0.3434 0.02969 0.0
H950 H 0.43675 0.37129 0.09103 0.0
H951 H 0.45685 0.36963 0.12599 0.0
H952 H 0.39918 0.353 0.15568 0.0
H953 H 0.37875 0.35417 0.12083 0.0
C954 C 0.31566 0.40513 0.04437 0.0
C955 C 0.30047 0.39667 0.05766 0.0
C956 C 0.33661 0.39923 0.04632 0.0
C957 C 0.3426 0.38453 0.06138 0.0
C958 C 0.32779 0.37722 0.07558 0.0
C959 C 0.30694 0.38327 0.07379 0.0
C960 C 0.36348 0.37497 0.06118 0.0
C961 C 0.37589 0.3749 0.08065 0.0
C962 C 0.3702 0.36412 0.04239 0.0
C963 C 0.35739 0.36257 0.02157 0.0
C964 C 0.33681 0.35244 0.01976 0.0
C965 C 0.32479 0.35116 8e-05 0.0
C966 C 0.33327 0.35976 0.98205 0.0
C967 C 0.35382 0.36959 0.98365 0.0
C968 C 0.36589 0.37094 0.00331 0.0
C969 C 0.42333 0.29991 0.0786 0.0
C970 C 0.44254 0.30069 0.06844 0.0
C971 C 0.40984 0.31662 0.07721 0.0
C972 C 0.41509 0.33434 0.06538 0.0
C973 C 0.43399 0.33509 0.05476 0.0
C974 C 0.44775 0.31844 0.05644 0.0
C975 C 0.39998 0.35135 0.06359 0.0
C976 C 0.38861 0.35276 0.04378 0.0
C977 C 0.39406 0.36316 0.08211 0.0
C978 C 0.40621 0.36275 0.10325 0.0
C979 C 0.42835 0.36715 0.10498 0.0
C980 C 0.43982 0.36631 0.12479 0.0
C981 C 0.42931 0.3612 0.14304 0.0
C982 C 0.4073 0.35697 0.14153 0.0
C983 C 0.39577 0.35776 0.12175 0.0
H984 H 0.43821 0.36054 0.15836 0.0
H985 H 0.32393 0.35875 0.96682 0.0
H986 H 0.96997 0.85282 0.17945 0.0
H987 H 0.95037 0.88328 0.19099 0.0
H988 H 0.90946 0.84129 0.22517 0.0
H989 H 0.92977 0.81065 0.21431 0.0
H990 H 0.91289 0.89574 0.18634 0.0
H991 H 0.89533 0.86772 0.27038 0.0
H992 H 0.90982 0.84426 0.29737 0.0
H993 H 0.97179 0.85381 0.27377 0.0
H994 H 0.95771 0.87751 0.24683 0.0
H995 H 0.84823 0.97066 0.23829 0.0
H996 H 0.86378 0.93964 0.22097 0.0
H997 H 0.9184 0.94942 0.26645 0.0
H998 H 0.90234 0.97962 0.28444 0.0
H999 H 0.90629 0.91014 0.26469 0.0
H1000 H 0.91899 0.95993 0.21067 0.0
H1001 H 0.90988 0.98627 0.18425 0.0
H1002 H 0.86713 0.93864 0.14882 0.0
H1003 H 0.87579 0.91208 0.1752 0.0
C1004 C 0.95667 0.84996 0.18924 0.0
C1005 C 0.95151 0.82936 0.19613 0.0
C1006 C 0.94541 0.86743 0.19578 0.0
C1007 C 0.9286 0.86469 0.20919 0.0
C1008 C 0.92265 0.84389 0.21518 0.0
C1009 C 0.93419 0.82638 0.20891 0.0
C1010 C 0.91837 0.8839 0.21783 0.0
C1011 C 0.91134 0.89885 0.20347 0.0
C1012 C 0.91674 0.88824 0.24021 0.0
C1013 C 0.9254 0.87415 0.25644 0.0
C1014 C 0.91205 0.86483 0.271 0.0
C1015 C 0.92019 0.8515 0.28628 0.0
C1016 C 0.94169 0.84748 0.28723 0.0
C1017 C 0.95512 0.85686 0.27296 0.0
C1018 C 0.94706 0.87023 0.25767 0.0
C1019 C 0.86374 0.96641 0.24428 0.0
C1020 C 0.8741 0.97747 0.26269 0.0
C1021 C 0.87264 0.94868 0.23437 0.0
C1022 C 0.89232 0.94214 0.24236 0.0
C1023 C 0.90312 0.95396 0.2601 0.0
C1024 C 0.89401 0.97131 0.27029 0.0
C1025 C 0.90114 0.92226 0.23326 0.0
C1026 C 0.90772 0.90706 0.24754 0.0
C1027 C 0.90313 0.91815 0.2109 0.0
C1028 C 0.89786 0.93409 0.19504 0.0
C1029 C 0.90752 0.95512 0.19734 0.0
C1030 C 0.90246 0.97008 0.18235 0.0
C1031 C 0.88789 0.96415 0.1649 0.0
C1032 C 0.87838 0.94323 0.16236 0.0
C1033 C 0.88337 0.92821 0.17732 0.0
H1034 H 0.884 0.97575 0.15331 0.0
H1035 H 0.94796 0.83714 0.29905 0.0
H1036 H 0.21362 0.66981 0.52546 0.0
H1037 H 0.1769 0.67613 0.53248 0.0
H1038 H 0.18887 0.74361 0.52286 0.0
H1039 H 0.22572 0.73751 0.51611 0.0
H1040 H 0.16569 0.73807 0.55706 0.0
H1041 H 0.16362 0.71015 0.48333 0.0
H1042 H 0.17063 0.68409 0.45362 0.0
H1043 H 0.13371 0.63454 0.48203 0.0
H1044 H 0.12672 0.66024 0.51208 0.0
H1045 H 0.04742 0.7387 0.51618 0.0
H1046 H 0.08425 0.73215 0.50984 0.0
H1047 H 0.09512 0.71672 0.57595 0.0
H1048 H 0.05839 0.7235 0.58254 0.0
H1049 H 0.1069 0.69728 0.51258 0.0
H1050 H 0.14548 0.73551 0.59371 0.0
H1051 H 0.13858 0.7635 0.6217 0.0
H1052 H 0.10249 0.79637 0.57489 0.0
H1053 H 0.10942 0.76876 0.54658 0.0
C1054 C 0.20848 0.68602 0.52492 0.0
C1055 C 0.22257 0.70315 0.52011 0.0
C1056 C 0.18747 0.68959 0.52887 0.0
C1057 C 0.1801 0.71029 0.52794 0.0
C1058 C 0.19424 0.7275 0.52364 0.0
C1059 C 0.21527 0.72397 0.51971 0.0
C1060 C 0.15756 0.71396 0.53108 0.0
C1061 C 0.15283 0.72912 0.54737 0.0
C1062 C 0.14081 0.70251 0.51821 0.0
C1063 C 0.14481 0.68707 0.50005 0.0
C1064 C 0.15712 0.69366 0.48332 0.0
C1065 C 0.16107 0.67896 0.46641 0.0
C1066 C 0.15267 0.65766 0.46597 0.0
C1067 C 0.14023 0.65103 0.48241 0.0
C1068 C 0.13625 0.66567 0.49937 0.0
C1069 C 0.05761 0.73384 0.52937 0.0
C1070 C 0.05 0.73175 0.5499 0.0
C1071 C 0.07864 0.73005 0.52569 0.0
C1072 C 0.09247 0.72419 0.54248 0.0
C1073 C 0.08479 0.72154 0.56286 0.0
C1074 C 0.06377 0.72535 0.56656 0.0
C1075 C 0.11502 0.72121 0.53873 0.0
C1076 C 0.11975 0.70616 0.52233 0.0
C1077 C 0.13178 0.73304 0.55126 0.0
C1078 C 0.12779 0.74993 0.56809 0.0
C1079 C 0.13614 0.74876 0.58938 0.0
C1080 C 0.13222 0.76455 0.6053 0.0
C1081 C 0.12005 0.78166 0.6001 0.0
C1082 C 0.11185 0.78307 0.57893 0.0
C1083 C 0.11575 0.76734 0.56294 0.0
H1084 H 0.117 0.79385 0.61245 0.0
H1085 H 0.15576 0.6463 0.45287 0.0
H1086 H 0.94112 0.70458 0.64487 0.0
H1087 H 0.93762 0.67054 0.66172 0.0
H1088 H 0.99355 0.65001 0.63232 0.0
H1089 H 0.99693 0.68404 0.61483 0.0
H1090 H 0.96286 0.61891 0.62757 0.0
H1091 H 0.9943 0.66442 0.68683 0.0
H1092 H -0.00123 0.69648 0.71234 0.0
H1093 H 0.93717 0.68154 0.73489 0.0
H1094 H 0.9322 0.64954 0.7093 0.0
H1095 H 0.96846 0.5274 0.69087 0.0
H1096 H 0.9762 0.56138 0.67452 0.0
H1097 H 0.91811 0.58506 0.69632 0.0
H1098 H 0.91023 0.55112 0.71281 0.0
H1099 H 0.95267 0.61422 0.70546 0.0
H1100 H 0.92103 0.56958 0.64448 0.0
H1101 H 0.91721 0.53739 0.61912 0.0
H1102 H 0.98056 0.55068 0.60028 0.0
H1103 H 0.98487 0.58281 0.62577 0.0
C1104 C 0.95285 0.69297 0.64208 0.0
C1105 C 0.96934 0.6971 0.62846 0.0
C1106 C 0.95086 0.6735 0.65185 0.0
C1107 C 0.96547 0.65781 0.64852 0.0
C1108 C 0.98211 0.66192 0.63515 0.0
C1109 C 0.98406 0.68141 0.62522 0.0
C1110 C 0.96267 0.6368 0.65829 0.0
C1111 C 0.96104 0.61787 0.64468 0.0
C1112 C 0.95987 0.63545 0.68054 0.0
C1113 C 0.96282 0.65466 0.69601 0.0
C1114 C 0.98164 0.66805 0.69711 0.0
C1115 C 0.98427 0.68621 0.71161 0.0
C1116 C 0.96825 0.69107 0.7252 0.0
C1117 C 0.94957 0.67776 0.72435 0.0
C1118 C 0.94685 0.6596 0.70987 0.0
C1119 C 0.95724 0.53977 0.69209 0.0
C1120 C 0.93872 0.53656 0.70314 0.0
C1121 C 0.96168 0.55916 0.68269 0.0
C1122 C 0.94768 0.57568 0.68415 0.0
C1123 C 0.92912 0.57249 0.69505 0.0
C1124 C 0.9246 0.55306 0.70437 0.0
C1125 C 0.95261 0.59648 0.6747 0.0
C1126 C 0.95467 0.61532 0.68839 0.0
C1127 C 0.95594 0.59774 0.65257 0.0
C1128 C 0.95335 0.57846 0.6372 0.0
C1129 C 0.93421 0.56553 0.63507 0.0
C1130 C 0.93194 0.54732 0.62064 0.0
C1131 C 0.94865 0.54196 0.60814 0.0
C1132 C 0.96765 0.55483 0.61 0.0
C1133 C 0.97 0.57306 0.62442 0.0
H1134 H 0.94687 0.52785 0.59698 0.0
H1135 H 0.97032 0.70513 0.73641 0.0
H1136 H 0.20755 0.12222 0.48835 0.0
H1137 H 0.17352 0.1387 0.48568 0.0
H1138 H 0.19835 0.18286 0.44145 0.0
H1139 H 0.23244 0.16669 0.44411 0.0
H1140 H 0.17379 0.20245 0.47063 0.0
H1141 H 0.16937 0.13837 0.42233 0.0
H1142 H 0.17191 0.09963 0.41304 0.0
H1143 H 0.12475 0.08416 0.45726 0.0
H1144 H 0.12214 0.12284 0.46704 0.0
H1145 H 0.07973 0.23701 0.42233 0.0
H1146 H 0.11347 0.22037 0.42725 0.0
H1147 H 0.08454 0.17424 0.46716 0.0
H1148 H 0.05061 0.19043 0.46187 0.0
H1149 H 0.11095 0.15536 0.44182 0.0
H1150 H 0.11423 0.21899 0.48952 0.0
H1151 H 0.11156 0.2576 0.4994 0.0
H1152 H 0.16064 0.27385 0.45753 0.0
H1153 H 0.1634 0.23533 0.44717 0.0
C1154 C 0.2059 0.13564 0.4783 0.0
C1155 C 0.22267 0.14298 0.46626 0.0
C1156 C 0.18641 0.14496 0.47672 0.0
C1157 C 0.18337 0.16174 0.4631 0.0
C1158 C 0.20038 0.16985 0.45197 0.0
C1159 C 0.21983 0.16053 0.45348 0.0
C1160 C 0.16221 0.17021 0.45955 0.0
C1161 C 0.16008 0.19223 0.46415 0.0
C1162 C 0.14427 0.15671 0.45155 0.0
C1163 C 0.14573 0.13347 0.44558 0.0
C1164 C 0.15966 0.1267 0.4302 0.0
C1165 C 0.1611 0.10476 0.42482 0.0
C1166 C 0.14854 0.08944 0.4346 0.0
C1167 C 0.13449 0.09604 0.44973 0.0
C1168 C 0.13302 0.11797 0.45518 0.0
C1169 C 0.08049 0.22317 0.43195 0.0
C1170 C 0.06256 0.21516 0.44189 0.0
C1171 C 0.0998 0.21376 0.43485 0.0
C1172 C 0.10162 0.1964 0.44799 0.0
C1173 C 0.08351 0.18773 0.45708 0.0
C1174 C 0.06414 0.19701 0.45404 0.0
C1175 C 0.12251 0.18768 0.45276 0.0
C1176 C 0.12461 0.16561 0.4484 0.0
C1177 C 0.1404 0.20112 0.46111 0.0
C1178 C 0.13888 0.22429 0.46742 0.0
C1179 C 0.12435 0.2308 0.48231 0.0
C1180 C 0.12283 0.25267 0.48801 0.0
C1181 C 0.13588 0.26817 0.47905 0.0
C1182 C 0.15052 0.26183 0.46443 0.0
C1183 C 0.15208 0.23998 0.45865 0.0
H1184 H 0.13468 0.28509 0.48349 0.0
H1185 H 0.14967 0.07246 0.43041 0.0
H1186 H 0.62839 0.43251 0.2172 0.0
H1187 H 0.61047 0.40197 0.19527 0.0
H1188 H 0.56226 0.39711 0.24105 0.0
H1189 H 0.58042 0.42695 0.26335 0.0
H1190 H 0.57125 0.35868 0.22796 0.0
H1191 H 0.55548 0.42328 0.19278 0.0
H1192 H 0.56446 0.45712 0.17589 0.0
H1193 H 0.59738 0.42245 0.12807 0.0
H1194 H 0.58878 0.38841 0.14483 0.0
H1195 H 0.48269 0.30904 0.16392 0.0
H1196 H 0.50769 0.33408 0.18593 0.0
H1197 H 0.5547 0.32571 0.13947 0.0
H1198 H 0.52988 0.30061 0.11733 0.0
H1199 H 0.54958 0.36865 0.15155 0.0
H1200 H 0.56114 0.30314 0.18543 0.0
H1201 H 0.55067 0.26984 0.20251 0.0
H1202 H 0.52384 0.30693 0.25312 0.0
H1203 H 0.53388 0.34046 0.23617 0.0
C1204 C 0.61407 0.42481 0.22266 0.0
C1205 C 0.60577 0.43225 0.24196 0.0
C1206 C 0.60379 0.40742 0.21007 0.0
C1207 C 0.5848 0.39747 0.21632 0.0
C1208 C 0.57687 0.4045 0.23588 0.0
C1209 C 0.58728 0.42163 0.2486 0.0
C1210 C 0.57267 0.38024 0.2023 0.0
C1211 C 0.56639 0.36094 0.2113 0.0
C1212 C 0.56669 0.38295 0.1804 0.0
C1213 C 0.57169 0.40336 0.17019 0.0
C1214 C 0.56474 0.4229 0.17874 0.0
C1215 C 0.56974 0.44211 0.16918 0.0
C1216 C 0.58154 0.44194 0.15096 0.0
C1217 C 0.58828 0.42255 0.14221 0.0
C1218 C 0.58333 0.4033 0.15172 0.0
C1219 C 0.49838 0.3124 0.15841 0.0
C1220 C 0.50427 0.30279 0.13886 0.0
C1221 C 0.51266 0.32666 0.17106 0.0
C1222 C 0.53306 0.33161 0.16437 0.0
C1223 C 0.53903 0.32205 0.14491 0.0
C1224 C 0.52483 0.30766 0.13233 0.0
C1225 C 0.54788 0.34735 0.17737 0.0
C1226 C 0.55465 0.36634 0.16815 0.0
C1227 C 0.55409 0.34445 0.19912 0.0
C1228 C 0.54812 0.32431 0.20942 0.0
C1229 C 0.55286 0.30419 0.20011 0.0
C1230 C 0.54703 0.28527 0.20978 0.0
C1231 C 0.53656 0.28626 0.22886 0.0
C1232 C 0.53194 0.30618 0.23833 0.0
C1233 C 0.53772 0.32516 0.22871 0.0
H1234 H 0.53206 0.27159 0.23633 0.0
H1235 H 0.58541 0.45683 0.14359 0.0
H1236 H 0.28523 0.7739 0.03099 0.0
H1237 H 0.31966 0.7577 0.03254 0.0
H1238 H 0.3236 0.76427 0.96438 0.0
H1239 H 0.28958 0.78059 0.9628 0.0
H1240 H 0.33899 0.72552 0.97847 0.0
H1241 H 0.34456 0.80338 0.99691 0.0
H1242 H 0.33619 0.83553 0.01903 0.0
H1243 H 0.36231 0.80861 0.07581 0.0
H1244 H 0.37059 0.77612 0.05398 0.0
H1245 H 0.4338 0.76134 0.93954 0.0
H1246 H 0.39872 0.7544 0.95267 0.0
H1247 H 0.4272 0.74412 0.01559 0.0
H1248 H 0.46266 0.75097 0.0023 0.0
H1249 H 0.39625 0.77523 0.01513 0.0
H1250 H 0.40114 0.70231 0.99118 0.0
H1251 H 0.40878 0.67126 0.96711 0.0
H1252 H 0.36318 0.68969 0.91894 0.0
H1253 H 0.3554 0.72098 0.9426 0.0
C1254 C 0.29328 0.77141 0.0163 0.0
C1255 C 0.28496 0.77865 0.99681 0.0
C1256 C 0.31286 0.76218 0.01721 0.0
C1257 C 0.32409 0.75987 -0.00143 0.0
C1258 C 0.31508 0.76581 0.97889 0.0
C1259 C 0.29576 0.77529 0.97805 0.0
C1260 C 0.34631 0.75397 -0.00038 0.0
C1261 C 0.35158 0.73616 0.98666 0.0
C1262 C 0.36259 0.76763 0.01081 0.0
C1263 C 0.35793 0.78724 0.02389 0.0
C1264 C 0.34838 0.80426 0.01414 0.0
C1265 C 0.34366 0.82255 0.02662 0.0
C1266 C 0.34862 0.82408 0.04884 0.0
C1267 C 0.35841 0.80737 0.05861 0.0
C1268 C 0.36312 0.78901 0.04619 0.0
C1269 C 0.43262 0.7576 0.95614 0.0
C1270 C 0.45083 0.75712 0.97005 0.0
C1271 C 0.4126 0.7533 0.96355 0.0
C1272 C 0.41043 0.7486 0.98505 0.0
C1273 C 0.42862 0.74757 -0.0011 0.0
C1274 C 0.44876 0.7515 0.99133 0.0
C1275 C 0.389 0.74725 0.99317 0.0
C1276 C 0.3838 0.76386 0.00775 0.0
C1277 C 0.3728 0.73261 0.98326 0.0
C1278 C 0.37768 0.71402 0.96872 0.0
C1279 C 0.39283 0.69984 0.9754 0.0
C1280 C 0.39713 0.68214 0.96186 0.0
C1281 C 0.3864 0.67846 0.94155 0.0
C1282 C 0.37141 0.69251 0.93471 0.0
C1283 C 0.367 0.7102 0.94822 0.0
H1284 H 0.38975 0.66474 0.93109 0.0
H1285 H 0.34494 0.83825 0.05848 0.0
H1286 H 0.91876 0.41705 0.77115 0.0
H1287 H 0.9367 0.38509 0.77962 0.0
H1288 H 0.98443 0.40089 0.73567 0.0
H1289 H 0.96601 0.43289 0.72645 0.0
H1290 H 0.97434 0.35707 0.73493 0.0
H1291 H 0.99468 0.41469 0.78766 0.0
H1292 H 0.98909 0.44467 0.81396 0.0
H1293 H 0.95466 0.40114 0.85197 0.0
H1294 H 0.95977 0.37094 0.82572 0.0
H1295 H 0.04874 0.29171 0.78828 0.0
H1296 H 0.03182 0.32173 0.7724 0.0
H1297 H 0.97805 0.31097 0.8105 0.0
H1298 H 0.99474 0.28095 0.82646 0.0
H1299 H 0.99437 0.35358 0.81287 0.0
H1300 H 0.9734 0.29612 0.75868 0.0
H1301 H 0.97977 0.26654 0.73223 0.0
H1302 H 0.01711 0.31037 0.69709 0.0
H1303 H 0.0112 0.34018 0.72352 0.0
C1304 C 0.93277 0.41361 0.76287 0.0
C1305 C 0.941 0.42762 0.74819 0.0
C1306 C 0.94311 0.39535 0.76786 0.0
C1307 C 0.96212 0.39092 0.75863 0.0
C1308 C 0.96982 0.40414 0.74305 0.0
C1309 C 0.9593 0.4224 0.73785 0.0
C1310 C 0.97447 0.3733 0.76649 0.0
C1311 C 0.97904 0.35643 0.75191 0.0
C1312 C 0.98044 0.37248 0.78867 0.0
C1313 C 0.97747 0.39058 0.80462 0.0
C1314 C 0.98579 0.41153 0.80155 0.0
C1315 C 0.98273 0.42856 0.81646 0.0
C1316 C 0.97149 0.42482 0.83461 0.0
C1317 C 0.96335 0.40402 0.8379 0.0
C1318 C 0.96634 0.38693 0.82302 0.0
C1319 C 0.03329 0.29568 0.79325 0.0
C1320 C 0.0231 0.28397 0.80869 0.0
C1321 C 0.02362 0.31276 0.78407 0.0
C1322 C 0.00369 0.31843 0.79023 0.0
C1323 C 0.99346 0.30676 0.80555 0.0
C1324 C 0.00301 0.2896 0.81461 0.0
C1325 C 0.99376 0.33709 0.78142 0.0
C1326 C 0.98978 0.35426 0.79586 0.0
C1327 C 0.98855 0.33822 0.75913 0.0
C1328 C 0.99206 0.32033 0.74322 0.0
C1329 C 0.98313 0.29942 0.74543 0.0
C1330 C 0.98662 0.28261 0.73041 0.0
C1331 C -0.00111 0.28656 0.71303 0.0
C1332 C 0.00764 0.30733 0.71058 0.0
C1333 C 0.00422 0.32419 0.72557 0.0
H1334 H 0.00157 0.27353 0.70142 0.0
H1335 H 0.96914 0.43802 0.84613 0.0
H1336 H 0.32055 0.12019 0.52983 0.0
H1337 H 0.34637 0.14064 0.55542 0.0
H1338 H 0.34893 0.19282 0.51312 0.0
H1339 H 0.32378 0.1723 0.4873 0.0
H1340 H 0.38719 0.1851 0.52641 0.0
H1341 H 0.32156 0.19378 0.561 0.0
H1342 H 0.28876 0.18113 0.57705 0.0
H1343 H 0.32539 0.14864 0.62375 0.0
H1344 H 0.35837 0.16086 0.6078 0.0
H1345 H 0.4316 0.27371 0.59239 0.0
H1346 H 0.4068 0.2482 0.57096 0.0
H1347 H 0.41804 0.19987 0.61611 0.0
H1348 H 0.44299 0.22539 0.63786 0.0
H1349 H 0.37503 0.20191 0.60333 0.0
H1350 H 0.44075 0.19589 0.57034 0.0
H1351 H 0.47345 0.20925 0.55461 0.0
H1352 H 0.43637 0.2372 0.50488 0.0
H1353 H 0.40343 0.22427 0.5205 0.0
C1354 C 0.32655 0.13607 0.52605 0.0
C1355 C 0.32015 0.14458 0.50648 0.0
C1356 C 0.34126 0.14778 0.54073 0.0
C1357 C 0.34952 0.16837 0.53629 0.0
C1358 C 0.34289 0.17694 0.51689 0.0
C1359 C 0.32845 0.16518 0.50214 0.0
C1360 C 0.36549 0.18094 0.55138 0.0
C1361 C 0.38438 0.18893 0.54318 0.0
C1362 C 0.36225 0.18535 0.57346 0.0
C1363 C 0.34241 0.17804 0.58306 0.0
C1364 C 0.3226 0.1838 0.57459 0.0
C1365 C 0.30397 0.17672 0.58368 0.0
C1366 C 0.30497 0.16403 0.60137 0.0
C1367 C 0.32461 0.15842 0.61003 0.0
C1368 C 0.34328 0.16543 0.60097 0.0
C1369 C 0.42883 0.25769 0.59787 0.0
C1370 C 0.43942 0.25159 0.61683 0.0
C1371 C 0.41466 0.2431 0.58553 0.0
C1372 C 0.41077 0.22209 0.59182 0.0
C1373 C 0.42089 0.21601 0.61096 0.0
C1374 C 0.4352 0.2306 0.62331 0.0
C1375 C 0.39628 0.20653 0.57812 0.0
C1376 C 0.37781 0.19792 0.5866 0.0
C1377 C 0.39983 0.20157 0.55624 0.0
C1378 C 0.41962 0.20924 0.5467 0.0
C1379 C 0.43957 0.20502 0.55614 0.0
C1380 C 0.45815 0.2125 0.54723 0.0
C1381 C 0.45699 0.22411 0.52879 0.0
C1382 C 0.43724 0.22822 0.51918 0.0
C1383 C 0.41861 0.2208 0.52804 0.0
H1384 H 0.4714 0.22988 0.52191 0.0
H1385 H 0.29054 0.15861 0.6084 0.0
H1386 H 0.50519 0.67676 0.3072 0.0
H1387 H 0.50042 0.64162 0.28719 0.0
H1388 H 0.56117 0.6528 0.26068 0.0
H1389 H 0.56597 0.68794 0.28026 0.0
H1390 H 0.5324 0.62714 0.23241 0.0
H1391 H 0.55905 0.63183 0.30929 0.0
H1392 H 0.55481 0.64121 0.34777 0.0
H1393 H 0.49673 0.60126 0.34438 0.0
H1394 H 0.50056 0.59186 0.30578 0.0
H1395 H 0.6052 0.54996 0.23866 0.0
H1396 H 0.58021 0.57779 0.23552 0.0
H1397 H 0.53386 0.53875 0.2665 0.0
H1398 H 0.55938 0.51124 0.27065 0.0
H1399 H 0.53999 0.57394 0.28781 0.0
H1400 H 0.52328 0.55823 0.21416 0.0
H1401 H 0.52837 0.54842 0.17601 0.0
H1402 H 0.56641 0.60731 0.17187 0.0
H1403 H 0.56187 0.61735 0.21008 0.0
C1404 C 0.5173 0.67199 0.29668 0.0
C1405 C 0.53625 0.6849 0.2958 0.0
C1406 C 0.51446 0.65195 0.28516 0.0
C1407 C 0.53058 0.64452 0.27274 0.0
C1408 C 0.54853 0.65825 0.27018 0.0
C1409 C 0.55136 0.67826 0.28162 0.0
C1410 C 0.5311 0.62142 0.26598 0.0
C1411 C 0.53386 0.6153 0.24434 0.0
C1412 C 0.53213 0.60588 0.2815 0.0
C1413 C 0.52995 0.61137 0.30468 0.0
C1414 C 0.54534 0.62515 0.31676 0.0
C1415 C 0.54301 0.63046 0.33857 0.0
C1416 C 0.52547 0.62189 0.3485 0.0
C1417 C 0.51027 0.60793 0.33665 0.0
C1418 C 0.5125 0.60261 0.31482 0.0
C1419 C 0.58948 0.54702 0.24424 0.0
C1420 C 0.58438 0.52868 0.25532 0.0
C1421 C 0.57502 0.56289 0.24221 0.0
C1422 C 0.55502 0.56044 0.25074 0.0
C1423 C 0.54921 0.54109 0.25989 0.0
C1424 C 0.56383 0.52542 0.26234 0.0
C1425 C 0.54252 0.57958 0.25419 0.0
C1426 C 0.53755 0.58513 0.27538 0.0
C1427 C 0.53938 0.59441 0.23815 0.0
C1428 C 0.54222 0.58854 0.21508 0.0
C1429 C 0.53284 0.56905 0.20517 0.0
C1430 C 0.53562 0.56345 0.18351 0.0
C1431 C 0.5477 0.57724 0.17152 0.0
C1432 C 0.55702 0.59666 0.18117 0.0
C1433 C 0.5543 0.60235 0.20283 0.0
H1434 H 0.54984 0.57287 0.15476 0.0
H1435 H 0.5237 0.62601 0.36539 0.0
H1436 H 0.05301 0.7741 0.14982 0.0
H1437 H 0.08675 0.77565 0.13257 0.0
H1438 H 0.06074 0.81639 0.08557 0.0
H1439 H 0.02705 0.81486 0.10251 0.0
H1440 H 0.08517 0.78605 0.06756 0.0
H1441 H 0.08992 0.83846 0.1288 0.0
H1442 H 0.08818 0.84992 0.16721 0.0
H1443 H 0.13677 0.80778 0.18418 0.0
H1444 H 0.13859 0.79586 0.14587 0.0
H1445 H 0.17499 0.83641 0.02709 0.0
H1446 H 0.14227 0.83066 0.04537 0.0
H1447 H 0.17542 0.79529 0.09276 0.0
H1448 H 0.20832 0.80142 0.07491 0.0
H1449 H 0.14813 0.81986 0.11135 0.0
H1450 H 0.1454 0.76891 0.05052 0.0
H1451 H 0.14737 0.75676 0.01233 0.0
H1452 H 0.09535 0.79453 0.99475 0.0
H1453 H 0.09326 0.80716 0.03282 0.0
C1454 C 0.05436 0.7831 0.13561 0.0
C1455 C 0.03741 0.79455 0.12767 0.0
C1456 C 0.07367 0.78405 0.12585 0.0
C1457 C 0.07628 0.79639 0.10801 0.0
C1458 C 0.05905 0.80684 0.09938 0.0
C1459 C 0.03983 0.80601 0.10915 0.0
C1460 C 0.0972 0.79951 0.09892 0.0
C1461 C 0.09892 0.79356 0.07707 0.0
C1462 C 0.11522 0.80884 0.11151 0.0
C1463 C 0.11422 0.8161 0.13451 0.0
C1464 C 0.10012 0.83152 0.14074 0.0
C1465 C 0.09913 0.83812 0.16249 0.0
C1466 C 0.11231 0.82954 0.17813 0.0
C1467 C 0.12655 0.81438 0.17205 0.0
C1468 C 0.12757 0.80771 0.15033 0.0
C1469 C 0.17539 0.82765 0.04156 0.0
C1470 C 0.1942 0.81918 0.04942 0.0
C1471 C 0.15665 0.82425 0.05191 0.0
C1472 C 0.15632 0.8121 0.07011 0.0
C1473 C 0.1753 0.80458 0.07864 0.0
C1474 C 0.19409 0.8081 0.0684 0.0
C1475 C 0.13606 0.80669 0.07986 0.0
C1476 C 0.13447 0.81217 0.10184 0.0
C1477 C 0.11818 0.79679 0.06741 0.0
C1478 C 0.1193 0.78913 0.04451 0.0
C1479 C 0.13448 0.77475 0.03849 0.0
C1480 C 0.1356 0.76776 0.01687 0.0
C1481 C 0.12153 0.77491 0.00112 0.0
C1482 C 0.10626 0.78902 0.00697 0.0
C1483 C 0.10508 0.79609 0.02857 0.0
H1484 H 0.12243 0.76948 0.98438 0.0
H1485 H 0.11153 0.83466 0.19496 0.0
H1486 H 0.761 0.94324 0.59059 0.0
H1487 H 0.76133 0.96323 0.62563 0.0
H1488 H 0.70019 0.98617 0.60794 0.0
H1489 H 0.69974 0.96648 0.57288 0.0
H1490 H 0.72669 0.01667 0.63445 0.0
H1491 H 0.7022 0.93961 0.63127 0.0
H1492 H 0.70778 0.90106 0.62417 0.0
H1493 H 0.76253 0.9072 0.66899 0.0
H1494 H 0.75737 0.94587 0.67614 0.0
H1495 H 0.65273 0.01535 0.71161 0.0
H1496 H 0.67745 0.01606 0.68333 0.0
H1497 H 0.72366 0.98709 0.72432 0.0
H1498 H 0.69839 0.98534 0.75235 0.0
H1499 H 0.71763 0.96403 0.69014 0.0
H1500 H 0.73387 0.03832 0.70238 0.0
H1501 H 0.72837 0.07676 0.70997 0.0
H1502 H 0.69128 0.07748 0.64998 0.0
H1503 H 0.69625 0.03897 0.64215 0.0
C1504 C 0.74781 0.95288 0.59396 0.0
C1505 C 0.7301 0.95286 0.57912 0.0
C1506 C 0.7481 0.96439 0.61395 0.0
C1507 C 0.73069 0.97597 0.6194 0.0
C1508 C 0.7138 0.97736 0.604 0.0
C1509 C 0.71348 0.96588 0.58404 0.0
C1510 C 0.72817 0.98359 0.64196 0.0
C1511 C 0.72482 0.00533 0.6468 0.0
C1512 C 0.72661 0.96885 0.65819 0.0
C1513 C 0.72956 0.94561 0.65403 0.0
C1514 C 0.71549 0.93274 0.6395 0.0
C1515 C 0.71857 0.91089 0.63548 0.0
C1516 C 0.73554 0.90171 0.64607 0.0
C1517 C 0.74943 0.91435 0.66076 0.0
C1518 C 0.74644 0.93622 0.6648 0.0
C1519 C 0.66837 0.00968 0.71483 0.0
C1520 C 0.6735 -9e-05 0.734 0.0
C1521 C 0.68265 0.0103 0.69869 0.0
C1522 C 0.70255 0.00168 0.70164 0.0
C1523 C 0.70839 0.99373 0.7216 0.0
C1524 C 0.69392 0.99268 0.73758 0.0
C1525 C 0.71511 0.9972 0.68272 0.0
C1526 C 0.72031 0.97586 0.67839 0.0
C1527 C 0.71853 0.01244 0.66714 0.0
C1528 C 0.71542 0.03567 0.6717 0.0
C1529 C 0.72442 0.04662 0.69085 0.0
C1530 C 0.72141 0.06844 0.69519 0.0
C1531 C 0.70948 0.07955 0.68047 0.0
C1532 C 0.70055 0.06886 0.66136 0.0
C1533 C 0.7035 0.04704 0.65694 0.0
H1534 H 0.70716 0.09645 0.68386 0.0
H1535 H 0.7379 0.88478 0.64294 0.0
H1536 H 0.83921 0.03412 0.35297 0.0
H1537 H 0.82805 0.02764 0.38894 0.0
H1538 H 0.76265 0.03117 0.36616 0.0
H1539 H 0.77388 0.03807 0.33012 0.0
H1540 H 0.77077 0.0446 0.41056 0.0
H1541 H 0.78282 0.98467 0.36028 0.0
H1542 H 0.80432 0.96499 0.33497 0.0
H1543 H 0.85259 0.96013 0.38566 0.0
H1544 H 0.8315 0.98013 0.4112 0.0
H1545 H 0.71649 0.96526 0.46746 0.0
H1546 H 0.73147 0.9892 0.44205 0.0
H1547 H 0.79465 0.97572 0.46512 0.0
H1548 H 0.77982 0.95133 0.49027 0.0
H1549 H 0.79006 0.97023 0.4231 0.0
H1550 H 0.77495 0.02576 0.475 0.0
H1551 H 0.75319 0.04566 0.49985 0.0
H1552 H 0.71031 0.0586 0.44681 0.0
H1553 H 0.73164 0.03851 0.42166 0.0
C1554 C 0.82251 0.03406 0.3558 0.0
C1555 C 0.8073 0.03594 0.3388 0.0
C1556 C 0.81617 0.03055 0.37636 0.0
C1557 C 0.79452 0.0284 0.37999 0.0
C1558 C 0.77944 0.03271 0.36361 0.0
C1559 C 0.78584 0.03657 0.34306 0.0
C1560 C 0.78762 0.01771 0.39909 0.0
C1561 C 0.77488 0.02833 0.41337 0.0
C1562 C 0.79327 0.99659 0.40277 0.0
C1563 C 0.8057 0.98408 0.38757 0.0
C1564 C 0.79807 0.9795 0.36599 0.0
C1565 C 0.81018 0.9683 0.35161 0.0
C1566 C 0.82983 0.96136 0.35868 0.0
C1567 C 0.83738 0.96554 0.38019 0.0
C1568 C 0.82536 0.97681 0.39463 0.0
C1569 C 0.73358 0.96754 0.46731 0.0
C1570 C 0.74696 0.95623 0.48078 0.0
C1571 C 0.74213 0.9814 0.45289 0.0
C1572 C 0.76418 0.98443 0.45186 0.0
C1573 C 0.77758 0.97364 0.4657 0.0
C1574 C 0.76906 0.95966 0.48002 0.0
C1575 C 0.77319 0.99707 0.43488 0.0
C1576 C 0.78621 0.98667 0.42072 0.0
C1577 C 0.76768 0.01831 0.43139 0.0
C1578 C 0.75483 0.03047 0.44646 0.0
C1579 C 0.76079 0.0327 0.46865 0.0
C1580 C 0.74855 0.04405 0.48279 0.0
C1581 C 0.73035 0.05336 0.47492 0.0
C1582 C 0.7244 0.05138 0.45288 0.0
C1583 C 0.73658 0.04003 0.43867 0.0
H1584 H 0.7209 0.06213 0.48589 0.0
H1585 H 0.8392 0.95271 0.34752 0.0
H1586 H 0.81497 0.11176 0.0547 0.0
H1587 H 0.81221 0.09444 0.08835 0.0
H1588 H 0.75599 0.12765 0.10078 0.0
H1589 H 0.75895 0.14563 0.06717 0.0
H1590 H 0.78195 0.13055 0.13541 0.0
H1591 H 0.75332 0.07275 0.0871 0.0
H1592 H 0.75109 0.04721 0.05509 0.0
H1593 H 0.80904 0.0211 0.0774 0.0
H1594 H 0.8118 0.0467 0.1094 0.0
H1595 H 0.76884 0.06933 0.22778 0.0
H1596 H 0.76202 0.0834 0.1924 0.0
H1597 H 0.82212 0.06264 0.17304 0.0
H1598 H 0.82911 0.04856 0.20833 0.0
H1599 H 0.78849 0.05229 0.14182 0.0
H1600 H 0.81822 0.11382 0.188 0.0
H1601 H 0.81945 0.13928 0.22004 0.0
H1602 H 0.75707 0.15776 0.20133 0.0
H1603 H 0.75537 0.13217 0.16932 0.0
C1604 C 0.80187 0.11529 0.06442 0.0
C1605 C 0.78719 0.13014 0.0582 0.0
C1606 C 0.80023 0.10522 0.08365 0.0
C1607 C 0.78371 0.10949 0.09696 0.0
C1608 C 0.76883 0.12407 0.0907 0.0
C1609 C 0.77054 0.1343 0.07148 0.0
C1610 C 0.78294 0.09968 0.118 0.0
C1611 C 0.78289 0.11337 0.13675 0.0
C1612 C 0.78444 0.07728 0.11982 0.0
C1613 C 0.78283 0.06177 0.10061 0.0
C1614 C 0.76567 0.06167 0.08512 0.0
C1615 C 0.7643 0.04716 0.06698 0.0
C1616 C 0.77993 0.03256 0.06419 0.0
C1617 C 0.79694 0.03242 0.07957 0.0
C1618 C 0.79841 0.04691 0.09774 0.0
C1619 C 0.7806 0.06774 0.21599 0.0
C1620 C 0.79956 0.05792 0.22089 0.0
C1621 C 0.77667 0.07579 0.19581 0.0
C1622 C 0.7916 0.07411 0.18018 0.0
C1623 C 0.81039 0.06404 0.1849 0.0
C1624 C 0.8144 0.05612 0.20511 0.0
C1625 C 0.78797 0.08325 0.15903 0.0
C1626 C 0.78719 0.06941 0.14034 0.0
C1627 C 0.78549 0.10546 0.15725 0.0
C1628 C 0.78657 0.12091 0.17641 0.0
C1629 C 0.8047 0.12318 0.19082 0.0
C1630 C 0.80549 0.13766 0.20895 0.0
C1631 C 0.78832 0.15008 0.21276 0.0
C1632 C 0.77034 0.1481 0.19839 0.0
C1633 C 0.76946 0.13362 0.18024 0.0
H1634 H 0.78897 0.16128 0.2268 0.0
H1635 H 0.77884 0.02134 0.05014 0.0
H1636 H 0.63206 0.04785 0.82551 0.0
H1637 H 0.65001 0.07107 0.85516 0.0
H1638 H 0.69253 0.0214 0.86856 0.0
H1639 H 0.67443 0.99801 0.8396 0.0
H1640 H 0.68165 0.0393 0.90478 0.0
H1641 H 0.70646 0.065 0.83866 0.0
H1642 H 0.70242 0.07904 0.80261 0.0
H1643 H 0.6733 0.13414 0.82933 0.0
H1644 H 0.67693 0.12027 0.86552 0.0
H1645 H 0.77386 0.09657 0.9548 0.0
H1646 H 0.74826 0.07569 0.92941 0.0
H1647 H 0.70666 0.12785 0.93137 0.0
H1648 H 0.73206 0.14884 0.95687 0.0
H1649 H 0.71335 0.11105 0.88932 0.0
H1650 H 0.69316 0.08611 0.95676 0.0
H1651 H 0.69923 0.0716 0.99236 0.0
H1652 H 0.72189 0.0143 0.96248 0.0
H1653 H 0.71626 0.02861 0.92671 0.0
C1654 C 0.64513 0.04183 0.83489 0.0
C1655 C 0.65187 0.0211 0.83007 0.0
C1656 C 0.65542 0.05514 0.85177 0.0
C1657 C 0.67281 0.04808 0.8639 0.0
C1658 C 0.67915 0.02721 0.85947 0.0
C1659 C 0.66878 0.01385 0.8428 0.0
C1660 C 0.68503 0.06247 0.88076 0.0
C1661 C 0.68866 0.05494 0.90134 0.0
C1662 C 0.69384 0.08308 0.87644 0.0
C1663 C 0.69174 0.09148 0.85473 0.0
C1664 C 0.69905 0.08003 0.83681 0.0
C1665 C 0.69686 0.08797 0.81636 0.0
C1666 C 0.68754 0.10743 0.81367 0.0
C1667 C 0.68047 0.11904 0.83143 0.0
C1668 C 0.6826 0.11116 0.85192 0.0
C1669 C 0.75926 0.10361 0.94987 0.0
C1670 C 0.755 0.12436 0.95788 0.0
C1671 C 0.74462 0.09162 0.93544 0.0
C1672 C 0.72555 0.10022 0.92867 0.0
C1673 C 0.72129 0.12096 0.93647 0.0
C1674 C 0.7358 0.13287 0.95109 0.0
C1675 C 0.71027 0.08763 0.91309 0.0
C1676 C 0.70608 0.09553 0.89279 0.0
C1677 C 0.70118 0.06725 0.91757 0.0
C1678 C 0.70444 0.05852 0.93906 0.0
C1679 C 0.69959 0.07048 0.95779 0.0
C1680 C 0.70293 0.06228 0.978 0.0
C1681 C 0.71098 0.04206 0.97969 0.0
C1682 C 0.71567 0.02997 0.96115 0.0
C1683 C 0.71238 0.03811 0.9409 0.0
H1684 H 0.71356 0.03574 0.99535 0.0
H1685 H 0.68586 0.11355 0.79783 0.0
H1686 H 0.57714 0.75596 0.93907 0.0
H1687 H 0.61222 0.74234 0.94542 0.0
H1688 H 0.58399 0.68702 0.97381 0.0
H1689 H 0.54885 0.70053 0.96762 0.0
H1690 H 0.61915 0.70579 0.99811 0.0
H1691 H 0.59989 0.68143 0.92427 0.0
H1692 H 0.58799 0.68557 0.88641 0.0
H1693 H 0.64209 0.72922 0.87987 0.0
H1694 H 0.65416 0.72556 0.9178 0.0
H1695 H 0.70443 0.63671 0.99482 0.0
H1696 H 0.6712 0.65454 0.99318 0.0
H1697 H 0.70048 0.70523 0.95879 0.0
H1698 H 0.7336 0.68716 0.9598 0.0
H1699 H 0.66508 0.6903 0.93818 0.0
H1700 H 0.68547 0.71362 0.01155 0.0
H1701 H 0.6975 0.70956 0.04938 0.0
H1702 H 0.64185 0.66847 0.05714 0.0
H1703 H 0.62962 0.67204 0.01925 0.0
C1704 C 0.57837 0.74085 0.94658 0.0
C1705 C 0.56021 0.7293 0.95281 0.0
C1706 C 0.59842 0.73309 0.95017 0.0
C1707 C 0.60064 0.71365 0.96002 0.0
C1708 C 0.58257 0.70209 0.96624 0.0
C1709 C 0.56251 0.70978 0.96257 0.0
C1710 C 0.62184 0.70537 0.96382 0.0
C1711 C 0.62916 0.70217 0.98503 0.0
C1712 C 0.63502 0.70122 0.94676 0.0
C1713 C 0.6278 0.7034 0.92394 0.0
C1714 C 0.60915 0.69206 0.91481 0.0
C1715 C 0.6024 0.69429 0.89333 0.0
C1716 C 0.61425 0.7077 0.88076 0.0
C1717 C 0.63291 0.71886 0.88963 0.0
C1718 C 0.63973 0.71671 0.91112 0.0
C1719 C 0.70394 0.65188 0.98729 0.0
C1720 C 0.7216 0.66043 0.97728 0.0
C1721 C 0.68492 0.66211 0.98642 0.0
C1722 C 0.68335 0.68127 0.97589 0.0
C1723 C 0.7013 0.6904 0.96689 0.0
C1724 C 0.72023 0.68008 0.96753 0.0
C1725 C 0.66257 0.69072 0.97255 0.0
C1726 C 0.65524 0.69407 0.95137 0.0
C1727 C 0.64945 0.69507 0.98966 0.0
C1728 C 0.65672 0.69296 0.01249 0.0
C1729 C 0.67587 0.70359 0.02127 0.0
C1730 C 0.68271 0.70139 0.04274 0.0
C1731 C 0.67047 0.68872 0.05564 0.0
C1732 C 0.65133 0.67826 0.04712 0.0
C1733 C 0.64442 0.68039 0.02565 0.0
H1734 H 0.67579 0.68704 0.07225 0.0
H1735 H 0.60899 0.7094 0.86413 0.0
H1736 H 0.06588 0.01083 0.76451 0.0
H1737 H 0.0418 0.03937 0.75882 0.0
H1738 H 0.09186 0.07709 0.73173 0.0
H1739 H 0.11551 0.04823 0.73637 0.0
H1740 H 0.04705 0.07473 0.78006 0.0
H1741 H 0.07611 0.11718 0.7045 0.0
H1742 H 0.08431 0.10681 0.66729 0.0
H1743 H 0.04557 0.04791 0.66846 0.0
H1744 H 0.03684 0.05803 0.70556 0.0
H1745 H 0.06993 0.18907 0.7747 0.0
H1746 H 0.0684 0.15454 0.75398 0.0
H1747 H 0.00502 0.1399 0.77299 0.0
H1748 H 0.0065 0.17433 0.79416 0.0
H1749 H 0.04376 0.12682 0.72316 0.0
H1750 H 0.00556 0.09152 0.79341 0.0
H1751 H 0.99741 0.10172 0.83079 0.0
H1752 H 0.05406 0.14388 0.83901 0.0
H1753 H 0.06263 0.13371 0.80179 0.0
C1754 C 0.07151 0.02497 0.75676 0.0
C1755 C 0.09265 0.02747 0.75117 0.0
C1756 C 0.05772 0.04125 0.75345 0.0
C1757 C 0.06492 0.06046 0.74483 0.0
C1758 C 0.08565 0.06231 0.73794 0.0
C1759 C 0.0993 0.04584 0.74082 0.0
C1760 C 0.05254 0.07989 0.74686 0.0
C1761 C 0.04563 0.08568 0.76726 0.0
C1762 C 0.05081 0.09445 0.73036 0.0
C1763 C 0.05587 0.08836 0.70791 0.0
C1764 C 0.06919 0.10208 0.6968 0.0
C1765 C 0.07397 0.09623 0.67572 0.0
C1766 C 0.06549 0.0767 0.66553 0.0
C1767 C 0.05218 0.063 0.67639 0.0
C1768 C 0.04733 0.06878 0.69747 0.0
C1769 C 0.0554 0.17884 0.77401 0.0
C1770 C 0.03862 0.18413 0.7867 0.0
C1771 C 0.05447 0.15915 0.76194 0.0
C1772 C 0.03678 0.14451 0.76235 0.0
C1773 C 0.01893 0.15092 0.77271 0.0
C1774 C 0.01988 0.17056 0.78492 0.0
C1775 C 0.03918 0.12151 0.75636 0.0
C1776 C 0.04433 0.11523 0.73542 0.0
C1777 C 0.03919 0.1063 0.77226 0.0
C1778 C 0.03457 0.11204 0.79482 0.0
C1779 C 0.01629 0.1029 0.80326 0.0
C1780 C 0.0116 0.10868 0.82439 0.0
C1781 C 0.02517 0.1235 0.83724 0.0
C1782 C 0.04354 0.13245 0.82903 0.0
C1783 C 0.04832 0.12668 0.80794 0.0
H1784 H 0.02148 0.12801 0.85356 0.0
H1785 H 0.06923 0.0722 0.64922 0.0
H1786 H 0.95928 0.29662 0.47272 0.0
H1787 H 0.9236 0.29378 0.48536 0.0
H1788 H 0.92728 0.22525 0.48909 0.0
H1789 H 0.96336 0.22803 0.47656 0.0
H1790 H 0.89146 0.23694 0.4649 0.0
H1791 H 0.92485 0.25324 0.53468 0.0
H1792 H 0.94997 0.27232 0.56233 0.0
H1793 H 0.92021 0.33134 0.55298 0.0
H1794 H 0.8951 0.31271 0.52504 0.0
H1795 H 0.79145 0.27511 0.52206 0.0
H1796 H 0.82636 0.25999 0.52422 0.0
H1797 H 0.83943 0.28449 0.46288 0.0
H1798 H 0.80482 0.29958 0.4606 0.0
H1799 H 0.86567 0.28312 0.52422 0.0
H1800 H 0.86584 0.25014 0.4352 0.0
H1801 H 0.84055 0.23211 0.40706 0.0
H1802 H 0.80335 0.20569 0.45559 0.0
H1803 H 0.82848 0.22348 0.48404 0.0
C1804 C 0.95263 0.28099 0.47654 0.0
C1805 C 0.96399 0.26253 0.47362 0.0
C1806 C 0.93232 0.27941 0.4839 0.0
C1807 C 0.92294 0.25934 0.48834 0.0
C1808 C 0.93439 0.24089 0.48591 0.0
C1809 C 0.95494 0.24251 0.47881 0.0
C1810 C 0.90043 0.25777 0.49333 0.0
C1811 C 0.88578 0.24666 0.47812 0.0
C1812 C 0.89313 0.27023 0.51076 0.0
C1813 C 0.90809 0.28154 0.52771 0.0
C1814 C 0.92372 0.27031 0.53843 0.0
C1815 C 0.93796 0.28105 0.55417 0.0
C1816 C 0.93669 0.30303 0.5594 0.0
C1817 C 0.92115 0.31431 0.54893 0.0
C1818 C 0.90688 0.30365 0.53317 0.0
C1819 C 0.80173 0.27707 0.50896 0.0
C1820 C 0.7955 0.28857 0.49119 0.0
C1821 C 0.8216 0.26845 0.51024 0.0
C1822 C 0.83528 0.27091 0.49359 0.0
C1823 C 0.82893 0.28213 0.47573 0.0
C1824 C 0.80923 0.29089 0.47454 0.0
C1825 C 0.85686 0.2632 0.49519 0.0
C1826 C 0.87132 0.27271 0.51151 0.0
C1827 C 0.864 0.24927 0.4788 0.0
C1828 C 0.84906 0.23816 0.46175 0.0
C1829 C 0.85234 0.24038 0.43988 0.0
C1830 C 0.83798 0.23026 0.42387 0.0
C1831 C 0.82036 0.21775 0.42953 0.0
C1832 C 0.81701 0.21539 0.45122 0.0
C1833 C 0.83127 0.22553 0.4673 0.0
H1834 H 0.80929 0.2099 0.41711 0.0
H1835 H 0.94773 0.31132 0.57159 0.0
H1836 H 0.61297 0.93618 0.79582 0.0
H1837 H 0.59955 0.90739 0.81697 0.0
H1838 H 0.54135 0.93907 0.82336 0.0
H1839 H 0.55519 0.96855 0.80318 0.0
H1840 H 0.55305 0.92522 0.85987 0.0
H1841 H 0.54625 0.89353 0.7872 0.0
H1842 H 0.5586 0.8824 0.75169 0.0
H1843 H 0.60282 0.84221 0.78175 0.0
H1844 H 0.59091 0.85331 0.81747 0.0
H1845 H 0.48512 0.83924 0.88758 0.0
H1846 H 0.50265 0.8662 0.8669 0.0
H1847 H 0.56196 0.83666 0.87678 0.0
H1848 H 0.54456 0.80945 0.89771 0.0
H1849 H 0.55213 0.84841 0.8334 0.0
H1850 H 0.5564 0.87952 0.90627 0.0
H1851 H 0.54208 0.89026 0.94094 0.0
H1852 H 0.50019 0.93145 0.90896 0.0
H1853 H 0.51404 0.9207 0.87404 0.0
C1854 C 0.59741 0.93717 0.80186 0.0
C1855 C 0.58523 0.95478 0.79793 0.0
C1856 C 0.58964 0.92053 0.81378 0.0
C1857 C 0.56929 0.92086 0.8215 0.0
C1858 C 0.55711 0.93844 0.81759 0.0
C1859 C 0.56503 0.95527 0.80601 0.0
C1860 C 0.56075 0.90313 0.83395 0.0
C1861 C 0.55265 0.90847 0.85391 0.0
C1862 C 0.56071 0.88117 0.8265 0.0
C1863 C 0.56784 0.87443 0.80503 0.0
C1864 C 0.55872 0.88244 0.78625 0.0
C1865 C 0.56562 0.87612 0.76608 0.0
C1866 C 0.58153 0.86166 0.76447 0.0
C1867 C 0.59052 0.85344 0.78302 0.0
C1868 C 0.58369 0.85972 0.80323 0.0
C1869 C 0.50188 0.83832 0.88531 0.0
C1870 C 0.51347 0.82223 0.89443 0.0
C1871 C 0.51186 0.8538 0.87352 0.0
C1872 C 0.5336 0.85349 0.87053 0.0
C1873 C 0.54516 0.83714 0.879 0.0
C1874 C 0.5352 0.82169 0.891 0.0
C1875 C 0.54419 0.87067 0.85897 0.0
C1876 C 0.55269 0.8652 0.83929 0.0
C1877 C 0.54437 0.89254 0.8665 0.0
C1878 C 0.53614 0.89916 0.88752 0.0
C1879 C 0.54402 0.89074 0.90661 0.0
C1880 C 0.53601 0.89685 0.92631 0.0
C1881 C 0.5202 0.91149 0.92715 0.0
C1882 C 0.51242 0.92009 0.90829 0.0
C1883 C 0.52036 0.91402 0.88854 0.0
H1884 H 0.51402 0.9162 0.94242 0.0
H1885 H 0.58685 0.85678 0.74884 0.0
H1886 H 0.94068 0.24554 0.37631 0.0
H1887 H 0.92438 0.21475 0.3538 0.0
H1888 H 0.97512 0.17619 0.37451 0.0
H1889 H 0.9918 0.20705 0.39683 0.0
H1890 H 0.96357 0.16665 0.33261 0.0
H1891 H 0.92905 0.17316 0.39821 0.0
H1892 H 0.91054 0.19125 0.42716 0.0
H1893 H 0.85922 0.20252 0.38177 0.0
H1894 H 0.87762 0.18478 0.35243 0.0
H1895 H 0.90872 0.06221 0.32532 0.0
H1896 H 0.92872 0.09656 0.33537 0.0
H1897 H 0.87967 0.13017 0.3033 0.0
H1898 H 0.85965 0.09576 0.29287 0.0
H1899 H 0.88979 0.14362 0.34773 0.0
H1900 H 0.92517 0.13138 0.28263 0.0
H1901 H 0.94476 0.11037 0.25659 0.0
H1902 H 0.99567 0.10632 0.30471 0.0
H1903 H 0.97625 0.12704 0.33115 0.0
C1904 C 0.94853 0.2306 0.37595 0.0
C1905 C 0.96744 0.22872 0.38861 0.0
C1906 C 0.93916 0.21299 0.36306 0.0
C1907 C 0.94835 0.19307 0.36274 0.0
C1908 C 0.96774 0.1914 0.37454 0.0
C1909 C 0.97721 0.20906 0.38736 0.0
C1910 C 0.93702 0.17369 0.35127 0.0
C1911 C 0.94748 0.16154 0.33598 0.0
C1912 C 0.91596 0.16712 0.35555 0.0
C1913 C 0.90483 0.17788 0.37308 0.0
C1914 C 0.91391 0.17968 0.39435 0.0
C1915 C 0.90344 0.18984 0.41083 0.0
C1916 C 0.88376 0.19808 0.40629 0.0
C1917 C 0.8745 0.19617 0.38525 0.0
C1918 C 0.88494 0.18606 0.36868 0.0
C1919 C 0.90239 0.07687 0.32001 0.0
C1920 C 0.88256 0.0763 0.30839 0.0
C1921 C 0.91387 0.09647 0.3257 0.0
C1922 C 0.90566 0.11587 0.32006 0.0
C1923 C 0.88628 0.11533 0.30773 0.0
C1924 C 0.87492 0.09567 0.30172 0.0
C1925 C 0.91628 0.13663 0.32901 0.0
C1926 C 0.90573 0.14896 0.34403 0.0
C1927 C 0.93739 0.14301 0.32484 0.0
C1928 C 0.94917 0.13064 0.30893 0.0
C1929 C 0.94047 0.12586 0.28772 0.0
C1930 C 0.95156 0.11403 0.27287 0.0
C1931 C 0.97143 0.10698 0.279 0.0
C1932 C 0.98027 0.11178 0.29999 0.0
C1933 C 0.96924 0.1236 0.3149 0.0
H1934 H 0.97999 0.09782 0.26748 0.0
H1935 H 0.87568 0.20584 0.41911 0.0
H1936 H 0.57167 0.0775 0.79606 0.0
H1937 H 0.55647 0.1102 0.78422 0.0
H1938 H 0.58033 0.09864 0.7215 0.0
H1939 H 0.59593 0.06616 0.73331 0.0
H1940 H 0.58558 0.14031 0.73412 0.0
H1941 H 0.52836 0.08572 0.73028 0.0
H1942 H 0.50505 0.05721 0.74395 0.0
H1943 H 0.48489 0.10253 0.79196 0.0
H1944 H 0.50831 0.13127 0.77875 0.0
H1945 H 0.5198 0.20779 0.67603 0.0
H1946 H 0.53575 0.17585 0.68889 0.0
H1947 H 0.51562 0.1912 0.75256 0.0
H1948 H 0.49958 0.22317 0.73986 0.0
H1949 H 0.50851 0.14797 0.73977 0.0
H1950 H 0.56575 0.20279 0.74248 0.0
H1951 H 0.58869 0.23094 0.72776 0.0
H1952 H 0.60837 0.18455 0.68051 0.0
H1953 H 0.5853 0.15616 0.69476 0.0
C1954 C 0.57383 0.08199 0.77979 0.0
C1955 C 0.58488 0.06912 0.76558 0.0
C1956 C 0.56504 0.10064 0.77302 0.0
C1957 C 0.56694 0.10667 0.75185 0.0
C1958 C 0.57859 0.09426 0.73787 0.0
C1959 C 0.58747 0.07567 0.74465 0.0
C1960 C 0.55639 0.1256 0.74409 0.0
C1961 C 0.56868 0.14185 0.73513 0.0
C1962 C 0.5344 0.12781 0.74572 0.0
C1963 C 0.52026 0.11059 0.75367 0.0
C1964 C 0.51908 0.08957 0.74386 0.0
C1965 C 0.50582 0.07338 0.75151 0.0
C1966 C 0.49354 0.07804 0.76885 0.0
C1967 C 0.49444 0.09893 0.77855 0.0
C1968 C 0.50769 0.11518 0.77098 0.0
C1969 C 0.51862 0.20431 0.69274 0.0
C1970 C 0.5085 0.21809 0.70695 0.0
C1971 C 0.52784 0.1861 0.70008 0.0
C1972 C 0.52709 0.18133 0.72174 0.0
C1973 C 0.51643 0.19466 0.7358 0.0
C1974 C 0.50731 0.21294 0.72851 0.0
C1975 C 0.5377 0.16261 0.72981 0.0
C1976 C 0.52541 0.14641 0.73881 0.0
C1977 C 0.55965 0.16038 0.72807 0.0
C1978 C 0.57363 0.1774 0.71955 0.0
C1979 C 0.57484 0.19862 0.72884 0.0
C1980 C 0.58789 0.21462 0.7206 0.0
C1981 C 0.59994 0.20955 0.70318 0.0
C1982 C 0.59901 0.18846 0.69399 0.0
C1983 C 0.58596 0.17241 0.70215 0.0
H1984 H 0.61003 0.22196 0.69682 0.0
H1985 H 0.48328 0.06548 0.77474 0.0
H1986 H 0.17654 0.39557 0.98 0.0
H1987 H 0.15122 0.37345 0.95538 0.0
H1988 H 0.18615 0.31757 0.96715 0.0
H1989 H 0.21209 0.33993 0.99077 0.0
H1990 H 0.17365 0.3146 0.92801 0.0
H1991 H 0.13878 0.32963 0.99273 0.0
H1992 H 0.12539 0.35227 0.0221 0.0
H1993 H 0.0859 0.38275 0.97617 0.0
H1994 H 0.09926 0.36045 0.94649 0.0
H1995 H 0.06055 0.25429 0.91529 0.0
H1996 H 0.08796 0.2777 0.93585 0.0
H1997 H 0.11543 0.2937 0.87668 0.0
H1998 H 0.08866 0.26922 0.85623 0.0
H1999 H 0.09687 0.31723 0.93878 0.0
H2000 H 0.16762 0.30794 0.88487 0.0
H2001 H 0.18147 0.28065 0.86002 0.0
H2002 H 0.14991 0.23018 0.89227 0.0
H2003 H 0.1361 0.25715 0.91746 0.0
C2004 C 0.17879 0.37859 0.97729 0.0
C2005 C 0.19609 0.36938 0.98745 0.0
C2006 C 0.16429 0.36592 0.96325 0.0
C2007 C 0.16647 0.3437 0.95973 0.0
C2008 C 0.18408 0.33465 0.96955 0.0
C2009 C 0.19885 0.34741 0.98312 0.0
C2010 C 0.15019 0.3297 0.94632 0.0
C2011 C 0.15686 0.31519 0.93036 0.0
C2012 C 0.12828 0.33012 0.94959 0.0
C2013 C 0.12019 0.34354 0.96739 0.0
C2014 C 0.12735 0.34126 0.98889 0.0
C2015 C 0.11975 0.35402 0.00559 0.0
C2016 C 0.10485 0.36898 0.00099 0.0
C2017 C 0.09747 0.37118 0.97969 0.0
C2018 C 0.10504 0.35848 0.96293 0.0
C2019 C 0.07256 0.2627 0.90672 0.0
C2020 C 0.07268 0.2598 0.88424 0.0
C2021 C 0.08817 0.27615 0.91846 0.0
C2022 C 0.10397 0.28736 0.9079 0.0
C2023 C 0.1038 0.28482 0.8853 0.0
C2024 C 0.08847 0.27087 0.87359 0.0
C2025 C 0.12032 0.30185 0.92066 0.0
C2026 C 0.11366 0.31661 0.93639 0.0
C2027 C 0.14229 0.30094 0.91785 0.0
C2028 C 0.15064 0.28458 0.90288 0.0
C2029 C 0.16369 0.29102 0.88668 0.0
C2030 C 0.17153 0.27561 0.87254 0.0
C2031 C 0.16651 0.2537 0.87451 0.0
C2032 C 0.15371 0.24716 0.8907 0.0
C2033 C 0.14586 0.2625 0.9049 0.0
H2034 H 0.17258 0.2418 0.86354 0.0
H2035 H 0.09898 0.37884 0.01394 0.0
H2036 H 0.45513 0.71451 0.34997 0.0
H2037 H 0.42117 0.70755 0.36581 0.0
H2038 H 0.42858 0.77011 0.40005 0.0
H2039 H 0.46243 0.7773 0.3842 0.0
H2040 H 0.42282 0.73686 0.42659 0.0
H2041 H 0.3899 0.76154 0.36292 0.0
H2042 H 0.38231 0.76365 0.32386 0.0
H2043 H 0.35873 0.69731 0.31819 0.0
H2044 H 0.36648 0.6947 0.35718 0.0
H2045 H 0.30453 0.71841 0.44892 0.0
H2046 H 0.3311 0.73126 0.42493 0.0
H2047 H 0.37243 0.68307 0.44571 0.0
H2048 H 0.34642 0.67064 0.4701 0.0
H2049 H 0.35181 0.7139 0.39137 0.0
H2050 H 0.42214 0.70455 0.45283 0.0
H2051 H 0.42921 0.70398 0.49216 0.0
H2052 H 0.37743 0.74388 0.50252 0.0
H2053 H 0.37023 0.74492 0.46326 0.0
C2054 C 0.44932 0.72697 0.36051 0.0
C2055 C 0.46158 0.74636 0.36601 0.0
C2056 C 0.42987 0.723 0.36947 0.0
C2057 C 0.42243 0.7383 0.38413 0.0
C2058 C 0.43409 0.7581 0.38877 0.0
C2059 C 0.45342 0.76218 0.37966 0.0
C2060 C 0.4039 0.73263 0.3965 0.0
C2061 C 0.40727 0.73197 0.41888 0.0
C2062 C 0.3836 0.72643 0.38644 0.0
C2063 C 0.37895 0.72788 0.36296 0.0
C2064 C 0.38328 0.74734 0.35332 0.0
C2065 C 0.37891 0.74864 0.33119 0.0
C2066 C 0.37009 0.73061 0.31854 0.0
C2067 C 0.36558 0.71126 0.32801 0.0
C2068 C 0.36994 0.70987 0.35013 0.0
C2069 C 0.3192 0.71041 0.44822 0.0
C2070 C 0.32341 0.69359 0.46156 0.0
C2071 C 0.33431 0.71773 0.43444 0.0
C2072 C 0.35385 0.70833 0.4338 0.0
C2073 C 0.35759 0.69078 0.44622 0.0
C2074 C 0.34262 0.68361 0.4601 0.0
C2075 C 0.37095 0.71768 0.42135 0.0
C2076 C 0.36734 0.71896 0.39902 0.0
C2077 C 0.39105 0.72472 0.43146 0.0
C2078 C 0.39557 0.72467 0.45511 0.0
C2079 C 0.41235 0.7133 0.46351 0.0
C2080 C 0.41636 0.71287 0.48579 0.0
C2081 C 0.40374 0.72384 0.49983 0.0
C2082 C 0.38715 0.73534 0.49162 0.0
C2083 C 0.38309 0.73584 0.46936 0.0
H2084 H 0.40685 0.72345 0.51707 0.0
H2085 H 0.3667 0.73165 0.30142 0.0
H2086 H 0.87721 0.53437 0.779 0.0
H2087 H 0.86146 0.55683 0.80661 0.0
H2088 H 0.83373 0.49976 0.83243 0.0
H2089 H 0.84865 0.47742 0.80473 0.0
H2090 H 0.80727 0.52961 0.83462 0.0
H2091 H 0.88238 0.52559 0.85296 0.0
H2092 H 0.92051 0.53051 0.84705 0.0
H2093 H 0.91509 0.59849 0.84324 0.0
H2094 H 0.87685 0.59392 0.84888 0.0
H2095 H 0.80263 0.55311 0.94604 0.0
H2096 H 0.81766 0.54039 0.9127 0.0
H2097 H 0.81838 0.60452 0.89055 0.0
H2098 H 0.80292 0.61732 0.92362 0.0
H2099 H 0.85731 0.57688 0.88396 0.0
H2100 H 0.78139 0.5794 0.86992 0.0
H2101 H 0.74415 0.57237 0.87838 0.0
H2102 H 0.75234 0.50445 0.87632 0.0
H2103 H 0.78976 0.51112 0.86819 0.0
C2104 C 0.8674 0.52665 0.7903 0.0
C2105 C 0.86443 0.50406 0.7898 0.0
C2106 C 0.85854 0.5395 0.80616 0.0
C2107 C 0.84679 0.52995 0.82187 0.0
C2108 C 0.8428 0.50752 0.82056 0.0
C2109 C 0.85145 0.49473 0.8047 0.0
C2110 C 0.83956 0.54285 0.84051 0.0
C2111 C 0.81825 0.53995 0.84535 0.0
C2112 C 0.85378 0.55662 0.85443 0.0
C2113 C 0.87673 0.55938 0.85105 0.0
C2114 C 0.8893 0.54156 0.85069 0.0
C2115 C 0.91093 0.54429 0.84742 0.0
C2116 C 0.9202 0.56479 0.84469 0.0
C2117 C 0.90787 0.58262 0.8453 0.0
C2118 C 0.88623 0.57997 0.84854 0.0
C2119 C 0.80637 0.56461 0.93428 0.0
C2120 C 0.80142 0.58618 0.93737 0.0
C2121 C 0.81489 0.5573 0.91525 0.0
C2122 C 0.81892 0.57154 0.89921 0.0
C2123 C 0.8153 0.59335 0.90279 0.0
C2124 C 0.8064 0.60059 0.92166 0.0
C2125 C 0.82528 0.56313 0.8781 0.0
C2126 C 0.84634 0.56688 0.8729 0.0
C2127 C 0.81096 0.54987 0.864 0.0
C2128 C 0.78841 0.54579 0.86866 0.0
C2129 C 0.7753 0.56299 0.87147 0.0
C2130 C 0.75415 0.55906 0.87617 0.0
C2131 C 0.7459 0.53798 0.87794 0.0
C2132 C 0.75876 0.52077 0.87496 0.0
C2133 C 0.77994 0.52462 0.8703 0.0
H2134 H 0.72952 0.53497 0.88158 0.0
H2135 H 0.93695 0.56687 0.84217 0.0
H2136 H 0.64959 0.51113 0.18245 0.0
H2137 H 0.66012 0.52439 0.14833 0.0
H2138 H 0.72569 0.5294 0.17268 0.0
H2139 H 0.71526 0.51663 0.20696 0.0
H2140 H 0.71624 0.56482 0.15399 0.0
H2141 H 0.70556 0.48878 0.13501 0.0
H2142 H 0.68559 0.45334 0.13177 0.0
H2143 H 0.63725 0.47839 0.09084 0.0
H2144 H 0.6568 0.51407 0.09406 0.0
H2145 H 0.76306 0.58108 0.05532 0.0
H2146 H 0.75221 0.56648 0.08872 0.0
H2147 H 0.68677 0.56271 0.06405 0.0
H2148 H 0.69751 0.57693 0.03044 0.0
H2149 H 0.69585 0.52672 0.08274 0.0
H2150 H 0.70641 0.60264 0.10164 0.0
H2151 H 0.72623 0.63816 0.10484 0.0
H2152 H 0.7746 0.61342 0.14597 0.0
H2153 H 0.7552 0.57766 0.14279 0.0
C2154 C 0.66627 0.51486 0.18047 0.0
C2155 C 0.68159 0.51282 0.19743 0.0
C2156 C 0.67228 0.5224 0.16093 0.0
C2157 C 0.69373 0.52775 0.15787 0.0
C2158 C 0.70905 0.52542 0.17468 0.0
C2159 C 0.70306 0.51803 0.19425 0.0
C2160 C 0.70019 0.53643 0.13743 0.0
C2161 C 0.71203 0.55633 0.13843 0.0
C2162 C 0.69423 0.52565 0.11708 0.0
C2163 C 0.68256 0.50415 0.11494 0.0
C2164 C 0.6906 0.48677 0.12543 0.0
C2165 C 0.67937 0.46663 0.12359 0.0
C2166 C 0.66013 0.46363 0.11116 0.0
C2167 C 0.65213 0.48075 0.10049 0.0
C2168 C 0.6633 0.50092 0.1023 0.0
C2169 C 0.74635 0.57721 0.05701 0.0
C2170 C 0.73115 0.58022 0.04022 0.0
C2171 C 0.74016 0.56892 0.07615 0.0
C2172 C 0.71864 0.5637 0.07898 0.0
C2173 C 0.70346 0.56662 0.06222 0.0
C2174 C 0.70963 0.57482 0.04304 0.0
C2175 C 0.71198 0.55503 0.09934 0.0
C2176 C 0.70007 0.53518 0.09831 0.0
C2177 C 0.71786 0.56586 0.11968 0.0
C2178 C 0.72944 0.58741 0.12181 0.0
C2179 C 0.72135 0.60473 0.11125 0.0
C2180 C 0.73249 0.62492 0.11308 0.0
C2181 C 0.75169 0.62803 0.12555 0.0
C2182 C 0.75974 0.61098 0.13629 0.0
C2183 C 0.74867 0.59075 0.1345 0.0
H2184 H 0.76031 0.64366 0.12694 0.0
H2185 H 0.65145 0.44804 0.10977 0.0
H2186 H 0.76011 0.40147 0.45222 0.0
H2187 H 0.7445 0.4261 0.42766 0.0
H2188 H 0.69092 0.38005 0.41247 0.0
H2189 H 0.70585 0.3562 0.43819 0.0
H2190 H 0.73949 0.42243 0.38831 0.0
H2191 H 0.64829 0.40135 0.39153 0.0
H2192 H 0.62268 0.39342 0.41868 0.0
H2193 H 0.66508 0.4264 0.46821 0.0
H2194 H 0.69081 0.4348 0.44133 0.0
H2195 H 0.68942 0.44631 0.29053 0.0
H2196 H 0.70166 0.42901 0.32274 0.0
H2197 H 0.66784 0.47291 0.36212 0.0
H2198 H 0.65462 0.48937 0.32982 0.0
H2199 H 0.66355 0.43683 0.37738 0.0
H2200 H 0.72353 0.47861 0.35825 0.0
H2201 H 0.7504 0.49285 0.33489 0.0
H2202 H 0.77266 0.42963 0.32452 0.0
H2203 H 0.74573 0.41495 0.34759 0.0
C2204 C 0.74474 0.39693 0.444 0.0
C2205 C 0.73412 0.37703 0.44707 0.0
C2206 C 0.73586 0.41093 0.42989 0.0
C2207 C 0.71645 0.40506 0.41816 0.0
C2208 C 0.70561 0.38532 0.42166 0.0
C2209 C 0.7142 0.3716 0.43629 0.0
C2210 C 0.70858 0.41857 0.40089 0.0
C2211 C 0.7229 0.4257 0.3861 0.0
C2212 C 0.68705 0.42342 0.39815 0.0
C2213 C 0.67157 0.41854 0.41441 0.0
C2214 C 0.65211 0.407 0.40819 0.0
C2215 C 0.63758 0.4024 0.42354 0.0
C2216 C 0.64228 0.40934 0.44516 0.0
C2217 C 0.66149 0.42096 0.45147 0.0
C2218 C 0.67607 0.42561 0.43619 0.0
C2219 C 0.68458 0.45219 0.30607 0.0
C2220 C 0.67117 0.46921 0.30773 0.0
C2221 C 0.69168 0.4424 0.32449 0.0
C2222 C 0.68606 0.44993 0.34497 0.0
C2223 C 0.67243 0.46679 0.34656 0.0
C2224 C 0.66492 0.47623 0.32809 0.0
C2225 C 0.69441 0.44022 0.36469 0.0
C2226 C 0.68018 0.43376 0.37984 0.0
C2227 C 0.71622 0.43694 0.3684 0.0
C2228 C 0.73249 0.44565 0.35451 0.0
C2229 C 0.73406 0.46772 0.35087 0.0
C2230 C 0.74932 0.47587 0.3377 0.0
C2231 C 0.7632 0.46214 0.32819 0.0
C2232 C 0.76189 0.44024 0.33188 0.0
C2233 C 0.74664 0.432 0.34502 0.0
H2234 H 0.775 0.46848 0.318 0.0
H2235 H 0.63101 0.40575 0.45702 0.0
H2236 H 0.88041 0.46401 0.67694 0.0
H2237 H 0.86049 0.45049 0.64346 0.0
H2238 H 0.81906 0.41077 0.67934 0.0
H2239 H 0.8392 0.42376 0.71276 0.0
H2240 H 0.83192 0.38776 0.64718 0.0
H2241 H 0.80229 0.45621 0.6547 0.0
H2242 H 0.80266 0.49574 0.6601 0.0
H2243 H 0.83532 0.50247 0.60231 0.0
H2244 H 0.83541 0.46295 0.59671 0.0
H2245 H 0.7618 0.35271 0.55675 0.0
H2246 H 0.77447 0.37184 0.5911 0.0
H2247 H 0.82358 0.40619 0.5595 0.0
H2248 H 0.81112 0.3872 0.52514 0.0
H2249 H 0.80428 0.43239 0.58994 0.0
H2250 H 0.83601 0.36392 0.58451 0.0
H2251 H 0.83525 0.32435 0.57912 0.0
H2252 H 0.79768 0.31803 0.63369 0.0
H2253 H 0.79797 0.3576 0.6392 0.0
C2254 C 0.86688 0.45262 0.67774 0.0
C2255 C 0.86148 0.44489 0.69754 0.0
C2256 C 0.85544 0.44496 0.65857 0.0
C2257 C 0.83816 0.42969 0.65886 0.0
C2258 C 0.83236 0.42248 0.67868 0.0
C2259 C 0.84389 0.42996 0.6978 0.0
C2260 C 0.82706 0.42009 0.63844 0.0
C2261 C 0.82552 0.39756 0.63488 0.0
C2262 C 0.8191 0.43283 0.62212 0.0
C2263 C 0.81901 0.45661 0.62539 0.0
C2264 C 0.80969 0.46611 0.64323 0.0
C2265 C 0.80979 0.48852 0.64631 0.0
C2266 C 0.81905 0.50161 0.63158 0.0
C2267 C 0.82818 0.49231 0.61371 0.0
C2268 C 0.82813 0.4699 0.61056 0.0
C2269 C 0.77514 0.3645 0.55705 0.0
C2270 C 0.78557 0.36827 0.53822 0.0
C2271 C 0.78237 0.37539 0.57669 0.0
C2272 C 0.80006 0.39029 0.57783 0.0
C2273 C 0.80991 0.39476 0.55894 0.0
C2274 C 0.80283 0.38377 0.53935 0.0
C2275 C 0.80919 0.4002 0.59888 0.0
C2276 C 0.81046 0.42271 0.60246 0.0
C2277 C 0.81684 0.38748 0.6153 0.0
C2278 C 0.81681 0.3637 0.61212 0.0
C2279 C 0.82744 0.35409 0.59525 0.0
C2280 C 0.82712 0.33167 0.59219 0.0
C2281 C 0.81637 0.31869 0.60601 0.0
C2282 C 0.80597 0.32811 0.62297 0.0
C2283 C 0.80621 0.35053 0.62607 0.0
H2284 H 0.81613 0.30133 0.60362 0.0
H2285 H 0.81912 0.51895 0.634 0.0
H2286 H 0.42146 0.05289 0.21362 0.0
H2287 H 0.42654 0.08757 0.19782 0.0
H2288 H 0.47898 0.06437 0.16411 0.0
H2289 H 0.47433 0.02983 0.18026 0.0
H2290 H 0.48892 0.1038 0.18126 0.0
H2291 H 0.43013 0.069 0.13783 0.0
H2292 H 0.39501 0.04959 0.13049 0.0
H2293 H 0.36546 0.10267 0.16071 0.0
H2294 H 0.40045 0.12229 0.1685 0.0
H2295 H 0.49191 0.18989 0.10955 0.0
H2296 H 0.48978 0.15476 0.12508 0.0
H2297 H 0.43971 0.17519 0.1639 0.0
H2298 H 0.44157 0.21012 0.14849 0.0
H2299 H 0.42939 0.13641 0.14251 0.0
H2300 H 0.48904 0.17066 0.18652 0.0
H2301 H 0.52436 0.18986 0.19286 0.0
H2302 H 0.55248 0.13738 0.15991 0.0
H2303 H 0.51726 0.11797 0.15316 0.0
C2304 C 0.43401 0.05513 0.20277 0.0
C2305 C 0.44745 0.03858 0.19814 0.0
C2306 C 0.43687 0.07495 0.1937 0.0
C2307 C 0.453 0.07849 0.17958 0.0
C2308 C 0.46644 0.062 0.17496 0.0
C2309 C 0.4637 0.04223 0.18414 0.0
C2310 C 0.45597 0.09948 0.16981 0.0
C2311 C 0.47598 0.11079 0.17251 0.0
C2312 C 0.43903 0.10875 0.15865 0.0
C2313 C 0.41794 0.09703 0.15392 0.0
C2314 C 0.41616 0.07647 0.14305 0.0
C2315 C 0.39628 0.06544 0.13878 0.0
C2316 C 0.37803 0.07487 0.14517 0.0
C2317 C 0.37962 0.09537 0.15579 0.0
C2318 C 0.39947 0.10647 0.16012 0.0
C2319 C 0.4806 0.187 0.12156 0.0
C2320 C 0.46684 0.20283 0.12768 0.0
C2321 C 0.47943 0.16692 0.13044 0.0
C2322 C 0.46458 0.1624 0.14564 0.0
C2323 C 0.45121 0.17833 0.15212 0.0
C2324 C 0.45236 0.19833 0.14331 0.0
C2325 C 0.46222 0.14081 0.15422 0.0
C2326 C 0.44233 0.12937 0.15122 0.0
C2327 C 0.47929 0.13139 0.16495 0.0
C2328 C 0.50049 0.14296 0.16915 0.0
C2329 C 0.50273 0.16328 0.18049 0.0
C2330 C 0.52274 0.17419 0.18419 0.0
C2331 C 0.54065 0.16487 0.17674 0.0
C2332 C 0.53859 0.14459 0.16565 0.0
C2333 C 0.51862 0.13362 0.16191 0.0
H2334 H 0.55612 0.17334 0.17961 0.0
H2335 H 0.36264 0.0663 0.14185 0.0
H2336 H 0.99114 0.80215 0.66115 0.0
H2337 H 0.01514 0.82939 0.68131 0.0
H2338 H 0.06148 0.82142 0.63405 0.0
H2339 H 0.03773 0.79367 0.61397 0.0
H2340 H 0.08063 0.82714 0.67369 0.0
H2341 H 0.02973 0.86319 0.63252 0.0
H2342 H 0.9941 0.87127 0.61824 0.0
H2343 H 0.97732 0.88952 0.68222 0.0
H2344 H 0.01276 0.88124 0.69693 0.0
H2345 H 0.13346 0.93112 0.71143 0.0
H2346 H 0.11533 0.90136 0.68827 0.0
H2347 H 0.06738 0.8944 0.73398 0.0
H2348 H 0.08525 0.92373 0.75716 0.0
H2349 H 0.05126 0.89761 0.69114 0.0
H2350 H 0.10291 0.85901 0.73165 0.0
H2351 H 0.13918 0.85148 0.74446 0.0
H2352 H 0.15548 0.83952 0.67914 0.0
H2353 H 0.11937 0.84729 0.66592 0.0
C2354 C 0.0065 0.80603 0.6551 0.0
C2355 C 0.0124 0.79589 0.6358 0.0
C2356 C 0.02018 0.82167 0.66661 0.0
C2357 C 0.0399 0.82779 0.65891 0.0
C2358 C 0.04628 0.81704 0.6402 0.0
C2359 C 0.03266 0.8012 0.62874 0.0
C2360 C 0.05337 0.84598 0.67006 0.0
C2361 C 0.07432 0.84266 0.67721 0.0
C2362 C 0.04516 0.86625 0.67463 0.0
C2363 C 0.02386 0.87143 0.66585 0.0
C2364 C 0.0184 0.86879 0.64357 0.0
C2365 C -0.00176 0.87342 0.63539 0.0
C2366 C 0.98345 0.88086 0.64932 0.0
C2367 C 0.9888 0.88374 0.67145 0.0
C2368 C 0.00893 0.8791 0.67971 0.0
C2369 C 0.11914 0.92314 0.7166 0.0
C2370 C 0.11081 0.92986 0.73615 0.0
C2371 C 0.10885 0.90614 0.70338 0.0
C2372 C 0.09004 0.89575 0.70946 0.0
C2373 C 0.08186 0.90227 0.72901 0.0
C2374 C 0.09218 0.91902 0.74228 0.0
C2375 C 0.07823 0.87854 0.69528 0.0
C2376 C 0.0576 0.88213 0.68744 0.0
C2377 C 0.08686 0.85871 0.68984 0.0
C2378 C 0.10853 0.854 0.69779 0.0
C2379 C 0.11429 0.85498 0.72001 0.0
C2380 C 0.13481 0.85063 0.72735 0.0
C2381 C 0.14965 0.8451 0.71262 0.0
C2382 C 0.14398 0.84385 0.69053 0.0
C2383 C 0.1235 0.84822 0.68311 0.0
H2384 H 0.16552 0.84173 0.71834 0.0
H2385 H 0.96785 0.88444 0.64296 0.0
H2386 H 0.56019 0.79182 0.28328 0.0
H2387 H 0.54656 0.81905 0.26055 0.0
H2388 H 0.48569 0.81113 0.28759 0.0
H2389 H 0.49902 0.78373 0.3102 0.0
H2390 H 0.4816 0.81496 0.24407 0.0
H2391 H 0.52141 0.85097 0.30675 0.0
H2392 H 0.55333 0.85967 0.33124 0.0
H2393 H 0.58728 0.88266 0.27879 0.0
H2394 H 0.55563 0.87373 0.25389 0.0
H2395 H 0.43265 0.91116 0.25238 0.0
H2396 H 0.45056 0.87813 0.25503 0.0
H2397 H 0.50017 0.90329 0.21735 0.0
H2398 H 0.48201 0.93673 0.21439 0.0
H2399 H 0.51478 0.88929 0.25672 0.0
H2400 H 0.47094 0.86076 0.19619 0.0
H2401 H 0.43775 0.85369 0.17331 0.0
H2402 H 0.41023 0.81795 0.22249 0.0
H2403 H 0.44317 0.82502 0.24581 0.0
C2404 C 0.54388 0.79576 0.28433 0.0
C2405 C 0.53076 0.78572 0.29871 0.0
C2406 C 0.53611 0.8113 0.27129 0.0
C2407 C 0.51517 0.81715 0.2725 0.0
C2408 C 0.50188 0.80675 0.28637 0.0
C2409 C 0.5096 0.79121 0.29938 0.0
C2410 C 0.50732 0.83506 0.26046 0.0
C2411 C 0.48884 0.83122 0.24675 0.0
C2412 C 0.51723 0.85611 0.26346 0.0
C2413 C 0.53626 0.86141 0.27841 0.0
C2414 C 0.53575 0.85768 0.3004 0.0
C2415 C 0.55378 0.8627 0.31436 0.0
C2416 C 0.57234 0.87167 0.30657 0.0
C2417 C 0.57291 0.87566 0.28479 0.0
C2418 C 0.55494 0.87062 0.27074 0.0
C2419 C 0.44709 0.90965 0.24426 0.0
C2420 C 0.45592 0.92665 0.23326 0.0
C2421 C 0.45728 0.89062 0.24568 0.0
C2422 C 0.47659 0.88822 0.23623 0.0
C2423 C 0.48518 0.90483 0.2246 0.0
C2424 C 0.47479 0.92387 0.22293 0.0
C2425 C 0.48863 0.86934 0.24093 0.0
C2426 C 0.5079 0.87295 0.25336 0.0
C2427 C 0.47936 0.84813 0.23687 0.0
C2428 C 0.45956 0.84348 0.22279 0.0
C2429 C 0.45778 0.85148 0.20218 0.0
C2430 C 0.43901 0.84747 0.18912 0.0
C2431 C 0.42188 0.83542 0.19645 0.0
C2432 C 0.42352 0.82728 0.21683 0.0
C2433 C 0.44227 0.83124 0.22996 0.0
H2434 H 0.40734 0.83237 0.18632 0.0
H2435 H 0.58627 0.87562 0.3174 0.0
H2436 H 0.8187 0.63158 0.03447 0.0
H2437 H 0.84507 0.65093 0.06026 0.0
H2438 H 0.8513 0.70248 0.01754 0.0
H2439 H 0.82555 0.68306 0.99154 0.0
H2440 H 0.88881 0.69336 0.03258 0.0
H2441 H 0.82209 0.70558 0.06377 0.0
H2442 H 0.78795 0.69439 0.07812 0.0
H2443 H 0.82065 0.66075 0.12677 0.0
H2444 H 0.85498 0.67155 0.11254 0.0
H2445 H 0.93262 0.78219 0.09894 0.0
H2446 H 0.90826 0.75685 0.07671 0.0
H2447 H 0.91611 0.709 0.12308 0.0
H2448 H 0.94062 0.73431 0.14558 0.0
H2449 H 0.8736 0.71226 0.10832 0.0
H2450 H 0.94064 0.70331 0.07884 0.0
H2451 H 0.97455 0.71521 0.06448 0.0
H2452 H 0.94089 0.74325 0.01243 0.0
H2453 H 0.90677 0.73179 0.02665 0.0
C2454 C 0.82568 0.64704 0.03059 0.0
C2455 C 0.81999 0.65575 0.01092 0.0
C2456 C 0.8407 0.65813 0.04539 0.0
C2457 C 0.85004 0.67828 0.04095 0.0
C2458 C 0.84438 0.68693 0.02132 0.0
C2459 C 0.82959 0.6758 0.00646 0.0
C2460 C 0.86583 0.69048 0.0565 0.0
C2461 C 0.88538 0.69762 0.04908 0.0
C2462 C 0.86167 0.69549 0.07826 0.0
C2463 C 0.84107 0.68917 0.08695 0.0
C2464 C 0.82198 0.69568 0.07744 0.0
C2465 C 0.8026 0.68942 0.08556 0.0
C2466 C 0.80213 0.67681 0.1033 0.0
C2467 C 0.82104 0.67049 0.11301 0.0
C2468 C 0.84046 0.67669 0.10493 0.0
C2469 C 0.92919 0.76631 0.10451 0.0
C2470 C 0.93868 0.76028 0.12404 0.0
C2471 C 0.91529 0.75182 0.09172 0.0
C2472 C 0.91055 0.731 0.09816 0.0
C2473 C 0.91962 0.725 0.11782 0.0
C2474 C 0.93368 0.73946 0.1306 0.0
C2475 C 0.89622 0.71559 0.08413 0.0
C2476 C 0.87705 0.70779 0.09187 0.0
C2477 C 0.90064 0.71003 0.06261 0.0
C2478 C 0.92114 0.71683 0.05391 0.0
C2479 C 0.94047 0.71216 0.06442 0.0
C2480 C 0.95973 0.7188 0.05629 0.0
C2481 C 0.95987 0.73001 0.03758 0.0
C2482 C 0.94075 0.73457 0.02693 0.0
C2483 C 0.92145 0.72798 0.03501 0.0
H2484 H 0.9748 0.73514 0.03131 0.0
H2485 H 0.78711 0.67197 0.10956 0.0
H2486 H 0.55304 0.26354 0.63777 0.0
H2487 H 0.58626 0.2642 0.61966 0.0
H2488 H 0.56113 0.30762 0.57482 0.0
H2489 H 0.5279 0.30694 0.59259 0.0
H2490 H 0.58421 0.27724 0.55511 0.0
H2491 H 0.59176 0.32723 0.61833 0.0
H2492 H 0.59086 0.33729 0.65715 0.0
H2493 H 0.63751 0.29224 0.67151 0.0
H2494 H 0.63849 0.28172 0.63276 0.0
H2495 H 0.67541 0.32826 0.51677 0.0
H2496 H 0.64233 0.32086 0.53397 0.0
H2497 H 0.67493 0.28271 0.57927 0.0
H2498 H 0.70818 0.29047 0.56251 0.0
H2499 H 0.64866 0.30696 0.59919 0.0
H2500 H 0.64357 0.2589 0.53601 0.0
H2501 H 0.64459 0.24846 0.4973 0.0
H2502 H 0.59362 0.28863 0.4828 0.0
H2503 H 0.59248 0.29956 0.52142 0.0
C2504 C 0.55444 0.27296 0.62385 0.0
C2505 C 0.53789 0.2854 0.61679 0.0
C2506 C 0.57346 0.27338 0.61358 0.0
C2507 C 0.57622 0.28622 0.59613 0.0
C2508 C 0.55933 0.29767 0.58832 0.0
C2509 C 0.54037 0.29732 0.59858 0.0
C2510 C 0.59706 0.28893 0.58678 0.0
C2511 C 0.5983 0.28385 0.56468 0.0
C2512 C 0.61549 0.29709 0.59943 0.0
C2513 C 0.61502 0.30352 0.62269 0.0
C2514 C 0.60171 0.31936 0.62979 0.0
C2515 C 0.6012 0.32516 0.65177 0.0
C2516 C 0.61407 0.31537 0.66679 0.0
C2517 C 0.62753 0.29979 0.65986 0.0
C2518 C 0.62807 0.29391 0.63789 0.0
C2519 C 0.67557 0.3184 0.53047 0.0
C2520 C 0.69438 0.30985 0.5382 0.0
C2521 C 0.65662 0.31406 0.5402 0.0
C2522 C 0.65608 0.30086 0.55763 0.0
C2523 C 0.67496 0.29283 0.56576 0.0
C2524 C 0.69395 0.29729 0.55616 0.0
C2525 C 0.63583 0.2955 0.5674 0.0
C2526 C 0.63467 0.30011 0.5896 0.0
C2527 C 0.6175 0.28681 0.55485 0.0
C2528 C 0.61806 0.28019 0.53161 0.0
C2529 C 0.63268 0.26563 0.52456 0.0
C2530 C 0.63326 0.25961 0.50263 0.0
C2531 C 0.61921 0.26791 0.4876 0.0
C2532 C 0.6045 0.28223 0.49447 0.0
C2533 C 0.60387 0.28832 0.51638 0.0
H2534 H 0.61969 0.26323 0.47063 0.0
H2535 H 0.61366 0.31988 0.6838 0.0
H2536 H 0.19569 0.48573 0.05189 0.0
H2537 H 0.1931 0.5108 0.08325 0.0
H2538 H 0.23571 0.4739 0.1206 0.0
H2539 H 0.23921 0.44969 0.08916 0.0
H2540 H 0.17491 0.49995 0.11542 0.0
H2541 H 0.25666 0.49807 0.1655 0.0
H2542 H 0.29472 0.50231 0.1593 0.0
H2543 H 0.2806 0.53732 0.10359 0.0
H2544 H 0.24247 0.53361 0.10961 0.0
H2545 H 0.18846 0.48181 0.22887 0.0
H2546 H 0.20688 0.48893 0.19664 0.0
H2547 H 0.16866 0.54255 0.18568 0.0
H2548 H 0.14988 0.53543 0.21781 0.0
H2549 H 0.22835 0.52224 0.17559 0.0
H2550 H 0.14872 0.53454 0.1342 0.0
H2551 H 0.11047 0.52989 0.13992 0.0
H2552 H 0.12145 0.47465 0.1759 0.0
H2553 H 0.15968 0.47887 0.17015 0.0
C2554 C 0.20495 0.48338 0.06667 0.0
C2555 C 0.21742 0.46561 0.0682 0.0
C2556 C 0.20353 0.49775 0.08455 0.0
C2557 C 0.21424 0.49437 0.10437 0.0
C2558 C 0.22769 0.47732 0.10547 0.0
C2559 C 0.22949 0.46326 0.08748 0.0
C2560 C 0.20837 0.50574 0.12457 0.0
C2561 C 0.18671 0.5056 0.12824 0.0
C2562 C 0.22361 0.51297 0.14153 0.0
C2563 C 0.24662 0.5155 0.138 0.0
C2564 C 0.26165 0.50684 0.15203 0.0
C2565 C 0.28325 0.50911 0.14851 0.0
C2566 C 0.29007 0.52006 0.13105 0.0
C2567 C 0.2753 0.5288 0.11708 0.0
C2568 C 0.25367 0.52659 0.12052 0.0
C2569 C 0.18429 0.49548 0.21997 0.0
C2570 C 0.16724 0.50763 0.22555 0.0
C2571 C 0.19503 0.49967 0.20165 0.0
C2572 C 0.18887 0.51604 0.18864 0.0
C2573 C 0.17349 0.52972 0.19547 0.0
C2574 C 0.16269 0.52551 0.21377 0.0
C2575 C 0.19521 0.51554 0.16621 0.0
C2576 C 0.21679 0.51757 0.16227 0.0
C2577 C 0.17997 0.5102 0.14883 0.0
C2578 C 0.157 0.50719 0.15197 0.0
C2579 C 0.14292 0.52139 0.14327 0.0
C2580 C 0.12127 0.51882 0.14652 0.0
C2581 C 0.11355 0.50203 0.15834 0.0
C2582 C 0.12745 0.48769 0.16681 0.0
C2583 C 0.1491 0.49016 0.16356 0.0
H2584 H 0.0968 0.50011 0.16088 0.0
H2585 H 0.3068 0.52178 0.12835 0.0
H2586 H 0.34662 0.5248 0.8514 0.0
H2587 H 0.3321 0.5171 0.8857 0.0
H2588 H 0.26942 0.52838 0.85934 0.0
H2589 H 0.28404 0.53652 0.82502 0.0
H2590 H 0.27506 0.53881 0.90402 0.0
H2591 H 0.28561 0.47968 0.85255 0.0
H2592 H 0.30694 0.45878 0.82805 0.0
H2593 H 0.35026 0.44719 0.88123 0.0
H2594 H 0.32935 0.46835 0.90599 0.0
H2595 H 0.21153 0.46327 0.95711 0.0
H2596 H 0.22931 0.48492 0.93145 0.0
H2597 H 0.29011 0.46748 0.95759 0.0
H2598 H 0.2725 0.44549 0.98311 0.0
H2599 H 0.28694 0.46217 0.91494 0.0
H2600 H 0.27363 0.51822 0.96736 0.0
H2601 H 0.25203 0.53928 0.99142 0.0
H2602 H 0.21336 0.55637 0.93686 0.0
H2603 H 0.23454 0.53515 0.91247 0.0
C2604 C 0.32984 0.52614 0.85311 0.0
C2605 C 0.3163 0.53064 0.83553 0.0
C2606 C 0.3216 0.5219 0.87272 0.0
C2607 C 0.29964 0.52161 0.87479 0.0
C2608 C 0.2864 0.52841 0.85798 0.0
C2609 C 0.29474 0.53301 0.83841 0.0
C2610 C 0.29028 0.51075 0.89268 0.0
C2611 C 0.27752 0.52204 0.90642 0.0
C2612 C 0.29375 0.48893 0.89584 0.0
C2613 C 0.30605 0.47577 0.88107 0.0
C2614 C 0.29975 0.47277 0.85899 0.0
C2615 C 0.31176 0.46088 0.84506 0.0
C2616 C 0.32998 0.45171 0.85307 0.0
C2617 C 0.33617 0.45434 0.87504 0.0
C2618 C 0.32424 0.46627 0.88903 0.0
C2619 C 0.22869 0.46407 0.95748 0.0
C2620 C 0.24058 0.45256 0.97213 0.0
C2621 C 0.23883 0.47661 0.94291 0.0
C2622 C 0.26102 0.47803 0.94284 0.0
C2623 C 0.27295 0.46665 0.95747 0.0
C2624 C 0.26284 0.45405 0.972 0.0
C2625 C 0.27175 0.49021 0.92654 0.0
C2626 C 0.28466 0.47904 0.91287 0.0
C2627 C 0.2683 0.51207 0.92348 0.0
C2628 C 0.25557 0.52493 0.9381 0.0
C2629 C 0.26042 0.52633 0.9605 0.0
C2630 C 0.24827 0.53832 0.97419 0.0
C2631 C 0.2313 0.54912 0.96568 0.0
C2632 C 0.22649 0.54798 0.94343 0.0
C2633 C 0.23858 0.53599 0.92966 0.0
H2634 H 0.22192 0.55839 0.97631 0.0
H2635 H 0.33927 0.44253 0.84226 0.0
H2636 H 0.26795 0.62845 0.55874 0.0
H2637 H 0.26877 0.61067 0.59262 0.0
H2638 H 0.33383 0.59645 0.58487 0.0
H2639 H 0.33281 0.61333 0.55061 0.0
H2640 H 0.3146 0.56403 0.6008 0.0
H2641 H 0.31932 0.64059 0.61788 0.0
H2642 H 0.3079 0.67762 0.61668 0.0
H2643 H 0.24952 0.65831 0.6438 0.0
H2644 H 0.26049 0.62109 0.64491 0.0
H2645 H 0.34854 0.55214 0.70988 0.0
H2646 H 0.34351 0.56564 0.67406 0.0
H2647 H 0.27665 0.56917 0.68236 0.0
H2648 H 0.28151 0.55574 0.71825 0.0
H2649 H 0.29479 0.60568 0.66613 0.0
H2650 H 0.29279 0.52885 0.6512 0.0
H2651 H 0.30644 0.49284 0.65355 0.0
H2652 H 0.36256 0.51398 0.62342 0.0
H2653 H 0.34936 0.55022 0.62114 0.0
C2654 C 0.28236 0.62137 0.56418 0.0
C2655 C 0.30037 0.62245 0.55209 0.0
C2656 C 0.28285 0.61129 0.5836 0.0
C2657 C 0.30152 0.60263 0.59156 0.0
C2658 C 0.31926 0.60305 0.57911 0.0
C2659 C 0.31866 0.61276 0.55953 0.0
C2660 C 0.30293 0.5938 0.61315 0.0
C2661 C 0.31044 0.57323 0.61509 0.0
C2662 C 0.2972 0.60563 0.63182 0.0
C2663 C 0.29062 0.62802 0.63126 0.0
C2664 C 0.30398 0.64422 0.62345 0.0
C2665 C 0.2976 0.66524 0.62281 0.0
C2666 C 0.27797 0.6703 0.6301 0.0
C2667 C 0.2647 0.65436 0.63812 0.0
C2668 C 0.271 0.6333 0.63878 0.0
C2669 C 0.33277 0.55582 0.70412 0.0
C2670 C 0.31541 0.55282 0.71689 0.0
C2671 C 0.32991 0.56343 0.68361 0.0
C2672 C 0.30967 0.56814 0.6755 0.0
C2673 C 0.29238 0.56553 0.68833 0.0
C2674 C 0.2952 0.55783 0.7088 0.0
C2675 C 0.30659 0.57607 0.65371 0.0
C2676 C 0.29879 0.59645 0.65177 0.0
C2677 C 0.31235 0.56421 0.63513 0.0
C2678 C 0.32015 0.54231 0.63616 0.0
C2679 C 0.3081 0.52587 0.64519 0.0
C2680 C 0.31575 0.5054 0.64649 0.0
C2681 C 0.33538 0.50114 0.63869 0.0
C2682 C 0.34736 0.51731 0.62948 0.0
C2683 C 0.33979 0.53781 0.62815 0.0
H2684 H 0.34129 0.48529 0.63975 0.0
H2685 H 0.27306 0.68659 0.62959 0.0
H2686 H 0.13209 0.54337 0.32656 0.0
H2687 H 0.15088 0.56493 0.35684 0.0
H2688 H 0.19863 0.51859 0.36015 0.0
H2689 H 0.17972 0.49671 0.33044 0.0
H2690 H 0.18991 0.53169 0.39925 0.0
H2691 H 0.20577 0.56625 0.33432 0.0
H2692 H 0.19681 0.58322 0.30052 0.0
H2693 H 0.1655 0.63204 0.33559 0.0
H2694 H 0.17406 0.61519 0.36958 0.0
H2695 H 0.28055 0.59332 0.44727 0.0
H2696 H 0.25458 0.57204 0.42264 0.0
H2697 H 0.20925 0.62003 0.43203 0.0
H2698 H 0.23507 0.64143 0.45676 0.0
H2699 H 0.21327 0.60758 0.38885 0.0
H2700 H 0.20158 0.5745 0.4546 0.0
H2701 H 0.21165 0.55728 0.48795 0.0
H2702 H 0.23646 0.5054 0.45086 0.0
H2703 H 0.22683 0.52246 0.41728 0.0
C2704 C 0.14651 0.5377 0.33383 0.0
C2705 C 0.15447 0.51839 0.32595 0.0
C2706 C 0.15727 0.55008 0.3511 0.0
C2707 C 0.17635 0.54354 0.36055 0.0
C2708 C 0.18395 0.52397 0.35312 0.0
C2709 C 0.17312 0.5115 0.33605 0.0
C2710 C 0.18892 0.55733 0.37765 0.0
C2711 C 0.19513 0.54824 0.39691 0.0
C2712 C 0.19534 0.57908 0.37482 0.0
C2713 C 0.19035 0.58933 0.35444 0.0
C2714 C 0.19685 0.58052 0.3348 0.0
C2715 C 0.19187 0.59013 0.31561 0.0
C2716 C 0.18054 0.60866 0.3159 0.0
C2717 C 0.17424 0.61766 0.33539 0.0
C2718 C 0.17917 0.6081 0.35462 0.0
C2719 C 0.26505 0.59934 0.44417 0.0
C2720 C 0.25991 0.61909 0.45399 0.0
C2721 C 0.25019 0.58711 0.43018 0.0
C2722 C 0.22997 0.59442 0.42567 0.0
C2723 C 0.22477 0.61411 0.43537 0.0
C2724 C 0.23954 0.62627 0.44953 0.0
C2725 C 0.21456 0.58179 0.41021 0.0
C2726 C 0.20783 0.59111 0.39128 0.0
C2727 C 0.20784 0.5602 0.41326 0.0
C2728 C 0.21364 0.54987 0.43343 0.0
C2729 C 0.20935 0.55951 0.45356 0.0
C2730 C 0.21495 0.54976 0.4725 0.0
C2731 C 0.22473 0.53028 0.47152 0.0
C2732 C 0.2289 0.52049 0.45159 0.0
C2733 C 0.22336 0.53019 0.43259 0.0
H2734 H 0.22904 0.52275 0.48621 0.0
H2735 H 0.17669 0.61607 0.30103 0.0
loop_
_geom_bond_atom_site_label_1
_geom_bond_atom_site_label_2
_geom_bond_distance
_geom_bond_site_symmetry_2
_ccdc_geom_bond_type
Mg0 O1 2.028 . S
Mg0 O7 1.986 . S
Mg0 O9 2.114 1_455 S
Mg0 O10 2.251 1_455 S
Mg0 O13 2.010 . S
O1 Mg0 2.028 . S
O1 C4 1.250 1_455 S
O2 Mg3 2.028 . S
O2 C4 1.248 . S
Mg3 O2 2.028 . S
Mg3 O8 1.994 1_655 S
Mg3 O10 2.079 . S
C4 O1 1.250 1_655 S
C4 O2 1.248 . S
C5 O6 1.264 . S
C5 O13 1.249 . S
O6 C5 1.264 . S
O7 Mg0 1.986 . S
O7 C11 1.246 . S
O8 Mg3 1.994 1_455 S
O8 C11 1.300 . S
O9 Mg0 2.114 1_655 S
O9 C12 1.252 . S
O10 Mg0 2.251 1_655 S
O10 Mg3 2.079 . S
O10 C12 1.273 . S
C11 O7 1.246 . S
C11 O8 1.300 . S
C12 O9 1.252 . S
C12 O10 1.273 . S
O13 Mg0 2.010 . S
O13 C5 1.249 . S
Mg14 O15 2.028 . S
Mg14 O21 1.986 . S
Mg14 O23 2.114 1_455 S
Mg14 O24 2.251 1_455 S
Mg14 O27 2.010 . S
O15 Mg14 2.028 . S
O15 C18 1.250 . S
O16 Mg17 2.028 1_455 S
O16 C18 1.248 . S
Mg17 O16 2.028 1_655 S
Mg17 O22 2.032 . S
Mg17 O24 2.079 . S
C18 O15 1.250 . S
C18 O16 1.248 . S
C19 O20 1.264 . S
C19 O27 1.249 . S
O20 C19 1.264 . S
O21 Mg14 1.986 . S
O21 C25 1.246 1_455 S
O22 Mg17 2.032 . S
O22 C25 1.259 . S
O23 Mg14 2.114 1_655 S
O23 C26 1.252 . S
O24 Mg14 2.251 1_655 S
O24 Mg17 2.079 . S
O24 C26 1.273 . S
C25 O21 1.246 1_655 S
C25 O22 1.259 . S
C26 O23 1.252 . S
C26 O24 1.273 . S
O27 Mg14 2.010 . S
O27 C19 1.249 . S
Mg28 O29 2.028 . S
Mg28 O35 1.986 . S
Mg28 O37 2.114 . S
Mg28 O38 2.251 . S
Mg28 O41 2.010 . S
O29 Mg28 2.028 . S
O29 C32 1.250 . S
O30 Mg31 2.028 . S
O30 C32 1.248 . S
Mg31 O30 2.028 . S
Mg31 O36 2.032 . S
Mg31 O38 2.079 . S
C32 O29 1.250 . S
C32 O30 1.248 . S
C33 O34 1.264 . S
C33 O41 1.249 . S
O34 C33 1.264 . S
O35 Mg28 1.986 . S
O35 C39 1.246 . S
O36 Mg31 2.032 . S
O36 C39 1.259 . S
O37 Mg28 2.114 . S
O37 C40 1.252 . S
O38 Mg28 2.251 . S
O38 Mg31 2.079 . S
O38 C40 1.273 . S
C39 O35 1.246 . S
C39 O36 1.259 . S
C40 O37 1.252 . S
C40 O38 1.273 . S
O41 Mg28 2.010 . S
O41 C33 1.249 . S
Mg42 O43 2.028 . S
Mg42 O49 1.986 . S
Mg42 O51 2.114 . S
Mg42 O52 2.251 . S
Mg42 O55 2.010 . S
O43 Mg42 2.028 . S
O43 C46 1.250 . S
O44 Mg45 2.028 . S
O44 C46 1.248 . S
Mg45 O44 2.028 . S
Mg45 O50 2.032 . S
Mg45 O52 2.079 . S
C46 O43 1.250 . S
C46 O44 1.248 . S
C47 O48 1.264 . S
C47 O55 1.249 . S
O48 C47 1.264 . S
O49 Mg42 1.986 . S
O49 C53 1.246 . S
O50 Mg45 2.032 . S
O50 C53 1.259 . S
O51 Mg42 2.114 . S
O51 C54 1.252 . S
O52 Mg42 2.251 . S
O52 Mg45 2.079 . S
O52 C54 1.273 . S
C53 O49 1.246 . S
C53 O50 1.259 . S
C54 O51 1.252 . S
C54 O52 1.273 . S
O55 Mg42 2.010 . S
O55 C47 1.249 . S
Mg56 O57 2.028 1_455 S
Mg56 O63 1.986 . S
Mg56 O65 2.114 1_455 S
Mg56 O66 2.251 1_455 S
Mg56 O69 2.010 . S
O57 Mg56 2.028 1_655 S
O57 C60 1.250 . S
O58 Mg59 2.028 . S
O58 C60 1.248 . S
Mg59 O58 2.028 . S
Mg59 O64 2.032 1_655 S
Mg59 O66 2.079 . S
C60 O57 1.250 . S
C60 O58 1.248 . S
C61 O62 1.264 . S
C61 O69 1.249 . S
O62 C61 1.264 . S
O63 Mg56 1.986 . S
O63 C67 1.246 . S
O64 Mg59 2.032 1_455 S
O64 C67 1.259 . S
O65 Mg56 2.114 1_655 S
O65 C68 1.252 . S
O66 Mg56 2.251 1_655 S
O66 Mg59 2.079 . S
O66 C68 1.273 . S
C67 O63 1.246 . S
C67 O64 1.259 . S
C68 O65 1.252 . S
C68 O66 1.273 . S
O69 Mg56 2.010 . S
O69 C61 1.249 . S
Mg70 O71 2.028 . S
Mg70 O77 1.986 . S
Mg70 O79 2.114 . S
Mg70 O80 2.251 . S
Mg70 O83 2.010 . S
O71 Mg70 2.028 . S
O71 C74 1.250 . S
O72 Mg73 2.028 . S
O72 C74 1.248 . S
Mg73 O72 2.028 . S
Mg73 O78 2.032 . S
Mg73 O80 2.079 . S
C74 O71 1.250 . S
C74 O72 1.248 . S
C75 O76 1.264 . S
C75 O83 1.249 . S
O76 C75 1.264 . S
O77 Mg70 1.986 . S
O77 C81 1.246 . S
O78 Mg73 2.032 . S
O78 C81 1.259 . S
O79 Mg70 2.114 . S
O79 C82 1.252 . S
O80 Mg70 2.251 . S
O80 Mg73 2.079 . S
O80 C82 1.273 . S
C81 O77 1.246 . S
C81 O78 1.259 . S
C82 O79 1.252 . S
C82 O80 1.273 . S
O83 Mg70 2.010 . S
O83 C75 1.249 . S
Mg84 O85 2.028 . S
Mg84 O91 1.986 . S
Mg84 O93 2.114 . S
Mg84 O94 2.251 . S
Mg84 O97 2.010 . S
O85 Mg84 2.028 . S
O85 C88 1.250 . S
O86 Mg87 2.028 . S
O86 C88 1.248 . S
Mg87 O86 2.028 . S
Mg87 O92 2.032 . S
Mg87 O94 2.079 . S
C88 O85 1.250 . S
C88 O86 1.248 . S
C89 O90 1.264 . S
C89 O97 1.249 . S
O90 C89 1.264 . S
O91 Mg84 1.986 . S
O91 C95 1.246 . S
O92 Mg87 2.032 . S
O92 C95 1.259 . S
O93 Mg84 2.114 . S
O93 C96 1.252 . S
O94 Mg84 2.251 . S
O94 Mg87 2.079 . S
O94 C96 1.273 . S
C95 O91 1.246 . S
C95 O92 1.259 . S
C96 O93 1.252 . S
C96 O94 1.273 . S
O97 Mg84 2.010 . S
O97 C89 1.249 . S
Mg98 O99 2.028 1_455 S
Mg98 O105 1.986 . S
Mg98 O107 2.114 . S
Mg98 O108 2.251 . S
Mg98 O111 2.010 1_455 S
O99 Mg98 2.028 1_655 S
O99 C102 1.250 . S
O100 Mg101 2.028 . S
O100 C102 1.248 1_455 S
Mg101 O100 2.028 . S
Mg101 O106 2.032 . S
Mg101 O108 2.079 . S
C102 O99 1.250 . S
C102 O100 1.248 1_655 S
C103 O104 1.264 . S
C103 O111 1.249 . S
O104 C103 1.264 . S
O105 Mg98 1.986 . S
O105 C109 1.246 . S
O106 Mg101 2.032 . S
O106 C109 1.259 . S
O107 Mg98 2.114 . S
O107 C110 1.252 . S
O108 Mg98 2.251 . S
O108 Mg101 2.079 . S
O108 C110 1.273 . S
C109 O105 1.246 . S
C109 O106 1.259 . S
C110 O107 1.252 . S
C110 O108 1.273 . S
O111 Mg98 2.010 1_655 S
O111 C103 1.249 . S
Mg112 O113 2.021 1_545 S
Mg112 O119 1.986 . S
Mg112 O121 2.114 1_545 S
Mg112 O122 2.251 1_545 S
Mg112 O125 2.010 . S
O113 Mg112 2.021 1_565 S
O113 C116 1.284 . S
O114 Mg115 2.028 . S
O114 C116 1.248 . S
Mg115 O114 2.028 . S
Mg115 O120 2.032 . S
Mg115 O122 2.079 . S
C116 O113 1.284 . S
C116 O114 1.248 . S
C117 O118 1.264 . S
C117 O125 1.249 . S
O118 C117 1.264 . S
O119 Mg112 1.986 . S
O119 C123 1.246 . S
O120 Mg115 2.032 . S
O120 C123 1.259 1_565 S
O121 Mg112 2.114 1_565 S
O121 C124 1.252 . S
O122 Mg112 2.251 1_565 S
O122 Mg115 2.079 . S
O122 C124 1.273 . S
C123 O119 1.246 . S
C123 O120 1.259 1_545 S
C124 O121 1.252 . S
C124 O122 1.273 . S
O125 Mg112 2.010 . S
O125 C117 1.249 . S
Mg126 O127 2.028 . S
Mg126 O133 1.986 . S
Mg126 O135 2.114 . S
Mg126 O136 2.251 . S
Mg126 O139 2.010 . S
O127 Mg126 2.028 . S
O127 C130 1.250 . S
O128 Mg129 2.028 . S
O128 C130 1.248 . S
Mg129 O128 2.028 . S
Mg129 O134 2.032 . S
Mg129 O136 2.079 . S
C130 O127 1.250 . S
C130 O128 1.248 . S
C131 O132 1.264 . S
C131 O139 1.249 . S
O132 C131 1.264 . S
O133 Mg126 1.986 . S
O133 C137 1.246 . S
O134 Mg129 2.032 . S
O134 C137 1.259 . S
O135 Mg126 2.114 . S
O135 C138 1.252 . S
O136 Mg126 2.251 . S
O136 Mg129 2.079 . S
O136 C138 1.273 . S
C137 O133 1.246 . S
C137 O134 1.259 . S
C138 O135 1.252 . S
C138 O136 1.273 . S
O139 Mg126 2.010 . S
O139 C131 1.249 . S
Mg140 O141 2.028 1_545 S
Mg140 O147 1.986 . S
Mg140 O149 2.114 1_545 S
Mg140 O150 2.251 1_545 S
Mg140 O153 2.010 . S
O141 Mg140 2.028 1_565 S
O141 C144 1.250 . S
O142 Mg143 2.028 . S
O142 C144 1.248 . S
Mg143 O142 2.028 . S
Mg143 O148 2.032 1_565 S
Mg143 O150 2.079 . S
C144 O141 1.250 . S
C144 O142 1.248 . S
C145 O146 1.264 . S
C145 O153 1.249 . S
O146 C145 1.264 . S
O147 Mg140 1.986 . S
O147 C151 1.246 . S
O148 Mg143 2.032 1_545 S
O148 C151 1.259 . S
O149 Mg140 2.114 1_565 S
O149 C152 1.252 . S
O150 Mg140 2.251 1_565 S
O150 Mg143 2.079 . S
O150 C152 1.273 . S
C151 O147 1.246 . S
C151 O148 1.259 . S
C152 O149 1.252 . S
C152 O150 1.273 . S
O153 Mg140 2.010 . S
O153 C145 1.249 . S
Mg154 O155 2.030 . S
Mg154 O161 1.985 1_554 S
Mg154 O163 2.114 . S
Mg154 O164 2.251 1_554 S
Mg154 O167 2.011 . S
O155 Mg154 2.030 . S
O155 C158 1.250 . S
O156 Mg157 2.028 1_554 S
O156 C158 1.248 . S
Mg157 O156 2.028 1_556 S
Mg157 O162 2.032 . S
Mg157 O164 2.079 . S
C158 O155 1.250 . S
C158 O156 1.248 . S
C159 O160 1.264 . S
C159 O167 1.249 . S
O160 C159 1.264 . S
O161 Mg154 1.985 1_556 S
O161 C165 1.246 . S
O162 Mg157 2.032 . S
O162 C165 1.259 . S
O163 Mg154 2.114 . S
O163 C166 1.252 1_554 S
O164 Mg154 2.251 1_556 S
O164 Mg157 2.079 . S
O164 C166 1.273 . S
C165 O161 1.246 . S
C165 O162 1.259 . S
C166 O163 1.252 1_556 S
C166 O164 1.273 . S
O167 Mg154 2.011 . S
O167 C159 1.249 . S
Mg168 O169 2.028 1_554 S
Mg168 O175 1.986 . S
Mg168 O177 2.114 1_554 S
Mg168 O178 2.251 1_554 S
Mg168 O181 2.010 . S
O169 Mg168 2.028 1_556 S
O169 C172 1.250 . S
O170 Mg171 2.028 . S
O170 C172 1.248 . S
Mg171 O170 2.028 . S
Mg171 O176 2.032 1_556 S
Mg171 O178 2.079 . S
C172 O169 1.250 . S
C172 O170 1.248 . S
C173 O174 1.264 . S
C173 O181 1.249 . S
O174 C173 1.264 . S
O175 Mg168 1.986 . S
O175 C179 1.246 . S
O176 Mg171 2.032 1_554 S
O176 C179 1.259 . S
O177 Mg168 2.114 1_556 S
O177 C180 1.252 . S
O178 Mg168 2.251 1_556 S
O178 Mg171 2.079 . S
O178 C180 1.273 . S
C179 O175 1.246 . S
C179 O176 1.259 . S
C180 O177 1.252 . S
C180 O178 1.273 . S
O181 Mg168 2.010 . S
O181 C173 1.249 . S
Mg182 O183 2.028 1_554 S
Mg182 O189 1.986 . S
Mg182 O191 2.114 1_554 S
Mg182 O192 2.251 1_554 S
Mg182 O195 2.010 . S
O183 Mg182 2.028 1_556 S
O183 C186 1.250 . S
O184 Mg185 2.028 . S
O184 C186 1.248 . S
Mg185 O184 2.028 . S
Mg185 O190 2.032 1_556 S
Mg185 O192 2.079 . S
C186 O183 1.250 . S
C186 O184 1.248 . S
C187 O188 1.264 . S
C187 O195 1.249 . S
O188 C187 1.264 . S
O189 Mg182 1.986 . S
O189 C193 1.246 . S
O190 Mg185 2.032 1_554 S
O190 C193 1.259 . S
O191 Mg182 2.114 1_556 S
O191 C194 1.252 . S
O192 Mg182 2.251 1_556 S
O192 Mg185 2.079 . S
O192 C194 1.273 . S
C193 O189 1.246 . S
C193 O190 1.259 . S
C194 O191 1.252 . S
C194 O192 1.273 . S
O195 Mg182 2.010 . S
O195 C187 1.249 . S
Mg196 O197 2.028 . S
Mg196 O203 1.986 . S
Mg196 O205 2.114 . S
Mg196 O206 2.251 . S
Mg196 O209 2.010 . S
O197 Mg196 2.028 . S
O197 C200 1.250 . S
O198 Mg199 2.028 . S
O198 C200 1.248 . S
Mg199 O198 2.028 . S
Mg199 O204 2.032 . S
Mg199 O206 2.079 . S
C200 O197 1.250 . S
C200 O198 1.248 . S
C201 O202 1.264 . S
C201 O209 1.249 . S
O202 C201 1.264 . S
O203 Mg196 1.986 . S
O203 C207 1.246 . S
O204 Mg199 2.032 . S
O204 C207 1.259 . S
O205 Mg196 2.114 . S
O205 C208 1.252 . S
O206 Mg196 2.251 . S
O206 Mg199 2.079 . S
O206 C208 1.273 . S
C207 O203 1.246 . S
C207 O204 1.259 . S
C208 O205 1.252 . S
C208 O206 1.273 . S
O209 Mg196 2.010 . S
O209 C201 1.249 . S
Mg210 O211 2.028 . S
Mg210 O217 1.986 . S
Mg210 O219 2.114 . S
Mg210 O220 2.251 . S
Mg210 O223 2.010 . S
O211 Mg210 2.028 . S
O211 C214 1.250 . S
O212 Mg213 2.028 . S
O212 C214 1.248 . S
Mg213 O212 2.028 . S
Mg213 O218 2.032 . S
Mg213 O220 2.079 . S
C214 O211 1.250 . S
C214 O212 1.248 . S
C215 O216 1.264 . S
C215 O223 1.249 . S
O216 C215 1.264 . S
O217 Mg210 1.986 . S
O217 C221 1.246 . S
O218 Mg213 2.032 . S
O218 C221 1.259 . S
O219 Mg210 2.114 . S
O219 C222 1.252 . S
O220 Mg210 2.251 . S
O220 Mg213 2.079 . S
O220 C222 1.273 . S
C221 O217 1.246 . S
C221 O218 1.259 . S
C222 O219 1.252 . S
C222 O220 1.273 . S
O223 Mg210 2.010 . S
O223 C215 1.249 . S
Mg224 O225 2.028 . S
Mg224 O231 1.986 1_545 S
Mg224 O233 2.114 . S
Mg224 O234 2.251 1_545 S
Mg224 O237 2.010 . S
O225 Mg224 2.028 . S
O225 C228 1.250 . S
O226 Mg227 2.028 1_545 S
O226 C228 1.248 . S
Mg227 O226 2.028 1_565 S
Mg227 O232 2.032 . S
Mg227 O234 2.079 . S
C228 O225 1.250 . S
C228 O226 1.248 . S
C229 O230 1.264 . S
C229 O237 1.249 . S
O230 C229 1.264 . S
O231 Mg224 1.986 1_565 S
O231 C235 1.246 . S
O232 Mg227 2.032 . S
O232 C235 1.259 . S
O233 Mg224 2.114 . S
O233 C236 1.252 1_545 S
O234 Mg224 2.251 1_565 S
O234 Mg227 2.079 . S
O234 C236 1.273 . S
C235 O231 1.246 . S
C235 O232 1.259 . S
C236 O233 1.252 1_565 S
C236 O234 1.273 . S
O237 Mg224 2.010 . S
O237 C229 1.249 . S
Mg238 O239 2.028 . S
Mg238 O245 1.986 . S
Mg238 O247 2.114 . S
Mg238 O248 2.251 . S
Mg238 O251 2.010 . S
O239 Mg238 2.028 . S
O239 C242 1.250 . S
O240 Mg241 2.028 . S
O240 C242 1.248 . S
Mg241 O240 2.028 . S
Mg241 O246 2.032 . S
Mg241 O248 2.079 . S
C242 O239 1.250 . S
C242 O240 1.248 . S
C243 O244 1.264 . S
C243 O251 1.249 . S
O244 C243 1.264 . S
O245 Mg238 1.986 . S
O245 C249 1.246 . S
O246 Mg241 2.032 . S
O246 C249 1.259 . S
O247 Mg238 2.114 . S
O247 C250 1.252 . S
O248 Mg238 2.251 . S
O248 Mg241 2.079 . S
O248 C250 1.273 . S
C249 O245 1.246 . S
C249 O246 1.259 . S
C250 O247 1.252 . S
C250 O248 1.273 . S
O251 Mg238 2.010 . S
O251 C243 1.249 . S
Mg252 O253 2.028 . S
Mg252 O259 1.986 . S
Mg252 O261 2.114 . S
Mg252 O262 2.251 . S
Mg252 O265 2.010 . S
O253 Mg252 2.028 . S
O253 C256 1.250 . S
O254 Mg255 2.028 . S
O254 C256 1.248 . S
Mg255 O254 2.028 . S
Mg255 O260 2.032 . S
Mg255 O262 2.079 . S
C256 O253 1.250 . S
C256 O254 1.248 . S
C257 O258 1.264 . S
C257 O265 1.249 . S
O258 C257 1.264 . S
O259 Mg252 1.986 . S
O259 C263 1.246 . S
O260 Mg255 2.032 . S
O260 C263 1.259 . S
O261 Mg252 2.114 . S
O261 C264 1.252 . S
O262 Mg252 2.251 . S
O262 Mg255 2.079 . S
O262 C264 1.273 . S
C263 O259 1.246 . S
C263 O260 1.259 . S
C264 O261 1.252 . S
C264 O262 1.273 . S
O265 Mg252 2.010 . S
O265 C257 1.249 . S
Mg266 O267 2.028 . S
Mg266 O273 1.986 . S
Mg266 O275 2.114 1_545 S
Mg266 O276 2.251 1_545 S
Mg266 O279 2.010 . S
O267 Mg266 2.028 . S
O267 C270 1.250 . S
O268 Mg269 2.028 1_545 S
O268 C270 1.248 . S
Mg269 O268 2.028 1_565 S
Mg269 O274 2.032 . S
Mg269 O276 2.079 . S
C270 O267 1.250 . S
C270 O268 1.248 . S
C271 O272 1.264 . S
C271 O279 1.249 . S
O272 C271 1.264 . S
O273 Mg266 1.986 . S
O273 C277 1.246 1_545 S
O274 Mg269 2.032 . S
O274 C277 1.259 . S
O275 Mg266 2.114 1_565 S
O275 C278 1.252 . S
O276 Mg266 2.251 1_565 S
O276 Mg269 2.079 . S
O276 C278 1.273 . S
C277 O273 1.246 1_565 S
C277 O274 1.259 . S
C278 O275 1.252 . S
C278 O276 1.273 . S
O279 Mg266 2.010 . S
O279 C271 1.249 . S
Mg280 O281 2.028 . S
Mg280 O287 1.986 1_554 S
Mg280 O289 2.114 1_554 S
Mg280 O290 2.251 1_554 S
Mg280 O293 2.010 . S
O281 Mg280 2.028 . S
O281 C284 1.250 . S
O282 Mg283 2.059 . S
O282 C284 1.216 1_556 S
Mg283 O282 2.059 . S
Mg283 O288 2.032 . S
Mg283 O290 2.079 . S
C284 O281 1.250 . S
C284 O282 1.216 1_554 S
C285 O286 1.264 . S
C285 O293 1.249 . S
O286 C285 1.264 . S
O287 Mg280 1.986 1_556 S
O287 C291 1.246 . S
O288 Mg283 2.032 . S
O288 C291 1.259 . S
O289 Mg280 2.114 1_556 S
O289 C292 1.252 . S
O290 Mg280 2.251 1_556 S
O290 Mg283 2.079 . S
O290 C292 1.273 . S
C291 O287 1.246 . S
C291 O288 1.259 . S
C292 O289 1.252 . S
C292 O290 1.273 . S
O293 Mg280 2.010 . S
O293 C285 1.249 . S
Mg294 O295 2.028 . S
Mg294 O301 1.986 . S
Mg294 O303 2.114 . S
Mg294 O304 2.251 . S
Mg294 O307 2.010 . S
O295 Mg294 2.028 . S
O295 C298 1.250 . S
O296 Mg297 2.028 . S
O296 C298 1.248 . S
Mg297 O296 2.028 . S
Mg297 O302 2.032 . S
Mg297 O304 2.079 . S
C298 O295 1.250 . S
C298 O296 1.248 . S
C299 O300 1.264 . S
C299 O307 1.249 . S
O300 C299 1.264 . S
O301 Mg294 1.986 . S
O301 C305 1.246 . S
O302 Mg297 2.032 . S
O302 C305 1.259 . S
O303 Mg294 2.114 . S
O303 C306 1.252 . S
O304 Mg294 2.251 . S
O304 Mg297 2.079 . S
O304 C306 1.273 . S
C305 O301 1.246 . S
C305 O302 1.259 . S
C306 O303 1.252 . S
C306 O304 1.273 . S
O307 Mg294 2.010 . S
O307 C299 1.249 . S
Mg308 O309 2.028 . S
Mg308 O315 1.986 . S
Mg308 O317 2.114 . S
Mg308 O318 2.251 . S
Mg308 O321 2.010 . S
O309 Mg308 2.028 . S
O309 C312 1.250 . S
O310 Mg311 2.028 . S
O310 C312 1.248 . S
Mg311 O310 2.028 . S
Mg311 O316 2.032 . S
Mg311 O318 2.079 . S
C312 O309 1.250 . S
C312 O310 1.248 . S
C313 O314 1.264 . S
C313 O321 1.249 . S
O314 C313 1.264 . S
O315 Mg308 1.986 . S
O315 C319 1.246 . S
O316 Mg311 2.032 . S
O316 C319 1.259 . S
O317 Mg308 2.114 . S
O317 C320 1.252 . S
O318 Mg308 2.251 . S
O318 Mg311 2.079 . S
O318 C320 1.273 . S
C319 O315 1.246 . S
C319 O316 1.259 . S
C320 O317 1.252 . S
C320 O318 1.273 . S
O321 Mg308 2.010 . S
O321 C313 1.249 . S
Mg322 O323 2.028 . S
Mg322 O329 1.986 . S
Mg322 O331 2.114 . S
Mg322 O332 2.251 . S
Mg322 O335 2.010 . S
O323 Mg322 2.028 . S
O323 C326 1.250 . S
O324 Mg325 2.028 . S
O324 C326 1.248 . S
Mg325 O324 2.028 . S
Mg325 O330 2.032 . S
Mg325 O332 2.079 . S
C326 O323 1.250 . S
C326 O324 1.248 . S
C327 O328 1.264 . S
C327 O335 1.249 . S
O328 C327 1.264 . S
O329 Mg322 1.986 . S
O329 C333 1.246 . S
O330 Mg325 2.032 . S
O330 C333 1.259 . S
O331 Mg322 2.114 . S
O331 C334 1.252 . S
O332 Mg322 2.251 . S
O332 Mg325 2.079 . S
O332 C334 1.273 . S
C333 O329 1.246 . S
C333 O330 1.259 . S
C334 O331 1.252 . S
C334 O332 1.273 . S
O335 Mg322 2.010 . S
O335 C327 1.249 . S
H336 C354 0.951 . S
H337 C356 0.951 . S
H338 C358 0.950 . S
H339 C359 0.950 . S
H340 C361 0.950 . S
H341 C364 0.950 . S
H342 C365 0.950 . S
H343 C367 0.950 . S
H344 C368 0.950 . S
H345 C369 0.951 . S
H346 C371 0.951 . S
H347 C373 0.950 . S
H348 C374 0.950 . S
H349 C376 0.950 . S
H350 C379 0.950 . S
H351 C380 0.950 . S
H352 C382 0.950 . S
H353 C383 0.950 . S
C354 H336 0.951 . S
C354 C355 1.366 . S
C354 C356 1.388 . S
C355 C354 1.366 . S
C355 C359 1.385 . S
C356 H337 0.951 . S
C356 C354 1.388 . S
C356 C357 1.366 . S
C357 C356 1.366 . S
C357 C358 1.414 . S
C357 C360 1.499 . S
C358 H338 0.950 . S
C358 C357 1.414 . S
C358 C359 1.374 . S
C359 H339 0.950 . S
C359 C355 1.385 . S
C359 C358 1.374 . S
C360 C357 1.499 . S
C360 C361 1.373 . S
C360 C362 1.389 . S
C361 H340 0.950 . S
C361 C360 1.373 . S
C361 C377 1.377 . S
C362 C360 1.389 . S
C362 C363 1.524 . S
C362 C376 1.377 . S
C363 C362 1.524 . S
C363 C364 1.397 . S
C363 C368 1.363 . S
C364 H341 0.950 . S
C364 C363 1.397 . S
C364 C365 1.334 . S
C365 H342 0.950 . S
C365 C364 1.334 . S
C365 C366 1.287 . S
C366 C365 1.287 . S
C366 C367 1.524 . S
C366 H385 0.913 . S
C367 H343 0.950 . S
C367 C366 1.524 . S
C367 C368 1.415 . S
C368 H344 0.950 . S
C368 C363 1.363 . S
C368 C367 1.415 . S
C369 H345 0.951 . S
C369 C370 1.366 . S
C369 C371 1.388 . S
C370 C369 1.366 . S
C370 C374 1.385 . S
C371 H346 0.951 . S
C371 C369 1.388 . S
C371 C372 1.366 . S
C372 C371 1.366 . S
C372 C373 1.414 . S
C372 C375 1.499 . S
C373 H347 0.950 . S
C373 C372 1.414 . S
C373 C374 1.374 . S
C374 H348 0.950 . S
C374 C370 1.385 . S
C374 C373 1.374 . S
C375 C372 1.499 . S
C375 C376 1.373 . S
C375 C377 1.389 . S
C376 H349 0.950 . S
C376 C362 1.377 . S
C376 C375 1.373 . S
C377 C361 1.377 . S
C377 C375 1.389 . S
C377 C378 1.524 . S
C378 C377 1.524 . S
C378 C379 1.397 . S
C378 C383 1.363 . S
C379 H350 0.950 . S
C379 C378 1.397 . S
C379 C380 1.334 1_455 S
C380 H351 0.950 . S
C380 C379 1.334 1_655 S
C380 C381 1.287 . S
C381 C380 1.287 . S
C381 C382 1.524 1_655 S
C381 H384 0.999 . S
C382 H352 0.950 . S
C382 C381 1.524 1_455 S
C382 C383 1.415 . S
C383 H353 0.950 . S
C383 C378 1.363 . S
C383 C382 1.415 . S
H384 C381 0.999 . S
H385 C366 0.913 . S
H386 C404 0.951 . S
H387 C406 0.951 . S
H388 C408 0.950 . S
H389 C409 0.950 . S
H390 C411 0.950 . S
H391 C414 0.950 . S
H392 C415 0.950 . S
H393 C417 0.950 . S
H394 C418 0.950 . S
H395 C419 0.951 . S
H396 C421 0.951 . S
H397 C423 0.950 . S
H398 C424 0.950 . S
H399 C426 0.950 . S
H400 C429 0.950 . S
H401 C430 0.950 . S
H402 C432 0.950 . S
H403 C433 0.950 . S
C404 H386 0.951 . S
C404 C405 1.366 . S
C404 C406 1.388 . S
C405 C404 1.366 . S
C405 C409 1.385 . S
C406 H387 0.951 . S
C406 C404 1.388 . S
C406 C407 1.366 . S
C407 C406 1.366 . S
C407 C408 1.414 . S
C407 C410 1.499 . S
C408 H388 0.950 . S
C408 C407 1.414 . S
C408 C409 1.374 . S
C409 H389 0.950 . S
C409 C405 1.385 . S
C409 C408 1.374 . S
C410 C407 1.499 . S
C410 C411 1.373 . S
C410 C412 1.389 . S
C411 H390 0.950 . S
C411 C410 1.373 . S
C411 C427 1.377 . S
C412 C410 1.389 . S
C412 C413 1.524 . S
C412 C426 1.377 . S
C413 C412 1.524 . S
C413 C414 1.397 . S
C413 C418 1.363 . S
C414 H391 0.950 . S
C414 C413 1.397 . S
C414 C415 1.334 . S
C415 H392 0.950 . S
C415 C414 1.334 . S
C415 C416 1.287 . S
C416 C415 1.287 . S
C416 C417 1.524 . S
C416 H435 0.913 . S
C417 H393 0.950 . S
C417 C416 1.524 . S
C417 C418 1.415 . S
C418 H394 0.950 . S
C418 C413 1.363 . S
C418 C417 1.415 . S
C419 H395 0.951 . S
C419 C420 1.366 . S
C419 C421 1.388 . S
C420 C419 1.366 . S
C420 C424 1.385 . S
C421 H396 0.951 . S
C421 C419 1.388 . S
C421 C422 1.366 . S
C422 C421 1.366 . S
C422 C423 1.414 . S
C422 C425 1.499 . S
C423 H397 0.950 . S
C423 C422 1.414 . S
C423 C424 1.374 . S
C424 H398 0.950 . S
C424 C420 1.385 . S
C424 C423 1.374 . S
C425 C422 1.499 . S
C425 C426 1.373 . S
C425 C427 1.389 . S
C426 H399 0.950 . S
C426 C412 1.377 . S
C426 C425 1.373 . S
C427 C411 1.377 . S
C427 C425 1.389 . S
C427 C428 1.524 . S
C428 C427 1.524 . S
C428 C429 1.397 . S
C428 C433 1.363 . S
C429 H400 0.950 . S
C429 C428 1.397 . S
C429 C430 1.334 . S
C430 H401 0.950 . S
C430 C429 1.334 . S
C430 C431 1.287 . S
C431 C430 1.287 . S
C431 C432 1.524 . S
C431 H434 0.999 . S
C432 H402 0.950 . S
C432 C431 1.524 . S
C432 C433 1.415 . S
C433 H403 0.950 . S
C433 C428 1.363 . S
C433 C432 1.415 . S
H434 C431 0.999 . S
H435 C416 0.913 . S
H436 C454 0.951 . S
H437 C456 0.951 . S
H438 C458 0.950 . S
H439 C459 0.950 . S
H440 C461 0.950 . S
H441 C464 0.950 . S
H442 C465 0.950 . S
H443 C467 0.950 . S
H444 C468 0.950 . S
H445 C469 0.951 . S
H446 C471 0.951 . S
H447 C473 0.950 . S
H448 C474 0.950 . S
H449 C476 0.950 . S
H450 C479 0.950 . S
H451 C480 0.950 . S
H452 C482 0.950 . S
H453 C483 0.950 . S
C454 H436 0.951 . S
C454 C455 1.366 . S
C454 C456 1.388 . S
C455 C454 1.366 . S
C455 C459 1.385 . S
C456 H437 0.951 . S
C456 C454 1.388 . S
C456 C457 1.366 . S
C457 C456 1.366 . S
C457 C458 1.414 . S
C457 C460 1.499 . S
C458 H438 0.950 . S
C458 C457 1.414 . S
C458 C459 1.374 . S
C459 H439 0.950 . S
C459 C455 1.385 . S
C459 C458 1.374 . S
C460 C457 1.499 . S
C460 C461 1.373 . S
C460 C462 1.389 . S
C461 H440 0.950 . S
C461 C460 1.373 . S
C461 C477 1.377 . S
C462 C460 1.389 . S
C462 C463 1.524 . S
C462 C476 1.377 . S
C463 C462 1.524 . S
C463 C464 1.397 . S
C463 C468 1.363 . S
C464 H441 0.950 . S
C464 C463 1.397 . S
C464 C465 1.334 . S
C465 H442 0.950 . S
C465 C464 1.334 . S
C465 C466 1.287 . S
C466 C465 1.287 . S
C466 C467 1.524 . S
C466 H485 0.913 . S
C467 H443 0.950 . S
C467 C466 1.524 . S
C467 C468 1.415 . S
C468 H444 0.950 . S
C468 C463 1.363 . S
C468 C467 1.415 . S
C469 H445 0.951 . S
C469 C470 1.366 . S
C469 C471 1.388 . S
C470 C469 1.366 . S
C470 C474 1.385 . S
C471 H446 0.951 . S
C471 C469 1.388 . S
C471 C472 1.366 . S
C472 C471 1.366 . S
C472 C473 1.414 . S
C472 C475 1.499 . S
C473 H447 0.950 . S
C473 C472 1.414 . S
C473 C474 1.374 . S
C474 H448 0.950 . S
C474 C470 1.385 . S
C474 C473 1.374 . S
C475 C472 1.499 . S
C475 C476 1.373 . S
C475 C477 1.389 . S
C476 H449 0.950 . S
C476 C462 1.377 . S
C476 C475 1.373 . S
C477 C461 1.377 . S
C477 C475 1.389 . S
C477 C478 1.524 . S
C478 C477 1.524 . S
C478 C479 1.397 . S
C478 C483 1.363 . S
C479 H450 0.950 . S
C479 C478 1.397 . S
C479 C480 1.334 . S
C480 H451 0.950 . S
C480 C479 1.334 . S
C480 C481 1.287 . S
C481 C480 1.287 . S
C481 C482 1.524 . S
C481 H484 0.999 . S
C482 H452 0.950 . S
C482 C481 1.524 . S
C482 C483 1.415 . S
C483 H453 0.950 . S
C483 C478 1.363 . S
C483 C482 1.415 . S
H484 C481 0.999 . S
H485 C466 0.913 . S
H486 C504 0.951 . S
H487 C506 0.951 . S
H488 C508 0.950 . S
H489 C509 0.950 . S
H490 C511 0.950 . S
H491 C514 0.950 . S
H492 C515 0.950 . S
H493 C517 0.950 . S
H494 C518 0.950 . S
H495 C519 0.951 . S
H496 C521 0.951 . S
H497 C523 0.950 . S
H498 C524 0.950 . S
H499 C526 0.950 . S
H500 C529 0.950 . S
H501 C530 0.950 . S
H502 C532 0.950 . S
H503 C533 0.950 . S
C504 H486 0.951 . S
C504 C505 1.366 . S
C504 C506 1.388 . S
C505 C504 1.366 . S
C505 C509 1.385 . S
C506 H487 0.951 . S
C506 C504 1.388 . S
C506 C507 1.366 . S
C507 C506 1.366 . S
C507 C508 1.414 . S
C507 C510 1.499 . S
C508 H488 0.950 . S
C508 C507 1.414 . S
C508 C509 1.374 . S
C509 H489 0.950 . S
C509 C505 1.385 . S
C509 C508 1.374 . S
C510 C507 1.499 . S
C510 C511 1.373 . S
C510 C512 1.389 . S
C511 H490 0.950 . S
C511 C510 1.373 . S
C511 C527 1.377 . S
C512 C510 1.389 . S
C512 C513 1.524 . S
C512 C526 1.377 . S
C513 C512 1.524 . S
C513 C514 1.397 . S
C513 C518 1.363 . S
C514 H491 0.950 . S
C514 C513 1.397 . S
C514 C515 1.334 . S
C515 H492 0.950 . S
C515 C514 1.334 . S
C515 C516 1.287 . S
C516 C515 1.287 . S
C516 C517 1.524 . S
C516 H535 0.913 . S
C517 H493 0.950 . S
C517 C516 1.524 . S
C517 C518 1.415 . S
C518 H494 0.950 . S
C518 C513 1.363 . S
C518 C517 1.415 . S
C519 H495 0.951 . S
C519 C520 1.366 . S
C519 C521 1.388 . S
C520 C519 1.366 . S
C520 C524 1.385 . S
C521 H496 0.951 . S
C521 C519 1.388 . S
C521 C522 1.366 . S
C522 C521 1.366 . S
C522 C523 1.414 . S
C522 C525 1.499 . S
C523 H497 0.950 . S
C523 C522 1.414 . S
C523 C524 1.374 . S
C524 H498 0.950 . S
C524 C520 1.385 . S
C524 C523 1.374 . S
C525 C522 1.499 . S
C525 C526 1.373 . S
C525 C527 1.389 . S
C526 H499 0.950 . S
C526 C512 1.377 . S
C526 C525 1.373 . S
C527 C511 1.377 . S
C527 C525 1.389 . S
C527 C528 1.524 . S
C528 C527 1.524 . S
C528 C529 1.397 . S
C528 C533 1.363 . S
C529 H500 0.950 . S
C529 C528 1.397 . S
C529 C530 1.334 1_554 S
C530 H501 0.950 . S
C530 C529 1.334 1_556 S
C530 C531 1.287 1_556 S
C531 C530 1.287 1_554 S
C531 C532 1.524 . S
C531 H534 0.999 1_554 S
C532 H502 0.950 . S
C532 C531 1.524 . S
C532 C533 1.415 . S
C533 H503 0.950 . S
C533 C528 1.363 . S
C533 C532 1.415 . S
H534 C531 0.999 1_556 S
H535 C516 0.913 . S
H536 C554 0.951 . S
H537 C556 0.951 . S
H538 C558 0.950 . S
H539 C559 0.950 . S
H540 C561 0.950 . S
H541 C564 0.950 . S
H542 C565 0.950 . S
H543 C567 0.950 . S
H544 C568 0.950 . S
H545 C569 0.951 . S
H546 C571 0.951 . S
H547 C573 0.950 . S
H548 C574 0.950 . S
H549 C576 0.950 . S
H550 C579 0.950 . S
H551 C580 0.950 . S
H552 C582 0.950 . S
H553 C583 0.950 . S
C554 H536 0.951 . S
C554 C555 1.366 . S
C554 C556 1.388 . S
C555 C554 1.366 . S
C555 C559 1.385 . S
C556 H537 0.951 . S
C556 C554 1.388 . S
C556 C557 1.366 . S
C557 C556 1.366 . S
C557 C558 1.414 . S
C557 C560 1.499 . S
C558 H538 0.950 . S
C558 C557 1.414 . S
C558 C559 1.374 . S
C559 H539 0.950 . S
C559 C555 1.385 . S
C559 C558 1.374 . S
C560 C557 1.499 . S
C560 C561 1.373 . S
C560 C562 1.389 . S
C561 H540 0.950 . S
C561 C560 1.373 . S
C561 C577 1.377 . S
C562 C560 1.389 . S
C562 C563 1.524 . S
C562 C576 1.377 . S
C563 C562 1.524 . S
C563 C564 1.397 . S
C563 C568 1.363 . S
C564 H541 0.950 . S
C564 C563 1.397 . S
C564 C565 1.334 . S
C565 H542 0.950 . S
C565 C564 1.334 . S
C565 C566 1.287 . S
C566 C565 1.287 . S
C566 C567 1.524 . S
C566 H585 0.913 . S
C567 H543 0.950 . S
C567 C566 1.524 . S
C567 C568 1.415 . S
C568 H544 0.950 . S
C568 C563 1.363 . S
C568 C567 1.415 . S
C569 H545 0.951 . S
C569 C570 1.366 . S
C569 C571 1.388 . S
C570 C569 1.366 . S
C570 C574 1.385 . S
C571 H546 0.951 . S
C571 C569 1.388 . S
C571 C572 1.366 . S
C572 C571 1.366 . S
C572 C573 1.414 . S
C572 C575 1.499 . S
C573 H547 0.950 . S
C573 C572 1.414 . S
C573 C574 1.374 . S
C574 H548 0.950 . S
C574 C570 1.385 . S
C574 C573 1.374 . S
C575 C572 1.499 . S
C575 C576 1.373 . S
C575 C577 1.389 . S
C576 H549 0.950 . S
C576 C562 1.377 . S
C576 C575 1.373 . S
C577 C561 1.377 . S
C577 C575 1.389 . S
C577 C578 1.524 . S
C578 C577 1.524 . S
C578 C579 1.397 . S
C578 C583 1.363 . S
C579 H550 0.950 . S
C579 C578 1.397 . S
C579 C580 1.334 . S
C580 H551 0.950 . S
C580 C579 1.334 . S
C580 C581 1.287 . S
C581 C580 1.287 . S
C581 C582 1.524 . S
C581 H584 0.999 . S
C582 H552 0.950 . S
C582 C581 1.524 . S
C582 C583 1.415 . S
C583 H553 0.950 . S
C583 C578 1.363 . S
C583 C582 1.415 . S
H584 C581 0.999 . S
H585 C566 0.913 . S
H586 C604 0.951 . S
H587 C606 0.951 . S
H588 C608 0.950 . S
H589 C609 0.950 . S
H590 C611 0.950 . S
H591 C614 0.950 . S
H592 C615 0.950 . S
H593 C617 0.950 . S
H594 C618 0.950 . S
H595 C619 0.951 . S
H596 C621 0.951 . S
H597 C623 0.950 . S
H598 C624 0.950 . S
H599 C626 0.950 . S
H600 C629 0.950 . S
H601 C630 0.950 . S
H602 C632 0.950 . S
H603 C633 0.950 . S
C604 H586 0.951 . S
C604 C605 1.366 . S
C604 C606 1.388 . S
C605 C604 1.366 . S
C605 C609 1.385 . S
C606 H587 0.951 . S
C606 C604 1.388 . S
C606 C607 1.366 . S
C607 C606 1.366 . S
C607 C608 1.414 . S
C607 C610 1.499 . S
C608 H588 0.950 . S
C608 C607 1.414 . S
C608 C609 1.374 . S
C609 H589 0.950 . S
C609 C605 1.385 . S
C609 C608 1.374 . S
C610 C607 1.499 . S
C610 C611 1.373 . S
C610 C612 1.389 . S
C611 H590 0.950 . S
C611 C610 1.373 . S
C611 C627 1.377 . S
C612 C610 1.389 . S
C612 C613 1.524 . S
C612 C626 1.377 . S
C613 C612 1.524 . S
C613 C614 1.397 . S
C613 C618 1.363 . S
C614 H591 0.950 . S
C614 C613 1.397 . S
C614 C615 1.334 . S
C615 H592 0.950 . S
C615 C614 1.334 . S
C615 C616 1.287 . S
C616 C615 1.287 . S
C616 C617 1.524 . S
C616 H635 0.913 . S
C617 H593 0.950 . S
C617 C616 1.524 . S
C617 C618 1.415 . S
C618 H594 0.950 . S
C618 C613 1.363 . S
C618 C617 1.415 . S
C619 H595 0.951 . S
C619 C620 1.366 . S
C619 C621 1.388 . S
C620 C619 1.366 . S
C620 C624 1.385 . S
C621 H596 0.951 . S
C621 C619 1.388 . S
C621 C622 1.366 . S
C622 C621 1.366 . S
C622 C623 1.414 . S
C622 C625 1.499 . S
C623 H597 0.950 . S
C623 C622 1.414 . S
C623 C624 1.374 . S
C624 H598 0.950 . S
C624 C620 1.385 . S
C624 C623 1.374 . S
C625 C622 1.499 . S
C625 C626 1.373 . S
C625 C627 1.389 . S
C626 H599 0.950 . S
C626 C612 1.377 . S
C626 C625 1.373 . S
C627 C611 1.377 . S
C627 C625 1.389 . S
C627 C628 1.524 . S
C628 C627 1.524 . S
C628 C629 1.397 . S
C628 C633 1.363 . S
C629 H600 0.950 . S
C629 C628 1.397 . S
C629 C630 1.334 . S
C630 H601 0.950 . S
C630 C629 1.334 . S
C630 C631 1.287 . S
C631 C630 1.287 . S
C631 C632 1.524 . S
C631 H634 0.999 . S
C632 H602 0.950 . S
C632 C631 1.524 . S
C632 C633 1.415 . S
C633 H603 0.950 . S
C633 C628 1.363 . S
C633 C632 1.415 . S
H634 C631 0.999 . S
H635 C616 0.913 . S
H636 C654 0.951 . S
H637 C656 0.951 . S
H638 C658 0.950 . S
H639 C659 0.950 . S
H640 C661 0.950 . S
H641 C664 0.950 . S
H642 C665 0.950 . S
H643 C667 0.950 . S
H644 C668 0.950 . S
H645 C669 0.951 . S
H646 C671 0.951 . S
H647 C673 0.950 . S
H648 C674 0.950 . S
H649 C676 0.950 . S
H650 C679 0.950 . S
H651 C680 0.950 . S
H652 C682 0.950 . S
H653 C683 0.950 . S
C654 H636 0.951 . S
C654 C655 1.366 . S
C654 C656 1.388 . S
C655 C654 1.366 . S
C655 C659 1.385 . S
C656 H637 0.951 . S
C656 C654 1.388 . S
C656 C657 1.366 . S
C657 C656 1.366 . S
C657 C658 1.414 . S
C657 C660 1.499 . S
C658 H638 0.950 . S
C658 C657 1.414 . S
C658 C659 1.374 . S
C659 H639 0.950 . S
C659 C655 1.385 . S
C659 C658 1.374 . S
C660 C657 1.499 . S
C660 C661 1.373 . S
C660 C662 1.389 . S
C661 H640 0.950 . S
C661 C660 1.373 . S
C661 C677 1.377 . S
C662 C660 1.389 . S
C662 C663 1.524 . S
C662 C676 1.377 . S
C663 C662 1.524 . S
C663 C664 1.397 . S
C663 C668 1.363 . S
C664 H641 0.950 . S
C664 C663 1.397 . S
C664 C665 1.334 . S
C665 H642 0.950 . S
C665 C664 1.334 . S
C665 C666 1.287 . S
C666 C665 1.287 . S
C666 C667 1.524 . S
C666 H685 0.913 . S
C667 H643 0.950 . S
C667 C666 1.524 . S
C667 C668 1.415 . S
C668 H644 0.950 . S
C668 C663 1.363 . S
C668 C667 1.415 . S
C669 H645 0.951 . S
C669 C670 1.366 . S
C669 C671 1.388 . S
C670 C669 1.366 . S
C670 C674 1.385 . S
C671 H646 0.951 . S
C671 C669 1.388 . S
C671 C672 1.366 . S
C672 C671 1.366 . S
C672 C673 1.414 . S
C672 C675 1.499 . S
C673 H647 0.950 . S
C673 C672 1.414 . S
C673 C674 1.374 . S
C674 H648 0.950 . S
C674 C670 1.385 . S
C674 C673 1.374 . S
C675 C672 1.499 . S
C675 C676 1.373 . S
C675 C677 1.389 . S
C676 H649 0.950 . S
C676 C662 1.377 . S
C676 C675 1.373 . S
C677 C661 1.377 . S
C677 C675 1.389 . S
C677 C678 1.524 . S
C678 C677 1.524 . S
C678 C679 1.397 . S
C678 C683 1.363 . S
C679 H650 0.950 . S
C679 C678 1.397 . S
C679 C680 1.334 . S
C680 H651 0.950 . S
C680 C679 1.334 . S
C680 C681 1.287 . S
C681 C680 1.287 . S
C681 C682 1.524 . S
C681 H684 0.999 . S
C682 H652 0.950 . S
C682 C681 1.524 . S
C682 C683 1.415 . S
C683 H653 0.950 . S
C683 C678 1.363 . S
C683 C682 1.415 . S
H684 C681 0.999 . S
H685 C666 0.913 . S
H686 C704 0.951 . S
H687 C706 0.951 . S
H688 C708 0.950 . S
H689 C709 0.950 . S
H690 C711 0.950 . S
H691 C714 0.950 . S
H692 C715 0.950 . S
H693 C717 0.950 . S
H694 C718 0.950 . S
H695 C719 0.951 . S
H696 C721 0.951 . S
H697 C723 0.950 . S
H698 C724 0.950 1_554 S
H699 C726 0.950 . S
H700 C729 0.950 . S
H701 C730 0.950 . S
H702 C732 0.950 . S
H703 C733 0.950 . S
C704 H686 0.951 . S
C704 C705 1.366 . S
C704 C706 1.388 . S
C705 C704 1.366 . S
C705 C709 1.385 . S
C706 H687 0.951 . S
C706 C704 1.388 . S
C706 C707 1.366 . S
C707 C706 1.366 . S
C707 C708 1.414 . S
C707 C710 1.499 . S
C708 H688 0.950 . S
C708 C707 1.414 . S
C708 C709 1.374 . S
C709 H689 0.950 . S
C709 C705 1.385 . S
C709 C708 1.374 . S
C710 C707 1.499 . S
C710 C711 1.373 . S
C710 C712 1.389 . S
C711 H690 0.950 . S
C711 C710 1.373 . S
C711 C727 1.377 . S
C712 C710 1.389 . S
C712 C713 1.524 . S
C712 C726 1.377 . S
C713 C712 1.524 . S
C713 C714 1.397 . S
C713 C718 1.363 . S
C714 H691 0.950 . S
C714 C713 1.397 . S
C714 C715 1.334 . S
C715 H692 0.950 . S
C715 C714 1.334 . S
C715 C716 1.287 . S
C716 C715 1.287 . S
C716 C717 1.524 . S
C716 H735 0.913 . S
C717 H693 0.950 . S
C717 C716 1.524 . S
C717 C718 1.415 . S
C718 H694 0.950 . S
C718 C713 1.363 . S
C718 C717 1.415 . S
C719 H695 0.951 . S
C719 C720 1.366 . S
C719 C721 1.388 . S
C720 C719 1.366 . S
C720 C724 1.385 . S
C721 H696 0.951 . S
C721 C719 1.388 . S
C721 C722 1.366 . S
C722 C721 1.366 . S
C722 C723 1.414 . S
C722 C725 1.499 . S
C723 H697 0.950 . S
C723 C722 1.414 . S
C723 C724 1.374 . S
C724 H698 0.950 1_556 S
C724 C720 1.385 . S
C724 C723 1.374 . S
C725 C722 1.499 . S
C725 C726 1.373 . S
C725 C727 1.389 . S
C726 H699 0.950 . S
C726 C712 1.377 . S
C726 C725 1.373 . S
C727 C711 1.377 . S
C727 C725 1.389 . S
C727 C728 1.524 . S
C728 C727 1.524 . S
C728 C729 1.397 . S
C728 C733 1.363 . S
C729 H700 0.950 . S
C729 C728 1.397 . S
C729 C730 1.334 . S
C730 H701 0.950 . S
C730 C729 1.334 . S
C730 C731 1.287 . S
C731 C730 1.287 . S
C731 C732 1.524 . S
C731 H734 0.999 . S
C732 H702 0.950 . S
C732 C731 1.524 . S
C732 C733 1.415 . S
C733 H703 0.950 . S
C733 C728 1.363 . S
C733 C732 1.415 . S
H734 C731 0.999 . S
H735 C716 0.913 . S
H736 C754 0.951 . S
H737 C756 0.951 . S
H738 C758 0.950 . S
H739 C759 0.950 . S
H740 C761 0.950 . S
H741 C764 0.950 . S
H742 C765 0.950 . S
H743 C767 0.950 . S
H744 C768 0.950 . S
H745 C769 0.951 . S
H746 C771 0.951 . S
H747 C773 0.950 . S
H748 C774 0.950 1_565 S
H749 C776 0.950 . S
H750 C779 0.950 . S
H751 C780 0.950 . S
H752 C782 0.950 . S
H753 C783 0.950 . S
C754 H736 0.951 . S
C754 C755 1.366 . S
C754 C756 1.388 . S
C755 C754 1.366 . S
C755 C759 1.385 . S
C756 H737 0.951 . S
C756 C754 1.388 . S
C756 C757 1.366 . S
C757 C756 1.366 . S
C757 C758 1.414 . S
C757 C760 1.499 . S
C758 H738 0.950 . S
C758 C757 1.414 . S
C758 C759 1.374 . S
C759 H739 0.950 . S
C759 C755 1.385 . S
C759 C758 1.374 . S
C760 C757 1.499 . S
C760 C761 1.373 . S
C760 C762 1.389 . S
C761 H740 0.950 . S
C761 C760 1.373 . S
C761 C777 1.377 . S
C762 C760 1.389 . S
C762 C763 1.524 . S
C762 C776 1.377 . S
C763 C762 1.524 . S
C763 C764 1.397 . S
C763 C768 1.363 . S
C764 H741 0.950 . S
C764 C763 1.397 . S
C764 C765 1.334 . S
C765 H742 0.950 . S
C765 C764 1.334 . S
C765 C766 1.287 . S
C766 C765 1.287 . S
C766 C767 1.524 . S
C766 H785 0.913 . S
C767 H743 0.950 . S
C767 C766 1.524 . S
C767 C768 1.415 . S
C768 H744 0.950 . S
C768 C763 1.363 . S
C768 C767 1.415 . S
C769 H745 0.951 . S
C769 C770 1.366 . S
C769 C771 1.388 . S
C770 C769 1.366 . S
C770 C774 1.385 . S
C771 H746 0.951 . S
C771 C769 1.388 . S
C771 C772 1.366 . S
C772 C771 1.366 . S
C772 C773 1.414 . S
C772 C775 1.499 . S
C773 H747 0.950 . S
C773 C772 1.414 . S
C773 C774 1.374 . S
C774 H748 0.950 1_545 S
C774 C770 1.385 . S
C774 C773 1.374 . S
C775 C772 1.499 . S
C775 C776 1.373 . S
C775 C777 1.389 . S
C776 H749 0.950 . S
C776 C762 1.377 . S
C776 C775 1.373 . S
C777 C761 1.377 . S
C777 C775 1.389 . S
C777 C778 1.524 . S
C778 C777 1.524 . S
C778 C779 1.397 . S
C778 C783 1.363 . S
C779 H750 0.950 . S
C779 C778 1.397 . S
C779 C780 1.334 . S
C780 H751 0.950 . S
C780 C779 1.334 . S
C780 C781 1.287 . S
C781 C780 1.287 . S
C781 C782 1.524 . S
C781 H784 0.999 . S
C782 H752 0.950 . S
C782 C781 1.524 . S
C782 C783 1.415 . S
C783 H753 0.950 . S
C783 C778 1.363 . S
C783 C782 1.415 . S
H784 C781 0.999 . S
H785 C766 0.913 . S
H786 C804 0.951 . S
H787 C806 0.951 . S
H788 C808 0.950 . S
H789 C809 0.950 . S
H790 C811 0.950 . S
H791 C814 0.950 . S
H792 C815 0.950 . S
H793 C817 0.950 . S
H794 C818 0.950 . S
H795 C819 0.951 . S
H796 C821 0.951 . S
H797 C823 0.950 . S
H798 C824 0.950 . S
H799 C826 0.950 . S
H800 C829 0.950 . S
H801 C830 0.950 . S
H802 C832 0.950 . S
H803 C833 0.950 . S
C804 H786 0.951 . S
C804 C805 1.366 . S
C804 C806 1.388 . S
C805 C804 1.366 . S
C805 C809 1.385 . S
C806 H787 0.951 . S
C806 C804 1.388 . S
C806 C807 1.366 . S
C807 C806 1.366 . S
C807 C808 1.414 . S
C807 C810 1.499 . S
C808 H788 0.950 . S
C808 C807 1.414 . S
C808 C809 1.374 . S
C809 H789 0.950 . S
C809 C805 1.385 . S
C809 C808 1.374 . S
C810 C807 1.499 . S
C810 C811 1.373 . S
C810 C812 1.389 . S
C811 H790 0.950 . S
C811 C810 1.373 . S
C811 C827 1.377 . S
C812 C810 1.389 . S
C812 C813 1.524 . S
C812 C826 1.377 . S
C813 C812 1.524 . S
C813 C814 1.397 . S
C813 C818 1.363 . S
C814 H791 0.950 . S
C814 C813 1.397 . S
C814 C815 1.334 1_545 S
C815 H792 0.950 . S
C815 C814 1.334 1_565 S
C815 C816 1.284 . S
C816 C815 1.284 . S
C816 C817 1.530 1_565 S
C816 H835 0.910 . S
C817 H793 0.950 . S
C817 C816 1.530 1_545 S
C817 C818 1.415 . S
C818 H794 0.950 . S
C818 C813 1.363 . S
C818 C817 1.415 . S
C819 H795 0.951 . S
C819 C820 1.366 . S
C819 C821 1.388 . S
C820 C819 1.366 . S
C820 C824 1.385 . S
C821 H796 0.951 . S
C821 C819 1.388 . S
C821 C822 1.366 . S
C822 C821 1.366 . S
C822 C823 1.414 . S
C822 C825 1.499 . S
C823 H797 0.950 . S
C823 C822 1.414 . S
C823 C824 1.374 . S
C824 H798 0.950 . S
C824 C820 1.385 . S
C824 C823 1.374 . S
C825 C822 1.499 . S
C825 C826 1.373 . S
C825 C827 1.389 . S
C826 H799 0.950 . S
C826 C812 1.377 . S
C826 C825 1.373 . S
C827 C811 1.377 . S
C827 C825 1.389 . S
C827 C828 1.524 . S
C828 C827 1.524 . S
C828 C829 1.397 . S
C828 C833 1.363 . S
C829 H800 0.950 . S
C829 C828 1.397 . S
C829 C830 1.334 . S
C830 H801 0.950 . S
C830 C829 1.334 . S
C830 C831 1.287 . S
C831 C830 1.287 . S
C831 C832 1.524 . S
C831 H834 0.999 . S
C832 H802 0.950 . S
C832 C831 1.524 . S
C832 C833 1.415 . S
C833 H803 0.950 . S
C833 C828 1.363 . S
C833 C832 1.415 . S
H834 C831 0.999 . S
H835 C816 0.910 . S
H836 C854 0.951 . S
H837 C856 0.951 . S
H838 C858 0.950 . S
H839 C859 0.950 . S
H840 C861 0.950 . S
H841 C864 0.950 . S
H842 C865 0.950 . S
H843 C867 0.950 . S
H844 C868 0.950 . S
H845 C869 0.951 . S
H846 C871 0.951 . S
H847 C873 0.950 . S
H848 C874 0.950 . S
H849 C876 0.950 . S
H850 C879 0.950 . S
H851 C880 0.950 . S
H852 C882 0.950 . S
H853 C883 0.950 . S
C854 H836 0.951 . S
C854 C855 1.366 . S
C854 C856 1.388 . S
C855 C854 1.366 . S
C855 C859 1.385 . S
C856 H837 0.951 . S
C856 C854 1.388 . S
C856 C857 1.366 . S
C857 C856 1.366 . S
C857 C858 1.414 . S
C857 C860 1.499 . S
C858 H838 0.950 . S
C858 C857 1.414 . S
C858 C859 1.374 . S
C859 H839 0.950 . S
C859 C855 1.385 . S
C859 C858 1.374 . S
C860 C857 1.499 . S
C860 C861 1.373 . S
C860 C862 1.389 . S
C861 H840 0.950 . S
C861 C860 1.373 . S
C861 C877 1.377 . S
C862 C860 1.389 . S
C862 C863 1.524 . S
C862 C876 1.377 . S
C863 C862 1.524 . S
C863 C864 1.397 . S
C863 C868 1.363 . S
C864 H841 0.950 . S
C864 C863 1.397 . S
C864 C865 1.334 1_565 S
C865 H842 0.950 . S
C865 C864 1.334 1_545 S
C865 C866 1.287 . S
C866 C865 1.287 . S
C866 C867 1.524 1_545 S
C866 H885 0.913 . S
C867 H843 0.950 . S
C867 C866 1.524 1_565 S
C867 C868 1.415 . S
C868 H844 0.950 . S
C868 C863 1.363 . S
C868 C867 1.415 . S
C869 H845 0.951 . S
C869 C870 1.366 . S
C869 C871 1.388 . S
C870 C869 1.366 . S
C870 C874 1.385 . S
C871 H846 0.951 . S
C871 C869 1.388 . S
C871 C872 1.366 . S
C872 C871 1.366 . S
C872 C873 1.414 . S
C872 C875 1.499 . S
C873 H847 0.950 . S
C873 C872 1.414 . S
C873 C874 1.374 . S
C874 H848 0.950 . S
C874 C870 1.385 . S
C874 C873 1.374 . S
C875 C872 1.499 . S
C875 C876 1.373 . S
C875 C877 1.389 . S
C876 H849 0.950 . S
C876 C862 1.377 . S
C876 C875 1.373 . S
C877 C861 1.377 . S
C877 C875 1.389 . S
C877 C878 1.524 . S
C878 C877 1.524 . S
C878 C879 1.397 . S
C878 C883 1.363 . S
C879 H850 0.950 . S
C879 C878 1.397 . S
C879 C880 1.334 . S
C880 H851 0.950 . S
C880 C879 1.334 . S
C880 C881 1.287 . S
C881 C880 1.287 . S
C881 C882 1.524 . S
C881 H884 0.999 . S
C882 H852 0.950 . S
C882 C881 1.524 . S
C882 C883 1.415 . S
C883 H853 0.950 . S
C883 C878 1.363 . S
C883 C882 1.415 . S
H884 C881 0.999 . S
H885 C866 0.913 . S
H886 C904 0.951 . S
H887 C906 0.951 . S
H888 C908 0.950 . S
H889 C909 0.950 . S
H890 C911 0.950 . S
H891 C914 0.950 . S
H892 C915 0.950 . S
H893 C917 0.950 . S
H894 C918 0.950 . S
H895 C919 0.951 1_545 S
H896 C921 0.951 . S
H897 C923 0.950 . S
H898 C924 0.950 . S
H899 C926 0.950 . S
H900 C929 0.950 . S
H901 C930 0.950 . S
H902 C932 0.950 . S
H903 C933 0.950 . S
C904 H886 0.951 . S
C904 C905 1.366 . S
C904 C906 1.388 . S
C905 C904 1.366 . S
C905 C909 1.385 . S
C906 H887 0.951 . S
C906 C904 1.388 . S
C906 C907 1.366 . S
C907 C906 1.366 . S
C907 C908 1.414 . S
C907 C910 1.499 . S
C908 H888 0.950 . S
C908 C907 1.414 . S
C908 C909 1.374 . S
C909 H889 0.950 . S
C909 C905 1.385 . S
C909 C908 1.374 . S
C910 C907 1.499 . S
C910 C911 1.373 . S
C910 C912 1.389 . S
C911 H890 0.950 . S
C911 C910 1.373 . S
C911 C927 1.377 . S
C912 C910 1.389 . S
C912 C913 1.524 . S
C912 C926 1.377 . S
C913 C912 1.524 . S
C913 C914 1.397 . S
C913 C918 1.363 . S
C914 H891 0.950 . S
C914 C913 1.397 . S
C914 C915 1.334 . S
C915 H892 0.950 . S
C915 C914 1.334 . S
C915 C916 1.287 . S
C916 C915 1.287 . S
C916 C917 1.524 . S
C916 H935 0.913 . S
C917 H893 0.950 . S
C917 C916 1.524 . S
C917 C918 1.415 . S
C918 H894 0.950 . S
C918 C913 1.363 . S
C918 C917 1.415 . S
C919 H895 0.951 1_565 S
C919 C920 1.366 . S
C919 C921 1.388 . S
C920 C919 1.366 . S
C920 C924 1.385 . S
C921 H896 0.951 . S
C921 C919 1.388 . S
C921 C922 1.366 . S
C922 C921 1.366 . S
C922 C923 1.414 . S
C922 C925 1.499 . S
C923 H897 0.950 . S
C923 C922 1.414 . S
C923 C924 1.374 . S
C924 H898 0.950 . S
C924 C920 1.385 . S
C924 C923 1.374 . S
C925 C922 1.499 . S
C925 C926 1.373 . S
C925 C927 1.389 . S
C926 H899 0.950 . S
C926 C912 1.377 . S
C926 C925 1.373 . S
C927 C911 1.377 . S
C927 C925 1.389 . S
C927 C928 1.524 . S
C928 C927 1.524 . S
C928 C929 1.397 . S
C928 C933 1.363 . S
C929 H900 0.950 . S
C929 C928 1.397 . S
C929 C930 1.334 . S
C930 H901 0.950 . S
C930 C929 1.334 . S
C930 C931 1.287 . S
C931 C930 1.287 . S
C931 C932 1.524 . S
C931 H934 0.999 . S
C932 H902 0.950 . S
C932 C931 1.524 . S
C932 C933 1.415 . S
C933 H903 0.950 . S
C933 C928 1.363 . S
C933 C932 1.415 . S
H934 C931 0.999 . S
H935 C916 0.913 . S
H936 C954 0.951 . S
H937 C956 0.951 . S
H938 C958 0.950 . S
H939 C959 0.950 . S
H940 C961 0.950 . S
H941 C964 0.950 . S
H942 C965 0.950 . S
H943 C967 0.950 . S
H944 C968 0.965 . S
H945 C969 0.951 . S
H946 C971 0.951 . S
H947 C973 0.950 . S
H948 C974 0.950 . S
H949 C976 0.950 . S
H950 C979 0.950 . S
H951 C980 0.950 . S
H952 C982 0.950 . S
H953 C983 0.950 . S
C954 H936 0.951 . S
C954 C955 1.366 . S
C954 C956 1.388 . S
C955 C954 1.366 . S
C955 C959 1.385 . S
C956 H937 0.951 . S
C956 C954 1.388 . S
C956 C957 1.366 . S
C957 C956 1.366 . S
C957 C958 1.414 . S
C957 C960 1.499 . S
C958 H938 0.950 . S
C958 C957 1.414 . S
C958 C959 1.374 . S
C959 H939 0.950 . S
C959 C955 1.385 . S
C959 C958 1.374 . S
C960 C957 1.499 . S
C960 C961 1.373 . S
C960 C962 1.389 . S
C961 H940 0.950 . S
C961 C960 1.373 . S
C961 C977 1.377 . S
C962 C960 1.389 . S
C962 C963 1.524 . S
C962 C976 1.377 . S
C963 C962 1.524 . S
C963 C964 1.397 . S
C963 C968 1.388 . S
C964 H941 0.950 . S
C964 C963 1.397 . S
C964 C965 1.334 1_554 S
C965 H942 0.950 . S
C965 C964 1.334 1_556 S
C965 C966 1.287 . S
C966 C965 1.287 . S
C966 C967 1.524 . S
C966 H985 0.913 . S
C967 H943 0.950 . S
C967 C966 1.524 . S
C967 C968 1.376 1_556 S
C968 H944 0.965 . S
C968 C963 1.388 . S
C968 C967 1.376 1_554 S
C969 H945 0.951 . S
C969 C970 1.366 . S
C969 C971 1.388 . S
C970 C969 1.366 . S
C970 C974 1.385 . S
C971 H946 0.951 . S
C971 C969 1.388 . S
C971 C972 1.366 . S
C972 C971 1.366 . S
C972 C973 1.414 . S
C972 C975 1.499 . S
C973 H947 0.950 . S
C973 C972 1.414 . S
C973 C974 1.374 . S
C974 H948 0.950 . S
C974 C970 1.385 . S
C974 C973 1.374 . S
C975 C972 1.499 . S
C975 C976 1.373 . S
C975 C977 1.389 . S
C976 H949 0.950 . S
C976 C962 1.377 . S
C976 C975 1.373 . S
C977 C961 1.377 . S
C977 C975 1.389 . S
C977 C978 1.524 . S
C978 C977 1.524 . S
C978 C979 1.397 . S
C978 C983 1.363 . S
C979 H950 0.950 . S
C979 C978 1.397 . S
C979 C980 1.334 . S
C980 H951 0.950 . S
C980 C979 1.334 . S
C980 C981 1.287 . S
C981 C980 1.287 . S
C981 C982 1.524 . S
C981 H984 0.999 . S
C982 H952 0.950 . S
C982 C981 1.524 . S
C982 C983 1.415 . S
C983 H953 0.950 . S
C983 C978 1.363 . S
C983 C982 1.415 . S
H984 C981 0.999 . S
H985 C966 0.913 . S
H986 C1004 0.951 1_455 S
H987 C1006 0.951 . S
H988 C1008 0.950 . S
H989 C1009 0.950 . S
H990 C1011 0.950 . S
H991 C1014 0.950 . S
H992 C1015 0.950 . S
H993 C1017 0.950 1_455 S
H994 C1018 0.950 . S
H995 C1019 0.951 . S
H996 C1021 0.951 . S
H997 C1023 0.950 . S
H998 C1024 0.950 . S
H999 C1026 0.950 . S
H1000 C1029 0.950 . S
H1001 C1030 0.950 . S
H1002 C1032 0.950 . S
H1003 C1033 0.950 . S
C1004 H986 0.951 1_655 S
C1004 C1005 1.366 . S
C1004 C1006 1.388 . S
C1005 C1004 1.366 . S
C1005 C1009 1.385 . S
C1006 H987 0.951 . S
C1006 C1004 1.388 . S
C1006 C1007 1.366 . S
C1007 C1006 1.366 . S
C1007 C1008 1.414 . S
C1007 C1010 1.499 . S
C1008 H988 0.950 . S
C1008 C1007 1.414 . S
C1008 C1009 1.374 . S
C1009 H989 0.950 . S
C1009 C1005 1.385 . S
C1009 C1008 1.374 . S
C1010 C1007 1.499 . S
C1010 C1011 1.373 . S
C1010 C1012 1.389 . S
C1011 H990 0.950 . S
C1011 C1010 1.373 . S
C1011 C1027 1.377 . S
C1012 C1010 1.389 . S
C1012 C1013 1.524 . S
C1012 C1026 1.377 . S
C1013 C1012 1.524 . S
C1013 C1014 1.397 . S
C1013 C1018 1.363 . S
C1014 H991 0.950 . S
C1014 C1013 1.397 . S
C1014 C1015 1.334 . S
C1015 H992 0.950 . S
C1015 C1014 1.334 . S
C1015 C1016 1.287 . S
C1016 C1015 1.287 . S
C1016 C1017 1.524 . S
C1016 H1035 0.913 . S
C1017 H993 0.950 1_655 S
C1017 C1016 1.524 . S
C1017 C1018 1.415 . S
C1018 H994 0.950 . S
C1018 C1013 1.363 . S
C1018 C1017 1.415 . S
C1019 H995 0.951 . S
C1019 C1020 1.366 . S
C1019 C1021 1.388 . S
C1020 C1019 1.366 . S
C1020 C1024 1.385 . S
C1021 H996 0.951 . S
C1021 C1019 1.388 . S
C1021 C1022 1.366 . S
C1022 C1021 1.366 . S
C1022 C1023 1.414 . S
C1022 C1025 1.499 . S
C1023 H997 0.950 . S
C1023 C1022 1.414 . S
C1023 C1024 1.374 . S
C1024 H998 0.950 . S
C1024 C1020 1.385 . S
C1024 C1023 1.374 . S
C1025 C1022 1.499 . S
C1025 C1026 1.373 . S
C1025 C1027 1.389 . S
C1026 H999 0.950 . S
C1026 C1012 1.377 . S
C1026 C1025 1.373 . S
C1027 C1011 1.377 . S
C1027 C1025 1.389 . S
C1027 C1028 1.524 . S
C1028 C1027 1.524 . S
C1028 C1029 1.397 . S
C1028 C1033 1.363 . S
C1029 H1000 0.950 . S
C1029 C1028 1.397 . S
C1029 C1030 1.334 . S
C1030 H1001 0.950 . S
C1030 C1029 1.334 . S
C1030 C1031 1.287 . S
C1031 C1030 1.287 . S
C1031 C1032 1.524 . S
C1031 H1034 0.999 . S
C1032 H1002 0.950 . S
C1032 C1031 1.524 . S
C1032 C1033 1.415 . S
C1033 H1003 0.950 . S
C1033 C1028 1.363 . S
C1033 C1032 1.415 . S
H1034 C1031 0.999 . S
H1035 C1016 0.913 . S
H1036 C1054 0.951 . S
H1037 C1056 0.951 . S
H1038 C1058 0.950 . S
H1039 C1059 0.950 . S
H1040 C1061 0.950 . S
H1041 C1064 0.950 . S
H1042 C1065 0.950 . S
H1043 C1067 0.950 . S
H1044 C1068 0.950 . S
H1045 C1069 0.951 . S
H1046 C1071 0.951 . S
H1047 C1073 0.950 . S
H1048 C1074 0.950 . S
H1049 C1076 0.950 . S
H1050 C1079 0.950 . S
H1051 C1080 0.950 . S
H1052 C1082 0.950 . S
H1053 C1083 0.950 . S
C1054 H1036 0.951 . S
C1054 C1055 1.366 . S
C1054 C1056 1.388 . S
C1055 C1054 1.366 . S
C1055 C1059 1.385 . S
C1056 H1037 0.951 . S
C1056 C1054 1.388 . S
C1056 C1057 1.366 . S
C1057 C1056 1.366 . S
C1057 C1058 1.414 . S
C1057 C1060 1.499 . S
C1058 H1038 0.950 . S
C1058 C1057 1.414 . S
C1058 C1059 1.374 . S
C1059 H1039 0.950 . S
C1059 C1055 1.385 . S
C1059 C1058 1.374 . S
C1060 C1057 1.499 . S
C1060 C1061 1.373 . S
C1060 C1062 1.389 . S
C1061 H1040 0.950 . S
C1061 C1060 1.373 . S
C1061 C1077 1.377 . S
C1062 C1060 1.389 . S
C1062 C1063 1.524 . S
C1062 C1076 1.377 . S
C1063 C1062 1.524 . S
C1063 C1064 1.397 . S
C1063 C1068 1.363 . S
C1064 H1041 0.950 . S
C1064 C1063 1.397 . S
C1064 C1065 1.334 . S
C1065 H1042 0.950 . S
C1065 C1064 1.334 . S
C1065 C1066 1.287 . S
C1066 C1065 1.287 . S
C1066 C1067 1.524 . S
C1066 H1085 0.913 . S
C1067 H1043 0.950 . S
C1067 C1066 1.524 . S
C1067 C1068 1.415 . S
C1068 H1044 0.950 . S
C1068 C1063 1.363 . S
C1068 C1067 1.415 . S
C1069 H1045 0.951 . S
C1069 C1070 1.366 . S
C1069 C1071 1.388 . S
C1070 C1069 1.366 . S
C1070 C1074 1.385 . S
C1071 H1046 0.951 . S
C1071 C1069 1.388 . S
C1071 C1072 1.366 . S
C1072 C1071 1.366 . S
C1072 C1073 1.414 . S
C1072 C1075 1.499 . S
C1073 H1047 0.950 . S
C1073 C1072 1.414 . S
C1073 C1074 1.374 . S
C1074 H1048 0.950 . S
C1074 C1070 1.385 . S
C1074 C1073 1.374 . S
C1075 C1072 1.499 . S
C1075 C1076 1.373 . S
C1075 C1077 1.389 . S
C1076 H1049 0.950 . S
C1076 C1062 1.377 . S
C1076 C1075 1.373 . S
C1077 C1061 1.377 . S
C1077 C1075 1.389 . S
C1077 C1078 1.524 . S
C1078 C1077 1.524 . S
C1078 C1079 1.397 . S
C1078 C1083 1.363 . S
C1079 H1050 0.950 . S
C1079 C1078 1.397 . S
C1079 C1080 1.334 . S
C1080 H1051 0.950 . S
C1080 C1079 1.334 . S
C1080 C1081 1.287 . S
C1081 C1080 1.287 . S
C1081 C1082 1.524 . S
C1081 H1084 0.999 . S
C1082 H1052 0.950 . S
C1082 C1081 1.524 . S
C1082 C1083 1.415 . S
C1083 H1053 0.950 . S
C1083 C1078 1.363 . S
C1083 C1082 1.415 . S
H1084 C1081 0.999 . S
H1085 C1066 0.913 . S
H1086 C1104 0.951 . S
H1087 C1106 0.951 . S
H1088 C1108 0.950 . S
H1089 C1109 0.950 1_455 S
H1090 C1111 0.950 . S
H1091 C1114 0.950 . S
H1092 C1115 0.950 1_455 S
H1093 C1117 0.950 . S
H1094 C1118 0.950 . S
H1095 C1119 0.951 . S
H1096 C1121 0.951 . S
H1097 C1123 0.950 . S
H1098 C1124 0.950 . S
H1099 C1126 0.950 . S
H1100 C1129 0.950 . S
H1101 C1130 0.950 . S
H1102 C1132 0.950 . S
H1103 C1133 0.950 . S
C1104 H1086 0.951 . S
C1104 C1105 1.366 . S
C1104 C1106 1.388 . S
C1105 C1104 1.366 . S
C1105 C1109 1.385 . S
C1106 H1087 0.951 . S
C1106 C1104 1.388 . S
C1106 C1107 1.366 . S
C1107 C1106 1.366 . S
C1107 C1108 1.414 . S
C1107 C1110 1.499 . S
C1108 H1088 0.950 . S
C1108 C1107 1.414 . S
C1108 C1109 1.374 . S
C1109 H1089 0.950 1_655 S
C1109 C1105 1.385 . S
C1109 C1108 1.374 . S
C1110 C1107 1.499 . S
C1110 C1111 1.373 . S
C1110 C1112 1.389 . S
C1111 H1090 0.950 . S
C1111 C1110 1.373 . S
C1111 C1127 1.377 . S
C1112 C1110 1.389 . S
C1112 C1113 1.524 . S
C1112 C1126 1.377 . S
C1113 C1112 1.524 . S
C1113 C1114 1.397 . S
C1113 C1118 1.363 . S
C1114 H1091 0.950 . S
C1114 C1113 1.397 . S
C1114 C1115 1.334 . S
C1115 H1092 0.950 1_655 S
C1115 C1114 1.334 . S
C1115 C1116 1.287 . S
C1116 C1115 1.287 . S
C1116 C1117 1.524 . S
C1116 H1135 0.913 . S
C1117 H1093 0.950 . S
C1117 C1116 1.524 . S
C1117 C1118 1.415 . S
C1118 H1094 0.950 . S
C1118 C1113 1.363 . S
C1118 C1117 1.415 . S
C1119 H1095 0.951 . S
C1119 C1120 1.366 . S
C1119 C1121 1.388 . S
C1120 C1119 1.366 . S
C1120 C1124 1.385 . S
C1121 H1096 0.951 . S
C1121 C1119 1.388 . S
C1121 C1122 1.366 . S
C1122 C1121 1.366 . S
C1122 C1123 1.414 . S
C1122 C1125 1.499 . S
C1123 H1097 0.950 . S
C1123 C1122 1.414 . S
C1123 C1124 1.374 . S
C1124 H1098 0.950 . S
C1124 C1120 1.385 . S
C1124 C1123 1.374 . S
C1125 C1122 1.499 . S
C1125 C1126 1.373 . S
C1125 C1127 1.389 . S
C1126 H1099 0.950 . S
C1126 C1112 1.377 . S
C1126 C1125 1.373 . S
C1127 C1111 1.377 . S
C1127 C1125 1.389 . S
C1127 C1128 1.524 . S
C1128 C1127 1.524 . S
C1128 C1129 1.397 . S
C1128 C1133 1.363 . S
C1129 H1100 0.950 . S
C1129 C1128 1.397 . S
C1129 C1130 1.334 . S
C1130 H1101 0.950 . S
C1130 C1129 1.334 . S
C1130 C1131 1.287 . S
C1131 C1130 1.287 . S
C1131 C1132 1.524 . S
C1131 H1134 0.999 . S
C1132 H1102 0.950 . S
C1132 C1131 1.524 . S
C1132 C1133 1.415 . S
C1133 H1103 0.950 . S
C1133 C1128 1.363 . S
C1133 C1132 1.415 . S
H1134 C1131 0.999 . S
H1135 C1116 0.913 . S
H1136 C1154 0.951 . S
H1137 C1156 0.951 . S
H1138 C1158 0.950 . S
H1139 C1159 0.950 . S
H1140 C1161 0.950 . S
H1141 C1164 0.950 . S
H1142 C1165 0.950 . S
H1143 C1167 0.950 . S
H1144 C1168 0.950 . S
H1145 C1169 0.951 . S
H1146 C1171 0.951 . S
H1147 C1173 0.950 . S
H1148 C1174 0.950 . S
H1149 C1176 0.950 . S
H1150 C1179 0.950 . S
H1151 C1180 0.950 . S
H1152 C1182 0.950 . S
H1153 C1183 0.950 . S
C1154 H1136 0.951 . S
C1154 C1155 1.366 . S
C1154 C1156 1.388 . S
C1155 C1154 1.366 . S
C1155 C1159 1.385 . S
C1156 H1137 0.951 . S
C1156 C1154 1.388 . S
C1156 C1157 1.366 . S
C1157 C1156 1.366 . S
C1157 C1158 1.414 . S
C1157 C1160 1.499 . S
C1158 H1138 0.950 . S
C1158 C1157 1.414 . S
C1158 C1159 1.374 . S
C1159 H1139 0.950 . S
C1159 C1155 1.385 . S
C1159 C1158 1.374 . S
C1160 C1157 1.499 . S
C1160 C1161 1.373 . S
C1160 C1162 1.389 . S
C1161 H1140 0.950 . S
C1161 C1160 1.373 . S
C1161 C1177 1.377 . S
C1162 C1160 1.389 . S
C1162 C1163 1.524 . S
C1162 C1176 1.377 . S
C1163 C1162 1.524 . S
C1163 C1164 1.397 . S
C1163 C1168 1.363 . S
C1164 H1141 0.950 . S
C1164 C1163 1.397 . S
C1164 C1165 1.334 . S
C1165 H1142 0.950 . S
C1165 C1164 1.334 . S
C1165 C1166 1.287 . S
C1166 C1165 1.287 . S
C1166 C1167 1.524 . S
C1166 H1185 0.913 . S
C1167 H1143 0.950 . S
C1167 C1166 1.524 . S
C1167 C1168 1.415 . S
C1168 H1144 0.950 . S
C1168 C1163 1.363 . S
C1168 C1167 1.415 . S
C1169 H1145 0.951 . S
C1169 C1170 1.366 . S
C1169 C1171 1.388 . S
C1170 C1169 1.366 . S
C1170 C1174 1.385 . S
C1171 H1146 0.951 . S
C1171 C1169 1.388 . S
C1171 C1172 1.366 . S
C1172 C1171 1.366 . S
C1172 C1173 1.414 . S
C1172 C1175 1.499 . S
C1173 H1147 0.950 . S
C1173 C1172 1.414 . S
C1173 C1174 1.374 . S
C1174 H1148 0.950 . S
C1174 C1170 1.385 . S
C1174 C1173 1.374 . S
C1175 C1172 1.499 . S
C1175 C1176 1.373 . S
C1175 C1177 1.389 . S
C1176 H1149 0.950 . S
C1176 C1162 1.377 . S
C1176 C1175 1.373 . S
C1177 C1161 1.377 . S
C1177 C1175 1.389 . S
C1177 C1178 1.524 . S
C1178 C1177 1.524 . S
C1178 C1179 1.397 . S
C1178 C1183 1.363 . S
C1179 H1150 0.950 . S
C1179 C1178 1.397 . S
C1179 C1180 1.334 . S
C1180 H1151 0.950 . S
C1180 C1179 1.334 . S
C1180 C1181 1.287 . S
C1181 C1180 1.287 . S
C1181 C1182 1.524 . S
C1181 H1184 0.999 . S
C1182 H1152 0.950 . S
C1182 C1181 1.524 . S
C1182 C1183 1.415 . S
C1183 H1153 0.950 . S
C1183 C1178 1.363 . S
C1183 C1182 1.415 . S
H1184 C1181 0.999 . S
H1185 C1166 0.913 . S
H1186 C1204 0.951 . S
H1187 C1206 0.951 . S
H1188 C1208 0.950 . S
H1189 C1209 0.950 . S
H1190 C1211 0.950 . S
H1191 C1214 0.950 . S
H1192 C1215 0.950 . S
H1193 C1217 0.950 . S
H1194 C1218 0.950 . S
H1195 C1219 0.951 . S
H1196 C1221 0.951 . S
H1197 C1223 0.950 . S
H1198 C1224 0.950 . S
H1199 C1226 0.950 . S
H1200 C1229 0.950 . S
H1201 C1230 0.950 . S
H1202 C1232 0.950 . S
H1203 C1233 0.950 . S
C1204 H1186 0.951 . S
C1204 C1205 1.366 . S
C1204 C1206 1.388 . S
C1205 C1204 1.366 . S
C1205 C1209 1.385 . S
C1206 H1187 0.951 . S
C1206 C1204 1.388 . S
C1206 C1207 1.366 . S
C1207 C1206 1.366 . S
C1207 C1208 1.414 . S
C1207 C1210 1.499 . S
C1208 H1188 0.950 . S
C1208 C1207 1.414 . S
C1208 C1209 1.374 . S
C1209 H1189 0.950 . S
C1209 C1205 1.385 . S
C1209 C1208 1.374 . S
C1210 C1207 1.499 . S
C1210 C1211 1.373 . S
C1210 C1212 1.389 . S
C1211 H1190 0.950 . S
C1211 C1210 1.373 . S
C1211 C1227 1.377 . S
C1212 C1210 1.389 . S
C1212 C1213 1.524 . S
C1212 C1226 1.377 . S
C1213 C1212 1.524 . S
C1213 C1214 1.397 . S
C1213 C1218 1.363 . S
C1214 H1191 0.950 . S
C1214 C1213 1.397 . S
C1214 C1215 1.334 . S
C1215 H1192 0.950 . S
C1215 C1214 1.334 . S
C1215 C1216 1.287 . S
C1216 C1215 1.287 . S
C1216 C1217 1.524 . S
C1216 H1235 0.913 . S
C1217 H1193 0.950 . S
C1217 C1216 1.524 . S
C1217 C1218 1.415 . S
C1218 H1194 0.950 . S
C1218 C1213 1.363 . S
C1218 C1217 1.415 . S
C1219 H1195 0.951 . S
C1219 C1220 1.366 . S
C1219 C1221 1.388 . S
C1220 C1219 1.366 . S
C1220 C1224 1.385 . S
C1221 H1196 0.951 . S
C1221 C1219 1.388 . S
C1221 C1222 1.366 . S
C1222 C1221 1.366 . S
C1222 C1223 1.414 . S
C1222 C1225 1.499 . S
C1223 H1197 0.950 . S
C1223 C1222 1.414 . S
C1223 C1224 1.374 . S
C1224 H1198 0.950 . S
C1224 C1220 1.385 . S
C1224 C1223 1.374 . S
C1225 C1222 1.499 . S
C1225 C1226 1.373 . S
C1225 C1227 1.389 . S
C1226 H1199 0.950 . S
C1226 C1212 1.377 . S
C1226 C1225 1.373 . S
C1227 C1211 1.377 . S
C1227 C1225 1.389 . S
C1227 C1228 1.524 . S
C1228 C1227 1.524 . S
C1228 C1229 1.397 . S
C1228 C1233 1.363 . S
C1229 H1200 0.950 . S
C1229 C1228 1.397 . S
C1229 C1230 1.334 . S
C1230 H1201 0.950 . S
C1230 C1229 1.334 . S
C1230 C1231 1.287 . S
C1231 C1230 1.287 . S
C1231 C1232 1.524 . S
C1231 H1234 0.999 . S
C1232 H1202 0.950 . S
C1232 C1231 1.524 . S
C1232 C1233 1.415 . S
C1233 H1203 0.950 . S
C1233 C1228 1.363 . S
C1233 C1232 1.415 . S
H1234 C1231 0.999 . S
H1235 C1216 0.913 . S
H1236 C1254 0.951 1_554 S
H1237 C1256 0.951 . S
H1238 C1258 0.950 . S
H1239 C1259 0.950 . S
H1240 C1261 0.950 . S
H1241 C1264 0.950 . S
H1242 C1265 0.950 . S
H1243 C1267 0.946 . S
H1244 C1268 0.950 . S
H1245 C1269 0.951 . S
H1246 C1271 0.951 . S
H1247 C1273 0.950 . S
H1248 C1274 0.950 . S
H1249 C1276 0.950 . S
H1250 C1279 0.950 . S
H1251 C1280 0.950 . S
H1252 C1282 0.950 . S
H1253 C1283 0.950 . S
C1254 H1236 0.951 1_556 S
C1254 C1255 1.366 . S
C1254 C1256 1.388 . S
C1255 C1254 1.366 . S
C1255 C1259 1.385 . S
C1256 H1237 0.951 . S
C1256 C1254 1.388 . S
C1256 C1257 1.366 . S
C1257 C1256 1.366 . S
C1257 C1258 1.414 . S
C1257 C1260 1.499 . S
C1258 H1238 0.950 . S
C1258 C1257 1.414 . S
C1258 C1259 1.374 . S
C1259 H1239 0.950 . S
C1259 C1255 1.385 . S
C1259 C1258 1.374 . S
C1260 C1257 1.499 . S
C1260 C1261 1.373 . S
C1260 C1262 1.389 . S
C1261 H1240 0.950 . S
C1261 C1260 1.373 . S
C1261 C1277 1.377 . S
C1262 C1260 1.389 . S
C1262 C1263 1.524 . S
C1262 C1276 1.377 . S
C1263 C1262 1.524 . S
C1263 C1264 1.397 . S
C1263 C1268 1.363 . S
C1264 H1241 0.950 . S
C1264 C1263 1.397 . S
C1264 C1265 1.334 . S
C1265 H1242 0.950 . S
C1265 C1264 1.334 . S
C1265 C1266 1.287 . S
C1266 C1265 1.287 . S
C1266 C1267 1.524 . S
C1266 H1285 0.913 . S
C1267 H1243 0.946 . S
C1267 C1266 1.524 . S
C1267 C1268 1.415 . S
C1268 H1244 0.950 . S
C1268 C1263 1.363 . S
C1268 C1267 1.415 . S
C1269 H1245 0.951 . S
C1269 C1270 1.366 . S
C1269 C1271 1.388 . S
C1270 C1269 1.366 . S
C1270 C1274 1.385 . S
C1271 H1246 0.951 . S
C1271 C1269 1.388 . S
C1271 C1272 1.366 . S
C1272 C1271 1.366 . S
C1272 C1273 1.414 . S
C1272 C1275 1.499 . S
C1273 H1247 0.950 . S
C1273 C1272 1.414 . S
C1273 C1274 1.374 . S
C1274 H1248 0.950 . S
C1274 C1270 1.385 . S
C1274 C1273 1.374 . S
C1275 C1272 1.499 . S
C1275 C1276 1.373 . S
C1275 C1277 1.389 . S
C1276 H1249 0.950 . S
C1276 C1262 1.377 . S
C1276 C1275 1.373 . S
C1277 C1261 1.377 . S
C1277 C1275 1.389 . S
C1277 C1278 1.524 . S
C1278 C1277 1.524 . S
C1278 C1279 1.397 . S
C1278 C1283 1.363 . S
C1279 H1250 0.950 . S
C1279 C1278 1.397 . S
C1279 C1280 1.334 . S
C1280 H1251 0.950 . S
C1280 C1279 1.334 . S
C1280 C1281 1.287 . S
C1281 C1280 1.287 . S
C1281 C1282 1.524 . S
C1281 H1284 0.999 . S
C1282 H1252 0.950 . S
C1282 C1281 1.524 . S
C1282 C1283 1.415 . S
C1283 H1253 0.950 . S
C1283 C1278 1.363 . S
C1283 C1282 1.415 . S
H1284 C1281 0.999 . S
H1285 C1266 0.913 . S
H1286 C1304 0.951 . S
H1287 C1306 0.951 . S
H1288 C1308 0.950 . S
H1289 C1309 0.950 . S
H1290 C1311 0.950 . S
H1291 C1314 0.950 . S
H1292 C1315 0.950 . S
H1293 C1317 0.950 . S
H1294 C1318 0.950 . S
H1295 C1319 0.951 1_455 S
H1296 C1321 0.951 . S
H1297 C1323 0.950 . S
H1298 C1324 0.950 . S
H1299 C1326 0.950 . S
H1300 C1329 0.950 . S
H1301 C1330 0.950 . S
H1302 C1332 0.950 . S
H1303 C1333 0.950 . S
C1304 H1286 0.951 . S
C1304 C1305 1.366 . S
C1304 C1306 1.388 . S
C1305 C1304 1.366 . S
C1305 C1309 1.385 . S
C1306 H1287 0.951 . S
C1306 C1304 1.388 . S
C1306 C1307 1.366 . S
C1307 C1306 1.366 . S
C1307 C1308 1.414 . S
C1307 C1310 1.499 . S
C1308 H1288 0.950 . S
C1308 C1307 1.414 . S
C1308 C1309 1.374 . S
C1309 H1289 0.950 . S
C1309 C1305 1.385 . S
C1309 C1308 1.374 . S
C1310 C1307 1.499 . S
C1310 C1311 1.373 . S
C1310 C1312 1.389 . S
C1311 H1290 0.950 . S
C1311 C1310 1.373 . S
C1311 C1327 1.377 . S
C1312 C1310 1.389 . S
C1312 C1313 1.524 . S
C1312 C1326 1.377 . S
C1313 C1312 1.524 . S
C1313 C1314 1.397 . S
C1313 C1318 1.363 . S
C1314 H1291 0.950 . S
C1314 C1313 1.397 . S
C1314 C1315 1.334 . S
C1315 H1292 0.950 . S
C1315 C1314 1.334 . S
C1315 C1316 1.287 . S
C1316 C1315 1.287 . S
C1316 C1317 1.524 . S
C1316 H1335 0.913 . S
C1317 H1293 0.950 . S
C1317 C1316 1.524 . S
C1317 C1318 1.415 . S
C1318 H1294 0.950 . S
C1318 C1313 1.363 . S
C1318 C1317 1.415 . S
C1319 H1295 0.951 1_655 S
C1319 C1320 1.366 . S
C1319 C1321 1.388 . S
C1320 C1319 1.366 . S
C1320 C1324 1.385 . S
C1321 H1296 0.951 . S
C1321 C1319 1.388 . S
C1321 C1322 1.366 . S
C1322 C1321 1.366 . S
C1322 C1323 1.414 . S
C1322 C1325 1.499 . S
C1323 H1297 0.950 . S
C1323 C1322 1.414 . S
C1323 C1324 1.374 . S
C1324 H1298 0.950 . S
C1324 C1320 1.385 . S
C1324 C1323 1.374 . S
C1325 C1322 1.499 . S
C1325 C1326 1.373 . S
C1325 C1327 1.389 . S
C1326 H1299 0.950 . S
C1326 C1312 1.377 . S
C1326 C1325 1.373 . S
C1327 C1311 1.377 . S
C1327 C1325 1.389 . S
C1327 C1328 1.524 . S
C1328 C1327 1.524 . S
C1328 C1329 1.397 . S
C1328 C1333 1.363 . S
C1329 H1300 0.950 . S
C1329 C1328 1.397 . S
C1329 C1330 1.334 . S
C1330 H1301 0.950 . S
C1330 C1329 1.334 . S
C1330 C1331 1.287 . S
C1331 C1330 1.287 . S
C1331 C1332 1.524 . S
C1331 H1334 0.999 . S
C1332 H1302 0.950 . S
C1332 C1331 1.524 . S
C1332 C1333 1.415 . S
C1333 H1303 0.950 . S
C1333 C1328 1.363 . S
C1333 C1332 1.415 . S
H1334 C1331 0.999 . S
H1335 C1316 0.913 . S
H1336 C1354 0.951 . S
H1337 C1356 0.951 . S
H1338 C1358 0.950 . S
H1339 C1359 0.950 . S
H1340 C1361 0.950 . S
H1341 C1364 0.950 . S
H1342 C1365 0.950 . S
H1343 C1367 0.950 . S
H1344 C1368 0.950 . S
H1345 C1369 0.951 . S
H1346 C1371 0.951 . S
H1347 C1373 0.950 . S
H1348 C1374 0.950 . S
H1349 C1376 0.950 . S
H1350 C1379 0.950 . S
H1351 C1380 0.950 . S
H1352 C1382 0.950 . S
H1353 C1383 0.950 . S
C1354 H1336 0.951 . S
C1354 C1355 1.366 . S
C1354 C1356 1.388 . S
C1355 C1354 1.366 . S
C1355 C1359 1.385 . S
C1356 H1337 0.951 . S
C1356 C1354 1.388 . S
C1356 C1357 1.366 . S
C1357 C1356 1.366 . S
C1357 C1358 1.414 . S
C1357 C1360 1.499 . S
C1358 H1338 0.950 . S
C1358 C1357 1.414 . S
C1358 C1359 1.374 . S
C1359 H1339 0.950 . S
C1359 C1355 1.385 . S
C1359 C1358 1.374 . S
C1360 C1357 1.499 . S
C1360 C1361 1.373 . S
C1360 C1362 1.389 . S
C1361 H1340 0.950 . S
C1361 C1360 1.373 . S
C1361 C1377 1.377 . S
C1362 C1360 1.389 . S
C1362 C1363 1.524 . S
C1362 C1376 1.377 . S
C1363 C1362 1.524 . S
C1363 C1364 1.397 . S
C1363 C1368 1.363 . S
C1364 H1341 0.950 . S
C1364 C1363 1.397 . S
C1364 C1365 1.334 . S
C1365 H1342 0.950 . S
C1365 C1364 1.334 . S
C1365 C1366 1.287 . S
C1366 C1365 1.287 . S
C1366 C1367 1.524 . S
C1366 H1385 0.913 . S
C1367 H1343 0.950 . S
C1367 C1366 1.524 . S
C1367 C1368 1.415 . S
C1368 H1344 0.950 . S
C1368 C1363 1.363 . S
C1368 C1367 1.415 . S
C1369 H1345 0.951 . S
C1369 C1370 1.366 . S
C1369 C1371 1.388 . S
C1370 C1369 1.366 . S
C1370 C1374 1.385 . S
C1371 H1346 0.951 . S
C1371 C1369 1.388 . S
C1371 C1372 1.366 . S
C1372 C1371 1.366 . S
C1372 C1373 1.414 . S
C1372 C1375 1.499 . S
C1373 H1347 0.950 . S
C1373 C1372 1.414 . S
C1373 C1374 1.374 . S
C1374 H1348 0.950 . S
C1374 C1370 1.385 . S
C1374 C1373 1.374 . S
C1375 C1372 1.499 . S
C1375 C1376 1.373 . S
C1375 C1377 1.389 . S
C1376 H1349 0.950 . S
C1376 C1362 1.377 . S
C1376 C1375 1.373 . S
C1377 C1361 1.377 . S
C1377 C1375 1.389 . S
C1377 C1378 1.524 . S
C1378 C1377 1.524 . S
C1378 C1379 1.397 . S
C1378 C1383 1.363 . S
C1379 H1350 0.950 . S
C1379 C1378 1.397 . S
C1379 C1380 1.334 . S
C1380 H1351 0.950 . S
C1380 C1379 1.334 . S
C1380 C1381 1.287 . S
C1381 C1380 1.287 . S
C1381 C1382 1.524 . S
C1381 H1384 0.999 . S
C1382 H1352 0.950 . S
C1382 C1381 1.524 . S
C1382 C1383 1.415 . S
C1383 H1353 0.950 . S
C1383 C1378 1.363 . S
C1383 C1382 1.415 . S
H1384 C1381 0.999 . S
H1385 C1366 0.913 . S
H1386 C1404 0.951 . S
H1387 C1406 0.951 . S
H1388 C1408 0.950 . S
H1389 C1409 0.950 . S
H1390 C1411 0.950 . S
H1391 C1414 0.950 . S
H1392 C1415 0.950 . S
H1393 C1417 0.950 . S
H1394 C1418 0.950 . S
H1395 C1419 0.951 . S
H1396 C1421 0.951 . S
H1397 C1423 0.950 . S
H1398 C1424 0.950 . S
H1399 C1426 0.950 . S
H1400 C1429 0.950 . S
H1401 C1430 0.950 . S
H1402 C1432 0.950 . S
H1403 C1433 0.950 . S
C1404 H1386 0.951 . S
C1404 C1405 1.366 . S
C1404 C1406 1.388 . S
C1405 C1404 1.366 . S
C1405 C1409 1.385 . S
C1406 H1387 0.951 . S
C1406 C1404 1.388 . S
C1406 C1407 1.366 . S
C1407 C1406 1.366 . S
C1407 C1408 1.414 . S
C1407 C1410 1.499 . S
C1408 H1388 0.950 . S
C1408 C1407 1.414 . S
C1408 C1409 1.374 . S
C1409 H1389 0.950 . S
C1409 C1405 1.385 . S
C1409 C1408 1.374 . S
C1410 C1407 1.499 . S
C1410 C1411 1.373 . S
C1410 C1412 1.389 . S
C1411 H1390 0.950 . S
C1411 C1410 1.373 . S
C1411 C1427 1.377 . S
C1412 C1410 1.389 . S
C1412 C1413 1.524 . S
C1412 C1426 1.377 . S
C1413 C1412 1.524 . S
C1413 C1414 1.397 . S
C1413 C1418 1.363 . S
C1414 H1391 0.950 . S
C1414 C1413 1.397 . S
C1414 C1415 1.334 . S
C1415 H1392 0.950 . S
C1415 C1414 1.334 . S
C1415 C1416 1.287 . S
C1416 C1415 1.287 . S
C1416 C1417 1.524 . S
C1416 H1435 0.913 . S
C1417 H1393 0.950 . S
C1417 C1416 1.524 . S
C1417 C1418 1.415 . S
C1418 H1394 0.950 . S
C1418 C1413 1.363 . S
C1418 C1417 1.415 . S
C1419 H1395 0.951 . S
C1419 C1420 1.366 . S
C1419 C1421 1.388 . S
C1420 C1419 1.366 . S
C1420 C1424 1.385 . S
C1421 H1396 0.951 . S
C1421 C1419 1.388 . S
C1421 C1422 1.366 . S
C1422 C1421 1.366 . S
C1422 C1423 1.414 . S
C1422 C1425 1.499 . S
C1423 H1397 0.950 . S
C1423 C1422 1.414 . S
C1423 C1424 1.374 . S
C1424 H1398 0.950 . S
C1424 C1420 1.385 . S
C1424 C1423 1.374 . S
C1425 C1422 1.499 . S
C1425 C1426 1.373 . S
C1425 C1427 1.389 . S
C1426 H1399 0.950 . S
C1426 C1412 1.377 . S
C1426 C1425 1.373 . S
C1427 C1411 1.377 . S
C1427 C1425 1.389 . S
C1427 C1428 1.524 . S
C1428 C1427 1.524 . S
C1428 C1429 1.397 . S
C1428 C1433 1.363 . S
C1429 H1400 0.950 . S
C1429 C1428 1.397 . S
C1429 C1430 1.334 . S
C1430 H1401 0.950 . S
C1430 C1429 1.334 . S
C1430 C1431 1.287 . S
C1431 C1430 1.287 . S
C1431 C1432 1.524 . S
C1431 H1434 0.999 . S
C1432 H1402 0.950 . S
C1432 C1431 1.524 . S
C1432 C1433 1.415 . S
C1433 H1403 0.950 . S
C1433 C1428 1.363 . S
C1433 C1432 1.415 . S
H1434 C1431 0.999 . S
H1435 C1416 0.913 . S
H1436 C1454 0.951 . S
H1437 C1456 0.951 . S
H1438 C1458 0.950 . S
H1439 C1459 0.950 . S
H1440 C1461 0.950 . S
H1441 C1464 0.950 . S
H1442 C1465 0.950 . S
H1443 C1467 0.950 . S
H1444 C1468 0.950 . S
H1445 C1469 0.951 . S
H1446 C1471 0.951 . S
H1447 C1473 0.950 . S
H1448 C1474 0.950 . S
H1449 C1476 0.950 . S
H1450 C1479 0.950 . S
H1451 C1480 0.950 . S
H1452 C1482 0.950 . S
H1453 C1483 0.950 . S
C1454 H1436 0.951 . S
C1454 C1455 1.366 . S
C1454 C1456 1.388 . S
C1455 C1454 1.366 . S
C1455 C1459 1.385 . S
C1456 H1437 0.951 . S
C1456 C1454 1.388 . S
C1456 C1457 1.366 . S
C1457 C1456 1.366 . S
C1457 C1458 1.414 . S
C1457 C1460 1.499 . S
C1458 H1438 0.950 . S
C1458 C1457 1.414 . S
C1458 C1459 1.374 . S
C1459 H1439 0.950 . S
C1459 C1455 1.385 . S
C1459 C1458 1.374 . S
C1460 C1457 1.499 . S
C1460 C1461 1.373 . S
C1460 C1462 1.389 . S
C1461 H1440 0.950 . S
C1461 C1460 1.373 . S
C1461 C1477 1.377 . S
C1462 C1460 1.389 . S
C1462 C1463 1.524 . S
C1462 C1476 1.377 . S
C1463 C1462 1.524 . S
C1463 C1464 1.397 . S
C1463 C1468 1.363 . S
C1464 H1441 0.950 . S
C1464 C1463 1.397 . S
C1464 C1465 1.334 . S
C1465 H1442 0.950 . S
C1465 C1464 1.334 . S
C1465 C1466 1.287 . S
C1466 C1465 1.287 . S
C1466 C1467 1.524 . S
C1466 H1485 0.913 . S
C1467 H1443 0.950 . S
C1467 C1466 1.524 . S
C1467 C1468 1.415 . S
C1468 H1444 0.950 . S
C1468 C1463 1.363 . S
C1468 C1467 1.415 . S
C1469 H1445 0.951 . S
C1469 C1470 1.366 . S
C1469 C1471 1.388 . S
C1470 C1469 1.366 . S
C1470 C1474 1.385 . S
C1471 H1446 0.951 . S
C1471 C1469 1.388 . S
C1471 C1472 1.366 . S
C1472 C1471 1.366 . S
C1472 C1473 1.414 . S
C1472 C1475 1.499 . S
C1473 H1447 0.950 . S
C1473 C1472 1.414 . S
C1473 C1474 1.374 . S
C1474 H1448 0.950 . S
C1474 C1470 1.385 . S
C1474 C1473 1.374 . S
C1475 C1472 1.499 . S
C1475 C1476 1.373 . S
C1475 C1477 1.389 . S
C1476 H1449 0.950 . S
C1476 C1462 1.377 . S
C1476 C1475 1.373 . S
C1477 C1461 1.377 . S
C1477 C1475 1.389 . S
C1477 C1478 1.524 . S
C1478 C1477 1.524 . S
C1478 C1479 1.397 . S
C1478 C1483 1.363 . S
C1479 H1450 0.950 . S
C1479 C1478 1.397 . S
C1479 C1480 1.334 1_554 S
C1480 H1451 0.950 . S
C1480 C1479 1.334 1_556 S
C1480 C1481 1.287 . S
C1481 C1480 1.287 . S
C1481 C1482 1.524 . S
C1481 H1484 0.999 . S
C1482 H1452 0.950 . S
C1482 C1481 1.524 . S
C1482 C1483 1.415 1_556 S
C1483 H1453 0.950 . S
C1483 C1478 1.363 . S
C1483 C1482 1.415 1_554 S
H1484 C1481 0.999 . S
H1485 C1466 0.913 . S
H1486 C1504 0.951 . S
H1487 C1506 0.951 . S
H1488 C1508 0.950 . S
H1489 C1509 0.950 . S
H1490 C1511 0.950 . S
H1491 C1514 0.950 . S
H1492 C1515 0.950 . S
H1493 C1517 0.950 . S
H1494 C1518 0.950 . S
H1495 C1519 0.951 . S
H1496 C1521 0.951 . S
H1497 C1523 0.950 . S
H1498 C1524 0.950 . S
H1499 C1526 0.950 . S
H1500 C1529 0.950 . S
H1501 C1530 0.950 . S
H1502 C1532 0.949 1_565 S
H1503 C1533 0.950 . S
C1504 H1486 0.951 . S
C1504 C1505 1.366 . S
C1504 C1506 1.388 . S
C1505 C1504 1.366 . S
C1505 C1509 1.385 . S
C1506 H1487 0.951 . S
C1506 C1504 1.388 . S
C1506 C1507 1.366 . S
C1507 C1506 1.366 . S
C1507 C1508 1.414 . S
C1507 C1510 1.499 . S
C1508 H1488 0.950 . S
C1508 C1507 1.414 . S
C1508 C1509 1.374 . S
C1509 H1489 0.950 . S
C1509 C1505 1.385 . S
C1509 C1508 1.374 . S
C1510 C1507 1.499 . S
C1510 C1511 1.373 . S
C1510 C1512 1.389 . S
C1511 H1490 0.950 . S
C1511 C1510 1.373 . S
C1511 C1527 1.377 . S
C1512 C1510 1.389 . S
C1512 C1513 1.524 . S
C1512 C1526 1.377 . S
C1513 C1512 1.524 . S
C1513 C1514 1.397 . S
C1513 C1518 1.363 . S
C1514 H1491 0.950 . S
C1514 C1513 1.397 . S
C1514 C1515 1.334 . S
C1515 H1492 0.950 . S
C1515 C1514 1.334 . S
C1515 C1516 1.287 . S
C1516 C1515 1.287 . S
C1516 C1517 1.524 . S
C1516 H1535 0.913 . S
C1517 H1493 0.950 . S
C1517 C1516 1.524 . S
C1517 C1518 1.415 . S
C1518 H1494 0.950 . S
C1518 C1513 1.363 . S
C1518 C1517 1.415 . S
C1519 H1495 0.951 . S
C1519 C1520 1.366 . S
C1519 C1521 1.388 . S
C1520 C1519 1.366 . S
C1520 C1524 1.385 . S
C1521 H1496 0.951 . S
C1521 C1519 1.388 . S
C1521 C1522 1.366 . S
C1522 C1521 1.366 . S
C1522 C1523 1.414 . S
C1522 C1525 1.499 . S
C1523 H1497 0.950 . S
C1523 C1522 1.414 . S
C1523 C1524 1.374 . S
C1524 H1498 0.950 . S
C1524 C1520 1.385 . S
C1524 C1523 1.374 . S
C1525 C1522 1.499 . S
C1525 C1526 1.373 . S
C1525 C1527 1.389 . S
C1526 H1499 0.950 . S
C1526 C1512 1.377 . S
C1526 C1525 1.373 . S
C1527 C1511 1.377 . S
C1527 C1525 1.389 . S
C1527 C1528 1.524 . S
C1528 C1527 1.524 . S
C1528 C1529 1.397 1_565 S
C1528 C1533 1.363 . S
C1529 H1500 0.950 . S
C1529 C1528 1.397 1_545 S
C1529 C1530 1.334 . S
C1530 H1501 0.950 . S
C1530 C1529 1.334 . S
C1530 C1531 1.287 . S
C1531 C1530 1.287 . S
C1531 C1532 1.524 . S
C1531 H1534 0.999 . S
C1532 H1502 0.949 1_545 S
C1532 C1531 1.524 . S
C1532 C1533 1.415 1_545 S
C1533 H1503 0.950 . S
C1533 C1528 1.363 . S
C1533 C1532 1.415 1_565 S
H1534 C1531 0.999 . S
H1535 C1516 0.913 . S
H1536 C1554 0.951 . S
H1537 C1556 0.951 . S
H1538 C1558 0.950 . S
H1539 C1559 0.950 . S
H1540 C1561 0.950 . S
H1541 C1564 0.950 . S
H1542 C1565 0.950 . S
H1543 C1567 0.950 . S
H1544 C1568 0.950 . S
H1545 C1569 0.951 . S
H1546 C1571 0.951 . S
H1547 C1573 0.950 . S
H1548 C1574 0.950 . S
H1549 C1576 0.950 . S
H1550 C1579 0.950 . S
H1551 C1580 0.950 . S
H1552 C1582 0.950 . S
H1553 C1583 0.950 . S
C1554 H1536 0.951 . S
C1554 C1555 1.366 . S
C1554 C1556 1.388 . S
C1555 C1554 1.366 . S
C1555 C1559 1.385 . S
C1556 H1537 0.951 . S
C1556 C1554 1.388 . S
C1556 C1557 1.366 . S
C1557 C1556 1.366 . S
C1557 C1558 1.414 . S
C1557 C1560 1.499 . S
C1558 H1538 0.950 . S
C1558 C1557 1.414 . S
C1558 C1559 1.374 . S
C1559 H1539 0.950 . S
C1559 C1555 1.385 . S
C1559 C1558 1.374 . S
C1560 C1557 1.499 . S
C1560 C1561 1.373 . S
C1560 C1562 1.389 . S
C1561 H1540 0.950 . S
C1561 C1560 1.373 . S
C1561 C1577 1.377 . S
C1562 C1560 1.389 . S
C1562 C1563 1.524 . S
C1562 C1576 1.377 . S
C1563 C1562 1.524 . S
C1563 C1564 1.397 . S
C1563 C1568 1.363 . S
C1564 H1541 0.950 . S
C1564 C1563 1.397 . S
C1564 C1565 1.334 . S
C1565 H1542 0.950 . S
C1565 C1564 1.334 . S
C1565 C1566 1.287 . S
C1566 C1565 1.287 . S
C1566 C1567 1.524 . S
C1566 H1585 0.913 . S
C1567 H1543 0.950 . S
C1567 C1566 1.524 . S
C1567 C1568 1.415 . S
C1568 H1544 0.950 . S
C1568 C1563 1.363 . S
C1568 C1567 1.415 . S
C1569 H1545 0.951 . S
C1569 C1570 1.366 . S
C1569 C1571 1.388 . S
C1570 C1569 1.366 . S
C1570 C1574 1.385 . S
C1571 H1546 0.951 . S
C1571 C1569 1.388 . S
C1571 C1572 1.366 . S
C1572 C1571 1.366 . S
C1572 C1573 1.414 . S
C1572 C1575 1.499 . S
C1573 H1547 0.950 . S
C1573 C1572 1.414 . S
C1573 C1574 1.374 . S
C1574 H1548 0.950 . S
C1574 C1570 1.385 . S
C1574 C1573 1.374 . S
C1575 C1572 1.499 . S
C1575 C1576 1.373 . S
C1575 C1577 1.389 . S
C1576 H1549 0.950 . S
C1576 C1562 1.377 . S
C1576 C1575 1.373 . S
C1577 C1561 1.377 . S
C1577 C1575 1.389 . S
C1577 C1578 1.524 . S
C1578 C1577 1.524 . S
C1578 C1579 1.397 . S
C1578 C1583 1.363 . S
C1579 H1550 0.950 . S
C1579 C1578 1.397 . S
C1579 C1580 1.334 1_565 S
C1580 H1551 0.950 . S
C1580 C1579 1.334 1_545 S
C1580 C1581 1.287 . S
C1581 C1580 1.287 . S
C1581 C1582 1.524 . S
C1581 H1584 0.999 . S
C1582 H1552 0.950 . S
C1582 C1581 1.524 . S
C1582 C1583 1.415 1_545 S
C1583 H1553 0.950 . S
C1583 C1578 1.363 . S
C1583 C1582 1.415 1_565 S
H1584 C1581 0.999 . S
H1585 C1566 0.913 . S
H1586 C1604 0.951 . S
H1587 C1606 0.951 . S
H1588 C1608 0.950 . S
H1589 C1609 0.950 . S
H1590 C1611 0.950 . S
H1591 C1614 0.950 . S
H1592 C1615 0.950 . S
H1593 C1617 0.950 . S
H1594 C1618 0.950 . S
H1595 C1619 0.951 . S
H1596 C1621 0.951 . S
H1597 C1623 0.950 . S
H1598 C1624 0.950 . S
H1599 C1626 0.950 . S
H1600 C1629 0.950 . S
H1601 C1630 0.950 . S
H1602 C1632 0.950 . S
H1603 C1633 0.950 . S
C1604 H1586 0.951 . S
C1604 C1605 1.366 . S
C1604 C1606 1.388 . S
C1605 C1604 1.366 . S
C1605 C1609 1.385 . S
C1606 H1587 0.951 . S
C1606 C1604 1.388 . S
C1606 C1607 1.366 . S
C1607 C1606 1.366 . S
C1607 C1608 1.414 . S
C1607 C1610 1.499 . S
C1608 H1588 0.950 . S
C1608 C1607 1.414 . S
C1608 C1609 1.374 . S
C1609 H1589 0.950 . S
C1609 C1605 1.385 . S
C1609 C1608 1.374 . S
C1610 C1607 1.499 . S
C1610 C1611 1.373 . S
C1610 C1612 1.389 . S
C1611 H1590 0.950 . S
C1611 C1610 1.373 . S
C1611 C1627 1.377 . S
C1612 C1610 1.389 . S
C1612 C1613 1.524 . S
C1612 C1626 1.377 . S
C1613 C1612 1.524 . S
C1613 C1614 1.397 . S
C1613 C1618 1.363 . S
C1614 H1591 0.950 . S
C1614 C1613 1.397 . S
C1614 C1615 1.334 . S
C1615 H1592 0.950 . S
C1615 C1614 1.334 . S
C1615 C1616 1.287 . S
C1616 C1615 1.287 . S
C1616 C1617 1.524 . S
C1616 H1635 0.913 . S
C1617 H1593 0.950 . S
C1617 C1616 1.524 . S
C1617 C1618 1.415 . S
C1618 H1594 0.950 . S
C1618 C1613 1.363 . S
C1618 C1617 1.415 . S
C1619 H1595 0.951 . S
C1619 C1620 1.366 . S
C1619 C1621 1.388 . S
C1620 C1619 1.366 . S
C1620 C1624 1.385 . S
C1621 H1596 0.951 . S
C1621 C1619 1.388 . S
C1621 C1622 1.366 . S
C1622 C1621 1.366 . S
C1622 C1623 1.414 . S
C1622 C1625 1.499 . S
C1623 H1597 0.950 . S
C1623 C1622 1.414 . S
C1623 C1624 1.374 . S
C1624 H1598 0.950 . S
C1624 C1620 1.385 . S
C1624 C1623 1.374 . S
C1625 C1622 1.499 . S
C1625 C1626 1.373 . S
C1625 C1627 1.389 . S
C1626 H1599 0.950 . S
C1626 C1612 1.377 . S
C1626 C1625 1.373 . S
C1627 C1611 1.377 . S
C1627 C1625 1.389 . S
C1627 C1628 1.524 . S
C1628 C1627 1.524 . S
C1628 C1629 1.397 . S
C1628 C1633 1.363 . S
C1629 H1600 0.950 . S
C1629 C1628 1.397 . S
C1629 C1630 1.334 . S
C1630 H1601 0.950 . S
C1630 C1629 1.334 . S
C1630 C1631 1.287 . S
C1631 C1630 1.287 . S
C1631 C1632 1.524 . S
C1631 H1634 0.999 . S
C1632 H1602 0.950 . S
C1632 C1631 1.524 . S
C1632 C1633 1.415 . S
C1633 H1603 0.950 . S
C1633 C1628 1.363 . S
C1633 C1632 1.415 . S
H1634 C1631 0.999 . S
H1635 C1616 0.913 . S
H1636 C1654 0.951 . S
H1637 C1656 0.951 . S
H1638 C1658 0.950 . S
H1639 C1659 0.950 . S
H1640 C1661 0.950 . S
H1641 C1664 0.950 . S
H1642 C1665 0.950 . S
H1643 C1667 0.950 . S
H1644 C1668 0.950 . S
H1645 C1669 0.951 . S
H1646 C1671 0.951 . S
H1647 C1673 0.950 . S
H1648 C1674 0.950 . S
H1649 C1676 0.950 . S
H1650 C1679 0.950 . S
H1651 C1680 0.950 . S
H1652 C1682 0.950 . S
H1653 C1683 0.950 . S
C1654 H1636 0.951 . S
C1654 C1655 1.366 . S
C1654 C1656 1.388 . S
C1655 C1654 1.366 . S
C1655 C1659 1.385 . S
C1656 H1637 0.951 . S
C1656 C1654 1.388 . S
C1656 C1657 1.366 . S
C1657 C1656 1.366 . S
C1657 C1658 1.414 . S
C1657 C1660 1.499 . S
C1658 H1638 0.950 . S
C1658 C1657 1.414 . S
C1658 C1659 1.374 . S
C1659 H1639 0.950 . S
C1659 C1655 1.385 . S
C1659 C1658 1.374 . S
C1660 C1657 1.499 . S
C1660 C1661 1.373 . S
C1660 C1662 1.389 . S
C1661 H1640 0.950 . S
C1661 C1660 1.373 . S
C1661 C1677 1.377 . S
C1662 C1660 1.389 . S
C1662 C1663 1.524 . S
C1662 C1676 1.377 . S
C1663 C1662 1.524 . S
C1663 C1664 1.397 . S
C1663 C1668 1.363 . S
C1664 H1641 0.950 . S
C1664 C1663 1.397 . S
C1664 C1665 1.334 . S
C1665 H1642 0.950 . S
C1665 C1664 1.334 . S
C1665 C1666 1.287 . S
C1666 C1665 1.287 . S
C1666 C1667 1.524 . S
C1666 H1685 0.913 . S
C1667 H1643 0.950 . S
C1667 C1666 1.524 . S
C1667 C1668 1.415 . S
C1668 H1644 0.950 . S
C1668 C1663 1.363 . S
C1668 C1667 1.415 . S
C1669 H1645 0.951 . S
C1669 C1670 1.366 . S
C1669 C1671 1.388 . S
C1670 C1669 1.366 . S
C1670 C1674 1.385 . S
C1671 H1646 0.951 . S
C1671 C1669 1.388 . S
C1671 C1672 1.366 . S
C1672 C1671 1.366 . S
C1672 C1673 1.414 . S
C1672 C1675 1.499 . S
C1673 H1647 0.950 . S
C1673 C1672 1.414 . S
C1673 C1674 1.374 . S
C1674 H1648 0.950 . S
C1674 C1670 1.385 . S
C1674 C1673 1.374 . S
C1675 C1672 1.499 . S
C1675 C1676 1.373 . S
C1675 C1677 1.389 . S
C1676 H1649 0.950 . S
C1676 C1662 1.377 . S
C1676 C1675 1.373 . S
C1677 C1661 1.377 . S
C1677 C1675 1.389 . S
C1677 C1678 1.524 . S
C1678 C1677 1.524 . S
C1678 C1679 1.397 . S
C1678 C1683 1.363 . S
C1679 H1650 0.950 . S
C1679 C1678 1.397 . S
C1679 C1680 1.334 . S
C1680 H1651 0.950 . S
C1680 C1679 1.334 . S
C1680 C1681 1.287 . S
C1681 C1680 1.287 . S
C1681 C1682 1.524 . S
C1681 H1684 0.999 . S
C1682 H1652 0.950 . S
C1682 C1681 1.524 . S
C1682 C1683 1.415 . S
C1683 H1653 0.950 . S
C1683 C1678 1.363 . S
C1683 C1682 1.415 . S
H1684 C1681 0.999 . S
H1685 C1666 0.913 . S
H1686 C1704 0.951 . S
H1687 C1706 0.951 . S
H1688 C1708 0.950 . S
H1689 C1709 0.950 . S
H1690 C1711 0.950 . S
H1691 C1714 0.950 . S
H1692 C1715 0.950 . S
H1693 C1717 0.950 . S
H1694 C1718 0.950 . S
H1695 C1719 0.951 . S
H1696 C1721 0.951 . S
H1697 C1723 0.950 . S
H1698 C1724 0.950 . S
H1699 C1726 0.950 . S
H1700 C1729 0.950 . S
H1701 C1730 0.950 . S
H1702 C1732 0.950 . S
H1703 C1733 0.950 . S
C1704 H1686 0.951 . S
C1704 C1705 1.366 . S
C1704 C1706 1.388 . S
C1705 C1704 1.366 . S
C1705 C1709 1.385 . S
C1706 H1687 0.951 . S
C1706 C1704 1.388 . S
C1706 C1707 1.366 . S
C1707 C1706 1.366 . S
C1707 C1708 1.414 . S
C1707 C1710 1.499 . S
C1708 H1688 0.950 . S
C1708 C1707 1.414 . S
C1708 C1709 1.374 . S
C1709 H1689 0.950 . S
C1709 C1705 1.385 . S
C1709 C1708 1.374 . S
C1710 C1707 1.499 . S
C1710 C1711 1.373 . S
C1710 C1712 1.389 . S
C1711 H1690 0.950 . S
C1711 C1710 1.373 . S
C1711 C1727 1.377 . S
C1712 C1710 1.389 . S
C1712 C1713 1.524 . S
C1712 C1726 1.377 . S
C1713 C1712 1.524 . S
C1713 C1714 1.397 . S
C1713 C1718 1.363 . S
C1714 H1691 0.950 . S
C1714 C1713 1.397 . S
C1714 C1715 1.334 . S
C1715 H1692 0.950 . S
C1715 C1714 1.334 . S
C1715 C1716 1.287 . S
C1716 C1715 1.287 . S
C1716 C1717 1.524 . S
C1716 H1735 0.913 . S
C1717 H1693 0.950 . S
C1717 C1716 1.524 . S
C1717 C1718 1.415 . S
C1718 H1694 0.950 . S
C1718 C1713 1.363 . S
C1718 C1717 1.415 . S
C1719 H1695 0.951 . S
C1719 C1720 1.366 . S
C1719 C1721 1.388 . S
C1720 C1719 1.366 . S
C1720 C1724 1.385 . S
C1721 H1696 0.951 . S
C1721 C1719 1.388 . S
C1721 C1722 1.366 . S
C1722 C1721 1.366 . S
C1722 C1723 1.414 . S
C1722 C1725 1.499 . S
C1723 H1697 0.950 . S
C1723 C1722 1.414 . S
C1723 C1724 1.374 . S
C1724 H1698 0.950 . S
C1724 C1720 1.385 . S
C1724 C1723 1.374 . S
C1725 C1722 1.499 . S
C1725 C1726 1.373 . S
C1725 C1727 1.389 . S
C1726 H1699 0.950 . S
C1726 C1712 1.377 . S
C1726 C1725 1.373 . S
C1727 C1711 1.377 . S
C1727 C1725 1.389 . S
C1727 C1728 1.548 . S
C1728 C1727 1.548 . S
C1728 C1729 1.387 1_556 S
C1728 C1733 1.349 1_556 S
C1729 H1700 0.950 . S
C1729 C1728 1.387 1_554 S
C1729 C1730 1.334 . S
C1730 H1701 0.950 . S
C1730 C1729 1.334 . S
C1730 C1731 1.287 . S
C1731 C1730 1.287 . S
C1731 C1732 1.524 . S
C1731 H1734 0.999 . S
C1732 H1702 0.950 . S
C1732 C1731 1.524 . S
C1732 C1733 1.415 . S
C1733 H1703 0.950 . S
C1733 C1728 1.349 1_554 S
C1733 C1732 1.415 . S
H1734 C1731 0.999 . S
H1735 C1716 0.913 . S
H1736 C1754 0.951 . S
H1737 C1756 0.951 . S
H1738 C1758 0.950 . S
H1739 C1759 0.950 . S
H1740 C1761 0.950 . S
H1741 C1764 0.950 . S
H1742 C1765 0.950 . S
H1743 C1767 0.950 . S
H1744 C1768 0.950 . S
H1745 C1769 0.951 . S
H1746 C1771 0.951 . S
H1747 C1773 0.950 . S
H1748 C1774 0.950 . S
H1749 C1776 0.950 . S
H1750 C1779 0.950 . S
H1751 C1780 0.950 . S
H1752 C1782 0.950 . S
H1753 C1783 0.950 . S
C1754 H1736 0.951 . S
C1754 C1755 1.366 . S
C1754 C1756 1.388 . S
C1755 C1754 1.366 . S
C1755 C1759 1.385 . S
C1756 H1737 0.951 . S
C1756 C1754 1.388 . S
C1756 C1757 1.366 . S
C1757 C1756 1.366 . S
C1757 C1758 1.414 . S
C1757 C1760 1.499 . S
C1758 H1738 0.950 . S
C1758 C1757 1.414 . S
C1758 C1759 1.374 . S
C1759 H1739 0.950 . S
C1759 C1755 1.385 . S
C1759 C1758 1.374 . S
C1760 C1757 1.499 . S
C1760 C1761 1.373 . S
C1760 C1762 1.389 . S
C1761 H1740 0.950 . S
C1761 C1760 1.373 . S
C1761 C1777 1.377 . S
C1762 C1760 1.389 . S
C1762 C1763 1.524 . S
C1762 C1776 1.377 . S
C1763 C1762 1.524 . S
C1763 C1764 1.397 . S
C1763 C1768 1.363 . S
C1764 H1741 0.950 . S
C1764 C1763 1.397 . S
C1764 C1765 1.334 . S
C1765 H1742 0.950 . S
C1765 C1764 1.334 . S
C1765 C1766 1.287 . S
C1766 C1765 1.287 . S
C1766 C1767 1.524 . S
C1766 H1785 0.913 . S
C1767 H1743 0.950 . S
C1767 C1766 1.524 . S
C1767 C1768 1.415 . S
C1768 H1744 0.950 . S
C1768 C1763 1.363 . S
C1768 C1767 1.415 . S
C1769 H1745 0.951 . S
C1769 C1770 1.366 . S
C1769 C1771 1.388 . S
C1770 C1769 1.366 . S
C1770 C1774 1.385 . S
C1771 H1746 0.951 . S
C1771 C1769 1.388 . S
C1771 C1772 1.366 . S
C1772 C1771 1.366 . S
C1772 C1773 1.414 . S
C1772 C1775 1.499 . S
C1773 H1747 0.950 . S
C1773 C1772 1.414 . S
C1773 C1774 1.374 . S
C1774 H1748 0.950 . S
C1774 C1770 1.385 . S
C1774 C1773 1.374 . S
C1775 C1772 1.499 . S
C1775 C1776 1.373 . S
C1775 C1777 1.389 . S
C1776 H1749 0.950 . S
C1776 C1762 1.377 . S
C1776 C1775 1.373 . S
C1777 C1761 1.377 . S
C1777 C1775 1.389 . S
C1777 C1778 1.524 . S
C1778 C1777 1.524 . S
C1778 C1779 1.397 . S
C1778 C1783 1.363 . S
C1779 H1750 0.950 . S
C1779 C1778 1.397 . S
C1779 C1780 1.334 . S
C1780 H1751 0.950 . S
C1780 C1779 1.334 . S
C1780 C1781 1.287 . S
C1781 C1780 1.287 . S
C1781 C1782 1.524 . S
C1781 H1784 0.999 . S
C1782 H1752 0.950 . S
C1782 C1781 1.524 . S
C1782 C1783 1.415 . S
C1783 H1753 0.950 . S
C1783 C1778 1.363 . S
C1783 C1782 1.415 . S
H1784 C1781 0.999 . S
H1785 C1766 0.913 . S
H1786 C1804 0.951 . S
H1787 C1806 0.951 . S
H1788 C1808 0.950 . S
H1789 C1809 0.950 . S
H1790 C1811 0.950 . S
H1791 C1814 0.950 . S
H1792 C1815 0.950 . S
H1793 C1817 0.950 . S
H1794 C1818 0.950 . S
H1795 C1819 0.951 . S
H1796 C1821 0.951 . S
H1797 C1823 0.950 . S
H1798 C1824 0.950 . S
H1799 C1826 0.950 . S
H1800 C1829 0.950 . S
H1801 C1830 0.950 . S
H1802 C1832 0.950 . S
H1803 C1833 0.950 . S
C1804 H1786 0.951 . S
C1804 C1805 1.366 . S
C1804 C1806 1.388 . S
C1805 C1804 1.366 . S
C1805 C1809 1.385 . S
C1806 H1787 0.951 . S
C1806 C1804 1.388 . S
C1806 C1807 1.366 . S
C1807 C1806 1.366 . S
C1807 C1808 1.414 . S
C1807 C1810 1.499 . S
C1808 H1788 0.950 . S
C1808 C1807 1.414 . S
C1808 C1809 1.374 . S
C1809 H1789 0.950 . S
C1809 C1805 1.385 . S
C1809 C1808 1.374 . S
C1810 C1807 1.499 . S
C1810 C1811 1.373 . S
C1810 C1812 1.389 . S
C1811 H1790 0.950 . S
C1811 C1810 1.373 . S
C1811 C1827 1.377 . S
C1812 C1810 1.389 . S
C1812 C1813 1.524 . S
C1812 C1826 1.377 . S
C1813 C1812 1.524 . S
C1813 C1814 1.397 . S
C1813 C1818 1.363 . S
C1814 H1791 0.950 . S
C1814 C1813 1.397 . S
C1814 C1815 1.334 . S
C1815 H1792 0.950 . S
C1815 C1814 1.334 . S
C1815 C1816 1.287 . S
C1816 C1815 1.287 . S
C1816 C1817 1.524 . S
C1816 H1835 0.913 . S
C1817 H1793 0.950 . S
C1817 C1816 1.524 . S
C1817 C1818 1.415 . S
C1818 H1794 0.950 . S
C1818 C1813 1.363 . S
C1818 C1817 1.415 . S
C1819 H1795 0.951 . S
C1819 C1820 1.366 . S
C1819 C1821 1.388 . S
C1820 C1819 1.366 . S
C1820 C1824 1.385 . S
C1821 H1796 0.951 . S
C1821 C1819 1.388 . S
C1821 C1822 1.366 . S
C1822 C1821 1.366 . S
C1822 C1823 1.414 . S
C1822 C1825 1.499 . S
C1823 H1797 0.950 . S
C1823 C1822 1.414 . S
C1823 C1824 1.374 . S
C1824 H1798 0.950 . S
C1824 C1820 1.385 . S
C1824 C1823 1.374 . S
C1825 C1822 1.499 . S
C1825 C1826 1.373 . S
C1825 C1827 1.389 . S
C1826 H1799 0.950 . S
C1826 C1812 1.377 . S
C1826 C1825 1.373 . S
C1827 C1811 1.377 . S
C1827 C1825 1.389 . S
C1827 C1828 1.524 . S
C1828 C1827 1.524 . S
C1828 C1829 1.397 . S
C1828 C1833 1.363 . S
C1829 H1800 0.950 . S
C1829 C1828 1.397 . S
C1829 C1830 1.334 . S
C1830 H1801 0.950 . S
C1830 C1829 1.334 . S
C1830 C1831 1.287 . S
C1831 C1830 1.287 . S
C1831 C1832 1.524 . S
C1831 H1834 0.999 . S
C1832 H1802 0.950 . S
C1832 C1831 1.524 . S
C1832 C1833 1.415 . S
C1833 H1803 0.950 . S
C1833 C1828 1.363 . S
C1833 C1832 1.415 . S
H1834 C1831 0.999 . S
H1835 C1816 0.913 . S
H1836 C1854 0.951 . S
H1837 C1856 0.951 . S
H1838 C1858 0.950 . S
H1839 C1859 0.950 . S
H1840 C1861 0.950 . S
H1841 C1864 0.950 . S
H1842 C1865 0.950 . S
H1843 C1867 0.950 . S
H1844 C1868 0.950 . S
H1845 C1869 0.951 . S
H1846 C1871 0.951 . S
H1847 C1873 0.950 . S
H1848 C1874 0.950 . S
H1849 C1876 0.950 . S
H1850 C1879 0.950 . S
H1851 C1880 0.950 . S
H1852 C1882 0.950 . S
H1853 C1883 0.950 . S
C1854 H1836 0.951 . S
C1854 C1855 1.366 . S
C1854 C1856 1.388 . S
C1855 C1854 1.366 . S
C1855 C1859 1.385 . S
C1856 H1837 0.951 . S
C1856 C1854 1.388 . S
C1856 C1857 1.366 . S
C1857 C1856 1.366 . S
C1857 C1858 1.414 . S
C1857 C1860 1.499 . S
C1858 H1838 0.950 . S
C1858 C1857 1.414 . S
C1858 C1859 1.374 . S
C1859 H1839 0.950 . S
C1859 C1855 1.385 . S
C1859 C1858 1.374 . S
C1860 C1857 1.499 . S
C1860 C1861 1.373 . S
C1860 C1862 1.389 . S
C1861 H1840 0.950 . S
C1861 C1860 1.373 . S
C1861 C1877 1.377 . S
C1862 C1860 1.389 . S
C1862 C1863 1.524 . S
C1862 C1876 1.377 . S
C1863 C1862 1.524 . S
C1863 C1864 1.397 . S
C1863 C1868 1.363 . S
C1864 H1841 0.950 . S
C1864 C1863 1.397 . S
C1864 C1865 1.334 . S
C1865 H1842 0.950 . S
C1865 C1864 1.334 . S
C1865 C1866 1.287 . S
C1866 C1865 1.287 . S
C1866 C1867 1.524 . S
C1866 H1885 0.913 . S
C1867 H1843 0.950 . S
C1867 C1866 1.524 . S
C1867 C1868 1.415 . S
C1868 H1844 0.950 . S
C1868 C1863 1.363 . S
C1868 C1867 1.415 . S
C1869 H1845 0.951 . S
C1869 C1870 1.366 . S
C1869 C1871 1.388 . S
C1870 C1869 1.366 . S
C1870 C1874 1.385 . S
C1871 H1846 0.951 . S
C1871 C1869 1.388 . S
C1871 C1872 1.366 . S
C1872 C1871 1.366 . S
C1872 C1873 1.414 . S
C1872 C1875 1.499 . S
C1873 H1847 0.950 . S
C1873 C1872 1.414 . S
C1873 C1874 1.374 . S
C1874 H1848 0.950 . S
C1874 C1870 1.385 . S
C1874 C1873 1.374 . S
C1875 C1872 1.499 . S
C1875 C1876 1.373 . S
C1875 C1877 1.389 . S
C1876 H1849 0.950 . S
C1876 C1862 1.377 . S
C1876 C1875 1.373 . S
C1877 C1861 1.377 . S
C1877 C1875 1.389 . S
C1877 C1878 1.524 . S
C1878 C1877 1.524 . S
C1878 C1879 1.397 . S
C1878 C1883 1.363 . S
C1879 H1850 0.950 . S
C1879 C1878 1.397 . S
C1879 C1880 1.334 . S
C1880 H1851 0.950 . S
C1880 C1879 1.334 . S
C1880 C1881 1.287 . S
C1881 C1880 1.287 . S
C1881 C1882 1.524 . S
C1881 H1884 0.999 . S
C1882 H1852 0.950 . S
C1882 C1881 1.524 . S
C1882 C1883 1.415 . S
C1883 H1853 0.950 . S
C1883 C1878 1.363 . S
C1883 C1882 1.415 . S
H1884 C1881 0.999 . S
H1885 C1866 0.913 . S
H1886 C1904 0.951 . S
H1887 C1906 0.951 . S
H1888 C1908 0.950 . S
H1889 C1909 0.950 1_455 S
H1890 C1911 0.950 . S
H1891 C1914 0.950 . S
H1892 C1915 0.950 . S
H1893 C1917 0.950 . S
H1894 C1918 0.950 . S
H1895 C1919 0.951 . S
H1896 C1921 0.951 . S
H1897 C1923 0.950 . S
H1898 C1924 0.950 . S
H1899 C1926 0.950 . S
H1900 C1929 0.950 . S
H1901 C1930 0.950 . S
H1902 C1932 0.950 . S
H1903 C1933 0.950 . S
C1904 H1886 0.951 . S
C1904 C1905 1.366 . S
C1904 C1906 1.388 . S
C1905 C1904 1.366 . S
C1905 C1909 1.385 . S
C1906 H1887 0.951 . S
C1906 C1904 1.388 . S
C1906 C1907 1.366 . S
C1907 C1906 1.366 . S
C1907 C1908 1.414 . S
C1907 C1910 1.499 . S
C1908 H1888 0.950 . S
C1908 C1907 1.414 . S
C1908 C1909 1.374 . S
C1909 H1889 0.950 1_655 S
C1909 C1905 1.385 . S
C1909 C1908 1.374 . S
C1910 C1907 1.499 . S
C1910 C1911 1.373 . S
C1910 C1912 1.389 . S
C1911 H1890 0.950 . S
C1911 C1910 1.373 . S
C1911 C1927 1.377 . S
C1912 C1910 1.389 . S
C1912 C1913 1.524 . S
C1912 C1926 1.377 . S
C1913 C1912 1.524 . S
C1913 C1914 1.397 . S
C1913 C1918 1.363 . S
C1914 H1891 0.950 . S
C1914 C1913 1.397 . S
C1914 C1915 1.334 . S
C1915 H1892 0.950 . S
C1915 C1914 1.334 . S
C1915 C1916 1.287 . S
C1916 C1915 1.287 . S
C1916 C1917 1.524 . S
C1916 H1935 0.913 . S
C1917 H1893 0.950 . S
C1917 C1916 1.524 . S
C1917 C1918 1.415 . S
C1918 H1894 0.950 . S
C1918 C1913 1.363 . S
C1918 C1917 1.415 . S
C1919 H1895 0.951 . S
C1919 C1920 1.366 . S
C1919 C1921 1.388 . S
C1920 C1919 1.366 . S
C1920 C1924 1.385 . S
C1921 H1896 0.951 . S
C1921 C1919 1.388 . S
C1921 C1922 1.366 . S
C1922 C1921 1.366 . S
C1922 C1923 1.414 . S
C1922 C1925 1.499 . S
C1923 H1897 0.950 . S
C1923 C1922 1.414 . S
C1923 C1924 1.374 . S
C1924 H1898 0.950 . S
C1924 C1920 1.385 . S
C1924 C1923 1.374 . S
C1925 C1922 1.499 . S
C1925 C1926 1.373 . S
C1925 C1927 1.389 . S
C1926 H1899 0.950 . S
C1926 C1912 1.377 . S
C1926 C1925 1.373 . S
C1927 C1911 1.377 . S
C1927 C1925 1.389 . S
C1927 C1928 1.524 . S
C1928 C1927 1.524 . S
C1928 C1929 1.397 . S
C1928 C1933 1.363 . S
C1929 H1900 0.950 . S
C1929 C1928 1.397 . S
C1929 C1930 1.334 . S
C1930 H1901 0.950 . S
C1930 C1929 1.334 . S
C1930 C1931 1.289 . S
C1931 C1930 1.289 . S
C1931 C1932 1.523 1_655 S
C1931 H1934 0.997 1_655 S
C1932 H1902 0.950 . S
C1932 C1931 1.523 1_455 S
C1932 C1933 1.415 1_455 S
C1933 H1903 0.950 . S
C1933 C1928 1.363 . S
C1933 C1932 1.415 1_655 S
H1934 C1931 0.997 1_455 S
H1935 C1916 0.913 . S
H1936 C1954 0.951 . S
H1937 C1956 0.951 . S
H1938 C1958 0.950 . S
H1939 C1959 0.950 . S
H1940 C1961 0.950 . S
H1941 C1964 0.950 . S
H1942 C1965 0.950 . S
H1943 C1967 0.950 . S
H1944 C1968 0.950 . S
H1945 C1969 0.951 . S
H1946 C1971 0.951 . S
H1947 C1973 0.950 . S
H1948 C1974 0.950 . S
H1949 C1976 0.950 . S
H1950 C1979 0.950 . S
H1951 C1980 0.950 . S
H1952 C1982 0.950 . S
H1953 C1983 0.950 . S
C1954 H1936 0.951 . S
C1954 C1955 1.366 . S
C1954 C1956 1.388 . S
C1955 C1954 1.366 . S
C1955 C1959 1.385 . S
C1956 H1937 0.951 . S
C1956 C1954 1.388 . S
C1956 C1957 1.366 . S
C1957 C1956 1.366 . S
C1957 C1958 1.414 . S
C1957 C1960 1.499 . S
C1958 H1938 0.950 . S
C1958 C1957 1.414 . S
C1958 C1959 1.374 . S
C1959 H1939 0.950 . S
C1959 C1955 1.385 . S
C1959 C1958 1.374 . S
C1960 C1957 1.499 . S
C1960 C1961 1.373 . S
C1960 C1962 1.389 . S
C1961 H1940 0.950 . S
C1961 C1960 1.373 . S
C1961 C1977 1.377 . S
C1962 C1960 1.389 . S
C1962 C1963 1.524 . S
C1962 C1976 1.377 . S
C1963 C1962 1.524 . S
C1963 C1964 1.397 . S
C1963 C1968 1.363 . S
C1964 H1941 0.950 . S
C1964 C1963 1.397 . S
C1964 C1965 1.334 . S
C1965 H1942 0.950 . S
C1965 C1964 1.334 . S
C1965 C1966 1.287 . S
C1966 C1965 1.287 . S
C1966 C1967 1.524 . S
C1966 H1985 0.913 . S
C1967 H1943 0.950 . S
C1967 C1966 1.524 . S
C1967 C1968 1.415 . S
C1968 H1944 0.950 . S
C1968 C1963 1.363 . S
C1968 C1967 1.415 . S
C1969 H1945 0.951 . S
C1969 C1970 1.366 . S
C1969 C1971 1.388 . S
C1970 C1969 1.366 . S
C1970 C1974 1.385 . S
C1971 H1946 0.951 . S
C1971 C1969 1.388 . S
C1971 C1972 1.366 . S
C1972 C1971 1.366 . S
C1972 C1973 1.414 . S
C1972 C1975 1.499 . S
C1973 H1947 0.950 . S
C1973 C1972 1.414 . S
C1973 C1974 1.374 . S
C1974 H1948 0.950 . S
C1974 C1970 1.385 . S
C1974 C1973 1.374 . S
C1975 C1972 1.499 . S
C1975 C1976 1.373 . S
C1975 C1977 1.389 . S
C1976 H1949 0.950 . S
C1976 C1962 1.377 . S
C1976 C1975 1.373 . S
C1977 C1961 1.377 . S
C1977 C1975 1.389 . S
C1977 C1978 1.524 . S
C1978 C1977 1.524 . S
C1978 C1979 1.397 . S
C1978 C1983 1.363 . S
C1979 H1950 0.950 . S
C1979 C1978 1.397 . S
C1979 C1980 1.334 . S
C1980 H1951 0.950 . S
C1980 C1979 1.334 . S
C1980 C1981 1.287 . S
C1981 C1980 1.287 . S
C1981 C1982 1.524 . S
C1981 H1984 0.999 . S
C1982 H1952 0.950 . S
C1982 C1981 1.524 . S
C1982 C1983 1.415 . S
C1983 H1953 0.950 . S
C1983 C1978 1.363 . S
C1983 C1982 1.415 . S
H1984 C1981 0.999 . S
H1985 C1966 0.913 . S
H1986 C2004 0.951 . S
H1987 C2006 0.951 . S
H1988 C2008 0.950 . S
H1989 C2009 0.950 . S
H1990 C2011 0.950 . S
H1991 C2014 0.950 . S
H1992 C2015 0.950 . S
H1993 C2017 0.950 . S
H1994 C2018 0.950 . S
H1995 C2019 0.951 . S
H1996 C2021 0.951 . S
H1997 C2023 0.950 . S
H1998 C2024 0.950 . S
H1999 C2026 0.950 . S
H2000 C2029 0.950 . S
H2001 C2030 0.950 . S
H2002 C2032 0.950 . S
H2003 C2033 0.950 . S
C2004 H1986 0.951 . S
C2004 C2005 1.366 . S
C2004 C2006 1.388 . S
C2005 C2004 1.366 . S
C2005 C2009 1.385 . S
C2006 H1987 0.951 . S
C2006 C2004 1.388 . S
C2006 C2007 1.366 . S
C2007 C2006 1.366 . S
C2007 C2008 1.414 . S
C2007 C2010 1.499 . S
C2008 H1988 0.950 . S
C2008 C2007 1.414 . S
C2008 C2009 1.374 . S
C2009 H1989 0.950 . S
C2009 C2005 1.385 . S
C2009 C2008 1.374 . S
C2010 C2007 1.499 . S
C2010 C2011 1.373 . S
C2010 C2012 1.389 . S
C2011 H1990 0.950 . S
C2011 C2010 1.373 . S
C2011 C2027 1.377 . S
C2012 C2010 1.389 . S
C2012 C2013 1.524 . S
C2012 C2026 1.377 . S
C2013 C2012 1.524 . S
C2013 C2014 1.397 . S
C2013 C2018 1.363 . S
C2014 H1991 0.950 . S
C2014 C2013 1.397 . S
C2014 C2015 1.334 1_556 S
C2015 H1992 0.950 . S
C2015 C2014 1.334 1_554 S
C2015 C2016 1.287 . S
C2016 C2015 1.287 . S
C2016 C2017 1.524 1_554 S
C2016 H2035 0.913 . S
C2017 H1993 0.950 . S
C2017 C2016 1.524 1_556 S
C2017 C2018 1.415 . S
C2018 H1994 0.950 . S
C2018 C2013 1.363 . S
C2018 C2017 1.415 . S
C2019 H1995 0.951 . S
C2019 C2020 1.366 . S
C2019 C2021 1.388 . S
C2020 C2019 1.366 . S
C2020 C2024 1.385 . S
C2021 H1996 0.951 . S
C2021 C2019 1.388 . S
C2021 C2022 1.366 . S
C2022 C2021 1.366 . S
C2022 C2023 1.414 . S
C2022 C2025 1.499 . S
C2023 H1997 0.950 . S
C2023 C2022 1.414 . S
C2023 C2024 1.374 . S
C2024 H1998 0.950 . S
C2024 C2020 1.385 . S
C2024 C2023 1.374 . S
C2025 C2022 1.499 . S
C2025 C2026 1.373 . S
C2025 C2027 1.389 . S
C2026 H1999 0.950 . S
C2026 C2012 1.377 . S
C2026 C2025 1.373 . S
C2027 C2011 1.377 . S
C2027 C2025 1.389 . S
C2027 C2028 1.524 . S
C2028 C2027 1.524 . S
C2028 C2029 1.397 . S
C2028 C2033 1.363 . S
C2029 H2000 0.950 . S
C2029 C2028 1.397 . S
C2029 C2030 1.334 . S
C2030 H2001 0.950 . S
C2030 C2029 1.334 . S
C2030 C2031 1.287 . S
C2031 C2030 1.287 . S
C2031 C2032 1.524 . S
C2031 H2034 0.999 . S
C2032 H2002 0.950 . S
C2032 C2031 1.524 . S
C2032 C2033 1.415 . S
C2033 H2003 0.950 . S
C2033 C2028 1.363 . S
C2033 C2032 1.415 . S
H2034 C2031 0.999 . S
H2035 C2016 0.913 . S
H2036 C2054 0.951 . S
H2037 C2056 0.951 . S
H2038 C2058 0.950 . S
H2039 C2059 0.950 . S
H2040 C2061 0.950 . S
H2041 C2064 0.950 . S
H2042 C2065 0.950 . S
H2043 C2067 0.950 . S
H2044 C2068 0.950 . S
H2045 C2069 0.951 . S
H2046 C2071 0.951 . S
H2047 C2073 0.950 . S
H2048 C2074 0.950 . S
H2049 C2076 0.950 . S
H2050 C2079 0.950 . S
H2051 C2080 0.950 . S
H2052 C2082 0.950 . S
H2053 C2083 0.950 . S
C2054 H2036 0.951 . S
C2054 C2055 1.366 . S
C2054 C2056 1.388 . S
C2055 C2054 1.366 . S
C2055 C2059 1.385 . S
C2056 H2037 0.951 . S
C2056 C2054 1.388 . S
C2056 C2057 1.366 . S
C2057 C2056 1.366 . S
C2057 C2058 1.414 . S
C2057 C2060 1.499 . S
C2058 H2038 0.950 . S
C2058 C2057 1.414 . S
C2058 C2059 1.374 . S
C2059 H2039 0.950 . S
C2059 C2055 1.385 . S
C2059 C2058 1.374 . S
C2060 C2057 1.499 . S
C2060 C2061 1.373 . S
C2060 C2062 1.389 . S
C2061 H2040 0.950 . S
C2061 C2060 1.373 . S
C2061 C2077 1.377 . S
C2062 C2060 1.389 . S
C2062 C2063 1.524 . S
C2062 C2076 1.377 . S
C2063 C2062 1.524 . S
C2063 C2064 1.397 . S
C2063 C2068 1.363 . S
C2064 H2041 0.950 . S
C2064 C2063 1.397 . S
C2064 C2065 1.334 . S
C2065 H2042 0.950 . S
C2065 C2064 1.334 . S
C2065 C2066 1.287 . S
C2066 C2065 1.287 . S
C2066 C2067 1.524 . S
C2066 H2085 0.913 . S
C2067 H2043 0.950 . S
C2067 C2066 1.524 . S
C2067 C2068 1.415 . S
C2068 H2044 0.950 . S
C2068 C2063 1.363 . S
C2068 C2067 1.415 . S
C2069 H2045 0.951 . S
C2069 C2070 1.366 . S
C2069 C2071 1.388 . S
C2070 C2069 1.366 . S
C2070 C2074 1.385 . S
C2071 H2046 0.951 . S
C2071 C2069 1.388 . S
C2071 C2072 1.366 . S
C2072 C2071 1.366 . S
C2072 C2073 1.414 . S
C2072 C2075 1.499 . S
C2073 H2047 0.950 . S
C2073 C2072 1.414 . S
C2073 C2074 1.374 . S
C2074 H2048 0.950 . S
C2074 C2070 1.385 . S
C2074 C2073 1.374 . S
C2075 C2072 1.499 . S
C2075 C2076 1.373 . S
C2075 C2077 1.389 . S
C2076 H2049 0.950 . S
C2076 C2062 1.377 . S
C2076 C2075 1.373 . S
C2077 C2061 1.377 . S
C2077 C2075 1.389 . S
C2077 C2078 1.524 . S
C2078 C2077 1.524 . S
C2078 C2079 1.397 . S
C2078 C2083 1.363 . S
C2079 H2050 0.950 . S
C2079 C2078 1.397 . S
C2079 C2080 1.334 . S
C2080 H2051 0.950 . S
C2080 C2079 1.334 . S
C2080 C2081 1.287 . S
C2081 C2080 1.287 . S
C2081 C2082 1.524 . S
C2081 H2084 0.999 . S
C2082 H2052 0.950 . S
C2082 C2081 1.524 . S
C2082 C2083 1.415 . S
C2083 H2053 0.950 . S
C2083 C2078 1.363 . S
C2083 C2082 1.415 . S
H2084 C2081 0.999 . S
H2085 C2066 0.913 . S
H2086 C2104 0.951 . S
H2087 C2106 0.951 . S
H2088 C2108 0.950 . S
H2089 C2109 0.950 . S
H2090 C2111 0.950 . S
H2091 C2114 0.950 . S
H2092 C2115 0.950 . S
H2093 C2117 0.950 . S
H2094 C2118 0.950 . S
H2095 C2119 0.951 . S
H2096 C2121 0.951 . S
H2097 C2123 0.950 . S
H2098 C2124 0.950 . S
H2099 C2126 0.950 . S
H2100 C2129 0.950 . S
H2101 C2130 0.950 . S
H2102 C2132 0.950 . S
H2103 C2133 0.950 . S
C2104 H2086 0.951 . S
C2104 C2105 1.366 . S
C2104 C2106 1.388 . S
C2105 C2104 1.366 . S
C2105 C2109 1.385 . S
C2106 H2087 0.951 . S
C2106 C2104 1.388 . S
C2106 C2107 1.366 . S
C2107 C2106 1.366 . S
C2107 C2108 1.414 . S
C2107 C2110 1.499 . S
C2108 H2088 0.950 . S
C2108 C2107 1.414 . S
C2108 C2109 1.374 . S
C2109 H2089 0.950 . S
C2109 C2105 1.385 . S
C2109 C2108 1.374 . S
C2110 C2107 1.499 . S
C2110 C2111 1.373 . S
C2110 C2112 1.389 . S
C2111 H2090 0.950 . S
C2111 C2110 1.373 . S
C2111 C2127 1.377 . S
C2112 C2110 1.389 . S
C2112 C2113 1.524 . S
C2112 C2126 1.377 . S
C2113 C2112 1.524 . S
C2113 C2114 1.397 . S
C2113 C2118 1.363 . S
C2114 H2091 0.950 . S
C2114 C2113 1.397 . S
C2114 C2115 1.334 . S
C2115 H2092 0.950 . S
C2115 C2114 1.334 . S
C2115 C2116 1.287 . S
C2116 C2115 1.287 . S
C2116 C2117 1.524 . S
C2116 H2135 0.913 . S
C2117 H2093 0.950 . S
C2117 C2116 1.524 . S
C2117 C2118 1.415 . S
C2118 H2094 0.950 . S
C2118 C2113 1.363 . S
C2118 C2117 1.415 . S
C2119 H2095 0.951 . S
C2119 C2120 1.366 . S
C2119 C2121 1.388 . S
C2120 C2119 1.366 . S
C2120 C2124 1.385 . S
C2121 H2096 0.951 . S
C2121 C2119 1.388 . S
C2121 C2122 1.366 . S
C2122 C2121 1.366 . S
C2122 C2123 1.414 . S
C2122 C2125 1.499 . S
C2123 H2097 0.950 . S
C2123 C2122 1.414 . S
C2123 C2124 1.374 . S
C2124 H2098 0.950 . S
C2124 C2120 1.385 . S
C2124 C2123 1.374 . S
C2125 C2122 1.499 . S
C2125 C2126 1.373 . S
C2125 C2127 1.389 . S
C2126 H2099 0.950 . S
C2126 C2112 1.377 . S
C2126 C2125 1.373 . S
C2127 C2111 1.377 . S
C2127 C2125 1.389 . S
C2127 C2128 1.524 . S
C2128 C2127 1.524 . S
C2128 C2129 1.397 . S
C2128 C2133 1.363 . S
C2129 H2100 0.950 . S
C2129 C2128 1.397 . S
C2129 C2130 1.334 . S
C2130 H2101 0.950 . S
C2130 C2129 1.334 . S
C2130 C2131 1.287 . S
C2131 C2130 1.287 . S
C2131 C2132 1.524 . S
C2131 H2134 0.999 . S
C2132 H2102 0.950 . S
C2132 C2131 1.524 . S
C2132 C2133 1.415 . S
C2133 H2103 0.950 . S
C2133 C2128 1.363 . S
C2133 C2132 1.415 . S
H2134 C2131 0.999 . S
H2135 C2116 0.913 . S
H2136 C2154 0.951 . S
H2137 C2156 0.951 . S
H2138 C2158 0.950 . S
H2139 C2159 0.950 . S
H2140 C2161 0.950 . S
H2141 C2164 0.950 . S
H2142 C2165 0.950 . S
H2143 C2167 0.950 . S
H2144 C2168 0.950 . S
H2145 C2169 0.951 . S
H2146 C2171 0.951 . S
H2147 C2173 0.950 . S
H2148 C2174 0.950 . S
H2149 C2176 0.950 . S
H2150 C2179 0.950 . S
H2151 C2180 0.950 . S
H2152 C2182 0.950 . S
H2153 C2183 0.950 . S
C2154 H2136 0.951 . S
C2154 C2155 1.366 . S
C2154 C2156 1.388 . S
C2155 C2154 1.366 . S
C2155 C2159 1.385 . S
C2156 H2137 0.951 . S
C2156 C2154 1.388 . S
C2156 C2157 1.366 . S
C2157 C2156 1.366 . S
C2157 C2158 1.414 . S
C2157 C2160 1.499 . S
C2158 H2138 0.950 . S
C2158 C2157 1.414 . S
C2158 C2159 1.374 . S
C2159 H2139 0.950 . S
C2159 C2155 1.385 . S
C2159 C2158 1.374 . S
C2160 C2157 1.499 . S
C2160 C2161 1.373 . S
C2160 C2162 1.389 . S
C2161 H2140 0.950 . S
C2161 C2160 1.373 . S
C2161 C2177 1.377 . S
C2162 C2160 1.389 . S
C2162 C2163 1.524 . S
C2162 C2176 1.377 . S
C2163 C2162 1.524 . S
C2163 C2164 1.397 . S
C2163 C2168 1.363 . S
C2164 H2141 0.950 . S
C2164 C2163 1.397 . S
C2164 C2165 1.334 . S
C2165 H2142 0.950 . S
C2165 C2164 1.334 . S
C2165 C2166 1.287 . S
C2166 C2165 1.287 . S
C2166 C2167 1.524 . S
C2166 H2185 0.913 . S
C2167 H2143 0.950 . S
C2167 C2166 1.524 . S
C2167 C2168 1.415 . S
C2168 H2144 0.950 . S
C2168 C2163 1.363 . S
C2168 C2167 1.415 . S
C2169 H2145 0.951 . S
C2169 C2170 1.366 . S
C2169 C2171 1.388 . S
C2170 C2169 1.366 . S
C2170 C2174 1.385 . S
C2171 H2146 0.951 . S
C2171 C2169 1.388 . S
C2171 C2172 1.366 . S
C2172 C2171 1.366 . S
C2172 C2173 1.414 . S
C2172 C2175 1.499 . S
C2173 H2147 0.950 . S
C2173 C2172 1.414 . S
C2173 C2174 1.374 . S
C2174 H2148 0.950 . S
C2174 C2170 1.385 . S
C2174 C2173 1.374 . S
C2175 C2172 1.499 . S
C2175 C2176 1.373 . S
C2175 C2177 1.389 . S
C2176 H2149 0.950 . S
C2176 C2162 1.377 . S
C2176 C2175 1.373 . S
C2177 C2161 1.377 . S
C2177 C2175 1.389 . S
C2177 C2178 1.524 . S
C2178 C2177 1.524 . S
C2178 C2179 1.397 . S
C2178 C2183 1.363 . S
C2179 H2150 0.950 . S
C2179 C2178 1.397 . S
C2179 C2180 1.334 . S
C2180 H2151 0.950 . S
C2180 C2179 1.334 . S
C2180 C2181 1.287 . S
C2181 C2180 1.287 . S
C2181 C2182 1.524 . S
C2181 H2184 0.999 . S
C2182 H2152 0.950 . S
C2182 C2181 1.524 . S
C2182 C2183 1.415 . S
C2183 H2153 0.950 . S
C2183 C2178 1.363 . S
C2183 C2182 1.415 . S
H2184 C2181 0.999 . S
H2185 C2166 0.913 . S
H2186 C2204 0.951 . S
H2187 C2206 0.951 . S
H2188 C2208 0.950 . S
H2189 C2209 0.950 . S
H2190 C2211 0.950 . S
H2191 C2214 0.950 . S
H2192 C2215 0.950 . S
H2193 C2217 0.950 . S
H2194 C2218 0.950 . S
H2195 C2219 0.951 . S
H2196 C2221 0.951 . S
H2197 C2223 0.950 . S
H2198 C2224 0.950 . S
H2199 C2226 0.950 . S
H2200 C2229 0.950 . S
H2201 C2230 0.950 . S
H2202 C2232 0.950 . S
H2203 C2233 0.950 . S
C2204 H2186 0.951 . S
C2204 C2205 1.366 . S
C2204 C2206 1.388 . S
C2205 C2204 1.366 . S
C2205 C2209 1.385 . S
C2206 H2187 0.951 . S
C2206 C2204 1.388 . S
C2206 C2207 1.366 . S
C2207 C2206 1.366 . S
C2207 C2208 1.414 . S
C2207 C2210 1.499 . S
C2208 H2188 0.950 . S
C2208 C2207 1.414 . S
C2208 C2209 1.374 . S
C2209 H2189 0.950 . S
C2209 C2205 1.385 . S
C2209 C2208 1.374 . S
C2210 C2207 1.499 . S
C2210 C2211 1.373 . S
C2210 C2212 1.389 . S
C2211 H2190 0.950 . S
C2211 C2210 1.373 . S
C2211 C2227 1.377 . S
C2212 C2210 1.389 . S
C2212 C2213 1.524 . S
C2212 C2226 1.377 . S
C2213 C2212 1.524 . S
C2213 C2214 1.397 . S
C2213 C2218 1.363 . S
C2214 H2191 0.950 . S
C2214 C2213 1.397 . S
C2214 C2215 1.334 . S
C2215 H2192 0.950 . S
C2215 C2214 1.334 . S
C2215 C2216 1.287 . S
C2216 C2215 1.287 . S
C2216 C2217 1.524 . S
C2216 H2235 0.913 . S
C2217 H2193 0.950 . S
C2217 C2216 1.524 . S
C2217 C2218 1.415 . S
C2218 H2194 0.950 . S
C2218 C2213 1.363 . S
C2218 C2217 1.415 . S
C2219 H2195 0.951 . S
C2219 C2220 1.366 . S
C2219 C2221 1.388 . S
C2220 C2219 1.366 . S
C2220 C2224 1.385 . S
C2221 H2196 0.951 . S
C2221 C2219 1.388 . S
C2221 C2222 1.366 . S
C2222 C2221 1.366 . S
C2222 C2223 1.414 . S
C2222 C2225 1.499 . S
C2223 H2197 0.950 . S
C2223 C2222 1.414 . S
C2223 C2224 1.374 . S
C2224 H2198 0.950 . S
C2224 C2220 1.385 . S
C2224 C2223 1.374 . S
C2225 C2222 1.499 . S
C2225 C2226 1.373 . S
C2225 C2227 1.389 . S
C2226 H2199 0.950 . S
C2226 C2212 1.377 . S
C2226 C2225 1.373 . S
C2227 C2211 1.377 . S
C2227 C2225 1.389 . S
C2227 C2228 1.524 . S
C2228 C2227 1.524 . S
C2228 C2229 1.397 . S
C2228 C2233 1.363 . S
C2229 H2200 0.950 . S
C2229 C2228 1.397 . S
C2229 C2230 1.334 . S
C2230 H2201 0.950 . S
C2230 C2229 1.334 . S
C2230 C2231 1.287 . S
C2231 C2230 1.287 . S
C2231 C2232 1.524 . S
C2231 H2234 0.999 . S
C2232 H2202 0.950 . S
C2232 C2231 1.524 . S
C2232 C2233 1.415 . S
C2233 H2203 0.950 . S
C2233 C2228 1.363 . S
C2233 C2232 1.415 . S
H2234 C2231 0.999 . S
H2235 C2216 0.913 . S
H2236 C2254 0.951 . S
H2237 C2256 0.951 . S
H2238 C2258 0.950 . S
H2239 C2259 0.950 . S
H2240 C2261 0.950 . S
H2241 C2264 0.950 . S
H2242 C2265 0.950 . S
H2243 C2267 0.950 . S
H2244 C2268 0.950 . S
H2245 C2269 0.951 . S
H2246 C2271 0.951 . S
H2247 C2273 0.950 . S
H2248 C2274 0.950 . S
H2249 C2276 0.950 . S
H2250 C2279 0.950 . S
H2251 C2280 0.950 . S
H2252 C2282 0.950 . S
H2253 C2283 0.950 . S
C2254 H2236 0.951 . S
C2254 C2255 1.366 . S
C2254 C2256 1.388 . S
C2255 C2254 1.366 . S
C2255 C2259 1.385 . S
C2256 H2237 0.951 . S
C2256 C2254 1.388 . S
C2256 C2257 1.366 . S
C2257 C2256 1.366 . S
C2257 C2258 1.414 . S
C2257 C2260 1.499 . S
C2258 H2238 0.950 . S
C2258 C2257 1.414 . S
C2258 C2259 1.374 . S
C2259 H2239 0.950 . S
C2259 C2255 1.385 . S
C2259 C2258 1.374 . S
C2260 C2257 1.499 . S
C2260 C2261 1.373 . S
C2260 C2262 1.389 . S
C2261 H2240 0.950 . S
C2261 C2260 1.373 . S
C2261 C2277 1.377 . S
C2262 C2260 1.389 . S
C2262 C2263 1.524 . S
C2262 C2276 1.377 . S
C2263 C2262 1.524 . S
C2263 C2264 1.397 . S
C2263 C2268 1.363 . S
C2264 H2241 0.950 . S
C2264 C2263 1.397 . S
C2264 C2265 1.334 . S
C2265 H2242 0.950 . S
C2265 C2264 1.334 . S
C2265 C2266 1.287 . S
C2266 C2265 1.287 . S
C2266 C2267 1.524 . S
C2266 H2285 0.913 . S
C2267 H2243 0.950 . S
C2267 C2266 1.524 . S
C2267 C2268 1.415 . S
C2268 H2244 0.950 . S
C2268 C2263 1.363 . S
C2268 C2267 1.415 . S
C2269 H2245 0.951 . S
C2269 C2270 1.366 . S
C2269 C2271 1.388 . S
C2270 C2269 1.366 . S
C2270 C2274 1.385 . S
C2271 H2246 0.951 . S
C2271 C2269 1.388 . S
C2271 C2272 1.366 . S
C2272 C2271 1.366 . S
C2272 C2273 1.414 . S
C2272 C2275 1.499 . S
C2273 H2247 0.950 . S
C2273 C2272 1.414 . S
C2273 C2274 1.374 . S
C2274 H2248 0.950 . S
C2274 C2270 1.385 . S
C2274 C2273 1.374 . S
C2275 C2272 1.499 . S
C2275 C2276 1.373 . S
C2275 C2277 1.389 . S
C2276 H2249 0.950 . S
C2276 C2262 1.377 . S
C2276 C2275 1.373 . S
C2277 C2261 1.377 . S
C2277 C2275 1.389 . S
C2277 C2278 1.524 . S
C2278 C2277 1.524 . S
C2278 C2279 1.397 . S
C2278 C2283 1.363 . S
C2279 H2250 0.950 . S
C2279 C2278 1.397 . S
C2279 C2280 1.334 . S
C2280 H2251 0.950 . S
C2280 C2279 1.334 . S
C2280 C2281 1.287 . S
C2281 C2280 1.287 . S
C2281 C2282 1.524 . S
C2281 H2284 0.999 . S
C2282 H2252 0.950 . S
C2282 C2281 1.524 . S
C2282 C2283 1.415 . S
C2283 H2253 0.950 . S
C2283 C2278 1.363 . S
C2283 C2282 1.415 . S
H2284 C2281 0.999 . S
H2285 C2266 0.913 . S
H2286 C2304 0.951 . S
H2287 C2306 0.951 . S
H2288 C2308 0.950 . S
H2289 C2309 0.950 . S
H2290 C2311 0.950 . S
H2291 C2314 0.950 . S
H2292 C2315 0.950 . S
H2293 C2317 0.950 . S
H2294 C2318 0.950 . S
H2295 C2319 0.951 . S
H2296 C2321 0.951 . S
H2297 C2323 0.950 . S
H2298 C2324 0.950 . S
H2299 C2326 0.950 . S
H2300 C2329 0.950 . S
H2301 C2330 0.950 . S
H2302 C2332 0.950 . S
H2303 C2333 0.950 . S
C2304 H2286 0.951 . S
C2304 C2305 1.366 . S
C2304 C2306 1.388 . S
C2305 C2304 1.366 . S
C2305 C2309 1.385 . S
C2306 H2287 0.951 . S
C2306 C2304 1.388 . S
C2306 C2307 1.366 . S
C2307 C2306 1.366 . S
C2307 C2308 1.414 . S
C2307 C2310 1.499 . S
C2308 H2288 0.950 . S
C2308 C2307 1.414 . S
C2308 C2309 1.374 . S
C2309 H2289 0.950 . S
C2309 C2305 1.385 . S
C2309 C2308 1.374 . S
C2310 C2307 1.499 . S
C2310 C2311 1.373 . S
C2310 C2312 1.389 . S
C2311 H2290 0.950 . S
C2311 C2310 1.373 . S
C2311 C2327 1.377 . S
C2312 C2310 1.389 . S
C2312 C2313 1.524 . S
C2312 C2326 1.377 . S
C2313 C2312 1.524 . S
C2313 C2314 1.397 . S
C2313 C2318 1.363 . S
C2314 H2291 0.950 . S
C2314 C2313 1.397 . S
C2314 C2315 1.334 . S
C2315 H2292 0.950 . S
C2315 C2314 1.334 . S
C2315 C2316 1.287 . S
C2316 C2315 1.287 . S
C2316 C2317 1.524 . S
C2316 H2335 0.913 . S
C2317 H2293 0.950 . S
C2317 C2316 1.524 . S
C2317 C2318 1.415 . S
C2318 H2294 0.950 . S
C2318 C2313 1.363 . S
C2318 C2317 1.415 . S
C2319 H2295 0.951 . S
C2319 C2320 1.366 . S
C2319 C2321 1.388 . S
C2320 C2319 1.366 . S
C2320 C2324 1.385 . S
C2321 H2296 0.951 . S
C2321 C2319 1.388 . S
C2321 C2322 1.366 . S
C2322 C2321 1.366 . S
C2322 C2323 1.414 . S
C2322 C2325 1.499 . S
C2323 H2297 0.950 . S
C2323 C2322 1.414 . S
C2323 C2324 1.374 . S
C2324 H2298 0.950 . S
C2324 C2320 1.385 . S
C2324 C2323 1.374 . S
C2325 C2322 1.499 . S
C2325 C2326 1.373 . S
C2325 C2327 1.389 . S
C2326 H2299 0.950 . S
C2326 C2312 1.377 . S
C2326 C2325 1.373 . S
C2327 C2311 1.377 . S
C2327 C2325 1.389 . S
C2327 C2328 1.524 . S
C2328 C2327 1.524 . S
C2328 C2329 1.397 . S
C2328 C2333 1.363 . S
C2329 H2300 0.950 . S
C2329 C2328 1.397 . S
C2329 C2330 1.334 . S
C2330 H2301 0.950 . S
C2330 C2329 1.334 . S
C2330 C2331 1.287 . S
C2331 C2330 1.287 . S
C2331 C2332 1.524 . S
C2331 H2334 0.999 . S
C2332 H2302 0.950 . S
C2332 C2331 1.524 . S
C2332 C2333 1.415 . S
C2333 H2303 0.950 . S
C2333 C2328 1.363 . S
C2333 C2332 1.415 . S
H2334 C2331 0.999 . S
H2335 C2316 0.913 . S
H2336 C2354 0.951 . S
H2337 C2356 0.951 . S
H2338 C2358 0.950 . S
H2339 C2359 0.950 . S
H2340 C2361 0.950 . S
H2341 C2364 0.950 . S
H2342 C2365 0.950 . S
H2343 C2367 0.950 . S
H2344 C2368 0.950 . S
H2345 C2369 0.951 . S
H2346 C2371 0.951 . S
H2347 C2373 0.950 . S
H2348 C2374 0.950 . S
H2349 C2376 0.950 . S
H2350 C2379 0.950 . S
H2351 C2380 0.950 . S
H2352 C2382 0.950 . S
H2353 C2383 0.950 . S
C2354 H2336 0.951 . S
C2354 C2355 1.366 . S
C2354 C2356 1.388 . S
C2355 C2354 1.366 . S
C2355 C2359 1.385 . S
C2356 H2337 0.951 . S
C2356 C2354 1.388 . S
C2356 C2357 1.366 . S
C2357 C2356 1.366 . S
C2357 C2358 1.414 . S
C2357 C2360 1.499 . S
C2358 H2338 0.950 . S
C2358 C2357 1.414 . S
C2358 C2359 1.374 . S
C2359 H2339 0.950 . S
C2359 C2355 1.385 . S
C2359 C2358 1.374 . S
C2360 C2357 1.499 . S
C2360 C2361 1.373 . S
C2360 C2362 1.389 . S
C2361 H2340 0.950 . S
C2361 C2360 1.373 . S
C2361 C2377 1.377 . S
C2362 C2360 1.389 . S
C2362 C2363 1.524 . S
C2362 C2376 1.377 . S
C2363 C2362 1.524 . S
C2363 C2364 1.397 . S
C2363 C2368 1.363 . S
C2364 H2341 0.950 . S
C2364 C2363 1.397 . S
C2364 C2365 1.334 1_455 S
C2365 H2342 0.950 . S
C2365 C2364 1.334 1_655 S
C2365 C2366 1.287 . S
C2366 C2365 1.287 . S
C2366 C2367 1.524 . S
C2366 H2385 0.913 . S
C2367 H2343 0.950 . S
C2367 C2366 1.524 . S
C2367 C2368 1.415 1_655 S
C2368 H2344 0.950 . S
C2368 C2363 1.363 . S
C2368 C2367 1.415 1_455 S
C2369 H2345 0.951 . S
C2369 C2370 1.366 . S
C2369 C2371 1.388 . S
C2370 C2369 1.366 . S
C2370 C2374 1.385 . S
C2371 H2346 0.951 . S
C2371 C2369 1.388 . S
C2371 C2372 1.366 . S
C2372 C2371 1.366 . S
C2372 C2373 1.414 . S
C2372 C2375 1.499 . S
C2373 H2347 0.950 . S
C2373 C2372 1.414 . S
C2373 C2374 1.374 . S
C2374 H2348 0.950 . S
C2374 C2370 1.385 . S
C2374 C2373 1.374 . S
C2375 C2372 1.499 . S
C2375 C2376 1.373 . S
C2375 C2377 1.389 . S
C2376 H2349 0.950 . S
C2376 C2362 1.377 . S
C2376 C2375 1.373 . S
C2377 C2361 1.377 . S
C2377 C2375 1.389 . S
C2377 C2378 1.524 . S
C2378 C2377 1.524 . S
C2378 C2379 1.397 . S
C2378 C2383 1.363 . S
C2379 H2350 0.950 . S
C2379 C2378 1.397 . S
C2379 C2380 1.334 . S
C2380 H2351 0.950 . S
C2380 C2379 1.334 . S
C2380 C2381 1.287 . S
C2381 C2380 1.287 . S
C2381 C2382 1.524 . S
C2381 H2384 0.999 . S
C2382 H2352 0.950 . S
C2382 C2381 1.524 . S
C2382 C2383 1.415 . S
C2383 H2353 0.950 . S
C2383 C2378 1.363 . S
C2383 C2382 1.415 . S
H2384 C2381 0.999 . S
H2385 C2366 0.913 . S
H2386 C2404 0.951 . S
H2387 C2406 0.951 . S
H2388 C2408 0.950 . S
H2389 C2409 0.950 . S
H2390 C2411 0.950 . S
H2391 C2414 0.950 . S
H2392 C2415 0.950 . S
H2393 C2417 0.950 . S
H2394 C2418 0.950 . S
H2395 C2419 0.951 . S
H2396 C2421 0.951 . S
H2397 C2423 0.950 . S
H2398 C2424 0.950 . S
H2399 C2426 0.950 . S
H2400 C2429 0.950 . S
H2401 C2430 0.950 . S
H2402 C2432 0.950 . S
H2403 C2433 0.950 . S
C2404 H2386 0.951 . S
C2404 C2405 1.366 . S
C2404 C2406 1.388 . S
C2405 C2404 1.366 . S
C2405 C2409 1.385 . S
C2406 H2387 0.951 . S
C2406 C2404 1.388 . S
C2406 C2407 1.366 . S
C2407 C2406 1.366 . S
C2407 C2408 1.414 . S
C2407 C2410 1.499 . S
C2408 H2388 0.950 . S
C2408 C2407 1.414 . S
C2408 C2409 1.374 . S
C2409 H2389 0.950 . S
C2409 C2405 1.385 . S
C2409 C2408 1.374 . S
C2410 C2407 1.499 . S
C2410 C2411 1.373 . S
C2410 C2412 1.389 . S
C2411 H2390 0.950 . S
C2411 C2410 1.373 . S
C2411 C2427 1.377 . S
C2412 C2410 1.389 . S
C2412 C2413 1.524 . S
C2412 C2426 1.377 . S
C2413 C2412 1.524 . S
C2413 C2414 1.397 . S
C2413 C2418 1.363 . S
C2414 H2391 0.950 . S
C2414 C2413 1.397 . S
C2414 C2415 1.334 . S
C2415 H2392 0.950 . S
C2415 C2414 1.334 . S
C2415 C2416 1.287 . S
C2416 C2415 1.287 . S
C2416 C2417 1.524 . S
C2416 H2435 0.913 . S
C2417 H2393 0.950 . S
C2417 C2416 1.524 . S
C2417 C2418 1.415 . S
C2418 H2394 0.950 . S
C2418 C2413 1.363 . S
C2418 C2417 1.415 . S
C2419 H2395 0.951 . S
C2419 C2420 1.366 . S
C2419 C2421 1.388 . S
C2420 C2419 1.366 . S
C2420 C2424 1.385 . S
C2421 H2396 0.951 . S
C2421 C2419 1.388 . S
C2421 C2422 1.366 . S
C2422 C2421 1.366 . S
C2422 C2423 1.414 . S
C2422 C2425 1.499 . S
C2423 H2397 0.950 . S
C2423 C2422 1.414 . S
C2423 C2424 1.374 . S
C2424 H2398 0.950 . S
C2424 C2420 1.385 . S
C2424 C2423 1.374 . S
C2425 C2422 1.499 . S
C2425 C2426 1.373 . S
C2425 C2427 1.389 . S
C2426 H2399 0.950 . S
C2426 C2412 1.377 . S
C2426 C2425 1.373 . S
C2427 C2411 1.377 . S
C2427 C2425 1.389 . S
C2427 C2428 1.524 . S
C2428 C2427 1.524 . S
C2428 C2429 1.397 . S
C2428 C2433 1.363 . S
C2429 H2400 0.950 . S
C2429 C2428 1.397 . S
C2429 C2430 1.334 . S
C2430 H2401 0.950 . S
C2430 C2429 1.334 . S
C2430 C2431 1.287 . S
C2431 C2430 1.287 . S
C2431 C2432 1.524 . S
C2431 H2434 0.999 . S
C2432 H2402 0.950 . S
C2432 C2431 1.524 . S
C2432 C2433 1.415 . S
C2433 H2403 0.950 . S
C2433 C2428 1.363 . S
C2433 C2432 1.415 . S
H2434 C2431 0.999 . S
H2435 C2416 0.913 . S
H2436 C2454 0.951 . S
H2437 C2456 0.951 . S
H2438 C2458 0.950 . S
H2439 C2459 0.950 . S
H2440 C2461 0.950 . S
H2441 C2464 0.950 . S
H2442 C2465 0.950 . S
H2443 C2467 0.950 . S
H2444 C2468 0.950 . S
H2445 C2469 0.951 . S
H2446 C2471 0.951 . S
H2447 C2473 0.950 . S
H2448 C2474 0.950 . S
H2449 C2476 0.950 . S
H2450 C2479 0.950 . S
H2451 C2480 0.950 . S
H2452 C2482 0.950 . S
H2453 C2483 0.950 . S
C2454 H2436 0.951 . S
C2454 C2455 1.366 . S
C2454 C2456 1.388 . S
C2455 C2454 1.366 . S
C2455 C2459 1.385 . S
C2456 H2437 0.951 . S
C2456 C2454 1.388 . S
C2456 C2457 1.366 . S
C2457 C2456 1.366 . S
C2457 C2458 1.414 . S
C2457 C2460 1.499 . S
C2458 H2438 0.950 . S
C2458 C2457 1.414 . S
C2458 C2459 1.374 . S
C2459 H2439 0.950 . S
C2459 C2455 1.385 . S
C2459 C2458 1.374 . S
C2460 C2457 1.499 . S
C2460 C2461 1.373 . S
C2460 C2462 1.389 . S
C2461 H2440 0.950 . S
C2461 C2460 1.373 . S
C2461 C2477 1.377 . S
C2462 C2460 1.389 . S
C2462 C2463 1.524 . S
C2462 C2476 1.377 . S
C2463 C2462 1.524 . S
C2463 C2464 1.397 . S
C2463 C2468 1.363 . S
C2464 H2441 0.950 . S
C2464 C2463 1.397 . S
C2464 C2465 1.334 . S
C2465 H2442 0.950 . S
C2465 C2464 1.334 . S
C2465 C2466 1.287 . S
C2466 C2465 1.287 . S
C2466 C2467 1.524 . S
C2466 H2485 0.913 . S
C2467 H2443 0.950 . S
C2467 C2466 1.524 . S
C2467 C2468 1.415 . S
C2468 H2444 0.950 . S
C2468 C2463 1.363 . S
C2468 C2467 1.415 . S
C2469 H2445 0.951 . S
C2469 C2470 1.366 . S
C2469 C2471 1.388 . S
C2470 C2469 1.366 . S
C2470 C2474 1.385 . S
C2471 H2446 0.951 . S
C2471 C2469 1.388 . S
C2471 C2472 1.366 . S
C2472 C2471 1.366 . S
C2472 C2473 1.414 . S
C2472 C2475 1.499 . S
C2473 H2447 0.950 . S
C2473 C2472 1.414 . S
C2473 C2474 1.374 . S
C2474 H2448 0.950 . S
C2474 C2470 1.385 . S
C2474 C2473 1.374 . S
C2475 C2472 1.499 . S
C2475 C2476 1.373 . S
C2475 C2477 1.389 . S
C2476 H2449 0.950 . S
C2476 C2462 1.377 . S
C2476 C2475 1.373 . S
C2477 C2461 1.377 . S
C2477 C2475 1.389 . S
C2477 C2478 1.524 . S
C2478 C2477 1.524 . S
C2478 C2479 1.397 . S
C2478 C2483 1.363 . S
C2479 H2450 0.950 . S
C2479 C2478 1.397 . S
C2479 C2480 1.334 . S
C2480 H2451 0.950 . S
C2480 C2479 1.334 . S
C2480 C2481 1.287 . S
C2481 C2480 1.287 . S
C2481 C2482 1.524 . S
C2481 H2484 0.999 . S
C2482 H2452 0.950 . S
C2482 C2481 1.524 . S
C2482 C2483 1.415 . S
C2483 H2453 0.950 . S
C2483 C2478 1.363 . S
C2483 C2482 1.415 . S
H2484 C2481 0.999 . S
H2485 C2466 0.913 . S
H2486 C2504 0.951 . S
H2487 C2506 0.951 . S
H2488 C2508 0.950 . S
H2489 C2509 0.950 . S
H2490 C2511 0.950 . S
H2491 C2514 0.950 . S
H2492 C2515 0.950 . S
H2493 C2517 0.950 . S
H2494 C2518 0.950 . S
H2495 C2519 0.951 . S
H2496 C2521 0.951 . S
H2497 C2523 0.950 . S
H2498 C2524 0.950 . S
H2499 C2526 0.950 . S
H2500 C2529 0.950 . S
H2501 C2530 0.950 . S
H2502 C2532 0.950 . S
H2503 C2533 0.950 . S
C2504 H2486 0.951 . S
C2504 C2505 1.366 . S
C2504 C2506 1.388 . S
C2505 C2504 1.366 . S
C2505 C2509 1.385 . S
C2506 H2487 0.951 . S
C2506 C2504 1.388 . S
C2506 C2507 1.366 . S
C2507 C2506 1.366 . S
C2507 C2508 1.414 . S
C2507 C2510 1.499 . S
C2508 H2488 0.950 . S
C2508 C2507 1.414 . S
C2508 C2509 1.374 . S
C2509 H2489 0.950 . S
C2509 C2505 1.385 . S
C2509 C2508 1.374 . S
C2510 C2507 1.499 . S
C2510 C2511 1.373 . S
C2510 C2512 1.389 . S
C2511 H2490 0.950 . S
C2511 C2510 1.373 . S
C2511 C2527 1.377 . S
C2512 C2510 1.389 . S
C2512 C2513 1.524 . S
C2512 C2526 1.377 . S
C2513 C2512 1.524 . S
C2513 C2514 1.397 . S
C2513 C2518 1.363 . S
C2514 H2491 0.950 . S
C2514 C2513 1.397 . S
C2514 C2515 1.334 . S
C2515 H2492 0.950 . S
C2515 C2514 1.334 . S
C2515 C2516 1.287 . S
C2516 C2515 1.287 . S
C2516 C2517 1.524 . S
C2516 H2535 0.913 . S
C2517 H2493 0.950 . S
C2517 C2516 1.524 . S
C2517 C2518 1.415 . S
C2518 H2494 0.950 . S
C2518 C2513 1.363 . S
C2518 C2517 1.415 . S
C2519 H2495 0.951 . S
C2519 C2520 1.366 . S
C2519 C2521 1.388 . S
C2520 C2519 1.366 . S
C2520 C2524 1.385 . S
C2521 H2496 0.951 . S
C2521 C2519 1.388 . S
C2521 C2522 1.366 . S
C2522 C2521 1.366 . S
C2522 C2523 1.414 . S
C2522 C2525 1.499 . S
C2523 H2497 0.950 . S
C2523 C2522 1.414 . S
C2523 C2524 1.374 . S
C2524 H2498 0.950 . S
C2524 C2520 1.385 . S
C2524 C2523 1.374 . S
C2525 C2522 1.499 . S
C2525 C2526 1.373 . S
C2525 C2527 1.389 . S
C2526 H2499 0.950 . S
C2526 C2512 1.377 . S
C2526 C2525 1.373 . S
C2527 C2511 1.377 . S
C2527 C2525 1.389 . S
C2527 C2528 1.524 . S
C2528 C2527 1.524 . S
C2528 C2529 1.397 . S
C2528 C2533 1.363 . S
C2529 H2500 0.950 . S
C2529 C2528 1.397 . S
C2529 C2530 1.334 . S
C2530 H2501 0.950 . S
C2530 C2529 1.334 . S
C2530 C2531 1.287 . S
C2531 C2530 1.287 . S
C2531 C2532 1.524 . S
C2531 H2534 0.999 . S
C2532 H2502 0.950 . S
C2532 C2531 1.524 . S
C2532 C2533 1.415 . S
C2533 H2503 0.950 . S
C2533 C2528 1.363 . S
C2533 C2532 1.415 . S
H2534 C2531 0.999 . S
H2535 C2516 0.913 . S
H2536 C2554 0.951 . S
H2537 C2556 0.951 . S
H2538 C2558 0.950 . S
H2539 C2559 0.950 . S
H2540 C2561 0.950 . S
H2541 C2564 0.950 . S
H2542 C2565 0.950 . S
H2543 C2567 0.950 . S
H2544 C2568 0.950 . S
H2545 C2569 0.951 . S
H2546 C2571 0.951 . S
H2547 C2573 0.950 . S
H2548 C2574 0.950 . S
H2549 C2576 0.950 . S
H2550 C2579 0.950 . S
H2551 C2580 0.950 . S
H2552 C2582 0.950 . S
H2553 C2583 0.950 . S
C2554 H2536 0.951 . S
C2554 C2555 1.366 . S
C2554 C2556 1.388 . S
C2555 C2554 1.366 . S
C2555 C2559 1.385 . S
C2556 H2537 0.951 . S
C2556 C2554 1.388 . S
C2556 C2557 1.366 . S
C2557 C2556 1.366 . S
C2557 C2558 1.414 . S
C2557 C2560 1.499 . S
C2558 H2538 0.950 . S
C2558 C2557 1.414 . S
C2558 C2559 1.374 . S
C2559 H2539 0.950 . S
C2559 C2555 1.385 . S
C2559 C2558 1.374 . S
C2560 C2557 1.499 . S
C2560 C2561 1.373 . S
C2560 C2562 1.389 . S
C2561 H2540 0.950 . S
C2561 C2560 1.373 . S
C2561 C2577 1.377 . S
C2562 C2560 1.389 . S
C2562 C2563 1.524 . S
C2562 C2576 1.377 . S
C2563 C2562 1.524 . S
C2563 C2564 1.397 . S
C2563 C2568 1.363 . S
C2564 H2541 0.950 . S
C2564 C2563 1.397 . S
C2564 C2565 1.334 . S
C2565 H2542 0.950 . S
C2565 C2564 1.334 . S
C2565 C2566 1.287 . S
C2566 C2565 1.287 . S
C2566 C2567 1.524 . S
C2566 H2585 0.913 . S
C2567 H2543 0.950 . S
C2567 C2566 1.524 . S
C2567 C2568 1.415 . S
C2568 H2544 0.950 . S
C2568 C2563 1.363 . S
C2568 C2567 1.415 . S
C2569 H2545 0.951 . S
C2569 C2570 1.366 . S
C2569 C2571 1.388 . S
C2570 C2569 1.366 . S
C2570 C2574 1.385 . S
C2571 H2546 0.951 . S
C2571 C2569 1.388 . S
C2571 C2572 1.366 . S
C2572 C2571 1.366 . S
C2572 C2573 1.414 . S
C2572 C2575 1.499 . S
C2573 H2547 0.950 . S
C2573 C2572 1.414 . S
C2573 C2574 1.374 . S
C2574 H2548 0.950 . S
C2574 C2570 1.385 . S
C2574 C2573 1.374 . S
C2575 C2572 1.499 . S
C2575 C2576 1.373 . S
C2575 C2577 1.389 . S
C2576 H2549 0.950 . S
C2576 C2562 1.377 . S
C2576 C2575 1.373 . S
C2577 C2561 1.377 . S
C2577 C2575 1.389 . S
C2577 C2578 1.524 . S
C2578 C2577 1.524 . S
C2578 C2579 1.397 . S
C2578 C2583 1.363 . S
C2579 H2550 0.950 . S
C2579 C2578 1.397 . S
C2579 C2580 1.334 . S
C2580 H2551 0.950 . S
C2580 C2579 1.334 . S
C2580 C2581 1.287 . S
C2581 C2580 1.287 . S
C2581 C2582 1.524 . S
C2581 H2584 0.999 . S
C2582 H2552 0.950 . S
C2582 C2581 1.524 . S
C2582 C2583 1.415 . S
C2583 H2553 0.950 . S
C2583 C2578 1.363 . S
C2583 C2582 1.415 . S
H2584 C2581 0.999 . S
H2585 C2566 0.913 . S
H2586 C2604 0.951 . S
H2587 C2606 0.951 . S
H2588 C2608 0.950 . S
H2589 C2609 0.950 . S
H2590 C2611 0.950 . S
H2591 C2614 0.950 . S
H2592 C2615 0.950 . S
H2593 C2617 0.950 . S
H2594 C2618 0.950 . S
H2595 C2619 0.951 . S
H2596 C2621 0.951 . S
H2597 C2623 0.950 . S
H2598 C2624 0.950 . S
H2599 C2626 0.950 . S
H2600 C2629 0.950 . S
H2601 C2630 0.950 . S
H2602 C2632 0.950 . S
H2603 C2633 0.950 . S
C2604 H2586 0.951 . S
C2604 C2605 1.366 . S
C2604 C2606 1.388 . S
C2605 C2604 1.366 . S
C2605 C2609 1.385 . S
C2606 H2587 0.951 . S
C2606 C2604 1.388 . S
C2606 C2607 1.366 . S
C2607 C2606 1.366 . S
C2607 C2608 1.414 . S
C2607 C2610 1.499 . S
C2608 H2588 0.950 . S
C2608 C2607 1.414 . S
C2608 C2609 1.374 . S
C2609 H2589 0.950 . S
C2609 C2605 1.385 . S
C2609 C2608 1.374 . S
C2610 C2607 1.499 . S
C2610 C2611 1.373 . S
C2610 C2612 1.389 . S
C2611 H2590 0.950 . S
C2611 C2610 1.373 . S
C2611 C2627 1.377 . S
C2612 C2610 1.389 . S
C2612 C2613 1.524 . S
C2612 C2626 1.377 . S
C2613 C2612 1.524 . S
C2613 C2614 1.397 . S
C2613 C2618 1.363 . S
C2614 H2591 0.950 . S
C2614 C2613 1.397 . S
C2614 C2615 1.334 . S
C2615 H2592 0.950 . S
C2615 C2614 1.334 . S
C2615 C2616 1.287 . S
C2616 C2615 1.287 . S
C2616 C2617 1.524 . S
C2616 H2635 0.913 . S
C2617 H2593 0.950 . S
C2617 C2616 1.524 . S
C2617 C2618 1.415 . S
C2618 H2594 0.950 . S
C2618 C2613 1.363 . S
C2618 C2617 1.415 . S
C2619 H2595 0.951 . S
C2619 C2620 1.366 . S
C2619 C2621 1.388 . S
C2620 C2619 1.366 . S
C2620 C2624 1.385 . S
C2621 H2596 0.951 . S
C2621 C2619 1.388 . S
C2621 C2622 1.366 . S
C2622 C2621 1.366 . S
C2622 C2623 1.414 . S
C2622 C2625 1.499 . S
C2623 H2597 0.950 . S
C2623 C2622 1.414 . S
C2623 C2624 1.374 . S
C2624 H2598 0.950 . S
C2624 C2620 1.385 . S
C2624 C2623 1.374 . S
C2625 C2622 1.499 . S
C2625 C2626 1.373 . S
C2625 C2627 1.389 . S
C2626 H2599 0.950 . S
C2626 C2612 1.377 . S
C2626 C2625 1.373 . S
C2627 C2611 1.377 . S
C2627 C2625 1.389 . S
C2627 C2628 1.524 . S
C2628 C2627 1.524 . S
C2628 C2629 1.397 . S
C2628 C2633 1.363 . S
C2629 H2600 0.950 . S
C2629 C2628 1.397 . S
C2629 C2630 1.334 . S
C2630 H2601 0.950 . S
C2630 C2629 1.334 . S
C2630 C2631 1.287 . S
C2631 C2630 1.287 . S
C2631 C2632 1.524 . S
C2631 H2634 0.999 . S
C2632 H2602 0.950 . S
C2632 C2631 1.524 . S
C2632 C2633 1.415 . S
C2633 H2603 0.950 . S
C2633 C2628 1.363 . S
C2633 C2632 1.415 . S
H2634 C2631 0.999 . S
H2635 C2616 0.913 . S
H2636 C2654 0.951 . S
H2637 C2656 0.951 . S
H2638 C2658 0.950 . S
H2639 C2659 0.950 . S
H2640 C2661 0.950 . S
H2641 C2664 0.950 . S
H2642 C2665 0.950 . S
H2643 C2667 0.950 . S
H2644 C2668 0.950 . S
H2645 C2669 0.951 . S
H2646 C2671 0.951 . S
H2647 C2673 0.950 . S
H2648 C2674 0.950 . S
H2649 C2676 0.950 . S
H2650 C2679 0.950 . S
H2651 C2680 0.950 . S
H2652 C2682 0.950 . S
H2653 C2683 0.950 . S
C2654 H2636 0.951 . S
C2654 C2655 1.366 . S
C2654 C2656 1.388 . S
C2655 C2654 1.366 . S
C2655 C2659 1.385 . S
C2656 H2637 0.951 . S
C2656 C2654 1.388 . S
C2656 C2657 1.366 . S
C2657 C2656 1.366 . S
C2657 C2658 1.414 . S
C2657 C2660 1.499 . S
C2658 H2638 0.950 . S
C2658 C2657 1.414 . S
C2658 C2659 1.374 . S
C2659 H2639 0.950 . S
C2659 C2655 1.385 . S
C2659 C2658 1.374 . S
C2660 C2657 1.499 . S
C2660 C2661 1.373 . S
C2660 C2662 1.389 . S
C2661 H2640 0.950 . S
C2661 C2660 1.373 . S
C2661 C2677 1.377 . S
C2662 C2660 1.389 . S
C2662 C2663 1.524 . S
C2662 C2676 1.377 . S
C2663 C2662 1.524 . S
C2663 C2664 1.397 . S
C2663 C2668 1.363 . S
C2664 H2641 0.950 . S
C2664 C2663 1.397 . S
C2664 C2665 1.334 . S
C2665 H2642 0.950 . S
C2665 C2664 1.334 . S
C2665 C2666 1.287 . S
C2666 C2665 1.287 . S
C2666 C2667 1.524 . S
C2666 H2685 0.913 . S
C2667 H2643 0.950 . S
C2667 C2666 1.524 . S
C2667 C2668 1.415 . S
C2668 H2644 0.950 . S
C2668 C2663 1.363 . S
C2668 C2667 1.415 . S
C2669 H2645 0.951 . S
C2669 C2670 1.366 . S
C2669 C2671 1.388 . S
C2670 C2669 1.366 . S
C2670 C2674 1.385 . S
C2671 H2646 0.951 . S
C2671 C2669 1.388 . S
C2671 C2672 1.366 . S
C2672 C2671 1.366 . S
C2672 C2673 1.414 . S
C2672 C2675 1.499 . S
C2673 H2647 0.950 . S
C2673 C2672 1.414 . S
C2673 C2674 1.374 . S
C2674 H2648 0.950 . S
C2674 C2670 1.385 . S
C2674 C2673 1.374 . S
C2675 C2672 1.499 . S
C2675 C2676 1.373 . S
C2675 C2677 1.389 . S
C2676 H2649 0.950 . S
C2676 C2662 1.377 . S
C2676 C2675 1.373 . S
C2677 C2661 1.377 . S
C2677 C2675 1.389 . S
C2677 C2678 1.524 . S
C2678 C2677 1.524 . S
C2678 C2679 1.397 . S
C2678 C2683 1.363 . S
C2679 H2650 0.950 . S
C2679 C2678 1.397 . S
C2679 C2680 1.334 . S
C2680 H2651 0.950 . S
C2680 C2679 1.334 . S
C2680 C2681 1.287 . S
C2681 C2680 1.287 . S
C2681 C2682 1.524 . S
C2681 H2684 0.999 . S
C2682 H2652 0.950 . S
C2682 C2681 1.524 . S
C2682 C2683 1.415 . S
C2683 H2653 0.950 . S
C2683 C2678 1.363 . S
C2683 C2682 1.415 . S
H2684 C2681 0.999 . S
H2685 C2666 0.913 . S
H2686 C2704 0.951 . S
H2687 C2706 0.951 . S
H2688 C2708 0.950 . S
H2689 C2709 0.950 . S
H2690 C2711 0.950 . S
H2691 C2714 0.950 . S
H2692 C2715 0.950 . S
H2693 C2717 0.950 . S
H2694 C2718 0.950 . S
H2695 C2719 0.951 . S
H2696 C2721 0.951 . S
H2697 C2723 0.950 . S
H2698 C2724 0.950 . S
H2699 C2726 0.950 . S
H2700 C2729 0.950 . S
H2701 C2730 0.950 . S
H2702 C2732 0.950 . S
H2703 C2733 0.950 . S
C2704 H2686 0.951 . S
C2704 C2705 1.366 . S
C2704 C2706 1.388 . S
C2705 C2704 1.366 . S
C2705 C2709 1.385 . S
C2706 H2687 0.951 . S
C2706 C2704 1.388 . S
C2706 C2707 1.366 . S
C2707 C2706 1.366 . S
C2707 C2708 1.414 . S
C2707 C2710 1.499 . S
C2708 H2688 0.950 . S
C2708 C2707 1.414 . S
C2708 C2709 1.374 . S
C2709 H2689 0.950 . S
C2709 C2705 1.385 . S
C2709 C2708 1.374 . S
C2710 C2707 1.499 . S
C2710 C2711 1.373 . S
C2710 C2712 1.389 . S
C2711 H2690 0.950 . S
C2711 C2710 1.373 . S
C2711 C2727 1.377 . S
C2712 C2710 1.389 . S
C2712 C2713 1.524 . S
C2712 C2726 1.377 . S
C2713 C2712 1.524 . S
C2713 C2714 1.397 . S
C2713 C2718 1.363 . S
C2714 H2691 0.950 . S
C2714 C2713 1.397 . S
C2714 C2715 1.334 . S
C2715 H2692 0.950 . S
C2715 C2714 1.334 . S
C2715 C2716 1.287 . S
C2716 C2715 1.287 . S
C2716 C2717 1.524 . S
C2716 H2735 0.913 . S
C2717 H2693 0.950 . S
C2717 C2716 1.524 . S
C2717 C2718 1.415 . S
C2718 H2694 0.950 . S
C2718 C2713 1.363 . S
C2718 C2717 1.415 . S
C2719 H2695 0.951 . S
C2719 C2720 1.366 . S
C2719 C2721 1.388 . S
C2720 C2719 1.366 . S
C2720 C2724 1.385 . S
C2721 H2696 0.951 . S
C2721 C2719 1.388 . S
C2721 C2722 1.366 . S
C2722 C2721 1.366 . S
C2722 C2723 1.414 . S
C2722 C2725 1.499 . S
C2723 H2697 0.950 . S
C2723 C2722 1.414 . S
C2723 C2724 1.374 . S
C2724 H2698 0.950 . S
C2724 C2720 1.385 . S
C2724 C2723 1.374 . S
C2725 C2722 1.499 . S
C2725 C2726 1.373 . S
C2725 C2727 1.389 . S
C2726 H2699 0.950 . S
C2726 C2712 1.377 . S
C2726 C2725 1.373 . S
C2727 C2711 1.377 . S
C2727 C2725 1.389 . S
C2727 C2728 1.524 . S
C2728 C2727 1.524 . S
C2728 C2729 1.397 . S
C2728 C2733 1.363 . S
C2729 H2700 0.950 . S
C2729 C2728 1.397 . S
C2729 C2730 1.334 . S
C2730 H2701 0.950 . S
C2730 C2729 1.334 . S
C2730 C2731 1.287 . S
C2731 C2730 1.287 . S
C2731 C2732 1.524 . S
C2731 H2734 0.999 . S
C2732 H2702 0.950 . S
C2732 C2731 1.524 . S
C2732 C2733 1.415 . S
C2733 H2703 0.950 . S
C2733 C2728 1.363 . S
C2733 C2732 1.415 . S
H2734 C2731 0.999 . S
H2735 C2716 0.913 . S
C355 C208 1.260 . S
C370 C11 1.246 . S
C405 C26 1.179 . S
C420 C215 1.034 . S
C455 C256 1.296 . S
C470 C32 1.293 . S
C505 C47 0.851 . S
C520 C187 0.851 . S
C555 C201 0.890 . S
C570 C61 0.890 . S
C605 C82 1.186 . S
C620 C222 1.185 . S
C655 C96 1.262 . S
C670 C263 1.248 . S
C705 C103 1.034 . S
C720 C194 1.179 . S
C755 C138 1.262 . S
C770 C123 1.248 . S
C805 C145 0.890 . S
C820 C131 0.888 . S
C855 C152 1.260 . S
C870 C165 1.246 . S
C905 C158 1.293 . S
C920 C116 1.296 . S
C955 C173 1.032 . S
C970 C54 1.180 . S
C1005 C68 1.262 . S
C1020 C235 1.248 . S
C1055 C243 0.849 . S
C1070 C19 0.849 . S
C1105 C25 1.349 . S
C1120 C299 1.163 . S
C1155 C137 1.316 . S
C1170 C5 1.140 . S
C1205 C326 1.256 . S
C1220 C46 1.256 . S
C1255 C166 1.473 . S
C1270 C40 1.473 . S
C1305 C306 1.484 . S
C1320 C102 1.452 . S
C1355 C130 1.393 . S
C1370 C88 1.394 . S
C1405 C81 1.268 . S
C1420 C333 1.281 . S
C1455 C67 1.316 . S
C1470 C159 1.140 . S
C1505 C221 1.267 . S
C1520 C277 1.281 . S
C1555 C236 1.484 . S
C1570 C214 1.452 . S
C1605 C193 1.349 . S
C1620 C229 1.163 . S
C1655 C270 1.257 . S
C1670 C186 1.256 . S
C1705 C33 1.138 . S
C1720 C291 1.315 . S
C1755 C151 1.281 . S
C1770 C109 1.268 . S
C1805 C12 1.473 . S
C1820 C320 1.473 . S
C1855 C278 1.260 . S
C1870 C39 1.246 . S
C1905 C4 1.294 . S
C1920 C228 1.296 . S
C1955 C271 0.892 . S
C1970 C89 0.891 . S
C2005 C180 1.186 . S
C2020 C110 1.186 . S
C2055 C75 1.032 . S
C2070 C250 1.180 . S
C2105 C305 1.249 . S
C2120 C292 1.262 . S
C2155 C327 0.890 . S
C2170 C285 0.889 . S
C2205 C319 1.245 . S
C2220 C334 1.260 . S
C2255 C298 1.296 . S
C2270 C312 1.294 . S
C2305 C117 1.163 . S
C2320 C53 1.349 . S
C2355 C18 1.257 . S
C2370 C144 1.257 . S
C2405 C74 1.453 . S
C2420 C124 1.484 . S
C2455 C284 1.393 . S
C2470 C60 1.394 . S
C2505 C95 1.316 . S
C2520 C313 1.140 . S
C2555 C179 1.267 . S
C2570 C207 1.282 . S
C2605 C264 1.484 . S
C2620 C172 1.452 . S
C2655 C249 1.349 . S
C2670 C257 1.165 . S
C2705 C200 1.256 . S
C2720 C242 1.256 . S
