# Generated by pormake.
# Topology uky, (4)-cn, num edge types: 1
# Building blocks:
#     Node 0, Type 0, BuildingBlock: ESEHIV_clean_sbu_0, # of connection points: 4
#     Node 1, Type 0, BuildingBlock: ESEHIV_clean_sbu_0, # of connection points: 4
#     Node 2, Type 0, BuildingBlock: ESEHIV_clean_sbu_0, # of connection points: 4
#     Node 3, Type 0, BuildingBlock: ESEHIV_clean_sbu_0, # of connection points: 4
#     Node 4, Type 0, BuildingBlock: ESEHIV_clean_sbu_0, # of connection points: 4
#     Node 5, Type 0, BuildingBlock: ESEHIV_clean_sbu_0, # of connection points: 4
#     Node 6, Type 0, BuildingBlock: ESEHIV_clean_sbu_0, # of connection points: 4
#     Node 7, Type 0, BuildingBlock: ESEHIV_clean_sbu_0, # of connection points: 4
#     Node 8, Type 0, BuildingBlock: ESEHIV_clean_sbu_0, # of connection points: 4
#     Node 9, Type 0, BuildingBlock: ESEHIV_clean_sbu_0, # of connection points: 4
#     Node 10, Type 0, BuildingBlock: ESEHIV_clean_sbu_0, # of connection points: 4
#     Node 11, Type 0, BuildingBlock: ESEHIV_clean_sbu_0, # of connection points: 4
#     Node 12, Type 0, BuildingBlock: ESEHIV_clean_sbu_0, # of connection points: 4
#     Node 13, Type 0, BuildingBlock: ESEHIV_clean_sbu_0, # of connection points: 4
#     Node 14, Type 0, BuildingBlock: ESEHIV_clean_sbu_0, # of connection points: 4
#     Node 15, Type 0, BuildingBlock: ESEHIV_clean_sbu_0, # of connection points: 4
#     Node 16, Type 0, BuildingBlock: ESEHIV_clean_sbu_0, # of connection points: 4
#     Node 17, Type 0, BuildingBlock: ESEHIV_clean_sbu_0, # of connection points: 4
#     Node 18, Type 0, BuildingBlock: ESEHIV_clean_sbu_0, # of connection points: 4
#     Node 19, Type 0, BuildingBlock: ESEHIV_clean_sbu_0, # of connection points: 4
#     Node 20, Type 0, BuildingBlock: ESEHIV_clean_sbu_0, # of connection points: 4
#     Node 21, Type 0, BuildingBlock: ESEHIV_clean_sbu_0, # of connection points: 4
#     Node 22, Type 0, BuildingBlock: ESEHIV_clean_sbu_0, # of connection points: 4
#     Node 23, Type 0, BuildingBlock: ESEHIV_clean_sbu_0, # of connection points: 4
#     Node 24, Type 0, BuildingBlock: ESEHIV_clean_sbu_0, # of connection points: 4
#     Node 25, Type 0, BuildingBlock: ESEHIV_clean_sbu_0, # of connection points: 4
#     Node 26, Type 0, BuildingBlock: ESEHIV_clean_sbu_0, # of connection points: 4
#     Node 27, Type 0, BuildingBlock: ESEHIV_clean_sbu_0, # of connection points: 4
#     Node 28, Type 0, BuildingBlock: ESEHIV_clean_sbu_0, # of connection points: 4
#     Node 29, Type 0, BuildingBlock: ESEHIV_clean_sbu_0, # of connection points: 4
#     Node 30, Type 0, BuildingBlock: ESEHIV_clean_sbu_0, # of connection points: 4
#     Node 31, Type 0, BuildingBlock: ESEHIV_clean_sbu_0, # of connection points: 4
#     Node 32, Type 0, BuildingBlock: ESEHIV_clean_sbu_0, # of connection points: 4
#     Node 33, Type 0, BuildingBlock: ESEHIV_clean_sbu_0, # of connection points: 4
#     Node 34, Type 0, BuildingBlock: ESEHIV_clean_sbu_0, # of connection points: 4
#     Node 35, Type 0, BuildingBlock: ESEHIV_clean_sbu_0, # of connection points: 4
#     Node 36, Type 0, BuildingBlock: ESEHIV_clean_sbu_0, # of connection points: 4
#     Node 37, Type 0, BuildingBlock: ESEHIV_clean_sbu_0, # of connection points: 4
#     Node 38, Type 0, BuildingBlock: ESEHIV_clean_sbu_0, # of connection points: 4
#     Node 39, Type 0, BuildingBlock: ESEHIV_clean_sbu_0, # of connection points: 4
#     Node 40, Type 0, BuildingBlock: ESEHIV_clean_sbu_0, # of connection points: 4
#     Node 41, Type 0, BuildingBlock: ESEHIV_clean_sbu_0, # of connection points: 4
#     Node 42, Type 0, BuildingBlock: ESEHIV_clean_sbu_0, # of connection points: 4
#     Node 43, Type 0, BuildingBlock: ESEHIV_clean_sbu_0, # of connection points: 4
#     Node 44, Type 0, BuildingBlock: ESEHIV_clean_sbu_0, # of connection points: 4
#     Node 45, Type 0, BuildingBlock: ESEHIV_clean_sbu_0, # of connection points: 4
#     Node 46, Type 0, BuildingBlock: ESEHIV_clean_sbu_0, # of connection points: 4
#     Node 47, Type 0, BuildingBlock: ESEHIV_clean_sbu_0, # of connection points: 4
#     Edge 48, Type (0, 0), BuildingBlock: OJICUG_clean_linker_0, # of connection points: 2
#     Edge 49, Type (0, 0), BuildingBlock: OJICUG_clean_linker_0, # of connection points: 2
#     Edge 50, Type (0, 0), BuildingBlock: OJICUG_clean_linker_0, # of connection points: 2
#     Edge 51, Type (0, 0), BuildingBlock: OJICUG_clean_linker_0, # of connection points: 2
#     Edge 52, Type (0, 0), BuildingBlock: OJICUG_clean_linker_0, # of connection points: 2
#     Edge 53, Type (0, 0), BuildingBlock: OJICUG_clean_linker_0, # of connection points: 2
#     Edge 54, Type (0, 0), BuildingBlock: OJICUG_clean_linker_0, # of connection points: 2
#     Edge 55, Type (0, 0), BuildingBlock: OJICUG_clean_linker_0, # of connection points: 2
#     Edge 56, Type (0, 0), BuildingBlock: OJICUG_clean_linker_0, # of connection points: 2
#     Edge 57, Type (0, 0), BuildingBlock: OJICUG_clean_linker_0, # of connection points: 2
#     Edge 58, Type (0, 0), BuildingBlock: OJICUG_clean_linker_0, # of connection points: 2
#     Edge 59, Type (0, 0), BuildingBlock: OJICUG_clean_linker_0, # of connection points: 2
#     Edge 60, Type (0, 0), BuildingBlock: OJICUG_clean_linker_0, # of connection points: 2
#     Edge 61, Type (0, 0), BuildingBlock: OJICUG_clean_linker_0, # of connection points: 2
#     Edge 62, Type (0, 0), BuildingBlock: OJICUG_clean_linker_0, # of connection points: 2
#     Edge 63, Type (0, 0), BuildingBlock: OJICUG_clean_linker_0, # of connection points: 2
#     Edge 64, Type (0, 0), BuildingBlock: OJICUG_clean_linker_0, # of connection points: 2
#     Edge 65, Type (0, 0), BuildingBlock: OJICUG_clean_linker_0, # of connection points: 2
#     Edge 66, Type (0, 0), BuildingBlock: OJICUG_clean_linker_0, # of connection points: 2
#     Edge 67, Type (0, 0), BuildingBlock: OJICUG_clean_linker_0, # of connection points: 2
#     Edge 68, Type (0, 0), BuildingBlock: OJICUG_clean_linker_0, # of connection points: 2
#     Edge 69, Type (0, 0), BuildingBlock: OJICUG_clean_linker_0, # of connection points: 2
#     Edge 70, Type (0, 0), BuildingBlock: OJICUG_clean_linker_0, # of connection points: 2
#     Edge 71, Type (0, 0), BuildingBlock: OJICUG_clean_linker_0, # of connection points: 2
#     Edge 72, Type (0, 0), BuildingBlock: OJICUG_clean_linker_0, # of connection points: 2
#     Edge 73, Type (0, 0), BuildingBlock: OJICUG_clean_linker_0, # of connection points: 2
#     Edge 74, Type (0, 0), BuildingBlock: OJICUG_clean_linker_0, # of connection points: 2
#     Edge 75, Type (0, 0), BuildingBlock: OJICUG_clean_linker_0, # of connection points: 2
#     Edge 76, Type (0, 0), BuildingBlock: OJICUG_clean_linker_0, # of connection points: 2
#     Edge 77, Type (0, 0), BuildingBlock: OJICUG_clean_linker_0, # of connection points: 2
#     Edge 78, Type (0, 0), BuildingBlock: OJICUG_clean_linker_0, # of connection points: 2
#     Edge 79, Type (0, 0), BuildingBlock: OJICUG_clean_linker_0, # of connection points: 2
#     Edge 80, Type (0, 0), BuildingBlock: OJICUG_clean_linker_0, # of connection points: 2
#     Edge 81, Type (0, 0), BuildingBlock: OJICUG_clean_linker_0, # of connection points: 2
#     Edge 82, Type (0, 0), BuildingBlock: OJICUG_clean_linker_0, # of connection points: 2
#     Edge 83, Type (0, 0), BuildingBlock: OJICUG_clean_linker_0, # of connection points: 2
#     Edge 84, Type (0, 0), BuildingBlock: OJICUG_clean_linker_0, # of connection points: 2
#     Edge 85, Type (0, 0), BuildingBlock: OJICUG_clean_linker_0, # of connection points: 2
#     Edge 86, Type (0, 0), BuildingBlock: OJICUG_clean_linker_0, # of connection points: 2
#     Edge 87, Type (0, 0), BuildingBlock: OJICUG_clean_linker_0, # of connection points: 2
#     Edge 88, Type (0, 0), BuildingBlock: OJICUG_clean_linker_0, # of connection points: 2
#     Edge 89, Type (0, 0), BuildingBlock: OJICUG_clean_linker_0, # of connection points: 2
#     Edge 90, Type (0, 0), BuildingBlock: OJICUG_clean_linker_0, # of connection points: 2
#     Edge 91, Type (0, 0), BuildingBlock: OJICUG_clean_linker_0, # of connection points: 2
#     Edge 92, Type (0, 0), BuildingBlock: OJICUG_clean_linker_0, # of connection points: 2
#     Edge 93, Type (0, 0), BuildingBlock: OJICUG_clean_linker_0, # of connection points: 2
#     Edge 94, Type (0, 0), BuildingBlock: OJICUG_clean_linker_0, # of connection points: 2
#     Edge 95, Type (0, 0), BuildingBlock: OJICUG_clean_linker_0, # of connection points: 2
#     Edge 96, Type (0, 0), BuildingBlock: OJICUG_clean_linker_0, # of connection points: 2
#     Edge 97, Type (0, 0), BuildingBlock: OJICUG_clean_linker_0, # of connection points: 2
#     Edge 98, Type (0, 0), BuildingBlock: OJICUG_clean_linker_0, # of connection points: 2
#     Edge 99, Type (0, 0), BuildingBlock: OJICUG_clean_linker_0, # of connection points: 2
#     Edge 100, Type (0, 0), BuildingBlock: OJICUG_clean_linker_0, # of connection points: 2
#     Edge 101, Type (0, 0), BuildingBlock: OJICUG_clean_linker_0, # of connection points: 2
#     Edge 102, Type (0, 0), BuildingBlock: OJICUG_clean_linker_0, # of connection points: 2
#     Edge 103, Type (0, 0), BuildingBlock: OJICUG_clean_linker_0, # of connection points: 2
#     Edge 104, Type (0, 0), BuildingBlock: OJICUG_clean_linker_0, # of connection points: 2
#     Edge 105, Type (0, 0), BuildingBlock: OJICUG_clean_linker_0, # of connection points: 2
#     Edge 106, Type (0, 0), BuildingBlock: OJICUG_clean_linker_0, # of connection points: 2
#     Edge 107, Type (0, 0), BuildingBlock: OJICUG_clean_linker_0, # of connection points: 2
#     Edge 108, Type (0, 0), BuildingBlock: OJICUG_clean_linker_0, # of connection points: 2
#     Edge 109, Type (0, 0), BuildingBlock: OJICUG_clean_linker_0, # of connection points: 2
#     Edge 110, Type (0, 0), BuildingBlock: OJICUG_clean_linker_0, # of connection points: 2
#     Edge 111, Type (0, 0), BuildingBlock: OJICUG_clean_linker_0, # of connection points: 2
#     Edge 112, Type (0, 0), BuildingBlock: OJICUG_clean_linker_0, # of connection points: 2
#     Edge 113, Type (0, 0), BuildingBlock: OJICUG_clean_linker_0, # of connection points: 2
#     Edge 114, Type (0, 0), BuildingBlock: OJICUG_clean_linker_0, # of connection points: 2
#     Edge 115, Type (0, 0), BuildingBlock: OJICUG_clean_linker_0, # of connection points: 2
#     Edge 116, Type (0, 0), BuildingBlock: OJICUG_clean_linker_0, # of connection points: 2
#     Edge 117, Type (0, 0), BuildingBlock: OJICUG_clean_linker_0, # of connection points: 2
#     Edge 118, Type (0, 0), BuildingBlock: OJICUG_clean_linker_0, # of connection points: 2
#     Edge 119, Type (0, 0), BuildingBlock: OJICUG_clean_linker_0, # of connection points: 2
#     Edge 120, Type (0, 0), BuildingBlock: OJICUG_clean_linker_0, # of connection points: 2
#     Edge 121, Type (0, 0), BuildingBlock: OJICUG_clean_linker_0, # of connection points: 2
#     Edge 122, Type (0, 0), BuildingBlock: OJICUG_clean_linker_0, # of connection points: 2
#     Edge 123, Type (0, 0), BuildingBlock: OJICUG_clean_linker_0, # of connection points: 2
#     Edge 124, Type (0, 0), BuildingBlock: OJICUG_clean_linker_0, # of connection points: 2
#     Edge 125, Type (0, 0), BuildingBlock: OJICUG_clean_linker_0, # of connection points: 2
#     Edge 126, Type (0, 0), BuildingBlock: OJICUG_clean_linker_0, # of connection points: 2
#     Edge 127, Type (0, 0), BuildingBlock: OJICUG_clean_linker_0, # of connection points: 2
#     Edge 128, Type (0, 0), BuildingBlock: OJICUG_clean_linker_0, # of connection points: 2
#     Edge 129, Type (0, 0), BuildingBlock: OJICUG_clean_linker_0, # of connection points: 2
#     Edge 130, Type (0, 0), BuildingBlock: OJICUG_clean_linker_0, # of connection points: 2
#     Edge 131, Type (0, 0), BuildingBlock: OJICUG_clean_linker_0, # of connection points: 2
#     Edge 132, Type (0, 0), BuildingBlock: OJICUG_clean_linker_0, # of connection points: 2
#     Edge 133, Type (0, 0), BuildingBlock: OJICUG_clean_linker_0, # of connection points: 2
#     Edge 134, Type (0, 0), BuildingBlock: OJICUG_clean_linker_0, # of connection points: 2
#     Edge 135, Type (0, 0), BuildingBlock: OJICUG_clean_linker_0, # of connection points: 2
#     Edge 136, Type (0, 0), BuildingBlock: OJICUG_clean_linker_0, # of connection points: 2
#     Edge 137, Type (0, 0), BuildingBlock: OJICUG_clean_linker_0, # of connection points: 2
#     Edge 138, Type (0, 0), BuildingBlock: OJICUG_clean_linker_0, # of connection points: 2
#     Edge 139, Type (0, 0), BuildingBlock: OJICUG_clean_linker_0, # of connection points: 2
#     Edge 140, Type (0, 0), BuildingBlock: OJICUG_clean_linker_0, # of connection points: 2
#     Edge 141, Type (0, 0), BuildingBlock: OJICUG_clean_linker_0, # of connection points: 2
#     Edge 142, Type (0, 0), BuildingBlock: OJICUG_clean_linker_0, # of connection points: 2
#     Edge 143, Type (0, 0), BuildingBlock: OJICUG_clean_linker_0, # of connection points: 2
# Relax obj value: 0.117
# Max RMSD: 0.305
# Mean RMSD: 0.275
data_MOF--net-uky--node1-ESEHIV_clean_sbu_0--edge1-OJICUG_clean_linker_0
_symmetry_space_group_name_H-M    P1
_symmetry_Int_Tables_number       1
_symmetry_cell_setting            triclinic
loop_
_symmetry_equiv_pos_as_xyz
'x, y, z'
_cell_length_a     44.582364
_cell_length_b     55.745327
_cell_length_c     55.713967
_cell_angle_alpha  90.03147
_cell_angle_beta   90.051415
_cell_angle_gamma 89.952186
loop_
_atom_site_label
_atom_site_type_symbol
_atom_site_fract_x
_atom_site_fract_y
_atom_site_fract_z
_atom_type_partial_charge
Cu0 Cu 0.21509 0.26344 0.4055 0.0
N1 N 0.23672 0.28017 0.42869 0.0
N2 N 0.25716 0.29133 0.4636 0.0
C3 C 0.23837 0.27586 0.45244 0.0
C4 C 0.26764 0.30581 0.44607 0.0
C5 C 0.25502 0.29886 0.42461 0.0
O6 O 0.18786 0.24108 0.42131 0.0
C7 C 0.26883 0.24054 0.38993 0.0
O8 O 0.27463 0.23822 0.41294 0.0
H9 H 0.22596 0.26174 0.46128 0.0
H10 H 0.25917 0.30665 0.40715 0.0
N11 N 0.19283 0.2856 0.38785 0.0
N12 N 0.18149 0.31354 0.36049 0.0
C13 C 0.20307 0.29911 0.3696 0.0
C14 C 0.16381 0.2916 0.39049 0.0
C15 C 0.15674 0.30886 0.37365 0.0
C16 C 0.18716 0.21842 0.41852 0.0
O17 O 0.20614 0.20819 0.40367 0.0
H18 H 0.22606 0.29854 0.36342 0.0
H19 H 0.14887 0.28392 0.4037 0.0
O20 O 0.24364 0.24909 0.38338 0.0
H21 H 0.2838 0.32009 0.44842 0.0
H22 H 0.13495 0.31705 0.37114 0.0
Cu23 Cu 0.02166 0.98578 0.66652 0.0
N24 N 0.05216 1.0044 0.65312 0.0
N25 N 0.07535 0.03057 0.62895 0.0
C26 C 0.0517 0.01564 0.63172 0.0
C27 C 0.09152 0.02821 0.64936 0.0
C28 C 0.07714 1.01212 0.66419 0.0
O29 O 0.98738 0.98636 0.64497 0.0
C30 C 0.99682 0.98702 0.71345 0.0
O31 O 0.98469 0.9665 0.70711 0.0
H32 H 0.03389 0.01337 0.61876 0.0
H33 H 0.08365 1.00724 0.68225 0.0
N34 N 0.03386 0.9538 0.66887 0.0
N35 N 0.05291 0.9191 0.68205 0.0
C36 C 0.05125 0.9431 0.68556 0.0
C37 C 0.02443 0.93607 0.65434 0.0
C38 C 0.0361 0.91469 0.66239 0.0
C39 C 0.97501 1.00537 0.63712 0.0
O40 O 0.98361 0.02628 0.64557 0.0
H41 H 0.06169 0.95259 0.70032 0.0
H42 H 1.00968 0.93853 0.63911 0.0
O43 O 0.01262 0.99843 0.69827 0.0
H44 H 0.11145 0.03831 0.65388 0.0
H45 H 0.03257 0.89724 0.65433 0.0
Cu46 Cu 0.31591 0.76138 0.90431 0.0
N47 N 0.30412 0.7408 0.92876 0.0
N48 N 0.28641 0.72794 0.96403 0.0
C49 C 0.29695 0.74688 0.9514 0.0
C50 C 0.28719 0.70928 0.9485 0.0
C51 C 0.29806 0.71728 0.92683 0.0
O52 O 0.34298 0.7853 0.91794 0.0
C53 C 0.27739 0.78232 0.86927 0.0
O54 O 0.3021 0.78523 0.85676 0.0
H55 H 0.29906 0.76498 0.95817 0.0
H56 H 0.30051 0.70686 0.91057 0.0
N57 N 0.33613 0.74338 0.88116 0.0
N58 N 0.34499 0.71733 0.85147 0.0
C59 C 0.32387 0.72882 0.86454 0.0
C60 C 0.36598 0.74114 0.87853 0.0
C61 C 0.37153 0.72506 0.86024 0.0
C62 C 0.336 0.80683 0.92315 0.0
O63 O 0.30884 0.81461 0.91829 0.0
H64 H 0.29993 0.72619 0.86259 0.0
H65 H 0.3825 0.75031 0.88939 0.0
O66 O 0.27914 0.774 0.89046 0.0
H67 H 0.27954 0.69124 0.95212 0.0
H68 H 0.39341 0.71952 0.8539 0.0
Cu69 Cu 0.49359 0.04489 0.16583 0.0
N70 N 0.46426 0.02529 0.15207 0.0
N71 N 0.44203 0.99773 0.12883 0.0
C72 C 0.46779 1.00943 0.13402 0.0
C73 C 0.42149 1.00677 0.1442 0.0
C74 C 0.43526 0.02374 0.15847 0.0
O75 O 0.52787 0.0458 0.14436 0.0
C76 C 0.51747 0.04533 0.21303 0.0
O77 O 0.52699 0.06677 0.20689 0.0
H78 H 0.48896 1.00623 0.12517 0.0
H79 H 0.42493 0.03417 0.17261 0.0
N80 N 0.47883 0.0762 0.16814 0.0
N81 N 0.45895 0.11039 0.18196 0.0
C82 C 0.46446 0.08694 0.18654 0.0
C83 C 0.48227 0.09329 0.15135 0.0
C84 C 0.47009 0.11436 0.1598 0.0
C85 C 0.54418 0.02776 0.1393 0.0
O86 O 0.53964 1.00738 0.15056 0.0
H87 H 0.45898 0.07793 0.20317 0.0
H88 H 0.49326 0.09063 0.13425 0.0
O89 O 0.50354 0.03269 0.19761 0.0
H90 H 0.39812 1.00163 0.14507 0.0
H91 H 0.4694 0.13127 0.15027 0.0
Cu92 Cu 0.21157 0.76025 0.12048 0.0
N93 N 0.22364 0.73988 0.09591 0.0
N94 N 0.24156 0.72739 0.06054 0.0
C95 C 0.23068 0.74615 0.0733 0.0
C96 C 0.24114 0.70865 0.07595 0.0
C97 C 0.23014 0.71642 0.09769 0.0
O98 O 0.18752 0.78581 0.10611 0.0
C99 C 0.24971 0.78023 0.15646 0.0
O100 O 0.22475 0.7843 0.16831 0.0
H101 H 0.22824 0.76426 0.06665 0.0
H102 H 0.22791 0.7059 0.1139 0.0
N103 N 0.18979 0.74209 0.14262 0.0
N104 N 0.18011 0.71517 0.17141 0.0
C105 C 0.20152 0.72751 0.15947 0.0
C106 C 0.15995 0.73886 0.14378 0.0
C107 C 0.15389 0.72238 0.16158 0.0
C108 C 0.16706 0.79778 0.11667 0.0
O109 O 0.1622 0.7943 0.13965 0.0
H110 H 0.22541 0.72531 0.16212 0.0
H111 H 0.14378 0.74741 0.13209 0.0
O112 O 0.24831 0.77145 0.13543 0.0
H113 H 0.24912 0.69071 0.07222 0.0
H114 H 0.13184 0.71605 0.1666 0.0
Cu115 Cu 0.50555 0.9852 0.35212 0.0
N116 N 0.47549 1.00518 0.36427 0.0
N117 N 0.45171 0.03125 0.38817 0.0
C118 C 0.4746 0.01548 0.38614 0.0
C119 C 0.43735 0.03046 0.36681 0.0
C120 C 0.4521 0.0144 0.35213 0.0
O121 O 0.54009 0.98654 0.37356 0.0
C122 C 0.51828 0.01611 0.31281 0.0
O123 O 0.51759 0.03298 0.32925 0.0
H124 H 0.49083 1.01183 0.4001 0.0
H125 H 0.4469 1.01043 0.33358 0.0
N126 N 0.49248 0.95341 0.35242 0.0
N127 N 0.47232 0.91822 0.34196 0.0
C128 C 0.47455 0.94185 0.33672 0.0
C129 C 0.50166 0.93662 0.36813 0.0
C130 C 0.48933 0.91492 0.36173 0.0
C131 C 0.55098 1.00557 0.38269 0.0
O132 O 0.54096 0.02654 0.37554 0.0
H133 H 0.46415 0.95042 0.32138 0.0
H134 H 0.51675 0.9399 0.38299 0.0
O135 O 0.51457 0.99435 0.3191 0.0
H136 H 0.41843 0.04151 0.36172 0.0
H137 H 0.49259 0.89801 0.37092 0.0
Cu138 Cu 0.31263 0.26464 0.62649 0.0
N139 N 0.30235 0.28361 0.60016 0.0
N140 N 0.28878 0.29479 0.56316 0.0
C141 C 0.29661 0.2763 0.57757 0.0
C142 C 0.28968 0.31444 0.57735 0.0
C143 C 0.298 0.30747 0.60011 0.0
O144 O 0.34145 0.24043 0.61615 0.0
C145 C 0.27417 0.24386 0.66125 0.0
O146 O 0.29904 0.24126 0.67366 0.0
H147 H 0.29829 0.25783 0.57183 0.0
H148 H 0.30035 0.31897 0.61564 0.0
N149 N 0.33115 0.28401 0.64948 0.0
N150 N 0.33849 0.31144 0.67822 0.0
C151 C 0.3182 0.30042 0.66391 0.0
C152 C 0.36054 0.28454 0.65485 0.0
C153 C 0.36516 0.30142 0.67253 0.0
C154 C 0.33521 0.22221 0.60331 0.0
O155 O 0.30708 0.21783 0.5978 0.0
H156 H 0.29446 0.30446 0.66352 0.0
H157 H 0.37742 0.27341 0.64643 0.0
O158 O 0.27564 0.2521 0.64 0.0
H159 H 0.2841 0.33252 0.57187 0.0
H160 H 0.38651 0.30579 0.68069 0.0
Cu161 Cu 0.0236 0.03798 0.85418 0.0
N162 N 0.04841 1.01249 0.86324 0.0
N163 N 0.0688 0.98369 0.88587 0.0
C164 C 0.05431 1.00497 0.88575 0.0
C165 C 0.07259 0.97781 0.86257 0.0
C166 C 0.06011 0.99566 0.84866 0.0
O167 O 0.98991 0.03944 0.87662 0.0
C168 C 0.99758 0.015 0.81362 0.0
O169 O 0.98828 0.99942 0.82962 0.0
H170 H 0.04621 0.01404 0.90167 0.0
H171 H 0.05836 0.99578 0.8293 0.0
N172 N 0.04496 0.06662 0.85737 0.0
N173 N 0.06879 0.10122 0.85008 0.0
C174 C 0.05429 0.08218 0.84038 0.0
C175 C 0.05367 0.07612 0.87841 0.0
C176 C 0.06832 0.09737 0.87402 0.0
C177 C 0.97866 0.02093 0.8866 0.0
O178 O 0.98758 0.99954 0.87974 0.0
H179 H 0.05077 0.07944 0.82135 0.0
H180 H 0.04941 0.06815 0.89578 0.0
O181 O 0.01191 0.03347 0.82068 0.0
H182 H 0.08278 0.96142 0.85609 0.0
H183 H 0.07749 0.10923 0.88754 0.0
Cu184 Cu 0.39572 0.243 0.27752 0.0
N185 N 0.38825 0.26784 0.25583 0.0
N186 N 0.37142 0.30256 0.24067 0.0
C187 C 0.37237 0.28797 0.26007 0.0
C188 C 0.38742 0.29099 0.2236 0.0
C189 C 0.39776 0.26964 0.23302 0.0
O190 O 0.36629 0.24523 0.30312 0.0
C191 C 0.44996 0.26519 0.29272 0.0
O192 O 0.4346 0.28519 0.2905 0.0
H193 H 0.36208 0.29186 0.27721 0.0
H194 H 0.41118 0.25629 0.22387 0.0
N195 N 0.39097 0.21347 0.26217 0.0
N196 N 0.40071 0.17999 0.24142 0.0
C197 C 0.4112 0.20157 0.2487 0.0
C198 C 0.36688 0.19903 0.26342 0.0
C199 C 0.3728 0.17837 0.25067 0.0
C200 C 0.36617 0.23182 0.32159 0.0
O201 O 0.38799 0.21628 0.32471 0.0
H202 H 0.43338 0.20841 0.2448 0.0
H203 H 0.34653 0.20317 0.27315 0.0
O204 O 0.43687 0.24524 0.289 0.0
H205 H 0.39099 0.29722 0.20544 0.0
H206 H 0.3576 0.16343 0.24824 0.0
Cu207 Cu 0.06278 0.15592 0.51477 0.0
N208 N 0.05101 0.17946 0.53645 0.0
N209 N 0.03361 0.21454 0.55016 0.0
C210 C 0.04472 0.20243 0.53107 0.0
C211 C 0.03316 0.19834 0.56823 0.0
C212 C 0.04383 0.17676 0.5597 0.0
O213 O 0.08732 0.17164 0.49041 0.0
C214 C 0.02406 0.1211 0.49369 0.0
O215 O 0.04877 0.10877 0.49009 0.0
H216 H 0.04779 0.2098 0.51331 0.0
H217 H 0.04531 0.16008 0.56953 0.0
N218 N 0.08421 0.13233 0.53132 0.0
N219 N 0.09378 0.10174 0.55622 0.0
C220 C 0.07249 0.11603 0.54645 0.0
C221 C 0.11395 0.12836 0.53145 0.0
C222 C 0.11993 0.10949 0.54673 0.0
C223 C 0.10425 0.16131 0.47518 0.0
O224 O 0.10493 0.13777 0.47424 0.0
H225 H 0.04881 0.11515 0.55059 0.0
H226 H 0.13018 0.1386 0.52131 0.0
O227 O 0.02583 0.14209 0.50252 0.0
H228 H 0.02473 0.20145 0.58616 0.0
H229 H 0.14189 0.1021 0.55047 0.0
Cu230 Cu 0.13007 0.78882 0.77493 0.0
N231 N 0.13783 0.76136 0.75677 0.0
N232 N 0.15447 0.72495 0.74639 0.0
C233 C 0.15362 0.74194 0.7637 0.0
C234 C 0.13865 0.73415 0.72787 0.0
C235 C 0.12835 0.75658 0.73436 0.0
O236 O 0.1623 0.79239 0.79813 0.0
C237 C 0.07741 0.76673 0.79346 0.0
O238 O 0.09315 0.74688 0.79171 0.0
H239 H 0.16445 0.74044 0.78103 0.0
H240 H 0.11477 0.76853 0.72359 0.0
N241 N 0.13189 0.81577 0.75511 0.0
N242 N 0.1193 0.84829 0.73386 0.0
C243 C 0.10918 0.82875 0.74576 0.0
C244 C 0.15712 0.82737 0.74883 0.0
C245 C 0.14947 0.84742 0.73576 0.0
C246 C 0.16353 0.78376 0.81922 0.0
O247 O 0.14052 0.77178 0.82772 0.0
H248 H 0.08574 0.82433 0.74822 0.0
H249 H 0.17953 0.8218 0.75381 0.0
O250 O 0.08987 0.78671 0.78859 0.0
H251 H 0.13445 0.72522 0.71094 0.0
H252 H 0.16492 0.8603 0.72816 0.0
Cu253 Cu 0.46146 0.87045 0.0172 0.0
N254 N 0.47357 0.84613 0.03781 0.0
N255 N 0.49113 0.8108 0.05068 0.0
C256 C 0.4801 0.82335 0.03184 0.0
C257 C 0.4913 0.82652 0.06919 0.0
C258 C 0.48051 0.84825 0.06118 0.0
O259 O 0.43824 0.85561 0.99137 0.0
C260 C 0.49951 0.90658 0.99719 0.0
O261 O 0.4745 0.91796 0.99206 0.0
H262 H 0.4772 0.81641 0.01386 0.0
H263 H 0.47872 0.86466 0.07145 0.0
N264 N 0.4386 0.89222 0.03497 0.0
N265 N 0.42714 0.92169 0.06066 0.0
C266 C 0.4491 0.91083 0.04793 0.0
C267 C 0.40906 0.89117 0.03969 0.0
C268 C 0.40189 0.90937 0.05545 0.0
C269 C 0.41705 0.86567 0.97976 0.0
O270 O 0.41102 0.88839 0.98377 0.0
H271 H 0.4726 0.9156 0.04878 0.0
H272 H 0.39395 0.87773 0.03263 0.0
O273 O 0.49819 0.88582 1.00657 0.0
H274 H 0.49955 0.82299 0.0871 0.0
H275 H 0.37984 0.91304 0.06268 0.0
Cu276 Cu 0.39479 0.78608 0.25276 0.0
N277 N 0.38588 0.75818 0.2698 0.0
N278 N 0.36788 0.72172 0.27832 0.0
C279 C 0.36886 0.73976 0.26213 0.0
C280 C 0.38489 0.72925 0.29694 0.0
C281 C 0.39602 0.75171 0.29159 0.0
O282 O 0.36364 0.79066 0.22882 0.0
C283 C 0.44796 0.76393 0.23511 0.0
O284 O 0.43215 0.7441 0.23643 0.0
H285 H 0.35741 0.73968 0.245 0.0
H286 H 0.41078 0.76245 0.30264 0.0
N287 N 0.39269 0.8125 0.27325 0.0
N288 N 0.40511 0.84519 0.29426 0.0
C289 C 0.41535 0.82585 0.28208 0.0
C290 C 0.36736 0.82364 0.28016 0.0
C291 C 0.37493 0.84381 0.2931 0.0
C292 C 0.36222 0.78067 0.20834 0.0
O293 O 0.38435 0.76683 0.2012 0.0
H294 H 0.43881 0.82197 0.27889 0.0
H295 H 0.34496 0.81777 0.27557 0.0
O296 O 0.4354 0.7839 0.23994 0.0
H297 H 0.38948 0.7191 0.31308 0.0
H298 H 0.35943 0.85653 0.30098 0.0
Cu299 Cu 0.45352 0.1503 0.5104 0.0
N300 N 0.46244 0.17656 0.49101 0.0
N301 N 0.47697 0.21317 0.47942 0.0
C302 C 0.47019 0.19878 0.49818 0.0
C303 C 0.47325 0.19932 0.45972 0.0
C304 C 0.46435 0.1768 0.46694 0.0
O305 O 0.42502 0.16032 0.53498 0.0
C306 C 0.49402 0.11679 0.53088 0.0
O307 O 0.46978 0.10384 0.53427 0.0
H308 H 0.47088 0.20419 0.5168 0.0
H309 H 0.46012 0.16153 0.45545 0.0
N310 N 0.43542 0.12669 0.49156 0.0
N311 N 0.42861 0.0976 0.46444 0.0
C312 C 0.44854 0.11255 0.47499 0.0
C313 C 0.4063 0.12047 0.49163 0.0
C314 C 0.40201 0.10256 0.47492 0.0
C315 C 0.43137 0.17335 0.55304 0.0
O316 O 0.45945 0.17933 0.55696 0.0
H317 H 0.47211 0.11362 0.47049 0.0
H318 H 0.38939 0.12845 0.50303 0.0
O319 O 0.49138 0.13786 0.52239 0.0
H320 H 0.47741 0.20476 0.44139 0.0
H321 H 0.38094 0.09376 0.471 0.0
Cu322 Cu 0.12812 0.23798 0.75668 0.0
N323 N 0.13471 0.26717 0.7723 0.0
N324 N 0.1507 0.30439 0.7802 0.0
C325 C 0.15162 0.2857 0.76471 0.0
C326 C 0.13255 0.29719 0.79821 0.0
C327 C 0.1227 0.27428 0.79325 0.0
O328 O 0.16015 0.23332 0.73342 0.0
C329 C 0.07541 0.2575 0.73598 0.0
O330 O 0.09134 0.2773 0.73542 0.0
H331 H 0.16443 0.28537 0.74823 0.0
H332 H 0.10762 0.26359 0.80403 0.0
N333 N 0.13162 0.21338 0.77929 0.0
N334 N 0.12323 0.18156 0.80288 0.0
C335 C 0.11173 0.19637 0.78591 0.0
C336 C 0.15642 0.20915 0.79234 0.0
C337 C 0.15137 0.18963 0.80685 0.0
C338 C 0.16101 0.2415 0.71213 0.0
O339 O 0.1378 0.25328 0.70362 0.0
H340 H 0.08927 0.19507 0.77863 0.0
H341 H 0.17685 0.21953 0.79121 0.0
O342 O 0.08771 0.23815 0.7432 0.0
H343 H 0.12639 0.30783 0.8137 0.0
H344 H 0.16746 0.18179 0.8191 0.0
Cu345 Cu 0.06423 0.87138 1.01273 0.0
N346 N 0.05646 0.84557 0.99241 0.0
N347 N 0.04013 0.80987 0.97975 0.0
C348 C 0.04242 0.82511 0.99852 0.0
C349 C 0.05332 0.82122 0.96115 0.0
C350 C 0.06348 0.8432 0.96904 0.0
O351 O 0.09162 0.86004 0.03755 0.0
C352 C 0.0237 0.90359 0.03469 0.0
O353 O 0.04832 0.9151 0.04062 0.0
H354 H 0.0338 0.82162 0.01633 0.0
H355 H 0.07535 0.85641 0.95851 0.0
N356 N 0.08226 0.89616 0.99546 0.0
N357 N 0.08908 0.9249 0.96809 0.0
C358 C 0.07266 0.90564 0.97459 0.0
C359 C 0.10546 0.90993 1.00245 0.0
C360 C 0.10969 0.92775 0.9856 0.0
C361 C 0.0839 0.85263 0.05824 0.0
O362 O 0.0556 0.85393 0.06466 0.0
H363 H 0.05335 0.89906 0.96481 0.0
H364 H 0.11788 0.90754 0.01896 0.0
O365 O 0.02589 0.8834 0.02419 0.0
H366 H 0.05596 0.81399 0.94324 0.0
H367 H 0.12649 0.94174 0.98621 0.0
Cu368 Cu 0.24867 0.41616 0.23727 0.0
N369 N 0.21793 0.40404 0.25637 0.0
N370 N 0.19549 0.38153 0.2843 0.0
C371 C 0.22136 0.38654 0.27277 0.0
C372 C 0.17496 0.39662 0.27475 0.0
C373 C 0.18889 0.41046 0.25746 0.0
O374 O 0.28167 0.3938 0.24197 0.0
C375 C 0.27126 0.4638 0.23481 0.0
O376 O 0.28105 0.45706 0.21362 0.0
H377 H 0.24266 0.37798 0.27646 0.0
H378 H 0.17864 0.42425 0.24653 0.0
N379 N 0.23649 0.4165 0.20508 0.0
N380 N 0.21695 0.4286 0.1701 0.0
C381 C 0.22044 0.43358 0.1937 0.0
C382 C 0.24299 0.40003 0.1882 0.0
C383 C 0.23112 0.4075 0.1666 0.0
C384 C 0.30433 0.39023 0.22859 0.0
O385 O 0.3088 0.40412 0.20989 0.0
H386 H 0.2121 0.44959 0.20246 0.0
H387 H 0.25564 0.38378 0.19135 0.0
O388 O 0.25787 0.44859 0.24804 0.0
H389 H 0.15151 0.39747 0.2797 0.0
H390 H 0.23251 0.39798 0.14969 0.0
Cu391 Cu 0.75056 0.10883 0.79183 0.0
N392 N 0.72018 0.12242 0.77296 0.0
N393 N 0.69764 0.14489 0.74487 0.0
C394 C 0.72401 0.13768 0.75445 0.0
C395 C 0.67636 0.13375 0.75802 0.0
C396 C 0.69032 0.11998 0.77534 0.0
O397 O 0.78399 0.13109 0.79178 0.0
C398 C 0.74156 0.06131 0.77664 0.0
O399 O 0.71351 0.06698 0.78107 0.0
H400 H 0.74572 0.14384 0.74853 0.0
H401 H 0.67947 0.10907 0.78882 0.0
N402 N 0.73834 0.10686 0.82393 0.0
N403 N 0.71924 0.09486 0.85906 0.0
C404 C 0.72103 0.09051 0.8352 0.0
C405 C 0.74753 0.12203 0.84122 0.0
C406 C 0.73587 0.1147 0.86285 0.0
C407 C 0.8009 0.1359 0.77407 0.0
O408 O 0.79805 0.12368 0.75403 0.0
H409 H 0.71059 0.07543 0.82633 0.0
H410 H 0.76205 0.13728 0.8383 0.0
O411 O 0.76179 0.07715 0.7797 0.0
H412 H 0.6524 0.13525 0.75531 0.0
H413 H 0.73922 0.12339 0.88003 0.0
Cu414 Cu 0.14253 0.52303 0.03967 0.0
N415 N 0.13477 0.50499 1.01212 0.0
N416 N 0.11845 0.49485 0.97551 0.0
C417 C 0.11918 0.51204 0.99262 0.0
C418 C 0.13414 0.47626 0.98472 0.0
C419 C 0.14424 0.48261 1.00726 0.0
O420 O 0.11072 0.5467 0.04295 0.0
C421 C 0.19548 0.54128 0.01784 0.0
O422 O 0.17965 0.54006 0.99798 0.0
H423 H 0.10844 0.5294 0.99115 0.0
H424 H 0.15774 0.47177 0.01922 0.0
N425 N 0.1402 0.50325 0.06668 0.0
N426 N 0.15222 0.4815 0.09903 0.0
C427 C 0.16257 0.49269 0.07914 0.0
C428 C 0.11497 0.49843 0.07896 0.0
C429 C 0.12228 0.48507 0.09891 0.0
C430 C 0.11009 0.56775 0.03419 0.0
O431 O 0.13345 0.57581 0.02233 0.0
H432 H 0.186 0.49388 0.07418 0.0
H433 H 0.09284 0.50467 0.07398 0.0
O434 O 0.18297 0.53621 0.03776 0.0
H435 H 0.13842 0.4594 0.97571 0.0
H436 H 0.10676 0.47851 0.11231 0.0
Cu437 Cu 0.77085 0.91879 0.28952 0.0
N438 N 0.80004 0.90731 0.2683 0.0
N439 N 0.82271 0.88443 0.24063 0.0
C440 C 0.80065 0.88579 0.25725 0.0
C441 C 0.83675 0.90589 0.24167 0.0
C442 C 0.82274 0.9199 0.25871 0.0
O443 O 0.73704 0.89665 0.28957 0.0
C444 C 0.75603 0.95823 0.25913 0.0
O445 O 0.75752 0.9422 0.2419 0.0
H446 H 0.78475 0.87165 0.26098 0.0
H447 H 0.82787 0.93836 0.26306 0.0
N448 N 0.78594 0.91904 0.3208 0.0
N449 N 0.80605 0.93107 0.35555 0.0
C450 C 0.80193 0.93623 0.33205 0.0
C451 C 0.77996 0.90246 0.33766 0.0
C452 C 0.79229 0.90983 0.3591 0.0
C453 C 0.72462 0.88805 0.27087 0.0
O454 O 0.73256 0.89609 0.24966 0.0
H455 H 0.80943 0.95255 0.32341 0.0
H456 H 0.76691 0.88639 0.33466 0.0
O457 O 0.76 0.95158 0.28078 0.0
H458 H 0.85492 0.91159 0.23016 0.0
H459 H 0.79117 0.90031 0.37601 0.0
Cu460 Cu 0.88197 1.00301 0.03779 0.0
N461 N 0.8915 0.02022 1.01002 0.0
N462 N 0.90994 0.02929 0.97377 0.0
C463 C 0.90808 1.01257 0.9913 0.0
C464 C 0.89394 0.0482 0.98193 0.0
C465 C 0.88256 0.04252 1.00423 0.0
O466 O 0.91193 0.97806 0.04229 0.0
C467 C 0.82758 0.98708 0.01598 0.0
O468 O 0.84292 0.98846 0.99591 0.0
H469 H 0.91867 0.99511 0.99069 0.0
H470 H 0.86852 0.05375 0.01539 0.0
N471 N 0.88515 0.02313 0.06448 0.0
N472 N 0.87403 0.04437 0.09735 0.0
C473 C 0.86306 0.0329 0.07782 0.0
C474 C 0.91085 0.02871 0.07584 0.0
C475 C 0.90409 0.04179 0.09611 0.0
C476 C 0.91292 0.95769 0.03205 0.0
O477 O 0.89119 0.95136 0.01742 0.0
H478 H 0.83944 0.0309 0.07377 0.0
H479 H 0.93293 0.02313 0.07004 0.0
O480 O 0.84079 0.99132 0.03584 0.0
H481 H 0.89022 0.06481 0.97233 0.0
H482 H 0.92004 0.04881 0.10897 0.0
Cu483 Cu 0.27158 0.60949 0.73293 0.0
N484 N 0.3018 0.62329 0.75164 0.0
N485 N 0.3253 0.64703 0.77811 0.0
C486 C 0.29883 0.6411 0.76782 0.0
C487 C 0.34569 0.63231 0.76782 0.0
C488 C 0.33114 0.61774 0.75153 0.0
O489 O 0.23769 0.6314 0.73236 0.0
C490 C 0.2479 0.56236 0.73304 0.0
O491 O 0.23824 0.5684 0.71159 0.0
H492 H 0.27761 0.6494 0.77209 0.0
H493 H 0.34123 0.60413 0.74029 0.0
N494 N 0.28516 0.60666 0.70135 0.0
N495 N 0.30525 0.59264 0.66735 0.0
C496 C 0.30107 0.58881 0.6911 0.0
C497 C 0.2793 0.62232 0.68362 0.0
C498 C 0.29161 0.61375 0.66266 0.0
C499 C 0.22188 0.637 0.7505 0.0
O500 O 0.22635 0.62584 0.77097 0.0
H501 H 0.30869 0.57308 0.70073 0.0
H502 H 0.26667 0.63875 0.68579 0.0
O503 O 0.26175 0.57789 0.74562 0.0
H504 H 0.36952 0.6322 0.77149 0.0
H505 H 0.29075 0.62251 0.64534 0.0
Cu506 Cu 0.13729 0.50839 0.48749 0.0
N507 N 0.12098 0.5256 0.51314 0.0
N508 N 0.10192 0.53383 0.54937 0.0
C509 C 0.11473 0.51703 0.53517 0.0
C510 C 0.10023 0.55376 0.53563 0.0
C511 C 0.11196 0.54861 0.51332 0.0
O512 O 0.11156 0.48081 0.48243 0.0
C513 C 0.19506 0.51918 0.5005 0.0
O514 O 0.1822 0.54039 0.50108 0.0
H515 H 0.1194 0.49878 0.54056 0.0
H516 H 0.11336 0.56066 0.49815 0.0
N517 N 0.13503 0.52667 0.45943 0.0
N518 N 0.14718 0.54665 0.42605 0.0
C519 C 0.15749 0.53611 0.44629 0.0
C520 C 0.10975 0.53143 0.4471 0.0
C521 C 0.11716 0.54372 0.4265 0.0
C522 C 0.11019 0.46236 0.49576 0.0
O523 O 0.12979 0.45969 0.51317 0.0
H524 H 0.18096 0.53467 0.45106 0.0
H525 H 0.08752 0.52596 0.4526 0.0
O526 O 0.17913 0.5011 0.49477 0.0
H527 H 0.09032 0.57066 0.54096 0.0
H528 H 0.10166 0.55009 0.41296 0.0
Cu529 Cu 0.37778 0.52336 0.98998 0.0
N530 N 0.38642 0.50554 0.0175 0.0
N531 N 0.40404 0.4957 0.05379 0.0
C532 C 0.40295 0.51264 0.03646 0.0
C533 C 0.38759 0.47722 0.04527 0.0
C534 C 0.37669 0.48338 0.02293 0.0
O535 O 0.40927 0.54706 0.98598 0.0
C536 C 0.32486 0.54106 1.01248 0.0
O537 O 0.34068 0.53923 0.0323 0.0
H538 H 0.4141 0.52985 0.03741 0.0
H539 H 0.36246 0.47258 1.0115 0.0
N540 N 0.37951 0.50347 0.96305 0.0
N541 N 0.36657 0.48261 0.93036 0.0
C542 C 0.35667 0.49416 0.9502 0.0
C543 C 0.4046 0.4975 0.95107 0.0
C544 C 0.39672 0.48466 0.9309 0.0
C545 C 0.41116 0.56711 0.99675 0.0
O546 O 0.38938 0.57393 1.01107 0.0
H547 H 0.33328 0.49655 0.95483 0.0
H548 H 0.42704 0.50264 0.95638 0.0
O549 O 0.33734 0.53652 0.99241 0.0
H550 H 0.38333 0.46056 0.05463 0.0
H551 H 0.41199 0.47743 0.91764 0.0
Cu552 Cu 0.70532 0.762 0.90328 0.0
N553 N 0.71296 0.78334 0.92821 0.0
N554 N 0.72898 0.79717 0.96359 0.0
C555 C 0.72509 0.77765 0.94957 0.0
C556 C 0.71884 0.81586 0.95045 0.0
C557 C 0.70894 0.80724 0.92862 0.0
O558 O 0.67937 0.73688 0.91594 0.0
C559 C 0.74719 0.74158 0.87092 0.0
O560 O 0.72318 0.73609 0.85837 0.0
H561 H 0.73157 0.75958 0.95445 0.0
H562 H 0.69968 0.81768 0.91402 0.0
N563 N 0.68559 0.77796 0.87839 0.0
N564 N 0.677 0.80194 0.84689 0.0
C565 C 0.69705 0.79481 0.86371 0.0
C566 C 0.65743 0.77418 0.87068 0.0
C567 C 0.65203 0.78893 0.85131 0.0
C568 C 0.68815 0.71669 0.92398 0.0
O569 O 0.7167 0.711 0.92259 0.0
H570 H 0.71962 0.8017 0.86549 0.0
H571 H 0.64206 0.76133 0.87842 0.0
O572 O 0.74401 0.75122 0.89144 0.0
H573 H 0.71843 0.83439 0.95622 0.0
H574 H 0.63145 0.78959 0.84102 0.0
Cu575 Cu 0.52379 0.48178 0.16757 0.0
N576 N 0.5541 0.50042 0.15387 0.0
N577 N 0.57773 0.52709 0.13054 0.0
C578 C 0.55159 0.51578 0.1353 0.0
C579 C 0.59747 0.51828 0.14671 0.0
C580 C 0.58284 0.50186 0.16103 0.0
O581 O 0.48923 0.48215 0.14631 0.0
C582 C 0.50318 0.48047 0.21571 0.0
O583 O 0.49425 0.45881 0.20975 0.0
H584 H 0.53084 0.51898 0.12581 0.0
H585 H 0.59238 0.4918 0.17578 0.0
N586 N 0.5365 0.44989 0.16925 0.0
N587 N 0.55681 0.41538 0.18165 0.0
C588 C 0.55507 0.43935 0.18521 0.0
C589 C 0.52645 0.43208 0.15509 0.0
C590 C 0.53888 0.4108 0.16268 0.0
C591 C 0.47427 0.50065 0.14035 0.0
O592 O 0.48019 0.52131 0.15067 0.0
H593 H 0.56618 0.44892 0.19959 0.0
H594 H 0.51069 0.4344 0.14049 0.0
O595 O 0.51522 0.4937 0.19978 0.0
H596 H 0.62085 0.52327 0.14816 0.0
H597 H 0.535 0.3933 0.15484 0.0
Cu598 Cu 0.82321 0.26389 0.40228 0.0
N599 N 0.81708 0.2422 0.42718 0.0
N600 N 0.80097 0.22767 0.46219 0.0
C601 C 0.80215 0.24696 0.4476 0.0
C602 C 0.81578 0.21009 0.45048 0.0
C603 C 0.82583 0.21915 0.4289 0.0
O604 O 0.84961 0.289 0.41451 0.0
C605 C 0.78013 0.2865 0.37259 0.0
O606 O 0.8038 0.29396 0.36071 0.0
H607 H 0.79202 0.26418 0.45147 0.0
H608 H 0.8387 0.20963 0.4155 0.0
N609 N 0.84075 0.2484 0.37607 0.0
N610 N 0.847 0.22256 0.34581 0.0
C611 C 0.83236 0.22724 0.36649 0.0
C612 C 0.86134 0.25742 0.36091 0.0
C613 C 0.8652 0.24152 0.34216 0.0
C614 C 0.8406 0.30897 0.42296 0.0
O615 O 0.8119 0.31426 0.422 0.0
H616 H 0.8149 0.21602 0.37395 0.0
H617 H 0.872 0.27473 0.36294 0.0
O618 O 0.78389 0.27485 0.39197 0.0
H619 H 0.81951 0.19211 0.45718 0.0
H620 H 0.87996 0.24381 0.32691 0.0
Cu621 Cu 1.00034 0.54128 0.67349 0.0
N622 N 0.97116 0.51998 0.66211 0.0
N623 N 0.94851 0.49278 0.63866 0.0
C624 C 0.96937 0.51035 0.63995 0.0
C625 C 0.93634 0.49177 0.66084 0.0
C626 C 0.95034 0.50851 0.67521 0.0
O627 O 0.03407 0.54112 0.65123 0.0
C628 C 0.01783 0.51142 0.71255 0.0
O629 O 0.01875 0.49458 0.69608 0.0
H630 H 0.98381 0.51563 0.6253 0.0
H631 H 0.9467 0.51129 0.69421 0.0
N632 N 0.98547 0.57262 0.67325 0.0
N633 N 0.96582 0.60778 0.6845 0.0
C634 C 0.96943 0.58434 0.69012 0.0
C635 C 0.99195 0.58912 0.65644 0.0
C636 C 0.97993 0.6108 0.66332 0.0
C637 C 0.04487 0.52251 0.64117 0.0
O638 O 0.03574 0.50121 0.64804 0.0
H639 H 0.96156 0.5761 0.70654 0.0
H640 H 1.00518 0.58571 0.64053 0.0
O641 O 1.01127 0.53278 0.70637 0.0
H642 H 0.91969 0.47894 0.66673 0.0
H643 H 0.9815 0.62753 0.65354 0.0
Cu644 Cu 0.71219 0.25383 0.61415 0.0
N645 N 0.72483 0.23397 0.58934 0.0
N646 N 0.74519 0.22272 0.55445 0.0
C647 C 0.73551 0.24129 0.56802 0.0
C648 C 0.74016 0.20295 0.5679 0.0
C649 C 0.72766 0.20997 0.58943 0.0
O650 O 0.68761 0.27901 0.59962 0.0
C651 C 0.74948 0.27515 0.65005 0.0
O652 O 0.72423 0.27968 0.66133 0.0
H653 H 0.73636 0.25996 0.5628 0.0
H654 H 0.72177 0.19847 0.60433 0.0
N655 N 0.69063 0.23538 0.63622 0.0
N656 N 0.68093 0.21 0.66635 0.0
C657 C 0.7023 0.22215 0.65418 0.0
C658 C 0.6609 0.23137 0.63686 0.0
C659 C 0.65482 0.21584 0.6555 0.0
C660 C 0.66714 0.29102 0.61012 0.0
O661 O 0.66261 0.28784 0.63319 0.0
H662 H 0.72605 0.22148 0.65818 0.0
H663 H 0.64485 0.23892 0.62441 0.0
O664 O 0.7486 0.26554 0.62936 0.0
H665 H 0.74596 0.18476 0.56297 0.0
H666 H 0.63295 0.2089 0.66024 0.0
Cu667 Cu 1.00148 0.48175 0.86008 0.0
N668 N 0.97135 0.50016 0.87444 0.0
N669 N 0.9484 0.52709 0.89799 0.0
C670 C 0.97476 0.51688 0.89171 0.0
C671 C 0.92759 0.5162 0.8841 0.0
C672 C 0.94181 0.49962 0.86965 0.0
O673 O 0.03581 0.48136 0.8816 0.0
C674 C 0.02347 0.48234 0.81235 0.0
O675 O 0.03344 0.46087 0.81794 0.0
H676 H 0.99623 0.52168 0.89929 0.0
H677 H 0.93138 0.48798 0.85654 0.0
N678 N 0.98852 0.44999 0.85724 0.0
N679 N 0.9688 0.4158 0.84336 0.0
C680 C 0.97148 0.43976 0.84004 0.0
C681 C 0.99664 0.43201 0.87195 0.0
C682 C 0.98456 0.41093 0.86346 0.0
C683 C 0.05168 0.49946 0.88722 0.0
O684 O 0.04717 0.51997 0.87616 0.0
H685 H 0.96205 0.44955 0.82505 0.0
H686 H 1.01077 0.43407 0.88761 0.0
O687 O 1.01024 0.49474 0.82837 0.0
H688 H 0.90372 0.51972 0.88445 0.0
H689 H 0.9871 0.3934 0.87155 0.0
Cu690 Cu 0.81145 0.76721 0.11759 0.0
N691 N 0.7997 0.78735 0.09268 0.0
N692 N 0.78086 0.79944 0.05751 0.0
C693 C 0.78882 0.78047 0.07123 0.0
C694 C 0.78712 0.81898 0.07099 0.0
C695 C 0.79868 0.81145 0.09267 0.0
O696 O 0.83578 0.7417 0.10337 0.0
C697 C 0.77377 0.74639 0.15318 0.0
O698 O 0.799 0.74194 0.16456 0.0
H699 H 0.78681 0.76188 0.06592 0.0
H700 H 0.80538 0.82272 0.10755 0.0
N701 N 0.83291 0.78538 0.14 0.0
N702 N 0.84234 0.8116 0.16956 0.0
C703 C 0.82101 0.79976 0.15695 0.0
C704 C 0.86276 0.78824 0.14175 0.0
C705 C 0.86866 0.80427 0.16 0.0
C706 C 0.85593 0.72943 0.11399 0.0
O707 O 0.86039 0.7325 0.13709 0.0
H708 H 0.7971 0.80201 0.15936 0.0
H709 H 0.87908 0.77958 0.1303 0.0
O710 O 0.77472 0.75583 0.13243 0.0
H711 H 0.78295 0.8374 0.06587 0.0
H712 H 0.89071 0.81009 0.16563 0.0
Cu713 Cu 0.52393 0.53812 0.35548 0.0
N714 N 0.55289 0.5168 0.36727 0.0
N715 N 0.57472 0.48827 0.38954 0.0
C716 C 0.55116 0.50337 0.38734 0.0
C717 C 0.59218 0.49266 0.37025 0.0
C718 C 0.57863 0.51022 0.35654 0.0
O719 O 0.49012 0.53861 0.37763 0.0
C720 C 0.50983 0.50767 0.31601 0.0
O721 O 0.51248 0.49047 0.33198 0.0
H722 H 0.53286 0.50449 0.4 0.0
H723 H 0.58648 0.5172 0.33956 0.0
N724 N 0.53926 0.56929 0.35539 0.0
N725 N 0.55952 0.60408 0.3438 0.0
C726 C 0.55512 0.58071 0.33824 0.0
C727 C 0.53369 0.5859 0.37233 0.0
C728 C 0.54609 0.60736 0.36524 0.0
C729 C 0.47587 0.52033 0.38515 0.0
O730 O 0.48153 0.4992 0.37573 0.0
H731 H 0.56235 0.5723 0.32171 0.0
H732 H 0.52087 0.58271 0.38849 0.0
O733 O 0.51304 0.52938 0.32266 0.0
H734 H 0.61265 0.48319 0.36582 0.0
H735 H 0.54527 0.62409 0.37509 0.0
Cu736 Cu 0.89458 0.74042 0.7771 0.0
N737 N 0.88624 0.76871 0.76039 0.0
N738 N 0.86858 0.80526 0.75153 0.0
C739 C 0.86831 0.78689 0.7674 0.0
C740 C 0.88743 0.79821 0.7339 0.0
C741 C 0.8983 0.77573 0.73945 0.0
O742 O 0.86345 0.73552 0.80095 0.0
C743 C 0.94798 0.76173 0.79514 0.0
O744 O 0.93218 0.78161 0.79451 0.0
H745 H 0.8553 0.78655 0.78378 0.0
H746 H 0.91425 0.76534 0.72914 0.0
N747 N 0.89183 0.71428 0.75623 0.0
N748 N 0.90303 0.68151 0.73488 0.0
C749 C 0.91399 0.70075 0.74682 0.0
C750 C 0.86612 0.70335 0.7499 0.0
C751 C 0.87293 0.68314 0.73677 0.0
C752 C 0.86109 0.74549 0.82137 0.0
O753 O 0.88223 0.76015 0.82878 0.0
H754 H 0.93762 0.70438 0.74948 0.0
H755 H 0.84398 0.70934 0.7551 0.0
O756 O 0.9353 0.74193 0.78984 0.0
H757 H 0.89343 0.8087 0.71829 0.0
H758 H 0.857 0.67053 0.72929 0.0
Cu759 Cu 0.56301 0.6536 0.01795 0.0
N760 N 0.55154 0.6783 0.03837 0.0
N761 N 0.53439 0.71384 0.05101 0.0
C762 C 0.54481 0.70098 0.03216 0.0
C763 C 0.5348 0.69843 0.06976 0.0
C764 C 0.54534 0.67657 0.06189 0.0
O765 O 0.58636 0.66778 0.99189 0.0
C766 C 0.52416 0.61823 0.99753 0.0
O767 O 0.54893 0.6067 0.99199 0.0
H768 H 0.54714 0.70761 0.01403 0.0
H769 H 0.54746 0.66034 0.07238 0.0
N770 N 0.58529 0.63163 0.03596 0.0
N771 N 0.5958 0.60217 0.06192 0.0
C772 C 0.57433 0.61302 0.04864 0.0
C773 C 0.61464 0.6327 0.04145 0.0
C774 C 0.62122 0.6145 0.05736 0.0
C775 C 0.60814 0.65771 0.98102 0.0
O776 O 0.61491 0.63534 0.98608 0.0
H777 H 0.55078 0.60831 0.04896 0.0
H778 H 0.62997 0.6462 0.03487 0.0
O779 O 0.52592 0.63874 1.0074 0.0
H780 H 0.52713 0.70225 0.08776 0.0
H781 H 0.64298 0.61088 0.06519 0.0
Cu782 Cu 0.63389 0.28827 0.2778 0.0
N783 N 0.64231 0.25988 0.26128 0.0
N784 N 0.66034 0.22351 0.25223 0.0
C785 C 0.66012 0.24166 0.26836 0.0
C786 C 0.64193 0.23073 0.23435 0.0
C787 C 0.63084 0.25311 0.24002 0.0
O788 O 0.66454 0.29349 0.30202 0.0
C789 C 0.57956 0.26765 0.2949 0.0
O790 O 0.59464 0.24742 0.29409 0.0
H791 H 0.6728 0.24184 0.28493 0.0
H792 H 0.61524 0.26365 0.22951 0.0
N793 N 0.63656 0.31402 0.25657 0.0
N794 N 0.62436 0.34558 0.23383 0.0
C795 C 0.61402 0.32676 0.24669 0.0
C796 C 0.66195 0.32502 0.24966 0.0
C797 C 0.65452 0.34451 0.23565 0.0
C798 C 0.66692 0.28272 0.32203 0.0
O799 O 0.64632 0.26714 0.3284 0.0
H800 H 0.59053 0.32276 0.24953 0.0
H801 H 0.68429 0.3195 0.25489 0.0
O802 O 0.593 0.28722 0.2901 0.0
H803 H 0.63643 0.22044 0.21847 0.0
H804 H 0.67011 0.35691 0.22745 0.0
Cu805 Cu 0.96258 0.37221 0.51974 0.0
N806 N 0.9737 0.34734 0.54008 0.0
N807 N 0.99057 0.31155 0.55226 0.0
C808 C 0.98032 0.32473 0.53357 0.0
C809 C 0.99014 0.32668 0.57124 0.0
C810 C 0.97978 0.34871 0.56366 0.0
O811 O 0.93975 0.35805 0.49327 0.0
C812 C 1.00132 0.4061 0.49708 0.0
O813 O 0.97654 0.41562 0.48856 0.0
H814 H 0.97804 0.31837 0.51532 0.0
H815 H 0.97772 0.3648 0.57439 0.0
N816 N 0.94029 0.39439 0.53754 0.0
N817 N 0.92994 0.42352 0.564 0.0
C818 C 0.95161 0.41172 0.55176 0.0
C819 C 0.91044 0.3951 0.54088 0.0
C820 C 0.90397 0.4131 0.55706 0.0
C821 C 0.91889 0.36823 0.48138 0.0
O822 O 0.9125 0.39084 0.48564 0.0
H823 H 0.97543 0.41481 0.55381 0.0
H824 H 0.89457 0.38296 0.53262 0.0
O825 O 0.99976 0.38715 0.50968 0.0
H826 H 0.99771 0.32255 0.58921 0.0
H827 H 0.88181 0.41785 0.56338 0.0
Cu828 Cu 0.89288 0.28704 0.74776 0.0
N829 N 0.88378 0.26047 0.76673 0.0
N830 N 0.86687 0.22438 0.77774 0.0
C831 C 0.86852 0.24076 0.75992 0.0
C832 C 0.88155 0.23431 0.79649 0.0
C833 C 0.89203 0.25654 0.7896 0.0
O834 O 0.86195 0.2899 0.72332 0.0
C835 C 0.94612 0.26341 0.73234 0.0
O836 O 0.93002 0.24384 0.73469 0.0
H837 H 0.85879 0.23856 0.74226 0.0
H838 H 0.90504 0.26887 0.80039 0.0
N839 N 0.89071 0.31477 0.76649 0.0
N840 N 0.90311 0.34712 0.78809 0.0
C841 C 0.91315 0.32692 0.77724 0.0
C842 C 0.86571 0.32758 0.77076 0.0
C843 C 0.87325 0.34753 0.78404 0.0
C844 C 0.86094 0.27876 0.70342 0.0
O845 O 0.88335 0.26475 0.69725 0.0
H846 H 0.9364 0.32136 0.77661 0.0
H847 H 0.84357 0.32284 0.76438 0.0
O848 O 0.9337 0.28376 0.73557 0.0
H849 H 0.88494 0.22596 0.81381 0.0
H850 H 0.85789 0.36117 0.79038 0.0
Cu851 Cu 0.95978 0.65518 1.01069 0.0
N852 N 0.97138 0.68026 0.99076 0.0
N853 N 0.98919 0.71574 0.97868 0.0
C854 C 0.98083 0.70213 0.99763 0.0
C855 C 0.98467 0.70172 0.9592 0.0
C856 C 0.97373 0.67988 0.96673 0.0
O857 O 0.93241 0.66821 0.03471 0.0
C858 C 0.9976 0.61978 0.03174 0.0
O859 O 0.97254 0.60778 0.03481 0.0
H860 H 0.98162 0.70779 0.01619 0.0
H861 H 0.96843 0.66461 0.95551 0.0
N862 N 0.93955 0.63241 0.99219 0.0
N863 N 0.93038 0.60262 0.9663 0.0
C864 C 0.95165 0.61555 0.97781 0.0
C865 C 0.90969 0.63009 0.98979 0.0
C866 C 0.90395 0.61176 0.97383 0.0
C867 C 0.93894 0.67342 0.05634 0.0
O868 O 0.96604 0.66886 0.06443 0.0
H869 H 0.97557 0.61322 0.97544 0.0
H870 H 0.89327 0.64111 0.99889 0.0
O871 O 0.99642 0.64092 0.02321 0.0
H872 H 0.9897 0.70654 0.94084 0.0
H873 H 0.88199 0.60556 0.96833 0.0
Cu874 Cu 0.63104 0.73635 0.25125 0.0
N875 N 0.6399 0.76383 0.26904 0.0
N876 N 0.65723 0.80033 0.27834 0.0
C877 C 0.65617 0.78277 0.26162 0.0
C878 C 0.64108 0.79196 0.29705 0.0
C879 C 0.63035 0.76948 0.29122 0.0
O880 O 0.66167 0.73291 0.22671 0.0
C881 C 0.57741 0.75856 0.23461 0.0
O882 O 0.59322 0.77839 0.23601 0.0
H883 H 0.66699 0.78357 0.24427 0.0
H884 H 0.61624 0.75817 0.30221 0.0
N885 N 0.63411 0.70927 0.27081 0.0
N886 N 0.6228 0.67638 0.29188 0.0
C887 C 0.61202 0.69634 0.28106 0.0
C888 C 0.65961 0.69721 0.27541 0.0
C889 C 0.65273 0.67692 0.28837 0.0
C890 C 0.66244 0.74348 0.20651 0.0
O891 O 0.63991 0.75723 0.20004 0.0
H892 H 0.58849 0.701 0.27988 0.0
H893 H 0.68161 0.70255 0.26924 0.0
O894 O 0.5901 0.73855 0.23903 0.0
H895 H 0.63676 0.80155 0.31358 0.0
H896 H 0.66851 0.66356 0.29468 0.0
Cu897 Cu 0.56055 0.36797 0.50976 0.0
N898 N 0.5379 0.3453 0.49317 0.0
N899 N 0.51555 0.31115 0.48207 0.0
C900 C 0.53445 0.32177 0.49786 0.0
C901 C 0.50693 0.32884 0.46697 0.0
C902 C 0.52077 0.34979 0.47383 0.0
O903 O 0.5888 0.35191 0.53127 0.0
C904 C 0.50583 0.38717 0.52889 0.0
O905 O 0.49419 0.36606 0.52414 0.0
H906 H 0.54571 0.3127 0.51249 0.0
H907 H 0.51821 0.36722 0.46556 0.0
N908 N 0.58162 0.38574 0.48697 0.0
N909 N 0.59106 0.41308 0.45851 0.0
C910 C 0.57105 0.40481 0.47477 0.0
C911 C 0.60926 0.38169 0.47828 0.0
C912 C 0.61518 0.39852 0.46076 0.0
C913 C 0.58423 0.3485 0.55357 0.0
O914 O 0.55933 0.35652 0.56329 0.0
H915 H 0.54898 0.4123 0.47779 0.0
H916 H 0.62382 0.36723 0.48396 0.0
O917 O 0.53384 0.39055 0.52576 0.0
H918 H 0.49124 0.32699 0.45226 0.0
H919 H 0.6354 0.39943 0.45007 0.0
Cu920 Cu 0.74696 0.91631 0.73388 0.0
N921 N 0.71641 0.89947 0.74947 0.0
N922 N 0.69378 0.87377 0.77449 0.0
C923 C 0.71896 0.87887 0.76197 0.0
C924 C 0.67449 0.89173 0.7692 0.0
C925 C 0.68853 0.90752 0.75385 0.0
O926 O 0.78379 0.89777 0.73638 0.0
C927 C 0.7664 0.96496 0.74255 0.0
O928 O 0.78755 0.961 0.72663 0.0
H929 H 0.7392 0.86823 0.76241 0.0
H930 H 0.67962 0.92437 0.74733 0.0
N931 N 0.73821 0.91921 0.70124 0.0
N932 N 0.72073 0.93227 0.66595 0.0
C933 C 0.71946 0.93461 0.69011 0.0
C934 C 0.75161 0.9067 0.6836 0.0
C935 C 0.74092 0.9147 0.66185 0.0
C936 C 0.79518 0.89018 0.7559 0.0
O937 O 0.78398 0.89753 0.77643 0.0
H938 H 0.7058 0.94764 0.69951 0.0
H939 H 0.76832 0.89289 0.68641 0.0
O940 O 0.7486 0.94806 0.74826 0.0
H941 H 0.65242 0.89411 0.77689 0.0
H942 H 0.74738 0.90797 0.64437 0.0
Cu943 Cu 0.25143 0.60496 0.28836 0.0
N944 N 0.22306 0.61617 0.26635 0.0
N945 N 0.20041 0.63962 0.23919 0.0
C946 C 0.22143 0.63828 0.25667 0.0
C947 C 0.18805 0.61751 0.23824 0.0
C948 C 0.20206 0.60313 0.25498 0.0
O949 O 0.28589 0.62644 0.2883 0.0
C950 C 0.26827 0.5647 0.25986 0.0
O951 O 0.26988 0.58056 0.2425 0.0
H952 H 0.23594 0.65289 0.26198 0.0
H953 H 0.19809 0.58423 0.25798 0.0
N954 N 0.23549 0.60621 0.31927 0.0
N955 N 0.21363 0.59613 0.35389 0.0
C956 C 0.21848 0.58986 0.33076 0.0
C957 C 0.24136 0.62338 0.33557 0.0
C958 C 0.22797 0.61721 0.35694 0.0
C959 C 0.29754 0.63564 0.2696 0.0
O960 O 0.28826 0.62867 0.24833 0.0
H961 H 0.21074 0.57336 0.3226 0.0
H962 H 0.25502 0.63906 0.33224 0.0
O963 O 0.26162 0.57171 0.28096 0.0
H964 H 0.17112 0.61171 0.22558 0.0
H965 H 0.22876 0.62742 0.37347 0.0
Cu966 Cu 0.64309 0.02439 0.53543 0.0
N967 N 0.63541 1.00746 0.50718 0.0
N968 N 0.61891 0.99869 0.47028 0.0
C969 C 0.61862 0.01477 0.48846 0.0
C970 C 0.63651 0.98053 0.47804 0.0
C971 C 0.6467 0.98604 0.50077 0.0
O972 O 0.61097 0.04752 0.54009 0.0
C973 C 0.69576 0.04349 0.51397 0.0
O974 O 0.67988 0.04258 0.49412 0.0
H975 H 0.60646 0.03158 0.48824 0.0
H976 H 0.66165 0.97537 0.51173 0.0
N977 N 0.64132 1.00331 0.5614 0.0
N978 N 0.65374 0.9815 0.59359 0.0
C979 C 0.66394 0.99507 0.5752 0.0
C980 C 0.61607 0.99459 0.57126 0.0
C981 C 0.62362 0.98115 0.59111 0.0
C982 C 0.60884 0.06823 0.53071 0.0
O983 O 0.63081 0.07635 0.5173 0.0
H984 H 0.68728 0.99952 0.57222 0.0
H985 H 0.59368 0.99811 0.56464 0.0
O986 O 0.68335 0.038 0.53382 0.0
H987 H 0.64217 0.96461 0.46788 0.0
H988 H 0.60814 0.97178 0.60274 0.0
Cu989 Cu 0.26348 0.42306 0.79212 0.0
N990 N 0.29305 0.41129 0.77146 0.0
N991 N 0.31634 0.38762 0.74488 0.0
C992 C 0.29419 0.38935 0.76134 0.0
C993 C 0.33 0.40925 0.74506 0.0
C994 C 0.31556 0.42378 0.76143 0.0
O995 O 0.22921 0.40133 0.79128 0.0
C996 C 0.2489 0.46246 0.76175 0.0
O997 O 0.24892 0.44613 0.74477 0.0
H998 H 0.27861 0.37512 0.76558 0.0
H999 H 0.3203 0.44247 0.76504 0.0
N1000 N 0.27768 0.42281 0.82366 0.0
N1001 N 0.29863 0.4336 0.85851 0.0
C1002 C 0.29533 0.4389 0.83495 0.0
C1003 C 0.26978 0.40679 0.84055 0.0
C1004 C 0.2826 0.41339 0.86204 0.0
C1005 C 0.21822 0.392 0.77235 0.0
O1006 O 0.22786 0.39913 0.75127 0.0
H1007 H 0.30475 0.45454 0.82626 0.0
H1008 H 0.2552 0.39158 0.83749 0.0
O1009 O 0.25369 0.45607 0.78336 0.0
H1010 H 0.34817 0.41461 0.73337 0.0
H1011 H 0.28034 0.40402 0.87895 0.0
Cu1012 Cu 0.37856 0.49962 0.53594 0.0
N1013 N 0.39647 0.51819 0.51196 0.0
N1014 N 0.41717 0.52804 0.47673 0.0
C1015 C 0.40258 0.51098 0.48942 0.0
C1016 C 0.42014 0.54672 0.49204 0.0
C1017 C 0.4074 0.54058 0.51372 0.0
O1018 O 0.40061 0.46937 0.53742 0.0
C1019 C 0.32224 0.5149 0.5222 0.0
O1020 O 0.33706 0.53526 0.52244 0.0
H1021 H 0.39672 0.4934 0.48268 0.0
H1022 H 0.40673 0.55143 0.52982 0.0
N1023 N 0.38137 0.5151 0.56583 0.0
N1024 N 0.36909 0.53531 0.59918 0.0
C1025 C 0.35952 0.5269 0.57772 0.0
C1026 C 0.40551 0.51605 0.58033 0.0
C1027 C 0.39804 0.52848 0.60084 0.0
C1028 C 0.42919 0.4705 0.53714 0.0
O1029 O 0.44203 0.49165 0.53571 0.0
H1030 H 0.33689 0.52889 0.57101 0.0
H1031 H 0.42709 0.50818 0.57645 0.0
O1032 O 0.33626 0.49572 0.52763 0.0
H1033 H 0.43166 0.56336 0.48823 0.0
H1034 H 0.41294 0.53243 0.61567 0.0
Cu1035 Cu 0.77621 0.10666 0.23696 0.0
N1036 N 0.80546 0.11798 0.25812 0.0
N1037 N 0.82804 0.14162 0.28501 0.0
C1038 C 0.80896 0.14062 0.2662 0.0
C1039 C 0.83715 0.11884 0.28871 0.0
C1040 C 0.82326 0.10432 0.27204 0.0
O1041 O 0.74233 0.12864 0.23789 0.0
C1042 C 0.7541 0.05876 0.23269 0.0
O1043 O 0.74694 0.06519 0.21073 0.0
H1044 H 0.79603 0.15572 0.25967 0.0
H1045 H 0.8246 0.08497 0.27106 0.0
N1046 N 0.79066 0.10668 0.20546 0.0
N1047 N 0.81056 0.09538 0.17039 0.0
C1048 C 0.80762 0.0902 0.194 0.0
C1049 C 0.78294 0.12283 0.18862 0.0
C1050 C 0.79511 0.11592 0.16701 0.0
C1051 C 0.73171 0.13747 0.25717 0.0
O1052 O 0.74179 0.1297 0.27793 0.0
H1053 H 0.81653 0.07429 0.20256 0.0
H1054 H 0.76875 0.13826 0.19177 0.0
O1055 O 0.76563 0.07419 0.24678 0.0
H1056 H 0.85186 0.11299 0.30303 0.0
H1057 H 0.79267 0.12524 0.15007 0.0
Cu1058 Cu 0.64386 1.00362 0.99064 0.0
N1059 N 0.635 0.0215 0.01808 0.0
N1060 N 0.61646 0.03184 0.05391 0.0
C1061 C 0.61835 0.01452 0.03699 0.0
C1062 C 0.63253 0.05042 0.0452 0.0
C1063 C 0.644 0.04396 0.02314 0.0
O1064 O 0.61287 0.97946 0.98673 0.0
C1065 C 0.6979 0.98727 1.01265 0.0
O1066 O 0.68265 0.98936 0.03271 0.0
H1067 H 0.60751 0.99719 0.03812 0.0
H1068 H 0.65793 0.05483 1.01157 0.0
N1069 N 0.64131 0.02344 0.96375 0.0
N1070 N 0.65331 0.04459 0.93107 0.0
C1071 C 0.66377 0.03284 0.9506 0.0
C1072 C 0.61587 0.02953 0.95228 0.0
C1073 C 0.62318 0.04255 0.93211 0.0
C1074 C 0.61134 0.95939 0.99745 0.0
O1075 O 0.63323 0.95282 1.01182 0.0
H1076 H 0.68729 0.03045 0.95485 0.0
H1077 H 0.59359 0.02443 0.95798 0.0
O1078 O 0.68469 0.99113 0.99273 0.0
H1079 H 0.63601 0.0674 0.05421 0.0
H1080 H 0.60752 0.04997 0.91924 0.0
Cu1081 Cu 0.8783 0.02592 0.48636 0.0
N1082 N 0.88694 1.00857 0.51417 0.0
N1083 N 0.90467 0.99941 0.55061 0.0
C1084 C 0.90407 0.0158 0.53274 0.0
C1085 C 0.88727 0.98115 0.54284 0.0
C1086 C 0.87631 0.9869 0.5204 0.0
O1087 O 0.90944 0.04991 0.48231 0.0
C1088 C 0.82516 0.04356 0.50843 0.0
O1089 O 0.8411 0.04232 0.52823 0.0
H1090 H 0.91589 0.03274 0.53304 0.0
H1091 H 0.86133 0.9762 0.5095 0.0
N1092 N 0.88096 1.00575 0.45968 0.0
N1093 N 0.86947 0.98404 0.42719 0.0
C1094 C 0.85876 0.99541 0.44688 0.0
C1095 C 0.90643 1.00063 0.44781 0.0
C1096 C 0.89944 0.98728 0.42778 0.0
C1097 C 0.91091 0.07034 0.49237 0.0
O1098 O 0.88876 0.07757 0.50613 0.0
H1099 H 0.83523 0.9969 0.45142 0.0
H1100 H 0.92851 1.0067 0.45312 0.0
O1101 O 0.83761 0.03867 0.48843 0.0
H1102 H 0.88229 0.96498 0.5528 0.0
H1103 H 0.91519 0.98052 0.41462 0.0
C1104 C 0.28348 0.31428 0.52346 0.0
C1105 C 0.28076 0.29382 0.53804 0.0
H1106 H 0.27776 0.32967 0.48867 0.0
C1107 C 0.26995 0.27249 0.52766 0.0
H1108 H 0.29198 0.33095 0.53069 0.0
C1109 C 0.2621 0.27167 0.50334 0.0
C1110 C 0.26488 0.29215 0.48878 0.0
H1111 H 0.26723 0.25644 0.53833 0.0
H1112 H 0.25421 0.25487 0.49594 0.0
C1113 C 0.27562 0.31346 0.4992 0.0
C1114 C 1.00895 0.01682 0.74602 0.0
C1115 C 0.99449 0.99562 0.73865 0.0
H1116 H 0.02109 0.03972 0.77539 0.0
C1117 C 0.97917 0.98194 0.75591 0.0
H1118 H 0.02091 0.02783 0.7332 0.0
C1119 C 0.97929 0.98876 0.78009 0.0
C1120 C 0.99469 1.00945 0.78763 0.0
H1121 H 0.96769 0.96557 0.7509 0.0
H1122 H 0.9679 0.97741 0.79295 0.0
C1123 C 1.00902 0.02367 0.77023 0.0
C1124 C 0.26985 0.7061 1.00052 0.0
C1125 C 0.27526 0.72784 0.98844 0.0
H1126 H 0.25445 0.6888 0.03226 0.0
C1127 C 0.26923 0.74944 1.00061 0.0
H1128 H 0.2744 0.68903 0.99207 0.0
C1129 C 0.25827 0.74931 0.0241 0.0
C1130 C 0.25272 0.72757 0.03614 0.0
H1131 H 0.27269 0.76661 0.99208 0.0
H1132 H 0.25443 0.76639 0.03273 0.0
C1133 C 0.2586 0.70597 0.02392 0.0
C1134 C 0.51291 1.00633 0.26891 0.0
C1135 C 0.52069 0.02273 0.28707 0.0
H1136 H 0.50565 1.00059 0.23128 0.0
C1137 C 0.52918 0.0461 0.28048 0.0
H1138 H 0.50622 0.9882 0.27337 0.0
C1139 C 0.52912 0.05312 0.25638 0.0
C1140 C 0.52024 0.03704 0.23827 0.0
H1141 H 0.53543 0.05915 0.29399 0.0
H1142 H 0.53522 0.07142 0.25205 0.0
C1143 C 0.51251 0.01346 0.24478 0.0
C1144 C 0.531 0.2453 0.2991 0.0
C1145 C 0.54644 0.26726 0.29773 0.0
H1146 H 0.48854 0.22739 0.29868 0.0
C1147 C 0.52969 0.28864 0.29696 0.0
H1148 H 0.54314 0.22848 0.29979 0.0
C1149 C 0.4983 0.28801 0.29641 0.0
C1150 C 0.48292 0.26598 0.2965 0.0
H1151 H 0.54082 0.30588 0.29596 0.0
H1152 H 0.48617 0.30479 0.29501 0.0
C1153 C 0.49963 0.24466 0.29843 0.0
C1154 C 1.00729 0.27543 0.52983 0.0
C1155 C 1.00126 0.28702 0.55176 0.0
H1156 H 0.0216 0.24369 0.51199 0.0
C1157 C 1.00621 0.27422 0.57317 0.0
H1158 H 1.00421 0.28451 0.51289 0.0
C1159 C 0.017 0.25066 0.57267 0.0
C1160 C 0.02289 0.23906 0.55073 0.0
H1161 H 1.00164 0.28223 0.59045 0.0
H1162 H 0.02082 0.2417 0.58959 0.0
C1163 C 0.01779 0.25183 0.52933 0.0
C1164 C 0.02981 0.74312 0.79797 0.0
C1165 C 0.04451 0.76545 0.79748 0.0
H1166 H 0.98788 0.72436 0.79769 0.0
C1167 C 0.02712 0.78646 0.79871 0.0
H1168 H 0.04247 0.72655 0.79711 0.0
C1169 C 0.99576 0.78518 0.79921 0.0
C1170 C 0.98104 0.76288 0.7983 0.0
H1171 H 0.03767 0.80396 0.79847 0.0
H1172 H 0.98309 0.80177 0.7993 0.0
C1173 C 0.99846 0.74184 0.79829 0.0
C1174 C 0.5072 0.77397 0.02911 0.0
C1175 C 0.50189 0.78629 0.05075 0.0
H1176 H 0.52104 0.74162 1.01209 0.0
C1177 C 0.50761 0.77424 0.07248 0.0
H1178 H 0.50349 0.78246 1.01194 0.0
C1179 C 0.51847 0.75072 0.07255 0.0
C1180 C 0.52363 0.73836 0.05091 0.0
H1181 H 0.50361 0.78283 0.08957 0.0
H1182 H 0.52291 0.74239 0.0897 0.0
C1183 C 0.51777 0.75037 0.02919 0.0
C1184 C 0.52974 0.78224 0.23078 0.0
C1185 C 0.54439 0.75988 0.2313 0.0
H1186 H 0.48787 0.80112 0.23148 0.0
C1187 C 0.52693 0.7389 0.23068 0.0
H1188 H 0.54245 0.79879 0.23117 0.0
C1189 C 0.49557 0.74026 0.23072 0.0
C1190 C 0.48093 0.76262 0.23153 0.0
H1191 H 0.53745 0.72138 0.23097 0.0
H1192 H 0.48286 0.72372 0.23106 0.0
C1193 C 0.49838 0.7836 0.23097 0.0
C1194 C 0.50841 0.27172 0.50194 0.0
C1195 C 0.50611 0.28635 0.48145 0.0
H1196 H 0.50141 0.23711 0.51736 0.0
C1197 C 0.49412 0.27637 0.46033 0.0
H1198 H 0.51723 0.27874 0.51861 0.0
C1199 C 0.48449 0.25254 0.45973 0.0
C1200 C 0.48677 0.23789 0.48018 0.0
H1201 H 0.49229 0.28686 0.44408 0.0
H1202 H 0.47502 0.24575 0.4432 0.0
C1203 C 0.49892 0.24781 0.5013 0.0
C1204 C 0.99688 0.28234 0.72756 0.0
C1205 C 0.97919 0.2616 0.72972 0.0
H1206 H 0.04106 0.29727 0.72747 0.0
C1207 C 0.99361 0.2392 0.73156 0.0
H1208 H 0.98654 0.29986 0.72602 0.0
C1209 C 0.02494 0.23771 0.73258 0.0
C1210 C 0.04257 0.25856 0.7316 0.0
H1211 H 0.98071 0.22283 0.73321 0.0
H1212 H 0.03526 0.22027 0.73494 0.0
C1213 C 0.0282 0.28082 0.72838 0.0
C1214 C 0.01424 0.74916 1.00024 0.0
C1215 C 1.00147 0.73973 0.97913 0.0
H1216 H 0.03673 0.77871 0.01692 0.0
C1217 C 1.00133 0.75407 0.95834 0.0
H1218 H 0.01526 0.73865 0.01653 0.0
C1219 C 0.01393 0.77702 0.95857 0.0
C1220 C 0.02678 0.78632 0.97963 0.0
H1221 H 0.99127 0.74771 0.94186 0.0
H1222 H 0.01326 0.78761 0.94231 0.0
C1223 C 0.02664 0.77219 1.0005 0.0
C1224 C 0.26367 0.4968 0.26508 0.0
C1225 C 0.27305 0.4894 0.24213 0.0
H1226 H 0.25508 0.52632 0.28881 0.0
C1227 C 0.28261 0.50692 0.22569 0.0
H1228 H 0.25623 0.48379 0.27822 0.0
C1229 C 0.28176 0.53128 0.2317 0.0
C1230 C 0.27157 0.53875 0.25438 0.0
H1231 H 0.29001 0.5019 0.20786 0.0
H1232 H 0.28862 0.5443 0.21836 0.0
C1233 C 0.26306 0.5212 0.27118 0.0
C1234 C 0.77652 0.03121 0.75752 0.0
C1235 C 0.74903 0.03661 0.76866 0.0
H1236 H 0.80358 1.00434 0.74029 0.0
C1237 C 0.72803 0.0181 0.77188 0.0
H1238 H 0.79315 0.04509 0.75477 0.0
C1239 C 0.73413 0.99483 0.76397 0.0
C1240 C 0.76124 0.98945 0.75227 0.0
H1241 H 0.70672 0.02157 0.78055 0.0
H1242 H 0.7172 0.98115 0.7666 0.0
C1243 C 0.78246 1.00789 0.74921 0.0
C1244 C 0.24305 0.54585 0.99422 0.0
C1245 C 0.22845 0.54487 0.01659 0.0
H1246 H 0.28488 0.54551 0.97533 0.0
C1247 C 0.24595 0.54518 0.03758 0.0
H1248 H 0.2303 0.54572 0.97767 0.0
C1249 C 0.2773 0.5452 0.03623 0.0
C1250 C 0.2919 0.54476 0.01384 0.0
H1251 H 0.23547 0.54455 0.05511 0.0
H1252 H 0.29005 0.54456 0.05277 0.0
C1253 C 0.2744 0.54572 0.99286 0.0
C1254 C 0.7448 0.01537 0.22319 0.0
C1255 C 0.75174 0.03323 0.24014 0.0
H1256 H 0.74069 0.97781 0.21587 0.0
C1257 C 0.75813 0.02624 0.26387 0.0
H1258 H 0.73976 0.02006 0.20476 0.0
C1259 C 0.75845 1.00194 0.2703 0.0
C1260 C 0.75267 0.98405 0.25309 0.0
H1261 H 0.76349 0.03952 0.2774 0.0
H1262 H 0.76416 0.99717 0.28859 0.0
C1263 C 0.7454 0.99109 0.22956 0.0
C1264 C 0.74617 0.98344 0.03561 0.0
C1265 C 0.73096 0.98388 0.01347 0.0
H1266 H 0.78851 0.984 0.05383 0.0
C1267 C 0.7479 0.98309 0.99221 0.0
H1268 H 0.73387 0.98396 0.05236 0.0
C1269 C 0.7793 0.98301 0.99307 0.0
C1270 C 0.79451 0.98384 0.0152 0.0
H1271 H 0.73696 0.98333 0.97485 0.0
H1272 H 0.7916 0.9832 0.97632 0.0
C1273 C 0.77756 0.98348 0.03647 0.0
C1274 C 0.23661 0.49492 0.73221 0.0
C1275 C 0.24599 0.48822 0.75536 0.0
H1276 H 0.22946 0.52343 0.70717 0.0
C1277 C 0.25417 0.50633 0.7717 0.0
H1278 H 0.23002 0.48146 0.71921 0.0
C1279 C 0.25411 0.53049 0.76471 0.0
C1280 C 0.24552 0.53709 0.74131 0.0
H1281 H 0.26155 0.50179 0.78966 0.0
H1282 H 0.26132 0.54394 0.7775 0.0
C1283 C 0.23623 0.51904 0.72532 0.0
C1284 C 0.27294 0.49386 0.51382 0.0
C1285 C 0.2897 0.5151 0.51653 0.0
H1286 H 0.2297 0.47833 0.50642 0.0
C1287 C 0.27502 0.53724 0.51379 0.0
H1288 H 0.28362 0.47652 0.5158 0.0
C1289 C 0.2445 0.53826 0.50861 0.0
C1290 C 0.22759 0.51718 0.50585 0.0
H1291 H 0.28707 0.55399 0.51577 0.0
H1292 H 0.23419 0.55576 0.5067 0.0
C1293 C 0.24213 0.4949 0.50842 0.0
C1294 C 0.76936 0.81904 0.01863 0.0
C1295 C 0.76768 0.79892 0.03381 0.0
H1296 H 0.75866 0.8342 0.98439 0.0
C1297 C 0.75279 0.7783 0.02544 0.0
H1298 H 0.78098 0.83512 0.02426 0.0
C1299 C 0.74009 0.77777 1.0025 0.0
C1300 C 0.74183 0.79786 0.98735 0.0
H1301 H 0.75049 0.76261 0.03668 0.0
H1302 H 0.72851 0.7617 0.99679 0.0
C1303 C 0.75654 0.81854 0.99572 0.0
C1304 C 0.5112 0.51847 0.27213 0.0
C1305 C 0.50553 0.50154 0.29029 0.0
H1306 H 0.51505 0.52514 0.23433 0.0
C1307 C 0.49725 0.47814 0.2836 0.0
H1308 H 0.51767 0.53664 0.27666 0.0
C1309 C 0.49546 0.47163 0.25939 0.0
C1310 C 0.50224 0.48826 0.24122 0.0
H1311 H 0.49258 0.46468 0.29709 0.0
H1312 H 0.4896 0.4533 0.25498 0.0
C1313 C 0.50975 0.51187 0.24786 0.0
C1314 C 0.77482 0.20464 0.49381 0.0
C1315 C 0.78699 0.22632 0.48546 0.0
H1316 H 0.75137 0.18658 0.52191 0.0
C1317 C 0.78523 0.24674 0.50015 0.0
H1318 H 0.77551 0.18868 0.48276 0.0
C1319 C 0.77165 0.24555 0.52269 0.0
C1320 C 0.75922 0.22392 0.53109 0.0
H1321 H 0.79484 0.2636 0.49439 0.0
H1322 H 0.77138 0.26159 0.5336 0.0
C1323 C 0.76098 0.20347 0.5163 0.0
C1324 C 0.01358 0.52102 0.75661 0.0
C1325 C 0.02186 0.50501 0.73824 0.0
H1326 H 1.00753 0.52648 0.79442 0.0
C1327 C 0.0325 0.48214 0.74463 0.0
H1328 H 1.00526 0.53877 0.75233 0.0
C1329 C 0.03402 0.47517 0.76872 0.0
C1330 C 0.02466 0.4908 0.78706 0.0
H1331 H 0.03922 0.46938 0.73097 0.0
H1332 H 0.04174 0.45721 0.77287 0.0
C1333 C 0.01484 0.51396 0.78075 0.0
C1334 C 0.77463 0.04802 0.48888 0.0
C1335 C 0.79218 0.0471 0.50984 0.0
H1336 H 0.7305 0.04799 0.47375 0.0
C1337 C 0.77763 0.0475 0.53224 0.0
H1338 H 0.78508 0.04784 0.47134 0.0
C1339 C 0.74628 0.04742 0.53365 0.0
C1340 C 0.72873 0.04713 0.51268 0.0
H1341 H 0.79041 0.04687 0.54877 0.0
H1342 H 0.73583 0.04676 0.55119 0.0
C1343 C 0.74328 0.04813 0.49029 0.0
C1344 C 0.21033 0.34401 0.30492 0.0
C1345 C 0.19122 0.36402 0.30311 0.0
H1346 H 0.22197 0.31219 0.32415 0.0
C1347 C 0.16834 0.36681 0.32025 0.0
H1348 H 0.22781 0.34098 0.2918 0.0
C1349 C 0.165 0.35023 0.33893 0.0
C1350 C 0.18443 0.33041 0.34092 0.0
H1351 H 0.15342 0.38212 0.31958 0.0
H1352 H 0.14758 0.35326 0.35209 0.0
C1353 C 0.20699 0.32745 0.32355 0.0
C1354 C 0.94619 0.98156 0.60662 0.0
C1355 C 0.95458 1.00397 0.61611 0.0
H1356 H 0.92414 0.96254 0.57834 0.0
C1357 C 0.94512 0.02489 0.60422 0.0
H1358 H 0.95314 0.96506 0.61526 0.0
C1359 C 0.92843 0.02342 0.58297 0.0
C1360 C 0.92072 1.00099 0.57312 0.0
H1361 H 0.95118 0.04244 0.611 0.0
H1362 H 0.92167 0.03989 0.57423 0.0
C1363 C 0.92945 0.9801 0.58543 0.0
C1364 C 0.31421 0.70055 0.81851 0.0
C1365 C 0.34022 0.69984 0.83274 0.0
H1366 H 0.28937 0.68491 0.78972 0.0
C1367 C 0.3614 0.68163 0.82852 0.0
H1368 H 0.29768 0.71455 0.82105 0.0
C1369 C 0.35656 0.66442 0.81065 0.0
C1370 C 0.33049 0.66504 0.79639 0.0
H1371 H 0.38147 0.68034 0.83938 0.0
H1372 H 0.3731 0.65041 0.80837 0.0
C1373 C 0.30946 0.68345 0.80051 0.0
C1374 C 0.59469 1.00894 0.0878 0.0
C1375 C 0.59995 0.03094 0.07618 0.0
H1376 H 0.57344 0.99069 0.11702 0.0
C1377 C 0.58821 0.05201 0.0864 0.0
H1378 H 0.60377 0.99243 0.0806 0.0
C1379 C 0.57088 0.05104 0.10729 0.0
C1380 C 0.56502 0.02899 0.11859 0.0
H1381 H 0.59162 0.06922 0.07786 0.0
H1382 H 0.56157 0.06757 0.1143 0.0
C1383 C 0.57753 1.00798 0.10881 0.0
C1384 C 0.21146 0.69573 0.20267 0.0
C1385 C 0.18457 0.69687 0.18948 0.0
H1386 H 0.23776 0.67675 0.2285 0.0
C1387 C 0.16249 0.67937 0.1938 0.0
H1388 H 0.22884 0.70902 0.20016 0.0
C1389 C 0.16742 0.66099 0.21042 0.0
C1390 C 0.1946 0.65951 0.22317 0.0
H1391 H 0.14157 0.67946 0.18395 0.0
H1392 H 0.14992 0.64785 0.21315 0.0
C1393 C 0.21643 0.6773 0.21925 0.0
C1394 C 0.59584 0.97975 0.4345 0.0
C1395 C 0.60361 1.00049 0.44748 0.0
H1396 H 0.57344 0.96503 0.40387 0.0
C1397 C 0.59565 0.02301 0.43799 0.0
H1398 H 0.60138 0.96212 0.4413 0.0
C1399 C 0.57958 0.0247 0.41647 0.0
C1400 C 0.57102 1.00391 0.40392 0.0
H1401 H 0.60172 0.03938 0.44722 0.0
H1402 H 0.57328 0.04231 0.41 0.0
C1403 C 0.57974 0.98143 0.41301 0.0
C1404 C 0.35601 0.34637 0.70193 0.0
C1405 C 0.33305 0.33029 0.69551 0.0
H1406 H 0.36885 0.37692 0.7228 0.0
C1407 C 0.30465 0.33309 0.70612 0.0
H1408 H 0.37807 0.34495 0.69399 0.0
C1409 C 0.2993 0.35161 0.72255 0.0
C1410 C 0.32219 0.36785 0.72875 0.0
H1411 H 0.28653 0.32092 0.70184 0.0
H1412 H 0.27699 0.35345 0.72996 0.0
C1413 C 0.35065 0.3649 0.71831 0.0
C1414 C 0.93577 0.04797 0.93901 0.0
C1415 C 0.92571 0.02735 0.95116 0.0
H1416 H 0.96016 0.06221 0.9091 0.0
C1417 C 0.93173 1.00475 0.94101 0.0
H1418 H 0.93177 0.06565 0.94634 0.0
C1419 C 0.94803 1.00278 0.91966 0.0
C1420 C 0.95879 0.02334 0.90786 0.0
H1421 H 0.9239 0.9885 0.94955 0.0
H1422 H 0.95264 0.98503 0.91264 0.0
C1423 C 0.95212 0.04599 0.91763 0.0
C1424 C 0.31422 0.24505 0.3326 0.0
C1425 C 0.34095 0.23321 0.3389 0.0
H1426 H 0.27036 0.25619 0.3435 0.0
C1427 C 0.34317 0.22267 0.36176 0.0
H1428 H 0.31165 0.25319 0.31507 0.0
C1429 C 0.31949 0.22454 0.37819 0.0
C1430 C 0.2929 0.23664 0.37196 0.0
H1431 H 0.36342 0.21336 0.36714 0.0
H1432 H 0.32213 0.21671 0.39586 0.0
C1433 C 0.29041 0.24659 0.34886 0.0
C1434 C 0.0567 0.05485 0.59467 0.0
C1435 C 0.0804 0.04752 0.60969 0.0
H1436 H 0.04237 0.07731 0.56581 0.0
C1437 C 0.10888 0.05777 0.60612 0.0
H1438 H 0.03436 0.04765 0.59687 0.0
C1439 C 0.11335 0.07525 0.58847 0.0
C1440 C 0.0895 0.08293 0.57378 0.0
H1441 H 0.12779 0.05243 0.61705 0.0
H1442 H 0.13543 0.08307 0.58675 0.0
C1443 C 0.06121 0.07224 0.57696 0.0
C1444 C 0.19394 0.7767 0.85664 0.0
C1445 C 0.19193 0.78555 0.83308 0.0
H1446 H 0.22234 0.76908 0.88671 0.0
C1447 C 0.21787 0.79509 0.82231 0.0
H1448 H 0.17441 0.76934 0.86551 0.0
C1449 C 0.24538 0.79485 0.8344 0.0
C1450 C 0.24763 0.78524 0.85763 0.0
H1451 H 0.21718 0.80213 0.8042 0.0
H1452 H 0.26504 0.80167 0.82527 0.0
C1453 C 0.22145 0.77664 0.86882 0.0
C1454 C 0.41042 0.94391 0.09679 0.0
C1455 C 0.43041 0.94128 0.07746 0.0
H1456 H 0.39864 0.96349 0.12839 0.0
C1457 C 0.45393 0.95789 0.07505 0.0
H1458 H 0.39231 0.93128 0.09944 0.0
C1459 C 0.45754 0.9765 0.09166 0.0
C1460 C 0.43777 0.97896 0.11121 0.0
H1461 H 0.46945 0.95664 0.06017 0.0
H1462 H 0.47573 0.98904 0.08903 0.0
C1463 C 0.41407 0.96247 0.11345 0.0
C1464 C 0.33245 0.77274 0.17083 0.0
C1465 C 0.33429 0.78271 0.19395 0.0
H1466 H 0.30448 0.76445 0.14071 0.0
C1467 C 0.30854 0.79349 0.20384 0.0
H1468 H 0.35186 0.76438 0.16265 0.0
C1469 C 0.28131 0.79339 0.19134 0.0
C1470 C 0.27922 0.78272 0.16856 0.0
H1471 H 0.30912 0.80139 0.2216 0.0
H1472 H 0.26173 0.80122 0.1998 0.0
C1473 C 0.30527 0.77285 0.15823 0.0
C1474 C 0.41681 0.05689 0.41138 0.0
C1475 C 0.44566 0.04731 0.40796 0.0
H1476 H 0.38881 0.08046 0.43173 0.0
C1477 C 0.46872 0.05429 0.42376 0.0
H1478 H 0.39847 0.05179 0.39971 0.0
C1479 C 0.46312 0.07062 0.4423 0.0
C1480 C 0.43431 0.08038 0.44557 0.0
H1481 H 0.49131 0.04754 0.42155 0.0
H1482 H 0.48138 0.0755 0.45413 0.0
C1483 C 0.4112 0.07318 0.42994 0.0
C1484 C 0.19074 0.24841 0.67438 0.0
C1485 C 0.18923 0.23974 0.69804 0.0
H1486 H 0.21859 0.25621 0.64406 0.0
C1487 C 0.2155 0.2306 0.70868 0.0
H1488 H 0.17094 0.25549 0.6656 0.0
C1489 C 0.24284 0.2311 0.69639 0.0
C1490 C 0.24459 0.2406 0.67307 0.0
H1491 H 0.2152 0.2237 0.72686 0.0
H1492 H 0.26276 0.2246 0.70543 0.0
C1493 C 0.21808 0.24876 0.662 0.0
C1494 C 0.07571 0.92948 0.92536 0.0
C1495 C 0.08473 0.93974 0.94722 0.0
H1496 H 0.06391 0.93546 0.88857 0.0
C1497 C 0.08903 0.96469 0.94847 0.0
H1498 H 0.07242 0.91029 0.92389 0.0
C1499 C 0.08386 0.97913 0.92833 0.0
C1500 C 0.07493 0.96883 0.90645 0.0
H1501 H 0.09575 0.97306 0.96516 0.0
H1502 H 0.08697 0.99833 0.92979 0.0
C1503 C 0.07113 0.94384 0.90512 0.0
C1504 C 0.34734 0.36313 0.21738 0.0
C1505 C 0.32327 0.36867 0.23269 0.0
H1506 H 0.38179 0.33806 0.20807 0.0
C1507 C 0.31617 0.35253 0.25124 0.0
H1508 H 0.35348 0.37516 0.20294 0.0
C1509 C 0.33214 0.33113 0.25402 0.0
C1510 C 0.3558 0.32524 0.2384 0.0
H1511 H 0.29771 0.35611 0.26336 0.0
H1512 H 0.32528 0.31894 0.26807 0.0
C1513 C 0.36343 0.3417 0.22022 0.0
C1514 C 0.82462 0.16949 0.79714 0.0
C1515 C 0.82044 0.15739 0.77523 0.0
H1516 H 0.84242 0.20028 0.81508 0.0
C1517 C 0.8331 0.16713 0.75431 0.0
H1518 H 0.81517 0.1625 0.81362 0.0
C1519 C 0.84868 0.18892 0.75516 0.0
C1520 C 0.85214 0.20135 0.77699 0.0
H1521 H 0.83027 0.1583 0.73713 0.0
H1522 H 0.8579 0.19608 0.7387 0.0
C1523 C 0.84035 0.19115 0.79801 0.0
C1524 C 0.02856 0.58446 0.04468 0.0
C1525 C 0.02702 0.60764 0.03485 0.0
H1526 H 0.05586 0.55385 0.0524 0.0
C1527 C 0.05357 0.61826 0.02627 0.0
H1528 H 1.0086 0.57575 0.0515 0.0
C1529 C 0.08074 0.6056 0.0266 0.0
C1530 C 0.08203 0.5821 0.03568 0.0
H1531 H 0.05323 0.63608 0.01854 0.0
H1532 H 0.10057 0.61405 0.01925 0.0
C1533 C 0.05572 0.57189 0.04518 0.0
C1534 C 0.68208 0.83534 0.29727 0.0
C1535 C 0.67246 0.82314 0.27654 0.0
H1536 H 0.70585 0.86538 0.3118 0.0
C1537 C 0.6785 0.83341 0.25398 0.0
H1538 H 0.67803 0.82793 0.31491 0.0
C1539 C 0.69448 0.85492 0.25218 0.0
C1540 C 0.70488 0.86671 0.27289 0.0
H1541 H 0.67097 0.82479 0.23765 0.0
H1542 H 0.69923 0.86201 0.23449 0.0
C1543 C 0.69812 0.85683 0.29547 0.0
C1544 C 0.96489 0.95087 0.04799 0.0
C1545 C 0.94002 0.9424 0.03493 0.0
H1546 H 1.01061 0.94524 0.05831 0.0
C1547 C 0.94209 0.9199 0.02363 0.0
H1548 H 0.96411 0.96807 0.05704 0.0
C1549 C 0.96882 0.90667 0.02454 0.0
C1550 C 0.99414 0.91574 0.03663 0.0
H1551 H 0.92334 0.91277 0.01353 0.0
H1552 H 0.96997 0.88977 0.01498 0.0
C1553 C 0.99163 0.93775 0.04875 0.0
C1554 C 0.19044 0.66874 0.77034 0.0
C1555 C 0.20204 0.65836 0.7493 0.0
H1556 H 0.16613 0.69803 0.78592 0.0
C1557 C 0.19646 0.66971 0.72719 0.0
H1558 H 0.19434 0.66052 0.78767 0.0
C1559 C 0.18038 0.69123 0.72621 0.0
C1560 C 0.16962 0.70205 0.74732 0.0
H1561 H 0.2051 0.66223 0.71062 0.0
H1562 H 0.17721 0.69978 0.70896 0.0
C1563 C 0.17452 0.69039 0.76937 0.0
C1564 C 0.03302 0.4388 0.47942 0.0
C1565 C 0.03041 0.41877 0.49456 0.0
H1566 H 0.06036 0.46798 0.4676 0.0
C1567 C 0.05532 0.41195 0.50853 0.0
H1568 H 0.01435 0.44447 0.46834 0.0
C1569 C 0.08171 0.42555 0.50827 0.0
C1570 C 0.08389 0.44614 0.49384 0.0
H1571 H 0.05411 0.39659 0.52038 0.0
H1572 H 0.10007 0.42029 0.51987 0.0
C1573 C 0.0595 0.45225 0.47897 0.0
C1574 C 0.46884 0.61637 1.00585 0.0
C1575 C 0.49454 0.6063 0.99515 0.0
H1576 H 0.42243 0.61195 0.0148 0.0
C1577 C 0.49198 0.58399 0.98361 0.0
H1578 H 0.46998 0.63354 0.01492 0.0
C1579 C 0.46463 0.57169 0.98341 0.0
C1580 C 0.43923 0.58131 0.99495 0.0
H1581 H 0.51127 0.57574 0.97514 0.0
H1582 H 0.46368 0.55428 0.97481 0.0
C1583 C 0.44154 0.60397 1.00584 0.0
C1584 C 0.65652 0.8307 0.81707 0.0
C1585 C 0.68128 0.81958 0.82815 0.0
H1586 H 0.64097 0.85611 0.79117 0.0
C1587 C 0.71026 0.82614 0.82064 0.0
H1588 H 0.63385 0.82635 0.82241 0.0
C1589 C 0.71436 0.84356 0.80286 0.0
C1590 C 0.68958 0.85489 0.792 0.0
H1591 H 0.7299 0.81781 0.82842 0.0
H1592 H 0.73705 0.84841 0.79807 0.0
C1593 C 0.66061 0.84804 0.79924 0.0
C1594 C 0.44699 0.4771 0.1088 0.0
C1595 C 0.45373 0.49936 0.11941 0.0
H1596 H 0.42622 0.4585 0.07962 0.0
C1597 C 0.44258 0.52036 0.10864 0.0
H1598 H 0.45524 0.46055 0.11658 0.0
C1599 C 0.42595 0.51916 0.08734 0.0
C1600 C 0.41992 0.49692 0.07638 0.0
H1601 H 0.44736 0.53781 0.1163 0.0
H1602 H 0.41793 0.53568 0.0794 0.0
C1603 C 0.43024 0.4759 0.08761 0.0
C1604 C 0.84254 0.20479 0.30529 0.0
C1605 C 0.84288 0.20211 0.33038 0.0
H1606 H 0.83703 0.18746 0.27111 0.0
C1607 C 0.83872 0.17918 0.34024 0.0
H1608 H 0.84545 0.22232 0.29728 0.0
C1609 C 0.83449 0.15929 0.32533 0.0
C1610 C 0.83366 0.162 0.30025 0.0
H1611 H 0.839 0.17667 0.35951 0.0
H1612 H 0.83117 0.14184 0.33341 0.0
C1613 C 0.83758 0.18495 0.29037 0.0
C1614 C 0.0691 0.50502 0.60449 0.0
C1615 C 0.06302 0.52509 0.619 0.0
H1616 H 0.08568 0.49202 0.57097 0.0
C1617 C 0.07191 0.54788 0.61091 0.0
H1618 H 0.06243 0.4872 0.61008 0.0
C1619 C 0.08545 0.55065 0.58843 0.0
C1620 C 0.09035 0.53072 0.57343 0.0
H1621 H 0.06769 0.56373 0.62166 0.0
H1622 H 0.09169 0.5685 0.58271 0.0
C1623 C 0.08254 0.5078 0.58199 0.0
C1624 C 0.71244 0.18136 0.68922 0.0
C1625 C 0.68515 0.19365 0.6862 0.0
H1626 H 0.73761 0.15597 0.7097 0.0
C1627 C 0.66198 0.18955 0.70282 0.0
H1628 H 0.7306 0.18373 0.67657 0.0
C1629 C 0.66603 0.17362 0.72198 0.0
C1630 C 0.69333 0.16129 0.72501 0.0
H1631 H 0.64082 0.19893 0.70125 0.0
H1632 H 0.64784 0.17128 0.73459 0.0
C1633 C 0.71646 0.16537 0.70831 0.0
C1634 C 0.09298 0.47488 0.94144 0.0
C1635 C 0.10353 0.49592 0.9525 0.0
H1636 H 0.06858 0.45946 0.91217 0.0
C1637 C 0.09866 0.51803 0.94096 0.0
H1638 H 0.09613 0.45758 0.94987 0.0
C1639 C 0.08292 0.51913 0.91922 0.0
C1640 C 0.07149 0.49815 0.90861 0.0
H1641 H 0.1069 0.53454 0.94878 0.0
H1642 H 0.07899 0.53651 0.91111 0.0
C1643 C 0.07708 0.47599 0.91982 0.0
C1644 C 0.80564 0.84843 0.21811 0.0
C1645 C 0.82817 0.86525 0.22364 0.0
H1646 H 0.79253 0.81813 0.19708 0.0
C1647 C 0.8558 0.86349 0.21159 0.0
H1648 H 0.78396 0.8492 0.22676 0.0
C1649 C 0.86054 0.84582 0.19414 0.0
C1650 C 0.83784 0.82929 0.18828 0.0
H1651 H 0.87385 0.87583 0.21551 0.0
H1652 H 0.88188 0.84555 0.18495 0.0
C1653 C 0.81044 0.83069 0.20074 0.0
C1654 C 0.43695 0.54678 0.43958 0.0
C1655 C 0.42922 0.5261 0.45268 0.0
H1656 H 0.45735 0.56122 0.40797 0.0
C1657 C 0.43466 0.50351 0.44221 0.0
H1658 H 0.4326 0.56448 0.44673 0.0
C1659 C 0.44849 0.50166 0.41975 0.0
C1660 C 0.45741 0.52232 0.40721 0.0
H1661 H 0.42931 0.48715 0.45169 0.0
H1662 H 0.45326 0.48396 0.41267 0.0
C1663 C 0.45095 0.54491 0.41719 0.0
C1664 C 0.78113 0.7287 0.83746 0.0
C1665 C 0.77737 0.74004 0.85977 0.0
H1666 H 0.81044 0.7213 0.80802 0.0
C1667 C 0.80216 0.75166 0.87026 0.0
H1668 H 0.76258 0.71953 0.82889 0.0
C1669 C 0.82966 0.75288 0.85817 0.0
C1670 C 0.83305 0.74232 0.83542 0.0
H1671 H 0.80005 0.76062 0.88744 0.0
H1672 H 0.84801 0.7626 0.8664 0.0
C1673 C 0.80865 0.72974 0.82548 0.0
C1674 C 0.56395 0.5478 0.09265 0.0
C1675 C 0.58293 0.54551 0.11273 0.0
H1676 H 0.55338 0.56732 0.06065 0.0
C1677 C 0.60668 0.56191 0.11539 0.0
H1678 H 0.54576 0.53531 0.0897 0.0
C1679 C 0.61109 0.58024 0.09862 0.0
C1680 C 0.59185 0.58272 0.07876 0.0
H1681 H 0.62151 0.56102 0.13073 0.0
H1682 H 0.62917 0.59283 0.10161 0.0
C1683 C 0.56833 0.56618 0.07592 0.0
C1684 C 0.69832 0.27379 0.35852 0.0
C1685 C 0.69453 0.28595 0.33663 0.0
H1686 H 0.72815 0.2647 0.38729 0.0
C1687 C 0.71827 0.30014 0.32796 0.0
H1688 H 0.68047 0.26281 0.36578 0.0
C1689 C 0.74562 0.30116 0.34022 0.0
C1690 C 0.74988 0.28815 0.36155 0.0
H1691 H 0.71614 0.30987 0.31122 0.0
H1692 H 0.76372 0.31159 0.33257 0.0
C1693 C 0.72566 0.27495 0.37089 0.0
C1694 C 0.91617 0.46337 0.61753 0.0
C1695 C 0.94307 0.47647 0.6189 0.0
H1696 H 0.89098 0.43628 0.59943 0.0
C1697 C 0.96507 0.4725 0.60121 0.0
H1698 H 0.89856 0.4661 0.63059 0.0
C1699 C 0.96054 0.45554 0.58303 0.0
C1700 C 0.93394 0.44199 0.58202 0.0
H1701 H 0.9862 0.48199 0.60168 0.0
H1702 H 0.97804 0.453 0.56983 0.0
C1703 C 0.91168 0.44637 0.59939 0.0
C1704 C 0.83196 0.2687 0.666 0.0
C1705 C 0.83324 0.27983 0.68862 0.0
H1706 H 0.8047 0.25879 0.63593 0.0
C1707 C 0.80718 0.29093 0.69761 0.0
H1708 H 0.8516 0.26007 0.6585 0.0
C1709 C 0.78022 0.29006 0.68475 0.0
C1710 C 0.7787 0.27828 0.66248 0.0
H1711 H 0.80732 0.29971 0.71496 0.0
H1712 H 0.76041 0.2982 0.69253 0.0
C1713 C 0.80504 0.26804 0.65303 0.0
C1714 C 0.96508 0.55055 0.9335 0.0
C1715 C 0.94369 0.54597 0.91546 0.0
H1716 H 0.97753 0.57194 0.96387 0.0
C1717 C 0.91776 0.56036 0.91463 0.0
H1718 H 0.98508 0.53968 0.93507 0.0
C1719 C 0.91339 0.57881 0.9313 0.0
C1720 C 0.93487 0.58346 0.94921 0.0
H1721 H 0.90099 0.55772 0.90085 0.0
H1722 H 0.8934 0.58973 0.92986 0.0
C1723 C 0.96076 0.5691 0.9501 0.0
C1724 C 0.71616 0.73125 0.20086 0.0
C1725 C 0.69007 0.74215 0.19169 0.0
H1726 H 0.76293 0.72398 0.19595 0.0
C1727 C 0.69127 0.75289 0.1689 0.0
H1728 H 0.71608 0.72276 0.21835 0.0
C1729 C 0.71817 0.7534 0.15594 0.0
C1730 C 0.74455 0.74337 0.16558 0.0
H1731 H 0.67159 0.76136 0.16125 0.0
H1732 H 0.71848 0.76236 0.1387 0.0
C1733 C 0.74309 0.73195 0.18802 0.0
C1734 C 0.55416 0.4594 0.41904 0.0
C1735 C 0.57895 0.4699 0.40753 0.0
H1736 H 0.53836 0.43302 0.4437 0.0
C1737 C 0.60784 0.46168 0.41344 0.0
H1738 H 0.53155 0.46497 0.41466 0.0
C1739 C 0.61184 0.44333 0.4303 0.0
C1740 C 0.58702 0.43257 0.44161 0.0
H1741 H 0.62743 0.46957 0.40514 0.0
H1742 H 0.63446 0.43772 0.43452 0.0
C1743 C 0.55812 0.44098 0.43578 0.0
C1744 C 0.82456 0.85745 0.77624 0.0
C1745 C 0.8168 0.86989 0.75518 0.0
H1746 H 0.84724 0.82729 0.79166 0.0
C1747 C 0.82767 0.86135 0.73308 0.0
H1748 H 0.81656 0.86347 0.79357 0.0
C1749 C 0.84503 0.84048 0.73196 0.0
C1750 C 0.85199 0.82753 0.75291 0.0
H1751 H 0.82208 0.87042 0.71647 0.0
H1752 H 0.85215 0.8341 0.71454 0.0
C1753 C 0.84191 0.8365 0.77511 0.0
C1754 C 0.32593 0.66551 0.29457 0.0
C1755 C 0.31802 0.6565 0.27185 0.0
H1756 H 0.34761 0.69339 0.31446 0.0
C1757 C 0.32802 0.66872 0.2513 0.0
H1758 H 0.31852 0.65661 0.31079 0.0
C1759 C 0.34475 0.68984 0.25342 0.0
C1760 C 0.35192 0.69927 0.27614 0.0
H1761 H 0.32241 0.66228 0.23351 0.0
H1762 H 0.35194 0.69881 0.23721 0.0
C1763 C 0.34269 0.68662 0.29669 0.0
C1764 C 0.54972 0.11691 0.52373 0.0
C1765 C 0.52417 0.10572 0.53344 0.0
H1766 H 0.59645 0.1139 0.51516 0.0
C1767 C 0.52732 0.08289 0.54382 0.0
H1768 H 0.5481 0.13449 0.51555 0.0
C1769 C 0.55507 0.07116 0.54371 0.0
C1770 C 0.58033 0.08187 0.53302 0.0
H1771 H 0.50816 0.07377 0.55151 0.0
H1772 H 0.55644 0.05333 0.55135 0.0
C1773 C 0.57745 0.10508 0.52343 0.0
C1774 C 0.18937 0.36203 0.79677 0.0
C1775 C 0.19843 0.37068 0.77421 0.0
H1776 H 0.16748 0.33413 0.81639 0.0
C1777 C 0.1904 0.35762 0.75357 0.0
H1778 H 0.19526 0.37155 0.81305 0.0
C1779 C 0.17446 0.33609 0.7555 0.0
C1780 C 0.16606 0.32711 0.77811 0.0
H1781 H 0.19702 0.36372 0.7359 0.0
H1782 H 0.1688 0.32646 0.73926 0.0
C1783 C 0.17335 0.34054 0.79869 0.0
C1784 C 0.47963 0.45101 0.53868 0.0
C1785 C 0.44825 0.44867 0.53742 0.0
H1786 H 0.52229 0.43355 0.53736 0.0
C1787 C 0.43583 0.42559 0.5355 0.0
H1788 H 0.49002 0.46848 0.5404 0.0
C1789 C 0.45451 0.4054 0.53381 0.0
C1790 C 0.48595 0.40791 0.53405 0.0
H1791 H 0.41175 0.42317 0.53461 0.0
H1792 H 0.44428 0.38793 0.53154 0.0
C1793 C 0.49822 0.43091 0.53703 0.0
C1794 C 0.68476 0.1887 0.23261 0.0
C1795 C 0.67692 0.20125 0.2536 0.0
H1796 H 0.70791 0.15878 0.21723 0.0
C1797 C 0.68592 0.19182 0.2759 0.0
H1798 H 0.67849 0.19549 0.21512 0.0
C1799 C 0.70286 0.17069 0.27712 0.0
C1800 C 0.7113 0.1585 0.25608 0.0
H1801 H 0.6799 0.20075 0.29246 0.0
H1802 H 0.70982 0.16419 0.29458 0.0
C1803 C 0.70174 0.16763 0.23382 0.0
C1804 C 0.58176 0.92199 1.00606 0.0
C1805 C 0.58359 0.94479 0.99544 0.0
H1806 H 0.55398 0.89189 0.01466 0.0
C1807 C 0.55802 0.95414 0.98389 0.0
H1808 H 0.60102 0.91421 0.01502 0.0
C1809 C 0.53097 0.94142 0.98382 0.0
C1810 C 0.52888 0.91895 0.99507 0.0
H1811 H 0.5586 0.97165 0.97549 0.0
H1812 H 0.51153 0.94946 0.97535 0.0
C1813 C 0.55476 0.90916 1.00578 0.0
C1814 C 0.9684 0.11993 0.50074 0.0
C1815 C 0.99434 0.10946 0.49083 0.0
H1816 H 0.92174 0.11583 0.50909 0.0
C1817 C 0.99197 0.08683 0.47989 0.0
H1818 H 0.96941 0.13734 0.50935 0.0
C1819 C 0.9646 0.07459 0.47961 0.0
C1820 C 0.93897 0.08457 0.49048 0.0
H1821 H 1.01145 0.07827 0.47203 0.0
H1822 H 0.96384 0.05692 0.47153 0.0
C1823 C 0.94105 0.10757 0.50067 0.0
C1824 C 0.12472 0.20105 0.46157 0.0
C1825 C 0.12456 0.17587 0.4598 0.0
H1826 H 0.14439 0.2341 0.45008 0.0
C1827 C 0.14476 0.16481 0.44384 0.0
H1828 H 0.10951 0.21022 0.47365 0.0
C1829 C 0.16487 0.17858 0.43028 0.0
C1830 C 0.1653 0.20373 0.43234 0.0
H1831 H 0.14531 0.14547 0.44202 0.0
H1832 H 0.18029 0.16945 0.41834 0.0
C1833 C 0.14481 0.21478 0.44805 0.0
C1834 C 0.09598 0.90761 0.70765 0.0
C1835 C 0.06895 0.90159 0.69618 0.0
H1836 H 0.13322 0.89533 0.72864 0.0
C1837 C 0.05822 0.87794 0.6981 0.0
H1838 H 0.10487 0.92563 0.70642 0.0
C1839 C 0.07439 0.8606 0.71085 0.0
C1840 C 0.10184 0.86643 0.72176 0.0
H1841 H 0.03728 0.87281 0.68972 0.0
H1842 H 0.06577 0.84247 0.71166 0.0
C1843 C 0.11234 0.89019 0.72017 0.0
C1844 C 0.40454 0.82715 0.95842 0.0
C1845 C 0.39751 0.8512 0.96363 0.0
H1846 H 0.39093 0.79442 0.94147 0.0
C1847 C 0.37073 0.86086 0.95434 0.0
H1848 H 0.42497 0.81911 0.96522 0.0
C1849 C 0.35105 0.84663 0.94083 0.0
C1850 C 0.35775 0.82242 0.93611 0.0
H1851 H 0.36455 0.8793 0.958 0.0
H1852 H 0.33036 0.85453 0.93439 0.0
C1853 C 0.38498 0.81298 0.94476 0.0
C1854 C 0.40894 0.13779 0.22892 0.0
C1855 C 0.41596 0.16232 0.22687 0.0
H1856 H 0.41711 0.10205 0.21629 0.0
C1857 C 0.43785 0.16933 0.21016 0.0
H1858 H 0.39246 0.13173 0.2418 0.0
C1859 C 0.45201 0.15231 0.1956 0.0
C1860 C 0.44481 0.12781 0.19748 0.0
H1861 H 0.44366 0.18805 0.208 0.0
H1862 H 0.46876 0.15837 0.18295 0.0
C1863 C 0.42329 0.12073 0.21447 0.0
C1864 C 0.15434 0.82016 0.07885 0.0
C1865 C 0.14696 0.81372 0.10251 0.0
H1866 H 0.14054 0.83773 0.0465 0.0
C1867 C 0.11936 0.82148 0.11199 0.0
H1868 H 0.17543 0.81456 0.07099 0.0
C1869 C 0.09915 0.83458 0.09783 0.0
C1870 C 0.10622 0.8405 0.07396 0.0
H1871 H 0.11291 0.81681 0.13013 0.0
H1872 H 0.07776 0.83973 0.10548 0.0
C1873 C 0.13432 0.83352 0.06481 0.0
C1874 C 0.42847 0.90551 0.31791 0.0
C1875 C 0.45586 0.90004 0.3291 0.0
H1876 H 0.39073 0.89225 0.29811 0.0
C1877 C 0.46666 0.87634 0.32806 0.0
H1878 H 0.41956 0.92357 0.31852 0.0
C1879 C 0.45029 0.85846 0.31628 0.0
C1880 C 0.42255 0.8638 0.30558 0.0
H1881 H 0.48786 0.87164 0.33629 0.0
H1882 H 0.45901 0.84033 0.31599 0.0
C1883 C 0.41187 0.88754 0.30643 0.0
C1884 C 0.41324 0.20108 0.58559 0.0
C1885 C 0.40688 0.1839 0.56781 0.0
H1886 H 0.39576 0.22652 0.6108 0.0
C1887 C 0.37669 0.17812 0.56318 0.0
H1888 H 0.43619 0.20597 0.58968 0.0
C1889 C 0.35345 0.18989 0.57535 0.0
C1890 C 0.3598 0.20779 0.59241 0.0
H1891 H 0.37092 0.16492 0.54967 0.0
H1892 H 0.33049 0.18544 0.57083 0.0
C1893 C 0.39 0.2129 0.59771 0.0
C1894 C 0.11874 0.15401 0.83748 0.0
C1895 C 0.10895 0.16145 0.81467 0.0
H1896 H 0.11428 0.12907 0.86625 0.0
C1897 C 0.08551 0.14864 0.80359 0.0
H1898 H 0.13642 0.16353 0.84677 0.0
C1899 C 0.07243 0.12878 0.81503 0.0
C1900 C 0.08236 0.12139 0.83786 0.0
H1901 H 0.07754 0.15373 0.78597 0.0
H1902 H 0.05434 0.11941 0.80609 0.0
C1903 C 0.10571 0.1343 0.84886 0.0
C1904 C 0.17592 0.45622 0.15864 0.0
C1905 C 0.20129 0.44267 0.15231 0.0
H1906 H 0.14041 0.47916 0.14661 0.0
C1907 C 0.21077 0.44268 0.12823 0.0
H1908 H 0.16798 0.45647 0.17699 0.0
C1909 C 0.19509 0.45581 0.11083 0.0
C1910 C 0.1693 0.46889 0.11707 0.0
H1911 H 0.23042 0.43262 0.12285 0.0
H1912 H 0.20271 0.45528 0.09239 0.0
C1913 C 0.15999 0.46904 0.14119 0.0
C1914 C 0.71394 0.08001 0.90066 0.0
C1915 C 0.70319 0.0813 0.87695 0.0
H1916 H 0.70655 0.06723 0.93644 0.0
C1917 C 0.67617 0.06969 0.8712 0.0
H1918 H 0.73486 0.08855 0.90558 0.0
C1919 C 0.65991 0.05756 0.88891 0.0
C1920 C 0.67051 0.0565 0.91269 0.0
H1921 H 0.66726 0.07047 0.85314 0.0
H1922 H 0.63907 0.04891 0.88397 0.0
C1923 C 0.69789 0.06763 0.91829 0.0
C1924 C 0.81145 0.94534 0.39739 0.0
C1925 C 0.8213 0.94531 0.37341 0.0
H1926 H 0.81894 0.95793 0.4333 0.0
C1927 C 0.84667 0.9589 0.36729 0.0
H1928 H 0.79177 0.93524 0.40258 0.0
C1929 C 0.86232 0.97171 0.38491 0.0
C1930 C 0.85266 0.97153 0.40895 0.0
H1931 H 0.85482 0.95913 0.349 0.0
H1932 H 0.88198 0.98183 0.37971 0.0
C1933 C 0.82682 0.95847 0.41494 0.0
C1934 C 0.81517 0.08118 0.12848 0.0
C1935 C 0.82594 0.08164 0.15222 0.0
H1936 H 0.82194 0.06878 0.09244 0.0
C1937 C 0.85229 0.06897 0.15775 0.0
H1938 H 0.79472 0.09053 0.12373 0.0
C1939 C 0.86797 0.05666 0.13979 0.0
C1940 C 0.85736 0.05643 0.11598 0.0
H1941 H 0.86116 0.06908 0.17584 0.0
H1942 H 0.88835 0.04724 0.14454 0.0
C1943 C 0.83058 0.06857 0.1106 0.0
C1944 C 0.32834 0.56379 0.60921 0.0
C1945 C 0.35225 0.54907 0.61654 0.0
H1946 H 0.29455 0.58898 0.61957 0.0
C1947 C 0.35986 0.54843 0.64106 0.0
H1948 H 0.322 0.56486 0.59049 0.0
C1949 C 0.34419 0.56238 0.65777 0.0
C1950 C 0.32067 0.57746 0.65034 0.0
H1951 H 0.3779 0.53707 0.64738 0.0
H1952 H 0.35092 0.56174 0.67642 0.0
C1953 C 0.31281 0.57784 0.62588 0.0
C1954 C 0.1718 0.56958 0.3658 0.0
C1955 C 0.1974 0.58293 0.37192 0.0
H1956 H 0.13559 0.54765 0.37834 0.0
C1957 C 0.20661 0.58361 0.39606 0.0
H1958 H 0.16414 0.56884 0.34737 0.0
C1959 C 0.19047 0.57136 0.41372 0.0
C1960 C 0.16449 0.55847 0.4077 0.0
H1961 H 0.22643 0.59354 0.40126 0.0
H1962 H 0.19793 0.57241 0.43219 0.0
C1963 C 0.15537 0.55765 0.38354 0.0
C1964 C 0.3219 0.45941 0.918 0.0
C1965 C 0.34885 0.47098 0.91207 0.0
H1966 H 0.2848 0.43839 0.90556 0.0
C1967 C 0.35855 0.47066 0.88804 0.0
H1968 H 0.31394 0.45926 0.93635 0.0
C1969 C 0.34178 0.45885 0.87038 0.0
C1970 C 0.3152 0.44678 0.87642 0.0
H1971 H 0.37906 0.47965 0.88288 0.0
H1972 H 0.34997 0.45866 0.85209 0.0
C1973 C 0.30537 0.4473 0.90041 0.0
C1974 C 0.65569 0.66315 0.95736 0.0
C1975 C 0.62751 0.67192 0.96461 0.0
H1976 H 0.69696 0.67036 0.93897 0.0
C1977 C 0.6188 0.69499 0.95713 0.0
H1978 H 0.66317 0.64548 0.96281 0.0
C1979 C 0.63808 0.70917 0.94328 0.0
C1980 C 0.66672 0.70075 0.93677 0.0
H1981 H 0.59723 0.7023 0.96231 0.0
H1982 H 0.63081 0.72702 0.93825 0.0
C1983 C 0.67513 0.67745 0.94373 0.0
C1984 C 0.57921 0.35737 0.21091 0.0
C1985 C 0.60697 0.36339 0.22121 0.0
H1986 H 0.54149 0.36922 0.19029 0.0
C1987 C 0.61762 0.38701 0.21876 0.0
H1988 H 0.57049 0.33932 0.21237 0.0
C1989 C 0.60097 0.40419 0.20616 0.0
C1990 C 0.57349 0.39802 0.19547 0.0
H1991 H 0.63876 0.39228 0.22673 0.0
H1992 H 0.60987 0.42216 0.20436 0.0
C1993 C 0.56275 0.37445 0.19807 0.0
C1994 C 0.85318 0.34833 0.44264 0.0
C1995 C 0.86179 0.32499 0.43596 0.0
H1996 H 0.86455 0.38039 0.46185 0.0
C1997 C 0.89021 0.31659 0.4431 0.0
H1998 H 0.83151 0.35541 0.4374 0.0
C1999 C 0.90903 0.33082 0.45736 0.0
C2000 C 0.90009 0.35394 0.46456 0.0
H2001 H 0.89757 0.2987 0.43832 0.0
H2002 H 0.9304 0.32353 0.46307 0.0
C2003 C 0.87219 0.3627 0.45663 0.0
C2004 C 0.94639 0.66785 0.71087 0.0
C2005 C 0.91968 0.66269 0.72314 0.0
H2006 H 0.98195 0.65434 0.6888 0.0
C2007 C 0.90902 0.63894 0.72326 0.0
H2008 H 0.95504 0.68599 0.71042 0.0
C2009 C 0.92457 0.62078 0.71114 0.0
C2010 C 0.95078 0.6261 0.69826 0.0
H2011 H 0.88865 0.6344 0.73279 0.0
H2012 H 0.91567 0.60272 0.71127 0.0
C2013 C 0.96163 0.64979 0.69837 0.0
C2014 C 0.63168 0.32425 0.55757 0.0
C2015 C 0.60631 0.33482 0.56826 0.0
H2016 H 0.67072 0.3023 0.56228 0.0
C2017 C 0.60189 0.33168 0.59307 0.0
H2018 H 0.63586 0.3263 0.53854 0.0
C2019 C 0.62199 0.31797 0.60674 0.0
C2020 C 0.64699 0.30696 0.59595 0.0
H2021 H 0.58268 0.3396 0.60194 0.0
H2022 H 0.61759 0.31567 0.62571 0.0
C2023 C 0.65171 0.31047 0.57122 0.0
C2024 C 0.91103 0.38877 0.8023 0.0
C2025 C 0.92038 0.36466 0.80124 0.0
H2026 H 0.91915 0.42394 0.81645 0.0
C2027 C 0.94649 0.35791 0.81366 0.0
H2028 H 0.89123 0.39464 0.7927 0.0
C2029 C 0.96247 0.37471 0.82724 0.0
C2030 C 0.95289 0.39874 0.82858 0.0
H2031 H 0.95421 0.3395 0.81332 0.0
H2032 H 0.9824 0.36888 0.83667 0.0
C2033 C 0.92718 0.40563 0.81571 0.0
C2034 C 0.90242 0.70403 0.11001 0.0
C2035 C 0.87602 0.71345 0.09983 0.0
H2036 H 0.943 0.68413 0.10434 0.0
C2037 C 0.86982 0.7085 0.07557 0.0
H2038 H 0.90795 0.7075 0.12862 0.0
C2039 C 0.88982 0.69496 0.0617 0.0
C2040 C 0.91671 0.68619 0.07165 0.0
H2041 H 0.84968 0.71539 0.06714 0.0
H2042 H 0.8845 0.69188 0.04298 0.0
C2043 C 0.92259 0.69066 0.09606 0.0
C2044 C 0.6156 0.63391 0.30342 0.0
C2045 C 0.60605 0.65797 0.30414 0.0
H2046 H 0.608 0.59782 0.31532 0.0
C2047 C 0.58033 0.66381 0.31744 0.0
H2048 H 0.63515 0.62883 0.2931 0.0
C2049 C 0.56497 0.6461 0.33029 0.0
C2050 C 0.57471 0.62209 0.32979 0.0
H2051 H 0.57254 0.68219 0.3184 0.0
H2052 H 0.5454 0.65118 0.34059 0.0
C2053 C 0.59994 0.61613 0.31595 0.0
C2054 C 0.65885 0.96618 0.63512 0.0
C2055 C 0.6711 0.96992 0.61215 0.0
H2056 H 0.66509 0.95138 0.67029 0.0
C2057 C 0.70034 0.96175 0.6075 0.0
H2058 H 0.63653 0.97252 0.63938 0.0
C2059 C 0.71666 0.94964 0.6252 0.0
C2060 C 0.70427 0.94562 0.64807 0.0
H2061 H 0.71035 0.96424 0.58999 0.0
H2062 H 0.73906 0.94345 0.62099 0.0
C2063 C 0.67531 0.95429 0.65292 0.0
loop_
_geom_bond_atom_site_label_1
_geom_bond_atom_site_label_2
_geom_bond_distance
_geom_bond_site_symmetry_2
_ccdc_geom_bond_type
Cu0 N1 1.999 . S
Cu0 O6 1.974 . S
Cu0 N11 1.985 . S
Cu0 O20 1.959 . S
N1 Cu0 1.999 . S
N1 C3 1.263 . S
N1 C5 1.389 . S
N2 C3 1.358 . S
N2 C4 1.400 . S
C3 N1 1.263 . S
C3 N2 1.358 . S
C3 H9 0.930 . S
C4 N2 1.400 . S
C4 C5 1.351 . S
C4 H21 0.930 . S
C5 N1 1.389 . S
C5 C4 1.351 . S
C5 H10 0.930 . S
O6 Cu0 1.974 . S
O6 C16 1.282 . S
C7 O8 1.261 . S
C7 O20 1.251 . S
O8 C7 1.261 . S
H9 C3 0.930 . S
H10 C5 0.930 . S
N11 Cu0 1.985 . S
N11 C13 1.335 . S
N11 C14 1.390 . S
N12 C13 1.345 . S
N12 C15 1.336 . S
C13 N11 1.335 . S
C13 N12 1.345 . S
C13 H18 0.930 . S
C14 N11 1.390 . S
C14 C15 1.346 . S
C14 H19 0.930 . S
C15 N12 1.336 . S
C15 C14 1.346 . S
C15 H22 0.929 . S
C16 O6 1.282 . S
C16 O17 1.216 . S
O17 C16 1.216 . S
H18 C13 0.930 . S
H19 C14 0.930 . S
O20 Cu0 1.959 . S
O20 C7 1.251 . S
H21 C4 0.930 . S
H22 C15 0.929 . S
Cu23 N24 1.999 1_565 S
Cu23 O29 1.974 . S
Cu23 N34 1.985 . S
Cu23 O43 1.959 . S
N24 Cu23 1.999 1_545 S
N24 C26 1.263 . S
N24 C28 1.389 . S
N25 C26 1.358 . S
N25 C27 1.400 . S
C26 N24 1.263 . S
C26 N25 1.358 . S
C26 H32 0.930 . S
C27 N25 1.400 . S
C27 C28 1.351 . S
C27 H44 0.930 . S
C28 N24 1.389 . S
C28 C27 1.351 . S
C28 H33 0.930 . S
O29 Cu23 1.974 . S
O29 C39 1.282 . S
C30 O31 1.261 . S
C30 O43 1.251 . S
O31 C30 1.261 . S
H32 C26 0.930 . S
H33 C28 0.930 . S
N34 Cu23 1.985 . S
N34 C36 1.335 . S
N34 C37 1.390 . S
N35 C36 1.345 . S
N35 C38 1.336 . S
C36 N34 1.335 . S
C36 N35 1.345 . S
C36 H41 0.930 . S
C37 N34 1.390 . S
C37 C38 1.346 . S
C37 H42 0.930 . S
C38 N35 1.336 . S
C38 C37 1.346 . S
C38 H45 0.929 . S
C39 O29 1.282 . S
C39 O40 1.216 1_455 S
O40 C39 1.216 1_655 S
H41 C36 0.930 . S
H42 C37 0.930 . S
O43 Cu23 1.959 . S
O43 C30 1.251 . S
H44 C27 0.930 . S
H45 C38 0.929 . S
Cu46 N47 1.999 . S
Cu46 O52 1.974 . S
Cu46 N57 1.985 . S
Cu46 O66 1.959 . S
N47 Cu46 1.999 . S
N47 C49 1.263 . S
N47 C51 1.389 . S
N48 C49 1.358 . S
N48 C50 1.400 . S
C49 N47 1.263 . S
C49 N48 1.358 . S
C49 H55 0.930 . S
C50 N48 1.400 . S
C50 C51 1.351 . S
C50 H67 0.930 . S
C51 N47 1.389 . S
C51 C50 1.351 . S
C51 H56 0.930 . S
O52 Cu46 1.974 . S
O52 C62 1.282 . S
C53 O54 1.261 . S
C53 O66 1.251 . S
O54 C53 1.261 . S
H55 C49 0.930 . S
H56 C51 0.930 . S
N57 Cu46 1.985 . S
N57 C59 1.335 . S
N57 C60 1.390 . S
N58 C59 1.345 . S
N58 C61 1.336 . S
C59 N57 1.335 . S
C59 N58 1.345 . S
C59 H64 0.930 . S
C60 N57 1.390 . S
C60 C61 1.346 . S
C60 H65 0.930 . S
C61 N58 1.336 . S
C61 C60 1.346 . S
C61 H68 0.929 . S
C62 O52 1.282 . S
C62 O63 1.216 . S
O63 C62 1.216 . S
H64 C59 0.930 . S
H65 C60 0.930 . S
O66 Cu46 1.959 . S
O66 C53 1.251 . S
H67 C50 0.930 . S
H68 C61 0.929 . S
Cu69 N70 1.999 1_545 S
Cu69 O75 1.974 . S
Cu69 N80 1.985 . S
Cu69 O89 1.959 . S
N70 Cu69 1.999 1_565 S
N70 C72 1.263 . S
N70 C74 1.389 . S
N71 C72 1.358 . S
N71 C73 1.400 . S
C72 N70 1.263 . S
C72 N71 1.358 . S
C72 H78 0.930 . S
C73 N71 1.400 . S
C73 C74 1.351 . S
C73 H90 0.930 . S
C74 N70 1.389 . S
C74 C73 1.351 . S
C74 H79 0.930 . S
O75 Cu69 1.974 . S
O75 C85 1.282 . S
C76 O77 1.261 . S
C76 O89 1.251 . S
O77 C76 1.261 . S
H78 C72 0.930 . S
H79 C74 0.930 . S
N80 Cu69 1.985 . S
N80 C82 1.335 . S
N80 C83 1.390 . S
N81 C82 1.345 . S
N81 C84 1.336 . S
C82 N80 1.335 . S
C82 N81 1.345 . S
C82 H87 0.930 . S
C83 N80 1.390 . S
C83 C84 1.346 . S
C83 H88 0.930 . S
C84 N81 1.336 . S
C84 C83 1.346 . S
C84 H91 0.929 . S
C85 O75 1.282 . S
C85 O86 1.216 . S
O86 C85 1.216 . S
H87 C82 0.930 . S
H88 C83 0.930 . S
O89 Cu69 1.959 . S
O89 C76 1.251 . S
H90 C73 0.930 . S
H91 C84 0.929 . S
Cu92 N93 1.999 . S
Cu92 O98 1.974 . S
Cu92 N103 1.985 . S
Cu92 O112 1.959 . S
N93 Cu92 1.999 . S
N93 C95 1.263 . S
N93 C97 1.389 . S
N94 C95 1.358 . S
N94 C96 1.400 . S
C95 N93 1.263 . S
C95 N94 1.358 . S
C95 H101 0.930 . S
C96 N94 1.400 . S
C96 C97 1.351 . S
C96 H113 0.930 . S
C97 N93 1.389 . S
C97 C96 1.351 . S
C97 H102 0.930 . S
O98 Cu92 1.974 . S
O98 C108 1.282 . S
C99 O100 1.261 . S
C99 O112 1.251 . S
O100 C99 1.261 . S
H101 C95 0.930 . S
H102 C97 0.930 . S
N103 Cu92 1.985 . S
N103 C105 1.335 . S
N103 C106 1.390 . S
N104 C105 1.345 . S
N104 C107 1.336 . S
C105 N103 1.335 . S
C105 N104 1.345 . S
C105 H110 0.930 . S
C106 N103 1.390 . S
C106 C107 1.346 . S
C106 H111 0.930 . S
C107 N104 1.336 . S
C107 C106 1.346 . S
C107 H114 0.929 . S
C108 O98 1.282 . S
C108 O109 1.216 . S
O109 C108 1.216 . S
H110 C105 0.930 . S
H111 C106 0.930 . S
O112 Cu92 1.959 . S
O112 C99 1.251 . S
H113 C96 0.930 . S
H114 C107 0.929 . S
Cu115 N116 1.999 1_565 S
Cu115 O121 1.974 . S
Cu115 N126 1.985 . S
Cu115 O135 1.959 . S
N116 Cu115 1.999 1_545 S
N116 C118 1.263 . S
N116 C120 1.389 . S
N117 C118 1.358 . S
N117 C119 1.400 . S
C118 N116 1.263 . S
C118 N117 1.358 . S
C118 H124 0.930 . S
C119 N117 1.400 . S
C119 C120 1.351 . S
C119 H136 0.930 . S
C120 N116 1.389 . S
C120 C119 1.351 . S
C120 H125 0.930 . S
O121 Cu115 1.974 . S
O121 C131 1.282 . S
C122 O123 1.261 . S
C122 O135 1.251 . S
O123 C122 1.261 . S
H124 C118 0.930 . S
H125 C120 0.930 . S
N126 Cu115 1.985 . S
N126 C128 1.335 . S
N126 C129 1.390 . S
N127 C128 1.345 . S
N127 C130 1.336 . S
C128 N126 1.335 . S
C128 N127 1.345 . S
C128 H133 0.930 . S
C129 N126 1.390 . S
C129 C130 1.346 . S
C129 H134 0.930 . S
C130 N127 1.336 . S
C130 C129 1.346 . S
C130 H137 0.929 . S
C131 O121 1.282 . S
C131 O132 1.216 . S
O132 C131 1.216 . S
H133 C128 0.930 . S
H134 C129 0.930 . S
O135 Cu115 1.959 . S
O135 C122 1.251 . S
H136 C119 0.930 . S
H137 C130 0.929 . S
Cu138 N139 1.999 . S
Cu138 O144 1.974 . S
Cu138 N149 1.985 . S
Cu138 O158 1.959 . S
N139 Cu138 1.999 . S
N139 C141 1.263 . S
N139 C143 1.389 . S
N140 C141 1.358 . S
N140 C142 1.400 . S
C141 N139 1.263 . S
C141 N140 1.358 . S
C141 H147 0.930 . S
C142 N140 1.400 . S
C142 C143 1.351 . S
C142 H159 0.930 . S
C143 N139 1.389 . S
C143 C142 1.351 . S
C143 H148 0.930 . S
O144 Cu138 1.974 . S
O144 C154 1.282 . S
C145 O146 1.261 . S
C145 O158 1.251 . S
O146 C145 1.261 . S
H147 C141 0.930 . S
H148 C143 0.930 . S
N149 Cu138 1.985 . S
N149 C151 1.335 . S
N149 C152 1.390 . S
N150 C151 1.345 . S
N150 C153 1.336 . S
C151 N149 1.335 . S
C151 N150 1.345 . S
C151 H156 0.930 . S
C152 N149 1.390 . S
C152 C153 1.346 . S
C152 H157 0.930 . S
C153 N150 1.336 . S
C153 C152 1.346 . S
C153 H160 0.929 . S
C154 O144 1.282 . S
C154 O155 1.216 . S
O155 C154 1.216 . S
H156 C151 0.930 . S
H157 C152 0.930 . S
O158 Cu138 1.959 . S
O158 C145 1.251 . S
H159 C142 0.930 . S
H160 C153 0.929 . S
Cu161 N162 1.999 1_545 S
Cu161 O167 1.974 . S
Cu161 N172 1.985 . S
Cu161 O181 1.959 . S
N162 Cu161 1.999 1_565 S
N162 C164 1.263 . S
N162 C166 1.389 . S
N163 C164 1.358 . S
N163 C165 1.400 . S
C164 N162 1.263 . S
C164 N163 1.358 . S
C164 H170 0.930 . S
C165 N163 1.400 . S
C165 C166 1.351 . S
C165 H182 0.930 . S
C166 N162 1.389 . S
C166 C165 1.351 . S
C166 H171 0.930 . S
O167 Cu161 1.974 . S
O167 C177 1.282 . S
C168 O169 1.261 . S
C168 O181 1.251 . S
O169 C168 1.261 . S
H170 C164 0.930 . S
H171 C166 0.930 . S
N172 Cu161 1.985 . S
N172 C174 1.335 . S
N172 C175 1.390 . S
N173 C174 1.345 . S
N173 C176 1.336 . S
C174 N172 1.335 . S
C174 N173 1.345 . S
C174 H179 0.930 . S
C175 N172 1.390 . S
C175 C176 1.346 . S
C175 H180 0.930 . S
C176 N173 1.336 . S
C176 C175 1.346 . S
C176 H183 0.929 . S
C177 O167 1.282 . S
C177 O178 1.216 1_455 S
O178 C177 1.216 1_655 S
H179 C174 0.930 . S
H180 C175 0.930 . S
O181 Cu161 1.959 . S
O181 C168 1.251 . S
H182 C165 0.930 . S
H183 C176 0.929 . S
Cu184 N185 1.999 . S
Cu184 O190 1.974 . S
Cu184 N195 1.985 . S
Cu184 O204 1.959 . S
N185 Cu184 1.999 . S
N185 C187 1.263 . S
N185 C189 1.389 . S
N186 C187 1.358 . S
N186 C188 1.400 . S
C187 N185 1.263 . S
C187 N186 1.358 . S
C187 H193 0.930 . S
C188 N186 1.400 . S
C188 C189 1.351 . S
C188 H205 0.930 . S
C189 N185 1.389 . S
C189 C188 1.351 . S
C189 H194 0.930 . S
O190 Cu184 1.974 . S
O190 C200 1.282 . S
C191 O192 1.261 . S
C191 O204 1.251 . S
O192 C191 1.261 . S
H193 C187 0.930 . S
H194 C189 0.930 . S
N195 Cu184 1.985 . S
N195 C197 1.335 . S
N195 C198 1.390 . S
N196 C197 1.345 . S
N196 C199 1.336 . S
C197 N195 1.335 . S
C197 N196 1.345 . S
C197 H202 0.930 . S
C198 N195 1.390 . S
C198 C199 1.346 . S
C198 H203 0.930 . S
C199 N196 1.336 . S
C199 C198 1.346 . S
C199 H206 0.929 . S
C200 O190 1.282 . S
C200 O201 1.216 . S
O201 C200 1.216 . S
H202 C197 0.930 . S
H203 C198 0.930 . S
O204 Cu184 1.959 . S
O204 C191 1.251 . S
H205 C188 0.930 . S
H206 C199 0.929 . S
Cu207 N208 1.999 . S
Cu207 O213 1.974 . S
Cu207 N218 1.985 . S
Cu207 O227 1.959 . S
N208 Cu207 1.999 . S
N208 C210 1.263 . S
N208 C212 1.389 1_455 S
N209 C210 1.358 . S
N209 C211 1.400 1_455 S
C210 N208 1.263 . S
C210 N209 1.358 . S
C210 H216 0.930 . S
C211 N209 1.400 1_655 S
C211 C212 1.351 . S
C211 H228 0.930 . S
C212 N208 1.389 1_655 S
C212 C211 1.351 . S
C212 H217 0.930 . S
O213 Cu207 1.974 . S
O213 C223 1.282 . S
C214 O215 1.261 1_655 S
C214 O227 1.251 1_655 S
O215 C214 1.261 1_455 S
H216 C210 0.930 . S
H217 C212 0.930 . S
N218 Cu207 1.985 . S
N218 C220 1.335 . S
N218 C221 1.390 . S
N219 C220 1.345 . S
N219 C222 1.336 . S
C220 N218 1.335 . S
C220 N219 1.345 . S
C220 H225 0.930 . S
C221 N218 1.390 . S
C221 C222 1.346 . S
C221 H226 0.930 . S
C222 N219 1.336 . S
C222 C221 1.346 . S
C222 H229 0.929 . S
C223 O213 1.282 . S
C223 O224 1.216 . S
O224 C223 1.216 . S
H225 C220 0.930 . S
H226 C221 0.930 . S
O227 Cu207 1.959 . S
O227 C214 1.251 1_455 S
H228 C211 0.930 . S
H229 C222 0.929 . S
Cu230 N231 1.999 . S
Cu230 O236 1.974 . S
Cu230 N241 1.985 . S
Cu230 O250 1.959 . S
N231 Cu230 1.999 . S
N231 C233 1.263 . S
N231 C235 1.389 . S
N232 C233 1.358 . S
N232 C234 1.400 . S
C233 N231 1.263 . S
C233 N232 1.358 . S
C233 H239 0.930 . S
C234 N232 1.400 . S
C234 C235 1.351 . S
C234 H251 0.930 . S
C235 N231 1.389 . S
C235 C234 1.351 . S
C235 H240 0.930 . S
O236 Cu230 1.974 . S
O236 C246 1.282 . S
C237 O238 1.261 . S
C237 O250 1.251 . S
O238 C237 1.261 . S
H239 C233 0.930 . S
H240 C235 0.930 . S
N241 Cu230 1.985 . S
N241 C243 1.335 . S
N241 C244 1.390 . S
N242 C243 1.345 . S
N242 C245 1.336 . S
C243 N241 1.335 . S
C243 N242 1.345 . S
C243 H248 0.930 . S
C244 N241 1.390 . S
C244 C245 1.346 . S
C244 H249 0.930 . S
C245 N242 1.336 . S
C245 C244 1.346 . S
C245 H252 0.929 . S
C246 O236 1.282 . S
C246 O247 1.216 . S
O247 C246 1.216 . S
H248 C243 0.930 . S
H249 C244 0.930 . S
O250 Cu230 1.959 . S
O250 C237 1.251 . S
H251 C234 0.930 . S
H252 C245 0.929 . S
Cu253 N254 1.999 . S
Cu253 O259 1.974 . S
Cu253 N264 1.985 . S
Cu253 O273 1.959 . S
N254 Cu253 1.999 . S
N254 C256 1.263 . S
N254 C258 1.389 . S
N255 C256 1.358 . S
N255 C257 1.400 . S
C256 N254 1.263 . S
C256 N255 1.358 . S
C256 H262 0.930 . S
C257 N255 1.400 . S
C257 C258 1.351 . S
C257 H274 0.930 . S
C258 N254 1.389 . S
C258 C257 1.351 . S
C258 H263 0.930 . S
O259 Cu253 1.974 . S
O259 C269 1.282 . S
C260 O261 1.261 . S
C260 O273 1.251 . S
O261 C260 1.261 . S
H262 C256 0.930 . S
H263 C258 0.930 . S
N264 Cu253 1.985 . S
N264 C266 1.335 1_556 S
N264 C267 1.390 . S
N265 C266 1.345 . S
N265 C268 1.330 1_554 S
C266 N264 1.335 1_554 S
C266 N265 1.345 . S
C266 H271 0.930 . S
C267 N264 1.390 . S
C267 C268 1.351 . S
C267 H272 0.930 . S
C268 N265 1.330 1_556 S
C268 C267 1.351 . S
C268 H275 0.931 . S
C269 O259 1.282 . S
C269 O270 1.216 . S
O270 C269 1.216 . S
H271 C266 0.930 . S
H272 C267 0.930 . S
O273 Cu253 1.959 . S
O273 C260 1.251 . S
H274 C257 0.930 . S
H275 C268 0.931 . S
Cu276 N277 1.999 . S
Cu276 O282 1.974 . S
Cu276 N287 1.985 . S
Cu276 O296 1.959 . S
N277 Cu276 1.999 . S
N277 C279 1.263 . S
N277 C281 1.389 . S
N278 C279 1.358 . S
N278 C280 1.400 . S
C279 N277 1.263 . S
C279 N278 1.358 . S
C279 H285 0.930 . S
C280 N278 1.400 . S
C280 C281 1.351 . S
C280 H297 0.930 . S
C281 N277 1.389 . S
C281 C280 1.351 . S
C281 H286 0.930 . S
O282 Cu276 1.974 . S
O282 C292 1.282 . S
C283 O284 1.261 . S
C283 O296 1.251 . S
O284 C283 1.261 . S
H285 C279 0.930 . S
H286 C281 0.930 . S
N287 Cu276 1.985 . S
N287 C289 1.335 . S
N287 C290 1.390 . S
N288 C289 1.345 . S
N288 C291 1.336 . S
C289 N287 1.335 . S
C289 N288 1.345 . S
C289 H294 0.930 . S
C290 N287 1.390 . S
C290 C291 1.346 . S
C290 H295 0.930 . S
C291 N288 1.336 . S
C291 C290 1.346 . S
C291 H298 0.929 . S
C292 O282 1.282 . S
C292 O293 1.216 . S
O293 C292 1.216 . S
H294 C289 0.930 . S
H295 C290 0.930 . S
O296 Cu276 1.959 . S
O296 C283 1.251 . S
H297 C280 0.930 . S
H298 C291 0.929 . S
Cu299 N300 1.999 . S
Cu299 O305 1.974 . S
Cu299 N310 1.985 . S
Cu299 O319 1.959 . S
N300 Cu299 1.999 . S
N300 C302 1.263 . S
N300 C304 1.389 . S
N301 C302 1.358 . S
N301 C303 1.400 . S
C302 N300 1.263 . S
C302 N301 1.358 . S
C302 H308 0.930 . S
C303 N301 1.400 . S
C303 C304 1.351 . S
C303 H320 0.930 . S
C304 N300 1.389 . S
C304 C303 1.351 . S
C304 H309 0.930 . S
O305 Cu299 1.974 . S
O305 C315 1.282 . S
C306 O307 1.261 . S
C306 O319 1.251 . S
O307 C306 1.261 . S
H308 C302 0.930 . S
H309 C304 0.930 . S
N310 Cu299 1.985 . S
N310 C312 1.335 . S
N310 C313 1.390 . S
N311 C312 1.345 . S
N311 C314 1.336 . S
C312 N310 1.335 . S
C312 N311 1.345 . S
C312 H317 0.930 . S
C313 N310 1.390 . S
C313 C314 1.346 . S
C313 H318 0.930 . S
C314 N311 1.336 . S
C314 C313 1.346 . S
C314 H321 0.929 . S
C315 O305 1.282 . S
C315 O316 1.216 . S
O316 C315 1.216 . S
H317 C312 0.930 . S
H318 C313 0.930 . S
O319 Cu299 1.959 . S
O319 C306 1.251 . S
H320 C303 0.930 . S
H321 C314 0.929 . S
Cu322 N323 1.999 . S
Cu322 O328 1.974 . S
Cu322 N333 1.985 . S
Cu322 O342 1.959 . S
N323 Cu322 1.999 . S
N323 C325 1.263 . S
N323 C327 1.389 . S
N324 C325 1.358 . S
N324 C326 1.400 . S
C325 N323 1.263 . S
C325 N324 1.358 . S
C325 H331 0.930 . S
C326 N324 1.400 . S
C326 C327 1.351 . S
C326 H343 0.930 . S
C327 N323 1.389 . S
C327 C326 1.351 . S
C327 H332 0.930 . S
O328 Cu322 1.974 . S
O328 C338 1.282 . S
C329 O330 1.261 . S
C329 O342 1.251 . S
O330 C329 1.261 . S
H331 C325 0.930 . S
H332 C327 0.930 . S
N333 Cu322 1.985 . S
N333 C335 1.335 . S
N333 C336 1.390 . S
N334 C335 1.345 . S
N334 C337 1.336 . S
C335 N333 1.335 . S
C335 N334 1.345 . S
C335 H340 0.930 . S
C336 N333 1.390 . S
C336 C337 1.346 . S
C336 H341 0.930 . S
C337 N334 1.336 . S
C337 C336 1.346 . S
C337 H344 0.929 . S
C338 O328 1.282 . S
C338 O339 1.216 . S
O339 C338 1.216 . S
H340 C335 0.930 . S
H341 C336 0.930 . S
O342 Cu322 1.959 . S
O342 C329 1.251 . S
H343 C326 0.930 . S
H344 C337 0.929 . S
Cu345 N346 1.999 . S
Cu345 O351 1.974 . S
Cu345 N356 1.985 . S
Cu345 O365 1.959 . S
N346 Cu345 1.999 . S
N346 C348 1.263 . S
N346 C350 1.389 1_455 S
N347 C348 1.358 . S
N347 C349 1.400 1_455 S
C348 N346 1.263 . S
C348 N347 1.358 . S
C348 H354 0.930 . S
C349 N347 1.400 1_655 S
C349 C350 1.351 . S
C349 H366 0.930 . S
C350 N346 1.389 1_655 S
C350 C349 1.351 . S
C350 H355 0.930 . S
O351 Cu345 1.974 . S
O351 C361 1.282 . S
C352 O353 1.261 1_655 S
C352 O365 1.251 1_655 S
O353 C352 1.261 1_455 S
H354 C348 0.930 . S
H355 C350 0.930 . S
N356 Cu345 1.985 . S
N356 C358 1.335 1_554 S
N356 C359 1.390 . S
N357 C358 1.345 . S
N357 C360 1.330 1_556 S
C358 N356 1.335 1_556 S
C358 N357 1.345 . S
C358 H363 0.930 . S
C359 N356 1.390 . S
C359 C360 1.351 . S
C359 H364 0.930 . S
C360 N357 1.330 1_554 S
C360 C359 1.351 . S
C360 H367 0.931 . S
C361 O351 1.282 . S
C361 O362 1.216 . S
O362 C361 1.216 . S
H363 C358 0.930 . S
H364 C359 0.930 . S
O365 Cu345 1.959 . S
O365 C352 1.251 1_455 S
H366 C349 0.930 . S
H367 C360 0.931 . S
Cu368 N369 1.999 . S
Cu368 O374 1.974 . S
Cu368 N379 1.985 . S
Cu368 O388 1.959 . S
N369 Cu368 1.999 . S
N369 C371 1.263 . S
N369 C373 1.389 . S
N370 C371 1.358 . S
N370 C372 1.400 . S
C371 N369 1.263 . S
C371 N370 1.358 . S
C371 H377 0.930 . S
C372 N370 1.400 . S
C372 C373 1.351 . S
C372 H389 0.930 . S
C373 N369 1.389 . S
C373 C372 1.351 . S
C373 H378 0.930 . S
O374 Cu368 1.974 . S
O374 C384 1.282 . S
C375 O376 1.261 . S
C375 O388 1.251 . S
O376 C375 1.261 . S
H377 C371 0.930 . S
H378 C373 0.930 . S
N379 Cu368 1.985 . S
N379 C381 1.335 . S
N379 C382 1.390 . S
N380 C381 1.345 . S
N380 C383 1.336 . S
C381 N379 1.335 . S
C381 N380 1.345 . S
C381 H386 0.930 . S
C382 N379 1.390 . S
C382 C383 1.346 . S
C382 H387 0.930 . S
C383 N380 1.336 . S
C383 C382 1.346 . S
C383 H390 0.929 . S
C384 O374 1.282 . S
C384 O385 1.216 . S
O385 C384 1.216 . S
H386 C381 0.930 . S
H387 C382 0.930 . S
O388 Cu368 1.959 . S
O388 C375 1.251 . S
H389 C372 0.930 . S
H390 C383 0.929 . S
Cu391 N392 1.999 . S
Cu391 O397 1.974 . S
Cu391 N402 1.985 . S
Cu391 O411 1.959 . S
N392 Cu391 1.999 . S
N392 C394 1.263 . S
N392 C396 1.389 . S
N393 C394 1.358 . S
N393 C395 1.400 . S
C394 N392 1.263 . S
C394 N393 1.358 . S
C394 H400 0.930 . S
C395 N393 1.400 . S
C395 C396 1.351 . S
C395 H412 0.930 . S
C396 N392 1.389 . S
C396 C395 1.351 . S
C396 H401 0.930 . S
O397 Cu391 1.974 . S
O397 C407 1.282 . S
C398 O399 1.261 . S
C398 O411 1.251 . S
O399 C398 1.261 . S
H400 C394 0.930 . S
H401 C396 0.930 . S
N402 Cu391 1.985 . S
N402 C404 1.335 . S
N402 C405 1.390 . S
N403 C404 1.345 . S
N403 C406 1.336 . S
C404 N402 1.335 . S
C404 N403 1.345 . S
C404 H409 0.930 . S
C405 N402 1.390 . S
C405 C406 1.346 . S
C405 H410 0.930 . S
C406 N403 1.336 . S
C406 C405 1.346 . S
C406 H413 0.929 . S
C407 O397 1.282 . S
C407 O408 1.216 . S
O408 C407 1.216 . S
H409 C404 0.930 . S
H410 C405 0.930 . S
O411 Cu391 1.959 . S
O411 C398 1.251 . S
H412 C395 0.930 . S
H413 C406 0.929 . S
Cu414 N415 1.999 1_554 S
Cu414 O420 1.974 . S
Cu414 N425 1.985 . S
Cu414 O434 1.959 . S
N415 Cu414 1.999 1_556 S
N415 C417 1.263 . S
N415 C419 1.389 . S
N416 C417 1.358 . S
N416 C418 1.400 . S
C417 N415 1.263 . S
C417 N416 1.358 . S
C417 H423 0.930 . S
C418 N416 1.400 . S
C418 C419 1.351 . S
C418 H435 0.930 . S
C419 N415 1.389 . S
C419 C418 1.351 . S
C419 H424 0.930 . S
O420 Cu414 1.974 . S
O420 C430 1.282 . S
C421 O422 1.257 1_554 S
C421 O434 1.258 . S
O422 C421 1.257 1_556 S
H423 C417 0.930 . S
H424 C419 0.930 . S
N425 Cu414 1.985 . S
N425 C427 1.335 . S
N425 C428 1.390 . S
N426 C427 1.345 . S
N426 C429 1.336 . S
C427 N425 1.335 . S
C427 N426 1.345 . S
C427 H432 0.930 . S
C428 N425 1.390 . S
C428 C429 1.346 . S
C428 H433 0.930 . S
C429 N426 1.336 . S
C429 C428 1.346 . S
C429 H436 0.929 . S
C430 O420 1.282 . S
C430 O431 1.216 . S
O431 C430 1.216 . S
H432 C427 0.930 . S
H433 C428 0.930 . S
O434 Cu414 1.959 . S
O434 C421 1.258 . S
H435 C418 0.930 . S
H436 C429 0.929 . S
Cu437 N438 1.999 . S
Cu437 O443 1.974 . S
Cu437 N448 1.985 . S
Cu437 O457 1.959 . S
N438 Cu437 1.999 . S
N438 C440 1.263 . S
N438 C442 1.389 . S
N439 C440 1.358 . S
N439 C441 1.400 . S
C440 N438 1.263 . S
C440 N439 1.358 . S
C440 H446 0.930 . S
C441 N439 1.400 . S
C441 C442 1.351 . S
C441 H458 0.930 . S
C442 N438 1.389 . S
C442 C441 1.351 . S
C442 H447 0.930 . S
O443 Cu437 1.974 . S
O443 C453 1.282 . S
C444 O445 1.261 . S
C444 O457 1.251 . S
O445 C444 1.261 . S
H446 C440 0.930 . S
H447 C442 0.930 . S
N448 Cu437 1.985 . S
N448 C450 1.335 . S
N448 C451 1.390 . S
N449 C450 1.345 . S
N449 C452 1.336 . S
C450 N448 1.335 . S
C450 N449 1.345 . S
C450 H455 0.930 . S
C451 N448 1.390 . S
C451 C452 1.346 . S
C451 H456 0.930 . S
C452 N449 1.336 . S
C452 C451 1.346 . S
C452 H459 0.929 . S
C453 O443 1.282 . S
C453 O454 1.216 . S
O454 C453 1.216 . S
H455 C450 0.930 . S
H456 C451 0.930 . S
O457 Cu437 1.959 . S
O457 C444 1.251 . S
H458 C441 0.930 . S
H459 C452 0.929 . S
Cu460 N461 1.999 1_554 S
Cu460 O466 1.974 . S
Cu460 N471 1.985 . S
Cu460 O480 1.959 . S
N461 Cu460 1.999 1_556 S
N461 C463 1.263 . S
N461 C465 1.389 . S
N462 C463 1.358 . S
N462 C464 1.400 . S
C463 N461 1.263 . S
C463 N462 1.358 . S
C463 H469 0.930 1_545 S
C464 N462 1.400 . S
C464 C465 1.351 . S
C464 H481 0.930 . S
C465 N461 1.389 . S
C465 C464 1.351 . S
C465 H470 0.930 . S
O466 Cu460 1.974 . S
O466 C476 1.282 1_545 S
C467 O468 1.263 1_554 S
C467 O480 1.258 . S
O468 C467 1.263 1_556 S
H469 C463 0.930 1_565 S
H470 C465 0.930 . S
N471 Cu460 1.985 . S
N471 C473 1.335 . S
N471 C474 1.376 1_545 S
N472 C473 1.345 . S
N472 C475 1.336 . S
C473 N471 1.335 . S
C473 N472 1.345 . S
C473 H478 0.930 . S
C474 N471 1.376 1_565 S
C474 C475 1.343 1_565 S
C474 H479 0.945 . S
C475 N472 1.336 . S
C475 C474 1.343 1_545 S
C475 H482 0.929 1_545 S
C476 O466 1.282 1_565 S
C476 O477 1.216 . S
O477 C476 1.216 . S
H478 C473 0.930 . S
H479 C474 0.945 . S
O480 Cu460 1.959 . S
O480 C467 1.258 . S
H481 C464 0.930 . S
H482 C475 0.929 1_565 S
Cu483 N484 1.999 . S
Cu483 O489 1.974 . S
Cu483 N494 1.985 . S
Cu483 O503 1.959 . S
N484 Cu483 1.999 . S
N484 C486 1.263 . S
N484 C488 1.389 . S
N485 C486 1.358 . S
N485 C487 1.400 . S
C486 N484 1.263 . S
C486 N485 1.358 . S
C486 H492 0.930 . S
C487 N485 1.400 . S
C487 C488 1.351 . S
C487 H504 0.930 . S
C488 N484 1.389 . S
C488 C487 1.351 . S
C488 H493 0.930 . S
O489 Cu483 1.974 . S
O489 C499 1.282 . S
C490 O491 1.261 . S
C490 O503 1.251 . S
O491 C490 1.261 . S
H492 C486 0.930 . S
H493 C488 0.930 . S
N494 Cu483 1.985 . S
N494 C496 1.335 . S
N494 C497 1.390 . S
N495 C496 1.345 . S
N495 C498 1.336 . S
C496 N494 1.335 . S
C496 N495 1.345 . S
C496 H501 0.930 . S
C497 N494 1.390 . S
C497 C498 1.346 . S
C497 H502 0.930 . S
C498 N495 1.336 . S
C498 C497 1.346 . S
C498 H505 0.929 . S
C499 O489 1.282 . S
C499 O500 1.216 . S
O500 C499 1.216 . S
H501 C496 0.930 . S
H502 C497 0.930 . S
O503 Cu483 1.959 . S
O503 C490 1.251 . S
H504 C487 0.930 . S
H505 C498 0.929 . S
Cu506 N507 1.999 . S
Cu506 O512 1.974 . S
Cu506 N517 1.985 . S
Cu506 O526 1.959 . S
N507 Cu506 1.999 . S
N507 C509 1.263 . S
N507 C511 1.389 . S
N508 C509 1.358 . S
N508 C510 1.400 . S
C509 N507 1.263 . S
C509 N508 1.358 . S
C509 H515 0.930 . S
C510 N508 1.400 . S
C510 C511 1.351 . S
C510 H527 0.930 . S
C511 N507 1.389 . S
C511 C510 1.351 . S
C511 H516 0.930 . S
O512 Cu506 1.974 . S
O512 C522 1.282 . S
C513 O514 1.261 . S
C513 O526 1.251 . S
O514 C513 1.261 . S
H515 C509 0.930 . S
H516 C511 0.930 . S
N517 Cu506 1.985 . S
N517 C519 1.335 . S
N517 C520 1.390 . S
N518 C519 1.345 . S
N518 C521 1.336 . S
C519 N517 1.335 . S
C519 N518 1.345 . S
C519 H524 0.930 . S
C520 N517 1.390 . S
C520 C521 1.346 . S
C520 H525 0.930 . S
C521 N518 1.336 . S
C521 C520 1.346 . S
C521 H528 0.929 . S
C522 O512 1.282 . S
C522 O523 1.216 . S
O523 C522 1.216 . S
H524 C519 0.930 . S
H525 C520 0.930 . S
O526 Cu506 1.959 . S
O526 C513 1.251 . S
H527 C510 0.930 . S
H528 C521 0.929 . S
Cu529 N530 1.999 1_556 S
Cu529 O535 1.974 . S
Cu529 N540 1.985 . S
Cu529 O549 1.959 . S
N530 Cu529 1.999 1_554 S
N530 C532 1.263 . S
N530 C534 1.389 . S
N531 C532 1.358 . S
N531 C533 1.400 . S
C532 N530 1.263 . S
C532 N531 1.358 . S
C532 H538 0.930 . S
C533 N531 1.400 . S
C533 C534 1.351 . S
C533 H550 0.930 . S
C534 N530 1.389 . S
C534 C533 1.351 . S
C534 H539 0.930 . S
O535 Cu529 1.974 . S
O535 C545 1.282 . S
C536 O537 1.257 1_556 S
C536 O549 1.258 . S
O537 C536 1.257 1_554 S
H538 C532 0.930 . S
H539 C534 0.930 . S
N540 Cu529 1.985 . S
N540 C542 1.335 . S
N540 C543 1.390 . S
N541 C542 1.345 . S
N541 C544 1.336 . S
C542 N540 1.335 . S
C542 N541 1.345 . S
C542 H547 0.930 . S
C543 N540 1.390 . S
C543 C544 1.346 . S
C543 H548 0.930 . S
C544 N541 1.336 . S
C544 C543 1.346 . S
C544 H551 0.929 . S
C545 O535 1.282 . S
C545 O546 1.216 . S
O546 C545 1.216 . S
H547 C542 0.930 . S
H548 C543 0.930 . S
O549 Cu529 1.959 . S
O549 C536 1.258 . S
H550 C533 0.930 . S
H551 C544 0.929 . S
Cu552 N553 1.999 . S
Cu552 O558 1.974 . S
Cu552 N563 1.985 . S
Cu552 O572 1.959 . S
N553 Cu552 1.999 . S
N553 C555 1.263 . S
N553 C557 1.389 . S
N554 C555 1.358 . S
N554 C556 1.400 . S
C555 N553 1.263 . S
C555 N554 1.358 . S
C555 H561 0.930 . S
C556 N554 1.400 . S
C556 C557 1.351 . S
C556 H573 0.930 . S
C557 N553 1.389 . S
C557 C556 1.351 . S
C557 H562 0.930 . S
O558 Cu552 1.974 . S
O558 C568 1.282 . S
C559 O560 1.261 . S
C559 O572 1.251 . S
O560 C559 1.261 . S
H561 C555 0.930 . S
H562 C557 0.930 . S
N563 Cu552 1.985 . S
N563 C565 1.335 . S
N563 C566 1.390 . S
N564 C565 1.345 . S
N564 C567 1.336 . S
C565 N563 1.335 . S
C565 N564 1.345 . S
C565 H570 0.930 . S
C566 N563 1.390 . S
C566 C567 1.346 . S
C566 H571 0.930 . S
C567 N564 1.336 . S
C567 C566 1.346 . S
C567 H574 0.929 . S
C568 O558 1.282 . S
C568 O569 1.216 . S
O569 C568 1.216 . S
H570 C565 0.930 . S
H571 C566 0.930 . S
O572 Cu552 1.959 . S
O572 C559 1.251 . S
H573 C556 0.930 . S
H574 C567 0.929 . S
Cu575 N576 1.999 . S
Cu575 O581 1.974 . S
Cu575 N586 1.985 . S
Cu575 O595 1.959 . S
N576 Cu575 1.999 . S
N576 C578 1.263 . S
N576 C580 1.389 . S
N577 C578 1.358 . S
N577 C579 1.400 . S
C578 N576 1.263 . S
C578 N577 1.358 . S
C578 H584 0.930 . S
C579 N577 1.400 . S
C579 C580 1.351 . S
C579 H596 0.930 . S
C580 N576 1.389 . S
C580 C579 1.351 . S
C580 H585 0.930 . S
O581 Cu575 1.974 . S
O581 C591 1.282 . S
C582 O583 1.261 . S
C582 O595 1.251 . S
O583 C582 1.261 . S
H584 C578 0.930 . S
H585 C580 0.930 . S
N586 Cu575 1.985 . S
N586 C588 1.335 . S
N586 C589 1.390 . S
N587 C588 1.345 . S
N587 C590 1.336 . S
C588 N586 1.335 . S
C588 N587 1.345 . S
C588 H593 0.930 . S
C589 N586 1.390 . S
C589 C590 1.346 . S
C589 H594 0.930 . S
C590 N587 1.336 . S
C590 C589 1.346 . S
C590 H597 0.929 . S
C591 O581 1.282 . S
C591 O592 1.216 . S
O592 C591 1.216 . S
H593 C588 0.930 . S
H594 C589 0.930 . S
O595 Cu575 1.959 . S
O595 C582 1.251 . S
H596 C579 0.930 . S
H597 C590 0.929 . S
Cu598 N599 1.999 . S
Cu598 O604 1.974 . S
Cu598 N609 1.985 . S
Cu598 O618 1.959 . S
N599 Cu598 1.999 . S
N599 C601 1.263 . S
N599 C603 1.389 . S
N600 C601 1.358 . S
N600 C602 1.400 . S
C601 N599 1.263 . S
C601 N600 1.358 . S
C601 H607 0.930 . S
C602 N600 1.400 . S
C602 C603 1.351 . S
C602 H619 0.930 . S
C603 N599 1.389 . S
C603 C602 1.351 . S
C603 H608 0.930 . S
O604 Cu598 1.974 . S
O604 C614 1.282 . S
C605 O606 1.261 . S
C605 O618 1.251 . S
O606 C605 1.261 . S
H607 C601 0.930 . S
H608 C603 0.930 . S
N609 Cu598 1.985 . S
N609 C611 1.335 . S
N609 C612 1.390 . S
N610 C611 1.345 . S
N610 C613 1.336 . S
C611 N609 1.335 . S
C611 N610 1.345 . S
C611 H616 0.930 . S
C612 N609 1.390 . S
C612 C613 1.346 . S
C612 H617 0.930 . S
C613 N610 1.336 . S
C613 C612 1.346 . S
C613 H620 0.929 . S
C614 O604 1.282 . S
C614 O615 1.216 . S
O615 C614 1.216 . S
H616 C611 0.930 . S
H617 C612 0.930 . S
O618 Cu598 1.959 . S
O618 C605 1.251 . S
H619 C602 0.930 . S
H620 C613 0.929 . S
Cu621 N622 1.999 . S
Cu621 O627 1.974 . S
Cu621 N632 1.985 . S
Cu621 O641 1.959 . S
N622 Cu621 1.999 . S
N622 C624 1.263 . S
N622 C626 1.389 . S
N623 C624 1.358 . S
N623 C625 1.400 . S
C624 N622 1.263 . S
C624 N623 1.358 . S
C624 H630 0.930 . S
C625 N623 1.400 . S
C625 C626 1.351 . S
C625 H642 0.930 . S
C626 N622 1.389 . S
C626 C625 1.351 . S
C626 H631 0.930 . S
O627 Cu621 1.974 . S
O627 C637 1.282 . S
C628 O629 1.261 . S
C628 O641 1.251 . S
O629 C628 1.261 . S
H630 C624 0.930 . S
H631 C626 0.930 . S
N632 Cu621 1.985 . S
N632 C634 1.335 . S
N632 C635 1.390 . S
N633 C634 1.345 . S
N633 C636 1.336 . S
C634 N632 1.335 . S
C634 N633 1.345 . S
C634 H639 0.930 . S
C635 N632 1.390 . S
C635 C636 1.346 . S
C635 H640 0.930 . S
C636 N633 1.336 . S
C636 C635 1.346 . S
C636 H643 0.929 . S
C637 O627 1.282 . S
C637 O638 1.216 1_655 S
O638 C637 1.216 1_455 S
H639 C634 0.930 . S
H640 C635 0.930 . S
O641 Cu621 1.959 . S
O641 C628 1.251 . S
H642 C625 0.930 . S
H643 C636 0.929 . S
Cu644 N645 1.999 . S
Cu644 O650 1.974 . S
Cu644 N655 1.985 . S
Cu644 O664 1.959 . S
N645 Cu644 1.999 . S
N645 C647 1.263 . S
N645 C649 1.389 . S
N646 C647 1.358 . S
N646 C648 1.400 . S
C647 N645 1.263 . S
C647 N646 1.358 . S
C647 H653 0.930 . S
C648 N646 1.400 . S
C648 C649 1.351 . S
C648 H665 0.930 . S
C649 N645 1.389 . S
C649 C648 1.351 . S
C649 H654 0.930 . S
O650 Cu644 1.974 . S
O650 C660 1.282 . S
C651 O652 1.261 . S
C651 O664 1.251 . S
O652 C651 1.261 . S
H653 C647 0.930 . S
H654 C649 0.930 . S
N655 Cu644 1.985 . S
N655 C657 1.335 . S
N655 C658 1.390 . S
N656 C657 1.345 . S
N656 C659 1.336 . S
C657 N655 1.335 . S
C657 N656 1.345 . S
C657 H662 0.930 . S
C658 N655 1.390 . S
C658 C659 1.346 . S
C658 H663 0.930 . S
C659 N656 1.336 . S
C659 C658 1.346 . S
C659 H666 0.929 . S
C660 O650 1.282 . S
C660 O661 1.216 . S
O661 C660 1.216 . S
H662 C657 0.930 . S
H663 C658 0.930 . S
O664 Cu644 1.959 . S
O664 C651 1.251 . S
H665 C648 0.930 . S
H666 C659 0.929 . S
Cu667 N668 1.999 . S
Cu667 O673 1.974 . S
Cu667 N678 1.985 . S
Cu667 O687 1.959 . S
N668 Cu667 1.999 . S
N668 C670 1.263 . S
N668 C672 1.389 . S
N669 C670 1.358 . S
N669 C671 1.400 . S
C670 N668 1.263 . S
C670 N669 1.358 . S
C670 H676 0.930 . S
C671 N669 1.400 . S
C671 C672 1.351 . S
C671 H688 0.930 . S
C672 N668 1.389 . S
C672 C671 1.351 . S
C672 H677 0.930 . S
O673 Cu667 1.974 . S
O673 C683 1.282 . S
C674 O675 1.261 . S
C674 O687 1.251 . S
O675 C674 1.261 . S
H676 C670 0.930 . S
H677 C672 0.930 . S
N678 Cu667 1.985 . S
N678 C680 1.335 . S
N678 C681 1.390 . S
N679 C680 1.345 . S
N679 C682 1.336 . S
C680 N678 1.335 . S
C680 N679 1.345 . S
C680 H685 0.930 . S
C681 N678 1.390 . S
C681 C682 1.346 . S
C681 H686 0.930 . S
C682 N679 1.336 . S
C682 C681 1.346 . S
C682 H689 0.929 . S
C683 O673 1.282 . S
C683 O684 1.216 1_655 S
O684 C683 1.216 1_455 S
H685 C680 0.930 . S
H686 C681 0.930 . S
O687 Cu667 1.959 . S
O687 C674 1.251 . S
H688 C671 0.930 . S
H689 C682 0.929 . S
Cu690 N691 1.999 . S
Cu690 O696 1.974 . S
Cu690 N701 1.985 . S
Cu690 O710 1.959 . S
N691 Cu690 1.999 . S
N691 C693 1.263 . S
N691 C695 1.389 . S
N692 C693 1.358 . S
N692 C694 1.400 . S
C693 N691 1.263 . S
C693 N692 1.358 . S
C693 H699 0.930 . S
C694 N692 1.400 . S
C694 C695 1.351 . S
C694 H711 0.930 . S
C695 N691 1.389 . S
C695 C694 1.351 . S
C695 H700 0.930 . S
O696 Cu690 1.974 . S
O696 C706 1.282 . S
C697 O698 1.261 . S
C697 O710 1.251 . S
O698 C697 1.261 . S
H699 C693 0.930 . S
H700 C695 0.930 . S
N701 Cu690 1.985 . S
N701 C703 1.335 . S
N701 C704 1.390 . S
N702 C703 1.345 . S
N702 C705 1.336 . S
C703 N701 1.335 . S
C703 N702 1.345 . S
C703 H708 0.930 . S
C704 N701 1.390 . S
C704 C705 1.346 . S
C704 H709 0.930 . S
C705 N702 1.336 . S
C705 C704 1.346 . S
C705 H712 0.929 . S
C706 O696 1.282 . S
C706 O707 1.216 . S
O707 C706 1.216 . S
H708 C703 0.930 . S
H709 C704 0.930 . S
O710 Cu690 1.959 . S
O710 C697 1.251 . S
H711 C694 0.930 . S
H712 C705 0.929 . S
Cu713 N714 1.999 . S
Cu713 O719 1.974 . S
Cu713 N724 1.985 . S
Cu713 O733 1.959 . S
N714 Cu713 1.999 . S
N714 C716 1.263 . S
N714 C718 1.389 . S
N715 C716 1.358 . S
N715 C717 1.400 . S
C716 N714 1.263 . S
C716 N715 1.358 . S
C716 H722 0.930 . S
C717 N715 1.400 . S
C717 C718 1.351 . S
C717 H734 0.930 . S
C718 N714 1.389 . S
C718 C717 1.351 . S
C718 H723 0.930 . S
O719 Cu713 1.974 . S
O719 C729 1.282 . S
C720 O721 1.261 . S
C720 O733 1.251 . S
O721 C720 1.261 . S
H722 C716 0.930 . S
H723 C718 0.930 . S
N724 Cu713 1.985 . S
N724 C726 1.335 . S
N724 C727 1.390 . S
N725 C726 1.345 . S
N725 C728 1.336 . S
C726 N724 1.335 . S
C726 N725 1.345 . S
C726 H731 0.930 . S
C727 N724 1.390 . S
C727 C728 1.346 . S
C727 H732 0.930 . S
C728 N725 1.336 . S
C728 C727 1.346 . S
C728 H735 0.929 . S
C729 O719 1.282 . S
C729 O730 1.216 . S
O730 C729 1.216 . S
H731 C726 0.930 . S
H732 C727 0.930 . S
O733 Cu713 1.959 . S
O733 C720 1.251 . S
H734 C717 0.930 . S
H735 C728 0.929 . S
Cu736 N737 1.999 . S
Cu736 O742 1.974 . S
Cu736 N747 1.985 . S
Cu736 O756 1.959 . S
N737 Cu736 1.999 . S
N737 C739 1.263 . S
N737 C741 1.389 . S
N738 C739 1.358 . S
N738 C740 1.400 . S
C739 N737 1.263 . S
C739 N738 1.358 . S
C739 H745 0.930 . S
C740 N738 1.400 . S
C740 C741 1.351 . S
C740 H757 0.930 . S
C741 N737 1.389 . S
C741 C740 1.351 . S
C741 H746 0.930 . S
O742 Cu736 1.974 . S
O742 C752 1.282 . S
C743 O744 1.261 . S
C743 O756 1.251 . S
O744 C743 1.261 . S
H745 C739 0.930 . S
H746 C741 0.930 . S
N747 Cu736 1.985 . S
N747 C749 1.335 . S
N747 C750 1.390 . S
N748 C749 1.345 . S
N748 C751 1.336 . S
C749 N747 1.335 . S
C749 N748 1.345 . S
C749 H754 0.930 . S
C750 N747 1.390 . S
C750 C751 1.346 . S
C750 H755 0.930 . S
C751 N748 1.336 . S
C751 C750 1.346 . S
C751 H758 0.929 . S
C752 O742 1.282 . S
C752 O753 1.216 . S
O753 C752 1.216 . S
H754 C749 0.930 . S
H755 C750 0.930 . S
O756 Cu736 1.959 . S
O756 C743 1.251 . S
H757 C740 0.930 . S
H758 C751 0.929 . S
Cu759 N760 1.999 . S
Cu759 O765 1.974 . S
Cu759 N770 1.985 . S
Cu759 O779 1.959 . S
N760 Cu759 1.999 . S
N760 C762 1.263 . S
N760 C764 1.389 . S
N761 C762 1.358 . S
N761 C763 1.400 . S
C762 N760 1.263 . S
C762 N761 1.358 . S
C762 H768 0.930 . S
C763 N761 1.400 . S
C763 C764 1.351 . S
C763 H780 0.930 . S
C764 N760 1.389 . S
C764 C763 1.351 . S
C764 H769 0.930 . S
O765 Cu759 1.974 . S
O765 C775 1.282 . S
C766 O767 1.261 . S
C766 O779 1.251 . S
O767 C766 1.261 . S
H768 C762 0.930 . S
H769 C764 0.930 . S
N770 Cu759 1.985 . S
N770 C772 1.335 1_556 S
N770 C773 1.390 . S
N771 C772 1.345 . S
N771 C774 1.330 1_554 S
C772 N770 1.335 1_554 S
C772 N771 1.345 . S
C772 H777 0.930 . S
C773 N770 1.390 . S
C773 C774 1.351 . S
C773 H778 0.930 . S
C774 N771 1.330 1_556 S
C774 C773 1.351 . S
C774 H781 0.931 . S
C775 O765 1.282 . S
C775 O776 1.216 . S
O776 C775 1.216 . S
H777 C772 0.930 . S
H778 C773 0.930 . S
O779 Cu759 1.959 . S
O779 C766 1.251 . S
H780 C763 0.930 . S
H781 C774 0.931 . S
Cu782 N783 1.999 . S
Cu782 O788 1.974 . S
Cu782 N793 1.985 . S
Cu782 O802 1.959 . S
N783 Cu782 1.999 . S
N783 C785 1.263 . S
N783 C787 1.389 . S
N784 C785 1.358 . S
N784 C786 1.400 . S
C785 N783 1.263 . S
C785 N784 1.358 . S
C785 H791 0.930 . S
C786 N784 1.400 . S
C786 C787 1.351 . S
C786 H803 0.930 . S
C787 N783 1.389 . S
C787 C786 1.351 . S
C787 H792 0.930 . S
O788 Cu782 1.974 . S
O788 C798 1.282 . S
C789 O790 1.261 . S
C789 O802 1.251 . S
O790 C789 1.261 . S
H791 C785 0.930 . S
H792 C787 0.930 . S
N793 Cu782 1.985 . S
N793 C795 1.335 . S
N793 C796 1.390 . S
N794 C795 1.345 . S
N794 C797 1.336 . S
C795 N793 1.335 . S
C795 N794 1.345 . S
C795 H800 0.930 . S
C796 N793 1.390 . S
C796 C797 1.346 . S
C796 H801 0.930 . S
C797 N794 1.336 . S
C797 C796 1.346 . S
C797 H804 0.929 . S
C798 O788 1.282 . S
C798 O799 1.216 . S
O799 C798 1.216 . S
H800 C795 0.930 . S
H801 C796 0.930 . S
O802 Cu782 1.959 . S
O802 C789 1.251 . S
H803 C786 0.930 . S
H804 C797 0.929 . S
Cu805 N806 1.999 . S
Cu805 O811 1.974 . S
Cu805 N816 1.985 . S
Cu805 O825 1.959 . S
N806 Cu805 1.999 . S
N806 C808 1.263 . S
N806 C810 1.389 1_655 S
N807 C808 1.358 . S
N807 C809 1.400 1_655 S
C808 N806 1.263 . S
C808 N807 1.358 . S
C808 H814 0.930 . S
C809 N807 1.400 1_455 S
C809 C810 1.351 . S
C809 H826 0.930 . S
C810 N806 1.389 1_455 S
C810 C809 1.351 . S
C810 H815 0.930 . S
O811 Cu805 1.974 . S
O811 C821 1.282 . S
C812 O813 1.261 1_455 S
C812 O825 1.251 1_455 S
O813 C812 1.261 1_655 S
H814 C808 0.930 . S
H815 C810 0.930 . S
N816 Cu805 1.985 . S
N816 C818 1.335 . S
N816 C819 1.390 . S
N817 C818 1.345 . S
N817 C820 1.336 . S
C818 N816 1.335 . S
C818 N817 1.345 . S
C818 H823 0.930 . S
C819 N816 1.390 . S
C819 C820 1.346 . S
C819 H824 0.930 . S
C820 N817 1.336 . S
C820 C819 1.346 . S
C820 H827 0.929 . S
C821 O811 1.282 . S
C821 O822 1.216 . S
O822 C821 1.216 . S
H823 C818 0.930 . S
H824 C819 0.930 . S
O825 Cu805 1.959 . S
O825 C812 1.251 1_655 S
H826 C809 0.930 . S
H827 C820 0.929 . S
Cu828 N829 1.999 . S
Cu828 O834 1.974 . S
Cu828 N839 1.985 . S
Cu828 O848 1.959 . S
N829 Cu828 1.999 . S
N829 C831 1.263 . S
N829 C833 1.389 . S
N830 C831 1.358 . S
N830 C832 1.400 . S
C831 N829 1.263 . S
C831 N830 1.358 . S
C831 H837 0.930 . S
C832 N830 1.400 . S
C832 C833 1.351 . S
C832 H849 0.930 . S
C833 N829 1.389 . S
C833 C832 1.351 . S
C833 H838 0.930 . S
O834 Cu828 1.974 . S
O834 C844 1.282 . S
C835 O836 1.261 . S
C835 O848 1.251 . S
O836 C835 1.261 . S
H837 C831 0.930 . S
H838 C833 0.930 . S
N839 Cu828 1.985 . S
N839 C841 1.335 . S
N839 C842 1.390 . S
N840 C841 1.345 . S
N840 C843 1.336 . S
C841 N839 1.335 . S
C841 N840 1.345 . S
C841 H846 0.930 . S
C842 N839 1.390 . S
C842 C843 1.346 . S
C842 H847 0.930 . S
C843 N840 1.336 . S
C843 C842 1.346 . S
C843 H850 0.929 . S
C844 O834 1.282 . S
C844 O845 1.216 . S
O845 C844 1.216 . S
H846 C841 0.930 . S
H847 C842 0.930 . S
O848 Cu828 1.959 . S
O848 C835 1.251 . S
H849 C832 0.930 . S
H850 C843 0.929 . S
Cu851 N852 1.999 . S
Cu851 O857 1.974 . S
Cu851 N862 1.985 . S
Cu851 O871 1.959 . S
N852 Cu851 1.999 . S
N852 C854 1.263 . S
N852 C856 1.389 1_655 S
N853 C854 1.358 . S
N853 C855 1.400 1_655 S
C854 N852 1.263 . S
C854 N853 1.358 . S
C854 H860 0.930 . S
C855 N853 1.400 1_455 S
C855 C856 1.351 . S
C855 H872 0.930 . S
C856 N852 1.389 1_455 S
C856 C855 1.351 . S
C856 H861 0.930 . S
O857 Cu851 1.974 . S
O857 C867 1.282 . S
C858 O859 1.261 1_455 S
C858 O871 1.251 1_455 S
O859 C858 1.261 1_655 S
H860 C854 0.930 . S
H861 C856 0.930 . S
N862 Cu851 1.985 . S
N862 C864 1.335 1_554 S
N862 C865 1.390 . S
N863 C864 1.345 . S
N863 C866 1.330 1_556 S
C864 N862 1.335 1_556 S
C864 N863 1.345 . S
C864 H869 0.930 . S
C865 N862 1.390 . S
C865 C866 1.351 . S
C865 H870 0.930 . S
C866 N863 1.330 1_554 S
C866 C865 1.351 . S
C866 H873 0.931 . S
C867 O857 1.282 . S
C867 O868 1.216 . S
O868 C867 1.216 . S
H869 C864 0.930 . S
H870 C865 0.930 . S
O871 Cu851 1.959 . S
O871 C858 1.251 1_655 S
H872 C855 0.930 . S
H873 C866 0.931 . S
Cu874 N875 1.999 . S
Cu874 O880 1.974 . S
Cu874 N885 1.985 . S
Cu874 O894 1.959 . S
N875 Cu874 1.999 . S
N875 C877 1.263 . S
N875 C879 1.389 . S
N876 C877 1.358 . S
N876 C878 1.400 . S
C877 N875 1.263 . S
C877 N876 1.358 . S
C877 H883 0.930 . S
C878 N876 1.400 . S
C878 C879 1.351 . S
C878 H895 0.930 . S
C879 N875 1.389 . S
C879 C878 1.351 . S
C879 H884 0.930 . S
O880 Cu874 1.974 . S
O880 C890 1.282 . S
C881 O882 1.261 . S
C881 O894 1.251 . S
O882 C881 1.261 . S
H883 C877 0.930 . S
H884 C879 0.930 . S
N885 Cu874 1.985 . S
N885 C887 1.335 . S
N885 C888 1.390 . S
N886 C887 1.345 . S
N886 C889 1.336 . S
C887 N885 1.335 . S
C887 N886 1.345 . S
C887 H892 0.930 . S
C888 N885 1.390 . S
C888 C889 1.346 . S
C888 H893 0.930 . S
C889 N886 1.336 . S
C889 C888 1.346 . S
C889 H896 0.929 . S
C890 O880 1.282 . S
C890 O891 1.216 . S
O891 C890 1.216 . S
H892 C887 0.930 . S
H893 C888 0.930 . S
O894 Cu874 1.959 . S
O894 C881 1.251 . S
H895 C878 0.930 . S
H896 C889 0.929 . S
Cu897 N898 1.999 . S
Cu897 O903 1.974 . S
Cu897 N908 1.985 . S
Cu897 O917 1.959 . S
N898 Cu897 1.999 . S
N898 C900 1.263 . S
N898 C902 1.389 . S
N899 C900 1.358 . S
N899 C901 1.400 . S
C900 N898 1.263 . S
C900 N899 1.358 . S
C900 H906 0.930 . S
C901 N899 1.400 . S
C901 C902 1.351 . S
C901 H918 0.930 . S
C902 N898 1.389 . S
C902 C901 1.351 . S
C902 H907 0.930 . S
O903 Cu897 1.974 . S
O903 C913 1.282 . S
C904 O905 1.261 . S
C904 O917 1.251 . S
O905 C904 1.261 . S
H906 C900 0.930 . S
H907 C902 0.930 . S
N908 Cu897 1.985 . S
N908 C910 1.335 . S
N908 C911 1.390 . S
N909 C910 1.345 . S
N909 C912 1.336 . S
C910 N908 1.335 . S
C910 N909 1.345 . S
C910 H915 0.930 . S
C911 N908 1.390 . S
C911 C912 1.346 . S
C911 H916 0.930 . S
C912 N909 1.336 . S
C912 C911 1.346 . S
C912 H919 0.929 . S
C913 O903 1.282 . S
C913 O914 1.216 . S
O914 C913 1.216 . S
H915 C910 0.930 . S
H916 C911 0.930 . S
O917 Cu897 1.959 . S
O917 C904 1.251 . S
H918 C901 0.930 . S
H919 C912 0.929 . S
Cu920 N921 1.999 . S
Cu920 O926 1.974 . S
Cu920 N931 1.985 . S
Cu920 O940 1.959 . S
N921 Cu920 1.999 . S
N921 C923 1.263 . S
N921 C925 1.389 . S
N922 C923 1.358 . S
N922 C924 1.400 . S
C923 N921 1.263 . S
C923 N922 1.358 . S
C923 H929 0.930 . S
C924 N922 1.400 . S
C924 C925 1.351 . S
C924 H941 0.930 . S
C925 N921 1.389 . S
C925 C924 1.351 . S
C925 H930 0.930 . S
O926 Cu920 1.974 . S
O926 C936 1.282 . S
C927 O928 1.261 . S
C927 O940 1.251 . S
O928 C927 1.261 . S
H929 C923 0.930 . S
H930 C925 0.930 . S
N931 Cu920 1.985 . S
N931 C933 1.335 . S
N931 C934 1.390 . S
N932 C933 1.345 . S
N932 C935 1.336 . S
C933 N931 1.335 . S
C933 N932 1.345 . S
C933 H938 0.930 . S
C934 N931 1.390 . S
C934 C935 1.346 . S
C934 H939 0.930 . S
C935 N932 1.336 . S
C935 C934 1.346 . S
C935 H942 0.929 . S
C936 O926 1.282 . S
C936 O937 1.216 . S
O937 C936 1.216 . S
H938 C933 0.930 . S
H939 C934 0.930 . S
O940 Cu920 1.959 . S
O940 C927 1.251 . S
H941 C924 0.930 . S
H942 C935 0.929 . S
Cu943 N944 1.999 . S
Cu943 O949 1.974 . S
Cu943 N954 1.985 . S
Cu943 O963 1.959 . S
N944 Cu943 1.999 . S
N944 C946 1.263 . S
N944 C948 1.389 . S
N945 C946 1.358 . S
N945 C947 1.400 . S
C946 N944 1.263 . S
C946 N945 1.358 . S
C946 H952 0.930 . S
C947 N945 1.400 . S
C947 C948 1.351 . S
C947 H964 0.930 . S
C948 N944 1.389 . S
C948 C947 1.351 . S
C948 H953 0.930 . S
O949 Cu943 1.974 . S
O949 C959 1.282 . S
C950 O951 1.261 . S
C950 O963 1.251 . S
O951 C950 1.261 . S
H952 C946 0.930 . S
H953 C948 0.930 . S
N954 Cu943 1.985 . S
N954 C956 1.335 . S
N954 C957 1.390 . S
N955 C956 1.345 . S
N955 C958 1.336 . S
C956 N954 1.335 . S
C956 N955 1.345 . S
C956 H961 0.930 . S
C957 N954 1.390 . S
C957 C958 1.346 . S
C957 H962 0.930 . S
C958 N955 1.336 . S
C958 C957 1.346 . S
C958 H965 0.929 . S
C959 O949 1.282 . S
C959 O960 1.216 . S
O960 C959 1.216 . S
H961 C956 0.930 . S
H962 C957 0.930 . S
O963 Cu943 1.959 . S
O963 C950 1.251 . S
H964 C947 0.930 . S
H965 C958 0.929 . S
Cu966 N967 1.999 . S
Cu966 O972 1.974 . S
Cu966 N977 1.985 . S
Cu966 O986 1.959 . S
N967 Cu966 1.999 . S
N967 C969 1.263 . S
N967 C971 1.389 . S
N968 C969 1.358 . S
N968 C970 1.400 . S
C969 N967 1.263 . S
C969 N968 1.358 . S
C969 H975 0.930 1_565 S
C970 N968 1.400 . S
C970 C971 1.351 . S
C970 H987 0.930 . S
C971 N967 1.389 . S
C971 C970 1.351 . S
C971 H976 0.930 . S
O972 Cu966 1.974 . S
O972 C982 1.282 1_565 S
C973 O974 1.282 . S
C973 O986 1.251 . S
O974 C973 1.282 . S
H975 C969 0.930 1_545 S
H976 C971 0.930 . S
N977 Cu966 1.985 . S
N977 C979 1.335 . S
N977 C980 1.385 1_565 S
N978 C979 1.345 . S
N978 C981 1.336 . S
C979 N977 1.335 . S
C979 N978 1.345 . S
C979 H984 0.930 . S
C980 N977 1.385 1_545 S
C980 C981 1.345 1_545 S
C980 H985 0.935 . S
C981 N978 1.336 . S
C981 C980 1.345 1_565 S
C981 H988 0.929 1_565 S
C982 O972 1.282 1_545 S
C982 O983 1.216 . S
O983 C982 1.216 . S
H984 C979 0.930 . S
H985 C980 0.935 . S
O986 Cu966 1.959 . S
O986 C973 1.251 . S
H987 C970 0.930 . S
H988 C981 0.929 1_545 S
Cu989 N990 1.999 . S
Cu989 O995 1.974 . S
Cu989 N1000 1.985 . S
Cu989 O1009 1.959 . S
N990 Cu989 1.999 . S
N990 C992 1.263 . S
N990 C994 1.389 . S
N991 C992 1.358 . S
N991 C993 1.400 . S
C992 N990 1.263 . S
C992 N991 1.358 . S
C992 H998 0.930 . S
C993 N991 1.400 . S
C993 C994 1.351 . S
C993 H1010 0.930 . S
C994 N990 1.389 . S
C994 C993 1.351 . S
C994 H999 0.930 . S
O995 Cu989 1.974 . S
O995 C1005 1.282 . S
C996 O997 1.261 . S
C996 O1009 1.251 . S
O997 C996 1.261 . S
H998 C992 0.930 . S
H999 C994 0.930 . S
N1000 Cu989 1.985 . S
N1000 C1002 1.335 . S
N1000 C1003 1.390 . S
N1001 C1002 1.345 . S
N1001 C1004 1.336 . S
C1002 N1000 1.335 . S
C1002 N1001 1.345 . S
C1002 H1007 0.930 . S
C1003 N1000 1.390 . S
C1003 C1004 1.346 . S
C1003 H1008 0.930 . S
C1004 N1001 1.336 . S
C1004 C1003 1.346 . S
C1004 H1011 0.929 . S
C1005 O995 1.282 . S
C1005 O1006 1.216 . S
O1006 C1005 1.216 . S
H1007 C1002 0.930 . S
H1008 C1003 0.930 . S
O1009 Cu989 1.959 . S
O1009 C996 1.251 . S
H1010 C993 0.930 . S
H1011 C1004 0.929 . S
Cu1012 N1013 1.999 . S
Cu1012 O1018 1.974 . S
Cu1012 N1023 1.985 . S
Cu1012 O1032 1.959 . S
N1013 Cu1012 1.999 . S
N1013 C1015 1.263 . S
N1013 C1017 1.389 . S
N1014 C1015 1.358 . S
N1014 C1016 1.400 . S
C1015 N1013 1.263 . S
C1015 N1014 1.358 . S
C1015 H1021 0.930 . S
C1016 N1014 1.400 . S
C1016 C1017 1.351 . S
C1016 H1033 0.930 . S
C1017 N1013 1.389 . S
C1017 C1016 1.351 . S
C1017 H1022 0.930 . S
O1018 Cu1012 1.974 . S
O1018 C1028 1.282 . S
C1019 O1020 1.261 . S
C1019 O1032 1.251 . S
O1020 C1019 1.261 . S
H1021 C1015 0.930 . S
H1022 C1017 0.930 . S
N1023 Cu1012 1.985 . S
N1023 C1025 1.335 . S
N1023 C1026 1.390 . S
N1024 C1025 1.345 . S
N1024 C1027 1.336 . S
C1025 N1023 1.335 . S
C1025 N1024 1.345 . S
C1025 H1030 0.930 . S
C1026 N1023 1.390 . S
C1026 C1027 1.346 . S
C1026 H1031 0.930 . S
C1027 N1024 1.336 . S
C1027 C1026 1.346 . S
C1027 H1034 0.929 . S
C1028 O1018 1.282 . S
C1028 O1029 1.216 . S
O1029 C1028 1.216 . S
H1030 C1025 0.930 . S
H1031 C1026 0.930 . S
O1032 Cu1012 1.959 . S
O1032 C1019 1.251 . S
H1033 C1016 0.930 . S
H1034 C1027 0.929 . S
Cu1035 N1036 1.999 . S
Cu1035 O1041 1.974 . S
Cu1035 N1046 1.985 . S
Cu1035 O1055 1.959 . S
N1036 Cu1035 1.999 . S
N1036 C1038 1.263 . S
N1036 C1040 1.389 . S
N1037 C1038 1.358 . S
N1037 C1039 1.400 . S
C1038 N1036 1.263 . S
C1038 N1037 1.358 . S
C1038 H1044 0.930 . S
C1039 N1037 1.400 . S
C1039 C1040 1.351 . S
C1039 H1056 0.930 . S
C1040 N1036 1.389 . S
C1040 C1039 1.351 . S
C1040 H1045 0.930 . S
O1041 Cu1035 1.974 . S
O1041 C1051 1.282 . S
C1042 O1043 1.261 . S
C1042 O1055 1.251 . S
O1043 C1042 1.261 . S
H1044 C1038 0.930 . S
H1045 C1040 0.930 . S
N1046 Cu1035 1.985 . S
N1046 C1048 1.335 . S
N1046 C1049 1.390 . S
N1047 C1048 1.345 . S
N1047 C1050 1.336 . S
C1048 N1046 1.335 . S
C1048 N1047 1.345 . S
C1048 H1053 0.930 . S
C1049 N1046 1.390 . S
C1049 C1050 1.346 . S
C1049 H1054 0.930 . S
C1050 N1047 1.336 . S
C1050 C1049 1.346 . S
C1050 H1057 0.929 . S
C1051 O1041 1.282 . S
C1051 O1052 1.216 . S
O1052 C1051 1.216 . S
H1053 C1048 0.930 . S
H1054 C1049 0.930 . S
O1055 Cu1035 1.959 . S
O1055 C1042 1.251 . S
H1056 C1039 0.930 . S
H1057 C1050 0.929 . S
Cu1058 N1059 1.999 1_556 S
Cu1058 O1064 1.974 . S
Cu1058 N1069 1.985 . S
Cu1058 O1078 1.959 . S
N1059 Cu1058 1.999 1_554 S
N1059 C1061 1.263 . S
N1059 C1063 1.389 . S
N1060 C1061 1.358 . S
N1060 C1062 1.400 . S
C1061 N1059 1.263 . S
C1061 N1060 1.358 . S
C1061 H1067 0.930 1_545 S
C1062 N1060 1.400 . S
C1062 C1063 1.351 . S
C1062 H1079 0.930 . S
C1063 N1059 1.389 . S
C1063 C1062 1.351 . S
C1063 H1068 0.930 . S
O1064 Cu1058 1.974 . S
O1064 C1074 1.282 1_545 S
C1065 O1066 1.263 1_556 S
C1065 O1078 1.258 . S
O1066 C1065 1.263 1_554 S
H1067 C1061 0.930 1_565 S
H1068 C1063 0.930 . S
N1069 Cu1058 1.985 . S
N1069 C1071 1.335 . S
N1069 C1072 1.376 1_545 S
N1070 C1071 1.345 . S
N1070 C1073 1.336 . S
C1071 N1069 1.335 . S
C1071 N1070 1.345 . S
C1071 H1076 0.930 . S
C1072 N1069 1.376 1_565 S
C1072 C1073 1.343 1_565 S
C1072 H1077 0.945 . S
C1073 N1070 1.336 . S
C1073 C1072 1.343 1_545 S
C1073 H1080 0.929 1_545 S
C1074 O1064 1.282 1_565 S
C1074 O1075 1.216 . S
O1075 C1074 1.216 . S
H1076 C1071 0.930 . S
H1077 C1072 0.945 . S
O1078 Cu1058 1.959 . S
O1078 C1065 1.258 . S
H1079 C1062 0.930 . S
H1080 C1073 0.929 1_565 S
Cu1081 N1082 1.999 . S
Cu1081 O1087 1.974 . S
Cu1081 N1092 1.985 . S
Cu1081 O1101 1.959 . S
N1082 Cu1081 1.999 . S
N1082 C1084 1.263 . S
N1082 C1086 1.389 . S
N1083 C1084 1.358 . S
N1083 C1085 1.400 . S
C1084 N1082 1.263 . S
C1084 N1083 1.358 . S
C1084 H1090 0.930 1_565 S
C1085 N1083 1.400 . S
C1085 C1086 1.351 . S
C1085 H1102 0.930 . S
C1086 N1082 1.389 . S
C1086 C1085 1.351 . S
C1086 H1091 0.930 . S
O1087 Cu1081 1.974 . S
O1087 C1097 1.282 1_565 S
C1088 O1089 1.282 . S
C1088 O1101 1.251 . S
O1089 C1088 1.282 . S
H1090 C1084 0.930 1_545 S
H1091 C1086 0.930 . S
N1092 Cu1081 1.985 . S
N1092 C1094 1.335 . S
N1092 C1095 1.385 1_565 S
N1093 C1094 1.345 . S
N1093 C1096 1.336 . S
C1094 N1092 1.335 . S
C1094 N1093 1.345 . S
C1094 H1099 0.930 . S
C1095 N1092 1.385 1_545 S
C1095 C1096 1.345 1_545 S
C1095 H1100 0.935 . S
C1096 N1093 1.336 . S
C1096 C1095 1.345 1_565 S
C1096 H1103 0.929 1_565 S
C1097 O1087 1.282 1_545 S
C1097 O1098 1.216 . S
O1098 C1097 1.216 . S
H1099 C1094 0.930 . S
H1100 C1095 0.935 . S
O1101 Cu1081 1.959 . S
O1101 C1088 1.251 . S
H1102 C1085 0.930 . S
H1103 C1096 0.929 1_545 S
C1104 C1105 1.387 . S
C1104 H1108 0.950 . S
C1104 C1113 1.390 . S
C1105 C1104 1.387 . S
C1105 C1107 1.387 . S
H1106 C1113 0.950 . S
C1107 C1105 1.387 . S
C1107 C1109 1.390 . S
C1107 H1111 0.950 . S
H1108 C1104 0.950 . S
C1109 C1107 1.390 . S
C1109 C1110 1.387 . S
C1109 H1112 0.950 . S
C1110 C1109 1.387 . S
C1110 C1113 1.387 . S
H1111 C1107 0.950 . S
H1112 C1109 0.950 . S
C1113 C1104 1.390 . S
C1113 H1106 0.950 . S
C1113 C1110 1.387 . S
C1114 C1115 1.387 . S
C1114 H1118 0.950 . S
C1114 C1123 1.390 1_565 S
C1115 C1114 1.387 . S
C1115 C1117 1.387 . S
H1116 C1123 0.950 . S
C1117 C1115 1.387 . S
C1117 C1119 1.390 1_565 S
C1117 H1121 0.950 . S
H1118 C1114 0.950 . S
C1119 C1117 1.390 1_545 S
C1119 C1120 1.387 . S
C1119 H1122 0.950 . S
C1120 C1119 1.387 . S
C1120 C1123 1.387 . S
H1121 C1117 0.950 . S
H1122 C1119 0.950 . S
C1123 C1114 1.390 1_545 S
C1123 H1116 0.950 . S
C1123 C1120 1.387 . S
C1124 C1125 1.387 . S
C1124 H1128 0.950 . S
C1124 C1133 1.390 1_556 S
C1125 C1124 1.387 . S
C1125 C1127 1.387 . S
H1126 C1133 0.950 . S
C1127 C1125 1.387 . S
C1127 C1129 1.390 1_556 S
C1127 H1131 0.950 . S
H1128 C1124 0.950 . S
C1129 C1127 1.390 1_554 S
C1129 C1130 1.387 . S
C1129 H1132 0.950 . S
C1130 C1129 1.387 . S
C1130 C1133 1.387 . S
H1131 C1127 0.950 . S
H1132 C1129 0.950 . S
C1133 C1124 1.390 1_554 S
C1133 H1126 0.950 . S
C1133 C1130 1.387 . S
C1134 C1135 1.387 . S
C1134 H1138 0.950 . S
C1134 C1143 1.390 1_565 S
C1135 C1134 1.387 . S
C1135 C1137 1.387 . S
H1136 C1143 0.950 . S
C1137 C1135 1.387 . S
C1137 C1139 1.390 1_565 S
C1137 H1141 0.950 . S
H1138 C1134 0.950 . S
C1139 C1137 1.390 1_545 S
C1139 C1140 1.387 . S
C1139 H1142 0.950 . S
C1140 C1139 1.387 . S
C1140 C1143 1.387 . S
H1141 C1137 0.950 . S
H1142 C1139 0.950 . S
C1143 C1134 1.390 1_545 S
C1143 H1136 0.950 . S
C1143 C1140 1.387 . S
C1144 C1145 1.387 . S
C1144 H1148 0.950 . S
C1144 C1153 1.390 . S
C1145 C1144 1.387 . S
C1145 C1147 1.387 . S
H1146 C1153 0.950 . S
C1147 C1145 1.387 . S
C1147 C1149 1.390 . S
C1147 H1151 0.950 . S
H1148 C1144 0.950 . S
C1149 C1147 1.390 . S
C1149 C1150 1.387 . S
C1149 H1152 0.950 . S
C1150 C1149 1.387 . S
C1150 C1153 1.387 . S
H1151 C1147 0.950 . S
H1152 C1149 0.950 . S
C1153 C1144 1.390 . S
C1153 H1146 0.950 . S
C1153 C1150 1.387 . S
C1154 C1155 1.387 . S
C1154 H1158 0.950 . S
C1154 C1163 1.390 1_655 S
C1155 C1154 1.387 . S
C1155 C1157 1.387 . S
H1156 C1163 0.950 . S
C1157 C1155 1.387 . S
C1157 C1159 1.390 1_655 S
C1157 H1161 0.950 . S
H1158 C1154 0.950 . S
C1159 C1157 1.390 1_455 S
C1159 C1160 1.387 . S
C1159 H1162 0.950 . S
C1160 C1159 1.387 . S
C1160 C1163 1.387 . S
H1161 C1157 0.950 . S
H1162 C1159 0.950 . S
C1163 C1154 1.390 1_455 S
C1163 H1156 0.950 . S
C1163 C1160 1.387 . S
C1164 C1165 1.387 . S
C1164 H1168 0.950 . S
C1164 C1173 1.390 1_455 S
C1165 C1164 1.387 . S
C1165 C1167 1.387 . S
H1166 C1173 0.950 . S
C1167 C1165 1.387 . S
C1167 C1169 1.390 1_455 S
C1167 H1171 0.950 . S
H1168 C1164 0.950 . S
C1169 C1167 1.390 1_655 S
C1169 C1170 1.387 . S
C1169 H1172 0.950 . S
C1170 C1169 1.387 . S
C1170 C1173 1.387 . S
H1171 C1167 0.950 . S
H1172 C1169 0.950 . S
C1173 C1164 1.390 1_655 S
C1173 H1166 0.950 . S
C1173 C1170 1.387 . S
C1174 C1175 1.387 . S
C1174 H1178 0.950 . S
C1174 C1183 1.390 . S
C1175 C1174 1.387 . S
C1175 C1177 1.387 . S
H1176 C1183 0.950 . S
C1177 C1175 1.387 . S
C1177 C1179 1.390 . S
C1177 H1181 0.950 . S
H1178 C1174 0.950 . S
C1179 C1177 1.390 . S
C1179 C1180 1.387 . S
C1179 H1182 0.950 . S
C1180 C1179 1.387 . S
C1180 C1183 1.387 . S
H1181 C1177 0.950 . S
H1182 C1179 0.950 . S
C1183 C1174 1.390 . S
C1183 H1176 0.950 . S
C1183 C1180 1.387 . S
C1184 C1185 1.387 . S
C1184 H1188 0.950 . S
C1184 C1193 1.390 . S
C1185 C1184 1.387 . S
C1185 C1187 1.387 . S
H1186 C1193 0.950 . S
C1187 C1185 1.387 . S
C1187 C1189 1.390 . S
C1187 H1191 0.950 . S
H1188 C1184 0.950 . S
C1189 C1187 1.390 . S
C1189 C1190 1.387 . S
C1189 H1192 0.950 . S
C1190 C1189 1.387 . S
C1190 C1193 1.387 . S
H1191 C1187 0.950 . S
H1192 C1189 0.950 . S
C1193 C1184 1.390 . S
C1193 H1186 0.950 . S
C1193 C1190 1.387 . S
C1194 C1195 1.387 . S
C1194 H1198 0.950 . S
C1194 C1203 1.390 . S
C1195 C1194 1.387 . S
C1195 C1197 1.387 . S
H1196 C1203 0.950 . S
C1197 C1195 1.387 . S
C1197 C1199 1.390 . S
C1197 H1201 0.950 . S
H1198 C1194 0.950 . S
C1199 C1197 1.390 . S
C1199 C1200 1.387 . S
C1199 H1202 0.950 . S
C1200 C1199 1.387 . S
C1200 C1203 1.387 . S
H1201 C1197 0.950 . S
H1202 C1199 0.950 . S
C1203 C1194 1.390 . S
C1203 H1196 0.950 . S
C1203 C1200 1.387 . S
C1204 C1205 1.387 . S
C1204 H1208 0.950 . S
C1204 C1213 1.390 1_655 S
C1205 C1204 1.387 . S
C1205 C1207 1.387 . S
H1206 C1213 0.950 . S
C1207 C1205 1.387 . S
C1207 C1209 1.390 1_655 S
C1207 H1211 0.950 . S
H1208 C1204 0.950 . S
C1209 C1207 1.390 1_455 S
C1209 C1210 1.387 . S
C1209 H1212 0.950 . S
C1210 C1209 1.387 . S
C1210 C1213 1.387 . S
H1211 C1207 0.950 . S
H1212 C1209 0.950 . S
C1213 C1204 1.390 1_455 S
C1213 H1206 0.950 . S
C1213 C1210 1.387 . S
C1214 C1215 1.387 . S
C1214 H1218 0.950 . S
C1214 C1223 1.390 1_655 S
C1215 C1214 1.387 . S
C1215 C1217 1.387 . S
H1216 C1223 0.950 . S
C1217 C1215 1.387 . S
C1217 C1219 1.390 1_655 S
C1217 H1221 0.950 . S
H1218 C1214 0.950 . S
C1219 C1217 1.390 1_455 S
C1219 C1220 1.387 . S
C1219 H1222 0.950 . S
C1220 C1219 1.387 . S
C1220 C1223 1.387 . S
H1221 C1217 0.950 . S
H1222 C1219 0.950 . S
C1223 C1214 1.390 1_455 S
C1223 H1216 0.950 . S
C1223 C1220 1.387 . S
C1224 C1225 1.387 . S
C1224 H1228 0.950 . S
C1224 C1233 1.390 . S
C1225 C1224 1.387 . S
C1225 C1227 1.387 . S
H1226 C1233 0.950 . S
C1227 C1225 1.387 . S
C1227 C1229 1.390 . S
C1227 H1231 0.950 . S
H1228 C1224 0.950 . S
C1229 C1227 1.390 . S
C1229 C1230 1.387 . S
C1229 H1232 0.950 . S
C1230 C1229 1.387 . S
C1230 C1233 1.387 . S
H1231 C1227 0.950 . S
H1232 C1229 0.950 . S
C1233 C1224 1.390 . S
C1233 H1226 0.950 . S
C1233 C1230 1.387 . S
C1234 C1235 1.387 . S
C1234 H1238 0.950 . S
C1234 C1243 1.390 1_545 S
C1235 C1234 1.387 . S
C1235 C1237 1.387 . S
H1236 C1243 0.950 . S
C1237 C1235 1.387 . S
C1237 C1239 1.390 1_545 S
C1237 H1241 0.950 . S
H1238 C1234 0.950 . S
C1239 C1237 1.390 1_565 S
C1239 C1240 1.387 . S
C1239 H1242 0.950 . S
C1240 C1239 1.387 . S
C1240 C1243 1.387 . S
H1241 C1237 0.950 . S
H1242 C1239 0.950 . S
C1243 C1234 1.390 1_565 S
C1243 H1236 0.950 . S
C1243 C1240 1.387 . S
C1244 C1245 1.387 . S
C1244 H1248 0.950 . S
C1244 C1253 1.390 . S
C1245 C1244 1.387 . S
C1245 C1247 1.387 1_556 S
H1246 C1253 0.950 . S
C1247 C1245 1.387 1_554 S
C1247 C1249 1.390 . S
C1247 H1251 0.950 . S
H1248 C1244 0.950 . S
C1249 C1247 1.390 . S
C1249 C1250 1.387 . S
C1249 H1252 0.950 . S
C1250 C1249 1.387 . S
C1250 C1253 1.387 1_554 S
H1251 C1247 0.950 . S
H1252 C1249 0.950 . S
C1253 C1244 1.390 . S
C1253 H1246 0.950 . S
C1253 C1250 1.387 1_556 S
C1254 C1255 1.387 . S
C1254 H1258 0.950 . S
C1254 C1263 1.390 1_545 S
C1255 C1254 1.387 . S
C1255 C1257 1.387 . S
H1256 C1263 0.950 . S
C1257 C1255 1.387 . S
C1257 C1259 1.390 1_545 S
C1257 H1261 0.950 . S
H1258 C1254 0.950 . S
C1259 C1257 1.390 1_565 S
C1259 C1260 1.387 . S
C1259 H1262 0.950 . S
C1260 C1259 1.387 . S
C1260 C1263 1.387 . S
H1261 C1257 0.950 . S
H1262 C1259 0.950 . S
C1263 C1254 1.390 1_565 S
C1263 H1256 0.950 . S
C1263 C1260 1.387 . S
C1264 C1265 1.387 . S
C1264 H1268 0.950 1_545 S
C1264 C1273 1.390 1_554 S
C1265 C1264 1.387 . S
C1265 C1267 1.387 . S
H1266 C1273 0.950 1_565 S
C1267 C1265 1.387 . S
C1267 C1269 1.390 1_554 S
C1267 H1271 0.950 . S
H1268 C1264 0.950 1_565 S
C1269 C1267 1.390 1_556 S
C1269 C1270 1.387 . S
C1269 H1272 0.950 . S
C1270 C1269 1.387 . S
C1270 C1273 1.387 . S
H1271 C1267 0.950 . S
H1272 C1269 0.950 . S
C1273 C1264 1.390 1_556 S
C1273 H1266 0.950 1_545 S
C1273 C1270 1.387 . S
C1274 C1275 1.387 . S
C1274 H1278 0.950 . S
C1274 C1283 1.390 . S
C1275 C1274 1.387 . S
C1275 C1277 1.387 . S
H1276 C1283 0.950 . S
C1277 C1275 1.387 . S
C1277 C1279 1.390 . S
C1277 H1281 0.950 . S
H1278 C1274 0.950 . S
C1279 C1277 1.390 . S
C1279 C1280 1.387 . S
C1279 H1282 0.950 . S
C1280 C1279 1.387 . S
C1280 C1283 1.387 . S
H1281 C1277 0.950 . S
H1282 C1279 0.950 . S
C1283 C1274 1.390 . S
C1283 H1276 0.950 . S
C1283 C1280 1.387 . S
C1284 C1285 1.387 . S
C1284 H1288 0.950 . S
C1284 C1293 1.390 . S
C1285 C1284 1.387 . S
C1285 C1287 1.387 . S
H1286 C1293 0.950 . S
C1287 C1285 1.387 . S
C1287 C1289 1.390 . S
C1287 H1291 0.950 . S
H1288 C1284 0.950 . S
C1289 C1287 1.390 . S
C1289 C1290 1.387 . S
C1289 H1292 0.950 . S
C1290 C1289 1.387 . S
C1290 C1293 1.387 . S
H1291 C1287 0.950 . S
H1292 C1289 0.950 . S
C1293 C1284 1.390 . S
C1293 H1286 0.950 . S
C1293 C1290 1.387 . S
C1294 C1295 1.387 . S
C1294 H1298 0.950 . S
C1294 C1303 1.390 1_554 S
C1295 C1294 1.387 . S
C1295 C1297 1.387 . S
H1296 C1303 0.950 . S
C1297 C1295 1.387 . S
C1297 C1299 1.390 1_554 S
C1297 H1301 0.950 . S
H1298 C1294 0.950 . S
C1299 C1297 1.390 1_556 S
C1299 C1300 1.387 . S
C1299 H1302 0.950 . S
C1300 C1299 1.387 . S
C1300 C1303 1.387 . S
H1301 C1297 0.950 . S
H1302 C1299 0.950 . S
C1303 C1294 1.390 1_556 S
C1303 H1296 0.950 . S
C1303 C1300 1.387 . S
C1304 C1305 1.387 . S
C1304 H1308 0.950 . S
C1304 C1313 1.390 . S
C1305 C1304 1.387 . S
C1305 C1307 1.387 . S
H1306 C1313 0.950 . S
C1307 C1305 1.387 . S
C1307 C1309 1.390 . S
C1307 H1311 0.950 . S
H1308 C1304 0.950 . S
C1309 C1307 1.390 . S
C1309 C1310 1.387 . S
C1309 H1312 0.950 . S
C1310 C1309 1.387 . S
C1310 C1313 1.387 . S
H1311 C1307 0.950 . S
H1312 C1309 0.950 . S
C1313 C1304 1.390 . S
C1313 H1306 0.950 . S
C1313 C1310 1.387 . S
C1314 C1315 1.387 . S
C1314 H1318 0.950 . S
C1314 C1323 1.390 . S
C1315 C1314 1.387 . S
C1315 C1317 1.387 . S
H1316 C1323 0.950 . S
C1317 C1315 1.387 . S
C1317 C1319 1.390 . S
C1317 H1321 0.950 . S
H1318 C1314 0.950 . S
C1319 C1317 1.390 . S
C1319 C1320 1.387 . S
C1319 H1322 0.950 . S
C1320 C1319 1.387 . S
C1320 C1323 1.387 . S
H1321 C1317 0.950 . S
H1322 C1319 0.950 . S
C1323 C1314 1.390 . S
C1323 H1316 0.950 . S
C1323 C1320 1.387 . S
C1324 C1325 1.387 . S
C1324 H1328 0.950 . S
C1324 C1333 1.390 . S
C1325 C1324 1.387 . S
C1325 C1327 1.387 . S
H1326 C1333 0.950 . S
C1327 C1325 1.387 . S
C1327 C1329 1.390 . S
C1327 H1331 0.950 . S
H1328 C1324 0.950 . S
C1329 C1327 1.390 . S
C1329 C1330 1.387 . S
C1329 H1332 0.950 . S
C1330 C1329 1.387 . S
C1330 C1333 1.387 . S
H1331 C1327 0.950 . S
H1332 C1329 0.950 . S
C1333 C1324 1.390 . S
C1333 H1326 0.950 . S
C1333 C1330 1.387 . S
C1334 C1335 1.387 . S
C1334 H1338 0.950 . S
C1334 C1343 1.390 . S
C1335 C1334 1.387 . S
C1335 C1337 1.387 . S
H1336 C1343 0.950 . S
C1337 C1335 1.387 . S
C1337 C1339 1.390 . S
C1337 H1341 0.950 1_565 S
H1338 C1334 0.950 . S
C1339 C1337 1.390 . S
C1339 C1340 1.387 . S
C1339 H1342 0.950 1_565 S
C1340 C1339 1.387 . S
C1340 C1343 1.387 . S
H1341 C1337 0.950 1_545 S
H1342 C1339 0.950 1_545 S
C1343 C1334 1.390 . S
C1343 H1336 0.950 . S
C1343 C1340 1.387 . S
C1344 C1345 1.387 . S
C1344 H1348 0.950 . S
C1344 C1353 1.390 . S
C1345 C1344 1.387 . S
C1345 C1347 1.387 . S
H1346 C1353 0.950 . S
C1347 C1345 1.387 . S
C1347 C1349 1.390 . S
C1347 H1351 0.950 . S
H1348 C1344 0.950 . S
C1349 C1347 1.390 . S
C1349 C1350 1.387 . S
C1349 H1352 0.950 . S
C1350 C1349 1.387 . S
C1350 C1353 1.387 . S
H1351 C1347 0.950 . S
H1352 C1349 0.950 . S
C1353 C1344 1.390 . S
C1353 H1346 0.950 . S
C1353 C1350 1.387 . S
C1354 C1355 1.387 . S
C1354 H1358 0.950 . S
C1354 C1363 1.390 . S
C1355 C1354 1.387 . S
C1355 C1357 1.387 . S
H1356 C1363 0.950 . S
C1357 C1355 1.387 . S
C1357 C1359 1.401 . S
C1357 H1361 0.950 . S
H1358 C1354 0.950 . S
C1359 C1357 1.401 . S
C1359 C1360 1.402 . S
C1359 H1362 0.926 1_565 S
C1360 C1359 1.402 . S
C1360 C1363 1.387 . S
H1361 C1357 0.950 . S
H1362 C1359 0.926 1_545 S
C1363 C1354 1.390 . S
C1363 H1356 0.950 . S
C1363 C1360 1.387 . S
C1364 C1365 1.387 . S
C1364 H1368 0.950 . S
C1364 C1373 1.390 . S
C1365 C1364 1.387 . S
C1365 C1367 1.387 . S
H1366 C1373 0.950 . S
C1367 C1365 1.387 . S
C1367 C1369 1.390 . S
C1367 H1371 0.950 . S
H1368 C1364 0.950 . S
C1369 C1367 1.390 . S
C1369 C1370 1.387 . S
C1369 H1372 0.950 . S
C1370 C1369 1.387 . S
C1370 C1373 1.387 . S
H1371 C1367 0.950 . S
H1372 C1369 0.950 . S
C1373 C1364 1.390 . S
C1373 H1366 0.950 . S
C1373 C1370 1.387 . S
C1374 C1375 1.387 1_565 S
C1374 H1378 0.950 . S
C1374 C1383 1.390 1_565 S
C1375 C1374 1.387 1_545 S
C1375 C1377 1.387 . S
H1376 C1383 0.950 1_565 S
C1377 C1375 1.387 . S
C1377 C1379 1.390 . S
C1377 H1381 0.950 . S
H1378 C1374 0.950 . S
C1379 C1377 1.390 . S
C1379 C1380 1.387 . S
C1379 H1382 0.950 . S
C1380 C1379 1.387 . S
C1380 C1383 1.387 . S
H1381 C1377 0.950 . S
H1382 C1379 0.950 . S
C1383 C1374 1.390 1_545 S
C1383 H1376 0.950 1_545 S
C1383 C1380 1.387 . S
C1384 C1385 1.387 . S
C1384 H1388 0.950 . S
C1384 C1393 1.390 . S
C1385 C1384 1.387 . S
C1385 C1387 1.387 . S
H1386 C1393 0.950 . S
C1387 C1385 1.387 . S
C1387 C1389 1.390 . S
C1387 H1391 0.950 . S
H1388 C1384 0.950 . S
C1389 C1387 1.390 . S
C1389 C1390 1.387 . S
C1389 H1392 0.950 . S
C1390 C1389 1.387 . S
C1390 C1393 1.387 . S
H1391 C1387 0.950 . S
H1392 C1389 0.950 . S
C1393 C1384 1.390 . S
C1393 H1386 0.950 . S
C1393 C1390 1.387 . S
C1394 C1395 1.387 . S
C1394 H1398 0.950 . S
C1394 C1403 1.390 . S
C1395 C1394 1.387 . S
C1395 C1397 1.387 1_565 S
H1396 C1403 0.950 . S
C1397 C1395 1.387 1_545 S
C1397 C1399 1.390 1_545 S
C1397 H1401 0.950 . S
H1398 C1394 0.950 . S
C1399 C1397 1.390 1_565 S
C1399 C1400 1.387 . S
C1399 H1402 0.950 1_565 S
C1400 C1399 1.387 . S
C1400 C1403 1.387 . S
H1401 C1397 0.950 . S
H1402 C1399 0.950 1_545 S
C1403 C1394 1.390 . S
C1403 H1396 0.950 . S
C1403 C1400 1.387 . S
C1404 C1405 1.387 . S
C1404 H1408 0.950 . S
C1404 C1413 1.390 . S
C1405 C1404 1.387 . S
C1405 C1407 1.387 . S
H1406 C1413 0.950 . S
C1407 C1405 1.387 . S
C1407 C1409 1.390 . S
C1407 H1411 0.950 . S
H1408 C1404 0.950 . S
C1409 C1407 1.390 . S
C1409 C1410 1.387 . S
C1409 H1412 0.950 . S
C1410 C1409 1.387 . S
C1410 C1413 1.387 . S
H1411 C1407 0.950 . S
H1412 C1409 0.950 . S
C1413 C1404 1.390 . S
C1413 H1406 0.950 . S
C1413 C1410 1.387 . S
C1414 C1415 1.387 . S
C1414 H1418 0.950 . S
C1414 C1423 1.390 . S
C1415 C1414 1.387 . S
C1415 C1417 1.387 1_545 S
H1416 C1423 0.950 . S
C1417 C1415 1.387 1_565 S
C1417 C1419 1.390 1_565 S
C1417 H1421 0.950 . S
H1418 C1414 0.950 . S
C1419 C1417 1.390 1_545 S
C1419 C1420 1.387 . S
C1419 H1422 0.950 1_645 S
C1420 C1419 1.387 . S
C1420 C1423 1.387 . S
H1421 C1417 0.950 . S
H1422 C1419 0.950 1_465 S
C1423 C1414 1.390 . S
C1423 H1416 0.950 . S
C1423 C1420 1.387 . S
C1424 C1425 1.387 . S
C1424 H1428 0.950 . S
C1424 C1433 1.390 . S
C1425 C1424 1.387 . S
C1425 C1427 1.387 . S
H1426 C1433 0.950 . S
C1427 C1425 1.387 . S
C1427 C1429 1.390 . S
C1427 H1431 0.950 . S
H1428 C1424 0.950 . S
C1429 C1427 1.390 . S
C1429 C1430 1.387 . S
C1429 H1432 0.950 . S
C1430 C1429 1.387 . S
C1430 C1433 1.387 . S
H1431 C1427 0.950 . S
H1432 C1429 0.950 . S
C1433 C1424 1.390 . S
C1433 H1426 0.950 . S
C1433 C1430 1.387 . S
C1434 C1435 1.387 . S
C1434 H1438 0.950 . S
C1434 C1443 1.390 . S
C1435 C1434 1.387 . S
C1435 C1437 1.387 . S
H1436 C1443 0.950 . S
C1437 C1435 1.387 . S
C1437 C1439 1.390 . S
C1437 H1441 0.950 . S
H1438 C1434 0.950 . S
C1439 C1437 1.390 . S
C1439 C1440 1.387 . S
C1439 H1442 0.950 . S
C1440 C1439 1.387 . S
C1440 C1443 1.387 . S
H1441 C1437 0.950 . S
H1442 C1439 0.950 . S
C1443 C1434 1.390 . S
C1443 H1436 0.950 . S
C1443 C1440 1.387 . S
C1444 C1445 1.387 . S
C1444 H1448 0.950 . S
C1444 C1453 1.390 . S
C1445 C1444 1.387 . S
C1445 C1447 1.387 . S
H1446 C1453 0.950 . S
C1447 C1445 1.387 . S
C1447 C1449 1.390 . S
C1447 H1451 0.950 . S
H1448 C1444 0.950 . S
C1449 C1447 1.390 . S
C1449 C1450 1.387 . S
C1449 H1452 0.950 . S
C1450 C1449 1.387 . S
C1450 C1453 1.387 . S
H1451 C1447 0.950 . S
H1452 C1449 0.950 . S
C1453 C1444 1.390 . S
C1453 H1446 0.950 . S
C1453 C1450 1.387 . S
C1454 C1455 1.387 . S
C1454 H1458 0.950 . S
C1454 C1463 1.390 . S
C1455 C1454 1.387 . S
C1455 C1457 1.387 . S
H1456 C1463 0.950 . S
C1457 C1455 1.387 . S
C1457 C1459 1.390 . S
C1457 H1461 0.950 . S
H1458 C1454 0.950 . S
C1459 C1457 1.390 . S
C1459 C1460 1.387 . S
C1459 H1462 0.950 . S
C1460 C1459 1.387 . S
C1460 C1463 1.387 . S
H1461 C1457 0.950 . S
H1462 C1459 0.950 . S
C1463 C1454 1.390 . S
C1463 H1456 0.950 . S
C1463 C1460 1.387 . S
C1464 C1465 1.387 . S
C1464 H1468 0.950 . S
C1464 C1473 1.390 . S
C1465 C1464 1.387 . S
C1465 C1467 1.387 . S
H1466 C1473 0.950 . S
C1467 C1465 1.387 . S
C1467 C1469 1.390 . S
C1467 H1471 0.950 . S
H1468 C1464 0.950 . S
C1469 C1467 1.390 . S
C1469 C1470 1.387 . S
C1469 H1472 0.950 . S
C1470 C1469 1.387 . S
C1470 C1473 1.387 . S
H1471 C1467 0.950 . S
H1472 C1469 0.950 . S
C1473 C1464 1.390 . S
C1473 H1466 0.950 . S
C1473 C1470 1.387 . S
C1474 C1475 1.387 . S
C1474 H1478 0.950 . S
C1474 C1483 1.390 . S
C1475 C1474 1.387 . S
C1475 C1477 1.387 . S
H1476 C1483 0.950 . S
C1477 C1475 1.387 . S
C1477 C1479 1.390 . S
C1477 H1481 0.950 . S
H1478 C1474 0.950 . S
C1479 C1477 1.390 . S
C1479 C1480 1.387 . S
C1479 H1482 0.950 . S
C1480 C1479 1.387 . S
C1480 C1483 1.387 . S
H1481 C1477 0.950 . S
H1482 C1479 0.950 . S
C1483 C1474 1.390 . S
C1483 H1476 0.950 . S
C1483 C1480 1.387 . S
C1484 C1485 1.387 . S
C1484 H1488 0.950 . S
C1484 C1493 1.390 . S
C1485 C1484 1.387 . S
C1485 C1487 1.387 . S
H1486 C1493 0.950 . S
C1487 C1485 1.387 . S
C1487 C1489 1.390 . S
C1487 H1491 0.950 . S
H1488 C1484 0.950 . S
C1489 C1487 1.390 . S
C1489 C1490 1.387 . S
C1489 H1492 0.950 . S
C1490 C1489 1.387 . S
C1490 C1493 1.387 . S
H1491 C1487 0.950 . S
H1492 C1489 0.950 . S
C1493 C1484 1.390 . S
C1493 H1486 0.950 . S
C1493 C1490 1.387 . S
C1494 C1495 1.387 . S
C1494 H1498 0.950 . S
C1494 C1503 1.390 . S
C1495 C1494 1.387 . S
C1495 C1497 1.387 . S
H1496 C1503 0.950 . S
C1497 C1495 1.387 . S
C1497 C1499 1.390 . S
C1497 H1501 0.950 . S
H1498 C1494 0.950 . S
C1499 C1497 1.390 . S
C1499 C1500 1.387 . S
C1499 H1502 0.950 . S
C1500 C1499 1.387 . S
C1500 C1503 1.387 . S
H1501 C1497 0.950 . S
H1502 C1499 0.950 . S
C1503 C1494 1.390 . S
C1503 H1496 0.950 . S
C1503 C1500 1.387 . S
C1504 C1505 1.387 . S
C1504 H1508 0.950 . S
C1504 C1513 1.390 . S
C1505 C1504 1.387 . S
C1505 C1507 1.387 . S
H1506 C1513 0.950 . S
C1507 C1505 1.387 . S
C1507 C1509 1.390 . S
C1507 H1511 0.950 . S
H1508 C1504 0.950 . S
C1509 C1507 1.390 . S
C1509 C1510 1.387 . S
C1509 H1512 0.950 . S
C1510 C1509 1.387 . S
C1510 C1513 1.387 . S
H1511 C1507 0.950 . S
H1512 C1509 0.950 . S
C1513 C1504 1.390 . S
C1513 H1506 0.950 . S
C1513 C1510 1.387 . S
C1514 C1515 1.387 . S
C1514 H1518 0.950 . S
C1514 C1523 1.390 . S
C1515 C1514 1.387 . S
C1515 C1517 1.387 . S
H1516 C1523 0.950 . S
C1517 C1515 1.387 . S
C1517 C1519 1.390 . S
C1517 H1521 0.950 . S
H1518 C1514 0.950 . S
C1519 C1517 1.390 . S
C1519 C1520 1.387 . S
C1519 H1522 0.950 . S
C1520 C1519 1.387 . S
C1520 C1523 1.387 . S
H1521 C1517 0.950 . S
H1522 C1519 0.950 . S
C1523 C1514 1.390 . S
C1523 H1516 0.950 . S
C1523 C1520 1.387 . S
C1524 C1525 1.387 . S
C1524 H1528 0.950 . S
C1524 C1533 1.390 . S
C1525 C1524 1.387 . S
C1525 C1527 1.387 1_554 S
H1526 C1533 0.950 . S
C1527 C1525 1.387 1_556 S
C1527 C1529 1.390 . S
C1527 H1531 0.950 . S
H1528 C1524 0.950 . S
C1529 C1527 1.390 . S
C1529 C1530 1.387 1_556 S
C1529 H1532 0.950 . S
C1530 C1529 1.387 1_554 S
C1530 C1533 1.387 . S
H1531 C1527 0.950 . S
H1532 C1529 0.950 . S
C1533 C1524 1.390 . S
C1533 H1526 0.950 . S
C1533 C1530 1.387 . S
C1534 C1535 1.387 . S
C1534 H1538 0.950 . S
C1534 C1543 1.390 . S
C1535 C1534 1.387 . S
C1535 C1537 1.387 . S
H1536 C1543 0.950 . S
C1537 C1535 1.387 . S
C1537 C1539 1.390 . S
C1537 H1541 0.950 . S
H1538 C1534 0.950 . S
C1539 C1537 1.390 . S
C1539 C1540 1.387 . S
C1539 H1542 0.950 . S
C1540 C1539 1.387 . S
C1540 C1543 1.387 . S
H1541 C1537 0.950 . S
H1542 C1539 0.950 . S
C1543 C1534 1.390 . S
C1543 H1536 0.950 . S
C1543 C1540 1.387 . S
C1544 C1545 1.387 . S
C1544 H1548 0.950 . S
C1544 C1553 1.390 . S
C1545 C1544 1.387 . S
C1545 C1547 1.387 1_554 S
H1546 C1553 0.950 . S
C1547 C1545 1.387 1_556 S
C1547 C1549 1.390 . S
C1547 H1551 0.950 . S
H1548 C1544 0.950 . S
C1549 C1547 1.390 . S
C1549 C1550 1.387 1_556 S
C1549 H1552 0.950 . S
C1550 C1549 1.387 1_554 S
C1550 C1553 1.387 . S
H1551 C1547 0.950 . S
H1552 C1549 0.950 . S
C1553 C1544 1.390 . S
C1553 H1546 0.950 . S
C1553 C1550 1.387 . S
C1554 C1555 1.387 . S
C1554 H1558 0.950 . S
C1554 C1563 1.390 . S
C1555 C1554 1.387 . S
C1555 C1557 1.387 . S
H1556 C1563 0.950 . S
C1557 C1555 1.387 . S
C1557 C1559 1.390 . S
C1557 H1561 0.950 . S
H1558 C1554 0.950 . S
C1559 C1557 1.390 . S
C1559 C1560 1.387 . S
C1559 H1562 0.950 . S
C1560 C1559 1.387 . S
C1560 C1563 1.387 . S
H1561 C1557 0.950 . S
H1562 C1559 0.950 . S
C1563 C1554 1.390 . S
C1563 H1556 0.950 . S
C1563 C1560 1.387 . S
C1564 C1565 1.387 . S
C1564 H1568 0.950 . S
C1564 C1573 1.390 . S
C1565 C1564 1.387 . S
C1565 C1567 1.387 . S
H1566 C1573 0.950 . S
C1567 C1565 1.387 . S
C1567 C1569 1.390 . S
C1567 H1571 0.950 . S
H1568 C1564 0.950 . S
C1569 C1567 1.390 . S
C1569 C1570 1.387 . S
C1569 H1572 0.950 . S
C1570 C1569 1.387 . S
C1570 C1573 1.387 . S
H1571 C1567 0.950 . S
H1572 C1569 0.950 . S
C1573 C1564 1.390 . S
C1573 H1566 0.950 . S
C1573 C1570 1.387 . S
C1574 C1575 1.387 1_554 S
C1574 H1578 0.950 . S
C1574 C1583 1.390 . S
C1575 C1574 1.387 1_556 S
C1575 C1577 1.387 . S
H1576 C1583 0.950 . S
C1577 C1575 1.387 . S
C1577 C1579 1.390 . S
C1577 H1581 0.950 . S
H1578 C1574 0.950 . S
C1579 C1577 1.390 . S
C1579 C1580 1.387 . S
C1579 H1582 0.950 . S
C1580 C1579 1.387 . S
C1580 C1583 1.387 1_556 S
H1581 C1577 0.950 . S
H1582 C1579 0.950 . S
C1583 C1574 1.390 . S
C1583 H1576 0.950 . S
C1583 C1580 1.387 1_554 S
C1584 C1585 1.387 . S
C1584 H1588 0.950 . S
C1584 C1593 1.390 . S
C1585 C1584 1.387 . S
C1585 C1587 1.387 . S
H1586 C1593 0.950 . S
C1587 C1585 1.387 . S
C1587 C1589 1.390 . S
C1587 H1591 0.950 . S
H1588 C1584 0.950 . S
C1589 C1587 1.390 . S
C1589 C1590 1.387 . S
C1589 H1592 0.950 . S
C1590 C1589 1.387 . S
C1590 C1593 1.387 . S
H1591 C1587 0.950 . S
H1592 C1589 0.950 . S
C1593 C1584 1.390 . S
C1593 H1586 0.950 . S
C1593 C1590 1.387 . S
C1594 C1595 1.387 . S
C1594 H1598 0.950 . S
C1594 C1603 1.390 . S
C1595 C1594 1.387 . S
C1595 C1597 1.387 . S
H1596 C1603 0.950 . S
C1597 C1595 1.387 . S
C1597 C1599 1.390 . S
C1597 H1601 0.950 . S
H1598 C1594 0.950 . S
C1599 C1597 1.390 . S
C1599 C1600 1.387 . S
C1599 H1602 0.950 . S
C1600 C1599 1.387 . S
C1600 C1603 1.387 . S
H1601 C1597 0.950 . S
H1602 C1599 0.950 . S
C1603 C1594 1.390 . S
C1603 H1596 0.950 . S
C1603 C1600 1.387 . S
C1604 C1605 1.387 . S
C1604 H1608 0.950 . S
C1604 C1613 1.390 . S
C1605 C1604 1.387 . S
C1605 C1607 1.387 . S
H1606 C1613 0.950 . S
C1607 C1605 1.387 . S
C1607 C1609 1.390 . S
C1607 H1611 0.950 . S
H1608 C1604 0.950 . S
C1609 C1607 1.390 . S
C1609 C1610 1.387 . S
C1609 H1612 0.950 . S
C1610 C1609 1.387 . S
C1610 C1613 1.387 . S
H1611 C1607 0.950 . S
H1612 C1609 0.950 . S
C1613 C1604 1.390 . S
C1613 H1606 0.950 . S
C1613 C1610 1.387 . S
C1614 C1615 1.387 . S
C1614 H1618 0.950 . S
C1614 C1623 1.390 . S
C1615 C1614 1.387 . S
C1615 C1617 1.387 . S
H1616 C1623 0.950 . S
C1617 C1615 1.387 . S
C1617 C1619 1.390 . S
C1617 H1621 0.950 . S
H1618 C1614 0.950 . S
C1619 C1617 1.390 . S
C1619 C1620 1.387 . S
C1619 H1622 0.950 . S
C1620 C1619 1.387 . S
C1620 C1623 1.387 . S
H1621 C1617 0.950 . S
H1622 C1619 0.950 . S
C1623 C1614 1.390 . S
C1623 H1616 0.950 . S
C1623 C1620 1.387 . S
C1624 C1625 1.387 . S
C1624 H1628 0.950 . S
C1624 C1633 1.390 . S
C1625 C1624 1.387 . S
C1625 C1627 1.387 . S
H1626 C1633 0.950 . S
C1627 C1625 1.387 . S
C1627 C1629 1.390 . S
C1627 H1631 0.950 . S
H1628 C1624 0.950 . S
C1629 C1627 1.390 . S
C1629 C1630 1.387 . S
C1629 H1632 0.950 . S
C1630 C1629 1.387 . S
C1630 C1633 1.387 . S
H1631 C1627 0.950 . S
H1632 C1629 0.950 . S
C1633 C1624 1.390 . S
C1633 H1626 0.950 . S
C1633 C1630 1.387 . S
C1634 C1635 1.387 . S
C1634 H1638 0.950 . S
C1634 C1643 1.390 . S
C1635 C1634 1.387 . S
C1635 C1637 1.387 . S
H1636 C1643 0.950 1_655 S
C1637 C1635 1.387 . S
C1637 C1639 1.390 . S
C1637 H1641 0.950 . S
H1638 C1634 0.950 . S
C1639 C1637 1.390 . S
C1639 C1640 1.387 . S
C1639 H1642 0.950 . S
C1640 C1639 1.387 . S
C1640 C1643 1.387 . S
H1641 C1637 0.950 . S
H1642 C1639 0.950 . S
C1643 C1634 1.390 . S
C1643 H1636 0.950 1_455 S
C1643 C1640 1.387 . S
C1644 C1645 1.387 . S
C1644 H1648 0.950 . S
C1644 C1653 1.390 . S
C1645 C1644 1.387 . S
C1645 C1647 1.387 . S
H1646 C1653 0.950 . S
C1647 C1645 1.387 . S
C1647 C1649 1.390 . S
C1647 H1651 0.950 . S
H1648 C1644 0.950 . S
C1649 C1647 1.390 . S
C1649 C1650 1.387 . S
C1649 H1652 0.950 . S
C1650 C1649 1.387 . S
C1650 C1653 1.387 . S
H1651 C1647 0.950 . S
H1652 C1649 0.950 . S
C1653 C1644 1.390 . S
C1653 H1646 0.950 . S
C1653 C1650 1.387 . S
C1654 C1655 1.387 . S
C1654 H1658 0.950 . S
C1654 C1663 1.390 . S
C1655 C1654 1.387 . S
C1655 C1657 1.387 . S
H1656 C1663 0.950 . S
C1657 C1655 1.387 . S
C1657 C1659 1.390 . S
C1657 H1661 0.950 . S
H1658 C1654 0.950 . S
C1659 C1657 1.390 . S
C1659 C1660 1.387 . S
C1659 H1662 0.950 . S
C1660 C1659 1.387 . S
C1660 C1663 1.387 . S
H1661 C1657 0.950 . S
H1662 C1659 0.950 . S
C1663 C1654 1.390 . S
C1663 H1656 0.950 . S
C1663 C1660 1.387 . S
C1664 C1665 1.387 . S
C1664 H1668 0.950 . S
C1664 C1673 1.390 . S
C1665 C1664 1.387 . S
C1665 C1667 1.387 . S
H1666 C1673 0.950 . S
C1667 C1665 1.387 . S
C1667 C1669 1.390 . S
C1667 H1671 0.950 . S
H1668 C1664 0.950 . S
C1669 C1667 1.390 . S
C1669 C1670 1.387 . S
C1669 H1672 0.950 . S
C1670 C1669 1.387 . S
C1670 C1673 1.387 . S
H1671 C1667 0.950 . S
H1672 C1669 0.950 . S
C1673 C1664 1.390 . S
C1673 H1666 0.950 . S
C1673 C1670 1.387 . S
C1674 C1675 1.387 . S
C1674 H1678 0.950 . S
C1674 C1683 1.390 . S
C1675 C1674 1.387 . S
C1675 C1677 1.387 . S
H1676 C1683 0.950 . S
C1677 C1675 1.387 . S
C1677 C1679 1.390 . S
C1677 H1681 0.950 . S
H1678 C1674 0.950 . S
C1679 C1677 1.390 . S
C1679 C1680 1.387 . S
C1679 H1682 0.950 . S
C1680 C1679 1.387 . S
C1680 C1683 1.387 . S
H1681 C1677 0.950 . S
H1682 C1679 0.950 . S
C1683 C1674 1.390 . S
C1683 H1676 0.950 . S
C1683 C1680 1.387 . S
C1684 C1685 1.387 . S
C1684 H1688 0.950 . S
C1684 C1693 1.390 . S
C1685 C1684 1.387 . S
C1685 C1687 1.387 . S
H1686 C1693 0.950 . S
C1687 C1685 1.387 . S
C1687 C1689 1.390 . S
C1687 H1691 0.950 . S
H1688 C1684 0.950 . S
C1689 C1687 1.390 . S
C1689 C1690 1.387 . S
C1689 H1692 0.950 . S
C1690 C1689 1.387 . S
C1690 C1693 1.387 . S
H1691 C1687 0.950 . S
H1692 C1689 0.950 . S
C1693 C1684 1.390 . S
C1693 H1686 0.950 . S
C1693 C1690 1.387 . S
C1694 C1695 1.387 . S
C1694 H1698 0.950 . S
C1694 C1703 1.390 . S
C1695 C1694 1.387 . S
C1695 C1697 1.387 . S
H1696 C1703 0.950 . S
C1697 C1695 1.387 . S
C1697 C1699 1.390 . S
C1697 H1701 0.950 . S
H1698 C1694 0.950 . S
C1699 C1697 1.390 . S
C1699 C1700 1.387 . S
C1699 H1702 0.950 . S
C1700 C1699 1.387 . S
C1700 C1703 1.387 . S
H1701 C1697 0.950 . S
H1702 C1699 0.950 . S
C1703 C1694 1.390 . S
C1703 H1696 0.950 . S
C1703 C1700 1.387 . S
C1704 C1705 1.387 . S
C1704 H1708 0.950 . S
C1704 C1713 1.390 . S
C1705 C1704 1.387 . S
C1705 C1707 1.387 . S
H1706 C1713 0.950 . S
C1707 C1705 1.387 . S
C1707 C1709 1.390 . S
C1707 H1711 0.950 . S
H1708 C1704 0.950 . S
C1709 C1707 1.390 . S
C1709 C1710 1.387 . S
C1709 H1712 0.950 . S
C1710 C1709 1.387 . S
C1710 C1713 1.387 . S
H1711 C1707 0.950 . S
H1712 C1709 0.950 . S
C1713 C1704 1.390 . S
C1713 H1706 0.950 . S
C1713 C1710 1.387 . S
C1714 C1715 1.387 . S
C1714 H1718 0.950 . S
C1714 C1723 1.390 . S
C1715 C1714 1.387 . S
C1715 C1717 1.387 . S
H1716 C1723 0.950 . S
C1717 C1715 1.387 . S
C1717 C1719 1.390 . S
C1717 H1721 0.950 . S
H1718 C1714 0.950 . S
C1719 C1717 1.390 . S
C1719 C1720 1.387 . S
C1719 H1722 0.950 . S
C1720 C1719 1.387 . S
C1720 C1723 1.387 . S
H1721 C1717 0.950 . S
H1722 C1719 0.950 . S
C1723 C1714 1.390 . S
C1723 H1716 0.950 . S
C1723 C1720 1.387 . S
C1724 C1725 1.387 . S
C1724 H1728 0.950 . S
C1724 C1733 1.390 . S
C1725 C1724 1.387 . S
C1725 C1727 1.387 . S
H1726 C1733 0.950 . S
C1727 C1725 1.387 . S
C1727 C1729 1.390 . S
C1727 H1731 0.950 . S
H1728 C1724 0.950 . S
C1729 C1727 1.390 . S
C1729 C1730 1.387 . S
C1729 H1732 0.950 . S
C1730 C1729 1.387 . S
C1730 C1733 1.387 . S
H1731 C1727 0.950 . S
H1732 C1729 0.950 . S
C1733 C1724 1.390 . S
C1733 H1726 0.950 . S
C1733 C1730 1.387 . S
C1734 C1735 1.387 . S
C1734 H1738 0.950 . S
C1734 C1743 1.390 . S
C1735 C1734 1.387 . S
C1735 C1737 1.387 . S
H1736 C1743 0.950 . S
C1737 C1735 1.387 . S
C1737 C1739 1.390 . S
C1737 H1741 0.950 . S
H1738 C1734 0.950 . S
C1739 C1737 1.390 . S
C1739 C1740 1.387 . S
C1739 H1742 0.950 . S
C1740 C1739 1.387 . S
C1740 C1743 1.387 . S
H1741 C1737 0.950 . S
H1742 C1739 0.950 . S
C1743 C1734 1.390 . S
C1743 H1736 0.950 . S
C1743 C1740 1.387 . S
C1744 C1745 1.387 . S
C1744 H1748 0.950 . S
C1744 C1753 1.390 . S
C1745 C1744 1.387 . S
C1745 C1747 1.387 . S
H1746 C1753 0.950 . S
C1747 C1745 1.387 . S
C1747 C1749 1.390 . S
C1747 H1751 0.950 . S
H1748 C1744 0.950 . S
C1749 C1747 1.390 . S
C1749 C1750 1.387 . S
C1749 H1752 0.950 . S
C1750 C1749 1.387 . S
C1750 C1753 1.387 . S
H1751 C1747 0.950 . S
H1752 C1749 0.950 . S
C1753 C1744 1.390 . S
C1753 H1746 0.950 . S
C1753 C1750 1.387 . S
C1754 C1755 1.387 . S
C1754 H1758 0.950 . S
C1754 C1763 1.390 . S
C1755 C1754 1.387 . S
C1755 C1757 1.387 . S
H1756 C1763 0.950 . S
C1757 C1755 1.387 . S
C1757 C1759 1.390 . S
C1757 H1761 0.950 . S
H1758 C1754 0.950 . S
C1759 C1757 1.390 . S
C1759 C1760 1.387 . S
C1759 H1762 0.950 . S
C1760 C1759 1.387 . S
C1760 C1763 1.387 . S
H1761 C1757 0.950 . S
H1762 C1759 0.950 . S
C1763 C1754 1.390 . S
C1763 H1756 0.950 . S
C1763 C1760 1.387 . S
C1764 C1765 1.387 . S
C1764 H1768 0.950 . S
C1764 C1773 1.390 . S
C1765 C1764 1.387 . S
C1765 C1767 1.387 . S
H1766 C1773 0.950 . S
C1767 C1765 1.387 . S
C1767 C1769 1.390 . S
C1767 H1771 0.950 . S
H1768 C1764 0.950 . S
C1769 C1767 1.390 . S
C1769 C1770 1.387 . S
C1769 H1772 0.950 . S
C1770 C1769 1.387 . S
C1770 C1773 1.387 . S
H1771 C1767 0.950 . S
H1772 C1769 0.950 . S
C1773 C1764 1.390 . S
C1773 H1766 0.950 . S
C1773 C1770 1.387 . S
C1774 C1775 1.387 . S
C1774 H1778 0.950 . S
C1774 C1783 1.390 . S
C1775 C1774 1.387 . S
C1775 C1777 1.387 . S
H1776 C1783 0.950 . S
C1777 C1775 1.387 . S
C1777 C1779 1.390 . S
C1777 H1781 0.950 . S
H1778 C1774 0.950 . S
C1779 C1777 1.390 . S
C1779 C1780 1.387 . S
C1779 H1782 0.950 . S
C1780 C1779 1.387 . S
C1780 C1783 1.387 . S
H1781 C1777 0.950 . S
H1782 C1779 0.950 . S
C1783 C1774 1.390 . S
C1783 H1776 0.950 . S
C1783 C1780 1.387 . S
C1784 C1785 1.387 . S
C1784 H1788 0.950 . S
C1784 C1793 1.390 . S
C1785 C1784 1.387 . S
C1785 C1787 1.387 . S
H1786 C1793 0.950 . S
C1787 C1785 1.387 . S
C1787 C1789 1.390 . S
C1787 H1791 0.950 . S
H1788 C1784 0.950 . S
C1789 C1787 1.390 . S
C1789 C1790 1.387 . S
C1789 H1792 0.950 . S
C1790 C1789 1.387 . S
C1790 C1793 1.387 . S
H1791 C1787 0.950 . S
H1792 C1789 0.950 . S
C1793 C1784 1.390 . S
C1793 H1786 0.950 . S
C1793 C1790 1.387 . S
C1794 C1795 1.387 . S
C1794 H1798 0.950 . S
C1794 C1803 1.390 . S
C1795 C1794 1.387 . S
C1795 C1797 1.387 . S
H1796 C1803 0.950 . S
C1797 C1795 1.387 . S
C1797 C1799 1.390 . S
C1797 H1801 0.950 . S
H1798 C1794 0.950 . S
C1799 C1797 1.390 . S
C1799 C1800 1.387 . S
C1799 H1802 0.950 . S
C1800 C1799 1.387 . S
C1800 C1803 1.387 . S
H1801 C1797 0.950 . S
H1802 C1799 0.950 . S
C1803 C1794 1.390 . S
C1803 H1796 0.950 . S
C1803 C1800 1.387 . S
C1804 C1805 1.387 1_554 S
C1804 H1808 0.950 . S
C1804 C1813 1.390 . S
C1805 C1804 1.387 1_556 S
C1805 C1807 1.387 . S
H1806 C1813 0.950 . S
C1807 C1805 1.387 . S
C1807 C1809 1.390 . S
C1807 H1811 0.950 . S
H1808 C1804 0.950 . S
C1809 C1807 1.390 . S
C1809 C1810 1.387 . S
C1809 H1812 0.950 . S
C1810 C1809 1.387 . S
C1810 C1813 1.387 1_556 S
H1811 C1807 0.950 . S
H1812 C1809 0.950 . S
C1813 C1804 1.390 . S
C1813 H1806 0.950 . S
C1813 C1810 1.387 1_554 S
C1814 C1815 1.387 . S
C1814 H1818 0.950 . S
C1814 C1823 1.390 . S
C1815 C1814 1.387 . S
C1815 C1817 1.387 . S
H1816 C1823 0.950 . S
C1817 C1815 1.387 . S
C1817 C1819 1.390 . S
C1817 H1821 0.950 . S
H1818 C1814 0.950 . S
C1819 C1817 1.390 . S
C1819 C1820 1.387 . S
C1819 H1822 0.950 . S
C1820 C1819 1.387 . S
C1820 C1823 1.387 . S
H1821 C1817 0.950 . S
H1822 C1819 0.950 . S
C1823 C1814 1.390 . S
C1823 H1816 0.950 . S
C1823 C1820 1.387 . S
C1824 C1825 1.387 . S
C1824 H1828 0.950 . S
C1824 C1833 1.390 . S
C1825 C1824 1.387 . S
C1825 C1827 1.387 . S
H1826 C1833 0.950 . S
C1827 C1825 1.387 . S
C1827 C1829 1.390 . S
C1827 H1831 0.950 . S
H1828 C1824 0.950 . S
C1829 C1827 1.390 . S
C1829 C1830 1.387 . S
C1829 H1832 0.950 . S
C1830 C1829 1.387 . S
C1830 C1833 1.387 . S
H1831 C1827 0.950 . S
H1832 C1829 0.950 . S
C1833 C1824 1.390 . S
C1833 H1826 0.950 . S
C1833 C1830 1.387 . S
C1834 C1835 1.387 . S
C1834 H1838 0.950 . S
C1834 C1843 1.390 . S
C1835 C1834 1.387 . S
C1835 C1837 1.387 . S
H1836 C1843 0.950 . S
C1837 C1835 1.387 . S
C1837 C1839 1.390 . S
C1837 H1841 0.950 . S
H1838 C1834 0.950 . S
C1839 C1837 1.390 . S
C1839 C1840 1.387 . S
C1839 H1842 0.950 . S
C1840 C1839 1.387 . S
C1840 C1843 1.387 . S
H1841 C1837 0.950 . S
H1842 C1839 0.950 . S
C1843 C1834 1.390 . S
C1843 H1836 0.950 . S
C1843 C1840 1.387 . S
C1844 C1845 1.387 . S
C1844 H1848 0.950 . S
C1844 C1853 1.390 . S
C1845 C1844 1.387 . S
C1845 C1847 1.387 . S
H1846 C1853 0.950 . S
C1847 C1845 1.387 . S
C1847 C1849 1.390 . S
C1847 H1851 0.950 . S
H1848 C1844 0.950 . S
C1849 C1847 1.390 . S
C1849 C1850 1.387 . S
C1849 H1852 0.950 . S
C1850 C1849 1.387 . S
C1850 C1853 1.387 . S
H1851 C1847 0.950 . S
H1852 C1849 0.950 . S
C1853 C1844 1.390 . S
C1853 H1846 0.950 . S
C1853 C1850 1.387 . S
C1854 C1855 1.387 . S
C1854 H1858 0.950 . S
C1854 C1863 1.390 . S
C1855 C1854 1.387 . S
C1855 C1857 1.387 . S
H1856 C1863 0.950 . S
C1857 C1855 1.387 . S
C1857 C1859 1.390 . S
C1857 H1861 0.950 . S
H1858 C1854 0.950 . S
C1859 C1857 1.390 . S
C1859 C1860 1.387 . S
C1859 H1862 0.950 . S
C1860 C1859 1.387 . S
C1860 C1863 1.387 . S
H1861 C1857 0.950 . S
H1862 C1859 0.950 . S
C1863 C1854 1.390 . S
C1863 H1856 0.950 . S
C1863 C1860 1.387 . S
C1864 C1865 1.387 . S
C1864 H1868 0.950 . S
C1864 C1873 1.390 . S
C1865 C1864 1.387 . S
C1865 C1867 1.387 . S
H1866 C1873 0.950 . S
C1867 C1865 1.387 . S
C1867 C1869 1.390 . S
C1867 H1871 0.950 . S
H1868 C1864 0.950 . S
C1869 C1867 1.390 . S
C1869 C1870 1.387 . S
C1869 H1872 0.950 . S
C1870 C1869 1.387 . S
C1870 C1873 1.387 . S
H1871 C1867 0.950 . S
H1872 C1869 0.950 . S
C1873 C1864 1.390 . S
C1873 H1866 0.950 . S
C1873 C1870 1.387 . S
C1874 C1875 1.387 . S
C1874 H1878 0.950 . S
C1874 C1883 1.390 . S
C1875 C1874 1.387 . S
C1875 C1877 1.387 . S
H1876 C1883 0.950 . S
C1877 C1875 1.387 . S
C1877 C1879 1.390 . S
C1877 H1881 0.950 . S
H1878 C1874 0.950 . S
C1879 C1877 1.390 . S
C1879 C1880 1.387 . S
C1879 H1882 0.950 . S
C1880 C1879 1.387 . S
C1880 C1883 1.387 . S
H1881 C1877 0.950 . S
H1882 C1879 0.950 . S
C1883 C1874 1.390 . S
C1883 H1876 0.950 . S
C1883 C1880 1.387 . S
C1884 C1885 1.387 . S
C1884 H1888 0.950 . S
C1884 C1893 1.390 . S
C1885 C1884 1.387 . S
C1885 C1887 1.387 . S
H1886 C1893 0.950 . S
C1887 C1885 1.387 . S
C1887 C1889 1.390 . S
C1887 H1891 0.950 . S
H1888 C1884 0.950 . S
C1889 C1887 1.390 . S
C1889 C1890 1.387 . S
C1889 H1892 0.950 . S
C1890 C1889 1.387 . S
C1890 C1893 1.387 . S
H1891 C1887 0.950 . S
H1892 C1889 0.950 . S
C1893 C1884 1.390 . S
C1893 H1886 0.950 . S
C1893 C1890 1.387 . S
C1894 C1895 1.387 . S
C1894 H1898 0.950 . S
C1894 C1903 1.390 . S
C1895 C1894 1.387 . S
C1895 C1897 1.387 . S
H1896 C1903 0.950 . S
C1897 C1895 1.387 . S
C1897 C1899 1.390 . S
C1897 H1901 0.950 . S
H1898 C1894 0.950 . S
C1899 C1897 1.390 . S
C1899 C1900 1.387 . S
C1899 H1902 0.950 . S
C1900 C1899 1.387 . S
C1900 C1903 1.387 . S
H1901 C1897 0.950 . S
H1902 C1899 0.950 . S
C1903 C1894 1.390 . S
C1903 H1896 0.950 . S
C1903 C1900 1.387 . S
C1904 C1905 1.387 . S
C1904 H1908 0.950 . S
C1904 C1913 1.390 . S
C1905 C1904 1.387 . S
C1905 C1907 1.387 . S
H1906 C1913 0.950 . S
C1907 C1905 1.387 . S
C1907 C1909 1.390 . S
C1907 H1911 0.950 . S
H1908 C1904 0.950 . S
C1909 C1907 1.390 . S
C1909 C1910 1.387 . S
C1909 H1912 0.950 . S
C1910 C1909 1.387 . S
C1910 C1913 1.387 . S
H1911 C1907 0.950 . S
H1912 C1909 0.950 . S
C1913 C1904 1.390 . S
C1913 H1906 0.950 . S
C1913 C1910 1.387 . S
C1914 C1915 1.387 . S
C1914 H1918 0.950 . S
C1914 C1923 1.390 . S
C1915 C1914 1.387 . S
C1915 C1917 1.387 . S
H1916 C1923 0.950 . S
C1917 C1915 1.387 . S
C1917 C1919 1.390 . S
C1917 H1921 0.950 . S
H1918 C1914 0.950 . S
C1919 C1917 1.390 . S
C1919 C1920 1.387 . S
C1919 H1922 0.950 . S
C1920 C1919 1.387 . S
C1920 C1923 1.387 . S
H1921 C1917 0.950 . S
H1922 C1919 0.950 . S
C1923 C1914 1.390 . S
C1923 H1916 0.950 . S
C1923 C1920 1.387 . S
C1924 C1925 1.387 . S
C1924 H1928 0.950 . S
C1924 C1933 1.390 . S
C1925 C1924 1.387 . S
C1925 C1927 1.387 . S
H1926 C1933 0.950 . S
C1927 C1925 1.387 . S
C1927 C1929 1.390 . S
C1927 H1931 0.950 . S
H1928 C1924 0.950 . S
C1929 C1927 1.390 . S
C1929 C1930 1.387 . S
C1929 H1932 0.950 . S
C1930 C1929 1.387 . S
C1930 C1933 1.387 . S
H1931 C1927 0.950 . S
H1932 C1929 0.950 . S
C1933 C1924 1.390 . S
C1933 H1926 0.950 . S
C1933 C1930 1.387 . S
C1934 C1935 1.387 . S
C1934 H1938 0.950 . S
C1934 C1943 1.390 . S
C1935 C1934 1.387 . S
C1935 C1937 1.387 . S
H1936 C1943 0.950 . S
C1937 C1935 1.387 . S
C1937 C1939 1.390 . S
C1937 H1941 0.950 . S
H1938 C1934 0.950 . S
C1939 C1937 1.390 . S
C1939 C1940 1.387 . S
C1939 H1942 0.950 . S
C1940 C1939 1.387 . S
C1940 C1943 1.387 . S
H1941 C1937 0.950 . S
H1942 C1939 0.950 . S
C1943 C1934 1.390 . S
C1943 H1936 0.950 . S
C1943 C1940 1.387 . S
C1944 C1945 1.387 . S
C1944 H1948 0.950 . S
C1944 C1953 1.390 . S
C1945 C1944 1.387 . S
C1945 C1947 1.387 . S
H1946 C1953 0.950 . S
C1947 C1945 1.387 . S
C1947 C1949 1.390 . S
C1947 H1951 0.950 . S
H1948 C1944 0.950 . S
C1949 C1947 1.390 . S
C1949 C1950 1.387 . S
C1949 H1952 0.950 . S
C1950 C1949 1.387 . S
C1950 C1953 1.387 . S
H1951 C1947 0.950 . S
H1952 C1949 0.950 . S
C1953 C1944 1.390 . S
C1953 H1946 0.950 . S
C1953 C1950 1.387 . S
C1954 C1955 1.387 . S
C1954 H1958 0.950 . S
C1954 C1963 1.390 . S
C1955 C1954 1.387 . S
C1955 C1957 1.387 . S
H1956 C1963 0.950 . S
C1957 C1955 1.387 . S
C1957 C1959 1.390 . S
C1957 H1961 0.950 . S
H1958 C1954 0.950 . S
C1959 C1957 1.390 . S
C1959 C1960 1.387 . S
C1959 H1962 0.950 . S
C1960 C1959 1.387 . S
C1960 C1963 1.387 . S
H1961 C1957 0.950 . S
H1962 C1959 0.950 . S
C1963 C1954 1.390 . S
C1963 H1956 0.950 . S
C1963 C1960 1.387 . S
C1964 C1965 1.387 . S
C1964 H1968 0.950 . S
C1964 C1973 1.390 . S
C1965 C1964 1.387 . S
C1965 C1967 1.387 . S
H1966 C1973 0.950 . S
C1967 C1965 1.387 . S
C1967 C1969 1.390 . S
C1967 H1971 0.950 . S
H1968 C1964 0.950 . S
C1969 C1967 1.390 . S
C1969 C1970 1.387 . S
C1969 H1972 0.950 . S
C1970 C1969 1.387 . S
C1970 C1973 1.387 . S
H1971 C1967 0.950 . S
H1972 C1969 0.950 . S
C1973 C1964 1.390 . S
C1973 H1966 0.950 . S
C1973 C1970 1.387 . S
C1974 C1975 1.387 . S
C1974 H1978 0.950 . S
C1974 C1983 1.390 . S
C1975 C1974 1.387 . S
C1975 C1977 1.387 . S
H1976 C1983 0.950 . S
C1977 C1975 1.387 . S
C1977 C1979 1.390 . S
C1977 H1981 0.950 . S
H1978 C1974 0.950 . S
C1979 C1977 1.390 . S
C1979 C1980 1.387 . S
C1979 H1982 0.950 . S
C1980 C1979 1.387 . S
C1980 C1983 1.387 . S
H1981 C1977 0.950 . S
H1982 C1979 0.950 . S
C1983 C1974 1.390 . S
C1983 H1976 0.950 . S
C1983 C1980 1.387 . S
C1984 C1985 1.387 . S
C1984 H1988 0.950 . S
C1984 C1993 1.390 . S
C1985 C1984 1.387 . S
C1985 C1987 1.387 . S
H1986 C1993 0.950 . S
C1987 C1985 1.387 . S
C1987 C1989 1.390 . S
C1987 H1991 0.950 . S
H1988 C1984 0.950 . S
C1989 C1987 1.390 . S
C1989 C1990 1.387 . S
C1989 H1992 0.950 . S
C1990 C1989 1.387 . S
C1990 C1993 1.387 . S
H1991 C1987 0.950 . S
H1992 C1989 0.950 . S
C1993 C1984 1.390 . S
C1993 H1986 0.950 . S
C1993 C1990 1.387 . S
C1994 C1995 1.387 . S
C1994 H1998 0.950 . S
C1994 C2003 1.390 . S
C1995 C1994 1.387 . S
C1995 C1997 1.387 . S
H1996 C2003 0.950 . S
C1997 C1995 1.387 . S
C1997 C1999 1.390 . S
C1997 H2001 0.950 . S
H1998 C1994 0.950 . S
C1999 C1997 1.390 . S
C1999 C2000 1.387 . S
C1999 H2002 0.950 . S
C2000 C1999 1.387 . S
C2000 C2003 1.387 . S
H2001 C1997 0.950 . S
H2002 C1999 0.950 . S
C2003 C1994 1.390 . S
C2003 H1996 0.950 . S
C2003 C2000 1.387 . S
C2004 C2005 1.387 . S
C2004 H2008 0.950 . S
C2004 C2013 1.390 . S
C2005 C2004 1.387 . S
C2005 C2007 1.387 . S
H2006 C2013 0.950 . S
C2007 C2005 1.387 . S
C2007 C2009 1.390 . S
C2007 H2011 0.950 . S
H2008 C2004 0.950 . S
C2009 C2007 1.390 . S
C2009 C2010 1.387 . S
C2009 H2012 0.950 . S
C2010 C2009 1.387 . S
C2010 C2013 1.387 . S
H2011 C2007 0.950 . S
H2012 C2009 0.950 . S
C2013 C2004 1.390 . S
C2013 H2006 0.950 . S
C2013 C2010 1.387 . S
C2014 C2015 1.387 . S
C2014 H2018 0.950 . S
C2014 C2023 1.390 . S
C2015 C2014 1.387 . S
C2015 C2017 1.387 . S
H2016 C2023 0.950 . S
C2017 C2015 1.387 . S
C2017 C2019 1.390 . S
C2017 H2021 0.950 . S
H2018 C2014 0.950 . S
C2019 C2017 1.390 . S
C2019 C2020 1.387 . S
C2019 H2022 0.950 . S
C2020 C2019 1.387 . S
C2020 C2023 1.387 . S
H2021 C2017 0.950 . S
H2022 C2019 0.950 . S
C2023 C2014 1.390 . S
C2023 H2016 0.950 . S
C2023 C2020 1.387 . S
C2024 C2025 1.387 . S
C2024 H2028 0.950 . S
C2024 C2033 1.390 . S
C2025 C2024 1.387 . S
C2025 C2027 1.387 . S
H2026 C2033 0.950 . S
C2027 C2025 1.387 . S
C2027 C2029 1.390 . S
C2027 H2031 0.950 . S
H2028 C2024 0.950 . S
C2029 C2027 1.390 . S
C2029 C2030 1.387 . S
C2029 H2032 0.950 . S
C2030 C2029 1.387 . S
C2030 C2033 1.387 . S
H2031 C2027 0.950 . S
H2032 C2029 0.950 . S
C2033 C2024 1.390 . S
C2033 H2026 0.950 . S
C2033 C2030 1.387 . S
C2034 C2035 1.387 . S
C2034 H2038 0.950 . S
C2034 C2043 1.390 . S
C2035 C2034 1.387 . S
C2035 C2037 1.387 . S
H2036 C2043 0.950 . S
C2037 C2035 1.387 . S
C2037 C2039 1.390 . S
C2037 H2041 0.950 . S
H2038 C2034 0.950 . S
C2039 C2037 1.390 . S
C2039 C2040 1.387 . S
C2039 H2042 0.950 . S
C2040 C2039 1.387 . S
C2040 C2043 1.387 . S
H2041 C2037 0.950 . S
H2042 C2039 0.950 . S
C2043 C2034 1.390 . S
C2043 H2036 0.950 . S
C2043 C2040 1.387 . S
C2044 C2045 1.387 . S
C2044 H2048 0.950 . S
C2044 C2053 1.390 . S
C2045 C2044 1.387 . S
C2045 C2047 1.387 . S
H2046 C2053 0.950 . S
C2047 C2045 1.387 . S
C2047 C2049 1.390 . S
C2047 H2051 0.950 . S
H2048 C2044 0.950 . S
C2049 C2047 1.390 . S
C2049 C2050 1.387 . S
C2049 H2052 0.950 . S
C2050 C2049 1.387 . S
C2050 C2053 1.387 . S
H2051 C2047 0.950 . S
H2052 C2049 0.950 . S
C2053 C2044 1.390 . S
C2053 H2046 0.950 . S
C2053 C2050 1.387 . S
C2054 C2055 1.387 . S
C2054 H2058 0.950 . S
C2054 C2063 1.390 . S
C2055 C2054 1.387 . S
C2055 C2057 1.387 . S
H2056 C2063 0.950 . S
C2057 C2055 1.387 . S
C2057 C2059 1.390 . S
C2057 H2061 0.950 . S
H2058 C2054 0.950 . S
C2059 C2057 1.390 . S
C2059 C2060 1.387 . S
C2059 H2062 0.950 . S
C2060 C2059 1.387 . S
C2060 C2063 1.387 . S
H2061 C2057 0.950 . S
H2062 C2059 0.950 . S
C2063 C2054 1.390 . S
C2063 H2056 0.950 . S
C2063 C2060 1.387 . S
C1105 N140 1.605 . S
C1110 N2 1.605 . S
C1115 C30 1.800 . S
C1120 C168 1.800 . S
C1125 N48 1.605 . S
C1130 N94 1.605 . S
C1135 C122 1.800 . S
C1140 C76 1.800 . S
C1145 C789 1.764 . S
C1150 C191 1.764 . S
C1155 N807 1.606 . S
C1160 N209 1.606 . S
C1165 C237 1.764 . S
C1170 C743 1.764 . S
C1175 N255 1.606 . S
C1180 N761 1.606 . S
C1185 C881 1.763 . S
C1190 C283 1.763 . S
C1195 N899 1.606 . S
C1200 N301 1.606 . S
C1205 C835 1.764 . S
C1210 C329 1.764 . S
C1215 N853 1.606 . S
C1220 N347 1.606 . S
C1225 C375 1.800 . S
C1230 C950 1.800 . S
C1235 C398 1.800 . S
C1240 C927 1.800 . S
C1245 C421 1.762 1_556 S
C1250 C536 1.762 1_554 S
C1255 C1042 1.800 . S
C1260 C444 1.800 . S
C1265 C1065 1.763 1_554 S
C1270 C467 1.763 1_556 S
C1275 C996 1.800 . S
C1280 C490 1.800 . S
C1285 C1019 1.764 . S
C1290 C513 1.764 . S
C1295 N692 1.605 . S
C1300 N554 1.605 . S
C1305 C720 1.800 . S
C1310 C582 1.800 . S
C1315 N600 1.605 . S
C1320 N646 1.605 . S
C1325 C628 1.800 . S
C1330 C674 1.800 . S
C1335 C1088 1.764 . S
C1340 C973 1.764 . S
C1345 N370 1.888 . S
C1350 N12 1.953 . S
C1355 C39 1.686 1_655 S
C1360 N1083 1.675 . S
C1365 N58 1.953 . S
C1370 N485 1.888 . S
C1375 N1060 1.676 . S
C1380 C85 1.684 . S
C1385 N104 1.953 . S
C1390 N945 1.888 . S
C1395 N968 1.677 . S
C1400 C131 1.688 . S
C1405 N150 1.955 . S
C1410 N991 1.892 . S
C1415 N462 1.677 . S
C1420 C177 1.688 1_655 S
C1425 C200 1.697 . S
C1430 C7 1.803 . S
C1435 N25 1.889 . S
C1440 N219 1.954 . S
C1445 C246 1.697 . S
C1450 C53 1.803 . S
C1455 N265 1.955 . S
C1460 N71 1.892 . S
C1465 C292 1.697 . S
C1470 C99 1.803 . S
C1475 N117 1.891 . S
C1480 N311 1.954 . S
C1485 C338 1.697 . S
C1490 C145 1.803 . S
C1495 N357 1.953 . S
C1500 N163 1.891 . S
C1505 C384 1.687 . S
C1510 N186 1.678 . S
C1515 C407 1.687 . S
C1520 N830 1.676 . S
C1525 C858 1.805 . S
C1530 C430 1.701 . S
C1535 N876 1.674 . S
C1540 C453 1.685 . S
C1545 C476 1.701 . S
C1550 C352 1.805 . S
C1555 C499 1.684 . S
C1560 N232 1.676 . S
C1565 C812 1.805 . S
C1570 C522 1.701 . S
C1575 C766 1.803 . S
C1580 C545 1.697 . S
C1585 N564 1.955 . S
C1590 N922 1.892 . S
C1595 C591 1.686 . S
C1600 N531 1.675 . S
C1605 N610 1.954 . S
C1610 N1037 1.889 . S
C1615 C637 1.685 1_455 S
C1620 N508 1.676 . S
C1625 N656 1.952 . S
C1630 N393 1.889 . S
C1635 N416 1.674 . S
C1640 C683 1.685 1_455 S
C1645 N439 1.888 . S
C1650 N702 1.953 . S
C1655 N1014 1.676 . S
C1660 C729 1.687 . S
C1665 C559 1.805 . S
C1670 C752 1.701 . S
C1675 N577 1.889 . S
C1680 N771 1.954 . S
C1685 C798 1.697 . S
C1690 C605 1.803 . S
C1695 N623 1.892 . S
C1700 N817 1.955 . S
C1705 C844 1.697 . S
C1710 C651 1.803 . S
C1715 N669 1.889 . S
C1720 N863 1.954 . S
C1725 C890 1.701 . S
C1730 C697 1.805 . S
C1735 N715 1.890 . S
C1740 N909 1.953 . S
C1745 C936 1.684 . S
C1750 N738 1.675 . S
C1755 C959 1.687 . S
C1760 N278 1.676 . S
C1765 C306 1.803 . S
C1770 C982 1.697 . S
C1775 C1005 1.686 . S
C1780 N324 1.675 . S
C1785 C1028 1.697 . S
C1790 C904 1.803 . S
C1795 N784 1.675 . S
C1800 C1051 1.686 . S
C1805 C1074 1.697 . S
C1810 C260 1.803 . S
C1815 C214 1.803 . S
C1820 C1097 1.697 . S
C1825 C223 1.412 . S
C1830 C16 1.411 . S
C1835 N35 1.516 . S
C1840 N242 1.501 . S
C1845 C269 1.411 . S
C1850 C62 1.412 . S
C1855 N196 1.501 . S
C1860 N81 1.517 . S
C1865 C108 1.411 . S
C1870 C361 1.413 . S
C1875 N127 1.516 . S
C1880 N288 1.500 . S
C1885 C315 1.412 . S
C1890 C154 1.414 . S
C1895 N334 1.499 . S
C1900 N173 1.515 . S
C1905 N380 1.515 . S
C1910 N426 1.499 . S
C1915 N403 1.517 . S
C1920 N1070 1.499 . S
C1925 N449 1.517 . S
C1930 N1093 1.500 . S
C1935 N1047 1.516 . S
C1940 N472 1.498 . S
C1945 N1024 1.499 . S
C1950 N495 1.516 . S
C1955 N955 1.516 . S
C1960 N518 1.501 . S
C1965 N541 1.498 . S
C1970 N1001 1.516 . S
C1975 C775 1.414 . S
C1980 C568 1.413 . S
C1985 N794 1.498 . S
C1990 N587 1.516 . S
C1995 C614 1.414 . S
C2000 C821 1.414 . S
C2005 N748 1.499 . S
C2010 N633 1.517 . S
C2015 C913 1.413 . S
C2020 C660 1.411 . S
C2025 N840 1.500 . S
C2030 N679 1.516 . S
C2035 C706 1.414 . S
C2040 C867 1.414 . S
C2045 N886 1.501 . S
C2050 N725 1.517 . S
C2055 N978 1.501 . S
C2060 N932 1.517 . S
