# Generated by pormake.
# Topology upb, (4)-cn, num edge types: 1
# Building blocks:
#     Node 0, Type 0, BuildingBlock: QUQFOY_clean_sbu_1, # of connection points: 4
#     Node 1, Type 0, BuildingBlock: QUQFOY_clean_sbu_1, # of connection points: 4
#     Node 2, Type 0, BuildingBlock: QUQFOY_clean_sbu_1, # of connection points: 4
#     Node 3, Type 0, BuildingBlock: QUQFOY_clean_sbu_1, # of connection points: 4
#     Node 4, Type 0, BuildingBlock: QUQFOY_clean_sbu_1, # of connection points: 4
#     Node 5, Type 0, BuildingBlock: QUQFOY_clean_sbu_1, # of connection points: 4
#     Node 6, Type 0, BuildingBlock: QUQFOY_clean_sbu_1, # of connection points: 4
#     Node 7, Type 0, BuildingBlock: QUQFOY_clean_sbu_1, # of connection points: 4
#     Node 8, Type 0, BuildingBlock: QUQFOY_clean_sbu_1, # of connection points: 4
#     Node 9, Type 0, BuildingBlock: QUQFOY_clean_sbu_1, # of connection points: 4
#     Node 10, Type 0, BuildingBlock: QUQFOY_clean_sbu_1, # of connection points: 4
#     Node 11, Type 0, BuildingBlock: QUQFOY_clean_sbu_1, # of connection points: 4
#     Node 12, Type 0, BuildingBlock: QUQFOY_clean_sbu_1, # of connection points: 4
#     Node 13, Type 0, BuildingBlock: QUQFOY_clean_sbu_1, # of connection points: 4
#     Node 14, Type 0, BuildingBlock: QUQFOY_clean_sbu_1, # of connection points: 4
#     Node 15, Type 0, BuildingBlock: QUQFOY_clean_sbu_1, # of connection points: 4
#     Edge 16, Type (0, 0), BuildingBlock: ZUJKAS_clean_linker_0, # of connection points: 2
#     Edge 17, Type (0, 0), BuildingBlock: ZUJKAS_clean_linker_0, # of connection points: 2
#     Edge 18, Type (0, 0), BuildingBlock: ZUJKAS_clean_linker_0, # of connection points: 2
#     Edge 19, Type (0, 0), BuildingBlock: ZUJKAS_clean_linker_0, # of connection points: 2
#     Edge 20, Type (0, 0), BuildingBlock: ZUJKAS_clean_linker_0, # of connection points: 2
#     Edge 21, Type (0, 0), BuildingBlock: ZUJKAS_clean_linker_0, # of connection points: 2
#     Edge 22, Type (0, 0), BuildingBlock: ZUJKAS_clean_linker_0, # of connection points: 2
#     Edge 23, Type (0, 0), BuildingBlock: ZUJKAS_clean_linker_0, # of connection points: 2
#     Edge 24, Type (0, 0), BuildingBlock: ZUJKAS_clean_linker_0, # of connection points: 2
#     Edge 25, Type (0, 0), BuildingBlock: ZUJKAS_clean_linker_0, # of connection points: 2
#     Edge 26, Type (0, 0), BuildingBlock: ZUJKAS_clean_linker_0, # of connection points: 2
#     Edge 27, Type (0, 0), BuildingBlock: ZUJKAS_clean_linker_0, # of connection points: 2
#     Edge 28, Type (0, 0), BuildingBlock: ZUJKAS_clean_linker_0, # of connection points: 2
#     Edge 29, Type (0, 0), BuildingBlock: ZUJKAS_clean_linker_0, # of connection points: 2
#     Edge 30, Type (0, 0), BuildingBlock: ZUJKAS_clean_linker_0, # of connection points: 2
#     Edge 31, Type (0, 0), BuildingBlock: ZUJKAS_clean_linker_0, # of connection points: 2
#     Edge 32, Type (0, 0), BuildingBlock: ZUJKAS_clean_linker_0, # of connection points: 2
#     Edge 33, Type (0, 0), BuildingBlock: ZUJKAS_clean_linker_0, # of connection points: 2
#     Edge 34, Type (0, 0), BuildingBlock: ZUJKAS_clean_linker_0, # of connection points: 2
#     Edge 35, Type (0, 0), BuildingBlock: ZUJKAS_clean_linker_0, # of connection points: 2
#     Edge 36, Type (0, 0), BuildingBlock: ZUJKAS_clean_linker_0, # of connection points: 2
#     Edge 37, Type (0, 0), BuildingBlock: ZUJKAS_clean_linker_0, # of connection points: 2
#     Edge 38, Type (0, 0), BuildingBlock: ZUJKAS_clean_linker_0, # of connection points: 2
#     Edge 39, Type (0, 0), BuildingBlock: ZUJKAS_clean_linker_0, # of connection points: 2
#     Edge 40, Type (0, 0), BuildingBlock: ZUJKAS_clean_linker_0, # of connection points: 2
#     Edge 41, Type (0, 0), BuildingBlock: ZUJKAS_clean_linker_0, # of connection points: 2
#     Edge 42, Type (0, 0), BuildingBlock: ZUJKAS_clean_linker_0, # of connection points: 2
#     Edge 43, Type (0, 0), BuildingBlock: ZUJKAS_clean_linker_0, # of connection points: 2
#     Edge 44, Type (0, 0), BuildingBlock: ZUJKAS_clean_linker_0, # of connection points: 2
#     Edge 45, Type (0, 0), BuildingBlock: ZUJKAS_clean_linker_0, # of connection points: 2
#     Edge 46, Type (0, 0), BuildingBlock: ZUJKAS_clean_linker_0, # of connection points: 2
#     Edge 47, Type (0, 0), BuildingBlock: ZUJKAS_clean_linker_0, # of connection points: 2
# Relax obj value: 0.227
# Max RMSD: 0.128
# Mean RMSD: 0.128
data_MOF--net-upb--node1-QUQFOY_clean_sbu_1--edge1-ZUJKAS_clean_linker_0
_symmetry_space_group_name_H-M    P1
_symmetry_Int_Tables_number       1
_symmetry_cell_setting            triclinic
loop_
_symmetry_equiv_pos_as_xyz
'x, y, z'
_cell_length_a     57.959288
_cell_length_b     57.96789
_cell_length_c     54.376644
_cell_angle_alpha  90.007056
_cell_angle_beta   89.994966
_cell_angle_gamma 89.995043
loop_
_atom_site_label
_atom_site_type_symbol
_atom_site_fract_x
_atom_site_fract_y
_atom_site_fract_z
_atom_type_partial_charge
O0 O 0.07067 0.21211 0.29018 0.0
Cd1 Cd 0.04626 0.23797 0.29082 0.0
Cd2 Cd 0.04394 0.22781 0.33977 0.0
O3 O 0.07295 0.20885 0.3305 0.0
O4 O 0.05421 0.26069 0.26473 0.0
O5 O 0.05619 0.26839 0.30464 0.0
C6 C 0.05955 0.27488 0.28215 0.0
C7 C 0.04159 0.24281 0.37981 0.0
C8 C 0.08004 0.20337 0.30914 0.0
C9 C 0.00193 0.21848 0.30716 0.0
O10 O 0.01228 0.21622 0.32762 0.0
O11 O 0.01199 0.22821 0.28916 0.0
O12 O 0.04137 0.221 0.37556 0.0
O13 O 0.0441 0.25648 0.36127 0.0
O14 O 0.79016 0.0696 0.29193 0.0
Cd15 Cd 0.76385 0.04568 0.2931 0.0
Cd16 Cd 0.77566 0.04222 0.34141 0.0
O17 O 0.79491 0.07103 0.33213 0.0
O18 O 0.74093 0.05405 0.26734 0.0
O19 O 0.73373 0.05613 0.30733 0.0
C20 C 0.727 0.05954 0.28494 0.0
C21 C 0.76043 0.03982 0.3813 0.0
C22 C 0.79977 0.07842 0.31071 0.0
C23 C 0.78313 1.00065 0.30798 0.0
O24 O 0.78648 0.01054 0.32854 0.0
O25 O 0.77285 0.01125 0.2907 0.0
O26 O 0.78228 0.03929 0.37721 0.0
O27 O 0.7469 0.04265 0.36268 0.0
O28 O 0.9312 0.79064 0.29038 0.0
Cd29 Cd 0.95597 0.76517 0.29215 0.0
Cd30 Cd 0.95739 0.77668 0.34053 0.0
O31 O 0.92795 0.79463 0.33055 0.0
O32 O 0.94863 0.74178 0.26651 0.0
O33 O 0.94612 0.73496 0.30656 0.0
C34 C 0.94312 0.72794 0.28419 0.0
C35 C 0.95977 0.76153 0.38046 0.0
C36 C 0.9212 0.79951 0.3089 0.0
C37 C 0.99967 0.786 0.30849 0.0
O38 O 0.98888 0.78891 0.32861 0.0
O39 O 0.99015 0.7753 0.29079 0.0
O40 O 0.95935 0.78338 0.37639 0.0
O41 O 0.9578 0.74791 0.3618 0.0
O42 O 0.21288 0.93268 0.29179 0.0
Cd43 Cd 0.23912 0.95667 0.29239 0.0
Cd44 Cd 0.22873 0.95915 0.34151 0.0
O45 O 0.20933 0.93048 0.3321 0.0
O46 O 0.2608 0.94908 0.2652 0.0
O47 O 0.26991 0.94589 0.30466 0.0
C48 C 0.27555 0.9431 0.28183 0.0
C49 C 0.24352 0.96135 0.38166 0.0
C50 C 0.20384 0.9235 0.3107 0.0
C51 C 0.22005 0.00124 0.30891 0.0
O52 O 0.21759 0.99096 0.32937 0.0
O53 O 0.22974 0.99106 0.29096 0.0
O54 O 0.22173 0.96179 0.37725 0.0
O55 O 0.25727 0.95865 0.36321 0.0
O56 O 0.06892 0.79019 0.71153 0.0
Cd57 Cd 0.04521 0.76369 0.71109 0.0
Cd58 Cd 0.0416 0.77482 0.66193 0.0
O59 O 0.07005 0.79457 0.67126 0.0
O60 O 0.05326 0.74226 0.73834 0.0
O61 O 0.05619 0.73292 0.69893 0.0
C62 C 0.05919 0.72743 0.72177 0.0
C63 C 0.03937 0.76063 0.62155 0.0
C64 C 0.07752 0.7997 0.69257 0.0
C65 C 0.99985 0.7819 0.69546 0.0
O66 O 0.00964 0.78484 0.67478 0.0
O67 O 0.01069 0.77243 0.71309 0.0
O68 O 0.03835 0.78232 0.62637 0.0
O69 O 0.04261 0.74666 0.63971 0.0
O70 O 0.21202 0.07009 0.71203 0.0
Cd71 Cd 0.23798 0.04579 0.71121 0.0
Cd72 Cd 0.22763 0.04377 0.66223 0.0
O73 O 0.20871 0.07274 0.67173 0.0
O74 O 0.2599 0.05308 0.73827 0.0
O75 O 0.26877 0.05633 0.69875 0.0
C76 C 0.27458 0.05902 0.72155 0.0
C77 C 0.24281 0.04154 0.62226 0.0
C78 C 0.20323 0.07961 0.69318 0.0
C79 C 0.21832 0.00159 0.69443 0.0
O80 O 0.21587 0.0121 0.6741 0.0
O81 O 0.22828 0.01147 0.7124 0.0
O82 O 0.22097 0.04147 0.62639 0.0
O83 O 0.2564 0.0439 0.64089 0.0
O84 O 0.93198 0.21217 0.70978 0.0
Cd85 Cd 0.95613 0.23827 0.70944 0.0
Cd86 Cd 0.95912 0.2281 0.66054 0.0
O87 O 0.93024 0.2088 0.66944 0.0
O88 O 0.94772 0.26092 0.73545 0.0
O89 O 0.94608 0.26862 0.69553 0.0
C90 C 0.94245 0.27508 0.71798 0.0
C91 C 0.96175 0.24301 0.62049 0.0
C92 C 0.92297 0.20327 0.69071 0.0
C93 C 1.0008 0.21908 0.69372 0.0
O94 O 0.99074 0.21678 0.6731 0.0
O95 O 0.99044 0.22872 0.71158 0.0
O96 O 0.96213 0.22122 0.62481 0.0
O97 O 0.95893 0.25671 0.63896 0.0
O98 O 0.79011 0.93074 0.71014 0.0
Cd99 Cd 0.76461 0.95547 0.70812 0.0
Cd100 Cd 0.77633 0.95643 0.65972 0.0
O101 O 0.79447 0.92722 0.67004 0.0
O102 O 0.74224 0.94909 0.73502 0.0
O103 O 0.73381 0.94516 0.69547 0.0
C104 C 0.72768 0.94303 0.71824 0.0
C105 C 0.76043 0.9582 0.62012 0.0
C106 C 0.79921 0.92066 0.69179 0.0
C107 C 0.78556 0.99903 0.69106 0.0
O108 O 0.78863 0.98806 0.67108 0.0
O109 O 0.77475 0.98966 0.70878 0.0
O110 O 0.78236 0.95781 0.62369 0.0
O111 O 0.74717 0.95657 0.63912 0.0
O112 O 0.56903 0.71194 0.78954 0.0
Cd113 Cd 0.54545 0.73856 0.79 0.0
Cd114 Cd 0.54031 0.72644 0.83852 0.0
O115 O 0.56881 0.70653 0.82967 0.0
O116 O 0.55477 0.76104 0.76419 0.0
O117 O 0.55587 0.76875 0.80411 0.0
C118 C 0.55992 0.77516 0.78173 0.0
C119 C 0.53761 0.74055 0.87888 0.0
C120 C 0.57693 0.70187 0.80851 0.0
C121 C 0.4995 0.72042 0.80352 0.0
O122 O 0.50859 0.71699 0.82448 0.0
O123 O 0.51098 0.73012 0.7865 0.0
O124 O 0.53629 0.71889 0.874 0.0
O125 O 0.54126 0.75452 0.86081 0.0
O126 O 0.29039 0.5731 0.78865 0.0
Cd127 Cd 0.26517 0.54803 0.79287 0.0
Cd128 Cd 0.2807 0.54786 0.83864 0.0
O129 O 0.29473 0.57903 0.82837 0.0
O130 O 0.24098 0.55414 0.7677 0.0
O131 O 0.23531 0.5584 0.80777 0.0
C132 C 0.22763 0.56037 0.78553 0.0
C133 C 0.26526 0.5432 0.87813 0.0
C134 C 0.2989 0.58477 0.80625 0.0
C135 C 0.29046 0.50634 0.80714 0.0
O136 O 0.29655 0.51856 0.82541 0.0
O137 O 0.27523 0.5137 0.79227 0.0
O138 O 0.28702 0.5461 0.87457 0.0
O139 O 0.25184 0.54387 0.85918 0.0
O140 O 0.43279 0.29044 0.79133 0.0
Cd141 Cd 0.45631 0.26385 0.79329 0.0
Cd142 Cd 0.4563 0.2741 0.84154 0.0
O143 O 0.42623 0.29097 0.83127 0.0
O144 O 0.44878 0.24063 0.76755 0.0
O145 O 0.44518 0.23406 0.80757 0.0
C146 C 0.44253 0.22701 0.78516 0.0
C147 C 0.45887 0.25882 0.88141 0.0
C148 C 0.42124 0.29765 0.80963 0.0
C149 C 0.49929 0.28433 0.81082 0.0
O150 O 0.48764 0.28762 0.83032 0.0
O151 O 0.49067 0.27295 0.79309 0.0
O152 O 0.45756 0.28065 0.87747 0.0
O153 O 0.45761 0.24524 0.86264 0.0
O154 O 0.71196 0.43181 0.79314 0.0
Cd155 Cd 0.73798 0.45608 0.79306 0.0
Cd156 Cd 0.72796 0.45921 0.84224 0.0
O157 O 0.70858 0.43037 0.8335 0.0
O158 O 0.75951 0.44828 0.76579 0.0
O159 O 0.769 0.44589 0.80521 0.0
C160 C 0.77449 0.4428 0.78238 0.0
C161 C 0.74297 0.46189 0.88226 0.0
C162 C 0.70304 0.42295 0.81228 0.0
C163 C 0.71871 0.50077 0.80903 0.0
O164 O 0.71655 0.49078 0.82971 0.0
O165 O 0.72826 0.49037 0.79114 0.0
O166 O 0.72117 0.4623 0.87798 0.0
O167 O 0.75663 0.45902 0.86376 0.0
O168 O 0.57065 0.29053 0.21109 0.0
Cd169 Cd 0.54644 0.26449 0.2104 0.0
Cd170 Cd 0.54432 0.27485 0.16131 0.0
O171 O 0.57325 0.29383 0.17079 0.0
O172 O 0.55377 0.24273 0.23759 0.0
O173 O 0.55702 0.23365 0.19812 0.0
C174 C 0.5597 0.22796 0.22095 0.0
C175 C 0.54197 0.26 0.12119 0.0
C176 C 0.58011 0.29934 0.19222 0.0
C177 C 0.50217 0.28402 0.19371 0.0
O178 O 0.51264 0.28647 0.17334 0.0
O179 O 0.51212 0.27412 0.21167 0.0
O180 O 0.54182 0.28179 0.12554 0.0
O181 O 0.54448 0.24626 0.13968 0.0
O182 O 0.71263 0.57067 0.21241 0.0
Cd183 Cd 0.7387 0.54646 0.2118 0.0
Cd184 Cd 0.72864 0.54428 0.16273 0.0
O185 O 0.70948 0.57312 0.17209 0.0
O186 O 0.76065 0.55391 0.23878 0.0
O187 O 0.76949 0.55687 0.19922 0.0
C188 C 0.77534 0.55966 0.22199 0.0
C189 C 0.74373 0.54211 0.12271 0.0
C190 C 0.70386 0.58004 0.19347 0.0
C191 C 0.71939 0.50212 0.19502 0.0
O192 O 0.71708 0.51254 0.17461 0.0
O193 O 0.72909 0.51213 0.21307 0.0
O194 O 0.7219 0.54189 0.12692 0.0
O195 O 0.75736 0.54457 0.1413 0.0
O196 O 0.4308 0.71201 0.21034 0.0
Cd197 Cd 0.45545 0.73759 0.20854 0.0
Cd198 Cd 0.45738 0.72554 0.16016 0.0
O199 O 0.42819 0.70722 0.17021 0.0
O200 O 0.44816 0.76078 0.2344 0.0
O201 O 0.44546 0.7679 0.19444 0.0
C202 C 0.44258 0.77476 0.21688 0.0
C203 C 0.4595 0.74064 0.1202 0.0
C204 C 0.4212 0.70265 0.19185 0.0
C205 C 0.4995 0.71694 0.19256 0.0
O206 O 0.48897 0.71381 0.17233 0.0
O207 O 0.48968 0.72761 0.2101 0.0
O208 O 0.45938 0.71879 0.1243 0.0
O209 O 0.45747 0.75427 0.13885 0.0
O210 O 0.29016 0.43255 0.20962 0.0
Cd211 Cd 0.26389 0.45652 0.20864 0.0
Cd212 Cd 0.27585 0.46003 0.15973 0.0
O213 O 0.2954 0.43157 0.16947 0.0
O214 O 0.24191 0.44868 0.23547 0.0
O215 O 0.23323 0.44586 0.19588 0.0
C216 C 0.22731 0.44292 0.21861 0.0
C217 C 0.26229 0.46206 0.1191 0.0
C218 C 0.30003 0.42399 0.19086 0.0
C219 C 0.28261 0.50178 0.1933 0.0
O220 O 0.28575 0.49199 0.17265 0.0
O221 O 0.27289 0.49097 0.2108 0.0
O222 O 0.2839 0.46314 0.12429 0.0
O223 O 0.24804 0.45892 0.13703 0.0
H224 H 0.10217 0.17977 0.34568 0.0
H225 H 0.12931 0.14784 0.34129 0.0
H226 H 0.1262 0.15428 0.26239 0.0
H227 H 0.09899 0.1864 0.26652 0.0
H228 H 0.11713 0.10648 0.31397 0.0
H229 H 0.19688 0.14881 0.27884 0.0
H230 H 0.17481 0.16457 0.29525 0.0
H231 H 0.17 0.15588 0.26403 0.0
C232 C 0.10746 0.17468 0.32737 0.0
C233 C 0.09829 0.18561 0.30645 0.0
C234 C 0.123 0.15642 0.32491 0.0
C235 C 0.12985 0.14883 0.30154 0.0
C236 C 0.12136 0.16011 0.2806 0.0
H237 H 0.2121 0.02549 0.26618 0.0
H238 H 0.19101 0.06209 0.26207 0.0
C239 C 0.10572 0.17838 0.28302 0.0
C240 C 0.14422 0.12782 0.29931 0.0
H241 H 0.19798 0.10834 0.28392 0.0
C242 C 0.13478 0.10687 0.30731 0.0
C243 C 0.1671 0.12839 0.2903 0.0
C244 C 0.17798 0.15059 0.2817 0.0
C245 C 0.14774 0.08648 0.30702 0.0
C246 C 0.17095 0.08716 0.29899 0.0
C247 C 0.18021 0.10795 0.29017 0.0
C248 C 0.186 0.06663 0.30119 0.0
C249 C 0.13651 0.06436 0.31546 0.0
C250 C 0.19082 0.05762 0.32454 0.0
C251 C 0.20269 0.03683 0.32695 0.0
C252 C 0.21018 0.02467 0.30603 0.0
C253 C 0.20651 0.03441 0.28264 0.0
C254 C 0.19447 0.05528 0.28025 0.0
H255 H 0.11739 0.06542 0.31452 0.0
H256 H 0.14234 0.0495 0.30415 0.0
H257 H 0.14139 0.06098 0.33486 0.0
H258 H 0.18477 0.06635 0.34094 0.0
H259 H 0.20547 0.03001 0.34525 0.0
H260 H 0.97707 0.21125 0.26467 0.0
H261 H 0.94035 0.1904 0.26071 0.0
H262 H 0.93749 0.18222 0.33946 0.0
H263 H 0.97394 0.20268 0.3436 0.0
H264 H 0.93398 0.14062 0.31193 0.0
H265 H 0.87261 0.20787 0.27914 0.0
H266 H 0.89964 0.20519 0.26308 0.0
H267 H 0.89938 0.21505 0.29434 0.0
C268 C 0.96839 0.20535 0.28115 0.0
C269 C 0.97854 0.20848 0.30443 0.0
C270 C 0.94739 0.19352 0.27886 0.0
C271 C 0.93619 0.18486 0.29982 0.0
C272 C 0.94587 0.18876 0.32306 0.0
H273 H 0.82424 0.10027 0.34681 0.0
H274 H 0.85656 0.12685 0.34181 0.0
C275 C 0.96676 0.20045 0.32537 0.0
C276 C 0.9155 0.16999 0.29782 0.0
H277 H 0.85783 0.17024 0.28472 0.0
C278 C 0.91736 0.14707 0.30585 0.0
C279 C 0.89392 0.17842 0.28966 0.0
C280 C 0.89105 0.20301 0.28117 0.0
C281 C 0.89812 0.13246 0.30651 0.0
C282 C 0.87635 0.14112 0.29931 0.0
C283 C 0.87456 0.16377 0.29039 0.0
C284 C 0.85524 0.12698 0.30206 0.0
C285 C 0.9012 0.1079 0.31511 0.0
C286 C 0.84332 0.1189 0.28135 0.0
C287 C 0.82477 0.10365 0.28412 0.0
C288 C 0.81781 0.09634 0.30768 0.0
C289 C 0.82921 0.10537 0.32839 0.0
C290 C 0.84772 0.12054 0.32559 0.0
H291 H 0.91953 0.10235 0.31412 0.0
H292 H 0.89551 0.1065 0.33454 0.0
H293 H 0.89059 0.09587 0.30394 0.0
H294 H 0.84886 0.12377 0.26304 0.0
H295 H 0.81631 0.09712 0.26778 0.0
H296 H 0.80027 0.97162 0.34287 0.0
H297 H 0.81838 0.93412 0.33684 0.0
H298 H 0.80492 0.93823 0.25899 0.0
H299 H 0.78674 0.97612 0.2648 0.0
H300 H 0.80076 0.89223 0.31464 0.0
H301 H 0.87619 0.92955 0.26499 0.0
H302 H 0.85674 0.94718 0.28286 0.0
H303 H 0.84786 0.93624 0.25349 0.0
C304 C 0.80099 0.96457 0.32443 0.0
C305 C 0.79223 0.977 0.30426 0.0
C306 C 0.81129 0.94307 0.32106 0.0
C307 C 0.81321 0.93355 0.29747 0.0
C308 C 0.80383 0.94545 0.27732 0.0
H309 H 0.90307 0.81526 0.26542 0.0
H310 H 0.87396 0.84541 0.2598 0.0
C311 C 0.79337 0.96703 0.28069 0.0
C312 C 0.826 0.91164 0.29426 0.0
H313 H 0.87772 0.89022 0.27477 0.0
C314 C 0.81745 0.89166 0.30562 0.0
C315 C 0.84771 0.91097 0.2824 0.0
C316 C 0.85786 0.9321 0.27032 0.0
C317 C 0.83037 0.87118 0.30611 0.0
C318 C 0.85262 0.87087 0.29543 0.0
C319 C 0.86068 0.89052 0.28302 0.0
C320 C 0.86863 0.85113 0.2987 0.0
C321 C 0.82017 0.85017 0.31834 0.0
C322 C 0.87531 0.84434 0.32243 0.0
C323 C 0.89189 0.82714 0.32572 0.0
C324 C 0.90234 0.81648 0.30532 0.0
C325 C 0.89536 0.82307 0.28154 0.0
C326 C 0.87872 0.8403 0.27827 0.0
H327 H 0.80101 0.85067 0.31799 0.0
H328 H 0.82606 0.83403 0.3093 0.0
H329 H 0.82566 0.84973 0.33788 0.0
H330 H 0.8682 0.85285 0.33847 0.0
H331 H 0.89691 0.82261 0.34429 0.0
H332 H 0.02543 0.79155 0.26632 0.0
H333 H 0.06232 0.81207 0.2623 0.0
H334 H 0.06333 0.82383 0.3406 0.0
H335 H 0.02666 0.80377 0.34477 0.0
H336 H 0.06868 0.86385 0.31214 0.0
H337 H 0.12898 0.79439 0.28254 0.0
H338 H 0.10265 0.79739 0.26531 0.0
H339 H 0.1015 0.78826 0.29681 0.0
C340 C 0.03371 0.79822 0.2827 0.0
C341 C 0.02301 0.79615 0.30584 0.0
C342 C 0.05482 0.80985 0.28038 0.0
C343 C 0.06559 0.81936 0.30118 0.0
C344 C 0.05529 0.81663 0.32432 0.0
H345 H 0.17953 0.90185 0.34707 0.0
H346 H 0.14678 0.87572 0.34241 0.0
C347 C 0.03428 0.80516 0.32664 0.0
C348 C 0.08664 0.83373 0.29904 0.0
H349 H 0.14442 0.83195 0.28656 0.0
C350 C 0.08521 0.85689 0.30642 0.0
C351 C 0.10813 0.82464 0.29139 0.0
C352 C 0.11061 0.79977 0.28369 0.0
C353 C 0.10477 0.87108 0.30691 0.0
C354 C 0.12639 0.8618 0.30013 0.0
C355 C 0.12778 0.8389 0.29188 0.0
C356 C 0.14776 0.87556 0.30266 0.0
C357 C 0.1022 0.89588 0.31491 0.0
C358 C 0.15956 0.88351 0.28181 0.0
C359 C 0.17833 0.89852 0.28438 0.0
C360 C 0.18563 0.90571 0.30787 0.0
C361 C 0.17433 0.8968 0.32871 0.0
C362 C 0.15559 0.88189 0.3261 0.0
H363 H 0.08396 0.90173 0.31405 0.0
H364 H 0.10822 0.89764 0.33419 0.0
H365 H 0.11288 0.90743 0.30325 0.0
H366 H 0.15376 0.87873 0.26357 0.0
H367 H 0.1867 0.90497 0.26795 0.0
H368 H 0.09654 0.81664 0.73518 0.0
H369 H 0.12325 0.8492 0.73937 0.0
H370 H 0.12556 0.85637 0.66052 0.0
H371 H 0.0989 0.82405 0.65606 0.0
H372 H 0.16944 0.85778 0.71734 0.0
H373 H 0.10181 0.91967 0.68772 0.0
H374 H 0.0952 0.89083 0.69813 0.0
H375 H 0.10574 0.8955 0.66745 0.0
C376 C 0.10289 0.82499 0.71871 0.0
C377 C 0.09536 0.81787 0.69528 0.0
C378 C 0.11818 0.84355 0.72116 0.0
C379 C 0.12608 0.85532 0.70027 0.0
C380 C 0.11939 0.84766 0.67688 0.0
H381 H 0.20208 0.97386 0.65798 0.0
H382 H 0.18147 0.93748 0.66212 0.0
C383 C 0.10417 0.82915 0.67438 0.0
C384 C 0.14037 0.87636 0.70271 0.0
H385 H 0.14017 0.9339 0.68964 0.0
C386 C 0.16305 0.8745 0.71155 0.0
C387 C 0.13183 0.89813 0.69535 0.0
C388 C 0.10724 0.9013 0.68684 0.0
C389 C 0.17782 0.89377 0.71206 0.0
C390 C 0.16949 0.91535 0.70379 0.0
C391 C 0.14655 0.91728 0.69581 0.0
C392 C 0.18444 0.93598 0.70173 0.0
C393 C 0.20243 0.89079 0.72048 0.0
C394 C 0.19334 0.94704 0.72266 0.0
C395 C 0.20526 0.96799 0.72037 0.0
C396 C 0.20825 0.97822 0.69712 0.0
C397 C 0.19997 0.96659 0.67619 0.0
C398 C 0.18819 0.94575 0.6785 0.0
H399 H 0.20725 0.87232 0.72233 0.0
H400 H 0.21448 0.8992 0.70737 0.0
H401 H 0.20465 0.89921 0.73865 0.0
H402 H 0.19034 0.93994 0.7408 0.0
H403 H 0.21135 0.97655 0.73684 0.0
H404 H 0.17915 0.10167 0.65693 0.0
H405 H 0.14707 0.12857 0.66173 0.0
H406 H 0.15427 0.12537 0.74055 0.0
H407 H 0.18653 0.09837 0.73601 0.0
H408 H 0.10596 0.11595 0.68993 0.0
H409 H 0.14832 0.19618 0.72378 0.0
H410 H 0.16394 0.17428 0.70696 0.0
H411 H 0.15591 0.16932 0.73835 0.0
C412 C 0.17419 0.10689 0.67531 0.0
C413 C 0.18538 0.09775 0.6961 0.0
C414 C 0.15584 0.12229 0.678 0.0
C415 C 0.14843 0.12904 0.70146 0.0
C416 C 0.15996 0.12059 0.72227 0.0
H417 H 0.02482 0.21129 0.73666 0.0
H418 H 0.06137 0.19016 0.74111 0.0
C419 C 0.17832 0.10508 0.71962 0.0
C420 C 0.12736 0.14329 0.70395 0.0
H421 H 0.10784 0.19714 0.71886 0.0
C422 C 0.10635 0.13366 0.69638 0.0
C423 C 0.12794 0.16626 0.71267 0.0
C424 C 0.1502 0.17731 0.72083 0.0
C425 C 0.08591 0.14655 0.69675 0.0
C426 C 0.0866 0.16985 0.70444 0.0
C427 C 0.10745 0.17929 0.71288 0.0
C428 C 0.06605 0.18485 0.70206 0.0
C429 C 0.06374 0.13517 0.6887 0.0
C430 C 0.05712 0.18949 0.67863 0.0
C431 C 0.03638 0.20139 0.67603 0.0
C432 C 0.02415 0.20908 0.69683 0.0
C433 C 0.03378 0.20554 0.72029 0.0
C434 C 0.05463 0.19349 0.72288 0.0
H435 H 0.06487 0.11606 0.68984 0.0
H436 H 0.04898 0.14108 0.7001 0.0
H437 H 0.06016 0.13985 0.66928 0.0
H438 H 0.06591 0.18329 0.66233 0.0
H439 H 0.02965 0.20405 0.65766 0.0
H440 H 0.90397 0.18587 0.73311 0.0
H441 H 0.87757 0.15301 0.7369 0.0
H442 H 0.87521 0.14672 0.65797 0.0
H443 H 0.9015 0.17941 0.65389 0.0
H444 H 0.83084 0.14396 0.71302 0.0
H445 H 0.90107 0.08367 0.68632 0.0
H446 H 0.90662 0.11247 0.69754 0.0
H447 H 0.89728 0.10812 0.66639 0.0
C448 C 0.89762 0.17768 0.71654 0.0
C449 C 0.90506 0.18515 0.69319 0.0
C450 C 0.88251 0.15896 0.71877 0.0
C451 C 0.87471 0.14736 0.69773 0.0
C452 C 0.88126 0.15537 0.67442 0.0
H453 H 0.80388 0.02568 0.65479 0.0
H454 H 0.82376 0.06247 0.65893 0.0
C455 C 0.89627 0.17407 0.67215 0.0
C456 C 0.86091 0.126 0.69991 0.0
H457 H 0.86323 0.06833 0.6878 0.0
C458 C 0.83789 0.12734 0.70777 0.0
C459 C 0.87031 0.10441 0.69319 0.0
C460 C 0.89523 0.10191 0.68557 0.0
C461 C 0.82366 0.10767 0.70798 0.0
C462 C 0.8329 0.08621 0.70045 0.0
C463 C 0.85615 0.08484 0.69342 0.0
C464 C 0.81864 0.0651 0.69823 0.0
C465 C 0.79867 0.11012 0.71527 0.0
C466 C 0.80883 0.05448 0.71896 0.0
C467 C 0.79731 0.03333 0.71666 0.0
C468 C 0.79564 0.0224 0.69361 0.0
C469 C 0.80495 0.03349 0.67285 0.0
C470 C 0.81632 0.05456 0.67516 0.0
H471 H 0.7932 0.12847 0.7161 0.0
H472 H 0.78736 0.10081 0.70211 0.0
H473 H 0.79609 0.10237 0.73373 0.0
H474 H 0.81074 0.06216 0.73701 0.0
H475 H 0.7904 0.02519 0.73301 0.0
H476 H 0.8136 0.90196 0.73554 0.0
H477 H 0.84401 0.87326 0.74185 0.0
H478 H 0.85432 0.86882 0.66346 0.0
H479 H 0.82377 0.89715 0.65691 0.0
H480 H 0.85461 0.82574 0.68716 0.0
H481 H 0.91257 0.88866 0.73374 0.0
H482 H 0.88447 0.88505 0.74714 0.0
H483 H 0.88718 0.89754 0.71705 0.0
C484 C 0.82221 0.89477 0.71962 0.0
C485 C 0.81636 0.90203 0.69571 0.0
C486 C 0.83967 0.87844 0.72329 0.0
C487 C 0.85167 0.86922 0.70315 0.0
C488 C 0.84532 0.8758 0.67927 0.0
H489 H 0.96981 0.79557 0.65985 0.0
H490 H 0.93212 0.81343 0.6651 0.0
C491 C 0.82786 0.89205 0.67557 0.0
C492 C 0.87144 0.85332 0.70671 0.0
H493 H 0.92702 0.85131 0.72744 0.0
C494 C 0.87036 0.83122 0.6962 0.0
C495 C 0.89193 0.86048 0.71865 0.0
C496 C 0.89431 0.88426 0.72966 0.0
C497 C 0.88947 0.81635 0.69665 0.0
C498 C 0.91027 0.82392 0.70759 0.0
C499 C 0.91102 0.84556 0.71913 0.0
C500 C 0.93212 0.81091 0.7048 0.0
C501 C 0.88737 0.79282 0.68502 0.0
C502 C 0.94477 0.80367 0.72543 0.0
C503 C 0.96649 0.7934 0.7225 0.0
C504 C 0.97602 0.79058 0.69888 0.0
C505 C 0.96303 0.79748 0.6783 0.0
C506 C 0.94136 0.80754 0.68124 0.0
H507 H 0.86915 0.78688 0.68467 0.0
H508 H 0.89358 0.7937 0.66574 0.0
H509 H 0.89794 0.77987 0.695 0.0
H510 H 0.93801 0.80633 0.74378 0.0
H511 H 0.9761 0.78837 0.73871 0.0
H512 H 0.59672 0.68537 0.76611 0.0
H513 H 0.62349 0.65283 0.76207 0.0
H514 H 0.62427 0.64477 0.84087 0.0
H515 H 0.59752 0.67703 0.84515 0.0
H516 H 0.66898 0.64405 0.78423 0.0
H517 H 0.60163 0.58168 0.81322 0.0
H518 H 0.59491 0.61061 0.8032 0.0
H519 H 0.60531 0.60558 0.83388 0.0
C520 C 0.60274 0.6768 0.7826 0.0
C521 C 0.59475 0.68367 0.80595 0.0
C522 C 0.61806 0.65825 0.78024 0.0
C523 C 0.62554 0.64623 0.80114 0.0
C524 C 0.61839 0.65364 0.82449 0.0
H525 H 0.70289 0.52935 0.84496 0.0
H526 H 0.68206 0.56553 0.84011 0.0
C527 C 0.60313 0.67213 0.82689 0.0
C528 C 0.63998 0.62528 0.79876 0.0
H529 H 0.64022 0.56779 0.81209 0.0
C530 C 0.66269 0.62729 0.79003 0.0
C531 C 0.63157 0.60345 0.80611 0.0
C532 C 0.60695 0.60006 0.81441 0.0
C533 C 0.67762 0.60814 0.78968 0.0
C534 C 0.66944 0.58655 0.79804 0.0
C535 C 0.64647 0.58443 0.80586 0.0
C536 C 0.6846 0.56611 0.80045 0.0
C537 C 0.70224 0.61124 0.78135 0.0
C538 C 0.69334 0.55462 0.7797 0.0
C539 C 0.70537 0.53378 0.78239 0.0
C540 C 0.70864 0.52409 0.80587 0.0
C541 C 0.70057 0.53619 0.82659 0.0
C542 C 0.68866 0.55692 0.82388 0.0
H543 H 0.7068 0.62972 0.77888 0.0
H544 H 0.71429 0.60343 0.79486 0.0
H545 H 0.70475 0.60227 0.76352 0.0
H546 H 0.69011 0.56131 0.76142 0.0
H547 H 0.7113 0.52486 0.76607 0.0
H548 H 0.46851 0.7054 0.83758 0.0
H549 H 0.43072 0.68826 0.8304 0.0
H550 H 0.43846 0.69909 0.7524 0.0
H551 H 0.47662 0.71632 0.75938 0.0
H552 H 0.39009 0.70644 0.80486 0.0
H553 H 0.42799 0.62801 0.76128 0.0
H554 H 0.44518 0.6476 0.77945 0.0
H555 H 0.43604 0.65577 0.74917 0.0
C556 C 0.46219 0.70433 0.81886 0.0
C557 C 0.47571 0.71204 0.79902 0.0
C558 C 0.44052 0.6946 0.81483 0.0
C559 C 0.43193 0.69222 0.79088 0.0
C560 C 0.44493 0.70059 0.77101 0.0
H561 H 0.31463 0.60012 0.7615 0.0
H562 H 0.3442 0.62948 0.75391 0.0
C563 C 0.46667 0.71049 0.77505 0.0
C564 C 0.40989 0.67981 0.78708 0.0
H565 H 0.38847 0.62735 0.77006 0.0
C566 C 0.3896 0.6893 0.79687 0.0
C567 C 0.40932 0.65752 0.77653 0.0
C568 C 0.43075 0.64644 0.76607 0.0
C569 C 0.36892 0.6767 0.79728 0.0
C570 C 0.36871 0.65383 0.78817 0.0
C571 C 0.38868 0.64486 0.7771 0.0
C572 C 0.34891 0.63808 0.7923 0.0
C573 C 0.34762 0.68787 0.80788 0.0
C574 C 0.34167 0.63322 0.81638 0.0
C575 C 0.32483 0.61652 0.82079 0.0
C576 C 0.31498 0.60411 0.8012 0.0
C577 C 0.32183 0.60938 0.77701 0.0
C578 C 0.33872 0.62615 0.77262 0.0
H579 H 0.34822 0.70692 0.80574 0.0
H580 H 0.3317 0.68128 0.79897 0.0
H581 H 0.34668 0.68404 0.82785 0.0
H582 H 0.34968 0.64175 0.83191 0.0
H583 H 0.32006 0.61288 0.83965 0.0
H584 H 0.33451 0.49503 0.81809 0.0
H585 H 0.35299 0.45742 0.81478 0.0
H586 H 0.28975 0.42846 0.78634 0.0
H587 H 0.27157 0.4667 0.78829 0.0
H588 H 0.34349 0.42071 0.83864 0.0
H589 H 0.33411 0.40024 0.73954 0.0
H590 H 0.32794 0.42847 0.75181 0.0
H591 H 0.30708 0.4056 0.75455 0.0
C592 C 0.32465 0.48071 0.81078 0.0
C593 C 0.30164 0.48373 0.80342 0.0
C594 C 0.3352 0.45918 0.80893 0.0
C595 C 0.32288 0.44001 0.80015 0.0
C596 C 0.29986 0.44303 0.79258 0.0
H597 H 0.38322 0.30565 0.83809 0.0
H598 H 0.35599 0.33779 0.83468 0.0
C599 C 0.28942 0.46483 0.79384 0.0
C600 C 0.33402 0.41687 0.80056 0.0
H601 H 0.3486 0.37042 0.76512 0.0
C602 C 0.34462 0.40975 0.82251 0.0
C603 C 0.33561 0.40256 0.77951 0.0
C604 C 0.32578 0.40967 0.75496 0.0
C605 C 0.35736 0.38924 0.82388 0.0
C606 C 0.35857 0.37465 0.80301 0.0
C607 C 0.34749 0.38145 0.78119 0.0
C608 C 0.37266 0.35319 0.80301 0.0
C609 C 0.37033 0.38416 0.84737 0.0
C610 C 0.39002 0.35013 0.78528 0.0
C611 C 0.40508 0.33134 0.78671 0.0
C612 C 0.40329 0.31546 0.80613 0.0
C613 C 0.38521 0.31786 0.82315 0.0
C614 C 0.36977 0.33632 0.82133 0.0
H615 H 0.37301 0.39999 0.85853 0.0
H616 H 0.36019 0.37187 0.85868 0.0
H617 H 0.38746 0.37641 0.84349 0.0
H618 H 0.39255 0.36279 0.77087 0.0
H619 H 0.41885 0.32992 0.77331 0.0
H620 H 0.68629 0.40299 0.77009 0.0
H621 H 0.65349 0.37648 0.7664 0.0
H622 H 0.64584 0.3761 0.84523 0.0
H623 H 0.67848 0.40246 0.84921 0.0
H624 H 0.64435 0.33015 0.7922 0.0
H625 H 0.58313 0.40107 0.81412 0.0
H626 H 0.61206 0.40632 0.8031 0.0
H627 H 0.60735 0.39821 0.83457 0.0
C628 C 0.67782 0.39706 0.78668 0.0
C629 C 0.68491 0.40503 0.80995 0.0
C630 C 0.65912 0.38189 0.78451 0.0
C631 C 0.64719 0.37458 0.80553 0.0
C632 C 0.65478 0.38173 0.82879 0.0
H633 H 0.5242 0.30485 0.84721 0.0
H634 H 0.56088 0.32506 0.84364 0.0
C635 C 0.67346 0.39679 0.831 0.0
C636 C 0.62593 0.36063 0.80333 0.0
H637 H 0.56792 0.36318 0.81347 0.0
C638 C 0.62757 0.33732 0.79659 0.0
C639 C 0.60414 0.37019 0.80896 0.0
C640 C 0.60139 0.39537 0.81541 0.0
C641 C 0.60796 0.32301 0.79641 0.0
C642 C 0.58625 0.33246 0.80278 0.0
C643 C 0.58461 0.35596 0.80873 0.0
C644 C 0.56509 0.31821 0.80479 0.0
C645 C 0.61072 0.29777 0.79037 0.0
C646 C 0.55538 0.30738 0.78414 0.0
C647 C 0.5343 0.29566 0.78612 0.0
C648 C 0.52254 0.29481 0.80875 0.0
C649 C 0.53268 0.30524 0.82946 0.0
C650 C 0.55368 0.31681 0.82748 0.0
H651 H 0.62909 0.29231 0.79071 0.0
H652 H 0.60086 0.28695 0.80355 0.0
H653 H 0.60381 0.29445 0.77168 0.0
H654 H 0.56372 0.30858 0.76636 0.0
H655 H 0.52691 0.2879 0.76981 0.0
H656 H 0.71225 0.47711 0.23742 0.0
H657 H 0.69158 0.44029 0.24125 0.0
H658 H 0.68344 0.43759 0.16249 0.0
H659 H 0.70369 0.47417 0.15848 0.0
H660 H 0.642 0.43348 0.18943 0.0
H661 H 0.70947 0.37289 0.22324 0.0
H662 H 0.7063 0.39974 0.23952 0.0
H663 H 0.71652 0.39986 0.20838 0.0
C664 C 0.70639 0.46845 0.22091 0.0
C665 C 0.70948 0.47867 0.19766 0.0
C666 C 0.69467 0.44739 0.22313 0.0
C667 C 0.68608 0.43619 0.20213 0.0
C668 C 0.68992 0.44596 0.17892 0.0
H669 H 0.60277 0.32281 0.15591 0.0
H670 H 0.62931 0.35521 0.16058 0.0
C671 C 0.7015 0.46692 0.17669 0.0
C672 C 0.67137 0.41537 0.20408 0.0
H673 H 0.67188 0.35786 0.21794 0.0
C674 C 0.64851 0.41698 0.19577 0.0
C675 C 0.67988 0.39393 0.21257 0.0
C676 C 0.70442 0.39129 0.22132 0.0
C677 C 0.63405 0.39763 0.1952 0.0
C678 C 0.64276 0.37602 0.20282 0.0
C679 C 0.66536 0.37448 0.21197 0.0
C680 C 0.62874 0.35482 0.20034 0.0
C681 C 0.60954 0.40042 0.18628 0.0
C682 C 0.62027 0.34341 0.2212 0.0
C683 C 0.60503 0.32483 0.21863 0.0
C684 C 0.59812 0.31732 0.19511 0.0
C685 C 0.60756 0.32819 0.17428 0.0
C686 C 0.62272 0.34674 0.17689 0.0
H687 H 0.60392 0.41874 0.18669 0.0
H688 H 0.60832 0.39422 0.16702 0.0
H689 H 0.59747 0.39005 0.19765 0.0
H690 H 0.62481 0.34939 0.23945 0.0
H691 H 0.59817 0.31679 0.23505 0.0
H692 H 0.52473 0.71176 0.23514 0.0
H693 H 0.56169 0.69151 0.23983 0.0
H694 H 0.56392 0.67954 0.16159 0.0
H695 H 0.52717 0.69934 0.15676 0.0
H696 H 0.56898 0.63963 0.19029 0.0
H697 H 0.62859 0.70937 0.22069 0.0
H698 H 0.602 0.70633 0.23746 0.0
H699 H 0.60132 0.71537 0.20592 0.0
C700 C 0.53329 0.70512 0.21891 0.0
C701 C 0.52291 0.70703 0.1956 0.0
C702 C 0.55444 0.69364 0.22161 0.0
C703 C 0.56558 0.68414 0.20103 0.0
C704 C 0.5556 0.68674 0.17771 0.0
H705 H 0.68044 0.60237 0.15692 0.0
H706 H 0.64772 0.62857 0.16126 0.0
C707 C 0.53454 0.69806 0.17501 0.0
C708 C 0.58665 0.66985 0.20358 0.0
H709 H 0.64423 0.67186 0.21701 0.0
C710 C 0.5854 0.64666 0.19627 0.0
C711 C 0.60798 0.67903 0.21157 0.0
C712 C 0.61026 0.70392 0.21923 0.0
C713 C 0.60501 0.63254 0.19614 0.0
C714 C 0.6265 0.64191 0.20325 0.0
C715 C 0.62769 0.66484 0.21145 0.0
C716 C 0.64793 0.62822 0.20101 0.0
C717 C 0.60267 0.60772 0.18814 0.0
C718 C 0.6593 0.61996 0.222 0.0
C719 C 0.67805 0.60489 0.21962 0.0
C720 C 0.68576 0.59796 0.19618 0.0
C721 C 0.67492 0.60721 0.17524 0.0
C722 C 0.65619 0.62218 0.17766 0.0
H723 H 0.58443 0.60183 0.18856 0.0
H724 H 0.60911 0.60593 0.16901 0.0
H725 H 0.61312 0.59622 0.20008 0.0
H726 H 0.65315 0.62451 0.24018 0.0
H727 H 0.68605 0.59817 0.23613 0.0
H728 H 0.4018 0.68833 0.2353 0.0
H729 H 0.3731 0.65782 0.24116 0.0
H730 H 0.37015 0.64718 0.16274 0.0
H731 H 0.39846 0.67781 0.15663 0.0
H732 H 0.32663 0.64693 0.18554 0.0
H733 H 0.38877 0.58924 0.23367 0.0
H734 H 0.38486 0.61739 0.24685 0.0
H735 H 0.39793 0.61457 0.21705 0.0
C736 C 0.39493 0.67962 0.21927 0.0
C737 C 0.4026 0.6854 0.19549 0.0
C738 C 0.37861 0.66211 0.22269 0.0
C739 C 0.3698 0.64999 0.20242 0.0
C740 C 0.3768 0.65627 0.17865 0.0
H741 H 0.29704 0.53169 0.15791 0.0
H742 H 0.31486 0.56936 0.16344 0.0
C743 C 0.39304 0.67378 0.1752 0.0
C744 C 0.35387 0.63021 0.20573 0.0
H745 H 0.35159 0.57468 0.22657 0.0
C746 C 0.33198 0.63122 0.19475 0.0
C747 C 0.36084 0.60977 0.21787 0.0
C748 C 0.38442 0.60747 0.2294 0.0
C749 C 0.31714 0.61208 0.19493 0.0
C750 C 0.32454 0.59133 0.20608 0.0
C751 C 0.34596 0.59065 0.21808 0.0
C752 C 0.31162 0.56945 0.20308 0.0
C753 C 0.29382 0.61411 0.1828 0.0
C754 C 0.304 0.55685 0.22359 0.0
C755 C 0.29374 0.53514 0.2205 0.0
C756 C 0.29133 0.52558 0.19685 0.0
C757 C 0.29863 0.5385 0.17639 0.0
C758 C 0.30868 0.56016 0.17949 0.0
H759 H 0.28785 0.63232 0.18227 0.0
H760 H 0.29508 0.60786 0.16356 0.0
H761 H 0.2807 0.60354 0.19253 0.0
H762 H 0.30632 0.56365 0.24198 0.0
H763 H 0.2884 0.52558 0.23663 0.0
H764 H 0.32578 0.40344 0.15492 0.0
H765 H 0.35777 0.3765 0.16007 0.0
H766 H 0.34753 0.37701 0.23859 0.0
H767 H 0.31532 0.40402 0.23369 0.0
H768 H 0.39775 0.3879 0.19011 0.0
H769 H 0.35403 0.30692 0.21968 0.0
H770 H 0.339 0.32948 0.20324 0.0
H771 H 0.34617 0.3333 0.23505 0.0
C772 C 0.33007 0.39764 0.1733 0.0
C773 C 0.31801 0.406 0.19391 0.0
C774 C 0.34837 0.38222 0.17618 0.0
C775 C 0.35489 0.37468 0.19967 0.0
C776 C 0.34254 0.38241 0.22027 0.0
H777 H 0.47722 0.29102 0.23619 0.0
H778 H 0.44068 0.31224 0.24024 0.0
C779 C 0.32422 0.39793 0.21742 0.0
C780 C 0.37581 0.36029 0.20249 0.0
H781 H 0.39464 0.30592 0.21624 0.0
C782 C 0.39709 0.37002 0.19596 0.0
C783 C 0.37488 0.33707 0.21042 0.0
C784 C 0.35233 0.32589 0.21741 0.0
C785 C 0.41744 0.357 0.19658 0.0
C786 C 0.41642 0.3335 0.20346 0.0
C787 C 0.39529 0.32393 0.21089 0.0
C788 C 0.43694 0.31846 0.20122 0.0
C789 C 0.4399 0.36846 0.18961 0.0
C790 C 0.44639 0.31432 0.17793 0.0
C791 C 0.46713 0.30236 0.17556 0.0
C792 C 0.47883 0.29413 0.19646 0.0
C793 C 0.46867 0.2972 0.21975 0.0
C794 C 0.44783 0.3093 0.22211 0.0
H795 H 0.43882 0.38754 0.19125 0.0
H796 H 0.45427 0.36219 0.20134 0.0
H797 H 0.44405 0.36423 0.1702 0.0
H798 H 0.43802 0.32095 0.16157 0.0
H799 H 0.47427 0.30008 0.15731 0.0
H800 H 0.07013 0.29234 0.23685 0.0
H801 H 0.09428 0.32579 0.22761 0.0
H802 H 0.09942 0.34111 0.30501 0.0
H803 H 0.0755 0.30745 0.3145 0.0
H804 H 0.0917 0.37385 0.2389 0.0
H805 H 0.16673 0.33085 0.2832 0.0
H806 H 0.14048 0.31563 0.27585 0.0
H807 H 0.14171 0.33406 0.30239 0.0
C808 C 0.07611 0.30298 0.25192 0.0
C809 C 0.07111 0.29705 0.27644 0.0
C810 C 0.08989 0.32214 0.24658 0.0
C811 C 0.09897 0.33568 0.26564 0.0
C812 C 0.0929 0.33063 0.29005 0.0
H813 H 0.20916 0.4373 0.26453 0.0
H814 H 0.17573 0.4141 0.27621 0.0
C815 C 0.07914 0.31145 0.29543 0.0
C816 C 0.11606 0.35397 0.25998 0.0
H817 H 0.1728 0.36809 0.26738 0.0
C818 C 0.10941 0.3727 0.2452 0.0
C819 C 0.13918 0.35232 0.26811 0.0
C820 C 0.1476 0.33206 0.28309 0.0
C821 C 0.12529 0.38994 0.2385 0.0
C822 C 0.14847 0.38814 0.24644 0.0
C823 C 0.155 0.36952 0.26142 0.0
C824 C 0.16661 0.40481 0.23892 0.0
C825 C 0.11706 0.41002 0.2232 0.0
C826 C 0.17239 0.40764 0.21401 0.0
C827 C 0.19148 0.42102 0.20725 0.0
C828 C 0.20528 0.43157 0.2253 0.0
C829 C 0.19893 0.42938 0.25016 0.0
C830 C 0.17982 0.41611 0.25688 0.0
H831 H 0.0981 0.41244 0.22479 0.0
H832 H 0.12578 0.42626 0.22873 0.0
H833 H 0.12112 0.40665 0.20358 0.0
H834 H 0.16278 0.3987 0.19985 0.0
H835 H 0.19599 0.42224 0.18796 0.0
H836 H 0.69598 0.07772 0.31765 0.0
H837 H 0.6622 0.10152 0.30823 0.0
H838 H 0.67459 0.09228 0.23066 0.0
H839 H 0.70816 0.06835 0.23986 0.0
H840 H 0.66536 0.14252 0.28222 0.0
H841 H 0.60486 0.08284 0.23549 0.0
H842 H 0.62867 0.0728 0.25407 0.0
H843 H 0.63354 0.0823 0.22302 0.0
C844 C 0.69122 0.08033 0.29859 0.0
C845 C 0.70481 0.07118 0.27951 0.0
C846 C 0.67193 0.09396 0.29324 0.0
C847 C 0.66573 0.09849 0.26875 0.0
C848 C 0.67875 0.08864 0.24969 0.0
H849 H 0.58138 0.19678 0.19093 0.0
H850 H 0.60518 0.16393 0.20357 0.0
C851 C 0.69805 0.07507 0.25501 0.0
C852 C 0.64733 0.11549 0.26307 0.0
H853 H 0.59723 0.12321 0.23096 0.0
C854 C 0.65029 0.13823 0.2713 0.0
C855 C 0.62783 0.1099 0.2486 0.0
C856 C 0.62337 0.08559 0.23995 0.0
C857 C 0.63468 0.15571 0.26487 0.0
C858 C 0.61525 0.1502 0.25022 0.0
C859 C 0.6121 0.12738 0.24222 0.0
C860 C 0.59853 0.16818 0.24246 0.0
C861 C 0.63965 0.18011 0.27303 0.0
C862 C 0.5862 0.18089 0.26005 0.0
C863 C 0.57272 0.19973 0.25292 0.0
C864 C 0.57111 0.20606 0.22801 0.0
C865 C 0.5823 0.19239 0.21027 0.0
C866 C 0.59591 0.17361 0.21746 0.0
H867 H 0.6579 0.18233 0.2788 0.0
H868 H 0.63588 0.19261 0.25808 0.0
H869 H 0.62852 0.18442 0.28899 0.0
H870 H 0.58757 0.17667 0.2794 0.0
H871 H 0.56414 0.20975 0.26703 0.0
H872 H 0.80709 0.57982 0.19145 0.0
H873 H 0.84033 0.60327 0.20341 0.0
H874 H 0.82662 0.58871 0.2798 0.0
H875 H 0.79315 0.56558 0.26805 0.0
H876 H 0.82989 0.63465 0.27044 0.0
H877 H 0.90471 0.58943 0.22915 0.0
H878 H 0.88191 0.59505 0.20764 0.0
H879 H 0.87693 0.57579 0.23302 0.0
C880 C 0.81143 0.5812 0.21077 0.0
C881 C 0.79741 0.5709 0.2288 0.0
C882 C 0.83054 0.59452 0.21758 0.0
C883 C 0.83613 0.59757 0.2425 0.0
C884 C 0.82269 0.58652 0.26046 0.0
H885 H 0.92693 0.696 0.3171 0.0
H886 H 0.90306 0.66217 0.30813 0.0
C887 C 0.80356 0.5733 0.25369 0.0
C888 C 0.85429 0.61423 0.25 0.0
H889 H 0.91117 0.62821 0.24267 0.0
C890 C 0.84773 0.63307 0.26464 0.0
C891 C 0.87752 0.61223 0.24227 0.0
C892 C 0.88578 0.59192 0.22734 0.0
C893 C 0.86356 0.65032 0.27117 0.0
C894 C 0.88674 0.64848 0.26323 0.0
C895 C 0.89341 0.62951 0.24883 0.0
C896 C 0.90384 0.66684 0.26866 0.0
C897 C 0.8551 0.67083 0.28574 0.0
C898 C 0.91312 0.67998 0.2494 0.0
C899 C 0.92689 0.69921 0.25444 0.0
C900 C 0.93167 0.70563 0.27887 0.0
C901 C 0.92346 0.69162 0.2981 0.0
C902 C 0.90972 0.67235 0.29301 0.0
H903 H 0.83597 0.6721 0.28567 0.0
H904 H 0.86084 0.6691 0.30512 0.0
H905 H 0.86233 0.68713 0.27829 0.0
H906 H 0.90888 0.67595 0.23047 0.0
H907 H 0.933 0.70955 0.23919 0.0
H908 H 0.29373 0.93852 0.23575 0.0
H909 H 0.32665 0.91488 0.22337 0.0
H910 H 0.33931 0.89722 0.2992 0.0
H911 H 0.3066 0.92123 0.31184 0.0
H912 H 0.3801 0.90488 0.27173 0.0
H913 H 0.3205 0.84458 0.22404 0.0
H914 H 0.31857 0.87397 0.21384 0.0
H915 H 0.31041 0.86667 0.24478 0.0
C916 C 0.30369 0.92988 0.24986 0.0
C917 C 0.29738 0.93155 0.27477 0.0
C918 C 0.32245 0.91628 0.24272 0.0
C919 C 0.33509 0.90388 0.26031 0.0
C920 C 0.32968 0.90654 0.28531 0.0
H921 H 0.43446 0.79367 0.26209 0.0
H922 H 0.41085 0.82738 0.2716 0.0
C923 C 0.31098 0.92027 0.2925 0.0
C924 C 0.35296 0.88704 0.25252 0.0
H925 H 0.36028 0.83695 0.2204 0.0
C926 C 0.37581 0.89005 0.26046 0.0
C927 C 0.3473 0.86765 0.23787 0.0
C928 C 0.32284 0.86282 0.22979 0.0
C929 C 0.3932 0.87425 0.25398 0.0
C930 C 0.38747 0.8548 0.23947 0.0
C931 C 0.36468 0.85197 0.23133 0.0
C932 C 0.40439 0.83637 0.2336 0.0
C933 C 0.41757 0.87857 0.26255 0.0
C934 C 0.40869 0.8302 0.20905 0.0
C935 C 0.42213 0.81081 0.20352 0.0
C936 C 0.43132 0.79711 0.22248 0.0
C937 C 0.4277 0.80387 0.24704 0.0
C938 C 0.41431 0.82326 0.25253 0.0
H939 H 0.42041 0.89706 0.26704 0.0
H940 H 0.42086 0.86835 0.27944 0.0
H941 H 0.43028 0.87324 0.24836 0.0
H942 H 0.40107 0.84 0.19415 0.0
H943 H 0.42452 0.80607 0.18443 0.0
H944 H 0.19729 0.57925 0.81851 0.0
H945 H 0.16322 0.60265 0.80926 0.0
H946 H 0.17354 0.59092 0.73172 0.0
H947 H 0.20737 0.56732 0.74077 0.0
H948 H 0.16584 0.64268 0.78217 0.0
H949 H 0.10404 0.5824 0.7384 0.0
H950 H 0.12829 0.5726 0.75646 0.0
H951 H 0.13235 0.58145 0.72506 0.0
C952 C 0.19199 0.58119 0.79952 0.0
C953 C 0.2051 0.57147 0.78038 0.0
C954 C 0.17253 0.5946 0.79426 0.0
C955 C 0.16569 0.59837 0.76981 0.0
C956 C 0.17818 0.58788 0.75074 0.0
H957 H 0.08053 0.69599 0.69177 0.0
H958 H 0.10449 0.66323 0.70442 0.0
C959 C 0.19764 0.57449 0.75597 0.0
C960 C 0.14729 0.61535 0.76408 0.0
H961 H 0.09664 0.62274 0.73285 0.0
C962 C 0.15054 0.63826 0.77169 0.0
C963 C 0.12748 0.60959 0.75017 0.0
C964 C 0.12267 0.58513 0.74223 0.0
C965 C 0.13491 0.65569 0.76518 0.0
C966 C 0.11518 0.65 0.75109 0.0
C967 C 0.11175 0.62704 0.74369 0.0
C968 C 0.09839 0.66791 0.74335 0.0
C969 C 0.14014 0.68022 0.77269 0.0
C970 C 0.08635 0.68084 0.76099 0.0
C971 C 0.07278 0.69961 0.75386 0.0
C972 C 0.0708 0.70567 0.72889 0.0
C973 C 0.08174 0.69181 0.71114 0.0
C974 C 0.09543 0.67309 0.71833 0.0
H975 H 0.15849 0.68245 0.77808 0.0
H976 H 0.13621 0.69243 0.75752 0.0
H977 H 0.12927 0.68491 0.78873 0.0
H978 H 0.08801 0.67683 0.78037 0.0
H979 H 0.06441 0.70977 0.76798 0.0
H980 H 0.42383 0.19626 0.81778 0.0
H981 H 0.40012 0.16247 0.80825 0.0
H982 H 0.41041 0.17433 0.73074 0.0
H983 H 0.4343 0.2079 0.74006 0.0
H984 H 0.35952 0.16544 0.78179 0.0
H985 H 0.41963 0.10467 0.73607 0.0
H986 H 0.42951 0.12863 0.75452 0.0
H987 H 0.42022 0.13325 0.72336 0.0
C988 C 0.42147 0.19139 0.79872 0.0
C989 C 0.43092 0.20482 0.77968 0.0
C990 C 0.40789 0.17209 0.7933 0.0
C991 C 0.40368 0.16572 0.76879 0.0
C992 C 0.4138 0.1786 0.74979 0.0
H993 H 0.30567 0.08055 0.6913 0.0
H994 H 0.33846 0.10455 0.70369 0.0
C995 C 0.42735 0.19791 0.75517 0.0
C996 C 0.38672 0.14731 0.76302 0.0
H997 H 0.37932 0.09692 0.73134 0.0
C998 C 0.36391 0.15029 0.77105 0.0
C999 C 0.39245 0.1277 0.74877 0.0
C1000 C 0.41683 0.12321 0.74035 0.0
C1001 C 0.34651 0.13458 0.76465 0.0
C1002 C 0.35217 0.11503 0.75026 0.0
C1003 C 0.37504 0.11188 0.74242 0.0
C1004 C 0.33429 0.09815 0.74264 0.0
C1005 C 0.32205 0.13953 0.77263 0.0
C1006 C 0.32165 0.08589 0.76035 0.0
C1007 C 0.30286 0.07229 0.75335 0.0
C1008 C 0.29648 0.07049 0.72846 0.0
C1009 C 0.31009 0.08161 0.71062 0.0
C1010 C 0.32883 0.09534 0.71766 0.0
H1011 H 0.31974 0.15782 0.77822 0.0
H1012 H 0.30965 0.1356 0.75764 0.0
H1013 H 0.3177 0.12851 0.78866 0.0
H1014 H 0.32589 0.08743 0.77968 0.0
H1015 H 0.29289 0.06378 0.76755 0.0
H1016 H 0.93188 0.29274 0.76321 0.0
H1017 H 0.90761 0.32615 0.77232 0.0
H1018 H 0.90201 0.34091 0.69484 0.0
H1019 H 0.92609 0.3073 0.68548 0.0
H1020 H 0.91013 0.37425 0.7604 0.0
H1021 H 0.83479 0.3306 0.71739 0.0
H1022 H 0.86111 0.31549 0.72475 0.0
H1023 H 0.85972 0.33363 0.69801 0.0
C1024 C 0.92577 0.30325 0.74808 0.0
C1025 C 0.93071 0.29719 0.72358 0.0
C1026 C 0.91193 0.32238 0.75335 0.0
C1027 C 0.9027 0.33575 0.73425 0.0
C1028 C 0.90866 0.33056 0.70984 0.0
H1029 H 0.79179 0.43677 0.73612 0.0
H1030 H 0.82515 0.41366 0.72399 0.0
C1031 C 0.92251 0.31141 0.70453 0.0
C1032 C 0.88561 0.35406 0.73988 0.0
H1033 H 0.82872 0.36788 0.73308 0.0
C1034 C 0.89235 0.37297 0.75435 0.0
C1035 C 0.86241 0.35225 0.73205 0.0
C1036 C 0.85392 0.33184 0.71737 0.0
C1037 C 0.87648 0.39022 0.76107 0.0
C1038 C 0.8532 0.38823 0.75349 0.0
C1039 C 0.84659 0.36945 0.73879 0.0
C1040 C 0.83506 0.40485 0.76118 0.0
C1041 C 0.88482 0.41049 0.77601 0.0
C1042 C 0.82973 0.40793 0.78617 0.0
C1043 C 0.81069 0.42127 0.79319 0.0
C1044 C 0.79647 0.43153 0.77532 0.0
C1045 C 0.80235 0.42908 0.75036 0.0
C1046 C 0.82142 0.41586 0.74338 0.0
H1047 H 0.90373 0.41304 0.77398 0.0
H1048 H 0.87586 0.42662 0.77053 0.0
H1049 H 0.88118 0.40724 0.79575 0.0
H1050 H 0.83967 0.3992 0.80024 0.0
H1051 H 0.80656 0.42268 0.81256 0.0
H1052 H 0.69625 0.92211 0.68793 0.0
H1053 H 0.66302 0.89879 0.7002 0.0
H1054 H 0.67589 0.9154 0.77628 0.0
H1055 H 0.70934 0.93839 0.76423 0.0
H1056 H 0.67312 0.86922 0.76824 0.0
H1057 H 0.5983 0.9126 0.72484 0.0
H1058 H 0.62133 0.90671 0.70369 0.0
H1059 H 0.62591 0.92662 0.7286 0.0
C1060 C 0.69171 0.92122 0.70723 0.0
C1061 C 0.70551 0.93204 0.72511 0.0
C1062 C 0.67261 0.90797 0.71421 0.0
C1063 C 0.66681 0.90551 0.73916 0.0
C1064 C 0.67999 0.91711 0.75693 0.0
H1065 H 0.57573 0.80752 0.81442 0.0
H1066 H 0.59967 0.84129 0.80533 0.0
C1067 C 0.69911 0.93027 0.74999 0.0
C1068 C 0.64874 0.88886 0.74692 0.0
H1069 H 0.59217 0.87396 0.73907 0.0
C1070 C 0.65534 0.87045 0.76214 0.0
C1071 C 0.62559 0.89039 0.73882 0.0
C1072 C 0.61727 0.91026 0.72327 0.0
C1073 C 0.63965 0.85313 0.76886 0.0
C1074 C 0.61658 0.85446 0.76048 0.0
C1075 C 0.60985 0.87304 0.74554 0.0
C1076 C 0.59968 0.83594 0.76594 0.0
C1077 C 0.64817 0.83306 0.78406 0.0
C1078 C 0.5909 0.82238 0.74675 0.0
C1079 C 0.57712 0.80318 0.75186 0.0
C1080 C 0.57181 0.79721 0.77629 0.0
C1081 C 0.57961 0.81156 0.79542 0.0
C1082 C 0.59339 0.83079 0.79027 0.0
H1083 H 0.66731 0.8321 0.78442 0.0
H1084 H 0.64203 0.83507 0.80327 0.0
H1085 H 0.64134 0.8165 0.77682 0.0
H1086 H 0.59547 0.82611 0.72784 0.0
H1087 H 0.57131 0.79258 0.73667 0.0
H1088 H 0.04526 0.21873 0.42242 0.0
H1089 H 0.03225 0.23036 0.46322 0.0
H1090 H 0.01432 0.29763 0.43532 0.0
H1091 H 0.02743 0.28605 0.39408 0.0
H1092 H 0.04436 0.26969 0.49484 0.0
H1093 H 0.95286 0.2686 0.46309 0.0
H1094 H 0.97555 0.25486 0.44569 0.0
H1095 H 0.97346 0.28572 0.4463 0.0
C1096 C 0.03891 0.23614 0.42498 0.0
C1097 C 0.0372 0.25142 0.405 0.0
C1098 C 0.03153 0.24278 0.44834 0.0
C1099 C 0.0221 0.26475 0.4522 0.0
C1100 C 0.02139 0.28053 0.43262 0.0
H1101 H 0.97613 0.28619 0.60626 0.0
H1102 H 0.98942 0.29769 0.56506 0.0
C1103 C 0.02899 0.27393 0.40915 0.0
C1104 C 0.01154 0.26999 0.47638 0.0
H1105 H 0.95936 0.27029 0.50557 0.0
C1106 C 0.02579 0.27048 0.49723 0.0
C1107 C 0.98731 0.27077 0.47935 0.0
C1108 C 0.97126 0.26988 0.45752 0.0
C1109 C 0.01641 0.27047 0.52105 0.0
C1110 C 0.99217 0.27002 0.52401 0.0
C1111 C 0.97793 0.27082 0.50317 0.0
C1112 C 0.98155 0.26483 0.54817 0.0
C1113 C 0.03243 0.26924 0.54289 0.0
C1114 C 0.97204 0.24289 0.55201 0.0
C1115 C 0.96457 0.2363 0.57534 0.0
C1116 C 0.96626 0.25159 0.59532 0.0
C1117 C 0.97456 0.27407 0.59119 0.0
C1118 C 0.98227 0.28061 0.56775 0.0
H1119 H 0.05083 0.26788 0.53732 0.0
H1120 H 0.03033 0.28497 0.5543 0.0
H1121 H 0.02802 0.25414 0.55453 0.0
H1122 H 0.97131 0.23048 0.53712 0.0
H1123 H 0.95815 0.21891 0.57789 0.0
H1124 H 0.71818 0.97575 0.60717 0.0
H1125 H 0.7063 0.98889 0.56608 0.0
H1126 H 0.77048 0.964 0.536 0.0
H1127 H 0.78246 0.95108 0.57672 0.0
H1128 H 0.73264 0.02225 0.5392 0.0
H1129 H 0.72183 0.94174 0.48577 0.0
H1130 H 0.7205 0.94247 0.51899 0.0
H1131 H 0.74794 0.94205 0.50352 0.0
C1132 C 0.72945 0.97256 0.59165 0.0
C1133 C 0.75126 0.96242 0.59514 0.0
C1134 C 0.72269 0.98013 0.56825 0.0
C1135 C 0.73741 0.97721 0.54797 0.0
C1136 C 0.75867 0.96607 0.55129 0.0
H1137 H 0.78361 0.04503 0.4243 0.0
H1138 H 0.77171 0.03224 0.46509 0.0
C1139 C 0.76555 0.95881 0.57462 0.0
C1140 C 0.73218 0.98798 0.52388 0.0
H1141 H 0.73127 0.97601 0.46244 0.0
C1142 C 0.73172 0.01215 0.52243 0.0
C1143 C 0.73077 0.97481 0.50205 0.0
C1144 C 0.73005 0.94881 0.50262 0.0
C1145 C 0.73177 0.02347 0.4996 0.0
C1146 C 0.73241 0.01026 0.47776 0.0
C1147 C 0.73095 0.98613 0.47922 0.0
C1148 C 0.73783 0.02084 0.45363 0.0
C1149 C 0.73216 0.04948 0.49902 0.0
C1150 C 0.72263 0.01886 0.43362 0.0
C1151 C 0.72936 0.02638 0.41018 0.0
C1152 C 0.75157 0.03549 0.40638 0.0
C1153 C 0.76639 0.0381 0.42664 0.0
C1154 C 0.75957 0.0309 0.45001 0.0
H1155 H 0.72456 0.05691 0.51603 0.0
H1156 H 0.75031 0.05546 0.49772 0.0
H1157 H 0.72259 0.05621 0.48285 0.0
H1158 H 0.70586 0.01093 0.43602 0.0
H1159 H 0.71766 0.02398 0.39486 0.0
H1160 H 0.04199 0.78574 0.57953 0.0
H1161 H 0.02923 0.77454 0.53851 0.0
H1162 H 0.01365 0.70614 0.56485 0.0
H1163 H 0.02654 0.71727 0.60631 0.0
H1164 H 0.04269 0.73595 0.50605 0.0
H1165 H 0.95118 0.73404 0.53772 0.0
H1166 H 0.97343 0.74827 0.5553 0.0
H1167 H 0.9723 0.71738 0.55429 0.0
C1168 C 0.03621 0.76818 0.57658 0.0
C1169 C 0.03511 0.75243 0.59619 0.0
C1170 C 0.02897 0.7618 0.5531 0.0
C1171 C 0.02028 0.73961 0.54873 0.0
C1172 C 0.02015 0.72342 0.56794 0.0
H1173 H 0.97534 0.7187 0.39435 0.0
H1174 H 0.98879 0.70723 0.43548 0.0
C1175 C 0.02763 0.72976 0.59153 0.0
C1176 C 0.00988 0.7345 0.52445 0.0
H1177 H 0.95775 0.7332 0.4952 0.0
C1178 C 0.02416 0.73469 0.50362 0.0
C1179 C 0.98568 0.73312 0.52145 0.0
C1180 C 0.96961 0.73327 0.54328 0.0
C1181 C 0.01481 0.73477 0.47979 0.0
C1182 C 0.99056 0.73459 0.4768 0.0
C1183 C 0.97632 0.73315 0.49761 0.0
C1184 C 0.97982 0.73967 0.45268 0.0
C1185 C 0.03081 0.73671 0.458 0.0
C1186 C 0.96963 0.76133 0.44903 0.0
C1187 C 0.96206 0.76791 0.42572 0.0
C1188 C 0.96433 0.75287 0.40559 0.0
C1189 C 0.97331 0.73062 0.40953 0.0
C1190 C 0.98111 0.7241 0.43294 0.0
H1191 H 0.04914 0.73863 0.46361 0.0
H1192 H 0.02925 0.721 0.44645 0.0
H1193 H 0.02592 0.75175 0.44648 0.0
H1194 H 0.96845 0.77358 0.46403 0.0
H1195 H 0.95511 0.78511 0.42332 0.0
H1196 H 0.21903 0.0456 0.57948 0.0
H1197 H 0.23071 0.0324 0.53877 0.0
H1198 H 0.29757 0.01355 0.56711 0.0
H1199 H 0.28595 0.02685 0.60826 0.0
H1200 H 0.27039 0.04383 0.50734 0.0
H1201 H 0.26775 0.95246 0.53934 0.0
H1202 H 0.25427 0.9754 0.55658 0.0
H1203 H 0.28509 0.97283 0.55618 0.0
C1204 C 0.23637 0.03902 0.57704 0.0
C1205 C 0.25152 0.0371 0.59712 0.0
C1206 C 0.24303 0.03152 0.55373 0.0
C1207 C 0.26489 0.02177 0.55001 0.0
C1208 C 0.28055 0.02086 0.56969 0.0
H1209 H 0.28671 0.97545 0.39615 0.0
H1210 H 0.29808 0.98866 0.43742 0.0
C1211 C 0.27394 0.02859 0.59311 0.0
C1212 C 0.2701 0.01107 0.52589 0.0
H1213 H 0.26989 0.95882 0.49686 0.0
C1214 C 0.27093 0.02526 0.505 0.0
C1215 C 0.27056 0.98682 0.523 0.0
C1216 C 0.26929 0.97085 0.54487 0.0
C1217 C 0.27096 0.01582 0.4812 0.0
C1218 C 0.27021 0.99157 0.47831 0.0
C1219 C 0.27065 0.97738 0.4992 0.0
C1220 C 0.26509 0.98095 0.45413 0.0
C1221 C 0.2701 0.0318 0.45932 0.0
C1222 C 0.24314 0.97152 0.45016 0.0
C1223 C 0.23662 0.96409 0.42679 0.0
C1224 C 0.25201 0.96573 0.40689 0.0
C1225 C 0.27451 0.97392 0.41115 0.0
C1226 C 0.28098 0.98159 0.43464 0.0
H1227 H 0.26879 0.05021 0.46483 0.0
H1228 H 0.28597 0.02958 0.44815 0.0
H1229 H 0.25512 0.02747 0.44747 0.0
H1230 H 0.23064 0.97085 0.46497 0.0
H1231 H 0.21921 0.95775 0.42414 0.0
H1232 H 0.52345 0.78348 0.89394 0.0
H1233 H 0.51113 0.79464 0.93558 0.0
H1234 H 0.52965 0.72711 0.96231 0.0
H1235 H 0.54166 0.71583 0.92103 0.0
H1236 H 0.47522 0.76911 0.96206 0.0
H1237 H 0.55749 0.77272 0.01379 0.0
H1238 H 0.55606 0.77583 0.98073 0.0
H1239 H 0.55482 0.74767 0.99453 0.0
C1240 C 0.52535 0.77123 0.90884 0.0
C1241 C 0.53348 0.74878 0.90425 0.0
C1242 C 0.51825 0.77759 0.93255 0.0
C1243 C 0.5197 0.76176 0.95203 0.0
C1244 C 0.52872 0.7397 0.94762 0.0
H1245 H 0.45231 0.71783 0.07729 0.0
H1246 H 0.46486 0.72921 0.03621 0.0
C1247 C 0.53547 0.73325 0.92398 0.0
C1248 C 0.50976 0.76704 0.9765 0.0
H1249 H 0.52309 0.76593 0.03762 0.0
C1250 C 0.48571 0.76902 0.97858 0.0
C1251 C 0.52347 0.76707 0.998 0.0
C1252 C 0.54943 0.76593 0.99672 0.0
C1253 C 0.4749 0.76926 0.0017 0.0
C1254 C 0.48852 0.76741 0.02318 0.0
C1255 C 0.51266 0.76723 0.02112 0.0
C1256 C 0.47813 0.76245 0.04751 0.0
C1257 C 0.44894 0.77049 0.00299 0.0
C1258 C 0.48122 0.77749 0.06749 0.0
C1259 C 0.47381 0.77109 0.09108 0.0
C1260 C 0.46371 0.74934 0.09503 0.0
C1261 C 0.46002 0.7347 0.07482 0.0
C1262 C 0.46708 0.74122 0.0513 0.0
H1263 H 0.44156 0.77847 0.98616 0.0
H1264 H 0.44188 0.75276 0.00461 0.0
H1265 H 0.44324 0.78052 0.0193 0.0
H1266 H 0.48991 0.79386 0.06494 0.0
H1267 H 0.47707 0.78262 0.10636 0.0
H1268 H 0.28796 0.54825 0.92152 0.0
H1269 H 0.27636 0.53399 0.96185 0.0
H1270 H 0.21165 0.51061 0.93171 0.0
H1271 H 0.22319 0.52493 0.89096 0.0
H1272 H 0.23536 0.54289 0.99203 0.0
H1273 H 0.2444 0.45172 0.9607 0.0
H1274 H 0.2568 0.47541 0.94368 0.0
H1275 H 0.22621 0.47084 0.94323 0.0
C1276 C 0.2711 0.54038 0.92346 0.0
C1277 C 0.25656 0.53755 0.903 0.0
C1278 C 0.26448 0.53228 0.94656 0.0
C1279 C 0.24328 0.52104 0.94968 0.0
C1280 C 0.22819 0.51908 0.92959 0.0
H1281 H 0.21904 0.47428 0.10294 0.0
H1282 H 0.20846 0.48681 0.0612 0.0
C1283 C 0.23475 0.52737 0.90639 0.0
C1284 C 0.23812 0.51013 0.9737 0.0
H1285 H 0.24027 0.45807 0.00303 0.0
C1286 C 0.23582 0.52432 0.99446 0.0
C1287 C 0.23894 0.4859 0.97671 0.0
C1288 C 0.24182 0.46994 0.955 0.0
C1289 C 0.23553 0.51498 0.0183 0.0
C1290 C 0.23751 0.49083 0.02136 0.0
C1291 C 0.23857 0.47656 1.00055 0.0
C1292 C 0.24231 0.48057 0.04578 0.0
C1293 C 0.23476 0.53108 0.04009 0.0
C1294 C 0.26453 0.47219 0.05063 0.0
C1295 C 0.27059 0.46514 0.07427 0.0
C1296 C 0.25448 0.46613 0.09356 0.0
C1297 C 0.23179 0.47329 0.08842 0.0
C1298 C 0.22577 0.48056 0.06466 0.0
H1299 H 0.2354 0.54951 0.03453 0.0
H1300 H 0.21859 0.52814 0.05056 0.0
H1301 H 0.24946 0.52752 0.05264 0.0
H1302 H 0.27753 0.47203 0.0363 0.0
H1303 H 0.28817 0.45959 0.07759 0.0
H1304 H 0.54491 0.28437 0.07869 0.0
H1305 H 0.53155 0.27285 0.038 0.0
H1306 H 0.51477 0.20519 0.06564 0.0
H1307 H 0.52818 0.21667 0.10678 0.0
H1308 H 0.54369 0.2346 0.00583 0.0
H1309 H 0.45265 0.23277 0.03896 0.0
H1310 H 0.4753 0.24656 0.05636 0.0
H1311 H 0.47373 0.21569 0.05507 0.0
C1312 C 0.53873 0.2669 0.0761 0.0
C1313 C 0.53742 0.25148 0.096 0.0
C1314 C 0.53114 0.26033 0.05279 0.0
C1315 C 0.52192 0.23828 0.04889 0.0
C1316 C 0.52164 0.22237 0.06837 0.0
H1317 H 0.47577 0.21642 0.8951 0.0
H1318 H 0.48983 0.20531 0.93609 0.0
C1319 C 0.52942 0.22891 0.09179 0.0
C1320 C 0.51116 0.23304 0.02479 0.0
H1321 H 0.45863 0.23112 0.9964 0.0
C1322 C 0.52513 0.23322 0.00372 0.0
C1323 C 0.48692 0.23149 0.02219 0.0
C1324 C 0.47113 0.2317 0.04425 0.0
C1325 C 0.51544 0.23311 0.98004 0.0
C1326 C 0.49115 0.23268 0.97744 0.0
C1327 C 0.47723 0.23126 0.9985 0.0
C1328 C 0.48 0.23743 0.95344 0.0
C1329 C 0.53114 0.23511 0.958 0.0
C1330 C 0.46905 0.25874 0.94992 0.0
C1331 C 0.46109 0.26511 0.92669 0.0
C1332 C 0.46374 0.2502 0.9065 0.0
C1333 C 0.47345 0.22825 0.91032 0.0
C1334 C 0.48161 0.22193 0.93366 0.0
H1335 H 0.54947 0.23762 0.96333 0.0
H1336 H 0.5299 0.21915 0.9468 0.0
H1337 H 0.52572 0.2498 0.94624 0.0
H1338 H 0.4676 0.27093 0.96496 0.0
H1339 H 0.45359 0.28209 0.92439 0.0
H1340 H 0.71879 0.45884 0.92487 0.0
H1341 H 0.73053 0.47196 0.96558 0.0
H1342 H 0.79804 0.48896 0.93762 0.0
H1343 H 0.78635 0.47573 0.89646 0.0
H1344 H 0.76975 0.45946 0.99721 0.0
H1345 H 0.76969 0.55087 0.9652 0.0
H1346 H 0.75564 0.52831 0.94789 0.0
H1347 H 0.78653 0.53 0.94845 0.0
C1348 C 0.73628 0.46502 0.92739 0.0
C1349 C 0.7516 0.46641 0.90741 0.0
C1350 C 0.74297 0.47246 0.9507 0.0
C1351 C 0.76504 0.48165 0.95453 0.0
C1352 C 0.78085 0.48208 0.93495 0.0
H1353 H 0.78678 0.5273 0.10858 0.0
H1354 H 0.79824 0.51401 0.06737 0.0
C1355 C 0.7742 0.4744 0.91152 0.0
C1356 C 0.7704 0.49222 0.97867 0.0
H1357 H 0.77126 0.54446 0.00771 0.0
C1358 C 0.77074 0.47802 0.99956 0.0
C1359 C 0.77145 0.51645 0.98157 0.0
C1360 C 0.77073 0.53244 0.95969 0.0
C1361 C 0.77082 0.48745 0.02335 0.0
C1362 C 0.77064 0.51171 0.02625 0.0
C1363 C 0.77159 0.52588 0.00536 0.0
C1364 C 0.76556 0.52244 0.05038 0.0
C1365 C 0.76939 0.47149 0.04522 0.0
C1366 C 0.74377 0.5323 0.05417 0.0
C1367 C 0.7372 0.53977 0.07751 0.0
C1368 C 0.75238 0.53774 0.09755 0.0
C1369 C 0.77475 0.52913 0.09347 0.0
C1370 C 0.78127 0.52142 0.07002 0.0
H1371 H 0.76771 0.45312 0.0397 0.0
H1372 H 0.78519 0.47335 0.05657 0.0
H1373 H 0.75439 0.47617 0.05692 0.0
H1374 H 0.73141 0.53326 0.03924 0.0
H1375 H 0.71989 0.54643 0.08002 0.0
loop_
_geom_bond_atom_site_label_1
_geom_bond_atom_site_label_2
_geom_bond_distance
_geom_bond_site_symmetry_2
_ccdc_geom_bond_type
O0 Cd1 2.223 . S
O0 C8 1.315 . S
Cd1 O0 2.223 . S
Cd1 O4 2.297 . S
Cd1 O5 2.439 . S
Cd1 O11 2.240 . S
Cd2 O3 2.240 . S
Cd2 O10 2.223 . S
Cd2 O12 2.297 . S
Cd2 O13 2.439 . S
O3 Cd2 2.240 . S
O3 C8 1.279 . S
O4 Cd1 2.297 . S
O4 C6 1.247 . S
O5 Cd1 2.439 . S
O5 C6 1.208 . S
C6 O4 1.247 . S
C6 O5 1.208 . S
C7 O12 1.247 . S
C7 O13 1.208 . S
C8 O0 1.315 . S
C8 O3 1.279 . S
C9 O10 1.315 . S
C9 O11 1.279 . S
O10 Cd2 2.223 . S
O10 C9 1.315 . S
O11 Cd1 2.240 . S
O11 C9 1.279 . S
O12 Cd2 2.297 . S
O12 C7 1.247 . S
O13 Cd2 2.439 . S
O13 C7 1.208 . S
O14 Cd15 2.223 . S
O14 C22 1.315 . S
Cd15 O14 2.223 . S
Cd15 O18 2.297 . S
Cd15 O19 2.439 . S
Cd15 O25 2.240 . S
Cd16 O17 2.240 . S
Cd16 O24 2.223 . S
Cd16 O26 2.297 . S
Cd16 O27 2.439 . S
O17 Cd16 2.240 . S
O17 C22 1.279 . S
O18 Cd15 2.297 . S
O18 C20 1.247 . S
O19 Cd15 2.439 . S
O19 C20 1.208 . S
C20 O18 1.247 . S
C20 O19 1.208 . S
C21 O26 1.247 . S
C21 O27 1.208 . S
C22 O14 1.315 . S
C22 O17 1.279 . S
C23 O24 1.315 . S
C23 O25 1.279 . S
O24 Cd16 2.223 . S
O24 C23 1.315 . S
O25 Cd15 2.240 . S
O25 C23 1.279 . S
O26 Cd16 2.297 . S
O26 C21 1.247 . S
O27 Cd16 2.439 . S
O27 C21 1.208 . S
O28 Cd29 2.223 . S
O28 C36 1.315 . S
Cd29 O28 2.223 . S
Cd29 O32 2.297 . S
Cd29 O33 2.439 . S
Cd29 O39 2.240 . S
Cd30 O31 2.240 . S
Cd30 O38 2.223 . S
Cd30 O40 2.297 . S
Cd30 O41 2.439 . S
O31 Cd30 2.240 . S
O31 C36 1.279 . S
O32 Cd29 2.297 . S
O32 C34 1.247 . S
O33 Cd29 2.439 . S
O33 C34 1.208 . S
C34 O32 1.247 . S
C34 O33 1.208 . S
C35 O40 1.247 . S
C35 O41 1.208 . S
C36 O28 1.315 . S
C36 O31 1.279 . S
C37 O38 1.315 . S
C37 O39 1.279 . S
O38 Cd30 2.223 . S
O38 C37 1.315 . S
O39 Cd29 2.240 . S
O39 C37 1.279 . S
O40 Cd30 2.297 . S
O40 C35 1.247 . S
O41 Cd30 2.439 . S
O41 C35 1.208 . S
O42 Cd43 2.223 . S
O42 C50 1.315 . S
Cd43 O42 2.223 . S
Cd43 O46 2.297 . S
Cd43 O47 2.439 . S
Cd43 O53 2.240 . S
Cd44 O45 2.240 . S
Cd44 O52 2.223 . S
Cd44 O54 2.297 . S
Cd44 O55 2.439 . S
O45 Cd44 2.240 . S
O45 C50 1.279 . S
O46 Cd43 2.297 . S
O46 C48 1.247 . S
O47 Cd43 2.439 . S
O47 C48 1.208 . S
C48 O46 1.247 . S
C48 O47 1.208 . S
C49 O54 1.247 . S
C49 O55 1.208 . S
C50 O42 1.315 . S
C50 O45 1.279 . S
C51 O52 1.315 . S
C51 O53 1.279 . S
O52 Cd44 2.223 . S
O52 C51 1.315 . S
O53 Cd43 2.240 . S
O53 C51 1.279 . S
O54 Cd44 2.297 . S
O54 C49 1.247 . S
O55 Cd44 2.439 . S
O55 C49 1.208 . S
O56 Cd57 2.223 . S
O56 C64 1.315 . S
Cd57 O56 2.223 . S
Cd57 O60 2.297 . S
Cd57 O61 2.439 . S
Cd57 O67 2.240 . S
Cd58 O59 2.240 . S
Cd58 O66 2.223 . S
Cd58 O68 2.297 . S
Cd58 O69 2.439 . S
O59 Cd58 2.240 . S
O59 C64 1.279 . S
O60 Cd57 2.297 . S
O60 C62 1.247 . S
O61 Cd57 2.439 . S
O61 C62 1.208 . S
C62 O60 1.247 . S
C62 O61 1.208 . S
C63 O68 1.247 . S
C63 O69 1.208 . S
C64 O56 1.315 . S
C64 O59 1.279 . S
C65 O66 1.315 . S
C65 O67 1.279 . S
O66 Cd58 2.223 . S
O66 C65 1.315 . S
O67 Cd57 2.240 . S
O67 C65 1.279 . S
O68 Cd58 2.297 . S
O68 C63 1.247 . S
O69 Cd58 2.439 . S
O69 C63 1.208 . S
O70 Cd71 2.223 . S
O70 C78 1.315 . S
Cd71 O70 2.223 . S
Cd71 O74 2.297 . S
Cd71 O75 2.439 . S
Cd71 O81 2.240 . S
Cd72 O73 2.240 . S
Cd72 O80 2.223 . S
Cd72 O82 2.297 . S
Cd72 O83 2.439 . S
O73 Cd72 2.240 . S
O73 C78 1.279 . S
O74 Cd71 2.297 . S
O74 C76 1.247 . S
O75 Cd71 2.439 . S
O75 C76 1.208 . S
C76 O74 1.247 . S
C76 O75 1.208 . S
C77 O82 1.247 . S
C77 O83 1.208 . S
C78 O70 1.315 . S
C78 O73 1.279 . S
C79 O80 1.315 . S
C79 O81 1.279 . S
O80 Cd72 2.223 . S
O80 C79 1.315 . S
O81 Cd71 2.240 . S
O81 C79 1.279 . S
O82 Cd72 2.297 . S
O82 C77 1.247 . S
O83 Cd72 2.439 . S
O83 C77 1.208 . S
O84 Cd85 2.223 . S
O84 C92 1.315 . S
Cd85 O84 2.223 . S
Cd85 O88 2.297 . S
Cd85 O89 2.439 . S
Cd85 O95 2.240 . S
Cd86 O87 2.240 . S
Cd86 O94 2.223 . S
Cd86 O96 2.297 . S
Cd86 O97 2.439 . S
O87 Cd86 2.240 . S
O87 C92 1.279 . S
O88 Cd85 2.297 . S
O88 C90 1.247 . S
O89 Cd85 2.439 . S
O89 C90 1.208 . S
C90 O88 1.247 . S
C90 O89 1.208 . S
C91 O96 1.247 . S
C91 O97 1.208 . S
C92 O84 1.315 . S
C92 O87 1.279 . S
C93 O94 1.315 . S
C93 O95 1.279 . S
O94 Cd86 2.223 . S
O94 C93 1.315 . S
O95 Cd85 2.240 . S
O95 C93 1.279 . S
O96 Cd86 2.297 . S
O96 C91 1.247 . S
O97 Cd86 2.439 . S
O97 C91 1.208 . S
O98 Cd99 2.223 . S
O98 C106 1.315 . S
Cd99 O98 2.223 . S
Cd99 O102 2.297 . S
Cd99 O103 2.439 . S
Cd99 O109 2.240 . S
Cd100 O101 2.240 . S
Cd100 O108 2.223 . S
Cd100 O110 2.297 . S
Cd100 O111 2.439 . S
O101 Cd100 2.240 . S
O101 C106 1.279 . S
O102 Cd99 2.297 . S
O102 C104 1.247 . S
O103 Cd99 2.439 . S
O103 C104 1.208 . S
C104 O102 1.247 . S
C104 O103 1.208 . S
C105 O110 1.247 . S
C105 O111 1.208 . S
C106 O98 1.315 . S
C106 O101 1.279 . S
C107 O108 1.315 . S
C107 O109 1.279 . S
O108 Cd100 2.223 . S
O108 C107 1.315 . S
O109 Cd99 2.240 . S
O109 C107 1.279 . S
O110 Cd100 2.297 . S
O110 C105 1.247 . S
O111 Cd100 2.439 . S
O111 C105 1.208 . S
O112 Cd113 2.223 . S
O112 C120 1.315 . S
Cd113 O112 2.223 . S
Cd113 O116 2.297 . S
Cd113 O117 2.439 . S
Cd113 O123 2.240 . S
Cd114 O115 2.240 . S
Cd114 O122 2.223 . S
Cd114 O124 2.297 . S
Cd114 O125 2.439 . S
O115 Cd114 2.240 . S
O115 C120 1.279 . S
O116 Cd113 2.297 . S
O116 C118 1.247 . S
O117 Cd113 2.439 . S
O117 C118 1.208 . S
C118 O116 1.247 . S
C118 O117 1.208 . S
C119 O124 1.247 . S
C119 O125 1.208 . S
C120 O112 1.315 . S
C120 O115 1.279 . S
C121 O122 1.315 . S
C121 O123 1.279 . S
O122 Cd114 2.223 . S
O122 C121 1.315 . S
O123 Cd113 2.240 . S
O123 C121 1.279 . S
O124 Cd114 2.297 . S
O124 C119 1.247 . S
O125 Cd114 2.439 . S
O125 C119 1.208 . S
O126 Cd127 2.223 . S
O126 C134 1.315 . S
Cd127 O126 2.223 . S
Cd127 O130 2.297 . S
Cd127 O131 2.439 . S
Cd127 O137 2.240 . S
Cd128 O129 2.240 . S
Cd128 O136 2.223 . S
Cd128 O138 2.297 . S
Cd128 O139 2.439 . S
O129 Cd128 2.240 . S
O129 C134 1.279 . S
O130 Cd127 2.297 . S
O130 C132 1.247 . S
O131 Cd127 2.439 . S
O131 C132 1.208 . S
C132 O130 1.247 . S
C132 O131 1.208 . S
C133 O138 1.247 . S
C133 O139 1.208 . S
C134 O126 1.315 . S
C134 O129 1.279 . S
C135 O136 1.315 . S
C135 O137 1.279 . S
O136 Cd128 2.223 . S
O136 C135 1.315 . S
O137 Cd127 2.240 . S
O137 C135 1.279 . S
O138 Cd128 2.297 . S
O138 C133 1.247 . S
O139 Cd128 2.439 . S
O139 C133 1.208 . S
O140 Cd141 2.223 . S
O140 C148 1.315 . S
Cd141 O140 2.223 . S
Cd141 O144 2.297 . S
Cd141 O145 2.439 . S
Cd141 O151 2.240 . S
Cd142 O143 2.240 . S
Cd142 O150 2.223 . S
Cd142 O152 2.297 . S
Cd142 O153 2.439 . S
O143 Cd142 2.240 . S
O143 C148 1.279 . S
O144 Cd141 2.297 . S
O144 C146 1.247 . S
O145 Cd141 2.439 . S
O145 C146 1.208 . S
C146 O144 1.247 . S
C146 O145 1.208 . S
C147 O152 1.247 . S
C147 O153 1.208 . S
C148 O140 1.315 . S
C148 O143 1.279 . S
C149 O150 1.315 . S
C149 O151 1.279 . S
O150 Cd142 2.223 . S
O150 C149 1.315 . S
O151 Cd141 2.240 . S
O151 C149 1.279 . S
O152 Cd142 2.297 . S
O152 C147 1.247 . S
O153 Cd142 2.439 . S
O153 C147 1.208 . S
O154 Cd155 2.223 . S
O154 C162 1.315 . S
Cd155 O154 2.223 . S
Cd155 O158 2.297 . S
Cd155 O159 2.439 . S
Cd155 O165 2.240 . S
Cd156 O157 2.240 . S
Cd156 O164 2.223 . S
Cd156 O166 2.297 . S
Cd156 O167 2.439 . S
O157 Cd156 2.240 . S
O157 C162 1.279 . S
O158 Cd155 2.297 . S
O158 C160 1.247 . S
O159 Cd155 2.439 . S
O159 C160 1.208 . S
C160 O158 1.247 . S
C160 O159 1.208 . S
C161 O166 1.247 . S
C161 O167 1.208 . S
C162 O154 1.315 . S
C162 O157 1.279 . S
C163 O164 1.315 . S
C163 O165 1.279 . S
O164 Cd156 2.223 . S
O164 C163 1.315 . S
O165 Cd155 2.240 . S
O165 C163 1.279 . S
O166 Cd156 2.297 . S
O166 C161 1.247 . S
O167 Cd156 2.439 . S
O167 C161 1.208 . S
O168 Cd169 2.223 . S
O168 C176 1.315 . S
Cd169 O168 2.223 . S
Cd169 O172 2.297 . S
Cd169 O173 2.439 . S
Cd169 O179 2.240 . S
Cd170 O171 2.240 . S
Cd170 O178 2.223 . S
Cd170 O180 2.297 . S
Cd170 O181 2.439 . S
O171 Cd170 2.240 . S
O171 C176 1.279 . S
O172 Cd169 2.297 . S
O172 C174 1.247 . S
O173 Cd169 2.439 . S
O173 C174 1.208 . S
C174 O172 1.247 . S
C174 O173 1.208 . S
C175 O180 1.247 . S
C175 O181 1.208 . S
C176 O168 1.315 . S
C176 O171 1.279 . S
C177 O178 1.315 . S
C177 O179 1.279 . S
O178 Cd170 2.223 . S
O178 C177 1.315 . S
O179 Cd169 2.240 . S
O179 C177 1.279 . S
O180 Cd170 2.297 . S
O180 C175 1.247 . S
O181 Cd170 2.439 . S
O181 C175 1.208 . S
O182 Cd183 2.223 . S
O182 C190 1.315 . S
Cd183 O182 2.223 . S
Cd183 O186 2.297 . S
Cd183 O187 2.439 . S
Cd183 O193 2.240 . S
Cd184 O185 2.240 . S
Cd184 O192 2.223 . S
Cd184 O194 2.297 . S
Cd184 O195 2.439 . S
O185 Cd184 2.240 . S
O185 C190 1.279 . S
O186 Cd183 2.297 . S
O186 C188 1.247 . S
O187 Cd183 2.439 . S
O187 C188 1.208 . S
C188 O186 1.247 . S
C188 O187 1.208 . S
C189 O194 1.247 . S
C189 O195 1.208 . S
C190 O182 1.315 . S
C190 O185 1.279 . S
C191 O192 1.315 . S
C191 O193 1.279 . S
O192 Cd184 2.223 . S
O192 C191 1.315 . S
O193 Cd183 2.240 . S
O193 C191 1.279 . S
O194 Cd184 2.297 . S
O194 C189 1.247 . S
O195 Cd184 2.439 . S
O195 C189 1.208 . S
O196 Cd197 2.223 . S
O196 C204 1.315 . S
Cd197 O196 2.223 . S
Cd197 O200 2.297 . S
Cd197 O201 2.439 . S
Cd197 O207 2.240 . S
Cd198 O199 2.240 . S
Cd198 O206 2.223 . S
Cd198 O208 2.297 . S
Cd198 O209 2.439 . S
O199 Cd198 2.240 . S
O199 C204 1.279 . S
O200 Cd197 2.297 . S
O200 C202 1.247 . S
O201 Cd197 2.439 . S
O201 C202 1.208 . S
C202 O200 1.247 . S
C202 O201 1.208 . S
C203 O208 1.247 . S
C203 O209 1.208 . S
C204 O196 1.315 . S
C204 O199 1.279 . S
C205 O206 1.315 . S
C205 O207 1.279 . S
O206 Cd198 2.223 . S
O206 C205 1.315 . S
O207 Cd197 2.240 . S
O207 C205 1.279 . S
O208 Cd198 2.297 . S
O208 C203 1.247 . S
O209 Cd198 2.439 . S
O209 C203 1.208 . S
O210 Cd211 2.223 . S
O210 C218 1.315 . S
Cd211 O210 2.223 . S
Cd211 O214 2.297 . S
Cd211 O215 2.439 . S
Cd211 O221 2.240 . S
Cd212 O213 2.240 . S
Cd212 O220 2.223 . S
Cd212 O222 2.297 . S
Cd212 O223 2.439 . S
O213 Cd212 2.240 . S
O213 C218 1.279 . S
O214 Cd211 2.297 . S
O214 C216 1.247 . S
O215 Cd211 2.439 . S
O215 C216 1.208 . S
C216 O214 1.247 . S
C216 O215 1.208 . S
C217 O222 1.247 . S
C217 O223 1.208 . S
C218 O210 1.315 . S
C218 O213 1.279 . S
C219 O220 1.315 . S
C219 O221 1.279 . S
O220 Cd212 2.223 . S
O220 C219 1.315 . S
O221 Cd211 2.240 . S
O221 C219 1.279 . S
O222 Cd212 2.297 . S
O222 C217 1.247 . S
O223 Cd212 2.439 . S
O223 C217 1.208 . S
H224 C232 0.929 . S
H225 C234 0.930 . S
H226 C236 0.930 . S
H227 C239 0.929 . S
H228 C242 0.930 . S
H229 C244 0.960 . S
H230 C244 0.960 . S
H231 C244 0.960 . S
C232 H224 0.929 . S
C232 C233 1.377 . S
C232 C234 1.384 . S
C233 C232 1.377 . S
C233 C239 1.390 . S
C234 H225 0.930 . S
C234 C232 1.384 . S
C234 C235 1.372 . S
C235 C234 1.372 . S
C235 C236 1.400 . S
C235 C240 1.490 . S
C236 H226 0.930 . S
C236 C235 1.400 . S
C236 C239 1.386 . S
H237 C253 0.930 . S
H238 C254 0.931 . S
C239 H227 0.929 . S
C239 C233 1.390 . S
C239 C236 1.386 . S
C240 C235 1.490 . S
C240 C242 1.395 . S
C240 C243 1.403 . S
H241 C247 0.930 . S
C242 H228 0.930 . S
C242 C240 1.395 . S
C242 C245 1.403 . S
C243 C240 1.403 . S
C243 C244 1.524 . S
C243 C247 1.400 . S
C244 H229 0.960 . S
C244 H230 0.960 . S
C244 H231 0.960 . S
C244 C243 1.524 . S
C245 C242 1.403 . S
C245 C246 1.392 . S
C245 C249 1.495 . S
C246 C245 1.392 . S
C246 C247 1.385 . S
C246 C248 1.478 . S
C247 H241 0.930 . S
C247 C243 1.400 . S
C247 C246 1.385 . S
C248 C246 1.478 . S
C248 C250 1.381 . S
C248 C254 1.383 . S
C249 C245 1.495 . S
C249 H255 0.959 . S
C249 H256 0.961 . S
C249 H257 0.960 . S
C250 C248 1.381 . S
C250 C251 1.394 . S
C250 H258 0.930 . S
C251 C250 1.394 . S
C251 C252 1.383 . S
C251 H259 0.929 . S
C252 C251 1.383 . S
C252 C253 1.377 . S
C253 H237 0.930 . S
C253 C252 1.377 . S
C253 C254 1.379 . S
C254 H238 0.931 . S
C254 C248 1.383 . S
C254 C253 1.379 . S
H255 C249 0.959 . S
H256 C249 0.961 . S
H257 C249 0.960 . S
H258 C250 0.930 . S
H259 C251 0.929 . S
H260 C268 0.929 . S
H261 C270 0.930 . S
H262 C272 0.930 . S
H263 C275 0.929 . S
H264 C278 0.930 . S
H265 C280 0.960 . S
H266 C280 0.960 . S
H267 C280 0.960 . S
C268 H260 0.929 . S
C268 C269 1.377 . S
C268 C270 1.384 . S
C269 C268 1.377 . S
C269 C275 1.390 . S
C270 H261 0.930 . S
C270 C268 1.384 . S
C270 C271 1.372 . S
C271 C270 1.372 . S
C271 C272 1.400 . S
C271 C276 1.490 . S
C272 H262 0.930 . S
C272 C271 1.400 . S
C272 C275 1.386 . S
H273 C289 0.930 . S
H274 C290 0.931 . S
C275 H263 0.929 . S
C275 C269 1.390 . S
C275 C272 1.386 . S
C276 C271 1.490 . S
C276 C278 1.395 . S
C276 C279 1.403 . S
H277 C283 0.930 . S
C278 H264 0.930 . S
C278 C276 1.395 . S
C278 C281 1.403 . S
C279 C276 1.403 . S
C279 C280 1.524 . S
C279 C283 1.400 . S
C280 H265 0.960 . S
C280 H266 0.960 . S
C280 H267 0.960 . S
C280 C279 1.524 . S
C281 C278 1.403 . S
C281 C282 1.392 . S
C281 C285 1.495 . S
C282 C281 1.392 . S
C282 C283 1.385 . S
C282 C284 1.478 . S
C283 H277 0.930 . S
C283 C279 1.400 . S
C283 C282 1.385 . S
C284 C282 1.478 . S
C284 C286 1.381 . S
C284 C290 1.383 . S
C285 C281 1.495 . S
C285 H291 0.959 . S
C285 H292 0.961 . S
C285 H293 0.960 . S
C286 C284 1.381 . S
C286 C287 1.394 . S
C286 H294 0.930 . S
C287 C286 1.394 . S
C287 C288 1.383 . S
C287 H295 0.929 . S
C288 C287 1.383 . S
C288 C289 1.377 . S
C289 H273 0.930 . S
C289 C288 1.377 . S
C289 C290 1.379 . S
C290 H274 0.931 . S
C290 C284 1.383 . S
C290 C289 1.379 . S
H291 C285 0.959 . S
H292 C285 0.961 . S
H293 C285 0.960 . S
H294 C286 0.930 . S
H295 C287 0.929 . S
H296 C304 0.929 . S
H297 C306 0.930 . S
H298 C308 0.930 . S
H299 C311 0.929 . S
H300 C314 0.930 . S
H301 C316 0.960 . S
H302 C316 0.960 . S
H303 C316 0.960 . S
C304 H296 0.929 . S
C304 C305 1.377 . S
C304 C306 1.384 . S
C305 C304 1.377 . S
C305 C311 1.390 . S
C306 H297 0.930 . S
C306 C304 1.384 . S
C306 C307 1.372 . S
C307 C306 1.372 . S
C307 C308 1.400 . S
C307 C312 1.490 . S
C308 H298 0.930 . S
C308 C307 1.400 . S
C308 C311 1.386 . S
H309 C325 0.930 . S
H310 C326 0.931 . S
C311 H299 0.929 . S
C311 C305 1.390 . S
C311 C308 1.386 . S
C312 C307 1.490 . S
C312 C314 1.395 . S
C312 C315 1.403 . S
H313 C319 0.930 . S
C314 H300 0.930 . S
C314 C312 1.395 . S
C314 C317 1.403 . S
C315 C312 1.403 . S
C315 C316 1.524 . S
C315 C319 1.400 . S
C316 H301 0.960 . S
C316 H302 0.960 . S
C316 H303 0.960 . S
C316 C315 1.524 . S
C317 C314 1.403 . S
C317 C318 1.392 . S
C317 C321 1.495 . S
C318 C317 1.392 . S
C318 C319 1.385 . S
C318 C320 1.478 . S
C319 H313 0.930 . S
C319 C315 1.400 . S
C319 C318 1.385 . S
C320 C318 1.478 . S
C320 C322 1.381 . S
C320 C326 1.383 . S
C321 C317 1.495 . S
C321 H327 0.959 . S
C321 H328 0.961 . S
C321 H329 0.960 . S
C322 C320 1.381 . S
C322 C323 1.394 . S
C322 H330 0.930 . S
C323 C322 1.394 . S
C323 C324 1.383 . S
C323 H331 0.929 . S
C324 C323 1.383 . S
C324 C325 1.377 . S
C325 H309 0.930 . S
C325 C324 1.377 . S
C325 C326 1.379 . S
C326 H310 0.931 . S
C326 C320 1.383 . S
C326 C325 1.379 . S
H327 C321 0.959 . S
H328 C321 0.961 . S
H329 C321 0.960 . S
H330 C322 0.930 . S
H331 C323 0.929 . S
H332 C340 0.929 . S
H333 C342 0.930 . S
H334 C344 0.930 . S
H335 C347 0.929 . S
H336 C350 0.930 . S
H337 C352 0.960 . S
H338 C352 0.960 . S
H339 C352 0.960 . S
C340 H332 0.929 . S
C340 C341 1.377 . S
C340 C342 1.384 . S
C341 C340 1.377 . S
C341 C347 1.390 . S
C342 H333 0.930 . S
C342 C340 1.384 . S
C342 C343 1.372 . S
C343 C342 1.372 . S
C343 C344 1.400 . S
C343 C348 1.490 . S
C344 H334 0.930 . S
C344 C343 1.400 . S
C344 C347 1.386 . S
H345 C361 0.930 . S
H346 C362 0.931 . S
C347 H335 0.929 . S
C347 C341 1.390 . S
C347 C344 1.386 . S
C348 C343 1.490 . S
C348 C350 1.395 . S
C348 C351 1.403 . S
H349 C355 0.930 . S
C350 H336 0.930 . S
C350 C348 1.395 . S
C350 C353 1.403 . S
C351 C348 1.403 . S
C351 C352 1.524 . S
C351 C355 1.400 . S
C352 H337 0.960 . S
C352 H338 0.960 . S
C352 H339 0.960 . S
C352 C351 1.524 . S
C353 C350 1.403 . S
C353 C354 1.392 . S
C353 C357 1.495 . S
C354 C353 1.392 . S
C354 C355 1.385 . S
C354 C356 1.478 . S
C355 H349 0.930 . S
C355 C351 1.400 . S
C355 C354 1.385 . S
C356 C354 1.478 . S
C356 C358 1.381 . S
C356 C362 1.383 . S
C357 C353 1.495 . S
C357 H363 0.959 . S
C357 H364 0.961 . S
C357 H365 0.960 . S
C358 C356 1.381 . S
C358 C359 1.394 . S
C358 H366 0.930 . S
C359 C358 1.394 . S
C359 C360 1.383 . S
C359 H367 0.929 . S
C360 C359 1.383 . S
C360 C361 1.377 . S
C361 H345 0.930 . S
C361 C360 1.377 . S
C361 C362 1.379 . S
C362 H346 0.931 . S
C362 C356 1.383 . S
C362 C361 1.379 . S
H363 C357 0.959 . S
H364 C357 0.961 . S
H365 C357 0.960 . S
H366 C358 0.930 . S
H367 C359 0.929 . S
H368 C376 0.929 . S
H369 C378 0.930 . S
H370 C380 0.930 . S
H371 C383 0.929 . S
H372 C386 0.930 . S
H373 C388 0.960 . S
H374 C388 0.960 . S
H375 C388 0.960 . S
C376 H368 0.929 . S
C376 C377 1.377 . S
C376 C378 1.384 . S
C377 C376 1.377 . S
C377 C383 1.390 . S
C378 H369 0.930 . S
C378 C376 1.384 . S
C378 C379 1.372 . S
C379 C378 1.372 . S
C379 C380 1.400 . S
C379 C384 1.490 . S
C380 H370 0.930 . S
C380 C379 1.400 . S
C380 C383 1.386 . S
H381 C397 0.930 . S
H382 C398 0.931 . S
C383 H371 0.929 . S
C383 C377 1.390 . S
C383 C380 1.386 . S
C384 C379 1.490 . S
C384 C386 1.395 . S
C384 C387 1.403 . S
H385 C391 0.930 . S
C386 H372 0.930 . S
C386 C384 1.395 . S
C386 C389 1.403 . S
C387 C384 1.403 . S
C387 C388 1.524 . S
C387 C391 1.400 . S
C388 H373 0.960 . S
C388 H374 0.960 . S
C388 H375 0.960 . S
C388 C387 1.524 . S
C389 C386 1.403 . S
C389 C390 1.392 . S
C389 C393 1.495 . S
C390 C389 1.392 . S
C390 C391 1.385 . S
C390 C392 1.478 . S
C391 H385 0.930 . S
C391 C387 1.400 . S
C391 C390 1.385 . S
C392 C390 1.478 . S
C392 C394 1.381 . S
C392 C398 1.383 . S
C393 C389 1.495 . S
C393 H399 0.959 . S
C393 H400 0.961 . S
C393 H401 0.960 . S
C394 C392 1.381 . S
C394 C395 1.394 . S
C394 H402 0.930 . S
C395 C394 1.394 . S
C395 C396 1.383 . S
C395 H403 0.929 . S
C396 C395 1.383 . S
C396 C397 1.377 . S
C397 H381 0.930 . S
C397 C396 1.377 . S
C397 C398 1.379 . S
C398 H382 0.931 . S
C398 C392 1.383 . S
C398 C397 1.379 . S
H399 C393 0.959 . S
H400 C393 0.961 . S
H401 C393 0.960 . S
H402 C394 0.930 . S
H403 C395 0.929 . S
H404 C412 0.929 . S
H405 C414 0.930 . S
H406 C416 0.930 . S
H407 C419 0.929 . S
H408 C422 0.930 . S
H409 C424 0.960 . S
H410 C424 0.960 . S
H411 C424 0.960 . S
C412 H404 0.929 . S
C412 C413 1.377 . S
C412 C414 1.384 . S
C413 C412 1.377 . S
C413 C419 1.390 . S
C414 H405 0.930 . S
C414 C412 1.384 . S
C414 C415 1.372 . S
C415 C414 1.372 . S
C415 C416 1.400 . S
C415 C420 1.490 . S
C416 H406 0.930 . S
C416 C415 1.400 . S
C416 C419 1.386 . S
H417 C433 0.930 . S
H418 C434 0.931 . S
C419 H407 0.929 . S
C419 C413 1.390 . S
C419 C416 1.386 . S
C420 C415 1.490 . S
C420 C422 1.395 . S
C420 C423 1.403 . S
H421 C427 0.930 . S
C422 H408 0.930 . S
C422 C420 1.395 . S
C422 C425 1.403 . S
C423 C420 1.403 . S
C423 C424 1.524 . S
C423 C427 1.400 . S
C424 H409 0.960 . S
C424 H410 0.960 . S
C424 H411 0.960 . S
C424 C423 1.524 . S
C425 C422 1.403 . S
C425 C426 1.392 . S
C425 C429 1.495 . S
C426 C425 1.392 . S
C426 C427 1.385 . S
C426 C428 1.478 . S
C427 H421 0.930 . S
C427 C423 1.400 . S
C427 C426 1.385 . S
C428 C426 1.478 . S
C428 C430 1.381 . S
C428 C434 1.383 . S
C429 C425 1.495 . S
C429 H435 0.959 . S
C429 H436 0.961 . S
C429 H437 0.960 . S
C430 C428 1.381 . S
C430 C431 1.394 . S
C430 H438 0.930 . S
C431 C430 1.394 . S
C431 C432 1.383 . S
C431 H439 0.929 . S
C432 C431 1.383 . S
C432 C433 1.377 . S
C433 H417 0.930 . S
C433 C432 1.377 . S
C433 C434 1.379 . S
C434 H418 0.931 . S
C434 C428 1.383 . S
C434 C433 1.379 . S
H435 C429 0.959 . S
H436 C429 0.961 . S
H437 C429 0.960 . S
H438 C430 0.930 . S
H439 C431 0.929 . S
H440 C448 0.929 . S
H441 C450 0.930 . S
H442 C452 0.930 . S
H443 C455 0.929 . S
H444 C458 0.930 . S
H445 C460 0.960 . S
H446 C460 0.960 . S
H447 C460 0.960 . S
C448 H440 0.929 . S
C448 C449 1.377 . S
C448 C450 1.384 . S
C449 C448 1.377 . S
C449 C455 1.390 . S
C450 H441 0.930 . S
C450 C448 1.384 . S
C450 C451 1.372 . S
C451 C450 1.372 . S
C451 C452 1.400 . S
C451 C456 1.490 . S
C452 H442 0.930 . S
C452 C451 1.400 . S
C452 C455 1.386 . S
H453 C469 0.930 . S
H454 C470 0.931 . S
C455 H443 0.929 . S
C455 C449 1.390 . S
C455 C452 1.386 . S
C456 C451 1.490 . S
C456 C458 1.395 . S
C456 C459 1.403 . S
H457 C463 0.930 . S
C458 H444 0.930 . S
C458 C456 1.395 . S
C458 C461 1.403 . S
C459 C456 1.403 . S
C459 C460 1.524 . S
C459 C463 1.400 . S
C460 H445 0.960 . S
C460 H446 0.960 . S
C460 H447 0.960 . S
C460 C459 1.524 . S
C461 C458 1.403 . S
C461 C462 1.392 . S
C461 C465 1.495 . S
C462 C461 1.392 . S
C462 C463 1.385 . S
C462 C464 1.478 . S
C463 H457 0.930 . S
C463 C459 1.400 . S
C463 C462 1.385 . S
C464 C462 1.478 . S
C464 C466 1.381 . S
C464 C470 1.383 . S
C465 C461 1.495 . S
C465 H471 0.959 . S
C465 H472 0.961 . S
C465 H473 0.960 . S
C466 C464 1.381 . S
C466 C467 1.394 . S
C466 H474 0.930 . S
C467 C466 1.394 . S
C467 C468 1.383 . S
C467 H475 0.929 . S
C468 C467 1.383 . S
C468 C469 1.377 . S
C469 H453 0.930 . S
C469 C468 1.377 . S
C469 C470 1.379 . S
C470 H454 0.931 . S
C470 C464 1.383 . S
C470 C469 1.379 . S
H471 C465 0.959 . S
H472 C465 0.961 . S
H473 C465 0.960 . S
H474 C466 0.930 . S
H475 C467 0.929 . S
H476 C484 0.929 . S
H477 C486 0.930 . S
H478 C488 0.930 . S
H479 C491 0.929 . S
H480 C494 0.930 . S
H481 C496 0.960 . S
H482 C496 0.960 . S
H483 C496 0.960 . S
C484 H476 0.929 . S
C484 C485 1.377 . S
C484 C486 1.384 . S
C485 C484 1.377 . S
C485 C491 1.390 . S
C486 H477 0.930 . S
C486 C484 1.384 . S
C486 C487 1.372 . S
C487 C486 1.372 . S
C487 C488 1.400 . S
C487 C492 1.490 . S
C488 H478 0.930 . S
C488 C487 1.400 . S
C488 C491 1.386 . S
H489 C505 0.930 . S
H490 C506 0.931 . S
C491 H479 0.929 . S
C491 C485 1.390 . S
C491 C488 1.386 . S
C492 C487 1.490 . S
C492 C494 1.395 . S
C492 C495 1.403 . S
H493 C499 0.930 . S
C494 H480 0.930 . S
C494 C492 1.395 . S
C494 C497 1.403 . S
C495 C492 1.403 . S
C495 C496 1.524 . S
C495 C499 1.400 . S
C496 H481 0.960 . S
C496 H482 0.960 . S
C496 H483 0.960 . S
C496 C495 1.524 . S
C497 C494 1.403 . S
C497 C498 1.392 . S
C497 C501 1.495 . S
C498 C497 1.392 . S
C498 C499 1.385 . S
C498 C500 1.478 . S
C499 H493 0.930 . S
C499 C495 1.400 . S
C499 C498 1.385 . S
C500 C498 1.478 . S
C500 C502 1.381 . S
C500 C506 1.383 . S
C501 C497 1.495 . S
C501 H507 0.959 . S
C501 H508 0.961 . S
C501 H509 0.960 . S
C502 C500 1.381 . S
C502 C503 1.394 . S
C502 H510 0.930 . S
C503 C502 1.394 . S
C503 C504 1.383 . S
C503 H511 0.929 . S
C504 C503 1.383 . S
C504 C505 1.377 . S
C505 H489 0.930 . S
C505 C504 1.377 . S
C505 C506 1.379 . S
C506 H490 0.931 . S
C506 C500 1.383 . S
C506 C505 1.379 . S
H507 C501 0.959 . S
H508 C501 0.961 . S
H509 C501 0.960 . S
H510 C502 0.930 . S
H511 C503 0.929 . S
H512 C520 0.929 . S
H513 C522 0.930 . S
H514 C524 0.930 . S
H515 C527 0.929 . S
H516 C530 0.930 . S
H517 C532 0.960 . S
H518 C532 0.960 . S
H519 C532 0.960 . S
C520 H512 0.929 . S
C520 C521 1.377 . S
C520 C522 1.384 . S
C521 C520 1.377 . S
C521 C527 1.390 . S
C522 H513 0.930 . S
C522 C520 1.384 . S
C522 C523 1.372 . S
C523 C522 1.372 . S
C523 C524 1.400 . S
C523 C528 1.490 . S
C524 H514 0.930 . S
C524 C523 1.400 . S
C524 C527 1.386 . S
H525 C541 0.930 . S
H526 C542 0.931 . S
C527 H515 0.929 . S
C527 C521 1.390 . S
C527 C524 1.386 . S
C528 C523 1.490 . S
C528 C530 1.395 . S
C528 C531 1.403 . S
H529 C535 0.930 . S
C530 H516 0.930 . S
C530 C528 1.395 . S
C530 C533 1.403 . S
C531 C528 1.403 . S
C531 C532 1.524 . S
C531 C535 1.400 . S
C532 H517 0.960 . S
C532 H518 0.960 . S
C532 H519 0.960 . S
C532 C531 1.524 . S
C533 C530 1.403 . S
C533 C534 1.392 . S
C533 C537 1.495 . S
C534 C533 1.392 . S
C534 C535 1.385 . S
C534 C536 1.478 . S
C535 H529 0.930 . S
C535 C531 1.400 . S
C535 C534 1.385 . S
C536 C534 1.478 . S
C536 C538 1.381 . S
C536 C542 1.383 . S
C537 C533 1.495 . S
C537 H543 0.959 . S
C537 H544 0.961 . S
C537 H545 0.960 . S
C538 C536 1.381 . S
C538 C539 1.394 . S
C538 H546 0.930 . S
C539 C538 1.394 . S
C539 C540 1.383 . S
C539 H547 0.929 . S
C540 C539 1.383 . S
C540 C541 1.377 . S
C541 H525 0.930 . S
C541 C540 1.377 . S
C541 C542 1.379 . S
C542 H526 0.931 . S
C542 C536 1.383 . S
C542 C541 1.379 . S
H543 C537 0.959 . S
H544 C537 0.961 . S
H545 C537 0.960 . S
H546 C538 0.930 . S
H547 C539 0.929 . S
H548 C556 0.929 . S
H549 C558 0.930 . S
H550 C560 0.930 . S
H551 C563 0.929 . S
H552 C566 0.930 . S
H553 C568 0.960 . S
H554 C568 0.960 . S
H555 C568 0.960 . S
C556 H548 0.929 . S
C556 C557 1.377 . S
C556 C558 1.384 . S
C557 C556 1.377 . S
C557 C563 1.390 . S
C558 H549 0.930 . S
C558 C556 1.384 . S
C558 C559 1.372 . S
C559 C558 1.372 . S
C559 C560 1.400 . S
C559 C564 1.490 . S
C560 H550 0.930 . S
C560 C559 1.400 . S
C560 C563 1.386 . S
H561 C577 0.930 . S
H562 C578 0.931 . S
C563 H551 0.929 . S
C563 C557 1.390 . S
C563 C560 1.386 . S
C564 C559 1.490 . S
C564 C566 1.395 . S
C564 C567 1.403 . S
H565 C571 0.930 . S
C566 H552 0.930 . S
C566 C564 1.395 . S
C566 C569 1.403 . S
C567 C564 1.403 . S
C567 C568 1.524 . S
C567 C571 1.400 . S
C568 H553 0.960 . S
C568 H554 0.960 . S
C568 H555 0.960 . S
C568 C567 1.524 . S
C569 C566 1.403 . S
C569 C570 1.392 . S
C569 C573 1.495 . S
C570 C569 1.392 . S
C570 C571 1.385 . S
C570 C572 1.478 . S
C571 H565 0.930 . S
C571 C567 1.400 . S
C571 C570 1.385 . S
C572 C570 1.478 . S
C572 C574 1.381 . S
C572 C578 1.383 . S
C573 C569 1.495 . S
C573 H579 0.959 . S
C573 H580 0.961 . S
C573 H581 0.960 . S
C574 C572 1.381 . S
C574 C575 1.394 . S
C574 H582 0.930 . S
C575 C574 1.394 . S
C575 C576 1.383 . S
C575 H583 0.929 . S
C576 C575 1.383 . S
C576 C577 1.377 . S
C577 H561 0.930 . S
C577 C576 1.377 . S
C577 C578 1.379 . S
C578 H562 0.931 . S
C578 C572 1.383 . S
C578 C577 1.379 . S
H579 C573 0.959 . S
H580 C573 0.961 . S
H581 C573 0.960 . S
H582 C574 0.930 . S
H583 C575 0.929 . S
H584 C592 0.929 . S
H585 C594 0.930 . S
H586 C596 0.930 . S
H587 C599 0.929 . S
H588 C602 0.930 . S
H589 C604 0.960 . S
H590 C604 0.960 . S
H591 C604 0.960 . S
C592 H584 0.929 . S
C592 C593 1.377 . S
C592 C594 1.384 . S
C593 C592 1.377 . S
C593 C599 1.390 . S
C594 H585 0.930 . S
C594 C592 1.384 . S
C594 C595 1.372 . S
C595 C594 1.372 . S
C595 C596 1.400 . S
C595 C600 1.490 . S
C596 H586 0.930 . S
C596 C595 1.400 . S
C596 C599 1.386 . S
H597 C613 0.930 . S
H598 C614 0.931 . S
C599 H587 0.929 . S
C599 C593 1.390 . S
C599 C596 1.386 . S
C600 C595 1.490 . S
C600 C602 1.395 . S
C600 C603 1.403 . S
H601 C607 0.930 . S
C602 H588 0.930 . S
C602 C600 1.395 . S
C602 C605 1.403 . S
C603 C600 1.403 . S
C603 C604 1.524 . S
C603 C607 1.400 . S
C604 H589 0.960 . S
C604 H590 0.960 . S
C604 H591 0.960 . S
C604 C603 1.524 . S
C605 C602 1.403 . S
C605 C606 1.392 . S
C605 C609 1.495 . S
C606 C605 1.392 . S
C606 C607 1.385 . S
C606 C608 1.478 . S
C607 H601 0.930 . S
C607 C603 1.400 . S
C607 C606 1.385 . S
C608 C606 1.478 . S
C608 C610 1.381 . S
C608 C614 1.383 . S
C609 C605 1.495 . S
C609 H615 0.959 . S
C609 H616 0.961 . S
C609 H617 0.960 . S
C610 C608 1.381 . S
C610 C611 1.394 . S
C610 H618 0.930 . S
C611 C610 1.394 . S
C611 C612 1.383 . S
C611 H619 0.929 . S
C612 C611 1.383 . S
C612 C613 1.377 . S
C613 H597 0.930 . S
C613 C612 1.377 . S
C613 C614 1.379 . S
C614 H598 0.931 . S
C614 C608 1.383 . S
C614 C613 1.379 . S
H615 C609 0.959 . S
H616 C609 0.961 . S
H617 C609 0.960 . S
H618 C610 0.930 . S
H619 C611 0.929 . S
H620 C628 0.929 . S
H621 C630 0.930 . S
H622 C632 0.930 . S
H623 C635 0.929 . S
H624 C638 0.930 . S
H625 C640 0.960 . S
H626 C640 0.960 . S
H627 C640 0.960 . S
C628 H620 0.929 . S
C628 C629 1.377 . S
C628 C630 1.384 . S
C629 C628 1.377 . S
C629 C635 1.390 . S
C630 H621 0.930 . S
C630 C628 1.384 . S
C630 C631 1.372 . S
C631 C630 1.372 . S
C631 C632 1.400 . S
C631 C636 1.490 . S
C632 H622 0.930 . S
C632 C631 1.400 . S
C632 C635 1.386 . S
H633 C649 0.930 . S
H634 C650 0.931 . S
C635 H623 0.929 . S
C635 C629 1.390 . S
C635 C632 1.386 . S
C636 C631 1.490 . S
C636 C638 1.395 . S
C636 C639 1.403 . S
H637 C643 0.930 . S
C638 H624 0.930 . S
C638 C636 1.395 . S
C638 C641 1.403 . S
C639 C636 1.403 . S
C639 C640 1.524 . S
C639 C643 1.400 . S
C640 H625 0.960 . S
C640 H626 0.960 . S
C640 H627 0.960 . S
C640 C639 1.524 . S
C641 C638 1.403 . S
C641 C642 1.392 . S
C641 C645 1.495 . S
C642 C641 1.392 . S
C642 C643 1.385 . S
C642 C644 1.478 . S
C643 H637 0.930 . S
C643 C639 1.400 . S
C643 C642 1.385 . S
C644 C642 1.478 . S
C644 C646 1.381 . S
C644 C650 1.383 . S
C645 C641 1.495 . S
C645 H651 0.959 . S
C645 H652 0.961 . S
C645 H653 0.960 . S
C646 C644 1.381 . S
C646 C647 1.394 . S
C646 H654 0.930 . S
C647 C646 1.394 . S
C647 C648 1.383 . S
C647 H655 0.929 . S
C648 C647 1.383 . S
C648 C649 1.377 . S
C649 H633 0.930 . S
C649 C648 1.377 . S
C649 C650 1.379 . S
C650 H634 0.931 . S
C650 C644 1.383 . S
C650 C649 1.379 . S
H651 C645 0.959 . S
H652 C645 0.961 . S
H653 C645 0.960 . S
H654 C646 0.930 . S
H655 C647 0.929 . S
H656 C664 0.929 . S
H657 C666 0.930 . S
H658 C668 0.930 . S
H659 C671 0.929 . S
H660 C674 0.930 . S
H661 C676 0.960 . S
H662 C676 0.960 . S
H663 C676 0.960 . S
C664 H656 0.929 . S
C664 C665 1.377 . S
C664 C666 1.384 . S
C665 C664 1.377 . S
C665 C671 1.390 . S
C666 H657 0.930 . S
C666 C664 1.384 . S
C666 C667 1.372 . S
C667 C666 1.372 . S
C667 C668 1.400 . S
C667 C672 1.490 . S
C668 H658 0.930 . S
C668 C667 1.400 . S
C668 C671 1.386 . S
H669 C685 0.930 . S
H670 C686 0.931 . S
C671 H659 0.929 . S
C671 C665 1.390 . S
C671 C668 1.386 . S
C672 C667 1.490 . S
C672 C674 1.395 . S
C672 C675 1.403 . S
H673 C679 0.930 . S
C674 H660 0.930 . S
C674 C672 1.395 . S
C674 C677 1.403 . S
C675 C672 1.403 . S
C675 C676 1.524 . S
C675 C679 1.400 . S
C676 H661 0.960 . S
C676 H662 0.960 . S
C676 H663 0.960 . S
C676 C675 1.524 . S
C677 C674 1.403 . S
C677 C678 1.392 . S
C677 C681 1.495 . S
C678 C677 1.392 . S
C678 C679 1.385 . S
C678 C680 1.478 . S
C679 H673 0.930 . S
C679 C675 1.400 . S
C679 C678 1.385 . S
C680 C678 1.478 . S
C680 C682 1.381 . S
C680 C686 1.383 . S
C681 C677 1.495 . S
C681 H687 0.959 . S
C681 H688 0.961 . S
C681 H689 0.960 . S
C682 C680 1.381 . S
C682 C683 1.394 . S
C682 H690 0.930 . S
C683 C682 1.394 . S
C683 C684 1.383 . S
C683 H691 0.929 . S
C684 C683 1.383 . S
C684 C685 1.377 . S
C685 H669 0.930 . S
C685 C684 1.377 . S
C685 C686 1.379 . S
C686 H670 0.931 . S
C686 C680 1.383 . S
C686 C685 1.379 . S
H687 C681 0.959 . S
H688 C681 0.961 . S
H689 C681 0.960 . S
H690 C682 0.930 . S
H691 C683 0.929 . S
H692 C700 0.929 . S
H693 C702 0.930 . S
H694 C704 0.930 . S
H695 C707 0.929 . S
H696 C710 0.930 . S
H697 C712 0.960 . S
H698 C712 0.960 . S
H699 C712 0.960 . S
C700 H692 0.929 . S
C700 C701 1.377 . S
C700 C702 1.384 . S
C701 C700 1.377 . S
C701 C707 1.390 . S
C702 H693 0.930 . S
C702 C700 1.384 . S
C702 C703 1.372 . S
C703 C702 1.372 . S
C703 C704 1.400 . S
C703 C708 1.490 . S
C704 H694 0.930 . S
C704 C703 1.400 . S
C704 C707 1.386 . S
H705 C721 0.930 . S
H706 C722 0.931 . S
C707 H695 0.929 . S
C707 C701 1.390 . S
C707 C704 1.386 . S
C708 C703 1.490 . S
C708 C710 1.395 . S
C708 C711 1.403 . S
H709 C715 0.930 . S
C710 H696 0.930 . S
C710 C708 1.395 . S
C710 C713 1.403 . S
C711 C708 1.403 . S
C711 C712 1.524 . S
C711 C715 1.400 . S
C712 H697 0.960 . S
C712 H698 0.960 . S
C712 H699 0.960 . S
C712 C711 1.524 . S
C713 C710 1.403 . S
C713 C714 1.392 . S
C713 C717 1.495 . S
C714 C713 1.392 . S
C714 C715 1.385 . S
C714 C716 1.478 . S
C715 H709 0.930 . S
C715 C711 1.400 . S
C715 C714 1.385 . S
C716 C714 1.478 . S
C716 C718 1.381 . S
C716 C722 1.383 . S
C717 C713 1.495 . S
C717 H723 0.959 . S
C717 H724 0.961 . S
C717 H725 0.960 . S
C718 C716 1.381 . S
C718 C719 1.394 . S
C718 H726 0.930 . S
C719 C718 1.394 . S
C719 C720 1.383 . S
C719 H727 0.929 . S
C720 C719 1.383 . S
C720 C721 1.377 . S
C721 H705 0.930 . S
C721 C720 1.377 . S
C721 C722 1.379 . S
C722 H706 0.931 . S
C722 C716 1.383 . S
C722 C721 1.379 . S
H723 C717 0.959 . S
H724 C717 0.961 . S
H725 C717 0.960 . S
H726 C718 0.930 . S
H727 C719 0.929 . S
H728 C736 0.929 . S
H729 C738 0.930 . S
H730 C740 0.930 . S
H731 C743 0.929 . S
H732 C746 0.930 . S
H733 C748 0.960 . S
H734 C748 0.960 . S
H735 C748 0.960 . S
C736 H728 0.929 . S
C736 C737 1.377 . S
C736 C738 1.384 . S
C737 C736 1.377 . S
C737 C743 1.390 . S
C738 H729 0.930 . S
C738 C736 1.384 . S
C738 C739 1.372 . S
C739 C738 1.372 . S
C739 C740 1.400 . S
C739 C744 1.490 . S
C740 H730 0.930 . S
C740 C739 1.400 . S
C740 C743 1.386 . S
H741 C757 0.930 . S
H742 C758 0.931 . S
C743 H731 0.929 . S
C743 C737 1.390 . S
C743 C740 1.386 . S
C744 C739 1.490 . S
C744 C746 1.395 . S
C744 C747 1.403 . S
H745 C751 0.930 . S
C746 H732 0.930 . S
C746 C744 1.395 . S
C746 C749 1.403 . S
C747 C744 1.403 . S
C747 C748 1.524 . S
C747 C751 1.400 . S
C748 H733 0.960 . S
C748 H734 0.960 . S
C748 H735 0.960 . S
C748 C747 1.524 . S
C749 C746 1.403 . S
C749 C750 1.392 . S
C749 C753 1.495 . S
C750 C749 1.392 . S
C750 C751 1.385 . S
C750 C752 1.478 . S
C751 H745 0.930 . S
C751 C747 1.400 . S
C751 C750 1.385 . S
C752 C750 1.478 . S
C752 C754 1.381 . S
C752 C758 1.383 . S
C753 C749 1.495 . S
C753 H759 0.959 . S
C753 H760 0.961 . S
C753 H761 0.960 . S
C754 C752 1.381 . S
C754 C755 1.394 . S
C754 H762 0.930 . S
C755 C754 1.394 . S
C755 C756 1.383 . S
C755 H763 0.929 . S
C756 C755 1.383 . S
C756 C757 1.377 . S
C757 H741 0.930 . S
C757 C756 1.377 . S
C757 C758 1.379 . S
C758 H742 0.931 . S
C758 C752 1.383 . S
C758 C757 1.379 . S
H759 C753 0.959 . S
H760 C753 0.961 . S
H761 C753 0.960 . S
H762 C754 0.930 . S
H763 C755 0.929 . S
H764 C772 0.929 . S
H765 C774 0.930 . S
H766 C776 0.930 . S
H767 C779 0.929 . S
H768 C782 0.930 . S
H769 C784 0.960 . S
H770 C784 0.960 . S
H771 C784 0.960 . S
C772 H764 0.929 . S
C772 C773 1.377 . S
C772 C774 1.384 . S
C773 C772 1.377 . S
C773 C779 1.390 . S
C774 H765 0.930 . S
C774 C772 1.384 . S
C774 C775 1.372 . S
C775 C774 1.372 . S
C775 C776 1.400 . S
C775 C780 1.490 . S
C776 H766 0.930 . S
C776 C775 1.400 . S
C776 C779 1.386 . S
H777 C793 0.930 . S
H778 C794 0.931 . S
C779 H767 0.929 . S
C779 C773 1.390 . S
C779 C776 1.386 . S
C780 C775 1.490 . S
C780 C782 1.395 . S
C780 C783 1.403 . S
H781 C787 0.930 . S
C782 H768 0.930 . S
C782 C780 1.395 . S
C782 C785 1.403 . S
C783 C780 1.403 . S
C783 C784 1.524 . S
C783 C787 1.400 . S
C784 H769 0.960 . S
C784 H770 0.960 . S
C784 H771 0.960 . S
C784 C783 1.524 . S
C785 C782 1.403 . S
C785 C786 1.392 . S
C785 C789 1.495 . S
C786 C785 1.392 . S
C786 C787 1.385 . S
C786 C788 1.478 . S
C787 H781 0.930 . S
C787 C783 1.400 . S
C787 C786 1.385 . S
C788 C786 1.478 . S
C788 C790 1.381 . S
C788 C794 1.383 . S
C789 C785 1.495 . S
C789 H795 0.959 . S
C789 H796 0.961 . S
C789 H797 0.960 . S
C790 C788 1.381 . S
C790 C791 1.394 . S
C790 H798 0.930 . S
C791 C790 1.394 . S
C791 C792 1.383 . S
C791 H799 0.929 . S
C792 C791 1.383 . S
C792 C793 1.377 . S
C793 H777 0.930 . S
C793 C792 1.377 . S
C793 C794 1.379 . S
C794 H778 0.931 . S
C794 C788 1.383 . S
C794 C793 1.379 . S
H795 C789 0.959 . S
H796 C789 0.961 . S
H797 C789 0.960 . S
H798 C790 0.930 . S
H799 C791 0.929 . S
H800 C808 0.929 . S
H801 C810 0.930 . S
H802 C812 0.930 . S
H803 C815 0.929 . S
H804 C818 0.930 . S
H805 C820 0.960 . S
H806 C820 0.960 . S
H807 C820 0.960 . S
C808 H800 0.929 . S
C808 C809 1.377 . S
C808 C810 1.384 . S
C809 C808 1.377 . S
C809 C815 1.390 . S
C810 H801 0.930 . S
C810 C808 1.384 . S
C810 C811 1.372 . S
C811 C810 1.372 . S
C811 C812 1.400 . S
C811 C816 1.490 . S
C812 H802 0.930 . S
C812 C811 1.400 . S
C812 C815 1.386 . S
H813 C829 0.930 . S
H814 C830 0.931 . S
C815 H803 0.929 . S
C815 C809 1.390 . S
C815 C812 1.386 . S
C816 C811 1.490 . S
C816 C818 1.395 . S
C816 C819 1.403 . S
H817 C823 0.930 . S
C818 H804 0.930 . S
C818 C816 1.395 . S
C818 C821 1.403 . S
C819 C816 1.403 . S
C819 C820 1.524 . S
C819 C823 1.400 . S
C820 H805 0.960 . S
C820 H806 0.960 . S
C820 H807 0.960 . S
C820 C819 1.524 . S
C821 C818 1.403 . S
C821 C822 1.392 . S
C821 C825 1.495 . S
C822 C821 1.392 . S
C822 C823 1.385 . S
C822 C824 1.478 . S
C823 H817 0.930 . S
C823 C819 1.400 . S
C823 C822 1.385 . S
C824 C822 1.478 . S
C824 C826 1.381 . S
C824 C830 1.383 . S
C825 C821 1.495 . S
C825 H831 0.959 . S
C825 H832 0.961 . S
C825 H833 0.960 . S
C826 C824 1.381 . S
C826 C827 1.394 . S
C826 H834 0.930 . S
C827 C826 1.394 . S
C827 C828 1.383 . S
C827 H835 0.929 . S
C828 C827 1.383 . S
C828 C829 1.377 . S
C829 H813 0.930 . S
C829 C828 1.377 . S
C829 C830 1.379 . S
C830 H814 0.931 . S
C830 C824 1.383 . S
C830 C829 1.379 . S
H831 C825 0.959 . S
H832 C825 0.961 . S
H833 C825 0.960 . S
H834 C826 0.930 . S
H835 C827 0.929 . S
H836 C844 0.929 . S
H837 C846 0.930 . S
H838 C848 0.930 . S
H839 C851 0.929 . S
H840 C854 0.930 . S
H841 C856 0.960 . S
H842 C856 0.960 . S
H843 C856 0.960 . S
C844 H836 0.929 . S
C844 C845 1.377 . S
C844 C846 1.384 . S
C845 C844 1.377 . S
C845 C851 1.390 . S
C846 H837 0.930 . S
C846 C844 1.384 . S
C846 C847 1.372 . S
C847 C846 1.372 . S
C847 C848 1.400 . S
C847 C852 1.490 . S
C848 H838 0.930 . S
C848 C847 1.400 . S
C848 C851 1.386 . S
H849 C865 0.930 . S
H850 C866 0.931 . S
C851 H839 0.929 . S
C851 C845 1.390 . S
C851 C848 1.386 . S
C852 C847 1.490 . S
C852 C854 1.395 . S
C852 C855 1.403 . S
H853 C859 0.930 . S
C854 H840 0.930 . S
C854 C852 1.395 . S
C854 C857 1.403 . S
C855 C852 1.403 . S
C855 C856 1.524 . S
C855 C859 1.400 . S
C856 H841 0.960 . S
C856 H842 0.960 . S
C856 H843 0.960 . S
C856 C855 1.524 . S
C857 C854 1.403 . S
C857 C858 1.392 . S
C857 C861 1.495 . S
C858 C857 1.392 . S
C858 C859 1.385 . S
C858 C860 1.478 . S
C859 H853 0.930 . S
C859 C855 1.400 . S
C859 C858 1.385 . S
C860 C858 1.478 . S
C860 C862 1.381 . S
C860 C866 1.383 . S
C861 C857 1.495 . S
C861 H867 0.959 . S
C861 H868 0.961 . S
C861 H869 0.960 . S
C862 C860 1.381 . S
C862 C863 1.394 . S
C862 H870 0.930 . S
C863 C862 1.394 . S
C863 C864 1.383 . S
C863 H871 0.929 . S
C864 C863 1.383 . S
C864 C865 1.377 . S
C865 H849 0.930 . S
C865 C864 1.377 . S
C865 C866 1.379 . S
C866 H850 0.931 . S
C866 C860 1.383 . S
C866 C865 1.379 . S
H867 C861 0.959 . S
H868 C861 0.961 . S
H869 C861 0.960 . S
H870 C862 0.930 . S
H871 C863 0.929 . S
H872 C880 0.929 . S
H873 C882 0.930 . S
H874 C884 0.930 . S
H875 C887 0.929 . S
H876 C890 0.930 . S
H877 C892 0.960 . S
H878 C892 0.960 . S
H879 C892 0.960 . S
C880 H872 0.929 . S
C880 C881 1.377 . S
C880 C882 1.384 . S
C881 C880 1.377 . S
C881 C887 1.390 . S
C882 H873 0.930 . S
C882 C880 1.384 . S
C882 C883 1.372 . S
C883 C882 1.372 . S
C883 C884 1.400 . S
C883 C888 1.490 . S
C884 H874 0.930 . S
C884 C883 1.400 . S
C884 C887 1.386 . S
H885 C901 0.930 . S
H886 C902 0.931 . S
C887 H875 0.929 . S
C887 C881 1.390 . S
C887 C884 1.386 . S
C888 C883 1.490 . S
C888 C890 1.395 . S
C888 C891 1.403 . S
H889 C895 0.930 . S
C890 H876 0.930 . S
C890 C888 1.395 . S
C890 C893 1.403 . S
C891 C888 1.403 . S
C891 C892 1.524 . S
C891 C895 1.400 . S
C892 H877 0.960 . S
C892 H878 0.960 . S
C892 H879 0.960 . S
C892 C891 1.524 . S
C893 C890 1.403 . S
C893 C894 1.392 . S
C893 C897 1.495 . S
C894 C893 1.392 . S
C894 C895 1.385 . S
C894 C896 1.478 . S
C895 H889 0.930 . S
C895 C891 1.400 . S
C895 C894 1.385 . S
C896 C894 1.478 . S
C896 C898 1.381 . S
C896 C902 1.383 . S
C897 C893 1.495 . S
C897 H903 0.959 . S
C897 H904 0.961 . S
C897 H905 0.960 . S
C898 C896 1.381 . S
C898 C899 1.394 . S
C898 H906 0.930 . S
C899 C898 1.394 . S
C899 C900 1.383 . S
C899 H907 0.929 . S
C900 C899 1.383 . S
C900 C901 1.377 . S
C901 H885 0.930 . S
C901 C900 1.377 . S
C901 C902 1.379 . S
C902 H886 0.931 . S
C902 C896 1.383 . S
C902 C901 1.379 . S
H903 C897 0.959 . S
H904 C897 0.961 . S
H905 C897 0.960 . S
H906 C898 0.930 . S
H907 C899 0.929 . S
H908 C916 0.929 . S
H909 C918 0.930 . S
H910 C920 0.930 . S
H911 C923 0.929 . S
H912 C926 0.930 . S
H913 C928 0.960 . S
H914 C928 0.960 . S
H915 C928 0.960 . S
C916 H908 0.929 . S
C916 C917 1.377 . S
C916 C918 1.384 . S
C917 C916 1.377 . S
C917 C923 1.390 . S
C918 H909 0.930 . S
C918 C916 1.384 . S
C918 C919 1.372 . S
C919 C918 1.372 . S
C919 C920 1.400 . S
C919 C924 1.490 . S
C920 H910 0.930 . S
C920 C919 1.400 . S
C920 C923 1.386 . S
H921 C937 0.930 . S
H922 C938 0.931 . S
C923 H911 0.929 . S
C923 C917 1.390 . S
C923 C920 1.386 . S
C924 C919 1.490 . S
C924 C926 1.395 . S
C924 C927 1.403 . S
H925 C931 0.930 . S
C926 H912 0.930 . S
C926 C924 1.395 . S
C926 C929 1.403 . S
C927 C924 1.403 . S
C927 C928 1.524 . S
C927 C931 1.400 . S
C928 H913 0.960 . S
C928 H914 0.960 . S
C928 H915 0.960 . S
C928 C927 1.524 . S
C929 C926 1.403 . S
C929 C930 1.392 . S
C929 C933 1.495 . S
C930 C929 1.392 . S
C930 C931 1.385 . S
C930 C932 1.478 . S
C931 H925 0.930 . S
C931 C927 1.400 . S
C931 C930 1.385 . S
C932 C930 1.478 . S
C932 C934 1.381 . S
C932 C938 1.383 . S
C933 C929 1.495 . S
C933 H939 0.959 . S
C933 H940 0.961 . S
C933 H941 0.960 . S
C934 C932 1.381 . S
C934 C935 1.394 . S
C934 H942 0.930 . S
C935 C934 1.394 . S
C935 C936 1.383 . S
C935 H943 0.929 . S
C936 C935 1.383 . S
C936 C937 1.377 . S
C937 H921 0.930 . S
C937 C936 1.377 . S
C937 C938 1.379 . S
C938 H922 0.931 . S
C938 C932 1.383 . S
C938 C937 1.379 . S
H939 C933 0.959 . S
H940 C933 0.961 . S
H941 C933 0.960 . S
H942 C934 0.930 . S
H943 C935 0.929 . S
H944 C952 0.929 . S
H945 C954 0.930 . S
H946 C956 0.930 . S
H947 C959 0.929 . S
H948 C962 0.930 . S
H949 C964 0.960 . S
H950 C964 0.960 . S
H951 C964 0.960 . S
C952 H944 0.929 . S
C952 C953 1.377 . S
C952 C954 1.384 . S
C953 C952 1.377 . S
C953 C959 1.390 . S
C954 H945 0.930 . S
C954 C952 1.384 . S
C954 C955 1.372 . S
C955 C954 1.372 . S
C955 C956 1.400 . S
C955 C960 1.490 . S
C956 H946 0.930 . S
C956 C955 1.400 . S
C956 C959 1.386 . S
H957 C973 0.930 . S
H958 C974 0.931 . S
C959 H947 0.929 . S
C959 C953 1.390 . S
C959 C956 1.386 . S
C960 C955 1.490 . S
C960 C962 1.395 . S
C960 C963 1.403 . S
H961 C967 0.930 . S
C962 H948 0.930 . S
C962 C960 1.395 . S
C962 C965 1.403 . S
C963 C960 1.403 . S
C963 C964 1.524 . S
C963 C967 1.400 . S
C964 H949 0.960 . S
C964 H950 0.960 . S
C964 H951 0.960 . S
C964 C963 1.524 . S
C965 C962 1.403 . S
C965 C966 1.392 . S
C965 C969 1.495 . S
C966 C965 1.392 . S
C966 C967 1.385 . S
C966 C968 1.478 . S
C967 H961 0.930 . S
C967 C963 1.400 . S
C967 C966 1.385 . S
C968 C966 1.478 . S
C968 C970 1.381 . S
C968 C974 1.383 . S
C969 C965 1.495 . S
C969 H975 0.959 . S
C969 H976 0.961 . S
C969 H977 0.960 . S
C970 C968 1.381 . S
C970 C971 1.394 . S
C970 H978 0.930 . S
C971 C970 1.394 . S
C971 C972 1.383 . S
C971 H979 0.929 . S
C972 C971 1.383 . S
C972 C973 1.377 . S
C973 H957 0.930 . S
C973 C972 1.377 . S
C973 C974 1.379 . S
C974 H958 0.931 . S
C974 C968 1.383 . S
C974 C973 1.379 . S
H975 C969 0.959 . S
H976 C969 0.961 . S
H977 C969 0.960 . S
H978 C970 0.930 . S
H979 C971 0.929 . S
H980 C988 0.929 . S
H981 C990 0.930 . S
H982 C992 0.930 . S
H983 C995 0.929 . S
H984 C998 0.930 . S
H985 C1000 0.960 . S
H986 C1000 0.960 . S
H987 C1000 0.960 . S
C988 H980 0.929 . S
C988 C989 1.377 . S
C988 C990 1.384 . S
C989 C988 1.377 . S
C989 C995 1.390 . S
C990 H981 0.930 . S
C990 C988 1.384 . S
C990 C991 1.372 . S
C991 C990 1.372 . S
C991 C992 1.400 . S
C991 C996 1.490 . S
C992 H982 0.930 . S
C992 C991 1.400 . S
C992 C995 1.386 . S
H993 C1009 0.930 . S
H994 C1010 0.931 . S
C995 H983 0.929 . S
C995 C989 1.390 . S
C995 C992 1.386 . S
C996 C991 1.490 . S
C996 C998 1.395 . S
C996 C999 1.403 . S
H997 C1003 0.930 . S
C998 H984 0.930 . S
C998 C996 1.395 . S
C998 C1001 1.403 . S
C999 C996 1.403 . S
C999 C1000 1.524 . S
C999 C1003 1.400 . S
C1000 H985 0.960 . S
C1000 H986 0.960 . S
C1000 H987 0.960 . S
C1000 C999 1.524 . S
C1001 C998 1.403 . S
C1001 C1002 1.392 . S
C1001 C1005 1.495 . S
C1002 C1001 1.392 . S
C1002 C1003 1.385 . S
C1002 C1004 1.478 . S
C1003 H997 0.930 . S
C1003 C999 1.400 . S
C1003 C1002 1.385 . S
C1004 C1002 1.478 . S
C1004 C1006 1.381 . S
C1004 C1010 1.383 . S
C1005 C1001 1.495 . S
C1005 H1011 0.959 . S
C1005 H1012 0.961 . S
C1005 H1013 0.960 . S
C1006 C1004 1.381 . S
C1006 C1007 1.394 . S
C1006 H1014 0.930 . S
C1007 C1006 1.394 . S
C1007 C1008 1.383 . S
C1007 H1015 0.929 . S
C1008 C1007 1.383 . S
C1008 C1009 1.377 . S
C1009 H993 0.930 . S
C1009 C1008 1.377 . S
C1009 C1010 1.379 . S
C1010 H994 0.931 . S
C1010 C1004 1.383 . S
C1010 C1009 1.379 . S
H1011 C1005 0.959 . S
H1012 C1005 0.961 . S
H1013 C1005 0.960 . S
H1014 C1006 0.930 . S
H1015 C1007 0.929 . S
H1016 C1024 0.929 . S
H1017 C1026 0.930 . S
H1018 C1028 0.930 . S
H1019 C1031 0.929 . S
H1020 C1034 0.930 . S
H1021 C1036 0.960 . S
H1022 C1036 0.960 . S
H1023 C1036 0.960 . S
C1024 H1016 0.929 . S
C1024 C1025 1.377 . S
C1024 C1026 1.384 . S
C1025 C1024 1.377 . S
C1025 C1031 1.390 . S
C1026 H1017 0.930 . S
C1026 C1024 1.384 . S
C1026 C1027 1.372 . S
C1027 C1026 1.372 . S
C1027 C1028 1.400 . S
C1027 C1032 1.490 . S
C1028 H1018 0.930 . S
C1028 C1027 1.400 . S
C1028 C1031 1.386 . S
H1029 C1045 0.930 . S
H1030 C1046 0.931 . S
C1031 H1019 0.929 . S
C1031 C1025 1.390 . S
C1031 C1028 1.386 . S
C1032 C1027 1.490 . S
C1032 C1034 1.395 . S
C1032 C1035 1.403 . S
H1033 C1039 0.930 . S
C1034 H1020 0.930 . S
C1034 C1032 1.395 . S
C1034 C1037 1.403 . S
C1035 C1032 1.403 . S
C1035 C1036 1.524 . S
C1035 C1039 1.400 . S
C1036 H1021 0.960 . S
C1036 H1022 0.960 . S
C1036 H1023 0.960 . S
C1036 C1035 1.524 . S
C1037 C1034 1.403 . S
C1037 C1038 1.392 . S
C1037 C1041 1.495 . S
C1038 C1037 1.392 . S
C1038 C1039 1.385 . S
C1038 C1040 1.478 . S
C1039 H1033 0.930 . S
C1039 C1035 1.400 . S
C1039 C1038 1.385 . S
C1040 C1038 1.478 . S
C1040 C1042 1.381 . S
C1040 C1046 1.383 . S
C1041 C1037 1.495 . S
C1041 H1047 0.959 . S
C1041 H1048 0.961 . S
C1041 H1049 0.960 . S
C1042 C1040 1.381 . S
C1042 C1043 1.394 . S
C1042 H1050 0.930 . S
C1043 C1042 1.394 . S
C1043 C1044 1.383 . S
C1043 H1051 0.929 . S
C1044 C1043 1.383 . S
C1044 C1045 1.377 . S
C1045 H1029 0.930 . S
C1045 C1044 1.377 . S
C1045 C1046 1.379 . S
C1046 H1030 0.931 . S
C1046 C1040 1.383 . S
C1046 C1045 1.379 . S
H1047 C1041 0.959 . S
H1048 C1041 0.961 . S
H1049 C1041 0.960 . S
H1050 C1042 0.930 . S
H1051 C1043 0.929 . S
H1052 C1060 0.929 . S
H1053 C1062 0.930 . S
H1054 C1064 0.930 . S
H1055 C1067 0.929 . S
H1056 C1070 0.930 . S
H1057 C1072 0.960 . S
H1058 C1072 0.960 . S
H1059 C1072 0.960 . S
C1060 H1052 0.929 . S
C1060 C1061 1.377 . S
C1060 C1062 1.384 . S
C1061 C1060 1.377 . S
C1061 C1067 1.390 . S
C1062 H1053 0.930 . S
C1062 C1060 1.384 . S
C1062 C1063 1.372 . S
C1063 C1062 1.372 . S
C1063 C1064 1.400 . S
C1063 C1068 1.490 . S
C1064 H1054 0.930 . S
C1064 C1063 1.400 . S
C1064 C1067 1.386 . S
H1065 C1081 0.930 . S
H1066 C1082 0.931 . S
C1067 H1055 0.929 . S
C1067 C1061 1.390 . S
C1067 C1064 1.386 . S
C1068 C1063 1.490 . S
C1068 C1070 1.395 . S
C1068 C1071 1.403 . S
H1069 C1075 0.930 . S
C1070 H1056 0.930 . S
C1070 C1068 1.395 . S
C1070 C1073 1.403 . S
C1071 C1068 1.403 . S
C1071 C1072 1.524 . S
C1071 C1075 1.400 . S
C1072 H1057 0.960 . S
C1072 H1058 0.960 . S
C1072 H1059 0.960 . S
C1072 C1071 1.524 . S
C1073 C1070 1.403 . S
C1073 C1074 1.392 . S
C1073 C1077 1.495 . S
C1074 C1073 1.392 . S
C1074 C1075 1.385 . S
C1074 C1076 1.478 . S
C1075 H1069 0.930 . S
C1075 C1071 1.400 . S
C1075 C1074 1.385 . S
C1076 C1074 1.478 . S
C1076 C1078 1.381 . S
C1076 C1082 1.383 . S
C1077 C1073 1.495 . S
C1077 H1083 0.959 . S
C1077 H1084 0.961 . S
C1077 H1085 0.960 . S
C1078 C1076 1.381 . S
C1078 C1079 1.394 . S
C1078 H1086 0.930 . S
C1079 C1078 1.394 . S
C1079 C1080 1.383 . S
C1079 H1087 0.929 . S
C1080 C1079 1.383 . S
C1080 C1081 1.377 . S
C1081 H1065 0.930 . S
C1081 C1080 1.377 . S
C1081 C1082 1.379 . S
C1082 H1066 0.931 . S
C1082 C1076 1.383 . S
C1082 C1081 1.379 . S
H1083 C1077 0.959 . S
H1084 C1077 0.961 . S
H1085 C1077 0.960 . S
H1086 C1078 0.930 . S
H1087 C1079 0.929 . S
H1088 C1096 0.929 . S
H1089 C1098 0.930 . S
H1090 C1100 0.930 . S
H1091 C1103 0.929 . S
H1092 C1106 0.930 . S
H1093 C1108 0.960 . S
H1094 C1108 0.960 . S
H1095 C1108 0.978 . S
C1096 H1088 0.929 . S
C1096 C1097 1.377 1_655 S
C1096 C1098 1.384 . S
C1097 C1096 1.377 1_455 S
C1097 C1103 1.390 . S
C1098 H1089 0.930 . S
C1098 C1096 1.384 . S
C1098 C1099 1.372 1_655 S
C1099 C1098 1.372 1_455 S
C1099 C1100 1.400 . S
C1099 C1104 1.490 . S
C1100 H1090 0.930 . S
C1100 C1099 1.400 . S
C1100 C1103 1.386 . S
H1101 C1117 0.930 . S
H1102 C1118 0.931 . S
C1103 H1091 0.929 . S
C1103 C1097 1.390 . S
C1103 C1100 1.386 . S
C1104 C1099 1.490 . S
C1104 C1106 1.395 . S
C1104 C1107 1.403 1_455 S
H1105 C1111 0.930 . S
C1106 H1092 0.930 . S
C1106 C1104 1.395 . S
C1106 C1109 1.403 . S
C1107 C1104 1.403 1_655 S
C1107 C1108 1.524 . S
C1107 C1111 1.400 . S
C1108 H1093 0.960 . S
C1108 H1094 0.960 . S
C1108 H1095 0.978 . S
C1108 C1107 1.524 . S
C1109 C1106 1.403 . S
C1109 C1110 1.392 1_455 S
C1109 C1113 1.495 . S
C1110 C1109 1.392 1_655 S
C1110 C1111 1.385 . S
C1110 C1112 1.478 . S
C1111 H1105 0.930 . S
C1111 C1107 1.400 . S
C1111 C1110 1.385 . S
C1112 C1110 1.478 . S
C1112 C1114 1.381 . S
C1112 C1118 1.383 1_655 S
C1113 C1109 1.495 . S
C1113 H1119 0.959 . S
C1113 H1120 0.961 . S
C1113 H1121 0.960 1_455 S
C1114 C1112 1.381 . S
C1114 C1115 1.394 . S
C1114 H1122 0.930 . S
C1115 C1114 1.394 . S
C1115 C1116 1.383 . S
C1115 H1123 0.929 . S
C1116 C1115 1.383 . S
C1116 C1117 1.377 1_655 S
C1117 H1101 0.930 . S
C1117 C1116 1.377 1_455 S
C1117 C1118 1.379 . S
C1118 H1102 0.931 . S
C1118 C1112 1.383 1_455 S
C1118 C1117 1.379 . S
H1119 C1113 0.959 . S
H1120 C1113 0.961 . S
H1121 C1113 0.960 1_655 S
H1122 C1114 0.930 . S
H1123 C1115 0.929 . S
H1124 C1132 0.929 . S
H1125 C1134 0.930 1_545 S
H1126 C1136 0.930 . S
H1127 C1139 0.929 . S
H1128 C1142 0.930 . S
H1129 C1144 0.960 . S
H1130 C1144 0.960 . S
H1131 C1144 0.960 . S
C1132 H1124 0.929 . S
C1132 C1133 1.377 . S
C1132 C1134 1.384 . S
C1133 C1132 1.377 . S
C1133 C1139 1.390 . S
C1134 H1125 0.930 1_565 S
C1134 C1132 1.384 . S
C1134 C1135 1.372 . S
C1135 C1134 1.372 . S
C1135 C1136 1.400 . S
C1135 C1140 1.490 . S
C1136 H1126 0.930 . S
C1136 C1135 1.400 . S
C1136 C1139 1.386 . S
H1137 C1153 0.930 . S
H1138 C1154 0.931 . S
C1139 H1127 0.929 . S
C1139 C1133 1.390 . S
C1139 C1136 1.386 . S
C1140 C1135 1.490 . S
C1140 C1142 1.395 1_565 S
C1140 C1143 1.403 . S
H1141 C1147 0.930 . S
C1142 H1128 0.930 . S
C1142 C1140 1.395 1_545 S
C1142 C1145 1.403 . S
C1143 C1140 1.403 . S
C1143 C1144 1.524 . S
C1143 C1147 1.400 . S
C1144 H1129 0.960 . S
C1144 H1130 0.960 . S
C1144 H1131 0.960 . S
C1144 C1143 1.524 . S
C1145 C1142 1.403 . S
C1145 C1146 1.392 . S
C1145 C1149 1.495 . S
C1146 C1145 1.392 . S
C1146 C1147 1.385 1_545 S
C1146 C1148 1.478 . S
C1147 H1141 0.930 . S
C1147 C1143 1.400 . S
C1147 C1146 1.385 1_565 S
C1148 C1146 1.478 . S
C1148 C1150 1.381 . S
C1148 C1154 1.383 . S
C1149 C1145 1.495 . S
C1149 H1155 0.959 . S
C1149 H1156 0.961 . S
C1149 H1157 0.960 . S
C1150 C1148 1.381 . S
C1150 C1151 1.394 . S
C1150 H1158 0.930 . S
C1151 C1150 1.394 . S
C1151 C1152 1.383 . S
C1151 H1159 0.929 . S
C1152 C1151 1.383 . S
C1152 C1153 1.377 . S
C1153 H1137 0.930 . S
C1153 C1152 1.377 . S
C1153 C1154 1.379 . S
C1154 H1138 0.931 . S
C1154 C1148 1.383 . S
C1154 C1153 1.379 . S
H1155 C1149 0.959 . S
H1156 C1149 0.961 . S
H1157 C1149 0.960 . S
H1158 C1150 0.930 . S
H1159 C1151 0.929 . S
H1160 C1168 0.925 1_655 S
H1161 C1170 0.926 1_655 S
H1162 C1172 0.930 . S
H1163 C1175 0.929 . S
H1164 C1178 0.930 . S
H1165 C1180 0.960 . S
H1166 C1180 0.960 . S
H1167 C1180 0.960 . S
C1168 H1160 0.925 1_455 S
C1168 C1169 1.377 . S
C1168 C1170 1.385 . S
C1169 C1168 1.377 . S
C1169 C1175 1.390 . S
C1170 H1161 0.926 1_455 S
C1170 C1168 1.385 . S
C1170 C1171 1.374 . S
C1171 C1170 1.374 . S
C1171 C1172 1.400 . S
C1171 C1176 1.490 . S
C1172 H1162 0.930 . S
C1172 C1171 1.400 . S
C1172 C1175 1.386 . S
H1173 C1189 0.938 . S
H1174 C1190 0.931 . S
C1175 H1163 0.929 . S
C1175 C1169 1.390 . S
C1175 C1172 1.386 . S
C1176 C1171 1.490 . S
C1176 C1178 1.395 . S
C1176 C1179 1.403 1_455 S
H1177 C1183 0.930 . S
C1178 H1164 0.930 . S
C1178 C1176 1.395 . S
C1178 C1181 1.403 . S
C1179 C1176 1.403 1_655 S
C1179 C1180 1.524 . S
C1179 C1183 1.400 . S
C1180 H1165 0.960 . S
C1180 H1166 0.960 . S
C1180 H1167 0.960 . S
C1180 C1179 1.524 . S
C1181 C1178 1.403 . S
C1181 C1182 1.393 . S
C1181 C1185 1.495 . S
C1182 C1181 1.393 . S
C1182 C1183 1.384 1_455 S
C1182 C1184 1.477 1_455 S
C1183 H1177 0.930 . S
C1183 C1179 1.400 . S
C1183 C1182 1.384 1_655 S
C1184 C1182 1.477 1_655 S
C1184 C1186 1.381 . S
C1184 C1190 1.383 1_655 S
C1185 C1181 1.495 . S
C1185 H1191 0.959 . S
C1185 H1192 0.961 . S
C1185 H1193 0.960 . S
C1186 C1184 1.381 . S
C1186 C1187 1.394 . S
C1186 H1194 0.930 . S
C1187 C1186 1.394 . S
C1187 C1188 1.383 . S
C1187 H1195 0.929 . S
C1188 C1187 1.383 . S
C1188 C1189 1.365 1_655 S
C1189 H1173 0.938 . S
C1189 C1188 1.365 1_455 S
C1189 C1190 1.384 . S
C1190 H1174 0.931 . S
C1190 C1184 1.383 1_455 S
C1190 C1189 1.384 . S
H1191 C1185 0.959 . S
H1192 C1185 0.961 . S
H1193 C1185 0.960 . S
H1194 C1186 0.930 . S
H1195 C1187 0.929 . S
H1196 C1204 0.929 . S
H1197 C1206 0.930 . S
H1198 C1208 0.930 . S
H1199 C1211 0.929 . S
H1200 C1214 0.930 . S
H1201 C1216 0.960 . S
H1202 C1216 0.960 . S
H1203 C1216 0.960 . S
C1204 H1196 0.929 . S
C1204 C1205 1.377 . S
C1204 C1206 1.384 . S
C1205 C1204 1.377 . S
C1205 C1211 1.390 1_545 S
C1206 H1197 0.930 . S
C1206 C1204 1.384 . S
C1206 C1207 1.372 . S
C1207 C1206 1.372 . S
C1207 C1208 1.400 1_545 S
C1207 C1212 1.490 . S
C1208 H1198 0.930 . S
C1208 C1207 1.400 1_565 S
C1208 C1211 1.386 . S
H1209 C1225 0.930 . S
H1210 C1226 0.931 . S
C1211 H1199 0.929 . S
C1211 C1205 1.390 1_565 S
C1211 C1208 1.386 . S
C1212 C1207 1.490 . S
C1212 C1214 1.395 . S
C1212 C1215 1.403 1_545 S
H1213 C1219 0.930 . S
C1214 H1200 0.930 . S
C1214 C1212 1.395 . S
C1214 C1217 1.403 . S
C1215 C1212 1.403 1_565 S
C1215 C1216 1.524 . S
C1215 C1219 1.400 . S
C1216 H1201 0.960 . S
C1216 H1202 0.960 . S
C1216 H1203 0.960 . S
C1216 C1215 1.524 . S
C1217 C1214 1.403 . S
C1217 C1218 1.392 . S
C1217 C1221 1.495 . S
C1218 C1217 1.392 . S
C1218 C1219 1.385 1_545 S
C1218 C1220 1.473 1_545 S
C1219 H1213 0.930 . S
C1219 C1215 1.400 . S
C1219 C1218 1.385 1_565 S
C1220 C1218 1.473 1_565 S
C1220 C1222 1.358 1_565 S
C1220 C1226 1.414 . S
C1221 C1217 1.495 . S
C1221 H1227 0.959 . S
C1221 H1228 0.961 . S
C1221 H1229 0.960 . S
C1222 C1220 1.358 1_545 S
C1222 C1223 1.394 . S
C1222 H1230 0.930 . S
C1223 C1222 1.394 . S
C1223 C1224 1.383 1_545 S
C1223 H1231 0.929 . S
C1224 C1223 1.383 1_565 S
C1224 C1225 1.377 . S
C1225 H1209 0.930 . S
C1225 C1224 1.377 . S
C1225 C1226 1.379 . S
C1226 H1210 0.931 . S
C1226 C1220 1.414 . S
C1226 C1225 1.379 . S
H1227 C1221 0.959 . S
H1228 C1221 0.961 . S
H1229 C1221 0.960 . S
H1230 C1222 0.930 . S
H1231 C1223 0.929 . S
H1232 C1240 0.929 . S
H1233 C1242 0.930 . S
H1234 C1244 0.930 . S
H1235 C1247 0.929 . S
H1236 C1250 0.930 . S
H1237 C1252 0.960 . S
H1238 C1252 0.960 . S
H1239 C1252 0.960 . S
C1240 H1232 0.929 . S
C1240 C1241 1.377 . S
C1240 C1242 1.384 . S
C1241 C1240 1.377 . S
C1241 C1247 1.390 . S
C1242 H1233 0.930 . S
C1242 C1240 1.384 . S
C1242 C1243 1.372 . S
C1243 C1242 1.372 . S
C1243 C1244 1.400 . S
C1243 C1248 1.490 . S
C1244 H1234 0.930 . S
C1244 C1243 1.400 . S
C1244 C1247 1.386 . S
H1245 C1261 0.930 . S
H1246 C1262 0.931 . S
C1247 H1235 0.929 . S
C1247 C1241 1.390 . S
C1247 C1244 1.386 . S
C1248 C1243 1.490 . S
C1248 C1250 1.395 . S
C1248 C1251 1.403 . S
H1249 C1255 0.930 . S
C1250 H1236 0.930 . S
C1250 C1248 1.395 . S
C1250 C1253 1.403 1_556 S
C1251 C1248 1.403 . S
C1251 C1252 1.524 . S
C1251 C1255 1.400 1_556 S
C1252 H1237 0.960 . S
C1252 H1238 0.960 . S
C1252 H1239 0.960 . S
C1252 C1251 1.524 . S
C1253 C1250 1.403 1_554 S
C1253 C1254 1.392 . S
C1253 C1257 1.495 . S
C1254 C1253 1.392 . S
C1254 C1255 1.385 . S
C1254 C1256 1.478 . S
C1255 H1249 0.930 . S
C1255 C1251 1.400 1_554 S
C1255 C1254 1.385 . S
C1256 C1254 1.478 . S
C1256 C1258 1.381 . S
C1256 C1262 1.383 . S
C1257 C1253 1.495 . S
C1257 H1263 0.959 . S
C1257 H1264 0.961 . S
C1257 H1265 0.960 . S
C1258 C1256 1.381 . S
C1258 C1259 1.394 . S
C1258 H1266 0.930 . S
C1259 C1258 1.394 . S
C1259 C1260 1.383 . S
C1259 H1267 0.929 . S
C1260 C1259 1.383 . S
C1260 C1261 1.377 . S
C1261 H1245 0.930 . S
C1261 C1260 1.377 . S
C1261 C1262 1.379 . S
C1262 H1246 0.931 . S
C1262 C1256 1.383 . S
C1262 C1261 1.379 . S
H1263 C1257 0.959 . S
H1264 C1257 0.961 . S
H1265 C1257 0.960 . S
H1266 C1258 0.930 . S
H1267 C1259 0.929 . S
H1268 C1276 0.929 . S
H1269 C1278 0.930 . S
H1270 C1280 0.930 . S
H1271 C1283 0.929 . S
H1272 C1286 0.930 . S
H1273 C1288 0.960 . S
H1274 C1288 0.960 . S
H1275 C1288 0.960 . S
C1276 H1268 0.929 . S
C1276 C1277 1.377 . S
C1276 C1278 1.384 . S
C1277 C1276 1.377 . S
C1277 C1283 1.390 . S
C1278 H1269 0.930 . S
C1278 C1276 1.384 . S
C1278 C1279 1.372 . S
C1279 C1278 1.372 . S
C1279 C1280 1.400 . S
C1279 C1284 1.490 . S
C1280 H1270 0.930 . S
C1280 C1279 1.400 . S
C1280 C1283 1.386 . S
H1281 C1297 0.930 . S
H1282 C1298 0.931 . S
C1283 H1271 0.929 . S
C1283 C1277 1.390 . S
C1283 C1280 1.386 . S
C1284 C1279 1.490 . S
C1284 C1286 1.395 . S
C1284 C1287 1.403 . S
H1285 C1291 0.930 . S
C1286 H1272 0.930 . S
C1286 C1284 1.395 . S
C1286 C1289 1.403 1_556 S
C1287 C1284 1.403 . S
C1287 C1288 1.524 . S
C1287 C1291 1.400 1_556 S
C1288 H1273 0.960 . S
C1288 H1274 0.960 . S
C1288 H1275 0.960 . S
C1288 C1287 1.524 . S
C1289 C1286 1.403 1_554 S
C1289 C1290 1.392 . S
C1289 C1293 1.495 . S
C1290 C1289 1.392 . S
C1290 C1291 1.385 . S
C1290 C1292 1.478 . S
C1291 H1285 0.930 . S
C1291 C1287 1.400 1_554 S
C1291 C1290 1.385 . S
C1292 C1290 1.478 . S
C1292 C1294 1.381 . S
C1292 C1298 1.383 . S
C1293 C1289 1.495 . S
C1293 H1299 0.959 . S
C1293 H1300 0.961 . S
C1293 H1301 0.960 . S
C1294 C1292 1.381 . S
C1294 C1295 1.394 . S
C1294 H1302 0.930 . S
C1295 C1294 1.394 . S
C1295 C1296 1.383 . S
C1295 H1303 0.929 . S
C1296 C1295 1.383 . S
C1296 C1297 1.377 . S
C1297 H1281 0.930 . S
C1297 C1296 1.377 . S
C1297 C1298 1.379 . S
C1298 H1282 0.931 . S
C1298 C1292 1.383 . S
C1298 C1297 1.379 . S
H1299 C1293 0.959 . S
H1300 C1293 0.961 . S
H1301 C1293 0.960 . S
H1302 C1294 0.930 . S
H1303 C1295 0.929 . S
H1304 C1312 0.929 . S
H1305 C1314 0.930 . S
H1306 C1316 0.930 . S
H1307 C1319 0.929 . S
H1308 C1322 0.930 . S
H1309 C1324 0.960 . S
H1310 C1324 0.960 . S
H1311 C1324 0.960 . S
C1312 H1304 0.929 . S
C1312 C1313 1.377 . S
C1312 C1314 1.384 . S
C1313 C1312 1.377 . S
C1313 C1319 1.390 . S
C1314 H1305 0.930 . S
C1314 C1312 1.384 . S
C1314 C1315 1.372 . S
C1315 C1314 1.372 . S
C1315 C1316 1.400 . S
C1315 C1320 1.490 . S
C1316 H1306 0.930 . S
C1316 C1315 1.400 . S
C1316 C1319 1.386 . S
H1317 C1333 0.930 . S
H1318 C1334 0.931 . S
C1319 H1307 0.929 . S
C1319 C1313 1.390 . S
C1319 C1316 1.386 . S
C1320 C1315 1.490 . S
C1320 C1322 1.395 . S
C1320 C1323 1.403 . S
H1321 C1327 0.930 . S
C1322 H1308 0.930 . S
C1322 C1320 1.395 . S
C1322 C1325 1.403 1_554 S
C1323 C1320 1.403 . S
C1323 C1324 1.524 . S
C1323 C1327 1.400 1_554 S
C1324 H1309 0.960 . S
C1324 H1310 0.960 . S
C1324 H1311 0.960 . S
C1324 C1323 1.524 . S
C1325 C1322 1.403 1_556 S
C1325 C1326 1.392 . S
C1325 C1329 1.495 . S
C1326 C1325 1.392 . S
C1326 C1327 1.385 . S
C1326 C1328 1.478 . S
C1327 H1321 0.930 . S
C1327 C1323 1.400 1_556 S
C1327 C1326 1.385 . S
C1328 C1326 1.478 . S
C1328 C1330 1.381 . S
C1328 C1334 1.383 . S
C1329 C1325 1.495 . S
C1329 H1335 0.959 . S
C1329 H1336 0.961 . S
C1329 H1337 0.960 . S
C1330 C1328 1.381 . S
C1330 C1331 1.394 . S
C1330 H1338 0.930 . S
C1331 C1330 1.394 . S
C1331 C1332 1.383 . S
C1331 H1339 0.929 . S
C1332 C1331 1.383 . S
C1332 C1333 1.377 . S
C1333 H1317 0.930 . S
C1333 C1332 1.377 . S
C1333 C1334 1.379 . S
C1334 H1318 0.931 . S
C1334 C1328 1.383 . S
C1334 C1333 1.379 . S
H1335 C1329 0.959 . S
H1336 C1329 0.961 . S
H1337 C1329 0.960 . S
H1338 C1330 0.930 . S
H1339 C1331 0.929 . S
H1340 C1348 0.929 . S
H1341 C1350 0.930 . S
H1342 C1352 0.930 . S
H1343 C1355 0.929 . S
H1344 C1358 0.930 . S
H1345 C1360 0.960 . S
H1346 C1360 0.960 . S
H1347 C1360 0.960 . S
C1348 H1340 0.929 . S
C1348 C1349 1.377 . S
C1348 C1350 1.384 . S
C1349 C1348 1.377 . S
C1349 C1355 1.390 . S
C1350 H1341 0.930 . S
C1350 C1348 1.384 . S
C1350 C1351 1.372 . S
C1351 C1350 1.372 . S
C1351 C1352 1.400 . S
C1351 C1356 1.490 . S
C1352 H1342 0.930 . S
C1352 C1351 1.400 . S
C1352 C1355 1.386 . S
H1353 C1369 0.930 . S
H1354 C1370 0.931 . S
C1355 H1343 0.929 . S
C1355 C1349 1.390 . S
C1355 C1352 1.386 . S
C1356 C1351 1.490 . S
C1356 C1358 1.395 . S
C1356 C1359 1.403 . S
H1357 C1363 0.930 . S
C1358 H1344 0.930 . S
C1358 C1356 1.395 . S
C1358 C1361 1.403 1_556 S
C1359 C1356 1.403 . S
C1359 C1360 1.524 . S
C1359 C1363 1.400 1_556 S
C1360 H1345 0.960 . S
C1360 H1346 0.960 . S
C1360 H1347 0.960 . S
C1360 C1359 1.524 . S
C1361 C1358 1.403 1_554 S
C1361 C1362 1.392 . S
C1361 C1365 1.495 . S
C1362 C1361 1.392 . S
C1362 C1363 1.385 . S
C1362 C1364 1.478 . S
C1363 H1357 0.930 . S
C1363 C1359 1.400 1_554 S
C1363 C1362 1.385 . S
C1364 C1362 1.478 . S
C1364 C1366 1.381 . S
C1364 C1370 1.383 . S
C1365 C1361 1.495 . S
C1365 H1371 0.959 . S
C1365 H1372 0.961 . S
C1365 H1373 0.960 . S
C1366 C1364 1.381 . S
C1366 C1367 1.394 . S
C1366 H1374 0.930 . S
C1367 C1366 1.394 . S
C1367 C1368 1.383 . S
C1367 H1375 0.929 . S
C1368 C1367 1.383 . S
C1368 C1369 1.377 . S
C1369 H1353 0.930 . S
C1369 C1368 1.377 . S
C1369 C1370 1.379 . S
C1370 H1354 0.931 . S
C1370 C1364 1.383 . S
C1370 C1369 1.379 . S
H1371 C1365 0.959 . S
H1372 C1365 0.961 . S
H1373 C1365 0.960 . S
H1374 C1366 0.930 . S
H1375 C1367 0.929 . S
C233 C8 1.530 . S
C252 C51 1.441 1_545 S
C269 C9 1.477 1_655 S
C288 C22 1.532 . S
C305 C23 1.466 1_565 S
C324 C36 1.522 . S
C341 C37 1.476 1_455 S
C360 C50 1.530 . S
C377 C64 1.532 . S
C396 C79 1.496 1_565 S
C413 C78 1.530 . S
C432 C93 1.454 1_455 S
C449 C92 1.532 . S
C468 C107 1.484 1_545 S
C485 C106 1.532 . S
C504 C65 1.468 1_655 S
C521 C120 1.532 . S
C540 C163 1.495 . S
C557 C121 1.466 . S
C576 C134 1.521 . S
C593 C135 1.475 . S
C612 C148 1.527 . S
C629 C162 1.532 . S
C648 C149 1.469 . S
C665 C191 1.477 . S
C684 C176 1.531 . S
C701 C205 1.477 . S
C720 C190 1.531 . S
C737 C204 1.532 . S
C756 C219 1.463 . S
C773 C218 1.530 . S
C792 C177 1.460 . S
C809 C6 1.154 . S
C828 C216 1.159 . S
C845 C20 1.159 . S
C864 C174 1.150 . S
C881 C188 1.159 . S
C900 C34 1.156 . S
C917 C48 1.154 . S
C936 C202 1.150 . S
C953 C132 1.156 . S
C972 C62 1.143 . S
C989 C146 1.159 . S
C1008 C76 1.151 . S
C1025 C90 1.154 . S
C1044 C160 1.163 . S
C1061 C104 1.158 . S
C1080 C118 1.158 . S
C1097 C7 1.601 . S
C1116 C91 1.573 . S
C1133 C105 1.601 . S
C1152 C21 1.585 . S
C1169 C63 1.598 . S
C1188 C35 1.586 . S
C1205 C77 1.592 . S
C1224 C49 1.619 . S
C1241 C119 1.597 . S
C1260 C203 1.604 . S
C1277 C133 1.591 . S
C1296 C217 1.620 . S
C1313 C175 1.603 . S
C1332 C147 1.565 . S
C1349 C161 1.596 . S
C1368 C189 1.594 . S
