# Generated by pormake.
# Topology wib, (6)-cn, num edge types: 1
# Building blocks:
#     Node 0, Type 0, BuildingBlock: IZENUY_clean_sbu_0, # of connection points: 6
#     Node 1, Type 0, BuildingBlock: IZENUY_clean_sbu_0, # of connection points: 6
#     Node 2, Type 0, BuildingBlock: IZENUY_clean_sbu_0, # of connection points: 6
#     Node 3, Type 0, BuildingBlock: IZENUY_clean_sbu_0, # of connection points: 6
#     Node 4, Type 0, BuildingBlock: IZENUY_clean_sbu_0, # of connection points: 6
#     Node 5, Type 0, BuildingBlock: IZENUY_clean_sbu_0, # of connection points: 6
#     Node 6, Type 0, BuildingBlock: IZENUY_clean_sbu_0, # of connection points: 6
#     Node 7, Type 0, BuildingBlock: IZENUY_clean_sbu_0, # of connection points: 6
#     Node 8, Type 0, BuildingBlock: IZENUY_clean_sbu_0, # of connection points: 6
#     Node 9, Type 0, BuildingBlock: IZENUY_clean_sbu_0, # of connection points: 6
#     Node 10, Type 0, BuildingBlock: IZENUY_clean_sbu_0, # of connection points: 6
#     Node 11, Type 0, BuildingBlock: IZENUY_clean_sbu_0, # of connection points: 6
#     Node 12, Type 0, BuildingBlock: IZENUY_clean_sbu_0, # of connection points: 6
#     Node 13, Type 0, BuildingBlock: IZENUY_clean_sbu_0, # of connection points: 6
#     Node 14, Type 0, BuildingBlock: IZENUY_clean_sbu_0, # of connection points: 6
#     Node 15, Type 0, BuildingBlock: IZENUY_clean_sbu_0, # of connection points: 6
#     Edge 16, Type (0, 0), BuildingBlock: XUDNAN_clean_linker_2, # of connection points: 2
#     Edge 17, Type (0, 0), BuildingBlock: XUDNAN_clean_linker_2, # of connection points: 2
#     Edge 18, Type (0, 0), BuildingBlock: XUDNAN_clean_linker_2, # of connection points: 2
#     Edge 19, Type (0, 0), BuildingBlock: XUDNAN_clean_linker_2, # of connection points: 2
#     Edge 20, Type (0, 0), BuildingBlock: XUDNAN_clean_linker_2, # of connection points: 2
#     Edge 21, Type (0, 0), BuildingBlock: XUDNAN_clean_linker_2, # of connection points: 2
#     Edge 22, Type (0, 0), BuildingBlock: XUDNAN_clean_linker_2, # of connection points: 2
#     Edge 23, Type (0, 0), BuildingBlock: XUDNAN_clean_linker_2, # of connection points: 2
#     Edge 24, Type (0, 0), BuildingBlock: XUDNAN_clean_linker_2, # of connection points: 2
#     Edge 25, Type (0, 0), BuildingBlock: XUDNAN_clean_linker_2, # of connection points: 2
#     Edge 26, Type (0, 0), BuildingBlock: XUDNAN_clean_linker_2, # of connection points: 2
#     Edge 27, Type (0, 0), BuildingBlock: XUDNAN_clean_linker_2, # of connection points: 2
#     Edge 28, Type (0, 0), BuildingBlock: XUDNAN_clean_linker_2, # of connection points: 2
#     Edge 29, Type (0, 0), BuildingBlock: XUDNAN_clean_linker_2, # of connection points: 2
#     Edge 30, Type (0, 0), BuildingBlock: XUDNAN_clean_linker_2, # of connection points: 2
#     Edge 31, Type (0, 0), BuildingBlock: XUDNAN_clean_linker_2, # of connection points: 2
#     Edge 32, Type (0, 0), BuildingBlock: XUDNAN_clean_linker_2, # of connection points: 2
#     Edge 33, Type (0, 0), BuildingBlock: XUDNAN_clean_linker_2, # of connection points: 2
#     Edge 34, Type (0, 0), BuildingBlock: XUDNAN_clean_linker_2, # of connection points: 2
#     Edge 35, Type (0, 0), BuildingBlock: XUDNAN_clean_linker_2, # of connection points: 2
#     Edge 36, Type (0, 0), BuildingBlock: XUDNAN_clean_linker_2, # of connection points: 2
#     Edge 37, Type (0, 0), BuildingBlock: XUDNAN_clean_linker_2, # of connection points: 2
#     Edge 38, Type (0, 0), BuildingBlock: XUDNAN_clean_linker_2, # of connection points: 2
#     Edge 39, Type (0, 0), BuildingBlock: XUDNAN_clean_linker_2, # of connection points: 2
#     Edge 40, Type (0, 0), BuildingBlock: XUDNAN_clean_linker_2, # of connection points: 2
#     Edge 41, Type (0, 0), BuildingBlock: XUDNAN_clean_linker_2, # of connection points: 2
#     Edge 42, Type (0, 0), BuildingBlock: XUDNAN_clean_linker_2, # of connection points: 2
#     Edge 43, Type (0, 0), BuildingBlock: XUDNAN_clean_linker_2, # of connection points: 2
#     Edge 44, Type (0, 0), BuildingBlock: XUDNAN_clean_linker_2, # of connection points: 2
#     Edge 45, Type (0, 0), BuildingBlock: XUDNAN_clean_linker_2, # of connection points: 2
#     Edge 46, Type (0, 0), BuildingBlock: XUDNAN_clean_linker_2, # of connection points: 2
#     Edge 47, Type (0, 0), BuildingBlock: XUDNAN_clean_linker_2, # of connection points: 2
#     Edge 48, Type (0, 0), BuildingBlock: XUDNAN_clean_linker_2, # of connection points: 2
#     Edge 49, Type (0, 0), BuildingBlock: XUDNAN_clean_linker_2, # of connection points: 2
#     Edge 50, Type (0, 0), BuildingBlock: XUDNAN_clean_linker_2, # of connection points: 2
#     Edge 51, Type (0, 0), BuildingBlock: XUDNAN_clean_linker_2, # of connection points: 2
#     Edge 52, Type (0, 0), BuildingBlock: XUDNAN_clean_linker_2, # of connection points: 2
#     Edge 53, Type (0, 0), BuildingBlock: XUDNAN_clean_linker_2, # of connection points: 2
#     Edge 54, Type (0, 0), BuildingBlock: XUDNAN_clean_linker_2, # of connection points: 2
#     Edge 55, Type (0, 0), BuildingBlock: XUDNAN_clean_linker_2, # of connection points: 2
#     Edge 56, Type (0, 0), BuildingBlock: XUDNAN_clean_linker_2, # of connection points: 2
#     Edge 57, Type (0, 0), BuildingBlock: XUDNAN_clean_linker_2, # of connection points: 2
#     Edge 58, Type (0, 0), BuildingBlock: XUDNAN_clean_linker_2, # of connection points: 2
#     Edge 59, Type (0, 0), BuildingBlock: XUDNAN_clean_linker_2, # of connection points: 2
#     Edge 60, Type (0, 0), BuildingBlock: XUDNAN_clean_linker_2, # of connection points: 2
#     Edge 61, Type (0, 0), BuildingBlock: XUDNAN_clean_linker_2, # of connection points: 2
#     Edge 62, Type (0, 0), BuildingBlock: XUDNAN_clean_linker_2, # of connection points: 2
#     Edge 63, Type (0, 0), BuildingBlock: XUDNAN_clean_linker_2, # of connection points: 2
# Relax obj value: 0.444
# Max RMSD: 0.268
# Mean RMSD: 0.268
data_MOF--net-wib--node1-IZENUY_clean_sbu_0--edge1-XUDNAN_clean_linker_2
_symmetry_space_group_name_H-M    P1
_symmetry_Int_Tables_number       1
_symmetry_cell_setting            triclinic
loop_
_symmetry_equiv_pos_as_xyz
'x, y, z'
_cell_length_a     30.277839
_cell_length_b     30.274639
_cell_length_c     57.710909
_cell_angle_alpha  90.009103
_cell_angle_beta   90.067634
_cell_angle_gamma 89.985953
loop_
_atom_site_label
_atom_site_type_symbol
_atom_site_fract_x
_atom_site_fract_y
_atom_site_fract_z
_atom_type_partial_charge
Fe0 Fe 0.08937 0.57455 0.26552 0.0
Fe1 Fe 0.12921 0.48261 0.27112 0.0
O2 O 0.12299 0.53736 0.28125 0.0
Fe3 Fe 0.14997 0.55513 0.30673 0.0
O4 O 0.17802 0.59811 0.29132 0.0
O5 O 0.1195 0.62413 0.27385 0.0
O6 O 0.12524 0.5708 0.24049 0.0
C7 C 0.13221 0.53543 0.22959 0.0
C8 C 0.06474 0.59825 0.30875 0.0
O9 O 0.12405 0.49824 0.23943 0.0
C10 C 0.13229 0.47252 0.32135 0.0
O11 O 0.05212 0.53198 0.25432 0.0
O12 O 0.06917 0.47294 0.27431 0.0
O13 O 0.10449 0.59317 0.31569 0.0
O14 O 0.05237 0.58091 0.28991 0.0
C15 C 0.21488 0.50366 0.28299 0.0
O16 O 0.1385 0.45791 0.30078 0.0
O17 O 0.1241 0.51284 0.32422 0.0
C18 C 0.04038 0.49648 0.26402 0.0
O19 O 0.18841 0.48987 0.26759 0.0
O20 O 0.20049 0.52167 0.30148 0.0
C21 C 0.15802 0.62921 0.28162 0.0
Fe22 Fe 0.27594 0.37639 0.52184 0.0
Fe23 Fe 0.20504 0.40069 0.55755 0.0
O24 O 0.22099 0.37294 0.53202 0.0
Fe25 Fe 0.18192 0.34141 0.51636 0.0
O26 O 0.18781 0.37654 0.49117 0.0
O27 O 0.26013 0.37136 0.49014 0.0
O28 O 0.27143 0.43572 0.51807 0.0
C29 C 0.25982 0.46268 0.53367 0.0
C30 C 0.25764 0.28844 0.51533 0.0
O31 O 0.24154 0.44907 0.55226 0.0
C32 C 0.15649 0.31843 0.55956 0.0
O33 O 0.30115 0.38486 0.55151 0.0
O34 O 0.24587 0.37211 0.57489 0.0
O35 O 0.22251 0.30146 0.50559 0.0
O36 O 0.28268 0.31629 0.52529 0.0
C37 C 0.1313 0.41331 0.53273 0.0
O38 O 0.16414 0.35772 0.56655 0.0
O39 O 0.17325 0.30505 0.54081 0.0
C40 C 0.28645 0.37898 0.57209 0.0
O41 O 0.16384 0.43133 0.5422 0.0
O42 O 0.13412 0.37484 0.52448 0.0
C43 C 0.22341 0.38094 0.48016 0.0
Fe44 Fe 0.38243 0.52326 0.77235 0.0
Fe45 Fe 0.35789 0.45134 0.80762 0.0
O46 O 0.38651 0.46824 0.78246 0.0
Fe47 Fe 0.41939 0.42996 0.76708 0.0
O48 O 0.38539 0.43553 0.74143 0.0
O49 O 0.38861 0.50796 0.74065 0.0
O50 O 0.32337 0.51782 0.76802 0.0
C51 C 0.29614 0.50554 0.78331 0.0
C52 C 0.47088 0.50697 0.76655 0.0
O53 O 0.30934 0.48728 0.80197 0.0
C54 C 0.44045 0.40329 0.81028 0.0
O55 O 0.37279 0.54786 0.802 0.0
O56 O 0.38503 0.49243 0.82552 0.0
O57 O 0.45917 0.47127 0.75694 0.0
O58 O 0.4422 0.53122 0.77633 0.0
C59 C 0.34699 0.37852 0.78155 0.0
O60 O 0.4009 0.41053 0.81691 0.0
O61 O 0.45461 0.42142 0.79204 0.0
C62 C 0.37798 0.53306 0.82262 0.0
O63 O 0.32832 0.40999 0.79166 0.0
O64 O 0.3862 0.38178 0.77448 0.0
C65 C 0.38011 0.47113 0.73052 0.0
Fe66 Fe 0.23387 0.63581 0.02153 0.0
Fe67 Fe 0.30876 0.6103 0.05499 0.0
O68 O 0.28936 0.64054 0.03083 0.0
Fe69 Fe 0.32601 0.67537 1.01555 0.0
O70 O 0.31991 0.6428 0.9895 0.0
O71 O 0.24736 0.64296 0.98967 0.0
O72 O 0.23975 0.57696 1.01653 0.0
C73 C 0.2531 0.5492 0.0313 0.0
C74 C 0.24775 0.72485 1.01626 0.0
O75 O 0.27293 0.56176 0.04959 0.0
C76 C 0.35412 0.69389 0.05898 0.0
O77 O 0.21153 0.62515 0.05154 0.0
O78 O 0.26882 0.63566 0.07425 0.0
O79 O 0.28358 0.71462 1.00646 0.0
O80 O 0.22481 0.6953 0.02611 0.0
C81 C 0.37888 0.60244 0.02654 0.0
O82 O 0.34952 0.65317 0.06408 0.0
O83 O 0.33554 0.70939 0.04111 0.0
C84 C 0.22788 0.6294 0.07193 0.0
O85 O 0.34922 0.58243 0.03747 0.0
O86 O 0.37481 0.6427 0.02154 0.0
C87 C 0.28404 0.63573 0.97916 0.0
Fe88 Fe 0.85153 0.44435 0.73013 0.0
Fe89 Fe 0.9162 0.42358 0.76933 0.0
O90 O 0.88416 0.46247 0.75375 0.0
Fe91 Fe 0.88362 0.51859 0.76223 0.0
O92 O 0.8243 0.51729 0.76751 0.0
O93 O 0.80693 0.48518 0.73459 0.0
O94 O 0.82022 0.40959 0.74906 0.0
C95 C 0.83639 0.38192 0.7628 0.0
C96 C 0.87753 0.52155 0.71171 0.0
O97 O 0.87763 0.37805 0.76501 0.0
C98 C 0.97181 0.49826 0.76721 0.0
O99 O 0.8895 0.39853 0.7218 0.0
O100 O 0.94762 0.40931 0.74372 0.0
O101 O 0.8746 0.53954 0.7318 0.0
O102 O 0.88045 0.48005 0.71009 0.0
C103 C 0.88179 0.4711 0.80533 0.0
O104 O 0.96001 0.46264 0.77684 0.0
O105 O 0.94344 0.5231 0.75758 0.0
C106 C 0.9298 0.39043 0.72663 0.0
O107 O 0.88639 0.43431 0.79565 0.0
O108 O 0.89043 0.50668 0.79419 0.0
C109 C 0.79553 0.50545 0.7529 0.0
Fe110 Fe 0.8333 0.64981 0.51848 0.0
Fe111 Fe 0.73709 0.62141 0.51186 0.0
O112 O 0.79294 0.61978 0.50304 0.0
Fe113 Fe 0.80914 0.5869 0.47905 0.0
O114 O 0.84295 0.55303 0.49751 0.0
O115 O 0.8765 0.60904 0.51386 0.0
O116 O 0.82181 0.62042 0.54494 0.0
C117 C 0.78504 0.61759 0.55478 0.0
C118 C 0.86648 0.66237 0.47564 0.0
O119 O 0.7497 0.62743 0.54374 0.0
C120 C 0.73309 0.61816 0.4614 0.0
O121 O 0.79645 0.69536 0.52612 0.0
O122 O 0.73448 0.68138 0.50758 0.0
O123 O 0.8568 0.62248 0.47081 0.0
O124 O 0.84851 0.68077 0.49281 0.0
C125 C 0.74643 0.53346 0.50178 0.0
O126 O 0.7153 0.61419 0.48149 0.0
O127 O 0.77466 0.61861 0.45955 0.0
C128 C 0.76085 0.70862 0.51694 0.0
O129 O 0.73678 0.56196 0.5169 0.0
O130 O 0.76586 0.54455 0.48323 0.0
C131 C 0.87116 0.56798 0.51139 0.0
Fe132 Fe 0.62746 0.49399 0.26057 0.0
Fe133 Fe 0.65794 0.56286 0.22553 0.0
O134 O 0.62776 0.54901 0.25046 0.0
Fe135 Fe 0.5989 0.59069 0.26574 0.0
O136 O 0.63217 0.58157 0.2914 0.0
O137 O 0.62211 0.50969 0.29199 0.0
O138 O 0.68703 0.4944 0.26501 0.0
C139 C 0.7151 0.50376 0.24955 0.0
C140 C 0.54062 0.51753 0.26647 0.0
O141 O 0.7028 0.52204 0.23074 0.0
C142 C 0.58016 0.61877 0.22259 0.0
O143 O 0.63474 0.46889 0.23092 0.0
O144 O 0.62643 0.52535 0.20761 0.0
O145 O 0.55454 0.5531 0.27567 0.0
O146 O 0.56756 0.49127 0.25673 0.0
C147 C 0.67661 0.6345 0.25031 0.0
O148 O 0.61927 0.60818 0.21635 0.0
O149 O 0.56436 0.60263 0.24091 0.0
C150 C 0.62992 0.48427 0.21039 0.0
O151 O 0.69138 0.59933 0.2422 0.0
O152 O 0.6374 0.63601 0.25797 0.0
C153 C 0.63387 0.5454 0.30213 0.0
Fe154 Fe 0.67864 0.34915 1.01803 0.0
Fe155 Fe 0.77429 0.38076 1.01256 0.0
O156 O 0.71917 0.37903 1.00251 0.0
Fe157 Fe 0.7043 0.40865 0.97724 0.0
O158 O 0.66787 0.44231 0.9936 0.0
O159 O 0.63422 0.3886 1.012 0.0
O160 O 0.68792 0.38102 0.04393 0.0
C161 C 0.72388 0.38499 0.05447 0.0
C162 C 0.64809 0.3317 0.97506 0.0
O163 O 0.76 0.37546 0.0442 0.0
C164 C 0.78298 0.38146 0.96219 0.0
O165 O 0.71683 0.30509 0.02699 0.0
O166 O 0.77944 0.32051 1.00918 0.0
O167 O 0.65862 0.37063 0.9688 0.0
O168 O 0.66519 0.31549 0.99304 0.0
C169 C 0.76092 0.46786 1.00076 0.0
O170 O 0.79841 0.38792 0.98264 0.0
O171 O 0.7419 0.37664 0.95957 0.0
C172 C 0.75345 0.29265 1.0185 0.0
O173 O 0.771 0.44085 1.01667 0.0
O174 O 0.74515 0.45371 0.98173 0.0
C175 C 0.63853 0.42911 1.0072 0.0
Fe176 Fe 0.63146 0.98418 0.77759 0.0
Fe177 Fe 0.65631 0.05766 0.81194 0.0
O178 O 0.62781 0.0397 0.78688 0.0
Fe179 Fe 0.59538 0.07748 0.77082 0.0
O180 O 0.62966 0.07065 0.74537 0.0
O181 O 0.62631 0.99818 0.74569 0.0
O182 O 0.6906 0.98863 0.77359 0.0
C183 C 0.71788 1.00133 0.78877 0.0
C184 C 0.54313 1.00093 0.77088 0.0
O185 O 0.70477 0.02102 0.80705 0.0
C186 C 0.57394 0.10631 0.81352 0.0
O187 O 0.6401 0.96093 0.80767 0.0
O188 O 0.62868 0.0178 0.83036 0.0
O189 O 0.55535 0.03607 0.7609 0.0
O190 O 0.57146 0.97703 0.7812 0.0
C191 C 0.66772 0.12943 0.7853 0.0
O192 O 0.61338 0.09923 0.82046 0.0
O193 O 0.55993 0.08716 0.79552 0.0
C194 C 0.63481 0.9769 0.82806 0.0
O195 O 0.68631 0.098 0.79551 0.0
O196 O 0.62873 0.12582 0.77787 0.0
C197 C 0.63566 0.03441 0.73519 0.0
Fe198 Fe 0.67411 0.84614 0.02508 0.0
Fe199 Fe 0.7698 0.87943 0.02984 0.0
O200 O 0.71441 0.87843 0.03965 0.0
Fe201 Fe 0.69845 0.91109 0.0636 0.0
O202 O 0.66106 0.9413 0.04571 0.0
O203 O 0.62782 0.88382 0.03092 0.0
O204 O 0.68228 0.87621 0.9983 0.0
C205 C 0.71832 0.88034 0.98767 0.0
C206 C 0.6444 0.83276 0.06842 0.0
O207 O 0.75482 0.87228 0.9982 0.0
C208 C 0.77729 0.88686 0.0805 0.0
O209 O 0.71289 0.80204 1.01683 0.0
O210 O 0.77555 0.81944 0.0341 0.0
O211 O 0.65419 0.87257 0.07344 0.0
O212 O 0.66242 0.81469 0.05113 0.0
C213 C 0.75643 0.96783 0.03906 0.0
O214 O 0.79372 0.88896 0.05995 0.0
O215 O 0.73614 0.8831 0.08284 0.0
C216 C 0.74981 0.79073 0.02536 0.0
O217 O 0.7675 0.93878 0.02446 0.0
O218 O 0.73785 0.95658 0.05786 0.0
C219 C 0.62742 0.92386 0.03711 0.0
Fe220 Fe 0.86988 0.02028 0.28036 0.0
Fe221 Fe 0.84058 0.93044 0.30085 0.0
O222 O 0.87547 0.96207 0.28278 0.0
Fe223 Fe 0.91559 0.93469 0.26519 0.0
O224 O 0.91761 0.97658 0.24236 0.0
O225 O 0.85838 0.01419 0.24863 0.0
O226 O 0.8097 0.02227 0.28389 0.0
C227 C 0.78049 0.99249 0.28421 0.0
C228 C 0.96413 0.00306 0.28063 0.0
O229 O 0.79043 0.95288 0.28832 0.0
C230 C 0.91498 0.87986 0.30488 0.0
O231 O 0.87717 0.02962 0.31217 0.0
O232 O 0.84 0.97083 0.32431 0.0
O233 O 0.95953 0.96154 0.28104 0.0
O234 O 0.93093 0.02822 0.27641 0.0
C235 C 0.84079 0.8875 0.25773 0.0
O236 O 0.88724 0.90346 0.31549 0.0
O237 O 0.92191 0.88615 0.28365 0.0
C238 C 0.85787 0.00795 0.32835 0.0
O239 O 0.83516 0.88619 0.27952 0.0
O240 O 0.87283 0.90768 0.24876 0.0
C241 C 0.88398 0.99537 0.23434 0.0
Fe242 Fe 0.73471 0.12068 0.52874 0.0
Fe243 Fe 0.8225 0.09577 0.55312 0.0
O244 O 0.79266 0.1265 0.53217 0.0
Fe245 Fe 0.82212 0.16213 0.51277 0.0
O246 O 0.78235 0.15967 0.4887 0.0
O247 O 0.74254 0.10389 0.4982 0.0
O248 O 0.73279 0.06113 0.53468 0.0
C249 C 0.76275 0.03235 0.53718 0.0
C250 C 0.75343 0.21423 0.52507 0.0
O251 O 0.80156 0.04319 0.54269 0.0
C252 C 0.87276 0.17054 0.55391 0.0
O253 O 0.72256 0.13264 0.55956 0.0
O254 O 0.77966 0.09853 0.57561 0.0
O255 O 0.7949 0.20937 0.52513 0.0
O256 O 0.72757 0.18104 0.52214 0.0
C257 C 0.86887 0.08648 0.51146 0.0
O258 O 0.84763 0.14571 0.56558 0.0
O259 O 0.86896 0.17209 0.53216 0.0
C260 C 0.74138 0.11531 0.57721 0.0
O261 O 0.86895 0.08665 0.53345 0.0
O262 O 0.84965 0.11578 0.49983 0.0
C263 C 0.76309 0.12478 0.48265 0.0
Fe264 Fe 0.34154 0.95016 0.22886 0.0
Fe265 Fe 0.40197 0.92703 0.26956 0.0
O266 O 0.37123 0.96652 0.25386 0.0
Fe267 Fe 0.36894 0.02173 0.26364 0.0
O268 O 0.30938 0.01791 0.2678 0.0
O269 O 0.29587 0.99027 0.23322 0.0
O270 O 0.3088 0.91327 0.24585 0.0
C271 C 0.32378 0.88475 0.25948 0.0
C272 C 0.36734 0.02941 0.21322 0.0
O273 O 0.36473 0.88137 0.26307 0.0
C274 C 0.45666 0.00221 0.26972 0.0
O275 O 0.38125 0.90537 0.22062 0.0
O276 O 0.43652 0.91523 0.2447 0.0
O277 O 0.36136 0.04516 0.23363 0.0
O278 O 0.37206 0.98823 0.21065 0.0
C279 C 0.36485 0.9715 0.30577 0.0
O280 O 0.44405 0.96643 0.27895 0.0
O281 O 0.42889 0.02775 0.26011 0.0
C282 C 0.42132 0.89837 0.22641 0.0
O283 O 0.36911 0.93544 0.29528 0.0
O284 O 0.37434 0.00764 0.29539 0.0
C285 C 0.28238 0.00753 0.25201 0.0
Fe286 Fe 0.33065 0.17019 1.02006 0.0
Fe287 Fe 0.23627 0.13642 1.01317 0.0
O288 O 0.29226 0.13754 1.00457 0.0
Fe289 Fe 0.31068 0.10519 0.98088 0.0
O290 O 0.34656 0.07436 0.9996 0.0
O291 O 0.37669 0.13264 1.01546 0.0
O292 O 0.32078 0.13988 0.04643 0.0
C293 C 0.28407 0.13483 0.05615 0.0
C294 C 0.3623 0.18468 0.97701 0.0
O295 O 0.2484 0.14344 0.04507 0.0
C296 C 0.23262 0.13014 0.96277 0.0
O297 O 0.29096 0.21322 0.02782 0.0
O298 O 0.23096 0.19613 1.00836 0.0
O299 O 0.35581 0.14401 0.97246 0.0
O300 O 0.3439 0.20206 0.99436 0.0
C301 C 0.25012 0.04857 1.00383 0.0
O302 O 0.21513 0.12699 0.98293 0.0
O303 O 0.27407 0.13352 0.96089 0.0
C304 C 0.25541 0.22474 1.01803 0.0
O305 O 0.23838 0.07723 1.0185 0.0
O306 O 0.27053 0.06 0.98556 0.0
C307 C 0.37424 0.09133 1.0131 0.0
Fe308 Fe 0.13 0.98401 0.76481 0.0
Fe309 Fe 0.16068 0.05655 0.73133 0.0
O310 O 0.12889 0.03956 0.75545 0.0
Fe311 Fe 0.09694 0.07906 0.77058 0.0
O312 O 0.12797 0.07036 0.79681 0.0
O313 O 0.12394 0.99788 0.79654 0.0
O314 O 0.18948 0.98604 0.76969 0.0
C315 C 0.21792 0.99746 0.75483 0.0
C316 C 0.04185 0.00396 0.77029 0.0
O317 O 0.20596 0.0165 0.73623 0.0
C318 C 0.08132 0.1081 0.72717 0.0
O319 O 0.1384 0.9613 0.73474 0.0
O320 O 0.13154 0.01936 0.71205 0.0
O321 O 0.05393 0.04007 0.77929 0.0
O322 O 0.06997 0.97886 0.76064 0.0
C323 C 0.17579 0.12172 0.76241 0.0
O324 O 0.1219 0.10144 0.72256 0.0
O325 O 0.06439 0.09092 0.74495 0.0
C326 C 0.13447 0.97801 0.7144 0.0
O327 O 0.19204 0.09285 0.74942 0.0
O328 O 0.1346 0.12489 0.76504 0.0
C329 C 0.13293 0.03411 0.80702 0.0
Fe330 Fe 0.17443 0.83812 0.52111 0.0
Fe331 Fe 0.26717 0.87595 0.51423 0.0
O332 O 0.21141 0.87189 0.50536 0.0
Fe333 Fe 0.192 0.9018 0.48117 0.0
O334 O 0.15262 0.93054 0.49885 0.0
O335 O 0.12543 0.87134 0.51501 0.0
O336 O 0.18176 0.87141 0.54679 0.0
C337 C 0.21817 0.8776 0.55679 0.0
C338 C 0.14625 0.81837 0.47786 0.0
O339 O 0.25434 0.86942 0.54607 0.0
C340 C 0.27212 0.88114 0.46388 0.0
O341 O 0.21656 0.79825 0.53025 0.0
O342 O 0.27503 0.81627 0.50996 0.0
O343 O 0.15062 0.85903 0.47251 0.0
O344 O 0.16427 0.80345 0.49598 0.0
C345 C 0.24907 0.96282 0.50413 0.0
O346 O 0.28899 0.88565 0.48411 0.0
O347 O 0.23107 0.87552 0.46182 0.0
C348 C 0.25201 0.78725 0.52022 0.0
O349 O 0.26244 0.9351 0.51894 0.0
O350 O 0.22851 0.95014 0.48606 0.0
C351 C 0.12183 0.91141 0.5093 0.0
H352 H 0.28468 0.55222 0.3009 0.0
H353 H 0.25489 0.44014 0.25671 0.0
H354 H 0.33442 0.42994 0.24907 0.0
H355 H 0.37081 0.5956 0.2652 0.0
H356 H 0.40523 0.61374 0.28886 0.0
H357 H 0.34627 0.6107 0.29254 0.0
H358 H 0.35597 0.55968 0.32798 0.0
H359 H 0.41508 0.56267 0.32474 0.0
H360 H 0.38793 0.5097 0.32523 0.0
H361 H 0.41747 0.43213 0.24567 0.0
H362 H 0.49729 0.44874 0.24531 0.0
H363 H 0.47423 0.56138 0.29029 0.0
C364 C 0.29499 0.52513 0.28991 0.0
C365 C 0.26333 0.49664 0.27962 0.0
C366 C 0.27829 0.46229 0.26488 0.0
C367 C 0.32352 0.45617 0.26045 0.0
C368 C 0.35379 0.48495 0.27065 0.0
C369 C 0.3402 0.51894 0.28498 0.0
C370 C 0.37956 0.54647 0.29279 0.0
C371 C 0.37521 0.59446 0.28433 0.0
C372 C 0.38495 0.5445 0.31926 0.0
C373 C 0.41726 0.52266 0.28061 0.0
C374 C 0.40164 0.48703 0.2681 0.0
C375 C 0.43004 0.45995 0.25543 0.0
C376 C 0.4755 0.46961 0.25537 0.0
C377 C 0.49249 0.5063 0.26779 0.0
C378 C 0.46263 0.533 0.28062 0.0
H379 H 0.21717 0.72196 0.54756 0.0
H380 H 0.31621 0.74451 0.49457 0.0
H381 H 0.33198 0.66412 0.49367 0.0
H382 H 0.27552 0.63328 0.57809 0.0
H383 H 0.22527 0.60357 0.58418 0.0
H384 H 0.22429 0.66288 0.58162 0.0
H385 H 0.16389 0.65691 0.54994 0.0
H386 H 0.16483 0.59764 0.5523 0.0
H387 H 0.17401 0.62358 0.52461 0.0
H388 H 0.33185 0.57984 0.49636 0.0
H389 H 0.31893 0.50047 0.50362 0.0
H390 H 0.22124 0.53375 0.55572 0.0
C391 C 0.2427 0.71027 0.53595 0.0
C392 C 0.26558 0.73985 0.52114 0.0
C393 C 0.2985 0.72277 0.5062 0.0
C394 C 0.30755 0.67707 0.50554 0.0
C395 C 0.28371 0.64887 0.52008 0.0
C396 C 0.25227 0.66499 0.53518 0.0
C397 C 0.23021 0.62788 0.54855 0.0
C398 C 0.23938 0.63217 0.57466 0.0
C399 C 0.18029 0.62643 0.54354 0.0
C400 C 0.25357 0.58806 0.53839 0.0
C401 C 0.2843 0.60081 0.52197 0.0
C402 C 0.30829 0.56966 0.5094 0.0
C403 C 0.30061 0.52455 0.51362 0.0
C404 C 0.26936 0.51065 0.53042 0.0
C405 C 0.24591 0.54312 0.54306 0.0
H406 H 0.22536 0.45998 0.80116 0.0
H407 H 0.25874 0.57015 0.75646 0.0
H408 H 0.17941 0.58289 0.74871 0.0
H409 H 0.13818 0.41897 0.76531 0.0
H410 H 0.10419 0.40155 0.78923 0.0
H411 H 0.16332 0.40321 0.7924 0.0
H412 H 0.15513 0.45443 0.82812 0.0
H413 H 0.09593 0.45303 0.82503 0.0
H414 H 0.1245 0.50526 0.82546 0.0
H415 H 0.0953 0.58271 0.7453 0.0
H416 H 0.01489 0.56711 0.74522 0.0
H417 H 0.03758 0.45559 0.79102 0.0
C418 C 0.21593 0.48722 0.79003 0.0
C419 C 0.2483 0.51442 0.77966 0.0
C420 C 0.23457 0.54899 0.76471 0.0
C421 C 0.18954 0.55654 0.76022 0.0
C422 C 0.15845 0.52893 0.77057 0.0
C423 C 0.17112 0.49475 0.78505 0.0
C424 C 0.13144 0.46829 0.79298 0.0
C425 C 0.13447 0.42017 0.78447 0.0
C426 C 0.12646 0.4704 0.81947 0.0
C427 C 0.09447 0.49308 0.78087 0.0
C428 C 0.11055 0.5281 0.76811 0.0
C429 C 0.08237 0.55539 0.75529 0.0
C430 C 0.03669 0.54639 0.75539 0.0
C431 C 0.01958 0.51024 0.76812 0.0
C432 C 0.04922 0.48361 0.7811 0.0
H433 H 0.29475 0.28996 0.04357 0.0
H434 H 0.1899 0.26816 0.9935 0.0
H435 H 0.17578 0.34887 0.99242 0.0
H436 H 0.24183 0.3794 0.07511 0.0
H437 H 0.29305 0.4085 0.07966 0.0
H438 H 0.293 0.34918 0.07718 0.0
H439 H 0.34985 0.35421 0.04372 0.0
H440 H 0.34992 0.41349 0.04604 0.0
H441 H 0.33734 0.38761 1.0187 0.0
H442 H 0.17734 0.43322 0.99494 0.0
H443 H 0.19139 0.51246 1.00222 0.0
H444 H 0.29409 0.47779 0.05146 0.0
C445 C 0.2684 0.30188 0.03251 0.0
C446 C 0.24332 0.27246 1.01862 0.0
C447 C 0.20933 0.28984 1.00441 0.0
C448 C 0.20121 0.33568 1.00364 0.0
C449 C 0.22715 0.36368 1.01731 0.0
C450 C 0.25981 0.34726 0.03162 0.0
C451 C 0.28383 0.38406 0.04426 0.0
C452 C 0.27753 0.38004 0.07062 0.0
C453 C 0.33314 0.38488 0.03778 0.0
C454 C 0.25988 0.42403 0.03473 0.0
C455 C 0.22741 0.41168 1.01913 0.0
C456 C 0.20234 0.4431 1.00732 0.0
C457 C 0.21066 0.48809 1.01154 0.0
C458 C 0.24356 0.50148 0.0276 0.0
C459 C 0.26821 0.46876 0.03938 0.0
H460 H 0.5358 0.46743 0.74095 0.0
H461 H 0.51491 0.57254 0.79088 0.0
H462 H 0.59579 0.58588 0.79204 0.0
H463 H 0.63286 0.42406 0.76622 0.0
H464 H 0.65863 0.4108 0.73897 0.0
H465 H 0.59934 0.4116 0.74122 0.0
H466 H 0.59496 0.46807 0.70751 0.0
H467 H 0.65427 0.46726 0.70507 0.0
H468 H 0.62578 0.5189 0.70938 0.0
H469 H 0.68086 0.58311 0.78964 0.0
H470 H 0.76 0.56784 0.78225 0.0
H471 H 0.72329 0.46585 0.7331 0.0
C472 C 0.54793 0.49375 0.75196 0.0
C473 C 0.51867 0.5191 0.76578 0.0
C474 C 0.53641 0.55294 0.77997 0.0
C475 C 0.58239 0.56058 0.78081 0.0
C476 C 0.61023 0.53431 0.76724 0.0
C477 C 0.59342 0.50183 0.75292 0.0
C478 C 0.62995 0.47725 0.74041 0.0
C479 C 0.63019 0.42803 0.74711 0.0
C480 C 0.626 0.48325 0.71403 0.0
C481 C 0.67021 0.5008 0.74989 0.0
C482 C 0.65836 0.53343 0.76546 0.0
C483 C 0.6903 0.55801 0.77725 0.0
C484 C 0.73524 0.54904 0.77296 0.0
C485 C 0.74803 0.51606 0.75684 0.0
C486 C 0.71478 0.49189 0.74517 0.0
H487 H 0.79193 0.28768 0.54361 0.0
H488 H 0.67935 0.24571 0.50267 0.0
H489 H 0.6614 0.32409 0.49446 0.0
H490 H 0.73989 0.38965 0.56771 0.0
H491 H 0.79122 0.41971 0.56647 0.0
H492 H 0.79159 0.36087 0.57123 0.0
H493 H 0.84342 0.35109 0.53593 0.0
H494 H 0.8427 0.40972 0.53094 0.0
H495 H 0.82669 0.37237 0.50809 0.0
H496 H 0.66306 0.40702 0.48595 0.0
H497 H 0.67954 0.48698 0.48141 0.0
H498 H 0.78858 0.47449 0.52953 0.0
C499 C 0.76276 0.29498 0.53342 0.0
C500 C 0.73689 0.26048 0.52385 0.0
C501 C 0.69927 0.27147 0.51044 0.0
C502 C 0.68903 0.31595 0.50558 0.0
C503 C 0.71624 0.34909 0.51461 0.0
C504 C 0.75182 0.33905 0.52869 0.0
C505 C 0.77711 0.38037 0.53548 0.0
C506 C 0.77479 0.3881 0.56178 0.0
C507 C 0.82531 0.37822 0.5271 0.0
C508 C 0.7512 0.41519 0.52241 0.0
C509 C 0.71616 0.39661 0.51045 0.0
C510 C 0.68973 0.42195 0.49568 0.0
C511 C 0.6993 0.46721 0.49315 0.0
C512 C 0.73464 0.48669 0.5055 0.0
C513 C 0.76067 0.4604 0.52038 0.0
H514 H 0.78843 0.54006 0.22862 0.0
H515 H 0.74977 0.44225 0.27957 0.0
H516 H 0.82846 0.42552 0.2872 0.0
H517 H 0.88505 0.48312 0.20601 0.0
H518 H 0.91694 0.53311 0.20325 0.0
H519 H 0.85765 0.53506 0.20078 0.0
H520 H 0.85439 0.59364 0.23351 0.0
H521 H 0.91364 0.59197 0.236 0.0
H522 H 0.87978 0.58176 0.26109 0.0
H523 H 0.91351 0.42105 0.28999 0.0
H524 H 0.99471 0.43285 0.28909 0.0
H525 H 0.97642 0.53476 0.2371 0.0
C526 C 0.79645 0.51458 0.2411 0.0
C527 C 0.76263 0.49208 0.25325 0.0
C528 C 0.77487 0.45981 0.26991 0.0
C529 C 0.81961 0.45 0.27434 0.0
C530 C 0.85213 0.47298 0.26218 0.0
C531 C 0.84098 0.50486 0.246 0.0
C532 C 0.88199 0.52683 0.23628 0.0
C533 C 0.88561 0.51905 0.21002 0.0
C534 C 0.88246 0.57647 0.24207 0.0
C535 C 0.91795 0.50227 0.24936 0.0
C536 C 0.90032 0.47113 0.26416 0.0
C537 C 0.92756 0.44527 0.27835 0.0
C538 C 0.97376 0.45198 0.27766 0.0
C539 C 0.99239 0.4845 0.26297 0.0
C540 C 0.96368 0.50937 0.2485 0.0
H541 H 0.72253 0.52644 0.03124 0.0
H542 H 0.8182 0.51844 0.97569 0.0
H543 H 0.83084 0.59924 0.9785 0.0
H544 H 0.67294 0.62536 1.01173 0.0
H545 H 0.66272 0.64868 0.03998 0.0
H546 H 0.6652 0.58972 0.03645 0.0
H547 H 0.72581 0.58312 0.06727 0.0
H548 H 0.72351 0.642 0.07177 0.0
H549 H 0.77529 0.61588 0.06472 0.0
H550 H 0.83261 0.68212 0.98737 0.0
H551 H 0.81637 0.76002 0.99775 0.0
H552 H 0.7138 0.71577 0.04451 0.0
C553 C 0.7467 0.54172 1.01998 0.0
C554 C 0.77021 0.51601 1.00356 0.0
C555 C 0.80044 0.53737 0.98861 0.0
C556 C 0.80782 0.58327 0.99013 0.0
C557 C 0.78404 0.60785 1.00641 0.0
C558 C 0.75358 0.58785 0.02086 0.0
C559 C 0.72958 0.62231 0.03541 0.0
C560 C 0.67965 0.6215 0.03056 0.0
C561 C 0.73913 0.61541 0.06133 0.0
C562 C 0.7507 0.66479 0.02665 0.0
C563 C 0.7829 0.65563 1.01037 0.0
C564 C 0.80743 0.68951 1.00008 0.0
C565 C 0.79826 0.73371 1.00619 0.0
C566 C 0.76425 0.74399 0.0221 0.0
C567 C 0.74035 0.70888 0.03247 0.0
H568 H 0.79014 0.04448 0.80719 0.0
H569 H 0.75376 0.93631 0.76172 0.0
H570 H 0.83256 0.92205 0.75365 0.0
H571 H 0.87695 0.08484 0.7717 0.0
H572 H 0.91221 0.10052 0.7955 0.0
H573 H 0.85321 0.09984 0.79923 0.0
H574 H 0.86159 0.04679 0.83415 0.0
H575 H 0.9207 0.04733 0.83059 0.0
H576 H 0.89126 0.99559 0.8306 0.0
H577 H 0.91648 0.92101 0.74949 0.0
H578 H 0.99704 0.93586 0.74848 0.0
H579 H 0.97783 0.04588 0.79567 0.0
C580 C 0.79879 0.01729 0.79588 0.0
C581 C 0.76562 0.99122 0.78532 0.0
C582 C 0.77845 0.95667 0.77012 0.0
C583 C 0.82322 0.94822 0.76545 0.0
C584 C 0.8551 0.9748 0.77591 0.0
C585 C 0.8434 0.00877 0.79075 0.0
C586 C 0.88386 0.03417 0.79866 0.0
C587 C 0.8814 0.0827 0.79079 0.0
C588 C 0.88969 0.03074 0.82507 0.0
C589 C 0.92003 0.00927 0.78595 0.0
C590 C 0.90294 0.97489 0.77305 0.0
C591 C 0.93021 0.94778 0.75962 0.0
C592 C 0.976 0.95634 0.75919 0.0
C593 C 0.99411 0.99193 0.77198 0.0
C594 C 0.9654 0.0183 0.78566 0.0
H595 H 0.71489 0.041 0.05731 0.0
H596 H 0.81844 0.00283 1.00949 0.0
H597 H 0.83206 0.08159 1.00043 0.0
H598 H 0.67155 0.12774 0.02193 0.0
H599 H 0.65793 0.16317 0.04598 0.0
H600 H 0.65866 0.10415 0.0498 0.0
H601 H 0.71441 0.11263 0.0836 0.0
H602 H 0.71391 0.17171 0.07986 0.0
H603 H 0.76543 0.14193 0.07886 0.0
H604 H 0.83362 0.16621 0.99627 0.0
H605 H 0.81948 0.24691 0.99561 0.0
H606 H 0.7128 0.22879 0.04484 0.0
C607 C 0.74091 0.0492 0.04519 0.0
C608 C 0.76601 0.0155 0.03437 0.0
C609 C 0.79893 0.02786 1.01814 0.0
C610 C 0.80697 0.07262 1.01291 0.0
C611 C 0.78148 0.10499 0.02379 0.0
C612 C 0.74885 0.0937 0.03947 0.0
C613 C 0.72432 0.13447 0.04779 0.0
C614 C 0.67522 0.13224 0.04097 0.0
C615 C 0.72987 0.14053 0.07409 0.0
C616 C 0.74826 0.17048 0.03446 0.0
C617 C 0.7814 0.15299 0.02084 0.0
C618 C 0.80772 0.18013 1.00692 0.0
C619 C 0.79958 0.22607 1.00671 0.0
C620 C 0.7651 0.24461 1.02016 0.0
C621 C 0.7395 0.21605 0.03431 0.0
H622 H 0.52156 0.95088 0.28811 0.0
H623 H 0.50098 0.07679 0.25378 0.0
H624 H 0.58205 0.0899 0.25457 0.0
H625 H 0.61191 0.98392 0.32533 0.0
H626 H 0.63938 0.9314 0.32232 0.0
H627 H 0.5801 0.9345 0.32029 0.0
H628 H 0.58316 0.89656 0.28013 0.0
H629 H 0.64238 0.89391 0.28182 0.0
H630 H 0.61623 0.92064 0.25746 0.0
H631 H 0.66733 0.08733 0.25903 0.0
H632 H 0.74619 0.06881 0.26532 0.0
H633 H 0.70771 0.94282 0.29489 0.0
C634 C 0.53367 0.98165 0.28096 0.0
C635 C 0.5046 0.013 0.27102 0.0
C636 C 0.52244 0.05239 0.26164 0.0
C637 C 0.56846 0.06006 0.26202 0.0
C638 C 0.59607 0.02797 0.27178 0.0
C639 C 0.57902 0.98958 0.28107 0.0
C640 C 0.61502 0.95906 0.28964 0.0
C641 C 0.61137 0.95182 0.31596 0.0
C642 C 0.61414 0.91493 0.27646 0.0
C643 C 0.65546 0.98588 0.2836 0.0
C644 C 0.64411 0.02579 0.27356 0.0
C645 C 0.67637 0.05613 0.26686 0.0
C646 C 0.72111 0.04534 0.27053 0.0
C647 C 0.73328 0.00429 0.28055 0.0
C648 C 0.69973 0.97436 0.28707 0.0
H649 H 0.81366 0.77387 0.53435 0.0
H650 H 0.68528 0.75282 0.50264 0.0
H651 H 0.67062 0.83338 0.50503 0.0
H652 H 0.78022 0.85875 0.57417 0.0
H653 H 0.83116 0.88905 0.5714 0.0
H654 H 0.83078 0.83005 0.56741 0.0
H655 H 0.8655 0.83899 0.52644 0.0
H656 H 0.86696 0.89769 0.53114 0.0
H657 H 0.83962 0.87563 0.50587 0.0
H658 H 0.671 0.91761 0.51104 0.0
H659 H 0.6867 0.99635 0.51901 0.0
H660 H 0.81544 0.96031 0.54626 0.0
C661 C 0.78224 0.78588 0.52795 0.0
C662 C 0.75048 0.7567 0.51839 0.0
C663 C 0.71007 0.77432 0.51011 0.0
C664 C 0.7015 0.82007 0.51141 0.0
C665 C 0.73369 0.84776 0.52097 0.0
C666 C 0.77329 0.83113 0.52904 0.0
C667 C 0.80285 0.86741 0.53835 0.0
C668 C 0.81175 0.86092 0.56438 0.0
C669 C 0.84627 0.87007 0.5246 0.0
C670 C 0.77401 0.90743 0.53406 0.0
C671 C 0.7341 0.89554 0.52419 0.0
C672 C 0.70216 0.92713 0.51878 0.0
C673 C 0.71135 0.97184 0.52344 0.0
C674 C 0.7523 0.98478 0.53332 0.0
C675 C 0.7838 0.9518 0.53871 0.0
H676 H 0.03934 0.97373 0.30239 0.0
H677 H 0.99292 0.06735 0.25103 0.0
H678 H 0.07012 0.08224 0.23943 0.0
H679 H 0.1417 0.03804 0.31813 0.0
H680 H 0.1733 0.98827 0.32253 0.0
H681 H 0.1148 0.98859 0.32829 0.0
H682 H 0.10447 0.92243 0.30018 0.0
H683 H 0.16289 0.92248 0.29463 0.0
H684 H 0.12447 0.92689 0.27085 0.0
H685 H 0.15138 0.07651 0.22879 0.0
H686 H 0.23134 0.06035 0.22455 0.0
H687 H 0.22636 0.97689 0.28542 0.0
C688 C 0.04558 0.99847 0.28924 0.0
C689 C 0.01004 0.01972 0.27777 0.0
C690 C 0.01951 0.05133 0.26038 0.0
C691 C 0.06332 0.05968 0.25352 0.0
C692 C 0.0975 0.03701 0.26461 0.0
C693 C 0.08921 0.00805 0.28261 0.0
C694 C 0.13181 0.98742 0.29143 0.0
C695 C 0.14094 1.00143 0.31659 0.0
C696 C 0.13079 0.9368 0.28911 0.0
C697 C 0.16511 0.00778 0.27494 0.0
C698 C 0.14462 0.03608 0.25948 0.0
C699 C 0.16791 0.05542 0.24122 0.0
C700 C 0.2132 0.04595 0.23885 0.0
C701 C 0.23495 0.01812 0.25489 0.0
C702 C 0.2106 0.99912 0.27325 0.0
H703 H 0.28362 0.97628 0.98117 0.0
H704 H 0.1921 0.01331 0.03559 0.0
H705 H 0.17618 0.93434 0.04288 0.0
H706 H 0.22336 0.88091 0.95938 0.0
H707 H 0.27292 0.84927 0.95448 0.0
H708 H 0.2744 0.90865 0.95256 0.0
H709 H 0.33719 0.9112 0.9833 0.0
H710 H 0.33613 0.85185 0.98492 0.0
H711 H 0.32896 0.88428 1.01083 0.0
H712 H 0.17291 0.84933 0.04518 0.0
H713 H 0.1862 0.76839 0.04351 0.0
H714 H 0.28035 0.78911 0.98795 0.0
C715 C 0.25966 0.96792 0.99438 0.0
C716 C 0.23878 1.00121 1.00761 0.0
C717 C 0.2084 0.98854 0.0251 0.0
C718 C 0.19903 0.94369 0.02934 0.0
C719 C 0.22041 0.9117 1.01603 0.0
C720 C 0.25025 0.92342 0.99896 0.0
C721 C 0.27102 0.88304 0.98801 0.0
C722 C 0.25973 0.88032 0.96207 0.0
C723 C 0.32129 0.88259 0.992 0.0
C724 C 0.2484 0.84669 1.00157 0.0
C725 C 0.21904 0.86359 1.01757 0.0
C726 C 0.19563 0.83583 0.03256 0.0
C727 C 0.20318 0.78985 0.03144 0.0
C728 C 0.23416 0.77216 1.01558 0.0
C729 C 0.25627 0.80127 1.00026 0.0
H730 H 0.47786 0.04122 0.74548 0.0
H731 H 0.49905 0.93459 0.79449 0.0
H732 H 0.41837 0.92023 0.79498 0.0
H733 H 0.3787 0.08211 0.77036 0.0
H734 H 0.35354 0.09577 0.74298 0.0
H735 H 0.41277 0.09614 0.74584 0.0
H736 H 0.41939 0.041 0.71164 0.0
H737 H 0.36017 0.04061 0.70862 0.0
H738 H 0.38964 0.98946 0.71272 0.0
H739 H 0.33348 0.92146 0.79187 0.0
H740 H 0.25427 0.9351 0.78385 0.0
H741 H 0.28993 0.03934 0.73588 0.0
C742 C 0.46583 0.01443 0.75617 0.0
C743 C 0.4952 0.98888 0.76991 0.0
C744 C 0.47753 0.9544 0.78368 0.0
C745 C 0.43164 0.94615 0.78412 0.0
C746 C 0.4037 0.97246 0.7706 0.0
C747 C 0.42033 0.00569 0.75674 0.0
C748 C 0.38358 0.02991 0.74409 0.0
C749 C 0.38208 0.07887 0.75125 0.0
C750 C 0.3885 0.02493 0.7177 0.0
C751 C 0.34345 0.0052 0.75292 0.0
C752 C 0.35558 0.97239 0.76835 0.0
C753 C 0.32385 0.94672 0.77959 0.0
C754 C 0.27884 0.95475 0.77495 0.0
C755 C 0.26569 0.98785 0.75897 0.0
C756 C 0.29874 0.01316 0.74781 0.0
H757 H 0.21209 0.2236 0.4923 0.0
H758 H 0.32511 0.24323 0.53749 0.0
H759 H 0.33654 0.16211 0.5388 0.0
H760 H 0.1706 0.12761 0.52012 0.0
H761 H 0.15269 0.10157 0.49365 0.0
H762 H 0.15488 0.16088 0.49557 0.0
H763 H 0.20588 0.1634 0.45952 0.0
H764 H 0.20369 0.10407 0.4575 0.0
H765 H 0.2563 0.1317 0.45941 0.0
H766 H 0.33218 0.07769 0.53694 0.0
H767 H 0.31536 0.99871 0.53055 0.0
H768 H 0.20624 0.03514 0.48568 0.0
C769 C 0.2397 0.21112 0.50229 0.0
C770 C 0.26793 0.24016 0.51471 0.0
C771 C 0.30328 0.22194 0.52767 0.0
C772 C 0.30987 0.17583 0.52857 0.0
C773 C 0.28095 0.14828 0.51637 0.0
C774 C 0.24673 0.16541 0.50334 0.0
C775 C 0.21964 0.12898 0.49213 0.0
C776 C 0.17163 0.12983 0.5009 0.0
C777 C 0.22151 0.13224 0.46556 0.0
C778 C 0.24393 0.08842 0.50082 0.0
C779 C 0.279 0.10019 0.51492 0.0
C780 C 0.30509 0.06828 0.52573 0.0
C781 C 0.29519 0.02341 0.52203 0.0
C782 C 0.25975 0.01053 0.5074 0.0
C783 C 0.23401 0.04375 0.49663 0.0
H784 H 0.24275 0.65211 0.29003 0.0
H785 H 0.11093 0.70572 0.28075 0.0
H786 H 0.14003 0.78077 0.28588 0.0
H787 H 0.28552 0.74459 0.33075 0.0
H788 H 0.33885 0.74233 0.31697 0.0
H789 H 0.3066 0.69262 0.32021 0.0
H790 H 0.31129 0.67852 0.27577 0.0
H791 H 0.34409 0.7273 0.27288 0.0
H792 H 0.2941 0.72153 0.25614 0.0
H793 H 0.18259 0.84632 0.28154 0.0
H794 H 0.23651 0.89921 0.26628 0.0
H795 H 0.34213 0.80528 0.27879 0.0
C796 C 0.22003 0.67975 0.28971 0.0
C797 C 0.175 0.67364 0.28478 0.0
C798 C 0.14587 0.71009 0.28414 0.0
C799 C 0.16189 0.75267 0.28756 0.0
C800 C 0.20686 0.75788 0.29176 0.0
C801 C 0.2356 0.7224 0.29293 0.0
C802 C 0.2832 0.73704 0.29293 0.0
C803 C 0.30479 0.72865 0.31663 0.0
C804 C 0.30964 0.71482 0.27325 0.0
C805 C 0.27667 0.78575 0.28876 0.0
C806 C 0.23241 0.79734 0.2893 0.0
C807 C 0.21741 0.83837 0.2819 0.0
C808 C 0.24813 0.86778 0.27287 0.0
C809 C 0.29308 0.85559 0.27122 0.0
C810 C 0.30785 0.81514 0.28021 0.0
H811 H 0.05538 0.39577 0.50955 0.0
H812 H 0.10965 0.47086 0.56696 0.0
H813 H 0.03656 0.5016 0.5751 0.0
H814 H 0.99896 0.47576 0.48682 0.0
H815 H 0.95077 0.4454 0.47766 0.0
H816 H 0.00225 0.41721 0.48127 0.0
H817 H 0.966 0.36259 0.5105 0.0
H818 H 0.91419 0.39063 0.50598 0.0
H819 H 0.93577 0.38408 0.53493 0.0
H820 H 0.96855 0.53885 0.57069 0.0
H821 H 0.91049 0.58349 0.55258 0.0
H822 H 0.89613 0.48576 0.49818 0.0
C823 C 0.05129 0.41782 0.52417 0.0
C824 C 0.08774 0.43143 0.53743 0.0
C825 C 0.08199 0.46064 0.55631 0.0
C826 C 0.04042 0.47746 0.56142 0.0
C827 C 0.00511 0.46465 0.54755 0.0
C828 C 0.00997 0.43538 0.52928 0.0
C829 C 0.96943 0.43447 0.51405 0.0
C830 C 0.98108 0.44383 0.48848 0.0
C831 C 0.94488 0.39032 0.51655 0.0
C832 C 0.9436 0.47179 0.52492 0.0
C833 C 0.96379 0.48709 0.54493 0.0
C834 C 0.95145 0.52643 0.55556 0.0
C835 C 0.91904 0.55191 0.54496 0.0
C836 C 0.89983 0.5379 0.52393 0.0
C837 C 0.91033 0.49646 0.51447 0.0
H838 H 0.25993 0.35909 0.78454 0.0
H839 H 0.39074 0.30061 0.7842 0.0
H840 H 0.35821 0.22706 0.78983 0.0
H841 H 0.20643 0.27558 0.82554 0.0
H842 H 0.15606 0.27672 0.80886 0.0
H843 H 0.18952 0.32579 0.81125 0.0
H844 H 0.19334 0.33106 0.76639 0.0
H845 H 0.15992 0.28249 0.76409 0.0
H846 H 0.21302 0.28421 0.75007 0.0
H847 H 0.31426 0.16161 0.78793 0.0
H848 H 0.26065 0.1066 0.7743 0.0
H849 H 0.15707 0.20568 0.77545 0.0
C850 C 0.28156 0.33073 0.78615 0.0
C851 C 0.32755 0.33497 0.78389 0.0
C852 C 0.35526 0.29758 0.78563 0.0
C853 C 0.33721 0.25595 0.78934 0.0
C854 C 0.29158 0.25261 0.79129 0.0
C855 C 0.26399 0.2889 0.78959 0.0
C856 C 0.21613 0.27551 0.78786 0.0
C857 C 0.19054 0.28921 0.80969 0.0
C858 C 0.19441 0.2944 0.76578 0.0
C859 C 0.22164 0.22603 0.78667 0.0
C860 C 0.26526 0.21355 0.78977 0.0
C861 C 0.27983 0.17058 0.78609 0.0
C862 C 0.24939 0.13983 0.77806 0.0
C863 C 0.20527 0.15262 0.77372 0.0
C864 C 0.19068 0.19545 0.77903 0.0
H865 H 0.55855 0.41475 0.02792 0.0
H866 H 0.65028 0.51737 1.00648 0.0
H867 H 0.59499 0.57368 1.01485 0.0
H868 H 0.47019 0.45353 1.00228 0.0
H869 H 0.42932 0.4428 0.02426 0.0
H870 H 0.47865 0.40995 0.02313 0.0
H871 H 0.49759 0.43015 0.06562 0.0
H872 H 0.4474 0.46211 0.06721 0.0
H873 H 0.49968 0.48734 0.07421 0.0
H874 H 0.52848 0.6138 1.0131 0.0
H875 H 0.45308 0.64255 1.01116 0.0
H876 H 0.40279 0.5176 0.03725 0.0
C877 C 0.56734 0.4492 0.0259 0.0
C878 C 0.60796 0.46185 1.01614 0.0
C879 C 0.6188 0.50704 1.01354 0.0
C880 C 0.58795 0.53937 1.01854 0.0
C881 C 0.5471 0.5259 0.02665 0.0
C882 C 0.53686 0.48218 0.03107 0.0
C883 C 0.48856 0.47677 0.03704 0.0
C884 C 0.46536 0.44384 0.02069 0.0
C885 C 0.48299 0.46332 0.06254 0.0
C886 C 0.47298 0.52349 0.03296 0.0
C887 C 0.50755 0.55113 0.02724 0.0
C888 C 0.50119 0.59363 1.01893 0.0
C889 C 0.45825 0.60934 1.01757 0.0
C890 C 0.42254 0.58277 0.02491 0.0
C891 C 0.42983 0.53903 0.0323 0.0
H892 H 0.8554 0.30202 0.78141 0.0
H893 H 0.75097 0.39882 0.77318 0.0
H894 H 0.69739 0.34637 0.7891 0.0
H895 H 0.80621 0.2212 0.75899 0.0
H896 H 0.82311 0.17646 0.77762 0.0
H897 H 0.85674 0.22487 0.77549 0.0
H898 H 0.85269 0.23677 0.81984 0.0
H899 H 0.8198 0.18732 0.82232 0.0
H900 H 0.79976 0.23876 0.83405 0.0
H901 H 0.65409 0.28115 0.79159 0.0
H902 H 0.62316 0.20722 0.78529 0.0
H903 H 0.75386 0.14995 0.79223 0.0
C904 C 0.82156 0.31248 0.78399 0.0
C905 C 0.80676 0.35355 0.77579 0.0
C906 C 0.76246 0.36678 0.77902 0.0
C907 C 0.732 0.33755 0.78843 0.0
C908 C 0.74668 0.29563 0.79461 0.0
C909 C 0.79069 0.28327 0.79309 0.0
C910 C 0.79635 0.23403 0.79613 0.0
C911 C 0.82205 0.21298 0.77584 0.0
C912 C 0.81843 0.22361 0.81949 0.0
C913 C 0.74849 0.22031 0.79619 0.0
C914 C 0.72048 0.25643 0.79633 0.0
C915 C 0.67532 0.25247 0.79244 0.0
C916 C 0.65824 0.21054 0.78836 0.0
C917 C 0.6864 0.17332 0.78819 0.0
C918 C 0.73181 0.17814 0.79256 0.0
H919 H 0.75381 0.87591 0.26263 0.0
H920 H 0.86628 0.83657 0.22134 0.0
H921 H 0.82371 0.77409 0.2057 0.0
H922 H 0.72978 0.78671 0.28433 0.0
H923 H 0.67025 0.78655 0.2833 0.0
H924 H 0.69946 0.83786 0.28269 0.0
H925 H 0.66194 0.85929 0.24296 0.0
H926 H 0.6306 0.80877 0.24557 0.0
H927 H 0.66206 0.81979 0.21972 0.0
H928 H 0.78614 0.70534 0.20851 0.0
H929 H 0.74898 0.63935 0.22256 0.0
H930 H 0.65656 0.72035 0.26144 0.0
C931 C 0.76825 0.85517 0.24935 0.0
C932 C 0.81294 0.85983 0.2433 0.0
C933 C 0.83184 0.83297 0.22606 0.0
C934 C 0.80776 0.79767 0.21702 0.0
C935 C 0.76486 0.79089 0.22513 0.0
C936 C 0.74439 0.81998 0.24021 0.0
C937 C 0.70205 0.80082 0.2499 0.0
C938 C 0.70038 0.80311 0.27661 0.0
C939 C 0.66173 0.82347 0.2389 0.0
C940 C 0.70628 0.754 0.24134 0.0
C941 C 0.74156 0.74963 0.22623 0.0
C942 C 0.75718 0.70861 0.21935 0.0
C943 C 0.73625 0.6712 0.22791 0.0
C944 C 0.69968 0.67484 0.24318 0.0
C945 C 0.6841 0.71679 0.24964 0.0
H946 H 0.54827 0.90686 1.01662 0.0
H947 H 0.61232 0.98879 0.06848 0.0
H948 H 0.54272 0.02664 0.07604 0.0
H949 H 0.49599 0.98509 0.99025 0.0
H950 H 0.44458 0.9573 0.98415 0.0
H951 H 0.49382 0.92563 0.98845 0.0
H952 H 0.45542 0.88154 0.02126 0.0
H953 H 0.4058 0.91353 1.01701 0.0
H954 H 0.43088 0.91055 0.0453 0.0
H955 H 0.47792 0.06864 0.0705 0.0
H956 H 0.42089 0.11328 0.05149 0.0
H957 H 0.39509 0.00626 1.0033 0.0
C958 C 0.54698 0.93199 0.02996 0.0
C959 C 0.58537 0.94541 0.04167 0.0
C960 C 0.58324 0.97856 0.05894 0.0
C961 C 0.54362 0.99961 0.06377 0.0
C962 C 0.50649 0.98707 0.05128 0.0
C963 C 0.50756 0.9538 0.03479 0.0
C964 C 0.46577 0.95307 1.02053 0.0
C965 C 0.47568 0.95549 0.99432 0.0
C966 C 0.43782 0.91224 0.0264 0.0
C967 C 0.44422 0.99473 0.02944 0.0
C968 C 0.46713 0.01242 0.04801 0.0
C969 C 0.45865 0.05457 0.05653 0.0
C970 C 0.42686 0.07998 0.04537 0.0
C971 C 0.40448 0.06308 0.02583 0.0
C972 C 0.41178 0.01945 1.0184 0.0
H973 H 0.10125 0.99521 0.49579 0.0
H974 H 0.04362 0.8731 0.52089 0.0
H975 H 0.96936 0.90107 0.51126 0.0
H976 H 0.02509 0.06102 0.52272 0.0
H977 H 0.02457 0.10315 0.50062 0.0
H978 H 0.07267 0.06946 0.5045 0.0
H979 H 0.06816 0.04722 0.46108 0.0
H980 H 0.01876 0.07981 0.45743 0.0
H981 H 0.01851 0.02198 0.45 0.0
H982 H 0.90343 0.94162 0.50178 0.0
H983 H 0.84882 1.00084 0.50762 0.0
H984 H 0.94775 0.09904 0.49132 0.0
C985 C 0.073 0.97409 0.49896 0.0
C986 C 0.07795 0.93122 0.50806 0.0
C987 C 0.04031 0.90543 0.51309 0.0
C988 C 0.99827 0.92066 0.5073 0.0
C989 C 0.99468 0.96201 0.49696 0.0
C990 C 0.03084 0.98913 0.49374 0.0
C991 C 0.01739 0.03551 0.48734 0.0
C992 C 0.03599 0.06924 0.50484 0.0
C993 C 0.03155 0.04676 0.46248 0.0
C994 C 0.96785 0.03092 0.48909 0.0
C995 C 0.95551 0.98753 0.4932 0.0
C996 C 0.91232 0.97558 0.49839 0.0
C997 C 0.88166 0.00921 0.50164 0.0
C998 C 0.89496 0.05363 0.49977 0.0
C999 C 0.93736 0.06483 0.49208 0.0
H1000 H 0.10536 0.48277 0.36684 0.0
H1001 H 0.19556 0.40697 0.32427 0.0
H1002 H 0.23066 0.37682 0.35975 0.0
H1003 H 0.18022 0.51153 0.41118 0.0
H1004 H 0.14141 0.5057 0.43463 0.0
H1005 H 0.12202 0.5195 0.40603 0.0
H1006 H 0.06969 0.4519 0.4063 0.0
H1007 H 0.0883 0.4384 0.4351 0.0
H1008 H 0.09184 0.39782 0.41232 0.0
H1009 H 0.26113 0.36042 0.40142 0.0
H1010 H 0.27492 0.35062 0.44361 0.0
H1011 H 0.16178 0.4334 0.45857 0.0
C1012 C 0.13179 0.45896 0.36491 0.0
C1013 C 0.14712 0.447 0.34247 0.0
C1014 C 0.18235 0.41616 0.34102 0.0
C1015 C 0.20294 0.39921 0.36121 0.0
C1016 C 0.18777 0.4127 0.38301 0.0
C1017 C 0.15217 0.44111 0.38489 0.0
C1018 C 0.14165 0.45025 0.41025 0.0
C1019 C 0.14663 0.49968 0.41584 0.0
C1020 C 0.09511 0.43359 0.41635 0.0
C1021 C 0.17708 0.42308 0.42242 0.0
C1022 C 0.20388 0.40205 0.4065 0.0
C1023 C 0.23985 0.37645 0.41391 0.0
C1024 C 0.2478 0.37135 0.43799 0.0
C1025 C 0.21961 0.39112 0.45463 0.0
C1026 C 0.18404 0.41761 0.44645 0.0
H1027 H 0.32666 0.41006 0.70926 0.0
H1028 H 0.41058 0.52202 0.69373 0.0
H1029 H 0.40022 0.50786 0.6516 0.0
H1030 H 0.36083 0.33922 0.66341 0.0
H1031 H 0.30646 0.31762 0.65761 0.0
H1032 H 0.32037 0.33676 0.68626 0.0
H1033 H 0.25402 0.39065 0.68565 0.0
H1034 H 0.23942 0.3711 0.65718 0.0
H1035 H 0.24838 0.42922 0.66204 0.0
H1036 H 0.38329 0.47689 0.61004 0.0
H1037 H 0.35269 0.44152 0.57475 0.0
H1038 H 0.2759 0.353 0.61778 0.0
C1039 C 0.34256 0.43199 0.69701 0.0
C1040 C 0.36954 0.46734 0.70502 0.0
C1041 C 0.38946 0.49511 0.68825 0.0
C1042 C 0.38403 0.48694 0.6642 0.0
C1043 C 0.35793 0.4512 0.65695 0.0
C1044 C 0.33671 0.42485 0.67301 0.0
C1045 C 0.30901 0.38961 0.66099 0.0
C1046 C 0.32514 0.34305 0.66746 0.0
C1047 C 0.25979 0.39551 0.66681 0.0
C1048 C 0.31809 0.39969 0.63559 0.0
C1049 C 0.34692 0.4349 0.63354 0.0
C1050 C 0.36056 0.44949 0.61165 0.0
C1051 C 0.34336 0.42873 0.59157 0.0
C1052 C 0.31213 0.39387 0.59319 0.0
C1053 C 0.3 0.37913 0.61571 0.0
H1054 H 0.40124 0.52231 0.86882 0.0
H1055 H 0.31691 0.6007 0.82417 0.0
H1056 H 0.28103 0.63327 0.85876 0.0
H1057 H 0.32266 0.49866 0.91252 0.0
H1058 H 0.36065 0.50385 0.93643 0.0
H1059 H 0.38064 0.48781 0.90828 0.0
H1060 H 0.43601 0.55295 0.90846 0.0
H1061 H 0.41675 0.56866 0.93681 0.0
H1062 H 0.41609 0.60825 0.91348 0.0
H1063 H 0.24919 0.65279 0.89979 0.0
H1064 H 0.23445 0.66575 0.94168 0.0
H1065 H 0.34301 0.57872 0.95917 0.0
C1066 C 0.37587 0.54705 0.86626 0.0
C1067 C 0.36247 0.55907 0.84348 0.0
C1068 C 0.32863 0.5913 0.84121 0.0
C1069 C 0.30759 0.60968 0.86089 0.0
C1070 C 0.32088 0.59627 0.88304 0.0
C1071 C 0.35511 0.56641 0.88575 0.0
C1072 C 0.36404 0.55805 0.91136 0.0
C1073 C 0.35655 0.50919 0.9175 0.0
C1074 C 0.411 0.57287 0.91791 0.0
C1075 C 0.32934 0.58738 0.9227 0.0
C1076 C 0.30417 0.60874 0.90616 0.0
C1077 C 0.26917 0.63642 0.91276 0.0
C1078 C 0.26062 0.64333 0.93667 0.0
C1079 C 0.28731 0.62328 0.9539 0.0
C1080 C 0.32184 0.59465 0.94654 0.0
H1081 H 0.24105 0.65297 0.11791 0.0
H1082 H 0.15992 0.56906 0.0744 0.0
H1083 H 0.12876 0.5336 0.10944 0.0
H1084 H 0.26608 0.57454 0.16151 0.0
H1085 H 0.26217 0.61265 0.18542 0.0
H1086 H 0.27708 0.63244 0.15706 0.0
H1087 H 0.21231 0.68822 0.1579 0.0
H1088 H 0.19772 0.66915 0.18645 0.0
H1089 H 0.15713 0.66868 0.16358 0.0
H1090 H 0.11142 0.50183 0.15047 0.0
H1091 H 0.1005 0.48678 0.19243 0.0
H1092 H 0.1882 0.59526 0.20911 0.0
C1093 C 0.21599 0.6278 0.11571 0.0
C1094 C 0.20278 0.61434 0.09312 0.0
C1095 C 0.17019 0.58079 0.09129 0.0
C1096 C 0.15262 0.55999 0.11122 0.0
C1097 C 0.16718 0.57331 0.13316 0.0
C1098 C 0.19736 0.60733 0.13547 0.0
C1099 C 0.20691 0.6163 0.16097 0.0
C1100 C 0.25598 0.60852 0.16656 0.0
C1101 C 0.19266 0.66338 0.16762 0.0
C1102 C 0.17788 0.58182 0.1727 0.0
C1103 C 0.15571 0.55674 0.1564 0.0
C1104 C 0.12835 0.52176 0.16327 0.0
C1105 C 0.12261 0.51306 0.18721 0.0
C1106 C 0.14343 0.53962 0.20425 0.0
C1107 C 0.17167 0.57424 0.19663 0.0
H1108 H 0.82667 0.54819 0.57549 0.0
H1109 H 0.74992 0.66498 0.59135 0.0
H1110 H 0.76756 0.65544 0.63317 0.0
H1111 H 0.79379 0.48577 0.62825 0.0
H1112 H 0.84718 0.45976 0.63053 0.0
H1113 H 0.82583 0.47521 0.60253 0.0
H1114 H 0.89655 0.51964 0.59518 0.0
H1115 H 0.91802 0.50678 0.62345 0.0
H1116 H 0.91215 0.56363 0.61461 0.0
H1117 H 0.80064 0.63568 0.67362 0.0
H1118 H 0.83465 0.60202 0.70846 0.0
H1119 H 0.88694 0.49619 0.66591 0.0
C1120 C 0.81251 0.57108 0.58786 0.0
C1121 C 0.78622 0.60701 0.58012 0.0
C1122 C 0.76914 0.63667 0.59684 0.0
C1123 C 0.77954 0.63172 0.62063 0.0
C1124 C 0.80662 0.59655 0.62759 0.0
C1125 C 0.82182 0.56607 0.61164 0.0
C1126 C 0.84978 0.5308 0.62339 0.0
C1127 C 0.82783 0.48519 0.62104 0.0
C1128 C 0.89695 0.53025 0.61358 0.0
C1129 C 0.84926 0.5467 0.64837 0.0
C1130 C 0.82439 0.5848 0.65052 0.0
C1131 C 0.81982 0.60568 0.67201 0.0
C1132 C 0.8398 0.58651 0.69177 0.0
C1133 C 0.86402 0.54644 0.69019 0.0
C1134 C 0.86906 0.52693 0.66794 0.0
H1135 H 0.70054 0.59047 0.32382 0.0
H1136 H 0.58781 0.50675 0.33796 0.0
H1137 H 0.59764 0.51997 0.38016 0.0
H1138 H 0.76558 0.5523 0.37383 0.0
H1139 H 0.79035 0.60573 0.37839 0.0
H1140 H 0.77387 0.58911 0.34968 0.0
H1141 H 0.72602 0.65969 0.34624 0.0
H1142 H 0.74165 0.67609 0.3751 0.0
H1143 H 0.68407 0.67054 0.36766 0.0
H1144 H 0.61786 0.5474 0.42139 0.0
H1145 H 0.65309 0.57527 0.45728 0.0
H1146 H 0.75563 0.63703 0.4161 0.0
C1147 C 0.67828 0.57441 0.33584 0.0
C1148 C 0.64343 0.54737 0.32755 0.0
C1149 C 0.61505 0.52703 0.34386 0.0
C1150 C 0.62018 0.53479 0.36788 0.0
C1151 C 0.65441 0.56236 0.37545 0.0
C1152 C 0.68366 0.5809 0.35986 0.0
C1153 C 0.71889 0.60765 0.37237 0.0
C1154 C 0.76489 0.58749 0.36833 0.0
C1155 C 0.71754 0.65638 0.36489 0.0
C1156 C 0.70448 0.60226 0.39744 0.0
C1157 C 0.66695 0.57641 0.3989 0.0
C1158 C 0.64741 0.5674 0.42033 0.0
C1159 C 0.66744 0.58387 0.4407 0.0
C1160 C 0.70709 0.60879 0.43974 0.0
C1161 C 0.72521 0.61845 0.41761 0.0
H1162 H 0.66941 0.44581 0.07429 0.0
H1163 H 0.76933 0.34892 0.09173 0.0
H1164 H 0.75297 0.36004 0.13359 0.0
H1165 H 0.69248 0.52024 0.12295 0.0
H1166 H 0.6352 0.53526 0.12617 0.0
H1167 H 0.65624 0.51977 0.09814 0.0
H1168 H 0.5956 0.45985 0.095 0.0
H1169 H 0.57497 0.47438 0.12325 0.0
H1170 H 0.59126 0.41827 0.11725 0.0
H1171 H 0.72029 0.37887 0.17415 0.0
H1172 H 0.68493 0.41174 0.20878 0.0
H1173 H 0.60915 0.49904 0.16442 0.0
C1174 C 0.68846 0.42743 0.08694 0.0
C1175 C 0.72094 0.39658 0.07966 0.0
C1176 C 0.74487 0.37315 0.09681 0.0
C1177 C 0.73534 0.37897 0.12064 0.0
C1178 C 0.70215 0.4088 0.12715 0.0
C1179 C 0.67989 0.4334 0.1107 0.0
C1180 C 0.64655 0.46422 0.12196 0.0
C1181 C 0.65833 0.51274 0.11702 0.0
C1182 C 0.59931 0.45352 0.11388 0.0
C1183 C 0.65292 0.45293 0.14742 0.0
C1184 C 0.6847 0.42048 0.15011 0.0
C1185 C 0.6956 0.40444 0.17211 0.0
C1186 C 0.67483 0.42298 0.19177 0.0
C1187 C 0.6437 0.45781 0.18954 0.0
C1188 C 0.63237 0.47223 0.16687 0.0
H1189 H 0.82165 0.41686 0.82566 0.0
H1190 H 0.91628 0.51946 0.84215 0.0
H1191 H 0.90472 0.5049 0.88419 0.0
H1192 H 0.74592 0.44002 0.87364 0.0
H1193 H 0.73243 0.38251 0.87753 0.0
H1194 H 0.74776 0.40268 0.84931 0.0
H1195 H 0.80929 0.34367 0.84717 0.0
H1196 H 0.79497 0.32383 0.87559 0.0
H1197 H 0.85068 0.34139 0.86962 0.0
H1198 H 0.88587 0.47358 0.92514 0.0
H1199 H 0.85372 0.43864 0.96003 0.0
H1200 H 0.76876 0.35899 0.91628 0.0
C1201 C 0.8394 0.43693 0.83813 0.0
C1202 C 0.86973 0.46966 0.83052 0.0
C1203 C 0.89239 0.49484 0.84745 0.0
C1204 C 0.88634 0.48631 0.87139 0.0
C1205 C 0.85708 0.45283 0.87822 0.0
C1206 C 0.83325 0.42929 0.86195 0.0
C1207 C 0.80317 0.39561 0.87349 0.0
C1208 C 0.75444 0.40583 0.86818 0.0
C1209 C 0.81527 0.34834 0.86602 0.0
C1210 C 0.81388 0.40333 0.89893 0.0
C1211 C 0.84548 0.43604 0.90135 0.0
C1212 C 0.86097 0.44819 0.92328 0.0
C1213 C 0.8428 0.42767 0.94311 0.0
C1214 C 0.80884 0.39553 0.94115 0.0
C1215 C 0.79488 0.38303 0.91856 0.0
H1216 H 0.60856 0.98977 0.87367 0.0
H1217 H 0.69457 0.90834 0.83158 0.0
H1218 H 0.72747 0.87652 0.86721 0.0
H1219 H 0.68429 0.01379 0.91874 0.0
H1220 H 0.6446 0.01007 0.94191 0.0
H1221 H 0.6268 0.0253 0.91321 0.0
H1222 H 0.5705 0.96099 0.91296 0.0
H1223 H 0.58759 0.94608 0.94182 0.0
H1224 H 0.58922 0.90561 0.91893 0.0
H1225 H 0.75643 0.85845 0.90902 0.0
H1226 H 0.76877 0.84749 0.95127 0.0
H1227 H 0.66005 0.93623 0.96582 0.0
C1228 C 0.63365 0.96451 0.87189 0.0
C1229 C 0.64842 0.95141 0.8495 0.0
C1230 C 0.68182 0.91855 0.84826 0.0
C1231 C 0.70117 0.90059 0.86855 0.0
C1232 C 0.68655 0.91502 0.89029 0.0
C1233 C 0.65266 0.94551 0.892 0.0
C1234 C 0.64213 0.95496 0.91735 0.0
C1235 C 0.64992 0.00394 0.92313 0.0
C1236 C 0.59454 0.94107 0.9231 0.0
C1237 C 0.67559 0.92557 0.92969 0.0
C1238 C 0.7015 0.90322 0.91387 0.0
C1239 C 0.7358 0.87553 0.92143 0.0
C1240 C 0.74295 0.86973 0.94555 0.0
C1241 C 0.71554 0.89084 0.9621 0.0
C1242 C 0.68165 0.91935 0.95377 0.0
H1243 H 0.74721 0.89616 0.12571 0.0
H1244 H 0.86545 0.912 0.08412 0.0
H1245 H 0.90379 0.94421 0.11817 0.0
H1246 H 0.75627 0.99747 0.15702 0.0
H1247 H 0.7361 0.97529 0.184 0.0
H1248 H 0.71868 0.95129 0.15691 0.0
H1249 H 0.74592 0.8748 0.17055 0.0
H1250 H 0.76363 0.89817 0.19772 0.0
H1251 H 0.80232 0.86825 0.1799 0.0
H1252 H 0.92923 0.97628 0.15742 0.0
H1253 H 0.94035 1.00141 0.19778 0.0
H1254 H 0.80477 0.96788 0.21388 0.0
C1255 C 0.78145 0.9057 0.12369 0.0
C1256 C 0.80321 0.90077 0.10186 0.0
C1257 C 0.84788 0.91458 0.1004 0.0
C1258 C 0.86989 0.93332 0.11973 0.0
C1259 C 0.84704 0.93853 0.14068 0.0
C1260 C 0.80379 0.92477 0.14278 0.0
C1261 C 0.78636 0.93448 0.16712 0.0
C1262 C 0.74701 0.96654 0.1662 0.0
C1263 C 0.77381 0.89137 0.17957 0.0
C1264 C 0.8264 0.95616 0.17848 0.0
C1265 C 0.86111 0.95801 0.1629 0.0
C1266 C 0.90202 0.97522 0.16955 0.0
C1267 C 0.90796 0.98985 0.19258 0.0
C1268 C 0.87322 0.9882 0.20905 0.0
C1269 C 0.83163 0.97138 0.20164 0.0
H1270 H 0.77968 0.1598 0.43816 0.0
H1271 H 0.77981 0.03721 0.47711 0.0
H1272 H 0.81051 0.99823 0.44331 0.0
H1273 H 0.74476 0.10816 0.38328 0.0
H1274 H 0.77763 0.14404 0.36532 0.0
H1275 H 0.75737 0.16343 0.39285 0.0
H1276 H 0.83721 0.18266 0.40516 0.0
H1277 H 0.85779 0.16271 0.37778 0.0
H1278 H 0.87911 0.14036 0.4045 0.0
H1279 H 0.84408 0.97219 0.4063 0.0
H1280 H 0.86593 0.95676 0.3662 0.0
H1281 H 0.83913 0.09299 0.34743 0.0
C1282 C 0.78575 0.12465 0.43944 0.0
C1283 C 0.7768 0.10169 0.46055 0.0
C1284 C 0.78547 0.05567 0.4613 0.0
C1285 C 0.80348 0.0332 0.44216 0.0
C1286 C 0.81214 0.05662 0.42181 0.0
C1287 C 0.80262 0.10108 0.42 0.0
C1288 C 0.81281 0.11718 0.39535 0.0
C1289 C 0.77063 0.13421 0.3835 0.0
C1290 C 0.84887 0.15286 0.39573 0.0
C1291 C 0.8296 0.07486 0.3837 0.0
C1292 C 0.82961 0.04078 0.39966 0.0
C1293 C 0.84378 0.99858 0.39366 0.0
C1294 C 0.85645 0.99021 0.37067 0.0
C1295 C 0.85468 0.02339 0.35327 0.0
C1296 C 0.84184 0.06686 0.36015 0.0
H1297 H 0.77524 0.10295 0.62155 0.0
H1298 H 0.65134 0.10791 0.58393 0.0
H1299 H 0.61192 0.083 0.6192 0.0
H1300 H 0.75317 0.00757 0.65562 0.0
H1301 H 0.7789 0.0281 0.68167 0.0
H1302 H 0.79748 0.04717 0.65376 0.0
H1303 H 0.78341 0.12822 0.66591 0.0
H1304 H 0.76566 0.10944 0.69402 0.0
H1305 H 0.72983 0.14384 0.67678 0.0
H1306 H 0.58623 0.05194 0.65885 0.0
H1307 H 0.57555 0.03022 0.69993 0.0
H1308 H 0.71499 0.04995 0.71279 0.0
C1309 C 0.73967 0.09955 0.62077 0.0
C1310 C 0.71658 0.10785 0.59966 0.0
C1311 C 0.67001 0.10258 0.5997 0.0
C1312 C 0.64731 0.08788 0.61971 0.0
C1313 C 0.67123 0.07899 0.63997 0.0
C1314 C 0.71635 0.08572 0.64077 0.0
C1315 C 0.73423 0.07518 0.66491 0.0
C1316 C 0.76795 0.03725 0.66392 0.0
C1317 C 0.75448 0.11664 0.67606 0.0
C1318 C 0.69235 0.06093 0.67755 0.0
C1319 C 0.65641 0.06274 0.66275 0.0
C1320 C 0.6143 0.05057 0.67045 0.0
C1321 C 0.60855 0.03765 0.69382 0.0
C1322 C 0.64449 0.03698 0.70958 0.0
C1323 C 0.68699 0.04879 0.70112 0.0
H1324 H 0.33825 0.07422 0.07655 0.0
H1325 H 0.23497 0.16818 0.09287 0.0
H1326 H 0.24764 0.1547 0.13491 0.0
H1327 H 0.31185 0.99619 0.12301 0.0
H1328 H 0.36896 0.98188 0.12771 0.0
H1329 H 0.35068 0.99898 0.09939 0.0
H1330 H 0.41009 0.06012 0.09924 0.0
H1331 H 0.42828 0.04381 0.12768 0.0
H1332 H 0.41161 0.10009 0.12235 0.0
H1333 H 0.27716 0.13407 0.17602 0.0
H1334 H 0.31043 0.10028 0.21098 0.0
H1335 H 0.39097 0.01608 0.16736 0.0
C1336 C 0.31773 0.09151 0.08896 0.0
C1337 C 0.28536 0.12223 0.0813 0.0
C1338 C 0.25944 0.14413 0.09818 0.0
C1339 C 0.26684 0.13693 0.12215 0.0
C1340 C 0.29985 0.10718 0.12906 0.0
C1341 C 0.32409 0.08405 0.11282 0.0
C1342 C 0.35677 0.05296 0.1245 0.0
C1343 C 0.34643 0.00464 0.11829 0.0
C1344 C 0.40453 0.06499 0.11806 0.0
C1345 C 0.3477 0.0623 0.14993 0.0
C1346 C 0.31524 0.09417 0.15228 0.0
C1347 C 0.30232 0.10891 0.17421 0.0
C1348 C 0.32189 0.08979 0.19408 0.0
C1349 C 0.35381 0.0556 0.19217 0.0
C1350 C 0.36699 0.04227 0.1696 0.0
H1351 H 0.25011 0.14807 0.91655 0.0
H1352 H 0.15964 0.07624 0.96088 0.0
H1353 H 0.1269 0.04035 0.9264 0.0
H1354 H 0.17006 0.16666 0.8692 0.0
H1355 H 0.21159 0.1611 0.84704 0.0
H1356 H 0.22651 0.1817 0.87526 0.0
H1357 H 0.28588 0.1204 0.87858 0.0
H1358 H 0.27035 0.09913 0.85059 0.0
H1359 H 0.26979 0.06336 0.87555 0.0
H1360 H 0.10785 0.00691 0.8862 0.0
H1361 H 0.09615 0.99002 0.84443 0.0
H1362 H 0.19557 0.08697 0.82649 0.0
C1363 C 0.22277 0.12551 0.919 0.0
C1364 C 0.20737 0.11546 0.94164 0.0
C1365 C 0.17173 0.08529 0.94387 0.0
C1366 C 0.15319 0.06424 0.92431 0.0
C1367 C 0.16996 0.07396 0.90235 0.0
C1368 C 0.20324 0.10484 0.89958 0.0
C1369 C 0.2147 0.11032 0.87408 0.0
C1370 C 0.20513 0.15775 0.86591 0.0
C1371 C 0.26305 0.09754 0.86944 0.0
C1372 C 0.18313 0.07746 0.86296 0.0
C1373 C 0.15797 0.05621 0.8795 0.0
C1374 C 0.12725 0.02371 0.87316 0.0
C1375 C 0.12112 0.01384 0.84939 0.0
C1376 C 0.14511 0.03679 0.83214 0.0
C1377 C 0.17686 0.06857 0.83925 0.0
H1378 H 0.11047 0.99258 0.66877 0.0
H1379 H 0.19022 0.90637 0.71176 0.0
H1380 H 0.22321 0.87335 0.67653 0.0
H1381 H 0.08927 0.91011 0.62295 0.0
H1382 H 0.09079 0.95098 0.60026 0.0
H1383 H 0.07293 0.96623 0.62893 0.0
H1384 H 0.13228 0.02777 0.62982 0.0
H1385 H 0.15092 0.01209 0.60137 0.0
H1386 H 0.18942 0.01356 0.6252 0.0
H1387 H 0.25315 0.85449 0.63542 0.0
H1388 H 0.26649 0.84287 0.59332 0.0
H1389 H 0.16343 0.93744 0.5775 0.0
C1390 C 0.13413 0.96603 0.6708 0.0
C1391 C 0.14726 0.95192 0.69325 0.0
C1392 C 0.17881 0.91736 0.69493 0.0
C1393 C 0.19821 0.89871 0.67492 0.0
C1394 C 0.18542 0.91429 0.65311 0.0
C1395 C 0.15316 0.94641 0.65098 0.0
C1396 C 0.1444 0.95683 0.62561 0.0
C1397 C 0.09651 0.94534 0.61905 0.0
C1398 C 0.15488 0.00545 0.62019 0.0
C1399 C 0.17703 0.92605 0.61375 0.0
C1400 C 0.201 0.90219 0.62984 0.0
C1401 C 0.23412 0.87277 0.62277 0.0
C1402 C 0.2419 0.86666 0.59878 0.0
C1403 C 0.21623 0.88929 0.58202 0.0
C1404 C 0.18372 0.91963 0.58984 0.0
H1405 H 0.30621 0.91559 0.32665 0.0
H1406 H 0.40033 0.01909 0.3424 0.0
H1407 H 0.39043 0.00434 0.38447 0.0
H1408 H 0.23191 0.93934 0.37525 0.0
H1409 H 0.21833 0.88194 0.37946 0.0
H1410 H 0.23292 0.90171 0.35105 0.0
H1411 H 0.29425 0.84245 0.34864 0.0
H1412 H 0.28058 0.82301 0.37724 0.0
H1413 H 0.3362 0.84028 0.37082 0.0
H1414 H 0.3735 0.97302 0.42552 0.0
H1415 H 0.34259 0.93839 0.46083 0.0
H1416 H 0.25586 0.85863 0.41811 0.0
C1417 C 0.32428 0.93569 0.33897 0.0
C1418 C 0.35402 0.96875 0.33111 0.0
C1419 C 0.37698 0.99411 0.34787 0.0
C1420 C 0.37185 0.98552 0.37185 0.0
C1421 C 0.34306 0.95188 0.37894 0.0
C1422 C 0.31885 0.92815 0.3629 0.0
C1423 C 0.28899 0.89472 0.37483 0.0
C1424 C 0.24015 0.90506 0.36986 0.0
C1425 C 0.30072 0.84732 0.36744 0.0
C1426 C 0.30043 0.90273 0.40018 0.0
C1427 C 0.33216 0.93538 0.40222 0.0
C1428 C 0.34846 0.94769 0.42398 0.0
C1429 C 0.33101 0.92736 0.44404 0.0
C1430 C 0.29694 0.89529 0.4425 0.0
C1431 C 0.28207 0.88267 0.42007 0.0
H1432 H 0.98794 0.63175 0.29075 0.0
H1433 H 0.08212 0.65207 0.34644 0.0
H1434 H 0.04624 0.72343 0.35567 0.0
H1435 H 0.99307 0.7367 0.27004 0.0
H1436 H 0.93586 0.74072 0.26161 0.0
H1437 H 0.96226 0.68763 0.26279 0.0
H1438 H 0.9023 0.65925 0.29101 0.0
H1439 H 0.87527 0.71227 0.28982 0.0
H1440 H 0.89129 0.68924 0.31738 0.0
H1441 H 0.00525 0.79831 0.35522 0.0
H1442 H 0.96648 0.86761 0.34393 0.0
H1443 H 0.90347 0.79822 0.28728 0.0
C1444 C 1.00021 0.65022 0.30548 0.0
C1445 C 0.0377 0.63563 0.31804 0.0
C1446 C 0.05311 0.66192 0.33674 0.0
C1447 C 0.03294 0.70269 0.34207 0.0
C1448 C 0.99727 0.71692 0.3286 0.0
C1449 C 0.981 0.69113 0.31074 0.0
C1450 C 0.94625 0.71562 0.29687 0.0
C1451 C 0.96023 0.72046 0.27133 0.0
C1452 C 0.9011 0.69273 0.2989 0.0
C1453 C 0.94628 0.75976 0.30922 0.0
C1454 C 0.97513 0.75987 0.32781 0.0
C1455 C 0.98214 0.79821 0.3409 0.0
C1456 C 0.9599 0.83741 0.33449 0.0
C1457 C 0.93172 0.83801 0.31493 0.0
C1458 C 0.92442 0.79844 0.30252 0.0
H1459 H 0.12327 0.23974 0.54373 0.0
H1460 H 0.09878 0.34241 0.59457 0.0
H1461 H 0.02566 0.30942 0.60285 0.0
H1462 H 0.02102 0.24231 0.51936 0.0
H1463 H 0.01666 0.18393 0.51372 0.0
H1464 H 0.07011 0.20949 0.51526 0.0
H1465 H 0.09401 0.15451 0.54683 0.0
H1466 H 0.04059 0.12827 0.54617 0.0
H1467 H 0.06206 0.14944 0.57305 0.0
H1468 H 0.94999 0.26938 0.6018 0.0
H1469 H 0.88163 0.22899 0.59048 0.0
H1470 H 0.9561 0.15645 0.53902 0.0
C1471 C 0.10336 0.25462 0.55722 0.0
C1472 C 0.11742 0.29358 0.56867 0.0
C1473 C 0.08939 0.31223 0.58578 0.0
C1474 C 0.04757 0.29375 0.59054 0.0
C1475 C 0.03404 0.25644 0.57813 0.0
C1476 C 0.06148 0.23703 0.56191 0.0
C1477 C 0.03806 0.20023 0.54903 0.0
C1478 C 0.03637 0.20959 0.52281 0.0
C1479 C 0.06002 0.15547 0.55408 0.0
C1480 C 0.99259 0.20285 0.55986 0.0
C1481 C 0.99088 0.23471 0.577 0.0
C1482 C 0.95132 0.24401 0.58861 0.0
C1483 C 0.91264 0.22084 0.58219 0.0
C1484 C 0.91373 0.18942 0.56405 0.0
C1485 C 0.95444 0.18003 0.55313 0.0
H1486 H 0.47275 0.3405 0.78168 0.0
H1487 H 0.45495 0.3694 0.85455 0.0
H1488 H 0.48804 0.2963 0.86448 0.0
H1489 H 0.43987 0.22713 0.78591 0.0
H1490 H 0.47741 0.20949 0.76358 0.0
H1491 H 0.45557 0.26477 0.76312 0.0
H1492 H 0.53517 0.29586 0.76228 0.0
H1493 H 0.55739 0.24075 0.76306 0.0
H1494 H 0.57352 0.28052 0.78475 0.0
H1495 H 0.52799 0.21821 0.86533 0.0
H1496 H 0.56077 0.14425 0.85701 0.0
H1497 H 0.54073 0.16649 0.78362 0.0
C1498 C 0.47648 0.33195 0.7998 0.0
C1499 C 0.46247 0.3613 0.81739 0.0
C1500 C 0.46628 0.34784 0.84082 0.0
C1501 C 0.48493 0.30631 0.84655 0.0
C1502 C 0.49825 0.27804 0.82862 0.0
C1503 C 0.49323 0.29036 0.8057 0.0
C1504 C 0.50686 0.25375 0.78936 0.0
C1505 C 0.46757 0.23788 0.77463 0.0
C1506 C 0.54555 0.26858 0.77396 0.0
C1507 C 0.52098 0.21873 0.80651 0.0
C1508 C 0.51668 0.23315 0.82913 0.0
C1509 C 0.53055 0.20655 0.84765 0.0
C1510 C 0.54902 0.16452 0.84283 0.0
C1511 C 0.55211 0.14892 0.81974 0.0
C1512 C 0.53755 0.17665 0.80154 0.0
H1513 H 0.61069 0.74931 0.06112 0.0
H1514 H 0.5783 0.87567 0.09221 0.0
H1515 H 0.50092 0.85164 0.09671 0.0
H1516 H 0.51738 0.74412 0.0283 0.0
H1517 H 0.50829 0.68569 0.03009 0.0
H1518 H 0.56329 0.70714 0.03294 0.0
H1519 H 0.57409 0.67073 0.07278 0.0
H1520 H 0.52034 0.64575 0.06996 0.0
H1521 H 0.53327 0.67866 0.09513 0.0
H1522 H 0.42368 0.81809 0.09139 0.0
H1523 H 0.3568 0.77495 0.08066 0.0
H1524 H 0.44016 0.66916 0.05562 0.0
C1525 C 0.58784 0.77132 0.06977 0.0
C1526 C 0.6012 0.81428 0.07656 0.0
C1527 C 0.56952 0.84234 0.0872 0.0
C1528 C 0.52517 0.82904 0.0897 0.0
C1529 C 0.51278 0.78718 0.0819 0.0
C1530 C 0.54354 0.7584 0.07262 0.0
C1531 C 0.52133 0.71699 0.06351 0.0
C1532 C 0.52802 0.71328 0.03716 0.0
C1533 C 0.53827 0.67558 0.07611 0.0
C1534 C 0.47337 0.72644 0.06939 0.0
C1535 C 0.46885 0.76746 0.07963 0.0
C1536 C 0.42706 0.78534 0.08408 0.0
C1537 C 0.38919 0.76067 0.07799 0.0
C1538 C 0.39326 0.71811 0.06808 0.0
C1539 C 0.43602 0.70088 0.06397 0.0
H1540 H 0.10306 0.19363 0.73494 0.0
H1541 H 0.00611 0.11127 0.70074 0.0
H1542 H 0.96161 0.17786 0.69139 0.0
H1543 H 0.02489 0.25977 0.76289 0.0
H1544 H 0.0581 0.30915 0.76175 0.0
H1545 H 0.08414 0.25575 0.76163 0.0
H1546 H 0.12437 0.2777 0.72318 0.0
H1547 H 0.09686 0.33051 0.72364 0.0
H1548 H 0.0919 0.29514 0.69864 0.0
H1549 H 0.92409 0.25309 0.68945 0.0
H1550 H 0.89407 0.32724 0.69784 0.0
H1551 H 0.01389 0.35971 0.73552 0.0
C1552 C 0.07335 0.18995 0.72463 0.0
C1553 C 0.05875 0.1476 0.71771 0.0
C1554 C 0.01846 0.14361 0.70548 0.0
C1555 C 0.99301 0.18127 0.70018 0.0
C1556 C 0.00791 0.22265 0.70762 0.0
C1557 C 0.04711 0.22706 0.71974 0.0
C1558 C 0.05291 0.27391 0.72863 0.0
C1559 C 0.05514 0.27469 0.75529 0.0
C1560 C 0.09394 0.2956 0.71787 0.0
C1561 C 0.01072 0.29523 0.71984 0.0
C1562 C 0.98548 0.26535 0.70746 0.0
C1563 C 0.94388 0.2768 0.69889 0.0
C1564 C 0.92711 0.31923 0.70369 0.0
C1565 C 0.95153 0.34979 0.71725 0.0
C1566 C 0.99444 0.33764 0.72483 0.0
H1567 H 0.8947 0.74823 0.48013 0.0
H1568 H 0.93344 0.62168 0.45141 0.0
H1569 H 0.00836 0.65087 0.44412 0.0
H1570 H 0.96411 0.82039 0.44204 0.0
H1571 H 0.97666 0.85697 0.4658 0.0
H1572 H 0.92452 0.82831 0.46498 0.0
H1573 H 0.94005 0.79635 0.50554 0.0
H1574 H 0.99282 0.82301 0.50668 0.0
H1575 H 0.98943 0.76427 0.51041 0.0
H1576 H 0.08313 0.68985 0.4471 0.0
H1577 H 0.14767 0.73728 0.45651 0.0
H1578 H 0.05933 0.83975 0.48049 0.0
C1579 C 0.91837 0.72709 0.47148 0.0
C1580 C 0.90776 0.68264 0.46622 0.0
C1581 C 0.94028 0.65596 0.45537 0.0
C1582 C 0.98315 0.67227 0.45124 0.0
C1583 C 0.99303 0.71566 0.45761 0.0
C1584 C 0.96112 0.74299 0.46702 0.0
C1585 C 0.98088 0.78674 0.47451 0.0
C1586 C 0.96031 0.82538 0.46102 0.0
C1587 C 0.97546 0.79292 0.50083 0.0
C1588 C 0.02896 0.77994 0.46796 0.0
C1589 C 0.03553 0.73855 0.45844 0.0
C1590 C 0.07808 0.72288 0.45377 0.0
C1591 C 0.11461 0.75002 0.45908 0.0
C1592 C 0.10842 0.79279 0.4684 0.0
C1593 C 0.06493 0.80795 0.47251 0.0
H1594 H 0.49419 0.64651 0.22848 0.0
H1595 H 0.61901 0.68677 0.19835 0.0
H1596 H 0.58884 0.76161 0.19183 0.0
H1597 H 0.42107 0.71562 0.19054 0.0
H1598 H 0.38401 0.72746 0.21418 0.0
H1599 H 0.41349 0.67575 0.2134 0.0
H1600 H 0.44441 0.69186 0.25422 0.0
H1601 H 0.41648 0.74428 0.25505 0.0
H1602 H 0.47538 0.74185 0.25922 0.0
H1603 H 0.5488 0.83572 0.19468 0.0
H1604 H 0.50079 0.89981 0.20389 0.0
H1605 H 0.40054 0.81099 0.22993 0.0
C1606 C 0.51471 0.67055 0.21971 0.0
C1607 C 0.55893 0.66013 0.21359 0.0
C1608 C 0.58483 0.69321 0.20272 0.0
C1609 C 0.56799 0.73611 0.1991 0.0
C1610 C 0.52479 0.74557 0.20603 0.0
C1611 C 0.49823 0.71339 0.21574 0.0
C1612 C 0.45406 0.73265 0.22319 0.0
C1613 C 0.4159 0.71162 0.2095 0.0
C1614 C 0.44721 0.72732 0.24947 0.0
C1615 C 0.46013 0.78089 0.21662 0.0
C1616 C 0.50122 0.78777 0.2068 0.0
C1617 C 0.51606 0.83039 0.20164 0.0
C1618 C 0.48854 0.86667 0.20682 0.0
C1619 C 0.44621 0.8603 0.21665 0.0
C1620 C 0.43183 0.81671 0.22135 0.0
H1621 H 0.44808 0.16125 0.98374 0.0
H1622 H 0.36609 0.2616 0.95207 0.0
H1623 H 0.43305 0.3054 0.94268 0.0
H1624 H 0.51668 0.2353 1.01217 0.0
H1625 H 0.56642 0.20297 1.00951 0.0
H1626 H 0.5135 0.17604 1.00958 0.0
H1627 H 0.53176 0.13919 0.97024 0.0
H1628 H 0.58486 0.16612 0.97007 0.0
H1629 H 0.54761 0.1731 0.94596 0.0
H1630 H 0.50902 0.34123 0.93989 0.0
H1631 H 0.58424 0.36931 0.94741 0.0
H1632 H 0.61619 0.24776 0.98357 0.0
C1633 C 0.4445 0.19163 0.97399 0.0
C1634 C 0.40207 0.20734 0.96778 0.0
C1635 C 0.39837 0.24842 0.95629 0.0
C1636 C 0.43627 0.27348 0.95095 0.0
C1637 C 0.4777 0.25742 0.95763 0.0
C1638 C 0.48193 0.21749 0.96907 0.0
C1639 C 0.52922 0.21028 0.9771 0.0
C1640 C 0.53157 0.20591 1.00366 0.0
C1641 C 0.54956 0.16976 0.96512 0.0
C1642 C 0.55086 0.25272 0.96884 0.0
C1643 C 0.52085 0.27905 0.95719 0.0
C1644 C 0.53279 0.32063 0.94882 0.0
C1645 C 0.57587 0.33626 0.95307 0.0
C1646 C 0.60664 0.31083 0.96599 0.0
C1647 C 0.59391 0.26798 0.97341 0.0
loop_
_geom_bond_atom_site_label_1
_geom_bond_atom_site_label_2
_geom_bond_distance
_geom_bond_site_symmetry_2
_ccdc_geom_bond_type
Fe0 O2 1.918 . S
Fe0 O5 1.997 . S
Fe0 O6 2.002 . S
Fe0 O11 1.976 . S
Fe0 O14 1.996 . S
Fe1 O2 1.918 . S
Fe1 O9 1.997 . S
Fe1 O12 1.996 . S
Fe1 O16 1.976 . S
Fe1 O19 2.002 . S
O2 Fe0 1.918 . S
O2 Fe1 1.918 . S
O2 Fe3 1.918 . S
Fe3 O2 1.918 . S
Fe3 O4 2.002 . S
Fe3 O13 1.976 . S
Fe3 O17 1.996 . S
Fe3 O20 1.997 . S
O4 Fe3 2.002 . S
O4 C21 1.295 . S
O5 Fe0 1.997 . S
O5 C21 1.235 . S
O6 Fe0 2.002 . S
O6 C7 1.295 . S
C7 O6 1.295 . S
C7 O9 1.235 . S
C8 O13 1.287 . S
C8 O14 1.255 . S
O9 Fe1 1.997 . S
O9 C7 1.235 . S
C10 O16 1.287 . S
C10 O17 1.255 . S
O11 Fe0 1.976 . S
O11 C18 1.287 . S
O12 Fe1 1.996 . S
O12 C18 1.255 . S
O13 Fe3 1.976 . S
O13 C8 1.287 . S
O14 Fe0 1.996 . S
O14 C8 1.255 . S
C15 O19 1.295 . S
C15 O20 1.235 . S
O16 Fe1 1.976 . S
O16 C10 1.287 . S
O17 Fe3 1.996 . S
O17 C10 1.255 . S
C18 O11 1.287 . S
C18 O12 1.255 . S
O19 Fe1 2.002 . S
O19 C15 1.295 . S
O20 Fe3 1.997 . S
O20 C15 1.235 . S
C21 O4 1.295 . S
C21 O5 1.235 . S
Fe22 O24 1.918 . S
Fe22 O27 1.997 . S
Fe22 O28 2.002 . S
Fe22 O33 1.976 . S
Fe22 O36 1.996 . S
Fe23 O24 1.918 . S
Fe23 O31 1.997 . S
Fe23 O34 1.996 . S
Fe23 O38 1.976 . S
Fe23 O41 2.002 . S
O24 Fe22 1.918 . S
O24 Fe23 1.918 . S
O24 Fe25 1.918 . S
Fe25 O24 1.918 . S
Fe25 O26 2.002 . S
Fe25 O35 1.976 . S
Fe25 O39 1.996 . S
Fe25 O42 1.997 . S
O26 Fe25 2.002 . S
O26 C43 1.295 . S
O27 Fe22 1.997 . S
O27 C43 1.235 . S
O28 Fe22 2.002 . S
O28 C29 1.295 . S
C29 O28 1.295 . S
C29 O31 1.235 . S
C30 O35 1.287 . S
C30 O36 1.255 . S
O31 Fe23 1.997 . S
O31 C29 1.235 . S
C32 O38 1.287 . S
C32 O39 1.255 . S
O33 Fe22 1.976 . S
O33 C40 1.287 . S
O34 Fe23 1.996 . S
O34 C40 1.255 . S
O35 Fe25 1.976 . S
O35 C30 1.287 . S
O36 Fe22 1.996 . S
O36 C30 1.255 . S
C37 O41 1.295 . S
C37 O42 1.235 . S
O38 Fe23 1.976 . S
O38 C32 1.287 . S
O39 Fe25 1.996 . S
O39 C32 1.255 . S
C40 O33 1.287 . S
C40 O34 1.255 . S
O41 Fe23 2.002 . S
O41 C37 1.295 . S
O42 Fe25 1.997 . S
O42 C37 1.235 . S
C43 O26 1.295 . S
C43 O27 1.235 . S
Fe44 O46 1.918 . S
Fe44 O49 1.997 . S
Fe44 O50 2.002 . S
Fe44 O55 1.976 . S
Fe44 O58 1.996 . S
Fe45 O46 1.918 . S
Fe45 O53 1.997 . S
Fe45 O56 1.996 . S
Fe45 O60 1.976 . S
Fe45 O63 2.002 . S
O46 Fe44 1.918 . S
O46 Fe45 1.918 . S
O46 Fe47 1.918 . S
Fe47 O46 1.918 . S
Fe47 O48 2.002 . S
Fe47 O57 1.976 . S
Fe47 O61 1.996 . S
Fe47 O64 1.997 . S
O48 Fe47 2.002 . S
O48 C65 1.295 . S
O49 Fe44 1.997 . S
O49 C65 1.235 . S
O50 Fe44 2.002 . S
O50 C51 1.295 . S
C51 O50 1.295 . S
C51 O53 1.235 . S
C52 O57 1.287 . S
C52 O58 1.255 . S
O53 Fe45 1.997 . S
O53 C51 1.235 . S
C54 O60 1.287 . S
C54 O61 1.255 . S
O55 Fe44 1.976 . S
O55 C62 1.287 . S
O56 Fe45 1.996 . S
O56 C62 1.255 . S
O57 Fe47 1.976 . S
O57 C52 1.287 . S
O58 Fe44 1.996 . S
O58 C52 1.255 . S
C59 O63 1.295 . S
C59 O64 1.235 . S
O60 Fe45 1.976 . S
O60 C54 1.287 . S
O61 Fe47 1.996 . S
O61 C54 1.255 . S
C62 O55 1.287 . S
C62 O56 1.255 . S
O63 Fe45 2.002 . S
O63 C59 1.295 . S
O64 Fe47 1.997 . S
O64 C59 1.235 . S
C65 O48 1.295 . S
C65 O49 1.235 . S
Fe66 O68 1.918 . S
Fe66 O71 1.997 1_554 S
Fe66 O72 2.002 . S
Fe66 O77 1.976 . S
Fe66 O80 1.996 . S
Fe67 O68 1.918 . S
Fe67 O75 1.997 . S
Fe67 O78 1.996 . S
Fe67 O82 1.976 . S
Fe67 O85 2.002 . S
O68 Fe66 1.918 . S
O68 Fe67 1.918 . S
O68 Fe69 1.918 1_554 S
Fe69 O68 1.918 1_556 S
Fe69 O70 2.002 . S
Fe69 O79 1.976 . S
Fe69 O83 1.996 1_556 S
Fe69 O86 1.997 . S
O70 Fe69 2.002 . S
O70 C87 1.295 . S
O71 Fe66 1.997 1_556 S
O71 C87 1.235 . S
O72 Fe66 2.002 . S
O72 C73 1.295 . S
C73 O72 1.295 . S
C73 O75 1.235 . S
C74 O79 1.287 . S
C74 O80 1.255 1_556 S
O75 Fe67 1.997 . S
O75 C73 1.235 . S
C76 O82 1.287 . S
C76 O83 1.255 . S
O77 Fe66 1.976 . S
O77 C84 1.287 . S
O78 Fe67 1.996 . S
O78 C84 1.255 . S
O79 Fe69 1.976 . S
O79 C74 1.287 . S
O80 Fe66 1.996 . S
O80 C74 1.255 1_554 S
C81 O85 1.283 1_556 S
C81 O86 1.242 . S
O82 Fe67 1.976 . S
O82 C76 1.287 . S
O83 Fe69 1.996 1_554 S
O83 C76 1.255 . S
C84 O77 1.287 . S
C84 O78 1.255 . S
O85 Fe67 2.002 . S
O85 C81 1.283 1_554 S
O86 Fe69 1.997 . S
O86 C81 1.242 . S
C87 O70 1.295 . S
C87 O71 1.235 . S
Fe88 O90 1.918 . S
Fe88 O93 1.997 . S
Fe88 O94 2.002 . S
Fe88 O99 1.976 . S
Fe88 O102 1.996 . S
Fe89 O90 1.918 . S
Fe89 O97 1.997 . S
Fe89 O100 1.996 . S
Fe89 O104 1.976 . S
Fe89 O107 2.002 . S
O90 Fe88 1.918 . S
O90 Fe89 1.918 . S
O90 Fe91 1.918 . S
Fe91 O90 1.918 . S
Fe91 O92 2.002 . S
Fe91 O101 1.976 . S
Fe91 O105 1.996 . S
Fe91 O108 1.997 . S
O92 Fe91 2.002 . S
O92 C109 1.295 . S
O93 Fe88 1.997 . S
O93 C109 1.235 . S
O94 Fe88 2.002 . S
O94 C95 1.295 . S
C95 O94 1.295 . S
C95 O97 1.235 . S
C96 O101 1.287 . S
C96 O102 1.255 . S
O97 Fe89 1.997 . S
O97 C95 1.235 . S
C98 O104 1.287 . S
C98 O105 1.255 . S
O99 Fe88 1.976 . S
O99 C106 1.287 . S
O100 Fe89 1.996 . S
O100 C106 1.255 . S
O101 Fe91 1.976 . S
O101 C96 1.287 . S
O102 Fe88 1.996 . S
O102 C96 1.255 . S
C103 O107 1.295 . S
C103 O108 1.235 . S
O104 Fe89 1.976 . S
O104 C98 1.287 . S
O105 Fe91 1.996 . S
O105 C98 1.255 . S
C106 O99 1.287 . S
C106 O100 1.255 . S
O107 Fe89 2.002 . S
O107 C103 1.295 . S
O108 Fe91 1.997 . S
O108 C103 1.235 . S
C109 O92 1.295 . S
C109 O93 1.235 . S
Fe110 O112 1.918 . S
Fe110 O115 1.997 . S
Fe110 O116 2.002 . S
Fe110 O121 1.976 . S
Fe110 O124 1.996 . S
Fe111 O112 1.918 . S
Fe111 O119 1.997 . S
Fe111 O122 1.996 . S
Fe111 O126 1.976 . S
Fe111 O129 2.002 . S
O112 Fe110 1.918 . S
O112 Fe111 1.918 . S
O112 Fe113 1.918 . S
Fe113 O112 1.918 . S
Fe113 O114 2.002 . S
Fe113 O123 1.976 . S
Fe113 O127 1.996 . S
Fe113 O130 1.997 . S
O114 Fe113 2.002 . S
O114 C131 1.295 . S
O115 Fe110 1.997 . S
O115 C131 1.235 . S
O116 Fe110 2.002 . S
O116 C117 1.295 . S
C117 O116 1.295 . S
C117 O119 1.235 . S
C118 O123 1.287 . S
C118 O124 1.255 . S
O119 Fe111 1.997 . S
O119 C117 1.235 . S
C120 O126 1.287 . S
C120 O127 1.255 . S
O121 Fe110 1.976 . S
O121 C128 1.287 . S
O122 Fe111 1.996 . S
O122 C128 1.255 . S
O123 Fe113 1.976 . S
O123 C118 1.287 . S
O124 Fe110 1.996 . S
O124 C118 1.255 . S
C125 O129 1.295 . S
C125 O130 1.235 . S
O126 Fe111 1.976 . S
O126 C120 1.287 . S
O127 Fe113 1.996 . S
O127 C120 1.255 . S
C128 O121 1.287 . S
C128 O122 1.255 . S
O129 Fe111 2.002 . S
O129 C125 1.295 . S
O130 Fe113 1.997 . S
O130 C125 1.235 . S
C131 O114 1.295 . S
C131 O115 1.235 . S
Fe132 O134 1.918 . S
Fe132 O137 1.997 . S
Fe132 O138 2.002 . S
Fe132 O143 1.976 . S
Fe132 O146 1.996 . S
Fe133 O134 1.918 . S
Fe133 O141 1.997 . S
Fe133 O144 1.996 . S
Fe133 O148 1.976 . S
Fe133 O151 2.002 . S
O134 Fe132 1.918 . S
O134 Fe133 1.918 . S
O134 Fe135 1.918 . S
Fe135 O134 1.918 . S
Fe135 O136 2.002 . S
Fe135 O145 1.976 . S
Fe135 O149 1.996 . S
Fe135 O152 1.997 . S
O136 Fe135 2.002 . S
O136 C153 1.295 . S
O137 Fe132 1.997 . S
O137 C153 1.235 . S
O138 Fe132 2.002 . S
O138 C139 1.295 . S
C139 O138 1.295 . S
C139 O141 1.235 . S
C140 O145 1.287 . S
C140 O146 1.255 . S
O141 Fe133 1.997 . S
O141 C139 1.235 . S
C142 O148 1.287 . S
C142 O149 1.255 . S
O143 Fe132 1.976 . S
O143 C150 1.287 . S
O144 Fe133 1.996 . S
O144 C150 1.255 . S
O145 Fe135 1.976 . S
O145 C140 1.287 . S
O146 Fe132 1.996 . S
O146 C140 1.255 . S
C147 O151 1.295 . S
C147 O152 1.235 . S
O148 Fe133 1.976 . S
O148 C142 1.287 . S
O149 Fe135 1.996 . S
O149 C142 1.255 . S
C150 O143 1.287 . S
C150 O144 1.255 . S
O151 Fe133 2.002 . S
O151 C147 1.295 . S
O152 Fe135 1.997 . S
O152 C147 1.235 . S
C153 O136 1.295 . S
C153 O137 1.235 . S
Fe154 O156 1.918 1_554 S
Fe154 O159 1.997 . S
Fe154 O160 2.002 . S
Fe154 O165 1.976 . S
Fe154 O168 1.996 1_554 S
Fe155 O156 1.918 . S
Fe155 O163 1.997 1_556 S
Fe155 O166 1.996 . S
Fe155 O170 1.976 . S
Fe155 O173 2.002 . S
O156 Fe154 1.918 1_556 S
O156 Fe155 1.918 . S
O156 Fe157 1.918 . S
Fe157 O156 1.918 . S
Fe157 O158 2.002 . S
Fe157 O167 1.976 . S
Fe157 O171 1.996 . S
Fe157 O174 1.997 . S
O158 Fe157 2.002 . S
O158 C175 1.283 1_556 S
O159 Fe154 1.997 . S
O159 C175 1.242 . S
O160 Fe154 2.002 . S
O160 C161 1.295 . S
C161 O160 1.295 . S
C161 O163 1.235 . S
C162 O167 1.287 . S
C162 O168 1.255 . S
O163 Fe155 1.997 1_554 S
O163 C161 1.235 . S
C164 O170 1.287 . S
C164 O171 1.255 . S
O165 Fe154 1.976 . S
O165 C172 1.287 . S
O166 Fe155 1.996 . S
O166 C172 1.255 1_556 S
O167 Fe157 1.976 . S
O167 C162 1.287 . S
O168 Fe154 1.996 1_556 S
O168 C162 1.255 . S
C169 O173 1.295 . S
C169 O174 1.235 . S
O170 Fe155 1.976 . S
O170 C164 1.287 . S
O171 Fe157 1.996 . S
O171 C164 1.255 . S
C172 O165 1.287 . S
C172 O166 1.255 1_554 S
O173 Fe155 2.002 . S
O173 C169 1.295 . S
O174 Fe157 1.997 . S
O174 C169 1.235 . S
C175 O158 1.283 1_554 S
C175 O159 1.242 . S
Fe176 O178 1.918 1_565 S
Fe176 O181 1.997 . S
Fe176 O182 2.002 . S
Fe176 O187 1.976 . S
Fe176 O190 1.996 . S
Fe177 O178 1.918 . S
Fe177 O185 1.997 . S
Fe177 O188 1.996 . S
Fe177 O192 1.976 . S
Fe177 O195 2.002 . S
O178 Fe176 1.918 1_545 S
O178 Fe177 1.918 . S
O178 Fe179 1.918 . S
Fe179 O178 1.918 . S
Fe179 O180 2.002 . S
Fe179 O189 1.976 . S
Fe179 O193 1.996 . S
Fe179 O196 1.997 . S
O180 Fe179 2.002 . S
O180 C197 1.295 . S
O181 Fe176 1.997 . S
O181 C197 1.235 1_565 S
O182 Fe176 2.002 . S
O182 C183 1.295 1_565 S
C183 O182 1.295 1_545 S
C183 O185 1.235 . S
C184 O189 1.287 1_565 S
C184 O190 1.255 . S
O185 Fe177 1.997 . S
O185 C183 1.235 . S
C186 O192 1.287 . S
C186 O193 1.255 . S
O187 Fe176 1.976 . S
O187 C194 1.287 . S
O188 Fe177 1.996 . S
O188 C194 1.255 1_545 S
O189 Fe179 1.976 . S
O189 C184 1.287 1_545 S
O190 Fe176 1.996 . S
O190 C184 1.255 . S
C191 O195 1.295 . S
C191 O196 1.235 . S
O192 Fe177 1.976 . S
O192 C186 1.287 . S
O193 Fe179 1.996 . S
O193 C186 1.255 . S
C194 O187 1.287 . S
C194 O188 1.255 1_565 S
O195 Fe177 2.002 . S
O195 C191 1.295 . S
O196 Fe179 1.997 . S
O196 C191 1.235 . S
C197 O180 1.295 . S
C197 O181 1.235 1_545 S
Fe198 O200 1.918 1_556 S
Fe198 O203 1.997 . S
Fe198 O204 2.002 . S
Fe198 O209 1.976 . S
Fe198 O212 1.996 1_556 S
Fe199 O200 1.918 . S
Fe199 O207 1.997 1_554 S
Fe199 O210 1.996 . S
Fe199 O214 1.976 . S
Fe199 O217 2.002 . S
O200 Fe198 1.918 1_554 S
O200 Fe199 1.918 . S
O200 Fe201 1.918 . S
Fe201 O200 1.918 . S
Fe201 O202 2.002 . S
Fe201 O211 1.976 . S
Fe201 O215 1.996 . S
Fe201 O218 1.997 . S
O202 Fe201 2.002 . S
O202 C219 1.283 1_554 S
O203 Fe198 1.997 . S
O203 C219 1.242 . S
O204 Fe198 2.002 . S
O204 C205 1.295 . S
C205 O204 1.295 . S
C205 O207 1.235 . S
C206 O211 1.287 . S
C206 O212 1.255 . S
O207 Fe199 1.997 1_556 S
O207 C205 1.235 . S
C208 O214 1.287 . S
C208 O215 1.255 . S
O209 Fe198 1.976 . S
O209 C216 1.287 . S
O210 Fe199 1.996 . S
O210 C216 1.255 1_554 S
O211 Fe201 1.976 . S
O211 C206 1.287 . S
O212 Fe198 1.996 1_554 S
O212 C206 1.255 . S
C213 O217 1.295 1_545 S
C213 O218 1.235 1_545 S
O214 Fe199 1.976 . S
O214 C208 1.287 . S
O215 Fe201 1.996 . S
O215 C208 1.255 . S
C216 O209 1.287 . S
C216 O210 1.255 1_556 S
O217 Fe199 2.002 . S
O217 C213 1.295 1_565 S
O218 Fe201 1.997 . S
O218 C213 1.235 1_565 S
C219 O202 1.283 1_556 S
C219 O203 1.242 . S
Fe220 O222 1.918 1_545 S
Fe220 O225 1.997 . S
Fe220 O226 2.002 . S
Fe220 O231 1.976 . S
Fe220 O234 1.996 . S
Fe221 O222 1.918 . S
Fe221 O229 1.997 . S
Fe221 O232 1.996 . S
Fe221 O236 1.976 . S
Fe221 O239 2.002 . S
O222 Fe220 1.918 1_565 S
O222 Fe221 1.918 . S
O222 Fe223 1.918 . S
Fe223 O222 1.918 . S
Fe223 O224 2.002 . S
Fe223 O233 1.976 . S
Fe223 O237 1.996 . S
Fe223 O240 1.997 . S
O224 Fe223 2.002 . S
O224 C241 1.295 . S
O225 Fe220 1.997 . S
O225 C241 1.235 1_545 S
O226 Fe220 2.002 . S
O226 C227 1.295 1_545 S
C227 O226 1.295 1_565 S
C227 O229 1.235 . S
C228 O233 1.287 1_545 S
C228 O234 1.255 . S
O229 Fe221 1.997 . S
O229 C227 1.235 . S
C230 O236 1.287 . S
C230 O237 1.255 . S
O231 Fe220 1.976 . S
O231 C238 1.287 . S
O232 Fe221 1.996 . S
O232 C238 1.255 1_565 S
O233 Fe223 1.976 . S
O233 C228 1.287 1_565 S
O234 Fe220 1.996 . S
O234 C228 1.255 . S
C235 O239 1.295 . S
C235 O240 1.235 . S
O236 Fe221 1.976 . S
O236 C230 1.287 . S
O237 Fe223 1.996 . S
O237 C230 1.255 . S
C238 O231 1.287 . S
C238 O232 1.255 1_545 S
O239 Fe221 2.002 . S
O239 C235 1.295 . S
O240 Fe223 1.997 . S
O240 C235 1.235 . S
C241 O224 1.295 . S
C241 O225 1.235 1_565 S
Fe242 O244 1.918 . S
Fe242 O247 1.997 . S
Fe242 O248 2.002 . S
Fe242 O253 1.976 . S
Fe242 O256 1.996 . S
Fe243 O244 1.918 . S
Fe243 O251 1.997 . S
Fe243 O254 1.996 . S
Fe243 O258 1.976 . S
Fe243 O261 2.002 . S
O244 Fe242 1.918 . S
O244 Fe243 1.918 . S
O244 Fe245 1.918 . S
Fe245 O244 1.918 . S
Fe245 O246 2.002 . S
Fe245 O255 1.976 . S
Fe245 O259 1.996 . S
Fe245 O262 1.997 . S
O246 Fe245 2.002 . S
O246 C263 1.295 . S
O247 Fe242 1.997 . S
O247 C263 1.235 . S
O248 Fe242 2.002 . S
O248 C249 1.295 1_545 S
C249 O248 1.295 1_565 S
C249 O251 1.235 1_565 S
C250 O255 1.287 . S
C250 O256 1.255 . S
O251 Fe243 1.997 . S
O251 C249 1.235 1_545 S
C252 O258 1.287 . S
C252 O259 1.255 . S
O253 Fe242 1.976 . S
O253 C260 1.287 . S
O254 Fe243 1.996 . S
O254 C260 1.255 . S
O255 Fe245 1.976 . S
O255 C250 1.287 . S
O256 Fe242 1.996 . S
O256 C250 1.255 . S
C257 O261 1.295 . S
C257 O262 1.235 . S
O258 Fe243 1.976 . S
O258 C252 1.287 . S
O259 Fe245 1.996 . S
O259 C252 1.255 . S
C260 O253 1.287 . S
C260 O254 1.255 . S
O261 Fe243 2.002 . S
O261 C257 1.295 . S
O262 Fe245 1.997 . S
O262 C257 1.235 . S
C263 O246 1.295 . S
C263 O247 1.235 . S
Fe264 O266 1.918 . S
Fe264 O269 1.997 . S
Fe264 O270 2.002 . S
Fe264 O275 1.976 . S
Fe264 O278 1.996 . S
Fe265 O266 1.918 . S
Fe265 O273 1.997 . S
Fe265 O276 1.996 . S
Fe265 O280 1.976 . S
Fe265 O283 2.002 . S
O266 Fe264 1.918 . S
O266 Fe265 1.918 . S
O266 Fe267 1.918 1_565 S
Fe267 O266 1.918 1_545 S
Fe267 O268 2.002 . S
Fe267 O277 1.976 . S
Fe267 O281 1.996 . S
Fe267 O284 1.997 . S
O268 Fe267 2.002 . S
O268 C285 1.295 1_545 S
O269 Fe264 1.997 . S
O269 C285 1.235 . S
O270 Fe264 2.002 . S
O270 C271 1.295 . S
C271 O270 1.295 . S
C271 O273 1.235 . S
C272 O277 1.287 . S
C272 O278 1.255 1_545 S
O273 Fe265 1.997 . S
O273 C271 1.235 . S
C274 O280 1.287 1_545 S
C274 O281 1.255 . S
O275 Fe264 1.976 . S
O275 C282 1.287 . S
O276 Fe265 1.996 . S
O276 C282 1.255 . S
O277 Fe267 1.976 . S
O277 C272 1.287 . S
O278 Fe264 1.996 . S
O278 C272 1.255 1_565 S
C279 O283 1.295 . S
C279 O284 1.235 1_565 S
O280 Fe265 1.976 . S
O280 C274 1.287 1_565 S
O281 Fe267 1.996 . S
O281 C274 1.255 . S
C282 O275 1.287 . S
C282 O276 1.255 . S
O283 Fe265 2.002 . S
O283 C279 1.295 . S
O284 Fe267 1.997 . S
O284 C279 1.235 1_545 S
C285 O268 1.295 1_565 S
C285 O269 1.235 . S
Fe286 O288 1.918 1_554 S
Fe286 O291 1.997 . S
Fe286 O292 2.002 . S
Fe286 O297 1.976 . S
Fe286 O300 1.996 1_554 S
Fe287 O288 1.918 . S
Fe287 O295 1.997 1_556 S
Fe287 O298 1.996 . S
Fe287 O302 1.976 . S
Fe287 O305 2.002 . S
O288 Fe286 1.918 1_556 S
O288 Fe287 1.918 . S
O288 Fe289 1.918 . S
Fe289 O288 1.918 . S
Fe289 O290 2.002 . S
Fe289 O299 1.976 . S
Fe289 O303 1.996 . S
Fe289 O306 1.997 . S
O290 Fe289 2.002 . S
O290 C307 1.283 1_556 S
O291 Fe286 1.997 . S
O291 C307 1.242 . S
O292 Fe286 2.002 . S
O292 C293 1.295 . S
C293 O292 1.295 . S
C293 O295 1.235 . S
C294 O299 1.287 . S
C294 O300 1.255 . S
O295 Fe287 1.997 1_554 S
O295 C293 1.235 . S
C296 O302 1.287 . S
C296 O303 1.255 . S
O297 Fe286 1.976 . S
O297 C304 1.287 . S
O298 Fe287 1.996 . S
O298 C304 1.255 1_556 S
O299 Fe289 1.976 . S
O299 C294 1.287 . S
O300 Fe286 1.996 1_556 S
O300 C294 1.255 . S
C301 O305 1.295 1_565 S
C301 O306 1.235 1_565 S
O302 Fe287 1.976 . S
O302 C296 1.287 . S
O303 Fe289 1.996 . S
O303 C296 1.255 . S
C304 O297 1.287 . S
C304 O298 1.255 1_554 S
O305 Fe287 2.002 . S
O305 C301 1.295 1_545 S
O306 Fe289 1.997 . S
O306 C301 1.235 1_545 S
C307 O290 1.283 1_554 S
C307 O291 1.242 . S
Fe308 O310 1.918 1_565 S
Fe308 O313 1.997 . S
Fe308 O314 2.002 . S
Fe308 O319 1.976 . S
Fe308 O322 1.996 . S
Fe309 O310 1.918 . S
Fe309 O317 1.997 . S
Fe309 O320 1.996 . S
Fe309 O324 1.976 . S
Fe309 O327 2.002 . S
O310 Fe308 1.918 1_545 S
O310 Fe309 1.918 . S
O310 Fe311 1.918 . S
Fe311 O310 1.918 . S
Fe311 O312 2.002 . S
Fe311 O321 1.976 . S
Fe311 O325 1.996 . S
Fe311 O328 1.997 . S
O312 Fe311 2.002 . S
O312 C329 1.295 . S
O313 Fe308 1.997 . S
O313 C329 1.235 1_565 S
O314 Fe308 2.002 . S
O314 C315 1.295 1_565 S
C315 O314 1.295 1_545 S
C315 O317 1.235 . S
C316 O321 1.287 1_565 S
C316 O322 1.255 . S
O317 Fe309 1.997 . S
O317 C315 1.235 . S
C318 O324 1.287 . S
C318 O325 1.255 . S
O319 Fe308 1.976 . S
O319 C326 1.287 . S
O320 Fe309 1.996 . S
O320 C326 1.255 1_545 S
O321 Fe311 1.976 . S
O321 C316 1.287 1_545 S
O322 Fe308 1.996 . S
O322 C316 1.255 . S
C323 O327 1.295 . S
C323 O328 1.235 . S
O324 Fe309 1.976 . S
O324 C318 1.287 . S
O325 Fe311 1.996 . S
O325 C318 1.255 . S
C326 O319 1.287 . S
C326 O320 1.255 1_565 S
O327 Fe309 2.002 . S
O327 C323 1.295 . S
O328 Fe311 1.997 . S
O328 C323 1.235 . S
C329 O312 1.295 . S
C329 O313 1.235 1_545 S
Fe330 O332 1.918 . S
Fe330 O335 1.997 . S
Fe330 O336 2.002 . S
Fe330 O341 1.976 . S
Fe330 O344 1.996 . S
Fe331 O332 1.918 . S
Fe331 O339 1.997 . S
Fe331 O342 1.996 . S
Fe331 O346 1.976 . S
Fe331 O349 2.002 . S
O332 Fe330 1.918 . S
O332 Fe331 1.918 . S
O332 Fe333 1.918 . S
Fe333 O332 1.918 . S
Fe333 O334 2.002 . S
Fe333 O343 1.976 . S
Fe333 O347 1.996 . S
Fe333 O350 1.997 . S
O334 Fe333 2.002 . S
O334 C351 1.295 . S
O335 Fe330 1.997 . S
O335 C351 1.235 . S
O336 Fe330 2.002 . S
O336 C337 1.295 . S
C337 O336 1.295 . S
C337 O339 1.235 . S
C338 O343 1.287 . S
C338 O344 1.255 . S
O339 Fe331 1.997 . S
O339 C337 1.235 . S
C340 O346 1.287 . S
C340 O347 1.255 . S
O341 Fe330 1.976 . S
O341 C348 1.287 . S
O342 Fe331 1.996 . S
O342 C348 1.255 . S
O343 Fe333 1.976 . S
O343 C338 1.287 . S
O344 Fe330 1.996 . S
O344 C338 1.255 . S
C345 O349 1.295 1_545 S
C345 O350 1.235 1_545 S
O346 Fe331 1.976 . S
O346 C340 1.287 . S
O347 Fe333 1.996 . S
O347 C340 1.255 . S
C348 O341 1.287 . S
C348 O342 1.255 . S
O349 Fe331 2.002 . S
O349 C345 1.295 1_565 S
O350 Fe333 1.997 . S
O350 C345 1.235 1_565 S
C351 O334 1.295 . S
C351 O335 1.235 . S
H352 C364 0.930 . S
H353 C366 0.930 . S
H354 C367 0.930 . S
H355 C371 0.959 . S
H356 C371 0.959 . S
H357 C371 0.961 . S
H358 C372 0.960 . S
H359 C372 0.961 . S
H360 C372 0.959 . S
H361 C375 0.929 . S
H362 C376 0.931 . S
H363 C378 0.930 . S
C364 H352 0.930 . S
C364 C365 1.399 . S
C364 C369 1.399 . S
C365 C364 1.399 . S
C365 C366 1.376 . S
C366 H353 0.930 . S
C366 C365 1.376 . S
C366 C367 1.388 . S
C367 H354 0.930 . S
C367 C366 1.388 . S
C367 C368 1.390 . S
C368 C367 1.390 . S
C368 C369 1.394 . S
C368 C374 1.465 . S
C369 C364 1.399 . S
C369 C368 1.394 . S
C369 C370 1.516 . S
C370 C369 1.516 . S
C370 C371 1.502 . S
C370 C372 1.561 . S
C370 C373 1.526 . S
C371 H355 0.959 . S
C371 H356 0.959 . S
C371 H357 0.961 . S
C371 C370 1.502 . S
C372 H358 0.960 . S
C372 H359 0.961 . S
C372 H360 0.959 . S
C372 C370 1.561 . S
C373 C370 1.526 . S
C373 C374 1.396 . S
C373 C378 1.390 . S
C374 C368 1.465 . S
C374 C373 1.396 . S
C374 C375 1.399 . S
C375 H361 0.929 . S
C375 C374 1.399 . S
C375 C376 1.385 . S
C376 H362 0.931 . S
C376 C375 1.385 . S
C376 C377 1.389 . S
C377 C376 1.389 . S
C377 C378 1.387 . S
C378 H363 0.930 . S
C378 C373 1.390 . S
C378 C377 1.387 . S
H379 C391 0.930 . S
H380 C393 0.930 . S
H381 C394 0.930 . S
H382 C398 0.959 . S
H383 C398 0.959 . S
H384 C398 0.961 . S
H385 C399 0.960 . S
H386 C399 0.961 . S
H387 C399 0.959 . S
H388 C402 0.929 . S
H389 C403 0.931 . S
H390 C405 0.930 . S
C391 H379 0.930 . S
C391 C392 1.399 . S
C391 C396 1.399 . S
C392 C391 1.399 . S
C392 C393 1.376 . S
C393 H380 0.930 . S
C393 C392 1.376 . S
C393 C394 1.388 . S
C394 H381 0.930 . S
C394 C393 1.388 . S
C394 C395 1.390 . S
C395 C394 1.390 . S
C395 C396 1.394 . S
C395 C401 1.465 . S
C396 C391 1.399 . S
C396 C395 1.394 . S
C396 C397 1.516 . S
C397 C396 1.516 . S
C397 C398 1.502 . S
C397 C399 1.561 . S
C397 C400 1.526 . S
C398 H382 0.959 . S
C398 H383 0.959 . S
C398 H384 0.961 . S
C398 C397 1.502 . S
C399 H385 0.960 . S
C399 H386 0.961 . S
C399 H387 0.959 . S
C399 C397 1.561 . S
C400 C397 1.526 . S
C400 C401 1.396 . S
C400 C405 1.390 . S
C401 C395 1.465 . S
C401 C400 1.396 . S
C401 C402 1.399 . S
C402 H388 0.929 . S
C402 C401 1.399 . S
C402 C403 1.385 . S
C403 H389 0.931 . S
C403 C402 1.385 . S
C403 C404 1.389 . S
C404 C403 1.389 . S
C404 C405 1.387 . S
C405 H390 0.930 . S
C405 C400 1.390 . S
C405 C404 1.387 . S
H406 C418 0.930 . S
H407 C420 0.930 . S
H408 C421 0.930 . S
H409 C425 0.959 . S
H410 C425 0.959 . S
H411 C425 0.961 . S
H412 C426 0.960 . S
H413 C426 0.961 . S
H414 C426 0.959 . S
H415 C429 0.929 . S
H416 C430 0.931 . S
H417 C432 0.930 1_655 S
C418 H406 0.930 . S
C418 C419 1.399 . S
C418 C423 1.399 . S
C419 C418 1.399 . S
C419 C420 1.376 . S
C420 H407 0.930 . S
C420 C419 1.376 . S
C420 C421 1.388 . S
C421 H408 0.930 . S
C421 C420 1.388 . S
C421 C422 1.390 . S
C422 C421 1.390 . S
C422 C423 1.394 . S
C422 C428 1.465 . S
C423 C418 1.399 . S
C423 C422 1.394 . S
C423 C424 1.516 . S
C424 C423 1.516 . S
C424 C425 1.502 . S
C424 C426 1.561 . S
C424 C427 1.526 . S
C425 H409 0.959 . S
C425 H410 0.959 . S
C425 H411 0.961 . S
C425 C424 1.502 . S
C426 H412 0.960 . S
C426 H413 0.961 . S
C426 H414 0.959 . S
C426 C424 1.561 . S
C427 C424 1.526 . S
C427 C428 1.396 . S
C427 C432 1.390 . S
C428 C422 1.465 . S
C428 C427 1.396 . S
C428 C429 1.399 . S
C429 H415 0.929 . S
C429 C428 1.399 . S
C429 C430 1.385 1_455 S
C430 H416 0.931 . S
C430 C429 1.385 1_655 S
C430 C431 1.389 . S
C431 C430 1.389 . S
C431 C432 1.387 1_655 S
C432 H417 0.930 1_455 S
C432 C427 1.390 . S
C432 C431 1.387 1_455 S
H433 C445 0.930 . S
H434 C447 0.930 . S
H435 C448 0.930 . S
H436 C452 0.959 . S
H437 C452 0.959 . S
H438 C452 0.961 . S
H439 C453 0.960 . S
H440 C453 0.961 . S
H441 C453 0.959 . S
H442 C456 0.929 . S
H443 C457 0.931 . S
H444 C459 0.930 1_556 S
C445 H433 0.930 . S
C445 C446 1.399 1_556 S
C445 C450 1.386 1_556 S
C446 C445 1.399 1_554 S
C446 C447 1.376 . S
C447 H434 0.930 . S
C447 C446 1.376 . S
C447 C448 1.388 . S
C448 H435 0.930 . S
C448 C447 1.388 . S
C448 C449 1.390 . S
C449 C448 1.390 . S
C449 C450 1.436 . S
C449 C455 1.465 . S
C450 C445 1.386 1_554 S
C450 C449 1.436 . S
C450 C451 1.493 1_554 S
C451 C450 1.493 1_556 S
C451 C452 1.502 . S
C451 C453 1.561 . S
C451 C454 1.526 1_556 S
C452 H436 0.959 . S
C452 H437 0.959 . S
C452 H438 0.961 . S
C452 C451 1.502 . S
C453 H439 0.960 . S
C453 H440 0.961 . S
C453 H441 0.959 . S
C453 C451 1.561 . S
C454 C451 1.526 1_554 S
C454 C455 1.396 . S
C454 C459 1.390 . S
C455 C449 1.465 . S
C455 C454 1.396 . S
C455 C456 1.399 . S
C456 H442 0.929 . S
C456 C455 1.399 . S
C456 C457 1.385 . S
C457 H443 0.931 . S
C457 C456 1.385 . S
C457 C458 1.389 . S
C458 C457 1.389 . S
C458 C459 1.387 . S
C459 H444 0.930 1_554 S
C459 C454 1.390 . S
C459 C458 1.387 . S
H460 C472 0.930 . S
H461 C474 0.930 . S
H462 C475 0.930 . S
H463 C479 0.959 . S
H464 C479 0.959 . S
H465 C479 0.961 . S
H466 C480 0.960 . S
H467 C480 0.961 . S
H468 C480 0.959 . S
H469 C483 0.929 . S
H470 C484 0.931 . S
H471 C486 0.930 . S
C472 H460 0.930 . S
C472 C473 1.399 . S
C472 C477 1.399 . S
C473 C472 1.399 . S
C473 C474 1.376 . S
C474 H461 0.930 . S
C474 C473 1.376 . S
C474 C475 1.388 . S
C475 H462 0.930 . S
C475 C474 1.388 . S
C475 C476 1.390 . S
C476 C475 1.390 . S
C476 C477 1.394 . S
C476 C482 1.465 . S
C477 C472 1.399 . S
C477 C476 1.394 . S
C477 C478 1.516 . S
C478 C477 1.516 . S
C478 C479 1.502 . S
C478 C480 1.561 . S
C478 C481 1.526 . S
C479 H463 0.959 . S
C479 H464 0.959 . S
C479 H465 0.961 . S
C479 C478 1.502 . S
C480 H466 0.960 . S
C480 H467 0.961 . S
C480 H468 0.959 . S
C480 C478 1.561 . S
C481 C478 1.526 . S
C481 C482 1.396 . S
C481 C486 1.390 . S
C482 C476 1.465 . S
C482 C481 1.396 . S
C482 C483 1.399 . S
C483 H469 0.929 . S
C483 C482 1.399 . S
C483 C484 1.385 . S
C484 H470 0.931 . S
C484 C483 1.385 . S
C484 C485 1.389 . S
C485 C484 1.389 . S
C485 C486 1.387 . S
C486 H471 0.930 . S
C486 C481 1.390 . S
C486 C485 1.387 . S
H487 C499 0.930 . S
H488 C501 0.930 . S
H489 C502 0.930 . S
H490 C506 0.959 . S
H491 C506 0.959 . S
H492 C506 0.961 . S
H493 C507 0.960 . S
H494 C507 0.961 . S
H495 C507 0.959 . S
H496 C510 0.929 . S
H497 C511 0.931 . S
H498 C513 0.930 . S
C499 H487 0.930 . S
C499 C500 1.399 . S
C499 C504 1.399 . S
C500 C499 1.399 . S
C500 C501 1.376 . S
C501 H488 0.930 . S
C501 C500 1.376 . S
C501 C502 1.388 . S
C502 H489 0.930 . S
C502 C501 1.388 . S
C502 C503 1.390 . S
C503 C502 1.390 . S
C503 C504 1.394 . S
C503 C509 1.465 . S
C504 C499 1.399 . S
C504 C503 1.394 . S
C504 C505 1.516 . S
C505 C504 1.516 . S
C505 C506 1.502 . S
C505 C507 1.561 . S
C505 C508 1.526 . S
C506 H490 0.959 . S
C506 H491 0.959 . S
C506 H492 0.961 . S
C506 C505 1.502 . S
C507 H493 0.960 . S
C507 H494 0.961 . S
C507 H495 0.959 . S
C507 C505 1.561 . S
C508 C505 1.526 . S
C508 C509 1.396 . S
C508 C513 1.390 . S
C509 C503 1.465 . S
C509 C508 1.396 . S
C509 C510 1.399 . S
C510 H496 0.929 . S
C510 C509 1.399 . S
C510 C511 1.385 . S
C511 H497 0.931 . S
C511 C510 1.385 . S
C511 C512 1.389 . S
C512 C511 1.389 . S
C512 C513 1.387 . S
C513 H498 0.930 . S
C513 C508 1.390 . S
C513 C512 1.387 . S
H514 C526 0.930 . S
H515 C528 0.930 . S
H516 C529 0.930 . S
H517 C533 0.959 . S
H518 C533 0.959 . S
H519 C533 0.961 . S
H520 C534 0.960 . S
H521 C534 0.961 . S
H522 C534 0.959 . S
H523 C537 0.929 . S
H524 C538 0.931 . S
H525 C540 0.930 . S
C526 H514 0.930 . S
C526 C527 1.399 . S
C526 C531 1.399 . S
C527 C526 1.399 . S
C527 C528 1.376 . S
C528 H515 0.930 . S
C528 C527 1.376 . S
C528 C529 1.388 . S
C529 H516 0.930 . S
C529 C528 1.388 . S
C529 C530 1.390 . S
C530 C529 1.390 . S
C530 C531 1.394 . S
C530 C536 1.465 . S
C531 C526 1.399 . S
C531 C530 1.394 . S
C531 C532 1.516 . S
C532 C531 1.516 . S
C532 C533 1.502 . S
C532 C534 1.561 . S
C532 C535 1.526 . S
C533 H517 0.959 . S
C533 H518 0.959 . S
C533 H519 0.961 . S
C533 C532 1.502 . S
C534 H520 0.960 . S
C534 H521 0.961 . S
C534 H522 0.959 . S
C534 C532 1.561 . S
C535 C532 1.526 . S
C535 C536 1.396 . S
C535 C540 1.390 1_655 S
C536 C530 1.465 . S
C536 C535 1.396 . S
C536 C537 1.399 . S
C537 H523 0.929 . S
C537 C536 1.399 . S
C537 C538 1.385 1_655 S
C538 H524 0.931 . S
C538 C537 1.385 1_455 S
C538 C539 1.389 . S
C539 C538 1.389 . S
C539 C540 1.387 . S
C540 H525 0.930 . S
C540 C535 1.390 1_455 S
C540 C539 1.387 . S
H541 C553 0.930 1_554 S
H542 C555 0.930 . S
H543 C556 0.930 . S
H544 C560 0.959 . S
H545 C560 0.959 . S
H546 C560 0.961 . S
H547 C561 0.960 . S
H548 C561 0.961 . S
H549 C561 0.959 . S
H550 C564 0.929 . S
H551 C565 0.931 . S
H552 C567 0.930 . S
C553 H541 0.930 1_556 S
C553 C554 1.399 . S
C553 C558 1.399 . S
C554 C553 1.399 . S
C554 C555 1.376 . S
C555 H542 0.930 . S
C555 C554 1.376 . S
C555 C556 1.388 . S
C556 H543 0.930 . S
C556 C555 1.388 . S
C556 C557 1.390 . S
C557 C556 1.390 . S
C557 C558 1.394 . S
C557 C563 1.465 . S
C558 C553 1.399 . S
C558 C557 1.394 . S
C558 C559 1.516 1_556 S
C559 C558 1.516 1_554 S
C559 C560 1.502 . S
C559 C561 1.561 . S
C559 C562 1.504 1_554 S
C560 H544 0.959 . S
C560 H545 0.959 . S
C560 H546 0.961 . S
C560 C559 1.502 . S
C561 H547 0.960 . S
C561 H548 0.961 . S
C561 H549 0.959 . S
C561 C559 1.561 . S
C562 C559 1.504 1_556 S
C562 C563 1.435 . S
C562 C567 1.378 1_556 S
C563 C557 1.465 . S
C563 C562 1.435 . S
C563 C564 1.399 . S
C564 H550 0.929 . S
C564 C563 1.399 . S
C564 C565 1.385 . S
C565 H551 0.931 . S
C565 C564 1.385 . S
C565 C566 1.389 . S
C566 C565 1.389 . S
C566 C567 1.387 1_556 S
C567 H552 0.930 . S
C567 C562 1.378 1_554 S
C567 C566 1.387 1_554 S
H568 C580 0.930 . S
H569 C582 0.930 . S
H570 C583 0.930 . S
H571 C587 0.959 . S
H572 C587 0.959 . S
H573 C587 0.961 . S
H574 C588 0.960 . S
H575 C588 0.961 . S
H576 C588 0.959 . S
H577 C591 0.929 . S
H578 C592 0.931 . S
H579 C594 0.925 1_455 S
C580 H568 0.930 . S
C580 C581 1.399 1_565 S
C580 C585 1.399 . S
C581 C580 1.399 1_545 S
C581 C582 1.376 . S
C582 H569 0.930 . S
C582 C581 1.376 . S
C582 C583 1.388 . S
C583 H570 0.930 . S
C583 C582 1.388 . S
C583 C584 1.390 . S
C584 C583 1.390 . S
C584 C585 1.394 1_545 S
C584 C590 1.465 . S
C585 C580 1.399 . S
C585 C584 1.394 1_565 S
C585 C586 1.516 . S
C586 C585 1.516 . S
C586 C587 1.502 . S
C586 C588 1.561 . S
C586 C589 1.526 . S
C587 H571 0.959 . S
C587 H572 0.959 . S
C587 H573 0.961 . S
C587 C586 1.502 . S
C588 H574 0.960 . S
C588 H575 0.961 . S
C588 H576 0.959 . S
C588 C586 1.561 . S
C589 C586 1.526 . S
C589 C590 1.396 1_565 S
C589 C594 1.405 . S
C590 C584 1.465 . S
C590 C589 1.396 1_545 S
C590 C591 1.399 . S
C591 H577 0.929 . S
C591 C590 1.399 . S
C591 C592 1.385 1_655 S
C592 H578 0.931 . S
C592 C591 1.385 1_455 S
C592 C593 1.389 1_545 S
C593 C592 1.389 1_565 S
C593 C594 1.377 1_455 S
C594 H579 0.925 1_655 S
C594 C589 1.405 . S
C594 C593 1.377 1_655 S
H595 C607 0.930 1_556 S
H596 C609 0.930 . S
H597 C610 0.930 . S
H598 C614 0.959 1_554 S
H599 C614 0.959 . S
H600 C614 0.961 . S
H601 C615 0.960 . S
H602 C615 0.961 . S
H603 C615 0.959 . S
H604 C618 0.929 . S
H605 C619 0.931 . S
H606 C621 0.930 . S
C607 H595 0.930 1_554 S
C607 C608 1.399 . S
C607 C612 1.399 . S
C608 C607 1.399 . S
C608 C609 1.376 . S
C609 H596 0.930 . S
C609 C608 1.376 . S
C609 C610 1.388 . S
C610 H597 0.930 . S
C610 C609 1.388 . S
C610 C611 1.390 . S
C611 C610 1.390 . S
C611 C612 1.394 . S
C611 C617 1.465 . S
C612 C607 1.399 . S
C612 C611 1.394 . S
C612 C613 1.516 1_554 S
C613 C612 1.516 1_556 S
C613 C614 1.502 . S
C613 C615 1.561 . S
C613 C616 1.526 1_556 S
C614 H598 0.959 1_556 S
C614 H599 0.959 . S
C614 H600 0.961 . S
C614 C613 1.502 . S
C615 H601 0.960 . S
C615 H602 0.961 . S
C615 H603 0.959 . S
C615 C613 1.561 . S
C616 C613 1.526 1_554 S
C616 C617 1.396 . S
C616 C621 1.390 1_554 S
C617 C611 1.465 . S
C617 C616 1.396 . S
C617 C618 1.399 . S
C618 H604 0.929 . S
C618 C617 1.399 . S
C618 C619 1.385 . S
C619 H605 0.931 . S
C619 C618 1.385 . S
C619 C620 1.389 . S
C620 C619 1.389 . S
C620 C621 1.387 1_554 S
C621 H606 0.930 . S
C621 C616 1.390 1_556 S
C621 C620 1.387 1_556 S
H622 C634 0.930 . S
H623 C636 0.930 . S
H624 C637 0.930 . S
H625 C641 0.959 . S
H626 C641 0.959 . S
H627 C641 0.961 . S
H628 C642 0.960 . S
H629 C642 0.961 . S
H630 C642 0.959 . S
H631 C645 0.929 . S
H632 C646 0.931 . S
H633 C648 0.930 . S
C634 H622 0.930 . S
C634 C635 1.399 1_565 S
C634 C639 1.399 . S
C635 C634 1.399 1_545 S
C635 C636 1.376 . S
C636 H623 0.930 . S
C636 C635 1.376 . S
C636 C637 1.388 . S
C637 H624 0.930 . S
C637 C636 1.388 . S
C637 C638 1.390 . S
C638 C637 1.390 . S
C638 C639 1.394 1_545 S
C638 C644 1.465 . S
C639 C634 1.399 . S
C639 C638 1.394 1_565 S
C639 C640 1.516 . S
C640 C639 1.516 . S
C640 C641 1.502 . S
C640 C642 1.561 . S
C640 C643 1.526 . S
C641 H625 0.959 . S
C641 H626 0.959 . S
C641 H627 0.961 . S
C641 C640 1.502 . S
C642 H628 0.960 . S
C642 H629 0.961 . S
C642 H630 0.959 . S
C642 C640 1.561 . S
C643 C640 1.526 . S
C643 C644 1.396 1_565 S
C643 C648 1.390 . S
C644 C638 1.465 . S
C644 C643 1.396 1_545 S
C644 C645 1.399 . S
C645 H631 0.929 . S
C645 C644 1.399 . S
C645 C646 1.385 . S
C646 H632 0.931 . S
C646 C645 1.385 . S
C646 C647 1.391 1_545 S
C647 C646 1.391 1_565 S
C647 C648 1.386 . S
C648 H633 0.930 . S
C648 C643 1.390 . S
C648 C647 1.386 . S
H649 C661 0.930 . S
H650 C663 0.930 . S
H651 C664 0.930 . S
H652 C668 0.959 . S
H653 C668 0.959 . S
H654 C668 0.961 . S
H655 C669 0.960 . S
H656 C669 0.961 . S
H657 C669 0.959 . S
H658 C672 0.929 . S
H659 C673 0.931 . S
H660 C675 0.930 . S
C661 H649 0.930 . S
C661 C662 1.399 . S
C661 C666 1.399 . S
C662 C661 1.399 . S
C662 C663 1.376 . S
C663 H650 0.930 . S
C663 C662 1.376 . S
C663 C664 1.388 . S
C664 H651 0.930 . S
C664 C663 1.388 . S
C664 C665 1.390 . S
C665 C664 1.390 . S
C665 C666 1.394 . S
C665 C671 1.465 . S
C666 C661 1.399 . S
C666 C665 1.394 . S
C666 C667 1.516 . S
C667 C666 1.516 . S
C667 C668 1.502 . S
C667 C669 1.561 . S
C667 C670 1.526 . S
C668 H652 0.959 . S
C668 H653 0.959 . S
C668 H654 0.961 . S
C668 C667 1.502 . S
C669 H655 0.960 . S
C669 H656 0.961 . S
C669 H657 0.959 . S
C669 C667 1.561 . S
C670 C667 1.526 . S
C670 C671 1.396 . S
C670 C675 1.390 . S
C671 C665 1.465 . S
C671 C670 1.396 . S
C671 C672 1.399 . S
C672 H658 0.929 . S
C672 C671 1.399 . S
C672 C673 1.385 . S
C673 H659 0.931 . S
C673 C672 1.385 . S
C673 C674 1.389 . S
C674 C673 1.389 . S
C674 C675 1.387 . S
C675 H660 0.930 . S
C675 C670 1.390 . S
C675 C674 1.387 . S
H676 C688 0.931 . S
H677 C690 0.930 . S
H678 C691 0.930 . S
H679 C695 0.959 . S
H680 C695 0.959 . S
H681 C695 0.961 . S
H682 C696 0.960 . S
H683 C696 0.961 . S
H684 C696 0.959 . S
H685 C699 0.929 . S
H686 C700 0.931 . S
H687 C702 0.930 . S
C688 H676 0.931 . S
C688 C689 1.399 1_455 S
C688 C693 1.399 . S
C689 C688 1.399 1_655 S
C689 C690 1.376 1_545 S
C690 H677 0.930 . S
C690 C689 1.376 1_565 S
C690 C691 1.388 1_655 S
C691 H678 0.930 . S
C691 C690 1.388 1_455 S
C691 C692 1.390 . S
C692 C691 1.390 . S
C692 C693 1.394 1_565 S
C692 C698 1.465 . S
C693 C688 1.399 . S
C693 C692 1.394 1_545 S
C693 C694 1.516 . S
C694 C693 1.516 . S
C694 C695 1.502 . S
C694 C696 1.561 1_545 S
C694 C697 1.526 . S
C695 H679 0.959 . S
C695 H680 0.959 . S
C695 H681 0.961 . S
C695 C694 1.502 . S
C696 H682 0.960 . S
C696 H683 0.961 . S
C696 H684 0.959 . S
C696 C694 1.561 1_565 S
C697 C694 1.526 . S
C697 C698 1.396 1_545 S
C697 C702 1.390 . S
C698 C692 1.465 . S
C698 C697 1.396 1_565 S
C698 C699 1.399 . S
C699 H685 0.929 . S
C699 C698 1.399 . S
C699 C700 1.385 . S
C700 H686 0.931 . S
C700 C699 1.385 . S
C700 C701 1.389 . S
C701 C700 1.389 . S
C701 C702 1.387 1_565 S
C702 H687 0.930 . S
C702 C697 1.390 . S
C702 C701 1.387 1_545 S
H703 C715 0.930 . S
H704 C717 0.930 . S
H705 C718 0.930 . S
H706 C722 0.959 . S
H707 C722 0.959 . S
H708 C722 0.961 . S
H709 C723 0.960 . S
H710 C723 0.961 . S
H711 C723 0.959 . S
H712 C726 0.929 . S
H713 C727 0.931 . S
H714 C729 0.930 . S
C715 H703 0.930 . S
C715 C716 1.399 . S
C715 C720 1.399 . S
C716 C715 1.399 . S
C716 C717 1.376 1_556 S
C717 H704 0.930 . S
C717 C716 1.376 1_554 S
C717 C718 1.388 . S
C718 H705 0.930 . S
C718 C717 1.388 . S
C718 C719 1.390 1_554 S
C719 C718 1.390 1_556 S
C719 C720 1.394 . S
C719 C725 1.465 . S
C720 C715 1.399 . S
C720 C719 1.394 . S
C720 C721 1.516 . S
C721 C720 1.516 . S
C721 C722 1.502 . S
C721 C723 1.561 . S
C721 C724 1.526 . S
C722 H706 0.959 . S
C722 H707 0.959 . S
C722 H708 0.961 . S
C722 C721 1.502 . S
C723 H709 0.960 . S
C723 H710 0.961 . S
C723 H711 0.959 . S
C723 C721 1.561 . S
C724 C721 1.526 . S
C724 C725 1.396 . S
C724 C729 1.390 . S
C725 C719 1.465 . S
C725 C724 1.396 . S
C725 C726 1.399 1_556 S
C726 H712 0.929 . S
C726 C725 1.399 1_554 S
C726 C727 1.385 . S
C727 H713 0.931 . S
C727 C726 1.385 . S
C727 C728 1.389 1_554 S
C728 C727 1.389 1_556 S
C728 C729 1.387 . S
C729 H714 0.930 . S
C729 C724 1.390 . S
C729 C728 1.387 . S
H730 C742 0.930 . S
H731 C744 0.930 . S
H732 C745 0.930 . S
H733 C749 0.959 1_545 S
H734 C749 0.959 . S
H735 C749 0.961 . S
H736 C750 0.960 . S
H737 C750 0.961 . S
H738 C750 0.959 . S
H739 C753 0.929 . S
H740 C754 0.931 . S
H741 C756 0.930 . S
C742 H730 0.930 . S
C742 C743 1.399 . S
C742 C747 1.399 . S
C743 C742 1.399 . S
C743 C744 1.376 1_565 S
C744 H731 0.930 . S
C744 C743 1.376 1_545 S
C744 C745 1.388 . S
C745 H732 0.930 . S
C745 C744 1.388 . S
C745 C746 1.390 1_545 S
C746 C745 1.390 1_565 S
C746 C747 1.394 . S
C746 C752 1.465 1_565 S
C747 C742 1.399 . S
C747 C746 1.394 . S
C747 C748 1.516 . S
C748 C747 1.516 . S
C748 C749 1.502 . S
C748 C750 1.561 . S
C748 C751 1.526 . S
C749 H733 0.959 1_565 S
C749 H734 0.959 . S
C749 H735 0.961 . S
C749 C748 1.502 . S
C750 H736 0.960 . S
C750 H737 0.961 . S
C750 H738 0.959 . S
C750 C748 1.561 . S
C751 C748 1.526 . S
C751 C752 1.396 1_565 S
C751 C756 1.390 . S
C752 C746 1.465 1_545 S
C752 C751 1.396 1_545 S
C752 C753 1.399 . S
C753 H739 0.929 . S
C753 C752 1.399 . S
C753 C754 1.385 . S
C754 H740 0.931 . S
C754 C753 1.385 . S
C754 C755 1.389 . S
C755 C754 1.389 . S
C755 C756 1.387 1_545 S
C756 H741 0.930 . S
C756 C751 1.390 . S
C756 C755 1.387 1_565 S
H757 C769 0.930 . S
H758 C771 0.930 . S
H759 C772 0.930 . S
H760 C776 0.959 . S
H761 C776 0.959 . S
H762 C776 0.961 . S
H763 C777 0.960 . S
H764 C777 0.961 . S
H765 C777 0.959 . S
H766 C780 0.929 . S
H767 C781 0.931 . S
H768 C783 0.930 . S
C769 H757 0.930 . S
C769 C770 1.399 . S
C769 C774 1.399 . S
C770 C769 1.399 . S
C770 C771 1.376 . S
C771 H758 0.930 . S
C771 C770 1.376 . S
C771 C772 1.388 . S
C772 H759 0.930 . S
C772 C771 1.388 . S
C772 C773 1.390 . S
C773 C772 1.390 . S
C773 C774 1.394 . S
C773 C779 1.465 . S
C774 C769 1.399 . S
C774 C773 1.394 . S
C774 C775 1.516 . S
C775 C774 1.516 . S
C775 C776 1.502 . S
C775 C777 1.561 . S
C775 C778 1.526 . S
C776 H760 0.959 . S
C776 H761 0.959 . S
C776 H762 0.961 . S
C776 C775 1.502 . S
C777 H763 0.960 . S
C777 H764 0.961 . S
C777 H765 0.959 . S
C777 C775 1.561 . S
C778 C775 1.526 . S
C778 C779 1.396 . S
C778 C783 1.390 . S
C779 C773 1.465 . S
C779 C778 1.396 . S
C779 C780 1.399 . S
C780 H766 0.929 . S
C780 C779 1.399 . S
C780 C781 1.385 . S
C781 H767 0.931 . S
C781 C780 1.385 . S
C781 C782 1.389 . S
C782 C781 1.389 . S
C782 C783 1.387 . S
C783 H768 0.930 . S
C783 C778 1.390 . S
C783 C782 1.387 . S
H784 C796 0.930 . S
H785 C798 0.930 . S
H786 C799 0.930 . S
H787 C803 0.959 . S
H788 C803 0.959 . S
H789 C803 0.961 . S
H790 C804 0.960 . S
H791 C804 0.961 . S
H792 C804 0.959 . S
H793 C807 0.929 . S
H794 C808 0.931 . S
H795 C810 0.930 . S
C796 H784 0.930 . S
C796 C797 1.399 . S
C796 C801 1.399 . S
C797 C796 1.399 . S
C797 C798 1.376 . S
C798 H785 0.930 . S
C798 C797 1.376 . S
C798 C799 1.388 . S
C799 H786 0.930 . S
C799 C798 1.388 . S
C799 C800 1.390 . S
C800 C799 1.390 . S
C800 C801 1.394 . S
C800 C806 1.465 . S
C801 C796 1.399 . S
C801 C800 1.394 . S
C801 C802 1.516 . S
C802 C801 1.516 . S
C802 C803 1.502 . S
C802 C804 1.561 . S
C802 C805 1.526 . S
C803 H787 0.959 . S
C803 H788 0.959 . S
C803 H789 0.961 . S
C803 C802 1.502 . S
C804 H790 0.960 . S
C804 H791 0.961 . S
C804 H792 0.959 . S
C804 C802 1.561 . S
C805 C802 1.526 . S
C805 C806 1.396 . S
C805 C810 1.390 . S
C806 C800 1.465 . S
C806 C805 1.396 . S
C806 C807 1.399 . S
C807 H793 0.929 . S
C807 C806 1.399 . S
C807 C808 1.385 . S
C808 H794 0.931 . S
C808 C807 1.385 . S
C808 C809 1.389 . S
C809 C808 1.389 . S
C809 C810 1.387 . S
C810 H795 0.930 . S
C810 C805 1.390 . S
C810 C809 1.387 . S
H811 C823 0.930 . S
H812 C825 0.930 . S
H813 C826 0.930 . S
H814 C830 0.959 . S
H815 C830 0.959 1_655 S
H816 C830 0.961 . S
H817 C831 0.960 1_455 S
H818 C831 0.961 . S
H819 C831 0.959 . S
H820 C834 0.929 . S
H821 C835 0.931 . S
H822 C837 0.930 . S
C823 H811 0.930 . S
C823 C824 1.399 . S
C823 C828 1.399 . S
C824 C823 1.399 . S
C824 C825 1.376 . S
C825 H812 0.930 . S
C825 C824 1.376 . S
C825 C826 1.388 . S
C826 H813 0.930 . S
C826 C825 1.388 . S
C826 C827 1.390 . S
C827 C826 1.390 . S
C827 C828 1.394 . S
C827 C833 1.465 1_455 S
C828 C823 1.399 . S
C828 C827 1.394 . S
C828 C829 1.516 1_455 S
C829 C828 1.516 1_655 S
C829 C830 1.502 1_655 S
C829 C831 1.561 . S
C829 C832 1.526 . S
C830 H814 0.959 . S
C830 H815 0.959 1_455 S
C830 H816 0.961 . S
C830 C829 1.502 1_455 S
C831 H817 0.960 1_655 S
C831 H818 0.961 . S
C831 H819 0.959 . S
C831 C829 1.561 . S
C832 C829 1.526 . S
C832 C833 1.396 . S
C832 C837 1.390 . S
C833 C827 1.465 1_655 S
C833 C832 1.396 . S
C833 C834 1.399 . S
C834 H820 0.929 . S
C834 C833 1.399 . S
C834 C835 1.385 . S
C835 H821 0.931 . S
C835 C834 1.385 . S
C835 C836 1.389 . S
C836 C835 1.389 . S
C836 C837 1.387 . S
C837 H822 0.930 . S
C837 C832 1.390 . S
C837 C836 1.387 . S
H838 C850 0.930 . S
H839 C852 0.930 . S
H840 C853 0.930 . S
H841 C857 0.959 . S
H842 C857 0.959 . S
H843 C857 0.961 . S
H844 C858 0.960 . S
H845 C858 0.961 . S
H846 C858 0.959 . S
H847 C861 0.929 . S
H848 C862 0.931 . S
H849 C864 0.930 . S
C850 H838 0.930 . S
C850 C851 1.399 . S
C850 C855 1.399 . S
C851 C850 1.399 . S
C851 C852 1.376 . S
C852 H839 0.930 . S
C852 C851 1.376 . S
C852 C853 1.388 . S
C853 H840 0.930 . S
C853 C852 1.388 . S
C853 C854 1.390 . S
C854 C853 1.390 . S
C854 C855 1.394 . S
C854 C860 1.465 . S
C855 C850 1.399 . S
C855 C854 1.394 . S
C855 C856 1.516 . S
C856 C855 1.516 . S
C856 C857 1.502 . S
C856 C858 1.561 . S
C856 C859 1.526 . S
C857 H841 0.959 . S
C857 H842 0.959 . S
C857 H843 0.961 . S
C857 C856 1.502 . S
C858 H844 0.960 . S
C858 H845 0.961 . S
C858 H846 0.959 . S
C858 C856 1.561 . S
C859 C856 1.526 . S
C859 C860 1.396 . S
C859 C864 1.390 . S
C860 C854 1.465 . S
C860 C859 1.396 . S
C860 C861 1.399 . S
C861 H847 0.929 . S
C861 C860 1.399 . S
C861 C862 1.385 . S
C862 H848 0.931 . S
C862 C861 1.385 . S
C862 C863 1.389 . S
C863 C862 1.389 . S
C863 C864 1.387 . S
C864 H849 0.930 . S
C864 C859 1.390 . S
C864 C863 1.387 . S
H865 C877 0.930 . S
H866 C879 0.930 . S
H867 C880 0.930 . S
H868 C884 0.959 . S
H869 C884 0.959 . S
H870 C884 0.961 . S
H871 C885 0.960 . S
H872 C885 0.961 . S
H873 C885 0.959 . S
H874 C888 0.929 . S
H875 C889 0.931 . S
H876 C891 0.930 . S
C877 H865 0.930 . S
C877 C878 1.399 . S
C877 C882 1.399 . S
C878 C877 1.399 . S
C878 C879 1.376 1_554 S
C879 H866 0.930 . S
C879 C878 1.376 1_556 S
C879 C880 1.388 . S
C880 H867 0.930 . S
C880 C879 1.388 . S
C880 C881 1.390 . S
C881 C880 1.390 . S
C881 C882 1.394 1_556 S
C881 C887 1.465 . S
C882 C877 1.399 . S
C882 C881 1.394 1_554 S
C882 C883 1.516 . S
C883 C882 1.516 . S
C883 C884 1.502 . S
C883 C885 1.561 . S
C883 C886 1.526 . S
C884 H868 0.959 . S
C884 H869 0.959 . S
C884 H870 0.961 . S
C884 C883 1.502 . S
C885 H871 0.960 . S
C885 H872 0.961 . S
C885 H873 0.959 . S
C885 C883 1.561 . S
C886 C883 1.526 . S
C886 C887 1.396 1_554 S
C886 C891 1.390 . S
C887 C881 1.465 . S
C887 C886 1.396 1_556 S
C887 C888 1.399 . S
C888 H874 0.929 . S
C888 C887 1.399 . S
C888 C889 1.385 . S
C889 H875 0.931 . S
C889 C888 1.385 . S
C889 C890 1.389 . S
C890 C889 1.389 . S
C890 C891 1.387 1_556 S
C891 H876 0.930 . S
C891 C886 1.390 . S
C891 C890 1.387 1_554 S
H892 C904 0.930 . S
H893 C906 0.930 . S
H894 C907 0.930 . S
H895 C911 0.959 . S
H896 C911 0.959 . S
H897 C911 0.961 . S
H898 C912 0.960 . S
H899 C912 0.961 . S
H900 C912 0.959 . S
H901 C915 0.929 . S
H902 C916 0.931 . S
H903 C918 0.930 . S
C904 H892 0.930 . S
C904 C905 1.399 . S
C904 C909 1.399 . S
C905 C904 1.399 . S
C905 C906 1.376 . S
C906 H893 0.930 . S
C906 C905 1.376 . S
C906 C907 1.388 . S
C907 H894 0.930 . S
C907 C906 1.388 . S
C907 C908 1.390 . S
C908 C907 1.390 . S
C908 C909 1.394 . S
C908 C914 1.465 . S
C909 C904 1.399 . S
C909 C908 1.394 . S
C909 C910 1.516 . S
C910 C909 1.516 . S
C910 C911 1.502 . S
C910 C912 1.561 . S
C910 C913 1.526 . S
C911 H895 0.959 . S
C911 H896 0.959 . S
C911 H897 0.961 . S
C911 C910 1.502 . S
C912 H898 0.960 . S
C912 H899 0.961 . S
C912 H900 0.959 . S
C912 C910 1.561 . S
C913 C910 1.526 . S
C913 C914 1.396 . S
C913 C918 1.390 . S
C914 C908 1.465 . S
C914 C913 1.396 . S
C914 C915 1.399 . S
C915 H901 0.929 . S
C915 C914 1.399 . S
C915 C916 1.385 . S
C916 H902 0.931 . S
C916 C915 1.385 . S
C916 C917 1.389 . S
C917 C916 1.389 . S
C917 C918 1.387 . S
C918 H903 0.930 . S
C918 C913 1.390 . S
C918 C917 1.387 . S
H919 C931 0.930 . S
H920 C933 0.930 . S
H921 C934 0.930 . S
H922 C938 0.959 . S
H923 C938 0.959 . S
H924 C938 0.961 . S
H925 C939 0.960 . S
H926 C939 0.961 . S
H927 C939 0.959 . S
H928 C942 0.929 . S
H929 C943 0.931 . S
H930 C945 0.930 . S
C931 H919 0.930 . S
C931 C932 1.399 . S
C931 C936 1.399 . S
C932 C931 1.399 . S
C932 C933 1.376 . S
C933 H920 0.930 . S
C933 C932 1.376 . S
C933 C934 1.388 . S
C934 H921 0.930 . S
C934 C933 1.388 . S
C934 C935 1.390 . S
C935 C934 1.390 . S
C935 C936 1.394 . S
C935 C941 1.465 . S
C936 C931 1.399 . S
C936 C935 1.394 . S
C936 C937 1.516 . S
C937 C936 1.516 . S
C937 C938 1.502 . S
C937 C939 1.561 . S
C937 C940 1.526 . S
C938 H922 0.959 . S
C938 H923 0.959 . S
C938 H924 0.961 . S
C938 C937 1.502 . S
C939 H925 0.960 . S
C939 H926 0.961 . S
C939 H927 0.959 . S
C939 C937 1.561 . S
C940 C937 1.526 . S
C940 C941 1.396 . S
C940 C945 1.390 . S
C941 C935 1.465 . S
C941 C940 1.396 . S
C941 C942 1.399 . S
C942 H928 0.929 . S
C942 C941 1.399 . S
C942 C943 1.385 . S
C943 H929 0.931 . S
C943 C942 1.385 . S
C943 C944 1.389 . S
C944 C943 1.389 . S
C944 C945 1.387 . S
C945 H930 0.930 . S
C945 C940 1.390 . S
C945 C944 1.387 . S
H946 C958 0.930 . S
H947 C960 0.930 . S
H948 C961 0.930 . S
H949 C965 0.959 . S
H950 C965 0.959 . S
H951 C965 0.961 . S
H952 C966 0.960 . S
H953 C966 0.961 . S
H954 C966 0.959 . S
H955 C969 0.929 . S
H956 C970 0.931 . S
H957 C972 0.930 . S
C958 H946 0.930 . S
C958 C959 1.399 . S
C958 C963 1.399 . S
C959 C958 1.399 . S
C959 C960 1.376 1_556 S
C960 H947 0.930 . S
C960 C959 1.376 1_554 S
C960 C961 1.388 . S
C961 H948 0.930 . S
C961 C960 1.388 . S
C961 C962 1.390 . S
C962 C961 1.390 . S
C962 C963 1.394 1_554 S
C962 C968 1.465 1_565 S
C963 C958 1.399 . S
C963 C962 1.394 1_556 S
C963 C964 1.516 . S
C964 C963 1.516 . S
C964 C965 1.502 1_565 S
C964 C966 1.561 . S
C964 C967 1.526 1_565 S
C965 H949 0.959 . S
C965 H950 0.959 . S
C965 H951 0.961 . S
C965 C964 1.502 1_545 S
C966 H952 0.960 . S
C966 H953 0.961 . S
C966 H954 0.959 . S
C966 C964 1.561 . S
C967 C964 1.526 1_545 S
C967 C968 1.396 1_556 S
C967 C972 1.390 . S
C968 C962 1.465 1_545 S
C968 C967 1.396 1_554 S
C968 C969 1.399 . S
C969 H955 0.929 . S
C969 C968 1.399 . S
C969 C970 1.385 . S
C970 H956 0.931 . S
C970 C969 1.385 . S
C970 C971 1.389 . S
C971 C970 1.389 . S
C971 C972 1.387 1_554 S
C972 H957 0.930 . S
C972 C967 1.390 . S
C972 C971 1.387 1_556 S
H973 C985 0.930 1_545 S
H974 C987 0.930 . S
H975 C988 0.930 . S
H976 C992 0.959 . S
H977 C992 0.959 . S
H978 C992 0.961 . S
H979 C993 0.960 . S
H980 C993 0.961 . S
H981 C993 0.959 . S
H982 C996 0.929 . S
H983 C997 0.931 . S
H984 C999 0.930 . S
C985 H973 0.930 1_565 S
C985 C986 1.399 . S
C985 C990 1.399 1_565 S
C986 C985 1.399 . S
C986 C987 1.376 . S
C987 H974 0.930 . S
C987 C986 1.376 . S
C987 C988 1.388 . S
C988 H975 0.930 . S
C988 C987 1.388 . S
C988 C989 1.390 . S
C989 C988 1.390 . S
C989 C990 1.394 1_565 S
C989 C995 1.465 1_455 S
C990 C985 1.399 1_545 S
C990 C989 1.394 1_545 S
C990 C991 1.516 . S
C991 C990 1.516 . S
C991 C992 1.502 . S
C991 C993 1.561 . S
C991 C994 1.526 1_455 S
C992 H976 0.959 . S
C992 H977 0.959 . S
C992 H978 0.961 . S
C992 C991 1.502 . S
C993 H979 0.960 . S
C993 H980 0.961 . S
C993 H981 0.959 . S
C993 C991 1.561 . S
C994 C991 1.526 1_655 S
C994 C995 1.396 1_545 S
C994 C999 1.390 . S
C995 C989 1.465 1_655 S
C995 C994 1.396 1_565 S
C995 C996 1.399 . S
C996 H982 0.929 . S
C996 C995 1.399 . S
C996 C997 1.385 . S
C997 H983 0.931 . S
C997 C996 1.385 . S
C997 C998 1.389 1_565 S
C998 C997 1.389 1_545 S
C998 C999 1.387 . S
C999 H984 0.930 . S
C999 C994 1.390 . S
C999 C998 1.387 . S
H1000 C1012 0.930 . S
H1001 C1014 0.930 . S
H1002 C1015 0.930 . S
H1003 C1019 0.959 . S
H1004 C1019 0.959 . S
H1005 C1019 0.961 . S
H1006 C1020 0.960 . S
H1007 C1020 0.961 . S
H1008 C1020 0.959 . S
H1009 C1023 0.929 . S
H1010 C1024 0.931 . S
H1011 C1026 0.930 . S
C1012 H1000 0.930 . S
C1012 C1013 1.399 . S
C1012 C1017 1.399 . S
C1013 C1012 1.399 . S
C1013 C1014 1.376 . S
C1014 H1001 0.930 . S
C1014 C1013 1.376 . S
C1014 C1015 1.388 . S
C1015 H1002 0.930 . S
C1015 C1014 1.388 . S
C1015 C1016 1.390 . S
C1016 C1015 1.390 . S
C1016 C1017 1.394 . S
C1016 C1022 1.465 . S
C1017 C1012 1.399 . S
C1017 C1016 1.394 . S
C1017 C1018 1.516 . S
C1018 C1017 1.516 . S
C1018 C1019 1.502 . S
C1018 C1020 1.561 . S
C1018 C1021 1.526 . S
C1019 H1003 0.959 . S
C1019 H1004 0.959 . S
C1019 H1005 0.961 . S
C1019 C1018 1.502 . S
C1020 H1006 0.960 . S
C1020 H1007 0.961 . S
C1020 H1008 0.959 . S
C1020 C1018 1.561 . S
C1021 C1018 1.526 . S
C1021 C1022 1.396 . S
C1021 C1026 1.390 . S
C1022 C1016 1.465 . S
C1022 C1021 1.396 . S
C1022 C1023 1.399 . S
C1023 H1009 0.929 . S
C1023 C1022 1.399 . S
C1023 C1024 1.385 . S
C1024 H1010 0.931 . S
C1024 C1023 1.385 . S
C1024 C1025 1.389 . S
C1025 C1024 1.389 . S
C1025 C1026 1.387 . S
C1026 H1011 0.930 . S
C1026 C1021 1.390 . S
C1026 C1025 1.387 . S
H1027 C1039 0.930 . S
H1028 C1041 0.930 . S
H1029 C1042 0.930 . S
H1030 C1046 0.959 . S
H1031 C1046 0.959 . S
H1032 C1046 0.961 . S
H1033 C1047 0.960 . S
H1034 C1047 0.961 . S
H1035 C1047 0.959 . S
H1036 C1050 0.929 . S
H1037 C1051 0.931 . S
H1038 C1053 0.930 . S
C1039 H1027 0.930 . S
C1039 C1040 1.399 . S
C1039 C1044 1.399 . S
C1040 C1039 1.399 . S
C1040 C1041 1.376 . S
C1041 H1028 0.930 . S
C1041 C1040 1.376 . S
C1041 C1042 1.388 . S
C1042 H1029 0.930 . S
C1042 C1041 1.388 . S
C1042 C1043 1.390 . S
C1043 C1042 1.390 . S
C1043 C1044 1.394 . S
C1043 C1049 1.465 . S
C1044 C1039 1.399 . S
C1044 C1043 1.394 . S
C1044 C1045 1.516 . S
C1045 C1044 1.516 . S
C1045 C1046 1.502 . S
C1045 C1047 1.561 . S
C1045 C1048 1.526 . S
C1046 H1030 0.959 . S
C1046 H1031 0.959 . S
C1046 H1032 0.961 . S
C1046 C1045 1.502 . S
C1047 H1033 0.960 . S
C1047 H1034 0.961 . S
C1047 H1035 0.959 . S
C1047 C1045 1.561 . S
C1048 C1045 1.526 . S
C1048 C1049 1.396 . S
C1048 C1053 1.390 . S
C1049 C1043 1.465 . S
C1049 C1048 1.396 . S
C1049 C1050 1.399 . S
C1050 H1036 0.929 . S
C1050 C1049 1.399 . S
C1050 C1051 1.385 . S
C1051 H1037 0.931 . S
C1051 C1050 1.385 . S
C1051 C1052 1.389 . S
C1052 C1051 1.389 . S
C1052 C1053 1.387 . S
C1053 H1038 0.930 . S
C1053 C1048 1.390 . S
C1053 C1052 1.387 . S
H1054 C1066 0.930 . S
H1055 C1068 0.930 . S
H1056 C1069 0.930 . S
H1057 C1073 0.959 . S
H1058 C1073 0.959 . S
H1059 C1073 0.961 . S
H1060 C1074 0.960 . S
H1061 C1074 0.961 . S
H1062 C1074 0.959 . S
H1063 C1077 0.929 . S
H1064 C1078 0.931 . S
H1065 C1080 0.930 . S
C1066 H1054 0.930 . S
C1066 C1067 1.399 . S
C1066 C1071 1.399 . S
C1067 C1066 1.399 . S
C1067 C1068 1.376 . S
C1068 H1055 0.930 . S
C1068 C1067 1.376 . S
C1068 C1069 1.388 . S
C1069 H1056 0.930 . S
C1069 C1068 1.388 . S
C1069 C1070 1.390 . S
C1070 C1069 1.390 . S
C1070 C1071 1.394 . S
C1070 C1076 1.465 . S
C1071 C1066 1.399 . S
C1071 C1070 1.394 . S
C1071 C1072 1.516 . S
C1072 C1071 1.516 . S
C1072 C1073 1.502 . S
C1072 C1074 1.561 . S
C1072 C1075 1.526 . S
C1073 H1057 0.959 . S
C1073 H1058 0.959 . S
C1073 H1059 0.961 . S
C1073 C1072 1.502 . S
C1074 H1060 0.960 . S
C1074 H1061 0.961 . S
C1074 H1062 0.959 . S
C1074 C1072 1.561 . S
C1075 C1072 1.526 . S
C1075 C1076 1.396 . S
C1075 C1080 1.390 . S
C1076 C1070 1.465 . S
C1076 C1075 1.396 . S
C1076 C1077 1.399 . S
C1077 H1063 0.929 . S
C1077 C1076 1.399 . S
C1077 C1078 1.385 . S
C1078 H1064 0.931 . S
C1078 C1077 1.385 . S
C1078 C1079 1.389 . S
C1079 C1078 1.389 . S
C1079 C1080 1.387 . S
C1080 H1065 0.930 . S
C1080 C1075 1.390 . S
C1080 C1079 1.387 . S
H1081 C1093 0.930 . S
H1082 C1095 0.930 . S
H1083 C1096 0.930 . S
H1084 C1100 0.959 . S
H1085 C1100 0.959 . S
H1086 C1100 0.961 . S
H1087 C1101 0.960 . S
H1088 C1101 0.961 . S
H1089 C1101 0.959 . S
H1090 C1104 0.929 . S
H1091 C1105 0.931 . S
H1092 C1107 0.930 . S
C1093 H1081 0.930 . S
C1093 C1094 1.399 . S
C1093 C1098 1.399 . S
C1094 C1093 1.399 . S
C1094 C1095 1.376 . S
C1095 H1082 0.930 . S
C1095 C1094 1.376 . S
C1095 C1096 1.388 . S
C1096 H1083 0.930 . S
C1096 C1095 1.388 . S
C1096 C1097 1.390 . S
C1097 C1096 1.390 . S
C1097 C1098 1.394 . S
C1097 C1103 1.465 . S
C1098 C1093 1.399 . S
C1098 C1097 1.394 . S
C1098 C1099 1.516 . S
C1099 C1098 1.516 . S
C1099 C1100 1.502 . S
C1099 C1101 1.561 . S
C1099 C1102 1.526 . S
C1100 H1084 0.959 . S
C1100 H1085 0.959 . S
C1100 H1086 0.961 . S
C1100 C1099 1.502 . S
C1101 H1087 0.960 . S
C1101 H1088 0.961 . S
C1101 H1089 0.959 . S
C1101 C1099 1.561 . S
C1102 C1099 1.526 . S
C1102 C1103 1.396 . S
C1102 C1107 1.390 . S
C1103 C1097 1.465 . S
C1103 C1102 1.396 . S
C1103 C1104 1.399 . S
C1104 H1090 0.929 . S
C1104 C1103 1.399 . S
C1104 C1105 1.385 . S
C1105 H1091 0.931 . S
C1105 C1104 1.385 . S
C1105 C1106 1.389 . S
C1106 C1105 1.389 . S
C1106 C1107 1.387 . S
C1107 H1092 0.930 . S
C1107 C1102 1.390 . S
C1107 C1106 1.387 . S
H1108 C1120 0.930 . S
H1109 C1122 0.930 . S
H1110 C1123 0.930 . S
H1111 C1127 0.959 . S
H1112 C1127 0.959 . S
H1113 C1127 0.961 . S
H1114 C1128 0.960 . S
H1115 C1128 0.961 . S
H1116 C1128 0.959 . S
H1117 C1131 0.929 . S
H1118 C1132 0.931 . S
H1119 C1134 0.930 . S
C1120 H1108 0.930 . S
C1120 C1121 1.399 . S
C1120 C1125 1.399 . S
C1121 C1120 1.399 . S
C1121 C1122 1.376 . S
C1122 H1109 0.930 . S
C1122 C1121 1.376 . S
C1122 C1123 1.388 . S
C1123 H1110 0.930 . S
C1123 C1122 1.388 . S
C1123 C1124 1.390 . S
C1124 C1123 1.390 . S
C1124 C1125 1.394 . S
C1124 C1130 1.465 . S
C1125 C1120 1.399 . S
C1125 C1124 1.394 . S
C1125 C1126 1.516 . S
C1126 C1125 1.516 . S
C1126 C1127 1.502 . S
C1126 C1128 1.561 . S
C1126 C1129 1.526 . S
C1127 H1111 0.959 . S
C1127 H1112 0.959 . S
C1127 H1113 0.961 . S
C1127 C1126 1.502 . S
C1128 H1114 0.960 . S
C1128 H1115 0.961 . S
C1128 H1116 0.959 . S
C1128 C1126 1.561 . S
C1129 C1126 1.526 . S
C1129 C1130 1.396 . S
C1129 C1134 1.390 . S
C1130 C1124 1.465 . S
C1130 C1129 1.396 . S
C1130 C1131 1.399 . S
C1131 H1117 0.929 . S
C1131 C1130 1.399 . S
C1131 C1132 1.385 . S
C1132 H1118 0.931 . S
C1132 C1131 1.385 . S
C1132 C1133 1.389 . S
C1133 C1132 1.389 . S
C1133 C1134 1.387 . S
C1134 H1119 0.930 . S
C1134 C1129 1.390 . S
C1134 C1133 1.387 . S
H1135 C1147 0.930 . S
H1136 C1149 0.930 . S
H1137 C1150 0.930 . S
H1138 C1154 0.959 . S
H1139 C1154 0.959 . S
H1140 C1154 0.961 . S
H1141 C1155 0.960 . S
H1142 C1155 0.961 . S
H1143 C1155 0.959 . S
H1144 C1158 0.929 . S
H1145 C1159 0.931 . S
H1146 C1161 0.930 . S
C1147 H1135 0.930 . S
C1147 C1148 1.399 . S
C1147 C1152 1.399 . S
C1148 C1147 1.399 . S
C1148 C1149 1.376 . S
C1149 H1136 0.930 . S
C1149 C1148 1.376 . S
C1149 C1150 1.388 . S
C1150 H1137 0.930 . S
C1150 C1149 1.388 . S
C1150 C1151 1.390 . S
C1151 C1150 1.390 . S
C1151 C1152 1.394 . S
C1151 C1157 1.465 . S
C1152 C1147 1.399 . S
C1152 C1151 1.394 . S
C1152 C1153 1.516 . S
C1153 C1152 1.516 . S
C1153 C1154 1.502 . S
C1153 C1155 1.561 . S
C1153 C1156 1.526 . S
C1154 H1138 0.959 . S
C1154 H1139 0.959 . S
C1154 H1140 0.961 . S
C1154 C1153 1.502 . S
C1155 H1141 0.960 . S
C1155 H1142 0.961 . S
C1155 H1143 0.959 . S
C1155 C1153 1.561 . S
C1156 C1153 1.526 . S
C1156 C1157 1.396 . S
C1156 C1161 1.390 . S
C1157 C1151 1.465 . S
C1157 C1156 1.396 . S
C1157 C1158 1.399 . S
C1158 H1144 0.929 . S
C1158 C1157 1.399 . S
C1158 C1159 1.385 . S
C1159 H1145 0.931 . S
C1159 C1158 1.385 . S
C1159 C1160 1.389 . S
C1160 C1159 1.389 . S
C1160 C1161 1.387 . S
C1161 H1146 0.930 . S
C1161 C1156 1.390 . S
C1161 C1160 1.387 . S
H1162 C1174 0.930 . S
H1163 C1176 0.930 . S
H1164 C1177 0.930 . S
H1165 C1181 0.959 . S
H1166 C1181 0.959 . S
H1167 C1181 0.961 . S
H1168 C1182 0.960 . S
H1169 C1182 0.961 . S
H1170 C1182 0.959 . S
H1171 C1185 0.929 . S
H1172 C1186 0.931 . S
H1173 C1188 0.930 . S
C1174 H1162 0.930 . S
C1174 C1175 1.399 . S
C1174 C1179 1.399 . S
C1175 C1174 1.399 . S
C1175 C1176 1.376 . S
C1176 H1163 0.930 . S
C1176 C1175 1.376 . S
C1176 C1177 1.388 . S
C1177 H1164 0.930 . S
C1177 C1176 1.388 . S
C1177 C1178 1.390 . S
C1178 C1177 1.390 . S
C1178 C1179 1.394 . S
C1178 C1184 1.465 . S
C1179 C1174 1.399 . S
C1179 C1178 1.394 . S
C1179 C1180 1.516 . S
C1180 C1179 1.516 . S
C1180 C1181 1.502 . S
C1180 C1182 1.561 . S
C1180 C1183 1.526 . S
C1181 H1165 0.959 . S
C1181 H1166 0.959 . S
C1181 H1167 0.961 . S
C1181 C1180 1.502 . S
C1182 H1168 0.960 . S
C1182 H1169 0.961 . S
C1182 H1170 0.959 . S
C1182 C1180 1.561 . S
C1183 C1180 1.526 . S
C1183 C1184 1.396 . S
C1183 C1188 1.390 . S
C1184 C1178 1.465 . S
C1184 C1183 1.396 . S
C1184 C1185 1.399 . S
C1185 H1171 0.929 . S
C1185 C1184 1.399 . S
C1185 C1186 1.385 . S
C1186 H1172 0.931 . S
C1186 C1185 1.385 . S
C1186 C1187 1.389 . S
C1187 C1186 1.389 . S
C1187 C1188 1.387 . S
C1188 H1173 0.930 . S
C1188 C1183 1.390 . S
C1188 C1187 1.387 . S
H1189 C1201 0.930 . S
H1190 C1203 0.930 . S
H1191 C1204 0.930 . S
H1192 C1208 0.959 . S
H1193 C1208 0.959 . S
H1194 C1208 0.961 . S
H1195 C1209 0.960 . S
H1196 C1209 0.961 . S
H1197 C1209 0.959 . S
H1198 C1212 0.929 . S
H1199 C1213 0.931 . S
H1200 C1215 0.930 . S
C1201 H1189 0.930 . S
C1201 C1202 1.399 . S
C1201 C1206 1.399 . S
C1202 C1201 1.399 . S
C1202 C1203 1.376 . S
C1203 H1190 0.930 . S
C1203 C1202 1.376 . S
C1203 C1204 1.388 . S
C1204 H1191 0.930 . S
C1204 C1203 1.388 . S
C1204 C1205 1.390 . S
C1205 C1204 1.390 . S
C1205 C1206 1.394 . S
C1205 C1211 1.465 . S
C1206 C1201 1.399 . S
C1206 C1205 1.394 . S
C1206 C1207 1.516 . S
C1207 C1206 1.516 . S
C1207 C1208 1.502 . S
C1207 C1209 1.561 . S
C1207 C1210 1.526 . S
C1208 H1192 0.959 . S
C1208 H1193 0.959 . S
C1208 H1194 0.961 . S
C1208 C1207 1.502 . S
C1209 H1195 0.960 . S
C1209 H1196 0.961 . S
C1209 H1197 0.959 . S
C1209 C1207 1.561 . S
C1210 C1207 1.526 . S
C1210 C1211 1.396 . S
C1210 C1215 1.390 . S
C1211 C1205 1.465 . S
C1211 C1210 1.396 . S
C1211 C1212 1.399 . S
C1212 H1198 0.929 . S
C1212 C1211 1.399 . S
C1212 C1213 1.385 . S
C1213 H1199 0.931 . S
C1213 C1212 1.385 . S
C1213 C1214 1.389 . S
C1214 C1213 1.389 . S
C1214 C1215 1.387 . S
C1215 H1200 0.930 . S
C1215 C1210 1.390 . S
C1215 C1214 1.387 . S
H1216 C1228 0.913 1_545 S
H1217 C1230 0.930 . S
H1218 C1231 0.930 . S
H1219 C1235 0.959 1_565 S
H1220 C1235 0.959 . S
H1221 C1235 0.961 . S
H1222 C1236 0.960 . S
H1223 C1236 0.961 . S
H1224 C1236 0.959 . S
H1225 C1239 0.929 . S
H1226 C1240 0.931 . S
H1227 C1242 0.930 . S
C1228 H1216 0.913 1_565 S
C1228 C1229 1.410 . S
C1228 C1233 1.406 . S
C1229 C1228 1.410 . S
C1229 C1230 1.376 . S
C1230 H1217 0.930 . S
C1230 C1229 1.376 . S
C1230 C1231 1.388 . S
C1231 H1218 0.930 . S
C1231 C1230 1.388 . S
C1231 C1232 1.390 . S
C1232 C1231 1.390 . S
C1232 C1233 1.394 . S
C1232 C1238 1.465 . S
C1233 C1228 1.406 . S
C1233 C1232 1.394 . S
C1233 C1234 1.516 1_565 S
C1234 C1233 1.516 1_545 S
C1234 C1235 1.502 . S
C1234 C1236 1.561 . S
C1234 C1237 1.526 1_545 S
C1235 H1219 0.959 1_545 S
C1235 H1220 0.959 . S
C1235 H1221 0.961 . S
C1235 C1234 1.502 . S
C1236 H1222 0.960 . S
C1236 H1223 0.961 . S
C1236 H1224 0.959 . S
C1236 C1234 1.561 . S
C1237 C1234 1.526 1_565 S
C1237 C1238 1.396 . S
C1237 C1242 1.390 . S
C1238 C1232 1.465 . S
C1238 C1237 1.396 . S
C1238 C1239 1.399 . S
C1239 H1225 0.929 . S
C1239 C1238 1.399 . S
C1239 C1240 1.385 . S
C1240 H1226 0.931 . S
C1240 C1239 1.385 . S
C1240 C1241 1.389 . S
C1241 C1240 1.389 . S
C1241 C1242 1.387 . S
C1242 H1227 0.930 . S
C1242 C1237 1.390 . S
C1242 C1241 1.387 . S
H1243 C1255 0.930 . S
H1244 C1257 0.930 . S
H1245 C1258 0.930 . S
H1246 C1262 0.959 1_545 S
H1247 C1262 0.959 . S
H1248 C1262 0.961 . S
H1249 C1263 0.960 . S
H1250 C1263 0.961 . S
H1251 C1263 0.959 . S
H1252 C1266 0.929 . S
H1253 C1267 0.931 . S
H1254 C1269 0.930 . S
C1255 H1243 0.930 . S
C1255 C1256 1.399 . S
C1255 C1260 1.399 . S
C1256 C1255 1.399 . S
C1256 C1257 1.376 . S
C1257 H1244 0.930 . S
C1257 C1256 1.376 . S
C1257 C1258 1.388 . S
C1258 H1245 0.930 . S
C1258 C1257 1.388 . S
C1258 C1259 1.390 . S
C1259 C1258 1.390 . S
C1259 C1260 1.394 . S
C1259 C1265 1.465 . S
C1260 C1255 1.399 . S
C1260 C1259 1.394 . S
C1260 C1261 1.516 . S
C1261 C1260 1.516 . S
C1261 C1262 1.502 . S
C1261 C1263 1.561 . S
C1261 C1264 1.526 . S
C1262 H1246 0.959 1_565 S
C1262 H1247 0.959 . S
C1262 H1248 0.961 . S
C1262 C1261 1.502 . S
C1263 H1249 0.960 . S
C1263 H1250 0.961 . S
C1263 H1251 0.959 . S
C1263 C1261 1.561 . S
C1264 C1261 1.526 . S
C1264 C1265 1.396 . S
C1264 C1269 1.390 . S
C1265 C1259 1.465 . S
C1265 C1264 1.396 . S
C1265 C1266 1.399 . S
C1266 H1252 0.929 . S
C1266 C1265 1.399 . S
C1266 C1267 1.385 . S
C1267 H1253 0.931 . S
C1267 C1266 1.385 . S
C1267 C1268 1.389 . S
C1268 C1267 1.389 . S
C1268 C1269 1.387 . S
C1269 H1254 0.930 . S
C1269 C1264 1.390 . S
C1269 C1268 1.387 . S
H1270 C1282 0.930 . S
H1271 C1284 0.930 . S
H1272 C1285 0.930 1_565 S
H1273 C1289 0.959 . S
H1274 C1289 0.959 . S
H1275 C1289 0.961 . S
H1276 C1290 0.960 . S
H1277 C1290 0.961 . S
H1278 C1290 0.959 . S
H1279 C1293 0.929 . S
H1280 C1294 0.931 . S
H1281 C1296 0.930 . S
C1282 H1270 0.930 . S
C1282 C1283 1.399 . S
C1282 C1287 1.399 . S
C1283 C1282 1.399 . S
C1283 C1284 1.376 . S
C1284 H1271 0.930 . S
C1284 C1283 1.376 . S
C1284 C1285 1.388 . S
C1285 H1272 0.930 1_545 S
C1285 C1284 1.388 . S
C1285 C1286 1.390 . S
C1286 C1285 1.390 . S
C1286 C1287 1.394 . S
C1286 C1292 1.465 . S
C1287 C1282 1.399 . S
C1287 C1286 1.394 . S
C1287 C1288 1.516 . S
C1288 C1287 1.516 . S
C1288 C1289 1.502 . S
C1288 C1290 1.561 . S
C1288 C1291 1.526 . S
C1289 H1273 0.959 . S
C1289 H1274 0.959 . S
C1289 H1275 0.961 . S
C1289 C1288 1.502 . S
C1290 H1276 0.960 . S
C1290 H1277 0.961 . S
C1290 H1278 0.959 . S
C1290 C1288 1.561 . S
C1291 C1288 1.526 . S
C1291 C1292 1.396 . S
C1291 C1296 1.390 . S
C1292 C1286 1.465 . S
C1292 C1291 1.396 . S
C1292 C1293 1.399 1_545 S
C1293 H1279 0.929 . S
C1293 C1292 1.399 1_565 S
C1293 C1294 1.385 . S
C1294 H1280 0.931 . S
C1294 C1293 1.385 . S
C1294 C1295 1.389 1_565 S
C1295 C1294 1.389 1_545 S
C1295 C1296 1.387 . S
C1296 H1281 0.930 . S
C1296 C1291 1.390 . S
C1296 C1295 1.387 . S
H1297 C1309 0.930 . S
H1298 C1311 0.930 . S
H1299 C1312 0.930 1_565 S
H1300 C1316 0.959 . S
H1301 C1316 0.959 . S
H1302 C1316 0.961 . S
H1303 C1317 0.960 . S
H1304 C1317 0.961 . S
H1305 C1317 0.959 . S
H1306 C1320 0.929 . S
H1307 C1321 0.931 . S
H1308 C1323 0.930 . S
C1309 H1297 0.930 . S
C1309 C1310 1.399 . S
C1309 C1314 1.399 . S
C1310 C1309 1.399 . S
C1310 C1311 1.376 . S
C1311 H1298 0.930 . S
C1311 C1310 1.376 . S
C1311 C1312 1.388 . S
C1312 H1299 0.930 1_545 S
C1312 C1311 1.388 . S
C1312 C1313 1.390 . S
C1313 C1312 1.390 . S
C1313 C1314 1.394 . S
C1313 C1319 1.465 . S
C1314 C1309 1.399 . S
C1314 C1313 1.394 . S
C1314 C1315 1.516 . S
C1315 C1314 1.516 . S
C1315 C1316 1.502 . S
C1315 C1317 1.561 . S
C1315 C1318 1.526 . S
C1316 H1300 0.959 . S
C1316 H1301 0.959 . S
C1316 H1302 0.961 . S
C1316 C1315 1.502 . S
C1317 H1303 0.960 . S
C1317 H1304 0.961 . S
C1317 H1305 0.959 . S
C1317 C1315 1.561 . S
C1318 C1315 1.526 . S
C1318 C1319 1.396 . S
C1318 C1323 1.390 . S
C1319 C1313 1.465 . S
C1319 C1318 1.396 . S
C1319 C1320 1.399 1_545 S
C1320 H1306 0.929 . S
C1320 C1319 1.399 1_565 S
C1320 C1321 1.385 . S
C1321 H1307 0.931 . S
C1321 C1320 1.385 . S
C1321 C1322 1.389 1_565 S
C1322 C1321 1.389 1_545 S
C1322 C1323 1.387 . S
C1323 H1308 0.930 . S
C1323 C1318 1.390 . S
C1323 C1322 1.387 . S
H1324 C1336 0.930 . S
H1325 C1338 0.930 . S
H1326 C1339 0.930 . S
H1327 C1343 0.959 1_545 S
H1328 C1343 0.959 . S
H1329 C1343 0.961 . S
H1330 C1344 0.960 . S
H1331 C1344 0.961 . S
H1332 C1344 0.959 . S
H1333 C1347 0.929 . S
H1334 C1348 0.931 . S
H1335 C1350 0.930 1_565 S
C1336 H1324 0.930 . S
C1336 C1337 1.399 . S
C1336 C1341 1.399 . S
C1337 C1336 1.399 . S
C1337 C1338 1.376 . S
C1338 H1325 0.930 . S
C1338 C1337 1.376 . S
C1338 C1339 1.388 . S
C1339 H1326 0.930 . S
C1339 C1338 1.388 . S
C1339 C1340 1.390 . S
C1340 C1339 1.390 . S
C1340 C1341 1.394 . S
C1340 C1346 1.465 . S
C1341 C1336 1.399 . S
C1341 C1340 1.394 . S
C1341 C1342 1.516 1_545 S
C1342 C1341 1.516 1_565 S
C1342 C1343 1.502 . S
C1342 C1344 1.561 . S
C1342 C1345 1.526 1_565 S
C1343 H1327 0.959 1_565 S
C1343 H1328 0.959 . S
C1343 H1329 0.961 . S
C1343 C1342 1.502 . S
C1344 H1330 0.960 . S
C1344 H1331 0.961 . S
C1344 H1332 0.959 . S
C1344 C1342 1.561 . S
C1345 C1342 1.526 1_545 S
C1345 C1346 1.396 . S
C1345 C1350 1.390 . S
C1346 C1340 1.465 . S
C1346 C1345 1.396 . S
C1346 C1347 1.399 . S
C1347 H1333 0.929 . S
C1347 C1346 1.399 . S
C1347 C1348 1.385 . S
C1348 H1334 0.931 . S
C1348 C1347 1.385 . S
C1348 C1349 1.389 . S
C1349 C1348 1.389 . S
C1349 C1350 1.387 . S
C1350 H1335 0.930 1_545 S
C1350 C1345 1.390 . S
C1350 C1349 1.387 . S
H1351 C1363 0.930 . S
H1352 C1365 0.930 . S
H1353 C1366 0.930 1_565 S
H1354 C1370 0.959 . S
H1355 C1370 0.959 . S
H1356 C1370 0.961 . S
H1357 C1371 0.960 . S
H1358 C1371 0.961 . S
H1359 C1371 0.959 . S
H1360 C1374 0.929 . S
H1361 C1375 0.931 . S
H1362 C1377 0.930 . S
C1363 H1351 0.930 . S
C1363 C1364 1.399 . S
C1363 C1368 1.399 . S
C1364 C1363 1.399 . S
C1364 C1365 1.376 . S
C1365 H1352 0.930 . S
C1365 C1364 1.376 . S
C1365 C1366 1.388 . S
C1366 H1353 0.930 1_545 S
C1366 C1365 1.388 . S
C1366 C1367 1.390 . S
C1367 C1366 1.390 . S
C1367 C1368 1.394 . S
C1367 C1373 1.465 . S
C1368 C1363 1.399 . S
C1368 C1367 1.394 . S
C1368 C1369 1.516 . S
C1369 C1368 1.516 . S
C1369 C1370 1.502 . S
C1369 C1371 1.561 . S
C1369 C1372 1.526 . S
C1370 H1354 0.959 . S
C1370 H1355 0.959 . S
C1370 H1356 0.961 . S
C1370 C1369 1.502 . S
C1371 H1357 0.960 . S
C1371 H1358 0.961 . S
C1371 H1359 0.959 . S
C1371 C1369 1.561 . S
C1372 C1369 1.526 . S
C1372 C1373 1.396 . S
C1372 C1377 1.390 . S
C1373 C1367 1.465 . S
C1373 C1372 1.396 . S
C1373 C1374 1.399 1_545 S
C1374 H1360 0.929 . S
C1374 C1373 1.399 1_565 S
C1374 C1375 1.385 . S
C1375 H1361 0.931 . S
C1375 C1374 1.385 . S
C1375 C1376 1.389 1_565 S
C1376 C1375 1.389 1_545 S
C1376 C1377 1.387 . S
C1377 H1362 0.930 . S
C1377 C1372 1.390 . S
C1377 C1376 1.387 . S
H1378 C1390 0.930 . S
H1379 C1392 0.930 . S
H1380 C1393 0.930 . S
H1381 C1397 0.959 . S
H1382 C1397 0.959 . S
H1383 C1397 0.961 . S
H1384 C1398 0.960 . S
H1385 C1398 0.961 . S
H1386 C1398 0.959 . S
H1387 C1401 0.929 . S
H1388 C1402 0.931 . S
H1389 C1404 0.930 . S
C1390 H1378 0.930 . S
C1390 C1391 1.399 . S
C1390 C1395 1.399 . S
C1391 C1390 1.399 . S
C1391 C1392 1.376 . S
C1392 H1379 0.930 . S
C1392 C1391 1.376 . S
C1392 C1393 1.388 . S
C1393 H1380 0.930 . S
C1393 C1392 1.388 . S
C1393 C1394 1.390 . S
C1394 C1393 1.390 . S
C1394 C1395 1.394 . S
C1394 C1400 1.465 . S
C1395 C1390 1.399 . S
C1395 C1394 1.394 . S
C1395 C1396 1.516 . S
C1396 C1395 1.516 . S
C1396 C1397 1.502 . S
C1396 C1398 1.561 1_565 S
C1396 C1399 1.526 . S
C1397 H1381 0.959 . S
C1397 H1382 0.959 . S
C1397 H1383 0.961 . S
C1397 C1396 1.502 . S
C1398 H1384 0.960 . S
C1398 H1385 0.961 . S
C1398 H1386 0.959 . S
C1398 C1396 1.561 1_545 S
C1399 C1396 1.526 . S
C1399 C1400 1.396 . S
C1399 C1404 1.390 . S
C1400 C1394 1.465 . S
C1400 C1399 1.396 . S
C1400 C1401 1.399 . S
C1401 H1387 0.929 . S
C1401 C1400 1.399 . S
C1401 C1402 1.385 . S
C1402 H1388 0.931 . S
C1402 C1401 1.385 . S
C1402 C1403 1.389 . S
C1403 C1402 1.389 . S
C1403 C1404 1.387 . S
C1404 H1389 0.930 . S
C1404 C1399 1.390 . S
C1404 C1403 1.387 . S
H1405 C1417 0.930 . S
H1406 C1419 0.930 . S
H1407 C1420 0.930 . S
H1408 C1424 0.959 . S
H1409 C1424 0.959 . S
H1410 C1424 0.961 . S
H1411 C1425 0.960 . S
H1412 C1425 0.961 . S
H1413 C1425 0.959 . S
H1414 C1428 0.929 . S
H1415 C1429 0.931 . S
H1416 C1431 0.930 . S
C1417 H1405 0.930 . S
C1417 C1418 1.399 . S
C1417 C1422 1.399 . S
C1418 C1417 1.399 . S
C1418 C1419 1.376 1_565 S
C1419 H1406 0.930 . S
C1419 C1418 1.376 1_545 S
C1419 C1420 1.388 . S
C1420 H1407 0.930 . S
C1420 C1419 1.388 . S
C1420 C1421 1.390 1_545 S
C1421 C1420 1.390 1_565 S
C1421 C1422 1.394 . S
C1421 C1427 1.465 . S
C1422 C1417 1.399 . S
C1422 C1421 1.394 . S
C1422 C1423 1.516 . S
C1423 C1422 1.516 . S
C1423 C1424 1.502 . S
C1423 C1425 1.561 . S
C1423 C1426 1.526 . S
C1424 H1408 0.959 . S
C1424 H1409 0.959 . S
C1424 H1410 0.961 . S
C1424 C1423 1.502 . S
C1425 H1411 0.960 . S
C1425 H1412 0.961 . S
C1425 H1413 0.959 . S
C1425 C1423 1.561 . S
C1426 C1423 1.526 . S
C1426 C1427 1.396 . S
C1426 C1431 1.390 . S
C1427 C1421 1.465 . S
C1427 C1426 1.396 . S
C1427 C1428 1.399 . S
C1428 H1414 0.929 . S
C1428 C1427 1.399 . S
C1428 C1429 1.385 . S
C1429 H1415 0.931 . S
C1429 C1428 1.385 . S
C1429 C1430 1.389 . S
C1430 C1429 1.389 . S
C1430 C1431 1.387 . S
C1431 H1416 0.930 . S
C1431 C1426 1.390 . S
C1431 C1430 1.387 . S
H1432 C1444 0.930 . S
H1433 C1446 0.930 . S
H1434 C1447 0.922 1_655 S
H1435 C1451 0.959 . S
H1436 C1451 0.959 . S
H1437 C1451 0.961 . S
H1438 C1452 0.960 1_455 S
H1439 C1452 0.961 . S
H1440 C1452 0.959 . S
H1441 C1455 0.929 . S
H1442 C1456 0.931 . S
H1443 C1458 0.930 . S
C1444 H1432 0.930 . S
C1444 C1445 1.399 . S
C1444 C1449 1.399 . S
C1445 C1444 1.399 . S
C1445 C1446 1.376 . S
C1446 H1433 0.930 . S
C1446 C1445 1.376 . S
C1446 C1447 1.388 . S
C1447 H1434 0.922 1_455 S
C1447 C1446 1.388 . S
C1447 C1448 1.390 . S
C1448 C1447 1.390 . S
C1448 C1449 1.394 . S
C1448 C1454 1.465 1_455 S
C1449 C1444 1.399 . S
C1449 C1448 1.394 . S
C1449 C1450 1.516 . S
C1450 C1449 1.516 . S
C1450 C1451 1.502 . S
C1450 C1452 1.561 1_455 S
C1450 C1453 1.526 1_455 S
C1451 H1435 0.959 . S
C1451 H1436 0.959 . S
C1451 H1437 0.961 . S
C1451 C1450 1.502 . S
C1452 H1438 0.960 1_655 S
C1452 H1439 0.961 . S
C1452 H1440 0.959 . S
C1452 C1450 1.561 1_655 S
C1453 C1450 1.526 1_655 S
C1453 C1454 1.396 . S
C1453 C1458 1.390 . S
C1454 C1448 1.465 1_655 S
C1454 C1453 1.396 . S
C1454 C1455 1.399 . S
C1455 H1441 0.929 . S
C1455 C1454 1.399 . S
C1455 C1456 1.385 . S
C1456 H1442 0.931 . S
C1456 C1455 1.385 . S
C1456 C1457 1.389 . S
C1457 C1456 1.389 . S
C1457 C1458 1.387 . S
C1458 H1443 0.930 . S
C1458 C1453 1.390 . S
C1458 C1457 1.387 . S
H1459 C1471 0.930 . S
H1460 C1473 0.930 . S
H1461 C1474 0.930 . S
H1462 C1478 0.959 . S
H1463 C1478 0.959 . S
H1464 C1478 0.961 . S
H1465 C1479 0.960 1_455 S
H1466 C1479 0.961 . S
H1467 C1479 0.959 1_455 S
H1468 C1482 0.929 1_455 S
H1469 C1483 0.931 . S
H1470 C1485 0.930 . S
C1471 H1459 0.930 . S
C1471 C1472 1.399 . S
C1471 C1476 1.399 . S
C1472 C1471 1.399 . S
C1472 C1473 1.376 . S
C1473 H1460 0.930 . S
C1473 C1472 1.376 . S
C1473 C1474 1.388 . S
C1474 H1461 0.930 . S
C1474 C1473 1.388 . S
C1474 C1475 1.390 . S
C1475 C1474 1.390 . S
C1475 C1476 1.394 . S
C1475 C1481 1.465 1_455 S
C1476 C1471 1.399 . S
C1476 C1475 1.394 . S
C1476 C1477 1.516 1_455 S
C1477 C1476 1.516 1_655 S
C1477 C1478 1.502 . S
C1477 C1479 1.561 . S
C1477 C1480 1.526 . S
C1478 H1462 0.959 . S
C1478 H1463 0.959 . S
C1478 H1464 0.961 . S
C1478 C1477 1.502 . S
C1479 H1465 0.960 1_655 S
C1479 H1466 0.961 . S
C1479 H1467 0.959 1_655 S
C1479 C1477 1.561 . S
C1480 C1477 1.526 . S
C1480 C1481 1.396 . S
C1480 C1485 1.390 . S
C1481 C1475 1.465 1_655 S
C1481 C1480 1.396 . S
C1481 C1482 1.399 . S
C1482 H1468 0.929 1_655 S
C1482 C1481 1.399 . S
C1482 C1483 1.385 . S
C1483 H1469 0.931 . S
C1483 C1482 1.385 . S
C1483 C1484 1.389 . S
C1484 C1483 1.389 . S
C1484 C1485 1.387 . S
C1485 H1470 0.930 . S
C1485 C1480 1.390 . S
C1485 C1484 1.387 . S
H1486 C1498 0.930 . S
H1487 C1500 0.930 . S
H1488 C1501 0.930 . S
H1489 C1505 0.959 . S
H1490 C1505 0.959 . S
H1491 C1505 0.961 . S
H1492 C1506 0.960 . S
H1493 C1506 0.961 . S
H1494 C1506 0.959 . S
H1495 C1509 0.929 . S
H1496 C1510 0.931 . S
H1497 C1512 0.930 . S
C1498 H1486 0.930 . S
C1498 C1499 1.399 . S
C1498 C1503 1.399 . S
C1499 C1498 1.399 . S
C1499 C1500 1.376 . S
C1500 H1487 0.930 . S
C1500 C1499 1.376 . S
C1500 C1501 1.388 . S
C1501 H1488 0.930 . S
C1501 C1500 1.388 . S
C1501 C1502 1.390 . S
C1502 C1501 1.390 . S
C1502 C1503 1.394 . S
C1502 C1508 1.465 . S
C1503 C1498 1.399 . S
C1503 C1502 1.394 . S
C1503 C1504 1.516 . S
C1504 C1503 1.516 . S
C1504 C1505 1.502 . S
C1504 C1506 1.561 . S
C1504 C1507 1.526 . S
C1505 H1489 0.959 . S
C1505 H1490 0.959 . S
C1505 H1491 0.961 . S
C1505 C1504 1.502 . S
C1506 H1492 0.960 . S
C1506 H1493 0.961 . S
C1506 H1494 0.959 . S
C1506 C1504 1.561 . S
C1507 C1504 1.526 . S
C1507 C1508 1.396 . S
C1507 C1512 1.390 . S
C1508 C1502 1.465 . S
C1508 C1507 1.396 . S
C1508 C1509 1.399 . S
C1509 H1495 0.929 . S
C1509 C1508 1.399 . S
C1509 C1510 1.385 . S
C1510 H1496 0.931 . S
C1510 C1509 1.385 . S
C1510 C1511 1.389 . S
C1511 C1510 1.389 . S
C1511 C1512 1.387 . S
C1512 H1497 0.930 . S
C1512 C1507 1.390 . S
C1512 C1511 1.387 . S
H1513 C1525 0.930 . S
H1514 C1527 0.930 . S
H1515 C1528 0.930 . S
H1516 C1532 0.959 . S
H1517 C1532 0.959 . S
H1518 C1532 0.961 . S
H1519 C1533 0.960 . S
H1520 C1533 0.961 . S
H1521 C1533 0.959 . S
H1522 C1536 0.929 . S
H1523 C1537 0.931 . S
H1524 C1539 0.930 . S
C1525 H1513 0.930 . S
C1525 C1526 1.399 . S
C1525 C1530 1.399 . S
C1526 C1525 1.399 . S
C1526 C1527 1.376 . S
C1527 H1514 0.930 . S
C1527 C1526 1.376 . S
C1527 C1528 1.388 . S
C1528 H1515 0.930 . S
C1528 C1527 1.388 . S
C1528 C1529 1.390 . S
C1529 C1528 1.390 . S
C1529 C1530 1.394 . S
C1529 C1535 1.465 . S
C1530 C1525 1.399 . S
C1530 C1529 1.394 . S
C1530 C1531 1.516 . S
C1531 C1530 1.516 . S
C1531 C1532 1.502 . S
C1531 C1533 1.561 . S
C1531 C1534 1.526 . S
C1532 H1516 0.959 . S
C1532 H1517 0.959 . S
C1532 H1518 0.961 . S
C1532 C1531 1.502 . S
C1533 H1519 0.960 . S
C1533 H1520 0.961 . S
C1533 H1521 0.959 . S
C1533 C1531 1.561 . S
C1534 C1531 1.526 . S
C1534 C1535 1.396 . S
C1534 C1539 1.390 . S
C1535 C1529 1.465 . S
C1535 C1534 1.396 . S
C1535 C1536 1.399 . S
C1536 H1522 0.929 . S
C1536 C1535 1.399 . S
C1536 C1537 1.385 . S
C1537 H1523 0.931 . S
C1537 C1536 1.385 . S
C1537 C1538 1.389 . S
C1538 C1537 1.389 . S
C1538 C1539 1.387 . S
C1539 H1524 0.930 . S
C1539 C1534 1.390 . S
C1539 C1538 1.387 . S
H1540 C1552 0.930 . S
H1541 C1554 0.930 . S
H1542 C1555 0.930 1_655 S
H1543 C1559 0.959 . S
H1544 C1559 0.959 . S
H1545 C1559 0.961 . S
H1546 C1560 0.960 . S
H1547 C1560 0.961 . S
H1548 C1560 0.959 . S
H1549 C1563 0.929 . S
H1550 C1564 0.931 . S
H1551 C1566 0.930 . S
C1552 H1540 0.930 . S
C1552 C1553 1.399 . S
C1552 C1557 1.399 . S
C1553 C1552 1.399 . S
C1553 C1554 1.376 . S
C1554 H1541 0.930 . S
C1554 C1553 1.376 . S
C1554 C1555 1.388 . S
C1555 H1542 0.930 1_455 S
C1555 C1554 1.388 . S
C1555 C1556 1.390 . S
C1556 C1555 1.390 . S
C1556 C1557 1.394 . S
C1556 C1562 1.465 1_455 S
C1557 C1552 1.399 . S
C1557 C1556 1.394 . S
C1557 C1558 1.516 . S
C1558 C1557 1.516 . S
C1558 C1559 1.502 . S
C1558 C1560 1.561 . S
C1558 C1561 1.526 1_455 S
C1559 H1543 0.959 . S
C1559 H1544 0.959 . S
C1559 H1545 0.961 . S
C1559 C1558 1.502 . S
C1560 H1546 0.960 . S
C1560 H1547 0.961 . S
C1560 H1548 0.959 . S
C1560 C1558 1.561 . S
C1561 C1558 1.526 1_655 S
C1561 C1562 1.396 . S
C1561 C1566 1.390 . S
C1562 C1556 1.465 1_655 S
C1562 C1561 1.396 . S
C1562 C1563 1.399 . S
C1563 H1549 0.929 . S
C1563 C1562 1.399 . S
C1563 C1564 1.385 . S
C1564 H1550 0.931 . S
C1564 C1563 1.385 . S
C1564 C1565 1.389 . S
C1565 C1564 1.389 . S
C1565 C1566 1.387 . S
C1566 H1551 0.930 . S
C1566 C1561 1.390 . S
C1566 C1565 1.387 . S
H1567 C1579 0.930 . S
H1568 C1581 0.930 . S
H1569 C1582 0.930 . S
H1570 C1586 0.959 . S
H1571 C1586 0.959 . S
H1572 C1586 0.961 . S
H1573 C1587 0.960 . S
H1574 C1587 0.961 . S
H1575 C1587 0.959 . S
H1576 C1590 0.929 . S
H1577 C1591 0.931 . S
H1578 C1593 0.930 . S
C1579 H1567 0.930 . S
C1579 C1580 1.399 . S
C1579 C1584 1.399 . S
C1580 C1579 1.399 . S
C1580 C1581 1.376 . S
C1581 H1568 0.930 . S
C1581 C1580 1.376 . S
C1581 C1582 1.388 . S
C1582 H1569 0.930 . S
C1582 C1581 1.388 . S
C1582 C1583 1.390 . S
C1583 C1582 1.390 . S
C1583 C1584 1.394 . S
C1583 C1589 1.465 1_655 S
C1584 C1579 1.399 . S
C1584 C1583 1.394 . S
C1584 C1585 1.516 1_655 S
C1585 C1584 1.516 1_455 S
C1585 C1586 1.502 . S
C1585 C1587 1.561 1_455 S
C1585 C1588 1.526 . S
C1586 H1570 0.959 . S
C1586 H1571 0.959 . S
C1586 H1572 0.961 . S
C1586 C1585 1.502 . S
C1587 H1573 0.960 . S
C1587 H1574 0.961 . S
C1587 H1575 0.959 . S
C1587 C1585 1.561 1_655 S
C1588 C1585 1.526 . S
C1588 C1589 1.396 . S
C1588 C1593 1.390 . S
C1589 C1583 1.465 1_455 S
C1589 C1588 1.396 . S
C1589 C1590 1.399 . S
C1590 H1576 0.929 . S
C1590 C1589 1.399 . S
C1590 C1591 1.385 . S
C1591 H1577 0.931 . S
C1591 C1590 1.385 . S
C1591 C1592 1.389 . S
C1592 C1591 1.389 . S
C1592 C1593 1.387 . S
C1593 H1578 0.930 . S
C1593 C1588 1.390 . S
C1593 C1592 1.387 . S
H1594 C1606 0.930 . S
H1595 C1608 0.930 . S
H1596 C1609 0.930 . S
H1597 C1613 0.959 . S
H1598 C1613 0.959 . S
H1599 C1613 0.961 . S
H1600 C1614 0.960 . S
H1601 C1614 0.961 . S
H1602 C1614 0.959 . S
H1603 C1617 0.929 . S
H1604 C1618 0.931 . S
H1605 C1620 0.930 . S
C1606 H1594 0.930 . S
C1606 C1607 1.399 . S
C1606 C1611 1.399 . S
C1607 C1606 1.399 . S
C1607 C1608 1.376 . S
C1608 H1595 0.930 . S
C1608 C1607 1.376 . S
C1608 C1609 1.388 . S
C1609 H1596 0.930 . S
C1609 C1608 1.388 . S
C1609 C1610 1.390 . S
C1610 C1609 1.390 . S
C1610 C1611 1.394 . S
C1610 C1616 1.465 . S
C1611 C1606 1.399 . S
C1611 C1610 1.394 . S
C1611 C1612 1.516 . S
C1612 C1611 1.516 . S
C1612 C1613 1.502 . S
C1612 C1614 1.561 . S
C1612 C1615 1.526 . S
C1613 H1597 0.959 . S
C1613 H1598 0.959 . S
C1613 H1599 0.961 . S
C1613 C1612 1.502 . S
C1614 H1600 0.960 . S
C1614 H1601 0.961 . S
C1614 H1602 0.959 . S
C1614 C1612 1.561 . S
C1615 C1612 1.526 . S
C1615 C1616 1.396 . S
C1615 C1620 1.390 . S
C1616 C1610 1.465 . S
C1616 C1615 1.396 . S
C1616 C1617 1.399 . S
C1617 H1603 0.929 . S
C1617 C1616 1.399 . S
C1617 C1618 1.385 . S
C1618 H1604 0.931 . S
C1618 C1617 1.385 . S
C1618 C1619 1.389 . S
C1619 C1618 1.389 . S
C1619 C1620 1.387 . S
C1620 H1605 0.930 . S
C1620 C1615 1.390 . S
C1620 C1619 1.387 . S
H1621 C1633 0.930 . S
H1622 C1635 0.930 . S
H1623 C1636 0.930 . S
H1624 C1640 0.959 . S
H1625 C1640 0.959 . S
H1626 C1640 0.961 . S
H1627 C1641 0.960 . S
H1628 C1641 0.961 . S
H1629 C1641 0.959 . S
H1630 C1644 0.929 . S
H1631 C1645 0.931 . S
H1632 C1647 0.930 . S
C1633 H1621 0.930 . S
C1633 C1634 1.399 . S
C1633 C1638 1.399 . S
C1634 C1633 1.399 . S
C1634 C1635 1.376 . S
C1635 H1622 0.930 . S
C1635 C1634 1.376 . S
C1635 C1636 1.388 . S
C1636 H1623 0.930 . S
C1636 C1635 1.388 . S
C1636 C1637 1.390 . S
C1637 C1636 1.390 . S
C1637 C1638 1.394 . S
C1637 C1643 1.465 . S
C1638 C1633 1.399 . S
C1638 C1637 1.394 . S
C1638 C1639 1.516 . S
C1639 C1638 1.516 . S
C1639 C1640 1.502 . S
C1639 C1641 1.561 . S
C1639 C1642 1.526 . S
C1640 H1624 0.959 . S
C1640 H1625 0.959 . S
C1640 H1626 0.961 . S
C1640 C1639 1.502 . S
C1641 H1627 0.960 . S
C1641 H1628 0.961 . S
C1641 H1629 0.959 . S
C1641 C1639 1.561 . S
C1642 C1639 1.526 . S
C1642 C1643 1.396 . S
C1642 C1647 1.390 . S
C1643 C1637 1.465 . S
C1643 C1642 1.396 . S
C1643 C1644 1.399 . S
C1644 H1630 0.929 . S
C1644 C1643 1.399 . S
C1644 C1645 1.385 . S
C1645 H1631 0.931 . S
C1645 C1644 1.385 . S
C1645 C1646 1.389 . S
C1646 C1645 1.389 . S
C1646 C1647 1.387 . S
C1647 H1632 0.930 . S
C1647 C1642 1.390 . S
C1647 C1646 1.387 . S
C365 C15 1.422 . S
C377 C140 1.352 . S
C392 C348 1.355 . S
C404 C29 1.423 . S
C419 C51 1.422 . S
C431 C98 1.353 . S
C446 C304 1.422 . S
C458 C73 1.443 . S
C473 C52 1.387 . S
C485 C109 1.424 . S
C500 C250 1.366 . S
C512 C125 1.436 . S
C527 C139 1.437 . S
C539 C18 1.426 . S
C554 C169 1.443 . S
C566 C216 1.410 . S
C581 C183 1.423 . S
C593 C316 1.362 . S
C608 C213 1.429 . S
C620 C172 1.365 . S
C635 C274 1.412 . S
C647 C227 1.436 . S
C662 C128 1.357 . S
C674 C249 1.423 . S
C689 C228 1.363 . S
C701 C285 1.434 . S
C716 C301 1.422 . S
C728 C74 1.370 . S
C743 C184 1.386 . S
C755 C315 1.424 . S
C770 C30 1.425 . S
C782 C345 1.436 . S
C797 C21 0.355 . S
C809 C271 0.598 . S
C824 C37 0.334 . S
C836 C131 0.597 . S
C851 C59 0.338 . S
C863 C323 0.599 . S
C878 C175 0.416 . S
C890 C81 0.588 . S
C905 C95 0.459 . S
C917 C191 0.546 . S
C932 C235 0.345 . S
C944 C147 0.599 . S
C959 C219 0.348 . S
C971 C307 0.595 . S
C986 C351 0.398 . S
C998 C257 0.529 . S
C1013 C10 1.393 . S
C1025 C43 1.473 . S
C1040 C65 1.453 . S
C1052 C40 1.402 . S
C1067 C62 1.393 . S
C1079 C87 1.471 . S
C1094 C84 1.435 . S
C1106 C7 1.418 . S
C1121 C117 1.478 . S
C1133 C96 1.396 . S
C1148 C153 1.419 . S
C1160 C120 1.457 . S
C1175 C161 1.401 . S
C1187 C150 1.474 . S
C1202 C103 1.446 . S
C1214 C164 1.427 . S
C1229 C194 1.476 . S
C1241 C205 1.407 . S
C1256 C208 1.471 . S
C1268 C241 1.422 . S
C1283 C263 1.422 . S
C1295 C238 1.430 . S
C1310 C260 1.416 . S
C1322 C197 1.474 . S
C1337 C293 1.401 . S
C1349 C272 1.473 . S
C1364 C296 1.394 . S
C1376 C329 1.477 . S
C1391 C326 1.400 . S
C1403 C337 1.471 . S
C1418 C279 1.443 . S
C1430 C340 1.431 . S
C1445 C8 1.552 . S
C1457 C230 1.550 . S
C1472 C32 1.542 . S
C1484 C252 1.540 . S
C1499 C54 1.554 . S
C1511 C186 1.553 . S
C1526 C206 1.501 . S
C1538 C76 1.504 . S
C1553 C318 1.557 . S
C1565 C106 1.544 . S
C1580 C118 1.497 . S
C1592 C338 1.487 . S
C1607 C142 1.506 . S
C1619 C282 1.489 . S
C1634 C294 1.551 . S
C1646 C162 1.530 . S
