# Generated by pormake.
# Topology uoh, (4)-cn, num edge types: 1
# Building blocks:
#     Node 0, Type 0, BuildingBlock: ICAMEG_clean_sbu_1, # of connection points: 4
#     Node 1, Type 0, BuildingBlock: ICAMEG_clean_sbu_1, # of connection points: 4
#     Node 2, Type 0, BuildingBlock: ICAMEG_clean_sbu_1, # of connection points: 4
#     Node 3, Type 0, BuildingBlock: ICAMEG_clean_sbu_1, # of connection points: 4
#     Node 4, Type 0, BuildingBlock: ICAMEG_clean_sbu_1, # of connection points: 4
#     Node 5, Type 0, BuildingBlock: ICAMEG_clean_sbu_1, # of connection points: 4
#     Node 6, Type 0, BuildingBlock: ICAMEG_clean_sbu_1, # of connection points: 4
#     Node 7, Type 0, BuildingBlock: ICAMEG_clean_sbu_1, # of connection points: 4
#     Node 8, Type 0, BuildingBlock: ICAMEG_clean_sbu_1, # of connection points: 4
#     Node 9, Type 0, BuildingBlock: ICAMEG_clean_sbu_1, # of connection points: 4
#     Node 10, Type 0, BuildingBlock: ICAMEG_clean_sbu_1, # of connection points: 4
#     Node 11, Type 0, BuildingBlock: ICAMEG_clean_sbu_1, # of connection points: 4
#     Node 12, Type 0, BuildingBlock: ICAMEG_clean_sbu_1, # of connection points: 4
#     Node 13, Type 0, BuildingBlock: ICAMEG_clean_sbu_1, # of connection points: 4
#     Node 14, Type 0, BuildingBlock: ICAMEG_clean_sbu_1, # of connection points: 4
#     Node 15, Type 0, BuildingBlock: ICAMEG_clean_sbu_1, # of connection points: 4
#     Node 16, Type 0, BuildingBlock: ICAMEG_clean_sbu_1, # of connection points: 4
#     Node 17, Type 0, BuildingBlock: ICAMEG_clean_sbu_1, # of connection points: 4
#     Node 18, Type 0, BuildingBlock: ICAMEG_clean_sbu_1, # of connection points: 4
#     Node 19, Type 0, BuildingBlock: ICAMEG_clean_sbu_1, # of connection points: 4
#     Node 20, Type 0, BuildingBlock: ICAMEG_clean_sbu_1, # of connection points: 4
#     Node 21, Type 0, BuildingBlock: ICAMEG_clean_sbu_1, # of connection points: 4
#     Node 22, Type 0, BuildingBlock: ICAMEG_clean_sbu_1, # of connection points: 4
#     Node 23, Type 0, BuildingBlock: ICAMEG_clean_sbu_1, # of connection points: 4
#     Node 24, Type 0, BuildingBlock: ICAMEG_clean_sbu_1, # of connection points: 4
#     Node 25, Type 0, BuildingBlock: ICAMEG_clean_sbu_1, # of connection points: 4
#     Node 26, Type 0, BuildingBlock: ICAMEG_clean_sbu_1, # of connection points: 4
#     Node 27, Type 0, BuildingBlock: ICAMEG_clean_sbu_1, # of connection points: 4
#     Node 28, Type 0, BuildingBlock: ICAMEG_clean_sbu_1, # of connection points: 4
#     Node 29, Type 0, BuildingBlock: ICAMEG_clean_sbu_1, # of connection points: 4
#     Node 30, Type 0, BuildingBlock: ICAMEG_clean_sbu_1, # of connection points: 4
#     Node 31, Type 0, BuildingBlock: ICAMEG_clean_sbu_1, # of connection points: 4
#     Node 32, Type 0, BuildingBlock: ICAMEG_clean_sbu_1, # of connection points: 4
#     Node 33, Type 0, BuildingBlock: ICAMEG_clean_sbu_1, # of connection points: 4
#     Node 34, Type 0, BuildingBlock: ICAMEG_clean_sbu_1, # of connection points: 4
#     Node 35, Type 0, BuildingBlock: ICAMEG_clean_sbu_1, # of connection points: 4
#     Edge 36, Type (0, 0), BuildingBlock: XIVTED_clean_linker_0, # of connection points: 2
#     Edge 37, Type (0, 0), BuildingBlock: XIVTED_clean_linker_0, # of connection points: 2
#     Edge 38, Type (0, 0), BuildingBlock: XIVTED_clean_linker_0, # of connection points: 2
#     Edge 39, Type (0, 0), BuildingBlock: XIVTED_clean_linker_0, # of connection points: 2
#     Edge 40, Type (0, 0), BuildingBlock: XIVTED_clean_linker_0, # of connection points: 2
#     Edge 41, Type (0, 0), BuildingBlock: XIVTED_clean_linker_0, # of connection points: 2
#     Edge 42, Type (0, 0), BuildingBlock: XIVTED_clean_linker_0, # of connection points: 2
#     Edge 43, Type (0, 0), BuildingBlock: XIVTED_clean_linker_0, # of connection points: 2
#     Edge 44, Type (0, 0), BuildingBlock: XIVTED_clean_linker_0, # of connection points: 2
#     Edge 45, Type (0, 0), BuildingBlock: XIVTED_clean_linker_0, # of connection points: 2
#     Edge 46, Type (0, 0), BuildingBlock: XIVTED_clean_linker_0, # of connection points: 2
#     Edge 47, Type (0, 0), BuildingBlock: XIVTED_clean_linker_0, # of connection points: 2
#     Edge 48, Type (0, 0), BuildingBlock: XIVTED_clean_linker_0, # of connection points: 2
#     Edge 49, Type (0, 0), BuildingBlock: XIVTED_clean_linker_0, # of connection points: 2
#     Edge 50, Type (0, 0), BuildingBlock: XIVTED_clean_linker_0, # of connection points: 2
#     Edge 51, Type (0, 0), BuildingBlock: XIVTED_clean_linker_0, # of connection points: 2
#     Edge 52, Type (0, 0), BuildingBlock: XIVTED_clean_linker_0, # of connection points: 2
#     Edge 53, Type (0, 0), BuildingBlock: XIVTED_clean_linker_0, # of connection points: 2
#     Edge 54, Type (0, 0), BuildingBlock: XIVTED_clean_linker_0, # of connection points: 2
#     Edge 55, Type (0, 0), BuildingBlock: XIVTED_clean_linker_0, # of connection points: 2
#     Edge 56, Type (0, 0), BuildingBlock: XIVTED_clean_linker_0, # of connection points: 2
#     Edge 57, Type (0, 0), BuildingBlock: XIVTED_clean_linker_0, # of connection points: 2
#     Edge 58, Type (0, 0), BuildingBlock: XIVTED_clean_linker_0, # of connection points: 2
#     Edge 59, Type (0, 0), BuildingBlock: XIVTED_clean_linker_0, # of connection points: 2
#     Edge 60, Type (0, 0), BuildingBlock: XIVTED_clean_linker_0, # of connection points: 2
#     Edge 61, Type (0, 0), BuildingBlock: XIVTED_clean_linker_0, # of connection points: 2
#     Edge 62, Type (0, 0), BuildingBlock: XIVTED_clean_linker_0, # of connection points: 2
#     Edge 63, Type (0, 0), BuildingBlock: XIVTED_clean_linker_0, # of connection points: 2
#     Edge 64, Type (0, 0), BuildingBlock: XIVTED_clean_linker_0, # of connection points: 2
#     Edge 65, Type (0, 0), BuildingBlock: XIVTED_clean_linker_0, # of connection points: 2
#     Edge 66, Type (0, 0), BuildingBlock: XIVTED_clean_linker_0, # of connection points: 2
#     Edge 67, Type (0, 0), BuildingBlock: XIVTED_clean_linker_0, # of connection points: 2
#     Edge 68, Type (0, 0), BuildingBlock: XIVTED_clean_linker_0, # of connection points: 2
#     Edge 69, Type (0, 0), BuildingBlock: XIVTED_clean_linker_0, # of connection points: 2
#     Edge 70, Type (0, 0), BuildingBlock: XIVTED_clean_linker_0, # of connection points: 2
#     Edge 71, Type (0, 0), BuildingBlock: XIVTED_clean_linker_0, # of connection points: 2
#     Edge 72, Type (0, 0), BuildingBlock: XIVTED_clean_linker_0, # of connection points: 2
#     Edge 73, Type (0, 0), BuildingBlock: XIVTED_clean_linker_0, # of connection points: 2
#     Edge 74, Type (0, 0), BuildingBlock: XIVTED_clean_linker_0, # of connection points: 2
#     Edge 75, Type (0, 0), BuildingBlock: XIVTED_clean_linker_0, # of connection points: 2
#     Edge 76, Type (0, 0), BuildingBlock: XIVTED_clean_linker_0, # of connection points: 2
#     Edge 77, Type (0, 0), BuildingBlock: XIVTED_clean_linker_0, # of connection points: 2
#     Edge 78, Type (0, 0), BuildingBlock: XIVTED_clean_linker_0, # of connection points: 2
#     Edge 79, Type (0, 0), BuildingBlock: XIVTED_clean_linker_0, # of connection points: 2
#     Edge 80, Type (0, 0), BuildingBlock: XIVTED_clean_linker_0, # of connection points: 2
#     Edge 81, Type (0, 0), BuildingBlock: XIVTED_clean_linker_0, # of connection points: 2
#     Edge 82, Type (0, 0), BuildingBlock: XIVTED_clean_linker_0, # of connection points: 2
#     Edge 83, Type (0, 0), BuildingBlock: XIVTED_clean_linker_0, # of connection points: 2
#     Edge 84, Type (0, 0), BuildingBlock: XIVTED_clean_linker_0, # of connection points: 2
#     Edge 85, Type (0, 0), BuildingBlock: XIVTED_clean_linker_0, # of connection points: 2
#     Edge 86, Type (0, 0), BuildingBlock: XIVTED_clean_linker_0, # of connection points: 2
#     Edge 87, Type (0, 0), BuildingBlock: XIVTED_clean_linker_0, # of connection points: 2
#     Edge 88, Type (0, 0), BuildingBlock: XIVTED_clean_linker_0, # of connection points: 2
#     Edge 89, Type (0, 0), BuildingBlock: XIVTED_clean_linker_0, # of connection points: 2
#     Edge 90, Type (0, 0), BuildingBlock: XIVTED_clean_linker_0, # of connection points: 2
#     Edge 91, Type (0, 0), BuildingBlock: XIVTED_clean_linker_0, # of connection points: 2
#     Edge 92, Type (0, 0), BuildingBlock: XIVTED_clean_linker_0, # of connection points: 2
#     Edge 93, Type (0, 0), BuildingBlock: XIVTED_clean_linker_0, # of connection points: 2
#     Edge 94, Type (0, 0), BuildingBlock: XIVTED_clean_linker_0, # of connection points: 2
#     Edge 95, Type (0, 0), BuildingBlock: XIVTED_clean_linker_0, # of connection points: 2
#     Edge 96, Type (0, 0), BuildingBlock: XIVTED_clean_linker_0, # of connection points: 2
#     Edge 97, Type (0, 0), BuildingBlock: XIVTED_clean_linker_0, # of connection points: 2
#     Edge 98, Type (0, 0), BuildingBlock: XIVTED_clean_linker_0, # of connection points: 2
#     Edge 99, Type (0, 0), BuildingBlock: XIVTED_clean_linker_0, # of connection points: 2
#     Edge 100, Type (0, 0), BuildingBlock: XIVTED_clean_linker_0, # of connection points: 2
#     Edge 101, Type (0, 0), BuildingBlock: XIVTED_clean_linker_0, # of connection points: 2
#     Edge 102, Type (0, 0), BuildingBlock: XIVTED_clean_linker_0, # of connection points: 2
#     Edge 103, Type (0, 0), BuildingBlock: XIVTED_clean_linker_0, # of connection points: 2
#     Edge 104, Type (0, 0), BuildingBlock: XIVTED_clean_linker_0, # of connection points: 2
#     Edge 105, Type (0, 0), BuildingBlock: XIVTED_clean_linker_0, # of connection points: 2
#     Edge 106, Type (0, 0), BuildingBlock: XIVTED_clean_linker_0, # of connection points: 2
#     Edge 107, Type (0, 0), BuildingBlock: XIVTED_clean_linker_0, # of connection points: 2
# Relax obj value: 0.038
# Max RMSD: 0.079
# Mean RMSD: 0.079
data_MOF--net-uoh--node1-ICAMEG_clean_sbu_1--edge1-XIVTED_clean_linker_0
_symmetry_space_group_name_H-M    P1
_symmetry_Int_Tables_number       1
_symmetry_cell_setting            triclinic
loop_
_symmetry_equiv_pos_as_xyz
'x, y, z'
_cell_length_a     95.159214
_cell_length_b     95.156973
_cell_length_c     30.320284
_cell_angle_alpha  90.000328
_cell_angle_beta   89.998216
_cell_angle_gamma 120.00244
loop_
_atom_site_label
_atom_site_type_symbol
_atom_site_fract_x
_atom_site_fract_y
_atom_site_fract_z
_atom_type_partial_charge
Co0 Co 0.24289 0.12663 0.2164 0.0
Co1 Co 0.25351 0.16617 0.19326 0.0
O2 O 0.24193 0.14635 0.22852 0.0
C3 C 0.25193 0.13328 0.30966 0.0
O4 O 0.26165 0.14846 0.29843 0.0
C5 C 0.2197 0.16066 0.20032 0.0
O6 O 0.21367 0.14493 0.19681 0.0
O7 O 0.24397 0.1538 0.1378 0.0
O8 O 0.24255 0.12996 0.15193 0.0
H9 H 0.28748 0.19984 0.06598 0.0
H10 H 0.21776 0.12474 0.27783 0.0
O11 O 0.24337 0.12281 0.28075 0.0
H12 H 0.18755 0.08718 0.15641 0.0
H13 H 0.22815 0.06855 0.24192 0.0
H14 H 0.26099 0.11778 0.15315 0.0
H15 H 0.21747 0.1024 0.15629 0.0
H16 H 0.22691 0.09345 0.25572 0.0
O17 O 0.23496 0.1703 0.19923 0.0
H18 H 0.2731 0.17509 0.11125 0.0
H19 H 0.25804 0.19949 0.2002 0.0
H20 H 0.26251 0.09311 0.13803 0.0
H21 H 0.18784 0.10961 0.27954 0.0
H22 H 0.24601 0.06826 0.18259 0.0
H23 H 0.17253 0.09071 0.21843 0.0
O24 O 0.26706 0.13907 0.21529 0.0
H25 H 0.25176 0.18206 0.35035 0.0
H26 H 0.28703 0.19055 0.22215 0.0
H27 H 0.29912 0.20528 0.29137 0.0
H28 H 0.28143 0.20109 0.35608 0.0
H29 H 0.2402 0.16746 0.28062 0.0
H30 H 0.27216 0.22447 0.15569 0.0
H31 H 0.28708 0.22476 0.08813 0.0
O32 O 0.27257 0.16297 0.18629 0.0
C33 C 0.24204 0.14011 0.12556 0.0
C34 C 0.28106 0.19987 0.0954 0.0
C35 C 0.27245 0.21369 0.14573 0.0
N36 N 0.26482 0.18586 0.15847 0.0
C37 C 0.27292 0.1859 0.12123 0.0
C38 C 0.26444 0.19949 0.17074 0.0
C39 C 0.28082 0.21385 0.10783 0.0
C40 C 0.21119 0.11641 0.25136 0.0
N41 N 0.21936 0.11442 0.21708 0.0
C42 C 0.19424 0.10793 0.2524 0.0
C43 C 0.18566 0.09736 0.21806 0.0
C44 C 0.19408 0.09538 0.18323 0.0
C45 C 0.21103 0.10408 0.18326 0.0
C46 C 0.23537 0.07929 0.22222 0.0
C47 C 0.2537 0.10699 0.17251 0.0
C48 C 0.23474 0.09343 0.22992 0.0
N49 N 0.24377 0.10701 0.20501 0.0
C50 C 0.25465 0.09307 0.16387 0.0
C51 C 0.24539 0.07913 0.18891 0.0
C52 C 0.27685 0.15284 0.19842 0.0
C53 C 0.25958 0.18403 0.32233 0.0
C54 C 0.27926 0.18862 0.25019 0.0
C55 C 0.28617 0.19702 0.28927 0.0
C56 C 0.27624 0.19468 0.32555 0.0
N57 N 0.26291 0.1782 0.24726 0.0
C58 C 0.2531 0.17586 0.28269 0.0
Co59 Co 0.87374 0.11631 0.21316 0.0
Co60 Co 0.83395 0.08773 0.19177 0.0
O61 O 0.85402 0.09565 0.22581 0.0
C62 C 0.86825 0.11831 0.30755 0.0
O63 O 0.85293 0.1129 0.29801 0.0
C64 C 0.83873 0.05891 0.19805 0.0
O65 O 0.8545 0.06829 0.19454 0.0
O66 O 0.84587 0.0904 0.13553 0.0
O67 O 0.86967 0.11295 0.1488 0.0
H68 H 0.79973 0.08881 0.06702 0.0
H69 H 0.87611 0.0927 0.27201 0.0
O70 O 0.87832 0.12031 0.27734 0.0
H71 H 0.91215 0.10027 0.14638 0.0
H72 H 0.93223 0.15918 0.23521 0.0
H73 H 0.88209 0.14361 0.1516 0.0
H74 H 0.89712 0.11514 0.1497 0.0
H75 H 0.90736 0.13307 0.24967 0.0
O76 O 0.82939 0.06489 0.19711 0.0
H77 H 0.82476 0.09874 0.11085 0.0
H78 H 0.80043 0.05936 0.20008 0.0
H79 H 0.90671 0.16978 0.13587 0.0
H80 H 0.89109 0.07775 0.2703 0.0
H81 H 0.93202 0.1777 0.17782 0.0
H82 H 0.90922 0.08145 0.20705 0.0
O83 O 0.86146 0.1282 0.21491 0.0
H84 H 0.81894 0.07005 0.3492 0.0
H85 H 0.81023 0.09744 0.22288 0.0
H86 H 0.79606 0.09497 0.29303 0.0
H87 H 0.80036 0.08116 0.3568 0.0
H88 H 0.833 0.07294 0.27858 0.0
H89 H 0.77517 0.04894 0.15702 0.0
H90 H 0.7747 0.06373 0.09005 0.0
O91 O 0.83752 0.11016 0.18547 0.0
C92 C 0.85937 0.1023 0.12271 0.0
C93 C 0.79977 0.08227 0.0962 0.0
C94 C 0.786 0.05989 0.14668 0.0
N95 N 0.81404 0.07969 0.15812 0.0
C96 C 0.8139 0.08786 0.1212 0.0
C97 C 0.80035 0.06583 0.17086 0.0
C98 C 0.78574 0.0682 0.10912 0.0
C99 C 0.88411 0.0945 0.24462 0.0
N100 N 0.88577 0.10481 0.21107 0.0
C101 C 0.8925 0.08595 0.24372 0.0
C102 C 0.90265 0.08801 0.20819 0.0
C103 C 0.90428 0.09855 0.1741 0.0
C104 C 0.89569 0.10689 0.17609 0.0
C105 C 0.92129 0.15584 0.21663 0.0
C106 C 0.89308 0.14693 0.16982 0.0
C107 C 0.90716 0.14109 0.22472 0.0
N108 N 0.89332 0.13676 0.20122 0.0
C109 C 0.90697 0.16178 0.16085 0.0
C110 C 0.92116 0.16623 0.18443 0.0
C111 C 0.84771 0.12445 0.19831 0.0
C112 C 0.81693 0.07604 0.3216 0.0
C113 C 0.81222 0.09148 0.25051 0.0
C114 C 0.80412 0.09007 0.29012 0.0
C115 C 0.80653 0.08231 0.32587 0.0
N116 N 0.82239 0.08529 0.24656 0.0
C117 C 0.82479 0.07765 0.28146 0.0
Co118 Co 0.88432 0.76039 0.21166 0.0
Co119 Co 0.91286 0.74918 0.19127 0.0
O120 O 0.90427 0.76034 0.22665 0.0
C121 C 0.87952 0.7494 0.30354 0.0
O122 O 0.88425 0.73919 0.29124 0.0
C123 C 0.94193 0.78216 0.20407 0.0
O124 O 0.93367 0.78902 0.19065 0.0
O125 O 0.91229 0.76075 0.13705 0.0
O126 O 0.88947 0.76179 0.14769 0.0
H127 H 0.91538 0.71842 0.05964 0.0
H128 H 0.90702 0.78394 0.27714 0.0
O129 O 0.8787 0.75891 0.27556 0.0
H130 H 0.90321 0.81717 0.15802 0.0
H131 H 0.84179 0.7765 0.23277 0.0
H132 H 0.8588 0.74428 0.14345 0.0
H133 H 0.88754 0.78728 0.15413 0.0
H134 H 0.86711 0.77648 0.25007 0.0
O135 O 0.93541 0.76678 0.2048 0.0
H136 H 0.90434 0.73215 0.10508 0.0
H137 H 0.94059 0.74317 0.20215 0.0
H138 H 0.83347 0.74406 0.12479 0.0
H139 H 0.9228 0.8138 0.28254 0.0
H140 H 0.82481 0.76026 0.16961 0.0
H141 H 0.92097 0.83061 0.22264 0.0
O142 O 0.87204 0.73625 0.20703 0.0
H143 H 0.9247 0.745 0.35076 0.0
H144 H 0.90153 0.71452 0.21304 0.0
H145 H 0.90119 0.69981 0.28034 0.0
H146 H 0.91286 0.71507 0.34984 0.0
H147 H 0.92464 0.7592 0.28283 0.0
H148 H 0.95208 0.72965 0.15762 0.0
H149 H 0.93942 0.7171 0.08588 0.0
O150 O 0.89059 0.73106 0.17754 0.0
C151 C 0.90084 0.76289 0.12305 0.0
C152 C 0.92098 0.72381 0.09089 0.0
C153 C 0.94159 0.73013 0.14585 0.0
N154 N 0.92175 0.73838 0.15633 0.0
C155 C 0.91476 0.73157 0.11681 0.0
C156 C 0.93505 0.7378 0.17087 0.0
C157 C 0.93448 0.72308 0.10561 0.0
C158 C 0.90605 0.79118 0.25113 0.0
N159 N 0.8963 0.78388 0.2155 0.0
C160 C 0.91507 0.80808 0.25429 0.0
C161 C 0.91405 0.81751 0.22063 0.0
C162 C 0.90409 0.80997 0.18436 0.0
C163 C 0.89528 0.79304 0.18229 0.0
C164 C 0.84545 0.76942 0.21294 0.0
C165 C 0.85517 0.75144 0.16296 0.0
C166 C 0.85976 0.76934 0.22263 0.0
N167 N 0.86449 0.76049 0.19756 0.0
C168 C 0.84079 0.75123 0.1523 0.0
C169 C 0.83593 0.76031 0.17749 0.0
C170 C 0.87603 0.72676 0.18827 0.0
C171 C 0.91963 0.73822 0.32065 0.0
C172 C 0.90657 0.72124 0.24317 0.0
C173 C 0.90639 0.71285 0.28116 0.0
C174 C 0.91295 0.72143 0.32013 0.0
N175 N 0.91314 0.73772 0.24393 0.0
C176 C 0.91962 0.74621 0.28201 0.0
Co177 Co 0.12673 0.24283 0.27692 0.0
Co178 Co 0.16624 0.2533 0.297 0.0
O179 O 0.14634 0.2421 0.26222 0.0
C180 C 0.13242 0.25221 0.18374 0.0
O181 O 0.14755 0.26231 0.19471 0.0
C182 C 0.16181 0.21999 0.28621 0.0
O183 O 0.1468 0.2133 0.30054 0.0
O184 O 0.15415 0.24232 0.35182 0.0
O185 O 0.1308 0.24232 0.34107 0.0
H186 H 0.20021 0.28478 0.4269 0.0
H187 H 0.12479 0.21793 0.2146 0.0
O188 O 0.12221 0.24339 0.2129 0.0
H189 H 0.08808 0.18728 0.33711 0.0
H190 H 0.06834 0.22788 0.25714 0.0
H191 H 0.11843 0.26057 0.34283 0.0
H192 H 0.10297 0.21721 0.33741 0.0
H193 H 0.09317 0.22686 0.2402 0.0
O194 O 0.17076 0.23535 0.28462 0.0
H195 H 0.17529 0.27105 0.38211 0.0
H196 H 0.19972 0.25858 0.28612 0.0
H197 H 0.09384 0.26186 0.3611 0.0
H198 H 0.11003 0.188 0.21279 0.0
H199 H 0.06856 0.24542 0.31811 0.0
H200 H 0.09154 0.17248 0.27441 0.0
O201 O 0.13916 0.26701 0.27854 0.0
H202 H 0.18172 0.25581 0.13748 0.0
H203 H 0.19004 0.28763 0.27313 0.0
H204 H 0.2044 0.30159 0.20505 0.0
H205 H 0.2003 0.28565 0.13659 0.0
H206 H 0.16746 0.24236 0.20614 0.0
H207 H 0.22489 0.27208 0.33004 0.0
H208 H 0.22525 0.28536 0.4009 0.0
O209 O 0.16258 0.27183 0.30936 0.0
C210 C 0.14086 0.24092 0.36588 0.0
C211 C 0.20022 0.27907 0.39603 0.0
C212 C 0.21406 0.27193 0.34169 0.0
N213 N 0.18606 0.2641 0.33141 0.0
C214 C 0.18615 0.27131 0.37047 0.0
C215 C 0.19976 0.26426 0.31702 0.0
C216 C 0.21426 0.27938 0.38144 0.0
C217 C 0.11666 0.21125 0.24135 0.0
N218 N 0.11467 0.2193 0.27593 0.0
C219 C 0.10838 0.19431 0.24022 0.0
C220 C 0.09803 0.18561 0.27484 0.0
C221 C 0.09609 0.19391 0.31004 0.0
C222 C 0.10458 0.21085 0.31008 0.0
C223 C 0.07927 0.23507 0.27617 0.0
C224 C 0.10745 0.25331 0.32413 0.0
C225 C 0.09337 0.23456 0.26668 0.0
N226 N 0.10719 0.24354 0.29075 0.0
C227 C 0.09357 0.25413 0.33455 0.0
C228 C 0.0794 0.24491 0.31039 0.0
C229 C 0.15271 0.27645 0.2971 0.0
C230 C 0.18365 0.26288 0.16713 0.0
C231 C 0.18812 0.28061 0.24345 0.0
C232 C 0.19633 0.28858 0.20502 0.0
C233 C 0.19404 0.27963 0.16663 0.0
N234 N 0.17794 0.26418 0.24369 0.0
C235 C 0.17566 0.25532 0.20618 0.0
Co236 Co 0.75862 0.88478 0.27867 0.0
Co237 Co 0.74704 0.91297 0.30002 0.0
O238 O 0.75868 0.90486 0.26473 0.0
C239 C 0.74907 0.88112 0.18561 0.0
O240 O 0.73878 0.88588 0.19676 0.0
C241 C 0.78009 0.9421 0.28964 0.0
O242 O 0.7868 0.93357 0.30188 0.0
O243 O 0.75806 0.91185 0.35476 0.0
O244 O 0.75914 0.88912 0.34289 0.0
H245 H 0.71479 0.91382 0.4302 0.0
H246 H 0.78303 0.90827 0.2162 0.0
O247 O 0.75806 0.87992 0.21457 0.0
H248 H 0.81465 0.90312 0.33757 0.0
H249 H 0.77518 0.84261 0.25675 0.0
H250 H 0.74156 0.8584 0.34411 0.0
H251 H 0.78474 0.88736 0.33839 0.0
H252 H 0.77537 0.86812 0.2408 0.0
O253 O 0.76472 0.9357 0.28879 0.0
H254 H 0.72911 0.90341 0.38483 0.0
H255 H 0.74094 0.94068 0.29044 0.0
H256 H 0.7411 0.83285 0.36139 0.0
H257 H 0.81293 0.92415 0.21386 0.0
H258 H 0.75801 0.82481 0.31755 0.0
H259 H 0.82894 0.92165 0.27492 0.0
O260 O 0.73446 0.87244 0.28066 0.0
H261 H 0.74458 0.9267 0.14117 0.0
H262 H 0.7126 0.90177 0.27575 0.0
H263 H 0.69863 0.90221 0.20773 0.0
H264 H 0.71465 0.91476 0.13981 0.0
H265 H 0.75805 0.92584 0.20976 0.0
H266 H 0.72684 0.95156 0.33495 0.0
H267 H 0.71359 0.93807 0.4053 0.0
O268 O 0.72882 0.89049 0.31142 0.0
C269 C 0.76005 0.90024 0.36819 0.0
C270 C 0.72049 0.91979 0.39955 0.0
C271 C 0.72727 0.94098 0.34612 0.0
N272 N 0.73578 0.92137 0.3349 0.0
C273 C 0.72859 0.91393 0.37367 0.0
C274 C 0.73527 0.93479 0.32112 0.0
C275 C 0.71983 0.9334 0.38558 0.0
C276 C 0.78992 0.90701 0.24268 0.0
N277 N 0.78215 0.89684 0.27726 0.0
C278 C 0.80684 0.91608 0.24127 0.0
C279 C 0.81582 0.91469 0.27557 0.0
C280 C 0.80781 0.9043 0.31075 0.0
C281 C 0.79087 0.89544 0.31109 0.0
C282 C 0.76779 0.846 0.27615 0.0
C283 C 0.74902 0.85503 0.32505 0.0
C284 C 0.76782 0.86042 0.26722 0.0
N285 N 0.75859 0.86481 0.29175 0.0
C286 C 0.74868 0.84053 0.33491 0.0
C287 C 0.75815 0.83602 0.31028 0.0
C288 C 0.72469 0.87612 0.29917 0.0
C289 C 0.73747 0.92124 0.17059 0.0
C290 C 0.71966 0.90719 0.2463 0.0
C291 C 0.71168 0.90745 0.20791 0.0
C292 C 0.72068 0.91451 0.16983 0.0
N293 N 0.73614 0.91381 0.2468 0.0
C294 C 0.74504 0.92078 0.2096 0.0
Co295 Co 0.11649 0.87304 0.27685 0.0
Co296 Co 0.08736 0.83336 0.29746 0.0
O297 O 0.09566 0.85357 0.2639 0.0
C298 C 0.11837 0.86744 0.1825 0.0
O299 O 0.11288 0.85214 0.19238 0.0
C300 C 0.059 0.83889 0.29195 0.0
O301 O 0.06866 0.85462 0.2958 0.0
O302 O 0.09022 0.84518 0.35396 0.0
O303 O 0.11296 0.86891 0.34122 0.0
H304 H 0.0876 0.79834 0.42119 0.0
H305 H 0.09324 0.87596 0.21779 0.0
O306 O 0.1206 0.87764 0.2126 0.0
H307 H 0.10125 0.91204 0.34366 0.0
H308 H 0.16011 0.93127 0.25539 0.0
H309 H 0.14354 0.88089 0.33888 0.0
H310 H 0.1157 0.89659 0.34037 0.0
H311 H 0.13383 0.90667 0.24049 0.0
O312 O 0.06468 0.82929 0.29227 0.0
H313 H 0.09798 0.82357 0.37801 0.0
H314 H 0.05855 0.80014 0.28855 0.0
H315 H 0.16987 0.90524 0.35507 0.0
H316 H 0.07871 0.89136 0.21947 0.0
H317 H 0.17831 0.93067 0.31317 0.0
H318 H 0.08264 0.90951 0.28284 0.0
O319 O 0.12804 0.86043 0.27525 0.0
H320 H 0.0697 0.81912 0.13975 0.0
H321 H 0.09646 0.80926 0.26561 0.0
H322 H 0.09379 0.79526 0.19505 0.0
H323 H 0.08031 0.80014 0.13151 0.0
H324 H 0.07276 0.83299 0.21078 0.0
H325 H 0.04767 0.7747 0.33096 0.0
H326 H 0.06227 0.77367 0.39771 0.0
O327 O 0.1096 0.83645 0.30368 0.0
C328 C 0.10218 0.85859 0.36708 0.0
C329 C 0.08115 0.79863 0.3921 0.0
C330 C 0.05873 0.78536 0.34149 0.0
N331 N 0.07894 0.81331 0.33065 0.0
C332 C 0.08699 0.81287 0.36746 0.0
C333 C 0.06493 0.79982 0.31767 0.0
C334 C 0.06693 0.78479 0.37893 0.0
C335 C 0.09514 0.88397 0.24524 0.0
N336 N 0.10534 0.88541 0.27886 0.0
C337 C 0.08683 0.8926 0.24611 0.0
C338 C 0.08901 0.90276 0.28171 0.0
C339 C 0.09944 0.90417 0.31588 0.0
C340 C 0.10754 0.89534 0.31391 0.0
C341 C 0.15656 0.92028 0.27394 0.0
C342 C 0.14709 0.89194 0.32068 0.0
C343 C 0.1417 0.9063 0.2656 0.0
N344 N 0.1371 0.8924 0.28906 0.0
C345 C 0.16203 0.90568 0.32992 0.0
C346 C 0.16676 0.91993 0.30637 0.0
C347 C 0.124 0.84653 0.2914 0.0
C348 C 0.07554 0.81685 0.16725 0.0
C349 C 0.09063 0.8115 0.23809 0.0
C350 C 0.08911 0.80349 0.19825 0.0
C351 C 0.08153 0.80622 0.16262 0.0
N352 N 0.08471 0.82189 0.24239 0.0
C353 C 0.07725 0.82461 0.20762 0.0
Co354 Co 0.76011 0.8754 0.77858 0.0
Co355 Co 0.74914 0.83566 0.7999 0.0
O356 O 0.76077 0.85559 0.76515 0.0
C357 C 0.75072 0.86919 0.68546 0.0
O358 O 0.74082 0.85404 0.69669 0.0
C359 C 0.78266 0.8405 0.79058 0.0
O360 O 0.78905 0.85626 0.79476 0.0
O361 O 0.75915 0.84775 0.8554 0.0
O362 O 0.7606 0.87171 0.8429 0.0
H363 H 0.71564 0.80181 0.92758 0.0
H364 H 0.7849 0.87724 0.71589 0.0
O365 O 0.75949 0.87955 0.71437 0.0
H366 H 0.8158 0.91404 0.838 0.0
H367 H 0.7755 0.93379 0.75581 0.0
H368 H 0.74251 0.88428 0.84344 0.0
H369 H 0.78587 0.89913 0.83879 0.0
H370 H 0.7763 0.90875 0.74036 0.0
O371 O 0.76736 0.83113 0.79213 0.0
H372 H 0.7301 0.8267 0.8829 0.0
H373 H 0.74389 0.80212 0.79091 0.0
H374 H 0.74143 0.90908 0.86021 0.0
H375 H 0.81482 0.89206 0.71351 0.0
H376 H 0.75801 0.93408 0.81624 0.0
H377 H 0.83047 0.91058 0.77496 0.0
O378 O 0.73593 0.86321 0.78035 0.0
H379 H 0.7496 0.82025 0.64161 0.0
H380 H 0.71529 0.81181 0.77201 0.0
H381 H 0.70262 0.79749 0.70274 0.0
H382 H 0.71982 0.80165 0.63692 0.0
H383 H 0.76175 0.83446 0.71142 0.0
H384 H 0.72968 0.77699 0.83478 0.0
H385 H 0.71537 0.77672 0.90357 0.0
O386 O 0.73038 0.83922 0.80869 0.0
C387 C 0.76115 0.86138 0.86853 0.0
C388 C 0.7218 0.80176 0.89762 0.0
C389 C 0.7297 0.78784 0.84556 0.0
N390 N 0.73777 0.81585 0.83422 0.0
C391 C 0.72999 0.81582 0.87213 0.0
C392 C 0.73776 0.80212 0.82092 0.0
C393 C 0.72167 0.78769 0.88415 0.0
C394 C 0.79162 0.88541 0.74253 0.0
N395 N 0.78365 0.88736 0.77735 0.0
C396 C 0.80856 0.89371 0.7411 0.0
C397 C 0.81734 0.90407 0.77562 0.0
C398 C 0.80911 0.906 0.81103 0.0
C399 C 0.79217 0.89749 0.81137 0.0
C400 C 0.76825 0.92299 0.77527 0.0
C401 C 0.74983 0.89513 0.82433 0.0
C402 C 0.76863 0.90877 0.76663 0.0
N403 N 0.75957 0.89511 0.79123 0.0
C404 C 0.74914 0.90913 0.8339 0.0
C405 C 0.75844 0.92314 0.80919 0.0
C406 C 0.72616 0.84947 0.79741 0.0
C407 C 0.74199 0.81829 0.67011 0.0
C408 C 0.72285 0.81374 0.74349 0.0
C409 C 0.71561 0.80556 0.70438 0.0
C410 C 0.72527 0.80788 0.66748 0.0
N411 N 0.73926 0.82392 0.74583 0.0
C412 C 0.74881 0.82624 0.70979 0.0
Co413 Co 0.12437 0.88263 0.77841 0.0
Co414 Co 0.16402 0.91147 0.79851 0.0
O415 O 0.14426 0.9026 0.76306 0.0
C416 C 0.13054 0.87751 0.6868 0.0
O417 O 0.14556 0.88248 0.6988 0.0
C418 C 0.15987 0.94039 0.78518 0.0
O419 O 0.14491 0.93228 0.79997 0.0
O420 O 0.15183 0.91098 0.85257 0.0
O421 O 0.12806 0.88805 0.84211 0.0
H422 H 0.19751 0.91482 0.93049 0.0
H423 H 0.12338 0.90502 0.71216 0.0
O424 O 0.12024 0.87673 0.7148 0.0
H425 H 0.086 0.90117 0.83034 0.0
H426 H 0.06586 0.8396 0.75789 0.0
H427 H 0.11518 0.85745 0.8475 0.0
H428 H 0.10043 0.88573 0.83516 0.0
H429 H 0.09106 0.86498 0.74004 0.0
O430 O 0.16873 0.93387 0.78411 0.0
H431 H 0.17271 0.90338 0.88507 0.0
H432 H 0.19761 0.93943 0.78727 0.0
H433 H 0.0902 0.83205 0.86672 0.0
H434 H 0.1091 0.92057 0.70582 0.0
H435 H 0.06531 0.82298 0.82175 0.0
H436 H 0.09028 0.91872 0.76525 0.0
O437 O 0.13641 0.87056 0.78365 0.0
H438 H 0.18003 0.92285 0.63889 0.0
H439 H 0.18763 0.90042 0.77761 0.0
H440 H 0.20212 0.90003 0.71063 0.0
H441 H 0.19839 0.91133 0.64063 0.0
H442 H 0.16564 0.92283 0.70651 0.0
H443 H 0.22264 0.95132 0.83178 0.0
H444 H 0.22271 0.93896 0.90388 0.0
O445 O 0.16009 0.88933 0.81294 0.0
C446 C 0.13822 0.89954 0.86656 0.0
C447 C 0.19764 0.92029 0.89908 0.0
C448 C 0.21174 0.94079 0.84371 0.0
N449 N 0.18373 0.92067 0.83345 0.0
C450 C 0.18365 0.91385 0.87317 0.0
C451 C 0.19751 0.93403 0.8187 0.0
C452 C 0.21177 0.93384 0.88415 0.0
C453 C 0.1151 0.90405 0.73798 0.0
N454 N 0.11267 0.89441 0.77386 0.0
C455 C 0.1071 0.91293 0.73428 0.0
C456 C 0.09656 0.9119 0.76767 0.0
C457 C 0.09416 0.90206 0.80421 0.0
C458 C 0.10239 0.89338 0.80681 0.0
C459 C 0.07662 0.84344 0.77778 0.0
C460 C 0.10437 0.85363 0.82793 0.0
C461 C 0.09093 0.85778 0.76779 0.0
N462 N 0.10454 0.86275 0.79293 0.0
C463 C 0.09028 0.83921 0.8389 0.0
C464 C 0.07632 0.83412 0.81363 0.0
C465 C 0.14995 0.87472 0.80237 0.0
C466 C 0.1818 0.91794 0.66922 0.0
C467 C 0.18588 0.90529 0.74726 0.0
C468 C 0.19416 0.90509 0.70946 0.0
C469 C 0.19207 0.91144 0.6702 0.0
N470 N 0.17583 0.91168 0.74605 0.0
C471 C 0.17374 0.91796 0.70768 0.0
Co472 Co 0.11779 0.24257 0.777 0.0
Co473 Co 0.0891 0.25359 0.79697 0.0
O474 O 0.09763 0.24221 0.76224 0.0
C475 C 0.12179 0.25231 0.68406 0.0
O476 O 0.11692 0.26252 0.69526 0.0
C477 C 0.06015 0.22037 0.78675 0.0
O478 O 0.06862 0.21375 0.80045 0.0
O479 O 0.09012 0.24262 0.85192 0.0
O480 O 0.11308 0.24187 0.84108 0.0
H481 H 0.08705 0.28542 0.92659 0.0
H482 H 0.09477 0.21811 0.71383 0.0
O483 O 0.12298 0.2433 0.71299 0.0
H484 H 0.09988 0.18658 0.83555 0.0
H485 H 0.16064 0.22682 0.75686 0.0
H486 H 0.14375 0.25973 0.84348 0.0
H487 H 0.11532 0.2165 0.83675 0.0
H488 H 0.13503 0.2263 0.73985 0.0
O489 O 0.06654 0.23572 0.78495 0.0
H490 H 0.09801 0.27144 0.88192 0.0
H491 H 0.06112 0.2592 0.78604 0.0
H492 H 0.16939 0.26052 0.86182 0.0
H493 H 0.0792 0.18819 0.71112 0.0
H494 H 0.17798 0.24398 0.81835 0.0
H495 H 0.08169 0.17223 0.77235 0.0
O496 O 0.12987 0.26674 0.77944 0.0
H497 H 0.07608 0.25599 0.63745 0.0
H498 H 0.09997 0.28796 0.77268 0.0
H499 H 0.09968 0.30189 0.70442 0.0
H500 H 0.08765 0.28588 0.63618 0.0
H501 H 0.07678 0.24257 0.7063 0.0
H502 H 0.0497 0.27296 0.82982 0.0
H503 H 0.06272 0.28625 0.90058 0.0
O504 O 0.11139 0.27199 0.80915 0.0
C505 C 0.10178 0.2408 0.86591 0.0
C506 C 0.08129 0.27971 0.89577 0.0
C507 C 0.06031 0.2727 0.84148 0.0
N508 N 0.08027 0.26459 0.83129 0.0
C509 C 0.08746 0.2718 0.87028 0.0
C510 C 0.06681 0.26489 0.81689 0.0
C511 C 0.06763 0.28016 0.88117 0.0
C512 C 0.09602 0.21124 0.7404 0.0
N513 N 0.10601 0.21904 0.77526 0.0
C514 C 0.08713 0.19431 0.73877 0.0
C515 C 0.08851 0.18536 0.77317 0.0
C516 C 0.09871 0.1934 0.80865 0.0
C517 C 0.10739 0.21035 0.80919 0.0
C518 C 0.15701 0.23406 0.77609 0.0
C519 C 0.14736 0.25243 0.82458 0.0
C520 C 0.14254 0.23383 0.76657 0.0
N521 N 0.13784 0.24287 0.79089 0.0
C522 C 0.16191 0.25296 0.83504 0.0
C523 C 0.16673 0.24368 0.81061 0.0
C524 C 0.12589 0.27633 0.79772 0.0
C525 C 0.08131 0.2631 0.66701 0.0
C526 C 0.09477 0.28091 0.7431 0.0
C527 C 0.0946 0.28886 0.70457 0.0
C528 C 0.08783 0.27987 0.6663 0.0
N529 N 0.08836 0.26445 0.74355 0.0
C530 C 0.08168 0.25555 0.70616 0.0
Co531 Co 0.8743 0.75723 0.71223 0.0
Co532 Co 0.83467 0.7464 0.69255 0.0
O533 O 0.85467 0.75797 0.72681 0.0
C534 C 0.86909 0.74892 0.80623 0.0
O535 O 0.85391 0.73867 0.79616 0.0
C536 C 0.83896 0.77967 0.70209 0.0
O537 O 0.85405 0.78632 0.6885 0.0
O538 O 0.84657 0.75706 0.63726 0.0
O539 O 0.86993 0.75709 0.648 0.0
H540 H 0.8005 0.71388 0.56411 0.0
H541 H 0.87639 0.78268 0.77273 0.0
O542 O 0.87914 0.75736 0.7763 0.0
H543 H 0.91243 0.81224 0.64804 0.0
H544 H 0.93286 0.7727 0.73114 0.0
H545 H 0.88243 0.73892 0.64781 0.0
H546 H 0.89767 0.78232 0.64991 0.0
H547 H 0.90803 0.77375 0.74784 0.0
O548 O 0.83 0.76432 0.70381 0.0
H549 H 0.82554 0.7281 0.6083 0.0
H550 H 0.8011 0.74085 0.70354 0.0
H551 H 0.90701 0.73759 0.62982 0.0
H552 H 0.89103 0.81261 0.77238 0.0
H553 H 0.93247 0.75457 0.67163 0.0
H554 H 0.90918 0.82759 0.70965 0.0
O555 O 0.86197 0.73305 0.71235 0.0
H556 H 0.81952 0.7449 0.85199 0.0
H557 H 0.81118 0.71217 0.7182 0.0
H558 H 0.79705 0.69863 0.78692 0.0
H559 H 0.80115 0.71503 0.85445 0.0
H560 H 0.83356 0.75792 0.78272 0.0
H561 H 0.77582 0.72686 0.66022 0.0
H562 H 0.7754 0.71319 0.59003 0.0
O563 O 0.83849 0.72789 0.68121 0.0
C564 C 0.8598 0.75833 0.62311 0.0
C565 C 0.80052 0.71975 0.59469 0.0
C566 C 0.78667 0.72706 0.6486 0.0
N567 N 0.81477 0.73522 0.65859 0.0
C568 C 0.81466 0.7278 0.6199 0.0
C569 C 0.80104 0.735 0.67294 0.0
C570 C 0.78644 0.71938 0.60923 0.0
C571 C 0.88438 0.78912 0.74551 0.0
N572 N 0.88624 0.78077 0.71152 0.0
C573 C 0.89259 0.80606 0.74541 0.0
C574 C 0.90275 0.81446 0.71018 0.0
C575 C 0.90457 0.80585 0.67558 0.0
C576 C 0.89615 0.78891 0.67677 0.0
C577 C 0.92186 0.76527 0.71262 0.0
C578 C 0.89349 0.74642 0.66598 0.0
C579 C 0.90775 0.76579 0.72198 0.0
N580 N 0.89384 0.75651 0.69856 0.0
C581 C 0.90736 0.74558 0.65572 0.0
C582 C 0.92163 0.7551 0.67922 0.0
C583 C 0.84844 0.72344 0.69396 0.0
C584 C 0.81759 0.73763 0.82276 0.0
C585 C 0.8131 0.71939 0.74747 0.0
C586 C 0.80502 0.71166 0.78627 0.0
C587 C 0.80731 0.72087 0.82413 0.0
N588 N 0.82317 0.73583 0.74637 0.0
C589 C 0.82545 0.74494 0.78336 0.0
Co590 Co 0.24309 0.11478 0.7164 0.0
Co591 Co 0.25323 0.08548 0.69341 0.0
O592 O 0.24182 0.09394 0.72852 0.0
C593 C 0.25196 0.11698 0.80979 0.0
O594 O 0.26152 0.11131 0.7987 0.0
C595 C 0.21923 0.05753 0.69967 0.0
O596 O 0.21345 0.06743 0.69591 0.0
O597 O 0.24392 0.08854 0.63781 0.0
O598 O 0.24275 0.1111 0.65194 0.0
H599 H 0.28722 0.08541 0.56665 0.0
H600 H 0.21775 0.09168 0.77763 0.0
O601 O 0.24356 0.11907 0.78075 0.0
H602 H 0.18797 0.09956 0.65601 0.0
H603 H 0.22904 0.15861 0.74177 0.0
H604 H 0.26149 0.14167 0.65324 0.0
H605 H 0.21789 0.11396 0.65613 0.0
H606 H 0.22743 0.1323 0.7556 0.0
O607 O 0.23446 0.06293 0.69907 0.0
H608 H 0.273 0.09603 0.6117 0.0
H609 H 0.25724 0.05639 0.70036 0.0
H610 H 0.26338 0.16803 0.63809 0.0
H611 H 0.18783 0.07719 0.7791 0.0
H612 H 0.24707 0.17665 0.68253 0.0
H613 H 0.17274 0.08105 0.71789 0.0
O614 O 0.26726 0.12625 0.71542 0.0
H615 H 0.25091 0.06756 0.85043 0.0
H616 H 0.28658 0.09415 0.72278 0.0
H617 H 0.29839 0.09123 0.79216 0.0
H618 H 0.2805 0.07783 0.85661 0.0
H619 H 0.23963 0.07088 0.78054 0.0
H620 H 0.27118 0.04528 0.65607 0.0
H621 H 0.28636 0.05986 0.58878 0.0
O622 O 0.27249 0.10762 0.6867 0.0
C623 C 0.24215 0.1004 0.62556 0.0
C624 C 0.28068 0.07897 0.59597 0.0
C625 C 0.27166 0.05643 0.64612 0.0
N626 N 0.26438 0.07689 0.65876 0.0
C627 C 0.27263 0.08494 0.62166 0.0
C628 C 0.26376 0.06276 0.67101 0.0
C629 C 0.28018 0.06462 0.60838 0.0
C630 C 0.21127 0.09355 0.75112 0.0
N631 N 0.21956 0.10369 0.71692 0.0
C632 C 0.19433 0.08526 0.75202 0.0
C633 C 0.18587 0.08741 0.71762 0.0
C634 C 0.19441 0.09778 0.68287 0.0
C635 C 0.21135 0.10586 0.68304 0.0
C636 C 0.23618 0.15497 0.72212 0.0
C637 C 0.25429 0.14529 0.67255 0.0
C638 C 0.23534 0.1401 0.72984 0.0
N639 N 0.24426 0.13539 0.705 0.0
C640 C 0.25544 0.16025 0.6639 0.0
C641 C 0.24629 0.16509 0.68887 0.0
C642 C 0.27694 0.12209 0.69871 0.0
C643 C 0.25882 0.07337 0.82254 0.0
C644 C 0.27872 0.08836 0.75069 0.0
C645 C 0.28547 0.0867 0.78987 0.0
C646 C 0.27543 0.07916 0.82601 0.0
N647 N 0.26241 0.08263 0.74753 0.0
C648 C 0.25249 0.07522 0.78281 0.0
Co649 Co 0.88566 0.12708 0.71377 0.0
Co650 Co 0.91433 0.16669 0.68987 0.0
O651 O 0.90608 0.14709 0.72611 0.0
C652 C 0.8822 0.13425 0.8059 0.0
O653 O 0.88758 0.14933 0.79371 0.0
C654 C 0.94291 0.16172 0.69961 0.0
O655 O 0.93342 0.14594 0.6968 0.0
O656 O 0.91199 0.15409 0.63516 0.0
O657 O 0.88993 0.12998 0.64951 0.0
H658 H 0.91428 0.19946 0.55995 0.0
H659 H 0.9086 0.12616 0.77828 0.0
O660 O 0.88078 0.12368 0.77795 0.0
H661 H 0.90296 0.08787 0.66072 0.0
H662 H 0.84274 0.06893 0.74063 0.0
H663 H 0.85929 0.11733 0.64803 0.0
H664 H 0.88784 0.10263 0.65688 0.0
H665 H 0.86851 0.09419 0.75488 0.0
O666 O 0.93707 0.17116 0.69736 0.0
H667 H 0.90394 0.17497 0.60631 0.0
H668 H 0.94281 0.20021 0.69649 0.0
H669 H 0.83349 0.09227 0.63241 0.0
H670 H 0.9238 0.1115 0.7837 0.0
H671 H 0.82507 0.06784 0.6789 0.0
H672 H 0.92106 0.09223 0.72455 0.0
O673 O 0.87358 0.13915 0.70968 0.0
H674 H 0.93087 0.1835 0.84711 0.0
H675 H 0.90463 0.19093 0.71596 0.0
H676 H 0.90664 0.20592 0.78419 0.0
H677 H 0.91986 0.20226 0.85039 0.0
H678 H 0.92847 0.16862 0.77832 0.0
H679 H 0.95365 0.22493 0.65091 0.0
H680 H 0.93932 0.22468 0.58218 0.0
O681 O 0.89202 0.16315 0.68129 0.0
C682 C 0.9006 0.14013 0.6232 0.0
C683 C 0.92062 0.19973 0.58988 0.0
C684 C 0.94272 0.21403 0.6409 0.0
N685 N 0.92271 0.18617 0.65419 0.0
C686 C 0.9148 0.18591 0.61631 0.0
C687 C 0.93655 0.19997 0.66652 0.0
C688 C 0.93467 0.21387 0.60235 0.0
C689 C 0.90722 0.11767 0.75264 0.0
N690 N 0.89731 0.11522 0.71738 0.0
C691 C 0.91591 0.10946 0.75579 0.0
C692 C 0.9144 0.09867 0.72255 0.0
C693 C 0.90425 0.09623 0.6867 0.0
C694 C 0.89577 0.10468 0.68463 0.0
C695 C 0.8463 0.07948 0.72009 0.0
C696 C 0.85576 0.10672 0.66826 0.0
C697 C 0.86086 0.09383 0.72805 0.0
N698 N 0.86546 0.10718 0.7021 0.0
C699 C 0.84111 0.09258 0.65932 0.0
C700 C 0.83639 0.07888 0.68544 0.0
C701 C 0.87754 0.15286 0.6924 0.0
C702 C 0.92513 0.18523 0.81844 0.0
C703 C 0.91035 0.18922 0.74465 0.0
C704 C 0.91149 0.19778 0.78317 0.0
C705 C 0.91893 0.19574 0.82028 0.0
N706 N 0.91648 0.17895 0.74308 0.0
C707 C 0.9238 0.1769 0.77933 0.0
Co708 Co 0.91203 0.46073 0.54562 0.0
Co709 Co 0.92253 0.50031 0.52607 0.0
O710 O 0.91132 0.48034 0.56062 0.0
C711 C 0.92121 0.46613 0.63903 0.0
O712 O 0.9312 0.48137 0.62895 0.0
C713 C 0.88914 0.49564 0.53621 0.0
O714 O 0.88265 0.48068 0.52165 0.0
O715 O 0.91169 0.48833 0.47096 0.0
O716 O 0.91146 0.46487 0.48173 0.0
H717 H 0.95432 0.53464 0.397 0.0
H718 H 0.88719 0.4588 0.60814 0.0
O719 O 0.91259 0.45607 0.60938 0.0
H720 H 0.85641 0.42213 0.48568 0.0
H721 H 0.89709 0.4023 0.56448 0.0
H722 H 0.92971 0.45253 0.47928 0.0
H723 H 0.88633 0.43698 0.48523 0.0
H724 H 0.89607 0.42709 0.58191 0.0
O725 O 0.90448 0.5047 0.53824 0.0
H726 H 0.9405 0.50959 0.44129 0.0
H727 H 0.92765 0.53371 0.53731 0.0
H728 H 0.931 0.42798 0.46051 0.0
H729 H 0.85726 0.44408 0.61012 0.0
H730 H 0.9146 0.40263 0.50327 0.0
H731 H 0.84167 0.42561 0.54851 0.0
O732 O 0.9362 0.47315 0.54394 0.0
H733 H 0.92463 0.51553 0.68568 0.0
H734 H 0.9568 0.52411 0.55057 0.0
H735 H 0.97058 0.53839 0.61891 0.0
H736 H 0.95446 0.53416 0.68709 0.0
H737 H 0.91137 0.50134 0.61677 0.0
H738 H 0.94123 0.55899 0.49389 0.0
H739 H 0.95475 0.55958 0.42327 0.0
O740 O 0.94113 0.49673 0.51387 0.0
C741 C 0.9101 0.47494 0.45698 0.0
C742 C 0.94851 0.53455 0.42777 0.0
C743 C 0.94114 0.54821 0.48212 0.0
N744 N 0.93336 0.52021 0.49197 0.0
C745 C 0.94069 0.52041 0.45304 0.0
C746 C 0.93343 0.53384 0.50651 0.0
C747 C 0.94873 0.54854 0.44251 0.0
C748 C 0.88048 0.45068 0.5814 0.0
N749 N 0.8885 0.44869 0.54674 0.0
C750 C 0.86354 0.44242 0.58262 0.0
C751 C 0.8548 0.43208 0.54801 0.0
C752 C 0.86307 0.43013 0.51273 0.0
C753 C 0.88001 0.4386 0.51261 0.0
C754 C 0.90426 0.41326 0.54556 0.0
C755 C 0.92247 0.44152 0.49788 0.0
C756 C 0.90376 0.42735 0.55533 0.0
N757 N 0.91273 0.44121 0.53141 0.0
C758 C 0.92328 0.42767 0.48717 0.0
C759 C 0.91409 0.41345 0.5112 0.0
C760 C 0.94568 0.48676 0.52571 0.0
C761 C 0.93178 0.51751 0.65615 0.0
C762 C 0.9497 0.52213 0.58013 0.0
C763 C 0.95757 0.5303 0.61871 0.0
C764 C 0.94852 0.52794 0.65694 0.0
N765 N 0.93328 0.51192 0.5796 0.0
C766 C 0.92433 0.50956 0.61696 0.0
Co767 Co 0.54328 0.44891 0.54971 0.0
Co768 Co 0.50361 0.41996 0.52737 0.0
O769 O 0.52341 0.42846 0.56292 0.0
C770 C 0.5366 0.45279 0.64197 0.0
O771 O 0.52146 0.44733 0.63026 0.0
C772 C 0.50869 0.39143 0.53734 0.0
O773 O 0.52447 0.4009 0.53401 0.0
O774 O 0.51596 0.42217 0.47223 0.0
O775 O 0.54003 0.44442 0.48558 0.0
H776 H 0.47015 0.41934 0.39837 0.0
H777 H 0.5447 0.42629 0.61432 0.0
O778 O 0.54703 0.45405 0.61374 0.0
H779 H 0.58243 0.43173 0.49532 0.0
H780 H 0.60148 0.49215 0.57402 0.0
H781 H 0.55252 0.47502 0.4834 0.0
H782 H 0.5675 0.4467 0.49193 0.0
H783 H 0.57638 0.46636 0.58945 0.0
O784 O 0.49926 0.39728 0.53529 0.0
H785 H 0.49486 0.42997 0.44391 0.0
H786 H 0.47017 0.39144 0.53541 0.0
H787 H 0.5774 0.50083 0.4666 0.0
H788 H 0.55953 0.41124 0.61931 0.0
H789 H 0.60211 0.50955 0.51209 0.0
H790 H 0.57851 0.41388 0.55943 0.0
O791 O 0.53104 0.46085 0.54596 0.0
H792 H 0.48763 0.40401 0.68534 0.0
H793 H 0.47939 0.42961 0.55403 0.0
H794 H 0.4647 0.42779 0.62271 0.0
H795 H 0.46876 0.41489 0.68899 0.0
H796 H 0.5022 0.40622 0.61609 0.0
H797 H 0.44523 0.38032 0.49067 0.0
H798 H 0.44509 0.39434 0.42168 0.0
O799 O 0.50699 0.44218 0.5184 0.0
C800 C 0.52979 0.43363 0.45967 0.0
C801 C 0.47004 0.41314 0.42841 0.0
C802 C 0.45606 0.39123 0.48018 0.0
N803 N 0.48394 0.41138 0.49238 0.0
C804 C 0.48399 0.41912 0.45438 0.0
C805 C 0.47023 0.39756 0.50531 0.0
C806 C 0.45599 0.3991 0.44149 0.0
C807 C 0.55306 0.42762 0.58836 0.0
N808 N 0.55527 0.4374 0.55295 0.0
C809 C 0.56137 0.41901 0.59127 0.0
C810 C 0.572 0.42048 0.55762 0.0
C811 C 0.57419 0.43048 0.52162 0.0
C812 C 0.56566 0.43888 0.5198 0.0
C813 C 0.5908 0.48847 0.55391 0.0
C814 C 0.56325 0.47869 0.50319 0.0
C815 C 0.57654 0.4739 0.56254 0.0
N816 N 0.56303 0.46913 0.53713 0.0
C817 C 0.57729 0.49333 0.49359 0.0
C818 C 0.59115 0.49822 0.51915 0.0
C819 C 0.51723 0.45672 0.52911 0.0
C820 C 0.48572 0.40961 0.65664 0.0
C821 C 0.48127 0.42403 0.58274 0.0
C822 C 0.47288 0.42299 0.62152 0.0
C823 C 0.47516 0.41574 0.65869 0.0
N824 N 0.49159 0.41796 0.58097 0.0
C825 C 0.49388 0.41083 0.61727 0.0
Co826 Co 0.55093 0.09189 0.54824 0.0
Co827 Co 0.57971 0.08107 0.52705 0.0
O828 O 0.57092 0.09192 0.5631 0.0
C829 C 0.54595 0.08065 0.64004 0.0
O830 O 0.55105 0.07067 0.62838 0.0
C831 C 0.60863 0.1141 0.54077 0.0
O832 O 0.60038 0.12097 0.5272 0.0
O833 O 0.57911 0.09284 0.47326 0.0
O834 O 0.55624 0.09372 0.48452 0.0
H835 H 0.58265 0.05103 0.39428 0.0
H836 H 0.57347 0.11516 0.61442 0.0
O837 O 0.54511 0.09008 0.61186 0.0
H838 H 0.56944 0.1489 0.4972 0.0
H839 H 0.50797 0.10741 0.56985 0.0
H840 H 0.52565 0.076 0.47936 0.0
H841 H 0.55394 0.11904 0.49209 0.0
H842 H 0.53337 0.10756 0.58721 0.0
O843 O 0.60217 0.09873 0.54113 0.0
H844 H 0.57138 0.06438 0.44035 0.0
H845 H 0.60766 0.07537 0.53729 0.0
H846 H 0.50025 0.07562 0.46062 0.0
H847 H 0.58909 0.14499 0.62106 0.0
H848 H 0.49125 0.09141 0.50604 0.0
H849 H 0.58715 0.16207 0.56211 0.0
O850 O 0.53884 0.06779 0.54284 0.0
H851 H 0.59153 0.07625 0.68616 0.0
H852 H 0.56868 0.04637 0.54747 0.0
H853 H 0.56848 0.03141 0.61408 0.0
H854 H 0.58 0.04638 0.68407 0.0
H855 H 0.59132 0.0907 0.61891 0.0
H856 H 0.6194 0.06224 0.49211 0.0
H857 H 0.60683 0.04989 0.42012 0.0
O858 O 0.55752 0.06287 0.51288 0.0
C859 C 0.56768 0.09512 0.45976 0.0
C860 C 0.58821 0.05633 0.42564 0.0
C861 C 0.60885 0.06264 0.48052 0.0
N862 N 0.5888 0.07058 0.49157 0.0
C863 C 0.58186 0.06388 0.45191 0.0
C864 C 0.60217 0.0701 0.5059 0.0
C865 C 0.60179 0.05571 0.44013 0.0
C866 C 0.57246 0.12251 0.58881 0.0
N867 N 0.56275 0.11537 0.55302 0.0
C868 C 0.58138 0.13939 0.59267 0.0
C869 C 0.5803 0.14897 0.55956 0.0
C870 C 0.57038 0.14159 0.52312 0.0
C871 C 0.56166 0.12468 0.52034 0.0
C872 C 0.51178 0.10051 0.54977 0.0
C873 C 0.52187 0.08298 0.49914 0.0
C874 C 0.52613 0.10051 0.55949 0.0
N875 N 0.53105 0.09189 0.53412 0.0
C876 C 0.50745 0.08268 0.48843 0.0
C877 C 0.5024 0.09153 0.51395 0.0
C878 C 0.54294 0.05841 0.5238 0.0
C879 C 0.58652 0.0696 0.65584 0.0
C880 C 0.57364 0.05296 0.57782 0.0
C881 C 0.57355 0.04443 0.61541 0.0
C882 C 0.58002 0.05284 0.65466 0.0
N883 N 0.58004 0.06941 0.57922 0.0
C884 C 0.58644 0.07773 0.61758 0.0
Co885 Co 0.79362 0.5745 0.60886 0.0
Co886 Co 0.8331 0.5852 0.63369 0.0
O887 O 0.81363 0.57406 0.59688 0.0
C888 C 0.80121 0.58567 0.51724 0.0
O889 O 0.81622 0.59531 0.53008 0.0
C890 C 0.82799 0.55162 0.6232 0.0
O891 O 0.81221 0.54539 0.62571 0.0
O892 O 0.82027 0.57479 0.688 0.0
O893 O 0.79623 0.57281 0.67314 0.0
H894 H 0.86546 0.61745 0.7648 0.0
H895 H 0.79289 0.55091 0.54373 0.0
O896 O 0.79052 0.5763 0.54465 0.0
H897 H 0.75405 0.51777 0.65972 0.0
H898 H 0.73564 0.55957 0.58054 0.0
H899 H 0.78367 0.59086 0.67484 0.0
H900 H 0.76888 0.54764 0.6646 0.0
H901 H 0.76092 0.55905 0.56673 0.0
O902 O 0.83749 0.56689 0.62594 0.0
H903 H 0.84114 0.60358 0.71772 0.0
H904 H 0.86658 0.5901 0.62779 0.0
H905 H 0.75859 0.59162 0.69004 0.0
H906 H 0.77818 0.52107 0.53727 0.0
H907 H 0.73435 0.57589 0.64269 0.0
H908 H 0.75864 0.50429 0.59563 0.0
O909 O 0.80575 0.59863 0.61377 0.0
H910 H 0.85041 0.58597 0.47672 0.0
H911 H 0.85756 0.61919 0.60869 0.0
H912 H 0.87282 0.63239 0.54096 0.0
H913 H 0.86931 0.61574 0.47436 0.0
H914 H 0.83527 0.57329 0.54503 0.0
H915 H 0.89114 0.60373 0.67409 0.0
H916 H 0.8907 0.61759 0.74306 0.0
O917 O 0.82965 0.604 0.6425 0.0
C918 C 0.80628 0.57219 0.69964 0.0
C919 C 0.86582 0.61149 0.73477 0.0
C920 C 0.88022 0.60377 0.68389 0.0
N921 N 0.85246 0.5961 0.66994 0.0
C922 C 0.85209 0.60364 0.70793 0.0
C923 C 0.86627 0.59603 0.65787 0.0
C924 C 0.87997 0.61155 0.72257 0.0
C925 C 0.78429 0.54369 0.56903 0.0
N926 N 0.78171 0.55101 0.60442 0.0
C927 C 0.77604 0.5268 0.56529 0.0
C928 C 0.7651 0.51739 0.59809 0.0
C929 C 0.76254 0.52495 0.63408 0.0
C930 C 0.77101 0.54187 0.63675 0.0
C931 C 0.74611 0.56645 0.60145 0.0
C932 C 0.77314 0.58391 0.65424 0.0
C933 C 0.76047 0.56623 0.59374 0.0
N934 N 0.77372 0.57482 0.62017 0.0
C935 C 0.75899 0.58442 0.66294 0.0
C936 C 0.7454 0.57561 0.63634 0.0
C937 C 0.81944 0.60829 0.63131 0.0
C938 C 0.85209 0.59335 0.50557 0.0
C939 C 0.85592 0.61187 0.57983 0.0
C940 C 0.86463 0.6194 0.54159 0.0
C941 C 0.86267 0.61005 0.50425 0.0
N942 N 0.84558 0.59547 0.58089 0.0
C943 C 0.84361 0.58622 0.54441 0.0
Co944 Co 0.42558 0.21605 0.6123 0.0
Co945 Co 0.41455 0.24483 0.63037 0.0
O946 O 0.42597 0.23615 0.59651 0.0
C947 C 0.41607 0.21171 0.51918 0.0
O948 O 0.40588 0.21668 0.52962 0.0
C949 C 0.44779 0.2738 0.62037 0.0
O950 O 0.45438 0.26548 0.63545 0.0
O951 O 0.42542 0.24405 0.68578 0.0
O952 O 0.42616 0.22103 0.67612 0.0
H953 H 0.38248 0.24745 0.75861 0.0
H954 H 0.45017 0.23882 0.54898 0.0
O955 O 0.42497 0.21058 0.54858 0.0
H956 H 0.48144 0.23416 0.67212 0.0
H957 H 0.44132 0.17309 0.59498 0.0
H958 H 0.40828 0.19038 0.67945 0.0
H959 H 0.45152 0.21874 0.67293 0.0
H960 H 0.44189 0.19863 0.57668 0.0
O961 O 0.43244 0.26734 0.61779 0.0
H962 H 0.39654 0.2363 0.71508 0.0
H963 H 0.40899 0.27279 0.6178 0.0
H964 H 0.40744 0.16481 0.69907 0.0
H965 H 0.48008 0.25436 0.54666 0.0
H966 H 0.42405 0.15602 0.6567 0.0
H967 H 0.49592 0.2521 0.6086 0.0
O968 O 0.4014 0.20399 0.61437 0.0
H969 H 0.41237 0.25721 0.47018 0.0
H970 H 0.38021 0.23382 0.6054 0.0
H971 H 0.36637 0.23383 0.53667 0.0
H972 H 0.38248 0.24562 0.46843 0.0
H973 H 0.42569 0.25678 0.53949 0.0
H974 H 0.39516 0.2844 0.66044 0.0
H975 H 0.38172 0.27168 0.73131 0.0
O976 O 0.39612 0.22259 0.64305 0.0
C977 C 0.42721 0.23245 0.70041 0.0
C978 C 0.38825 0.25308 0.72772 0.0
C979 C 0.39539 0.27383 0.67265 0.0
N980 N 0.4035 0.25382 0.66381 0.0
C981 C 0.39621 0.2468 0.70287 0.0
C982 C 0.40324 0.26722 0.64871 0.0
C983 C 0.38784 0.26668 0.71241 0.0
C984 C 0.45698 0.23767 0.57587 0.0
N985 N 0.44911 0.22782 0.61091 0.0
C986 C 0.47391 0.24654 0.57445 0.0
C987 C 0.48279 0.24529 0.60925 0.0
C988 C 0.47468 0.23523 0.64491 0.0
C989 C 0.45773 0.22656 0.64523 0.0
C990 C 0.43406 0.17681 0.61375 0.0
C991 C 0.41562 0.18668 0.66102 0.0
C992 C 0.43431 0.19124 0.60349 0.0
N993 N 0.42523 0.19605 0.62722 0.0
C994 C 0.41506 0.17217 0.67221 0.0
C995 C 0.42437 0.16724 0.64839 0.0
C996 C 0.39179 0.20804 0.63214 0.0
C997 C 0.40522 0.25208 0.49973 0.0
C998 C 0.3873 0.2389 0.57582 0.0
C999 C 0.3794 0.23892 0.53702 0.0
C1000 C 0.38845 0.24555 0.49875 0.0
N1001 N 0.40376 0.24533 0.57653 0.0
C1002 C 0.41271 0.25187 0.53914 0.0
Co1003 Co 0.78317 0.20737 0.61344 0.0
Co1004 Co 0.75418 0.16773 0.63482 0.0
O1005 O 0.76243 0.18778 0.60062 0.0
C1006 C 0.78529 0.20154 0.51933 0.0
O1007 O 0.77985 0.18627 0.52953 0.0
C1008 C 0.72575 0.17307 0.62846 0.0
O1009 O 0.73534 0.18878 0.6329 0.0
O1010 O 0.75685 0.17973 0.69087 0.0
O1011 O 0.77957 0.20345 0.67788 0.0
H1012 H 0.75438 0.13332 0.76027 0.0
H1013 H 0.75986 0.20988 0.55363 0.0
O1014 O 0.78736 0.21178 0.54914 0.0
H1015 H 0.76751 0.24635 0.6782 0.0
H1016 H 0.82657 0.26563 0.59096 0.0
H1017 H 0.8102 0.21558 0.67588 0.0
H1018 H 0.78214 0.23107 0.67595 0.0
H1019 H 0.80037 0.24089 0.57632 0.0
O1020 O 0.73148 0.16351 0.62885 0.0
H1021 H 0.76473 0.15836 0.71628 0.0
H1022 H 0.72553 0.13438 0.62632 0.0
H1023 H 0.83645 0.24007 0.69181 0.0
H1024 H 0.74514 0.22509 0.55429 0.0
H1025 H 0.84478 0.26533 0.64919 0.0
H1026 H 0.74889 0.24344 0.617 0.0
O1027 O 0.79483 0.19487 0.61269 0.0
H1028 H 0.73689 0.15281 0.47712 0.0
H1029 H 0.76355 0.14365 0.60449 0.0
H1030 H 0.76112 0.12941 0.53451 0.0
H1031 H 0.74769 0.13394 0.47021 0.0
H1032 H 0.73973 0.16693 0.54759 0.0
H1033 H 0.7147 0.10912 0.66954 0.0
H1034 H 0.72919 0.10846 0.73696 0.0
O1035 O 0.77647 0.17098 0.64177 0.0
C1036 C 0.76877 0.19321 0.70382 0.0
C1037 C 0.74798 0.13344 0.7309 0.0
C1038 C 0.7257 0.11986 0.68001 0.0
N1039 N 0.7458 0.14782 0.66863 0.0
C1040 C 0.7538 0.14757 0.7058 0.0
C1041 C 0.73187 0.13422 0.65573 0.0
C1042 C 0.73384 0.1195 0.71782 0.0
C1043 C 0.76168 0.21797 0.5808 0.0
N1044 N 0.77189 0.21962 0.61463 0.0
C1045 C 0.75326 0.22649 0.58109 0.0
C1046 C 0.75534 0.23677 0.61632 0.0
C1047 C 0.76578 0.23839 0.6507 0.0
C1048 C 0.77398 0.22966 0.64932 0.0
C1049 C 0.82305 0.25471 0.60982 0.0
C1050 C 0.81369 0.22655 0.65737 0.0
C1051 C 0.80825 0.24066 0.60164 0.0
N1052 N 0.8037 0.22685 0.62549 0.0
C1053 C 0.82859 0.24037 0.66646 0.0
C1054 C 0.83327 0.25454 0.64251 0.0
C1055 C 0.79086 0.18107 0.62941 0.0
C1056 C 0.74272 0.15069 0.50495 0.0
C1057 C 0.75774 0.14574 0.57664 0.0
C1058 C 0.75636 0.1376 0.53712 0.0
C1059 C 0.74881 0.14013 0.50107 0.0
N1060 N 0.75173 0.15607 0.5802 0.0
C1061 C 0.74429 0.15859 0.54501 0.0
Co1062 Co 0.42607 0.20884 0.11163 0.0
Co1063 Co 0.4147 0.16899 0.13127 0.0
O1064 O 0.42619 0.18892 0.09672 0.0
C1065 C 0.41598 0.20303 0.01905 0.0
O1066 O 0.40574 0.188 0.03054 0.0
C1067 C 0.4479 0.17326 0.12109 0.0
O1068 O 0.45444 0.18836 0.13456 0.0
O1069 O 0.42561 0.18087 0.18641 0.0
O1070 O 0.42692 0.20485 0.17561 0.0
H1071 H 0.38253 0.13497 0.26033 0.0
H1072 H 0.45021 0.21001 0.04775 0.0
O1073 O 0.42515 0.21325 0.0477 0.0
H1074 H 0.48233 0.24659 0.16894 0.0
H1075 H 0.44223 0.26755 0.09148 0.0
H1076 H 0.40932 0.21791 0.17872 0.0
H1077 H 0.45242 0.23233 0.17085 0.0
H1078 H 0.44243 0.24231 0.07423 0.0
O1079 O 0.43254 0.16423 0.11939 0.0
H1080 H 0.39669 0.15998 0.21599 0.0
H1081 H 0.40897 0.13536 0.12009 0.0
H1082 H 0.40885 0.24291 0.19731 0.0
H1083 H 0.48011 0.22414 0.04432 0.0
H1084 H 0.4254 0.26796 0.15354 0.0
H1085 H 0.49637 0.24255 0.10527 0.0
O1086 O 0.40191 0.19694 0.11461 0.0
H1087 H 0.41246 0.15376 0.97163 0.0
H1088 H 0.38034 0.14566 0.10656 0.0
H1089 H 0.36647 0.13158 0.03809 0.0
H1090 H 0.38256 0.13558 0.97 0.0
H1091 H 0.42582 0.16774 0.04069 0.0
H1092 H 0.39503 0.11011 0.16355 0.0
H1093 H 0.38163 0.10979 0.23414 0.0
O1094 O 0.39635 0.17297 0.14332 0.0
C1095 C 0.42775 0.19446 0.20038 0.0
C1096 C 0.38829 0.13494 0.22957 0.0
C1097 C 0.39532 0.121 0.17528 0.0
N1098 N 0.40358 0.14912 0.16537 0.0
C1099 C 0.3963 0.14906 0.20427 0.0
C1100 C 0.40324 0.13535 0.15087 0.0
C1101 C 0.3878 0.12083 0.21488 0.0
C1102 C 0.45721 0.21812 0.07421 0.0
N1103 N 0.44959 0.22042 0.10933 0.0
C1104 C 0.47413 0.22604 0.07216 0.0
C1105 C 0.48325 0.23635 0.10641 0.0
C1106 C 0.47538 0.23861 0.14215 0.0
C1107 C 0.45844 0.23047 0.1431 0.0
C1108 C 0.435 0.25672 0.11085 0.0
C1109 C 0.41662 0.22879 0.15968 0.0
C1110 C 0.43504 0.24239 0.10119 0.0
N1111 N 0.426 0.22869 0.12568 0.0
C1112 C 0.41628 0.2429 0.17029 0.0
C1113 C 0.42555 0.25694 0.14568 0.0
C1114 C 0.39218 0.18331 0.13237 0.0
C1115 C 0.40532 0.15188 0.00113 0.0
C1116 C 0.38742 0.14752 0.07705 0.0
C1117 C 0.37951 0.13947 0.03839 0.0
C1118 C 0.38854 0.1417 0.00021 0.0
N1119 N 0.40389 0.15748 0.0777 0.0
C1120 C 0.41283 0.15971 0.04039 0.0
Co1121 Co 0.79299 0.21888 0.11395 0.0
Co1122 Co 0.83274 0.24712 0.13606 0.0
O1123 O 0.8131 0.23892 0.10031 0.0
C1124 C 0.79948 0.21482 0.02175 0.0
O1125 O 0.81445 0.21963 0.03391 0.0
C1126 C 0.82857 0.27609 0.12584 0.0
O1127 O 0.81331 0.26741 0.1378 0.0
O1128 O 0.82045 0.24588 0.19056 0.0
O1129 O 0.79644 0.22344 0.17814 0.0
H1130 H 0.86563 0.24811 0.2669 0.0
H1131 H 0.79248 0.24215 0.0499 0.0
O1132 O 0.7891 0.2138 0.04984 0.0
H1133 H 0.75502 0.23749 0.16878 0.0
H1134 H 0.73439 0.17667 0.09013 0.0
H1135 H 0.78324 0.19273 0.18037 0.0
H1136 H 0.76912 0.2217 0.17168 0.0
H1137 H 0.75984 0.20212 0.07453 0.0
O1138 O 0.83765 0.26981 0.12488 0.0
H1139 H 0.841 0.23759 0.22106 0.0
H1140 H 0.86649 0.27501 0.12709 0.0
H1141 H 0.75802 0.16725 0.19732 0.0
H1142 H 0.77853 0.25807 0.04548 0.0
H1143 H 0.73336 0.15908 0.15203 0.0
H1144 H 0.75967 0.25582 0.10528 0.0
O1145 O 0.80475 0.20651 0.11767 0.0
H1146 H 0.84926 0.261 0.97746 0.0
H1147 H 0.8562 0.23615 0.11235 0.0
H1148 H 0.87081 0.23671 0.04462 0.0
H1149 H 0.8674 0.24922 0.97654 0.0
H1150 H 0.83475 0.26003 0.04577 0.0
H1151 H 0.89137 0.286 0.17206 0.0
H1152 H 0.89106 0.27249 0.24245 0.0
O1153 O 0.8286 0.2247 0.14748 0.0
C1154 C 0.80668 0.23445 0.20362 0.0
C1155 C 0.86593 0.25409 0.23625 0.0
C1156 C 0.88037 0.27536 0.18305 0.0
N1157 N 0.85232 0.25562 0.17132 0.0
C1158 C 0.85203 0.24816 0.2101 0.0
C1159 C 0.86623 0.2691 0.15777 0.0
C1160 C 0.88019 0.26777 0.22253 0.0
C1161 C 0.78418 0.241 0.07584 0.0
N1162 N 0.78155 0.23095 0.11087 0.0
C1163 C 0.77636 0.25009 0.07325 0.0
C1164 C 0.7658 0.24884 0.10685 0.0
C1165 C 0.7632 0.23857 0.1425 0.0
C1166 C 0.77124 0.22968 0.14402 0.0
C1167 C 0.74505 0.18012 0.11016 0.0
C1168 C 0.77253 0.18931 0.16067 0.0
C1169 C 0.75949 0.1945 0.10144 0.0
N1170 N 0.77297 0.19897 0.12676 0.0
C1171 C 0.7583 0.17484 0.17036 0.0
C1172 C 0.74448 0.17026 0.14491 0.0
C1173 C 0.81826 0.21026 0.13597 0.0
C1174 C 0.85089 0.25556 0.00695 0.0
C1175 C 0.8546 0.24156 0.08284 0.0
C1176 C 0.86294 0.24189 0.04461 0.0
C1177 C 0.86104 0.24892 0.00643 0.0
N1178 N 0.84466 0.2481 0.0831 0.0
C1179 C 0.84276 0.25504 0.0458 0.0
Co1180 Co 0.78367 0.57812 0.10917 0.0
Co1181 Co 0.75396 0.58769 0.13115 0.0
O1182 O 0.76242 0.57597 0.09723 0.0
C1183 C 0.78448 0.58428 0.01406 0.0
O1184 O 0.77845 0.59373 0.02278 0.0
C1185 C 0.72579 0.55356 0.1247 0.0
O1186 O 0.73556 0.54756 0.12482 0.0
O1187 O 0.75746 0.57912 0.1875 0.0
O1188 O 0.78074 0.57935 0.17359 0.0
H1189 H 0.75429 0.62303 0.25479 0.0
H1190 H 0.76052 0.5509 0.0526 0.0
O1191 O 0.78727 0.57701 0.04496 0.0
H1192 H 0.77081 0.52515 0.18014 0.0
H1193 H 0.82833 0.56502 0.08688 0.0
H1194 H 0.81117 0.59873 0.16854 0.0
H1195 H 0.78428 0.55495 0.17446 0.0
H1196 H 0.80149 0.56222 0.07335 0.0
O1197 O 0.73138 0.56879 0.12729 0.0
H1198 H 0.76481 0.60843 0.21109 0.0
H1199 H 0.72466 0.59138 0.12372 0.0
H1200 H 0.83807 0.60184 0.1833 0.0
H1201 H 0.74699 0.52105 0.05663 0.0
H1202 H 0.8468 0.58491 0.14232 0.0
H1203 H 0.75205 0.50799 0.12085 0.0
O1204 O 0.79453 0.6022 0.10543 0.0
H1205 H 0.73501 0.58329 0.97442 0.0
H1206 H 0.76212 0.62058 0.0988 0.0
H1207 H 0.75858 0.63144 0.02847 0.0
H1208 H 0.7449 0.61274 0.96567 0.0
H1209 H 0.73897 0.57297 0.04518 0.0
H1210 H 0.71365 0.60569 0.16669 0.0
H1211 H 0.72852 0.62171 0.23264 0.0
O1212 O 0.77605 0.60719 0.13617 0.0
C1213 C 0.76992 0.57846 0.20002 0.0
C1214 C 0.74771 0.61612 0.22605 0.0
C1215 C 0.7249 0.60637 0.17663 0.0
N1216 N 0.74543 0.59914 0.16473 0.0
C1217 C 0.75363 0.60785 0.20111 0.0
C1218 C 0.73118 0.59826 0.15249 0.0
C1219 C 0.73325 0.61537 0.21363 0.0
C1220 C 0.76293 0.54531 0.08041 0.0
N1221 N 0.7732 0.55467 0.11321 0.0
C1222 C 0.75516 0.5284 0.08262 0.0
C1223 C 0.75799 0.52108 0.1187 0.0
C1224 C 0.76849 0.5307 0.15201 0.0
C1225 C 0.77603 0.54757 0.14871 0.0
C1226 C 0.82465 0.57244 0.10502 0.0
C1227 C 0.81484 0.59125 0.15076 0.0
C1228 C 0.80947 0.57093 0.09746 0.0
N1229 N 0.80471 0.5802 0.12042 0.0
C1230 C 0.83011 0.5931 0.15917 0.0
C1231 C 0.83501 0.5836 0.13614 0.0
C1232 C 0.79035 0.61184 0.12229 0.0
C1233 C 0.74093 0.59156 0.00159 0.0
C1234 C 0.75622 0.61237 0.0716 0.0
C1235 C 0.7542 0.61859 0.03188 0.0
C1236 C 0.74651 0.60808 -0.00332 0.0
N1237 N 0.75069 0.59614 0.07619 0.0
C1238 C 0.74314 0.58577 0.04182 0.0
Co1239 Co 0.54238 0.09286 0.04873 0.0
Co1240 Co 0.50253 0.08185 0.02869 0.0
O1241 O 0.52279 0.094 0.06197 0.0
C1242 C 0.53715 0.08545 0.14318 0.0
O1243 O 0.52181 0.07559 0.13378 0.0
C1244 C 0.50748 0.11556 0.03477 0.0
O1245 O 0.52327 0.12195 0.03193 0.0
O1246 O 0.51419 0.09079 0.97195 0.0
O1247 O 0.53807 0.0921 0.98447 0.0
H1248 H 0.46754 0.04617 0.90551 0.0
H1249 H 0.5452 0.11898 0.10777 0.0
O1250 O 0.54719 0.09347 0.11285 0.0
H1251 H 0.5808 0.14714 0.98116 0.0
H1252 H 0.60084 0.10811 0.06905 0.0
H1253 H 0.55034 0.07375 0.98662 0.0
H1254 H 0.5656 0.11725 0.9847 0.0
H1255 H 0.57612 0.10952 0.0844 0.0
O1256 O 0.49814 0.10025 0.03376 0.0
H1257 H 0.49281 0.06132 0.94835 0.0
H1258 H 0.46914 0.07697 0.03807 0.0
H1259 H 0.57481 0.07204 0.97 0.0
H1260 H 0.56036 0.14891 0.10585 0.0
H1261 H 0.6003 0.08932 0.01136 0.0
H1262 H 0.57827 0.16318 0.04211 0.0
O1263 O 0.52999 0.06868 0.05062 0.0
H1264 H 0.48845 0.08531 0.18654 0.0
H1265 H 0.47878 0.0486 0.06103 0.0
H1266 H 0.46496 0.03726 0.1318 0.0
H1267 H 0.46974 0.05567 0.19517 0.0
H1268 H 0.50216 0.09611 0.11531 0.0
H1269 H 0.44365 0.0621 0.99601 0.0
H1270 H 0.44272 0.0465 0.9293 0.0
O1271 O 0.50588 0.06286 0.02256 0.0
C1272 C 0.52763 0.09236 0.9587 0.0
C1273 C 0.46778 0.05289 0.93458 0.0
C1274 C 0.45438 0.06184 0.98534 0.0
N1275 N 0.48244 0.06995 0.99582 0.0
C1276 C 0.48204 0.06147 0.95903 0.0
C1277 C 0.46886 0.07028 0.00897 0.0
C1278 C 0.45386 0.05309 0.94792 0.0
C1279 C 0.5531 0.12511 0.08015 0.0
N1280 N 0.55454 0.11638 0.04646 0.0
C1281 C 0.5616 0.14206 0.07915 0.0
C1282 C 0.57162 0.15006 0.04334 0.0
C1283 C 0.57303 0.14106 0.0091 0.0
C1284 C 0.56434 0.12414 0.0112 0.0
C1285 C 0.58982 0.10055 0.05074 0.0
C1286 C 0.56141 0.08138 0.00459 0.0
C1287 C 0.57578 0.10128 0.05933 0.0
N1288 N 0.56184 0.09183 0.03616 0.0
C1289 C 0.57522 0.08032 0.99511 0.0
C1290 C 0.58951 0.09001 0.01836 0.0
C1291 C 0.5161 0.05871 0.03473 0.0
C1292 C 0.48623 0.07717 0.15913 0.0
C1293 C 0.48098 0.05668 0.08847 0.0
C1294 C 0.47308 0.0502 0.12844 0.0
C1295 C 0.47575 0.06054 0.16397 0.0
N1296 N 0.49122 0.07301 0.08396 0.0
C1297 C 0.49389 0.08322 0.11864 0.0
Co1298 Co 0.90801 0.45074 0.04539 0.0
Co1299 Co 0.91925 0.42204 0.02559 0.0
O1300 O 0.90758 0.43044 0.0598 0.0
C1301 C 0.91801 0.45479 0.13801 0.0
O1302 O 0.92792 0.44955 0.1268 0.0
C1303 C 0.88583 0.39315 0.03589 0.0
O1304 O 0.87924 0.40234 0.03193 0.0
O1305 O 0.90916 0.42377 0.9698 0.0
O1306 O 0.90719 0.44605 0.9814 0.0
H1307 H 0.95278 0.4213 0.89849 0.0
H1308 H 0.88368 0.42817 0.10962 0.0
O1309 O 0.90896 0.45601 0.10928 0.0
H1310 H 0.85189 0.43283 0.9879 0.0
H1311 H 0.89231 0.4936 0.06624 0.0
H1312 H 0.925 0.47668 0.97872 0.0
H1313 H 0.8818 0.44803 0.98578 0.0
H1314 H 0.89186 0.46802 0.0831 0.0
O1315 O 0.90116 0.39928 0.034 0.0
H1316 H 0.93822 0.43181 0.94245 0.0
H1317 H 0.92475 0.39395 0.03597 0.0
H1318 H 0.92571 0.50229 0.96051 0.0
H1319 H 0.85379 0.41291 0.11333 0.0
H1320 H 0.90927 0.51089 0.00442 0.0
H1321 H 0.83768 0.41515 0.05208 0.0
O1322 O 0.93219 0.46291 0.04264 0.0
H1323 H 0.91902 0.40708 0.18462 0.0
H1324 H 0.95317 0.43238 0.05359 0.0
H1325 H 0.96595 0.43121 0.12316 0.0
H1326 H 0.94883 0.41846 0.18931 0.0
H1327 H 0.90676 0.40866 0.11448 0.0
H1328 H 0.93906 0.38296 0.99284 0.0
H1329 H 0.95326 0.3967 0.92364 0.0
O1330 O 0.93789 0.44434 0.01613 0.0
C1331 C 0.90681 0.43514 0.95624 0.0
C1332 C 0.94666 0.41523 0.92863 0.0
C1333 C 0.93895 0.3937 0.98156 0.0
N1334 N 0.9307 0.41356 0.99184 0.0
C1335 C 0.93842 0.42114 0.95371 0.0
C1336 C 0.93083 0.39996 0.00578 0.0
C1337 C 0.94692 0.40142 0.94274 0.0
C1338 C 0.87676 0.42933 0.08305 0.0
N1339 N 0.88448 0.43902 0.04761 0.0
C1340 C 0.85983 0.42061 0.08524 0.0
C1341 C 0.85081 0.42185 0.05083 0.0
C1342 C 0.85877 0.43175 0.01479 0.0
C1343 C 0.87571 0.44028 0.0137 0.0
C1344 C 0.89949 0.48996 0.04681 0.0
C1345 C 0.91774 0.4803 -0.00217 0.0
C1346 C 0.89931 0.47551 0.05625 0.0
N1347 N 0.9083 0.4708 0.03169 0.0
C1348 C 0.91823 0.49483 0.98743 0.0
C1349 C 0.90901 0.49966 0.01211 0.0
C1350 C 0.94202 0.45888 0.02632 0.0
C1351 C 0.9266 0.41261 0.15598 0.0
C1352 C 0.94564 0.42686 0.08224 0.0
C1353 C 0.95294 0.42619 0.12153 0.0
C1354 C 0.94333 0.41903 0.15861 0.0
N1355 N 0.92922 0.42053 0.0799 0.0
C1356 C 0.91971 0.41347 0.11612 0.0
Co1357 Co 0.55104 0.46235 0.05027 0.0
Co1358 Co 0.58034 0.50157 0.02839 0.0
O1359 O 0.57182 0.48172 0.0635 0.0
C1360 C 0.54894 0.46759 0.14494 0.0
O1361 O 0.55453 0.48299 0.13602 0.0
C1362 C 0.60891 0.49652 0.03643 0.0
O1363 O 0.60007 0.48139 0.02343 0.0
O1364 O 0.57831 0.48924 0.97326 0.0
O1365 O 0.55468 0.46645 0.986 0.0
H1366 H 0.58161 0.53544 0.89961 0.0
H1367 H 0.57463 0.45975 0.10856 0.0
O1368 O 0.54681 0.45763 0.11432 0.0
H1369 H 0.56583 0.42294 0.98392 0.0
H1370 H 0.507 0.40425 0.07118 0.0
H1371 H 0.52414 0.4548 0.988 0.0
H1372 H 0.55134 0.43833 0.98744 0.0
H1373 H 0.53342 0.42866 0.08627 0.0
O1374 O 0.60285 0.50578 0.03825 0.0
H1375 H 0.57073 0.5106 0.9447 0.0
H1376 H 0.609 0.53489 0.03713 0.0
H1377 H 0.49768 0.43064 0.97163 0.0
H1378 H 0.58928 0.44448 0.10656 0.0
H1379 H 0.48896 0.40513 0.01338 0.0
H1380 H 0.58494 0.42594 0.04384 0.0
O1381 O 0.53979 0.47524 0.0518 0.0
H1382 H 0.59577 0.51757 0.18666 0.0
H1383 H 0.57064 0.52583 0.05434 0.0
H1384 H 0.57233 0.5406 0.12273 0.0
H1385 H 0.585 0.53655 0.18951 0.0
H1386 H 0.59366 0.50288 0.11776 0.0
H1387 H 0.62036 0.55996 0.99287 0.0
H1388 H 0.6066 0.56036 0.92365 0.0
O1389 O 0.55811 0.49823 0.01852 0.0
C1390 C 0.56595 0.4761 0.96021 0.0
C1391 C 0.58769 0.53543 0.92976 0.0
C1392 C 0.60945 0.54919 0.98207 0.0
N1393 N 0.58916 0.52131 0.99364 0.0
C1394 C 0.58157 0.52141 0.95548 0.0
C1395 C 0.60298 0.53494 0.00694 0.0
C1396 C 0.60172 0.5494 0.94325 0.0
C1397 C 0.57258 0.4516 0.08136 0.0
N1398 N 0.56209 0.44988 0.04827 0.0
C1399 C 0.58095 0.44303 0.08032 0.0
C1400 C 0.57853 0.43265 0.04509 0.0
C1401 C 0.56782 0.43097 0.01144 0.0
C1402 C 0.55967 0.43975 0.01355 0.0
C1403 C 0.51068 0.41528 0.05271 0.0
C1404 C 0.52047 0.44372 0.00614 0.0
C1405 C 0.52561 0.42915 0.06116 0.0
N1406 N 0.53037 0.44311 0.0378 0.0
C1407 C 0.50546 0.43009 -0.0032 0.0
C1408 C 0.50057 0.41578 0.02026 0.0
C1409 C 0.54382 0.4887 0.03282 0.0
C1410 C 0.59026 0.51948 0.15775 0.0
C1411 C 0.57609 0.52392 0.0833 0.0
C1412 C 0.57706 0.53236 0.12191 0.0
C1413 C 0.58419 0.5301 0.15935 0.0
N1414 N 0.58207 0.51352 0.08197 0.0
C1415 C 0.5891 0.51125 0.11856 0.0
Co1416 Co 0.57767 0.7951 0.88152 0.0
Co1417 Co 0.58809 0.83457 0.85847 0.0
O1418 O 0.57652 0.81473 0.89368 0.0
C1419 C 0.58609 0.80144 0.97533 0.0
O1420 O 0.5958 0.8167 0.96474 0.0
C1421 C 0.5543 0.8291 0.86551 0.0
O1422 O 0.54824 0.81338 0.86168 0.0
O1423 O 0.57852 0.8222 0.80302 0.0
O1424 O 0.5776 0.79859 0.81703 0.0
H1425 H 0.62203 0.86827 0.73117 0.0
H1426 H 0.55216 0.79291 0.942 0.0
O1427 O 0.57782 0.79109 0.94588 0.0
H1428 H 0.5227 0.75559 0.81948 0.0
H1429 H 0.56312 0.73703 0.9063 0.0
H1430 H 0.5962 0.78658 0.81889 0.0
H1431 H 0.55262 0.77094 0.82049 0.0
H1432 H 0.56164 0.7618 0.92013 0.0
O1433 O 0.56957 0.83872 0.8646 0.0
H1434 H 0.60763 0.8435 0.77636 0.0
H1435 H 0.59266 0.8679 0.86558 0.0
H1436 H 0.59797 0.76205 0.80375 0.0
H1437 H 0.52223 0.77764 0.94259 0.0
H1438 H 0.58134 0.73704 0.84763 0.0
H1439 H 0.5073 0.75886 0.88092 0.0
O1440 O 0.60184 0.80767 0.88125 0.0
H1441 H 0.58641 0.85046 0.01559 0.0
H1442 H 0.62164 0.85894 0.8873 0.0
H1443 H 0.63375 0.87366 0.9565 0.0
H1444 H 0.61609 0.86948 0.02126 0.0
H1445 H 0.57483 0.83586 0.94589 0.0
H1446 H 0.60679 0.8929 0.82116 0.0
H1447 H 0.62167 0.89321 0.75351 0.0
O1448 O 0.60714 0.83137 0.85132 0.0
C1449 C 0.57689 0.80864 0.79069 0.0
C1450 C 0.61562 0.8683 0.76064 0.0
C1451 C 0.60706 0.88212 0.81111 0.0
N1452 N 0.59939 0.85427 0.82371 0.0
C1453 C 0.60748 0.85432 0.78641 0.0
C1454 C 0.59904 0.86791 0.83607 0.0
C1455 C 0.61541 0.88228 0.77317 0.0
C1456 C 0.54575 0.78463 0.91529 0.0
N1457 N 0.55413 0.78279 0.88133 0.0
C1458 C 0.5288 0.77608 0.9157 0.0
C1459 C 0.52044 0.76556 0.88104 0.0
C1460 C 0.52907 0.76373 0.84654 0.0
C1461 C 0.54601 0.77251 0.84721 0.0
C1462 C 0.57039 0.74784 0.88689 0.0
C1463 C 0.58885 0.77572 0.83795 0.0
C1464 C 0.56963 0.76191 0.89462 0.0
N1465 N 0.57872 0.77559 0.87009 0.0
C1466 C 0.58994 0.76188 0.82931 0.0
C1467 C 0.58062 0.74785 0.85396 0.0
C1468 C 0.61154 0.82137 0.86389 0.0
C1469 C 0.59423 0.85243 0.98756 0.0
C1470 C 0.61388 0.857 0.91536 0.0
C1471 C 0.6208 0.86541 0.95443 0.0
C1472 C 0.61088 0.86307 0.99074 0.0
N1473 N 0.59753 0.84659 0.91248 0.0
C1474 C 0.58773 0.84425 0.94793 0.0
Co1475 Co 0.20746 0.78306 0.88106 0.0
Co1476 Co 0.16812 0.75342 0.85998 0.0
O1477 O 0.18826 0.76204 0.89392 0.0
C1478 C 0.20185 0.78468 0.97556 0.0
O1479 O 0.18651 0.77902 0.96578 0.0
C1480 C 0.17419 0.72546 0.86595 0.0
O1481 O 0.18976 0.73525 0.85945 0.0
O1482 O 0.18015 0.75629 0.80386 0.0
O1483 O 0.20332 0.77961 0.81659 0.0
H1484 H 0.13317 0.75265 0.7347 0.0
H1485 H 0.21086 0.7599 0.9393 0.0
O1486 O 0.21207 0.7871 0.94536 0.0
H1487 H 0.24721 0.76905 0.81327 0.0
H1488 H 0.26535 0.82748 0.90259 0.0
H1489 H 0.21472 0.81013 0.81962 0.0
H1490 H 0.23133 0.78303 0.81726 0.0
H1491 H 0.24111 0.80089 0.9172 0.0
O1492 O 0.1644 0.73092 0.86635 0.0
H1493 H 0.15831 0.76351 0.77847 0.0
H1494 H 0.13505 0.72439 0.86897 0.0
H1495 H 0.23871 0.83676 0.80374 0.0
H1496 H 0.22667 0.74581 0.93688 0.0
H1497 H 0.26426 0.8456 0.84537 0.0
H1498 H 0.24497 0.75032 0.87344 0.0
O1499 O 0.1944 0.79414 0.88313 0.0
H1500 H 0.1536 0.73617 0.01787 0.0
H1501 H 0.1436 0.76216 0.89041 0.0
H1502 H 0.12932 0.75951 0.96047 0.0
H1503 H 0.13427 0.74641 0.02481 0.0
H1504 H 0.16775 0.73922 0.94733 0.0
H1505 H 0.1097 0.71304 0.82598 0.0
H1506 H 0.10863 0.72723 0.7584 0.0
O1507 O 0.17088 0.77551 0.85288 0.0
C1508 C 0.1933 0.76859 0.79071 0.0
C1509 C 0.13347 0.74637 0.76413 0.0
C1510 C 0.12031 0.72413 0.81533 0.0
N1511 N 0.14814 0.74464 0.82635 0.0
C1512 C 0.14767 0.75248 0.7891 0.0
C1513 C 0.13471 0.73059 0.83947 0.0
C1514 C 0.11971 0.7321 0.77743 0.0
C1515 C 0.21892 0.76205 0.91181 0.0
N1516 N 0.22021 0.77232 0.87856 0.0
C1517 C 0.22779 0.75398 0.91053 0.0
C1518 C 0.23803 0.75649 0.87488 0.0
C1519 C 0.23928 0.76699 0.84109 0.0
C1520 C 0.23022 0.77483 0.84346 0.0
C1521 C 0.2543 0.82376 0.88416 0.0
C1522 C 0.22582 0.81384 0.83769 0.0
C1523 C 0.24053 0.80872 0.89233 0.0
N1524 N 0.22655 0.8039 0.869 0.0
C1525 C 0.23935 0.82896 0.82864 0.0
C1526 C 0.25368 0.83391 0.85204 0.0
C1527 C 0.1806 0.7899 0.86607 0.0
C1528 C 0.1513 0.74185 0.99002 0.0
C1529 C 0.14587 0.75651 0.91828 0.0
C1530 C 0.13771 0.755 0.95784 0.0
C1531 C 0.14048 0.74763 0.99392 0.0
N1532 N 0.15646 0.75081 0.9147 0.0
C1533 C 0.15922 0.74355 0.94992 0.0
Co1534 Co 0.21762 0.42561 0.88281 0.0
Co1535 Co 0.24676 0.41495 0.86351 0.0
O1536 O 0.23825 0.42672 0.89686 0.0
C1537 C 0.21475 0.4173 0.97667 0.0
O1538 O 0.22027 0.40751 0.96679 0.0
C1539 C 0.27504 0.4488 0.86991 0.0
O1540 O 0.26539 0.45481 0.86454 0.0
O1541 O 0.24435 0.42419 0.80695 0.0
O1542 O 0.22175 0.42554 0.81872 0.0
H1543 H 0.2474 0.3803 0.73935 0.0
H1544 H 0.24048 0.45118 0.94391 0.0
O1545 O 0.21291 0.42558 0.94677 0.0
H1546 H 0.23383 0.48051 0.81892 0.0
H1547 H 0.17404 0.44038 0.90255 0.0
H1548 H 0.19115 0.40709 0.81861 0.0
H1549 H 0.21914 0.45059 0.82038 0.0
H1550 H 0.2001 0.44176 0.91888 0.0
O1551 O 0.26938 0.43352 0.87009 0.0
H1552 H 0.23672 0.39494 0.7822 0.0
H1553 H 0.27545 0.41043 0.87383 0.0
H1554 H 0.16506 0.40543 0.80097 0.0
H1555 H 0.25525 0.48111 0.94404 0.0
H1556 H 0.15636 0.42216 0.84309 0.0
H1557 H 0.25201 0.49597 0.88114 0.0
O1558 O 0.20592 0.40143 0.88289 0.0
H1559 H 0.26324 0.41755 0.02207 0.0
H1560 H 0.23733 0.38157 0.89451 0.0
H1561 H 0.23944 0.36986 0.96504 0.0
H1562 H 0.2525 0.3879 0.02944 0.0
H1563 H 0.26073 0.42873 0.95105 0.0
H1564 H 0.28662 0.39605 0.83178 0.0
H1565 H 0.27253 0.38079 0.7641 0.0
O1566 O 0.22456 0.39587 0.85595 0.0
C1567 C 0.23263 0.42597 0.79337 0.0
C1568 C 0.25363 0.38687 0.76884 0.0
C1569 C 0.27565 0.39573 0.82069 0.0
N1570 N 0.25539 0.40346 0.83061 0.0
C1571 C 0.24762 0.39516 0.7933 0.0
C1572 C 0.26929 0.40388 0.8443 0.0
C1573 C 0.26774 0.38716 0.78273 0.0
C1574 C 0.23888 0.45756 0.91664 0.0
N1575 N 0.22892 0.44914 0.88226 0.0
C1576 C 0.24733 0.47451 0.9168 0.0
C1577 C 0.24552 0.48284 0.88146 0.0
C1578 C 0.23534 0.47417 0.84652 0.0
C1579 C 0.2271 0.45723 0.84746 0.0
C1580 C 0.17772 0.43306 0.8839 0.0
C1581 C 0.18749 0.41448 0.83692 0.0
C1582 C 0.19244 0.43376 0.89305 0.0
N1583 N 0.1972 0.42461 0.86947 0.0
C1584 C 0.17268 0.41346 0.82685 0.0
C1585 C 0.1678 0.42284 0.85053 0.0
C1586 C 0.21005 0.3916 0.86707 0.0
C1587 C 0.25758 0.40957 0.99421 0.0
C1588 C 0.24298 0.3895 0.9224 0.0
C1589 C 0.24418 0.3828 0.96223 0.0
C1590 C 0.25152 0.39293 -0.00166 0.0
N1591 N 0.24896 0.40584 0.91859 0.0
C1592 C 0.25619 0.41584 0.95384 0.0
Co1593 Co 0.46039 0.90976 0.9452 0.0
Co1594 Co 0.50015 0.9211 0.96584 0.0
O1595 O 0.48042 0.90988 0.93032 0.0
C1596 C 0.46634 0.92049 0.853 0.0
O1597 O 0.4814 0.93066 0.86442 0.0
C1598 C 0.49625 0.88812 0.95335 0.0
O1599 O 0.48116 0.88126 0.96712 0.0
O1600 O 0.488 0.90957 0.02013 0.0
O1601 O 0.46411 0.90839 0.00903 0.0
H1602 H 0.53336 0.95203 0.09737 0.0
H1603 H 0.45967 0.8862 0.88002 0.0
O1604 O 0.45616 0.91114 0.88148 0.0
H1605 H 0.42253 0.85297 -0.00105 0.0
H1606 H 0.40169 0.89351 0.92422 0.0
H1607 H 0.45097 0.9259 0.01324 0.0
H1608 H 0.43665 0.88285 0.00269 0.0
H1609 H 0.42704 0.89354 0.90695 0.0
O1610 O 0.50511 0.9035 0.9525 0.0
H1611 H 0.50862 0.93825 0.05186 0.0
H1612 H 0.53389 0.92708 0.95527 0.0
H1613 H 0.42585 0.92613 0.03186 0.0
H1614 H 0.4457 0.85635 0.87475 0.0
H1615 H 0.40098 0.90984 0.98719 0.0
H1616 H 0.427 0.83953 0.93457 0.0
O1617 O 0.4722 0.93388 0.94954 0.0
H1618 H 0.51635 0.92514 0.80652 0.0
H1619 H 0.5235 0.95574 0.94392 0.0
H1620 H 0.53797 0.97039 0.87665 0.0
H1621 H 0.53446 0.95506 0.80732 0.0
H1622 H 0.50197 0.911 0.8744 0.0
H1623 H 0.55888 0.94065 -0.00012 0.0
H1624 H 0.55873 0.9533 0.07141 0.0
O1625 O 0.49597 0.93923 0.97927 0.0
C1626 C 0.47432 0.90728 0.03381 0.0
C1627 C 0.53359 0.9466 0.0662 0.0
C1628 C 0.54791 0.94019 0.01152 0.0
N1629 N 0.51982 0.93194 0.00084 0.0
C1630 C 0.51962 0.93881 0.04025 0.0
C1631 C 0.5337 0.93249 0.98646 0.0
C1632 C 0.54782 0.9473 0.05164 0.0
C1633 C 0.45145 0.87896 0.90599 0.0
N1634 N 0.44892 0.88626 0.9415 0.0
C1635 C 0.44361 0.86206 0.90291 0.0
C1636 C 0.43314 0.85263 0.93651 0.0
C1637 C 0.43064 0.86017 0.97266 0.0
C1638 C 0.4387 0.87709 0.97465 0.0
C1639 C 0.41244 0.90063 0.94398 0.0
C1640 C 0.44017 0.91871 0.9938 0.0
C1641 C 0.42684 0.90072 0.93431 0.0
N1642 N 0.44043 0.90961 0.95929 0.0
C1643 C 0.42599 0.91892 0.00443 0.0
C1644 C 0.41205 0.90979 0.97932 0.0
C1645 C 0.48569 0.94347 0.96821 0.0
C1646 C 0.51802 0.93195 0.83655 0.0
C1647 C 0.52184 0.94899 0.91385 0.0
C1648 C 0.53011 0.95735 0.87589 0.0
C1649 C 0.52815 0.94874 0.83701 0.0
N1650 N 0.51192 0.93252 0.91316 0.0
C1651 C 0.50996 0.924 0.87517 0.0
Co1652 Co 0.0909 0.55151 0.94414 0.0
Co1653 Co 0.08105 0.58098 0.96601 0.0
O1654 O 0.09223 0.57227 0.93091 0.0
C1655 C 0.08248 0.54894 0.85022 0.0
O1656 O 0.07289 0.55471 0.86 0.0
C1657 C 0.11491 0.60895 0.958 0.0
O1658 O 0.12072 0.59932 0.96694 0.0
O1659 O 0.09102 0.57863 0.02134 0.0
O1660 O 0.09114 0.55547 0.00834 0.0
H1661 H 0.04835 0.58238 0.09432 0.0
H1662 H 0.11643 0.57457 0.88335 0.0
O1663 O 0.09065 0.54693 0.88012 0.0
H1664 H 0.14583 0.56669 0.00601 0.0
H1665 H 0.10472 0.50735 0.92192 0.0
H1666 H 0.07226 0.52494 0.00798 0.0
H1667 H 0.11591 0.55226 0.00512 0.0
H1668 H 0.10653 0.53367 0.90671 0.0
O1669 O 0.09966 0.60345 0.95741 0.0
H1670 H 0.06219 0.57135 0.04931 0.0
H1671 H 0.07673 0.60984 0.95734 0.0
H1672 H 0.07017 0.49859 0.0245 0.0
H1673 H 0.14636 0.58912 0.88268 0.0
H1674 H 0.08648 0.48963 0.98131 0.0
H1675 H 0.16126 0.58525 0.94441 0.0
O1676 O 0.06675 0.5402 0.94458 0.0
H1677 H 0.08147 0.59706 0.80792 0.0
H1678 H 0.04733 0.57178 0.93897 0.0
H1679 H 0.03468 0.57385 0.87017 0.0
H1680 H 0.05179 0.5866 0.80403 0.0
H1681 H 0.0936 0.59458 0.87725 0.0
H1682 H 0.06317 0.62137 0.00154 0.0
H1683 H 0.04878 0.60757 0.07049 0.0
O1684 O 0.06194 0.55886 0.97511 0.0
C1685 C 0.09237 0.56658 0.03416 0.0
C1686 C 0.05455 0.58849 0.0643 0.0
C1687 C 0.06288 0.61038 0.01226 0.0
N1688 N 0.07021 0.5899 0.00064 0.0
C1689 C 0.06238 0.58228 0.03863 0.0
C1690 C 0.07059 0.60382 0.98743 0.0
C1691 C 0.05481 0.60263 0.05093 0.0
C1692 C 0.12283 0.57271 0.91011 0.0
N1693 N 0.11443 0.56253 0.94414 0.0
C1694 C 0.13978 0.58103 0.90965 0.0
C1695 C 0.14812 0.57887 0.94433 0.0
C1696 C 0.13947 0.56847 0.97892 0.0
C1697 C 0.12253 0.56037 0.97831 0.0
C1698 C 0.09758 0.51113 0.94103 0.0
C1699 C 0.07947 0.52118 0.9892 0.0
C1700 C 0.09853 0.52601 0.93251 0.0
N1701 N 0.08961 0.5309 0.95667 0.0
C1702 C 0.0782 0.50622 -0.00137 0.0
C1703 C 0.08734 0.5012 0.97436 0.0
C1704 C 0.05728 0.54441 0.96243 0.0
C1705 C 0.07389 0.59152 0.83656 0.0
C1706 C 0.05485 0.57727 0.9103 0.0
C1707 C 0.04762 0.57846 0.87146 0.0
C1708 C 0.05723 0.58563 0.83437 0.0
N1709 N 0.0712 0.58309 0.91221 0.0
C1710 C 0.0807 0.59015 0.87598 0.0
Co1711 Co 0.4501 0.54391 0.94687 0.0
Co1712 Co 0.42153 0.50422 0.96761 0.0
O1713 O 0.43007 0.52395 0.93218 0.0
C1714 C 0.45466 0.53764 0.85493 0.0
O1715 O 0.44993 0.52272 0.86737 0.0
C1716 C 0.39239 0.50808 0.95522 0.0
O1717 O 0.40054 0.52318 0.96895 0.0
O1718 O 0.42224 0.5164 0.02185 0.0
O1719 O 0.44514 0.54018 0.01096 0.0
H1720 H 0.4192 0.47098 0.09913 0.0
H1721 H 0.42727 0.54486 0.88205 0.0
O1722 O 0.45554 0.54802 0.88285 0.0
H1723 H 0.43156 0.58196 0.00157 0.0
H1724 H 0.49271 0.60251 0.92534 0.0
H1725 H 0.47581 0.55325 0.01446 0.0
H1726 H 0.44715 0.56765 0.00483 0.0
H1727 H 0.46729 0.5772 0.9084 0.0
O1728 O 0.39898 0.49929 0.95435 0.0
H1729 H 0.4302 0.49572 0.0536 0.0
H1730 H 0.39373 0.4705 0.95706 0.0
H1731 H 0.50125 0.57832 0.03275 0.0
H1732 H 0.41156 0.55902 0.87727 0.0
H1733 H 0.50984 0.60319 0.98803 0.0
H1734 H 0.41363 0.5777 0.93738 0.0
O1735 O 0.46231 0.53198 0.95096 0.0
H1736 H 0.40937 0.4881 0.80824 0.0
H1737 H 0.43275 0.48082 0.94559 0.0
H1738 H 0.43292 0.46639 0.87825 0.0
H1739 H 0.42115 0.46997 0.80893 0.0
H1740 H 0.4096 0.50244 0.8762 0.0
H1741 H 0.38227 0.44551 0.00169 0.0
H1742 H 0.39506 0.44563 0.07321 0.0
O1743 O 0.44381 0.50833 0.98097 0.0
C1744 C 0.43381 0.52995 0.03577 0.0
C1745 C 0.41354 0.47076 0.06797 0.0
C1746 C 0.3928 0.45647 0.01331 0.0
N1747 N 0.41268 0.48454 0.0026 0.0
C1748 C 0.41973 0.48473 0.04201 0.0
C1749 C 0.39932 0.47068 0.98824 0.0
C1750 C 0.39999 0.45655 0.05343 0.0
C1751 C 0.42834 0.55308 0.90814 0.0
N1752 N 0.43819 0.5555 0.94353 0.0
C1753 C 0.41937 0.56101 0.90534 0.0
C1754 C 0.42052 0.57148 0.93911 0.0
C1755 C 0.43057 0.57386 0.97514 0.0
C1756 C 0.43934 0.5657 0.97685 0.0
C1757 C 0.48907 0.59176 0.94512 0.0
C1758 C 0.47942 0.56405 0.995 0.0
C1759 C 0.47471 0.57739 0.93565 0.0
N1760 N 0.47001 0.56381 0.96066 0.0
C1761 C 0.49386 0.5782 0.00545 0.0
C1762 C 0.49868 0.59214 0.98031 0.0
C1763 C 0.45833 0.5185 0.96975 0.0
C1764 C 0.41449 0.4864 0.83827 0.0
C1765 C 0.42766 0.4825 0.91554 0.0
C1766 C 0.42775 0.47425 0.87753 0.0
C1767 C 0.42113 0.47625 0.83866 0.0
N1768 N 0.42113 0.49244 0.91491 0.0
C1769 C 0.41459 0.49443 0.87693 0.0
Co1770 Co 0.09509 0.54338 0.44462 0.0
Co1771 Co 0.08456 0.5037 0.4662 0.0
O1772 O 0.09601 0.52368 0.43147 0.0
C1773 C 0.08525 0.53685 0.35191 0.0
O1774 O 0.07567 0.52164 0.3632 0.0
C1775 C 0.11843 0.50932 0.45827 0.0
O1776 O 0.12449 0.52507 0.46112 0.0
O1777 O 0.09403 0.51583 0.52205 0.0
O1778 O 0.09595 0.53996 0.50875 0.0
H1779 H 0.05062 0.46936 0.59265 0.0
H1780 H 0.11971 0.54534 0.38114 0.0
O1781 O 0.09409 0.54728 0.38057 0.0
H1782 H 0.15092 0.58277 0.50182 0.0
H1783 H 0.10962 0.60149 0.4209 0.0
H1784 H 0.07758 0.55216 0.51003 0.0
H1785 H 0.121 0.56755 0.50375 0.0
H1786 H 0.11071 0.57659 0.40558 0.0
O1787 O 0.10317 0.4997 0.45981 0.0
H1788 H 0.06493 0.49432 0.54817 0.0
H1789 H 0.08023 0.47049 0.45798 0.0
H1790 H 0.07623 0.57683 0.52671 0.0
H1791 H 0.14961 0.56049 0.37761 0.0
H1792 H 0.09234 0.60173 0.48197 0.0
H1793 H 0.16542 0.57932 0.43834 0.0
O1794 O 0.07091 0.53095 0.44714 0.0
H1795 H 0.08642 0.4886 0.30837 0.0
H1796 H 0.05109 0.47929 0.43698 0.0
H1797 H 0.03907 0.46485 0.36738 0.0
H1798 H 0.05678 0.46946 0.30245 0.0
H1799 H 0.09792 0.50291 0.37851 0.0
H1800 H 0.06619 0.4453 0.50168 0.0
H1801 H 0.05119 0.44461 0.56946 0.0
O1802 O 0.06546 0.50674 0.47367 0.0
C1803 C 0.09629 0.52961 0.53469 0.0
C1804 C 0.05708 0.46949 0.56313 0.0
C1805 C 0.06583 0.456 0.5121 0.0
N1806 N 0.07333 0.48385 0.50039 0.0
C1807 C 0.06518 0.48359 0.53775 0.0
C1808 C 0.07379 0.47031 0.48755 0.0
C1809 C 0.05742 0.45562 0.55012 0.0
C1810 C 0.1265 0.55364 0.40747 0.0
N1811 N 0.11862 0.55559 0.44254 0.0
C1812 C 0.14343 0.56213 0.40538 0.0
C1813 C 0.1523 0.57267 0.43951 0.0
C1814 C 0.14417 0.5746 0.47516 0.0
C1815 C 0.12722 0.5659 0.47615 0.0
C1816 C 0.10257 0.59073 0.44068 0.0
C1817 C 0.08469 0.56297 0.49058 0.0
C1818 C 0.10312 0.57658 0.43212 0.0
N1819 N 0.09431 0.56297 0.45712 0.0
C1820 C 0.08385 0.57689 0.5001 0.0
C1821 C 0.09288 0.59085 0.47496 0.0
C1822 C 0.06115 0.51698 0.46303 0.0
C1823 C 0.07859 0.48645 0.33648 0.0
C1824 C 0.05888 0.4814 0.40886 0.0
C1825 C 0.052 0.47316 0.36956 0.0
C1826 C 0.06195 0.47573 0.33315 0.0
N1827 N 0.07521 0.49188 0.41189 0.0
C1828 C 0.08504 0.49446 0.37634 0.0
Co1829 Co 0.46145 0.54987 0.44609 0.0
Co1830 Co 0.50093 0.57887 0.46613 0.0
O1831 O 0.481 0.57031 0.43152 0.0
C1832 C 0.46663 0.54684 0.35192 0.0
O1833 O 0.48186 0.55189 0.36174 0.0
C1834 C 0.49657 0.6078 0.4557 0.0
O1835 O 0.48147 0.59938 0.4693 0.0
O1836 O 0.48888 0.57768 0.5211 0.0
O1837 O 0.46576 0.55413 0.51032 0.0
H1838 H 0.5349 0.58091 0.59555 0.0
H1839 H 0.4592 0.57314 0.38561 0.0
O1840 O 0.45662 0.54513 0.38204 0.0
H1841 H 0.42294 0.5663 0.51006 0.0
H1842 H 0.403 0.50644 0.42717 0.0
H1843 H 0.4535 0.52349 0.51056 0.0
H1844 H 0.4379 0.55134 0.50827 0.0
H1845 H 0.42772 0.53242 0.41046 0.0
O1846 O 0.50554 0.60141 0.45434 0.0
H1847 H 0.50995 0.56992 0.55091 0.0
H1848 H 0.53448 0.60699 0.45538 0.0
H1849 H 0.42904 0.49747 0.52857 0.0
H1850 H 0.44437 0.58824 0.38587 0.0
H1851 H 0.40355 0.48879 0.48673 0.0
H1852 H 0.4261 0.58488 0.44848 0.0
O1853 O 0.47395 0.53819 0.44603 0.0
H1854 H 0.51641 0.59229 0.30677 0.0
H1855 H 0.52462 0.56827 0.44151 0.0
H1856 H 0.53894 0.56882 0.3732 0.0
H1857 H 0.5349 0.58093 0.3052 0.0
H1858 H 0.50217 0.5913 0.37563 0.0
H1859 H 0.55967 0.61844 0.49914 0.0
H1860 H 0.56 0.60534 0.5697 0.0
O1861 O 0.4972 0.5566 0.47798 0.0
C1862 C 0.47571 0.56562 0.53519 0.0
C1863 C 0.53492 0.5867 0.56481 0.0
C1864 C 0.54881 0.60778 0.51073 0.0
N1865 N 0.52077 0.58774 0.50045 0.0
C1866 C 0.52083 0.58052 0.53934 0.0
C1867 C 0.5345 0.60126 0.48614 0.0
C1868 C 0.54899 0.60042 0.5503 0.0
C1869 C 0.45117 0.57152 0.41277 0.0
N1870 N 0.44935 0.56131 0.44675 0.0
C1871 C 0.44285 0.58014 0.41283 0.0
C1872 C 0.43262 0.57827 0.448 0.0
C1873 C 0.43085 0.56785 0.48257 0.0
C1874 C 0.43938 0.55944 0.48143 0.0
C1875 C 0.41402 0.5101 0.44569 0.0
C1876 C 0.44243 0.51984 0.49237 0.0
C1877 C 0.42806 0.52478 0.43633 0.0
N1878 N 0.442 0.52952 0.45976 0.0
C1879 C 0.42863 0.50507 0.50264 0.0
C1880 C 0.41434 0.50021 0.47912 0.0
C1881 C 0.48742 0.5422 0.46493 0.0
C1882 C 0.51831 0.58702 0.33621 0.0
C1883 C 0.52272 0.57348 0.41203 0.0
C1884 C 0.53091 0.57381 0.37347 0.0
C1885 C 0.52866 0.58062 0.33534 0.0
N1886 N 0.51258 0.57977 0.41264 0.0
C1887 C 0.51033 0.5865 0.37538 0.0
Co1888 Co 0.45042 0.90931 0.44394 0.0
Co1889 Co 0.42102 0.91945 0.46539 0.0
O1890 O 0.42945 0.90774 0.4314 0.0
C1891 C 0.45227 0.91711 0.34983 0.0
O1892 O 0.44657 0.92672 0.36008 0.0
C1893 C 0.39272 0.88546 0.45881 0.0
O1894 O 0.4024 0.87937 0.46041 0.0
O1895 O 0.42414 0.91057 0.5217 0.0
O1896 O 0.4469 0.90969 0.50837 0.0
H1897 H 0.42117 0.95445 0.58971 0.0
H1898 H 0.42738 0.88319 0.38438 0.0
O1899 O 0.45454 0.90908 0.37961 0.0
H1900 H 0.43578 0.85502 0.50933 0.0
H1901 H 0.49444 0.89535 0.42119 0.0
H1902 H 0.47744 0.92853 0.50605 0.0
H1903 H 0.44989 0.88491 0.5068 0.0
H1904 H 0.46802 0.89342 0.40673 0.0
O1905 O 0.39839 0.90072 0.46059 0.0
H1906 H 0.43167 0.93983 0.546 0.0
H1907 H 0.39199 0.92354 0.45728 0.0
H1908 H 0.5039 0.93075 0.5218 0.0
H1909 H 0.4132 0.85327 0.38528 0.0
H1910 H 0.51255 0.91407 0.47922 0.0
H1911 H 0.41731 0.83899 0.44818 0.0
O1912 O 0.46177 0.93348 0.44284 0.0
H1913 H 0.40299 0.91591 0.30802 0.0
H1914 H 0.42968 0.95257 0.43385 0.0
H1915 H 0.42671 0.96384 0.36352 0.0
H1916 H 0.41326 0.94546 0.29999 0.0
H1917 H 0.40636 0.90518 0.37881 0.0
H1918 H 0.38099 0.93788 0.50023 0.0
H1919 H 0.39565 0.95353 0.56688 0.0
O1920 O 0.44316 0.93875 0.47133 0.0
C1921 C 0.43616 0.90916 0.53448 0.0
C1922 C 0.41469 0.94771 0.56067 0.0
C1923 C 0.39213 0.93839 0.51048 0.0
N1924 N 0.41251 0.93092 0.49898 0.0
C1925 C 0.4206 0.93943 0.53573 0.0
C1926 C 0.3984 0.93026 0.48635 0.0
C1927 C 0.40037 0.94718 0.54786 0.0
C1928 C 0.42937 0.87707 0.41163 0.0
N1929 N 0.43948 0.88579 0.44543 0.0
C1930 C 0.42124 0.86012 0.41206 0.0
C1931 C 0.42354 0.85212 0.44741 0.0
C1932 C 0.43388 0.8611 0.48175 0.0
C1933 C 0.44179 0.87803 0.48022 0.0
C1934 C 0.49079 0.90265 0.44003 0.0
C1935 C 0.48108 0.92117 0.48755 0.0
C1936 C 0.47586 0.90163 0.43195 0.0
N1937 N 0.47113 0.91075 0.45579 0.0
C1938 C 0.49609 0.92251 0.49654 0.0
C1939 C 0.50095 0.91316 0.4726 0.0
C1940 C 0.45759 0.94321 0.45901 0.0
C1941 C 0.40882 0.92404 0.33551 0.0
C1942 C 0.42386 0.9445 0.40634 0.0
C1943 C 0.42218 0.95094 0.36662 0.0
C1944 C 0.41461 0.94062 0.331 0.0
N1945 N 0.41813 0.92822 0.41052 0.0
C1946 C 0.41069 0.91802 0.37575 0.0
Co1947 Co 0.20975 0.42563 0.38231 0.0
Co1948 Co 0.17018 0.41527 0.36252 0.0
O1949 O 0.19006 0.42614 0.39752 0.0
C1950 C 0.20368 0.41494 0.47438 0.0
O1951 O 0.18856 0.40504 0.46294 0.0
C1952 C 0.17503 0.44867 0.37397 0.0
O1953 O 0.18995 0.45513 0.35901 0.0
O1954 O 0.18231 0.42643 0.30787 0.0
O1955 O 0.20598 0.42708 0.31858 0.0
H1956 H 0.13604 0.38447 0.23212 0.0
H1957 H 0.21126 0.44957 0.44744 0.0
O1958 O 0.21397 0.42415 0.44594 0.0
H1959 H 0.24866 0.48206 0.32808 0.0
H1960 H 0.26806 0.44033 0.40237 0.0
H1961 H 0.2184 0.40896 0.31396 0.0
H1962 H 0.23385 0.45217 0.32454 0.0
H1963 H 0.24313 0.44106 0.42012 0.0
O1964 O 0.16592 0.43333 0.37579 0.0
H1965 H 0.161 0.39784 0.27692 0.0
H1966 H 0.13685 0.41032 0.37379 0.0
H1967 H 0.2431 0.40799 0.29484 0.0
H1968 H 0.22593 0.47945 0.4525 0.0
H1969 H 0.26816 0.42376 0.33921 0.0
H1970 H 0.24477 0.4959 0.39247 0.0
O1971 O 0.19738 0.4015 0.37816 0.0
H1972 H 0.15469 0.4121 0.52222 0.0
H1973 H 0.1462 0.38088 0.38529 0.0
H1974 H 0.13175 0.36665 0.45301 0.0
H1975 H 0.13594 0.38229 0.52211 0.0
H1976 H 0.16903 0.42583 0.45389 0.0
H1977 H 0.11167 0.39718 0.32988 0.0
H1978 H 0.11114 0.38408 0.25857 0.0
O1979 O 0.17367 0.39668 0.34925 0.0
C1980 C 0.19586 0.42842 0.29399 0.0
C1981 C 0.13611 0.3901 0.26319 0.0
C1982 C 0.12244 0.39726 0.31802 0.0
N1983 N 0.15036 0.40477 0.32804 0.0
C1984 C 0.15019 0.39766 0.28875 0.0
C1985 C 0.13675 0.40472 0.34269 0.0
C1986 C 0.12215 0.3899 0.27803 0.0
C1987 C 0.21954 0.45665 0.42136 0.0
N1988 N 0.22176 0.44913 0.38585 0.0
C1989 C 0.22777 0.47356 0.42433 0.0
C1990 C 0.23832 0.48278 0.39061 0.0
C1991 C 0.2405 0.47503 0.35446 0.0
C1992 C 0.23205 0.45809 0.35259 0.0
C1993 C 0.25722 0.43343 0.38274 0.0
C1994 C 0.22929 0.41592 0.33327 0.0
C1995 C 0.24307 0.43377 0.39269 0.0
N1996 N 0.22937 0.42516 0.36788 0.0
C1997 C 0.24322 0.41529 0.32236 0.0
C1998 C 0.25727 0.42413 0.34729 0.0
C1999 C 0.18371 0.39211 0.36009 0.0
C2000 C 0.15272 0.40516 0.49229 0.0
C2001 C 0.14814 0.38777 0.41525 0.0
C2002 C 0.13989 0.37965 0.45348 0.0
C2003 C 0.14223 0.38843 0.49222 0.0
N2004 N 0.15842 0.40419 0.41555 0.0
C2005 C 0.16076 0.41288 0.45342 0.0
Co2006 Co 0.57541 0.78192 0.38133 0.0
Co2007 Co 0.58664 0.75346 0.35799 0.0
O2008 O 0.57492 0.76146 0.39354 0.0
C2009 C 0.58499 0.78477 0.47421 0.0
O2010 O 0.59488 0.77956 0.46251 0.0
C2011 C 0.55311 0.72477 0.36615 0.0
O2012 O 0.5468 0.73422 0.36244 0.0
O2013 O 0.57673 0.75593 0.30278 0.0
O2014 O 0.57487 0.77811 0.31686 0.0
H2015 H 0.62042 0.75415 0.2297 0.0
H2016 H 0.55079 0.75855 0.4436 0.0
O2017 O 0.5761 0.78634 0.44569 0.0
H2018 H 0.51956 0.76483 0.32308 0.0
H2019 H 0.55969 0.82453 0.40721 0.0
H2020 H 0.59285 0.8088 0.31747 0.0
H2021 H 0.54949 0.78003 0.32201 0.0
H2022 H 0.55906 0.79868 0.42112 0.0
O2023 O 0.56842 0.73066 0.36465 0.0
H2024 H 0.60586 0.76422 0.27536 0.0
H2025 H 0.59187 0.72511 0.36494 0.0
H2026 H 0.59375 0.83469 0.30222 0.0
H2027 H 0.52087 0.74326 0.44626 0.0
H2028 H 0.57708 0.8427 0.34727 0.0
H2029 H 0.50506 0.74632 0.3856 0.0
O2030 O 0.59957 0.79403 0.37945 0.0
H2031 H 0.58593 0.73642 0.51522 0.0
H2032 H 0.62045 0.7633 0.38583 0.0
H2033 H 0.63301 0.76114 0.45471 0.0
H2034 H 0.61571 0.7476 0.52002 0.0
H2035 H 0.57389 0.73899 0.44582 0.0
H2036 H 0.60618 0.71455 0.32007 0.0
H2037 H 0.62064 0.72914 0.25199 0.0
O2038 O 0.6054 0.77587 0.35037 0.0
C2039 C 0.57451 0.76751 0.29052 0.0
C2040 C 0.6142 0.74771 0.25935 0.0
C2041 C 0.60619 0.72547 0.31004 0.0
N2042 N 0.5981 0.74532 0.3229 0.0
C2043 C 0.60596 0.75337 0.28539 0.0
C2044 C 0.59807 0.73149 0.33525 0.0
C2045 C 0.6143 0.73366 0.27186 0.0
C2046 C 0.54399 0.76007 0.41732 0.0
N2047 N 0.55187 0.77021 0.38278 0.0
C2048 C 0.52705 0.75132 0.4189 0.0
C2049 C 0.51819 0.75302 0.38482 0.0
C2050 C 0.52632 0.7634 0.3497 0.0
C2051 C 0.54327 0.77193 0.3492 0.0
C2052 C 0.56698 0.82115 0.38729 0.0
C2053 C 0.58548 0.81215 0.33704 0.0
C2054 C 0.56669 0.80654 0.39506 0.0
N2055 N 0.5758 0.80217 0.36987 0.0
C2056 C 0.58608 0.82685 0.32833 0.0
C2057 C 0.57673 0.83134 0.35365 0.0
C2058 C 0.60948 0.79025 0.36236 0.0
C2059 C 0.59359 0.7423 0.48694 0.0
C2060 C 0.61284 0.75744 0.41413 0.0
C2061 C 0.62002 0.75621 0.45302 0.0
C2062 C 0.61031 0.7486 0.48964 0.0
N2063 N 0.59643 0.75121 0.41172 0.0
C2064 C 0.58683 0.74372 0.44748 0.0
Co2065 Co 0.21837 0.79251 0.38042 0.0
Co2066 Co 0.24709 0.83209 0.3586 0.0
O2067 O 0.23845 0.81247 0.39457 0.0
C2068 C 0.21392 0.79913 0.47226 0.0
O2069 O 0.21884 0.8141 0.45989 0.0
C2070 C 0.27579 0.82758 0.37041 0.0
O2071 O 0.26719 0.81245 0.35721 0.0
O2072 O 0.24605 0.81969 0.30449 0.0
O2073 O 0.22331 0.79587 0.3164 0.0
H2074 H 0.24939 0.86513 0.22663 0.0
H2075 H 0.24118 0.79179 0.44573 0.0
O2076 O 0.21293 0.7887 0.44438 0.0
H2077 H 0.2366 0.75394 0.32806 0.0
H2078 H 0.17551 0.7341 0.40373 0.0
H2079 H 0.19267 0.78298 0.31271 0.0
H2080 H 0.22111 0.76834 0.32378 0.0
H2081 H 0.20103 0.75939 0.42002 0.0
O2082 O 0.2696 0.83673 0.37131 0.0
H2083 H 0.23828 0.84051 0.2727 0.0
H2084 H 0.27524 0.86567 0.36808 0.0
H2085 H 0.16714 0.75792 0.29506 0.0
H2086 H 0.25678 0.77755 0.45153 0.0
H2087 H 0.15841 0.73325 0.34074 0.0
H2088 H 0.25457 0.75849 0.39235 0.0
O2089 O 0.20627 0.80453 0.37554 0.0
H2090 H 0.25998 0.84867 0.51749 0.0
H2091 H 0.23639 0.85591 0.3805 0.0
H2092 H 0.23668 0.87067 0.44762 0.0
H2093 H 0.24857 0.86712 0.51675 0.0
H2094 H 0.25929 0.83401 0.44974 0.0
H2095 H 0.28681 0.89053 0.32289 0.0
H2096 H 0.27383 0.89038 0.25168 0.0
O2097 O 0.22484 0.82822 0.34576 0.0
C2098 C 0.23456 0.80598 0.29124 0.0
C2099 C 0.25513 0.86536 0.25765 0.0
C2100 C 0.27615 0.87961 0.31164 0.0
N2101 N 0.25604 0.85167 0.32315 0.0
C2102 C 0.24888 0.85146 0.28392 0.0
C2103 C 0.26956 0.86548 0.33704 0.0
C2104 C 0.26885 0.87952 0.2717 0.0
C2105 C 0.24004 0.78341 0.42004 0.0
N2106 N 0.23018 0.78083 0.38459 0.0
C2107 C 0.24896 0.77543 0.42342 0.0
C2108 C 0.24772 0.76475 0.39017 0.0
C2109 C 0.23765 0.7622 0.35408 0.0
C2110 C 0.22894 0.77042 0.35178 0.0
C2111 C 0.1792 0.74477 0.38353 0.0
C2112 C 0.189 0.77227 0.33259 0.0
C2113 C 0.19362 0.75913 0.39264 0.0
N2114 N 0.19839 0.77261 0.36712 0.0
C2115 C 0.17451 0.75813 0.3225 0.0
C2116 C 0.16961 0.74429 0.34818 0.0
C2117 C 0.2103 0.81804 0.35682 0.0
C2118 C 0.25482 0.85036 0.48754 0.0
C2119 C 0.24152 0.85424 0.41047 0.0
C2120 C 0.2417 0.86267 0.44836 0.0
C2121 C 0.24838 0.86069 0.48712 0.0
N2122 N 0.24786 0.84413 0.41112 0.0
C2123 C 0.25446 0.84215 0.449 0.0
H2124 H 0.25926 0.1054 0.88351 0.0
H2125 H 0.24307 0.15879 0.05463 0.0
H2126 H 0.24103 0.13664 0.84117 0.0
H2127 H 0.23877 0.1126 0.08792 0.0
H2128 H 0.24504 0.15318 0.97654 0.0
H2129 H 0.25543 0.11074 0.96027 0.0
C2130 C 0.25455 0.11345 0.89041 0.0
C2131 C 0.25041 0.12056 0.85613 0.0
C2132 C 0.24351 0.14427 0.00115 0.0
C2133 C 0.24605 0.12673 0.9434 0.0
C2134 C 0.24233 0.14742 0.04562 0.0
C2135 C 0.24089 0.13623 0.07803 0.0
C2136 C 0.24351 0.12999 0.98936 0.0
C2137 C 0.24003 0.1217 0.06434 0.0
C2138 C 0.25226 0.1164 0.93409 0.0
C2139 C 0.24428 0.13085 0.86678 0.0
N2140 N 0.24156 0.11911 0.02116 0.0
N2141 N 0.24235 0.13371 0.90959 0.0
H2142 H 0.89263 0.15369 0.8788 0.0
H2143 H 0.84056 0.08429 0.05231 0.0
H2144 H 0.86283 0.10376 0.83832 0.0
H2145 H 0.88615 0.12717 0.08419 0.0
H2146 H 0.84572 0.09175 0.97398 0.0
H2147 H 0.88698 0.14499 0.9559 0.0
C2148 C 0.88481 0.14093 0.88617 0.0
C2149 C 0.87824 0.12942 0.85233 0.0
C2150 C 0.85458 0.09939 -0.00163 0.0
C2151 C 0.87172 0.11942 0.93997 0.0
C2152 C 0.85169 0.09513 0.04295 0.0
C2153 C 0.86287 0.10515 0.07502 0.0
C2154 C 0.86858 0.11386 0.98614 0.0
C2155 C 0.87708 0.1191 0.0609 0.0
C2156 C 0.88168 0.13596 0.93005 0.0
C2157 C 0.86823 0.11301 0.86359 0.0
N2158 N 0.87942 0.12311 0.01764 0.0
N2159 N 0.8652 0.10847 0.90657 0.0
H2160 H 0.91919 0.76139 0.05452 0.0
H2161 H 0.85041 0.74248 0.87987 0.0
H2162 H 0.87805 0.76764 0.08196 0.0
H2163 H 0.89998 0.76138 0.83766 0.0
H2164 H 0.85975 0.74808 0.95639 0.0
H2165 H 0.9123 0.75894 0.97576 0.0
C2166 C 0.90892 0.76253 0.04407 0.0
C2167 C 0.89907 0.7645 0.07511 0.0
C2168 C 0.86857 0.75101 0.93031 0.0
C2169 C 0.89098 0.76131 0.9857 0.0
C2170 C 0.86324 0.7477 0.88677 0.0
C2171 C 0.87445 0.75149 0.85255 0.0
C2172 C 0.88518 0.75788 0.9397 0.0
C2173 C 0.89097 0.75835 0.86323 0.0
C2174 C 0.90497 0.76106 -0.00078 0.0
C2175 C 0.88589 0.76588 0.05953 0.0
N2176 N 0.89586 0.76123 0.90603 0.0
N2177 N 0.8821 0.764 0.01608 0.0
H2178 H 0.16015 0.24134 0.43463 0.0
H2179 H 0.11086 0.26067 0.61113 0.0
H2180 H 0.11397 0.23789 0.40675 0.0
H2181 H 0.1399 0.23966 0.65135 0.0
H2182 H 0.1152 0.25625 0.53408 0.0
H2183 H 0.15563 0.24352 0.51355 0.0
C2184 C 0.149 0.2408 0.44499 0.0
C2185 C 0.13752 0.2396 0.41383 0.0
C2186 C 0.12061 0.25261 0.55983 0.0
C2187 C 0.13254 0.24248 0.5034 0.0
C2188 C 0.11824 0.25524 0.6037 0.0
C2189 C 0.125 0.25049 0.63752 0.0
C2190 C 0.13003 0.24544 0.54973 0.0
C2191 C 0.13441 0.24341 0.62611 0.0
C2192 C 0.14647 0.24211 0.48992 0.0
C2193 C 0.12329 0.239 0.42928 0.0
N2194 N 0.13674 0.24118 0.58304 0.0
N2195 N 0.12133 0.24067 0.47281 0.0
H2196 H 0.75898 0.91844 0.43781 0.0
H2197 H 0.74292 0.85009 0.61222 0.0
H2198 H 0.76425 0.87689 0.40775 0.0
H2199 H 0.76221 0.89983 0.65333 0.0
H2200 H 0.74679 0.85899 0.53528 0.0
H2201 H 0.7573 0.91154 0.51649 0.0
C2202 C 0.76001 0.90805 0.44764 0.0
C2203 C 0.76159 0.89815 0.41596 0.0
C2204 C 0.75018 0.86794 0.56121 0.0
C2205 C 0.75929 0.89007 0.50524 0.0
C2206 C 0.74786 0.86286 0.60501 0.0
C2207 C 0.75229 0.87425 0.63902 0.0
C2208 C 0.7567 0.88449 0.55143 0.0
C2209 C 0.75874 0.89069 0.62793 0.0
C2210 C 0.75899 0.90411 0.49243 0.0
C2211 C 0.76284 0.8848 0.4307 0.0
N2212 N 0.76067 0.89533 0.58495 0.0
N2213 N 0.76143 0.88104 0.47413 0.0
H2214 H 0.09989 0.85918 0.65389 0.0
H2215 H 0.12724 0.88499 0.40655 0.0
H2216 H 0.15006 0.88755 0.61414 0.0
H2217 H 0.08355 0.83989 0.43685 0.0
H2218 H 0.13367 0.88906 0.48455 0.0
H2219 H 0.09192 0.85446 0.576 0.0
C2220 C 0.10922 0.86436 0.62876 0.0
C2221 C 0.12567 0.87377 0.64031 0.0
C2222 C 0.12266 0.8783 0.47412 0.0
C2223 C 0.1166 0.86865 0.55178 0.0
C2224 C 0.11888 0.87597 0.42953 0.0
C2225 C 0.10486 0.86195 0.41487 0.0
C2226 C 0.11229 0.86669 0.5046 0.0
C2227 C 0.0945 0.85083 0.4466 0.0
C2228 C 0.10465 0.86163 0.58449 0.0
C2229 C 0.13727 0.88016 0.60661 0.0
N2230 N 0.09844 0.85344 0.49015 0.0
N2231 N 0.13249 0.87761 0.56379 0.0
H2232 H 0.74098 0.89216 0.11236 0.0
H2233 H 0.76031 0.84222 0.93803 0.0
H2234 H 0.76156 0.86285 0.15351 0.0
H2235 H 0.76406 0.88842 0.9083 0.0
H2236 H 0.7579 0.84697 0.01657 0.0
H2237 H 0.7455 0.88771 0.03542 0.0
C2238 C 0.74633 0.8847 0.10515 0.0
C2239 C 0.75094 0.87789 0.13917 0.0
C2240 C 0.75942 0.85607 0.99263 0.0
C2241 C 0.75609 0.87273 0.05164 0.0
C2242 C 0.76085 0.85342 0.94791 0.0
C2243 C 0.76224 0.86485 0.91635 0.0
C2244 C 0.75909 0.87008 0.00551 0.0
C2245 C 0.76284 0.87915 0.93118 0.0
C2246 C 0.74902 0.88227 0.06137 0.0
C2247 C 0.75792 0.86838 0.12811 0.0
N2248 N 0.76103 0.88123 0.97455 0.0
N2249 N 0.76022 0.86599 0.08515 0.0
H2250 H 0.10547 0.84911 0.10857 0.0
H2251 H 0.15813 0.91743 0.93554 0.0
H2252 H 0.13791 0.8982 0.1517 0.0
H2253 H 0.11008 0.87763 0.90677 0.0
H2254 H 0.15312 0.9105 0.01421 0.0
H2255 H 0.10974 0.85869 0.03223 0.0
C2256 C 0.11356 0.86188 0.10191 0.0
C2257 C 0.12134 0.87289 0.13631 0.0
C2258 C 0.14366 0.90349 0.99047 0.0
C2259 C 0.12629 0.8839 0.04943 0.0
C2260 C 0.14647 0.90746 0.94568 0.0
C2261 C 0.13462 0.89796 0.91433 0.0
C2262 C 0.12905 0.88983 0.00357 0.0
C2263 C 0.11971 0.88518 0.92947 0.0
C2264 C 0.11589 0.86736 0.05848 0.0
C2265 C 0.13163 0.88935 0.12597 0.0
N2266 N 0.11747 0.88134 0.97286 0.0
N2267 N 0.13393 0.89437 0.08329 0.0
H2268 H 0.0832 0.24179 0.93463 0.0
H2269 H 0.15156 0.25998 0.11066 0.0
H2270 H 0.12514 0.23694 0.90675 0.0
H2271 H 0.10168 0.23994 0.15135 0.0
H2272 H 0.14269 0.25545 0.03371 0.0
H2273 H 0.08992 0.24389 0.01352 0.0
C2274 C 0.09364 0.24092 0.94499 0.0
C2275 C 0.10371 0.23937 0.91384 0.0
C2276 C 0.13369 0.25204 0.05954 0.0
C2277 C 0.11158 0.24216 0.00336 0.0
C2278 C 0.13876 0.25474 0.10335 0.0
C2279 C 0.12733 0.25029 0.13726 0.0
C2280 C 0.11712 0.24513 0.04961 0.0
C2281 C 0.11086 0.24345 0.12603 0.0
C2282 C 0.09748 0.24219 0.9899 0.0
C2283 C 0.1171 0.23834 0.92927 0.0
N2284 N 0.10622 0.24115 0.083 0.0
N2285 N 0.12076 0.23999 0.97279 0.0
H2286 H 0.88939 0.73938 0.37536 0.0
H2287 H 0.84089 0.75886 0.55459 0.0
H2288 H 0.86185 0.76231 0.33784 0.0
H2289 H 0.88607 0.76005 0.5819 0.0
H2290 H 0.8454 0.75702 0.47545 0.0
H2291 H 0.88467 0.74278 0.45287 0.0
C2292 C 0.88225 0.74501 0.38345 0.0
C2293 C 0.87604 0.75061 0.35027 0.0
C2294 C 0.85433 0.75784 0.49902 0.0
C2295 C 0.87058 0.7545 0.43862 0.0
C2296 C 0.85181 0.75893 0.54408 0.0
C2297 C 0.86303 0.75948 0.57511 0.0
C2298 C 0.86799 0.757 0.48527 0.0
C2299 C 0.87696 0.7595 0.55949 0.0
C2300 C 0.87966 0.74706 0.42761 0.0
C2301 C 0.86693 0.75791 0.36257 0.0
N2302 N 0.87892 0.75806 0.51581 0.0
N2303 N 0.86438 0.75959 0.40589 0.0
H2304 H 0.24287 0.08258 0.55465 0.0
H2305 H 0.25968 0.15227 0.38325 0.0
H2306 H 0.23931 0.12488 0.58793 0.0
H2307 H 0.24068 0.10265 0.3412 0.0
H2308 H 0.25594 0.14317 0.46007 0.0
H2309 H 0.24484 0.09013 0.47653 0.0
C2310 C 0.24229 0.0933 0.54563 0.0
C2311 C 0.24105 0.10316 0.57804 0.0
C2312 C 0.25258 0.1343 0.43394 0.0
C2313 C 0.24367 0.11198 0.48934 0.0
C2314 C 0.25482 0.13949 0.39023 0.0
C2315 C 0.25043 0.12818 0.35602 0.0
C2316 C 0.24618 0.11774 0.44335 0.0
C2317 C 0.24411 0.11174 0.36676 0.0
C2318 C 0.24348 0.09761 0.50115 0.0
C2319 C 0.24041 0.11695 0.56435 0.0
N2320 N 0.24225 0.107 0.4096 0.0
N2321 N 0.24192 0.12104 0.52115 0.0
H2322 H 0.87785 0.11156 0.58638 0.0
H2323 H 0.89912 0.1383 0.33647 0.0
H2324 H 0.91754 0.15901 0.55176 0.0
H2325 H 0.85043 0.10598 0.38267 0.0
H2326 H 0.90862 0.14323 0.41309 0.0
H2327 H 0.87073 0.10616 0.50895 0.0
C2328 C 0.88524 0.12081 0.56255 0.0
C2329 C 0.89822 0.13591 0.57584 0.0
C2330 C 0.89587 0.1351 0.40629 0.0
C2331 C 0.89001 0.12964 0.48689 0.0
C2332 C 0.89044 0.13224 0.36277 0.0
C2333 C 0.87395 0.12174 0.35343 0.0
C2334 C 0.88479 0.12711 0.44044 0.0
C2335 C 0.86321 0.11424 0.38855 0.0
C2336 C 0.88106 0.1177 0.51832 0.0
C2337 C 0.9074 0.14726 0.54309 0.0
N2338 N 0.86884 0.11698 0.4306 0.0
N2339 N 0.90305 0.14393 0.49995 0.0
H2340 H 0.90663 0.4741 0.16965 0.0
H2341 H 0.90531 0.44723 0.41722 0.0
H2342 H 0.926 0.44379 0.21144 0.0
H2343 H 0.91115 0.49431 0.38756 0.0
H2344 H 0.90681 0.4427 0.33918 0.0
H2345 H 0.90319 0.47907 0.24731 0.0
C2346 C 0.91018 0.46853 0.19518 0.0
C2347 C 0.91661 0.45852 0.18431 0.0
C2348 C 0.90768 0.45399 0.34974 0.0
C2349 C 0.91243 0.4639 0.27241 0.0
C2350 C 0.90673 0.4566 0.39436 0.0
C2351 C 0.90833 0.47132 0.40923 0.0
C2352 C 0.91005 0.46605 0.31941 0.0
C2353 C 0.90994 0.48283 0.37763 0.0
C2354 C 0.90824 0.4714 0.23928 0.0
C2355 C 0.92107 0.45164 0.21845 0.0
N2356 N 0.91083 0.47998 0.33398 0.0
N2357 N 0.91875 0.45434 0.26105 0.0
H2358 H 0.52874 0.43668 0.17315 0.0
H2359 H 0.55818 0.45621 0.42165 0.0
H2360 H 0.56198 0.48497 0.2204 0.0
H2361 H 0.51024 0.41699 0.38894 0.0
H2362 H 0.56285 0.46375 0.34432 0.0
H2363 H 0.52449 0.42671 0.24929 0.0
C2364 C 0.53512 0.44517 0.19959 0.0
C2365 C 0.5457 0.46168 0.19068 0.0
C2366 C 0.55136 0.45343 0.35407 0.0
C2367 C 0.54113 0.4503 0.27712 0.0
C2368 C 0.54867 0.449 0.39822 0.0
C2369 C 0.53365 0.43606 0.41209 0.0
C2370 C 0.53906 0.44476 0.32327 0.0
C2371 C 0.52195 0.42711 0.37984 0.0
C2372 C 0.53267 0.43947 0.24285 0.0
C2373 C 0.55364 0.47218 0.22597 0.0
N2374 N 0.52487 0.4317 0.33677 0.0
N2375 N 0.55129 0.46628 0.26772 0.0
H2376 H 0.54627 0.10243 0.42128 0.0
H2377 H 0.56799 0.09611 0.17242 0.0
H2378 H 0.58511 0.09303 0.38959 0.0
H2379 H 0.51936 0.0803 0.21807 0.0
H2380 H 0.57741 0.10073 0.24924 0.0
H2381 H 0.53987 0.10115 0.34347 0.0
C2382 C 0.55365 0.10032 0.398 0.0
C2383 C 0.56612 0.09755 0.41225 0.0
C2384 C 0.5647 0.09624 0.24224 0.0
C2385 C 0.55871 0.09608 0.32279 0.0
C2386 C 0.55932 0.09363 0.19862 0.0
C2387 C 0.54286 0.08778 0.18909 0.0
C2388 C 0.5536 0.09334 0.27622 0.0
C2389 C 0.53211 0.08471 0.22408 0.0
C2390 C 0.54987 0.0995 0.35354 0.0
C2391 C 0.57533 0.09511 0.38016 0.0
N2392 N 0.5377 0.08766 0.26616 0.0
N2393 N 0.57136 0.09431 0.33672 0.0
H2394 H 0.77745 0.56588 0.73586 0.0
H2395 H 0.80509 0.57405 0.98601 0.0
H2396 H 0.82513 0.5745 0.77148 0.0
H2397 H 0.77118 0.58819 0.93848 0.0
H2398 H 0.80983 0.56883 0.9099 0.0
H2399 H 0.7719 0.56778 0.8131 0.0
C2400 C 0.78672 0.56796 0.75989 0.0
C2401 C 0.80193 0.57028 0.74692 0.0
C2402 C 0.80138 0.57308 0.91627 0.0
C2403 C 0.7955 0.57246 0.83562 0.0
C2404 C 0.79864 0.57604 0.95953 0.0
C2405 C 0.78776 0.5816 0.96837 0.0
C2406 C 0.79293 0.57539 0.88185 0.0
C2407 C 0.77975 0.58402 0.93298 0.0
C2408 C 0.78352 0.56913 0.80399 0.0
C2409 C 0.81329 0.57273 0.77989 0.0
N2410 N 0.78242 0.58079 0.89119 0.0
N2411 N 0.80988 0.57386 0.82288 0.0
H2412 H 0.42612 0.2513 0.76825 0.0
H2413 H 0.40757 0.18358 0.9465 0.0
H2414 H 0.43104 0.20927 0.74241 0.0
H2415 H 0.42844 0.23369 0.98591 0.0
H2416 H 0.41195 0.19218 0.86931 0.0
H2417 H 0.42393 0.24489 0.84739 0.0
C2418 C 0.42698 0.24091 0.7791 0.0
C2419 C 0.42858 0.23072 0.74846 0.0
C2420 C 0.41556 0.20128 0.89493 0.0
C2421 C 0.42568 0.22319 0.83821 0.0
C2422 C 0.41295 0.19637 0.93886 0.0
C2423 C 0.41769 0.20796 0.97247 0.0
C2424 C 0.42268 0.21783 0.88457 0.0
C2425 C 0.4247 0.2244 0.96081 0.0
C2426 C 0.42567 0.23725 0.82414 0.0
C2427 C 0.4296 0.2174 0.76451 0.0
N2428 N 0.42692 0.22888 0.91767 0.0
N2429 N 0.4279 0.2139 0.80812 0.0
H2430 H 0.75004 0.17472 0.77373 0.0
H2431 H 0.81913 0.22478 0.94934 0.0
H2432 H 0.79387 0.21963 0.74303 0.0
H2433 H 0.76887 0.19666 0.9885 0.0
H2434 H 0.81068 0.2196 0.87205 0.0
H2435 H 0.75705 0.17974 0.85234 0.0
C2436 C 0.761 0.18568 0.7834 0.0
C2437 C 0.77141 0.1967 0.75158 0.0
C2438 C 0.80152 0.21458 0.89764 0.0
C2439 C 0.7796 0.20224 0.84084 0.0
C2440 C 0.80634 0.21743 0.94164 0.0
C2441 C 0.79467 0.21118 0.97519 0.0
C2442 C 0.78495 0.20519 0.88722 0.0
C2443 C 0.77823 0.20178 0.96347 0.0
C2444 C 0.765 0.18849 0.82815 0.0
C2445 C 0.78549 0.21069 0.76611 0.0
N2446 N 0.77384 0.19899 0.92033 0.0
N2447 N 0.78925 0.21294 0.80956 0.0
H2448 H 0.42806 0.19285 0.48791 0.0
H2449 H 0.4327 0.22212 0.24113 0.0
H2450 H 0.40909 0.22343 0.44544 0.0
H2451 H 0.42606 0.17462 0.26919 0.0
H2452 H 0.43043 0.22607 0.3193 0.0
H2453 H 0.43271 0.1888 0.41042 0.0
C2454 C 0.42485 0.19867 0.46226 0.0
C2455 C 0.41815 0.20846 0.4729 0.0
C2456 C 0.42958 0.21483 0.30833 0.0
C2457 C 0.42376 0.20417 0.38502 0.0
C2458 C 0.43097 0.21256 0.26367 0.0
C2459 C 0.42932 0.19787 0.24829 0.0
C2460 C 0.42676 0.20247 0.33816 0.0
C2461 C 0.4273 0.18608 0.27949 0.0
C2462 C 0.42749 0.19633 0.41826 0.0
C2463 C 0.41418 0.21571 0.4386 0.0
N2464 N 0.42599 0.18861 0.32314 0.0
N2465 N 0.41719 0.21353 0.39615 0.0
H2466 H 0.77299 0.18309 0.44524 0.0
H2467 H 0.82611 0.25205 0.27361 0.0
H2468 H 0.80482 0.23229 0.48859 0.0
H2469 H 0.77866 0.21163 0.24261 0.0
H2470 H 0.82078 0.24477 0.35198 0.0
H2471 H 0.77772 0.19261 0.36879 0.0
C2472 C 0.78104 0.19587 0.43861 0.0
C2473 C 0.78851 0.20693 0.47311 0.0
C2474 C 0.81152 0.23768 0.32781 0.0
C2475 C 0.79399 0.21786 0.38612 0.0
C2476 C 0.81451 0.24185 0.28319 0.0
C2477 C 0.80291 0.23234 0.25131 0.0
C2478 C 0.79699 0.2238 0.34026 0.0
C2479 C 0.78809 0.21923 0.26575 0.0
C2480 C 0.78364 0.20131 0.39512 0.0
C2481 C 0.79877 0.22339 0.4628 0.0
N2482 N 0.78567 0.21521 0.30902 0.0
N2483 N 0.80132 0.22838 0.42009 0.0
H2484 H 0.82107 0.59629 0.44512 0.0
H2485 H 0.75115 0.57732 0.27092 0.0
H2486 H 0.77074 0.57393 0.48388 0.0
H2487 H 0.79622 0.5791 0.23781 0.0
H2488 H 0.75854 0.57935 0.34925 0.0
H2489 H 0.81276 0.59412 0.36789 0.0
C2490 C 0.8083 0.59103 0.43737 0.0
C2491 C 0.79657 0.58521 0.47076 0.0
C2492 C 0.7667 0.5792 0.32459 0.0
C2493 C 0.78701 0.58273 0.3829 0.0
C2494 C 0.76248 0.578 0.28 0.0
C2495 C 0.77308 0.57809 0.24762 0.0
C2496 C 0.78167 0.58075 0.33655 0.0
C2497 C 0.78765 0.57906 0.26136 0.0
C2498 C 0.80355 0.58971 0.39338 0.0
C2499 C 0.78016 0.57845 0.45898 0.0
N2500 N 0.79156 0.58049 0.30467 0.0
N2501 N 0.77584 0.57743 0.41592 0.0
H2502 H 0.52696 0.09234 0.67184 0.0
H2503 H 0.55433 0.09439 0.91917 0.0
H2504 H 0.55652 0.07208 0.71343 0.0
H2505 H 0.50832 0.09099 0.88891 0.0
H2506 H 0.55815 0.09129 0.84144 0.0
H2507 H 0.52232 0.09611 0.74939 0.0
C2508 C 0.53241 0.08862 0.69733 0.0
C2509 C 0.54215 0.08189 0.68639 0.0
C2510 C 0.54724 0.09127 0.85182 0.0
C2511 C 0.53713 0.08645 0.77452 0.0
C2512 C 0.54505 0.09314 0.89624 0.0
C2513 C 0.53086 0.09279 0.91087 0.0
C2514 C 0.53531 0.08926 0.82145 0.0
C2515 C 0.51941 0.09129 0.87919 0.0
C2516 C 0.52972 0.09076 0.7414 0.0
C2517 C 0.54887 0.07724 0.72051 0.0
N2518 N 0.52188 0.08955 0.83579 0.0
N2519 N 0.54637 0.07976 0.76314 0.0
H2520 H 0.90985 0.43532 0.66935 0.0
H2521 H 0.9018 0.45789 0.9159 0.0
H2522 H 0.92704 0.48443 0.71325 0.0
H2523 H 0.9094 0.41766 0.88716 0.0
H2524 H 0.90485 0.46474 0.83806 0.0
H2525 H 0.9045 0.42617 0.74631 0.0
C2526 C 0.91254 0.44417 0.69523 0.0
C2527 C 0.91893 0.46066 0.68515 0.0
C2528 C 0.90574 0.45436 0.84881 0.0
C2529 C 0.91252 0.45023 0.77245 0.0
C2530 C 0.9039 0.45033 0.89326 0.0
C2531 C 0.90559 0.43728 0.90837 0.0
C2532 C 0.90907 0.44519 0.81896 0.0
C2533 C 0.9081 0.42787 0.87707 0.0
C2534 C 0.90949 0.43893 0.73894 0.0
C2535 C 0.92222 0.47163 0.71972 0.0
N2536 N 0.90986 0.43207 0.83368 0.0
N2537 N 0.91883 0.46618 0.7619 0.0
H2538 H 0.5673 0.47214 0.67344 0.0
H2539 H 0.54126 0.44902 0.92255 0.0
H2540 H 0.51747 0.44305 0.71545 0.0
H2541 H 0.58432 0.49425 0.88911 0.0
H2542 H 0.53467 0.44391 0.84501 0.0
H2543 H 0.57564 0.47808 0.75087 0.0
C2544 C 0.55812 0.46703 0.69897 0.0
C2545 C 0.54166 0.45706 0.68818 0.0
C2546 C 0.54558 0.45493 0.85459 0.0
C2547 C 0.55116 0.46362 0.77622 0.0
C2548 C 0.54946 0.45788 0.89897 0.0
C2549 C 0.56334 0.47223 0.91264 0.0
C2550 C 0.55569 0.46627 0.82324 0.0
C2551 C 0.57349 0.48307 0.88011 0.0
C2552 C 0.5629 0.47048 0.74297 0.0
C2553 C 0.53026 0.45083 0.72236 0.0
N2554 N 0.56944 0.47987 0.83671 0.0
N2555 N 0.53525 0.45409 0.76494 0.0
H2556 H 0.57699 0.8269 0.71978 0.0
H2557 H 0.59377 0.77427 0.54736 0.0
H2558 H 0.57454 0.78153 0.75301 0.0
H2559 H 0.57338 0.80377 0.50632 0.0
H2560 H 0.59061 0.77993 0.62434 0.0
H2561 H 0.57861 0.8212 0.64151 0.0
C2562 C 0.5766 0.8157 0.71074 0.0
C2563 C 0.57574 0.80476 0.74315 0.0
C2564 C 0.58682 0.78514 0.5984 0.0
C2565 C 0.57796 0.79842 0.6543 0.0
C2566 C 0.58872 0.78201 0.55459 0.0
C2567 C 0.58377 0.78852 0.52062 0.0
C2568 C 0.58019 0.79507 0.60816 0.0
C2569 C 0.57724 0.79843 0.5317 0.0
C2570 C 0.57758 0.8125 0.66618 0.0
C2571 C 0.57533 0.79044 0.72943 0.0
N2572 N 0.5757 0.80148 0.57464 0.0
N2573 N 0.57664 0.7878 0.68616 0.0
H2574 H 0.22352 0.81894 0.54438 0.0
H2575 H 0.17514 0.74944 0.72098 0.0
H2576 H 0.19612 0.76854 0.50604 0.0
H2577 H 0.21895 0.79442 0.75119 0.0
H2578 H 0.1798 0.75647 0.64232 0.0
H2579 H 0.21851 0.81064 0.62179 0.0
C2580 C 0.21635 0.80615 0.55227 0.0
C2581 C 0.21027 0.7944 0.5189 0.0
C2582 C 0.18839 0.76468 0.6664 0.0
C2583 C 0.20449 0.78485 0.60706 0.0
C2584 C 0.18579 0.76067 0.71119 0.0
C2585 C 0.19661 0.77137 0.74289 0.0
C2586 C 0.20173 0.77958 0.65355 0.0
C2587 C 0.21018 0.7858 0.72821 0.0
C2588 C 0.21359 0.80141 0.59636 0.0
C2589 C 0.20111 0.77797 0.5309 0.0
N2590 N 0.21224 0.78954 0.68473 0.0
N2591 N 0.19842 0.77365 0.57411 0.0
H2592 H 0.23432 0.42652 0.50642 0.0
H2593 H 0.20872 0.42912 0.7532 0.0
H2594 H 0.18453 0.40686 0.54757 0.0
H2595 H 0.25075 0.42454 0.72416 0.0
H2596 H 0.20223 0.42649 0.67522 0.0
H2597 H 0.24266 0.43043 0.58408 0.0
C2598 C 0.22515 0.42298 0.53183 0.0
C2599 C 0.20871 0.41635 0.52076 0.0
C2600 C 0.2129 0.42612 0.68593 0.0
C2601 C 0.21819 0.42108 0.60892 0.0
C2602 C 0.21672 0.42773 0.73049 0.0
C2603 C 0.23024 0.42686 0.74551 0.0
C2604 C 0.22274 0.42385 0.65586 0.0
C2605 C 0.24018 0.42521 0.71412 0.0
C2606 C 0.22992 0.42519 0.57594 0.0
C2607 C 0.19731 0.41192 0.55476 0.0
N2608 N 0.2362 0.42371 0.67059 0.0
N2609 N 0.2023 0.41452 0.5974 0.0
H2610 H 0.49405 0.9094 0.1034 0.0
H2611 H 0.43971 0.92296 0.27586 0.0
H2612 H 0.446 0.90086 0.07322 0.0
H2613 H 0.47233 0.90654 0.31899 0.0
H2614 H 0.44468 0.91849 0.19938 0.0
H2615 H 0.48859 0.91085 0.18201 0.0
C2616 C 0.48231 0.90756 0.1132 0.0
C2617 C 0.47057 0.90522 0.0815 0.0
C2618 C 0.45072 0.91584 0.22566 0.0
C2619 C 0.46448 0.90726 0.17065 0.0
C2620 C 0.44798 0.91851 0.26917 0.0
C2621 C 0.4556 0.91508 0.30361 0.0
C2622 C 0.46136 0.91 0.21657 0.0
C2623 C 0.46615 0.90924 0.29323 0.0
C2624 C 0.47924 0.90846 0.15795 0.0
C2625 C 0.45554 0.90293 0.0962 0.0
N2626 N 0.46884 0.90698 0.25049 0.0
N2627 N 0.45305 0.90425 0.13956 0.0
H2628 H 0.09608 0.54265 0.0718 0.0
H2629 H 0.09604 0.56748 0.3209 0.0
H2630 H 0.09172 0.58449 0.10511 0.0
H2631 H 0.07719 0.51797 0.27811 0.0
H2632 H 0.09902 0.57603 0.24356 0.0
H2633 H 0.09457 0.536 0.14938 0.0
C2634 C 0.09496 0.55058 0.09537 0.0
C2635 C 0.09383 0.5641 0.08167 0.0
C2636 C 0.09418 0.56331 0.25127 0.0
C2637 C 0.0921 0.5564 0.17097 0.0
C2638 C 0.09251 0.55842 0.29521 0.0
C2639 C 0.08637 0.54199 0.30573 0.0
C2640 C 0.08999 0.55173 0.21785 0.0
C2641 C 0.08191 0.53073 0.27136 0.0
C2642 C 0.094 0.54667 0.13973 0.0
C2643 C 0.09257 0.57394 0.11413 0.0
N2644 N 0.08395 0.53584 0.22886 0.0
N2645 N 0.09168 0.56986 0.15749 0.0
H2646 H 0.41557 0.51009 0.1044 0.0
H2647 H 0.48514 0.55925 0.278 0.0
H2648 H 0.45694 0.5573 0.07683 0.0
H2649 H 0.43569 0.52842 0.32093 0.0
H2650 H 0.47559 0.55575 0.20171 0.0
H2651 H 0.4228 0.51428 0.18296 0.0
C2652 C 0.42597 0.52141 0.11479 0.0
C2653 C 0.43578 0.53325 0.08375 0.0
C2654 C 0.46684 0.54977 0.2279 0.0
C2655 C 0.44425 0.53786 0.17295 0.0
C2656 C 0.4723 0.55165 0.2713 0.0
C2657 C 0.46118 0.54412 0.30567 0.0
C2658 C 0.4502 0.54007 0.21879 0.0
C2659 C 0.44464 0.53448 0.29525 0.0
C2660 C 0.43011 0.52375 0.15954 0.0
C2661 C 0.44912 0.54769 0.09926 0.0
N2662 N 0.43963 0.53263 0.25259 0.0
N2663 N 0.4531 0.54947 0.14259 0.0
H2664 H 0.09272 0.52848 0.82112 0.0
H2665 H 0.10156 0.55779 0.57294 0.0
H2666 H 0.07746 0.56171 0.77523 0.0
H2667 H 0.09333 0.50998 0.60523 0.0
H2668 H 0.0986 0.56231 0.65029 0.0
H2669 H 0.09785 0.52402 0.74464 0.0
C2670 C 0.09042 0.5348 0.7949 0.0
C2671 C 0.08464 0.54547 0.8043 0.0
C2672 C 0.09754 0.55087 0.64043 0.0
C2673 C 0.09076 0.54065 0.71744 0.0
C2674 C 0.09933 0.54827 0.59627 0.0
C2675 C 0.09746 0.53334 0.5823 0.0
C2676 C 0.09406 0.53859 0.67114 0.0
C2677 C 0.09478 0.52162 0.61443 0.0
C2678 C 0.09333 0.53222 0.75144 0.0
C2679 C 0.0818 0.55331 0.76928 0.0
N2680 N 0.09307 0.52447 0.65752 0.0
N2681 N 0.08504 0.55085 0.7273 0.0
H2682 H 0.445 0.51764 0.78338 0.0
H2683 H 0.49427 0.58527 0.6039 0.0
H2684 H 0.47234 0.56819 0.82032 0.0
H2685 H 0.44936 0.54106 0.57605 0.0
H2686 H 0.48937 0.57914 0.6831 0.0
H2687 H 0.45005 0.52561 0.70583 0.0
C2688 C 0.45215 0.53041 0.77515 0.0
C2689 C 0.45823 0.54228 0.80818 0.0
C2690 C 0.48059 0.57093 0.65938 0.0
C2691 C 0.46407 0.55146 0.71975 0.0
C2692 C 0.48334 0.57443 0.61429 0.0
C2693 C 0.4723 0.56362 0.58312 0.0
C2694 C 0.4669 0.55644 0.67301 0.0
C2695 C 0.45834 0.54972 0.59858 0.0
C2696 C 0.45493 0.53495 0.73096 0.0
C2697 C 0.46737 0.55867 0.7957 0.0
N2698 N 0.45616 0.54645 0.64229 0.0
N2699 N 0.47011 0.56281 0.75234 0.0
H2700 H 0.43556 0.90818 0.82133 0.0
H2701 H 0.46119 0.90755 0.57325 0.0
H2702 H 0.48543 0.92923 0.77949 0.0
H2703 H 0.41798 0.9097 0.60477 0.0
H2704 H 0.46809 0.91033 0.651 0.0
H2705 H 0.4271 0.90434 0.74381 0.0
C2706 C 0.44472 0.91204 0.7958 0.0
C2707 C 0.46122 0.91904 0.80666 0.0
C2708 C 0.45707 0.91015 0.64088 0.0
C2709 C 0.45161 0.91442 0.71855 0.0
C2710 C 0.45302 0.90846 0.59646 0.0
C2711 C 0.43902 0.90856 0.5822 0.0
C2712 C 0.44698 0.91173 0.67161 0.0
C2713 C 0.42891 0.90962 0.6142 0.0
C2714 C 0.43988 0.90987 0.75174 0.0
C2715 C 0.4726 0.92387 0.77248 0.0
N2716 N 0.43311 0.91119 0.65758 0.0
N2717 N 0.46756 0.92132 0.72987 0.0
H2718 H 0.22413 0.43478 0.25435 0.0
H2719 H 0.19485 0.42817 0.00676 0.0
H2720 H 0.17607 0.42633 0.2246 0.0
H2721 H 0.22733 0.41172 0.05103 0.0
H2722 H 0.19049 0.43297 0.08378 0.0
H2723 H 0.22863 0.43289 0.1764 0.0
C2724 C 0.21455 0.43274 0.23146 0.0
C2725 C 0.19955 0.43044 0.2463 0.0
C2726 C 0.19852 0.42828 0.07645 0.0
C2727 C 0.20477 0.42827 0.1567 0.0
C2728 C 0.20104 0.42556 0.03272 0.0
C2729 C 0.21144 0.41951 0.02273 0.0
C2730 C 0.20677 0.42529 0.11008 0.0
C2731 C 0.21913 0.41629 0.0574 0.0
C2732 C 0.21715 0.43157 0.18693 0.0
C2733 C 0.18777 0.42807 0.2147 0.0
N2734 N 0.21674 0.41935 0.0996 0.0
N2735 N 0.19059 0.42693 0.17118 0.0
H2736 H 0.59269 0.82 0.04949 0.0
H2737 H 0.57609 0.75014 0.21967 0.0
H2738 H 0.57506 0.77076 0.00606 0.0
H2739 H 0.57064 0.79137 0.25272 0.0
H2740 H 0.57835 0.75789 0.14167 0.0
H2741 H 0.58824 0.81051 0.12601 0.0
C2742 C 0.58799 0.80723 0.05611 0.0
C2743 C 0.5842 0.79613 0.02158 0.0
C2744 C 0.57649 0.76508 0.1662 0.0
C2745 C 0.57914 0.78524 0.10858 0.0
C2746 C 0.57514 0.76065 0.21062 0.0
C2747 C 0.57333 0.77019 0.24296 0.0
C2748 C 0.57629 0.77925 0.15438 0.0
C2749 C 0.57221 0.78371 0.2292 0.0
C2750 C 0.58534 0.8018 0.09964 0.0
C2751 C 0.57805 0.77968 0.03186 0.0
N2752 N 0.57392 0.78795 0.18607 0.0
N2753 N 0.57578 0.77472 0.07455 0.0
H2754 H 0.25227 0.82543 0.22137 0.0
H2755 H 0.1836 0.77188 0.0497 0.0
H2756 H 0.21215 0.77778 0.25217 0.0
H2757 H 0.23262 0.80439 0.00616 0.0
H2758 H 0.19321 0.77648 0.12602 0.0
H2759 H 0.24515 0.82001 0.14291 0.0
C2760 C 0.24218 0.81377 0.21172 0.0
C2761 C 0.23268 0.80215 0.24357 0.0
C2762 C 0.20185 0.78257 0.0997 0.0
C2763 C 0.22433 0.79611 0.15451 0.0
C2764 C 0.19636 0.78005 0.05626 0.0
C2765 C 0.20734 0.78776 0.02174 0.0
C2766 C 0.21838 0.79309 0.10864 0.0
C2767 C 0.22378 0.79816 0.03197 0.0
C2768 C 0.2381 0.81073 0.16704 0.0
C2769 C 0.21972 0.78723 0.22905 0.0
N2770 N 0.22882 0.80064 0.07465 0.0
N2771 N 0.21579 0.78476 0.18573 0.0
H2772 H 0.18944 0.23049 0.23886 0.0
H2773 H 0.18821 0.14578 0.23197 0.0
H2774 H 0.14999 0.18691 0.29531 0.0
H2775 H 0.22719 0.19171 0.18557 0.0
H2776 H 0.17246 0.15919 0.24995 0.0
H2777 H 0.20179 0.21511 0.21377 0.0
C2778 C 0.18334 0.21763 0.24616 0.0
C2779 C 0.16872 0.21004 0.26983 0.0
C2780 C 0.18441 0.16623 0.23553 0.0
C2781 C 0.18301 0.19214 0.24084 0.0
C2782 C 0.19336 0.15859 0.2251 0.0
C2783 C 0.20909 0.16768 0.2076 0.0
C2784 C 0.19127 0.18299 0.22801 0.0
C2785 C 0.21521 0.18424 0.1995 0.0
C2786 C 0.19044 0.20879 0.23161 0.0
C2787 C 0.16133 0.19325 0.27742 0.0
N2788 N 0.20634 0.1913 0.20987 0.0
N2789 N 0.16863 0.18484 0.26324 0.0
H2790 H 0.81354 0.96207 0.29077 0.0
H2791 H 0.80737 0.03589 0.1844 0.0
H2792 H 0.76923 0.96094 0.25288 0.0
H2793 H 0.85298 0.04169 0.22962 0.0
H2794 H 0.79408 0.00743 0.20388 0.0
H2795 H 0.829 0.99036 0.26458 0.0
C2796 C 0.80707 0.96772 0.27702 0.0
C2797 C 0.79004 0.95912 0.2744 0.0
C2798 C 0.80701 0.01482 0.20955 0.0
C2799 C 0.80757 0.99124 0.24415 0.0
C2800 C 0.81464 0.03114 0.19833 0.0
C2801 C 0.8313 0.04125 0.20578 0.0
C2802 C 0.816 0.00838 0.2288 0.0
C2803 C 0.84009 0.0343 0.22338 0.0
C2804 C 0.81589 0.98383 0.26206 0.0
C2805 C 0.7823 0.96703 0.25607 0.0
N2806 N 0.8323 0.01827 0.23473 0.0
N2807 N 0.7911 0.98254 0.24179 0.0
H2808 H 0.96273 0.81544 0.19954 0.0
H2809 H 0.03554 0.80783 0.30707 0.0
H2810 H 0.95976 0.7711 0.24572 0.0
H2811 H 0.04224 0.85368 0.26083 0.0
H2812 H 0.00697 0.79509 0.28928 0.0
H2813 H 0.9911 0.83051 0.22524 0.0
C2814 C 0.96798 0.80889 0.21511 0.0
C2815 C 0.95887 0.79195 0.22001 0.0
C2816 C 0.01457 0.80796 0.28306 0.0
C2817 C 0.9911 0.80904 0.2496 0.0
C2818 C 0.03096 0.81527 0.29327 0.0
C2819 C 0.04135 0.83183 0.28505 0.0
C2820 C 0.00835 0.81717 0.26398 0.0
C2821 C 0.03463 0.84086 0.26765 0.0
C2822 C 0.98414 0.81749 0.22977 0.0
C2823 C 0.96627 0.7841 0.24063 0.0
N2824 N 0.01852 0.83337 0.25722 0.0
N2825 N 0.98186 0.79268 0.25445 0.0
H2826 H 0.81035 0.76907 0.74478 0.0
H2827 H 0.81425 0.85496 0.7596 0.0
H2828 H 0.85162 0.81298 0.69603 0.0
H2829 H 0.77423 0.80902 0.80223 0.0
H2830 H 0.82941 0.84106 0.7402 0.0
H2831 H 0.79822 0.78466 0.7697 0.0
C2832 C 0.8169 0.78205 0.7391 0.0
C2833 C 0.832 0.78967 0.71773 0.0
C2834 C 0.81735 0.83411 0.75406 0.0
C2835 C 0.81797 0.80784 0.74667 0.0
C2836 C 0.80873 0.84203 0.7653 0.0
C2837 C 0.79289 0.83311 0.7822 0.0
C2838 C 0.81004 0.81724 0.76012 0.0
C2839 C 0.7863 0.8164 0.7888 0.0
C2840 C 0.80993 0.79101 0.75358 0.0
C2841 C 0.83991 0.8066 0.71212 0.0
N2842 N 0.79486 0.80907 0.77766 0.0
N2843 N 0.83275 0.81515 0.72629 0.0
H2844 H 0.18768 0.0413 0.73085 0.0
H2845 H 0.18714 0.95691 0.73606 0.0
H2846 H 0.22621 0.03364 0.68442 0.0
H2847 H 0.14859 0.96205 0.79466 0.0
H2848 H 0.1998 0.98465 0.71061 0.0
H2849 H 0.17147 0.01212 0.74822 0.0
C2850 C 0.19264 0.03348 0.72384 0.0
C2851 C 0.20837 0.03992 0.70654 0.0
C2852 C 0.18857 0.97982 0.72898 0.0
C2853 C 0.19003 0.00676 0.72622 0.0
C2854 C 0.18131 0.9639 0.74371 0.0
C2855 C 0.16686 0.95716 0.76815 0.0
C2856 C 0.1815 0.98933 0.73883 0.0
C2857 C 0.15979 0.96682 0.77618 0.0
C2858 C 0.18343 0.01688 0.73392 0.0
C2859 C 0.21424 0.02928 0.69822 0.0
N2860 N 0.16727 0.98252 0.76186 0.0
N2861 N 0.20511 0.01333 0.70825 0.0
H2862 H 0.9661 0.19281 0.68352 0.0
H2863 H 0.03971 0.18706 0.7929 0.0
H2864 H 0.95997 0.14755 0.73299 0.0
H2865 H 0.04182 0.23084 0.74515 0.0
H2866 H 0.01126 0.17151 0.76794 0.0
H2867 H 0.99466 0.206 0.70163 0.0
C2868 C 0.9708 0.1856 0.69815 0.0
C2869 C 0.96057 0.16907 0.70714 0.0
C2870 C 0.01805 0.18452 0.76293 0.0
C2871 C 0.99358 0.18426 0.72852 0.0
C2872 C 0.03425 0.19338 0.77717 0.0
C2873 C 0.04315 0.21031 0.77155 0.0
C2874 C 0.01084 0.19268 0.74279 0.0
C2875 C 0.03548 0.21786 0.75076 0.0
C2876 C 0.98719 0.19317 0.70853 0.0
C2877 C 0.96745 0.16034 0.72557 0.0
N2878 N 0.01987 0.20903 0.73733 0.0
N2879 N 0.98356 0.16808 0.73609 0.0
H2880 H 0.81373 0.52047 0.58926 0.0
H2881 H 0.89923 0.52331 0.58309 0.0
H2882 H 0.85907 0.55939 0.63905 0.0
H2883 H 0.856 0.48331 0.52693 0.0
H2884 H 0.88343 0.53524 0.60808 0.0
H2885 H 0.82762 0.50523 0.5707 0.0
C2886 C 0.82651 0.52571 0.59673 0.0
C2887 C 0.83529 0.54129 0.61536 0.0
C2888 C 0.87728 0.52385 0.59033 0.0
C2889 C 0.85115 0.52405 0.59427 0.0
C2890 C 0.88635 0.51701 0.57584 0.0
C2891 C 0.87899 0.50234 0.55232 0.0
C2892 C 0.8606 0.51612 0.58122 0.0
C2893 C 0.86218 0.49469 0.54473 0.0
C2894 C 0.83443 0.51706 0.58597 0.0
C2895 C 0.85183 0.54754 0.62422 0.0
N2896 N 0.85352 0.50174 0.55888 0.0
N2897 N 0.85916 0.53895 0.61349 0.0
H2898 H 0.4376 0.2915 0.57437 0.0
H2899 H 0.52306 0.3743 0.56892 0.0
H2900 H 0.48089 0.29473 0.63008 0.0
H2901 H 0.47741 0.36829 0.52328 0.0
H2902 H 0.5092 0.34509 0.58659 0.0
H2903 H 0.45329 0.31939 0.55055 0.0
C2904 C 0.45046 0.2981 0.58176 0.0
C2905 C 0.45787 0.29075 0.60482 0.0
C2906 C 0.50231 0.35022 0.57246 0.0
C2907 C 0.47614 0.32311 0.57729 0.0
C2908 C 0.51021 0.36684 0.56222 0.0
C2909 C 0.50135 0.37377 0.54496 0.0
C2910 C 0.48552 0.34057 0.56499 0.0
C2911 C 0.48472 0.36358 0.53703 0.0
C2912 C 0.45947 0.31412 0.56796 0.0
C2913 C 0.47467 0.29996 0.61263 0.0
N2914 N 0.47741 0.3476 0.5472 0.0
N2915 N 0.48326 0.31575 0.59914 0.0
H2916 H 0.62592 0.10306 0.58521 0.0
H2917 H 0.70897 0.18806 0.59897 0.0
H2918 H 0.62972 0.14731 0.53501 0.0
H2919 H 0.70234 0.14174 0.64043 0.0
H2920 H 0.67985 0.17465 0.58054 0.0
H2921 H 0.65365 0.11825 0.61065 0.0
C2922 C 0.63261 0.11603 0.57938 0.0
C2923 C 0.62548 0.12387 0.55737 0.0
C2924 C 0.68482 0.16751 0.59397 0.0
C2925 C 0.65765 0.14155 0.58678 0.0
C2926 C 0.70139 0.17515 0.60466 0.0
C2927 C 0.70812 0.16597 0.6209 0.0
C2928 C 0.67502 0.15066 0.59995 0.0
C2929 C 0.69777 0.14929 0.6275 0.0
C2930 C 0.64853 0.12476 0.59412 0.0
C2931 C 0.63478 0.14077 0.55159 0.0
N2932 N 0.68185 0.14223 0.6169 0.0
N2933 N 0.65048 0.14908 0.56595 0.0
H2934 H 0.48127 0.18657 0.12603 0.0
H2935 H 0.47634 0.10735 0.01815 0.0
H2936 H 0.43756 0.14423 0.08083 0.0
H2937 H 0.52141 0.14691 0.06712 0.0
H2938 H 0.46287 0.1225 0.03594 0.0
H2939 H 0.49703 0.17392 0.10092 0.0
C2940 C 0.475 0.17468 0.11084 0.0
C2941 C 0.45804 0.1664 0.10595 0.0
C2942 C 0.47573 0.128 0.04278 0.0
C2943 C 0.47592 0.15201 0.07698 0.0
C2944 C 0.48345 0.11931 0.03256 0.0
C2945 C 0.50001 0.1258 0.04155 0.0
C2946 C 0.4845 0.14335 0.06261 0.0
C2947 C 0.50861 0.14147 0.05969 0.0
C2948 C 0.48399 0.16749 0.09651 0.0
C2949 C 0.45056 0.15106 0.08584 0.0
N2950 N 0.50071 0.14969 0.07008 0.0
N2951 N 0.45952 0.14443 0.07227 0.0
H2952 H 0.89473 0.37048 0.02373 0.0
H2953 H 0.8147 0.29571 0.1268 0.0
H2954 H 0.85432 0.37559 0.06731 0.0
H2955 H 0.85847 0.29543 0.0908 0.0
H2956 H 0.82739 0.32412 0.10164 0.0
H2957 H 0.87986 0.34205 0.04327 0.0
C2958 C 0.88265 0.3656 0.0374 0.0
C2959 C 0.87584 0.37551 0.04431 0.0
C2960 C 0.83413 0.31775 0.09933 0.0
C2961 C 0.85859 0.34262 0.06729 0.0
C2962 C 0.82692 0.30158 0.11369 0.0
C2963 C 0.83555 0.29317 0.11124 0.0
C2964 C 0.84999 0.32543 0.08221 0.0
C2965 C 0.85132 0.30135 0.09378 0.0
C2966 C 0.87412 0.34927 0.04861 0.0
C2967 C 0.86003 0.36836 0.06152 0.0
N2968 N 0.85796 0.31692 0.08006 0.0
N2969 N 0.85194 0.35232 0.07281 0.0
H2970 H 0.70233 0.56032 0.14765 0.0
H2971 H 0.62892 0.48316 0.02958 0.0
H2972 H 0.70897 0.52302 0.08705 0.0
H2973 H 0.62751 0.52498 0.07922 0.0
H2974 H 0.6572 0.49539 0.05561 0.0
H2975 H 0.67371 0.54507 0.12969 0.0
C2976 C 0.69772 0.54882 0.1307 0.0
C2977 C 0.7081 0.54303 0.11841 0.0
C2978 C 0.6506 0.50179 0.06076 0.0
C2979 C 0.6751 0.52542 0.097 0.0
C2980 C 0.6345 0.49484 0.04592 0.0
C2981 C 0.62585 0.50311 0.0518 0.0
C2982 C 0.65793 0.51699 0.0819 0.0
C2983 C 0.63365 0.51817 0.07338 0.0
C2984 C 0.68132 0.54009 0.12034 0.0
C2985 C 0.70136 0.52792 0.09706 0.0
N2986 N 0.64915 0.52456 0.08749 0.0
N2987 N 0.68525 0.51967 0.08653 0.0
H2988 H 0.52449 0.89909 0.90853 0.0
H2989 H 0.5227 0.81416 0.89636 0.0
H2990 H 0.4842 0.85495 0.95976 0.0
H2991 H 0.56198 0.86029 0.85211 0.0
H2992 H 0.50701 0.82757 0.91489 0.0
H2993 H 0.53697 0.88386 0.88303 0.0
C2994 C 0.51824 0.88613 0.91459 0.0
C2995 C 0.50332 0.87834 0.93688 0.0
C2996 C 0.51902 0.83466 0.90083 0.0
C2997 C 0.51774 0.8606 0.9074 0.0
C2998 C 0.52793 0.82702 0.89008 0.0
C2999 C 0.54373 0.83615 0.87304 0.0
C3000 C 0.52597 0.85147 0.89412 0.0
C3001 C 0.54995 0.85277 0.86568 0.0
C3002 C 0.5254 0.87738 0.8998 0.0
C3003 C 0.49576 0.86145 0.94295 0.0
N3004 N 0.54111 0.85985 0.87638 0.0
N3005 N 0.50312 0.85312 0.92855 0.0
H3006 H 0.14813 0.62541 0.94371 0.0
H3007 H 0.19059 0.70944 0.8899 0.0
H3008 H 0.10629 0.63182 0.94395 0.0
H3009 H 0.14257 0.70175 0.86522 0.0
H3010 H 0.17841 0.68098 0.91307 0.0
H3011 H 0.16487 0.65365 0.91918 0.0
C3012 C 0.14251 0.63279 0.93909 0.0
C3013 C 0.12576 0.62619 0.94594 0.0
C3014 C 0.17055 0.68544 0.90195 0.0
C3015 C 0.14478 0.65848 0.91809 0.0
C3016 C 0.17753 0.70172 0.88873 0.0
C3017 C 0.1676 0.70803 0.87585 0.0
C3018 C 0.15354 0.6755 0.90205 0.0
C3019 C 0.15075 0.69753 0.87528 0.0
C3020 C 0.15209 0.64895 0.92514 0.0
C3021 C 0.1191 0.63625 0.93907 0.0
N3022 N 0.14433 0.68192 0.88839 0.0
N3023 N 0.12859 0.65176 0.92545 0.0
H3024 H 0.29167 0.48074 0.8981 0.0
H3025 H 0.37527 0.47981 0.91044 0.0
H3026 H 0.29855 0.44096 0.85906 0.0
H3027 H 0.371 0.51981 0.96208 0.0
H3028 H 0.34746 0.467 0.88569 0.0
H3029 H 0.32083 0.49674 0.91601 0.0
C3030 C 0.29932 0.47545 0.89287 0.0
C3031 C 0.29265 0.45945 0.87741 0.0
C3032 C 0.35248 0.47858 0.90242 0.0
C3033 C 0.32578 0.47756 0.89772 0.0
C3034 C 0.36846 0.48594 0.91675 0.0
C3035 C 0.37548 0.50086 0.93898 0.0
C3036 C 0.34321 0.48604 0.91037 0.0
C3037 C 0.36602 0.50825 0.94533 0.0
C3038 C 0.3159 0.48454 0.90326 0.0
C3039 C 0.30306 0.45316 0.87137 0.0
N3040 N 0.35027 0.5007 0.93135 0.0
N3041 N 0.319 0.46218 0.88161 0.0
H3042 H 0.14967 0.52377 0.42493 0.0
H3043 H 0.14791 0.43876 0.42318 0.0
H3044 H 0.11103 0.47847 0.4758 0.0
H3045 H 0.18705 0.4817 0.36325 0.0
H3046 H 0.13596 0.45455 0.44815 0.0
H3047 H 0.16521 0.51008 0.40762 0.0
C3048 C 0.14456 0.51104 0.43293 0.0
C3049 C 0.12897 0.5022 0.45144 0.0
C3050 C 0.14717 0.46064 0.42959 0.0
C3051 C 0.14655 0.48657 0.43181 0.0
C3052 C 0.15402 0.45157 0.41512 0.0
C3053 C 0.16843 0.45885 0.39049 0.0
C3054 C 0.15461 0.47721 0.41928 0.0
C3055 C 0.17587 0.47558 0.38191 0.0
C3056 C 0.15338 0.50324 0.42288 0.0
C3057 C 0.12289 0.48575 0.46101 0.0
N3058 N 0.16879 0.48422 0.39599 0.0
N3059 N 0.13164 0.47852 0.45097 0.0
H3060 H 0.52502 0.62556 0.41214 0.0
H3061 H 0.52158 0.70779 0.39742 0.0
H3062 H 0.48403 0.62854 0.46167 0.0
H3063 H 0.56133 0.70159 0.35388 0.0
H3064 H 0.50632 0.67874 0.41686 0.0
H3065 H 0.53718 0.65323 0.3867 0.0
C3066 C 0.51854 0.63206 0.41787 0.0
C3067 C 0.50351 0.6247 0.43963 0.0
C3068 C 0.51834 0.68379 0.40276 0.0
C3069 C 0.51757 0.65683 0.41012 0.0
C3070 C 0.52701 0.70031 0.3915 0.0
C3071 C 0.54281 0.70715 0.37435 0.0
C3072 C 0.52555 0.67414 0.39649 0.0
C3073 C 0.54929 0.69695 0.36748 0.0
C3074 C 0.52552 0.64796 0.4031 0.0
C3075 C 0.49568 0.63378 0.44529 0.0
N3076 N 0.54069 0.68107 0.37868 0.0
N3077 N 0.50286 0.64946 0.43085 0.0
H3078 H 0.36936 0.89272 0.47893 0.0
H3079 H 0.29595 0.81438 0.3651 0.0
H3080 H 0.37578 0.85451 0.42365 0.0
H3081 H 0.29415 0.85623 0.41268 0.0
H3082 H 0.32424 0.82692 0.39116 0.0
H3083 H 0.34074 0.87735 0.46112 0.0
C3084 C 0.36471 0.881 0.46315 0.0
C3085 C 0.37503 0.87498 0.45233 0.0
C3086 C 0.31756 0.83326 0.3959 0.0
C3087 C 0.34201 0.85721 0.43118 0.0
C3088 C 0.30145 0.82614 0.38104 0.0
C3089 C 0.29269 0.83432 0.38628 0.0
C3090 C 0.32481 0.84857 0.41637 0.0
C3091 C 0.30039 0.84949 0.40735 0.0
C3092 C 0.3483 0.8722 0.45291 0.0
C3093 C 0.36822 0.8596 0.43249 0.0
N3094 N 0.31592 0.85606 0.42145 0.0
N3095 N 0.35211 0.85127 0.42207 0.0
H3096 H 0.29144 0.1346 0.21426 0.0
H3097 H 0.37783 0.20189 0.11841 0.0
H3098 H 0.30144 0.18132 0.16498 0.0
H3099 H 0.36785 0.15526 0.16839 0.0
H3100 H 0.34989 0.19465 0.1357 0.0
H3101 H 0.31955 0.14212 0.19859 0.0
C3102 C 0.29953 0.14646 0.20039 0.0
C3103 C 0.294 0.15732 0.19101 0.0
C3104 C 0.35384 0.18601 0.14282 0.0
C3105 C 0.32621 0.16598 0.17273 0.0
C3106 C 0.36979 0.19013 0.13286 0.0
C3107 C 0.37524 0.17917 0.14177 0.0
C3108 C 0.34325 0.17083 0.16183 0.0
C3109 C 0.36424 0.16412 0.16076 0.0
C3110 C 0.31558 0.15073 0.19134 0.0
C3111 C 0.30508 0.17251 0.17284 0.0
N3112 N 0.34881 0.16041 0.17011 0.0
N3113 N 0.32061 0.17636 0.16426 0.0
H3114 H 0.79958 0.17743 0.12077 0.0
H3115 H 0.8662 0.15718 0.21544 0.0
H3116 H 0.84606 0.2136 0.17279 0.0
H3117 H 0.81931 0.12098 0.16571 0.0
H3118 H 0.85892 0.17803 0.20096 0.0
H3119 H 0.80656 0.15653 0.13745 0.0
C3120 C 0.81125 0.18101 0.13556 0.0
C3121 C 0.82224 0.19735 0.14519 0.0
C3122 C 0.85022 0.16551 0.19338 0.0
C3123 C 0.8303 0.17344 0.16454 0.0
C3124 C 0.85435 0.15358 0.20175 0.0
C3125 C 0.84338 0.13726 0.19185 0.0
C3126 C 0.835 0.1611 0.17492 0.0
C3127 C 0.82821 0.13337 0.17394 0.0
C3128 C 0.81523 0.16905 0.14517 0.0
C3129 C 0.83718 0.2012 0.16459 0.0
N3130 N 0.82451 0.14519 0.166 0.0
N3131 N 0.84076 0.18935 0.17356 0.0
H3132 H 0.78583 0.63621 0.15428 0.0
H3133 H 0.88007 0.70301 0.14965 0.0
H3134 H 0.82314 0.62706 0.10522 0.0
H3135 H 0.843 0.71203 0.2015 0.0
H3136 H 0.85927 0.67548 0.13121 0.0
H3137 H 0.80641 0.66423 0.169 0.0
C3138 C 0.79833 0.64008 0.14629 0.0
C3139 C 0.80272 0.62917 0.12846 0.0
C3140 C 0.85566 0.68346 0.14662 0.0
C3141 C 0.82644 0.66139 0.14567 0.0
C3142 C 0.86755 0.69923 0.1573 0.0
C3143 C 0.86333 0.70992 0.17744 0.0
C3144 C 0.83934 0.67822 0.15601 0.0
C3145 C 0.84686 0.70423 0.18622 0.0
C3146 C 0.8101 0.65613 0.15485 0.0
C3147 C 0.81916 0.63499 0.11891 0.0
N3148 N 0.83548 0.68876 0.17548 0.0
N3149 N 0.83042 0.65069 0.12779 0.0
H3150 H 0.15561 0.36852 0.32221 0.0
H3151 H 0.18076 0.30011 0.33482 0.0
H3152 H 0.20114 0.37666 0.37598 0.0
H3153 H 0.13539 0.29194 0.27975 0.0
H3154 H 0.18834 0.32811 0.34987 0.0
H3155 H 0.14804 0.34054 0.3065 0.0
C3156 C 0.16405 0.36446 0.33083 0.0
C3157 C 0.17907 0.37504 0.35064 0.0
C3158 C 0.17674 0.32022 0.33444 0.0
C3159 C 0.17038 0.34284 0.33245 0.0
C3160 C 0.17236 0.30417 0.32573 0.0
C3161 C 0.15738 0.29357 0.3058 0.0
C3162 C 0.16608 0.32582 0.32329 0.0
C3163 C 0.14706 0.29964 0.29503 0.0
C3164 C 0.15968 0.34843 0.32175 0.0
C3165 C 0.18944 0.36898 0.36081 0.0
N3166 N 0.15161 0.31537 0.30395 0.0
N3167 N 0.18489 0.35328 0.3516 0.0
H3168 H 0.62376 0.82299 0.37914 0.0
H3169 H 0.71043 0.84336 0.28256 0.0
H3170 H 0.63419 0.78683 0.32769 0.0
H3171 H 0.70024 0.87938 0.3363 0.0
H3172 H 0.68248 0.82244 0.29872 0.0
H3173 H 0.65181 0.84385 0.36389 0.0
C3174 C 0.63193 0.81941 0.36484 0.0
C3175 C 0.62655 0.80309 0.35479 0.0
C3176 C 0.68638 0.83494 0.3069 0.0
C3177 C 0.65868 0.82694 0.33703 0.0
C3178 C 0.70234 0.8469 0.2976 0.0
C3179 C 0.70775 0.8632 0.30791 0.0
C3180 C 0.67573 0.83929 0.32666 0.0
C3181 C 0.69668 0.86701 0.3276 0.0
C3182 C 0.64795 0.83134 0.35606 0.0
C3183 C 0.63772 0.79922 0.33611 0.0
N3184 N 0.68123 0.85517 0.33628 0.0
N3185 N 0.65321 0.81104 0.32781 0.0
H3186 H 0.2143 0.846 0.31929 0.0
H3187 H 0.11982 0.81769 0.32263 0.0
H3188 H 0.17731 0.7997 0.37017 0.0
H3189 H 0.15692 0.86477 0.2765 0.0
H3190 H 0.14061 0.8106 0.33764 0.0
H3191 H 0.19342 0.85274 0.30158 0.0
C3192 C 0.20179 0.83722 0.32689 0.0
C3193 C 0.1976 0.82224 0.34651 0.0
C3194 C 0.14422 0.82246 0.32411 0.0
C3195 C 0.17355 0.82995 0.3259 0.0
C3196 C 0.13233 0.82655 0.31538 0.0
C3197 C 0.13658 0.8419 0.29821 0.0
C3198 C 0.16056 0.83378 0.31573 0.0
C3199 C 0.15304 0.8528 0.28964 0.0
C3200 C 0.18986 0.84111 0.31664 0.0
C3201 C 0.18115 0.8114 0.35528 0.0
N3202 N 0.16443 0.84853 0.2986 0.0
N3203 N 0.16973 0.81548 0.3449 0.0
H3204 H 0.70169 0.821 0.83111 0.0
H3205 H 0.63603 0.84997 0.83075 0.0
H3206 H 0.71173 0.86806 0.78459 0.0
H3207 H 0.62618 0.80308 0.8782 0.0
H3208 H 0.66377 0.85684 0.81435 0.0
H3209 H 0.67406 0.81429 0.84829 0.0
C3210 C 0.6981 0.82994 0.82428 0.0
C3211 C 0.70913 0.84515 0.80619 0.0
C3212 C 0.65558 0.84507 0.82846 0.0
C3213 C 0.67733 0.83747 0.82624 0.0
C3214 C 0.63969 0.84111 0.83799 0.0
C3215 C 0.62867 0.82588 0.85601 0.0
C3216 C 0.66058 0.83374 0.83685 0.0
C3217 C 0.63421 0.81496 0.86447 0.0
C3218 C 0.68228 0.82607 0.83426 0.0
C3219 C 0.70368 0.85618 0.79831 0.0
N3220 N 0.64977 0.8191 0.85471 0.0
N3221 N 0.68817 0.85212 0.80844 0.0
H3222 H 0.15179 0.78522 0.83303 0.0
H3223 H 0.17781 0.87907 0.84129 0.0
H3224 H 0.19796 0.82271 0.8832 0.0
H3225 H 0.13211 0.84173 0.78823 0.0
H3226 H 0.18501 0.85851 0.85866 0.0
H3227 H 0.14407 0.8056 0.81881 0.0
C3228 C 0.16031 0.79773 0.84131 0.0
C3229 C 0.1756 0.80222 0.85941 0.0
C3230 C 0.17341 0.85479 0.84323 0.0
C3231 C 0.16675 0.82572 0.84282 0.0
C3232 C 0.16925 0.86654 0.83318 0.0
C3233 C 0.15431 0.86217 0.81298 0.0
C3234 C 0.16257 0.83848 0.83315 0.0
C3235 C 0.14377 0.84571 0.80359 0.0
C3236 C 0.15587 0.80938 0.83305 0.0
C3237 C 0.18606 0.81866 0.86931 0.0
N3238 N 0.14811 0.83447 0.81372 0.0
N3239 N 0.18145 0.82981 0.86077 0.0
H3240 H 0.17708 0.37698 0.88056 0.0
H3241 H 0.15889 0.29092 0.78441 0.0
H3242 H 0.21429 0.36702 0.83532 0.0
H3243 H 0.12187 0.30046 0.83379 0.0
H3244 H 0.1794 0.31884 0.80257 0.0
H3245 H 0.15664 0.34889 0.86394 0.0
C3246 C 0.18098 0.3689 0.86741 0.0
C3247 C 0.19746 0.37444 0.8594 0.0
C3248 C 0.16677 0.3148 0.80936 0.0
C3249 C 0.1741 0.34227 0.84 0.0
C3250 C 0.15505 0.29886 0.79888 0.0
C3251 C 0.13859 0.29328 0.80739 0.0
C3252 C 0.16203 0.32525 0.82846 0.0
C3253 C 0.13438 0.30416 0.82645 0.0
C3254 C 0.1693 0.35286 0.85781 0.0
C3255 C 0.20175 0.36337 0.8421 0.0
N3256 N 0.146 0.31958 0.83629 0.0
N3257 N 0.19016 0.34787 0.83292 0.0
H3258 H 0.82035 0.69933 0.6575 0.0
H3259 H 0.84761 0.63244 0.66735 0.0
H3260 H 0.8663 0.70848 0.71072 0.0
H3261 H 0.80139 0.62314 0.6158 0.0
H3262 H 0.85465 0.66027 0.68305 0.0
H3263 H 0.81327 0.67147 0.64218 0.0
C3264 C 0.82898 0.69551 0.66615 0.0
C3265 C 0.84398 0.70635 0.68561 0.0
C3266 C 0.84298 0.65216 0.66826 0.0
C3267 C 0.83587 0.67428 0.66776 0.0
C3268 C 0.83892 0.63622 0.65916 0.0
C3269 C 0.82385 0.62534 0.64004 0.0
C3270 C 0.83192 0.65738 0.65829 0.0
C3271 C 0.81315 0.63105 0.63041 0.0
C3272 C 0.82489 0.67954 0.65728 0.0
C3273 C 0.8546 0.70059 0.69584 0.0
N3274 N 0.81739 0.64667 0.63967 0.0
N3275 N 0.85034 0.68495 0.68674 0.0
H3276 H 0.30136 0.11773 0.66621 0.0
H3277 H 0.36767 0.21217 0.66784 0.0
H3278 H 0.2918 0.15503 0.7131 0.0
H3279 H 0.37715 0.175 0.61937 0.0
H3280 H 0.34003 0.19138 0.68536 0.0
H3281 H 0.32923 0.13844 0.65039 0.0
C3282 C 0.3051 0.13027 0.67344 0.0
C3283 C 0.29413 0.1346 0.69111 0.0
C3284 C 0.34813 0.18775 0.67085 0.0
C3285 C 0.32619 0.15847 0.67266 0.0
C3286 C 0.36397 0.19964 0.66071 0.0
C3287 C 0.37483 0.19538 0.64188 0.0
C3288 C 0.34301 0.17141 0.66227 0.0
C3289 C 0.36923 0.17889 0.63366 0.0
C3290 C 0.32107 0.14211 0.66425 0.0
C3291 C 0.29979 0.15109 0.6996 0.0
N3292 N 0.3537 0.16751 0.64393 0.0
N3293 N 0.31541 0.16241 0.69019 0.0
H3294 H 0.88144 0.1812 0.65798 0.0
H3295 H 0.78685 0.1524 0.66159 0.0
H3296 H 0.84456 0.13432 0.70592 0.0
H3297 H 0.82377 0.19941 0.61458 0.0
H3298 H 0.80775 0.14546 0.67681 0.0
H3299 H 0.86048 0.18794 0.64151 0.0
C3300 C 0.86894 0.1723 0.66524 0.0
C3301 C 0.86481 0.15714 0.68356 0.0
C3302 C 0.81129 0.15728 0.66306 0.0
C3303 C 0.84065 0.16486 0.66437 0.0
C3304 C 0.79934 0.16128 0.65421 0.0
C3305 C 0.80351 0.17656 0.63666 0.0
C3306 C 0.8276 0.16862 0.65444 0.0
C3307 C 0.81995 0.18749 0.62797 0.0
C3308 C 0.85696 0.17619 0.65569 0.0
C3309 C 0.84836 0.14616 0.69199 0.0
N3310 N 0.83139 0.18332 0.63705 0.0
N3311 N 0.83689 0.15024 0.68229 0.0
H3312 H 0.03679 0.48815 0.49528 0.0
H3313 H 0.96962 0.51508 0.48978 0.0
H3314 H 0.04623 0.53506 0.44922 0.0
H3315 H 0.96077 0.46891 0.54045 0.0
H3316 H 0.99751 0.5224 0.47378 0.0
H3317 H 0.00884 0.48076 0.51043 0.0
C3318 C 0.03301 0.49692 0.48814 0.0
C3319 C 0.04397 0.51229 0.47081 0.0
C3320 C 0.9895 0.51068 0.48845 0.0
C3321 C 0.01178 0.50382 0.48846 0.0
C3322 C 0.97352 0.50646 0.49771 0.0
C3323 C 0.96276 0.49133 0.5167 0.0
C3324 C 0.99485 0.49971 0.49806 0.0
C3325 C 0.9686 0.48071 0.52598 0.0
C3326 C 0.017 0.49266 0.49694 0.0
C3327 C 0.03825 0.52307 0.46244 0.0
N3328 N 0.98425 0.48511 0.51652 0.0
N3329 N 0.02256 0.51863 0.4714 0.0
H3330 H 0.51551 0.54643 0.50203 0.0
H3331 H 0.48882 0.45242 0.49407 0.0
H3332 H 0.46982 0.50935 0.44825 0.0
H3333 H 0.53522 0.4897 0.54364 0.0
H3334 H 0.4816 0.47304 0.47805 0.0
H3335 H 0.52279 0.52584 0.51785 0.0
C3336 C 0.50699 0.53396 0.49335 0.0
C3337 C 0.49199 0.52967 0.47359 0.0
C3338 C 0.49335 0.47673 0.49247 0.0
C3339 C 0.50034 0.50591 0.49203 0.0
C3340 C 0.49752 0.46494 0.50177 0.0
C3341 C 0.51269 0.46928 0.52041 0.0
C3342 C 0.5044 0.49306 0.50179 0.0
C3343 C 0.52339 0.48575 0.52942 0.0
C3344 C 0.51119 0.52219 0.50251 0.0
C3345 C 0.48151 0.51327 0.46336 0.0
N3346 N 0.51903 0.49703 0.52 0.0
N3347 N 0.48588 0.50199 0.47276 0.0
H3348 H 0.54717 0.03479 0.48505 0.0
H3349 H 0.45306 0.96762 0.49055 0.0
H3350 H 0.50994 0.04342 0.53762 0.0
H3351 H 0.4905 0.95831 0.44346 0.0
H3352 H 0.47359 0.99564 0.50512 0.0
H3353 H 0.52652 0.0071 0.46741 0.0
C3354 C 0.53465 0.0309 0.49301 0.0
C3355 C 0.53034 0.04152 0.51314 0.0
C3356 C 0.47733 0.9875 0.49148 0.0
C3357 C 0.50653 0.00965 0.49262 0.0
C3358 C 0.46559 0.97145 0.483 0.0
C3359 C 0.47002 0.96049 0.46569 0.0
C3360 C 0.49369 0.99275 0.48269 0.0
C3361 C 0.48649 0.96628 0.45673 0.0
C3362 C 0.52285 0.01503 0.48281 0.0
C3363 C 0.51388 0.03569 0.52232 0.0
N3364 N 0.49773 0.982 0.46544 0.0
N3365 N 0.50258 0.02014 0.51201 0.0
H3366 H 0.53452 0.04426 0.0501 0.0
H3367 H 0.46715 0.95787 0.95457 0.0
H3368 H 0.48737 0.03389 0.00348 0.0
H3369 H 0.51356 0.96758 0.00569 0.0
H3370 H 0.47434 0.98573 0.97259 0.0
H3371 H 0.52697 0.01609 0.03487 0.0
C3372 C 0.52256 0.03608 0.03697 0.0
C3373 C 0.5116 0.04152 0.02811 0.0
C3374 C 0.48294 0.98174 0.97984 0.0
C3375 C 0.50291 0.00928 0.01029 0.0
C3376 C 0.47885 0.96583 0.96945 0.0
C3377 C 0.48976 0.96033 0.9784 0.0
C3378 C 0.49806 0.99225 -0.00073 0.0
C3379 C 0.50473 0.97123 -0.00202 0.0
C3380 C 0.51827 0.02 0.02816 0.0
C3381 C 0.49628 0.03032 0.01088 0.0
N3382 N 0.50843 0.98663 0.00767 0.0
N3383 N 0.49243 0.01479 0.00246 0.0
H3384 H 0.96637 0.45468 0.99278 0.0
H3385 H 0.03318 0.54891 -0.00313 0.0
H3386 H 0.95666 0.49195 0.03911 0.0
H3387 H 0.04209 0.51153 0.94691 0.0
H3388 H 0.00523 0.52833 0.01244 0.0
H3389 H 0.99411 0.47538 0.97643 0.0
C3390 C 0.97004 0.46722 -0.00028 0.0
C3391 C 0.95907 0.47153 0.01755 0.0
C3392 C 0.01327 0.52463 -0.00203 0.0
C3393 C 0.99106 0.49542 -0.0015 0.0
C3394 C 0.02928 0.53638 0.98895 0.0
C3395 C 0.04009 0.53199 0.97041 0.0
C3396 C 0.00794 0.50829 0.98858 0.0
C3397 C 0.03423 0.51553 0.96107 0.0
C3398 C 0.98595 0.47906 0.99021 0.0
C3399 C 0.96466 0.48803 0.02556 0.0
N3400 N 0.01858 0.50429 0.97035 0.0
N3401 N 0.98027 0.49937 0.01596 0.0
H3402 H 0.54807 0.5168 0.99567 0.0
H3403 H 0.45434 0.49089 0.00938 0.0
H3404 H 0.51119 0.47159 0.0523 0.0
H3405 H 0.4912 0.53629 0.95353 0.0
H3406 H 0.47505 0.48386 0.02604 0.0
H3407 H 0.52753 0.52429 0.98121 0.0
C3408 C 0.53566 0.50843 0.00528 0.0
C3409 C 0.53139 0.49349 0.02535 0.0
C3410 C 0.47864 0.49536 0.01014 0.0
C3411 C 0.50772 0.50207 0.00849 0.0
C3412 C 0.46679 0.49942 0.0005 0.0
C3413 C 0.47098 0.51423 0.97977 0.0
C3414 C 0.49486 0.50615 -0.00092 0.0
C3415 C 0.48737 0.52473 0.96935 0.0
C3416 C 0.52392 0.51275 -0.0031 0.0
C3417 C 0.51508 0.48322 0.03687 0.0
N3418 N 0.4987 0.52047 0.97909 0.0
N3419 N 0.50384 0.48769 0.02818 0.0
loop_
_geom_bond_atom_site_label_1
_geom_bond_atom_site_label_2
_geom_bond_distance
_geom_bond_site_symmetry_2
_ccdc_geom_bond_type
Co0 O2 2.143 . S
Co0 O8 2.074 . S
Co0 O11 2.093 . S
Co0 O24 2.097 . S
Co0 N41 2.151 . S
Co0 N49 2.214 . S
Co1 O2 2.160 . S
Co1 O7 2.058 . S
Co1 O17 2.057 . S
Co1 O32 2.037 . S
Co1 N36 2.145 . S
Co1 N57 2.257 . S
O2 Co0 2.143 . S
O2 Co1 2.160 . S
C3 O4 1.278 . S
C3 O11 1.224 . S
O4 C3 1.278 . S
C5 O6 1.245 . S
C5 O17 1.232 . S
O6 C5 1.245 . S
O7 Co1 2.058 . S
O7 C33 1.269 . S
O8 Co0 2.074 . S
O8 C33 1.257 . S
H9 C34 0.930 . S
H10 C40 0.930 . S
O11 Co0 2.093 . S
O11 C3 1.224 . S
H12 C44 0.929 . S
H13 C46 0.930 . S
H14 C47 0.930 . S
H15 C45 0.929 . S
H16 C48 0.928 . S
O17 Co1 2.057 . S
O17 C5 1.232 . S
H18 C37 0.929 . S
H19 C38 0.929 . S
H20 C50 0.931 . S
H21 C42 0.929 . S
H22 C51 0.930 . S
H23 C43 0.931 . S
O24 Co0 2.097 . S
O24 C52 1.214 . S
H25 C53 0.929 . S
H26 C54 0.929 . S
H27 C55 0.930 . S
H28 C56 0.929 . S
H29 C58 0.930 . S
H30 C35 0.930 . S
H31 C39 0.930 . S
O32 Co1 2.037 . S
O32 C52 1.234 . S
C33 O7 1.269 . S
C33 O8 1.257 . S
C34 H9 0.930 . S
C34 C37 1.388 . S
C34 C39 1.418 . S
C35 H30 0.930 . S
C35 C38 1.404 . S
C35 C39 1.353 . S
N36 Co1 2.145 . S
N36 C37 1.397 . S
N36 C38 1.334 . S
C37 H18 0.929 . S
C37 C34 1.388 . S
C37 N36 1.397 . S
C38 H19 0.929 . S
C38 C35 1.404 . S
C38 N36 1.334 . S
C39 H31 0.930 . S
C39 C34 1.418 . S
C39 C35 1.353 . S
C40 H10 0.930 . S
C40 N41 1.330 . S
C40 C42 1.446 . S
N41 Co0 2.151 . S
N41 C40 1.330 . S
N41 C45 1.418 . S
C42 H21 0.929 . S
C42 C40 1.446 . S
C42 C43 1.332 . S
C43 H23 0.931 . S
C43 C42 1.332 . S
C43 C44 1.267 . S
C44 H12 0.929 . S
C44 C43 1.267 . S
C44 C45 1.251 . S
C45 H15 0.929 . S
C45 N41 1.418 . S
C45 C44 1.251 . S
C46 H13 0.930 . S
C46 C48 1.406 . S
C46 C51 1.261 . S
C47 H14 0.930 . S
C47 N49 1.325 . S
C47 C50 1.357 . S
C48 H16 0.928 . S
C48 C46 1.406 . S
C48 N49 1.261 . S
N49 Co0 2.214 . S
N49 C47 1.325 . S
N49 C48 1.261 . S
C50 H20 0.931 . S
C50 C47 1.357 . S
C50 C51 1.312 . S
C51 H22 0.930 . S
C51 C46 1.261 . S
C51 C50 1.312 . S
C52 O24 1.214 . S
C52 O32 1.234 . S
C53 H25 0.929 . S
C53 C56 1.391 . S
C53 C58 1.391 . S
C54 H26 0.929 . S
C54 C55 1.390 . S
C54 N57 1.391 . S
C55 H27 0.930 . S
C55 C54 1.390 . S
C55 C56 1.392 . S
C56 H28 0.929 . S
C56 C53 1.391 . S
C56 C55 1.392 . S
N57 Co1 2.257 . S
N57 C54 1.391 . S
N57 C58 1.388 . S
C58 H29 0.930 . S
C58 C53 1.391 . S
C58 N57 1.388 . S
Co59 O61 2.143 . S
Co59 O67 2.074 . S
Co59 O70 2.093 . S
Co59 O83 2.097 . S
Co59 N100 2.151 . S
Co59 N108 2.214 . S
Co60 O61 2.160 . S
Co60 O66 2.058 . S
Co60 O76 2.057 . S
Co60 O91 2.037 . S
Co60 N95 2.145 . S
Co60 N116 2.257 . S
O61 Co59 2.143 . S
O61 Co60 2.160 . S
C62 O63 1.278 . S
C62 O70 1.224 . S
O63 C62 1.278 . S
C64 O65 1.245 . S
C64 O76 1.232 . S
O65 C64 1.245 . S
O66 Co60 2.058 . S
O66 C92 1.269 . S
O67 Co59 2.074 . S
O67 C92 1.257 . S
H68 C93 0.930 . S
H69 C99 0.930 . S
O70 Co59 2.093 . S
O70 C62 1.224 . S
H71 C103 0.929 . S
H72 C105 0.930 . S
H73 C106 0.930 . S
H74 C104 0.929 . S
H75 C107 0.928 . S
O76 Co60 2.057 . S
O76 C64 1.232 . S
H77 C96 0.929 . S
H78 C97 0.929 . S
H79 C109 0.931 . S
H80 C101 0.929 . S
H81 C110 0.930 . S
H82 C102 0.931 . S
O83 Co59 2.097 . S
O83 C111 1.214 . S
H84 C112 0.929 . S
H85 C113 0.929 . S
H86 C114 0.930 . S
H87 C115 0.929 . S
H88 C117 0.930 . S
H89 C94 0.930 . S
H90 C98 0.930 . S
O91 Co60 2.037 . S
O91 C111 1.234 . S
C92 O66 1.269 . S
C92 O67 1.257 . S
C93 H68 0.930 . S
C93 C96 1.388 . S
C93 C98 1.418 . S
C94 H89 0.930 . S
C94 C97 1.404 . S
C94 C98 1.353 . S
N95 Co60 2.145 . S
N95 C96 1.397 . S
N95 C97 1.334 . S
C96 H77 0.929 . S
C96 C93 1.388 . S
C96 N95 1.397 . S
C97 H78 0.929 . S
C97 C94 1.404 . S
C97 N95 1.334 . S
C98 H90 0.930 . S
C98 C93 1.418 . S
C98 C94 1.353 . S
C99 H69 0.930 . S
C99 N100 1.330 . S
C99 C101 1.446 . S
N100 Co59 2.151 . S
N100 C99 1.330 . S
N100 C104 1.418 . S
C101 H80 0.929 . S
C101 C99 1.446 . S
C101 C102 1.332 . S
C102 H82 0.931 . S
C102 C101 1.332 . S
C102 C103 1.267 . S
C103 H71 0.929 . S
C103 C102 1.267 . S
C103 C104 1.251 . S
C104 H74 0.929 . S
C104 N100 1.418 . S
C104 C103 1.251 . S
C105 H72 0.930 . S
C105 C107 1.406 . S
C105 C110 1.261 . S
C106 H73 0.930 . S
C106 N108 1.325 . S
C106 C109 1.357 . S
C107 H75 0.928 . S
C107 C105 1.406 . S
C107 N108 1.261 . S
N108 Co59 2.214 . S
N108 C106 1.325 . S
N108 C107 1.261 . S
C109 H79 0.931 . S
C109 C106 1.357 . S
C109 C110 1.312 . S
C110 H81 0.930 . S
C110 C105 1.261 . S
C110 C109 1.312 . S
C111 O83 1.214 . S
C111 O91 1.234 . S
C112 H84 0.929 . S
C112 C115 1.391 . S
C112 C117 1.391 . S
C113 H85 0.929 . S
C113 C114 1.390 . S
C113 N116 1.391 . S
C114 H86 0.930 . S
C114 C113 1.390 . S
C114 C115 1.392 . S
C115 H87 0.929 . S
C115 C112 1.391 . S
C115 C114 1.392 . S
N116 Co60 2.257 . S
N116 C113 1.391 . S
N116 C117 1.388 . S
C117 H88 0.930 . S
C117 C112 1.391 . S
C117 N116 1.388 . S
Co118 O120 2.143 . S
Co118 O126 2.074 . S
Co118 O129 2.093 . S
Co118 O142 2.097 . S
Co118 N159 2.151 . S
Co118 N167 2.214 . S
Co119 O120 2.160 . S
Co119 O125 2.058 . S
Co119 O135 2.057 . S
Co119 O150 2.037 . S
Co119 N154 2.145 . S
Co119 N175 2.257 . S
O120 Co118 2.143 . S
O120 Co119 2.160 . S
C121 O122 1.278 . S
C121 O129 1.224 . S
O122 C121 1.278 . S
C123 O124 1.245 . S
C123 O135 1.232 . S
O124 C123 1.245 . S
O125 Co119 2.058 . S
O125 C151 1.269 . S
O126 Co118 2.074 . S
O126 C151 1.257 . S
H127 C152 0.930 . S
H128 C158 0.930 . S
O129 Co118 2.093 . S
O129 C121 1.224 . S
H130 C162 0.929 . S
H131 C164 0.930 . S
H132 C165 0.930 . S
H133 C163 0.929 . S
H134 C166 0.928 . S
O135 Co119 2.057 . S
O135 C123 1.232 . S
H136 C155 0.929 . S
H137 C156 0.929 . S
H138 C168 0.931 . S
H139 C160 0.929 . S
H140 C169 0.930 . S
H141 C161 0.931 . S
O142 Co118 2.097 . S
O142 C170 1.214 . S
H143 C171 0.929 . S
H144 C172 0.929 . S
H145 C173 0.930 . S
H146 C174 0.929 . S
H147 C176 0.930 . S
H148 C153 0.930 . S
H149 C157 0.930 . S
O150 Co119 2.037 . S
O150 C170 1.234 . S
C151 O125 1.269 . S
C151 O126 1.257 . S
C152 H127 0.930 . S
C152 C155 1.388 . S
C152 C157 1.418 . S
C153 H148 0.930 . S
C153 C156 1.404 . S
C153 C157 1.353 . S
N154 Co119 2.145 . S
N154 C155 1.397 . S
N154 C156 1.334 . S
C155 H136 0.929 . S
C155 C152 1.388 . S
C155 N154 1.397 . S
C156 H137 0.929 . S
C156 C153 1.404 . S
C156 N154 1.334 . S
C157 H149 0.930 . S
C157 C152 1.418 . S
C157 C153 1.353 . S
C158 H128 0.930 . S
C158 N159 1.330 . S
C158 C160 1.446 . S
N159 Co118 2.151 . S
N159 C158 1.330 . S
N159 C163 1.418 . S
C160 H139 0.929 . S
C160 C158 1.446 . S
C160 C161 1.332 . S
C161 H141 0.931 . S
C161 C160 1.332 . S
C161 C162 1.267 . S
C162 H130 0.929 . S
C162 C161 1.267 . S
C162 C163 1.251 . S
C163 H133 0.929 . S
C163 N159 1.418 . S
C163 C162 1.251 . S
C164 H131 0.930 . S
C164 C166 1.406 . S
C164 C169 1.261 . S
C165 H132 0.930 . S
C165 N167 1.325 . S
C165 C168 1.357 . S
C166 H134 0.928 . S
C166 C164 1.406 . S
C166 N167 1.261 . S
N167 Co118 2.214 . S
N167 C165 1.325 . S
N167 C166 1.261 . S
C168 H138 0.931 . S
C168 C165 1.357 . S
C168 C169 1.312 . S
C169 H140 0.930 . S
C169 C164 1.261 . S
C169 C168 1.312 . S
C170 O142 1.214 . S
C170 O150 1.234 . S
C171 H143 0.929 . S
C171 C174 1.391 . S
C171 C176 1.391 . S
C172 H144 0.929 . S
C172 C173 1.390 . S
C172 N175 1.391 . S
C173 H145 0.930 . S
C173 C172 1.390 . S
C173 C174 1.392 . S
C174 H146 0.929 . S
C174 C171 1.391 . S
C174 C173 1.392 . S
N175 Co119 2.257 . S
N175 C172 1.391 . S
N175 C176 1.388 . S
C176 H147 0.930 . S
C176 C171 1.391 . S
C176 N175 1.388 . S
Co177 O179 2.143 . S
Co177 O185 2.074 . S
Co177 O188 2.093 . S
Co177 O201 2.097 . S
Co177 N218 2.151 . S
Co177 N226 2.214 . S
Co178 O179 2.160 . S
Co178 O184 2.058 . S
Co178 O194 2.057 . S
Co178 O209 2.037 . S
Co178 N213 2.145 . S
Co178 N234 2.257 . S
O179 Co177 2.143 . S
O179 Co178 2.160 . S
C180 O181 1.278 . S
C180 O188 1.224 . S
O181 C180 1.278 . S
C182 O183 1.245 . S
C182 O194 1.232 . S
O183 C182 1.245 . S
O184 Co178 2.058 . S
O184 C210 1.269 . S
O185 Co177 2.074 . S
O185 C210 1.257 . S
H186 C211 0.930 . S
H187 C217 0.930 . S
O188 Co177 2.093 . S
O188 C180 1.224 . S
H189 C221 0.929 . S
H190 C223 0.930 . S
H191 C224 0.930 . S
H192 C222 0.929 . S
H193 C225 0.928 . S
O194 Co178 2.057 . S
O194 C182 1.232 . S
H195 C214 0.929 . S
H196 C215 0.929 . S
H197 C227 0.931 . S
H198 C219 0.929 . S
H199 C228 0.930 . S
H200 C220 0.931 . S
O201 Co177 2.097 . S
O201 C229 1.214 . S
H202 C230 0.929 . S
H203 C231 0.929 . S
H204 C232 0.930 . S
H205 C233 0.929 . S
H206 C235 0.930 . S
H207 C212 0.930 . S
H208 C216 0.930 . S
O209 Co178 2.037 . S
O209 C229 1.234 . S
C210 O184 1.269 . S
C210 O185 1.257 . S
C211 H186 0.930 . S
C211 C214 1.388 . S
C211 C216 1.418 . S
C212 H207 0.930 . S
C212 C215 1.404 . S
C212 C216 1.353 . S
N213 Co178 2.145 . S
N213 C214 1.397 . S
N213 C215 1.334 . S
C214 H195 0.929 . S
C214 C211 1.388 . S
C214 N213 1.397 . S
C215 H196 0.929 . S
C215 C212 1.404 . S
C215 N213 1.334 . S
C216 H208 0.930 . S
C216 C211 1.418 . S
C216 C212 1.353 . S
C217 H187 0.930 . S
C217 N218 1.330 . S
C217 C219 1.446 . S
N218 Co177 2.151 . S
N218 C217 1.330 . S
N218 C222 1.418 . S
C219 H198 0.929 . S
C219 C217 1.446 . S
C219 C220 1.332 . S
C220 H200 0.931 . S
C220 C219 1.332 . S
C220 C221 1.267 . S
C221 H189 0.929 . S
C221 C220 1.267 . S
C221 C222 1.251 . S
C222 H192 0.929 . S
C222 N218 1.418 . S
C222 C221 1.251 . S
C223 H190 0.930 . S
C223 C225 1.406 . S
C223 C228 1.261 . S
C224 H191 0.930 . S
C224 N226 1.325 . S
C224 C227 1.357 . S
C225 H193 0.928 . S
C225 C223 1.406 . S
C225 N226 1.261 . S
N226 Co177 2.214 . S
N226 C224 1.325 . S
N226 C225 1.261 . S
C227 H197 0.931 . S
C227 C224 1.357 . S
C227 C228 1.312 . S
C228 H199 0.930 . S
C228 C223 1.261 . S
C228 C227 1.312 . S
C229 O201 1.214 . S
C229 O209 1.234 . S
C230 H202 0.929 . S
C230 C233 1.391 . S
C230 C235 1.391 . S
C231 H203 0.929 . S
C231 C232 1.390 . S
C231 N234 1.391 . S
C232 H204 0.930 . S
C232 C231 1.390 . S
C232 C233 1.392 . S
C233 H205 0.929 . S
C233 C230 1.391 . S
C233 C232 1.392 . S
N234 Co178 2.257 . S
N234 C231 1.391 . S
N234 C235 1.388 . S
C235 H206 0.930 . S
C235 C230 1.391 . S
C235 N234 1.388 . S
Co236 O238 2.143 . S
Co236 O244 2.074 . S
Co236 O247 2.093 . S
Co236 O260 2.097 . S
Co236 N277 2.151 . S
Co236 N285 2.214 . S
Co237 O238 2.160 . S
Co237 O243 2.058 . S
Co237 O253 2.057 . S
Co237 O268 2.037 . S
Co237 N272 2.145 . S
Co237 N293 2.257 . S
O238 Co236 2.143 . S
O238 Co237 2.160 . S
C239 O240 1.278 . S
C239 O247 1.224 . S
O240 C239 1.278 . S
C241 O242 1.245 . S
C241 O253 1.232 . S
O242 C241 1.245 . S
O243 Co237 2.058 . S
O243 C269 1.269 . S
O244 Co236 2.074 . S
O244 C269 1.257 . S
H245 C270 0.930 . S
H246 C276 0.930 . S
O247 Co236 2.093 . S
O247 C239 1.224 . S
H248 C280 0.929 . S
H249 C282 0.930 . S
H250 C283 0.930 . S
H251 C281 0.929 . S
H252 C284 0.928 . S
O253 Co237 2.057 . S
O253 C241 1.232 . S
H254 C273 0.929 . S
H255 C274 0.929 . S
H256 C286 0.931 . S
H257 C278 0.929 . S
H258 C287 0.930 . S
H259 C279 0.931 . S
O260 Co236 2.097 . S
O260 C288 1.214 . S
H261 C289 0.929 . S
H262 C290 0.929 . S
H263 C291 0.930 . S
H264 C292 0.929 . S
H265 C294 0.930 . S
H266 C271 0.930 . S
H267 C275 0.930 . S
O268 Co237 2.037 . S
O268 C288 1.234 . S
C269 O243 1.269 . S
C269 O244 1.257 . S
C270 H245 0.930 . S
C270 C273 1.388 . S
C270 C275 1.418 . S
C271 H266 0.930 . S
C271 C274 1.404 . S
C271 C275 1.353 . S
N272 Co237 2.145 . S
N272 C273 1.397 . S
N272 C274 1.334 . S
C273 H254 0.929 . S
C273 C270 1.388 . S
C273 N272 1.397 . S
C274 H255 0.929 . S
C274 C271 1.404 . S
C274 N272 1.334 . S
C275 H267 0.930 . S
C275 C270 1.418 . S
C275 C271 1.353 . S
C276 H246 0.930 . S
C276 N277 1.330 . S
C276 C278 1.446 . S
N277 Co236 2.151 . S
N277 C276 1.330 . S
N277 C281 1.418 . S
C278 H257 0.929 . S
C278 C276 1.446 . S
C278 C279 1.332 . S
C279 H259 0.931 . S
C279 C278 1.332 . S
C279 C280 1.267 . S
C280 H248 0.929 . S
C280 C279 1.267 . S
C280 C281 1.251 . S
C281 H251 0.929 . S
C281 N277 1.418 . S
C281 C280 1.251 . S
C282 H249 0.930 . S
C282 C284 1.406 . S
C282 C287 1.261 . S
C283 H250 0.930 . S
C283 N285 1.325 . S
C283 C286 1.357 . S
C284 H252 0.928 . S
C284 C282 1.406 . S
C284 N285 1.261 . S
N285 Co236 2.214 . S
N285 C283 1.325 . S
N285 C284 1.261 . S
C286 H256 0.931 . S
C286 C283 1.357 . S
C286 C287 1.312 . S
C287 H258 0.930 . S
C287 C282 1.261 . S
C287 C286 1.312 . S
C288 O260 1.214 . S
C288 O268 1.234 . S
C289 H261 0.929 . S
C289 C292 1.391 . S
C289 C294 1.391 . S
C290 H262 0.929 . S
C290 C291 1.390 . S
C290 N293 1.391 . S
C291 H263 0.930 . S
C291 C290 1.390 . S
C291 C292 1.392 . S
C292 H264 0.929 . S
C292 C289 1.391 . S
C292 C291 1.392 . S
N293 Co237 2.257 . S
N293 C290 1.391 . S
N293 C294 1.388 . S
C294 H265 0.930 . S
C294 C289 1.391 . S
C294 N293 1.388 . S
Co295 O297 2.143 . S
Co295 O303 2.074 . S
Co295 O306 2.093 . S
Co295 O319 2.097 . S
Co295 N336 2.151 . S
Co295 N344 2.214 . S
Co296 O297 2.160 . S
Co296 O302 2.058 . S
Co296 O312 2.057 . S
Co296 O327 2.037 . S
Co296 N331 2.145 . S
Co296 N352 2.257 . S
O297 Co295 2.143 . S
O297 Co296 2.160 . S
C298 O299 1.278 . S
C298 O306 1.224 . S
O299 C298 1.278 . S
C300 O301 1.245 . S
C300 O312 1.232 . S
O301 C300 1.245 . S
O302 Co296 2.058 . S
O302 C328 1.269 . S
O303 Co295 2.074 . S
O303 C328 1.257 . S
H304 C329 0.930 . S
H305 C335 0.930 . S
O306 Co295 2.093 . S
O306 C298 1.224 . S
H307 C339 0.929 . S
H308 C341 0.930 . S
H309 C342 0.930 . S
H310 C340 0.929 . S
H311 C343 0.928 . S
O312 Co296 2.057 . S
O312 C300 1.232 . S
H313 C332 0.929 . S
H314 C333 0.929 . S
H315 C345 0.931 . S
H316 C337 0.929 . S
H317 C346 0.930 . S
H318 C338 0.931 . S
O319 Co295 2.097 . S
O319 C347 1.214 . S
H320 C348 0.929 . S
H321 C349 0.929 . S
H322 C350 0.930 . S
H323 C351 0.929 . S
H324 C353 0.930 . S
H325 C330 0.930 . S
H326 C334 0.930 . S
O327 Co296 2.037 . S
O327 C347 1.234 . S
C328 O302 1.269 . S
C328 O303 1.257 . S
C329 H304 0.930 . S
C329 C332 1.388 . S
C329 C334 1.418 . S
C330 H325 0.930 . S
C330 C333 1.404 . S
C330 C334 1.353 . S
N331 Co296 2.145 . S
N331 C332 1.397 . S
N331 C333 1.334 . S
C332 H313 0.929 . S
C332 C329 1.388 . S
C332 N331 1.397 . S
C333 H314 0.929 . S
C333 C330 1.404 . S
C333 N331 1.334 . S
C334 H326 0.930 . S
C334 C329 1.418 . S
C334 C330 1.353 . S
C335 H305 0.930 . S
C335 N336 1.330 . S
C335 C337 1.446 . S
N336 Co295 2.151 . S
N336 C335 1.330 . S
N336 C340 1.418 . S
C337 H316 0.929 . S
C337 C335 1.446 . S
C337 C338 1.332 . S
C338 H318 0.931 . S
C338 C337 1.332 . S
C338 C339 1.267 . S
C339 H307 0.929 . S
C339 C338 1.267 . S
C339 C340 1.251 . S
C340 H310 0.929 . S
C340 N336 1.418 . S
C340 C339 1.251 . S
C341 H308 0.930 . S
C341 C343 1.406 . S
C341 C346 1.261 . S
C342 H309 0.930 . S
C342 N344 1.325 . S
C342 C345 1.357 . S
C343 H311 0.928 . S
C343 C341 1.406 . S
C343 N344 1.261 . S
N344 Co295 2.214 . S
N344 C342 1.325 . S
N344 C343 1.261 . S
C345 H315 0.931 . S
C345 C342 1.357 . S
C345 C346 1.312 . S
C346 H317 0.930 . S
C346 C341 1.261 . S
C346 C345 1.312 . S
C347 O319 1.214 . S
C347 O327 1.234 . S
C348 H320 0.929 . S
C348 C351 1.391 . S
C348 C353 1.391 . S
C349 H321 0.929 . S
C349 C350 1.390 . S
C349 N352 1.391 . S
C350 H322 0.930 . S
C350 C349 1.390 . S
C350 C351 1.392 . S
C351 H323 0.929 . S
C351 C348 1.391 . S
C351 C350 1.392 . S
N352 Co296 2.257 . S
N352 C349 1.391 . S
N352 C353 1.388 . S
C353 H324 0.930 . S
C353 C348 1.391 . S
C353 N352 1.388 . S
Co354 O356 2.143 . S
Co354 O362 2.074 . S
Co354 O365 2.093 . S
Co354 O378 2.097 . S
Co354 N395 2.151 . S
Co354 N403 2.214 . S
Co355 O356 2.160 . S
Co355 O361 2.058 . S
Co355 O371 2.057 . S
Co355 O386 2.037 . S
Co355 N390 2.145 . S
Co355 N411 2.257 . S
O356 Co354 2.143 . S
O356 Co355 2.160 . S
C357 O358 1.278 . S
C357 O365 1.224 . S
O358 C357 1.278 . S
C359 O360 1.245 . S
C359 O371 1.232 . S
O360 C359 1.245 . S
O361 Co355 2.058 . S
O361 C387 1.269 . S
O362 Co354 2.074 . S
O362 C387 1.257 . S
H363 C388 0.930 . S
H364 C394 0.930 . S
O365 Co354 2.093 . S
O365 C357 1.224 . S
H366 C398 0.929 . S
H367 C400 0.930 . S
H368 C401 0.930 . S
H369 C399 0.929 . S
H370 C402 0.928 . S
O371 Co355 2.057 . S
O371 C359 1.232 . S
H372 C391 0.929 . S
H373 C392 0.929 . S
H374 C404 0.931 . S
H375 C396 0.929 . S
H376 C405 0.930 . S
H377 C397 0.931 . S
O378 Co354 2.097 . S
O378 C406 1.214 . S
H379 C407 0.929 . S
H380 C408 0.929 . S
H381 C409 0.930 . S
H382 C410 0.929 . S
H383 C412 0.930 . S
H384 C389 0.930 . S
H385 C393 0.930 . S
O386 Co355 2.037 . S
O386 C406 1.234 . S
C387 O361 1.269 . S
C387 O362 1.257 . S
C388 H363 0.930 . S
C388 C391 1.388 . S
C388 C393 1.418 . S
C389 H384 0.930 . S
C389 C392 1.404 . S
C389 C393 1.353 . S
N390 Co355 2.145 . S
N390 C391 1.397 . S
N390 C392 1.334 . S
C391 H372 0.929 . S
C391 C388 1.388 . S
C391 N390 1.397 . S
C392 H373 0.929 . S
C392 C389 1.404 . S
C392 N390 1.334 . S
C393 H385 0.930 . S
C393 C388 1.418 . S
C393 C389 1.353 . S
C394 H364 0.930 . S
C394 N395 1.330 . S
C394 C396 1.446 . S
N395 Co354 2.151 . S
N395 C394 1.330 . S
N395 C399 1.418 . S
C396 H375 0.929 . S
C396 C394 1.446 . S
C396 C397 1.332 . S
C397 H377 0.931 . S
C397 C396 1.332 . S
C397 C398 1.267 . S
C398 H366 0.929 . S
C398 C397 1.267 . S
C398 C399 1.251 . S
C399 H369 0.929 . S
C399 N395 1.418 . S
C399 C398 1.251 . S
C400 H367 0.930 . S
C400 C402 1.406 . S
C400 C405 1.261 . S
C401 H368 0.930 . S
C401 N403 1.325 . S
C401 C404 1.357 . S
C402 H370 0.928 . S
C402 C400 1.406 . S
C402 N403 1.261 . S
N403 Co354 2.214 . S
N403 C401 1.325 . S
N403 C402 1.261 . S
C404 H374 0.931 . S
C404 C401 1.357 . S
C404 C405 1.312 . S
C405 H376 0.930 . S
C405 C400 1.261 . S
C405 C404 1.312 . S
C406 O378 1.214 . S
C406 O386 1.234 . S
C407 H379 0.929 . S
C407 C410 1.391 . S
C407 C412 1.391 . S
C408 H380 0.929 . S
C408 C409 1.390 . S
C408 N411 1.391 . S
C409 H381 0.930 . S
C409 C408 1.390 . S
C409 C410 1.392 . S
C410 H382 0.929 . S
C410 C407 1.391 . S
C410 C409 1.392 . S
N411 Co355 2.257 . S
N411 C408 1.391 . S
N411 C412 1.388 . S
C412 H383 0.930 . S
C412 C407 1.391 . S
C412 N411 1.388 . S
Co413 O415 2.143 . S
Co413 O421 2.074 . S
Co413 O424 2.093 . S
Co413 O437 2.097 . S
Co413 N454 2.151 . S
Co413 N462 2.214 . S
Co414 O415 2.160 . S
Co414 O420 2.058 . S
Co414 O430 2.057 . S
Co414 O445 2.037 . S
Co414 N449 2.145 . S
Co414 N470 2.257 . S
O415 Co413 2.143 . S
O415 Co414 2.160 . S
C416 O417 1.278 . S
C416 O424 1.224 . S
O417 C416 1.278 . S
C418 O419 1.245 . S
C418 O430 1.232 . S
O419 C418 1.245 . S
O420 Co414 2.058 . S
O420 C446 1.269 . S
O421 Co413 2.074 . S
O421 C446 1.257 . S
H422 C447 0.930 . S
H423 C453 0.930 . S
O424 Co413 2.093 . S
O424 C416 1.224 . S
H425 C457 0.929 . S
H426 C459 0.930 . S
H427 C460 0.930 . S
H428 C458 0.929 . S
H429 C461 0.928 . S
O430 Co414 2.057 . S
O430 C418 1.232 . S
H431 C450 0.929 . S
H432 C451 0.929 . S
H433 C463 0.931 . S
H434 C455 0.929 . S
H435 C464 0.930 . S
H436 C456 0.931 . S
O437 Co413 2.097 . S
O437 C465 1.214 . S
H438 C466 0.929 . S
H439 C467 0.929 . S
H440 C468 0.930 . S
H441 C469 0.929 . S
H442 C471 0.930 . S
H443 C448 0.930 . S
H444 C452 0.930 . S
O445 Co414 2.037 . S
O445 C465 1.234 . S
C446 O420 1.269 . S
C446 O421 1.257 . S
C447 H422 0.930 . S
C447 C450 1.388 . S
C447 C452 1.418 . S
C448 H443 0.930 . S
C448 C451 1.404 . S
C448 C452 1.353 . S
N449 Co414 2.145 . S
N449 C450 1.397 . S
N449 C451 1.334 . S
C450 H431 0.929 . S
C450 C447 1.388 . S
C450 N449 1.397 . S
C451 H432 0.929 . S
C451 C448 1.404 . S
C451 N449 1.334 . S
C452 H444 0.930 . S
C452 C447 1.418 . S
C452 C448 1.353 . S
C453 H423 0.930 . S
C453 N454 1.330 . S
C453 C455 1.446 . S
N454 Co413 2.151 . S
N454 C453 1.330 . S
N454 C458 1.418 . S
C455 H434 0.929 . S
C455 C453 1.446 . S
C455 C456 1.332 . S
C456 H436 0.931 . S
C456 C455 1.332 . S
C456 C457 1.267 . S
C457 H425 0.929 . S
C457 C456 1.267 . S
C457 C458 1.251 . S
C458 H428 0.929 . S
C458 N454 1.418 . S
C458 C457 1.251 . S
C459 H426 0.930 . S
C459 C461 1.406 . S
C459 C464 1.261 . S
C460 H427 0.930 . S
C460 N462 1.325 . S
C460 C463 1.357 . S
C461 H429 0.928 . S
C461 C459 1.406 . S
C461 N462 1.261 . S
N462 Co413 2.214 . S
N462 C460 1.325 . S
N462 C461 1.261 . S
C463 H433 0.931 . S
C463 C460 1.357 . S
C463 C464 1.312 . S
C464 H435 0.930 . S
C464 C459 1.261 . S
C464 C463 1.312 . S
C465 O437 1.214 . S
C465 O445 1.234 . S
C466 H438 0.929 . S
C466 C469 1.391 . S
C466 C471 1.391 . S
C467 H439 0.929 . S
C467 C468 1.390 . S
C467 N470 1.391 . S
C468 H440 0.930 . S
C468 C467 1.390 . S
C468 C469 1.392 . S
C469 H441 0.929 . S
C469 C466 1.391 . S
C469 C468 1.392 . S
N470 Co414 2.257 . S
N470 C467 1.391 . S
N470 C471 1.388 . S
C471 H442 0.930 . S
C471 C466 1.391 . S
C471 N470 1.388 . S
Co472 O474 2.143 . S
Co472 O480 2.074 . S
Co472 O483 2.093 . S
Co472 O496 2.097 . S
Co472 N513 2.151 . S
Co472 N521 2.214 . S
Co473 O474 2.160 . S
Co473 O479 2.058 . S
Co473 O489 2.057 . S
Co473 O504 2.037 . S
Co473 N508 2.145 . S
Co473 N529 2.257 . S
O474 Co472 2.143 . S
O474 Co473 2.160 . S
C475 O476 1.278 . S
C475 O483 1.224 . S
O476 C475 1.278 . S
C477 O478 1.245 . S
C477 O489 1.232 . S
O478 C477 1.245 . S
O479 Co473 2.058 . S
O479 C505 1.269 . S
O480 Co472 2.074 . S
O480 C505 1.257 . S
H481 C506 0.930 . S
H482 C512 0.930 . S
O483 Co472 2.093 . S
O483 C475 1.224 . S
H484 C516 0.929 . S
H485 C518 0.930 . S
H486 C519 0.930 . S
H487 C517 0.929 . S
H488 C520 0.928 . S
O489 Co473 2.057 . S
O489 C477 1.232 . S
H490 C509 0.929 . S
H491 C510 0.929 . S
H492 C522 0.931 . S
H493 C514 0.929 . S
H494 C523 0.930 . S
H495 C515 0.931 . S
O496 Co472 2.097 . S
O496 C524 1.214 . S
H497 C525 0.929 . S
H498 C526 0.929 . S
H499 C527 0.930 . S
H500 C528 0.929 . S
H501 C530 0.930 . S
H502 C507 0.930 . S
H503 C511 0.930 . S
O504 Co473 2.037 . S
O504 C524 1.234 . S
C505 O479 1.269 . S
C505 O480 1.257 . S
C506 H481 0.930 . S
C506 C509 1.388 . S
C506 C511 1.418 . S
C507 H502 0.930 . S
C507 C510 1.404 . S
C507 C511 1.353 . S
N508 Co473 2.145 . S
N508 C509 1.397 . S
N508 C510 1.334 . S
C509 H490 0.929 . S
C509 C506 1.388 . S
C509 N508 1.397 . S
C510 H491 0.929 . S
C510 C507 1.404 . S
C510 N508 1.334 . S
C511 H503 0.930 . S
C511 C506 1.418 . S
C511 C507 1.353 . S
C512 H482 0.930 . S
C512 N513 1.330 . S
C512 C514 1.446 . S
N513 Co472 2.151 . S
N513 C512 1.330 . S
N513 C517 1.418 . S
C514 H493 0.929 . S
C514 C512 1.446 . S
C514 C515 1.332 . S
C515 H495 0.931 . S
C515 C514 1.332 . S
C515 C516 1.267 . S
C516 H484 0.929 . S
C516 C515 1.267 . S
C516 C517 1.251 . S
C517 H487 0.929 . S
C517 N513 1.418 . S
C517 C516 1.251 . S
C518 H485 0.930 . S
C518 C520 1.406 . S
C518 C523 1.261 . S
C519 H486 0.930 . S
C519 N521 1.325 . S
C519 C522 1.357 . S
C520 H488 0.928 . S
C520 C518 1.406 . S
C520 N521 1.261 . S
N521 Co472 2.214 . S
N521 C519 1.325 . S
N521 C520 1.261 . S
C522 H492 0.931 . S
C522 C519 1.357 . S
C522 C523 1.312 . S
C523 H494 0.930 . S
C523 C518 1.261 . S
C523 C522 1.312 . S
C524 O496 1.214 . S
C524 O504 1.234 . S
C525 H497 0.929 . S
C525 C528 1.391 . S
C525 C530 1.391 . S
C526 H498 0.929 . S
C526 C527 1.390 . S
C526 N529 1.391 . S
C527 H499 0.930 . S
C527 C526 1.390 . S
C527 C528 1.392 . S
C528 H500 0.929 . S
C528 C525 1.391 . S
C528 C527 1.392 . S
N529 Co473 2.257 . S
N529 C526 1.391 . S
N529 C530 1.388 . S
C530 H501 0.930 . S
C530 C525 1.391 . S
C530 N529 1.388 . S
Co531 O533 2.143 . S
Co531 O539 2.074 . S
Co531 O542 2.093 . S
Co531 O555 2.097 . S
Co531 N572 2.151 . S
Co531 N580 2.214 . S
Co532 O533 2.160 . S
Co532 O538 2.058 . S
Co532 O548 2.057 . S
Co532 O563 2.037 . S
Co532 N567 2.145 . S
Co532 N588 2.257 . S
O533 Co531 2.143 . S
O533 Co532 2.160 . S
C534 O535 1.278 . S
C534 O542 1.224 . S
O535 C534 1.278 . S
C536 O537 1.245 . S
C536 O548 1.232 . S
O537 C536 1.245 . S
O538 Co532 2.058 . S
O538 C564 1.269 . S
O539 Co531 2.074 . S
O539 C564 1.257 . S
H540 C565 0.930 . S
H541 C571 0.930 . S
O542 Co531 2.093 . S
O542 C534 1.224 . S
H543 C575 0.929 . S
H544 C577 0.930 . S
H545 C578 0.930 . S
H546 C576 0.929 . S
H547 C579 0.928 . S
O548 Co532 2.057 . S
O548 C536 1.232 . S
H549 C568 0.929 . S
H550 C569 0.929 . S
H551 C581 0.931 . S
H552 C573 0.929 . S
H553 C582 0.930 . S
H554 C574 0.931 . S
O555 Co531 2.097 . S
O555 C583 1.214 . S
H556 C584 0.929 . S
H557 C585 0.929 . S
H558 C586 0.930 . S
H559 C587 0.929 . S
H560 C589 0.930 . S
H561 C566 0.930 . S
H562 C570 0.930 . S
O563 Co532 2.037 . S
O563 C583 1.234 . S
C564 O538 1.269 . S
C564 O539 1.257 . S
C565 H540 0.930 . S
C565 C568 1.388 . S
C565 C570 1.418 . S
C566 H561 0.930 . S
C566 C569 1.404 . S
C566 C570 1.353 . S
N567 Co532 2.145 . S
N567 C568 1.397 . S
N567 C569 1.334 . S
C568 H549 0.929 . S
C568 C565 1.388 . S
C568 N567 1.397 . S
C569 H550 0.929 . S
C569 C566 1.404 . S
C569 N567 1.334 . S
C570 H562 0.930 . S
C570 C565 1.418 . S
C570 C566 1.353 . S
C571 H541 0.930 . S
C571 N572 1.330 . S
C571 C573 1.446 . S
N572 Co531 2.151 . S
N572 C571 1.330 . S
N572 C576 1.418 . S
C573 H552 0.929 . S
C573 C571 1.446 . S
C573 C574 1.332 . S
C574 H554 0.931 . S
C574 C573 1.332 . S
C574 C575 1.267 . S
C575 H543 0.929 . S
C575 C574 1.267 . S
C575 C576 1.251 . S
C576 H546 0.929 . S
C576 N572 1.418 . S
C576 C575 1.251 . S
C577 H544 0.930 . S
C577 C579 1.406 . S
C577 C582 1.261 . S
C578 H545 0.930 . S
C578 N580 1.325 . S
C578 C581 1.357 . S
C579 H547 0.928 . S
C579 C577 1.406 . S
C579 N580 1.261 . S
N580 Co531 2.214 . S
N580 C578 1.325 . S
N580 C579 1.261 . S
C581 H551 0.931 . S
C581 C578 1.357 . S
C581 C582 1.312 . S
C582 H553 0.930 . S
C582 C577 1.261 . S
C582 C581 1.312 . S
C583 O555 1.214 . S
C583 O563 1.234 . S
C584 H556 0.929 . S
C584 C587 1.391 . S
C584 C589 1.391 . S
C585 H557 0.929 . S
C585 C586 1.390 . S
C585 N588 1.391 . S
C586 H558 0.930 . S
C586 C585 1.390 . S
C586 C587 1.392 . S
C587 H559 0.929 . S
C587 C584 1.391 . S
C587 C586 1.392 . S
N588 Co532 2.257 . S
N588 C585 1.391 . S
N588 C589 1.388 . S
C589 H560 0.930 . S
C589 C584 1.391 . S
C589 N588 1.388 . S
Co590 O592 2.143 . S
Co590 O598 2.074 . S
Co590 O601 2.093 . S
Co590 O614 2.097 . S
Co590 N631 2.151 . S
Co590 N639 2.214 . S
Co591 O592 2.160 . S
Co591 O597 2.058 . S
Co591 O607 2.057 . S
Co591 O622 2.037 . S
Co591 N626 2.145 . S
Co591 N647 2.257 . S
O592 Co590 2.143 . S
O592 Co591 2.160 . S
C593 O594 1.278 . S
C593 O601 1.224 . S
O594 C593 1.278 . S
C595 O596 1.245 . S
C595 O607 1.232 . S
O596 C595 1.245 . S
O597 Co591 2.058 . S
O597 C623 1.269 . S
O598 Co590 2.074 . S
O598 C623 1.257 . S
H599 C624 0.930 . S
H600 C630 0.930 . S
O601 Co590 2.093 . S
O601 C593 1.224 . S
H602 C634 0.929 . S
H603 C636 0.930 . S
H604 C637 0.930 . S
H605 C635 0.929 . S
H606 C638 0.928 . S
O607 Co591 2.057 . S
O607 C595 1.232 . S
H608 C627 0.929 . S
H609 C628 0.929 . S
H610 C640 0.931 . S
H611 C632 0.929 . S
H612 C641 0.930 . S
H613 C633 0.931 . S
O614 Co590 2.097 . S
O614 C642 1.214 . S
H615 C643 0.929 . S
H616 C644 0.929 . S
H617 C645 0.930 . S
H618 C646 0.929 . S
H619 C648 0.930 . S
H620 C625 0.930 . S
H621 C629 0.930 . S
O622 Co591 2.037 . S
O622 C642 1.234 . S
C623 O597 1.269 . S
C623 O598 1.257 . S
C624 H599 0.930 . S
C624 C627 1.388 . S
C624 C629 1.418 . S
C625 H620 0.930 . S
C625 C628 1.404 . S
C625 C629 1.353 . S
N626 Co591 2.145 . S
N626 C627 1.397 . S
N626 C628 1.334 . S
C627 H608 0.929 . S
C627 C624 1.388 . S
C627 N626 1.397 . S
C628 H609 0.929 . S
C628 C625 1.404 . S
C628 N626 1.334 . S
C629 H621 0.930 . S
C629 C624 1.418 . S
C629 C625 1.353 . S
C630 H600 0.930 . S
C630 N631 1.330 . S
C630 C632 1.446 . S
N631 Co590 2.151 . S
N631 C630 1.330 . S
N631 C635 1.418 . S
C632 H611 0.929 . S
C632 C630 1.446 . S
C632 C633 1.332 . S
C633 H613 0.931 . S
C633 C632 1.332 . S
C633 C634 1.267 . S
C634 H602 0.929 . S
C634 C633 1.267 . S
C634 C635 1.251 . S
C635 H605 0.929 . S
C635 N631 1.418 . S
C635 C634 1.251 . S
C636 H603 0.930 . S
C636 C638 1.406 . S
C636 C641 1.261 . S
C637 H604 0.930 . S
C637 N639 1.325 . S
C637 C640 1.357 . S
C638 H606 0.928 . S
C638 C636 1.406 . S
C638 N639 1.261 . S
N639 Co590 2.214 . S
N639 C637 1.325 . S
N639 C638 1.261 . S
C640 H610 0.931 . S
C640 C637 1.357 . S
C640 C641 1.312 . S
C641 H612 0.930 . S
C641 C636 1.261 . S
C641 C640 1.312 . S
C642 O614 1.214 . S
C642 O622 1.234 . S
C643 H615 0.929 . S
C643 C646 1.391 . S
C643 C648 1.391 . S
C644 H616 0.929 . S
C644 C645 1.390 . S
C644 N647 1.391 . S
C645 H617 0.930 . S
C645 C644 1.390 . S
C645 C646 1.392 . S
C646 H618 0.929 . S
C646 C643 1.391 . S
C646 C645 1.392 . S
N647 Co591 2.257 . S
N647 C644 1.391 . S
N647 C648 1.388 . S
C648 H619 0.930 . S
C648 C643 1.391 . S
C648 N647 1.388 . S
Co649 O651 2.143 . S
Co649 O657 2.074 . S
Co649 O660 2.093 . S
Co649 O673 2.097 . S
Co649 N690 2.151 . S
Co649 N698 2.214 . S
Co650 O651 2.160 . S
Co650 O656 2.058 . S
Co650 O666 2.057 . S
Co650 O681 2.037 . S
Co650 N685 2.145 . S
Co650 N706 2.257 . S
O651 Co649 2.143 . S
O651 Co650 2.160 . S
C652 O653 1.278 . S
C652 O660 1.224 . S
O653 C652 1.278 . S
C654 O655 1.245 . S
C654 O666 1.232 . S
O655 C654 1.245 . S
O656 Co650 2.058 . S
O656 C682 1.269 . S
O657 Co649 2.074 . S
O657 C682 1.257 . S
H658 C683 0.930 . S
H659 C689 0.930 . S
O660 Co649 2.093 . S
O660 C652 1.224 . S
H661 C693 0.929 . S
H662 C695 0.930 . S
H663 C696 0.930 . S
H664 C694 0.929 . S
H665 C697 0.928 . S
O666 Co650 2.057 . S
O666 C654 1.232 . S
H667 C686 0.929 . S
H668 C687 0.929 . S
H669 C699 0.931 . S
H670 C691 0.929 . S
H671 C700 0.930 . S
H672 C692 0.931 . S
O673 Co649 2.097 . S
O673 C701 1.214 . S
H674 C702 0.929 . S
H675 C703 0.929 . S
H676 C704 0.930 . S
H677 C705 0.929 . S
H678 C707 0.930 . S
H679 C684 0.930 . S
H680 C688 0.930 . S
O681 Co650 2.037 . S
O681 C701 1.234 . S
C682 O656 1.269 . S
C682 O657 1.257 . S
C683 H658 0.930 . S
C683 C686 1.388 . S
C683 C688 1.418 . S
C684 H679 0.930 . S
C684 C687 1.404 . S
C684 C688 1.353 . S
N685 Co650 2.145 . S
N685 C686 1.397 . S
N685 C687 1.334 . S
C686 H667 0.929 . S
C686 C683 1.388 . S
C686 N685 1.397 . S
C687 H668 0.929 . S
C687 C684 1.404 . S
C687 N685 1.334 . S
C688 H680 0.930 . S
C688 C683 1.418 . S
C688 C684 1.353 . S
C689 H659 0.930 . S
C689 N690 1.330 . S
C689 C691 1.446 . S
N690 Co649 2.151 . S
N690 C689 1.330 . S
N690 C694 1.418 . S
C691 H670 0.929 . S
C691 C689 1.446 . S
C691 C692 1.332 . S
C692 H672 0.931 . S
C692 C691 1.332 . S
C692 C693 1.267 . S
C693 H661 0.929 . S
C693 C692 1.267 . S
C693 C694 1.251 . S
C694 H664 0.929 . S
C694 N690 1.418 . S
C694 C693 1.251 . S
C695 H662 0.930 . S
C695 C697 1.406 . S
C695 C700 1.261 . S
C696 H663 0.930 . S
C696 N698 1.325 . S
C696 C699 1.357 . S
C697 H665 0.928 . S
C697 C695 1.406 . S
C697 N698 1.261 . S
N698 Co649 2.214 . S
N698 C696 1.325 . S
N698 C697 1.261 . S
C699 H669 0.931 . S
C699 C696 1.357 . S
C699 C700 1.312 . S
C700 H671 0.930 . S
C700 C695 1.261 . S
C700 C699 1.312 . S
C701 O673 1.214 . S
C701 O681 1.234 . S
C702 H674 0.929 . S
C702 C705 1.391 . S
C702 C707 1.391 . S
C703 H675 0.929 . S
C703 C704 1.390 . S
C703 N706 1.391 . S
C704 H676 0.930 . S
C704 C703 1.390 . S
C704 C705 1.392 . S
C705 H677 0.929 . S
C705 C702 1.391 . S
C705 C704 1.392 . S
N706 Co650 2.257 . S
N706 C703 1.391 . S
N706 C707 1.388 . S
C707 H678 0.930 . S
C707 C702 1.391 . S
C707 N706 1.388 . S
Co708 O710 2.143 . S
Co708 O716 2.074 . S
Co708 O719 2.093 . S
Co708 O732 2.097 . S
Co708 N749 2.151 . S
Co708 N757 2.214 . S
Co709 O710 2.160 . S
Co709 O715 2.058 . S
Co709 O725 2.057 . S
Co709 O740 2.037 . S
Co709 N744 2.145 . S
Co709 N765 2.257 . S
O710 Co708 2.143 . S
O710 Co709 2.160 . S
C711 O712 1.278 . S
C711 O719 1.224 . S
O712 C711 1.278 . S
C713 O714 1.245 . S
C713 O725 1.232 . S
O714 C713 1.245 . S
O715 Co709 2.058 . S
O715 C741 1.269 . S
O716 Co708 2.074 . S
O716 C741 1.257 . S
H717 C742 0.930 . S
H718 C748 0.930 . S
O719 Co708 2.093 . S
O719 C711 1.224 . S
H720 C752 0.929 . S
H721 C754 0.930 . S
H722 C755 0.930 . S
H723 C753 0.929 . S
H724 C756 0.928 . S
O725 Co709 2.057 . S
O725 C713 1.232 . S
H726 C745 0.929 . S
H727 C746 0.929 . S
H728 C758 0.931 . S
H729 C750 0.929 . S
H730 C759 0.930 . S
H731 C751 0.931 . S
O732 Co708 2.097 . S
O732 C760 1.214 . S
H733 C761 0.929 . S
H734 C762 0.929 . S
H735 C763 0.930 . S
H736 C764 0.929 . S
H737 C766 0.930 . S
H738 C743 0.930 . S
H739 C747 0.930 . S
O740 Co709 2.037 . S
O740 C760 1.234 . S
C741 O715 1.269 . S
C741 O716 1.257 . S
C742 H717 0.930 . S
C742 C745 1.388 . S
C742 C747 1.418 . S
C743 H738 0.930 . S
C743 C746 1.404 . S
C743 C747 1.353 . S
N744 Co709 2.145 . S
N744 C745 1.397 . S
N744 C746 1.334 . S
C745 H726 0.929 . S
C745 C742 1.388 . S
C745 N744 1.397 . S
C746 H727 0.929 . S
C746 C743 1.404 . S
C746 N744 1.334 . S
C747 H739 0.930 . S
C747 C742 1.418 . S
C747 C743 1.353 . S
C748 H718 0.930 . S
C748 N749 1.330 . S
C748 C750 1.446 . S
N749 Co708 2.151 . S
N749 C748 1.330 . S
N749 C753 1.418 . S
C750 H729 0.929 . S
C750 C748 1.446 . S
C750 C751 1.332 . S
C751 H731 0.931 . S
C751 C750 1.332 . S
C751 C752 1.267 . S
C752 H720 0.929 . S
C752 C751 1.267 . S
C752 C753 1.251 . S
C753 H723 0.929 . S
C753 N749 1.418 . S
C753 C752 1.251 . S
C754 H721 0.930 . S
C754 C756 1.406 . S
C754 C759 1.261 . S
C755 H722 0.930 . S
C755 N757 1.325 . S
C755 C758 1.357 . S
C756 H724 0.928 . S
C756 C754 1.406 . S
C756 N757 1.261 . S
N757 Co708 2.214 . S
N757 C755 1.325 . S
N757 C756 1.261 . S
C758 H728 0.931 . S
C758 C755 1.357 . S
C758 C759 1.312 . S
C759 H730 0.930 . S
C759 C754 1.261 . S
C759 C758 1.312 . S
C760 O732 1.214 . S
C760 O740 1.234 . S
C761 H733 0.929 . S
C761 C764 1.391 . S
C761 C766 1.391 . S
C762 H734 0.929 . S
C762 C763 1.390 . S
C762 N765 1.391 . S
C763 H735 0.930 . S
C763 C762 1.390 . S
C763 C764 1.392 . S
C764 H736 0.929 . S
C764 C761 1.391 . S
C764 C763 1.392 . S
N765 Co709 2.257 . S
N765 C762 1.391 . S
N765 C766 1.388 . S
C766 H737 0.930 . S
C766 C761 1.391 . S
C766 N765 1.388 . S
Co767 O769 2.143 . S
Co767 O775 2.074 . S
Co767 O778 2.093 . S
Co767 O791 2.097 . S
Co767 N808 2.151 . S
Co767 N816 2.214 . S
Co768 O769 2.160 . S
Co768 O774 2.058 . S
Co768 O784 2.057 . S
Co768 O799 2.037 . S
Co768 N803 2.145 . S
Co768 N824 2.257 . S
O769 Co767 2.143 . S
O769 Co768 2.160 . S
C770 O771 1.278 . S
C770 O778 1.224 . S
O771 C770 1.278 . S
C772 O773 1.245 . S
C772 O784 1.232 . S
O773 C772 1.245 . S
O774 Co768 2.058 . S
O774 C800 1.269 . S
O775 Co767 2.074 . S
O775 C800 1.257 . S
H776 C801 0.930 . S
H777 C807 0.930 . S
O778 Co767 2.093 . S
O778 C770 1.224 . S
H779 C811 0.929 . S
H780 C813 0.930 . S
H781 C814 0.930 . S
H782 C812 0.929 . S
H783 C815 0.928 . S
O784 Co768 2.057 . S
O784 C772 1.232 . S
H785 C804 0.929 . S
H786 C805 0.929 . S
H787 C817 0.931 . S
H788 C809 0.929 . S
H789 C818 0.930 . S
H790 C810 0.931 . S
O791 Co767 2.097 . S
O791 C819 1.214 . S
H792 C820 0.929 . S
H793 C821 0.929 . S
H794 C822 0.930 . S
H795 C823 0.929 . S
H796 C825 0.930 . S
H797 C802 0.930 . S
H798 C806 0.930 . S
O799 Co768 2.037 . S
O799 C819 1.234 . S
C800 O774 1.269 . S
C800 O775 1.257 . S
C801 H776 0.930 . S
C801 C804 1.388 . S
C801 C806 1.418 . S
C802 H797 0.930 . S
C802 C805 1.404 . S
C802 C806 1.353 . S
N803 Co768 2.145 . S
N803 C804 1.397 . S
N803 C805 1.334 . S
C804 H785 0.929 . S
C804 C801 1.388 . S
C804 N803 1.397 . S
C805 H786 0.929 . S
C805 C802 1.404 . S
C805 N803 1.334 . S
C806 H798 0.930 . S
C806 C801 1.418 . S
C806 C802 1.353 . S
C807 H777 0.930 . S
C807 N808 1.330 . S
C807 C809 1.446 . S
N808 Co767 2.151 . S
N808 C807 1.330 . S
N808 C812 1.418 . S
C809 H788 0.929 . S
C809 C807 1.446 . S
C809 C810 1.332 . S
C810 H790 0.931 . S
C810 C809 1.332 . S
C810 C811 1.267 . S
C811 H779 0.929 . S
C811 C810 1.267 . S
C811 C812 1.251 . S
C812 H782 0.929 . S
C812 N808 1.418 . S
C812 C811 1.251 . S
C813 H780 0.930 . S
C813 C815 1.406 . S
C813 C818 1.261 . S
C814 H781 0.930 . S
C814 N816 1.325 . S
C814 C817 1.357 . S
C815 H783 0.928 . S
C815 C813 1.406 . S
C815 N816 1.261 . S
N816 Co767 2.214 . S
N816 C814 1.325 . S
N816 C815 1.261 . S
C817 H787 0.931 . S
C817 C814 1.357 . S
C817 C818 1.312 . S
C818 H789 0.930 . S
C818 C813 1.261 . S
C818 C817 1.312 . S
C819 O791 1.214 . S
C819 O799 1.234 . S
C820 H792 0.929 . S
C820 C823 1.391 . S
C820 C825 1.391 . S
C821 H793 0.929 . S
C821 C822 1.390 . S
C821 N824 1.391 . S
C822 H794 0.930 . S
C822 C821 1.390 . S
C822 C823 1.392 . S
C823 H795 0.929 . S
C823 C820 1.391 . S
C823 C822 1.392 . S
N824 Co768 2.257 . S
N824 C821 1.391 . S
N824 C825 1.388 . S
C825 H796 0.930 . S
C825 C820 1.391 . S
C825 N824 1.388 . S
Co826 O828 2.143 . S
Co826 O834 2.074 . S
Co826 O837 2.093 . S
Co826 O850 2.097 . S
Co826 N867 2.151 . S
Co826 N875 2.214 . S
Co827 O828 2.160 . S
Co827 O833 2.058 . S
Co827 O843 2.057 . S
Co827 O858 2.037 . S
Co827 N862 2.145 . S
Co827 N883 2.257 . S
O828 Co826 2.143 . S
O828 Co827 2.160 . S
C829 O830 1.278 . S
C829 O837 1.224 . S
O830 C829 1.278 . S
C831 O832 1.245 . S
C831 O843 1.232 . S
O832 C831 1.245 . S
O833 Co827 2.058 . S
O833 C859 1.269 . S
O834 Co826 2.074 . S
O834 C859 1.257 . S
H835 C860 0.930 . S
H836 C866 0.930 . S
O837 Co826 2.093 . S
O837 C829 1.224 . S
H838 C870 0.929 . S
H839 C872 0.930 . S
H840 C873 0.930 . S
H841 C871 0.929 . S
H842 C874 0.928 . S
O843 Co827 2.057 . S
O843 C831 1.232 . S
H844 C863 0.929 . S
H845 C864 0.929 . S
H846 C876 0.931 . S
H847 C868 0.929 . S
H848 C877 0.930 . S
H849 C869 0.931 . S
O850 Co826 2.097 . S
O850 C878 1.214 . S
H851 C879 0.929 . S
H852 C880 0.929 . S
H853 C881 0.930 . S
H854 C882 0.929 . S
H855 C884 0.930 . S
H856 C861 0.930 . S
H857 C865 0.930 . S
O858 Co827 2.037 . S
O858 C878 1.234 . S
C859 O833 1.269 . S
C859 O834 1.257 . S
C860 H835 0.930 . S
C860 C863 1.388 . S
C860 C865 1.418 . S
C861 H856 0.930 . S
C861 C864 1.404 . S
C861 C865 1.353 . S
N862 Co827 2.145 . S
N862 C863 1.397 . S
N862 C864 1.334 . S
C863 H844 0.929 . S
C863 C860 1.388 . S
C863 N862 1.397 . S
C864 H845 0.929 . S
C864 C861 1.404 . S
C864 N862 1.334 . S
C865 H857 0.930 . S
C865 C860 1.418 . S
C865 C861 1.353 . S
C866 H836 0.930 . S
C866 N867 1.330 . S
C866 C868 1.446 . S
N867 Co826 2.151 . S
N867 C866 1.330 . S
N867 C871 1.418 . S
C868 H847 0.929 . S
C868 C866 1.446 . S
C868 C869 1.332 . S
C869 H849 0.931 . S
C869 C868 1.332 . S
C869 C870 1.267 . S
C870 H838 0.929 . S
C870 C869 1.267 . S
C870 C871 1.251 . S
C871 H841 0.929 . S
C871 N867 1.418 . S
C871 C870 1.251 . S
C872 H839 0.930 . S
C872 C874 1.406 . S
C872 C877 1.261 . S
C873 H840 0.930 . S
C873 N875 1.325 . S
C873 C876 1.357 . S
C874 H842 0.928 . S
C874 C872 1.406 . S
C874 N875 1.261 . S
N875 Co826 2.214 . S
N875 C873 1.325 . S
N875 C874 1.261 . S
C876 H846 0.931 . S
C876 C873 1.357 . S
C876 C877 1.312 . S
C877 H848 0.930 . S
C877 C872 1.261 . S
C877 C876 1.312 . S
C878 O850 1.214 . S
C878 O858 1.234 . S
C879 H851 0.929 . S
C879 C882 1.391 . S
C879 C884 1.391 . S
C880 H852 0.929 . S
C880 C881 1.390 . S
C880 N883 1.391 . S
C881 H853 0.930 . S
C881 C880 1.390 . S
C881 C882 1.392 . S
C882 H854 0.929 . S
C882 C879 1.391 . S
C882 C881 1.392 . S
N883 Co827 2.257 . S
N883 C880 1.391 . S
N883 C884 1.388 . S
C884 H855 0.930 . S
C884 C879 1.391 . S
C884 N883 1.388 . S
Co885 O887 2.143 . S
Co885 O893 2.074 . S
Co885 O896 2.093 . S
Co885 O909 2.097 . S
Co885 N926 2.151 . S
Co885 N934 2.214 . S
Co886 O887 2.160 . S
Co886 O892 2.058 . S
Co886 O902 2.057 . S
Co886 O917 2.037 . S
Co886 N921 2.145 . S
Co886 N942 2.257 . S
O887 Co885 2.143 . S
O887 Co886 2.160 . S
C888 O889 1.278 . S
C888 O896 1.224 . S
O889 C888 1.278 . S
C890 O891 1.245 . S
C890 O902 1.232 . S
O891 C890 1.245 . S
O892 Co886 2.058 . S
O892 C918 1.269 . S
O893 Co885 2.074 . S
O893 C918 1.257 . S
H894 C919 0.930 . S
H895 C925 0.930 . S
O896 Co885 2.093 . S
O896 C888 1.224 . S
H897 C929 0.929 . S
H898 C931 0.930 . S
H899 C932 0.930 . S
H900 C930 0.929 . S
H901 C933 0.928 . S
O902 Co886 2.057 . S
O902 C890 1.232 . S
H903 C922 0.929 . S
H904 C923 0.929 . S
H905 C935 0.931 . S
H906 C927 0.929 . S
H907 C936 0.930 . S
H908 C928 0.931 . S
O909 Co885 2.097 . S
O909 C937 1.214 . S
H910 C938 0.929 . S
H911 C939 0.929 . S
H912 C940 0.930 . S
H913 C941 0.929 . S
H914 C943 0.930 . S
H915 C920 0.930 . S
H916 C924 0.930 . S
O917 Co886 2.037 . S
O917 C937 1.234 . S
C918 O892 1.269 . S
C918 O893 1.257 . S
C919 H894 0.930 . S
C919 C922 1.388 . S
C919 C924 1.418 . S
C920 H915 0.930 . S
C920 C923 1.404 . S
C920 C924 1.353 . S
N921 Co886 2.145 . S
N921 C922 1.397 . S
N921 C923 1.334 . S
C922 H903 0.929 . S
C922 C919 1.388 . S
C922 N921 1.397 . S
C923 H904 0.929 . S
C923 C920 1.404 . S
C923 N921 1.334 . S
C924 H916 0.930 . S
C924 C919 1.418 . S
C924 C920 1.353 . S
C925 H895 0.930 . S
C925 N926 1.330 . S
C925 C927 1.446 . S
N926 Co885 2.151 . S
N926 C925 1.330 . S
N926 C930 1.418 . S
C927 H906 0.929 . S
C927 C925 1.446 . S
C927 C928 1.332 . S
C928 H908 0.931 . S
C928 C927 1.332 . S
C928 C929 1.267 . S
C929 H897 0.929 . S
C929 C928 1.267 . S
C929 C930 1.251 . S
C930 H900 0.929 . S
C930 N926 1.418 . S
C930 C929 1.251 . S
C931 H898 0.930 . S
C931 C933 1.406 . S
C931 C936 1.261 . S
C932 H899 0.930 . S
C932 N934 1.325 . S
C932 C935 1.357 . S
C933 H901 0.928 . S
C933 C931 1.406 . S
C933 N934 1.261 . S
N934 Co885 2.214 . S
N934 C932 1.325 . S
N934 C933 1.261 . S
C935 H905 0.931 . S
C935 C932 1.357 . S
C935 C936 1.312 . S
C936 H907 0.930 . S
C936 C931 1.261 . S
C936 C935 1.312 . S
C937 O909 1.214 . S
C937 O917 1.234 . S
C938 H910 0.929 . S
C938 C941 1.391 . S
C938 C943 1.391 . S
C939 H911 0.929 . S
C939 C940 1.390 . S
C939 N942 1.391 . S
C940 H912 0.930 . S
C940 C939 1.390 . S
C940 C941 1.392 . S
C941 H913 0.929 . S
C941 C938 1.391 . S
C941 C940 1.392 . S
N942 Co886 2.257 . S
N942 C939 1.391 . S
N942 C943 1.388 . S
C943 H914 0.930 . S
C943 C938 1.391 . S
C943 N942 1.388 . S
Co944 O946 2.143 . S
Co944 O952 2.074 . S
Co944 O955 2.093 . S
Co944 O968 2.097 . S
Co944 N985 2.151 . S
Co944 N993 2.214 . S
Co945 O946 2.160 . S
Co945 O951 2.058 . S
Co945 O961 2.057 . S
Co945 O976 2.037 . S
Co945 N980 2.145 . S
Co945 N1001 2.257 . S
O946 Co944 2.143 . S
O946 Co945 2.160 . S
C947 O948 1.278 . S
C947 O955 1.224 . S
O948 C947 1.278 . S
C949 O950 1.245 . S
C949 O961 1.232 . S
O950 C949 1.245 . S
O951 Co945 2.058 . S
O951 C977 1.269 . S
O952 Co944 2.074 . S
O952 C977 1.257 . S
H953 C978 0.930 . S
H954 C984 0.930 . S
O955 Co944 2.093 . S
O955 C947 1.224 . S
H956 C988 0.929 . S
H957 C990 0.930 . S
H958 C991 0.930 . S
H959 C989 0.929 . S
H960 C992 0.928 . S
O961 Co945 2.057 . S
O961 C949 1.232 . S
H962 C981 0.929 . S
H963 C982 0.929 . S
H964 C994 0.931 . S
H965 C986 0.929 . S
H966 C995 0.930 . S
H967 C987 0.931 . S
O968 Co944 2.097 . S
O968 C996 1.214 . S
H969 C997 0.929 . S
H970 C998 0.929 . S
H971 C999 0.930 . S
H972 C1000 0.929 . S
H973 C1002 0.930 . S
H974 C979 0.930 . S
H975 C983 0.930 . S
O976 Co945 2.037 . S
O976 C996 1.234 . S
C977 O951 1.269 . S
C977 O952 1.257 . S
C978 H953 0.930 . S
C978 C981 1.388 . S
C978 C983 1.418 . S
C979 H974 0.930 . S
C979 C982 1.404 . S
C979 C983 1.353 . S
N980 Co945 2.145 . S
N980 C981 1.397 . S
N980 C982 1.334 . S
C981 H962 0.929 . S
C981 C978 1.388 . S
C981 N980 1.397 . S
C982 H963 0.929 . S
C982 C979 1.404 . S
C982 N980 1.334 . S
C983 H975 0.930 . S
C983 C978 1.418 . S
C983 C979 1.353 . S
C984 H954 0.930 . S
C984 N985 1.330 . S
C984 C986 1.446 . S
N985 Co944 2.151 . S
N985 C984 1.330 . S
N985 C989 1.418 . S
C986 H965 0.929 . S
C986 C984 1.446 . S
C986 C987 1.332 . S
C987 H967 0.931 . S
C987 C986 1.332 . S
C987 C988 1.267 . S
C988 H956 0.929 . S
C988 C987 1.267 . S
C988 C989 1.251 . S
C989 H959 0.929 . S
C989 N985 1.418 . S
C989 C988 1.251 . S
C990 H957 0.930 . S
C990 C992 1.406 . S
C990 C995 1.261 . S
C991 H958 0.930 . S
C991 N993 1.325 . S
C991 C994 1.357 . S
C992 H960 0.928 . S
C992 C990 1.406 . S
C992 N993 1.261 . S
N993 Co944 2.214 . S
N993 C991 1.325 . S
N993 C992 1.261 . S
C994 H964 0.931 . S
C994 C991 1.357 . S
C994 C995 1.312 . S
C995 H966 0.930 . S
C995 C990 1.261 . S
C995 C994 1.312 . S
C996 O968 1.214 . S
C996 O976 1.234 . S
C997 H969 0.929 . S
C997 C1000 1.391 . S
C997 C1002 1.391 . S
C998 H970 0.929 . S
C998 C999 1.390 . S
C998 N1001 1.391 . S
C999 H971 0.930 . S
C999 C998 1.390 . S
C999 C1000 1.392 . S
C1000 H972 0.929 . S
C1000 C997 1.391 . S
C1000 C999 1.392 . S
N1001 Co945 2.257 . S
N1001 C998 1.391 . S
N1001 C1002 1.388 . S
C1002 H973 0.930 . S
C1002 C997 1.391 . S
C1002 N1001 1.388 . S
Co1003 O1005 2.143 . S
Co1003 O1011 2.074 . S
Co1003 O1014 2.093 . S
Co1003 O1027 2.097 . S
Co1003 N1044 2.151 . S
Co1003 N1052 2.214 . S
Co1004 O1005 2.160 . S
Co1004 O1010 2.058 . S
Co1004 O1020 2.057 . S
Co1004 O1035 2.037 . S
Co1004 N1039 2.145 . S
Co1004 N1060 2.257 . S
O1005 Co1003 2.143 . S
O1005 Co1004 2.160 . S
C1006 O1007 1.278 . S
C1006 O1014 1.224 . S
O1007 C1006 1.278 . S
C1008 O1009 1.245 . S
C1008 O1020 1.232 . S
O1009 C1008 1.245 . S
O1010 Co1004 2.058 . S
O1010 C1036 1.269 . S
O1011 Co1003 2.074 . S
O1011 C1036 1.257 . S
H1012 C1037 0.930 . S
H1013 C1043 0.930 . S
O1014 Co1003 2.093 . S
O1014 C1006 1.224 . S
H1015 C1047 0.929 . S
H1016 C1049 0.930 . S
H1017 C1050 0.930 . S
H1018 C1048 0.929 . S
H1019 C1051 0.928 . S
O1020 Co1004 2.057 . S
O1020 C1008 1.232 . S
H1021 C1040 0.929 . S
H1022 C1041 0.929 . S
H1023 C1053 0.931 . S
H1024 C1045 0.929 . S
H1025 C1054 0.930 . S
H1026 C1046 0.931 . S
O1027 Co1003 2.097 . S
O1027 C1055 1.214 . S
H1028 C1056 0.929 . S
H1029 C1057 0.929 . S
H1030 C1058 0.930 . S
H1031 C1059 0.929 . S
H1032 C1061 0.930 . S
H1033 C1038 0.930 . S
H1034 C1042 0.930 . S
O1035 Co1004 2.037 . S
O1035 C1055 1.234 . S
C1036 O1010 1.269 . S
C1036 O1011 1.257 . S
C1037 H1012 0.930 . S
C1037 C1040 1.388 . S
C1037 C1042 1.418 . S
C1038 H1033 0.930 . S
C1038 C1041 1.404 . S
C1038 C1042 1.353 . S
N1039 Co1004 2.145 . S
N1039 C1040 1.397 . S
N1039 C1041 1.334 . S
C1040 H1021 0.929 . S
C1040 C1037 1.388 . S
C1040 N1039 1.397 . S
C1041 H1022 0.929 . S
C1041 C1038 1.404 . S
C1041 N1039 1.334 . S
C1042 H1034 0.930 . S
C1042 C1037 1.418 . S
C1042 C1038 1.353 . S
C1043 H1013 0.930 . S
C1043 N1044 1.330 . S
C1043 C1045 1.446 . S
N1044 Co1003 2.151 . S
N1044 C1043 1.330 . S
N1044 C1048 1.418 . S
C1045 H1024 0.929 . S
C1045 C1043 1.446 . S
C1045 C1046 1.332 . S
C1046 H1026 0.931 . S
C1046 C1045 1.332 . S
C1046 C1047 1.267 . S
C1047 H1015 0.929 . S
C1047 C1046 1.267 . S
C1047 C1048 1.251 . S
C1048 H1018 0.929 . S
C1048 N1044 1.418 . S
C1048 C1047 1.251 . S
C1049 H1016 0.930 . S
C1049 C1051 1.406 . S
C1049 C1054 1.261 . S
C1050 H1017 0.930 . S
C1050 N1052 1.325 . S
C1050 C1053 1.357 . S
C1051 H1019 0.928 . S
C1051 C1049 1.406 . S
C1051 N1052 1.261 . S
N1052 Co1003 2.214 . S
N1052 C1050 1.325 . S
N1052 C1051 1.261 . S
C1053 H1023 0.931 . S
C1053 C1050 1.357 . S
C1053 C1054 1.312 . S
C1054 H1025 0.930 . S
C1054 C1049 1.261 . S
C1054 C1053 1.312 . S
C1055 O1027 1.214 . S
C1055 O1035 1.234 . S
C1056 H1028 0.929 . S
C1056 C1059 1.391 . S
C1056 C1061 1.391 . S
C1057 H1029 0.929 . S
C1057 C1058 1.390 . S
C1057 N1060 1.391 . S
C1058 H1030 0.930 . S
C1058 C1057 1.390 . S
C1058 C1059 1.392 . S
C1059 H1031 0.929 . S
C1059 C1056 1.391 . S
C1059 C1058 1.392 . S
N1060 Co1004 2.257 . S
N1060 C1057 1.391 . S
N1060 C1061 1.388 . S
C1061 H1032 0.930 . S
C1061 C1056 1.391 . S
C1061 N1060 1.388 . S
Co1062 O1064 2.143 . S
Co1062 O1070 2.074 . S
Co1062 O1073 2.093 . S
Co1062 O1086 2.097 . S
Co1062 N1103 2.151 . S
Co1062 N1111 2.214 . S
Co1063 O1064 2.160 . S
Co1063 O1069 2.058 . S
Co1063 O1079 2.057 . S
Co1063 O1094 2.037 . S
Co1063 N1098 2.145 . S
Co1063 N1119 2.257 . S
O1064 Co1062 2.143 . S
O1064 Co1063 2.160 . S
C1065 O1066 1.278 1_556 S
C1065 O1073 1.224 1_556 S
O1066 C1065 1.278 1_554 S
C1067 O1068 1.245 . S
C1067 O1079 1.232 . S
O1068 C1067 1.245 . S
O1069 Co1063 2.058 . S
O1069 C1095 1.269 . S
O1070 Co1062 2.074 . S
O1070 C1095 1.257 . S
H1071 C1096 0.930 . S
H1072 C1102 0.930 . S
O1073 Co1062 2.093 . S
O1073 C1065 1.224 1_554 S
H1074 C1106 0.929 . S
H1075 C1108 0.930 . S
H1076 C1109 0.930 . S
H1077 C1107 0.929 . S
H1078 C1110 0.928 . S
O1079 Co1063 2.057 . S
O1079 C1067 1.232 . S
H1080 C1099 0.929 . S
H1081 C1100 0.929 . S
H1082 C1112 0.931 . S
H1083 C1104 0.929 . S
H1084 C1113 0.930 . S
H1085 C1105 0.931 . S
O1086 Co1062 2.097 . S
O1086 C1114 1.214 . S
H1087 C1115 0.929 1_556 S
H1088 C1116 0.929 . S
H1089 C1117 0.930 . S
H1090 C1118 0.929 1_556 S
H1091 C1120 0.930 . S
H1092 C1097 0.930 . S
H1093 C1101 0.930 . S
O1094 Co1063 2.037 . S
O1094 C1114 1.234 . S
C1095 O1069 1.269 . S
C1095 O1070 1.257 . S
C1096 H1071 0.930 . S
C1096 C1099 1.388 . S
C1096 C1101 1.418 . S
C1097 H1092 0.930 . S
C1097 C1100 1.404 . S
C1097 C1101 1.353 . S
N1098 Co1063 2.145 . S
N1098 C1099 1.397 . S
N1098 C1100 1.334 . S
C1099 H1080 0.929 . S
C1099 C1096 1.388 . S
C1099 N1098 1.397 . S
C1100 H1081 0.929 . S
C1100 C1097 1.404 . S
C1100 N1098 1.334 . S
C1101 H1093 0.930 . S
C1101 C1096 1.418 . S
C1101 C1097 1.353 . S
C1102 H1072 0.930 . S
C1102 N1103 1.330 . S
C1102 C1104 1.446 . S
N1103 Co1062 2.151 . S
N1103 C1102 1.330 . S
N1103 C1107 1.418 . S
C1104 H1083 0.929 . S
C1104 C1102 1.446 . S
C1104 C1105 1.332 . S
C1105 H1085 0.931 . S
C1105 C1104 1.332 . S
C1105 C1106 1.267 . S
C1106 H1074 0.929 . S
C1106 C1105 1.267 . S
C1106 C1107 1.251 . S
C1107 H1077 0.929 . S
C1107 N1103 1.418 . S
C1107 C1106 1.251 . S
C1108 H1075 0.930 . S
C1108 C1110 1.406 . S
C1108 C1113 1.261 . S
C1109 H1076 0.930 . S
C1109 N1111 1.325 . S
C1109 C1112 1.357 . S
C1110 H1078 0.928 . S
C1110 C1108 1.406 . S
C1110 N1111 1.261 . S
N1111 Co1062 2.214 . S
N1111 C1109 1.325 . S
N1111 C1110 1.261 . S
C1112 H1082 0.931 . S
C1112 C1109 1.357 . S
C1112 C1113 1.312 . S
C1113 H1084 0.930 . S
C1113 C1108 1.261 . S
C1113 C1112 1.312 . S
C1114 O1086 1.214 . S
C1114 O1094 1.234 . S
C1115 H1087 0.929 1_554 S
C1115 C1118 1.391 . S
C1115 C1120 1.391 . S
C1116 H1088 0.929 . S
C1116 C1117 1.390 . S
C1116 N1119 1.391 . S
C1117 H1089 0.930 . S
C1117 C1116 1.390 . S
C1117 C1118 1.392 . S
C1118 H1090 0.929 1_554 S
C1118 C1115 1.391 . S
C1118 C1117 1.392 . S
N1119 Co1063 2.257 . S
N1119 C1116 1.391 . S
N1119 C1120 1.388 . S
C1120 H1091 0.930 . S
C1120 C1115 1.391 . S
C1120 N1119 1.388 . S
Co1121 O1123 2.143 . S
Co1121 O1129 2.074 . S
Co1121 O1132 2.093 . S
Co1121 O1145 2.097 . S
Co1121 N1162 2.151 . S
Co1121 N1170 2.214 . S
Co1122 O1123 2.160 . S
Co1122 O1128 2.058 . S
Co1122 O1138 2.057 . S
Co1122 O1153 2.037 . S
Co1122 N1157 2.145 . S
Co1122 N1178 2.257 . S
O1123 Co1121 2.143 . S
O1123 Co1122 2.160 . S
C1124 O1125 1.278 1_556 S
C1124 O1132 1.224 1_556 S
O1125 C1124 1.278 1_554 S
C1126 O1127 1.245 . S
C1126 O1138 1.232 . S
O1127 C1126 1.245 . S
O1128 Co1122 2.058 . S
O1128 C1154 1.269 . S
O1129 Co1121 2.074 . S
O1129 C1154 1.257 . S
H1130 C1155 0.930 . S
H1131 C1161 0.930 . S
O1132 Co1121 2.093 . S
O1132 C1124 1.224 1_554 S
H1133 C1165 0.929 . S
H1134 C1167 0.930 . S
H1135 C1168 0.930 . S
H1136 C1166 0.929 . S
H1137 C1169 0.928 . S
O1138 Co1122 2.057 . S
O1138 C1126 1.232 . S
H1139 C1158 0.929 . S
H1140 C1159 0.929 . S
H1141 C1171 0.931 . S
H1142 C1163 0.929 . S
H1143 C1172 0.930 . S
H1144 C1164 0.931 . S
O1145 Co1121 2.097 . S
O1145 C1173 1.214 . S
H1146 C1174 0.929 1_556 S
H1147 C1175 0.929 . S
H1148 C1176 0.930 . S
H1149 C1177 0.929 1_556 S
H1150 C1179 0.930 . S
H1151 C1156 0.930 . S
H1152 C1160 0.930 . S
O1153 Co1122 2.037 . S
O1153 C1173 1.234 . S
C1154 O1128 1.269 . S
C1154 O1129 1.257 . S
C1155 H1130 0.930 . S
C1155 C1158 1.388 . S
C1155 C1160 1.418 . S
C1156 H1151 0.930 . S
C1156 C1159 1.404 . S
C1156 C1160 1.353 . S
N1157 Co1122 2.145 . S
N1157 C1158 1.397 . S
N1157 C1159 1.334 . S
C1158 H1139 0.929 . S
C1158 C1155 1.388 . S
C1158 N1157 1.397 . S
C1159 H1140 0.929 . S
C1159 C1156 1.404 . S
C1159 N1157 1.334 . S
C1160 H1152 0.930 . S
C1160 C1155 1.418 . S
C1160 C1156 1.353 . S
C1161 H1131 0.930 . S
C1161 N1162 1.330 . S
C1161 C1163 1.446 . S
N1162 Co1121 2.151 . S
N1162 C1161 1.330 . S
N1162 C1166 1.418 . S
C1163 H1142 0.929 . S
C1163 C1161 1.446 . S
C1163 C1164 1.332 . S
C1164 H1144 0.931 . S
C1164 C1163 1.332 . S
C1164 C1165 1.267 . S
C1165 H1133 0.929 . S
C1165 C1164 1.267 . S
C1165 C1166 1.251 . S
C1166 H1136 0.929 . S
C1166 N1162 1.418 . S
C1166 C1165 1.251 . S
C1167 H1134 0.930 . S
C1167 C1169 1.406 . S
C1167 C1172 1.261 . S
C1168 H1135 0.930 . S
C1168 N1170 1.325 . S
C1168 C1171 1.357 . S
C1169 H1137 0.928 . S
C1169 C1167 1.406 . S
C1169 N1170 1.261 . S
N1170 Co1121 2.214 . S
N1170 C1168 1.325 . S
N1170 C1169 1.261 . S
C1171 H1141 0.931 . S
C1171 C1168 1.357 . S
C1171 C1172 1.312 . S
C1172 H1143 0.930 . S
C1172 C1167 1.261 . S
C1172 C1171 1.312 . S
C1173 O1145 1.214 . S
C1173 O1153 1.234 . S
C1174 H1146 0.929 1_554 S
C1174 C1177 1.391 . S
C1174 C1179 1.391 . S
C1175 H1147 0.929 . S
C1175 C1176 1.390 . S
C1175 N1178 1.391 . S
C1176 H1148 0.930 . S
C1176 C1175 1.390 . S
C1176 C1177 1.392 . S
C1177 H1149 0.929 1_554 S
C1177 C1174 1.391 . S
C1177 C1176 1.392 . S
N1178 Co1122 2.257 . S
N1178 C1175 1.391 . S
N1178 C1179 1.388 . S
C1179 H1150 0.930 . S
C1179 C1174 1.391 . S
C1179 N1178 1.388 . S
Co1180 O1182 2.143 . S
Co1180 O1188 2.074 . S
Co1180 O1191 2.093 . S
Co1180 O1204 2.097 . S
Co1180 N1221 2.151 . S
Co1180 N1229 2.214 . S
Co1181 O1182 2.160 . S
Co1181 O1187 2.058 . S
Co1181 O1197 2.057 . S
Co1181 O1212 2.037 . S
Co1181 N1216 2.145 . S
Co1181 N1237 2.257 . S
O1182 Co1180 2.143 . S
O1182 Co1181 2.160 . S
C1183 O1184 1.278 1_556 S
C1183 O1191 1.224 1_556 S
O1184 C1183 1.278 1_554 S
C1185 O1186 1.245 . S
C1185 O1197 1.232 . S
O1186 C1185 1.245 . S
O1187 Co1181 2.058 . S
O1187 C1213 1.269 . S
O1188 Co1180 2.074 . S
O1188 C1213 1.257 . S
H1189 C1214 0.930 . S
H1190 C1220 0.930 . S
O1191 Co1180 2.093 . S
O1191 C1183 1.224 1_554 S
H1192 C1224 0.929 . S
H1193 C1226 0.930 . S
H1194 C1227 0.930 . S
H1195 C1225 0.929 . S
H1196 C1228 0.928 . S
O1197 Co1181 2.057 . S
O1197 C1185 1.232 . S
H1198 C1217 0.929 . S
H1199 C1218 0.929 . S
H1200 C1230 0.931 . S
H1201 C1222 0.929 . S
H1202 C1231 0.930 . S
H1203 C1223 0.931 . S
O1204 Co1180 2.097 . S
O1204 C1232 1.214 . S
H1205 C1233 0.929 1_556 S
H1206 C1234 0.929 . S
H1207 C1235 0.930 . S
H1208 C1236 0.929 1_556 S
H1209 C1238 0.930 . S
H1210 C1215 0.930 . S
H1211 C1219 0.930 . S
O1212 Co1181 2.037 . S
O1212 C1232 1.234 . S
C1213 O1187 1.269 . S
C1213 O1188 1.257 . S
C1214 H1189 0.930 . S
C1214 C1217 1.388 . S
C1214 C1219 1.418 . S
C1215 H1210 0.930 . S
C1215 C1218 1.404 . S
C1215 C1219 1.353 . S
N1216 Co1181 2.145 . S
N1216 C1217 1.397 . S
N1216 C1218 1.334 . S
C1217 H1198 0.929 . S
C1217 C1214 1.388 . S
C1217 N1216 1.397 . S
C1218 H1199 0.929 . S
C1218 C1215 1.404 . S
C1218 N1216 1.334 . S
C1219 H1211 0.930 . S
C1219 C1214 1.418 . S
C1219 C1215 1.353 . S
C1220 H1190 0.930 . S
C1220 N1221 1.330 . S
C1220 C1222 1.446 . S
N1221 Co1180 2.151 . S
N1221 C1220 1.330 . S
N1221 C1225 1.418 . S
C1222 H1201 0.929 . S
C1222 C1220 1.446 . S
C1222 C1223 1.332 . S
C1223 H1203 0.931 . S
C1223 C1222 1.332 . S
C1223 C1224 1.267 . S
C1224 H1192 0.929 . S
C1224 C1223 1.267 . S
C1224 C1225 1.251 . S
C1225 H1195 0.929 . S
C1225 N1221 1.418 . S
C1225 C1224 1.251 . S
C1226 H1193 0.930 . S
C1226 C1228 1.406 . S
C1226 C1231 1.261 . S
C1227 H1194 0.930 . S
C1227 N1229 1.325 . S
C1227 C1230 1.357 . S
C1228 H1196 0.928 . S
C1228 C1226 1.406 . S
C1228 N1229 1.261 . S
N1229 Co1180 2.214 . S
N1229 C1227 1.325 . S
N1229 C1228 1.261 . S
C1230 H1200 0.931 . S
C1230 C1227 1.357 . S
C1230 C1231 1.312 . S
C1231 H1202 0.930 . S
C1231 C1226 1.261 . S
C1231 C1230 1.312 . S
C1232 O1204 1.214 . S
C1232 O1212 1.234 . S
C1233 H1205 0.929 1_554 S
C1233 C1236 1.391 . S
C1233 C1238 1.391 . S
C1234 H1206 0.929 . S
C1234 C1235 1.390 . S
C1234 N1237 1.391 . S
C1235 H1207 0.930 . S
C1235 C1234 1.390 . S
C1235 C1236 1.392 . S
C1236 H1208 0.929 1_554 S
C1236 C1233 1.391 . S
C1236 C1235 1.392 . S
N1237 Co1181 2.257 . S
N1237 C1234 1.391 . S
N1237 C1238 1.388 . S
C1238 H1209 0.930 . S
C1238 C1233 1.391 . S
C1238 N1237 1.388 . S
Co1239 O1241 2.143 . S
Co1239 O1247 2.074 . S
Co1239 O1250 2.093 . S
Co1239 O1263 2.097 . S
Co1239 N1280 2.151 . S
Co1239 N1288 2.214 . S
Co1240 O1241 2.160 . S
Co1240 O1246 2.058 1_554 S
Co1240 O1256 2.057 . S
Co1240 O1271 2.037 . S
Co1240 N1275 2.145 1_554 S
Co1240 N1296 2.257 . S
O1241 Co1239 2.143 . S
O1241 Co1240 2.160 . S
C1242 O1243 1.278 . S
C1242 O1250 1.224 . S
O1243 C1242 1.278 . S
C1244 O1245 1.245 . S
C1244 O1256 1.232 . S
O1245 C1244 1.245 . S
O1246 Co1240 2.058 1_556 S
O1246 C1272 1.269 . S
O1247 Co1239 2.074 . S
O1247 C1272 1.257 1_554 S
H1248 C1273 0.930 . S
H1249 C1279 0.930 . S
O1250 Co1239 2.093 . S
O1250 C1242 1.224 . S
H1251 C1283 0.929 . S
H1252 C1285 0.930 . S
H1253 C1286 0.930 . S
H1254 C1284 0.929 . S
H1255 C1287 0.928 . S
O1256 Co1240 2.057 . S
O1256 C1244 1.232 . S
H1257 C1276 0.929 . S
H1258 C1277 0.929 1_554 S
H1259 C1289 0.931 1_556 S
H1260 C1281 0.929 . S
H1261 C1290 0.930 . S
H1262 C1282 0.931 . S
O1263 Co1239 2.097 . S
O1263 C1291 1.214 . S
H1264 C1292 0.929 . S
H1265 C1293 0.929 . S
H1266 C1294 0.930 . S
H1267 C1295 0.929 . S
H1268 C1297 0.930 . S
H1269 C1274 0.930 . S
H1270 C1278 0.930 . S
O1271 Co1240 2.037 . S
O1271 C1291 1.234 . S
C1272 O1246 1.269 . S
C1272 O1247 1.257 1_556 S
C1273 H1248 0.930 . S
C1273 C1276 1.388 . S
C1273 C1278 1.418 . S
C1274 H1269 0.930 . S
C1274 C1277 1.404 . S
C1274 C1278 1.353 . S
N1275 Co1240 2.145 1_556 S
N1275 C1276 1.397 . S
N1275 C1277 1.334 . S
C1276 H1257 0.929 . S
C1276 C1273 1.388 . S
C1276 N1275 1.397 . S
C1277 H1258 0.929 1_556 S
C1277 C1274 1.404 . S
C1277 N1275 1.334 . S
C1278 H1270 0.930 . S
C1278 C1273 1.418 . S
C1278 C1274 1.353 . S
C1279 H1249 0.930 . S
C1279 N1280 1.330 . S
C1279 C1281 1.446 . S
N1280 Co1239 2.151 . S
N1280 C1279 1.330 . S
N1280 C1284 1.418 . S
C1281 H1260 0.929 . S
C1281 C1279 1.446 . S
C1281 C1282 1.332 . S
C1282 H1262 0.931 . S
C1282 C1281 1.332 . S
C1282 C1283 1.267 . S
C1283 H1251 0.929 . S
C1283 C1282 1.267 . S
C1283 C1284 1.251 . S
C1284 H1254 0.929 . S
C1284 N1280 1.418 . S
C1284 C1283 1.251 . S
C1285 H1252 0.930 . S
C1285 C1287 1.406 . S
C1285 C1290 1.261 . S
C1286 H1253 0.930 . S
C1286 N1288 1.325 . S
C1286 C1289 1.357 . S
C1287 H1255 0.928 . S
C1287 C1285 1.406 . S
C1287 N1288 1.261 . S
N1288 Co1239 2.214 . S
N1288 C1286 1.325 . S
N1288 C1287 1.261 . S
C1289 H1259 0.931 1_554 S
C1289 C1286 1.357 . S
C1289 C1290 1.312 . S
C1290 H1261 0.930 . S
C1290 C1285 1.261 . S
C1290 C1289 1.312 . S
C1291 O1263 1.214 . S
C1291 O1271 1.234 . S
C1292 H1264 0.929 . S
C1292 C1295 1.391 . S
C1292 C1297 1.391 . S
C1293 H1265 0.929 . S
C1293 C1294 1.390 . S
C1293 N1296 1.391 . S
C1294 H1266 0.930 . S
C1294 C1293 1.390 . S
C1294 C1295 1.392 . S
C1295 H1267 0.929 . S
C1295 C1292 1.391 . S
C1295 C1294 1.392 . S
N1296 Co1240 2.257 . S
N1296 C1293 1.391 . S
N1296 C1297 1.388 . S
C1297 H1268 0.930 . S
C1297 C1292 1.391 . S
C1297 N1296 1.388 . S
Co1298 O1300 2.143 . S
Co1298 O1306 2.074 . S
Co1298 O1309 2.093 . S
Co1298 O1322 2.097 . S
Co1298 N1339 2.151 . S
Co1298 N1347 2.214 . S
Co1299 O1300 2.160 . S
Co1299 O1305 2.058 1_554 S
Co1299 O1315 2.057 . S
Co1299 O1330 2.037 . S
Co1299 N1334 2.145 1_554 S
Co1299 N1355 2.257 . S
O1300 Co1298 2.143 . S
O1300 Co1299 2.160 . S
C1301 O1302 1.278 . S
C1301 O1309 1.224 . S
O1302 C1301 1.278 . S
C1303 O1304 1.245 . S
C1303 O1315 1.232 . S
O1304 C1303 1.245 . S
O1305 Co1299 2.058 1_556 S
O1305 C1331 1.269 . S
O1306 Co1298 2.074 . S
O1306 C1331 1.257 1_554 S
H1307 C1332 0.930 . S
H1308 C1338 0.930 . S
O1309 Co1298 2.093 . S
O1309 C1301 1.224 . S
H1310 C1342 0.929 . S
H1311 C1344 0.930 . S
H1312 C1345 0.930 . S
H1313 C1343 0.929 . S
H1314 C1346 0.928 . S
O1315 Co1299 2.057 . S
O1315 C1303 1.232 . S
H1316 C1335 0.929 . S
H1317 C1336 0.929 1_554 S
H1318 C1348 0.931 1_556 S
H1319 C1340 0.929 . S
H1320 C1349 0.930 . S
H1321 C1341 0.931 . S
O1322 Co1298 2.097 . S
O1322 C1350 1.214 . S
H1323 C1351 0.929 . S
H1324 C1352 0.929 . S
H1325 C1353 0.930 . S
H1326 C1354 0.929 . S
H1327 C1356 0.930 . S
H1328 C1333 0.930 . S
H1329 C1337 0.930 . S
O1330 Co1299 2.037 . S
O1330 C1350 1.234 . S
C1331 O1305 1.269 . S
C1331 O1306 1.257 1_556 S
C1332 H1307 0.930 . S
C1332 C1335 1.388 . S
C1332 C1337 1.418 . S
C1333 H1328 0.930 . S
C1333 C1336 1.404 . S
C1333 C1337 1.353 . S
N1334 Co1299 2.145 1_556 S
N1334 C1335 1.397 . S
N1334 C1336 1.334 . S
C1335 H1316 0.929 . S
C1335 C1332 1.388 . S
C1335 N1334 1.397 . S
C1336 H1317 0.929 1_556 S
C1336 C1333 1.404 . S
C1336 N1334 1.334 . S
C1337 H1329 0.930 . S
C1337 C1332 1.418 . S
C1337 C1333 1.353 . S
C1338 H1308 0.930 . S
C1338 N1339 1.330 . S
C1338 C1340 1.446 . S
N1339 Co1298 2.151 . S
N1339 C1338 1.330 . S
N1339 C1343 1.418 . S
C1340 H1319 0.929 . S
C1340 C1338 1.446 . S
C1340 C1341 1.332 . S
C1341 H1321 0.931 . S
C1341 C1340 1.332 . S
C1341 C1342 1.267 . S
C1342 H1310 0.929 . S
C1342 C1341 1.267 . S
C1342 C1343 1.251 . S
C1343 H1313 0.929 . S
C1343 N1339 1.418 . S
C1343 C1342 1.251 . S
C1344 H1311 0.930 . S
C1344 C1346 1.406 . S
C1344 C1349 1.261 . S
C1345 H1312 0.930 . S
C1345 N1347 1.325 . S
C1345 C1348 1.357 . S
C1346 H1314 0.928 . S
C1346 C1344 1.406 . S
C1346 N1347 1.261 . S
N1347 Co1298 2.214 . S
N1347 C1345 1.325 . S
N1347 C1346 1.261 . S
C1348 H1318 0.931 1_554 S
C1348 C1345 1.357 . S
C1348 C1349 1.312 . S
C1349 H1320 0.930 . S
C1349 C1344 1.261 . S
C1349 C1348 1.312 . S
C1350 O1322 1.214 . S
C1350 O1330 1.234 . S
C1351 H1323 0.929 . S
C1351 C1354 1.391 . S
C1351 C1356 1.391 . S
C1352 H1324 0.929 . S
C1352 C1353 1.390 . S
C1352 N1355 1.391 . S
C1353 H1325 0.930 . S
C1353 C1352 1.390 . S
C1353 C1354 1.392 . S
C1354 H1326 0.929 . S
C1354 C1351 1.391 . S
C1354 C1353 1.392 . S
N1355 Co1299 2.257 . S
N1355 C1352 1.391 . S
N1355 C1356 1.388 . S
C1356 H1327 0.930 . S
C1356 C1351 1.391 . S
C1356 N1355 1.388 . S
Co1357 O1359 2.143 . S
Co1357 O1365 2.074 . S
Co1357 O1368 2.093 . S
Co1357 O1381 2.097 . S
Co1357 N1398 2.151 . S
Co1357 N1406 2.214 . S
Co1358 O1359 2.160 . S
Co1358 O1364 2.058 1_554 S
Co1358 O1374 2.057 . S
Co1358 O1389 2.037 . S
Co1358 N1393 2.145 1_554 S
Co1358 N1414 2.257 . S
O1359 Co1357 2.143 . S
O1359 Co1358 2.160 . S
C1360 O1361 1.278 . S
C1360 O1368 1.224 . S
O1361 C1360 1.278 . S
C1362 O1363 1.245 . S
C1362 O1374 1.232 . S
O1363 C1362 1.245 . S
O1364 Co1358 2.058 1_556 S
O1364 C1390 1.269 . S
O1365 Co1357 2.074 . S
O1365 C1390 1.257 1_554 S
H1366 C1391 0.930 . S
H1367 C1397 0.930 . S
O1368 Co1357 2.093 . S
O1368 C1360 1.224 . S
H1369 C1401 0.929 . S
H1370 C1403 0.930 . S
H1371 C1404 0.930 . S
H1372 C1402 0.929 . S
H1373 C1405 0.928 . S
O1374 Co1358 2.057 . S
O1374 C1362 1.232 . S
H1375 C1394 0.929 . S
H1376 C1395 0.929 1_554 S
H1377 C1407 0.931 1_556 S
H1378 C1399 0.929 . S
H1379 C1408 0.930 . S
H1380 C1400 0.931 . S
O1381 Co1357 2.097 . S
O1381 C1409 1.214 . S
H1382 C1410 0.929 . S
H1383 C1411 0.929 . S
H1384 C1412 0.930 . S
H1385 C1413 0.929 . S
H1386 C1415 0.930 . S
H1387 C1392 0.930 . S
H1388 C1396 0.930 . S
O1389 Co1358 2.037 . S
O1389 C1409 1.234 . S
C1390 O1364 1.269 . S
C1390 O1365 1.257 1_556 S
C1391 H1366 0.930 . S
C1391 C1394 1.388 . S
C1391 C1396 1.418 . S
C1392 H1387 0.930 . S
C1392 C1395 1.404 . S
C1392 C1396 1.353 . S
N1393 Co1358 2.145 1_556 S
N1393 C1394 1.397 . S
N1393 C1395 1.334 . S
C1394 H1375 0.929 . S
C1394 C1391 1.388 . S
C1394 N1393 1.397 . S
C1395 H1376 0.929 1_556 S
C1395 C1392 1.404 . S
C1395 N1393 1.334 . S
C1396 H1388 0.930 . S
C1396 C1391 1.418 . S
C1396 C1392 1.353 . S
C1397 H1367 0.930 . S
C1397 N1398 1.330 . S
C1397 C1399 1.446 . S
N1398 Co1357 2.151 . S
N1398 C1397 1.330 . S
N1398 C1402 1.418 . S
C1399 H1378 0.929 . S
C1399 C1397 1.446 . S
C1399 C1400 1.332 . S
C1400 H1380 0.931 . S
C1400 C1399 1.332 . S
C1400 C1401 1.267 . S
C1401 H1369 0.929 . S
C1401 C1400 1.267 . S
C1401 C1402 1.251 . S
C1402 H1372 0.929 . S
C1402 N1398 1.418 . S
C1402 C1401 1.251 . S
C1403 H1370 0.930 . S
C1403 C1405 1.406 . S
C1403 C1408 1.261 . S
C1404 H1371 0.930 . S
C1404 N1406 1.325 . S
C1404 C1407 1.357 . S
C1405 H1373 0.928 . S
C1405 C1403 1.406 . S
C1405 N1406 1.261 . S
N1406 Co1357 2.214 . S
N1406 C1404 1.325 . S
N1406 C1405 1.261 . S
C1407 H1377 0.931 1_554 S
C1407 C1404 1.357 . S
C1407 C1408 1.312 . S
C1408 H1379 0.930 . S
C1408 C1403 1.261 . S
C1408 C1407 1.312 . S
C1409 O1381 1.214 . S
C1409 O1389 1.234 . S
C1410 H1382 0.929 . S
C1410 C1413 1.391 . S
C1410 C1415 1.391 . S
C1411 H1383 0.929 . S
C1411 C1412 1.390 . S
C1411 N1414 1.391 . S
C1412 H1384 0.930 . S
C1412 C1411 1.390 . S
C1412 C1413 1.392 . S
C1413 H1385 0.929 . S
C1413 C1410 1.391 . S
C1413 C1412 1.392 . S
N1414 Co1358 2.257 . S
N1414 C1411 1.391 . S
N1414 C1415 1.388 . S
C1415 H1386 0.930 . S
C1415 C1410 1.391 . S
C1415 N1414 1.388 . S
Co1416 O1418 2.143 . S
Co1416 O1424 2.074 . S
Co1416 O1427 2.093 . S
Co1416 O1440 2.097 . S
Co1416 N1457 2.151 . S
Co1416 N1465 2.214 . S
Co1417 O1418 2.160 . S
Co1417 O1423 2.058 . S
Co1417 O1433 2.057 . S
Co1417 O1448 2.037 . S
Co1417 N1452 2.145 . S
Co1417 N1473 2.257 . S
O1418 Co1416 2.143 . S
O1418 Co1417 2.160 . S
C1419 O1420 1.278 1_554 S
C1419 O1427 1.224 1_554 S
O1420 C1419 1.278 1_556 S
C1421 O1422 1.245 . S
C1421 O1433 1.232 . S
O1422 C1421 1.245 . S
O1423 Co1417 2.058 . S
O1423 C1449 1.269 . S
O1424 Co1416 2.074 . S
O1424 C1449 1.257 . S
H1425 C1450 0.930 . S
H1426 C1456 0.930 . S
O1427 Co1416 2.093 . S
O1427 C1419 1.224 1_556 S
H1428 C1460 0.929 . S
H1429 C1462 0.930 . S
H1430 C1463 0.930 . S
H1431 C1461 0.929 . S
H1432 C1464 0.928 . S
O1433 Co1417 2.057 . S
O1433 C1421 1.232 . S
H1434 C1453 0.929 . S
H1435 C1454 0.929 . S
H1436 C1466 0.931 . S
H1437 C1458 0.929 . S
H1438 C1467 0.930 . S
H1439 C1459 0.931 . S
O1440 Co1416 2.097 . S
O1440 C1468 1.214 . S
H1441 C1469 0.929 1_554 S
H1442 C1470 0.929 . S
H1443 C1471 0.930 . S
H1444 C1472 0.929 1_554 S
H1445 C1474 0.930 . S
H1446 C1451 0.930 . S
H1447 C1455 0.930 . S
O1448 Co1417 2.037 . S
O1448 C1468 1.234 . S
C1449 O1423 1.269 . S
C1449 O1424 1.257 . S
C1450 H1425 0.930 . S
C1450 C1453 1.388 . S
C1450 C1455 1.418 . S
C1451 H1446 0.930 . S
C1451 C1454 1.404 . S
C1451 C1455 1.353 . S
N1452 Co1417 2.145 . S
N1452 C1453 1.397 . S
N1452 C1454 1.334 . S
C1453 H1434 0.929 . S
C1453 C1450 1.388 . S
C1453 N1452 1.397 . S
C1454 H1435 0.929 . S
C1454 C1451 1.404 . S
C1454 N1452 1.334 . S
C1455 H1447 0.930 . S
C1455 C1450 1.418 . S
C1455 C1451 1.353 . S
C1456 H1426 0.930 . S
C1456 N1457 1.330 . S
C1456 C1458 1.446 . S
N1457 Co1416 2.151 . S
N1457 C1456 1.330 . S
N1457 C1461 1.418 . S
C1458 H1437 0.929 . S
C1458 C1456 1.446 . S
C1458 C1459 1.332 . S
C1459 H1439 0.931 . S
C1459 C1458 1.332 . S
C1459 C1460 1.267 . S
C1460 H1428 0.929 . S
C1460 C1459 1.267 . S
C1460 C1461 1.251 . S
C1461 H1431 0.929 . S
C1461 N1457 1.418 . S
C1461 C1460 1.251 . S
C1462 H1429 0.930 . S
C1462 C1464 1.406 . S
C1462 C1467 1.261 . S
C1463 H1430 0.930 . S
C1463 N1465 1.325 . S
C1463 C1466 1.357 . S
C1464 H1432 0.928 . S
C1464 C1462 1.406 . S
C1464 N1465 1.261 . S
N1465 Co1416 2.214 . S
N1465 C1463 1.325 . S
N1465 C1464 1.261 . S
C1466 H1436 0.931 . S
C1466 C1463 1.357 . S
C1466 C1467 1.312 . S
C1467 H1438 0.930 . S
C1467 C1462 1.261 . S
C1467 C1466 1.312 . S
C1468 O1440 1.214 . S
C1468 O1448 1.234 . S
C1469 H1441 0.929 1_556 S
C1469 C1472 1.391 . S
C1469 C1474 1.391 . S
C1470 H1442 0.929 . S
C1470 C1471 1.390 . S
C1470 N1473 1.391 . S
C1471 H1443 0.930 . S
C1471 C1470 1.390 . S
C1471 C1472 1.392 . S
C1472 H1444 0.929 1_556 S
C1472 C1469 1.391 . S
C1472 C1471 1.392 . S
N1473 Co1417 2.257 . S
N1473 C1470 1.391 . S
N1473 C1474 1.388 . S
C1474 H1445 0.930 . S
C1474 C1469 1.391 . S
C1474 N1473 1.388 . S
Co1475 O1477 2.143 . S
Co1475 O1483 2.074 . S
Co1475 O1486 2.093 . S
Co1475 O1499 2.097 . S
Co1475 N1516 2.151 . S
Co1475 N1524 2.214 . S
Co1476 O1477 2.160 . S
Co1476 O1482 2.058 . S
Co1476 O1492 2.057 . S
Co1476 O1507 2.037 . S
Co1476 N1511 2.145 . S
Co1476 N1532 2.257 . S
O1477 Co1475 2.143 . S
O1477 Co1476 2.160 . S
C1478 O1479 1.278 1_554 S
C1478 O1486 1.224 1_554 S
O1479 C1478 1.278 1_556 S
C1480 O1481 1.245 . S
C1480 O1492 1.232 . S
O1481 C1480 1.245 . S
O1482 Co1476 2.058 . S
O1482 C1508 1.269 . S
O1483 Co1475 2.074 . S
O1483 C1508 1.257 . S
H1484 C1509 0.930 . S
H1485 C1515 0.930 . S
O1486 Co1475 2.093 . S
O1486 C1478 1.224 1_556 S
H1487 C1519 0.929 . S
H1488 C1521 0.930 . S
H1489 C1522 0.930 . S
H1490 C1520 0.929 . S
H1491 C1523 0.928 . S
O1492 Co1476 2.057 . S
O1492 C1480 1.232 . S
H1493 C1512 0.929 . S
H1494 C1513 0.929 . S
H1495 C1525 0.931 . S
H1496 C1517 0.929 . S
H1497 C1526 0.930 . S
H1498 C1518 0.931 . S
O1499 Co1475 2.097 . S
O1499 C1527 1.214 . S
H1500 C1528 0.929 1_554 S
H1501 C1529 0.929 . S
H1502 C1530 0.930 . S
H1503 C1531 0.929 1_554 S
H1504 C1533 0.930 . S
H1505 C1510 0.930 . S
H1506 C1514 0.930 . S
O1507 Co1476 2.037 . S
O1507 C1527 1.234 . S
C1508 O1482 1.269 . S
C1508 O1483 1.257 . S
C1509 H1484 0.930 . S
C1509 C1512 1.388 . S
C1509 C1514 1.418 . S
C1510 H1505 0.930 . S
C1510 C1513 1.404 . S
C1510 C1514 1.353 . S
N1511 Co1476 2.145 . S
N1511 C1512 1.397 . S
N1511 C1513 1.334 . S
C1512 H1493 0.929 . S
C1512 C1509 1.388 . S
C1512 N1511 1.397 . S
C1513 H1494 0.929 . S
C1513 C1510 1.404 . S
C1513 N1511 1.334 . S
C1514 H1506 0.930 . S
C1514 C1509 1.418 . S
C1514 C1510 1.353 . S
C1515 H1485 0.930 . S
C1515 N1516 1.330 . S
C1515 C1517 1.446 . S
N1516 Co1475 2.151 . S
N1516 C1515 1.330 . S
N1516 C1520 1.418 . S
C1517 H1496 0.929 . S
C1517 C1515 1.446 . S
C1517 C1518 1.332 . S
C1518 H1498 0.931 . S
C1518 C1517 1.332 . S
C1518 C1519 1.267 . S
C1519 H1487 0.929 . S
C1519 C1518 1.267 . S
C1519 C1520 1.251 . S
C1520 H1490 0.929 . S
C1520 N1516 1.418 . S
C1520 C1519 1.251 . S
C1521 H1488 0.930 . S
C1521 C1523 1.406 . S
C1521 C1526 1.261 . S
C1522 H1489 0.930 . S
C1522 N1524 1.325 . S
C1522 C1525 1.357 . S
C1523 H1491 0.928 . S
C1523 C1521 1.406 . S
C1523 N1524 1.261 . S
N1524 Co1475 2.214 . S
N1524 C1522 1.325 . S
N1524 C1523 1.261 . S
C1525 H1495 0.931 . S
C1525 C1522 1.357 . S
C1525 C1526 1.312 . S
C1526 H1497 0.930 . S
C1526 C1521 1.261 . S
C1526 C1525 1.312 . S
C1527 O1499 1.214 . S
C1527 O1507 1.234 . S
C1528 H1500 0.929 1_556 S
C1528 C1531 1.391 . S
C1528 C1533 1.391 . S
C1529 H1501 0.929 . S
C1529 C1530 1.390 . S
C1529 N1532 1.391 . S
C1530 H1502 0.930 . S
C1530 C1529 1.390 . S
C1530 C1531 1.392 . S
C1531 H1503 0.929 1_556 S
C1531 C1528 1.391 . S
C1531 C1530 1.392 . S
N1532 Co1476 2.257 . S
N1532 C1529 1.391 . S
N1532 C1533 1.388 . S
C1533 H1504 0.930 . S
C1533 C1528 1.391 . S
C1533 N1532 1.388 . S
Co1534 O1536 2.143 . S
Co1534 O1542 2.074 . S
Co1534 O1545 2.093 . S
Co1534 O1558 2.097 . S
Co1534 N1575 2.151 . S
Co1534 N1583 2.214 . S
Co1535 O1536 2.160 . S
Co1535 O1541 2.058 . S
Co1535 O1551 2.057 . S
Co1535 O1566 2.037 . S
Co1535 N1570 2.145 . S
Co1535 N1591 2.257 . S
O1536 Co1534 2.143 . S
O1536 Co1535 2.160 . S
C1537 O1538 1.278 1_554 S
C1537 O1545 1.224 1_554 S
O1538 C1537 1.278 1_556 S
C1539 O1540 1.245 . S
C1539 O1551 1.232 . S
O1540 C1539 1.245 . S
O1541 Co1535 2.058 . S
O1541 C1567 1.269 . S
O1542 Co1534 2.074 . S
O1542 C1567 1.257 . S
H1543 C1568 0.930 . S
H1544 C1574 0.930 . S
O1545 Co1534 2.093 . S
O1545 C1537 1.224 1_556 S
H1546 C1578 0.929 . S
H1547 C1580 0.930 . S
H1548 C1581 0.930 . S
H1549 C1579 0.929 . S
H1550 C1582 0.928 . S
O1551 Co1535 2.057 . S
O1551 C1539 1.232 . S
H1552 C1571 0.929 . S
H1553 C1572 0.929 . S
H1554 C1584 0.931 . S
H1555 C1576 0.929 . S
H1556 C1585 0.930 . S
H1557 C1577 0.931 . S
O1558 Co1534 2.097 . S
O1558 C1586 1.214 . S
H1559 C1587 0.929 1_554 S
H1560 C1588 0.929 . S
H1561 C1589 0.930 . S
H1562 C1590 0.929 1_554 S
H1563 C1592 0.930 . S
H1564 C1569 0.930 . S
H1565 C1573 0.930 . S
O1566 Co1535 2.037 . S
O1566 C1586 1.234 . S
C1567 O1541 1.269 . S
C1567 O1542 1.257 . S
C1568 H1543 0.930 . S
C1568 C1571 1.388 . S
C1568 C1573 1.418 . S
C1569 H1564 0.930 . S
C1569 C1572 1.404 . S
C1569 C1573 1.353 . S
N1570 Co1535 2.145 . S
N1570 C1571 1.397 . S
N1570 C1572 1.334 . S
C1571 H1552 0.929 . S
C1571 C1568 1.388 . S
C1571 N1570 1.397 . S
C1572 H1553 0.929 . S
C1572 C1569 1.404 . S
C1572 N1570 1.334 . S
C1573 H1565 0.930 . S
C1573 C1568 1.418 . S
C1573 C1569 1.353 . S
C1574 H1544 0.930 . S
C1574 N1575 1.330 . S
C1574 C1576 1.446 . S
N1575 Co1534 2.151 . S
N1575 C1574 1.330 . S
N1575 C1579 1.418 . S
C1576 H1555 0.929 . S
C1576 C1574 1.446 . S
C1576 C1577 1.332 . S
C1577 H1557 0.931 . S
C1577 C1576 1.332 . S
C1577 C1578 1.267 . S
C1578 H1546 0.929 . S
C1578 C1577 1.267 . S
C1578 C1579 1.251 . S
C1579 H1549 0.929 . S
C1579 N1575 1.418 . S
C1579 C1578 1.251 . S
C1580 H1547 0.930 . S
C1580 C1582 1.406 . S
C1580 C1585 1.261 . S
C1581 H1548 0.930 . S
C1581 N1583 1.325 . S
C1581 C1584 1.357 . S
C1582 H1550 0.928 . S
C1582 C1580 1.406 . S
C1582 N1583 1.261 . S
N1583 Co1534 2.214 . S
N1583 C1581 1.325 . S
N1583 C1582 1.261 . S
C1584 H1554 0.931 . S
C1584 C1581 1.357 . S
C1584 C1585 1.312 . S
C1585 H1556 0.930 . S
C1585 C1580 1.261 . S
C1585 C1584 1.312 . S
C1586 O1558 1.214 . S
C1586 O1566 1.234 . S
C1587 H1559 0.929 1_556 S
C1587 C1590 1.391 . S
C1587 C1592 1.391 . S
C1588 H1560 0.929 . S
C1588 C1589 1.390 . S
C1588 N1591 1.391 . S
C1589 H1561 0.930 . S
C1589 C1588 1.390 . S
C1589 C1590 1.392 . S
C1590 H1562 0.929 1_556 S
C1590 C1587 1.391 . S
C1590 C1589 1.392 . S
N1591 Co1535 2.257 . S
N1591 C1588 1.391 . S
N1591 C1592 1.388 . S
C1592 H1563 0.930 . S
C1592 C1587 1.391 . S
C1592 N1591 1.388 . S
Co1593 O1595 2.143 . S
Co1593 O1601 2.074 . S
Co1593 O1604 2.093 . S
Co1593 O1617 2.097 . S
Co1593 N1634 2.151 . S
Co1593 N1642 2.214 . S
Co1594 O1595 2.160 . S
Co1594 O1600 2.058 1_556 S
Co1594 O1610 2.057 . S
Co1594 O1625 2.037 . S
Co1594 N1629 2.145 1_556 S
Co1594 N1650 2.257 . S
O1595 Co1593 2.143 . S
O1595 Co1594 2.160 . S
C1596 O1597 1.278 . S
C1596 O1604 1.224 . S
O1597 C1596 1.278 . S
C1598 O1599 1.245 . S
C1598 O1610 1.232 . S
O1599 C1598 1.245 . S
O1600 Co1594 2.058 1_554 S
O1600 C1626 1.269 . S
O1601 Co1593 2.074 . S
O1601 C1626 1.257 1_556 S
H1602 C1627 0.930 . S
H1603 C1633 0.930 . S
O1604 Co1593 2.093 . S
O1604 C1596 1.224 . S
H1605 C1637 0.929 . S
H1606 C1639 0.930 . S
H1607 C1640 0.930 . S
H1608 C1638 0.929 . S
H1609 C1641 0.928 . S
O1610 Co1594 2.057 . S
O1610 C1598 1.232 . S
H1611 C1630 0.929 . S
H1612 C1631 0.929 1_556 S
H1613 C1643 0.931 1_554 S
H1614 C1635 0.929 . S
H1615 C1644 0.930 . S
H1616 C1636 0.931 . S
O1617 Co1593 2.097 . S
O1617 C1645 1.214 . S
H1618 C1646 0.929 . S
H1619 C1647 0.929 . S
H1620 C1648 0.930 . S
H1621 C1649 0.929 . S
H1622 C1651 0.930 . S
H1623 C1628 0.930 . S
H1624 C1632 0.930 . S
O1625 Co1594 2.037 . S
O1625 C1645 1.234 . S
C1626 O1600 1.269 . S
C1626 O1601 1.257 1_554 S
C1627 H1602 0.930 . S
C1627 C1630 1.388 . S
C1627 C1632 1.418 . S
C1628 H1623 0.930 . S
C1628 C1631 1.404 . S
C1628 C1632 1.353 . S
N1629 Co1594 2.145 1_554 S
N1629 C1630 1.397 . S
N1629 C1631 1.334 . S
C1630 H1611 0.929 . S
C1630 C1627 1.388 . S
C1630 N1629 1.397 . S
C1631 H1612 0.929 1_554 S
C1631 C1628 1.404 . S
C1631 N1629 1.334 . S
C1632 H1624 0.930 . S
C1632 C1627 1.418 . S
C1632 C1628 1.353 . S
C1633 H1603 0.930 . S
C1633 N1634 1.330 . S
C1633 C1635 1.446 . S
N1634 Co1593 2.151 . S
N1634 C1633 1.330 . S
N1634 C1638 1.418 . S
C1635 H1614 0.929 . S
C1635 C1633 1.446 . S
C1635 C1636 1.332 . S
C1636 H1616 0.931 . S
C1636 C1635 1.332 . S
C1636 C1637 1.267 . S
C1637 H1605 0.929 . S
C1637 C1636 1.267 . S
C1637 C1638 1.251 . S
C1638 H1608 0.929 . S
C1638 N1634 1.418 . S
C1638 C1637 1.251 . S
C1639 H1606 0.930 . S
C1639 C1641 1.406 . S
C1639 C1644 1.261 . S
C1640 H1607 0.930 . S
C1640 N1642 1.325 . S
C1640 C1643 1.357 . S
C1641 H1609 0.928 . S
C1641 C1639 1.406 . S
C1641 N1642 1.261 . S
N1642 Co1593 2.214 . S
N1642 C1640 1.325 . S
N1642 C1641 1.261 . S
C1643 H1613 0.931 1_556 S
C1643 C1640 1.357 . S
C1643 C1644 1.312 . S
C1644 H1615 0.930 . S
C1644 C1639 1.261 . S
C1644 C1643 1.312 . S
C1645 O1617 1.214 . S
C1645 O1625 1.234 . S
C1646 H1618 0.929 . S
C1646 C1649 1.391 . S
C1646 C1651 1.391 . S
C1647 H1619 0.929 . S
C1647 C1648 1.390 . S
C1647 N1650 1.391 . S
C1648 H1620 0.930 . S
C1648 C1647 1.390 . S
C1648 C1649 1.392 . S
C1649 H1621 0.929 . S
C1649 C1646 1.391 . S
C1649 C1648 1.392 . S
N1650 Co1594 2.257 . S
N1650 C1647 1.391 . S
N1650 C1651 1.388 . S
C1651 H1622 0.930 . S
C1651 C1646 1.391 . S
C1651 N1650 1.388 . S
Co1652 O1654 2.143 . S
Co1652 O1660 2.074 . S
Co1652 O1663 2.093 . S
Co1652 O1676 2.097 . S
Co1652 N1693 2.151 . S
Co1652 N1701 2.214 . S
Co1653 O1654 2.160 . S
Co1653 O1659 2.058 1_556 S
Co1653 O1669 2.057 . S
Co1653 O1684 2.037 . S
Co1653 N1688 2.145 1_556 S
Co1653 N1709 2.257 . S
O1654 Co1652 2.143 . S
O1654 Co1653 2.160 . S
C1655 O1656 1.278 . S
C1655 O1663 1.224 . S
O1656 C1655 1.278 . S
C1657 O1658 1.245 . S
C1657 O1669 1.232 . S
O1658 C1657 1.245 . S
O1659 Co1653 2.058 1_554 S
O1659 C1685 1.269 . S
O1660 Co1652 2.074 . S
O1660 C1685 1.257 1_556 S
H1661 C1686 0.930 . S
H1662 C1692 0.930 . S
O1663 Co1652 2.093 . S
O1663 C1655 1.224 . S
H1664 C1696 0.929 . S
H1665 C1698 0.930 . S
H1666 C1699 0.930 . S
H1667 C1697 0.929 . S
H1668 C1700 0.928 . S
O1669 Co1653 2.057 . S
O1669 C1657 1.232 . S
H1670 C1689 0.929 . S
H1671 C1690 0.929 1_556 S
H1672 C1702 0.931 1_554 S
H1673 C1694 0.929 . S
H1674 C1703 0.930 . S
H1675 C1695 0.931 . S
O1676 Co1652 2.097 . S
O1676 C1704 1.214 . S
H1677 C1705 0.929 . S
H1678 C1706 0.929 . S
H1679 C1707 0.930 . S
H1680 C1708 0.929 . S
H1681 C1710 0.930 . S
H1682 C1687 0.930 . S
H1683 C1691 0.930 . S
O1684 Co1653 2.037 . S
O1684 C1704 1.234 . S
C1685 O1659 1.269 . S
C1685 O1660 1.257 1_554 S
C1686 H1661 0.930 . S
C1686 C1689 1.388 . S
C1686 C1691 1.418 . S
C1687 H1682 0.930 . S
C1687 C1690 1.404 . S
C1687 C1691 1.353 . S
N1688 Co1653 2.145 1_554 S
N1688 C1689 1.397 . S
N1688 C1690 1.334 . S
C1689 H1670 0.929 . S
C1689 C1686 1.388 . S
C1689 N1688 1.397 . S
C1690 H1671 0.929 1_554 S
C1690 C1687 1.404 . S
C1690 N1688 1.334 . S
C1691 H1683 0.930 . S
C1691 C1686 1.418 . S
C1691 C1687 1.353 . S
C1692 H1662 0.930 . S
C1692 N1693 1.330 . S
C1692 C1694 1.446 . S
N1693 Co1652 2.151 . S
N1693 C1692 1.330 . S
N1693 C1697 1.418 . S
C1694 H1673 0.929 . S
C1694 C1692 1.446 . S
C1694 C1695 1.332 . S
C1695 H1675 0.931 . S
C1695 C1694 1.332 . S
C1695 C1696 1.267 . S
C1696 H1664 0.929 . S
C1696 C1695 1.267 . S
C1696 C1697 1.251 . S
C1697 H1667 0.929 . S
C1697 N1693 1.418 . S
C1697 C1696 1.251 . S
C1698 H1665 0.930 . S
C1698 C1700 1.406 . S
C1698 C1703 1.261 . S
C1699 H1666 0.930 . S
C1699 N1701 1.325 . S
C1699 C1702 1.357 . S
C1700 H1668 0.928 . S
C1700 C1698 1.406 . S
C1700 N1701 1.261 . S
N1701 Co1652 2.214 . S
N1701 C1699 1.325 . S
N1701 C1700 1.261 . S
C1702 H1672 0.931 1_556 S
C1702 C1699 1.357 . S
C1702 C1703 1.312 . S
C1703 H1674 0.930 . S
C1703 C1698 1.261 . S
C1703 C1702 1.312 . S
C1704 O1676 1.214 . S
C1704 O1684 1.234 . S
C1705 H1677 0.929 . S
C1705 C1708 1.391 . S
C1705 C1710 1.391 . S
C1706 H1678 0.929 . S
C1706 C1707 1.390 . S
C1706 N1709 1.391 . S
C1707 H1679 0.930 . S
C1707 C1706 1.390 . S
C1707 C1708 1.392 . S
C1708 H1680 0.929 . S
C1708 C1705 1.391 . S
C1708 C1707 1.392 . S
N1709 Co1653 2.257 . S
N1709 C1706 1.391 . S
N1709 C1710 1.388 . S
C1710 H1681 0.930 . S
C1710 C1705 1.391 . S
C1710 N1709 1.388 . S
Co1711 O1713 2.143 . S
Co1711 O1719 2.074 . S
Co1711 O1722 2.093 . S
Co1711 O1735 2.097 . S
Co1711 N1752 2.151 . S
Co1711 N1760 2.214 . S
Co1712 O1713 2.160 . S
Co1712 O1718 2.058 1_556 S
Co1712 O1728 2.057 . S
Co1712 O1743 2.037 . S
Co1712 N1747 2.145 1_556 S
Co1712 N1768 2.257 . S
O1713 Co1711 2.143 . S
O1713 Co1712 2.160 . S
C1714 O1715 1.278 . S
C1714 O1722 1.224 . S
O1715 C1714 1.278 . S
C1716 O1717 1.245 . S
C1716 O1728 1.232 . S
O1717 C1716 1.245 . S
O1718 Co1712 2.058 1_554 S
O1718 C1744 1.269 . S
O1719 Co1711 2.074 . S
O1719 C1744 1.257 1_556 S
H1720 C1745 0.930 . S
H1721 C1751 0.930 . S
O1722 Co1711 2.093 . S
O1722 C1714 1.224 . S
H1723 C1755 0.929 . S
H1724 C1757 0.930 . S
H1725 C1758 0.930 . S
H1726 C1756 0.929 . S
H1727 C1759 0.928 . S
O1728 Co1712 2.057 . S
O1728 C1716 1.232 . S
H1729 C1748 0.929 . S
H1730 C1749 0.929 1_556 S
H1731 C1761 0.931 1_554 S
H1732 C1753 0.929 . S
H1733 C1762 0.930 . S
H1734 C1754 0.931 . S
O1735 Co1711 2.097 . S
O1735 C1763 1.214 . S
H1736 C1764 0.929 . S
H1737 C1765 0.929 . S
H1738 C1766 0.930 . S
H1739 C1767 0.929 . S
H1740 C1769 0.930 . S
H1741 C1746 0.930 . S
H1742 C1750 0.930 . S
O1743 Co1712 2.037 . S
O1743 C1763 1.234 . S
C1744 O1718 1.269 . S
C1744 O1719 1.257 1_554 S
C1745 H1720 0.930 . S
C1745 C1748 1.388 . S
C1745 C1750 1.418 . S
C1746 H1741 0.930 . S
C1746 C1749 1.404 . S
C1746 C1750 1.353 . S
N1747 Co1712 2.145 1_554 S
N1747 C1748 1.397 . S
N1747 C1749 1.334 . S
C1748 H1729 0.929 . S
C1748 C1745 1.388 . S
C1748 N1747 1.397 . S
C1749 H1730 0.929 1_554 S
C1749 C1746 1.404 . S
C1749 N1747 1.334 . S
C1750 H1742 0.930 . S
C1750 C1745 1.418 . S
C1750 C1746 1.353 . S
C1751 H1721 0.930 . S
C1751 N1752 1.330 . S
C1751 C1753 1.446 . S
N1752 Co1711 2.151 . S
N1752 C1751 1.330 . S
N1752 C1756 1.418 . S
C1753 H1732 0.929 . S
C1753 C1751 1.446 . S
C1753 C1754 1.332 . S
C1754 H1734 0.931 . S
C1754 C1753 1.332 . S
C1754 C1755 1.267 . S
C1755 H1723 0.929 . S
C1755 C1754 1.267 . S
C1755 C1756 1.251 . S
C1756 H1726 0.929 . S
C1756 N1752 1.418 . S
C1756 C1755 1.251 . S
C1757 H1724 0.930 . S
C1757 C1759 1.406 . S
C1757 C1762 1.261 . S
C1758 H1725 0.930 . S
C1758 N1760 1.325 . S
C1758 C1761 1.357 . S
C1759 H1727 0.928 . S
C1759 C1757 1.406 . S
C1759 N1760 1.261 . S
N1760 Co1711 2.214 . S
N1760 C1758 1.325 . S
N1760 C1759 1.261 . S
C1761 H1731 0.931 1_556 S
C1761 C1758 1.357 . S
C1761 C1762 1.312 . S
C1762 H1733 0.930 . S
C1762 C1757 1.261 . S
C1762 C1761 1.312 . S
C1763 O1735 1.214 . S
C1763 O1743 1.234 . S
C1764 H1736 0.929 . S
C1764 C1767 1.391 . S
C1764 C1769 1.391 . S
C1765 H1737 0.929 . S
C1765 C1766 1.390 . S
C1765 N1768 1.391 . S
C1766 H1738 0.930 . S
C1766 C1765 1.390 . S
C1766 C1767 1.392 . S
C1767 H1739 0.929 . S
C1767 C1764 1.391 . S
C1767 C1766 1.392 . S
N1768 Co1712 2.257 . S
N1768 C1765 1.391 . S
N1768 C1769 1.388 . S
C1769 H1740 0.930 . S
C1769 C1764 1.391 . S
C1769 N1768 1.388 . S
Co1770 O1772 2.143 . S
Co1770 O1778 2.074 . S
Co1770 O1781 2.093 . S
Co1770 O1794 2.097 . S
Co1770 N1811 2.151 . S
Co1770 N1819 2.214 . S
Co1771 O1772 2.160 . S
Co1771 O1777 2.058 . S
Co1771 O1787 2.057 . S
Co1771 O1802 2.037 . S
Co1771 N1806 2.145 . S
Co1771 N1827 2.257 . S
O1772 Co1770 2.143 . S
O1772 Co1771 2.160 . S
C1773 O1774 1.278 . S
C1773 O1781 1.224 . S
O1774 C1773 1.278 . S
C1775 O1776 1.245 . S
C1775 O1787 1.232 . S
O1776 C1775 1.245 . S
O1777 Co1771 2.058 . S
O1777 C1803 1.269 . S
O1778 Co1770 2.074 . S
O1778 C1803 1.257 . S
H1779 C1804 0.930 . S
H1780 C1810 0.930 . S
O1781 Co1770 2.093 . S
O1781 C1773 1.224 . S
H1782 C1814 0.929 . S
H1783 C1816 0.930 . S
H1784 C1817 0.930 . S
H1785 C1815 0.929 . S
H1786 C1818 0.928 . S
O1787 Co1771 2.057 . S
O1787 C1775 1.232 . S
H1788 C1807 0.929 . S
H1789 C1808 0.929 . S
H1790 C1820 0.931 . S
H1791 C1812 0.929 . S
H1792 C1821 0.930 . S
H1793 C1813 0.931 . S
O1794 Co1770 2.097 . S
O1794 C1822 1.214 . S
H1795 C1823 0.929 . S
H1796 C1824 0.929 . S
H1797 C1825 0.930 . S
H1798 C1826 0.929 . S
H1799 C1828 0.930 . S
H1800 C1805 0.930 . S
H1801 C1809 0.930 . S
O1802 Co1771 2.037 . S
O1802 C1822 1.234 . S
C1803 O1777 1.269 . S
C1803 O1778 1.257 . S
C1804 H1779 0.930 . S
C1804 C1807 1.388 . S
C1804 C1809 1.418 . S
C1805 H1800 0.930 . S
C1805 C1808 1.404 . S
C1805 C1809 1.353 . S
N1806 Co1771 2.145 . S
N1806 C1807 1.397 . S
N1806 C1808 1.334 . S
C1807 H1788 0.929 . S
C1807 C1804 1.388 . S
C1807 N1806 1.397 . S
C1808 H1789 0.929 . S
C1808 C1805 1.404 . S
C1808 N1806 1.334 . S
C1809 H1801 0.930 . S
C1809 C1804 1.418 . S
C1809 C1805 1.353 . S
C1810 H1780 0.930 . S
C1810 N1811 1.330 . S
C1810 C1812 1.446 . S
N1811 Co1770 2.151 . S
N1811 C1810 1.330 . S
N1811 C1815 1.418 . S
C1812 H1791 0.929 . S
C1812 C1810 1.446 . S
C1812 C1813 1.332 . S
C1813 H1793 0.931 . S
C1813 C1812 1.332 . S
C1813 C1814 1.267 . S
C1814 H1782 0.929 . S
C1814 C1813 1.267 . S
C1814 C1815 1.251 . S
C1815 H1785 0.929 . S
C1815 N1811 1.418 . S
C1815 C1814 1.251 . S
C1816 H1783 0.930 . S
C1816 C1818 1.406 . S
C1816 C1821 1.261 . S
C1817 H1784 0.930 . S
C1817 N1819 1.325 . S
C1817 C1820 1.357 . S
C1818 H1786 0.928 . S
C1818 C1816 1.406 . S
C1818 N1819 1.261 . S
N1819 Co1770 2.214 . S
N1819 C1817 1.325 . S
N1819 C1818 1.261 . S
C1820 H1790 0.931 . S
C1820 C1817 1.357 . S
C1820 C1821 1.312 . S
C1821 H1792 0.930 . S
C1821 C1816 1.261 . S
C1821 C1820 1.312 . S
C1822 O1794 1.214 . S
C1822 O1802 1.234 . S
C1823 H1795 0.929 . S
C1823 C1826 1.391 . S
C1823 C1828 1.391 . S
C1824 H1796 0.929 . S
C1824 C1825 1.390 . S
C1824 N1827 1.391 . S
C1825 H1797 0.930 . S
C1825 C1824 1.390 . S
C1825 C1826 1.392 . S
C1826 H1798 0.929 . S
C1826 C1823 1.391 . S
C1826 C1825 1.392 . S
N1827 Co1771 2.257 . S
N1827 C1824 1.391 . S
N1827 C1828 1.388 . S
C1828 H1799 0.930 . S
C1828 C1823 1.391 . S
C1828 N1827 1.388 . S
Co1829 O1831 2.143 . S
Co1829 O1837 2.074 . S
Co1829 O1840 2.093 . S
Co1829 O1853 2.097 . S
Co1829 N1870 2.151 . S
Co1829 N1878 2.214 . S
Co1830 O1831 2.160 . S
Co1830 O1836 2.058 . S
Co1830 O1846 2.057 . S
Co1830 O1861 2.037 . S
Co1830 N1865 2.145 . S
Co1830 N1886 2.257 . S
O1831 Co1829 2.143 . S
O1831 Co1830 2.160 . S
C1832 O1833 1.278 . S
C1832 O1840 1.224 . S
O1833 C1832 1.278 . S
C1834 O1835 1.245 . S
C1834 O1846 1.232 . S
O1835 C1834 1.245 . S
O1836 Co1830 2.058 . S
O1836 C1862 1.269 . S
O1837 Co1829 2.074 . S
O1837 C1862 1.257 . S
H1838 C1863 0.930 . S
H1839 C1869 0.930 . S
O1840 Co1829 2.093 . S
O1840 C1832 1.224 . S
H1841 C1873 0.929 . S
H1842 C1875 0.930 . S
H1843 C1876 0.930 . S
H1844 C1874 0.929 . S
H1845 C1877 0.928 . S
O1846 Co1830 2.057 . S
O1846 C1834 1.232 . S
H1847 C1866 0.929 . S
H1848 C1867 0.929 . S
H1849 C1879 0.931 . S
H1850 C1871 0.929 . S
H1851 C1880 0.930 . S
H1852 C1872 0.931 . S
O1853 Co1829 2.097 . S
O1853 C1881 1.214 . S
H1854 C1882 0.929 . S
H1855 C1883 0.929 . S
H1856 C1884 0.930 . S
H1857 C1885 0.929 . S
H1858 C1887 0.930 . S
H1859 C1864 0.930 . S
H1860 C1868 0.930 . S
O1861 Co1830 2.037 . S
O1861 C1881 1.234 . S
C1862 O1836 1.269 . S
C1862 O1837 1.257 . S
C1863 H1838 0.930 . S
C1863 C1866 1.388 . S
C1863 C1868 1.418 . S
C1864 H1859 0.930 . S
C1864 C1867 1.404 . S
C1864 C1868 1.353 . S
N1865 Co1830 2.145 . S
N1865 C1866 1.397 . S
N1865 C1867 1.334 . S
C1866 H1847 0.929 . S
C1866 C1863 1.388 . S
C1866 N1865 1.397 . S
C1867 H1848 0.929 . S
C1867 C1864 1.404 . S
C1867 N1865 1.334 . S
C1868 H1860 0.930 . S
C1868 C1863 1.418 . S
C1868 C1864 1.353 . S
C1869 H1839 0.930 . S
C1869 N1870 1.330 . S
C1869 C1871 1.446 . S
N1870 Co1829 2.151 . S
N1870 C1869 1.330 . S
N1870 C1874 1.418 . S
C1871 H1850 0.929 . S
C1871 C1869 1.446 . S
C1871 C1872 1.332 . S
C1872 H1852 0.931 . S
C1872 C1871 1.332 . S
C1872 C1873 1.267 . S
C1873 H1841 0.929 . S
C1873 C1872 1.267 . S
C1873 C1874 1.251 . S
C1874 H1844 0.929 . S
C1874 N1870 1.418 . S
C1874 C1873 1.251 . S
C1875 H1842 0.930 . S
C1875 C1877 1.406 . S
C1875 C1880 1.261 . S
C1876 H1843 0.930 . S
C1876 N1878 1.325 . S
C1876 C1879 1.357 . S
C1877 H1845 0.928 . S
C1877 C1875 1.406 . S
C1877 N1878 1.261 . S
N1878 Co1829 2.214 . S
N1878 C1876 1.325 . S
N1878 C1877 1.261 . S
C1879 H1849 0.931 . S
C1879 C1876 1.357 . S
C1879 C1880 1.312 . S
C1880 H1851 0.930 . S
C1880 C1875 1.261 . S
C1880 C1879 1.312 . S
C1881 O1853 1.214 . S
C1881 O1861 1.234 . S
C1882 H1854 0.929 . S
C1882 C1885 1.391 . S
C1882 C1887 1.391 . S
C1883 H1855 0.929 . S
C1883 C1884 1.390 . S
C1883 N1886 1.391 . S
C1884 H1856 0.930 . S
C1884 C1883 1.390 . S
C1884 C1885 1.392 . S
C1885 H1857 0.929 . S
C1885 C1882 1.391 . S
C1885 C1884 1.392 . S
N1886 Co1830 2.257 . S
N1886 C1883 1.391 . S
N1886 C1887 1.388 . S
C1887 H1858 0.930 . S
C1887 C1882 1.391 . S
C1887 N1886 1.388 . S
Co1888 O1890 2.143 . S
Co1888 O1896 2.074 . S
Co1888 O1899 2.093 . S
Co1888 O1912 2.097 . S
Co1888 N1929 2.151 . S
Co1888 N1937 2.214 . S
Co1889 O1890 2.160 . S
Co1889 O1895 2.058 . S
Co1889 O1905 2.057 . S
Co1889 O1920 2.037 . S
Co1889 N1924 2.145 . S
Co1889 N1945 2.257 . S
O1890 Co1888 2.143 . S
O1890 Co1889 2.160 . S
C1891 O1892 1.278 . S
C1891 O1899 1.224 . S
O1892 C1891 1.278 . S
C1893 O1894 1.245 . S
C1893 O1905 1.232 . S
O1894 C1893 1.245 . S
O1895 Co1889 2.058 . S
O1895 C1921 1.269 . S
O1896 Co1888 2.074 . S
O1896 C1921 1.257 . S
H1897 C1922 0.930 . S
H1898 C1928 0.930 . S
O1899 Co1888 2.093 . S
O1899 C1891 1.224 . S
H1900 C1932 0.929 . S
H1901 C1934 0.930 . S
H1902 C1935 0.930 . S
H1903 C1933 0.929 . S
H1904 C1936 0.928 . S
O1905 Co1889 2.057 . S
O1905 C1893 1.232 . S
H1906 C1925 0.929 . S
H1907 C1926 0.929 . S
H1908 C1938 0.931 . S
H1909 C1930 0.929 . S
H1910 C1939 0.930 . S
H1911 C1931 0.931 . S
O1912 Co1888 2.097 . S
O1912 C1940 1.214 . S
H1913 C1941 0.929 . S
H1914 C1942 0.929 . S
H1915 C1943 0.930 . S
H1916 C1944 0.929 . S
H1917 C1946 0.930 . S
H1918 C1923 0.930 . S
H1919 C1927 0.930 . S
O1920 Co1889 2.037 . S
O1920 C1940 1.234 . S
C1921 O1895 1.269 . S
C1921 O1896 1.257 . S
C1922 H1897 0.930 . S
C1922 C1925 1.388 . S
C1922 C1927 1.418 . S
C1923 H1918 0.930 . S
C1923 C1926 1.404 . S
C1923 C1927 1.353 . S
N1924 Co1889 2.145 . S
N1924 C1925 1.397 . S
N1924 C1926 1.334 . S
C1925 H1906 0.929 . S
C1925 C1922 1.388 . S
C1925 N1924 1.397 . S
C1926 H1907 0.929 . S
C1926 C1923 1.404 . S
C1926 N1924 1.334 . S
C1927 H1919 0.930 . S
C1927 C1922 1.418 . S
C1927 C1923 1.353 . S
C1928 H1898 0.930 . S
C1928 N1929 1.330 . S
C1928 C1930 1.446 . S
N1929 Co1888 2.151 . S
N1929 C1928 1.330 . S
N1929 C1933 1.418 . S
C1930 H1909 0.929 . S
C1930 C1928 1.446 . S
C1930 C1931 1.332 . S
C1931 H1911 0.931 . S
C1931 C1930 1.332 . S
C1931 C1932 1.267 . S
C1932 H1900 0.929 . S
C1932 C1931 1.267 . S
C1932 C1933 1.251 . S
C1933 H1903 0.929 . S
C1933 N1929 1.418 . S
C1933 C1932 1.251 . S
C1934 H1901 0.930 . S
C1934 C1936 1.406 . S
C1934 C1939 1.261 . S
C1935 H1902 0.930 . S
C1935 N1937 1.325 . S
C1935 C1938 1.357 . S
C1936 H1904 0.928 . S
C1936 C1934 1.406 . S
C1936 N1937 1.261 . S
N1937 Co1888 2.214 . S
N1937 C1935 1.325 . S
N1937 C1936 1.261 . S
C1938 H1908 0.931 . S
C1938 C1935 1.357 . S
C1938 C1939 1.312 . S
C1939 H1910 0.930 . S
C1939 C1934 1.261 . S
C1939 C1938 1.312 . S
C1940 O1912 1.214 . S
C1940 O1920 1.234 . S
C1941 H1913 0.929 . S
C1941 C1944 1.391 . S
C1941 C1946 1.391 . S
C1942 H1914 0.929 . S
C1942 C1943 1.390 . S
C1942 N1945 1.391 . S
C1943 H1915 0.930 . S
C1943 C1942 1.390 . S
C1943 C1944 1.392 . S
C1944 H1916 0.929 . S
C1944 C1941 1.391 . S
C1944 C1943 1.392 . S
N1945 Co1889 2.257 . S
N1945 C1942 1.391 . S
N1945 C1946 1.388 . S
C1946 H1917 0.930 . S
C1946 C1941 1.391 . S
C1946 N1945 1.388 . S
Co1947 O1949 2.143 . S
Co1947 O1955 2.074 . S
Co1947 O1958 2.093 . S
Co1947 O1971 2.097 . S
Co1947 N1988 2.151 . S
Co1947 N1996 2.214 . S
Co1948 O1949 2.160 . S
Co1948 O1954 2.058 . S
Co1948 O1964 2.057 . S
Co1948 O1979 2.037 . S
Co1948 N1983 2.145 . S
Co1948 N2004 2.257 . S
O1949 Co1947 2.143 . S
O1949 Co1948 2.160 . S
C1950 O1951 1.278 . S
C1950 O1958 1.224 . S
O1951 C1950 1.278 . S
C1952 O1953 1.245 . S
C1952 O1964 1.232 . S
O1953 C1952 1.245 . S
O1954 Co1948 2.058 . S
O1954 C1980 1.269 . S
O1955 Co1947 2.074 . S
O1955 C1980 1.257 . S
H1956 C1981 0.930 . S
H1957 C1987 0.930 . S
O1958 Co1947 2.093 . S
O1958 C1950 1.224 . S
H1959 C1991 0.929 . S
H1960 C1993 0.930 . S
H1961 C1994 0.930 . S
H1962 C1992 0.929 . S
H1963 C1995 0.928 . S
O1964 Co1948 2.057 . S
O1964 C1952 1.232 . S
H1965 C1984 0.929 . S
H1966 C1985 0.929 . S
H1967 C1997 0.931 . S
H1968 C1989 0.929 . S
H1969 C1998 0.930 . S
H1970 C1990 0.931 . S
O1971 Co1947 2.097 . S
O1971 C1999 1.214 . S
H1972 C2000 0.929 . S
H1973 C2001 0.929 . S
H1974 C2002 0.930 . S
H1975 C2003 0.929 . S
H1976 C2005 0.930 . S
H1977 C1982 0.930 . S
H1978 C1986 0.930 . S
O1979 Co1948 2.037 . S
O1979 C1999 1.234 . S
C1980 O1954 1.269 . S
C1980 O1955 1.257 . S
C1981 H1956 0.930 . S
C1981 C1984 1.388 . S
C1981 C1986 1.418 . S
C1982 H1977 0.930 . S
C1982 C1985 1.404 . S
C1982 C1986 1.353 . S
N1983 Co1948 2.145 . S
N1983 C1984 1.397 . S
N1983 C1985 1.334 . S
C1984 H1965 0.929 . S
C1984 C1981 1.388 . S
C1984 N1983 1.397 . S
C1985 H1966 0.929 . S
C1985 C1982 1.404 . S
C1985 N1983 1.334 . S
C1986 H1978 0.930 . S
C1986 C1981 1.418 . S
C1986 C1982 1.353 . S
C1987 H1957 0.930 . S
C1987 N1988 1.330 . S
C1987 C1989 1.446 . S
N1988 Co1947 2.151 . S
N1988 C1987 1.330 . S
N1988 C1992 1.418 . S
C1989 H1968 0.929 . S
C1989 C1987 1.446 . S
C1989 C1990 1.332 . S
C1990 H1970 0.931 . S
C1990 C1989 1.332 . S
C1990 C1991 1.267 . S
C1991 H1959 0.929 . S
C1991 C1990 1.267 . S
C1991 C1992 1.251 . S
C1992 H1962 0.929 . S
C1992 N1988 1.418 . S
C1992 C1991 1.251 . S
C1993 H1960 0.930 . S
C1993 C1995 1.406 . S
C1993 C1998 1.261 . S
C1994 H1961 0.930 . S
C1994 N1996 1.325 . S
C1994 C1997 1.357 . S
C1995 H1963 0.928 . S
C1995 C1993 1.406 . S
C1995 N1996 1.261 . S
N1996 Co1947 2.214 . S
N1996 C1994 1.325 . S
N1996 C1995 1.261 . S
C1997 H1967 0.931 . S
C1997 C1994 1.357 . S
C1997 C1998 1.312 . S
C1998 H1969 0.930 . S
C1998 C1993 1.261 . S
C1998 C1997 1.312 . S
C1999 O1971 1.214 . S
C1999 O1979 1.234 . S
C2000 H1972 0.929 . S
C2000 C2003 1.391 . S
C2000 C2005 1.391 . S
C2001 H1973 0.929 . S
C2001 C2002 1.390 . S
C2001 N2004 1.391 . S
C2002 H1974 0.930 . S
C2002 C2001 1.390 . S
C2002 C2003 1.392 . S
C2003 H1975 0.929 . S
C2003 C2000 1.391 . S
C2003 C2002 1.392 . S
N2004 Co1948 2.257 . S
N2004 C2001 1.391 . S
N2004 C2005 1.388 . S
C2005 H1976 0.930 . S
C2005 C2000 1.391 . S
C2005 N2004 1.388 . S
Co2006 O2008 2.143 . S
Co2006 O2014 2.074 . S
Co2006 O2017 2.093 . S
Co2006 O2030 2.097 . S
Co2006 N2047 2.151 . S
Co2006 N2055 2.214 . S
Co2007 O2008 2.160 . S
Co2007 O2013 2.058 . S
Co2007 O2023 2.057 . S
Co2007 O2038 2.037 . S
Co2007 N2042 2.145 . S
Co2007 N2063 2.257 . S
O2008 Co2006 2.143 . S
O2008 Co2007 2.160 . S
C2009 O2010 1.278 . S
C2009 O2017 1.224 . S
O2010 C2009 1.278 . S
C2011 O2012 1.245 . S
C2011 O2023 1.232 . S
O2012 C2011 1.245 . S
O2013 Co2007 2.058 . S
O2013 C2039 1.269 . S
O2014 Co2006 2.074 . S
O2014 C2039 1.257 . S
H2015 C2040 0.930 . S
H2016 C2046 0.930 . S
O2017 Co2006 2.093 . S
O2017 C2009 1.224 . S
H2018 C2050 0.929 . S
H2019 C2052 0.930 . S
H2020 C2053 0.930 . S
H2021 C2051 0.929 . S
H2022 C2054 0.928 . S
O2023 Co2007 2.057 . S
O2023 C2011 1.232 . S
H2024 C2043 0.929 . S
H2025 C2044 0.929 . S
H2026 C2056 0.931 . S
H2027 C2048 0.929 . S
H2028 C2057 0.930 . S
H2029 C2049 0.931 . S
O2030 Co2006 2.097 . S
O2030 C2058 1.214 . S
H2031 C2059 0.929 . S
H2032 C2060 0.929 . S
H2033 C2061 0.930 . S
H2034 C2062 0.929 . S
H2035 C2064 0.930 . S
H2036 C2041 0.930 . S
H2037 C2045 0.930 . S
O2038 Co2007 2.037 . S
O2038 C2058 1.234 . S
C2039 O2013 1.269 . S
C2039 O2014 1.257 . S
C2040 H2015 0.930 . S
C2040 C2043 1.388 . S
C2040 C2045 1.418 . S
C2041 H2036 0.930 . S
C2041 C2044 1.404 . S
C2041 C2045 1.353 . S
N2042 Co2007 2.145 . S
N2042 C2043 1.397 . S
N2042 C2044 1.334 . S
C2043 H2024 0.929 . S
C2043 C2040 1.388 . S
C2043 N2042 1.397 . S
C2044 H2025 0.929 . S
C2044 C2041 1.404 . S
C2044 N2042 1.334 . S
C2045 H2037 0.930 . S
C2045 C2040 1.418 . S
C2045 C2041 1.353 . S
C2046 H2016 0.930 . S
C2046 N2047 1.330 . S
C2046 C2048 1.446 . S
N2047 Co2006 2.151 . S
N2047 C2046 1.330 . S
N2047 C2051 1.418 . S
C2048 H2027 0.929 . S
C2048 C2046 1.446 . S
C2048 C2049 1.332 . S
C2049 H2029 0.931 . S
C2049 C2048 1.332 . S
C2049 C2050 1.267 . S
C2050 H2018 0.929 . S
C2050 C2049 1.267 . S
C2050 C2051 1.251 . S
C2051 H2021 0.929 . S
C2051 N2047 1.418 . S
C2051 C2050 1.251 . S
C2052 H2019 0.930 . S
C2052 C2054 1.406 . S
C2052 C2057 1.261 . S
C2053 H2020 0.930 . S
C2053 N2055 1.325 . S
C2053 C2056 1.357 . S
C2054 H2022 0.928 . S
C2054 C2052 1.406 . S
C2054 N2055 1.261 . S
N2055 Co2006 2.214 . S
N2055 C2053 1.325 . S
N2055 C2054 1.261 . S
C2056 H2026 0.931 . S
C2056 C2053 1.357 . S
C2056 C2057 1.312 . S
C2057 H2028 0.930 . S
C2057 C2052 1.261 . S
C2057 C2056 1.312 . S
C2058 O2030 1.214 . S
C2058 O2038 1.234 . S
C2059 H2031 0.929 . S
C2059 C2062 1.391 . S
C2059 C2064 1.391 . S
C2060 H2032 0.929 . S
C2060 C2061 1.390 . S
C2060 N2063 1.391 . S
C2061 H2033 0.930 . S
C2061 C2060 1.390 . S
C2061 C2062 1.392 . S
C2062 H2034 0.929 . S
C2062 C2059 1.391 . S
C2062 C2061 1.392 . S
N2063 Co2007 2.257 . S
N2063 C2060 1.391 . S
N2063 C2064 1.388 . S
C2064 H2035 0.930 . S
C2064 C2059 1.391 . S
C2064 N2063 1.388 . S
Co2065 O2067 2.143 . S
Co2065 O2073 2.074 . S
Co2065 O2076 2.093 . S
Co2065 O2089 2.097 . S
Co2065 N2106 2.151 . S
Co2065 N2114 2.214 . S
Co2066 O2067 2.160 . S
Co2066 O2072 2.058 . S
Co2066 O2082 2.057 . S
Co2066 O2097 2.037 . S
Co2066 N2101 2.145 . S
Co2066 N2122 2.257 . S
O2067 Co2065 2.143 . S
O2067 Co2066 2.160 . S
C2068 O2069 1.278 . S
C2068 O2076 1.224 . S
O2069 C2068 1.278 . S
C2070 O2071 1.245 . S
C2070 O2082 1.232 . S
O2071 C2070 1.245 . S
O2072 Co2066 2.058 . S
O2072 C2098 1.269 . S
O2073 Co2065 2.074 . S
O2073 C2098 1.257 . S
H2074 C2099 0.930 . S
H2075 C2105 0.930 . S
O2076 Co2065 2.093 . S
O2076 C2068 1.224 . S
H2077 C2109 0.929 . S
H2078 C2111 0.930 . S
H2079 C2112 0.930 . S
H2080 C2110 0.929 . S
H2081 C2113 0.928 . S
O2082 Co2066 2.057 . S
O2082 C2070 1.232 . S
H2083 C2102 0.929 . S
H2084 C2103 0.929 . S
H2085 C2115 0.931 . S
H2086 C2107 0.929 . S
H2087 C2116 0.930 . S
H2088 C2108 0.931 . S
O2089 Co2065 2.097 . S
O2089 C2117 1.214 . S
H2090 C2118 0.929 . S
H2091 C2119 0.929 . S
H2092 C2120 0.930 . S
H2093 C2121 0.929 . S
H2094 C2123 0.930 . S
H2095 C2100 0.930 . S
H2096 C2104 0.930 . S
O2097 Co2066 2.037 . S
O2097 C2117 1.234 . S
C2098 O2072 1.269 . S
C2098 O2073 1.257 . S
C2099 H2074 0.930 . S
C2099 C2102 1.388 . S
C2099 C2104 1.418 . S
C2100 H2095 0.930 . S
C2100 C2103 1.404 . S
C2100 C2104 1.353 . S
N2101 Co2066 2.145 . S
N2101 C2102 1.397 . S
N2101 C2103 1.334 . S
C2102 H2083 0.929 . S
C2102 C2099 1.388 . S
C2102 N2101 1.397 . S
C2103 H2084 0.929 . S
C2103 C2100 1.404 . S
C2103 N2101 1.334 . S
C2104 H2096 0.930 . S
C2104 C2099 1.418 . S
C2104 C2100 1.353 . S
C2105 H2075 0.930 . S
C2105 N2106 1.330 . S
C2105 C2107 1.446 . S
N2106 Co2065 2.151 . S
N2106 C2105 1.330 . S
N2106 C2110 1.418 . S
C2107 H2086 0.929 . S
C2107 C2105 1.446 . S
C2107 C2108 1.332 . S
C2108 H2088 0.931 . S
C2108 C2107 1.332 . S
C2108 C2109 1.267 . S
C2109 H2077 0.929 . S
C2109 C2108 1.267 . S
C2109 C2110 1.251 . S
C2110 H2080 0.929 . S
C2110 N2106 1.418 . S
C2110 C2109 1.251 . S
C2111 H2078 0.930 . S
C2111 C2113 1.406 . S
C2111 C2116 1.261 . S
C2112 H2079 0.930 . S
C2112 N2114 1.325 . S
C2112 C2115 1.357 . S
C2113 H2081 0.928 . S
C2113 C2111 1.406 . S
C2113 N2114 1.261 . S
N2114 Co2065 2.214 . S
N2114 C2112 1.325 . S
N2114 C2113 1.261 . S
C2115 H2085 0.931 . S
C2115 C2112 1.357 . S
C2115 C2116 1.312 . S
C2116 H2087 0.930 . S
C2116 C2111 1.261 . S
C2116 C2115 1.312 . S
C2117 O2089 1.214 . S
C2117 O2097 1.234 . S
C2118 H2090 0.929 . S
C2118 C2121 1.391 . S
C2118 C2123 1.391 . S
C2119 H2091 0.929 . S
C2119 C2120 1.390 . S
C2119 N2122 1.391 . S
C2120 H2092 0.930 . S
C2120 C2119 1.390 . S
C2120 C2121 1.392 . S
C2121 H2093 0.929 . S
C2121 C2118 1.391 . S
C2121 C2120 1.392 . S
N2122 Co2066 2.257 . S
N2122 C2119 1.391 . S
N2122 C2123 1.388 . S
C2123 H2094 0.930 . S
C2123 C2118 1.391 . S
C2123 N2122 1.388 . S
H2124 C2130 0.930 . S
H2125 C2134 0.930 . S
H2126 C2139 0.929 . S
H2127 C2137 0.929 . S
H2128 C2132 0.929 . S
H2129 C2138 0.929 . S
C2130 H2124 0.930 . S
C2130 C2131 1.367 . S
C2130 C2138 1.378 . S
C2131 C2130 1.367 . S
C2131 C2139 1.433 . S
C2132 H2128 0.929 . S
C2132 C2134 1.378 . S
C2132 C2136 1.350 . S
C2133 C2136 1.463 1_556 S
C2133 C2138 1.350 . S
C2133 N2141 1.427 . S
C2134 H2125 0.930 . S
C2134 C2132 1.378 . S
C2134 C2135 1.367 . S
C2135 C2134 1.367 . S
C2135 C2137 1.433 . S
C2136 C2132 1.350 . S
C2136 C2133 1.463 1_554 S
C2136 N2140 1.427 . S
C2137 H2127 0.929 . S
C2137 C2135 1.433 . S
C2137 N2140 1.384 . S
C2138 H2129 0.929 . S
C2138 C2130 1.378 . S
C2138 C2133 1.350 . S
C2139 H2126 0.929 . S
C2139 C2131 1.433 . S
C2139 N2141 1.384 . S
N2140 C2136 1.427 . S
N2140 C2137 1.384 . S
N2141 C2133 1.427 . S
N2141 C2139 1.384 . S
H2142 C2148 0.930 . S
H2143 C2152 0.930 . S
H2144 C2157 0.929 . S
H2145 C2155 0.929 . S
H2146 C2150 0.929 . S
H2147 C2156 0.929 . S
C2148 H2142 0.930 . S
C2148 C2149 1.367 . S
C2148 C2156 1.378 . S
C2149 C2148 1.367 . S
C2149 C2157 1.433 . S
C2150 H2146 0.929 . S
C2150 C2152 1.378 . S
C2150 C2154 1.350 . S
C2151 C2154 1.463 1_556 S
C2151 C2156 1.350 . S
C2151 N2159 1.427 . S
C2152 H2143 0.930 . S
C2152 C2150 1.378 . S
C2152 C2153 1.367 . S
C2153 C2152 1.367 . S
C2153 C2155 1.433 . S
C2154 C2150 1.350 . S
C2154 C2151 1.463 1_554 S
C2154 N2158 1.427 . S
C2155 H2145 0.929 . S
C2155 C2153 1.433 . S
C2155 N2158 1.384 . S
C2156 H2147 0.929 . S
C2156 C2148 1.378 . S
C2156 C2151 1.350 . S
C2157 H2144 0.929 . S
C2157 C2149 1.433 . S
C2157 N2159 1.384 . S
N2158 C2154 1.427 . S
N2158 C2155 1.384 . S
N2159 C2151 1.427 . S
N2159 C2157 1.384 . S
H2160 C2166 0.930 . S
H2161 C2170 0.930 . S
H2162 C2175 0.929 . S
H2163 C2173 0.929 . S
H2164 C2168 0.929 . S
H2165 C2174 0.929 . S
C2166 H2160 0.930 . S
C2166 C2167 1.367 . S
C2166 C2174 1.378 . S
C2167 C2166 1.367 . S
C2167 C2175 1.433 . S
C2168 H2164 0.929 . S
C2168 C2170 1.378 . S
C2168 C2172 1.350 . S
C2169 C2172 1.463 1_554 S
C2169 C2174 1.350 . S
C2169 N2177 1.427 . S
C2170 H2161 0.930 . S
C2170 C2168 1.378 . S
C2170 C2171 1.367 . S
C2171 C2170 1.367 . S
C2171 C2173 1.433 . S
C2172 C2168 1.350 . S
C2172 C2169 1.463 1_556 S
C2172 N2176 1.427 . S
C2173 H2163 0.929 . S
C2173 C2171 1.433 . S
C2173 N2176 1.384 . S
C2174 H2165 0.929 . S
C2174 C2166 1.378 . S
C2174 C2169 1.350 . S
C2175 H2162 0.929 . S
C2175 C2167 1.433 . S
C2175 N2177 1.384 . S
N2176 C2172 1.427 . S
N2176 C2173 1.384 . S
N2177 C2169 1.427 . S
N2177 C2175 1.384 . S
H2178 C2184 0.930 . S
H2179 C2188 0.930 . S
H2180 C2193 0.929 . S
H2181 C2191 0.929 . S
H2182 C2186 0.929 . S
H2183 C2192 0.929 . S
C2184 H2178 0.930 . S
C2184 C2185 1.367 . S
C2184 C2192 1.378 . S
C2185 C2184 1.367 . S
C2185 C2193 1.433 . S
C2186 H2182 0.929 . S
C2186 C2188 1.378 . S
C2186 C2190 1.350 . S
C2187 C2190 1.463 . S
C2187 C2192 1.350 . S
C2187 N2195 1.427 . S
C2188 H2179 0.930 . S
C2188 C2186 1.378 . S
C2188 C2189 1.367 . S
C2189 C2188 1.367 . S
C2189 C2191 1.433 . S
C2190 C2186 1.350 . S
C2190 C2187 1.463 . S
C2190 N2194 1.427 . S
C2191 H2181 0.929 . S
C2191 C2189 1.433 . S
C2191 N2194 1.384 . S
C2192 H2183 0.929 . S
C2192 C2184 1.378 . S
C2192 C2187 1.350 . S
C2193 H2180 0.929 . S
C2193 C2185 1.433 . S
C2193 N2195 1.384 . S
N2194 C2190 1.427 . S
N2194 C2191 1.384 . S
N2195 C2187 1.427 . S
N2195 C2193 1.384 . S
H2196 C2202 0.930 . S
H2197 C2206 0.930 . S
H2198 C2211 0.929 . S
H2199 C2209 0.929 . S
H2200 C2204 0.929 . S
H2201 C2210 0.929 . S
C2202 H2196 0.930 . S
C2202 C2203 1.367 . S
C2202 C2210 1.378 . S
C2203 C2202 1.367 . S
C2203 C2211 1.433 . S
C2204 H2200 0.929 . S
C2204 C2206 1.378 . S
C2204 C2208 1.350 . S
C2205 C2208 1.463 . S
C2205 C2210 1.350 . S
C2205 N2213 1.427 . S
C2206 H2197 0.930 . S
C2206 C2204 1.378 . S
C2206 C2207 1.367 . S
C2207 C2206 1.367 . S
C2207 C2209 1.433 . S
C2208 C2204 1.350 . S
C2208 C2205 1.463 . S
C2208 N2212 1.427 . S
C2209 H2199 0.929 . S
C2209 C2207 1.433 . S
C2209 N2212 1.384 . S
C2210 H2201 0.929 . S
C2210 C2202 1.378 . S
C2210 C2205 1.350 . S
C2211 H2198 0.929 . S
C2211 C2203 1.433 . S
C2211 N2213 1.384 . S
N2212 C2208 1.427 . S
N2212 C2209 1.384 . S
N2213 C2205 1.427 . S
N2213 C2211 1.384 . S
H2214 C2220 0.930 . S
H2215 C2224 0.930 . S
H2216 C2229 0.929 . S
H2217 C2227 0.929 . S
H2218 C2222 0.929 . S
H2219 C2228 0.929 . S
C2220 H2214 0.930 . S
C2220 C2221 1.367 . S
C2220 C2228 1.378 . S
C2221 C2220 1.367 . S
C2221 C2229 1.433 . S
C2222 H2218 0.929 . S
C2222 C2224 1.378 . S
C2222 C2226 1.350 . S
C2223 C2226 1.463 . S
C2223 C2228 1.350 . S
C2223 N2231 1.427 . S
C2224 H2215 0.930 . S
C2224 C2222 1.378 . S
C2224 C2225 1.367 . S
C2225 C2224 1.367 . S
C2225 C2227 1.433 . S
C2226 C2222 1.350 . S
C2226 C2223 1.463 . S
C2226 N2230 1.427 . S
C2227 H2217 0.929 . S
C2227 C2225 1.433 . S
C2227 N2230 1.384 . S
C2228 H2219 0.929 . S
C2228 C2220 1.378 . S
C2228 C2223 1.350 . S
C2229 H2216 0.929 . S
C2229 C2221 1.433 . S
C2229 N2231 1.384 . S
N2230 C2226 1.427 . S
N2230 C2227 1.384 . S
N2231 C2223 1.427 . S
N2231 C2229 1.384 . S
H2232 C2238 0.930 . S
H2233 C2242 0.930 . S
H2234 C2247 0.929 . S
H2235 C2245 0.929 . S
H2236 C2240 0.929 . S
H2237 C2246 0.929 . S
C2238 H2232 0.930 . S
C2238 C2239 1.367 . S
C2238 C2246 1.378 . S
C2239 C2238 1.367 . S
C2239 C2247 1.433 . S
C2240 H2236 0.929 . S
C2240 C2242 1.378 . S
C2240 C2244 1.350 . S
C2241 C2244 1.463 1_554 S
C2241 C2246 1.350 . S
C2241 N2249 1.427 . S
C2242 H2233 0.930 . S
C2242 C2240 1.378 . S
C2242 C2243 1.367 . S
C2243 C2242 1.367 . S
C2243 C2245 1.433 . S
C2244 C2240 1.350 . S
C2244 C2241 1.463 1_556 S
C2244 N2248 1.427 . S
C2245 H2235 0.929 . S
C2245 C2243 1.433 . S
C2245 N2248 1.384 . S
C2246 H2237 0.929 . S
C2246 C2238 1.378 . S
C2246 C2241 1.350 . S
C2247 H2234 0.929 . S
C2247 C2239 1.433 . S
C2247 N2249 1.384 . S
N2248 C2244 1.427 . S
N2248 C2245 1.384 . S
N2249 C2241 1.427 . S
N2249 C2247 1.384 . S
H2250 C2256 0.930 . S
H2251 C2260 0.930 . S
H2252 C2265 0.929 . S
H2253 C2263 0.929 . S
H2254 C2258 0.929 . S
H2255 C2264 0.929 . S
C2256 H2250 0.930 . S
C2256 C2257 1.367 . S
C2256 C2264 1.378 . S
C2257 C2256 1.367 . S
C2257 C2265 1.433 . S
C2258 H2254 0.929 . S
C2258 C2260 1.378 . S
C2258 C2262 1.350 . S
C2259 C2262 1.463 1_554 S
C2259 C2264 1.350 . S
C2259 N2267 1.427 . S
C2260 H2251 0.930 . S
C2260 C2258 1.378 . S
C2260 C2261 1.367 . S
C2261 C2260 1.367 . S
C2261 C2263 1.433 . S
C2262 C2258 1.350 . S
C2262 C2259 1.463 1_556 S
C2262 N2266 1.427 . S
C2263 H2253 0.929 . S
C2263 C2261 1.433 . S
C2263 N2266 1.384 . S
C2264 H2255 0.929 . S
C2264 C2256 1.378 . S
C2264 C2259 1.350 . S
C2265 H2252 0.929 . S
C2265 C2257 1.433 . S
C2265 N2267 1.384 . S
N2266 C2262 1.427 . S
N2266 C2263 1.384 . S
N2267 C2259 1.427 . S
N2267 C2265 1.384 . S
H2268 C2274 0.930 . S
H2269 C2278 0.930 . S
H2270 C2283 0.929 . S
H2271 C2281 0.929 . S
H2272 C2276 0.929 . S
H2273 C2282 0.929 . S
C2274 H2268 0.930 . S
C2274 C2275 1.367 . S
C2274 C2282 1.378 . S
C2275 C2274 1.367 . S
C2275 C2283 1.433 . S
C2276 H2272 0.929 . S
C2276 C2278 1.378 . S
C2276 C2280 1.350 . S
C2277 C2280 1.463 1_556 S
C2277 C2282 1.350 . S
C2277 N2285 1.427 . S
C2278 H2269 0.930 . S
C2278 C2276 1.378 . S
C2278 C2279 1.367 . S
C2279 C2278 1.367 . S
C2279 C2281 1.433 . S
C2280 C2276 1.350 . S
C2280 C2277 1.463 1_554 S
C2280 N2284 1.427 . S
C2281 H2271 0.929 . S
C2281 C2279 1.433 . S
C2281 N2284 1.384 . S
C2282 H2273 0.929 . S
C2282 C2274 1.378 . S
C2282 C2277 1.350 . S
C2283 H2270 0.929 . S
C2283 C2275 1.433 . S
C2283 N2285 1.384 . S
N2284 C2280 1.427 . S
N2284 C2281 1.384 . S
N2285 C2277 1.427 . S
N2285 C2283 1.384 . S
H2286 C2292 0.930 . S
H2287 C2296 0.930 . S
H2288 C2301 0.929 . S
H2289 C2299 0.929 . S
H2290 C2294 0.929 . S
H2291 C2300 0.929 . S
C2292 H2286 0.930 . S
C2292 C2293 1.367 . S
C2292 C2300 1.378 . S
C2293 C2292 1.367 . S
C2293 C2301 1.433 . S
C2294 H2290 0.929 . S
C2294 C2296 1.378 . S
C2294 C2298 1.350 . S
C2295 C2298 1.463 . S
C2295 C2300 1.350 . S
C2295 N2303 1.427 . S
C2296 H2287 0.930 . S
C2296 C2294 1.378 . S
C2296 C2297 1.367 . S
C2297 C2296 1.367 . S
C2297 C2299 1.433 . S
C2298 C2294 1.350 . S
C2298 C2295 1.463 . S
C2298 N2302 1.427 . S
C2299 H2289 0.929 . S
C2299 C2297 1.433 . S
C2299 N2302 1.384 . S
C2300 H2291 0.929 . S
C2300 C2292 1.378 . S
C2300 C2295 1.350 . S
C2301 H2288 0.929 . S
C2301 C2293 1.433 . S
C2301 N2303 1.384 . S
N2302 C2298 1.427 . S
N2302 C2299 1.384 . S
N2303 C2295 1.427 . S
N2303 C2301 1.384 . S
H2304 C2310 0.930 . S
H2305 C2314 0.930 . S
H2306 C2319 0.929 . S
H2307 C2317 0.929 . S
H2308 C2312 0.929 . S
H2309 C2318 0.929 . S
C2310 H2304 0.930 . S
C2310 C2311 1.367 . S
C2310 C2318 1.378 . S
C2311 C2310 1.367 . S
C2311 C2319 1.433 . S
C2312 H2308 0.929 . S
C2312 C2314 1.378 . S
C2312 C2316 1.350 . S
C2313 C2316 1.463 . S
C2313 C2318 1.350 . S
C2313 N2321 1.427 . S
C2314 H2305 0.930 . S
C2314 C2312 1.378 . S
C2314 C2315 1.367 . S
C2315 C2314 1.367 . S
C2315 C2317 1.433 . S
C2316 C2312 1.350 . S
C2316 C2313 1.463 . S
C2316 N2320 1.427 . S
C2317 H2307 0.929 . S
C2317 C2315 1.433 . S
C2317 N2320 1.384 . S
C2318 H2309 0.929 . S
C2318 C2310 1.378 . S
C2318 C2313 1.350 . S
C2319 H2306 0.929 . S
C2319 C2311 1.433 . S
C2319 N2321 1.384 . S
N2320 C2316 1.427 . S
N2320 C2317 1.384 . S
N2321 C2313 1.427 . S
N2321 C2319 1.384 . S
H2322 C2328 0.930 . S
H2323 C2332 0.930 . S
H2324 C2337 0.929 . S
H2325 C2335 0.929 . S
H2326 C2330 0.929 . S
H2327 C2336 0.929 . S
C2328 H2322 0.930 . S
C2328 C2329 1.367 . S
C2328 C2336 1.378 . S
C2329 C2328 1.367 . S
C2329 C2337 1.433 . S
C2330 H2326 0.929 . S
C2330 C2332 1.378 . S
C2330 C2334 1.350 . S
C2331 C2334 1.463 . S
C2331 C2336 1.350 . S
C2331 N2339 1.427 . S
C2332 H2323 0.930 . S
C2332 C2330 1.378 . S
C2332 C2333 1.367 . S
C2333 C2332 1.367 . S
C2333 C2335 1.433 . S
C2334 C2330 1.350 . S
C2334 C2331 1.463 . S
C2334 N2338 1.427 . S
C2335 H2325 0.929 . S
C2335 C2333 1.433 . S
C2335 N2338 1.384 . S
C2336 H2327 0.929 . S
C2336 C2328 1.378 . S
C2336 C2331 1.350 . S
C2337 H2324 0.929 . S
C2337 C2329 1.433 . S
C2337 N2339 1.384 . S
N2338 C2334 1.427 . S
N2338 C2335 1.384 . S
N2339 C2331 1.427 . S
N2339 C2337 1.384 . S
H2340 C2346 0.930 . S
H2341 C2350 0.930 . S
H2342 C2355 0.929 . S
H2343 C2353 0.929 . S
H2344 C2348 0.929 . S
H2345 C2354 0.929 . S
C2346 H2340 0.930 . S
C2346 C2347 1.367 . S
C2346 C2354 1.378 . S
C2347 C2346 1.367 . S
C2347 C2355 1.433 . S
C2348 H2344 0.929 . S
C2348 C2350 1.378 . S
C2348 C2352 1.350 . S
C2349 C2352 1.463 . S
C2349 C2354 1.350 . S
C2349 N2357 1.427 . S
C2350 H2341 0.930 . S
C2350 C2348 1.378 . S
C2350 C2351 1.367 . S
C2351 C2350 1.367 . S
C2351 C2353 1.433 . S
C2352 C2348 1.350 . S
C2352 C2349 1.463 . S
C2352 N2356 1.427 . S
C2353 H2343 0.929 . S
C2353 C2351 1.433 . S
C2353 N2356 1.384 . S
C2354 H2345 0.929 . S
C2354 C2346 1.378 . S
C2354 C2349 1.350 . S
C2355 H2342 0.929 . S
C2355 C2347 1.433 . S
C2355 N2357 1.384 . S
N2356 C2352 1.427 . S
N2356 C2353 1.384 . S
N2357 C2349 1.427 . S
N2357 C2355 1.384 . S
H2358 C2364 0.930 . S
H2359 C2368 0.930 . S
H2360 C2373 0.929 . S
H2361 C2371 0.929 . S
H2362 C2366 0.929 . S
H2363 C2372 0.929 . S
C2364 H2358 0.930 . S
C2364 C2365 1.367 . S
C2364 C2372 1.378 . S
C2365 C2364 1.367 . S
C2365 C2373 1.433 . S
C2366 H2362 0.929 . S
C2366 C2368 1.378 . S
C2366 C2370 1.350 . S
C2367 C2370 1.463 . S
C2367 C2372 1.350 . S
C2367 N2375 1.427 . S
C2368 H2359 0.930 . S
C2368 C2366 1.378 . S
C2368 C2369 1.367 . S
C2369 C2368 1.367 . S
C2369 C2371 1.433 . S
C2370 C2366 1.350 . S
C2370 C2367 1.463 . S
C2370 N2374 1.427 . S
C2371 H2361 0.929 . S
C2371 C2369 1.433 . S
C2371 N2374 1.384 . S
C2372 H2363 0.929 . S
C2372 C2364 1.378 . S
C2372 C2367 1.350 . S
C2373 H2360 0.929 . S
C2373 C2365 1.433 . S
C2373 N2375 1.384 . S
N2374 C2370 1.427 . S
N2374 C2371 1.384 . S
N2375 C2367 1.427 . S
N2375 C2373 1.384 . S
H2376 C2382 0.930 . S
H2377 C2386 0.930 . S
H2378 C2391 0.929 . S
H2379 C2389 0.929 . S
H2380 C2384 0.929 . S
H2381 C2390 0.929 . S
C2382 H2376 0.930 . S
C2382 C2383 1.367 . S
C2382 C2390 1.378 . S
C2383 C2382 1.367 . S
C2383 C2391 1.433 . S
C2384 H2380 0.929 . S
C2384 C2386 1.378 . S
C2384 C2388 1.350 . S
C2385 C2388 1.463 . S
C2385 C2390 1.350 . S
C2385 N2393 1.427 . S
C2386 H2377 0.930 . S
C2386 C2384 1.378 . S
C2386 C2387 1.367 . S
C2387 C2386 1.367 . S
C2387 C2389 1.433 . S
C2388 C2384 1.350 . S
C2388 C2385 1.463 . S
C2388 N2392 1.427 . S
C2389 H2379 0.929 . S
C2389 C2387 1.433 . S
C2389 N2392 1.384 . S
C2390 H2381 0.929 . S
C2390 C2382 1.378 . S
C2390 C2385 1.350 . S
C2391 H2378 0.929 . S
C2391 C2383 1.433 . S
C2391 N2393 1.384 . S
N2392 C2388 1.427 . S
N2392 C2389 1.384 . S
N2393 C2385 1.427 . S
N2393 C2391 1.384 . S
H2394 C2400 0.930 . S
H2395 C2404 0.930 . S
H2396 C2409 0.929 . S
H2397 C2407 0.929 . S
H2398 C2402 0.929 . S
H2399 C2408 0.929 . S
C2400 H2394 0.930 . S
C2400 C2401 1.367 . S
C2400 C2408 1.378 . S
C2401 C2400 1.367 . S
C2401 C2409 1.433 . S
C2402 H2398 0.929 . S
C2402 C2404 1.378 . S
C2402 C2406 1.350 . S
C2403 C2406 1.463 . S
C2403 C2408 1.350 . S
C2403 N2411 1.427 . S
C2404 H2395 0.930 . S
C2404 C2402 1.378 . S
C2404 C2405 1.367 . S
C2405 C2404 1.367 . S
C2405 C2407 1.433 . S
C2406 C2402 1.350 . S
C2406 C2403 1.463 . S
C2406 N2410 1.427 . S
C2407 H2397 0.929 . S
C2407 C2405 1.433 . S
C2407 N2410 1.384 . S
C2408 H2399 0.929 . S
C2408 C2400 1.378 . S
C2408 C2403 1.350 . S
C2409 H2396 0.929 . S
C2409 C2401 1.433 . S
C2409 N2411 1.384 . S
N2410 C2406 1.427 . S
N2410 C2407 1.384 . S
N2411 C2403 1.427 . S
N2411 C2409 1.384 . S
H2412 C2418 0.930 . S
H2413 C2422 0.930 . S
H2414 C2427 0.929 . S
H2415 C2425 0.929 . S
H2416 C2420 0.929 . S
H2417 C2426 0.929 . S
C2418 H2412 0.930 . S
C2418 C2419 1.367 . S
C2418 C2426 1.378 . S
C2419 C2418 1.367 . S
C2419 C2427 1.433 . S
C2420 H2416 0.929 . S
C2420 C2422 1.378 . S
C2420 C2424 1.350 . S
C2421 C2424 1.463 . S
C2421 C2426 1.350 . S
C2421 N2429 1.427 . S
C2422 H2413 0.930 . S
C2422 C2420 1.378 . S
C2422 C2423 1.367 . S
C2423 C2422 1.367 . S
C2423 C2425 1.433 . S
C2424 C2420 1.350 . S
C2424 C2421 1.463 . S
C2424 N2428 1.427 . S
C2425 H2415 0.929 . S
C2425 C2423 1.433 . S
C2425 N2428 1.384 . S
C2426 H2417 0.929 . S
C2426 C2418 1.378 . S
C2426 C2421 1.350 . S
C2427 H2414 0.929 . S
C2427 C2419 1.433 . S
C2427 N2429 1.384 . S
N2428 C2424 1.427 . S
N2428 C2425 1.384 . S
N2429 C2421 1.427 . S
N2429 C2427 1.384 . S
H2430 C2436 0.930 . S
H2431 C2440 0.930 . S
H2432 C2445 0.929 . S
H2433 C2443 0.929 . S
H2434 C2438 0.929 . S
H2435 C2444 0.929 . S
C2436 H2430 0.930 . S
C2436 C2437 1.367 . S
C2436 C2444 1.378 . S
C2437 C2436 1.367 . S
C2437 C2445 1.433 . S
C2438 H2434 0.929 . S
C2438 C2440 1.378 . S
C2438 C2442 1.350 . S
C2439 C2442 1.463 . S
C2439 C2444 1.350 . S
C2439 N2447 1.427 . S
C2440 H2431 0.930 . S
C2440 C2438 1.378 . S
C2440 C2441 1.367 . S
C2441 C2440 1.367 . S
C2441 C2443 1.433 . S
C2442 C2438 1.350 . S
C2442 C2439 1.463 . S
C2442 N2446 1.427 . S
C2443 H2433 0.929 . S
C2443 C2441 1.433 . S
C2443 N2446 1.384 . S
C2444 H2435 0.929 . S
C2444 C2436 1.378 . S
C2444 C2439 1.350 . S
C2445 H2432 0.929 . S
C2445 C2437 1.433 . S
C2445 N2447 1.384 . S
N2446 C2442 1.427 . S
N2446 C2443 1.384 . S
N2447 C2439 1.427 . S
N2447 C2445 1.384 . S
H2448 C2454 0.930 . S
H2449 C2458 0.930 . S
H2450 C2463 0.929 . S
H2451 C2461 0.929 . S
H2452 C2456 0.929 . S
H2453 C2462 0.929 . S
C2454 H2448 0.930 . S
C2454 C2455 1.367 . S
C2454 C2462 1.378 . S
C2455 C2454 1.367 . S
C2455 C2463 1.433 . S
C2456 H2452 0.929 . S
C2456 C2458 1.378 . S
C2456 C2460 1.350 . S
C2457 C2460 1.463 . S
C2457 C2462 1.350 . S
C2457 N2465 1.427 . S
C2458 H2449 0.930 . S
C2458 C2456 1.378 . S
C2458 C2459 1.367 . S
C2459 C2458 1.367 . S
C2459 C2461 1.433 . S
C2460 C2456 1.350 . S
C2460 C2457 1.463 . S
C2460 N2464 1.427 . S
C2461 H2451 0.929 . S
C2461 C2459 1.433 . S
C2461 N2464 1.384 . S
C2462 H2453 0.929 . S
C2462 C2454 1.378 . S
C2462 C2457 1.350 . S
C2463 H2450 0.929 . S
C2463 C2455 1.433 . S
C2463 N2465 1.384 . S
N2464 C2460 1.427 . S
N2464 C2461 1.384 . S
N2465 C2457 1.427 . S
N2465 C2463 1.384 . S
H2466 C2472 0.930 . S
H2467 C2476 0.930 . S
H2468 C2481 0.929 . S
H2469 C2479 0.929 . S
H2470 C2474 0.929 . S
H2471 C2480 0.929 . S
C2472 H2466 0.930 . S
C2472 C2473 1.367 . S
C2472 C2480 1.378 . S
C2473 C2472 1.367 . S
C2473 C2481 1.433 . S
C2474 H2470 0.929 . S
C2474 C2476 1.378 . S
C2474 C2478 1.350 . S
C2475 C2478 1.463 . S
C2475 C2480 1.350 . S
C2475 N2483 1.427 . S
C2476 H2467 0.930 . S
C2476 C2474 1.378 . S
C2476 C2477 1.367 . S
C2477 C2476 1.367 . S
C2477 C2479 1.433 . S
C2478 C2474 1.350 . S
C2478 C2475 1.463 . S
C2478 N2482 1.427 . S
C2479 H2469 0.929 . S
C2479 C2477 1.433 . S
C2479 N2482 1.384 . S
C2480 H2471 0.929 . S
C2480 C2472 1.378 . S
C2480 C2475 1.350 . S
C2481 H2468 0.929 . S
C2481 C2473 1.433 . S
C2481 N2483 1.384 . S
N2482 C2478 1.427 . S
N2482 C2479 1.384 . S
N2483 C2475 1.427 . S
N2483 C2481 1.384 . S
H2484 C2490 0.930 . S
H2485 C2494 0.930 . S
H2486 C2499 0.929 . S
H2487 C2497 0.929 . S
H2488 C2492 0.929 . S
H2489 C2498 0.929 . S
C2490 H2484 0.930 . S
C2490 C2491 1.367 . S
C2490 C2498 1.378 . S
C2491 C2490 1.367 . S
C2491 C2499 1.433 . S
C2492 H2488 0.929 . S
C2492 C2494 1.378 . S
C2492 C2496 1.350 . S
C2493 C2496 1.463 . S
C2493 C2498 1.350 . S
C2493 N2501 1.427 . S
C2494 H2485 0.930 . S
C2494 C2492 1.378 . S
C2494 C2495 1.367 . S
C2495 C2494 1.367 . S
C2495 C2497 1.433 . S
C2496 C2492 1.350 . S
C2496 C2493 1.463 . S
C2496 N2500 1.427 . S
C2497 H2487 0.929 . S
C2497 C2495 1.433 . S
C2497 N2500 1.384 . S
C2498 H2489 0.929 . S
C2498 C2490 1.378 . S
C2498 C2493 1.350 . S
C2499 H2486 0.929 . S
C2499 C2491 1.433 . S
C2499 N2501 1.384 . S
N2500 C2496 1.427 . S
N2500 C2497 1.384 . S
N2501 C2493 1.427 . S
N2501 C2499 1.384 . S
H2502 C2508 0.930 . S
H2503 C2512 0.930 . S
H2504 C2517 0.929 . S
H2505 C2515 0.929 . S
H2506 C2510 0.929 . S
H2507 C2516 0.929 . S
C2508 H2502 0.930 . S
C2508 C2509 1.367 . S
C2508 C2516 1.378 . S
C2509 C2508 1.367 . S
C2509 C2517 1.433 . S
C2510 H2506 0.929 . S
C2510 C2512 1.378 . S
C2510 C2514 1.350 . S
C2511 C2514 1.463 . S
C2511 C2516 1.350 . S
C2511 N2519 1.427 . S
C2512 H2503 0.930 . S
C2512 C2510 1.378 . S
C2512 C2513 1.367 . S
C2513 C2512 1.367 . S
C2513 C2515 1.433 . S
C2514 C2510 1.350 . S
C2514 C2511 1.463 . S
C2514 N2518 1.427 . S
C2515 H2505 0.929 . S
C2515 C2513 1.433 . S
C2515 N2518 1.384 . S
C2516 H2507 0.929 . S
C2516 C2508 1.378 . S
C2516 C2511 1.350 . S
C2517 H2504 0.929 . S
C2517 C2509 1.433 . S
C2517 N2519 1.384 . S
N2518 C2514 1.427 . S
N2518 C2515 1.384 . S
N2519 C2511 1.427 . S
N2519 C2517 1.384 . S
H2520 C2526 0.930 . S
H2521 C2530 0.930 . S
H2522 C2535 0.929 . S
H2523 C2533 0.929 . S
H2524 C2528 0.929 . S
H2525 C2534 0.929 . S
C2526 H2520 0.930 . S
C2526 C2527 1.367 . S
C2526 C2534 1.378 . S
C2527 C2526 1.367 . S
C2527 C2535 1.433 . S
C2528 H2524 0.929 . S
C2528 C2530 1.378 . S
C2528 C2532 1.350 . S
C2529 C2532 1.463 . S
C2529 C2534 1.350 . S
C2529 N2537 1.427 . S
C2530 H2521 0.930 . S
C2530 C2528 1.378 . S
C2530 C2531 1.367 . S
C2531 C2530 1.367 . S
C2531 C2533 1.433 . S
C2532 C2528 1.350 . S
C2532 C2529 1.463 . S
C2532 N2536 1.427 . S
C2533 H2523 0.929 . S
C2533 C2531 1.433 . S
C2533 N2536 1.384 . S
C2534 H2525 0.929 . S
C2534 C2526 1.378 . S
C2534 C2529 1.350 . S
C2535 H2522 0.929 . S
C2535 C2527 1.433 . S
C2535 N2537 1.384 . S
N2536 C2532 1.427 . S
N2536 C2533 1.384 . S
N2537 C2529 1.427 . S
N2537 C2535 1.384 . S
H2538 C2544 0.930 . S
H2539 C2548 0.930 . S
H2540 C2553 0.929 . S
H2541 C2551 0.929 . S
H2542 C2546 0.929 . S
H2543 C2552 0.929 . S
C2544 H2538 0.930 . S
C2544 C2545 1.367 . S
C2544 C2552 1.378 . S
C2545 C2544 1.367 . S
C2545 C2553 1.433 . S
C2546 H2542 0.929 . S
C2546 C2548 1.378 . S
C2546 C2550 1.350 . S
C2547 C2550 1.463 . S
C2547 C2552 1.350 . S
C2547 N2555 1.427 . S
C2548 H2539 0.930 . S
C2548 C2546 1.378 . S
C2548 C2549 1.367 . S
C2549 C2548 1.367 . S
C2549 C2551 1.433 . S
C2550 C2546 1.350 . S
C2550 C2547 1.463 . S
C2550 N2554 1.427 . S
C2551 H2541 0.929 . S
C2551 C2549 1.433 . S
C2551 N2554 1.384 . S
C2552 H2543 0.929 . S
C2552 C2544 1.378 . S
C2552 C2547 1.350 . S
C2553 H2540 0.929 . S
C2553 C2545 1.433 . S
C2553 N2555 1.384 . S
N2554 C2550 1.427 . S
N2554 C2551 1.384 . S
N2555 C2547 1.427 . S
N2555 C2553 1.384 . S
H2556 C2562 0.930 . S
H2557 C2566 0.930 . S
H2558 C2571 0.929 . S
H2559 C2569 0.929 . S
H2560 C2564 0.929 . S
H2561 C2570 0.929 . S
C2562 H2556 0.930 . S
C2562 C2563 1.367 . S
C2562 C2570 1.378 . S
C2563 C2562 1.367 . S
C2563 C2571 1.433 . S
C2564 H2560 0.929 . S
C2564 C2566 1.378 . S
C2564 C2568 1.350 . S
C2565 C2568 1.463 . S
C2565 C2570 1.350 . S
C2565 N2573 1.427 . S
C2566 H2557 0.930 . S
C2566 C2564 1.378 . S
C2566 C2567 1.367 . S
C2567 C2566 1.367 . S
C2567 C2569 1.433 . S
C2568 C2564 1.350 . S
C2568 C2565 1.463 . S
C2568 N2572 1.427 . S
C2569 H2559 0.929 . S
C2569 C2567 1.433 . S
C2569 N2572 1.384 . S
C2570 H2561 0.929 . S
C2570 C2562 1.378 . S
C2570 C2565 1.350 . S
C2571 H2558 0.929 . S
C2571 C2563 1.433 . S
C2571 N2573 1.384 . S
N2572 C2568 1.427 . S
N2572 C2569 1.384 . S
N2573 C2565 1.427 . S
N2573 C2571 1.384 . S
H2574 C2580 0.930 . S
H2575 C2584 0.930 . S
H2576 C2589 0.929 . S
H2577 C2587 0.929 . S
H2578 C2582 0.929 . S
H2579 C2588 0.929 . S
C2580 H2574 0.930 . S
C2580 C2581 1.367 . S
C2580 C2588 1.378 . S
C2581 C2580 1.367 . S
C2581 C2589 1.433 . S
C2582 H2578 0.929 . S
C2582 C2584 1.378 . S
C2582 C2586 1.350 . S
C2583 C2586 1.463 . S
C2583 C2588 1.350 . S
C2583 N2591 1.427 . S
C2584 H2575 0.930 . S
C2584 C2582 1.378 . S
C2584 C2585 1.367 . S
C2585 C2584 1.367 . S
C2585 C2587 1.433 . S
C2586 C2582 1.350 . S
C2586 C2583 1.463 . S
C2586 N2590 1.427 . S
C2587 H2577 0.929 . S
C2587 C2585 1.433 . S
C2587 N2590 1.384 . S
C2588 H2579 0.929 . S
C2588 C2580 1.378 . S
C2588 C2583 1.350 . S
C2589 H2576 0.929 . S
C2589 C2581 1.433 . S
C2589 N2591 1.384 . S
N2590 C2586 1.427 . S
N2590 C2587 1.384 . S
N2591 C2583 1.427 . S
N2591 C2589 1.384 . S
H2592 C2598 0.930 . S
H2593 C2602 0.930 . S
H2594 C2607 0.929 . S
H2595 C2605 0.929 . S
H2596 C2600 0.929 . S
H2597 C2606 0.929 . S
C2598 H2592 0.930 . S
C2598 C2599 1.367 . S
C2598 C2606 1.378 . S
C2599 C2598 1.367 . S
C2599 C2607 1.433 . S
C2600 H2596 0.929 . S
C2600 C2602 1.378 . S
C2600 C2604 1.350 . S
C2601 C2604 1.463 . S
C2601 C2606 1.350 . S
C2601 N2609 1.427 . S
C2602 H2593 0.930 . S
C2602 C2600 1.378 . S
C2602 C2603 1.367 . S
C2603 C2602 1.367 . S
C2603 C2605 1.433 . S
C2604 C2600 1.350 . S
C2604 C2601 1.463 . S
C2604 N2608 1.427 . S
C2605 H2595 0.929 . S
C2605 C2603 1.433 . S
C2605 N2608 1.384 . S
C2606 H2597 0.929 . S
C2606 C2598 1.378 . S
C2606 C2601 1.350 . S
C2607 H2594 0.929 . S
C2607 C2599 1.433 . S
C2607 N2609 1.384 . S
N2608 C2604 1.427 . S
N2608 C2605 1.384 . S
N2609 C2601 1.427 . S
N2609 C2607 1.384 . S
H2610 C2616 0.930 . S
H2611 C2620 0.930 . S
H2612 C2625 0.929 . S
H2613 C2623 0.929 . S
H2614 C2618 0.929 . S
H2615 C2624 0.929 . S
C2616 H2610 0.930 . S
C2616 C2617 1.367 . S
C2616 C2624 1.378 . S
C2617 C2616 1.367 . S
C2617 C2625 1.433 . S
C2618 H2614 0.929 . S
C2618 C2620 1.378 . S
C2618 C2622 1.350 . S
C2619 C2622 1.463 . S
C2619 C2624 1.350 . S
C2619 N2627 1.427 . S
C2620 H2611 0.930 . S
C2620 C2618 1.378 . S
C2620 C2621 1.367 . S
C2621 C2620 1.367 . S
C2621 C2623 1.433 . S
C2622 C2618 1.350 . S
C2622 C2619 1.463 . S
C2622 N2626 1.427 . S
C2623 H2613 0.929 . S
C2623 C2621 1.433 . S
C2623 N2626 1.384 . S
C2624 H2615 0.929 . S
C2624 C2616 1.378 . S
C2624 C2619 1.350 . S
C2625 H2612 0.929 . S
C2625 C2617 1.433 . S
C2625 N2627 1.384 . S
N2626 C2622 1.427 . S
N2626 C2623 1.384 . S
N2627 C2619 1.427 . S
N2627 C2625 1.384 . S
H2628 C2634 0.930 . S
H2629 C2638 0.930 . S
H2630 C2643 0.929 . S
H2631 C2641 0.929 . S
H2632 C2636 0.929 . S
H2633 C2642 0.929 . S
C2634 H2628 0.930 . S
C2634 C2635 1.367 . S
C2634 C2642 1.378 . S
C2635 C2634 1.367 . S
C2635 C2643 1.433 . S
C2636 H2632 0.929 . S
C2636 C2638 1.378 . S
C2636 C2640 1.350 . S
C2637 C2640 1.463 . S
C2637 C2642 1.350 . S
C2637 N2645 1.427 . S
C2638 H2629 0.930 . S
C2638 C2636 1.378 . S
C2638 C2639 1.367 . S
C2639 C2638 1.367 . S
C2639 C2641 1.433 . S
C2640 C2636 1.350 . S
C2640 C2637 1.463 . S
C2640 N2644 1.427 . S
C2641 H2631 0.929 . S
C2641 C2639 1.433 . S
C2641 N2644 1.384 . S
C2642 H2633 0.929 . S
C2642 C2634 1.378 . S
C2642 C2637 1.350 . S
C2643 H2630 0.929 . S
C2643 C2635 1.433 . S
C2643 N2645 1.384 . S
N2644 C2640 1.427 . S
N2644 C2641 1.384 . S
N2645 C2637 1.427 . S
N2645 C2643 1.384 . S
H2646 C2652 0.930 . S
H2647 C2656 0.930 . S
H2648 C2661 0.929 . S
H2649 C2659 0.929 . S
H2650 C2654 0.929 . S
H2651 C2660 0.929 . S
C2652 H2646 0.930 . S
C2652 C2653 1.367 . S
C2652 C2660 1.378 . S
C2653 C2652 1.367 . S
C2653 C2661 1.433 . S
C2654 H2650 0.929 . S
C2654 C2656 1.378 . S
C2654 C2658 1.350 . S
C2655 C2658 1.463 . S
C2655 C2660 1.350 . S
C2655 N2663 1.427 . S
C2656 H2647 0.930 . S
C2656 C2654 1.378 . S
C2656 C2657 1.367 . S
C2657 C2656 1.367 . S
C2657 C2659 1.433 . S
C2658 C2654 1.350 . S
C2658 C2655 1.463 . S
C2658 N2662 1.427 . S
C2659 H2649 0.929 . S
C2659 C2657 1.433 . S
C2659 N2662 1.384 . S
C2660 H2651 0.929 . S
C2660 C2652 1.378 . S
C2660 C2655 1.350 . S
C2661 H2648 0.929 . S
C2661 C2653 1.433 . S
C2661 N2663 1.384 . S
N2662 C2658 1.427 . S
N2662 C2659 1.384 . S
N2663 C2655 1.427 . S
N2663 C2661 1.384 . S
H2664 C2670 0.930 . S
H2665 C2674 0.930 . S
H2666 C2679 0.929 . S
H2667 C2677 0.929 . S
H2668 C2672 0.929 . S
H2669 C2678 0.929 . S
C2670 H2664 0.930 . S
C2670 C2671 1.367 . S
C2670 C2678 1.378 . S
C2671 C2670 1.367 . S
C2671 C2679 1.433 . S
C2672 H2668 0.929 . S
C2672 C2674 1.378 . S
C2672 C2676 1.350 . S
C2673 C2676 1.463 . S
C2673 C2678 1.350 . S
C2673 N2681 1.427 . S
C2674 H2665 0.930 . S
C2674 C2672 1.378 . S
C2674 C2675 1.367 . S
C2675 C2674 1.367 . S
C2675 C2677 1.433 . S
C2676 C2672 1.350 . S
C2676 C2673 1.463 . S
C2676 N2680 1.427 . S
C2677 H2667 0.929 . S
C2677 C2675 1.433 . S
C2677 N2680 1.384 . S
C2678 H2669 0.929 . S
C2678 C2670 1.378 . S
C2678 C2673 1.350 . S
C2679 H2666 0.929 . S
C2679 C2671 1.433 . S
C2679 N2681 1.384 . S
N2680 C2676 1.427 . S
N2680 C2677 1.384 . S
N2681 C2673 1.427 . S
N2681 C2679 1.384 . S
H2682 C2688 0.930 . S
H2683 C2692 0.930 . S
H2684 C2697 0.929 . S
H2685 C2695 0.929 . S
H2686 C2690 0.929 . S
H2687 C2696 0.929 . S
C2688 H2682 0.930 . S
C2688 C2689 1.367 . S
C2688 C2696 1.378 . S
C2689 C2688 1.367 . S
C2689 C2697 1.433 . S
C2690 H2686 0.929 . S
C2690 C2692 1.378 . S
C2690 C2694 1.350 . S
C2691 C2694 1.463 . S
C2691 C2696 1.350 . S
C2691 N2699 1.427 . S
C2692 H2683 0.930 . S
C2692 C2690 1.378 . S
C2692 C2693 1.367 . S
C2693 C2692 1.367 . S
C2693 C2695 1.433 . S
C2694 C2690 1.350 . S
C2694 C2691 1.463 . S
C2694 N2698 1.427 . S
C2695 H2685 0.929 . S
C2695 C2693 1.433 . S
C2695 N2698 1.384 . S
C2696 H2687 0.929 . S
C2696 C2688 1.378 . S
C2696 C2691 1.350 . S
C2697 H2684 0.929 . S
C2697 C2689 1.433 . S
C2697 N2699 1.384 . S
N2698 C2694 1.427 . S
N2698 C2695 1.384 . S
N2699 C2691 1.427 . S
N2699 C2697 1.384 . S
H2700 C2706 0.930 . S
H2701 C2710 0.930 . S
H2702 C2715 0.929 . S
H2703 C2713 0.929 . S
H2704 C2708 0.929 . S
H2705 C2714 0.929 . S
C2706 H2700 0.930 . S
C2706 C2707 1.367 . S
C2706 C2714 1.378 . S
C2707 C2706 1.367 . S
C2707 C2715 1.433 . S
C2708 H2704 0.929 . S
C2708 C2710 1.378 . S
C2708 C2712 1.350 . S
C2709 C2712 1.463 . S
C2709 C2714 1.350 . S
C2709 N2717 1.427 . S
C2710 H2701 0.930 . S
C2710 C2708 1.378 . S
C2710 C2711 1.367 . S
C2711 C2710 1.367 . S
C2711 C2713 1.433 . S
C2712 C2708 1.350 . S
C2712 C2709 1.463 . S
C2712 N2716 1.427 . S
C2713 H2703 0.929 . S
C2713 C2711 1.433 . S
C2713 N2716 1.384 . S
C2714 H2705 0.929 . S
C2714 C2706 1.378 . S
C2714 C2709 1.350 . S
C2715 H2702 0.929 . S
C2715 C2707 1.433 . S
C2715 N2717 1.384 . S
N2716 C2712 1.427 . S
N2716 C2713 1.384 . S
N2717 C2709 1.427 . S
N2717 C2715 1.384 . S
H2718 C2724 0.930 . S
H2719 C2728 0.930 . S
H2720 C2733 0.929 . S
H2721 C2731 0.929 . S
H2722 C2726 0.929 . S
H2723 C2732 0.929 . S
C2724 H2718 0.930 . S
C2724 C2725 1.367 . S
C2724 C2732 1.378 . S
C2725 C2724 1.367 . S
C2725 C2733 1.433 . S
C2726 H2722 0.929 . S
C2726 C2728 1.378 . S
C2726 C2730 1.350 . S
C2727 C2730 1.463 . S
C2727 C2732 1.350 . S
C2727 N2735 1.427 . S
C2728 H2719 0.930 . S
C2728 C2726 1.378 . S
C2728 C2729 1.367 . S
C2729 C2728 1.367 . S
C2729 C2731 1.433 . S
C2730 C2726 1.350 . S
C2730 C2727 1.463 . S
C2730 N2734 1.427 . S
C2731 H2721 0.929 . S
C2731 C2729 1.433 . S
C2731 N2734 1.384 . S
C2732 H2723 0.929 . S
C2732 C2724 1.378 . S
C2732 C2727 1.350 . S
C2733 H2720 0.929 . S
C2733 C2725 1.433 . S
C2733 N2735 1.384 . S
N2734 C2730 1.427 . S
N2734 C2731 1.384 . S
N2735 C2727 1.427 . S
N2735 C2733 1.384 . S
H2736 C2742 0.930 . S
H2737 C2746 0.930 . S
H2738 C2751 0.929 . S
H2739 C2749 0.929 . S
H2740 C2744 0.929 . S
H2741 C2750 0.929 . S
C2742 H2736 0.930 . S
C2742 C2743 1.367 . S
C2742 C2750 1.378 . S
C2743 C2742 1.367 . S
C2743 C2751 1.433 . S
C2744 H2740 0.929 . S
C2744 C2746 1.378 . S
C2744 C2748 1.350 . S
C2745 C2748 1.463 . S
C2745 C2750 1.350 . S
C2745 N2753 1.427 . S
C2746 H2737 0.930 . S
C2746 C2744 1.378 . S
C2746 C2747 1.367 . S
C2747 C2746 1.367 . S
C2747 C2749 1.433 . S
C2748 C2744 1.350 . S
C2748 C2745 1.463 . S
C2748 N2752 1.427 . S
C2749 H2739 0.929 . S
C2749 C2747 1.433 . S
C2749 N2752 1.384 . S
C2750 H2741 0.929 . S
C2750 C2742 1.378 . S
C2750 C2745 1.350 . S
C2751 H2738 0.929 . S
C2751 C2743 1.433 . S
C2751 N2753 1.384 . S
N2752 C2748 1.427 . S
N2752 C2749 1.384 . S
N2753 C2745 1.427 . S
N2753 C2751 1.384 . S
H2754 C2760 0.930 . S
H2755 C2764 0.930 . S
H2756 C2769 0.929 . S
H2757 C2767 0.929 . S
H2758 C2762 0.929 . S
H2759 C2768 0.929 . S
C2760 H2754 0.930 . S
C2760 C2761 1.367 . S
C2760 C2768 1.378 . S
C2761 C2760 1.367 . S
C2761 C2769 1.433 . S
C2762 H2758 0.929 . S
C2762 C2764 1.378 . S
C2762 C2766 1.350 . S
C2763 C2766 1.463 . S
C2763 C2768 1.350 . S
C2763 N2771 1.427 . S
C2764 H2755 0.930 . S
C2764 C2762 1.378 . S
C2764 C2765 1.367 . S
C2765 C2764 1.367 . S
C2765 C2767 1.433 . S
C2766 C2762 1.350 . S
C2766 C2763 1.463 . S
C2766 N2770 1.427 . S
C2767 H2757 0.929 . S
C2767 C2765 1.433 . S
C2767 N2770 1.384 . S
C2768 H2759 0.929 . S
C2768 C2760 1.378 . S
C2768 C2763 1.350 . S
C2769 H2756 0.929 . S
C2769 C2761 1.433 . S
C2769 N2771 1.384 . S
N2770 C2766 1.427 . S
N2770 C2767 1.384 . S
N2771 C2763 1.427 . S
N2771 C2769 1.384 . S
H2772 C2778 0.930 . S
H2773 C2782 0.930 . S
H2774 C2787 0.929 . S
H2775 C2785 0.929 . S
H2776 C2780 0.929 . S
H2777 C2786 0.929 . S
C2778 H2772 0.930 . S
C2778 C2779 1.367 . S
C2778 C2786 1.378 . S
C2779 C2778 1.367 . S
C2779 C2787 1.433 . S
C2780 H2776 0.929 . S
C2780 C2782 1.378 . S
C2780 C2784 1.350 . S
C2781 C2784 1.463 . S
C2781 C2786 1.350 . S
C2781 N2789 1.427 . S
C2782 H2773 0.930 . S
C2782 C2780 1.378 . S
C2782 C2783 1.367 . S
C2783 C2782 1.367 . S
C2783 C2785 1.433 . S
C2784 C2780 1.350 . S
C2784 C2781 1.463 . S
C2784 N2788 1.427 . S
C2785 H2775 0.929 . S
C2785 C2783 1.433 . S
C2785 N2788 1.384 . S
C2786 H2777 0.929 . S
C2786 C2778 1.378 . S
C2786 C2781 1.350 . S
C2787 H2774 0.929 . S
C2787 C2779 1.433 . S
C2787 N2789 1.384 . S
N2788 C2784 1.427 . S
N2788 C2785 1.384 . S
N2789 C2781 1.427 . S
N2789 C2787 1.384 . S
H2790 C2796 0.930 . S
H2791 C2800 0.930 . S
H2792 C2805 0.929 . S
H2793 C2803 0.929 . S
H2794 C2798 0.929 . S
H2795 C2804 0.929 . S
C2796 H2790 0.930 . S
C2796 C2797 1.367 . S
C2796 C2804 1.378 . S
C2797 C2796 1.367 . S
C2797 C2805 1.433 . S
C2798 H2794 0.929 . S
C2798 C2800 1.378 . S
C2798 C2802 1.350 . S
C2799 C2802 1.463 1_565 S
C2799 C2804 1.350 . S
C2799 N2807 1.427 . S
C2800 H2791 0.930 . S
C2800 C2798 1.378 . S
C2800 C2801 1.367 . S
C2801 C2800 1.367 . S
C2801 C2803 1.433 . S
C2802 C2798 1.350 . S
C2802 C2799 1.463 1_545 S
C2802 N2806 1.427 . S
C2803 H2793 0.929 . S
C2803 C2801 1.433 . S
C2803 N2806 1.384 . S
C2804 H2795 0.929 . S
C2804 C2796 1.378 . S
C2804 C2799 1.350 . S
C2805 H2792 0.929 . S
C2805 C2797 1.433 . S
C2805 N2807 1.384 . S
N2806 C2802 1.427 . S
N2806 C2803 1.384 . S
N2807 C2799 1.427 . S
N2807 C2805 1.384 . S
H2808 C2814 0.930 . S
H2809 C2818 0.930 . S
H2810 C2823 0.929 . S
H2811 C2821 0.929 . S
H2812 C2816 0.929 . S
H2813 C2822 0.929 . S
C2814 H2808 0.930 . S
C2814 C2815 1.367 . S
C2814 C2822 1.378 . S
C2815 C2814 1.367 . S
C2815 C2823 1.433 . S
C2816 H2812 0.929 . S
C2816 C2818 1.378 . S
C2816 C2820 1.350 . S
C2817 C2820 1.463 1_655 S
C2817 C2822 1.350 . S
C2817 N2825 1.427 . S
C2818 H2809 0.930 . S
C2818 C2816 1.378 . S
C2818 C2819 1.367 . S
C2819 C2818 1.367 . S
C2819 C2821 1.433 . S
C2820 C2816 1.350 . S
C2820 C2817 1.463 1_455 S
C2820 N2824 1.427 . S
C2821 H2811 0.929 . S
C2821 C2819 1.433 . S
C2821 N2824 1.384 . S
C2822 H2813 0.929 . S
C2822 C2814 1.378 . S
C2822 C2817 1.350 . S
C2823 H2810 0.929 . S
C2823 C2815 1.433 . S
C2823 N2825 1.384 . S
N2824 C2820 1.427 . S
N2824 C2821 1.384 . S
N2825 C2817 1.427 . S
N2825 C2823 1.384 . S
H2826 C2832 0.930 . S
H2827 C2836 0.930 . S
H2828 C2841 0.929 . S
H2829 C2839 0.929 . S
H2830 C2834 0.929 . S
H2831 C2840 0.929 . S
C2832 H2826 0.930 . S
C2832 C2833 1.367 . S
C2832 C2840 1.378 . S
C2833 C2832 1.367 . S
C2833 C2841 1.433 . S
C2834 H2830 0.929 . S
C2834 C2836 1.378 . S
C2834 C2838 1.350 . S
C2835 C2838 1.463 . S
C2835 C2840 1.350 . S
C2835 N2843 1.427 . S
C2836 H2827 0.930 . S
C2836 C2834 1.378 . S
C2836 C2837 1.367 . S
C2837 C2836 1.367 . S
C2837 C2839 1.433 . S
C2838 C2834 1.350 . S
C2838 C2835 1.463 . S
C2838 N2842 1.427 . S
C2839 H2829 0.929 . S
C2839 C2837 1.433 . S
C2839 N2842 1.384 . S
C2840 H2831 0.929 . S
C2840 C2832 1.378 . S
C2840 C2835 1.350 . S
C2841 H2828 0.929 . S
C2841 C2833 1.433 . S
C2841 N2843 1.384 . S
N2842 C2838 1.427 . S
N2842 C2839 1.384 . S
N2843 C2835 1.427 . S
N2843 C2841 1.384 . S
H2844 C2850 0.930 . S
H2845 C2854 0.930 . S
H2846 C2859 0.929 . S
H2847 C2857 0.929 . S
H2848 C2852 0.929 . S
H2849 C2858 0.929 . S
C2850 H2844 0.930 . S
C2850 C2851 1.367 . S
C2850 C2858 1.378 . S
C2851 C2850 1.367 . S
C2851 C2859 1.433 . S
C2852 H2848 0.929 . S
C2852 C2854 1.378 . S
C2852 C2856 1.350 . S
C2853 C2856 1.463 1_545 S
C2853 C2858 1.350 . S
C2853 N2861 1.427 . S
C2854 H2845 0.930 . S
C2854 C2852 1.378 . S
C2854 C2855 1.367 . S
C2855 C2854 1.367 . S
C2855 C2857 1.433 . S
C2856 C2852 1.350 . S
C2856 C2853 1.463 1_565 S
C2856 N2860 1.427 . S
C2857 H2847 0.929 . S
C2857 C2855 1.433 . S
C2857 N2860 1.384 . S
C2858 H2849 0.929 . S
C2858 C2850 1.378 . S
C2858 C2853 1.350 . S
C2859 H2846 0.929 . S
C2859 C2851 1.433 . S
C2859 N2861 1.384 . S
N2860 C2856 1.427 . S
N2860 C2857 1.384 . S
N2861 C2853 1.427 . S
N2861 C2859 1.384 . S
H2862 C2868 0.930 . S
H2863 C2872 0.930 . S
H2864 C2877 0.929 . S
H2865 C2875 0.929 . S
H2866 C2870 0.929 . S
H2867 C2876 0.929 . S
C2868 H2862 0.930 . S
C2868 C2869 1.367 . S
C2868 C2876 1.378 . S
C2869 C2868 1.367 . S
C2869 C2877 1.433 . S
C2870 H2866 0.929 . S
C2870 C2872 1.378 . S
C2870 C2874 1.350 . S
C2871 C2874 1.463 1_655 S
C2871 C2876 1.350 . S
C2871 N2879 1.427 . S
C2872 H2863 0.930 . S
C2872 C2870 1.378 . S
C2872 C2873 1.367 . S
C2873 C2872 1.367 . S
C2873 C2875 1.433 . S
C2874 C2870 1.350 . S
C2874 C2871 1.463 1_455 S
C2874 N2878 1.427 . S
C2875 H2865 0.929 . S
C2875 C2873 1.433 . S
C2875 N2878 1.384 . S
C2876 H2867 0.929 . S
C2876 C2868 1.378 . S
C2876 C2871 1.350 . S
C2877 H2864 0.929 . S
C2877 C2869 1.433 . S
C2877 N2879 1.384 . S
N2878 C2874 1.427 . S
N2878 C2875 1.384 . S
N2879 C2871 1.427 . S
N2879 C2877 1.384 . S
H2880 C2886 0.930 . S
H2881 C2890 0.930 . S
H2882 C2895 0.929 . S
H2883 C2893 0.929 . S
H2884 C2888 0.929 . S
H2885 C2894 0.929 . S
C2886 H2880 0.930 . S
C2886 C2887 1.367 . S
C2886 C2894 1.378 . S
C2887 C2886 1.367 . S
C2887 C2895 1.433 . S
C2888 H2884 0.929 . S
C2888 C2890 1.378 . S
C2888 C2892 1.350 . S
C2889 C2892 1.463 . S
C2889 C2894 1.350 . S
C2889 N2897 1.427 . S
C2890 H2881 0.930 . S
C2890 C2888 1.378 . S
C2890 C2891 1.367 . S
C2891 C2890 1.367 . S
C2891 C2893 1.433 . S
C2892 C2888 1.350 . S
C2892 C2889 1.463 . S
C2892 N2896 1.427 . S
C2893 H2883 0.929 . S
C2893 C2891 1.433 . S
C2893 N2896 1.384 . S
C2894 H2885 0.929 . S
C2894 C2886 1.378 . S
C2894 C2889 1.350 . S
C2895 H2882 0.929 . S
C2895 C2887 1.433 . S
C2895 N2897 1.384 . S
N2896 C2892 1.427 . S
N2896 C2893 1.384 . S
N2897 C2889 1.427 . S
N2897 C2895 1.384 . S
H2898 C2904 0.930 . S
H2899 C2908 0.930 . S
H2900 C2913 0.929 . S
H2901 C2911 0.929 . S
H2902 C2906 0.929 . S
H2903 C2912 0.929 . S
C2904 H2898 0.930 . S
C2904 C2905 1.367 . S
C2904 C2912 1.378 . S
C2905 C2904 1.367 . S
C2905 C2913 1.433 . S
C2906 H2902 0.929 . S
C2906 C2908 1.378 . S
C2906 C2910 1.350 . S
C2907 C2910 1.463 . S
C2907 C2912 1.350 . S
C2907 N2915 1.427 . S
C2908 H2899 0.930 . S
C2908 C2906 1.378 . S
C2908 C2909 1.367 . S
C2909 C2908 1.367 . S
C2909 C2911 1.433 . S
C2910 C2906 1.350 . S
C2910 C2907 1.463 . S
C2910 N2914 1.427 . S
C2911 H2901 0.929 . S
C2911 C2909 1.433 . S
C2911 N2914 1.384 . S
C2912 H2903 0.929 . S
C2912 C2904 1.378 . S
C2912 C2907 1.350 . S
C2913 H2900 0.929 . S
C2913 C2905 1.433 . S
C2913 N2915 1.384 . S
N2914 C2910 1.427 . S
N2914 C2911 1.384 . S
N2915 C2907 1.427 . S
N2915 C2913 1.384 . S
H2916 C2922 0.930 . S
H2917 C2926 0.930 . S
H2918 C2931 0.929 . S
H2919 C2929 0.929 . S
H2920 C2924 0.929 . S
H2921 C2930 0.929 . S
C2922 H2916 0.930 . S
C2922 C2923 1.367 . S
C2922 C2930 1.378 . S
C2923 C2922 1.367 . S
C2923 C2931 1.433 . S
C2924 H2920 0.929 . S
C2924 C2926 1.378 . S
C2924 C2928 1.350 . S
C2925 C2928 1.463 . S
C2925 C2930 1.350 . S
C2925 N2933 1.427 . S
C2926 H2917 0.930 . S
C2926 C2924 1.378 . S
C2926 C2927 1.367 . S
C2927 C2926 1.367 . S
C2927 C2929 1.433 . S
C2928 C2924 1.350 . S
C2928 C2925 1.463 . S
C2928 N2932 1.427 . S
C2929 H2919 0.929 . S
C2929 C2927 1.433 . S
C2929 N2932 1.384 . S
C2930 H2921 0.929 . S
C2930 C2922 1.378 . S
C2930 C2925 1.350 . S
C2931 H2918 0.929 . S
C2931 C2923 1.433 . S
C2931 N2933 1.384 . S
N2932 C2928 1.427 . S
N2932 C2929 1.384 . S
N2933 C2925 1.427 . S
N2933 C2931 1.384 . S
H2934 C2940 0.930 . S
H2935 C2944 0.930 . S
H2936 C2949 0.929 . S
H2937 C2947 0.929 . S
H2938 C2942 0.929 . S
H2939 C2948 0.929 . S
C2940 H2934 0.930 . S
C2940 C2941 1.367 . S
C2940 C2948 1.378 . S
C2941 C2940 1.367 . S
C2941 C2949 1.433 . S
C2942 H2938 0.929 . S
C2942 C2944 1.378 . S
C2942 C2946 1.350 . S
C2943 C2946 1.463 . S
C2943 C2948 1.350 . S
C2943 N2951 1.427 . S
C2944 H2935 0.930 . S
C2944 C2942 1.378 . S
C2944 C2945 1.367 . S
C2945 C2944 1.367 . S
C2945 C2947 1.433 . S
C2946 C2942 1.350 . S
C2946 C2943 1.463 . S
C2946 N2950 1.427 . S
C2947 H2937 0.929 . S
C2947 C2945 1.433 . S
C2947 N2950 1.384 . S
C2948 H2939 0.929 . S
C2948 C2940 1.378 . S
C2948 C2943 1.350 . S
C2949 H2936 0.929 . S
C2949 C2941 1.433 . S
C2949 N2951 1.384 . S
N2950 C2946 1.427 . S
N2950 C2947 1.384 . S
N2951 C2943 1.427 . S
N2951 C2949 1.384 . S
H2952 C2958 0.930 . S
H2953 C2962 0.930 . S
H2954 C2967 0.929 . S
H2955 C2965 0.929 . S
H2956 C2960 0.929 . S
H2957 C2966 0.929 . S
C2958 H2952 0.930 . S
C2958 C2959 1.367 . S
C2958 C2966 1.378 . S
C2959 C2958 1.367 . S
C2959 C2967 1.433 . S
C2960 H2956 0.929 . S
C2960 C2962 1.378 . S
C2960 C2964 1.350 . S
C2961 C2964 1.463 . S
C2961 C2966 1.350 . S
C2961 N2969 1.427 . S
C2962 H2953 0.930 . S
C2962 C2960 1.378 . S
C2962 C2963 1.367 . S
C2963 C2962 1.367 . S
C2963 C2965 1.433 . S
C2964 C2960 1.350 . S
C2964 C2961 1.463 . S
C2964 N2968 1.427 . S
C2965 H2955 0.929 . S
C2965 C2963 1.433 . S
C2965 N2968 1.384 . S
C2966 H2957 0.929 . S
C2966 C2958 1.378 . S
C2966 C2961 1.350 . S
C2967 H2954 0.929 . S
C2967 C2959 1.433 . S
C2967 N2969 1.384 . S
N2968 C2964 1.427 . S
N2968 C2965 1.384 . S
N2969 C2961 1.427 . S
N2969 C2967 1.384 . S
H2970 C2976 0.930 . S
H2971 C2980 0.930 . S
H2972 C2985 0.929 . S
H2973 C2983 0.929 . S
H2974 C2978 0.929 . S
H2975 C2984 0.929 . S
C2976 H2970 0.930 . S
C2976 C2977 1.367 . S
C2976 C2984 1.378 . S
C2977 C2976 1.367 . S
C2977 C2985 1.433 . S
C2978 H2974 0.929 . S
C2978 C2980 1.378 . S
C2978 C2982 1.350 . S
C2979 C2982 1.463 . S
C2979 C2984 1.350 . S
C2979 N2987 1.427 . S
C2980 H2971 0.930 . S
C2980 C2978 1.378 . S
C2980 C2981 1.367 . S
C2981 C2980 1.367 . S
C2981 C2983 1.433 . S
C2982 C2978 1.350 . S
C2982 C2979 1.463 . S
C2982 N2986 1.427 . S
C2983 H2973 0.929 . S
C2983 C2981 1.433 . S
C2983 N2986 1.384 . S
C2984 H2975 0.929 . S
C2984 C2976 1.378 . S
C2984 C2979 1.350 . S
C2985 H2972 0.929 . S
C2985 C2977 1.433 . S
C2985 N2987 1.384 . S
N2986 C2982 1.427 . S
N2986 C2983 1.384 . S
N2987 C2979 1.427 . S
N2987 C2985 1.384 . S
H2988 C2994 0.930 . S
H2989 C2998 0.930 . S
H2990 C3003 0.929 . S
H2991 C3001 0.929 . S
H2992 C2996 0.929 . S
H2993 C3002 0.929 . S
C2994 H2988 0.930 . S
C2994 C2995 1.367 . S
C2994 C3002 1.378 . S
C2995 C2994 1.367 . S
C2995 C3003 1.433 . S
C2996 H2992 0.929 . S
C2996 C2998 1.378 . S
C2996 C3000 1.350 . S
C2997 C3000 1.463 . S
C2997 C3002 1.350 . S
C2997 N3005 1.427 . S
C2998 H2989 0.930 . S
C2998 C2996 1.378 . S
C2998 C2999 1.367 . S
C2999 C2998 1.367 . S
C2999 C3001 1.433 . S
C3000 C2996 1.350 . S
C3000 C2997 1.463 . S
C3000 N3004 1.427 . S
C3001 H2991 0.929 . S
C3001 C2999 1.433 . S
C3001 N3004 1.384 . S
C3002 H2993 0.929 . S
C3002 C2994 1.378 . S
C3002 C2997 1.350 . S
C3003 H2990 0.929 . S
C3003 C2995 1.433 . S
C3003 N3005 1.384 . S
N3004 C3000 1.427 . S
N3004 C3001 1.384 . S
N3005 C2997 1.427 . S
N3005 C3003 1.384 . S
H3006 C3012 0.930 . S
H3007 C3016 0.930 . S
H3008 C3021 0.929 . S
H3009 C3019 0.929 . S
H3010 C3014 0.929 . S
H3011 C3020 0.929 . S
C3012 H3006 0.930 . S
C3012 C3013 1.367 . S
C3012 C3020 1.378 . S
C3013 C3012 1.367 . S
C3013 C3021 1.433 . S
C3014 H3010 0.929 . S
C3014 C3016 1.378 . S
C3014 C3018 1.350 . S
C3015 C3018 1.463 . S
C3015 C3020 1.350 . S
C3015 N3023 1.427 . S
C3016 H3007 0.930 . S
C3016 C3014 1.378 . S
C3016 C3017 1.367 . S
C3017 C3016 1.367 . S
C3017 C3019 1.433 . S
C3018 C3014 1.350 . S
C3018 C3015 1.463 . S
C3018 N3022 1.427 . S
C3019 H3009 0.929 . S
C3019 C3017 1.433 . S
C3019 N3022 1.384 . S
C3020 H3011 0.929 . S
C3020 C3012 1.378 . S
C3020 C3015 1.350 . S
C3021 H3008 0.929 . S
C3021 C3013 1.433 . S
C3021 N3023 1.384 . S
N3022 C3018 1.427 . S
N3022 C3019 1.384 . S
N3023 C3015 1.427 . S
N3023 C3021 1.384 . S
H3024 C3030 0.930 . S
H3025 C3034 0.930 . S
H3026 C3039 0.929 . S
H3027 C3037 0.929 . S
H3028 C3032 0.929 . S
H3029 C3038 0.929 . S
C3030 H3024 0.930 . S
C3030 C3031 1.367 . S
C3030 C3038 1.378 . S
C3031 C3030 1.367 . S
C3031 C3039 1.433 . S
C3032 H3028 0.929 . S
C3032 C3034 1.378 . S
C3032 C3036 1.350 . S
C3033 C3036 1.463 . S
C3033 C3038 1.350 . S
C3033 N3041 1.427 . S
C3034 H3025 0.930 . S
C3034 C3032 1.378 . S
C3034 C3035 1.367 . S
C3035 C3034 1.367 . S
C3035 C3037 1.433 . S
C3036 C3032 1.350 . S
C3036 C3033 1.463 . S
C3036 N3040 1.427 . S
C3037 H3027 0.929 . S
C3037 C3035 1.433 . S
C3037 N3040 1.384 . S
C3038 H3029 0.929 . S
C3038 C3030 1.378 . S
C3038 C3033 1.350 . S
C3039 H3026 0.929 . S
C3039 C3031 1.433 . S
C3039 N3041 1.384 . S
N3040 C3036 1.427 . S
N3040 C3037 1.384 . S
N3041 C3033 1.427 . S
N3041 C3039 1.384 . S
H3042 C3048 0.930 . S
H3043 C3052 0.930 . S
H3044 C3057 0.929 . S
H3045 C3055 0.929 . S
H3046 C3050 0.929 . S
H3047 C3056 0.929 . S
C3048 H3042 0.930 . S
C3048 C3049 1.367 . S
C3048 C3056 1.378 . S
C3049 C3048 1.367 . S
C3049 C3057 1.433 . S
C3050 H3046 0.929 . S
C3050 C3052 1.378 . S
C3050 C3054 1.350 . S
C3051 C3054 1.463 . S
C3051 C3056 1.350 . S
C3051 N3059 1.427 . S
C3052 H3043 0.930 . S
C3052 C3050 1.378 . S
C3052 C3053 1.367 . S
C3053 C3052 1.367 . S
C3053 C3055 1.433 . S
C3054 C3050 1.350 . S
C3054 C3051 1.463 . S
C3054 N3058 1.427 . S
C3055 H3045 0.929 . S
C3055 C3053 1.433 . S
C3055 N3058 1.384 . S
C3056 H3047 0.929 . S
C3056 C3048 1.378 . S
C3056 C3051 1.350 . S
C3057 H3044 0.929 . S
C3057 C3049 1.433 . S
C3057 N3059 1.384 . S
N3058 C3054 1.427 . S
N3058 C3055 1.384 . S
N3059 C3051 1.427 . S
N3059 C3057 1.384 . S
H3060 C3066 0.930 . S
H3061 C3070 0.930 . S
H3062 C3075 0.929 . S
H3063 C3073 0.929 . S
H3064 C3068 0.929 . S
H3065 C3074 0.929 . S
C3066 H3060 0.930 . S
C3066 C3067 1.367 . S
C3066 C3074 1.378 . S
C3067 C3066 1.367 . S
C3067 C3075 1.433 . S
C3068 H3064 0.929 . S
C3068 C3070 1.378 . S
C3068 C3072 1.350 . S
C3069 C3072 1.463 . S
C3069 C3074 1.350 . S
C3069 N3077 1.427 . S
C3070 H3061 0.930 . S
C3070 C3068 1.378 . S
C3070 C3071 1.367 . S
C3071 C3070 1.367 . S
C3071 C3073 1.433 . S
C3072 C3068 1.350 . S
C3072 C3069 1.463 . S
C3072 N3076 1.427 . S
C3073 H3063 0.929 . S
C3073 C3071 1.433 . S
C3073 N3076 1.384 . S
C3074 H3065 0.929 . S
C3074 C3066 1.378 . S
C3074 C3069 1.350 . S
C3075 H3062 0.929 . S
C3075 C3067 1.433 . S
C3075 N3077 1.384 . S
N3076 C3072 1.427 . S
N3076 C3073 1.384 . S
N3077 C3069 1.427 . S
N3077 C3075 1.384 . S
H3078 C3084 0.930 . S
H3079 C3088 0.930 . S
H3080 C3093 0.929 . S
H3081 C3091 0.929 . S
H3082 C3086 0.929 . S
H3083 C3092 0.929 . S
C3084 H3078 0.930 . S
C3084 C3085 1.367 . S
C3084 C3092 1.378 . S
C3085 C3084 1.367 . S
C3085 C3093 1.433 . S
C3086 H3082 0.929 . S
C3086 C3088 1.378 . S
C3086 C3090 1.350 . S
C3087 C3090 1.463 . S
C3087 C3092 1.350 . S
C3087 N3095 1.427 . S
C3088 H3079 0.930 . S
C3088 C3086 1.378 . S
C3088 C3089 1.367 . S
C3089 C3088 1.367 . S
C3089 C3091 1.433 . S
C3090 C3086 1.350 . S
C3090 C3087 1.463 . S
C3090 N3094 1.427 . S
C3091 H3081 0.929 . S
C3091 C3089 1.433 . S
C3091 N3094 1.384 . S
C3092 H3083 0.929 . S
C3092 C3084 1.378 . S
C3092 C3087 1.350 . S
C3093 H3080 0.929 . S
C3093 C3085 1.433 . S
C3093 N3095 1.384 . S
N3094 C3090 1.427 . S
N3094 C3091 1.384 . S
N3095 C3087 1.427 . S
N3095 C3093 1.384 . S
H3096 C3102 0.930 . S
H3097 C3106 0.930 . S
H3098 C3111 0.929 . S
H3099 C3109 0.929 . S
H3100 C3104 0.929 . S
H3101 C3110 0.929 . S
C3102 H3096 0.930 . S
C3102 C3103 1.367 . S
C3102 C3110 1.378 . S
C3103 C3102 1.367 . S
C3103 C3111 1.433 . S
C3104 H3100 0.929 . S
C3104 C3106 1.378 . S
C3104 C3108 1.350 . S
C3105 C3108 1.463 . S
C3105 C3110 1.350 . S
C3105 N3113 1.427 . S
C3106 H3097 0.930 . S
C3106 C3104 1.378 . S
C3106 C3107 1.367 . S
C3107 C3106 1.367 . S
C3107 C3109 1.433 . S
C3108 C3104 1.350 . S
C3108 C3105 1.463 . S
C3108 N3112 1.427 . S
C3109 H3099 0.929 . S
C3109 C3107 1.433 . S
C3109 N3112 1.384 . S
C3110 H3101 0.929 . S
C3110 C3102 1.378 . S
C3110 C3105 1.350 . S
C3111 H3098 0.929 . S
C3111 C3103 1.433 . S
C3111 N3113 1.384 . S
N3112 C3108 1.427 . S
N3112 C3109 1.384 . S
N3113 C3105 1.427 . S
N3113 C3111 1.384 . S
H3114 C3120 0.930 . S
H3115 C3124 0.930 . S
H3116 C3129 0.929 . S
H3117 C3127 0.929 . S
H3118 C3122 0.929 . S
H3119 C3128 0.929 . S
C3120 H3114 0.930 . S
C3120 C3121 1.367 . S
C3120 C3128 1.378 . S
C3121 C3120 1.367 . S
C3121 C3129 1.433 . S
C3122 H3118 0.929 . S
C3122 C3124 1.378 . S
C3122 C3126 1.350 . S
C3123 C3126 1.463 . S
C3123 C3128 1.350 . S
C3123 N3131 1.427 . S
C3124 H3115 0.930 . S
C3124 C3122 1.378 . S
C3124 C3125 1.367 . S
C3125 C3124 1.367 . S
C3125 C3127 1.433 . S
C3126 C3122 1.350 . S
C3126 C3123 1.463 . S
C3126 N3130 1.427 . S
C3127 H3117 0.929 . S
C3127 C3125 1.433 . S
C3127 N3130 1.384 . S
C3128 H3119 0.929 . S
C3128 C3120 1.378 . S
C3128 C3123 1.350 . S
C3129 H3116 0.929 . S
C3129 C3121 1.433 . S
C3129 N3131 1.384 . S
N3130 C3126 1.427 . S
N3130 C3127 1.384 . S
N3131 C3123 1.427 . S
N3131 C3129 1.384 . S
H3132 C3138 0.930 . S
H3133 C3142 0.930 . S
H3134 C3147 0.929 . S
H3135 C3145 0.929 . S
H3136 C3140 0.929 . S
H3137 C3146 0.929 . S
C3138 H3132 0.930 . S
C3138 C3139 1.367 . S
C3138 C3146 1.378 . S
C3139 C3138 1.367 . S
C3139 C3147 1.433 . S
C3140 H3136 0.929 . S
C3140 C3142 1.378 . S
C3140 C3144 1.350 . S
C3141 C3144 1.463 . S
C3141 C3146 1.350 . S
C3141 N3149 1.427 . S
C3142 H3133 0.930 . S
C3142 C3140 1.378 . S
C3142 C3143 1.367 . S
C3143 C3142 1.367 . S
C3143 C3145 1.433 . S
C3144 C3140 1.350 . S
C3144 C3141 1.463 . S
C3144 N3148 1.427 . S
C3145 H3135 0.929 . S
C3145 C3143 1.433 . S
C3145 N3148 1.384 . S
C3146 H3137 0.929 . S
C3146 C3138 1.378 . S
C3146 C3141 1.350 . S
C3147 H3134 0.929 . S
C3147 C3139 1.433 . S
C3147 N3149 1.384 . S
N3148 C3144 1.427 . S
N3148 C3145 1.384 . S
N3149 C3141 1.427 . S
N3149 C3147 1.384 . S
H3150 C3156 0.930 . S
H3151 C3160 0.930 . S
H3152 C3165 0.929 . S
H3153 C3163 0.929 . S
H3154 C3158 0.929 . S
H3155 C3164 0.929 . S
C3156 H3150 0.930 . S
C3156 C3157 1.367 . S
C3156 C3164 1.378 . S
C3157 C3156 1.367 . S
C3157 C3165 1.433 . S
C3158 H3154 0.929 . S
C3158 C3160 1.378 . S
C3158 C3162 1.350 . S
C3159 C3162 1.463 . S
C3159 C3164 1.350 . S
C3159 N3167 1.427 . S
C3160 H3151 0.930 . S
C3160 C3158 1.378 . S
C3160 C3161 1.367 . S
C3161 C3160 1.367 . S
C3161 C3163 1.433 . S
C3162 C3158 1.350 . S
C3162 C3159 1.463 . S
C3162 N3166 1.427 . S
C3163 H3153 0.929 . S
C3163 C3161 1.433 . S
C3163 N3166 1.384 . S
C3164 H3155 0.929 . S
C3164 C3156 1.378 . S
C3164 C3159 1.350 . S
C3165 H3152 0.929 . S
C3165 C3157 1.433 . S
C3165 N3167 1.384 . S
N3166 C3162 1.427 . S
N3166 C3163 1.384 . S
N3167 C3159 1.427 . S
N3167 C3165 1.384 . S
H3168 C3174 0.930 . S
H3169 C3178 0.930 . S
H3170 C3183 0.929 . S
H3171 C3181 0.929 . S
H3172 C3176 0.929 . S
H3173 C3182 0.929 . S
C3174 H3168 0.930 . S
C3174 C3175 1.367 . S
C3174 C3182 1.378 . S
C3175 C3174 1.367 . S
C3175 C3183 1.433 . S
C3176 H3172 0.929 . S
C3176 C3178 1.378 . S
C3176 C3180 1.350 . S
C3177 C3180 1.463 . S
C3177 C3182 1.350 . S
C3177 N3185 1.427 . S
C3178 H3169 0.930 . S
C3178 C3176 1.378 . S
C3178 C3179 1.367 . S
C3179 C3178 1.367 . S
C3179 C3181 1.433 . S
C3180 C3176 1.350 . S
C3180 C3177 1.463 . S
C3180 N3184 1.427 . S
C3181 H3171 0.929 . S
C3181 C3179 1.433 . S
C3181 N3184 1.384 . S
C3182 H3173 0.929 . S
C3182 C3174 1.378 . S
C3182 C3177 1.350 . S
C3183 H3170 0.929 . S
C3183 C3175 1.433 . S
C3183 N3185 1.384 . S
N3184 C3180 1.427 . S
N3184 C3181 1.384 . S
N3185 C3177 1.427 . S
N3185 C3183 1.384 . S
H3186 C3192 0.930 . S
H3187 C3196 0.930 . S
H3188 C3201 0.929 . S
H3189 C3199 0.929 . S
H3190 C3194 0.929 . S
H3191 C3200 0.929 . S
C3192 H3186 0.930 . S
C3192 C3193 1.367 . S
C3192 C3200 1.378 . S
C3193 C3192 1.367 . S
C3193 C3201 1.433 . S
C3194 H3190 0.929 . S
C3194 C3196 1.378 . S
C3194 C3198 1.350 . S
C3195 C3198 1.463 . S
C3195 C3200 1.350 . S
C3195 N3203 1.427 . S
C3196 H3187 0.930 . S
C3196 C3194 1.378 . S
C3196 C3197 1.367 . S
C3197 C3196 1.367 . S
C3197 C3199 1.433 . S
C3198 C3194 1.350 . S
C3198 C3195 1.463 . S
C3198 N3202 1.427 . S
C3199 H3189 0.929 . S
C3199 C3197 1.433 . S
C3199 N3202 1.384 . S
C3200 H3191 0.929 . S
C3200 C3192 1.378 . S
C3200 C3195 1.350 . S
C3201 H3188 0.929 . S
C3201 C3193 1.433 . S
C3201 N3203 1.384 . S
N3202 C3198 1.427 . S
N3202 C3199 1.384 . S
N3203 C3195 1.427 . S
N3203 C3201 1.384 . S
H3204 C3210 0.930 . S
H3205 C3214 0.930 . S
H3206 C3219 0.929 . S
H3207 C3217 0.929 . S
H3208 C3212 0.929 . S
H3209 C3218 0.929 . S
C3210 H3204 0.930 . S
C3210 C3211 1.367 . S
C3210 C3218 1.378 . S
C3211 C3210 1.367 . S
C3211 C3219 1.433 . S
C3212 H3208 0.929 . S
C3212 C3214 1.378 . S
C3212 C3216 1.350 . S
C3213 C3216 1.463 . S
C3213 C3218 1.350 . S
C3213 N3221 1.427 . S
C3214 H3205 0.930 . S
C3214 C3212 1.378 . S
C3214 C3215 1.367 . S
C3215 C3214 1.367 . S
C3215 C3217 1.433 . S
C3216 C3212 1.350 . S
C3216 C3213 1.463 . S
C3216 N3220 1.427 . S
C3217 H3207 0.929 . S
C3217 C3215 1.433 . S
C3217 N3220 1.384 . S
C3218 H3209 0.929 . S
C3218 C3210 1.378 . S
C3218 C3213 1.350 . S
C3219 H3206 0.929 . S
C3219 C3211 1.433 . S
C3219 N3221 1.384 . S
N3220 C3216 1.427 . S
N3220 C3217 1.384 . S
N3221 C3213 1.427 . S
N3221 C3219 1.384 . S
H3222 C3228 0.930 . S
H3223 C3232 0.930 . S
H3224 C3237 0.929 . S
H3225 C3235 0.929 . S
H3226 C3230 0.929 . S
H3227 C3236 0.929 . S
C3228 H3222 0.930 . S
C3228 C3229 1.367 . S
C3228 C3236 1.378 . S
C3229 C3228 1.367 . S
C3229 C3237 1.433 . S
C3230 H3226 0.929 . S
C3230 C3232 1.378 . S
C3230 C3234 1.350 . S
C3231 C3234 1.463 . S
C3231 C3236 1.350 . S
C3231 N3239 1.427 . S
C3232 H3223 0.930 . S
C3232 C3230 1.378 . S
C3232 C3233 1.367 . S
C3233 C3232 1.367 . S
C3233 C3235 1.433 . S
C3234 C3230 1.350 . S
C3234 C3231 1.463 . S
C3234 N3238 1.427 . S
C3235 H3225 0.929 . S
C3235 C3233 1.433 . S
C3235 N3238 1.384 . S
C3236 H3227 0.929 . S
C3236 C3228 1.378 . S
C3236 C3231 1.350 . S
C3237 H3224 0.929 . S
C3237 C3229 1.433 . S
C3237 N3239 1.384 . S
N3238 C3234 1.427 . S
N3238 C3235 1.384 . S
N3239 C3231 1.427 . S
N3239 C3237 1.384 . S
H3240 C3246 0.930 . S
H3241 C3250 0.930 . S
H3242 C3255 0.929 . S
H3243 C3253 0.929 . S
H3244 C3248 0.929 . S
H3245 C3254 0.929 . S
C3246 H3240 0.930 . S
C3246 C3247 1.367 . S
C3246 C3254 1.378 . S
C3247 C3246 1.367 . S
C3247 C3255 1.433 . S
C3248 H3244 0.929 . S
C3248 C3250 1.378 . S
C3248 C3252 1.350 . S
C3249 C3252 1.463 . S
C3249 C3254 1.350 . S
C3249 N3257 1.427 . S
C3250 H3241 0.930 . S
C3250 C3248 1.378 . S
C3250 C3251 1.367 . S
C3251 C3250 1.367 . S
C3251 C3253 1.433 . S
C3252 C3248 1.350 . S
C3252 C3249 1.463 . S
C3252 N3256 1.427 . S
C3253 H3243 0.929 . S
C3253 C3251 1.433 . S
C3253 N3256 1.384 . S
C3254 H3245 0.929 . S
C3254 C3246 1.378 . S
C3254 C3249 1.350 . S
C3255 H3242 0.929 . S
C3255 C3247 1.433 . S
C3255 N3257 1.384 . S
N3256 C3252 1.427 . S
N3256 C3253 1.384 . S
N3257 C3249 1.427 . S
N3257 C3255 1.384 . S
H3258 C3264 0.930 . S
H3259 C3268 0.930 . S
H3260 C3273 0.929 . S
H3261 C3271 0.929 . S
H3262 C3266 0.929 . S
H3263 C3272 0.929 . S
C3264 H3258 0.930 . S
C3264 C3265 1.367 . S
C3264 C3272 1.378 . S
C3265 C3264 1.367 . S
C3265 C3273 1.433 . S
C3266 H3262 0.929 . S
C3266 C3268 1.378 . S
C3266 C3270 1.350 . S
C3267 C3270 1.463 . S
C3267 C3272 1.350 . S
C3267 N3275 1.427 . S
C3268 H3259 0.930 . S
C3268 C3266 1.378 . S
C3268 C3269 1.367 . S
C3269 C3268 1.367 . S
C3269 C3271 1.433 . S
C3270 C3266 1.350 . S
C3270 C3267 1.463 . S
C3270 N3274 1.427 . S
C3271 H3261 0.929 . S
C3271 C3269 1.433 . S
C3271 N3274 1.384 . S
C3272 H3263 0.929 . S
C3272 C3264 1.378 . S
C3272 C3267 1.350 . S
C3273 H3260 0.929 . S
C3273 C3265 1.433 . S
C3273 N3275 1.384 . S
N3274 C3270 1.427 . S
N3274 C3271 1.384 . S
N3275 C3267 1.427 . S
N3275 C3273 1.384 . S
H3276 C3282 0.930 . S
H3277 C3286 0.930 . S
H3278 C3291 0.929 . S
H3279 C3289 0.929 . S
H3280 C3284 0.929 . S
H3281 C3290 0.929 . S
C3282 H3276 0.930 . S
C3282 C3283 1.367 . S
C3282 C3290 1.378 . S
C3283 C3282 1.367 . S
C3283 C3291 1.433 . S
C3284 H3280 0.929 . S
C3284 C3286 1.378 . S
C3284 C3288 1.350 . S
C3285 C3288 1.463 . S
C3285 C3290 1.350 . S
C3285 N3293 1.427 . S
C3286 H3277 0.930 . S
C3286 C3284 1.378 . S
C3286 C3287 1.367 . S
C3287 C3286 1.367 . S
C3287 C3289 1.433 . S
C3288 C3284 1.350 . S
C3288 C3285 1.463 . S
C3288 N3292 1.427 . S
C3289 H3279 0.929 . S
C3289 C3287 1.433 . S
C3289 N3292 1.384 . S
C3290 H3281 0.929 . S
C3290 C3282 1.378 . S
C3290 C3285 1.350 . S
C3291 H3278 0.929 . S
C3291 C3283 1.433 . S
C3291 N3293 1.384 . S
N3292 C3288 1.427 . S
N3292 C3289 1.384 . S
N3293 C3285 1.427 . S
N3293 C3291 1.384 . S
H3294 C3300 0.930 . S
H3295 C3304 0.930 . S
H3296 C3309 0.929 . S
H3297 C3307 0.929 . S
H3298 C3302 0.929 . S
H3299 C3308 0.929 . S
C3300 H3294 0.930 . S
C3300 C3301 1.367 . S
C3300 C3308 1.378 . S
C3301 C3300 1.367 . S
C3301 C3309 1.433 . S
C3302 H3298 0.929 . S
C3302 C3304 1.378 . S
C3302 C3306 1.350 . S
C3303 C3306 1.463 . S
C3303 C3308 1.350 . S
C3303 N3311 1.427 . S
C3304 H3295 0.930 . S
C3304 C3302 1.378 . S
C3304 C3305 1.367 . S
C3305 C3304 1.367 . S
C3305 C3307 1.433 . S
C3306 C3302 1.350 . S
C3306 C3303 1.463 . S
C3306 N3310 1.427 . S
C3307 H3297 0.929 . S
C3307 C3305 1.433 . S
C3307 N3310 1.384 . S
C3308 H3299 0.929 . S
C3308 C3300 1.378 . S
C3308 C3303 1.350 . S
C3309 H3296 0.929 . S
C3309 C3301 1.433 . S
C3309 N3311 1.384 . S
N3310 C3306 1.427 . S
N3310 C3307 1.384 . S
N3311 C3303 1.427 . S
N3311 C3309 1.384 . S
H3312 C3318 0.930 . S
H3313 C3322 0.930 . S
H3314 C3327 0.929 . S
H3315 C3325 0.929 . S
H3316 C3320 0.929 . S
H3317 C3326 0.929 . S
C3318 H3312 0.930 . S
C3318 C3319 1.367 . S
C3318 C3326 1.378 . S
C3319 C3318 1.367 . S
C3319 C3327 1.433 . S
C3320 H3316 0.929 . S
C3320 C3322 1.378 . S
C3320 C3324 1.350 . S
C3321 C3324 1.463 1_455 S
C3321 C3326 1.350 . S
C3321 N3329 1.427 . S
C3322 H3313 0.930 . S
C3322 C3320 1.378 . S
C3322 C3323 1.367 . S
C3323 C3322 1.367 . S
C3323 C3325 1.433 . S
C3324 C3320 1.350 . S
C3324 C3321 1.463 1_655 S
C3324 N3328 1.427 . S
C3325 H3315 0.929 . S
C3325 C3323 1.433 . S
C3325 N3328 1.384 . S
C3326 H3317 0.929 . S
C3326 C3318 1.378 . S
C3326 C3321 1.350 . S
C3327 H3314 0.929 . S
C3327 C3319 1.433 . S
C3327 N3329 1.384 . S
N3328 C3324 1.427 . S
N3328 C3325 1.384 . S
N3329 C3321 1.427 . S
N3329 C3327 1.384 . S
H3330 C3336 0.930 . S
H3331 C3340 0.930 . S
H3332 C3345 0.929 . S
H3333 C3343 0.929 . S
H3334 C3338 0.929 . S
H3335 C3344 0.929 . S
C3336 H3330 0.930 . S
C3336 C3337 1.367 . S
C3336 C3344 1.378 . S
C3337 C3336 1.367 . S
C3337 C3345 1.433 . S
C3338 H3334 0.929 . S
C3338 C3340 1.378 . S
C3338 C3342 1.350 . S
C3339 C3342 1.463 . S
C3339 C3344 1.350 . S
C3339 N3347 1.427 . S
C3340 H3331 0.930 . S
C3340 C3338 1.378 . S
C3340 C3341 1.367 . S
C3341 C3340 1.367 . S
C3341 C3343 1.433 . S
C3342 C3338 1.350 . S
C3342 C3339 1.463 . S
C3342 N3346 1.427 . S
C3343 H3333 0.929 . S
C3343 C3341 1.433 . S
C3343 N3346 1.384 . S
C3344 H3335 0.929 . S
C3344 C3336 1.378 . S
C3344 C3339 1.350 . S
C3345 H3332 0.929 . S
C3345 C3337 1.433 . S
C3345 N3347 1.384 . S
N3346 C3342 1.427 . S
N3346 C3343 1.384 . S
N3347 C3339 1.427 . S
N3347 C3345 1.384 . S
H3348 C3354 0.930 . S
H3349 C3358 0.930 . S
H3350 C3363 0.929 . S
H3351 C3361 0.929 . S
H3352 C3356 0.929 . S
H3353 C3362 0.929 . S
C3354 H3348 0.930 . S
C3354 C3355 1.367 . S
C3354 C3362 1.378 . S
C3355 C3354 1.367 . S
C3355 C3363 1.433 . S
C3356 H3352 0.929 . S
C3356 C3358 1.378 . S
C3356 C3360 1.350 . S
C3357 C3360 1.463 1_545 S
C3357 C3362 1.350 . S
C3357 N3365 1.427 . S
C3358 H3349 0.930 . S
C3358 C3356 1.378 . S
C3358 C3359 1.367 . S
C3359 C3358 1.367 . S
C3359 C3361 1.433 . S
C3360 C3356 1.350 . S
C3360 C3357 1.463 1_565 S
C3360 N3364 1.427 . S
C3361 H3351 0.929 . S
C3361 C3359 1.433 . S
C3361 N3364 1.384 . S
C3362 H3353 0.929 . S
C3362 C3354 1.378 . S
C3362 C3357 1.350 . S
C3363 H3350 0.929 . S
C3363 C3355 1.433 . S
C3363 N3365 1.384 . S
N3364 C3360 1.427 . S
N3364 C3361 1.384 . S
N3365 C3357 1.427 . S
N3365 C3363 1.384 . S
H3366 C3372 0.930 . S
H3367 C3376 0.930 . S
H3368 C3381 0.929 . S
H3369 C3379 0.929 . S
H3370 C3374 0.929 . S
H3371 C3380 0.929 . S
C3372 H3366 0.930 . S
C3372 C3373 1.367 . S
C3372 C3380 1.378 . S
C3373 C3372 1.367 . S
C3373 C3381 1.433 1_554 S
C3374 H3370 0.929 . S
C3374 C3376 1.378 . S
C3374 C3378 1.350 . S
C3375 C3378 1.463 1_544 S
C3375 C3380 1.350 . S
C3375 N3383 1.427 1_554 S
C3376 H3367 0.930 . S
C3376 C3374 1.378 . S
C3376 C3377 1.367 . S
C3377 C3376 1.367 . S
C3377 C3379 1.433 1_556 S
C3378 C3374 1.350 . S
C3378 C3375 1.463 1_566 S
C3378 N3382 1.427 1_556 S
C3379 H3369 0.929 . S
C3379 C3377 1.433 1_554 S
C3379 N3382 1.384 . S
C3380 H3371 0.929 . S
C3380 C3372 1.378 . S
C3380 C3375 1.350 . S
C3381 H3368 0.929 . S
C3381 C3373 1.433 1_556 S
C3381 N3383 1.384 . S
N3382 C3378 1.427 1_554 S
N3382 C3379 1.384 . S
N3383 C3375 1.427 1_556 S
N3383 C3381 1.384 . S
H3384 C3390 0.930 . S
H3385 C3394 0.930 . S
H3386 C3399 0.929 . S
H3387 C3397 0.929 . S
H3388 C3392 0.929 . S
H3389 C3398 0.929 . S
C3390 H3384 0.930 . S
C3390 C3391 1.367 1_556 S
C3390 C3398 1.378 . S
C3391 C3390 1.367 1_554 S
C3391 C3399 1.433 . S
C3392 H3388 0.929 . S
C3392 C3394 1.378 . S
C3392 C3396 1.350 1_554 S
C3393 C3396 1.463 1_654 S
C3393 C3398 1.350 1_554 S
C3393 N3401 1.427 . S
C3394 H3385 0.930 . S
C3394 C3392 1.378 . S
C3394 C3395 1.367 1_554 S
C3395 C3394 1.367 1_556 S
C3395 C3397 1.433 . S
C3396 C3392 1.350 1_556 S
C3396 C3393 1.463 1_456 S
C3396 N3400 1.427 . S
C3397 H3387 0.929 . S
C3397 C3395 1.433 . S
C3397 N3400 1.384 . S
C3398 H3389 0.929 . S
C3398 C3390 1.378 . S
C3398 C3393 1.350 1_556 S
C3399 H3386 0.929 . S
C3399 C3391 1.433 . S
C3399 N3401 1.384 . S
N3400 C3396 1.427 . S
N3400 C3397 1.384 . S
N3401 C3393 1.427 . S
N3401 C3399 1.384 . S
H3402 C3408 0.930 . S
H3403 C3412 0.930 . S
H3404 C3417 0.929 . S
H3405 C3415 0.929 . S
H3406 C3410 0.929 . S
H3407 C3416 0.929 . S
C3408 H3402 0.930 . S
C3408 C3409 1.367 1_556 S
C3408 C3416 1.378 . S
C3409 C3408 1.367 1_554 S
C3409 C3417 1.433 . S
C3410 H3406 0.929 . S
C3410 C3412 1.378 . S
C3410 C3414 1.350 1_554 S
C3411 C3414 1.463 1_554 S
C3411 C3416 1.350 1_554 S
C3411 N3419 1.427 . S
C3412 H3403 0.930 . S
C3412 C3410 1.378 . S
C3412 C3413 1.367 1_554 S
C3413 C3412 1.367 1_556 S
C3413 C3415 1.433 . S
C3414 C3410 1.350 1_556 S
C3414 C3411 1.463 1_556 S
C3414 N3418 1.427 . S
C3415 H3405 0.929 . S
C3415 C3413 1.433 . S
C3415 N3418 1.384 . S
C3416 H3407 0.929 . S
C3416 C3408 1.378 . S
C3416 C3411 1.350 1_556 S
C3417 H3404 0.929 . S
C3417 C3409 1.433 . S
C3417 N3419 1.384 . S
N3418 C3414 1.427 . S
N3418 C3415 1.384 . S
N3419 C3411 1.427 . S
N3419 C3417 1.384 . S
C2131 C593 1.294 . S
C2135 C33 1.285 . S
C2149 C652 1.291 . S
C2153 C92 1.290 . S
C2167 C151 1.287 . S
C2171 C534 1.292 . S
C2185 C210 1.283 . S
C2189 C475 1.297 . S
C2203 C269 1.282 . S
C2207 C357 1.296 . S
C2221 C416 1.297 . S
C2225 C328 1.285 . S
C2239 C239 1.290 . S
C2243 C387 1.291 . S
C2257 C298 1.293 . S
C2261 C446 1.286 . S
C2275 C505 1.282 . S
C2279 C180 1.297 . S
C2293 C121 1.291 . S
C2297 C564 1.290 . S
C2311 C623 1.289 . S
C2315 C3 1.291 . S
C2329 C682 1.289 . S
C2333 C62 1.295 . S
C2347 C1301 1.298 . S
C2351 C741 1.284 . S
C2365 C1360 1.298 . S
C2369 C800 1.284 . S
C2383 C859 1.284 . S
C2387 C1242 1.298 . S
C2401 C918 1.284 . S
C2405 C1183 1.298 . S
C2419 C977 1.285 . S
C2423 C1065 1.294 . S
C2437 C1036 1.282 . S
C2441 C1124 1.297 . S
C2455 C947 1.291 . S
C2459 C1095 1.293 . S
C2473 C1006 1.295 . S
C2477 C1154 1.284 . S
C2491 C888 1.290 . S
C2495 C1213 1.292 . S
C2509 C829 1.291 . S
C2513 C1272 1.293 . S
C2527 C711 1.294 . S
C2531 C1331 1.291 . S
C2545 C770 1.298 . S
C2549 C1390 1.282 . S
C2563 C1449 1.292 . S
C2567 C2009 1.290 . S
C2581 C2068 1.290 . S
C2585 C1508 1.291 . S
C2599 C1950 1.293 . S
C2603 C1567 1.291 . S
C2617 C1626 1.285 . S
C2621 C1891 1.294 . S
C2635 C1685 1.285 . S
C2639 C1773 1.298 . S
C2653 C1744 1.285 . S
C2657 C1832 1.294 . S
C2671 C1655 1.291 . S
C2675 C1803 1.293 . S
C2689 C1714 1.293 . S
C2693 C1862 1.286 . S
C2707 C1596 1.295 . S
C2711 C1921 1.290 . S
C2725 C1980 1.293 . S
C2729 C1537 1.292 . S
C2743 C1419 1.292 . S
C2747 C2039 1.288 . S
C2761 C2098 1.286 . S
C2765 C1478 1.292 . S
C2779 C182 1.575 . S
C2783 C5 1.575 . S
C2797 C241 1.576 . S
C2801 C64 1.576 . S
C2815 C123 1.576 . S
C2819 C300 1.575 . S
C2833 C536 1.575 . S
C2837 C359 1.575 . S
C2851 C595 1.575 . S
C2855 C418 1.575 . S
C2869 C654 1.576 . S
C2873 C477 1.576 . S
C2887 C890 1.575 . S
C2891 C713 1.575 . S
C2905 C949 1.575 . S
C2909 C772 1.575 . S
C2923 C831 1.575 . S
C2927 C1008 1.576 . S
C2941 C1067 1.576 . S
C2945 C1244 1.575 . S
C2959 C1303 1.576 . S
C2963 C1126 1.576 . S
C2977 C1185 1.576 . S
C2981 C1362 1.576 . S
C2995 C1598 1.575 . S
C2999 C1421 1.575 . S
C3013 C1657 1.575 . S
C3017 C1480 1.575 . S
C3031 C1539 1.575 . S
C3035 C1716 1.575 . S
C3049 C1775 1.575 . S
C3053 C1952 1.575 . S
C3067 C1834 1.575 . S
C3071 C2011 1.575 . S
C3085 C1893 1.575 . S
C3089 C2070 1.576 . S
C3103 C52 1.582 . S
C3107 C1114 1.582 . S
C3121 C1173 1.582 . S
C3125 C111 1.582 . S
C3139 C1232 1.581 . S
C3143 C170 1.581 . S
C3157 C1999 1.581 . S
C3161 C229 1.581 . S
C3175 C2058 1.582 . S
C3179 C288 1.582 . S
C3193 C2117 1.581 . S
C3197 C347 1.581 . S
C3211 C406 1.580 . S
C3215 C1468 1.580 . S
C3229 C1527 1.580 . S
C3233 C465 1.580 . S
C3247 C1586 1.582 . S
C3251 C524 1.582 . S
C3265 C583 1.580 . S
C3269 C937 1.580 . S
C3283 C642 1.581 . S
C3287 C996 1.581 . S
C3301 C701 1.580 . S
C3305 C1055 1.580 . S
C3319 C1822 1.581 . S
C3323 C760 1.581 . S
C3337 C1881 1.580 . S
C3341 C819 1.580 . S
C3355 C878 1.580 . S
C3359 C1940 1.580 . S
C3373 C1291 1.582 . S
C3377 C1645 1.582 . S
C3391 C1350 1.580 . S
C3395 C1704 1.580 . S
C3409 C1409 1.580 . S
C3413 C1763 1.580 . S
