# Generated by pormake.
# Topology umz, (4)-cn, num edge types: 1
# Building blocks:
#     Node 0, Type 0, BuildingBlock: KUFVIS_clean_sbu_0, # of connection points: 4
#     Node 1, Type 0, BuildingBlock: KUFVIS_clean_sbu_0, # of connection points: 4
#     Node 2, Type 0, BuildingBlock: KUFVIS_clean_sbu_0, # of connection points: 4
#     Node 3, Type 0, BuildingBlock: KUFVIS_clean_sbu_0, # of connection points: 4
#     Node 4, Type 0, BuildingBlock: KUFVIS_clean_sbu_0, # of connection points: 4
#     Node 5, Type 0, BuildingBlock: KUFVIS_clean_sbu_0, # of connection points: 4
#     Node 6, Type 0, BuildingBlock: KUFVIS_clean_sbu_0, # of connection points: 4
#     Node 7, Type 0, BuildingBlock: KUFVIS_clean_sbu_0, # of connection points: 4
#     Node 8, Type 0, BuildingBlock: KUFVIS_clean_sbu_0, # of connection points: 4
#     Node 9, Type 0, BuildingBlock: KUFVIS_clean_sbu_0, # of connection points: 4
#     Node 10, Type 0, BuildingBlock: KUFVIS_clean_sbu_0, # of connection points: 4
#     Node 11, Type 0, BuildingBlock: KUFVIS_clean_sbu_0, # of connection points: 4
#     Node 12, Type 0, BuildingBlock: KUFVIS_clean_sbu_0, # of connection points: 4
#     Node 13, Type 0, BuildingBlock: KUFVIS_clean_sbu_0, # of connection points: 4
#     Node 14, Type 0, BuildingBlock: KUFVIS_clean_sbu_0, # of connection points: 4
#     Node 15, Type 0, BuildingBlock: KUFVIS_clean_sbu_0, # of connection points: 4
#     Edge 16, Type (0, 0), BuildingBlock: EZIPEK_clean_linker_0, # of connection points: 2
#     Edge 17, Type (0, 0), BuildingBlock: EZIPEK_clean_linker_0, # of connection points: 2
#     Edge 18, Type (0, 0), BuildingBlock: EZIPEK_clean_linker_0, # of connection points: 2
#     Edge 19, Type (0, 0), BuildingBlock: EZIPEK_clean_linker_0, # of connection points: 2
#     Edge 20, Type (0, 0), BuildingBlock: EZIPEK_clean_linker_0, # of connection points: 2
#     Edge 21, Type (0, 0), BuildingBlock: EZIPEK_clean_linker_0, # of connection points: 2
#     Edge 22, Type (0, 0), BuildingBlock: EZIPEK_clean_linker_0, # of connection points: 2
#     Edge 23, Type (0, 0), BuildingBlock: EZIPEK_clean_linker_0, # of connection points: 2
#     Edge 24, Type (0, 0), BuildingBlock: EZIPEK_clean_linker_0, # of connection points: 2
#     Edge 25, Type (0, 0), BuildingBlock: EZIPEK_clean_linker_0, # of connection points: 2
#     Edge 26, Type (0, 0), BuildingBlock: EZIPEK_clean_linker_0, # of connection points: 2
#     Edge 27, Type (0, 0), BuildingBlock: EZIPEK_clean_linker_0, # of connection points: 2
#     Edge 28, Type (0, 0), BuildingBlock: EZIPEK_clean_linker_0, # of connection points: 2
#     Edge 29, Type (0, 0), BuildingBlock: EZIPEK_clean_linker_0, # of connection points: 2
#     Edge 30, Type (0, 0), BuildingBlock: EZIPEK_clean_linker_0, # of connection points: 2
#     Edge 31, Type (0, 0), BuildingBlock: EZIPEK_clean_linker_0, # of connection points: 2
#     Edge 32, Type (0, 0), BuildingBlock: EZIPEK_clean_linker_0, # of connection points: 2
#     Edge 33, Type (0, 0), BuildingBlock: EZIPEK_clean_linker_0, # of connection points: 2
#     Edge 34, Type (0, 0), BuildingBlock: EZIPEK_clean_linker_0, # of connection points: 2
#     Edge 35, Type (0, 0), BuildingBlock: EZIPEK_clean_linker_0, # of connection points: 2
#     Edge 36, Type (0, 0), BuildingBlock: EZIPEK_clean_linker_0, # of connection points: 2
#     Edge 37, Type (0, 0), BuildingBlock: EZIPEK_clean_linker_0, # of connection points: 2
#     Edge 38, Type (0, 0), BuildingBlock: EZIPEK_clean_linker_0, # of connection points: 2
#     Edge 39, Type (0, 0), BuildingBlock: EZIPEK_clean_linker_0, # of connection points: 2
#     Edge 40, Type (0, 0), BuildingBlock: EZIPEK_clean_linker_0, # of connection points: 2
#     Edge 41, Type (0, 0), BuildingBlock: EZIPEK_clean_linker_0, # of connection points: 2
#     Edge 42, Type (0, 0), BuildingBlock: EZIPEK_clean_linker_0, # of connection points: 2
#     Edge 43, Type (0, 0), BuildingBlock: EZIPEK_clean_linker_0, # of connection points: 2
#     Edge 44, Type (0, 0), BuildingBlock: EZIPEK_clean_linker_0, # of connection points: 2
#     Edge 45, Type (0, 0), BuildingBlock: EZIPEK_clean_linker_0, # of connection points: 2
#     Edge 46, Type (0, 0), BuildingBlock: EZIPEK_clean_linker_0, # of connection points: 2
#     Edge 47, Type (0, 0), BuildingBlock: EZIPEK_clean_linker_0, # of connection points: 2
# Relax obj value: 0.246
# Max RMSD: 0.163
# Mean RMSD: 0.163
data_MOF--net-umz--node1-KUFVIS_clean_sbu_0--edge1-EZIPEK_clean_linker_0
_symmetry_space_group_name_H-M    P1
_symmetry_Int_Tables_number       1
_symmetry_cell_setting            triclinic
loop_
_symmetry_equiv_pos_as_xyz
'x, y, z'
_cell_length_a     42.532928
_cell_length_b     42.547339
_cell_length_c     16.60527
_cell_angle_alpha  90.050317
_cell_angle_beta   90.10168
_cell_angle_gamma 89.988712
loop_
_atom_site_label
_atom_site_type_symbol
_atom_site_fract_x
_atom_site_fract_y
_atom_site_fract_z
_atom_type_partial_charge
Mn0 Mn 0.02791 0.63162 0.15056 0.0
Mn1 Mn 0.97174 0.61651 0.01182 0.0
C2 C 0.97799 0.61497 0.19134 0.0
C3 C 0.06935 0.61398 0.23229 0.0
C4 C 0.99563 0.68224 0.05201 0.0
O5 O 0.05234 0.62585 0.04474 0.0
O6 O 0.01356 0.60657 0.96492 0.0
C7 C 0.97588 0.5476 0.98695 0.0
N8 N 0.95943 0.57319 0.01257 0.0
C9 C 0.91371 0.54144 0.03917 0.0
C10 C 0.93029 0.51476 0.01398 0.0
C11 C 0.96135 0.51792 0.98687 0.0
C12 C 0.92918 0.57049 0.0367 0.0
H13 H 0.99975 0.5499 0.96562 0.0
C14 C 0.04257 0.61278 0.97954 0.0
O15 O 0.06644 0.64352 0.21429 0.0
O16 O 0.0497 0.59481 0.1992 0.0
N17 N 0.93049 0.62481 0.05301 0.0
C18 C 0.91687 0.65306 0.06988 0.0
C19 C 0.88534 0.65409 0.09471 0.0
C20 C 0.86803 0.62612 0.10125 0.0
C21 C 0.88234 0.59738 0.08232 0.0
C22 C 0.91383 0.59781 0.05771 0.0
H23 H 0.92985 0.67471 0.0643 0.0
O24 O 0.99626 0.62981 0.24119 0.0
O25 O 0.98927 0.61158 0.11951 0.0
O26 O 0.01209 0.67472 0.11334 0.0
O27 O 0.98183 0.66212 0.00686 0.0
C28 C 0.86658 0.56832 0.08698 0.0
C29 C 0.88226 0.54036 0.06548 0.0
H30 H 0.91928 0.49179 0.01417 0.0
H31 H 0.97381 0.49749 0.96498 0.0
H32 H 0.87443 0.67639 0.10882 0.0
H33 H 0.84375 0.627 0.12073 0.0
H34 H 0.84234 0.56724 0.10669 0.0
H35 H 0.86984 0.51817 0.06877 0.0
Mn36 Mn 0.85946 0.02263 0.65505 0.0
Mn37 Mn 0.87499 0.97169 0.50393 0.0
C38 C 0.87522 0.97097 0.6841 0.0
C39 C 0.87717 0.06018 0.74756 0.0
C40 C 0.8088 0.99365 0.54799 0.0
O41 O 0.86676 0.05146 0.55733 0.0
O42 O 0.88192 0.01524 0.46542 0.0
C43 C 0.9435 0.9829 0.48862 0.0
N44 N 0.91913 0.96286 0.50275 0.0
C45 C 0.95466 0.91956 0.52336 0.0
C46 C 0.98009 0.93966 0.5083 0.0
C47 C 0.97448 0.97148 0.4912 0.0
C48 C 0.9243 0.93227 0.52016 0.0
H49 H 0.93937 0.00744 0.47589 0.0
C50 C 0.87762 0.0437 0.48805 0.0
O51 O 0.84769 0.05877 0.72748 0.0
O52 O 0.89614 0.04124 0.71126 0.0
N53 N 0.86997 0.92856 0.53419 0.0
C54 C 0.84287 0.91199 0.54432 0.0
C55 C 0.84438 0.87974 0.56185 0.0
C56 C 0.87372 0.86475 0.56751 0.0
C57 C 0.90128 0.88204 0.55409 0.0
C58 C 0.89827 0.91406 0.53621 0.0
H59 H 0.82029 0.92324 0.53847 0.0
O60 O 0.85983 0.98736 0.73689 0.0
O61 O 0.87935 0.985 0.61567 0.0
O62 O 0.81642 0.00953 0.61027 0.0
O63 O 0.82868 0.97925 0.5032 0.0
C64 C 0.93159 0.86875 0.55776 0.0
C65 C 0.95827 0.88751 0.54257 0.0
H66 H 0.00404 0.931 0.51058 0.0
H67 H 0.99399 0.98717 0.48023 0.0
H68 H 0.82298 0.86648 0.57099 0.0
H69 H 0.87481 0.83992 0.58161 0.0
H70 H 0.93466 0.84413 0.57232 0.0
H71 H 0.98147 0.87708 0.54605 0.0
Mn72 Mn 0.47802 0.88778 0.08641 0.0
Mn73 Mn 0.5414 0.86755 0.9757 0.0
C74 C 0.52696 0.88469 0.1495 0.0
C75 C 0.44612 0.92503 0.15124 0.0
C76 C 0.49087 0.82121 0.02552 0.0
O77 O 0.46386 0.89827 0.97305 0.0
O78 O 0.50774 0.8851 0.90358 0.0
C79 C 0.56399 0.92636 0.90091 0.0
N80 N 0.56895 0.90174 0.95181 0.0
C81 C 0.62359 0.91544 0.96648 0.0
C82 C 0.61877 0.94144 0.91615 0.0
C83 C 0.58886 0.94678 0.88283 0.0
C84 C 0.5979 0.89582 0.98212 0.0
H85 H 0.54141 0.93007 0.87289 0.0
C86 C 0.47958 0.89601 0.9078 0.0
O87 O 0.43603 0.89683 0.13618 0.0
O88 O 0.4732 0.93249 0.12123 0.0
N89 N 0.57522 0.85155 0.03986 0.0
C90 C 0.57575 0.82581 0.08853 0.0
C91 C 0.60365 0.81774 0.12881 0.0
C92 C 0.63081 0.83602 0.11785 0.0
C93 C 0.6297 0.86239 0.06735 0.0
C94 C 0.60105 0.86959 0.03006 0.0
H95 H 0.55502 0.81163 0.09667 0.0
O96 O 0.50082 0.87928 0.18694 0.0
O97 O 0.52388 0.88918 0.07167 0.0
O98 O 0.4734 0.84018 0.06437 0.0
O99 O 0.51646 0.82938 0.99243 0.0
C100 C 0.65589 0.88182 0.05253 0.0
C101 C 0.65291 0.90814 1.00143 0.0
H102 H 0.63796 0.9572 0.90202 0.0
H103 H 0.58502 0.96623 0.84213 0.0
H104 H 0.60427 0.79738 0.16779 0.0
H105 H 0.65237 0.8296 0.14855 0.0
H106 H 0.67841 0.87673 0.08011 0.0
H107 H 0.67321 0.92288 0.99038 0.0
Mn108 Mn 0.63361 0.48899 0.6256 0.0
Mn109 Mn 0.63039 0.54698 0.4878 0.0
C110 C 0.62127 0.53965 0.66913 0.0
C111 C 0.61076 0.44986 0.7043 0.0
C112 C 0.69181 0.51945 0.55004 0.0
O113 O 0.62866 0.46495 0.52117 0.0
O114 O 0.62297 0.50523 0.43401 0.0
C115 C 0.56518 0.5443 0.42619 0.0
N116 N 0.58909 0.56083 0.46051 0.0
C117 C 0.56118 0.60964 0.44363 0.0
C118 C 0.53614 0.59309 0.40863 0.0
C119 C 0.53811 0.56028 0.40064 0.0
C120 C 0.58746 0.59242 0.46887 0.0
H121 H 0.56676 0.51914 0.4184 0.0
C122 C 0.62294 0.47574 0.45104 0.0
O123 O 0.64065 0.44968 0.68883 0.0
O124 O 0.59385 0.47125 0.66947 0.0
N125 N 0.63595 0.58808 0.53234 0.0
C126 C 0.65936 0.59928 0.58047 0.0
C127 C 0.65973 0.63128 0.60125 0.0
C128 C 0.63595 0.65134 0.57262 0.0
C129 C 0.61146 0.63897 0.52563 0.0
C130 C 0.61214 0.60682 0.50799 0.0
H131 H 0.6774 0.58379 0.60333 0.0
O132 O 0.63403 0.51876 0.71551 0.0
O133 O 0.61694 0.53047 0.5943 0.0
O134 O 0.67942 0.49963 0.5977 0.0
O135 O 0.67496 0.53669 0.50504 0.0
C136 C 0.58597 0.65708 0.49734 0.0
C137 C 0.56086 0.64241 0.45611 0.0
H138 H 0.51516 0.60525 0.38856 0.0
H139 H 0.51894 0.54732 0.37448 0.0
H140 H 0.6783 0.64048 0.63915 0.0
H141 H 0.63634 0.67602 0.58861 0.0
H142 H 0.58497 0.6821 0.50909 0.0
H143 H 0.54099 0.6564 0.43656 0.0
Mn144 Mn 0.01192 0.86661 0.86551 0.0
Mn145 Mn 0.95452 0.87988 0.99779 0.0
C146 C 0.96092 0.87739 0.81619 0.0
C147 C 0.05153 0.89236 0.78982 0.0
C148 C 0.98248 0.81457 0.96538 0.0
O149 O 0.03597 0.87435 0.96894 0.0
O150 O 0.9963 0.89019 0.04802 0.0
C151 C 0.96139 0.94913 0.00586 0.0
N152 N 0.94315 0.92333 0.99228 0.0
C153 C 0.89853 0.95562 0.95901 0.0
C154 C 0.91683 0.98249 0.97248 0.0
C155 C 0.94835 0.97924 0.99626 0.0
C156 C 0.9129 0.92624 0.96843 0.0
H157 H 0.98573 0.94674 0.02345 0.0
C158 C 0.02569 0.88582 0.03451 0.0
O159 O 0.05272 0.86219 0.80241 0.0
O160 O 0.02785 0.90628 0.82181 0.0
N161 N 0.91281 0.87163 0.96005 0.0
C162 C 0.89791 0.84335 0.95406 0.0
C163 C 0.8656 0.84247 0.93651 0.0
C164 C 0.84886 0.87065 0.92629 0.0
C165 C 0.86448 0.89947 0.93494 0.0
C166 C 0.8966 0.89886 0.95367 0.0
H167 H 0.91048 0.8216 0.96318 0.0
O168 O 0.98132 0.86242 0.77297 0.0
O169 O 0.97092 0.88374 0.8886 0.0
O170 O 0.00091 0.82289 0.90821 0.0
O171 O 0.96457 0.83407 1.00237 0.0
C172 C 0.84941 0.92878 0.92623 0.0
C173 C 0.86655 0.95684 0.93701 0.0
H174 H 0.9069 0.00569 0.96474 0.0
H175 H 0.96247 0.99993 0.00731 0.0
H176 H 0.85364 0.82013 0.93088 0.0
H177 H 0.82399 0.86988 0.91221 0.0
H178 H 0.82469 0.92999 0.91072 0.0
H179 H 0.85481 0.97924 0.92932 0.0
Mn180 Mn 0.61459 0.01204 0.40579 0.0
Mn181 Mn 0.61662 0.95144 0.53515 0.0
C182 C 0.60522 0.9619 0.3559 0.0
C183 C 0.58918 0.05176 0.33293 0.0
C184 C 0.67586 0.98102 0.46899 0.0
O185 O 0.60869 0.03363 0.51258 0.0
O186 O 0.6136 0.99263 0.59559 0.0
C187 C 0.55383 0.95652 0.61111 0.0
N188 N 0.57561 0.93934 0.5701 0.0
C189 C 0.54509 0.8921 0.58535 0.0
C190 C 0.52238 0.90928 0.62764 0.0
C191 C 0.52668 0.94165 0.64037 0.0
C192 C 0.57178 0.90811 0.55825 0.0
H193 H 0.55726 0.98131 0.62199 0.0
C194 C 0.6106 0.02234 0.58327 0.0
O195 O 0.61907 0.05302 0.34854 0.0
O196 O 0.57361 0.02861 0.36426 0.0
N197 N 0.6186 0.91071 0.48662 0.0
C198 C 0.63984 0.89904 0.43309 0.0
C199 C 0.63751 0.86756 0.40832 0.0
C200 C 0.61326 0.84851 0.43845 0.0
C201 C 0.59099 0.86141 0.4912 0.0
C202 C 0.59441 0.893 0.5132 0.0
H203 H 0.65784 0.91394 0.40792 0.0
O204 O 0.61649 0.98443 0.31211 0.0
O205 O 0.60047 0.96921 0.43209 0.0
O206 O 0.66149 0.00324 0.43257 0.0
O207 O 0.66072 0.96025 0.50782 0.0
C208 C 0.56492 0.84452 0.52047 0.0
C209 C 0.54197 0.85986 0.56756 0.0
H210 H 0.50149 0.89782 0.64987 0.0
H211 H 0.50921 0.95503 0.67305 0.0
H212 H 0.65424 0.85806 0.36571 0.0
H213 H 0.61144 0.82428 0.41892 0.0
H214 H 0.56178 0.81997 0.50509 0.0
H215 H 0.52164 0.84683 0.58814 0.0
Mn216 Mn 0.48575 0.62453 0.89889 0.0
Mn217 Mn 0.54522 0.63479 0.03087 0.0
C218 C 0.53746 0.62168 0.85175 0.0
C219 C 0.4523 0.59259 0.82168 0.0
C220 C 0.50405 0.68848 0.97045 0.0
O221 O 0.46441 0.61487 0.00457 0.0
O222 O 0.50632 0.6199 0.08797 0.0
C223 C 0.55873 0.57356 0.10819 0.0
N224 N 0.56826 0.59793 0.06102 0.0
C225 C 0.62208 0.58028 0.06762 0.0
C226 C 0.61243 0.55415 0.1126 0.0
C227 C 0.58062 0.55087 0.1333 0.0
C228 C 0.59908 0.60193 0.04348 0.0
H229 H 0.53488 0.57199 0.12867 0.0
C230 C 0.47715 0.61374 0.074 0.0
O231 O 0.44551 0.62182 0.83588 0.0
O232 O 0.4771 0.58141 0.85662 0.0
N233 N 0.5834 0.64816 0.98064 0.0
C234 C 0.58858 0.67381 0.93347 0.0
C235 C 0.61911 0.68007 0.90569 0.0
C236 C 0.64399 0.66003 0.92721 0.0
C237 C 0.638 0.6336 0.97516 0.0
C238 C 0.60698 0.62823 0.99964 0.0
H239 H 0.56953 0.68932 0.91698 0.0
O240 O 0.5141 0.63116 0.80812 0.0
O241 O 0.53029 0.61648 0.9275 0.0
O242 O 0.48599 0.67208 0.92591 0.0
O243 O 0.52555 0.67551 0.01107 0.0
C244 C 0.66156 0.61231 0.9994 0.0
C245 C 0.65363 0.58578 0.0461 0.0
H246 H 0.6293 0.53673 0.13263 0.0
H247 H 0.57309 0.53127 0.17007 0.0
H248 H 0.62348 0.70039 0.86819 0.0
H249 H 0.66755 0.66506 0.90622 0.0
H250 H 0.68581 0.61598 0.98197 0.0
H251 H 0.67192 0.5695 0.06411 0.0
Mn252 Mn 0.87277 0.47575 0.35956 0.0
Mn253 Mn 0.88901 0.52765 0.50452 0.0
C254 C 0.88702 0.52671 0.32112 0.0
C255 C 0.89403 0.43679 0.27693 0.0
C256 C 0.82277 0.50478 0.46279 0.0
O257 O 0.87745 0.44893 0.45976 0.0
O258 O 0.89809 0.4843 0.54466 0.0
C259 C 0.95794 0.52065 0.52358 0.0
N260 N 0.93264 0.5387 0.50357 0.0
C261 C 0.96556 0.58414 0.48479 0.0
C262 C 0.99198 0.56593 0.50401 0.0
C263 C 0.98807 0.53419 0.52464 0.0
C264 C 0.93607 0.56947 0.48528 0.0
H265 H 0.95509 0.49624 0.53986 0.0
C266 C 0.89005 0.45607 0.52671 0.0
O267 O 0.86392 0.43774 0.29109 0.0
O268 O 0.9113 0.45708 0.31384 0.0
N269 N 0.88147 0.57046 0.475 0.0
C270 C 0.85342 0.58594 0.47233 0.0
C271 C 0.85297 0.61862 0.46067 0.0
C272 C 0.88137 0.63518 0.45352 0.0
C273 C 0.90998 0.61898 0.45962 0.0
C274 C 0.90895 0.58639 0.47157 0.0
H275 H 0.83151 0.57354 0.47982 0.0
O276 O 0.87151 0.50848 0.27288 0.0
O277 O 0.89273 0.51446 0.39174 0.0
O278 O 0.82954 0.48952 0.39897 0.0
O279 O 0.8432 0.51815 0.50805 0.0
C280 C 0.93945 0.63403 0.4564 0.0
C281 C 0.96725 0.61657 0.46837 0.0
H282 H 0.01526 0.57627 0.50526 0.0
H283 H 0.00823 0.52037 0.54251 0.0
H284 H 0.83078 0.63102 0.45755 0.0
H285 H 0.88094 0.66039 0.44459 0.0
H286 H 0.94097 0.65911 0.44606 0.0
H287 H 0.98974 0.6285 0.46713 0.0
Mn288 Mn 0.98347 0.36271 0.85749 0.0
Mn289 Mn 0.03978 0.37949 0.9915 0.0
C290 C 0.03393 0.37404 0.80996 0.0
C291 C 0.94384 0.38138 0.77371 0.0
C292 C 0.01629 0.31311 0.96151 0.0
O293 O 0.95818 0.37263 0.95665 0.0
O294 O 0.99702 0.38475 0.04179 0.0
C295 C 0.02724 0.44756 0.01209 0.0
N296 N 0.0469 0.42389 0.98931 0.0
C297 C 0.08836 0.46067 0.96006 0.0
C298 C 0.06836 0.48539 0.9817 0.0
C299 C 0.03791 0.47878 0.00914 0.0
C300 C 0.07653 0.42999 0.96433 0.0
H301 H 0.00378 0.44263 0.0334 0.0
C302 C 0.96768 0.38074 0.02592 0.0
O303 O 0.94423 0.35203 0.79581 0.0
O304 O 0.96528 0.39955 0.80289 0.0
N305 N 0.08215 0.37574 0.95437 0.0
C306 C 0.10009 0.3492 0.95101 0.0
C307 C 0.13242 0.35165 0.93515 0.0
C308 C 0.14609 0.38136 0.92432 0.0
C309 C 0.12742 0.40839 0.9308 0.0
C310 C 0.0954 0.40449 0.9477 0.0
H311 H 0.08992 0.3263 0.96102 0.0
O312 O 0.01466 0.35682 0.76871 0.0
O313 O 0.02341 0.38255 0.88072 0.0
O314 O 0.99588 0.3207 0.90837 0.0
O315 O 0.03461 0.33316 0.99443 0.0
C316 C 0.13957 0.43907 0.92381 0.0
C317 C 0.11995 0.46522 0.93758 0.0
H318 H 0.0764 0.50947 0.97947 0.0
H319 H 0.02302 0.49774 0.02943 0.0
H320 H 0.14676 0.33069 0.93157 0.0
H321 H 0.17104 0.38316 0.91216 0.0
H322 H 0.16411 0.44279 0.90935 0.0
H323 H 0.12966 0.48869 0.9334 0.0
Mn324 Mn 0.12823 0.97607 0.36112 0.0
Mn325 Mn 0.11768 0.03568 0.48809 0.0
C326 C 0.12312 0.02726 0.30822 0.0
C327 C 0.10498 0.93776 0.28091 0.0
C328 C 0.17938 0.99897 0.47488 0.0
O329 O 0.1137 0.95426 0.46416 0.0
O330 O 0.10044 0.9966 0.53717 0.0
C331 C 0.04917 0.03813 0.45799 0.0
N332 N 0.07697 0.0533 0.46953 0.0
C333 C 0.05323 0.1032 0.43907 0.0
C334 C 0.02384 0.08844 0.43408 0.0
C335 C 0.02188 0.05563 0.44168 0.0
C336 C 0.07953 0.08437 0.45459 0.0
H337 H 0.04828 0.01284 0.45722 0.0
C338 C 0.10237 0.96672 0.52773 0.0
O339 O 0.13397 0.93473 0.30473 0.0
O340 O 0.08952 0.9618 0.30691 0.0
N341 N 0.13347 0.07544 0.45307 0.0
C342 C 0.16394 0.08526 0.45005 0.0
C343 C 0.17053 0.11723 0.43722 0.0
C344 C 0.14575 0.13885 0.42903 0.0
C345 C 0.11459 0.12831 0.43406 0.0
C346 C 0.1095 0.09626 0.44797 0.0
H347 H 0.18309 0.0689 0.45812 0.0
O348 O 0.13767 0.00548 0.26841 0.0
O349 O 0.11459 0.01839 0.37973 0.0
O350 O 0.17155 0.98384 0.41144 0.0
O351 O 0.16077 0.01891 0.50748 0.0
C352 C 0.08835 0.14825 0.42472 0.0
C353 C 0.05768 0.13559 0.42563 0.0
H354 H 0.0029 0.10183 0.42058 0.0
H355 H 0.99956 0.04387 0.43317 0.0
H356 H 0.19466 0.1252 0.43404 0.0
H357 H 0.15092 0.16343 0.4185 0.0
H358 H 0.09153 0.17313 0.41369 0.0
H359 H 0.03775 0.15083 0.41438 0.0
Mn360 Mn 0.51151 0.12158 0.90459 0.0
Mn361 Mn 0.45113 0.12608 0.03469 0.0
C362 C 0.46075 0.11529 0.8546 0.0
C363 C 0.54995 0.09405 0.83211 0.0
C364 C 0.48375 0.18394 0.96948 0.0
O365 O 0.53288 0.11457 0.01155 0.0
O366 O 0.49198 0.12002 0.09446 0.0
C367 C 0.45232 0.06247 0.10705 0.0
N368 N 0.43647 0.08569 0.0677 0.0
C369 C 0.38733 0.05831 0.08267 0.0
C370 C 0.40313 0.03413 0.12319 0.0
C371 C 0.43577 0.03612 0.13522 0.0
C372 C 0.40501 0.08406 0.05644 0.0
H373 H 0.47734 0.06415 0.11741 0.0
C374 C 0.52156 0.11611 0.08222 0.0
O375 O 0.55272 0.12384 0.8474 0.0
O376 O 0.52596 0.07976 0.86331 0.0
N377 N 0.41049 0.13119 0.98715 0.0
C378 C 0.39987 0.15414 0.93688 0.0
C379 C 0.36813 0.15427 0.91337 0.0
C380 C 0.34771 0.13086 0.94196 0.0
C381 C 0.35939 0.10709 0.99226 0.0
C382 C 0.39129 0.10802 0.01293 0.0
H383 H 0.41565 0.17189 0.91403 0.0
O384 O 0.48398 0.12499 0.81076 0.0
O385 O 0.46785 0.10981 0.93065 0.0
O386 O 0.50505 0.1689 0.93128 0.0
O387 O 0.46279 0.16951 0.00918 0.0
C388 C 0.34088 0.08198 0.0207 0.0
C389 C 0.35485 0.05759 0.06584 0.0
H390 H 0.39038 0.01385 0.14458 0.0
H391 H 0.44809 0.01751 0.16653 0.0
H392 H 0.35944 0.17235 0.87327 0.0
H393 H 0.32326 0.131 0.92358 0.0
H394 H 0.31606 0.08075 0.00628 0.0
H395 H 0.34055 0.03804 0.08581 0.0
Mn396 Mn 0.3794 0.51019 0.39381 0.0
Mn397 Mn 0.38306 0.44803 0.51597 0.0
C398 C 0.38339 0.46012 0.33447 0.0
C399 C 0.40953 0.54814 0.32401 0.0
C400 C 0.32268 0.4845 0.48184 0.0
O401 O 0.39191 0.5302 0.49975 0.0
O402 O 0.39611 0.48681 0.57554 0.0
C403 C 0.45212 0.44773 0.5384 0.0
N404 N 0.42527 0.4326 0.5158 0.0
C405 C 0.45396 0.38534 0.48563 0.0
C406 C 0.48184 0.4003 0.50936 0.0
C407 C 0.48092 0.43169 0.53549 0.0
C408 C 0.426 0.4027 0.48857 0.0
H409 H 0.45158 0.47181 0.55883 0.0
C410 C 0.39833 0.51655 0.56582 0.0
O411 O 0.37979 0.55272 0.33838 0.0
O412 O 0.42039 0.52176 0.3492 0.0
N413 N 0.37192 0.40809 0.47114 0.0
C414 C 0.34256 0.39559 0.46332 0.0
C415 C 0.33906 0.36379 0.44242 0.0
C416 C 0.36578 0.34477 0.43286 0.0
C417 C 0.3957 0.35759 0.44612 0.0
C418 C 0.39769 0.38949 0.46661 0.0
H419 H 0.32192 0.40956 0.47478 0.0
O420 O 0.36933 0.48313 0.29879 0.0
O421 O 0.39153 0.46648 0.40889 0.0
O422 O 0.33454 0.50458 0.43377 0.0
O423 O 0.33845 0.46251 0.51588 0.0
C424 C 0.42355 0.3397 0.44227 0.0
C425 C 0.45271 0.35368 0.46102 0.0
H426 H 0.50398 0.38776 0.50866 0.0
H427 H 0.50228 0.44344 0.55422 0.0
H428 H 0.31582 0.35386 0.43489 0.0
H429 H 0.36301 0.32021 0.41719 0.0
H430 H 0.42276 0.31509 0.42565 0.0
H431 H 0.47395 0.33967 0.45815 0.0
Mn432 Mn 0.97845 0.13099 0.15431 0.0
Mn433 Mn 0.02922 0.11473 1.00366 0.0
C434 C 0.02937 0.11323 0.18395 0.0
C435 C 0.93901 0.11519 0.24418 0.0
C436 C 0.00917 0.18101 0.05073 0.0
O437 O 0.9502 0.12621 0.05383 0.0
O438 O 0.98573 0.10718 0.96493 0.0
C439 C 0.01988 0.04633 0.98088 0.0
N440 N 0.03902 0.0709 1.00018 0.0
C441 C 0.0837 0.03659 0.01313 0.0
C442 C 0.0645 0.011 0.99312 0.0
C443 C 0.03247 0.01586 0.97696 0.0
C444 C 0.06991 0.06644 0.01569 0.0
H445 H 0.99526 0.05 0.96791 0.0
C446 C 0.95752 0.11399 0.98554 0.0
O447 O 0.94251 0.14449 0.22479 0.0
O448 O 0.95705 0.09508 0.20843 0.0
N449 N 0.07215 0.12057 0.0352 0.0
C450 C 0.08788 0.14793 0.04937 0.0
C451 C 0.12025 0.14708 0.06605 0.0
C452 C 0.13619 0.11818 0.06718 0.0
C453 C 0.11968 0.0904 0.05057 0.0
C454 C 0.08746 0.09271 0.03405 0.0
H455 H 0.07586 0.17026 0.04812 0.0
O456 O 0.01314 0.12831 0.23767 0.0
O457 O 0.01543 0.1098 0.11504 0.0
O458 O 0.99413 0.17361 0.11421 0.0
O459 O 0.02124 0.16081 1.00276 0.0
C460 C 0.13396 0.06051 0.04954 0.0
C461 C 0.11599 0.03362 0.03074 0.0
H462 H 0.07408 0.98753 0.99008 0.0
H463 H 0.01767 0.99616 0.96089 0.0
H464 H 0.13287 0.16866 0.07823 0.0
H465 H 0.16112 0.11761 0.08051 0.0
H466 H 0.15877 0.05797 0.06281 0.0
H467 H 0.12722 0.01077 0.02995 0.0
Mn468 Mn 0.37914 0.99463 0.5865 0.0
Mn469 Mn 0.3595 0.05798 0.47537 0.0
C470 C 0.37798 0.04366 0.64838 0.0
C471 C 0.41516 0.96149 0.65061 0.0
C472 C 0.31204 0.00992 0.53241 0.0
O473 O 0.38832 0.97953 0.47364 0.0
O474 O 0.3739 0.02266 0.40297 0.0
C475 C 0.41874 0.07594 0.394 0.0
N476 N 0.39511 0.08299 0.44637 0.0
C477 C 0.41364 0.13623 0.45972 0.0
C478 C 0.43861 0.1292 0.40777 0.0
C479 C 0.44106 0.09896 0.37443 0.0
C480 C 0.39202 0.11232 0.47684 0.0
H481 H 0.4203 0.05312 0.36609 0.0
C482 C 0.38482 0.99448 0.40763 0.0
O483 O 0.38652 0.95253 0.63636 0.0
O484 O 0.42377 0.98815 0.62 0.0
N485 N 0.3468 0.09343 0.53867 0.0
C486 C 0.32147 0.09643 0.58813 0.0
C487 C 0.31619 0.125 0.62826 0.0
C488 C 0.33673 0.15038 0.61609 0.0
C489 C 0.36243 0.14689 0.56413 0.0
C490 C 0.36678 0.11767 0.52689 0.0
H491 H 0.30539 0.07722 0.59666 0.0
O492 O 0.37193 0.01782 0.68658 0.0
O493 O 0.38188 0.0403 0.57035 0.0
O494 O 0.33158 0.99161 0.56649 0.0
O495 O 0.31994 0.03554 0.49874 0.0
C496 C 0.3839 0.17128 0.54782 0.0
C497 C 0.40935 0.16602 0.49516 0.0
H498 H 0.45582 0.14696 0.39257 0.0
H499 H 0.45983 0.09347 0.33285 0.0
H500 H 0.29621 0.12752 0.668 0.0
H501 H 0.33247 0.17246 0.64674 0.0
H502 H 0.38107 0.19416 0.5755 0.0
H503 H 0.42571 0.18494 0.48307 0.0
Mn504 Mn 0.52866 0.37214 0.12998 0.0
Mn505 Mn 0.47059 0.38075 0.99277 0.0
C506 C 0.47718 0.38309 0.17236 0.0
C507 C 0.56801 0.39571 0.2088 0.0
C508 C 0.49986 0.31746 0.03623 0.0
O509 O 0.55241 0.37992 0.02479 0.0
O510 O 0.51161 0.39071 0.94186 0.0
C511 C 0.47501 0.44957 0.96795 0.0
N512 N 0.45795 0.42391 0.99023 0.0
C513 C 0.41277 0.45597 0.01938 0.0
C514 C 0.42978 0.48269 0.9961 0.0
C515 C 0.46107 0.47947 0.97053 0.0
C516 C 0.42791 0.42678 0.01555 0.0
H517 H 0.49914 0.44727 0.94868 0.0
C518 C 0.54108 0.38896 0.95718 0.0
O519 O 0.56874 0.3658 0.19305 0.0
O520 O 0.54565 0.41174 0.17626 0.0
N521 N 0.42957 0.37263 0.03527 0.0
C522 C 0.41609 0.34448 0.05334 0.0
C523 C 0.38478 0.3436 0.07999 0.0
C524 C 0.36755 0.37164 0.08682 0.0
C525 C 0.38164 0.40026 0.06579 0.0
C526 C 0.41283 0.39962 0.03895 0.0
H527 H 0.42907 0.32285 0.04716 0.0
O528 O 0.4973 0.37047 0.22141 0.0
O529 O 0.48777 0.3876 0.10006 0.0
O530 O 0.51775 0.32726 0.09292 0.0
O531 O 0.48207 0.3354 0.99413 0.0
C532 C 0.36597 0.42938 0.07041 0.0
C533 C 0.38153 0.45722 0.04732 0.0
H534 H 0.41918 0.50582 0.99858 0.0
H535 H 0.47442 0.50002 0.9531 0.0
H536 H 0.37399 0.32138 0.09535 0.0
H537 H 0.34348 0.3709 0.10795 0.0
H538 H 0.34194 0.43064 0.09171 0.0
H539 H 0.36929 0.47949 0.05148 0.0
Mn540 Mn 0.13676 0.51607 0.6453 0.0
Mn541 Mn 0.1211 0.46744 0.49146 0.0
C542 C 0.11835 0.46599 0.67246 0.0
C543 C 0.11805 0.55464 0.73385 0.0
C544 C 0.18765 0.48654 0.54144 0.0
O545 O 0.13449 0.54501 0.54671 0.0
O546 O 0.1155 0.51157 0.45317 0.0
C547 C 0.05349 0.47791 0.45825 0.0
N548 N 0.07706 0.45859 0.48359 0.0
C549 C 0.04131 0.41492 0.4945 0.0
C550 C 0.01662 0.43445 0.46958 0.0
C551 C 0.02285 0.46593 0.4502 0.0
C552 C 0.07152 0.42792 0.49937 0.0
H553 H 0.05812 0.50215 0.44317 0.0
C554 C 0.1237 0.53925 0.47627 0.0
O555 O 0.14795 0.55201 0.71894 0.0
O556 O 0.09948 0.53625 0.69426 0.0
N557 N 0.1253 0.42432 0.52379 0.0
C558 C 0.1515 0.40852 0.54803 0.0
C559 C 0.1495 0.37635 0.56629 0.0
C560 C 0.12036 0.36096 0.56205 0.0
C561 C 0.09347 0.3779 0.53965 0.0
C562 C 0.09705 0.40976 0.52041 0.0
H563 H 0.17352 0.42056 0.55649 0.0
O564 O 0.13317 0.48177 0.72756 0.0
O565 O 0.11563 0.48006 0.6033 0.0
O566 O 0.17985 0.49983 0.60765 0.0
O567 O 0.16724 0.4751 0.49307 0.0
C568 C 0.06321 0.36449 0.53662 0.0
C569 C 0.03716 0.38296 0.51379 0.0
H570 H 0.99289 0.42542 0.46404 0.0
H571 H 0.00408 0.48083 0.42843 0.0
H572 H 0.17022 0.36367 0.58569 0.0
H573 H 0.11879 0.3363 0.57763 0.0
H574 H 0.05972 0.33997 0.55169 0.0
H575 H 0.01402 0.37235 0.51122 0.0
C576 C 0.99871 0.727 0.95359 0.0
C577 C 0.99168 0.71617 0.03201 0.0
C578 C 0.97834 0.77019 0.07112 0.0
C579 C 0.98217 0.78039 0.98934 0.0
N580 N 0.98407 0.7637 0.84985 0.0
N581 N 0.96665 0.72641 0.15954 0.0
C582 C 0.98867 0.75731 0.92959 0.0
C583 C 0.97901 0.73742 0.08906 0.0
N584 N 0.01644 0.70906 0.90307 0.0
N585 N 0.97556 0.79116 0.13298 0.0
H586 H 0.96621 0.70262 0.17454 0.0
H587 H 0.95395 0.74057 0.19913 0.0
H588 H 0.97455 0.81529 0.12607 0.0
H589 H 0.97687 0.78447 0.19327 0.0
H590 H 0.024 0.71695 0.8469 0.0
H591 H 0.02707 0.68838 0.92261 0.0
H592 H 0.98664 0.74667 0.80512 0.0
H593 H 0.97359 0.78445 0.82979 0.0
C594 C 0.73007 0.00546 0.44103 0.0
C595 C 0.71161 0.981 0.47569 0.0
C596 C 0.75751 0.96498 0.5573 0.0
C597 C 0.77485 0.99071 0.52731 0.0
N598 N 0.77599 0.0391 0.45287 0.0
N599 N 0.7154 0.92861 0.53264 0.0
C600 C 0.76069 0.01194 0.47236 0.0
C601 C 0.72736 0.95821 0.52465 0.0
N602 N 0.71992 0.02024 0.37278 0.0
N603 N 0.76942 0.94742 0.61914 0.0
H604 H 0.69685 0.92046 0.49779 0.0
H605 H 0.7271 0.9105 0.5624 0.0
H606 H 0.79133 0.95187 0.64509 0.0
H607 H 0.7563 0.93061 0.64992 0.0
H608 H 0.73334 0.03662 0.34143 0.0
H609 H 0.70054 0.01247 0.3399 0.0
H610 H 0.7657 0.05717 0.41977 0.0
H611 H 0.79779 0.045 0.47741 0.0
C612 C 0.47213 0.77389 0.94979 0.0
C613 C 0.4837 0.78705 0.02232 0.0
C614 C 0.51274 0.73924 0.05033 0.0
C615 C 0.49915 0.72371 0.98178 0.0
N616 N 0.46799 0.72916 0.85986 0.0
N617 N 0.50531 0.77866 0.15358 0.0
C618 C 0.47893 0.74173 0.9302 0.0
C619 C 0.49998 0.76805 0.0772 0.0
N620 N 0.45583 0.79288 0.89825 0.0
N621 N 0.54044 0.7294 0.08379 0.0
H622 H 0.49668 0.80028 0.17359 0.0
H623 H 0.5154 0.76461 0.19815 0.0
H624 H 0.55604 0.71447 0.05449 0.0
H625 H 0.55123 0.74109 0.13162 0.0
H626 H 0.44957 0.78676 0.83971 0.0
H627 H 0.44885 0.81547 0.91507 0.0
H628 H 0.44934 0.73857 0.82721 0.0
H629 H 0.4786 0.71009 0.83157 0.0
C630 C 0.74111 0.53983 0.47886 0.0
C631 C 0.72718 0.52033 0.53913 0.0
C632 C 0.77703 0.49138 0.55109 0.0
C633 C 0.78932 0.50851 0.4852 0.0
N634 N 0.78217 0.54646 0.37926 0.0
N635 N 0.7389 0.49013 0.65868 0.0
C636 C 0.77106 0.53192 0.44693 0.0
C637 C 0.74706 0.49948 0.58287 0.0
N638 N 0.72771 0.56795 0.45889 0.0
N639 N 0.7935 0.46644 0.58125 0.0
H640 H 0.72002 0.49997 0.68971 0.0
H641 H 0.75351 0.47681 0.69569 0.0
H642 H 0.81504 0.4593 0.55746 0.0
H643 H 0.78436 0.45094 0.62373 0.0
H644 H 0.73804 0.58418 0.42024 0.0
H645 H 0.70919 0.57768 0.49099 0.0
H646 H 0.76832 0.56074 0.34267 0.0
H647 H 0.80446 0.54216 0.35557 0.0
C648 C 0.01072 0.25584 0.92727 0.0
C649 C 0.01845 0.27913 0.98541 0.0
C650 C 0.02603 0.23651 0.08428 0.0
C651 C 0.01219 0.21489 0.02987 0.0
N652 N 0.98211 0.20768 0.90849 0.0
N653 N 0.02846 0.29049 0.12744 0.0
C654 C 0.00201 0.22554 0.95363 0.0
C655 C 0.02499 0.26927 0.06631 0.0
N656 N 0.01247 0.26213 0.84679 0.0
N657 N 0.04068 0.22592 0.15232 0.0
H658 H 0.0271 0.31465 0.12043 0.0
H659 H 0.02965 0.28382 0.18776 0.0
H660 H 0.0422 0.20213 0.16699 0.0
H661 H 0.05395 0.2405 0.18968 0.0
H662 H 0.00865 0.24492 0.80308 0.0
H663 H 0.02178 0.28305 0.82436 0.0
H664 H 0.97252 0.21541 0.85414 0.0
H665 H 0.97167 0.18761 0.93226 0.0
C666 C 0.26654 0.97954 0.47453 0.0
C667 C 0.27815 0.0014 0.53154 0.0
C668 C 0.22411 0.01357 0.57359 0.0
C669 C 0.21245 0.99493 0.50824 0.0
N670 N 0.22277 0.94652 0.43669 0.0
N671 N 0.26928 0.03022 0.65366 0.0
C672 C 0.23368 0.97374 0.47026 0.0
C673 C 0.25727 0.01587 0.58661 0.0
N674 N 0.28679 0.96444 0.42389 0.0
N675 N 0.20373 0.02786 0.62541 0.0
H676 H 0.29331 0.03046 0.66644 0.0
H677 H 0.25573 0.03957 0.69992 0.0
H678 H 0.18086 0.01981 0.63409 0.0
H679 H 0.20998 0.04632 0.66334 0.0
H680 H 0.27926 0.95125 0.37457 0.0
H681 H 0.31115 0.96646 0.42897 0.0
H682 H 0.23748 0.92926 0.413 0.0
H683 H 0.19966 0.93891 0.4444 0.0
C684 C 0.46546 0.23568 0.03337 0.0
C685 C 0.48486 0.21963 0.97621 0.0
C686 C 0.51464 0.26899 0.95723 0.0
C687 C 0.49752 0.28306 0.02098 0.0
N688 N 0.46159 0.27746 0.13162 0.0
N689 N 0.5178 0.22673 0.85935 0.0
C690 C 0.47461 0.26559 0.06282 0.0
C691 C 0.50695 0.2378 0.9314 0.0
N692 N 0.43627 0.22454 0.05237 0.0
N693 N 0.53902 0.28514 0.92334 0.0
H694 H 0.50857 0.20673 0.83187 0.0
H695 H 0.53221 0.23954 0.82091 0.0
H696 H 0.54541 0.30763 0.94244 0.0
H697 H 0.55469 0.27535 0.88232 0.0
H698 H 0.42062 0.23658 0.08945 0.0
H699 H 0.42521 0.20685 0.01984 0.0
H700 H 0.44722 0.26423 0.16944 0.0
H701 H 0.46773 0.29936 0.15508 0.0
C702 C 0.27448 0.50932 0.54149 0.0
C703 C 0.28819 0.48545 0.49393 0.0
C704 C 0.23618 0.4622 0.47058 0.0
C705 C 0.22191 0.48676 0.51739 0.0
N706 N 0.22796 0.5405 0.56357 0.0
N707 N 0.28124 0.44604 0.39151 0.0
C708 C 0.24121 0.51229 0.54346 0.0
C709 C 0.26883 0.46385 0.45229 0.0
N710 N 0.29313 0.52932 0.58471 0.0
N711 N 0.21944 0.43687 0.44378 0.0
H712 H 0.30484 0.44721 0.37469 0.0
H713 H 0.26759 0.43255 0.35243 0.0
H714 H 0.1952 0.43536 0.44211 0.0
H715 H 0.23024 0.41632 0.42359 0.0
H716 H 0.28417 0.54503 0.62707 0.0
H717 H 0.31763 0.52843 0.58287 0.0
H718 H 0.24118 0.56047 0.57682 0.0
H719 H 0.20413 0.54531 0.55548 0.0
C720 C 0.09106 0.58226 0.93873 0.0
C721 C 0.06581 0.60256 0.91757 0.0
C722 C 0.07848 0.59534 0.77448 0.0
C723 C 0.10451 0.57606 0.79583 0.0
N724 N 0.13986 0.55733 0.89953 0.0
N725 N 0.03931 0.63319 0.81551 0.0
C726 C 0.1125 0.57201 0.87832 0.0
C727 C 0.06087 0.61069 0.83552 0.0
N728 N 0.0929 0.57018 0.01483 0.0
N729 N 0.06961 0.59793 0.69561 0.0
H730 H 0.0245 0.64371 0.85729 0.0
H731 H 0.03762 0.64313 0.75837 0.0
H732 H 0.0827 0.58857 0.64858 0.0
H733 H 0.04834 0.60765 0.67696 0.0
H734 H 0.10887 0.55283 0.03168 0.0
H735 H 0.07628 0.57473 0.05928 0.0
H736 H 0.14832 0.55685 0.95843 0.0
H737 H 0.15569 0.54815 0.85808 0.0
C738 C 0.89098 0.08589 0.28939 0.0
C739 C 0.91738 0.10467 0.30907 0.0
C740 C 0.91421 0.08788 0.44999 0.0
C741 C 0.88811 0.0684 0.43052 0.0
N742 N 0.84793 0.05307 0.33583 0.0
N743 N 0.94778 0.13127 0.41081 0.0
C744 C 0.87523 0.06891 0.35137 0.0
C745 C 0.92667 0.10841 0.39047 0.0
N746 N 0.88148 0.08396 0.21092 0.0
N747 N 0.92904 0.08475 0.52267 0.0
H748 H 0.95795 0.14621 0.36852 0.0
H749 H 0.95303 0.13721 0.47022 0.0
H750 H 0.92155 0.06929 0.56729 0.0
H751 H 0.95044 0.09544 0.53617 0.0
H752 H 0.86508 0.06784 0.18956 0.0
H753 H 0.89079 0.09848 0.16632 0.0
H754 H 0.83559 0.05455 0.28182 0.0
H755 H 0.83633 0.03988 0.37943 0.0
C756 C 0.46542 0.94552 0.83708 0.0
C757 C 0.46659 0.91228 0.83613 0.0
C758 C 0.44016 0.91189 0.70431 0.0
C759 C 0.43508 0.94481 0.71096 0.0
N760 N 0.43893 0.99223 0.79177 0.0
N761 N 0.45554 0.86318 0.77022 0.0
C762 C 0.44702 0.96154 0.77886 0.0
C763 C 0.45421 0.89524 0.76986 0.0
N764 N 0.48217 0.96194 0.89366 0.0
N765 N 0.43275 0.89686 0.63402 0.0
H766 H 0.46746 0.85065 0.81469 0.0
H767 H 0.44381 0.849 0.72882 0.0
H768 H 0.42332 0.90857 0.58436 0.0
H769 H 0.43849 0.87355 0.622 0.0
H770 H 0.4857 0.98615 0.8909 0.0
H771 H 0.49514 0.95117 0.93931 0.0
H772 H 0.44407 0.00414 0.8449 0.0
H773 H 0.42451 0.00522 0.75386 0.0
C774 C 0.57809 0.40822 0.35259 0.0
C775 C 0.58784 0.41077 0.27148 0.0
C776 C 0.62513 0.45232 0.31041 0.0
C777 C 0.61176 0.45297 0.38881 0.0
N778 N 0.5699 0.43607 0.47727 0.0
N779 N 0.61928 0.43628 0.17059 0.0
C780 C 0.58697 0.43188 0.40839 0.0
C781 C 0.61108 0.4331 0.24963 0.0
N782 N 0.55955 0.38366 0.37608 0.0
N783 N 0.65171 0.46925 0.29471 0.0
H784 H 0.61095 0.42113 0.12593 0.0
H785 H 0.63307 0.45466 0.14902 0.0
H786 H 0.66298 0.48288 0.33829 0.0
H787 H 0.66413 0.46759 0.2409 0.0
H788 H 0.55467 0.37881 0.43626 0.0
H789 H 0.55184 0.36627 0.33647 0.0
H790 H 0.55 0.42293 0.4909 0.0
H791 H 0.57317 0.45494 0.5164 0.0
C792 C 0.09868 0.92046 0.13841 0.0
C793 C 0.09005 0.9171 0.22027 0.0
C794 C 0.04386 0.88651 0.1797 0.0
C795 C 0.04905 0.89504 0.09798 0.0
N796 N 0.08054 0.92339 1.00074 0.0
N797 N 0.05411 0.89778 0.32045 0.0
C798 C 0.07657 0.91242 0.07734 0.0
C799 C 0.0626 0.90022 0.24134 0.0
N800 N 0.12751 0.93243 0.119 0.0
N801 N 0.022 0.86421 0.1982 0.0
H802 H 0.06846 0.90559 0.36745 0.0
H803 H 0.03228 0.88943 0.33906 0.0
H804 H 0.00924 0.85242 0.15415 0.0
H805 H 0.01912 0.85491 0.25572 0.0
H806 H 0.13654 0.93242 0.06077 0.0
H807 H 0.14384 0.93962 0.16204 0.0
H808 H 0.09904 0.93779 0.98304 0.0
H809 H 0.06364 0.92098 0.95605 0.0
C810 C 0.57365 0.09021 0.69394 0.0
C811 C 0.57091 0.07796 0.77314 0.0
C812 C 0.60555 0.03386 0.73479 0.0
C813 C 0.60458 0.04435 0.65347 0.0
N814 N 0.60603 0.09222 0.57529 0.0
N815 N 0.58673 0.03999 0.87279 0.0
C816 C 0.59424 0.07553 0.63862 0.0
C817 C 0.58783 0.05037 0.79493 0.0
N818 N 0.55526 0.11473 0.66914 0.0
N819 N 0.62588 0.01036 0.7554 0.0
H820 H 0.57575 0.05265 0.91866 0.0
H821 H 0.59603 0.01873 0.8923 0.0
H822 H 0.64211 0.00117 0.71471 0.0
H823 H 0.62989 0.00294 0.8141 0.0
H824 H 0.55422 0.12199 0.60922 0.0
H825 H 0.53869 0.1257 0.70575 0.0
H826 H 0.60069 0.11582 0.5654 0.0
H827 H 0.62502 0.08422 0.54131 0.0
C828 C 0.45632 0.55555 0.23322 0.0
C829 C 0.42961 0.56897 0.27176 0.0
C830 C 0.43705 0.61597 0.18661 0.0
C831 C 0.45891 0.59885 0.13928 0.0
N832 N 0.48131 0.54857 0.10484 0.0
N833 N 0.39741 0.61513 0.29204 0.0
C834 C 0.46586 0.56743 0.15834 0.0
C835 C 0.42061 0.60019 0.25022 0.0
N836 N 0.47434 0.53312 0.26959 0.0
N837 N 0.43266 0.64725 0.17189 0.0
H838 H 0.38907 0.6069 0.34708 0.0
H839 H 0.3868 0.63587 0.27287 0.0
H840 H 0.44393 0.65891 0.12478 0.0
H841 H 0.41937 0.66199 0.2085 0.0
H842 H 0.49506 0.52476 0.24369 0.0
H843 H 0.47219 0.52718 0.33009 0.0
H844 H 0.4851 0.52471 0.11537 0.0
H845 H 0.48796 0.55618 0.04759 0.0
C846 C 0.92455 0.38445 0.63139 0.0
C847 C 0.9219 0.39421 0.71281 0.0
C848 C 0.88911 0.43887 0.67128 0.0
C849 C 0.895 0.4312 0.58937 0.0
N850 N 0.9047 0.38837 0.49572 0.0
N851 N 0.90098 0.42961 0.81236 0.0
C852 C 0.90837 0.4014 0.57035 0.0
C853 C 0.90339 0.42079 0.73339 0.0
N854 N 0.94461 0.36061 0.61105 0.0
N855 N 0.86858 0.46262 0.68919 0.0
H856 H 0.90977 0.41592 0.85925 0.0
H857 H 0.89156 0.45087 0.83175 0.0
H858 H 0.8566 0.47523 0.64496 0.0
H859 H 0.86091 0.46799 0.74702 0.0
H860 H 0.95125 0.35584 0.55192 0.0
H861 H 0.95669 0.34707 0.6532 0.0
H862 H 0.91167 0.36553 0.48192 0.0
H863 H 0.89093 0.39803 0.45047 0.0
C864 C 0.91355 0.39927 0.07461 0.0
C865 C 0.94392 0.38679 0.09149 0.0
C866 C 0.93589 0.39833 0.23521 0.0
C867 C 0.90859 0.41611 0.21525 0.0
N868 N 0.87496 0.43808 0.11179 0.0
N869 N 0.97569 0.36119 0.19141 0.0
C870 C 0.89809 0.41751 0.13411 0.0
C871 C 0.95279 0.38256 0.17318 0.0
N872 N 0.89807 0.39192 0.005 0.0
N873 N 0.94639 0.39754 0.31305 0.0
H874 H 0.98563 0.34685 0.14743 0.0
H875 H 0.98196 0.35471 0.24965 0.0
H876 H 0.93379 0.40705 0.36087 0.0
H877 H 0.96831 0.38893 0.33014 0.0
H878 H 0.87502 0.39897 0.99353 0.0
H879 H 0.90551 0.37452 0.96545 0.0
H880 H 0.86956 0.44276 0.0517 0.0
H881 H 0.86339 0.45292 0.15187 0.0
C882 C 0.06563 0.94345 0.72628 0.0
C883 C 0.07237 0.91094 0.73398 0.0
C884 C 0.10665 0.91685 0.61528 0.0
C885 C 0.09173 0.94611 0.59627 0.0
N886 N 0.04865 0.9812 0.62971 0.0
N887 N 0.10294 0.86685 0.68457 0.0
C888 C 0.0688 0.9577 0.65063 0.0
C889 C 0.09382 0.89745 0.67782 0.0
N890 N 0.05645 0.96108 0.79075 0.0
N891 N 0.1343 0.90853 0.57931 0.0
H892 H 0.099 0.85335 0.73571 0.0
H893 H 0.11466 0.85501 0.63851 0.0
H894 H 0.1467 0.92325 0.54074 0.0
H895 H 0.14716 0.88875 0.59622 0.0
H896 H 0.05274 0.98528 0.78663 0.0
H897 H 0.05702 0.95247 0.84936 0.0
H898 H 0.0309 0.98916 0.66797 0.0
H899 H 0.04652 0.98892 0.57085 0.0
C900 C 0.54731 0.09133 0.29395 0.0
C901 C 0.57433 0.07334 0.27329 0.0
C902 C 0.57367 0.09669 0.13852 0.0
C903 C 0.54303 0.10871 0.1526 0.0
N904 N 0.50983 0.13168 0.25382 0.0
N905 N 0.61073 0.05581 0.17046 0.0
C906 C 0.5322 0.11006 0.23355 0.0
C907 C 0.58708 0.07545 0.19445 0.0
N908 N 0.536 0.09019 0.3709 0.0
N909 N 0.59117 0.10747 0.07545 0.0
H910 H 0.62064 0.03869 0.20743 0.0
H911 H 0.61818 0.05434 0.11078 0.0
H912 H 0.58438 0.12687 0.04124 0.0
H913 H 0.61448 0.10086 0.06609 0.0
H914 H 0.51455 0.0997 0.38848 0.0
H915 H 0.54778 0.07868 0.41749 0.0
H916 H 0.50259 0.13602 0.3125 0.0
H917 H 0.50173 0.1485 0.21313 0.0
C918 C 0.43824 0.55508 0.61755 0.0
C919 C 0.41156 0.53592 0.63262 0.0
C920 C 0.41218 0.55283 0.77455 0.0
C921 C 0.4365 0.57449 0.75661 0.0
N922 N 0.46847 0.60065 0.65704 0.0
N923 N 0.37006 0.51997 0.72289 0.0
C924 C 0.44816 0.57701 0.67681 0.0
C925 C 0.39769 0.53563 0.7106 0.0
N926 N 0.45528 0.55116 0.54843 0.0
N927 N 0.40327 0.54836 0.85271 0.0
H928 H 0.35855 0.50746 0.67761 0.0
H929 H 0.35717 0.52157 0.77599 0.0
H930 H 0.4127 0.56132 0.90036 0.0
H931 H 0.38821 0.53042 0.87083 0.0
H932 H 0.47681 0.56214 0.53831 0.0
H933 H 0.44986 0.53431 0.50496 0.0
H934 H 0.47536 0.6054 0.59812 0.0
H935 H 0.47588 0.61757 0.69817 0.0
C936 C 0.88574 0.07334 0.8926 0.0
C937 C 0.88973 0.08147 0.81062 0.0
C938 C 0.93361 0.11626 0.84607 0.0
C939 C 0.93224 0.10514 0.92716 0.0
N940 N 0.90956 0.06979 0.02497 0.0
N941 N 0.91368 0.11302 0.70852 0.0
C942 C 0.90851 0.08333 0.9503 0.0
C943 C 0.91226 0.10413 0.7876 0.0
N944 N 0.86062 0.05529 0.91466 0.0
N945 N 0.95575 0.13797 0.82468 0.0
H946 H 0.89653 0.10635 0.66681 0.0
H947 H 0.9314 0.12664 0.68338 0.0
H948 H 0.97395 0.14486 0.86245 0.0
H949 H 0.9562 0.14977 0.76992 0.0
H950 H 0.85449 0.05077 0.97418 0.0
H951 H 0.84405 0.04713 0.8733 0.0
H952 H 0.89461 0.05192 0.04373 0.0
H953 H 0.92719 0.07439 0.06693 0.0
C954 C 0.3821 0.96846 0.27008 0.0
C955 C 0.40002 0.98047 0.33538 0.0
C956 C 0.4478 0.95696 0.27929 0.0
C957 C 0.43032 0.94563 0.21192 0.0
N958 N 0.38209 0.94557 0.13568 0.0
N959 N 0.45083 0.99341 0.39089 0.0
C960 C 0.39774 0.95271 0.20529 0.0
C961 C 0.43315 0.97709 0.33603 0.0
N962 N 0.35017 0.97169 0.2707 0.0
N963 N 0.47779 0.94672 0.29321 0.0
H964 H 0.44109 0.00783 0.43513 0.0
H965 H 0.47523 0.99512 0.38766 0.0
H966 H 0.4896 0.9309 0.25653 0.0
H967 H 0.49 0.9514 0.34625 0.0
H968 H 0.33523 0.96035 0.23036 0.0
H969 H 0.33846 0.98483 0.31434 0.0
H970 H 0.35917 0.95272 0.12349 0.0
H971 H 0.39303 0.93482 0.08668 0.0
C972 C 0.56169 0.38868 0.81518 0.0
C973 C 0.56272 0.40129 0.89451 0.0
C974 C 0.60142 0.44038 0.85063 0.0
C975 C 0.59723 0.43045 0.76969 0.0
N976 N 0.5723 0.39654 0.6728 0.0
N977 N 0.57874 0.44333 0.9837 0.0
C978 C 0.57712 0.40488 0.75135 0.0
C979 C 0.58161 0.42802 0.91158 0.0
N980 N 0.5464 0.36095 0.80128 0.0
N981 N 0.62403 0.46204 0.8694 0.0
H982 H 0.56351 0.43615 0.02916 0.0
H983 H 0.58909 0.46503 0.99568 0.0
H984 H 0.63853 0.47243 0.82653 0.0
H985 H 0.63037 0.46757 0.92837 0.0
H986 H 0.54729 0.3489 0.74675 0.0
H987 H 0.5348 0.3486 0.84653 0.0
H988 H 0.555 0.38079 0.65424 0.0
H989 H 0.58472 0.4067 0.62538 0.0
C990 C 0.1273 0.55987 0.33402 0.0
C991 C 0.11985 0.56541 0.41632 0.0
C992 C 0.08599 0.60937 0.37728 0.0
C993 C 0.09134 0.60227 0.29499 0.0
N994 N 0.12473 0.5787 0.19571 0.0
N995 N 0.1066 0.60603 0.51242 0.0
C996 C 0.11455 0.57996 0.27355 0.0
C997 C 0.10382 0.59352 0.43718 0.0
N998 N 0.14666 0.53545 0.31414 0.0
N999 N 0.06282 0.62991 0.39901 0.0
H1000 H 0.12245 0.59748 0.55481 0.0
H1001 H 0.09689 0.62766 0.52829 0.0
H1002 H 0.04939 0.64243 0.3574 0.0
H1003 H 0.0555 0.63274 0.45847 0.0
H1004 H 0.15001 0.52752 0.25546 0.0
H1005 H 0.15922 0.52283 0.35744 0.0
H1006 H 0.14298 0.56438 0.1759 0.0
H1007 H 0.11681 0.59466 0.15252 0.0
C1008 C 0.93621 0.53893 0.24386 0.0
C1009 C 0.90879 0.54999 0.2834 0.0
C1010 C 0.92479 0.60434 0.25404 0.0
C1011 C 0.95373 0.59305 0.22279 0.0
N1012 N 0.9888 0.54901 0.19962 0.0
N1013 N 0.871 0.59163 0.29147 0.0
C1014 C 0.95999 0.56026 0.22168 0.0
C1015 C 0.9013 0.58237 0.27905 0.0
N1016 N 0.93789 0.50866 0.21673 0.0
N1017 N 0.91996 0.63596 0.26071 0.0
H1018 H 0.8532 0.57562 0.30509 0.0
H1019 H 0.86295 0.61436 0.28096 0.0
H1020 H 0.93655 0.65249 0.24221 0.0
H1021 H 0.90036 0.64582 0.28834 0.0
H1022 H 0.9565 0.49979 0.18292 0.0
H1023 H 0.91831 0.49435 0.21236 0.0
H1024 H 0.99614 0.52611 0.21178 0.0
H1025 H 0.00612 0.56258 0.17328 0.0
C1026 C 0.92961 0.95121 0.71525 0.0
C1027 C 0.89673 0.94533 0.71167 0.0
C1028 C 0.90633 0.89166 0.76276 0.0
C1029 C 0.93855 0.89898 0.77305 0.0
N1030 N 0.98096 0.92828 0.71264 0.0
N1031 N 0.8532 0.91056 0.73665 0.0
C1032 C 0.95038 0.92676 0.73698 0.0
C1033 C 0.8849 0.91561 0.73652 0.0
N1034 N 0.94151 0.98029 0.69851 0.0
N1035 N 0.89687 0.86124 0.77157 0.0
H1036 H 0.83712 0.92749 0.71746 0.0
H1037 H 0.84269 0.89033 0.75924 0.0
H1038 H 0.87447 0.85326 0.75672 0.0
H1039 H 0.9126 0.84338 0.78692 0.0
H1040 H 0.96437 0.98692 0.71364 0.0
H1041 H 0.9285 0.99841 0.67361 0.0
H1042 H 0.99051 0.94731 0.6819 0.0
H1043 H 0.9949 0.9084 0.70723 0.0
C1044 C 0.5521 0.89314 0.28571 0.0
C1045 C 0.5535 0.89767 0.20065 0.0
C1046 C 0.59888 0.931 0.22779 0.0
C1047 C 0.59067 0.93462 0.31039 0.0
N1048 N 0.54665 0.92638 0.40105 0.0
N1049 N 0.57079 0.93733 0.10473 0.0
C1050 C 0.56402 0.91725 0.33662 0.0
C1051 C 0.57534 0.92065 0.17355 0.0
N1052 N 0.5374 0.8677 0.3181 0.0
N1053 N 0.6275 0.94004 0.19954 0.0
H1054 H 0.55 0.93649 0.07185 0.0
H1055 H 0.58593 0.95553 0.08817 0.0
H1056 H 0.64612 0.94552 0.23814 0.0
H1057 H 0.63299 0.93876 0.13849 0.0
H1058 H 0.53541 0.86474 0.38019 0.0
H1059 H 0.5305 0.84853 0.28301 0.0
H1060 H 0.52612 0.91459 0.41751 0.0
H1061 H 0.55007 0.94777 0.42997 0.0
C1062 C 0.57745 0.58173 0.67781 0.0
C1063 C 0.60423 0.56638 0.71035 0.0
C1064 C 0.58437 0.58285 0.84114 0.0
C1065 C 0.56412 0.60579 0.80675 0.0
N1066 N 0.55139 0.63177 0.67978 0.0
N1067 N 0.63716 0.56331 0.8303 0.0
C1068 C 0.56473 0.60753 0.72081 0.0
C1069 C 0.6097 0.57159 0.79403 0.0
N1070 N 0.55999 0.56861 0.61811 0.0
N1071 N 0.57613 0.56617 0.90745 0.0
H1072 H 0.65739 0.55799 0.79747 0.0
H1073 H 0.64006 0.56524 0.8924 0.0
H1074 H 0.55372 0.56728 0.93227 0.0
H1075 H 0.59004 0.54767 0.92852 0.0
H1076 H 0.53893 0.5788 0.59884 0.0
H1077 H 0.56387 0.54582 0.59771 0.0
H1078 H 0.54959 0.63142 0.61726 0.0
H1079 H 0.54564 0.65303 0.70748 0.0
C1080 C 0.10935 0.41149 0.7286 0.0
C1081 C 0.09704 0.44013 0.69759 0.0
C1082 C 0.0437 0.42062 0.71969 0.0
C1083 C 0.05588 0.3946 0.76313 0.0
N1084 N 0.09823 0.35769 0.76968 0.0
N1085 N 0.05166 0.47355 0.67434 0.0
C1086 C 0.08825 0.38768 0.75622 0.0
C1087 C 0.06403 0.44512 0.69594 0.0
N1088 N 0.14115 0.40747 0.73396 0.0
N1089 N 0.0135 0.42031 0.69185 0.0
H1090 H 0.06491 0.4923 0.65333 0.0
H1091 H 0.02811 0.47936 0.68328 0.0
H1092 H 1.00003 0.40001 0.6912 0.0
H1093 H 0.00408 0.43777 0.65503 0.0
H1094 H 0.15175 0.38785 0.75956 0.0
H1095 H 0.15718 0.42446 0.71498 0.0
H1096 H 0.12089 0.3499 0.75703 0.0
H1097 H 0.08273 0.33985 0.78649 0.0
C1098 C 0.04997 0.05891 0.20843 0.0
C1099 C 0.05533 0.09185 0.20941 0.0
C1100 C 0.10946 0.08221 0.25736 0.0
C1101 C 0.10277 0.04972 0.26183 0.0
N1102 N 0.074 0.00822 0.19559 0.0
N1103 N 0.0897 0.13546 0.23747 0.0
C1104 C 0.0751 0.03822 0.22454 0.0
C1105 C 0.08508 0.10373 0.23433 0.0
N1106 N 0.02066 0.047 0.19402 0.0
N1107 N 0.13968 0.09191 0.26877 0.0
H1108 H 0.07231 0.15156 0.22117 0.0
H1109 H 0.11013 0.14598 0.25896 0.0
H1110 H 0.15773 0.07597 0.28113 0.0
H1111 H 0.14739 0.11478 0.25895 0.0
H1112 H 0.01496 0.02347 0.20351 0.0
H1113 H 0.00132 0.06073 0.17938 0.0
H1114 H 0.05486 0.99902 0.16421 0.0
H1115 H 0.0941 0.99461 0.18893 0.0
C1116 C 0.38785 0.06823 0.78405 0.0
C1117 C 0.39235 0.0696 0.69901 0.0
C1118 C 0.42884 0.11244 0.72716 0.0
C1119 C 0.4322 0.10334 0.80927 0.0
N1120 N 0.421 0.0595 0.89822 0.0
N1121 N 0.43228 0.08533 0.60194 0.0
C1122 C 0.41293 0.07797 0.83485 0.0
C1123 C 0.41654 0.09015 0.67205 0.0
N1124 N 0.36151 0.05517 0.81628 0.0
N1125 N 0.43978 0.14057 0.70011 0.0
H1126 H 0.42974 0.06513 0.56744 0.0
H1127 H 0.45133 0.0994 0.58539 0.0
H1128 H 0.447 0.15831 0.73952 0.0
H1129 H 0.43831 0.14681 0.63951 0.0
H1130 H 0.35853 0.05304 0.87832 0.0
H1131 H 0.3419 0.04967 0.78106 0.0
H1132 H 0.4077 0.03985 0.91425 0.0
H1133 H 0.44276 0.06103 0.92644 0.0
C1134 C 0.42397 0.388 0.24132 0.0
C1135 C 0.45079 0.40227 0.20574 0.0
C1136 C 0.42822 0.45415 0.23389 0.0
C1137 C 0.40417 0.44011 0.28152 0.0
N1138 N 0.37021 0.39549 0.28709 0.0
N1139 N 0.47985 0.44997 0.1774 0.0
C1140 C 0.39945 0.40735 0.2735 0.0
C1141 C 0.45324 0.43553 0.20465 0.0
N1142 N 0.4221 0.35603 0.24537 0.0
N1143 N 0.42565 0.48434 0.20663 0.0
H1144 H 0.4979 0.43857 0.14757 0.0
H1145 H 0.48476 0.47354 0.18869 0.0
H1146 H 0.40609 0.49853 0.21343 0.0
H1147 H 0.44083 0.49382 0.16399 0.0
H1148 H 0.40408 0.34415 0.27478 0.0
H1149 H 0.43947 0.34136 0.222 0.0
H1150 H 0.3638 0.37254 0.2728 0.0
H1151 H 0.35145 0.40996 0.30344 0.0
loop_
_geom_bond_atom_site_label_1
_geom_bond_atom_site_label_2
_geom_bond_distance
_geom_bond_site_symmetry_2
_ccdc_geom_bond_type
Mn0 O5 2.095 . S
Mn0 O15 2.162 . S
Mn0 O16 2.297 . S
Mn0 O24 2.385 1_455 S
Mn0 O25 2.209 1_455 S
Mn0 O26 2.094 . S
Mn1 O6 2.121 1_654 S
Mn1 N8 2.257 1_554 S
Mn1 N17 2.282 . S
Mn1 O25 2.215 . S
Mn1 O27 2.117 . S
C2 O24 1.234 . S
C2 O25 1.283 . S
C3 O15 1.281 . S
C3 O16 1.236 . S
C4 O26 1.240 1_655 S
C4 O27 1.264 . S
O5 Mn0 2.095 . S
O5 C14 1.242 1_554 S
O6 Mn1 2.121 1_456 S
O6 C14 1.262 . S
C7 N8 1.326 . S
C7 C11 1.460 . S
C7 H13 0.929 . S
N8 Mn1 2.257 1_556 S
N8 C7 1.326 . S
N8 C12 1.362 . S
C9 C10 1.258 . S
C9 C12 1.431 . S
C9 C29 1.449 . S
C10 C9 1.258 . S
C10 C11 1.477 . S
C10 H30 0.931 . S
C11 C7 1.460 . S
C11 C10 1.477 . S
C11 H31 0.930 . S
C12 N8 1.362 . S
C12 C9 1.431 . S
C12 C22 1.476 1_556 S
H13 C7 0.929 . S
C14 O5 1.242 1_556 S
C14 O6 1.262 . S
O15 Mn0 2.162 . S
O15 C3 1.281 . S
O16 Mn0 2.297 . S
O16 C3 1.236 . S
N17 Mn1 2.282 . S
N17 C18 1.328 . S
N17 C22 1.318 . S
C18 N17 1.328 . S
C18 C19 1.457 . S
C18 H23 0.929 . S
C19 C18 1.457 . S
C19 C20 1.291 . S
C19 H32 0.931 . S
C20 C19 1.291 . S
C20 C21 1.373 . S
C20 H33 0.929 . S
C21 C20 1.373 . S
C21 C22 1.396 . S
C21 C28 1.403 . S
C22 C12 1.476 1_554 S
C22 N17 1.318 . S
C22 C21 1.396 . S
H23 C18 0.929 . S
O24 Mn0 2.385 1_655 S
O24 C2 1.234 . S
O25 Mn0 2.209 1_655 S
O25 Mn1 2.215 . S
O25 C2 1.283 . S
O26 Mn0 2.094 . S
O26 C4 1.240 1_455 S
O27 Mn1 2.117 . S
O27 C4 1.264 . S
C28 C21 1.403 . S
C28 C29 1.399 1_554 S
C28 H34 0.929 . S
C29 C9 1.449 . S
C29 C28 1.399 1_556 S
C29 H35 0.930 . S
H30 C10 0.931 . S
H31 C11 0.930 . S
H32 C19 0.931 . S
H33 C20 0.929 . S
H34 C28 0.929 . S
H35 C29 0.930 . S
Mn36 O41 2.095 . S
Mn36 O51 2.162 . S
Mn36 O52 2.297 . S
Mn36 O60 2.385 1_545 S
Mn36 O61 2.209 1_545 S
Mn36 O62 2.094 . S
Mn37 O42 2.121 1_565 S
Mn37 N44 2.257 . S
Mn37 N53 2.282 . S
Mn37 O61 2.215 . S
Mn37 O63 2.117 . S
C38 O60 1.234 . S
C38 O61 1.283 . S
C39 O51 1.281 . S
C39 O52 1.236 . S
C40 O62 1.240 1_565 S
C40 O63 1.264 . S
O41 Mn36 2.095 . S
O41 C50 1.250 . S
O42 Mn37 2.121 1_545 S
O42 C50 1.258 . S
C43 N44 1.326 . S
C43 C47 1.460 . S
C43 H49 0.929 . S
N44 Mn37 2.257 . S
N44 C43 1.326 . S
N44 C48 1.362 . S
C45 C46 1.258 . S
C45 C48 1.431 . S
C45 C65 1.449 . S
C46 C45 1.258 . S
C46 C47 1.477 . S
C46 H66 0.931 . S
C47 C43 1.460 . S
C47 C46 1.477 . S
C47 H67 0.930 . S
C48 N44 1.362 . S
C48 C45 1.431 . S
C48 C58 1.476 . S
H49 C43 0.929 . S
C50 O41 1.250 . S
C50 O42 1.258 . S
O51 Mn36 2.162 . S
O51 C39 1.281 . S
O52 Mn36 2.297 . S
O52 C39 1.236 . S
N53 Mn37 2.282 . S
N53 C54 1.328 . S
N53 C58 1.318 . S
C54 N53 1.328 . S
C54 C55 1.457 . S
C54 H59 0.929 . S
C55 C54 1.457 . S
C55 C56 1.291 . S
C55 H68 0.931 . S
C56 C55 1.291 . S
C56 C57 1.373 . S
C56 H69 0.929 . S
C57 C56 1.373 . S
C57 C58 1.396 . S
C57 C64 1.403 . S
C58 C48 1.476 . S
C58 N53 1.318 . S
C58 C57 1.396 . S
H59 C54 0.929 . S
O60 Mn36 2.385 1_565 S
O60 C38 1.234 . S
O61 Mn36 2.209 1_565 S
O61 Mn37 2.215 . S
O61 C38 1.283 . S
O62 Mn36 2.094 . S
O62 C40 1.240 1_545 S
O63 Mn37 2.117 . S
O63 C40 1.264 . S
C64 C57 1.403 . S
C64 C65 1.399 . S
C64 H70 0.929 . S
C65 C45 1.449 . S
C65 C64 1.399 . S
C65 H71 0.930 . S
H66 C46 0.931 . S
H67 C47 0.930 . S
H68 C55 0.931 . S
H69 C56 0.929 . S
H70 C64 0.929 . S
H71 C65 0.930 . S
Mn72 O77 2.095 . S
Mn72 O87 2.162 . S
Mn72 O88 2.297 . S
Mn72 O96 2.385 . S
Mn72 O97 2.209 . S
Mn72 O98 2.094 . S
Mn73 O78 2.121 1_554 S
Mn73 N80 2.257 1_554 S
Mn73 N89 2.282 . S
Mn73 O97 2.215 . S
Mn73 O99 2.117 . S
C74 O96 1.234 . S
C74 O97 1.283 . S
C75 O87 1.281 . S
C75 O88 1.236 . S
C76 O98 1.240 . S
C76 O99 1.264 . S
O77 Mn72 2.095 . S
O77 C86 1.242 1_554 S
O78 Mn73 2.121 1_556 S
O78 C86 1.262 . S
C79 N80 1.326 . S
C79 C83 1.460 . S
C79 H85 0.929 . S
N80 Mn73 2.257 1_556 S
N80 C79 1.326 . S
N80 C84 1.362 . S
C81 C82 1.258 . S
C81 C84 1.431 . S
C81 C101 1.449 . S
C82 C81 1.258 . S
C82 C83 1.477 . S
C82 H102 0.931 . S
C83 C79 1.460 . S
C83 C82 1.477 . S
C83 H103 0.930 . S
C84 N80 1.362 . S
C84 C81 1.431 . S
C84 C94 1.476 1_556 S
H85 C79 0.929 . S
C86 O77 1.242 1_556 S
C86 O78 1.262 . S
O87 Mn72 2.162 . S
O87 C75 1.281 . S
O88 Mn72 2.297 . S
O88 C75 1.236 . S
N89 Mn73 2.282 . S
N89 C90 1.328 . S
N89 C94 1.318 . S
C90 N89 1.328 . S
C90 C91 1.457 . S
C90 H95 0.929 . S
C91 C90 1.457 . S
C91 C92 1.291 . S
C91 H104 0.931 . S
C92 C91 1.291 . S
C92 C93 1.373 . S
C92 H105 0.929 . S
C93 C92 1.373 . S
C93 C94 1.396 . S
C93 C100 1.403 . S
C94 C84 1.476 1_554 S
C94 N89 1.318 . S
C94 C93 1.396 . S
H95 C90 0.929 . S
O96 Mn72 2.385 . S
O96 C74 1.234 . S
O97 Mn72 2.209 . S
O97 Mn73 2.215 . S
O97 C74 1.283 . S
O98 Mn72 2.094 . S
O98 C76 1.240 . S
O99 Mn73 2.117 . S
O99 C76 1.264 . S
C100 C93 1.403 . S
C100 C101 1.399 1_554 S
C100 H106 0.929 . S
C101 C81 1.449 . S
C101 C100 1.399 1_556 S
C101 H107 0.930 . S
H102 C82 0.931 . S
H103 C83 0.930 . S
H104 C91 0.931 . S
H105 C92 0.929 . S
H106 C100 0.929 . S
H107 C101 0.930 . S
Mn108 O113 2.095 . S
Mn108 O123 2.162 . S
Mn108 O124 2.297 . S
Mn108 O132 2.385 . S
Mn108 O133 2.209 . S
Mn108 O134 2.094 . S
Mn109 O114 2.121 . S
Mn109 N116 2.257 . S
Mn109 N125 2.282 . S
Mn109 O133 2.215 . S
Mn109 O135 2.117 . S
C110 O132 1.234 . S
C110 O133 1.283 . S
C111 O123 1.281 . S
C111 O124 1.236 . S
C112 O134 1.240 . S
C112 O135 1.264 . S
O113 Mn108 2.095 . S
O113 C122 1.250 . S
O114 Mn109 2.121 . S
O114 C122 1.258 . S
C115 N116 1.326 . S
C115 C119 1.460 . S
C115 H121 0.929 . S
N116 Mn109 2.257 . S
N116 C115 1.326 . S
N116 C120 1.362 . S
C117 C118 1.258 . S
C117 C120 1.431 . S
C117 C137 1.449 . S
C118 C117 1.258 . S
C118 C119 1.477 . S
C118 H138 0.931 . S
C119 C115 1.460 . S
C119 C118 1.477 . S
C119 H139 0.930 . S
C120 N116 1.362 . S
C120 C117 1.431 . S
C120 C130 1.476 . S
H121 C115 0.929 . S
C122 O113 1.250 . S
C122 O114 1.258 . S
O123 Mn108 2.162 . S
O123 C111 1.281 . S
O124 Mn108 2.297 . S
O124 C111 1.236 . S
N125 Mn109 2.282 . S
N125 C126 1.328 . S
N125 C130 1.318 . S
C126 N125 1.328 . S
C126 C127 1.457 . S
C126 H131 0.929 . S
C127 C126 1.457 . S
C127 C128 1.291 . S
C127 H140 0.931 . S
C128 C127 1.291 . S
C128 C129 1.373 . S
C128 H141 0.929 . S
C129 C128 1.373 . S
C129 C130 1.396 . S
C129 C136 1.403 . S
C130 C120 1.476 . S
C130 N125 1.318 . S
C130 C129 1.396 . S
H131 C126 0.929 . S
O132 Mn108 2.385 . S
O132 C110 1.234 . S
O133 Mn108 2.209 . S
O133 Mn109 2.215 . S
O133 C110 1.283 . S
O134 Mn108 2.094 . S
O134 C112 1.240 . S
O135 Mn109 2.117 . S
O135 C112 1.264 . S
C136 C129 1.403 . S
C136 C137 1.399 . S
C136 H142 0.929 . S
C137 C117 1.449 . S
C137 C136 1.399 . S
C137 H143 0.930 . S
H138 C118 0.931 . S
H139 C119 0.930 . S
H140 C127 0.931 . S
H141 C128 0.929 . S
H142 C136 0.929 . S
H143 C137 0.930 . S
Mn144 O149 2.095 . S
Mn144 O159 2.162 . S
Mn144 O160 2.297 . S
Mn144 O168 2.385 1_455 S
Mn144 O169 2.209 1_455 S
Mn144 O170 2.094 . S
Mn145 O150 2.121 1_656 S
Mn145 N152 2.257 1_556 S
Mn145 N161 2.282 . S
Mn145 O169 2.215 . S
Mn145 O171 2.117 . S
C146 O168 1.234 . S
C146 O169 1.283 . S
C147 O159 1.281 . S
C147 O160 1.236 . S
C148 O170 1.240 1_655 S
C148 O171 1.264 . S
O149 Mn144 2.095 . S
O149 C158 1.242 1_556 S
O150 Mn145 2.121 1_454 S
O150 C158 1.262 . S
C151 N152 1.326 . S
C151 C155 1.460 . S
C151 H157 0.929 . S
N152 Mn145 2.257 1_554 S
N152 C151 1.326 . S
N152 C156 1.362 . S
C153 C154 1.258 . S
C153 C156 1.431 . S
C153 C173 1.449 . S
C154 C153 1.258 . S
C154 C155 1.477 . S
C154 H174 0.931 . S
C155 C151 1.460 . S
C155 C154 1.477 . S
C155 H175 0.930 . S
C156 N152 1.362 . S
C156 C153 1.431 . S
C156 C166 1.476 1_554 S
H157 C151 0.929 . S
C158 O149 1.242 1_554 S
C158 O150 1.262 . S
O159 Mn144 2.162 . S
O159 C147 1.281 . S
O160 Mn144 2.297 . S
O160 C147 1.236 . S
N161 Mn145 2.282 . S
N161 C162 1.328 . S
N161 C166 1.318 . S
C162 N161 1.328 . S
C162 C163 1.457 . S
C162 H167 0.929 . S
C163 C162 1.457 . S
C163 C164 1.291 . S
C163 H176 0.931 . S
C164 C163 1.291 . S
C164 C165 1.373 . S
C164 H177 0.929 . S
C165 C164 1.373 . S
C165 C166 1.396 . S
C165 C172 1.403 . S
C166 C156 1.476 1_556 S
C166 N161 1.318 . S
C166 C165 1.396 . S
H167 C162 0.929 . S
O168 Mn144 2.385 1_655 S
O168 C146 1.234 . S
O169 Mn144 2.209 1_655 S
O169 Mn145 2.215 . S
O169 C146 1.283 . S
O170 Mn144 2.094 . S
O170 C148 1.240 1_455 S
O171 Mn145 2.117 . S
O171 C148 1.264 . S
C172 C165 1.403 . S
C172 C173 1.399 1_556 S
C172 H178 0.929 . S
C173 C153 1.449 . S
C173 C172 1.399 1_554 S
C173 H179 0.930 . S
H174 C154 0.931 . S
H175 C155 0.930 . S
H176 C163 0.931 . S
H177 C164 0.929 . S
H178 C172 0.929 . S
H179 C173 0.930 . S
Mn180 O185 2.095 . S
Mn180 O195 2.162 . S
Mn180 O196 2.297 . S
Mn180 O204 2.385 1_545 S
Mn180 O205 2.209 1_545 S
Mn180 O206 2.094 . S
Mn181 O186 2.121 1_565 S
Mn181 N188 2.257 . S
Mn181 N197 2.282 . S
Mn181 O205 2.215 . S
Mn181 O207 2.117 . S
C182 O204 1.234 . S
C182 O205 1.283 . S
C183 O195 1.281 . S
C183 O196 1.236 . S
C184 O206 1.240 1_565 S
C184 O207 1.264 . S
O185 Mn180 2.095 . S
O185 C194 1.250 . S
O186 Mn181 2.121 1_545 S
O186 C194 1.258 . S
C187 N188 1.326 . S
C187 C191 1.460 . S
C187 H193 0.929 . S
N188 Mn181 2.257 . S
N188 C187 1.326 . S
N188 C192 1.362 . S
C189 C190 1.258 . S
C189 C192 1.431 . S
C189 C209 1.449 . S
C190 C189 1.258 . S
C190 C191 1.477 . S
C190 H210 0.931 . S
C191 C187 1.460 . S
C191 C190 1.477 . S
C191 H211 0.930 . S
C192 N188 1.362 . S
C192 C189 1.431 . S
C192 C202 1.476 . S
H193 C187 0.929 . S
C194 O185 1.250 . S
C194 O186 1.258 . S
O195 Mn180 2.162 . S
O195 C183 1.281 . S
O196 Mn180 2.297 . S
O196 C183 1.236 . S
N197 Mn181 2.282 . S
N197 C198 1.328 . S
N197 C202 1.318 . S
C198 N197 1.328 . S
C198 C199 1.457 . S
C198 H203 0.929 . S
C199 C198 1.457 . S
C199 C200 1.291 . S
C199 H212 0.931 . S
C200 C199 1.291 . S
C200 C201 1.373 . S
C200 H213 0.929 . S
C201 C200 1.373 . S
C201 C202 1.396 . S
C201 C208 1.403 . S
C202 C192 1.476 . S
C202 N197 1.318 . S
C202 C201 1.396 . S
H203 C198 0.929 . S
O204 Mn180 2.385 1_565 S
O204 C182 1.234 . S
O205 Mn180 2.209 1_565 S
O205 Mn181 2.215 . S
O205 C182 1.283 . S
O206 Mn180 2.094 . S
O206 C184 1.240 1_545 S
O207 Mn181 2.117 . S
O207 C184 1.264 . S
C208 C201 1.403 . S
C208 C209 1.399 . S
C208 H214 0.929 . S
C209 C189 1.449 . S
C209 C208 1.399 . S
C209 H215 0.930 . S
H210 C190 0.931 . S
H211 C191 0.930 . S
H212 C199 0.931 . S
H213 C200 0.929 . S
H214 C208 0.929 . S
H215 C209 0.930 . S
Mn216 O221 2.095 . S
Mn216 O231 2.162 . S
Mn216 O232 2.297 . S
Mn216 O240 2.385 . S
Mn216 O241 2.209 . S
Mn216 O242 2.094 . S
Mn217 O222 2.121 1_556 S
Mn217 N224 2.257 1_556 S
Mn217 N233 2.282 . S
Mn217 O241 2.215 . S
Mn217 O243 2.117 . S
C218 O240 1.234 . S
C218 O241 1.283 . S
C219 O231 1.281 . S
C219 O232 1.236 . S
C220 O242 1.240 . S
C220 O243 1.264 . S
O221 Mn216 2.095 . S
O221 C230 1.242 1_556 S
O222 Mn217 2.121 1_554 S
O222 C230 1.262 . S
C223 N224 1.326 . S
C223 C227 1.460 . S
C223 H229 0.929 . S
N224 Mn217 2.257 1_554 S
N224 C223 1.326 . S
N224 C228 1.362 . S
C225 C226 1.258 . S
C225 C228 1.431 . S
C225 C245 1.449 . S
C226 C225 1.258 . S
C226 C227 1.477 . S
C226 H246 0.931 . S
C227 C223 1.460 . S
C227 C226 1.477 . S
C227 H247 0.930 . S
C228 N224 1.362 . S
C228 C225 1.431 . S
C228 C238 1.476 1_554 S
H229 C223 0.929 . S
C230 O221 1.242 1_554 S
C230 O222 1.262 . S
O231 Mn216 2.162 . S
O231 C219 1.281 . S
O232 Mn216 2.297 . S
O232 C219 1.236 . S
N233 Mn217 2.282 . S
N233 C234 1.328 . S
N233 C238 1.318 . S
C234 N233 1.328 . S
C234 C235 1.457 . S
C234 H239 0.929 . S
C235 C234 1.457 . S
C235 C236 1.291 . S
C235 H248 0.931 . S
C236 C235 1.291 . S
C236 C237 1.373 . S
C236 H249 0.929 . S
C237 C236 1.373 . S
C237 C238 1.396 . S
C237 C244 1.403 . S
C238 C228 1.476 1_556 S
C238 N233 1.318 . S
C238 C237 1.396 . S
H239 C234 0.929 . S
O240 Mn216 2.385 . S
O240 C218 1.234 . S
O241 Mn216 2.209 . S
O241 Mn217 2.215 . S
O241 C218 1.283 . S
O242 Mn216 2.094 . S
O242 C220 1.240 . S
O243 Mn217 2.117 . S
O243 C220 1.264 . S
C244 C237 1.403 . S
C244 C245 1.399 1_556 S
C244 H250 0.929 . S
C245 C225 1.449 . S
C245 C244 1.399 1_554 S
C245 H251 0.930 . S
H246 C226 0.931 . S
H247 C227 0.930 . S
H248 C235 0.931 . S
H249 C236 0.929 . S
H250 C244 0.929 . S
H251 C245 0.930 . S
Mn252 O257 2.095 . S
Mn252 O267 2.162 . S
Mn252 O268 2.297 . S
Mn252 O276 2.385 . S
Mn252 O277 2.209 . S
Mn252 O278 2.094 . S
Mn253 O258 2.121 . S
Mn253 N260 2.257 . S
Mn253 N269 2.282 . S
Mn253 O277 2.215 . S
Mn253 O279 2.117 . S
C254 O276 1.234 . S
C254 O277 1.283 . S
C255 O267 1.281 . S
C255 O268 1.236 . S
C256 O278 1.240 . S
C256 O279 1.264 . S
O257 Mn252 2.095 . S
O257 C266 1.250 . S
O258 Mn253 2.121 . S
O258 C266 1.258 . S
C259 N260 1.326 . S
C259 C263 1.460 . S
C259 H265 0.929 . S
N260 Mn253 2.257 . S
N260 C259 1.326 . S
N260 C264 1.362 . S
C261 C262 1.258 . S
C261 C264 1.431 . S
C261 C281 1.449 . S
C262 C261 1.258 . S
C262 C263 1.477 . S
C262 H282 0.931 . S
C263 C259 1.460 . S
C263 C262 1.477 . S
C263 H283 0.930 . S
C264 N260 1.362 . S
C264 C261 1.431 . S
C264 C274 1.476 . S
H265 C259 0.929 . S
C266 O257 1.250 . S
C266 O258 1.258 . S
O267 Mn252 2.162 . S
O267 C255 1.281 . S
O268 Mn252 2.297 . S
O268 C255 1.236 . S
N269 Mn253 2.282 . S
N269 C270 1.328 . S
N269 C274 1.318 . S
C270 N269 1.328 . S
C270 C271 1.457 . S
C270 H275 0.929 . S
C271 C270 1.457 . S
C271 C272 1.291 . S
C271 H284 0.931 . S
C272 C271 1.291 . S
C272 C273 1.373 . S
C272 H285 0.929 . S
C273 C272 1.373 . S
C273 C274 1.396 . S
C273 C280 1.403 . S
C274 C264 1.476 . S
C274 N269 1.318 . S
C274 C273 1.396 . S
H275 C270 0.929 . S
O276 Mn252 2.385 . S
O276 C254 1.234 . S
O277 Mn252 2.209 . S
O277 Mn253 2.215 . S
O277 C254 1.283 . S
O278 Mn252 2.094 . S
O278 C256 1.240 . S
O279 Mn253 2.117 . S
O279 C256 1.264 . S
C280 C273 1.403 . S
C280 C281 1.399 . S
C280 H286 0.929 . S
C281 C261 1.449 . S
C281 C280 1.399 . S
C281 H287 0.930 . S
H282 C262 0.931 . S
H283 C263 0.930 . S
H284 C271 0.931 . S
H285 C272 0.929 . S
H286 C280 0.929 . S
H287 C281 0.930 . S
Mn288 O293 2.095 . S
Mn288 O303 2.162 . S
Mn288 O304 2.297 . S
Mn288 O312 2.385 1_655 S
Mn288 O313 2.209 1_655 S
Mn288 O314 2.094 . S
Mn289 O294 2.121 1_456 S
Mn289 N296 2.257 1_556 S
Mn289 N305 2.282 . S
Mn289 O313 2.215 . S
Mn289 O315 2.117 . S
C290 O312 1.234 . S
C290 O313 1.283 . S
C291 O303 1.281 . S
C291 O304 1.236 . S
C292 O314 1.240 1_455 S
C292 O315 1.264 . S
O293 Mn288 2.095 . S
O293 C302 1.242 1_556 S
O294 Mn289 2.121 1_654 S
O294 C302 1.262 . S
C295 N296 1.326 . S
C295 C299 1.460 . S
C295 H301 0.929 . S
N296 Mn289 2.257 1_554 S
N296 C295 1.326 . S
N296 C300 1.362 . S
C297 C298 1.258 . S
C297 C300 1.431 . S
C297 C317 1.449 . S
C298 C297 1.258 . S
C298 C299 1.477 . S
C298 H318 0.931 . S
C299 C295 1.460 . S
C299 C298 1.477 . S
C299 H319 0.930 . S
C300 N296 1.362 . S
C300 C297 1.431 . S
C300 C310 1.476 1_554 S
H301 C295 0.929 . S
C302 O293 1.242 1_554 S
C302 O294 1.262 . S
O303 Mn288 2.162 . S
O303 C291 1.281 . S
O304 Mn288 2.297 . S
O304 C291 1.236 . S
N305 Mn289 2.282 . S
N305 C306 1.328 . S
N305 C310 1.318 . S
C306 N305 1.328 . S
C306 C307 1.457 . S
C306 H311 0.929 . S
C307 C306 1.457 . S
C307 C308 1.291 . S
C307 H320 0.931 . S
C308 C307 1.291 . S
C308 C309 1.373 . S
C308 H321 0.929 . S
C309 C308 1.373 . S
C309 C310 1.396 . S
C309 C316 1.403 . S
C310 C300 1.476 1_556 S
C310 N305 1.318 . S
C310 C309 1.396 . S
H311 C306 0.929 . S
O312 Mn288 2.385 1_455 S
O312 C290 1.234 . S
O313 Mn288 2.209 1_455 S
O313 Mn289 2.215 . S
O313 C290 1.283 . S
O314 Mn288 2.094 . S
O314 C292 1.240 1_655 S
O315 Mn289 2.117 . S
O315 C292 1.264 . S
C316 C309 1.403 . S
C316 C317 1.399 1_556 S
C316 H322 0.929 . S
C317 C297 1.449 . S
C317 C316 1.399 1_554 S
C317 H323 0.930 . S
H318 C298 0.931 . S
H319 C299 0.930 . S
H320 C307 0.931 . S
H321 C308 0.929 . S
H322 C316 0.929 . S
H323 C317 0.930 . S
Mn324 O329 2.095 . S
Mn324 O339 2.162 . S
Mn324 O340 2.297 . S
Mn324 O348 2.385 1_565 S
Mn324 O349 2.209 1_565 S
Mn324 O350 2.094 . S
Mn325 O330 2.121 1_545 S
Mn325 N332 2.257 . S
Mn325 N341 2.282 . S
Mn325 O349 2.215 . S
Mn325 O351 2.117 . S
C326 O348 1.234 . S
C326 O349 1.283 . S
C327 O339 1.281 . S
C327 O340 1.236 . S
C328 O350 1.240 1_545 S
C328 O351 1.264 . S
O329 Mn324 2.095 . S
O329 C338 1.250 . S
O330 Mn325 2.121 1_565 S
O330 C338 1.258 . S
C331 N332 1.326 . S
C331 C335 1.460 . S
C331 H337 0.929 . S
N332 Mn325 2.257 . S
N332 C331 1.326 . S
N332 C336 1.362 . S
C333 C334 1.258 . S
C333 C336 1.431 . S
C333 C353 1.449 . S
C334 C333 1.258 . S
C334 C335 1.477 . S
C334 H354 0.931 . S
C335 C331 1.460 . S
C335 C334 1.477 . S
C335 H355 0.930 . S
C336 N332 1.362 . S
C336 C333 1.431 . S
C336 C346 1.476 . S
H337 C331 0.929 . S
C338 O329 1.250 . S
C338 O330 1.258 . S
O339 Mn324 2.162 . S
O339 C327 1.281 . S
O340 Mn324 2.297 . S
O340 C327 1.236 . S
N341 Mn325 2.282 . S
N341 C342 1.328 . S
N341 C346 1.318 . S
C342 N341 1.328 . S
C342 C343 1.457 . S
C342 H347 0.929 . S
C343 C342 1.457 . S
C343 C344 1.291 . S
C343 H356 0.931 . S
C344 C343 1.291 . S
C344 C345 1.373 . S
C344 H357 0.929 . S
C345 C344 1.373 . S
C345 C346 1.396 . S
C345 C352 1.403 . S
C346 C336 1.476 . S
C346 N341 1.318 . S
C346 C345 1.396 . S
H347 C342 0.929 . S
O348 Mn324 2.385 1_545 S
O348 C326 1.234 . S
O349 Mn324 2.209 1_545 S
O349 Mn325 2.215 . S
O349 C326 1.283 . S
O350 Mn324 2.094 . S
O350 C328 1.240 1_565 S
O351 Mn325 2.117 . S
O351 C328 1.264 . S
C352 C345 1.403 . S
C352 C353 1.399 . S
C352 H358 0.929 . S
C353 C333 1.449 . S
C353 C352 1.399 . S
C353 H359 0.930 . S
H354 C334 0.931 . S
H355 C335 0.930 . S
H356 C343 0.931 . S
H357 C344 0.929 . S
H358 C352 0.929 . S
H359 C353 0.930 . S
Mn360 O365 2.095 . S
Mn360 O375 2.162 . S
Mn360 O376 2.297 . S
Mn360 O384 2.385 . S
Mn360 O385 2.209 . S
Mn360 O386 2.094 . S
Mn361 O366 2.121 1_556 S
Mn361 N368 2.257 1_556 S
Mn361 N377 2.282 . S
Mn361 O385 2.215 . S
Mn361 O387 2.117 . S
C362 O384 1.234 . S
C362 O385 1.283 . S
C363 O375 1.281 . S
C363 O376 1.236 . S
C364 O386 1.240 . S
C364 O387 1.264 . S
O365 Mn360 2.095 . S
O365 C374 1.242 1_556 S
O366 Mn361 2.121 1_554 S
O366 C374 1.262 . S
C367 N368 1.326 . S
C367 C371 1.460 . S
C367 H373 0.929 . S
N368 Mn361 2.257 1_554 S
N368 C367 1.326 . S
N368 C372 1.362 . S
C369 C370 1.258 . S
C369 C372 1.431 . S
C369 C389 1.449 . S
C370 C369 1.258 . S
C370 C371 1.477 . S
C370 H390 0.931 . S
C371 C367 1.460 . S
C371 C370 1.477 . S
C371 H391 0.930 . S
C372 N368 1.362 . S
C372 C369 1.431 . S
C372 C382 1.476 1_554 S
H373 C367 0.929 . S
C374 O365 1.242 1_554 S
C374 O366 1.262 . S
O375 Mn360 2.162 . S
O375 C363 1.281 . S
O376 Mn360 2.297 . S
O376 C363 1.236 . S
N377 Mn361 2.282 . S
N377 C378 1.328 . S
N377 C382 1.318 . S
C378 N377 1.328 . S
C378 C379 1.457 . S
C378 H383 0.929 . S
C379 C378 1.457 . S
C379 C380 1.291 . S
C379 H392 0.931 . S
C380 C379 1.291 . S
C380 C381 1.373 . S
C380 H393 0.929 . S
C381 C380 1.373 . S
C381 C382 1.396 . S
C381 C388 1.403 . S
C382 C372 1.476 1_556 S
C382 N377 1.318 . S
C382 C381 1.396 . S
H383 C378 0.929 . S
O384 Mn360 2.385 . S
O384 C362 1.234 . S
O385 Mn360 2.209 . S
O385 Mn361 2.215 . S
O385 C362 1.283 . S
O386 Mn360 2.094 . S
O386 C364 1.240 . S
O387 Mn361 2.117 . S
O387 C364 1.264 . S
C388 C381 1.403 . S
C388 C389 1.399 1_556 S
C388 H394 0.929 . S
C389 C369 1.449 . S
C389 C388 1.399 1_554 S
C389 H395 0.930 . S
H390 C370 0.931 . S
H391 C371 0.930 . S
H392 C379 0.931 . S
H393 C380 0.929 . S
H394 C388 0.929 . S
H395 C389 0.930 . S
Mn396 O401 2.095 . S
Mn396 O411 2.162 . S
Mn396 O412 2.297 . S
Mn396 O420 2.385 . S
Mn396 O421 2.209 . S
Mn396 O422 2.094 . S
Mn397 O402 2.121 . S
Mn397 N404 2.257 . S
Mn397 N413 2.282 . S
Mn397 O421 2.215 . S
Mn397 O423 2.117 . S
C398 O420 1.234 . S
C398 O421 1.283 . S
C399 O411 1.281 . S
C399 O412 1.236 . S
C400 O422 1.240 . S
C400 O423 1.264 . S
O401 Mn396 2.095 . S
O401 C410 1.250 . S
O402 Mn397 2.121 . S
O402 C410 1.258 . S
C403 N404 1.326 . S
C403 C407 1.460 . S
C403 H409 0.929 . S
N404 Mn397 2.257 . S
N404 C403 1.326 . S
N404 C408 1.362 . S
C405 C406 1.258 . S
C405 C408 1.431 . S
C405 C425 1.449 . S
C406 C405 1.258 . S
C406 C407 1.477 . S
C406 H426 0.931 . S
C407 C403 1.460 . S
C407 C406 1.477 . S
C407 H427 0.930 . S
C408 N404 1.362 . S
C408 C405 1.431 . S
C408 C418 1.476 . S
H409 C403 0.929 . S
C410 O401 1.250 . S
C410 O402 1.258 . S
O411 Mn396 2.162 . S
O411 C399 1.281 . S
O412 Mn396 2.297 . S
O412 C399 1.236 . S
N413 Mn397 2.282 . S
N413 C414 1.328 . S
N413 C418 1.318 . S
C414 N413 1.328 . S
C414 C415 1.457 . S
C414 H419 0.929 . S
C415 C414 1.457 . S
C415 C416 1.291 . S
C415 H428 0.931 . S
C416 C415 1.291 . S
C416 C417 1.373 . S
C416 H429 0.929 . S
C417 C416 1.373 . S
C417 C418 1.396 . S
C417 C424 1.403 . S
C418 C408 1.476 . S
C418 N413 1.318 . S
C418 C417 1.396 . S
H419 C414 0.929 . S
O420 Mn396 2.385 . S
O420 C398 1.234 . S
O421 Mn396 2.209 . S
O421 Mn397 2.215 . S
O421 C398 1.283 . S
O422 Mn396 2.094 . S
O422 C400 1.240 . S
O423 Mn397 2.117 . S
O423 C400 1.264 . S
C424 C417 1.403 . S
C424 C425 1.399 . S
C424 H430 0.929 . S
C425 C405 1.449 . S
C425 C424 1.399 . S
C425 H431 0.930 . S
H426 C406 0.931 . S
H427 C407 0.930 . S
H428 C415 0.931 . S
H429 C416 0.929 . S
H430 C424 0.929 . S
H431 C425 0.930 . S
Mn432 O437 2.095 . S
Mn432 O447 2.162 . S
Mn432 O448 2.297 . S
Mn432 O456 2.385 1_655 S
Mn432 O457 2.209 1_655 S
Mn432 O458 2.094 . S
Mn433 O438 2.121 1_454 S
Mn433 N440 2.257 1_554 S
Mn433 N449 2.282 . S
Mn433 O457 2.215 . S
Mn433 O459 2.117 . S
C434 O456 1.234 . S
C434 O457 1.283 . S
C435 O447 1.281 . S
C435 O448 1.236 . S
C436 O458 1.240 1_455 S
C436 O459 1.264 . S
O437 Mn432 2.095 . S
O437 C446 1.242 1_554 S
O438 Mn433 2.121 1_656 S
O438 C446 1.262 . S
C439 N440 1.326 . S
C439 C443 1.460 . S
C439 H445 0.929 . S
N440 Mn433 2.257 1_556 S
N440 C439 1.326 . S
N440 C444 1.362 . S
C441 C442 1.258 . S
C441 C444 1.431 . S
C441 C461 1.449 . S
C442 C441 1.258 . S
C442 C443 1.477 . S
C442 H462 0.931 . S
C443 C439 1.460 . S
C443 C442 1.477 . S
C443 H463 0.930 . S
C444 N440 1.362 . S
C444 C441 1.431 . S
C444 C454 1.476 1_556 S
H445 C439 0.929 . S
C446 O437 1.242 1_556 S
C446 O438 1.262 . S
O447 Mn432 2.162 . S
O447 C435 1.281 . S
O448 Mn432 2.297 . S
O448 C435 1.236 . S
N449 Mn433 2.282 . S
N449 C450 1.328 . S
N449 C454 1.318 . S
C450 N449 1.328 . S
C450 C451 1.457 . S
C450 H455 0.929 . S
C451 C450 1.457 . S
C451 C452 1.291 . S
C451 H464 0.931 . S
C452 C451 1.291 . S
C452 C453 1.373 . S
C452 H465 0.929 . S
C453 C452 1.373 . S
C453 C454 1.396 . S
C453 C460 1.403 . S
C454 C444 1.476 1_554 S
C454 N449 1.318 . S
C454 C453 1.396 . S
H455 C450 0.929 . S
O456 Mn432 2.385 1_455 S
O456 C434 1.234 . S
O457 Mn432 2.209 1_455 S
O457 Mn433 2.215 . S
O457 C434 1.283 . S
O458 Mn432 2.094 . S
O458 C436 1.240 1_655 S
O459 Mn433 2.117 . S
O459 C436 1.264 . S
C460 C453 1.403 . S
C460 C461 1.399 1_554 S
C460 H466 0.929 . S
C461 C441 1.449 . S
C461 C460 1.399 1_556 S
C461 H467 0.930 . S
H462 C442 0.931 . S
H463 C443 0.930 . S
H464 C451 0.931 . S
H465 C452 0.929 . S
H466 C460 0.929 . S
H467 C461 0.930 . S
Mn468 O473 2.095 . S
Mn468 O483 2.162 . S
Mn468 O484 2.297 . S
Mn468 O492 2.385 1_565 S
Mn468 O493 2.209 1_565 S
Mn468 O494 2.094 . S
Mn469 O474 2.121 1_545 S
Mn469 N476 2.257 . S
Mn469 N485 2.282 . S
Mn469 O493 2.215 . S
Mn469 O495 2.117 . S
C470 O492 1.234 . S
C470 O493 1.283 . S
C471 O483 1.281 . S
C471 O484 1.236 . S
C472 O494 1.240 1_545 S
C472 O495 1.264 . S
O473 Mn468 2.095 . S
O473 C482 1.250 . S
O474 Mn469 2.121 1_565 S
O474 C482 1.258 . S
C475 N476 1.326 . S
C475 C479 1.460 . S
C475 H481 0.929 . S
N476 Mn469 2.257 . S
N476 C475 1.326 . S
N476 C480 1.362 . S
C477 C478 1.258 . S
C477 C480 1.431 . S
C477 C497 1.449 . S
C478 C477 1.258 . S
C478 C479 1.477 . S
C478 H498 0.931 . S
C479 C475 1.460 . S
C479 C478 1.477 . S
C479 H499 0.930 . S
C480 N476 1.362 . S
C480 C477 1.431 . S
C480 C490 1.476 . S
H481 C475 0.929 . S
C482 O473 1.250 . S
C482 O474 1.258 . S
O483 Mn468 2.162 . S
O483 C471 1.281 . S
O484 Mn468 2.297 . S
O484 C471 1.236 . S
N485 Mn469 2.282 . S
N485 C486 1.328 . S
N485 C490 1.318 . S
C486 N485 1.328 . S
C486 C487 1.457 . S
C486 H491 0.929 . S
C487 C486 1.457 . S
C487 C488 1.291 . S
C487 H500 0.931 . S
C488 C487 1.291 . S
C488 C489 1.373 . S
C488 H501 0.929 . S
C489 C488 1.373 . S
C489 C490 1.396 . S
C489 C496 1.403 . S
C490 C480 1.476 . S
C490 N485 1.318 . S
C490 C489 1.396 . S
H491 C486 0.929 . S
O492 Mn468 2.385 1_545 S
O492 C470 1.234 . S
O493 Mn468 2.209 1_545 S
O493 Mn469 2.215 . S
O493 C470 1.283 . S
O494 Mn468 2.094 . S
O494 C472 1.240 1_565 S
O495 Mn469 2.117 . S
O495 C472 1.264 . S
C496 C489 1.403 . S
C496 C497 1.399 . S
C496 H502 0.929 . S
C497 C477 1.449 . S
C497 C496 1.399 . S
C497 H503 0.930 . S
H498 C478 0.931 . S
H499 C479 0.930 . S
H500 C487 0.931 . S
H501 C488 0.929 . S
H502 C496 0.929 . S
H503 C497 0.930 . S
Mn504 O509 2.095 . S
Mn504 O519 2.162 . S
Mn504 O520 2.297 . S
Mn504 O528 2.385 . S
Mn504 O529 2.209 . S
Mn504 O530 2.094 . S
Mn505 O510 2.121 1_554 S
Mn505 N512 2.257 1_554 S
Mn505 N521 2.282 . S
Mn505 O529 2.215 . S
Mn505 O531 2.117 . S
C506 O528 1.234 . S
C506 O529 1.283 . S
C507 O519 1.281 . S
C507 O520 1.236 . S
C508 O530 1.240 . S
C508 O531 1.264 . S
O509 Mn504 2.095 . S
O509 C518 1.242 1_554 S
O510 Mn505 2.121 1_556 S
O510 C518 1.262 . S
C511 N512 1.326 . S
C511 C515 1.460 . S
C511 H517 0.929 . S
N512 Mn505 2.257 1_556 S
N512 C511 1.326 . S
N512 C516 1.362 . S
C513 C514 1.258 . S
C513 C516 1.431 . S
C513 C533 1.449 . S
C514 C513 1.258 . S
C514 C515 1.477 . S
C514 H534 0.931 . S
C515 C511 1.460 . S
C515 C514 1.477 . S
C515 H535 0.930 . S
C516 N512 1.362 . S
C516 C513 1.431 . S
C516 C526 1.476 1_556 S
H517 C511 0.929 . S
C518 O509 1.242 1_556 S
C518 O510 1.262 . S
O519 Mn504 2.162 . S
O519 C507 1.281 . S
O520 Mn504 2.297 . S
O520 C507 1.236 . S
N521 Mn505 2.282 . S
N521 C522 1.328 . S
N521 C526 1.318 . S
C522 N521 1.328 . S
C522 C523 1.457 . S
C522 H527 0.929 . S
C523 C522 1.457 . S
C523 C524 1.291 . S
C523 H536 0.931 . S
C524 C523 1.291 . S
C524 C525 1.373 . S
C524 H537 0.929 . S
C525 C524 1.373 . S
C525 C526 1.396 . S
C525 C532 1.403 . S
C526 C516 1.476 1_554 S
C526 N521 1.318 . S
C526 C525 1.396 . S
H527 C522 0.929 . S
O528 Mn504 2.385 . S
O528 C506 1.234 . S
O529 Mn504 2.209 . S
O529 Mn505 2.215 . S
O529 C506 1.283 . S
O530 Mn504 2.094 . S
O530 C508 1.240 . S
O531 Mn505 2.117 . S
O531 C508 1.264 . S
C532 C525 1.403 . S
C532 C533 1.399 1_554 S
C532 H538 0.929 . S
C533 C513 1.449 . S
C533 C532 1.399 1_556 S
C533 H539 0.930 . S
H534 C514 0.931 . S
H535 C515 0.930 . S
H536 C523 0.931 . S
H537 C524 0.929 . S
H538 C532 0.929 . S
H539 C533 0.930 . S
Mn540 O545 2.095 . S
Mn540 O555 2.162 . S
Mn540 O556 2.297 . S
Mn540 O564 2.385 . S
Mn540 O565 2.209 . S
Mn540 O566 2.094 . S
Mn541 O546 2.121 . S
Mn541 N548 2.257 . S
Mn541 N557 2.282 . S
Mn541 O565 2.215 . S
Mn541 O567 2.117 . S
C542 O564 1.234 . S
C542 O565 1.283 . S
C543 O555 1.281 . S
C543 O556 1.236 . S
C544 O566 1.240 . S
C544 O567 1.264 . S
O545 Mn540 2.095 . S
O545 C554 1.250 . S
O546 Mn541 2.121 . S
O546 C554 1.258 . S
C547 N548 1.326 . S
C547 C551 1.460 . S
C547 H553 0.929 . S
N548 Mn541 2.257 . S
N548 C547 1.326 . S
N548 C552 1.362 . S
C549 C550 1.258 . S
C549 C552 1.431 . S
C549 C569 1.449 . S
C550 C549 1.258 . S
C550 C551 1.477 . S
C550 H570 0.931 . S
C551 C547 1.460 . S
C551 C550 1.477 . S
C551 H571 0.930 . S
C552 N548 1.362 . S
C552 C549 1.431 . S
C552 C562 1.476 . S
H553 C547 0.929 . S
C554 O545 1.250 . S
C554 O546 1.258 . S
O555 Mn540 2.162 . S
O555 C543 1.281 . S
O556 Mn540 2.297 . S
O556 C543 1.236 . S
N557 Mn541 2.282 . S
N557 C558 1.328 . S
N557 C562 1.318 . S
C558 N557 1.328 . S
C558 C559 1.457 . S
C558 H563 0.929 . S
C559 C558 1.457 . S
C559 C560 1.291 . S
C559 H572 0.931 . S
C560 C559 1.291 . S
C560 C561 1.373 . S
C560 H573 0.929 . S
C561 C560 1.373 . S
C561 C562 1.396 . S
C561 C568 1.403 . S
C562 C552 1.476 . S
C562 N557 1.318 . S
C562 C561 1.396 . S
H563 C558 0.929 . S
O564 Mn540 2.385 . S
O564 C542 1.234 . S
O565 Mn540 2.209 . S
O565 Mn541 2.215 . S
O565 C542 1.283 . S
O566 Mn540 2.094 . S
O566 C544 1.240 . S
O567 Mn541 2.117 . S
O567 C544 1.264 . S
C568 C561 1.403 . S
C568 C569 1.399 . S
C568 H574 0.929 . S
C569 C549 1.449 . S
C569 C568 1.399 . S
C569 H575 0.930 . S
H570 C550 0.931 . S
H571 C551 0.930 . S
H572 C559 0.931 . S
H573 C560 0.929 . S
H574 C568 0.929 . S
H575 C569 0.930 . S
C576 C577 1.363 1_456 S
C576 C582 1.379 . S
C576 N584 1.356 . S
C577 C576 1.363 1_654 S
C577 C583 1.363 . S
C578 C579 1.363 1_554 S
C578 C583 1.379 . S
C578 N585 1.356 . S
C579 C578 1.363 1_556 S
C579 C582 1.363 1_655 S
N580 C582 1.356 . S
N580 H592 0.984 . S
N580 H593 0.985 . S
N581 C583 1.356 . S
N581 H586 0.984 . S
N581 H587 0.985 . S
C582 C576 1.379 . S
C582 C579 1.363 1_455 S
C582 N580 1.356 . S
C583 C577 1.363 . S
C583 C578 1.379 . S
C583 N581 1.356 . S
N584 C576 1.356 . S
N584 H590 0.984 . S
N584 H591 0.984 1_556 S
N585 C578 1.356 . S
N585 H588 0.984 1_554 S
N585 H589 0.985 . S
H586 N581 0.984 . S
H587 N581 0.985 . S
H588 N585 0.984 1_556 S
H589 N585 0.985 . S
H590 N584 0.984 . S
H591 N584 0.984 1_554 S
H592 N580 0.984 . S
H593 N580 0.985 . S
C594 C595 1.363 1_545 S
C594 C600 1.379 . S
C594 N602 1.356 . S
C595 C594 1.363 1_565 S
C595 C601 1.363 . S
C596 C597 1.363 . S
C596 C601 1.379 . S
C596 N603 1.356 . S
C597 C596 1.363 . S
C597 C600 1.363 1_565 S
N598 C600 1.356 . S
N598 H610 0.984 . S
N598 H611 0.985 . S
N599 C601 1.356 . S
N599 H604 0.984 . S
N599 H605 0.985 . S
C600 C594 1.379 . S
C600 C597 1.363 1_545 S
C600 N598 1.356 . S
C601 C595 1.363 . S
C601 C596 1.379 . S
C601 N599 1.356 . S
N602 C594 1.356 . S
N602 H608 0.984 . S
N602 H609 0.984 . S
N603 C596 1.356 . S
N603 H606 0.984 . S
N603 H607 0.985 . S
H604 N599 0.984 . S
H605 N599 0.985 . S
H606 N603 0.984 . S
H607 N603 0.985 . S
H608 N602 0.984 . S
H609 N602 0.984 . S
H610 N598 0.984 . S
H611 N598 0.985 . S
C612 C613 1.363 1_556 S
C612 C618 1.379 . S
C612 N620 1.356 . S
C613 C612 1.363 1_554 S
C613 C619 1.363 . S
C614 C615 1.363 1_554 S
C614 C619 1.379 . S
C614 N621 1.356 . S
C615 C614 1.363 1_556 S
C615 C618 1.363 . S
N616 C618 1.356 . S
N616 H628 0.984 . S
N616 H629 0.985 . S
N617 C619 1.356 . S
N617 H622 0.984 . S
N617 H623 0.985 . S
C618 C612 1.379 . S
C618 C615 1.363 . S
C618 N616 1.356 . S
C619 C613 1.363 . S
C619 C614 1.379 . S
C619 N617 1.356 . S
N620 C612 1.356 . S
N620 H626 0.984 . S
N620 H627 0.984 1_556 S
N621 C614 1.356 . S
N621 H624 0.984 1_554 S
N621 H625 0.985 . S
H622 N617 0.984 . S
H623 N617 0.985 . S
H624 N621 0.984 1_556 S
H625 N621 0.985 . S
H626 N620 0.984 . S
H627 N620 0.984 1_554 S
H628 N616 0.984 . S
H629 N616 0.985 . S
C630 C631 1.363 . S
C630 C636 1.379 . S
C630 N638 1.356 . S
C631 C630 1.363 . S
C631 C637 1.363 . S
C632 C633 1.363 . S
C632 C637 1.379 . S
C632 N639 1.356 . S
C633 C632 1.363 . S
C633 C636 1.363 . S
N634 C636 1.356 . S
N634 H646 0.984 . S
N634 H647 0.985 . S
N635 C637 1.356 . S
N635 H640 0.984 . S
N635 H641 0.985 . S
C636 C630 1.379 . S
C636 C633 1.363 . S
C636 N634 1.356 . S
C637 C631 1.363 . S
C637 C632 1.379 . S
C637 N635 1.356 . S
N638 C630 1.356 . S
N638 H644 0.984 . S
N638 H645 0.984 . S
N639 C632 1.356 . S
N639 H642 0.984 . S
N639 H643 0.985 . S
H640 N635 0.984 . S
H641 N635 0.985 . S
H642 N639 0.984 . S
H643 N639 0.985 . S
H644 N638 0.984 . S
H645 N638 0.984 . S
H646 N634 0.984 . S
H647 N634 0.985 . S
C648 C649 1.363 1_655 S
C648 C654 1.379 . S
C648 N656 1.356 . S
C649 C648 1.363 1_455 S
C649 C655 1.363 1_556 S
C650 C651 1.363 . S
C650 C655 1.379 . S
C650 N657 1.356 . S
C651 C650 1.363 . S
C651 C654 1.363 1_454 S
N652 C654 1.356 . S
N652 H664 0.984 . S
N652 H665 0.985 1_556 S
N653 C655 1.356 . S
N653 H658 0.984 1_554 S
N653 H659 0.985 . S
C654 C648 1.379 . S
C654 C651 1.363 1_656 S
C654 N652 1.356 . S
C655 C649 1.363 1_554 S
C655 C650 1.379 . S
C655 N653 1.356 . S
N656 C648 1.356 . S
N656 H662 0.984 . S
N656 H663 0.984 . S
N657 C650 1.356 . S
N657 H660 0.984 . S
N657 H661 0.985 . S
H658 N653 0.984 1_556 S
H659 N653 0.985 . S
H660 N657 0.984 . S
H661 N657 0.985 . S
H662 N656 0.984 . S
H663 N656 0.984 . S
H664 N652 0.984 . S
H665 N652 0.985 1_554 S
C666 C667 1.363 1_565 S
C666 C672 1.379 . S
C666 N674 1.356 . S
C667 C666 1.363 1_545 S
C667 C673 1.363 . S
C668 C669 1.363 . S
C668 C673 1.379 . S
C668 N675 1.356 . S
C669 C668 1.363 . S
C669 C672 1.363 1_545 S
N670 C672 1.356 . S
N670 H682 0.984 . S
N670 H683 0.985 . S
N671 C673 1.356 . S
N671 H676 0.984 . S
N671 H677 0.985 . S
C672 C666 1.379 . S
C672 C669 1.363 1_565 S
C672 N670 1.356 . S
C673 C667 1.363 . S
C673 C668 1.379 . S
C673 N671 1.356 . S
N674 C666 1.356 . S
N674 H680 0.984 . S
N674 H681 0.984 . S
N675 C668 1.356 . S
N675 H678 0.984 . S
N675 H679 0.985 . S
H676 N671 0.984 . S
H677 N671 0.985 . S
H678 N675 0.984 . S
H679 N675 0.985 . S
H680 N674 0.984 . S
H681 N674 0.984 . S
H682 N670 0.984 . S
H683 N670 0.985 . S
C684 C685 1.363 1_554 S
C684 C690 1.379 . S
C684 N692 1.356 . S
C685 C684 1.363 1_556 S
C685 C691 1.363 . S
C686 C687 1.363 1_556 S
C686 C691 1.379 . S
C686 N693 1.356 . S
C687 C686 1.363 1_554 S
C687 C690 1.363 . S
N688 C690 1.356 . S
N688 H700 0.984 . S
N688 H701 0.985 . S
N689 C691 1.356 . S
N689 H694 0.984 . S
N689 H695 0.985 . S
C690 C684 1.379 . S
C690 C687 1.363 . S
C690 N688 1.356 . S
C691 C685 1.363 . S
C691 C686 1.379 . S
C691 N689 1.356 . S
N692 C684 1.356 . S
N692 H698 0.984 . S
N692 H699 0.984 1_554 S
N693 C686 1.356 . S
N693 H696 0.984 1_556 S
N693 H697 0.985 . S
H694 N689 0.984 . S
H695 N689 0.985 . S
H696 N693 0.984 1_554 S
H697 N693 0.985 . S
H698 N692 0.984 . S
H699 N692 0.984 1_556 S
H700 N688 0.984 . S
H701 N688 0.985 . S
C702 C703 1.363 . S
C702 C708 1.379 . S
C702 N710 1.356 . S
C703 C702 1.363 . S
C703 C709 1.363 . S
C704 C705 1.363 . S
C704 C709 1.379 . S
C704 N711 1.356 . S
C705 C704 1.363 . S
C705 C708 1.363 . S
N706 C708 1.356 . S
N706 H718 0.984 . S
N706 H719 0.985 . S
N707 C709 1.356 . S
N707 H712 0.984 . S
N707 H713 0.985 . S
C708 C702 1.379 . S
C708 C705 1.363 . S
C708 N706 1.356 . S
C709 C703 1.363 . S
C709 C704 1.379 . S
C709 N707 1.356 . S
N710 C702 1.356 . S
N710 H716 0.984 . S
N710 H717 0.984 . S
N711 C704 1.356 . S
N711 H714 0.984 . S
N711 H715 0.985 . S
H712 N707 0.984 . S
H713 N707 0.985 . S
H714 N711 0.984 . S
H715 N711 0.985 . S
H716 N710 0.984 . S
H717 N710 0.984 . S
H718 N706 0.984 . S
H719 N706 0.985 . S
C720 C721 1.363 . S
C720 C726 1.379 . S
C720 N728 1.356 1_556 S
C721 C720 1.363 . S
C721 C727 1.363 . S
C722 C723 1.363 . S
C722 C727 1.379 . S
C722 N729 1.356 . S
C723 C722 1.363 . S
C723 C726 1.363 . S
N724 C726 1.356 . S
N724 H736 0.984 . S
N724 H737 0.985 . S
N725 C727 1.356 . S
N725 H730 0.984 . S
N725 H731 0.985 . S
C726 C720 1.379 . S
C726 C723 1.363 . S
C726 N724 1.356 . S
C727 C721 1.363 . S
C727 C722 1.379 . S
C727 N725 1.356 . S
N728 C720 1.356 1_554 S
N728 H734 0.984 . S
N728 H735 0.984 . S
N729 C722 1.356 . S
N729 H732 0.984 . S
N729 H733 0.985 . S
H730 N725 0.984 . S
H731 N725 0.985 . S
H732 N729 0.984 . S
H733 N729 0.985 . S
H734 N728 0.984 . S
H735 N728 0.984 . S
H736 N724 0.984 . S
H737 N724 0.985 . S
C738 C739 1.363 . S
C738 C744 1.379 . S
C738 N746 1.356 . S
C739 C738 1.363 . S
C739 C745 1.363 . S
C740 C741 1.363 . S
C740 C745 1.379 . S
C740 N747 1.356 . S
C741 C740 1.363 . S
C741 C744 1.363 . S
N742 C744 1.356 . S
N742 H754 0.984 . S
N742 H755 0.985 . S
N743 C745 1.356 . S
N743 H748 0.984 . S
N743 H749 0.985 . S
C744 C738 1.379 . S
C744 C741 1.363 . S
C744 N742 1.356 . S
C745 C739 1.363 . S
C745 C740 1.379 . S
C745 N743 1.356 . S
N746 C738 1.356 . S
N746 H752 0.984 . S
N746 H753 0.984 . S
N747 C740 1.356 . S
N747 H750 0.984 . S
N747 H751 0.985 . S
H748 N743 0.984 . S
H749 N743 0.985 . S
H750 N747 0.984 . S
H751 N747 0.985 . S
H752 N746 0.984 . S
H753 N746 0.984 . S
H754 N742 0.984 . S
H755 N742 0.985 . S
C756 C757 1.363 . S
C756 C762 1.379 . S
C756 N764 1.356 1_556 S
C757 C756 1.363 . S
C757 C763 1.363 . S
C758 C759 1.363 . S
C758 C763 1.379 . S
C758 N765 1.356 . S
C759 C758 1.363 . S
C759 C762 1.363 . S
N760 C762 1.356 . S
N760 H772 0.984 . S
N760 H773 0.985 . S
N761 C763 1.356 . S
N761 H766 0.984 . S
N761 H767 0.985 . S
C762 C756 1.379 . S
C762 C759 1.363 . S
C762 N760 1.356 . S
C763 C757 1.363 . S
C763 C758 1.379 . S
C763 N761 1.356 . S
N764 C756 1.356 1_554 S
N764 H770 0.984 . S
N764 H771 0.984 . S
N765 C758 1.356 . S
N765 H768 0.984 . S
N765 H769 0.985 . S
H766 N761 0.984 . S
H767 N761 0.985 . S
H768 N765 0.984 . S
H769 N765 0.985 . S
H770 N764 0.984 . S
H771 N764 0.984 . S
H772 N760 0.984 . S
H773 N760 0.985 . S
C774 C775 1.363 . S
C774 C780 1.379 . S
C774 N782 1.356 . S
C775 C774 1.363 . S
C775 C781 1.363 . S
C776 C777 1.363 . S
C776 C781 1.379 . S
C776 N783 1.356 . S
C777 C776 1.363 . S
C777 C780 1.363 . S
N778 C780 1.356 . S
N778 H790 0.984 . S
N778 H791 0.985 . S
N779 C781 1.356 . S
N779 H784 0.984 . S
N779 H785 0.985 . S
C780 C774 1.379 . S
C780 C777 1.363 . S
C780 N778 1.356 . S
C781 C775 1.363 . S
C781 C776 1.379 . S
C781 N779 1.356 . S
N782 C774 1.356 . S
N782 H788 0.984 . S
N782 H789 0.984 . S
N783 C776 1.356 . S
N783 H786 0.984 . S
N783 H787 0.985 . S
H784 N779 0.984 . S
H785 N779 0.985 . S
H786 N783 0.984 . S
H787 N783 0.985 . S
H788 N782 0.984 . S
H789 N782 0.984 . S
H790 N778 0.984 . S
H791 N778 0.985 . S
C792 C793 1.363 . S
C792 C798 1.379 . S
C792 N800 1.356 . S
C793 C792 1.363 . S
C793 C799 1.363 . S
C794 C795 1.363 . S
C794 C799 1.379 . S
C794 N801 1.356 . S
C795 C794 1.363 . S
C795 C798 1.363 . S
N796 C798 1.356 1_556 S
N796 H808 0.984 . S
N796 H809 0.985 . S
N797 C799 1.356 . S
N797 H802 0.984 . S
N797 H803 0.985 . S
C798 C792 1.379 . S
C798 C795 1.363 . S
C798 N796 1.356 1_554 S
C799 C793 1.363 . S
C799 C794 1.379 . S
C799 N797 1.356 . S
N800 C792 1.356 . S
N800 H806 0.984 . S
N800 H807 0.984 . S
N801 C794 1.356 . S
N801 H804 0.984 . S
N801 H805 0.985 . S
H802 N797 0.984 . S
H803 N797 0.985 . S
H804 N801 0.984 . S
H805 N801 0.985 . S
H806 N800 0.984 . S
H807 N800 0.984 . S
H808 N796 0.984 . S
H809 N796 0.985 . S
C810 C811 1.363 . S
C810 C816 1.379 . S
C810 N818 1.356 . S
C811 C810 1.363 . S
C811 C817 1.363 . S
C812 C813 1.363 . S
C812 C817 1.379 . S
C812 N819 1.356 . S
C813 C812 1.363 . S
C813 C816 1.363 . S
N814 C816 1.356 . S
N814 H826 0.984 . S
N814 H827 0.985 . S
N815 C817 1.356 . S
N815 H820 0.984 . S
N815 H821 0.985 . S
C816 C810 1.379 . S
C816 C813 1.363 . S
C816 N814 1.356 . S
C817 C811 1.363 . S
C817 C812 1.379 . S
C817 N815 1.356 . S
N818 C810 1.356 . S
N818 H824 0.984 . S
N818 H825 0.984 . S
N819 C812 1.356 . S
N819 H822 0.984 . S
N819 H823 0.985 . S
H820 N815 0.984 . S
H821 N815 0.985 . S
H822 N819 0.984 . S
H823 N819 0.985 . S
H824 N818 0.984 . S
H825 N818 0.984 . S
H826 N814 0.984 . S
H827 N814 0.985 . S
C828 C829 1.363 . S
C828 C834 1.379 . S
C828 N836 1.356 . S
C829 C828 1.363 . S
C829 C835 1.363 . S
C830 C831 1.363 . S
C830 C835 1.379 . S
C830 N837 1.356 . S
C831 C830 1.363 . S
C831 C834 1.363 . S
N832 C834 1.356 . S
N832 H844 0.984 . S
N832 H845 0.985 . S
N833 C835 1.356 . S
N833 H838 0.984 . S
N833 H839 0.985 . S
C834 C828 1.379 . S
C834 C831 1.363 . S
C834 N832 1.356 . S
C835 C829 1.363 . S
C835 C830 1.379 . S
C835 N833 1.356 . S
N836 C828 1.356 . S
N836 H842 0.984 . S
N836 H843 0.984 . S
N837 C830 1.356 . S
N837 H840 0.984 1_554 S
N837 H841 0.985 . S
H838 N833 0.984 . S
H839 N833 0.985 . S
H840 N837 0.984 1_556 S
H841 N837 0.985 . S
H842 N836 0.984 . S
H843 N836 0.984 . S
H844 N832 0.984 . S
H845 N832 0.985 . S
C846 C847 1.363 . S
C846 C852 1.379 . S
C846 N854 1.356 . S
C847 C846 1.363 . S
C847 C853 1.363 . S
C848 C849 1.363 . S
C848 C853 1.379 . S
C848 N855 1.356 . S
C849 C848 1.363 . S
C849 C852 1.363 . S
N850 C852 1.356 . S
N850 H862 0.984 . S
N850 H863 0.985 . S
N851 C853 1.356 . S
N851 H856 0.984 . S
N851 H857 0.985 . S
C852 C846 1.379 . S
C852 C849 1.363 . S
C852 N850 1.356 . S
C853 C847 1.363 . S
C853 C848 1.379 . S
C853 N851 1.356 . S
N854 C846 1.356 . S
N854 H860 0.984 . S
N854 H861 0.984 . S
N855 C848 1.356 . S
N855 H858 0.984 . S
N855 H859 0.985 . S
H856 N851 0.984 . S
H857 N851 0.985 . S
H858 N855 0.984 . S
H859 N855 0.985 . S
H860 N854 0.984 . S
H861 N854 0.984 . S
H862 N850 0.984 . S
H863 N850 0.985 . S
C864 C865 1.363 . S
C864 C870 1.379 . S
C864 N872 1.356 1_554 S
C865 C864 1.363 . S
C865 C871 1.363 . S
C866 C867 1.363 . S
C866 C871 1.379 . S
C866 N873 1.356 . S
C867 C866 1.363 . S
C867 C870 1.363 . S
N868 C870 1.356 . S
N868 H880 0.984 . S
N868 H881 0.985 . S
N869 C871 1.356 . S
N869 H874 0.984 . S
N869 H875 0.985 . S
C870 C864 1.379 . S
C870 C867 1.363 . S
C870 N868 1.356 . S
C871 C865 1.363 . S
C871 C866 1.379 . S
C871 N869 1.356 . S
N872 C864 1.356 1_556 S
N872 H878 0.984 . S
N872 H879 0.984 . S
N873 C866 1.356 . S
N873 H876 0.984 . S
N873 H877 0.985 . S
H874 N869 0.984 . S
H875 N869 0.985 . S
H876 N873 0.984 . S
H877 N873 0.985 . S
H878 N872 0.984 . S
H879 N872 0.984 . S
H880 N868 0.984 . S
H881 N868 0.985 . S
C882 C883 1.363 . S
C882 C888 1.379 . S
C882 N890 1.356 . S
C883 C882 1.363 . S
C883 C889 1.363 . S
C884 C885 1.363 . S
C884 C889 1.379 . S
C884 N891 1.356 . S
C885 C884 1.363 . S
C885 C888 1.363 . S
N886 C888 1.356 . S
N886 H898 0.984 . S
N886 H899 0.985 . S
N887 C889 1.356 . S
N887 H892 0.984 . S
N887 H893 0.985 . S
C888 C882 1.379 . S
C888 C885 1.363 . S
C888 N886 1.356 . S
C889 C883 1.363 . S
C889 C884 1.379 . S
C889 N887 1.356 . S
N890 C882 1.356 . S
N890 H896 0.984 . S
N890 H897 0.984 . S
N891 C884 1.356 . S
N891 H894 0.984 . S
N891 H895 0.985 . S
H892 N887 0.984 . S
H893 N887 0.985 . S
H894 N891 0.984 . S
H895 N891 0.985 . S
H896 N890 0.984 . S
H897 N890 0.984 . S
H898 N886 0.984 . S
H899 N886 0.985 . S
C900 C901 1.363 . S
C900 C906 1.379 . S
C900 N908 1.356 . S
C901 C900 1.363 . S
C901 C907 1.363 . S
C902 C903 1.363 . S
C902 C907 1.379 . S
C902 N909 1.356 1_554 S
C903 C902 1.363 . S
C903 C906 1.363 . S
N904 C906 1.356 . S
N904 H916 0.984 . S
N904 H917 0.985 . S
N905 C907 1.356 . S
N905 H910 0.984 . S
N905 H911 0.985 . S
C906 C900 1.379 . S
C906 C903 1.363 . S
C906 N904 1.356 . S
C907 C901 1.363 . S
C907 C902 1.379 . S
C907 N905 1.356 . S
N908 C900 1.356 . S
N908 H914 0.984 . S
N908 H915 0.984 . S
N909 C902 1.356 1_556 S
N909 H912 0.984 . S
N909 H913 0.985 . S
H910 N905 0.984 . S
H911 N905 0.985 . S
H912 N909 0.984 . S
H913 N909 0.985 . S
H914 N908 0.984 . S
H915 N908 0.984 . S
H916 N904 0.984 . S
H917 N904 0.985 . S
C918 C919 1.363 . S
C918 C924 1.379 . S
C918 N926 1.356 . S
C919 C918 1.363 . S
C919 C925 1.363 . S
C920 C921 1.363 . S
C920 C925 1.379 . S
C920 N927 1.356 . S
C921 C920 1.363 . S
C921 C924 1.363 . S
N922 C924 1.356 . S
N922 H934 0.984 . S
N922 H935 0.985 . S
N923 C925 1.356 . S
N923 H928 0.984 . S
N923 H929 0.985 . S
C924 C918 1.379 . S
C924 C921 1.363 . S
C924 N922 1.356 . S
C925 C919 1.363 . S
C925 C920 1.379 . S
C925 N923 1.356 . S
N926 C918 1.356 . S
N926 H932 0.984 . S
N926 H933 0.984 . S
N927 C920 1.356 . S
N927 H930 0.984 . S
N927 H931 0.985 . S
H928 N923 0.984 . S
H929 N923 0.985 . S
H930 N927 0.984 . S
H931 N927 0.985 . S
H932 N926 0.984 . S
H933 N926 0.984 . S
H934 N922 0.984 . S
H935 N922 0.985 . S
C936 C937 1.363 . S
C936 C942 1.379 . S
C936 N944 1.356 . S
C937 C936 1.363 . S
C937 C943 1.363 . S
C938 C939 1.363 . S
C938 C943 1.379 . S
C938 N945 1.356 . S
C939 C938 1.363 . S
C939 C942 1.363 . S
N940 C942 1.356 1_554 S
N940 H952 0.984 . S
N940 H953 0.985 . S
N941 C943 1.356 . S
N941 H946 0.984 . S
N941 H947 0.985 . S
C942 C936 1.379 . S
C942 C939 1.363 . S
C942 N940 1.356 1_556 S
C943 C937 1.363 . S
C943 C938 1.379 . S
C943 N941 1.356 . S
N944 C936 1.356 . S
N944 H950 0.984 . S
N944 H951 0.984 . S
N945 C938 1.356 . S
N945 H948 0.984 . S
N945 H949 0.985 . S
H946 N941 0.984 . S
H947 N941 0.985 . S
H948 N945 0.984 . S
H949 N945 0.985 . S
H950 N944 0.984 . S
H951 N944 0.984 . S
H952 N940 0.984 . S
H953 N940 0.985 . S
C954 C955 1.363 . S
C954 C960 1.379 . S
C954 N962 1.356 . S
C955 C954 1.363 . S
C955 C961 1.363 . S
C956 C957 1.363 . S
C956 C961 1.379 . S
C956 N963 1.356 . S
C957 C956 1.363 . S
C957 C960 1.363 . S
N958 C960 1.356 . S
N958 H970 0.984 . S
N958 H971 0.985 . S
N959 C961 1.356 . S
N959 H964 0.984 . S
N959 H965 0.985 . S
C960 C954 1.379 . S
C960 C957 1.363 . S
C960 N958 1.356 . S
C961 C955 1.363 . S
C961 C956 1.379 . S
C961 N959 1.356 . S
N962 C954 1.356 . S
N962 H968 0.984 . S
N962 H969 0.984 . S
N963 C956 1.356 . S
N963 H966 0.984 . S
N963 H967 0.985 . S
H964 N959 0.984 . S
H965 N959 0.985 . S
H966 N963 0.984 . S
H967 N963 0.985 . S
H968 N962 0.984 . S
H969 N962 0.984 . S
H970 N958 0.984 . S
H971 N958 0.985 . S
C972 C973 1.363 . S
C972 C978 1.379 . S
C972 N980 1.356 . S
C973 C972 1.363 . S
C973 C979 1.363 . S
C974 C975 1.363 . S
C974 C979 1.379 . S
C974 N981 1.356 . S
C975 C974 1.363 . S
C975 C978 1.363 . S
N976 C978 1.356 . S
N976 H988 0.984 . S
N976 H989 0.985 . S
N977 C979 1.356 1_554 S
N977 H982 0.984 . S
N977 H983 0.985 . S
C978 C972 1.379 . S
C978 C975 1.363 . S
C978 N976 1.356 . S
C979 C973 1.363 . S
C979 C974 1.379 . S
C979 N977 1.356 1_556 S
N980 C972 1.356 . S
N980 H986 0.984 . S
N980 H987 0.984 . S
N981 C974 1.356 . S
N981 H984 0.984 . S
N981 H985 0.985 . S
H982 N977 0.984 . S
H983 N977 0.985 . S
H984 N981 0.984 . S
H985 N981 0.985 . S
H986 N980 0.984 . S
H987 N980 0.984 . S
H988 N976 0.984 . S
H989 N976 0.985 . S
C990 C991 1.363 . S
C990 C996 1.379 . S
C990 N998 1.356 . S
C991 C990 1.363 . S
C991 C997 1.363 . S
C992 C993 1.363 . S
C992 C997 1.379 . S
C992 N999 1.356 . S
C993 C992 1.363 . S
C993 C996 1.363 . S
N994 C996 1.356 . S
N994 H1006 0.984 . S
N994 H1007 0.985 . S
N995 C997 1.356 . S
N995 H1000 0.984 . S
N995 H1001 0.985 . S
C996 C990 1.379 . S
C996 C993 1.363 . S
C996 N994 1.356 . S
C997 C991 1.363 . S
C997 C992 1.379 . S
C997 N995 1.356 . S
N998 C990 1.356 . S
N998 H1004 0.984 . S
N998 H1005 0.984 . S
N999 C992 1.356 . S
N999 H1002 0.984 . S
N999 H1003 0.985 . S
H1000 N995 0.984 . S
H1001 N995 0.985 . S
H1002 N999 0.984 . S
H1003 N999 0.985 . S
H1004 N998 0.984 . S
H1005 N998 0.984 . S
H1006 N994 0.984 . S
H1007 N994 0.985 . S
C1008 C1009 1.363 . S
C1008 C1014 1.379 . S
C1008 N1016 1.356 . S
C1009 C1008 1.363 . S
C1009 C1015 1.363 . S
C1010 C1011 1.363 . S
C1010 C1015 1.379 . S
C1010 N1017 1.356 . S
C1011 C1010 1.363 . S
C1011 C1014 1.363 . S
N1012 C1014 1.356 . S
N1012 H1024 0.984 . S
N1012 H1025 0.985 . S
N1013 C1015 1.356 . S
N1013 H1018 0.984 . S
N1013 H1019 0.985 . S
C1014 C1008 1.379 . S
C1014 C1011 1.363 . S
C1014 N1012 1.356 . S
C1015 C1009 1.363 . S
C1015 C1010 1.379 . S
C1015 N1013 1.356 . S
N1016 C1008 1.356 . S
N1016 H1022 0.984 . S
N1016 H1023 0.984 . S
N1017 C1010 1.356 . S
N1017 H1020 0.984 . S
N1017 H1021 0.985 . S
H1018 N1013 0.984 . S
H1019 N1013 0.985 . S
H1020 N1017 0.984 . S
H1021 N1017 0.985 . S
H1022 N1016 0.984 . S
H1023 N1016 0.984 . S
H1024 N1012 0.984 . S
H1025 N1012 0.985 . S
C1026 C1027 1.363 . S
C1026 C1032 1.379 . S
C1026 N1034 1.356 . S
C1027 C1026 1.363 . S
C1027 C1033 1.363 . S
C1028 C1029 1.363 . S
C1028 C1033 1.379 . S
C1028 N1035 1.356 . S
C1029 C1028 1.363 . S
C1029 C1032 1.363 . S
N1030 C1032 1.356 . S
N1030 H1042 0.984 . S
N1030 H1043 0.985 . S
N1031 C1033 1.356 . S
N1031 H1036 0.984 . S
N1031 H1037 0.985 . S
C1032 C1026 1.379 . S
C1032 C1029 1.363 . S
C1032 N1030 1.356 . S
C1033 C1027 1.363 . S
C1033 C1028 1.379 . S
C1033 N1031 1.356 . S
N1034 C1026 1.356 . S
N1034 H1040 0.984 . S
N1034 H1041 0.984 . S
N1035 C1028 1.356 . S
N1035 H1038 0.984 . S
N1035 H1039 0.985 . S
H1036 N1031 0.984 . S
H1037 N1031 0.985 . S
H1038 N1035 0.984 . S
H1039 N1035 0.985 . S
H1040 N1034 0.984 . S
H1041 N1034 0.984 . S
H1042 N1030 0.984 . S
H1043 N1030 0.985 . S
C1044 C1045 1.363 . S
C1044 C1050 1.379 . S
C1044 N1052 1.356 . S
C1045 C1044 1.363 . S
C1045 C1051 1.363 . S
C1046 C1047 1.363 . S
C1046 C1051 1.379 . S
C1046 N1053 1.356 . S
C1047 C1046 1.363 . S
C1047 C1050 1.363 . S
N1048 C1050 1.356 . S
N1048 H1060 0.984 . S
N1048 H1061 0.985 . S
N1049 C1051 1.356 . S
N1049 H1054 0.984 . S
N1049 H1055 0.985 . S
C1050 C1044 1.379 . S
C1050 C1047 1.363 . S
C1050 N1048 1.356 . S
C1051 C1045 1.363 . S
C1051 C1046 1.379 . S
C1051 N1049 1.356 . S
N1052 C1044 1.356 . S
N1052 H1058 0.984 . S
N1052 H1059 0.984 . S
N1053 C1046 1.356 . S
N1053 H1056 0.984 . S
N1053 H1057 0.985 . S
H1054 N1049 0.984 . S
H1055 N1049 0.985 . S
H1056 N1053 0.984 . S
H1057 N1053 0.985 . S
H1058 N1052 0.984 . S
H1059 N1052 0.984 . S
H1060 N1048 0.984 . S
H1061 N1048 0.985 . S
C1062 C1063 1.363 . S
C1062 C1068 1.379 . S
C1062 N1070 1.356 . S
C1063 C1062 1.363 . S
C1063 C1069 1.363 . S
C1064 C1065 1.363 . S
C1064 C1069 1.379 . S
C1064 N1071 1.356 . S
C1065 C1064 1.363 . S
C1065 C1068 1.363 . S
N1066 C1068 1.356 . S
N1066 H1078 0.984 . S
N1066 H1079 0.985 . S
N1067 C1069 1.356 . S
N1067 H1072 0.984 . S
N1067 H1073 0.985 . S
C1068 C1062 1.379 . S
C1068 C1065 1.363 . S
C1068 N1066 1.356 . S
C1069 C1063 1.363 . S
C1069 C1064 1.379 . S
C1069 N1067 1.356 . S
N1070 C1062 1.356 . S
N1070 H1076 0.984 . S
N1070 H1077 0.984 . S
N1071 C1064 1.356 . S
N1071 H1074 0.984 . S
N1071 H1075 0.985 . S
H1072 N1067 0.984 . S
H1073 N1067 0.985 . S
H1074 N1071 0.984 . S
H1075 N1071 0.985 . S
H1076 N1070 0.984 . S
H1077 N1070 0.984 . S
H1078 N1066 0.984 . S
H1079 N1066 0.985 . S
C1080 C1081 1.363 . S
C1080 C1086 1.379 . S
C1080 N1088 1.356 . S
C1081 C1080 1.363 . S
C1081 C1087 1.363 . S
C1082 C1083 1.363 . S
C1082 C1087 1.379 . S
C1082 N1089 1.356 . S
C1083 C1082 1.363 . S
C1083 C1086 1.363 . S
N1084 C1086 1.356 . S
N1084 H1096 0.984 . S
N1084 H1097 0.985 . S
N1085 C1087 1.356 . S
N1085 H1090 0.984 . S
N1085 H1091 0.985 . S
C1086 C1080 1.379 . S
C1086 C1083 1.363 . S
C1086 N1084 1.356 . S
C1087 C1081 1.363 . S
C1087 C1082 1.379 . S
C1087 N1085 1.356 . S
N1088 C1080 1.356 . S
N1088 H1094 0.984 . S
N1088 H1095 0.984 . S
N1089 C1082 1.356 . S
N1089 H1092 0.984 . S
N1089 H1093 0.985 . S
H1090 N1085 0.984 . S
H1091 N1085 0.985 . S
H1092 N1089 0.984 . S
H1093 N1089 0.985 . S
H1094 N1088 0.984 . S
H1095 N1088 0.984 . S
H1096 N1084 0.984 . S
H1097 N1084 0.985 . S
C1098 C1099 1.363 . S
C1098 C1104 1.379 . S
C1098 N1106 1.356 . S
C1099 C1098 1.363 . S
C1099 C1105 1.363 . S
C1100 C1101 1.363 . S
C1100 C1105 1.379 . S
C1100 N1107 1.356 . S
C1101 C1100 1.363 . S
C1101 C1104 1.363 . S
N1102 C1104 1.356 . S
N1102 H1114 0.984 . S
N1102 H1115 0.985 . S
N1103 C1105 1.356 . S
N1103 H1108 0.984 . S
N1103 H1109 0.985 . S
C1104 C1098 1.379 . S
C1104 C1101 1.363 . S
C1104 N1102 1.356 . S
C1105 C1099 1.363 . S
C1105 C1100 1.379 . S
C1105 N1103 1.356 . S
N1106 C1098 1.356 . S
N1106 H1112 0.984 . S
N1106 H1113 0.984 . S
N1107 C1100 1.356 . S
N1107 H1110 0.984 . S
N1107 H1111 0.985 . S
H1108 N1103 0.984 . S
H1109 N1103 0.985 . S
H1110 N1107 0.984 . S
H1111 N1107 0.985 . S
H1112 N1106 0.984 . S
H1113 N1106 0.984 . S
H1114 N1102 0.984 . S
H1115 N1102 0.985 . S
C1116 C1117 1.363 . S
C1116 C1122 1.379 . S
C1116 N1124 1.356 . S
C1117 C1116 1.363 . S
C1117 C1123 1.363 . S
C1118 C1119 1.363 . S
C1118 C1123 1.379 . S
C1118 N1125 1.356 . S
C1119 C1118 1.363 . S
C1119 C1122 1.363 . S
N1120 C1122 1.356 . S
N1120 H1132 0.984 . S
N1120 H1133 0.985 . S
N1121 C1123 1.356 . S
N1121 H1126 0.984 . S
N1121 H1127 0.985 . S
C1122 C1116 1.379 . S
C1122 C1119 1.363 . S
C1122 N1120 1.356 . S
C1123 C1117 1.363 . S
C1123 C1118 1.379 . S
C1123 N1121 1.356 . S
N1124 C1116 1.356 . S
N1124 H1130 0.984 . S
N1124 H1131 0.984 . S
N1125 C1118 1.356 . S
N1125 H1128 0.984 . S
N1125 H1129 0.985 . S
H1126 N1121 0.984 . S
H1127 N1121 0.985 . S
H1128 N1125 0.984 . S
H1129 N1125 0.985 . S
H1130 N1124 0.984 . S
H1131 N1124 0.984 . S
H1132 N1120 0.984 . S
H1133 N1120 0.985 . S
C1134 C1135 1.363 . S
C1134 C1140 1.379 . S
C1134 N1142 1.356 . S
C1135 C1134 1.363 . S
C1135 C1141 1.363 . S
C1136 C1137 1.363 . S
C1136 C1141 1.379 . S
C1136 N1143 1.356 . S
C1137 C1136 1.363 . S
C1137 C1140 1.363 . S
N1138 C1140 1.356 . S
N1138 H1150 0.984 . S
N1138 H1151 0.985 . S
N1139 C1141 1.356 . S
N1139 H1144 0.984 . S
N1139 H1145 0.985 . S
C1140 C1134 1.379 . S
C1140 C1137 1.363 . S
C1140 N1138 1.356 . S
C1141 C1135 1.363 . S
C1141 C1136 1.379 . S
C1141 N1139 1.356 . S
N1142 C1134 1.356 . S
N1142 H1148 0.984 . S
N1142 H1149 0.984 . S
N1143 C1136 1.356 . S
N1143 H1146 0.984 . S
N1143 H1147 0.985 . S
H1144 N1139 0.984 . S
H1145 N1139 0.985 . S
H1146 N1143 0.984 . S
H1147 N1143 0.985 . S
H1148 N1142 0.984 . S
H1149 N1142 0.984 . S
H1150 N1138 0.984 . S
H1151 N1138 0.985 . S
C577 C4 1.283 . S
C579 C148 1.283 . S
C595 C184 1.283 . S
C597 C40 1.283 . S
C613 C76 1.282 . S
C615 C220 1.282 . S
C631 C112 1.283 . S
C633 C256 1.283 . S
C649 C292 1.283 . S
C651 C436 1.283 . S
C667 C472 1.283 . S
C669 C328 1.283 . S
C685 C364 1.282 . S
C687 C508 1.282 . S
C703 C400 1.283 . S
C705 C544 1.283 . S
C721 C14 1.436 . S
C723 C543 1.440 . S
C739 C435 1.440 . S
C741 C50 1.430 . S
C757 C86 1.436 . S
C759 C471 1.440 . S
C775 C507 1.440 . S
C777 C122 1.430 . S
C793 C327 1.440 . S
C795 C158 1.436 . S
C811 C363 1.440 . S
C813 C194 1.430 . S
C829 C399 1.440 . S
C831 C230 1.436 . S
C847 C291 1.440 . S
C849 C266 1.430 . S
C865 C302 1.436 . S
C867 C255 1.440 . S
C883 C147 1.440 . S
C885 C338 1.430 . S
C901 C183 1.440 . S
C903 C374 1.436 . S
C919 C410 1.430 . S
C921 C219 1.440 . S
C937 C39 1.440 . S
C939 C446 1.436 . S
C955 C482 1.430 . S
C957 C75 1.440 . S
C973 C518 1.436 . S
C975 C111 1.440 . S
C991 C554 1.430 . S
C993 C3 1.440 . S
C1009 C254 1.237 . S
C1011 C2 1.237 . S
C1027 C38 1.236 . S
C1029 C146 1.236 . S
C1045 C74 1.237 . S
C1047 C182 1.237 . S
C1063 C110 1.236 . S
C1065 C218 1.236 . S
C1081 C542 1.237 . S
C1083 C290 1.237 . S
C1099 C434 1.236 . S
C1101 C326 1.236 . S
C1117 C470 1.237 . S
C1119 C362 1.237 . S
C1135 C506 1.236 . S
C1137 C398 1.236 . S
