# Generated by pormake.
# Topology uko, (4)-cn, num edge types: 1
# Building blocks:
#     Node 0, Type 0, BuildingBlock: CEKHIL_clean_sbu_0, # of connection points: 4
#     Node 1, Type 0, BuildingBlock: CEKHIL_clean_sbu_0, # of connection points: 4
#     Node 2, Type 0, BuildingBlock: CEKHIL_clean_sbu_0, # of connection points: 4
#     Node 3, Type 0, BuildingBlock: CEKHIL_clean_sbu_0, # of connection points: 4
#     Node 4, Type 0, BuildingBlock: CEKHIL_clean_sbu_0, # of connection points: 4
#     Node 5, Type 0, BuildingBlock: CEKHIL_clean_sbu_0, # of connection points: 4
#     Node 6, Type 0, BuildingBlock: CEKHIL_clean_sbu_0, # of connection points: 4
#     Node 7, Type 0, BuildingBlock: CEKHIL_clean_sbu_0, # of connection points: 4
#     Node 8, Type 0, BuildingBlock: CEKHIL_clean_sbu_0, # of connection points: 4
#     Node 9, Type 0, BuildingBlock: CEKHIL_clean_sbu_0, # of connection points: 4
#     Node 10, Type 0, BuildingBlock: CEKHIL_clean_sbu_0, # of connection points: 4
#     Node 11, Type 0, BuildingBlock: CEKHIL_clean_sbu_0, # of connection points: 4
#     Node 12, Type 0, BuildingBlock: CEKHIL_clean_sbu_0, # of connection points: 4
#     Node 13, Type 0, BuildingBlock: CEKHIL_clean_sbu_0, # of connection points: 4
#     Node 14, Type 0, BuildingBlock: CEKHIL_clean_sbu_0, # of connection points: 4
#     Node 15, Type 0, BuildingBlock: CEKHIL_clean_sbu_0, # of connection points: 4
#     Node 16, Type 0, BuildingBlock: CEKHIL_clean_sbu_0, # of connection points: 4
#     Node 17, Type 0, BuildingBlock: CEKHIL_clean_sbu_0, # of connection points: 4
#     Node 18, Type 0, BuildingBlock: CEKHIL_clean_sbu_0, # of connection points: 4
#     Node 19, Type 0, BuildingBlock: CEKHIL_clean_sbu_0, # of connection points: 4
#     Node 20, Type 0, BuildingBlock: CEKHIL_clean_sbu_0, # of connection points: 4
#     Node 21, Type 0, BuildingBlock: CEKHIL_clean_sbu_0, # of connection points: 4
#     Node 22, Type 0, BuildingBlock: CEKHIL_clean_sbu_0, # of connection points: 4
#     Node 23, Type 0, BuildingBlock: CEKHIL_clean_sbu_0, # of connection points: 4
#     Node 24, Type 0, BuildingBlock: CEKHIL_clean_sbu_0, # of connection points: 4
#     Node 25, Type 0, BuildingBlock: CEKHIL_clean_sbu_0, # of connection points: 4
#     Node 26, Type 0, BuildingBlock: CEKHIL_clean_sbu_0, # of connection points: 4
#     Node 27, Type 0, BuildingBlock: CEKHIL_clean_sbu_0, # of connection points: 4
#     Node 28, Type 0, BuildingBlock: CEKHIL_clean_sbu_0, # of connection points: 4
#     Node 29, Type 0, BuildingBlock: CEKHIL_clean_sbu_0, # of connection points: 4
#     Node 30, Type 0, BuildingBlock: CEKHIL_clean_sbu_0, # of connection points: 4
#     Node 31, Type 0, BuildingBlock: CEKHIL_clean_sbu_0, # of connection points: 4
#     Node 32, Type 0, BuildingBlock: CEKHIL_clean_sbu_0, # of connection points: 4
#     Node 33, Type 0, BuildingBlock: CEKHIL_clean_sbu_0, # of connection points: 4
#     Node 34, Type 0, BuildingBlock: CEKHIL_clean_sbu_0, # of connection points: 4
#     Node 35, Type 0, BuildingBlock: CEKHIL_clean_sbu_0, # of connection points: 4
#     Node 36, Type 0, BuildingBlock: CEKHIL_clean_sbu_0, # of connection points: 4
#     Node 37, Type 0, BuildingBlock: CEKHIL_clean_sbu_0, # of connection points: 4
#     Node 38, Type 0, BuildingBlock: CEKHIL_clean_sbu_0, # of connection points: 4
#     Node 39, Type 0, BuildingBlock: CEKHIL_clean_sbu_0, # of connection points: 4
#     Node 40, Type 0, BuildingBlock: CEKHIL_clean_sbu_0, # of connection points: 4
#     Node 41, Type 0, BuildingBlock: CEKHIL_clean_sbu_0, # of connection points: 4
#     Node 42, Type 0, BuildingBlock: CEKHIL_clean_sbu_0, # of connection points: 4
#     Node 43, Type 0, BuildingBlock: CEKHIL_clean_sbu_0, # of connection points: 4
#     Node 44, Type 0, BuildingBlock: CEKHIL_clean_sbu_0, # of connection points: 4
#     Node 45, Type 0, BuildingBlock: CEKHIL_clean_sbu_0, # of connection points: 4
#     Node 46, Type 0, BuildingBlock: CEKHIL_clean_sbu_0, # of connection points: 4
#     Node 47, Type 0, BuildingBlock: CEKHIL_clean_sbu_0, # of connection points: 4
#     Edge 48, Type (0, 0), BuildingBlock: XIVTED_clean_linker_0, # of connection points: 2
#     Edge 49, Type (0, 0), BuildingBlock: XIVTED_clean_linker_0, # of connection points: 2
#     Edge 50, Type (0, 0), BuildingBlock: XIVTED_clean_linker_0, # of connection points: 2
#     Edge 51, Type (0, 0), BuildingBlock: XIVTED_clean_linker_0, # of connection points: 2
#     Edge 52, Type (0, 0), BuildingBlock: XIVTED_clean_linker_0, # of connection points: 2
#     Edge 53, Type (0, 0), BuildingBlock: XIVTED_clean_linker_0, # of connection points: 2
#     Edge 54, Type (0, 0), BuildingBlock: XIVTED_clean_linker_0, # of connection points: 2
#     Edge 55, Type (0, 0), BuildingBlock: XIVTED_clean_linker_0, # of connection points: 2
#     Edge 56, Type (0, 0), BuildingBlock: XIVTED_clean_linker_0, # of connection points: 2
#     Edge 57, Type (0, 0), BuildingBlock: XIVTED_clean_linker_0, # of connection points: 2
#     Edge 58, Type (0, 0), BuildingBlock: XIVTED_clean_linker_0, # of connection points: 2
#     Edge 59, Type (0, 0), BuildingBlock: XIVTED_clean_linker_0, # of connection points: 2
#     Edge 60, Type (0, 0), BuildingBlock: XIVTED_clean_linker_0, # of connection points: 2
#     Edge 61, Type (0, 0), BuildingBlock: XIVTED_clean_linker_0, # of connection points: 2
#     Edge 62, Type (0, 0), BuildingBlock: XIVTED_clean_linker_0, # of connection points: 2
#     Edge 63, Type (0, 0), BuildingBlock: XIVTED_clean_linker_0, # of connection points: 2
#     Edge 64, Type (0, 0), BuildingBlock: XIVTED_clean_linker_0, # of connection points: 2
#     Edge 65, Type (0, 0), BuildingBlock: XIVTED_clean_linker_0, # of connection points: 2
#     Edge 66, Type (0, 0), BuildingBlock: XIVTED_clean_linker_0, # of connection points: 2
#     Edge 67, Type (0, 0), BuildingBlock: XIVTED_clean_linker_0, # of connection points: 2
#     Edge 68, Type (0, 0), BuildingBlock: XIVTED_clean_linker_0, # of connection points: 2
#     Edge 69, Type (0, 0), BuildingBlock: XIVTED_clean_linker_0, # of connection points: 2
#     Edge 70, Type (0, 0), BuildingBlock: XIVTED_clean_linker_0, # of connection points: 2
#     Edge 71, Type (0, 0), BuildingBlock: XIVTED_clean_linker_0, # of connection points: 2
#     Edge 72, Type (0, 0), BuildingBlock: XIVTED_clean_linker_0, # of connection points: 2
#     Edge 73, Type (0, 0), BuildingBlock: XIVTED_clean_linker_0, # of connection points: 2
#     Edge 74, Type (0, 0), BuildingBlock: XIVTED_clean_linker_0, # of connection points: 2
#     Edge 75, Type (0, 0), BuildingBlock: XIVTED_clean_linker_0, # of connection points: 2
#     Edge 76, Type (0, 0), BuildingBlock: XIVTED_clean_linker_0, # of connection points: 2
#     Edge 77, Type (0, 0), BuildingBlock: XIVTED_clean_linker_0, # of connection points: 2
#     Edge 78, Type (0, 0), BuildingBlock: XIVTED_clean_linker_0, # of connection points: 2
#     Edge 79, Type (0, 0), BuildingBlock: XIVTED_clean_linker_0, # of connection points: 2
#     Edge 80, Type (0, 0), BuildingBlock: XIVTED_clean_linker_0, # of connection points: 2
#     Edge 81, Type (0, 0), BuildingBlock: XIVTED_clean_linker_0, # of connection points: 2
#     Edge 82, Type (0, 0), BuildingBlock: XIVTED_clean_linker_0, # of connection points: 2
#     Edge 83, Type (0, 0), BuildingBlock: XIVTED_clean_linker_0, # of connection points: 2
#     Edge 84, Type (0, 0), BuildingBlock: XIVTED_clean_linker_0, # of connection points: 2
#     Edge 85, Type (0, 0), BuildingBlock: XIVTED_clean_linker_0, # of connection points: 2
#     Edge 86, Type (0, 0), BuildingBlock: XIVTED_clean_linker_0, # of connection points: 2
#     Edge 87, Type (0, 0), BuildingBlock: XIVTED_clean_linker_0, # of connection points: 2
#     Edge 88, Type (0, 0), BuildingBlock: XIVTED_clean_linker_0, # of connection points: 2
#     Edge 89, Type (0, 0), BuildingBlock: XIVTED_clean_linker_0, # of connection points: 2
#     Edge 90, Type (0, 0), BuildingBlock: XIVTED_clean_linker_0, # of connection points: 2
#     Edge 91, Type (0, 0), BuildingBlock: XIVTED_clean_linker_0, # of connection points: 2
#     Edge 92, Type (0, 0), BuildingBlock: XIVTED_clean_linker_0, # of connection points: 2
#     Edge 93, Type (0, 0), BuildingBlock: XIVTED_clean_linker_0, # of connection points: 2
#     Edge 94, Type (0, 0), BuildingBlock: XIVTED_clean_linker_0, # of connection points: 2
#     Edge 95, Type (0, 0), BuildingBlock: XIVTED_clean_linker_0, # of connection points: 2
#     Edge 96, Type (0, 0), BuildingBlock: XIVTED_clean_linker_0, # of connection points: 2
#     Edge 97, Type (0, 0), BuildingBlock: XIVTED_clean_linker_0, # of connection points: 2
#     Edge 98, Type (0, 0), BuildingBlock: XIVTED_clean_linker_0, # of connection points: 2
#     Edge 99, Type (0, 0), BuildingBlock: XIVTED_clean_linker_0, # of connection points: 2
#     Edge 100, Type (0, 0), BuildingBlock: XIVTED_clean_linker_0, # of connection points: 2
#     Edge 101, Type (0, 0), BuildingBlock: XIVTED_clean_linker_0, # of connection points: 2
#     Edge 102, Type (0, 0), BuildingBlock: XIVTED_clean_linker_0, # of connection points: 2
#     Edge 103, Type (0, 0), BuildingBlock: XIVTED_clean_linker_0, # of connection points: 2
#     Edge 104, Type (0, 0), BuildingBlock: XIVTED_clean_linker_0, # of connection points: 2
#     Edge 105, Type (0, 0), BuildingBlock: XIVTED_clean_linker_0, # of connection points: 2
#     Edge 106, Type (0, 0), BuildingBlock: XIVTED_clean_linker_0, # of connection points: 2
#     Edge 107, Type (0, 0), BuildingBlock: XIVTED_clean_linker_0, # of connection points: 2
#     Edge 108, Type (0, 0), BuildingBlock: XIVTED_clean_linker_0, # of connection points: 2
#     Edge 109, Type (0, 0), BuildingBlock: XIVTED_clean_linker_0, # of connection points: 2
#     Edge 110, Type (0, 0), BuildingBlock: XIVTED_clean_linker_0, # of connection points: 2
#     Edge 111, Type (0, 0), BuildingBlock: XIVTED_clean_linker_0, # of connection points: 2
#     Edge 112, Type (0, 0), BuildingBlock: XIVTED_clean_linker_0, # of connection points: 2
#     Edge 113, Type (0, 0), BuildingBlock: XIVTED_clean_linker_0, # of connection points: 2
#     Edge 114, Type (0, 0), BuildingBlock: XIVTED_clean_linker_0, # of connection points: 2
#     Edge 115, Type (0, 0), BuildingBlock: XIVTED_clean_linker_0, # of connection points: 2
#     Edge 116, Type (0, 0), BuildingBlock: XIVTED_clean_linker_0, # of connection points: 2
#     Edge 117, Type (0, 0), BuildingBlock: XIVTED_clean_linker_0, # of connection points: 2
#     Edge 118, Type (0, 0), BuildingBlock: XIVTED_clean_linker_0, # of connection points: 2
#     Edge 119, Type (0, 0), BuildingBlock: XIVTED_clean_linker_0, # of connection points: 2
#     Edge 120, Type (0, 0), BuildingBlock: XIVTED_clean_linker_0, # of connection points: 2
#     Edge 121, Type (0, 0), BuildingBlock: XIVTED_clean_linker_0, # of connection points: 2
#     Edge 122, Type (0, 0), BuildingBlock: XIVTED_clean_linker_0, # of connection points: 2
#     Edge 123, Type (0, 0), BuildingBlock: XIVTED_clean_linker_0, # of connection points: 2
#     Edge 124, Type (0, 0), BuildingBlock: XIVTED_clean_linker_0, # of connection points: 2
#     Edge 125, Type (0, 0), BuildingBlock: XIVTED_clean_linker_0, # of connection points: 2
#     Edge 126, Type (0, 0), BuildingBlock: XIVTED_clean_linker_0, # of connection points: 2
#     Edge 127, Type (0, 0), BuildingBlock: XIVTED_clean_linker_0, # of connection points: 2
#     Edge 128, Type (0, 0), BuildingBlock: XIVTED_clean_linker_0, # of connection points: 2
#     Edge 129, Type (0, 0), BuildingBlock: XIVTED_clean_linker_0, # of connection points: 2
#     Edge 130, Type (0, 0), BuildingBlock: XIVTED_clean_linker_0, # of connection points: 2
#     Edge 131, Type (0, 0), BuildingBlock: XIVTED_clean_linker_0, # of connection points: 2
#     Edge 132, Type (0, 0), BuildingBlock: XIVTED_clean_linker_0, # of connection points: 2
#     Edge 133, Type (0, 0), BuildingBlock: XIVTED_clean_linker_0, # of connection points: 2
#     Edge 134, Type (0, 0), BuildingBlock: XIVTED_clean_linker_0, # of connection points: 2
#     Edge 135, Type (0, 0), BuildingBlock: XIVTED_clean_linker_0, # of connection points: 2
#     Edge 136, Type (0, 0), BuildingBlock: XIVTED_clean_linker_0, # of connection points: 2
#     Edge 137, Type (0, 0), BuildingBlock: XIVTED_clean_linker_0, # of connection points: 2
#     Edge 138, Type (0, 0), BuildingBlock: XIVTED_clean_linker_0, # of connection points: 2
#     Edge 139, Type (0, 0), BuildingBlock: XIVTED_clean_linker_0, # of connection points: 2
#     Edge 140, Type (0, 0), BuildingBlock: XIVTED_clean_linker_0, # of connection points: 2
#     Edge 141, Type (0, 0), BuildingBlock: XIVTED_clean_linker_0, # of connection points: 2
#     Edge 142, Type (0, 0), BuildingBlock: XIVTED_clean_linker_0, # of connection points: 2
#     Edge 143, Type (0, 0), BuildingBlock: XIVTED_clean_linker_0, # of connection points: 2
# Relax obj value: 0.299
# Max RMSD: 0.162
# Mean RMSD: 0.162
data_MOF--net-uko--node1-CEKHIL_clean_sbu_0--edge1-XIVTED_clean_linker_0
_symmetry_space_group_name_H-M    P1
_symmetry_Int_Tables_number       1
_symmetry_cell_setting            triclinic
loop_
_symmetry_equiv_pos_as_xyz
'x, y, z'
_cell_length_a     55.447337
_cell_length_b     55.473862
_cell_length_c     55.493485
_cell_angle_alpha  89.994294
_cell_angle_beta   90.026215
_cell_angle_gamma 89.998677
loop_
_atom_site_label
_atom_site_type_symbol
_atom_site_fract_x
_atom_site_fract_y
_atom_site_fract_z
_atom_type_partial_charge
Co0 Co 0.04311 0.36278 0.24135 0.0
O1 O 0.05168 0.32913 0.23929 0.0
O2 O 0.01437 0.3435 0.2403 0.0
C3 C 0.06939 0.37627 0.21337 0.0
O4 O 0.02644 0.3953 0.24235 0.0
Co5 Co 0.07873 0.40328 0.25649 0.0
O6 O 0.0548 0.42399 0.23986 0.0
C7 C 0.05802 0.37098 0.29352 0.0
C8 C 0.02859 0.32495 0.23901 0.0
C9 C 0.03297 0.41707 0.23829 0.0
O10 O 0.04404 0.36112 0.27775 0.0
O11 O 0.07379 0.387 0.28826 0.0
O12 O 0.04899 0.36682 0.20663 0.0
O13 O 0.07381 0.37544 0.23614 0.0
Co14 Co 0.94705 0.11953 0.23234 0.0
O15 O 0.93738 0.15299 0.23026 0.0
O16 O 0.97502 0.13973 0.23284 0.0
C17 C 0.92257 0.10522 0.20321 0.0
O18 O 0.96512 0.08784 0.2339 0.0
Co19 Co 0.91295 0.07731 0.24578 0.0
O20 O 0.93878 0.05738 0.23108 0.0
C21 C 0.92959 0.11095 0.28357 0.0
C22 C 0.96034 0.15786 0.23128 0.0
C23 C 0.96019 0.06559 0.23028 0.0
O24 O 0.94444 0.12085 0.26865 0.0
O25 O 0.91462 0.09448 0.27746 0.0
O26 O 0.94276 0.11565 0.19735 0.0
O27 O 0.9172 0.10555 0.22578 0.0
Co28 Co 0.0452 0.62403 0.24923 0.0
O29 O 0.05412 0.65758 0.2512 0.0
O30 O 0.01666 0.64364 0.24954 0.0
C31 C 0.07075 0.61056 0.27786 0.0
O32 O 0.02823 0.59169 0.24809 0.0
Co33 Co 0.08083 0.58325 0.23492 0.0
O34 O 0.05623 0.56262 0.25064 0.0
C35 C 0.06135 0.61583 0.19747 0.0
C36 C 0.03108 0.66203 0.25097 0.0
C37 C 0.03446 0.56979 0.25192 0.0
O38 O 0.04684 0.62545 0.21289 0.0
O39 O 0.07709 0.59989 0.20311 0.0
O40 O 0.0503 0.62025 0.28408 0.0
O41 O 0.07567 0.61111 0.25519 0.0
Co42 Co 0.95211 0.86833 0.26236 0.0
O43 O 0.94213 0.83492 0.26255 0.0
O44 O 0.97984 0.84793 0.25978 0.0
C45 C 0.92851 0.88071 0.29299 0.0
O46 O 0.97044 0.89993 0.26231 0.0
Co47 Co 0.91785 0.91159 0.25283 0.0
O48 O 0.94452 0.93044 0.26745 0.0
C49 C 0.93302 0.88035 0.21245 0.0
C50 C 0.96499 0.82989 0.26067 0.0
C51 C 0.96586 0.92203 0.26715 0.0
O52 O 0.94838 0.86948 0.22615 0.0
O53 O 0.91829 0.89637 0.22014 0.0
O54 O 0.94879 0.86985 0.29767 0.0
O55 O 0.9226 0.88201 0.27061 0.0
Co56 Co 0.2398 0.04094 0.36857 0.0
O57 O 0.23636 0.05044 0.33525 0.0
O58 O 0.23854 0.01282 0.34866 0.0
C59 C 0.2119 0.0663 0.38378 0.0
O60 O 0.24226 0.02309 0.40026 0.0
Co61 Co 0.25571 0.07496 0.40997 0.0
O62 O 0.2404 0.04988 0.43037 0.0
C63 C 0.2919 0.05666 0.37526 0.0
C64 C 0.23632 0.02744 0.33056 0.0
C65 C 0.23893 0.02842 0.42243 0.0
O66 O 0.27609 0.04256 0.36564 0.0
O67 O 0.28689 0.07169 0.39205 0.0
O68 O 0.20515 0.0461 0.37394 0.0
O69 O 0.2346 0.0711 0.38249 0.0
Co70 Co 0.75764 0.4493 0.369 0.0
O71 O 0.75999 0.44051 0.33535 0.0
O72 O 0.75801 0.47782 0.34951 0.0
C73 C 0.7862 0.42378 0.38289 0.0
O74 O 0.75601 0.46646 0.40119 0.0
Co75 Co 0.74331 0.41418 0.41013 0.0
O76 O 0.75841 0.43914 0.43081 0.0
C77 C 0.70586 0.43311 0.37721 0.0
C78 C 0.75963 0.46358 0.33104 0.0
C79 C 0.75945 0.46077 0.42329 0.0
O80 O 0.72123 0.44748 0.36728 0.0
O81 O 0.71157 0.41769 0.39341 0.0
O82 O 0.79256 0.44417 0.37317 0.0
O83 O 0.76351 0.41891 0.38217 0.0
Co84 Co 0.23399 0.95105 0.12375 0.0
O85 O 0.23046 0.94135 0.15701 0.0
O86 O 0.23301 0.97903 0.14382 0.0
C87 C 0.20594 0.92606 0.1082 0.0
O88 O 0.23665 0.96916 0.09222 0.0
Co89 Co 0.24986 0.91737 0.08212 0.0
O90 O 0.2348 0.94271 0.06182 0.0
C91 C 0.28578 0.93427 0.11776 0.0
C92 C 0.23082 0.96432 0.16185 0.0
C93 C 0.23338 0.96409 0.06997 0.0
O94 O 0.27023 0.94896 0.12689 0.0
O95 O 0.28069 0.91938 0.10088 0.0
O96 O 0.1993 0.94622 0.11821 0.0
O97 O 0.22859 0.92108 0.10953 0.0
Co98 Co 0.7612 0.54404 0.12491 0.0
O99 O 0.76287 0.55294 0.15859 0.0
O100 O 0.76077 0.5156 0.14451 0.0
C101 C 0.79035 0.56914 0.11161 0.0
O102 O 0.76016 0.52672 0.09277 0.0
Co103 Co 0.74816 0.57909 0.08329 0.0
O104 O 0.76322 0.5538 0.063 0.0
C105 C 0.70987 0.5611 0.11569 0.0
C106 C 0.76213 0.52989 0.16296 0.0
C107 C 0.76399 0.53221 0.07068 0.0
O108 O 0.72479 0.54637 0.12579 0.0
O109 O 0.71613 0.5764 0.09959 0.0
O110 O 0.79626 0.54874 0.12159 0.0
O111 O 0.76771 0.57428 0.11174 0.0
Co112 Co 0.36765 0.24151 0.04487 0.0
O113 O 0.33399 0.23736 0.05246 0.0
O114 O 0.34919 0.24081 0.01564 0.0
C115 C 0.38194 0.21306 0.07015 0.0
O116 O 0.40044 0.24505 0.02923 0.0
Co117 Co 0.4062 0.25719 0.0824 0.0
O118 O 0.42855 0.24325 0.05823 0.0
C119 C 0.3728 0.29343 0.06198 0.0
C120 C 0.3304 0.23796 0.02929 0.0
C121 C 0.42229 0.24231 0.03619 0.0
O122 O 0.3641 0.27769 0.04723 0.0
O123 O 0.38857 0.28836 0.07807 0.0
O124 O 0.37334 0.20682 0.04924 0.0
O125 O 0.37978 0.23552 0.07563 0.0
Co126 Co 0.37287 0.75468 0.46002 0.0
O127 O 0.34019 0.75811 0.44854 0.0
O128 O 0.35112 0.75492 0.48687 0.0
C129 C 0.38923 0.78341 0.4364 0.0
O130 O 0.40366 0.75179 0.47954 0.0
Co131 Co 0.41594 0.73982 0.42747 0.0
O132 O 0.43508 0.7538 0.45423 0.0
C133 C 0.38018 0.70325 0.44258 0.0
C134 C 0.33395 0.75732 0.47114 0.0
C135 C 0.42617 0.75476 0.47534 0.0
O136 O 0.37025 0.71847 0.45708 0.0
O137 O 0.39751 0.70879 0.42835 0.0
O138 O 0.3782 0.78953 0.45617 0.0
O139 O 0.3884 0.76088 0.4309 0.0
Co140 Co 0.62265 0.7352 0.44849 0.0
O141 O 0.65573 0.73506 0.43739 0.0
O142 O 0.64404 0.73584 0.47558 0.0
C143 C 0.60905 0.70606 0.42361 0.0
O144 O 0.59174 0.73442 0.46793 0.0
Co145 Co 0.57802 0.74686 0.41693 0.0
O146 O 0.56059 0.72936 0.4428 0.0
C147 C 0.61003 0.7863 0.43325 0.0
C148 C 0.66157 0.73534 0.46013 0.0
C149 C 0.56971 0.72884 0.46383 0.0
O150 O 0.62187 0.77161 0.44689 0.0
O151 O 0.59301 0.77959 0.41916 0.0
O152 O 0.6205 0.70019 0.44323 0.0
O153 O 0.60777 0.72879 0.41905 0.0
Co154 Co 0.12299 0.75601 0.53712 0.0
O155 O 0.15574 0.75863 0.54862 0.0
O156 O 0.14474 0.75627 0.51026 0.0
C157 C 0.10718 0.78466 0.56118 0.0
O158 O 0.09212 0.75408 0.5176 0.0
Co159 Co 0.07962 0.74146 0.56935 0.0
O160 O 0.06085 0.75673 0.54302 0.0
C161 C 0.11468 0.70445 0.55374 0.0
C162 C 0.16195 0.7581 0.52601 0.0
C163 C 0.06972 0.75774 0.52189 0.0
O164 O 0.1249 0.71972 0.53948 0.0
O165 O 0.09742 0.71006 0.568 0.0
O166 O 0.11833 0.79088 0.5415 0.0
O167 O 0.10759 0.76203 0.56634 0.0
Co168 Co 0.95085 0.62399 0.75352 0.0
O169 O 0.94144 0.6575 0.75515 0.0
O170 O 0.97903 0.6439 0.75359 0.0
C171 C 0.92548 0.61036 0.78221 0.0
O172 O 0.96869 0.59218 0.75276 0.0
Co173 Co 0.91699 0.58162 0.74013 0.0
O174 O 0.94203 0.56219 0.75678 0.0
C175 C 0.93471 0.61454 0.70204 0.0
C176 C 0.96446 0.66215 0.75484 0.0
C177 C 0.9635 0.57022 0.75756 0.0
O178 O 0.94903 0.62495 0.71715 0.0
O179 O 0.91979 0.59798 0.70807 0.0
O180 O 0.94572 0.62051 0.78842 0.0
O181 O 0.92071 0.61037 0.7595 0.0
Co182 Co 0.04252 0.86895 0.75492 0.0
O183 O 0.05179 0.83543 0.75711 0.0
O184 O 0.01426 0.84914 0.75511 0.0
C185 C 0.06774 0.88305 0.78353 0.0
O186 O 0.02489 0.90086 0.75351 0.0
Co187 Co 0.07687 0.91073 0.7408 0.0
O188 O 0.05182 0.93076 0.75667 0.0
C189 C 0.05892 0.87729 0.70332 0.0
C190 C 0.02876 0.83085 0.75661 0.0
C191 C 0.03028 0.92291 0.75763 0.0
O192 O 0.04447 0.86735 0.7186 0.0
O193 O 0.07403 0.89378 0.70906 0.0
O194 O 0.04745 0.87303 0.78978 0.0
O195 O 0.0727 0.88251 0.76086 0.0
Co196 Co 0.95238 0.37125 0.73231 0.0
O197 O 0.94171 0.33824 0.72924 0.0
O198 O 0.97971 0.35017 0.73296 0.0
C199 C 0.92897 0.38665 0.7029 0.0
O200 O 0.9713 0.40235 0.73498 0.0
Co201 Co 0.91901 0.41416 0.74563 0.0
O202 O 0.94575 0.43345 0.73173 0.0
C203 C 0.93389 0.3794 0.78321 0.0
C204 C 0.96447 0.3326 0.73049 0.0
C205 C 0.96697 0.42472 0.73143 0.0
O206 O 0.94883 0.36935 0.76848 0.0
O207 O 0.9195 0.39638 0.77704 0.0
O208 O 0.94906 0.37588 0.69731 0.0
O209 O 0.9231 0.38615 0.72534 0.0
Co210 Co 0.03453 0.12307 0.73129 0.0
O211 O 0.04467 0.15621 0.72831 0.0
O212 O 0.00675 0.14364 0.73054 0.0
C213 C 0.05954 0.10789 0.70309 0.0
O214 O 0.01625 0.09151 0.73355 0.0
Co215 Co 0.06827 0.08112 0.74654 0.0
O216 O 0.04288 0.06128 0.73104 0.0
C217 C 0.05107 0.11601 0.78302 0.0
C218 C 0.02179 0.16147 0.72866 0.0
C219 C 0.02142 0.06931 0.72992 0.0
O220 O 0.03658 0.12561 0.76756 0.0
O221 O 0.06592 0.09914 0.7777 0.0
O222 O 0.03943 0.11808 0.69653 0.0
O223 O 0.06442 0.10881 0.72575 0.0
Co224 Co 0.75431 0.94823 0.62243 0.0
O225 O 0.75556 0.93909 0.65597 0.0
O226 O 0.75514 0.9766 0.64213 0.0
C227 C 0.78232 0.92194 0.60911 0.0
O228 O 0.75408 0.96556 0.59032 0.0
Co229 Co 0.73974 0.91388 0.58078 0.0
O230 O 0.75698 0.93812 0.56088 0.0
C231 C 0.70228 0.93351 0.61333 0.0
C232 C 0.75584 0.96212 0.66048 0.0
C233 C 0.7585 0.95973 0.56845 0.0
O234 O 0.71789 0.94756 0.62333 0.0
O235 O 0.70779 0.91798 0.59716 0.0
O236 O 0.78907 0.9421 0.61904 0.0
O237 O 0.75948 0.91775 0.60926 0.0
Co238 Co 0.23682 0.53787 0.61928 0.0
O239 O 0.23497 0.54862 0.65233 0.0
O240 O 0.23644 0.51051 0.64029 0.0
C241 C 0.20841 0.56284 0.60441 0.0
O242 O 0.23784 0.51888 0.58812 0.0
Co243 Co 0.25119 0.57031 0.57612 0.0
O244 O 0.23479 0.5447 0.55727 0.0
C245 C 0.28848 0.55383 0.61052 0.0
C246 C 0.23527 0.52582 0.65791 0.0
C247 C 0.23357 0.5235 0.56593 0.0
O248 O 0.27319 0.53956 0.6207 0.0
O249 O 0.2828 0.56836 0.5935 0.0
O250 O 0.20196 0.54305 0.61525 0.0
O251 O 0.23116 0.5675 0.60452 0.0
Co252 Co 0.75963 0.03722 0.86839 0.0
O253 O 0.76152 0.04733 0.83506 0.0
O254 O 0.75799 0.00961 0.84783 0.0
C255 C 0.78971 0.0606 0.88253 0.0
O256 O 0.75803 0.01862 0.89974 0.0
Co257 Co 0.74805 0.07088 0.91151 0.0
O258 O 0.76191 0.0441 0.93078 0.0
C259 C 0.70918 0.05624 0.87808 0.0
C260 C 0.75981 0.02449 0.82989 0.0
C261 C 0.76199 0.0229 0.92206 0.0
O262 O 0.72339 0.04102 0.86771 0.0
O263 O 0.71608 0.07067 0.89472 0.0
O264 O 0.79484 0.04042 0.87172 0.0
O265 O 0.76729 0.0666 0.88276 0.0
Co266 Co 0.24129 0.45731 0.86784 0.0
O267 O 0.23995 0.44661 0.83476 0.0
O268 O 0.24067 0.48472 0.84688 0.0
C269 C 0.21308 0.43184 0.88217 0.0
O270 O 0.24151 0.47622 0.89904 0.0
Co271 Co 0.25557 0.42498 0.91112 0.0
O272 O 0.23814 0.45015 0.92966 0.0
C273 C 0.29303 0.44202 0.87717 0.0
C274 C 0.23977 0.46942 0.82922 0.0
C275 C 0.23663 0.47136 0.92105 0.0
O276 O 0.27769 0.4562 0.86692 0.0
O277 O 0.28733 0.42732 0.89403 0.0
O278 O 0.2065 0.45161 0.87136 0.0
O279 O 0.23591 0.42752 0.88241 0.0
Co280 Co 0.62407 0.7582 0.95306 0.0
O281 O 0.65754 0.75979 0.94356 0.0
O282 O 0.64417 0.75855 0.9812 0.0
C283 C 0.61041 0.78666 0.92739 0.0
O284 O 0.59213 0.75744 0.97081 0.0
Co285 Co 0.58198 0.74424 0.91894 0.0
O286 O 0.56227 0.76069 0.94383 0.0
C287 C 0.61506 0.70654 0.93718 0.0
C288 C 0.66235 0.75964 0.96652 0.0
C289 C 0.57011 0.76176 0.96535 0.0
O290 O 0.62515 0.72181 0.95156 0.0
O291 O 0.59866 0.71238 0.92201 0.0
O292 O 0.62051 0.79308 0.94758 0.0
O293 O 0.6105 0.7639 0.92286 0.0
Co294 Co 0.61917 0.2309 0.53751 0.0
O295 O 0.65232 0.22891 0.54814 0.0
O296 O 0.64015 0.2303 0.5101 0.0
C297 C 0.60423 0.20271 0.5627 0.0
O298 O 0.5879 0.23206 0.51862 0.0
Co299 Co 0.57612 0.24557 0.57005 0.0
O300 O 0.55701 0.22949 0.54445 0.0
C301 C 0.61074 0.28258 0.55342 0.0
C302 C 0.65785 0.22909 0.52534 0.0
C303 C 0.56562 0.22817 0.52324 0.0
O304 O 0.62076 0.26725 0.53909 0.0
O305 O 0.59379 0.277 0.56806 0.0
O306 O 0.61497 0.19608 0.54292 0.0
O307 O 0.60447 0.22547 0.56721 0.0
Co308 Co 0.36853 0.25806 0.53797 0.0
O309 O 0.3357 0.2607 0.54922 0.0
O310 O 0.34703 0.25874 0.51094 0.0
C311 C 0.3843 0.28632 0.56254 0.0
O312 O 0.39947 0.25614 0.51863 0.0
Co313 Co 0.41175 0.24303 0.57018 0.0
O314 O 0.43073 0.25847 0.54409 0.0
C315 C 0.37654 0.20632 0.55405 0.0
C316 C 0.32969 0.26044 0.52655 0.0
C317 C 0.42188 0.25966 0.52296 0.0
O318 O 0.36642 0.22176 0.5399 0.0
O319 O 0.39378 0.21173 0.56843 0.0
O320 O 0.37337 0.29283 0.54282 0.0
O321 O 0.38377 0.26363 0.56737 0.0
Co322 Co 0.86669 0.23032 0.45229 0.0
O323 O 0.83352 0.22939 0.44155 0.0
O324 O 0.84561 0.23074 0.47962 0.0
C325 C 0.88061 0.20132 0.42748 0.0
O326 O 0.89788 0.23042 0.47133 0.0
Co327 Co 0.91048 0.24294 0.41996 0.0
O328 O 0.92875 0.2261 0.44572 0.0
C329 C 0.87724 0.28149 0.43592 0.0
C330 C 0.82793 0.22985 0.46433 0.0
C331 C 0.91996 0.22533 0.46687 0.0
O332 O 0.86651 0.2667 0.45032 0.0
O333 O 0.89408 0.27509 0.42149 0.0
O334 O 0.86958 0.19533 0.4473 0.0
O335 O 0.8813 0.22403 0.42273 0.0
Co336 Co 0.53661 0.87201 0.73443 0.0
O337 O 0.5468 0.83899 0.73026 0.0
O338 O 0.50904 0.85124 0.7352 0.0
C339 C 0.55948 0.88782 0.70482 0.0
O340 O 0.51818 0.90327 0.73831 0.0
Co341 Co 0.57083 0.91411 0.74804 0.0
O342 O 0.54408 0.93407 0.73509 0.0
C343 C 0.55634 0.87865 0.78513 0.0
C344 C 0.52402 0.83358 0.7319 0.0
C345 C 0.52274 0.92565 0.73509 0.0
O346 O 0.54103 0.86908 0.77046 0.0
O347 O 0.57072 0.89567 0.77909 0.0
O348 O 0.5391 0.87747 0.6995 0.0
O349 O 0.56593 0.8867 0.72708 0.0
Co350 Co 0.4542 0.62414 0.73135 0.0
O351 O 0.44351 0.65718 0.72873 0.0
O352 O 0.48162 0.64505 0.73007 0.0
C353 C 0.42887 0.60855 0.70364 0.0
O354 O 0.47309 0.59296 0.73304 0.0
Co355 Co 0.4217 0.58151 0.74725 0.0
O356 O 0.44715 0.56207 0.73131 0.0
C357 C 0.43901 0.61668 0.78342 0.0
C358 C 0.46634 0.66269 0.72859 0.0
C359 C 0.46837 0.57064 0.72959 0.0
O360 O 0.45299 0.62651 0.76766 0.0
O361 O 0.42431 0.59959 0.77839 0.0
O362 O 0.44862 0.61917 0.69671 0.0
O363 O 0.42443 0.60933 0.72641 0.0
Co364 Co 0.54099 0.12373 0.75943 0.0
O365 O 0.55152 0.15693 0.76073 0.0
O366 O 0.51349 0.14456 0.7597 0.0
C367 C 0.56624 0.1094 0.78789 0.0
O368 O 0.5221 0.0925 0.75903 0.0
Co369 Co 0.57338 0.08032 0.7457 0.0
O370 O 0.54784 0.06161 0.76236 0.0
C371 C 0.55639 0.1138 0.70782 0.0
C372 C 0.52866 0.16232 0.76062 0.0
C373 C 0.52666 0.07033 0.76353 0.0
O374 O 0.54239 0.12447 0.72303 0.0
O375 O 0.57096 0.0969 0.71374 0.0
O376 O 0.54646 0.12029 0.7943 0.0
O377 O 0.57074 0.10915 0.76512 0.0
Co378 Co 0.45654 0.37114 0.75544 0.0
O379 O 0.44654 0.338 0.75919 0.0
O380 O 0.48431 0.35063 0.75543 0.0
C381 C 0.43264 0.38679 0.78438 0.0
O382 O 0.47483 0.40255 0.7522 0.0
Co383 Co 0.42247 0.41306 0.74092 0.0
O384 O 0.44862 0.43316 0.75478 0.0
C385 C 0.43841 0.37788 0.70416 0.0
C386 C 0.46942 0.33281 0.75813 0.0
C387 C 0.47001 0.42488 0.7554 0.0
O388 O 0.45326 0.36827 0.71928 0.0
O389 O 0.42378 0.39483 0.7098 0.0
O390 O 0.45293 0.37655 0.79029 0.0
O391 O 0.42688 0.3856 0.76193 0.0
Co392 Co 0.73338 0.53954 0.8694 0.0
O393 O 0.73003 0.54908 0.83608 0.0
O394 O 0.73311 0.51147 0.84924 0.0
C395 C 0.70473 0.56416 0.88446 0.0
O396 O 0.73615 0.5218 0.90124 0.0
Co397 Co 0.74827 0.57424 0.9107 0.0
O398 O 0.7337 0.5488 0.93115 0.0
C399 C 0.78492 0.55711 0.876 0.0
C400 C 0.73083 0.52615 0.83118 0.0
C401 C 0.73281 0.52723 0.92342 0.0
O402 O 0.76964 0.54223 0.8667 0.0
O403 O 0.77941 0.57218 0.89259 0.0
O404 O 0.69852 0.54383 0.87452 0.0
O405 O 0.72729 0.56951 0.88328 0.0
Co406 Co 0.25655 0.95917 0.87108 0.0
O407 O 0.25918 0.94875 0.838 0.0
O408 O 0.25699 0.98674 0.85031 0.0
C409 C 0.28502 0.9344 0.88613 0.0
O410 O 0.25469 0.97778 0.90243 0.0
Co411 Co 0.24182 0.9259 0.91352 0.0
O412 O 0.25758 0.95149 0.9329 0.0
C413 C 0.20499 0.94231 0.87859 0.0
C414 C 0.25875 0.97158 0.8326 0.0
C415 C 0.25869 0.97284 0.9246 0.0
O416 O 0.22024 0.95699 0.86896 0.0
O417 O 0.21056 0.92759 0.89549 0.0
O418 O 0.2914 0.9544 0.87567 0.0
O419 O 0.26234 0.92944 0.88558 0.0
Co420 Co 0.73213 0.44758 0.62448 0.0
O421 O 0.73071 0.43795 0.6579 0.0
O422 O 0.73171 0.47565 0.64465 0.0
C423 C 0.70374 0.42188 0.61075 0.0
O424 O 0.73271 0.46535 0.59257 0.0
Co425 Co 0.74612 0.41348 0.58239 0.0
O426 O 0.72943 0.43832 0.56279 0.0
C427 C 0.78396 0.43239 0.61493 0.0
C428 C 0.73076 0.4609 0.66278 0.0
C429 C 0.72836 0.45987 0.57058 0.0
O430 O 0.76856 0.44636 0.62535 0.0
O431 O 0.77819 0.41717 0.59856 0.0
O432 O 0.69726 0.44199 0.62096 0.0
O433 O 0.72652 0.41739 0.6109 0.0
Co434 Co 0.2554 0.04079 0.62296 0.0
O435 O 0.25776 0.0514 0.65601 0.0
O436 O 0.25581 0.01334 0.64387 0.0
C437 C 0.28392 0.06554 0.60792 0.0
O438 O 0.25384 0.02198 0.59175 0.0
Co439 Co 0.24094 0.07372 0.58014 0.0
O440 O 0.25667 0.04794 0.56098 0.0
C441 C 0.20368 0.05683 0.61436 0.0
C442 C 0.25746 0.02859 0.66152 0.0
C443 C 0.25778 0.02668 0.56953 0.0
O444 O 0.21905 0.04272 0.62465 0.0
O445 O 0.20931 0.07144 0.5974 0.0
O446 O 0.29026 0.04562 0.61859 0.0
O447 O 0.26122 0.07045 0.60831 0.0
Co448 Co 0.87042 0.73234 0.53308 0.0
O449 O 0.83729 0.72962 0.5435 0.0
O450 O 0.84955 0.73192 0.50554 0.0
C451 C 0.88583 0.70396 0.55779 0.0
O452 O 0.90181 0.73436 0.51442 0.0
Co453 Co 0.91283 0.74744 0.56635 0.0
O454 O 0.93254 0.73243 0.54058 0.0
C455 C 0.87738 0.78384 0.55027 0.0
C456 C 0.83182 0.73026 0.52069 0.0
C457 C 0.92414 0.73102 0.51929 0.0
O458 O 0.86809 0.76863 0.53533 0.0
O459 O 0.89425 0.77836 0.56505 0.0
O460 O 0.87525 0.69751 0.53786 0.0
O461 O 0.88508 0.72662 0.56275 0.0
Co462 Co 0.86884 0.2553 0.94794 0.0
O463 O 0.83503 0.25642 0.93939 0.0
O464 O 0.84962 0.25381 0.97652 0.0
C465 C 0.88124 0.28525 0.92339 0.0
O466 O 0.90111 0.25469 0.965 0.0
Co467 Co 0.91059 0.24406 0.91254 0.0
O468 O 0.93041 0.2599 0.93777 0.0
C469 C 0.87914 0.20463 0.92971 0.0
C470 C 0.83097 0.25514 0.96247 0.0
C471 C 0.92289 0.25991 0.95942 0.0
O472 O 0.86879 0.21897 0.94483 0.0
O473 O 0.89506 0.21159 0.91453 0.0
O474 O 0.87134 0.29048 0.944 0.0
O475 O 0.8816 0.26273 0.91777 0.0
Co476 Co 0.12582 0.23707 0.94633 0.0
O477 O 0.15938 0.2336 0.93768 0.0
O478 O 0.14506 0.23609 0.97493 0.0
C479 C 0.11105 0.20902 0.9209 0.0
O480 O 0.0936 0.23974 0.96327 0.0
Co481 Co 0.08546 0.25293 0.91099 0.0
O482 O 0.06431 0.23778 0.93554 0.0
C483 C 0.11988 0.28903 0.92988 0.0
C484 C 0.16355 0.23393 0.96077 0.0
C485 C 0.07156 0.23647 0.95726 0.0
O486 O 0.1289 0.27332 0.94446 0.0
O487 O 0.10352 0.284 0.91438 0.0
O488 O 0.12044 0.2024 0.94136 0.0
O489 O 0.11264 0.23164 0.91591 0.0
Co490 Co 0.62862 0.25631 0.05183 0.0
O491 O 0.66257 0.25658 0.0596 0.0
O492 O 0.64718 0.25627 0.0227 0.0
C493 C 0.61704 0.28493 0.0783 0.0
O494 O 0.59584 0.25697 0.0358 0.0
Co495 Co 0.5879 0.24343 0.08798 0.0
O496 O 0.56761 0.26109 0.06436 0.0
C497 C 0.61809 0.20471 0.06715 0.0
C498 C 0.66614 0.25651 0.03641 0.0
C499 C 0.57438 0.2622 0.04248 0.0
O500 O 0.62834 0.21987 0.05279 0.0
O501 O 0.60272 0.21089 0.08322 0.0
O502 O 0.62646 0.29122 0.05775 0.0
O503 O 0.61684 0.26214 0.08269 0.0
Co504 Co 0.46016 0.12195 0.25711 0.0
O505 O 0.4492 0.15468 0.26119 0.0
O506 O 0.48742 0.14326 0.25823 0.0
C507 C 0.43582 0.10538 0.28512 0.0
O508 O 0.47909 0.09082 0.25374 0.0
Co509 Co 0.42676 0.08002 0.24074 0.0
O510 O 0.45293 0.06 0.25454 0.0
C511 C 0.44307 0.1164 0.20537 0.0
C512 C 0.4719 0.1606 0.26082 0.0
C513 C 0.47425 0.06837 0.25606 0.0
O514 O 0.45768 0.12556 0.22098 0.0
O515 O 0.42841 0.09925 0.21026 0.0
O516 O 0.45578 0.11581 0.29174 0.0
O517 O 0.43063 0.10689 0.26255 0.0
Co518 Co 0.53411 0.37263 0.26338 0.0
O519 O 0.54579 0.33993 0.26596 0.0
O520 O 0.50736 0.35076 0.26358 0.0
C521 C 0.55823 0.38847 0.29194 0.0
O522 O 0.51432 0.40331 0.26139 0.0
Co523 Co 0.56577 0.41646 0.24906 0.0
O524 O 0.53932 0.43481 0.26463 0.0
C525 C 0.55122 0.38086 0.21212 0.0
C526 C 0.52319 0.33362 0.26533 0.0
C527 C 0.51826 0.42571 0.26533 0.0
O528 O 0.53663 0.37073 0.22713 0.0
O529 O 0.56523 0.39829 0.21787 0.0
O530 O 0.53857 0.37729 0.29824 0.0
O531 O 0.56322 0.38822 0.2693 0.0
Co532 Co 0.45122 0.86632 0.24149 0.0
O533 O 0.44128 0.83301 0.23956 0.0
O534 O 0.47911 0.8459 0.24083 0.0
C535 C 0.42568 0.88057 0.21321 0.0
O536 O 0.46941 0.89798 0.24242 0.0
Co537 Co 0.41769 0.90868 0.25595 0.0
O538 O 0.44281 0.92824 0.23963 0.0
C539 C 0.43583 0.87513 0.2933 0.0
C540 C 0.4642 0.82793 0.23952 0.0
C541 C 0.46422 0.92009 0.23831 0.0
O542 O 0.44988 0.86491 0.27784 0.0
O543 O 0.42086 0.89181 0.28772 0.0
O544 O 0.44574 0.87028 0.20671 0.0
O545 O 0.42113 0.88032 0.23597 0.0
Co546 Co 0.53928 0.62009 0.23282 0.0
O547 O 0.55003 0.65325 0.23124 0.0
O548 O 0.51197 0.64114 0.2333 0.0
C549 C 0.56366 0.6055 0.20381 0.0
O550 O 0.52011 0.58905 0.2338 0.0
Co551 Co 0.57168 0.57642 0.24589 0.0
O552 O 0.54527 0.55765 0.23067 0.0
C553 C 0.5566 0.61069 0.28383 0.0
C554 C 0.52723 0.65882 0.23209 0.0
C555 C 0.5242 0.56669 0.22983 0.0
O556 O 0.54176 0.62091 0.26912 0.0
O557 O 0.57103 0.5938 0.27754 0.0
O558 O 0.54383 0.61657 0.19783 0.0
O559 O 0.56872 0.60522 0.22644 0.0
Co560 Co 0.2527 0.46103 0.1201 0.0
O561 O 0.2571 0.44969 0.15266 0.0
O562 O 0.2527 0.48793 0.14175 0.0
C563 C 0.28173 0.43808 0.10345 0.0
O564 O 0.24888 0.48044 0.08939 0.0
Co565 Co 0.23798 0.42823 0.07725 0.0
O566 O 0.25199 0.45502 0.05818 0.0
C567 C 0.20181 0.4418 0.114 0.0
C568 C 0.256 0.47229 0.15884 0.0
C569 C 0.25244 0.47619 0.067 0.0
O570 O 0.21666 0.45701 0.12344 0.0
O571 O 0.20741 0.42785 0.09648 0.0
O572 O 0.28752 0.4581 0.11422 0.0
O573 O 0.25934 0.43203 0.10455 0.0
Co574 Co 0.73205 0.03176 0.11964 0.0
O575 O 0.73034 0.0421 0.15284 0.0
O576 O 0.73321 0.0042 0.14044 0.0
C577 C 0.70234 0.05568 0.10565 0.0
O578 O 0.7334 0.0132 0.08821 0.0
Co579 Co 0.74405 0.06538 0.07656 0.0
O580 O 0.7289 0.0391 0.0576 0.0
C581 C 0.78275 0.0501 0.10997 0.0
C582 C 0.73161 0.0193 0.15823 0.0
C583 C 0.72888 0.01778 0.06605 0.0
O584 O 0.76834 0.03504 0.12031 0.0
O585 O 0.77604 0.06463 0.09333 0.0
O586 O 0.69691 0.03552 0.11636 0.0
O587 O 0.72487 0.06126 0.10533 0.0
Co588 Co 0.26046 0.53876 0.36894 0.0
O589 O 0.26385 0.55035 0.33634 0.0
O590 O 0.26145 0.51193 0.34726 0.0
C591 C 0.28847 0.56297 0.38563 0.0
O592 O 0.25781 0.51912 0.39959 0.0
Co593 Co 0.24431 0.57071 0.41187 0.0
O594 O 0.25914 0.54439 0.43105 0.0
C595 C 0.20864 0.55531 0.37537 0.0
C596 C 0.26348 0.52773 0.33012 0.0
C597 C 0.26073 0.52333 0.42207 0.0
O598 O 0.22424 0.54089 0.36592 0.0
O599 O 0.21363 0.56964 0.39277 0.0
O600 O 0.29513 0.54335 0.37463 0.0
O601 O 0.26581 0.56799 0.38456 0.0
Co602 Co 0.73198 0.94932 0.36806 0.0
O603 O 0.72951 0.93902 0.33489 0.0
O604 O 0.73481 0.9767 0.34716 0.0
C605 C 0.70081 0.92745 0.38229 0.0
O606 O 0.73462 0.96779 0.39941 0.0
Co607 Co 0.74197 0.9148 0.41103 0.0
O608 O 0.72932 0.94221 0.4302 0.0
C609 C 0.78164 0.92831 0.37815 0.0
C610 C 0.73213 0.9617 0.32942 0.0
C611 C 0.73046 0.96348 0.42169 0.0
O612 O 0.76802 0.94391 0.36752 0.0
O613 O 0.77409 0.91403 0.39463 0.0
O614 O 0.69665 0.94784 0.37145 0.0
O615 O 0.72291 0.92038 0.38243 0.0
Co616 Co 0.11857 0.25307 0.46166 0.0
O617 O 0.1513 0.25775 0.45083 0.0
O618 O 0.13985 0.25368 0.48891 0.0
C619 C 0.1017 0.28155 0.43811 0.0
O620 O 0.08752 0.24895 0.48054 0.0
Co621 Co 0.07657 0.23725 0.42817 0.0
O622 O 0.05668 0.25093 0.45451 0.0
C623 C 0.11336 0.20172 0.44329 0.0
C624 C 0.15718 0.25688 0.47351 0.0
C625 C 0.06508 0.25177 0.47584 0.0
O626 O 0.12251 0.21702 0.45822 0.0
O627 O 0.09601 0.20684 0.42893 0.0
O628 O 0.11216 0.28777 0.45817 0.0
O629 O 0.10336 0.25913 0.43234 0.0
Co630 Co 0.12122 0.73571 0.02989 0.0
O631 O 0.15423 0.7323 0.04029 0.0
O632 O 0.14216 0.73623 0.00238 0.0
C633 C 0.10589 0.70634 0.05339 0.0
O634 O 0.08974 0.73876 0.01148 0.0
Co635 Co 0.0791 0.74946 0.06407 0.0
O636 O 0.05939 0.73518 0.03787 0.0
C637 C 0.11403 0.7867 0.04866 0.0
C638 C 0.1598 0.73362 0.01756 0.0
C639 C 0.06749 0.73501 0.01641 0.0
O640 O 0.12367 0.77187 0.03357 0.0
O641 O 0.09713 0.78074 0.06322 0.0
O642 O 0.11629 0.70074 0.03313 0.0
O643 O 0.10671 0.72876 0.05934 0.0
Co644 Co 0.86981 0.76348 0.04355 0.0
O645 O 0.83652 0.7644 0.05403 0.0
O646 O 0.84894 0.76218 0.01612 0.0
C647 C 0.88356 0.79319 0.0676 0.0
O648 O 0.90105 0.76313 0.02464 0.0
Co649 Co 0.91349 0.7518 0.07652 0.0
O650 O 0.93221 0.76692 0.05004 0.0
C651 C 0.88056 0.71278 0.06129 0.0
C652 C 0.83112 0.76326 0.03121 0.0
C653 C 0.92331 0.76752 0.02891 0.0
O654 O 0.86992 0.72715 0.04639 0.0
O655 O 0.89715 0.71963 0.07581 0.0
O656 O 0.87242 0.79863 0.04768 0.0
O657 O 0.88432 0.77063 0.07298 0.0
Co658 Co 0.36939 0.73853 0.94765 0.0
O659 O 0.33654 0.73544 0.93652 0.0
O660 O 0.34799 0.73788 0.97475 0.0
C661 C 0.38538 0.71014 0.92337 0.0
O662 O 0.40038 0.74092 0.96686 0.0
Co663 Co 0.41229 0.75364 0.91504 0.0
O664 O 0.43161 0.73897 0.94133 0.0
C665 C 0.37722 0.79033 0.93151 0.0
C666 C 0.33061 0.7358 0.9592 0.0
C667 C 0.42284 0.73783 0.96248 0.0
O668 O 0.36699 0.77479 0.94546 0.0
O669 O 0.39447 0.785 0.91713 0.0
O670 O 0.37455 0.70375 0.94318 0.0
O671 O 0.38457 0.73276 0.91824 0.0
H672 H 0.93473 0.20026 0.23049 0.0
H673 H 0.05355 0.28246 0.23667 0.0
H674 H 0.0073 0.17212 0.23211 0.0
H675 H 0.98126 0.31134 0.23726 0.0
H676 H 0.03676 0.24184 0.23387 0.0
H677 H 0.95123 0.24124 0.2317 0.0
C678 C 0.95411 0.2027 0.23103 0.0
C679 C 0.96966 0.18278 0.23126 0.0
C680 C 0.02455 0.25706 0.2346 0.0
C681 C 0.98864 0.22945 0.23269 0.0
C682 C 0.03415 0.28025 0.23621 0.0
C683 C 0.01878 0.30028 0.23725 0.0
C684 C -0.0006 0.25388 0.23402 0.0
C685 C 0.99377 0.29638 0.23654 0.0
C686 C 0.96352 0.22607 0.23175 0.0
C687 C 0.99462 0.18695 0.23196 0.0
N688 N 0.98485 0.27363 0.23499 0.0
N689 N 0.00331 0.2098 0.23268 0.0
H690 H 0.05656 0.70421 0.25281 0.0
H691 H 0.9389 0.78781 0.26095 0.0
H692 H 0.98391 0.67624 0.25238 0.0
H693 H 0.01172 0.81514 0.25756 0.0
H694 H 0.95485 0.74668 0.25864 0.0
H695 H 0.04029 0.74505 0.25533 0.0
C696 C 0.03719 0.70667 0.25324 0.0
C697 C 0.02157 0.68682 0.25237 0.0
C698 C 0.96731 0.7617 0.2584 0.0
C699 C 0.00279 0.73349 0.25529 0.0
C700 C 0.95821 0.78515 0.25973 0.0
C701 C 0.974 0.8049 0.25943 0.0
C702 C 0.99235 0.75803 0.2568 0.0
C703 C -0.00113 0.80045 0.25783 0.0
C704 C 0.02789 0.72999 0.25467 0.0
C705 C -0.00339 0.69105 0.25299 0.0
N706 N 0.00726 0.77752 0.25658 0.0
N707 N 0.98799 0.71392 0.25443 0.0
H708 H 0.22901 0.01127 0.17604 0.0
H709 H 0.23442 0.98041 0.31653 0.0
H710 H 0.22974 0.93869 0.20412 0.0
H711 H 0.23279 0.05295 0.28838 0.0
H712 H 0.23128 0.96481 0.2756 0.0
H713 H 0.2288 0.0268 0.21709 0.0
C714 C 0.22904 -0.00143 0.19087 0.0
C715 C 0.22951 0.97363 0.18669 0.0
C716 C 0.23156 0.98414 0.27834 0.0
C717 C 0.22935 0.99134 0.23378 0.0
C718 C 0.23338 0.99308 0.30172 0.0
C719 C 0.23398 0.01803 0.30583 0.0
C720 C 0.23038 0.00025 0.2589 0.0
C721 C 0.23246 0.03358 0.28599 0.0
C722 C 0.22892 0.00748 0.21432 0.0
C723 C 0.22943 0.95805 0.20656 0.0
N724 N 0.2308 0.02442 0.26334 0.0
N725 N 0.22947 0.96717 0.22929 0.0
H726 H 0.76203 0.48261 0.17639 0.0
H727 H 0.76036 0.51089 0.31769 0.0
H728 H 0.76329 0.55465 0.20578 0.0
H729 H 0.76159 0.43888 0.28824 0.0
H730 H 0.76173 0.52722 0.27691 0.0
H731 H 0.76218 0.46633 0.21719 0.0
C732 C 0.76236 0.49503 0.19145 0.0
C733 C 0.76259 0.52006 0.18769 0.0
C734 C 0.76174 0.50785 0.27933 0.0
C735 C 0.76274 0.50146 0.23453 0.0
C736 C 0.76094 0.49848 0.30262 0.0
C737 C 0.76081 0.47346 0.30636 0.0
C738 C 0.76236 0.49209 0.25956 0.0
C739 C 0.76163 0.45828 0.28618 0.0
C740 C 0.76246 0.48569 0.21476 0.0
C741 C 0.76307 0.53525 0.20787 0.0
N742 N 0.76233 0.46785 0.26362 0.0
N743 N 0.76308 0.5257 0.23045 0.0
H744 H 0.31802 0.23754 0.98166 0.0
H745 H 0.17647 0.23219 0.00808 0.0
H746 H 0.28743 0.23337 0.05306 0.0
H747 H 0.20654 0.23262 0.93633 0.0
H748 H 0.21711 0.23163 0.02472 0.0
H749 H 0.27751 0.23486 0.9646 0.0
C750 C 0.30277 0.23601 0.99375 0.0
C751 C 0.30606 0.23578 0.01882 0.0
C752 C 0.21487 0.23176 0.00534 0.0
C753 C 0.25968 0.23272 -0.00058 0.0
C754 C 0.19165 0.23209 -0.0042 0.0
C755 C 0.18814 0.23255 0.97077 0.0
C756 C 0.23479 0.23199 0.98975 0.0
C757 C 0.20846 0.23232 0.95574 0.0
C758 C 0.27966 0.23446 0.98399 0.0
C759 C 0.2857 0.23369 0.03363 0.0
N760 N 0.23097 0.23216 0.96548 0.0
N761 N 0.26335 0.23232 0.02369 0.0
H762 H 0.2937 0.76059 0.44268 0.0
H763 H 0.20226 0.76007 0.5545 0.0
H764 H 0.31637 0.75726 0.51704 0.0
H765 H 0.17952 0.75875 0.4801 0.0
H766 H 0.24428 0.76107 0.54114 0.0
H767 H 0.25169 0.76197 0.45605 0.0
C768 C 0.28984 0.7602 0.46181 0.0
C769 C 0.30852 0.75873 0.47877 0.0
C770 C 0.23009 0.7606 0.52774 0.0
C771 C 0.26058 0.76029 0.4942 0.0
C772 C 0.20611 0.76004 0.53537 0.0
C773 C 0.1874 0.75924 0.51839 0.0
C774 C 0.23535 0.76038 0.50297 0.0
C775 C 0.19339 0.75927 0.49382 0.0
C776 C 0.26587 0.76097 0.46944 0.0
C777 C 0.30251 0.75832 0.50333 0.0
N778 N 0.21685 0.7598 0.48685 0.0
N779 N 0.27907 0.75906 0.51031 0.0
H780 H 0.79045 0.72941 0.54767 0.0
H781 H 0.70278 0.73378 0.43274 0.0
H782 H 0.81586 0.73056 0.47417 0.0
H783 H 0.67789 0.73514 0.50643 0.0
H784 H 0.74441 0.73184 0.44742 0.0
H785 H 0.74894 0.73042 0.53279 0.0
C786 C 0.78729 0.72978 0.52842 0.0
C787 C 0.80661 0.72994 0.51214 0.0
C788 C 0.72981 0.73258 0.46036 0.0
C789 C 0.75923 0.73119 0.49496 0.0
C790 C 0.70607 0.73372 0.45198 0.0
C791 C 0.68687 0.73464 0.46838 0.0
C792 C 0.73432 0.73234 0.48531 0.0
C793 C 0.69215 0.73447 0.49312 0.0
C794 C 0.7636 0.73041 0.51991 0.0
C795 C 0.80149 0.73046 0.48736 0.0
N796 N 0.71535 0.73332 0.50082 0.0
N797 N 0.7783 0.7311 0.47953 0.0
H798 H 0.98161 0.81698 0.757 0.0
H799 H 0.01157 0.67607 0.75559 0.0
H800 H 0.054 0.78835 0.75786 0.0
H801 H 0.93915 0.70463 0.75637 0.0
H802 H 0.02739 0.71703 0.75688 0.0
H803 H 0.96576 0.77601 0.7573 0.0
C804 C 0.9942 0.80205 0.75729 0.0
C805 C 0.01919 0.80606 0.75735 0.0
C806 C 0.00804 0.71438 0.7568 0.0
C807 C 0.00111 0.75906 0.75766 0.0
C808 C -0.00103 0.69098 0.75604 0.0
C809 C 0.97398 0.68695 0.75581 0.0
C810 C 0.99202 0.73395 0.7573 0.0
C811 C 0.95853 0.70694 0.75648 0.0
C812 C 0.98511 0.77865 0.75747 0.0
C813 C 0.03462 0.78605 0.75778 0.0
N814 N 0.96782 0.72961 0.75716 0.0
N815 N 0.02531 0.76338 0.75786 0.0
H816 H 0.97513 0.17709 0.72732 0.0
H817 H 0.01091 0.31662 0.73102 0.0
H818 H 0.04858 0.20291 0.72748 0.0
H819 H 0.93738 0.29135 0.72704 0.0
H820 H 0.02494 0.27504 0.7294 0.0
H821 H 0.9609 0.21872 0.72675 0.0
C822 C 0.98828 0.19153 0.72718 0.0
C823 C 0.01309 0.18656 0.72752 0.0
C824 C 0.00573 0.27854 0.72883 0.0
C825 C -0.0031 0.23424 0.72693 0.0
C826 C -0.00231 0.3023 0.72979 0.0
C827 C 0.97292 0.30743 0.72923 0.0
C828 C 0.9889 0.25971 0.72737 0.0
C829 C 0.95664 0.28817 0.72755 0.0
C830 C 0.98012 0.2153 0.72684 0.0
C831 C 0.0293 0.20595 0.72725 0.0
N832 N 0.96492 0.26512 0.72674 0.0
N833 N 0.02091 0.22896 0.72706 0.0
H834 H 0.7574 0.97776 0.81517 0.0
H835 H 0.75771 0.00923 0.67459 0.0
H836 H 0.7619 0.05046 0.78775 0.0
H837 H 0.75612 0.93672 0.70279 0.0
H838 H 0.75907 0.02479 0.71572 0.0
H839 H 0.75675 0.96261 0.77404 0.0
C840 C 0.75827 0.99058 0.80047 0.0
C841 C 0.75969 0.01544 0.80489 0.0
C842 C 0.75845 0.00548 0.71293 0.0
C843 C 0.75893 -0.00187 0.75761 0.0
C844 C 0.75766 -0.00344 0.68945 0.0
C845 C 0.75679 0.97162 0.68529 0.0
C846 C 0.75833 0.98934 0.7324 0.0
C847 C 0.75678 0.95607 0.70519 0.0
C848 C 0.75791 0.98188 0.77695 0.0
C849 C 0.76079 0.03115 0.78513 0.0
N850 N 0.75751 0.9652 0.7279 0.0
N851 N 0.76035 0.02222 0.7623 0.0
H852 H 0.23857 0.51586 0.81324 0.0
H853 H 0.23475 0.47939 0.67395 0.0
H854 H 0.23801 0.44225 0.788 0.0
H855 H 0.23483 0.55301 0.69916 0.0
H856 H 0.23516 0.46548 0.71561 0.0
H857 H 0.23656 0.52978 0.77162 0.0
C858 C 0.23803 0.50261 0.79892 0.0
C859 C 0.23851 0.47784 0.80406 0.0
C860 C 0.23504 0.48468 0.71207 0.0
C861 C 0.23619 0.49369 0.75635 0.0
C862 C 0.2348 0.49265 0.68827 0.0
C863 C 0.23482 0.51742 0.68311 0.0
C864 C 0.23533 0.50158 0.73087 0.0
C865 C 0.23484 0.53376 0.70236 0.0
C866 C 0.23686 0.51058 0.77515 0.0
C867 C 0.23771 0.4615 0.78482 0.0
N868 N 0.23515 0.52554 0.72543 0.0
N869 N 0.23662 0.46973 0.76178 0.0
H870 H 0.70437 0.76078 0.94064 0.0
H871 H 0.78925 0.76437 0.05767 0.0
H872 H 0.67706 0.76057 0.01347 0.0
H873 H 0.81585 0.76178 0.98462 0.0
H874 H 0.7479 0.76385 0.04202 0.0
H875 H 0.74545 0.76202 0.95658 0.0
C876 C 0.70702 0.76101 0.95998 0.0
C877 C 0.6873 0.76054 0.97575 0.0
C878 C 0.76282 0.7634 0.02944 0.0
C879 C 0.73421 0.76197 0.99415 0.0
C880 C 0.78639 0.76371 0.03837 0.0
C881 C 0.80599 0.76309 0.02243 0.0
C882 C 0.75889 0.7625 0.00442 0.0
C883 C 0.80128 0.76225 -0.00241 0.0
C884 C 0.73047 0.76171 0.96909 0.0
C885 C 0.69177 0.76088 0.00066 0.0
N886 N 0.77825 0.76197 0.98936 0.0
N887 N 0.71475 0.76157 0.00909 0.0
H888 H 0.69924 0.22829 0.5524 0.0
H889 H 0.78657 0.22833 0.43722 0.0
H890 H 0.67378 0.22838 0.47887 0.0
H891 H 0.81192 0.23012 0.51076 0.0
H892 H 0.74502 0.22751 0.4521 0.0
H893 H 0.74077 0.22801 0.53749 0.0
C894 C 0.70239 0.22819 0.53314 0.0
C895 C 0.68306 0.22839 0.51686 0.0
C896 C 0.75969 0.22808 0.46498 0.0
C897 C 0.73043 0.22811 0.49966 0.0
C898 C 0.78339 0.22856 0.45648 0.0
C899 C 0.8027 0.22934 0.47277 0.0
C900 C 0.75532 0.22837 0.48993 0.0
C901 C 0.79757 0.22956 0.49754 0.0
C902 C 0.72608 0.22806 0.52462 0.0
C903 C 0.68815 0.22827 0.49208 0.0
N904 N 0.77439 0.22909 0.50536 0.0
N905 N 0.71134 0.22816 0.48424 0.0
H906 H 0.17403 0.25735 0.51972 0.0
H907 H 0.31265 0.26197 0.48047 0.0
H908 H 0.19776 0.26122 0.44574 0.0
H909 H 0.28902 0.26143 0.55458 0.0
H910 H 0.27065 0.26257 0.46747 0.0
H911 H 0.21596 0.25969 0.53288 0.0
C912 C 0.18808 0.25874 0.50623 0.0
C913 C 0.18243 0.259 0.48159 0.0
C914 C 0.27461 0.26239 0.48658 0.0
C915 C 0.23047 0.26164 0.49653 0.0
C916 C 0.29861 0.26203 0.49403 0.0
C917 C 0.30432 0.26156 0.51866 0.0
C918 C 0.25615 0.26219 0.50388 0.0
C919 C 0.2854 0.26174 0.53541 0.0
C920 C 0.21202 0.2601 0.51377 0.0
C921 C 0.20133 0.26092 0.46492 0.0
N922 N 0.26213 0.26196 0.52771 0.0
N923 N 0.22453 0.26208 0.47271 0.0
H924 H 0.47744 0.81791 0.73334 0.0
H925 H 0.51277 0.67849 0.72558 0.0
H926 H 0.55065 0.79231 0.72656 0.0
H927 H 0.43932 0.70409 0.72896 0.0
H928 H 0.52689 0.72008 0.72516 0.0
H929 H 0.4631 0.77642 0.73113 0.0
C930 C 0.49052 0.80354 0.73136 0.0
C931 C 0.5153 0.80854 0.73022 0.0
C932 C 0.50768 0.71664 0.72592 0.0
C933 C 0.49898 0.76098 0.72767 0.0
C934 C 0.49958 0.69288 0.72617 0.0
C935 C 0.47482 0.68784 0.7274 0.0
C936 C 0.4909 0.73555 0.72699 0.0
C937 C 0.45857 0.70719 0.72804 0.0
C938 C 0.4823 0.77985 0.73007 0.0
C939 C 0.5314 0.78924 0.72757 0.0
N940 N 0.46691 0.73023 0.72792 0.0
N941 N 0.52295 0.76628 0.72646 0.0
H942 H 0.51618 0.31762 0.75773 0.0
H943 H 0.48206 0.17774 0.76222 0.0
H944 H 0.44308 0.29116 0.76189 0.0
H945 H 0.55533 0.20401 0.76062 0.0
H946 H 0.46755 0.21918 0.76264 0.0
H947 H 0.53089 0.27623 0.75932 0.0
C948 C 0.5032 0.30308 0.75902 0.0
C949 C 0.47835 0.30782 0.75961 0.0
C950 C 0.48681 0.21593 0.76225 0.0
C951 C 0.4951 0.26036 0.76141 0.0
C952 C 0.49513 0.19225 0.76198 0.0
C953 C 0.51997 0.18743 0.76131 0.0
C954 C 0.50342 0.23499 0.76177 0.0
C955 C 0.53604 0.20693 0.7611 0.0
C956 C 0.51164 0.27945 0.75994 0.0
C957 C 0.46239 0.2883 0.76135 0.0
N958 N 0.52748 0.2299 0.76127 0.0
N959 N 0.47105 0.2654 0.76213 0.0
H960 H 0.72798 0.55211 0.78924 0.0
H961 H 0.72988 0.43487 0.70476 0.0
H962 H 0.73111 0.47925 0.81639 0.0
H963 H 0.72972 0.50779 0.67759 0.0
H964 H 0.72895 0.45075 0.74588 0.0
H965 H 0.72714 0.5362 0.74813 0.0
C966 C 0.72843 0.53278 0.78655 0.0
C967 C 0.72968 0.51699 0.80624 0.0
C968 C 0.7291 0.46327 0.73091 0.0
C969 C 0.72875 0.49864 0.75932 0.0
C970 C 0.72962 0.45421 0.70744 0.0
C971 C 0.72993 0.47003 0.68775 0.0
C972 C 0.72886 0.48834 0.73467 0.0
C973 C 0.72955 0.49493 0.69226 0.0
C974 C 0.72797 0.52369 0.76309 0.0
C975 C 0.7302 0.49209 0.80173 0.0
N976 N 0.72905 0.50331 0.71524 0.0
N977 N 0.72977 0.4837 0.77875 0.0
H978 H 0.25839 0.98211 0.67739 0.0
H979 H 0.25961 0.01812 0.81682 0.0
H980 H 0.25951 0.05566 0.70279 0.0
H981 H 0.26035 0.94461 0.79128 0.0
H982 H 0.26037 0.03221 0.77521 0.0
H983 H 0.25985 0.96809 0.71898 0.0
C984 C 0.25897 0.99533 0.69174 0.0
C985 C 0.25875 0.02011 0.68665 0.0
C986 C 0.26042 0.013 0.77868 0.0
C987 C 0.26042 0.00414 0.73434 0.0
C988 C 0.25997 0.00492 0.80244 0.0
C989 C 0.25984 0.98014 0.80749 0.0
C990 C 0.26067 -0.00382 0.7598 0.0
C991 C 0.2604 0.96388 0.78817 0.0
C992 C 0.25982 0.98729 0.71549 0.0
C993 C 0.2596 0.0364 0.70593 0.0
N994 N 0.26072 0.9722 0.76514 0.0
N995 N 0.26034 0.02812 0.72897 0.0
H996 H 0.70954 0.25568 0.06 0.0
H997 H 0.78772 0.25772 0.93846 0.0
H998 H 0.67825 0.25744 0.98877 0.0
H999 H 0.81838 0.25308 0.00983 0.0
H1000 H 0.74736 0.25828 0.95641 0.0
H1001 H 0.7497 0.25544 0.04183 0.0
C1002 C 0.71113 0.25603 0.04055 0.0
C1003 C 0.69056 0.25655 0.02588 0.0
C1004 C 0.76294 0.25712 0.96812 0.0
C1005 C 0.73638 0.25629 0.00494 0.0
C1006 C 0.78596 0.25679 0.95787 0.0
C1007 C 0.8064 0.25533 0.97267 0.0
C1008 C 0.76044 0.256 0.99332 0.0
C1009 C 0.80311 0.25421 -0.00228 0.0
C1010 C 0.73405 0.25588 0.03017 0.0
C1011 C 0.69364 0.257 0.00077 0.0
N1012 N 0.78059 0.25458 0.00724 0.0
N1013 N 0.71613 0.25686 0.99109 0.0
H1014 H 0.47729 0.31602 0.26608 0.0
H1015 H 0.51805 0.17781 0.26165 0.0
H1016 H 0.55175 0.29326 0.26623 0.0
H1017 H 0.44378 0.20096 0.2645 0.0
H1018 H 0.53083 0.21987 0.26396 0.0
H1019 H 0.46479 0.27391 0.26617 0.0
C1020 C 0.49104 0.30214 0.26619 0.0
C1021 C 0.51561 0.30814 0.26609 0.0
C1022 C 0.51174 0.21576 0.26415 0.0
C1023 C 0.50139 0.25982 0.26613 0.0
C1024 C 0.50442 0.19175 0.26281 0.0
C1025 C 0.4798 0.1859 0.26282 0.0
C1026 C 0.49431 0.23407 0.26543 0.0
C1027 C 0.46294 0.20467 0.26441 0.0
C1028 C 0.48387 0.27808 0.26625 0.0
C1029 C 0.53261 0.28942 0.26629 0.0
N1030 N 0.47052 0.22793 0.26558 0.0
N1031 N 0.52517 0.26607 0.26622 0.0
H1032 H 0.43781 0.78626 0.23708 0.0
H1033 H 0.55409 0.70043 0.23179 0.0
H1034 H 0.511 0.81275 0.23828 0.0
H1035 H 0.4807 0.67445 0.23268 0.0
H1036 H 0.53881 0.74186 0.23304 0.0
H1037 H 0.45332 0.74509 0.23447 0.0
C1038 C 0.45713 0.78341 0.2368 0.0
C1039 C 0.47313 0.80293 0.23794 0.0
C1040 C 0.52608 0.72707 0.23292 0.0
C1041 C 0.49104 0.75593 0.23493 0.0
C1042 C 0.5348 0.70344 0.23218 0.0
C1043 C 0.51865 0.684 0.23218 0.0
C1044 C 0.50106 0.7312 0.23365 0.0
C1045 C 0.49382 0.68891 0.23271 0.0
C1046 C 0.46599 0.75991 0.2353 0.0
C1047 C 0.49801 0.79821 0.23748 0.0
N1048 N 0.4858 0.71199 0.23345 0.0
N1049 N 0.5062 0.77519 0.23602 0.0
H1050 H 0.26436 0.5562 0.28981 0.0
H1051 H 0.26155 0.44404 0.19891 0.0
H1052 H 0.26467 0.48182 0.31269 0.0
H1053 H 0.25609 0.51828 0.1762 0.0
H1054 H 0.26512 0.45761 0.24067 0.0
H1055 H 0.26394 0.54274 0.24783 0.0
C1056 C 0.26446 0.53705 0.28599 0.0
C1057 C 0.26445 0.5201 0.30471 0.0
C1058 C 0.26317 0.47093 0.22654 0.0
C1059 C 0.26389 0.50457 0.25687 0.0
C1060 C 0.26113 0.46318 0.20272 0.0
C1061 C 0.25842 0.48006 0.18411 0.0
C1062 C 0.26253 0.49572 0.23175 0.0
C1063 C 0.25805 0.50465 0.19002 0.0
C1064 C 0.26417 0.52937 0.26205 0.0
C1065 C 0.26458 0.49551 0.29879 0.0
N1066 N 0.26005 0.51174 0.21334 0.0
N1067 N 0.26423 0.48848 0.27538 0.0
H1068 H 0.73142 0.97272 0.17397 0.0
H1069 H 0.7354 0.00812 0.31357 0.0
H1070 H 0.7312 0.04615 0.19971 0.0
H1071 H 0.72841 0.93495 0.28802 0.0
H1072 H 0.73498 0.0223 0.27197 0.0
H1073 H 0.73134 0.95852 0.21557 0.0
C1074 C 0.73135 0.98588 0.18839 0.0
C1075 C 0.73134 0.01067 0.18338 0.0
C1076 C 0.73352 0.00314 0.27543 0.0
C1077 C 0.73128 0.9945 0.23108 0.0
C1078 C 0.73379 0.99501 0.29919 0.0
C1079 C 0.73196 0.97029 0.30426 0.0
C1080 C 0.73147 0.98645 0.25655 0.0
C1081 C 0.72988 0.95416 0.28492 0.0
C1082 C 0.73127 0.97773 0.21215 0.0
C1083 C 0.73121 0.02688 0.20277 0.0
N1084 N 0.72972 0.96252 0.26189 0.0
N1085 N 0.73123 0.0185 0.22579 0.0
H1086 H 0.2007 0.73008 0.04493 0.0
H1087 H 0.28983 0.73359 0.93133 0.0
H1088 H 0.17626 0.73474 0.9712 0.0
H1089 H 0.31383 0.7343 0.00534 0.0
H1090 H 0.24804 0.7318 0.94541 0.0
H1091 H 0.24237 0.72936 0.03059 0.0
C1092 C 0.20411 0.7309 0.02572 0.0
C1093 C 0.18503 0.73257 0.00923 0.0
C1094 C 0.26247 0.73231 0.95856 0.0
C1095 C 0.2326 0.73176 0.99269 0.0
C1096 C 0.28631 0.73332 0.95052 0.0
C1097 C 0.3053 0.73419 0.96719 0.0
C1098 C 0.25765 0.73213 0.98342 0.0
C1099 C 0.29973 0.73375 0.99186 0.0
C1100 C 0.22789 0.73051 0.01754 0.0
C1101 C 0.19045 0.73353 0.98455 0.0
N1102 N 0.27642 0.73278 -0.00078 0.0
N1103 N 0.21375 0.73315 0.97702 0.0
H1104 H 0.06453 0.27084 0.40824 0.0
H1105 H 0.08046 0.39068 0.33286 0.0
H1106 H 0.10868 0.33026 0.43201 0.0
H1107 H 0.03439 0.3315 0.31188 0.0
H1108 H 0.08515 0.37248 0.37255 0.0
H1109 H 0.04741 0.29622 0.37703 0.0
C1110 C 0.0704 0.2894 0.40711 0.0
C1111 C 0.08834 0.29837 0.42249 0.0
C1112 C 0.07372 0.36366 0.35941 0.0
C1113 C 0.06912 0.32752 0.38626 0.0
C1114 C 0.07104 0.37401 0.33666 0.0
C1115 C 0.05742 0.36232 0.31875 0.0
C1116 C 0.06283 0.34138 0.36428 0.0
C1117 C 0.04532 0.34101 0.32495 0.0
C1118 C 0.06057 0.30393 0.38922 0.0
C1119 C 0.09498 0.32265 0.42038 0.0
N1120 N 0.04863 0.33105 0.34707 0.0
N1121 N 0.0857 0.33631 0.4022 0.0
H1122 H 0.87153 0.15283 0.42144 0.0
H1123 H 0.95492 0.14835 0.30389 0.0
H1124 H 0.91734 0.21059 0.39667 0.0
H1125 H 0.90116 0.09447 0.32052 0.0
H1126 H 0.94783 0.16671 0.34318 0.0
H1127 H 0.8884 0.12681 0.38968 0.0
C1128 C 0.88543 0.15987 0.40967 0.0
C1129 C 0.8928 0.18397 0.41143 0.0
C1130 C 0.93777 0.1507 0.33833 0.0
C1131 C 0.91211 0.15457 0.37538 0.0
C1132 C 0.94186 0.14017 0.31588 0.0
C1133 C 0.92829 0.12011 0.30862 0.0
C1134 C 0.91991 0.14121 0.35362 0.0
C1135 C 0.91178 0.11018 0.32513 0.0
C1136 C 0.89498 0.1451 0.39154 0.0
C1137 C 0.91084 0.19225 0.39577 0.0
N1138 N 0.90781 0.12102 0.34672 0.0
N1139 N 0.91972 0.17767 0.37834 0.0
H1140 H 0.11378 0.65755 0.05781 0.0
H1141 H 0.03475 0.65286 0.17812 0.0
H1142 H 0.06964 0.71561 0.08476 0.0
H1143 H 0.0879 0.59912 0.15927 0.0
H1144 H 0.03989 0.67105 0.13844 0.0
H1145 H 0.09723 0.63121 0.08945 0.0
C1146 C 0.10025 0.66457 0.07001 0.0
C1147 C 0.09335 0.68885 0.06897 0.0
C1148 C 0.05022 0.65509 0.14289 0.0
C1149 C 0.07444 0.65911 0.10492 0.0
C1150 C 0.04725 0.64466 0.16557 0.0
C1151 C 0.06129 0.62474 0.17231 0.0
C1152 C 0.06743 0.64563 0.12686 0.0
C1153 C 0.07701 0.61476 0.15508 0.0
C1154 C 0.09089 0.64962 0.08809 0.0
C1155 C 0.07578 0.69713 0.08516 0.0
N1156 N 0.07991 0.62552 0.13328 0.0
N1157 N 0.06712 0.68237 0.10256 0.0
H1158 H 0.90222 0.89819 0.17805 0.0
H1159 H 0.92474 0.7863 0.09292 0.0
H1160 H 0.9586 0.84542 0.18846 0.0
H1161 H 0.87056 0.83999 0.07786 0.0
H1162 H 0.94162 0.81202 0.12375 0.0
H1163 H 0.89451 0.88151 0.13813 0.0
C1164 C 0.91325 0.88331 0.17186 0.0
C1165 C 0.93082 0.87288 0.18692 0.0
C1166 C 0.92625 0.81847 0.11357 0.0
C1167 C 0.92196 0.85375 0.14113 0.0
C1168 C 0.91656 0.80373 0.09584 0.0
C1169 C 0.89605 0.81091 0.08295 0.0
C1170 C 0.91496 0.84039 0.11906 0.0
C1171 C 0.88639 0.83381 0.08747 0.0
C1172 C 0.90881 0.87384 0.14899 0.0
C1173 C 0.94465 0.85385 0.17771 0.0
N1174 N 0.89564 0.84761 0.10558 0.0
N1175 N 0.93971 0.84473 0.15556 0.0
H1176 H 0.30941 0.0335 0.33513 0.0
H1177 H 0.43173 0.10991 0.33436 0.0
H1178 H 0.33118 0.08087 0.39299 0.0
H1179 H 0.40292 0.07119 0.27338 0.0
H1180 H 0.39988 0.0923 0.35968 0.0
H1181 H 0.34859 0.03977 0.3161 0.0
C1182 C 0.32251 0.04493 0.34404 0.0
C1183 C 0.31674 0.05705 0.36545 0.0
C1184 C 0.40083 0.0874 0.34082 0.0
C1185 C 0.3616 0.06447 0.34364 0.0
C1186 C 0.41903 0.09737 0.32643 0.0
C1187 C 0.41969 0.09229 0.3017 0.0
C1188 C 0.38344 0.07217 0.33032 0.0
C1189 C 0.40285 0.07592 0.29229 0.0
C1190 C 0.34489 0.04856 0.33312 0.0
C1191 C 0.33461 0.07149 0.37624 0.0
N1192 N 0.38533 0.06663 0.30653 0.0
N1193 N 0.3561 0.07505 0.36506 0.0
H1194 H 0.56528 0.37979 0.34028 0.0
H1195 H 0.68601 0.45834 0.33943 0.0
H1196 H 0.5882 0.42566 0.28186 0.0
H1197 H 0.6678 0.40758 0.39561 0.0
H1198 H 0.64569 0.45313 0.32251 0.0
H1199 H 0.59813 0.39625 0.36515 0.0
C1200 C 0.57684 0.39369 0.33291 0.0
C1201 C 0.57432 0.40109 0.3089 0.0
C1202 C 0.65044 0.44334 0.33871 0.0
C1203 C 0.61175 0.41983 0.33692 0.0
C1204 C 0.67348 0.44635 0.3484 0.0
C1205 C 0.68054 0.43302 0.36868 0.0
C1206 C 0.63438 0.42679 0.3493 0.0
C1207 C 0.66336 0.41791 0.37966 0.0
C1208 C 0.59563 0.40299 0.347 0.0
C1209 C 0.58975 0.41911 0.30014 0.0
N1210 N 0.64122 0.41496 0.36964 0.0
N1211 N 0.60792 0.42767 0.31403 0.0
H1212 H 0.30248 0.95622 0.15888 0.0
H1213 H 0.42297 0.8767 0.16375 0.0
H1214 H 0.32479 0.90866 0.10141 0.0
H1215 H 0.39098 0.91312 0.22456 0.0
H1216 H 0.39214 0.89495 0.13754 0.0
H1217 H 0.34032 0.94782 0.17972 0.0
C1218 C 0.31546 0.94432 0.15043 0.0
C1219 C 0.31019 0.93279 0.12856 0.0
C1220 C 0.39215 0.89914 0.1566 0.0
C1221 C 0.35349 0.92289 0.15248 0.0
C1222 C 0.40973 0.88878 0.1715 0.0
C1223 C 0.40934 0.89317 0.19638 0.0
C1224 C 0.37434 0.91412 0.16672 0.0
C1225 C 0.39183 0.90898 0.20554 0.0
C1226 C 0.33705 0.93944 0.16241 0.0
C1227 C 0.32787 0.91765 0.11845 0.0
N1228 N 0.37501 0.91875 0.19076 0.0
N1229 N 0.34859 0.9129 0.13063 0.0
H1230 H 0.59144 0.56626 0.21239 0.0
H1231 H 0.6725 0.58742 0.09685 0.0
H1232 H 0.57259 0.61666 0.1563 0.0
H1233 H 0.68921 0.53672 0.15355 0.0
H1234 H 0.63264 0.59332 0.11434 0.0
H1235 H 0.62317 0.55011 0.18712 0.0
C1236 C 0.59376 0.57374 0.19455 0.0
C1237 C 0.57957 0.59307 0.18655 0.0
C1238 C 0.64488 0.58065 0.12276 0.0
C1239 C 0.61648 0.57494 0.15755 0.0
C1240 C 0.66773 0.57726 0.11282 0.0
C1241 C 0.6845 0.56186 0.12402 0.0
C1242 C 0.63873 0.56865 0.14411 0.0
C1243 C 0.67705 0.54898 0.14444 0.0
C1244 C 0.61197 0.56448 0.18009 0.0
C1245 C 0.58324 0.6018 0.16314 0.0
N1246 N 0.65485 0.55292 0.15399 0.0
N1247 N 0.60171 0.59296 0.14957 0.0
H1248 H 0.33058 0.434 0.11094 0.0
H1249 H 0.33482 0.31134 0.03565 0.0
H1250 H 0.27222 0.40632 0.0676 0.0
H1251 H 0.38924 0.33256 0.08721 0.0
H1252 H 0.31629 0.35106 0.03973 0.0
H1253 H 0.35677 0.40201 0.09497 0.0
C1254 C 0.32347 0.42156 0.09767 0.0
C1255 C 0.29915 0.42248 0.09088 0.0
C1256 C 0.33247 0.3471 0.04993 0.0
C1257 C 0.32871 0.38604 0.0727 0.0
C1258 C 0.34307 0.32441 0.04758 0.0
C1259 C 0.36332 0.31837 0.06149 0.0
C1260 C 0.34211 0.36384 0.06635 0.0
C1261 C 0.37335 0.33621 0.07647 0.0
C1262 C 0.33833 0.40326 0.08866 0.0
C1263 C 0.29076 0.40598 0.07366 0.0
N1264 N 0.36246 0.35801 0.07875 0.0
N1265 N 0.30542 0.38831 0.06536 0.0
H1266 H 0.33957 0.68503 0.46428 0.0
H1267 H 0.33783 0.5668 0.38172 0.0
H1268 H 0.39759 0.66521 0.41625 0.0
H1269 H 0.27664 0.59507 0.42052 0.0
H1270 H 0.36339 0.59753 0.40098 0.0
H1271 H 0.31997 0.64664 0.45552 0.0
C1272 C 0.34839 0.6725 0.45218 0.0
C1273 C 0.37004 0.67863 0.44064 0.0
C1274 C 0.34441 0.5967 0.40549 0.0
C1275 C 0.34755 0.63469 0.43034 0.0
C1276 C 0.32989 0.57916 0.39458 0.0
C1277 C 0.30506 0.57865 0.39927 0.0
C1278 C 0.33395 0.61356 0.4213 0.0
C1279 C 0.29562 0.59501 0.41608 0.0
C1280 C 0.33714 0.65059 0.44711 0.0
C1281 C 0.38069 0.66149 0.42526 0.0
N1282 N 0.31002 0.61187 0.42632 0.0
N1283 N 0.36918 0.64045 0.42032 0.0
H1284 H 0.65201 0.92476 0.37312 0.0
H1285 H 0.58784 0.82337 0.40919 0.0
H1286 H 0.70754 0.89748 0.4202 0.0
H1287 H 0.64954 0.80773 0.45405 0.0
H1288 H 0.60425 0.86296 0.40085 0.0
H1289 H 0.62398 0.89522 0.39001 0.0
C1290 C 0.65813 0.91284 0.38733 0.0
C1291 C 0.68224 0.91322 0.3949 0.0
C1292 C 0.61421 0.8512 0.41274 0.0
C1293 C 0.65055 0.8791 0.41427 0.0
C1294 C 0.60475 0.82839 0.41758 0.0
C1295 C 0.61761 0.81187 0.4319 0.0
C1296 C 0.63682 0.85755 0.42223 0.0
C1297 C 0.63913 0.81964 0.44261 0.0
C1298 C 0.64217 0.89576 0.39694 0.0
C1299 C 0.68929 0.89753 0.4134 0.0
N1300 N 0.64818 0.84174 0.43725 0.0
N1301 N 0.67364 0.88104 0.42223 0.0
H1302 H 0.0967 0.66626 0.57953 0.0
H1303 H 0.21906 0.59366 0.56803 0.0
H1304 H 0.15506 0.68595 0.53187 0.0
H1305 H 0.1596 0.56892 0.61161 0.0
H1306 H 0.19328 0.62417 0.55042 0.0
H1307 H 0.11654 0.62778 0.58724 0.0
C1308 C 0.11353 0.66241 0.5704 0.0
C1309 C 0.12445 0.67964 0.55534 0.0
C1310 C 0.18566 0.61196 0.56361 0.0
C1311 C 0.14726 0.63554 0.56424 0.0
C1312 C 0.20044 0.59446 0.57374 0.0
C1313 C 0.19154 0.57889 0.59155 0.0
C1314 C 0.16182 0.61436 0.57166 0.0
C1315 C 0.16717 0.58068 0.59799 0.0
C1316 C 0.12482 0.64036 0.57482 0.0
C1317 C 0.14607 0.67341 0.54382 0.0
N1318 N 0.1532 0.59845 0.58834 0.0
N1319 N 0.1569 0.65202 0.54877 0.0
H1320 H 0.90954 0.59525 0.66409 0.0
H1321 H 0.92318 0.71473 0.58742 0.0
H1322 H 0.95746 0.65387 0.68234 0.0
H1323 H 0.87816 0.65541 0.56506 0.0
H1324 H 0.9407 0.6896 0.61851 0.0
H1325 H 0.90265 0.61363 0.62477 0.0
C1326 C 0.91891 0.61182 0.65975 0.0
C1327 C 0.93377 0.62328 0.67682 0.0
C1328 C 0.92723 0.68185 0.60669 0.0
C1329 C 0.92581 0.64443 0.63172 0.0
C1330 C 0.91716 0.69625 0.58885 0.0
C1331 C 0.89893 0.68724 0.5738 0.0
C1332 C 0.91868 0.6583 0.60999 0.0
C1333 C 0.8921 0.66306 0.57638 0.0
C1334 C 0.91495 0.62227 0.63722 0.0
C1335 C 0.94565 0.64451 0.66995 0.0
N1336 N 0.90167 0.64949 0.5945 0.0
N1337 N 0.94113 0.65455 0.64808 0.0
H1338 H 0.08416 0.89561 0.66497 0.0
H1339 H 0.06976 0.77459 0.59094 0.0
H1340 H 0.03578 0.83777 0.68448 0.0
H1341 H 0.11498 0.83328 0.56736 0.0
H1342 H 0.05228 0.80051 0.62144 0.0
H1343 H 0.09079 0.87638 0.62603 0.0
C1344 C 0.07464 0.87903 0.66098 0.0
C1345 C 0.05974 0.86804 0.6783 0.0
C1346 C 0.06579 0.80794 0.60947 0.0
C1347 C 0.06739 0.84592 0.63365 0.0
C1348 C 0.07583 0.79309 0.59199 0.0
C1349 C 0.09411 0.80171 0.57681 0.0
C1350 C 0.07442 0.83153 0.61224 0.0
C1351 C 0.10101 0.82593 0.57883 0.0
C1352 C 0.07844 0.86809 0.63867 0.0
C1353 C 0.04765 0.84678 0.67188 0.0
N1354 N 0.09146 0.83993 0.5966 0.0
N1355 N 0.05203 0.83625 0.65022 0.0
H1356 H 0.95923 0.34231 0.80395 0.0
H1357 H 0.87263 0.33407 0.91905 0.0
H1358 H 0.9036 0.39467 0.81924 0.0
H1359 H 0.91764 0.27672 0.89198 0.0
H1360 H 0.89015 0.36117 0.88846 0.0
H1361 H 0.95099 0.32312 0.84259 0.0
C1362 C 0.94549 0.34997 0.81551 0.0
C1363 C 0.93176 0.36984 0.80804 0.0
C1364 C 0.89639 0.34271 0.88961 0.0
C1365 C 0.92205 0.34777 0.85227 0.0
C1366 C 0.88647 0.32733 0.90705 0.0
C1367 C 0.89347 0.30305 0.90786 0.0
C1368 C 0.9136 0.33367 0.87328 0.0
C1369 C 0.91143 0.29515 0.89191 0.0
C1370 C 0.94075 0.33898 0.83759 0.0
C1371 C 0.91439 0.37913 0.82404 0.0
N1372 N 0.92075 0.31034 0.87528 0.0
N1373 N 0.90978 0.36781 0.84525 0.0
H1374 H 0.03043 0.15764 0.8 0.0
H1375 H 0.11101 0.15929 0.91974 0.0
H1376 H 0.07549 0.09805 0.82207 0.0
H1377 H 0.07963 0.22181 0.88566 0.0
H1378 H 0.09046 0.13365 0.88985 0.0
H1379 H 0.03987 0.17801 0.83783 0.0
C1380 C 0.04194 0.14862 0.81294 0.0
C1381 C 0.0526 0.12634 0.80757 0.0
C1382 C 0.08788 0.15299 0.88924 0.0
C1383 C 0.0637 0.14969 0.8508 0.0
C1384 C 0.09957 0.16757 0.90625 0.0
C1385 C 0.09726 0.19271 0.905 0.0
C1386 C 0.07363 0.16374 0.8712 0.0
C1387 C 0.08218 0.20256 0.88722 0.0
C1388 C 0.04743 0.16032 0.83451 0.0
C1389 C 0.06724 0.11546 0.82521 0.0
N1390 N 0.07107 0.18809 0.87101 0.0
N1391 N 0.07265 0.1274 0.84589 0.0
H1392 H 0.56325 0.88029 0.65593 0.0
H1393 H 0.68302 0.96015 0.65035 0.0
H1394 H 0.59054 0.92443 0.71382 0.0
H1395 H 0.66388 0.9072 0.59654 0.0
H1396 H 0.64343 0.95485 0.66875 0.0
H1397 H 0.59436 0.89731 0.62925 0.0
C1398 C 0.5754 0.89392 0.66285 0.0
C1399 C 0.57464 0.90067 0.68718 0.0
C1400 C 0.64779 0.94461 0.65272 0.0
C1401 C 0.60998 0.92013 0.65704 0.0
C1402 C 0.67041 0.94767 0.64217 0.0
C1403 C 0.67707 0.9337 0.62218 0.0
C1404 C 0.63174 0.92737 0.64334 0.0
C1405 C 0.65976 0.91803 0.61223 0.0
C1406 C 0.59318 0.90355 0.6477 0.0
C1407 C 0.59075 0.91838 0.6953 0.0
N1408 N 0.63804 0.91501 0.62313 0.0
N1409 N 0.60786 0.92731 0.68036 0.0
H1410 H 0.39704 0.57351 0.71589 0.0
H1411 H 0.32709 0.57842 0.59178 0.0
H1412 H 0.42378 0.61288 0.65441 0.0
H1413 H 0.30654 0.53316 0.6517 0.0
H1414 H 0.36528 0.58698 0.61185 0.0
H1415 H 0.36698 0.55456 0.69053 0.0
C1416 C 0.39676 0.57802 0.69693 0.0
C1417 C 0.41279 0.59504 0.68731 0.0
C1418 C 0.35259 0.57487 0.62042 0.0
C1419 C 0.37786 0.57356 0.65803 0.0
C1420 C 0.33072 0.56996 0.60899 0.0
C1421 C 0.3133 0.55538 0.62028 0.0
C1422 C 0.35704 0.56529 0.64339 0.0
C1423 C 0.31924 0.54469 0.6424 0.0
C1424 C 0.37953 0.5671 0.68239 0.0
C1425 C 0.41165 0.59993 0.66254 0.0
N1426 N 0.34044 0.55016 0.65338 0.0
N1427 N 0.39415 0.58953 0.64878 0.0
H1428 H 0.67325 0.08507 0.89614 0.0
H1429 H 0.59499 0.0712 0.77784 0.0
H1430 H 0.68774 0.0333 0.83982 0.0
H1431 H 0.57436 0.11835 0.83608 0.0
H1432 H 0.62562 0.05336 0.80321 0.0
H1433 H 0.63429 0.09371 0.87764 0.0
C1434 C 0.66815 0.07524 0.88006 0.0
C1435 C 0.68408 0.05871 0.86927 0.0
C1436 C 0.61429 0.06739 0.81069 0.0
C1437 C 0.63941 0.06865 0.84801 0.0
C1438 C 0.5967 0.07766 0.79613 0.0
C1439 C 0.58224 0.09651 0.80477 0.0
C1440 C 0.61797 0.07637 0.834 0.0
C1441 C 0.58522 0.1039 0.82874 0.0
C1442 C 0.64583 0.0802 0.86955 0.0
C1443 C 0.67626 0.04638 0.84865 0.0
N1444 N 0.60311 0.0941 0.84245 0.0
N1445 N 0.65464 0.05184 0.83854 0.0
H1446 H 0.31195 0.46556 0.83796 0.0
H1447 H 0.4297 0.38229 0.83378 0.0
H1448 H 0.33104 0.4154 0.8944 0.0
H1449 H 0.40037 0.42188 0.77361 0.0
H1450 H 0.39944 0.40136 0.86009 0.0
H1451 H 0.35049 0.45735 0.81845 0.0
C1452 C 0.32436 0.45312 0.84649 0.0
C1453 C 0.31795 0.44078 0.86759 0.0
C1454 C 0.39997 0.4061 0.84117 0.0
C1455 C 0.36205 0.43106 0.84516 0.0
C1456 C 0.41723 0.39528 0.82622 0.0
C1457 C 0.4173 0.40025 0.80144 0.0
C1458 C 0.38299 0.42212 0.83119 0.0
C1459 C 0.4008 0.41722 0.79251 0.0
C1460 C 0.34636 0.44836 0.83528 0.0
C1461 C 0.33498 0.42502 0.87789 0.0
N1462 N 0.38426 0.42739 0.80731 0.0
N1463 N 0.3561 0.42034 0.86639 0.0
H1464 H 0.65388 0.68718 0.96111 0.0
H1465 H 0.65536 0.56814 0.87974 0.0
H1466 H 0.59698 0.66851 0.91127 0.0
H1467 H 0.71607 0.59643 0.91934 0.0
H1468 H 0.62967 0.59922 0.89837 0.0
H1469 H 0.67243 0.64799 0.95371 0.0
C1470 C 0.64506 0.67474 0.94891 0.0
C1471 C 0.62413 0.68143 0.93639 0.0
C1472 C 0.64857 0.59827 0.90322 0.0
C1473 C 0.64543 0.6366 0.92763 0.0
C1474 C 0.66316 0.58054 0.89266 0.0
C1475 C 0.68793 0.57995 0.89773 0.0
C1476 C 0.65889 0.61517 0.91909 0.0
C1477 C 0.69717 0.59639 0.91459 0.0
C1478 C 0.65571 0.65237 0.94462 0.0
C1479 C 0.6134 0.66436 0.92098 0.0
N1480 N 0.68272 0.61337 0.9245 0.0
N1481 N 0.62436 0.64288 0.91675 0.0
H1482 H 0.65116 0.30078 0.5314 0.0
H1483 H 0.6541 0.41923 0.61379 0.0
H1484 H 0.59315 0.32085 0.57934 0.0
H1485 H 0.7155 0.38771 0.57787 0.0
H1486 H 0.62809 0.38892 0.5943 0.0
H1487 H 0.67109 0.3389 0.5405 0.0
C1488 C 0.64239 0.31333 0.54352 0.0
C1489 C 0.62069 0.30731 0.55501 0.0
C1490 C 0.64724 0.38898 0.59049 0.0
C1491 C 0.64359 0.3509 0.56575 0.0
C1492 C 0.66203 0.40623 0.60158 0.0
C1493 C 0.68701 0.40582 0.59767 0.0
C1494 C 0.65761 0.37154 0.57525 0.0
C1495 C 0.69641 0.38864 0.58165 0.0
C1496 C 0.65384 0.33508 0.5488 0.0
C1497 C 0.6101 0.32449 0.57039 0.0
N1498 N 0.68175 0.37218 0.57117 0.0
N1499 N 0.62183 0.34535 0.5756 0.0
H1500 H 0.33326 0.06919 0.61286 0.0
H1501 H 0.33665 0.18798 0.53113 0.0
H1502 H 0.27286 0.0982 0.57329 0.0
H1503 H 0.39368 0.16809 0.58035 0.0
H1504 H 0.31705 0.14945 0.53916 0.0
H1505 H 0.3593 0.09999 0.59431 0.0
C1506 C 0.32559 0.08172 0.6 0.0
C1507 C 0.30083 0.08138 0.59487 0.0
C1508 C 0.33401 0.15341 0.54799 0.0
C1509 C 0.33027 0.11632 0.57361 0.0
C1510 C 0.34526 0.17541 0.54335 0.0
C1511 C 0.3666 0.18157 0.55545 0.0
C1512 C 0.34409 0.13746 0.56493 0.0
C1513 C 0.37701 0.16435 0.57092 0.0
C1514 C 0.34039 0.09929 0.58948 0.0
C1515 C 0.29176 0.09797 0.57806 0.0
N1516 N 0.36548 0.14323 0.57548 0.0
N1517 N 0.30641 0.11482 0.5682 0.0
H1518 H 0.77516 0.39317 0.41936 0.0
H1519 H 0.89593 0.31856 0.40896 0.0
H1520 H 0.83509 0.41727 0.37608 0.0
H1521 H 0.83818 0.30189 0.45846 0.0
H1522 H 0.87699 0.35736 0.40058 0.0
H1523 H 0.80058 0.36291 0.43758 0.0
C1524 C 0.79381 0.39231 0.41381 0.0
C1525 C 0.80292 0.40768 0.39594 0.0
C1526 C 0.86869 0.34539 0.41356 0.0
C1527 C 0.8323 0.3723 0.41655 0.0
C1528 C 0.87946 0.32316 0.41838 0.0
C1529 C 0.86838 0.30663 0.43412 0.0
C1530 C 0.8466 0.3511 0.42444 0.0
C1531 C 0.84725 0.31383 0.44598 0.0
C1532 C 0.80841 0.37492 0.42433 0.0
C1533 C 0.82735 0.4057 0.38974 0.0
N1534 N 0.8369 0.33535 0.44062 0.0
N1535 N 0.84115 0.38795 0.39973 0.0
H1536 H 0.53341 0.83929 0.80451 0.0
H1537 H 0.61675 0.83575 0.92246 0.0
H1538 H 0.5851 0.8949 0.82198 0.0
H1539 H 0.57599 0.7757 0.89447 0.0
H1540 H 0.59908 0.86149 0.89085 0.0
H1541 H 0.54222 0.81985 0.84295 0.0
C1542 C 0.54638 0.8476 0.81651 0.0
C1543 C 0.55883 0.86854 0.80974 0.0
C1544 C 0.59381 0.84273 0.89195 0.0
C1545 C 0.56916 0.84623 0.85376 0.0
C1546 C 0.60382 0.82811 0.90998 0.0
C1547 C 0.59805 0.80352 0.91091 0.0
C1548 C 0.57777 0.83262 0.87507 0.0
C1549 C 0.58122 0.79447 0.89432 0.0
C1550 C 0.55147 0.83645 0.83846 0.0
C1551 C 0.57531 0.87856 0.82623 0.0
N1552 N 0.57181 0.80895 0.87708 0.0
N1553 N 0.58022 0.86716 0.84735 0.0
H1554 H 0.46157 0.65724 0.8007 0.0
H1555 H 0.38153 0.6607 0.92053 0.0
H1556 H 0.41413 0.59943 0.82249 0.0
H1557 H 0.41961 0.72144 0.89037 0.0
H1558 H 0.40038 0.63461 0.89001 0.0
H1559 H 0.45388 0.67725 0.83909 0.0
C1560 C 0.44985 0.64854 0.81367 0.0
C1561 C 0.43809 0.62686 0.80809 0.0
C1562 C 0.40483 0.65361 0.89038 0.0
C1563 C 0.42899 0.64983 0.85201 0.0
C1564 C 0.39414 0.66844 0.9078 0.0
C1565 C 0.39874 0.69329 0.90772 0.0
C1566 C 0.42032 0.66379 0.87305 0.0
C1567 C 0.41524 0.70245 0.89089 0.0
C1568 C 0.44538 0.66003 0.83558 0.0
C1569 C 0.42325 0.61636 0.82578 0.0
N1570 N 0.42527 0.68776 0.87416 0.0
N1571 N 0.41885 0.62812 0.8468 0.0
H1572 H 0.58144 0.09443 0.66986 0.0
H1573 H 0.56696 0.21344 0.5924 0.0
H1574 H 0.53382 0.15327 0.68816 0.0
H1575 H 0.61252 0.15434 0.57055 0.0
H1576 H 0.54987 0.1885 0.62385 0.0
H1577 H 0.58824 0.11271 0.63049 0.0
C1578 C 0.57212 0.11103 0.66552 0.0
C1579 C 0.55735 0.12257 0.68262 0.0
C1580 C 0.56338 0.18076 0.61207 0.0
C1581 C 0.5652 0.14359 0.63745 0.0
C1582 C 0.5732 0.19505 0.59402 0.0
C1583 C 0.59144 0.18605 0.579 0.0
C1584 C 0.57217 0.15733 0.61559 0.0
C1585 C 0.59855 0.16197 0.58184 0.0
C1586 C 0.57603 0.12143 0.64297 0.0
C1587 C 0.54555 0.14385 0.67575 0.0
N1588 N 0.5892 0.14852 0.60015 0.0
N1589 N 0.55 0.15382 0.65384 0.0
H1590 H 0.46106 0.33793 0.68563 0.0
H1591 H 0.37901 0.33551 0.56695 0.0
H1592 H 0.41162 0.39494 0.66627 0.0
H1593 H 0.41938 0.27506 0.59467 0.0
H1594 H 0.3974 0.36116 0.59814 0.0
H1595 H 0.45288 0.31854 0.64701 0.0
C1596 C 0.44876 0.34657 0.67317 0.0
C1597 C 0.43667 0.36786 0.67947 0.0
C1598 C 0.40245 0.34234 0.59708 0.0
C1599 C 0.42705 0.34562 0.63527 0.0
C1600 C 0.39203 0.32777 0.57928 0.0
C1601 C 0.39742 0.30309 0.57847 0.0
C1602 C 0.41846 0.33208 0.61391 0.0
C1603 C 0.41441 0.29391 0.59482 0.0
C1604 C 0.44403 0.33544 0.65112 0.0
C1605 C 0.42105 0.3783 0.66241 0.0
N1606 N 0.42416 0.30833 0.61193 0.0
N1607 N 0.41645 0.36692 0.64123 0.0
H1608 H 0.92225 0.61528 0.83159 0.0
H1609 H 0.803 0.534 0.83614 0.0
H1610 H 0.89175 0.5767 0.77133 0.0
H1611 H 0.82319 0.58365 0.89264 0.0
H1612 H 0.84134 0.54211 0.81617 0.0
H1613 H 0.89143 0.59703 0.85785 0.0
C1614 C 0.90938 0.60272 0.82399 0.0
C1615 C 0.90937 0.59774 0.79921 0.0
C1616 C 0.83748 0.55102 0.8331 0.0
C1617 C 0.87444 0.57678 0.8289 0.0
C1618 C 0.8156 0.54632 0.84456 0.0
C1619 C 0.80959 0.55853 0.86585 0.0
C1620 C 0.85345 0.5681 0.84293 0.0
C1621 C 0.82683 0.57415 0.876 0.0
C1622 C 0.89181 0.59236 0.83891 0.0
C1623 C 0.89232 0.58132 0.79023 0.0
N1624 N 0.84784 0.57874 0.86429 0.0
N1625 N 0.87553 0.57157 0.80501 0.0
H1626 H 0.18731 0.96393 0.83775 0.0
H1627 H 0.06936 0.88076 0.8332 0.0
H1628 H 0.16666 0.91606 0.89559 0.0
H1629 H 0.10227 0.91568 0.77199 0.0
H1630 H 0.0991 0.90066 0.85955 0.0
H1631 H 0.14968 0.95427 0.81711 0.0
C1632 C 0.17472 0.95172 0.84634 0.0
C1633 C 0.18045 0.94041 0.8682 0.0
C1634 C 0.09948 0.90415 0.84035 0.0
C1635 C 0.13743 0.92904 0.8445 0.0
C1636 C 0.08255 0.89283 0.82537 0.0
C1637 C 0.08351 0.89635 0.80037 0.0
C1638 C 0.11715 0.91925 0.83016 0.0
C1639 C 0.10093 0.9122 0.79111 0.0
C1640 C 0.15326 0.94611 0.83448 0.0
C1641 C 0.16324 0.92488 0.87852 0.0
N1642 N 0.11706 0.92294 0.80595 0.0
N1643 N 0.14265 0.91938 0.86642 0.0
H1644 H 0.92328 0.37791 0.6544 0.0
H1645 H 0.80415 0.4587 0.65172 0.0
H1646 H 0.89928 0.42435 0.71192 0.0
H1647 H 0.82182 0.406 0.59719 0.0
H1648 H 0.84426 0.45338 0.669 0.0
H1649 H 0.89151 0.39486 0.62844 0.0
C1650 C 0.91172 0.39203 0.66136 0.0
C1651 C 0.91358 0.39944 0.68542 0.0
C1652 C 0.83945 0.44318 0.65306 0.0
C1653 C 0.87746 0.41878 0.65614 0.0
C1654 C 0.81653 0.44625 0.64317 0.0
C1655 C 0.80933 0.43238 0.6233 0.0
C1656 C 0.85526 0.42601 0.64315 0.0
C1657 C 0.82635 0.41675 0.61282 0.0
C1658 C 0.89356 0.40162 0.64663 0.0
C1659 C 0.89821 0.41777 0.69363 0.0
N1660 N 0.84838 0.41371 0.62309 0.0
N1661 N 0.88069 0.42661 0.67912 0.0
H1662 H 0.06438 0.11316 0.65392 0.0
H1663 H 0.18465 0.03346 0.65364 0.0
H1664 H 0.09198 0.07324 0.7147 0.0
H1665 H 0.1655 0.08261 0.59633 0.0
H1666 H 0.14537 0.04061 0.67206 0.0
H1667 H 0.09621 0.09524 0.62869 0.0
C1668 C 0.0768 0.10032 0.66182 0.0
C1669 C 0.07578 0.09494 0.68648 0.0
C1670 C 0.14966 0.04962 0.65529 0.0
C1671 C 0.11191 0.07444 0.65797 0.0
C1672 C 0.17211 0.04548 0.64472 0.0
C1673 C 0.17866 0.05782 0.62366 0.0
C1674 C 0.13367 0.06628 0.64481 0.0
C1675 C 0.16145 0.07302 0.61283 0.0
C1676 C 0.09497 0.09017 0.64749 0.0
C1677 C 0.09227 0.0782 0.69587 0.0
N1678 N 0.13989 0.07708 0.6237 0.0
N1679 N 0.1097 0.06871 0.68168 0.0
H1680 H 0.83202 0.91988 0.61115 0.0
H1681 H 0.83572 0.80077 0.52959 0.0
H1682 H 0.77017 0.8864 0.57779 0.0
H1683 H 0.89433 0.82242 0.57612 0.0
H1684 H 0.81475 0.83814 0.53955 0.0
H1685 H 0.85801 0.8896 0.59167 0.0
C1686 C 0.82396 0.90641 0.59953 0.0
C1687 C 0.7989 0.90552 0.59627 0.0
C1688 C 0.83235 0.83483 0.54735 0.0
C1689 C 0.8283 0.87124 0.57385 0.0
C1690 C 0.8444 0.81354 0.54155 0.0
C1691 C 0.86663 0.80819 0.55238 0.0
C1692 C 0.84256 0.8509 0.56408 0.0
C1693 C 0.87702 0.82557 0.56766 0.0
C1694 C 0.83875 0.88918 0.58845 0.0
C1695 C 0.78936 0.88773 0.58101 0.0
N1696 N 0.86476 0.84601 0.57331 0.0
N1697 N 0.80402 0.8713 0.57048 0.0
H1698 H 0.78275 0.08667 0.92319 0.0
H1699 H 0.89715 0.16869 0.90091 0.0
H1700 H 0.83699 0.06951 0.87025 0.0
H1701 H 0.84295 0.18234 0.95514 0.0
H1702 H 0.87976 0.12891 0.89411 0.0
H1703 H 0.80887 0.11732 0.93988 0.0
C1704 C 0.80038 0.08909 0.91526 0.0
C1705 C 0.8076 0.07569 0.89511 0.0
C1706 C 0.87191 0.14045 0.90775 0.0
C1707 C 0.83755 0.11154 0.91382 0.0
C1708 C 0.88179 0.16325 0.91166 0.0
C1709 C 0.87119 0.17917 0.92832 0.0
C1710 C 0.85124 0.13352 0.92052 0.0
C1711 C 0.85155 0.17089 0.94189 0.0
C1712 C 0.81534 0.10672 0.92484 0.0
C1713 C 0.83076 0.07954 0.88578 0.0
N1714 N 0.84204 0.14877 0.93744 0.0
N1715 N 0.8448 0.09753 0.89492 0.0
H1716 H 0.15987 0.30615 0.95359 0.0
H1717 H 0.16387 0.428 0.87653 0.0
H1718 H 0.10317 0.32829 0.90496 0.0
H1719 H 0.22403 0.39797 0.91569 0.0
H1720 H 0.13784 0.39644 0.89363 0.0
H1721 H 0.17976 0.34486 0.94712 0.0
C1722 C 0.15139 0.31925 0.94185 0.0
C1723 C 0.13006 0.31371 0.92943 0.0
C1724 C 0.15669 0.39704 0.8987 0.0
C1725 C 0.15287 0.358 0.92176 0.0
C1726 C 0.17149 0.41505 0.88899 0.0
C1727 C 0.19618 0.41536 0.89442 0.0
C1728 C 0.16673 0.37948 0.91402 0.0
C1729 C 0.20517 0.39822 0.91071 0.0
C1730 C 0.16281 0.34134 0.93808 0.0
C1731 C 0.11984 0.33156 0.91458 0.0
N1732 N 0.19052 0.38091 0.91977 0.0
N1733 N 0.1315 0.35277 0.91091 0.0
H1734 H 0.65241 0.18337 0.03849 0.0
H1735 H 0.65481 0.06331 0.1177 0.0
H1736 H 0.60044 0.16733 0.09424 0.0
H1737 H 0.70985 0.08473 0.06718 0.0
H1738 H 0.62924 0.09639 0.10282 0.0
H1739 H 0.6681 0.14245 0.04219 0.0
C1740 C 0.64408 0.1712 0.05129 0.0
C1741 C 0.62543 0.17904 0.06644 0.0
C1742 C 0.64675 0.09348 0.0947 0.0
C1743 C 0.64347 0.13218 0.07094 0.0
C1744 C 0.66124 0.07455 0.1031 0.0
C1745 C 0.68459 0.0716 0.09393 0.0
C1746 C 0.65578 0.10925 0.07697 0.0
C1747 C 0.69215 0.08663 0.07507 0.0
C1748 C 0.65306 0.1478 0.05342 0.0
C1749 C 0.61516 0.16228 0.08248 0.0
N1750 N 0.67792 0.10492 0.06741 0.0
N1751 N 0.62456 0.13977 0.08457 0.0
H1752 H 0.38348 0.16337 0.06941 0.0
H1753 H 0.46294 0.15896 0.18985 0.0
H1754 H 0.41155 0.22539 0.1071 0.0
H1755 H 0.41867 0.09953 0.16583 0.0
H1756 H 0.45299 0.18056 0.15285 0.0
H1757 H 0.40416 0.13716 0.09872 0.0
C1758 C 0.39421 0.17144 0.08359 0.0
C1759 C 0.39559 0.19657 0.08597 0.0
C1760 C 0.44572 0.16264 0.15556 0.0
C1761 C 0.4194 0.16696 0.11908 0.0
C1762 C 0.4515 0.15024 0.17664 0.0
C1763 C 0.44121 0.12761 0.18123 0.0
C1764 C 0.42956 0.15236 0.13895 0.0
C1765 C 0.42663 0.11717 0.16328 0.0
C1766 C 0.40597 0.15654 0.10026 0.0
C1767 C 0.40976 0.20615 0.10462 0.0
N1768 N 0.42096 0.12977 0.14307 0.0
N1769 N 0.42101 0.19136 0.12045 0.0
H1770 H 0.53145 0.33912 0.19447 0.0
H1771 H 0.61629 0.33483 0.07779 0.0
H1772 H 0.57789 0.39831 0.17425 0.0
H1773 H 0.58778 0.27302 0.11553 0.0
H1774 H 0.59494 0.3612 0.10656 0.0
H1775 H 0.54333 0.31803 0.15781 0.0
C1776 C 0.54378 0.34791 0.18215 0.0
C1777 C 0.5541 0.37029 0.18779 0.0
C1778 C 0.59323 0.34183 0.1082 0.0
C1779 C 0.56801 0.34607 0.14591 0.0
C1780 C 0.60541 0.32683 0.09188 0.0
C1781 C 0.60392 0.30169 0.09431 0.0
C1782 C 0.57925 0.33147 0.12665 0.0
C1783 C 0.58955 0.29223 0.11287 0.0
C1784 C 0.55067 0.33579 0.16127 0.0
C1785 C 0.56984 0.38085 0.1709 0.0
N1786 N 0.57783 0.30709 0.12824 0.0
N1787 N 0.57661 0.36848 0.15088 0.0
H1788 H 0.41118 0.89377 0.33189 0.0
H1789 H 0.4269 0.77344 0.40693 0.0
H1790 H 0.45915 0.83569 0.31212 0.0
H1791 H 0.38122 0.83195 0.43002 0.0
H1792 H 0.44408 0.79923 0.37609 0.0
H1793 H 0.40514 0.87488 0.37109 0.0
C1794 C 0.42073 0.87721 0.33587 0.0
C1795 C 0.43535 0.86605 0.31841 0.0
C1796 C 0.43054 0.80665 0.38804 0.0
C1797 C 0.42837 0.84432 0.36337 0.0
C1798 C 0.42069 0.79189 0.40571 0.0
C1799 C 0.40235 0.80049 0.42083 0.0
C1800 C 0.42166 0.83012 0.38502 0.0
C1801 C 0.39526 0.82463 0.41861 0.0
C1802 C 0.41726 0.86646 0.35833 0.0
C1803 C 0.44749 0.84482 0.32482 0.0
N1804 N 0.40461 0.83853 0.40066 0.0
N1805 N 0.44345 0.83448 0.34665 0.0
H1806 H 0.57105 0.71494 0.39419 0.0
H1807 H 0.58527 0.59378 0.32048 0.0
H1808 H 0.61853 0.65769 0.41696 0.0
H1809 H 0.53335 0.64946 0.30394 0.0
H1810 H 0.59391 0.61374 0.35869 0.0
H1811 H 0.55341 0.6884 0.36449 0.0
C1812 C 0.57764 0.69664 0.39314 0.0
C1813 C 0.5965 0.68861 0.40795 0.0
C1814 C 0.58036 0.62137 0.34688 0.0
C1815 C 0.57655 0.658 0.37329 0.0
C1816 C 0.57538 0.61 0.325 0.0
C1817 C 0.55884 0.62019 0.30868 0.0
C1818 C 0.56881 0.64314 0.35246 0.0
C1819 C 0.54645 0.64106 0.31573 0.0
C1820 C 0.56748 0.68141 0.37609 0.0
C1821 C 0.60407 0.66459 0.40581 0.0
N1822 N 0.55193 0.65199 0.33692 0.0
N1823 N 0.59434 0.65018 0.38843 0.0
H1824 H 0.16347 0.41562 0.09685 0.0
H1825 H 0.1056 0.40656 0.22618 0.0
H1826 H 0.18573 0.45936 0.1573 0.0
H1827 H 0.07017 0.37687 0.16359 0.0
H1828 H 0.13361 0.42756 0.20023 0.0
H1829 H 0.12768 0.40341 0.11938 0.0
C1830 C 0.16066 0.423 0.1147 0.0
C1831 C 0.17792 0.43823 0.12536 0.0
C1832 C 0.1196 0.4167 0.19203 0.0
C1833 C 0.13705 0.42409 0.15125 0.0
C1834 C 0.10355 0.40456 0.2069 0.0
C1835 C 0.0855 0.38982 0.19706 0.0
C1836 C 0.11809 0.41375 0.167 0.0
C1837 C 0.08388 0.38802 0.1719 0.0
C1838 C 0.14017 0.416 0.12752 0.0
C1839 C 0.17311 0.44742 0.1484 0.0
N1840 N 0.10023 0.3996 0.15767 0.0
N1841 N 0.15333 0.43989 0.1607 0.0
H1842 H 0.81902 0.07879 0.09229 0.0
H1843 H 0.89341 0.06725 0.21301 0.0
H1844 H 0.80367 0.02708 0.14846 0.0
H1845 H 0.91627 0.11306 0.15452 0.0
H1846 H 0.86396 0.04865 0.18687 0.0
H1847 H 0.8575 0.08776 0.11162 0.0
C1848 C 0.82385 0.06902 0.10849 0.0
C1849 C 0.80777 0.05246 0.11903 0.0
C1850 C 0.87553 0.06255 0.17951 0.0
C1851 C 0.85188 0.06281 0.14124 0.0
C1852 C 0.89244 0.07327 0.19452 0.0
C1853 C 0.90719 0.09195 0.18602 0.0
C1854 C 0.87276 0.07093 0.15586 0.0
C1855 C 0.90516 0.09876 0.16178 0.0
C1856 C 0.8459 0.07417 0.11948 0.0
C1857 C 0.81526 0.0402 0.13982 0.0
N1858 N 0.88786 0.08855 0.14759 0.0
N1859 N 0.83659 0.04588 0.1504 0.0
H1860 H 0.07222 0.61369 0.32743 0.0
H1861 H 0.19209 0.53342 0.33422 0.0
H1862 H 0.10628 0.5788 0.26685 0.0
H1863 H 0.16983 0.58167 0.39114 0.0
H1864 H 0.1547 0.54234 0.31283 0.0
H1865 H 0.10247 0.59517 0.35415 0.0
C1866 C 0.0858 0.60191 0.31982 0.0
C1867 C 0.08692 0.598 0.29488 0.0
C1868 C 0.15789 0.55076 0.33015 0.0
C1869 C 0.12118 0.57669 0.32512 0.0
C1870 C 0.17922 0.54559 0.34243 0.0
C1871 C 0.18439 0.55716 0.36431 0.0
C1872 C 0.1416 0.56763 0.33975 0.0
C1873 C 0.16683 0.57263 0.37412 0.0
C1874 C 0.10303 0.59139 0.33502 0.0
C1875 C 0.10484 0.58255 0.28591 0.0
N1876 N 0.14635 0.57766 0.36162 0.0
N1877 N 0.12127 0.57258 0.30097 0.0
H1878 H 0.80665 0.95616 0.34582 0.0
H1879 H 0.91811 0.86509 0.33892 0.0
H1880 H 0.81473 0.89464 0.3929 0.0
H1881 H 0.90324 0.92213 0.28827 0.0
H1882 H 0.88542 0.88056 0.36473 0.0
H1883 H 0.8471 0.94884 0.33031 0.0
C1884 C 0.81696 0.94123 0.35304 0.0
C1885 C 0.80705 0.92576 0.37037 0.0
C1886 C 0.88975 0.88994 0.34817 0.0
C1887 C 0.8534 0.91712 0.35255 0.0
C1888 C 0.90846 0.88121 0.33358 0.0
C1889 C 0.91315 0.89219 0.31133 0.0
C1890 C 0.87601 0.90982 0.34036 0.0
C1891 C 0.90008 0.9129 0.30508 0.0
C1892 C 0.84011 0.93705 0.3442 0.0
C1893 C 0.82148 0.90688 0.3793 0.0
N1894 N 0.88203 0.92089 0.31938 0.0
N1895 N 0.8438 0.90289 0.37004 0.0
H1896 H 0.09613 0.16252 0.41861 0.0
H1897 H 0.2245 0.10065 0.41626 0.0
H1898 H 0.15651 0.18607 0.46181 0.0
H1899 H 0.16224 0.06861 0.38231 0.0
H1900 H 0.19855 0.12963 0.43607 0.0
H1901 H 0.11822 0.12586 0.40848 0.0
C1902 C 0.1139 0.15985 0.42628 0.0
C1903 C 0.12465 0.17766 0.44077 0.0
C1904 C 0.19041 0.11615 0.42453 0.0
C1905 C 0.15007 0.13572 0.42904 0.0
C1906 C 0.20527 0.09955 0.4131 0.0
C1907 C 0.19554 0.08227 0.3974 0.0
C1908 C 0.16555 0.11592 0.41992 0.0
C1909 C 0.17046 0.08171 0.39421 0.0
C1910 C 0.12647 0.13885 0.42048 0.0
C1911 C 0.14756 0.17299 0.45041 0.0
N1912 N 0.15631 0.09858 0.4051 0.0
N1913 N 0.15963 0.15266 0.44407 0.0
H1914 H 0.15636 0.92302 0.11071 0.0
H1915 H 0.1547 0.80521 0.02734 0.0
H1916 H 0.21827 0.89272 0.07467 0.0
H1917 H 0.09655 0.82439 0.07546 0.0
H1918 H 0.17448 0.8433 0.03697 0.0
H1919 H 0.13081 0.89257 0.09091 0.0
C1920 C 0.16449 0.91027 0.09837 0.0
C1921 C 0.18949 0.91019 0.09457 0.0
C1922 C 0.15724 0.83928 0.04521 0.0
C1923 C 0.1606 0.87568 0.07184 0.0
C1924 C 0.14588 0.81755 0.03963 0.0
C1925 C 0.12415 0.81131 0.05096 0.0
C1926 C 0.14685 0.85489 0.06226 0.0
C1927 C 0.11351 0.82821 0.06661 0.0
C1928 C 0.14997 0.89291 0.08714 0.0
C1929 C 0.19915 0.89331 0.0784 0.0
N1930 N 0.12512 0.84909 0.07204 0.0
N1931 N 0.18475 0.87671 0.06777 0.0
H1932 H 0.89847 0.67683 0.09024 0.0
H1933 H 0.78116 0.59786 0.07318 0.0
H1934 H 0.84316 0.691 0.03723 0.0
H1935 H 0.83842 0.57722 0.12159 0.0
H1936 H 0.80682 0.62851 0.056 0.0
H1937 H 0.88024 0.63761 0.09816 0.0
C1938 C 0.88269 0.67161 0.07998 0.0
C1939 C 0.87207 0.68753 0.06332 0.0
C1940 C 0.81404 0.61718 0.07016 0.0
C1941 C 0.85113 0.64255 0.07243 0.0
C1942 C 0.7993 0.59955 0.08005 0.0
C1943 C 0.80756 0.58506 0.09904 0.0
C1944 C 0.83713 0.62095 0.0797 0.0
C1945 C 0.83137 0.58808 0.10699 0.0
C1946 C 0.87233 0.64913 0.08453 0.0
C1947 C 0.85184 0.67955 0.05043 0.0
N1948 N 0.84524 0.60607 0.09758 0.0
N1949 N 0.84188 0.65777 0.0555 0.0
H1950 H 0.27463 0.90351 0.92251 0.0
H1951 H 0.39541 0.82904 0.90669 0.0
H1952 H 0.3336 0.92796 0.87815 0.0
H1953 H 0.33717 0.80859 0.95417 0.0
H1954 H 0.37619 0.86811 0.90062 0.0
H1955 H 0.30021 0.87216 0.93897 0.0
C1956 C 0.29312 0.90247 0.91642 0.0
C1957 C 0.30192 0.91817 0.89868 0.0
C1958 C 0.3678 0.85521 0.91263 0.0
C1959 C 0.33135 0.88176 0.91719 0.0
C1960 C 0.37873 0.83283 0.9161 0.0
C1961 C 0.36766 0.81524 0.93064 0.0
C1962 C 0.34557 0.86005 0.92365 0.0
C1963 C 0.34625 0.8214 0.94259 0.0
C1964 C 0.30777 0.88449 0.92587 0.0
C1965 C 0.32613 0.91611 0.89172 0.0
N1966 N 0.33576 0.84316 0.93856 0.0
N1967 N 0.33994 0.89788 0.90069 0.0
H1968 H 0.02719 0.53834 0.28852 0.0
H1969 H 0.02691 0.44842 0.20139 0.0
H1970 H 0.00072 0.55868 0.21845 0.0
H1971 H -0.00132 0.42879 0.27095 0.0
H1972 H 0.0078 0.48784 0.20512 0.0
H1973 H 0.00729 0.49935 0.28435 0.0
C1974 C 0.01629 0.53486 0.27269 0.0
C1975 C 0.01584 0.55126 0.25359 0.0
C1976 C 0.00477 0.4746 0.21915 0.0
C1977 C 0.99418 0.50658 0.24811 0.0
C1978 C 0.01577 0.45216 0.217 0.0
C1979 C 0.01463 0.43582 0.23612 0.0
C1980 C 0.99389 0.48098 0.24112 0.0
C1981 C 9e-05 0.44126 0.256 0.0
C1982 C 0.00483 0.51267 0.27028 0.0
C1983 C 0.00159 0.54615 0.23339 0.0
N1984 N 0.99101 0.46386 0.25849 0.0
N1985 N 0.99204 0.52377 0.2307 0.0
H1986 H 0.97447 0.95829 0.29893 0.0
H1987 H 0.96676 0.0282 0.19938 0.0
H1988 H 0.00096 0.92617 0.23344 0.0
H1989 H -0.0024 0.0628 0.26167 0.0
H1990 H 0.98967 0.9919 0.20867 0.0
H1991 H 0.99422 -0.00404 0.28803 0.0
C1992 C 0.98542 0.95893 0.28277 0.0
C1993 C 0.98556 0.93958 0.26665 0.0
C1994 C 0.99237 0.00773 0.21978 0.0
C1995 C 0.00691 0.9827 0.2534 0.0
C1996 C 0.97914 0.02838 0.21449 0.0
C1997 C 0.9799 0.04804 0.23021 0.0
C1998 C 0.00514 0.00645 0.24165 0.0
C1999 C -0.0037 0.04766 0.24944 0.0
C2000 C -0.00321 0.9804 0.27651 0.0
C2001 C 9e-05 0.94105 0.24604 0.0
N2002 N 0.00757 0.02672 0.25529 0.0
N2003 N 0.00936 0.9627 0.23937 0.0
H2004 H 0.22332 0.99314 0.56167 0.0
H2005 H 0.27242 0.99378 0.43004 0.0
H2006 H 0.29349 0.01624 0.53774 0.0
H2007 H 0.20372 0.01976 0.45525 0.0
H2008 H 0.278 0.97246 0.46837 0.0
H2009 H 0.21718 0.97291 0.52289 0.0
C2010 C 0.23795 0.99277 0.54873 0.0
C2011 C 0.25861 0.00685 0.55227 0.0
C2012 C 0.26113 0.98169 0.46493 0.0
C2013 C 0.25182 0.98388 0.50852 0.0
C2014 C 0.25799 0.99393 0.4432 0.0
C2015 C 0.23795 0.00898 0.44013 0.0
C2016 C 0.24401 0.98466 0.48329 0.0
C2017 C 0.21968 0.00872 0.45744 0.0
C2018 C 0.23447 0.98118 0.52671 0.0
C2019 C 0.27709 0.00596 0.5352 0.0
N2020 N 0.22334 -0.00292 0.47859 0.0
N2021 N 0.27307 0.99506 0.51372 0.0
H2022 H 0.69535 0.46591 0.53495 0.0
H2023 H 0.79193 0.46789 0.45919 0.0
H2024 H 0.76026 0.4964 0.56479 0.0
H2025 H 0.72588 0.4957 0.42923 0.0
H2026 H 0.78286 0.48818 0.49708 0.0
H2027 H 0.70345 0.48665 0.49709 0.0
C2028 C 0.71077 0.47786 0.53377 0.0
C2029 C 0.72753 0.47907 0.55254 0.0
C2030 C 0.77083 0.49087 0.48192 0.0
C2031 C 0.73758 0.50171 0.5092 0.0
C2032 C 0.77601 0.47917 0.46036 0.0
C2033 C 0.75931 0.47979 0.44152 0.0
C2034 C 0.74818 0.50187 0.48489 0.0
C2035 C 0.73897 0.49461 0.44368 0.0
C2036 C 0.7154 0.48982 0.51221 0.0
C2037 C 0.74718 0.4948 0.55038 0.0
N2038 N 0.73337 0.50431 0.46545 0.0
N2039 N 0.75231 0.50476 0.52862 0.0
H2040 H 0.29336 0.98176 0.9579 0.0
H2041 H 0.19998 0.97077 0.03492 0.0
H2042 H 0.22483 0.00728 0.93178 0.0
H2043 H 0.26453 0.00152 0.06527 0.0
H2044 H 0.20593 0.99489 -0.00128 0.0
H2045 H 0.28547 0.00105 -0.0035 0.0
C2046 C 0.27713 0.99243 0.96003 0.0
C2047 C 0.25935 0.99242 0.94219 0.0
C2048 C 0.21831 -0.00274 0.01364 0.0
C2049 C 0.24952 0.01313 0.98644 0.0
C2050 C 0.21496 0.98331 0.03419 0.0
C2051 C 0.23221 0.98378 0.05252 0.0
C2052 C 0.23982 0.01045 0.01099 0.0
C2053 C 0.25116 0.00042 0.05108 0.0
C2054 C 0.27258 0.00354 0.98203 0.0
C2055 C 0.23869 0.00654 0.94552 0.0
N2056 N 0.25508 0.01246 0.03014 0.0
N2057 N 0.23377 0.01553 0.96774 0.0
H2058 H 0.7333 0.49422 0.06692 0.0
H2059 H 0.69934 0.51821 0.95788 0.0
H2060 H 0.79494 0.52725 0.0331 0.0
H2061 H 0.76796 0.49421 0.93065 0.0
H2062 H 0.70829 0.49902 -0.00368 0.0
H2063 H 0.72439 0.47307 0.02911 0.0
C2064 C 0.7456 0.49609 0.05187 0.0
C2065 C 0.76438 0.513 0.0526 0.0
C2066 C 0.72093 0.49672 0.98162 0.0
C2067 C 0.75436 0.48918 0.00985 0.0
C2068 C 0.71581 0.50784 0.95972 0.0
C2069 C 0.73319 0.50809 0.94151 0.0
C2070 C 0.7441 0.48714 0.98553 0.0
C2071 C 0.75429 0.49456 0.94458 0.0
C2072 C 0.74048 0.48407 0.03037 0.0
C2073 C 0.7799 0.5148 0.03285 0.0
N2074 N 0.7597 0.48551 0.96666 0.0
N2075 N 0.77427 0.50337 0.01202 0.0
H2076 H 0.43121 0.2772 0.00327 0.0
H2077 H 0.54114 0.2979 0.03895 0.0
H2078 H 0.45749 0.20906 0.02967 0.0
H2079 H 0.5648 0.23204 0.00534 0.0
H2080 H 0.5028 0.29457 0.01769 0.0
H2081 H 0.47126 0.2856 0.98638 0.0
C2082 C 0.4451 0.26351 0.00439 0.0
C2083 C 0.44157 0.24274 0.01831 0.0
C2084 C 0.51676 0.28144 0.01392 0.0
C2085 C 0.48678 0.25216 -0.00062 0.0
C2086 C 0.53852 0.28327 0.02628 0.0
C2087 C 0.55567 0.26495 0.02414 0.0
C2088 C 0.51185 0.26049 0.00052 0.0
C2089 C 0.55169 0.24633 0.00756 0.0
C2090 C 0.46786 0.26833 0.99482 0.0
C2091 C 0.45989 0.2255 0.01942 0.0
N2092 N 0.52967 0.24396 -0.00287 0.0
N2093 N 0.48198 0.2308 0.01045 0.0
H2094 H 0.56788 0.75671 0.50417 0.0
H2095 H 0.4586 0.78906 0.48808 0.0
H2096 H 0.53353 0.6963 0.46944 0.0
H2097 H 0.43331 0.71809 0.5066 0.0
H2098 H 0.49712 0.77995 0.50692 0.0
H2099 H 0.53154 0.76272 0.52864 0.0
C2100 C 0.55309 0.74405 0.5025 0.0
C2101 C 0.55306 0.72659 0.48421 0.0
C2102 C 0.48283 0.7667 0.50819 0.0
C2103 C 0.51193 0.7334 0.51175 0.0
C2104 C 0.46083 0.77197 0.49729 0.0
C2105 C 0.44324 0.75404 0.49538 0.0
C2106 C 0.4875 0.74292 0.5157 0.0
C2107 C 0.4468 0.73218 0.50746 0.0
C2108 C 0.53242 0.74751 0.51644 0.0
C2109 C 0.53375 0.71047 0.48285 0.0
N2110 N 0.46902 0.72675 0.5162 0.0
N2111 N 0.51367 0.71457 0.49612 0.0
H2112 H 0.06599 0.72564 0.48513 0.0
H2113 H 0.95733 0.69628 0.51036 0.0
H2114 H 0.03423 0.79042 0.51383 0.0
H2115 H 0.93125 0.76474 0.48474 0.0
H2116 H 0.99528 0.70325 0.48953 0.0
H2117 H 0.02822 0.71717 0.46366 0.0
C2118 C 0.05146 0.73868 0.48591 0.0
C2119 C 0.05263 0.75828 0.5018 0.0
C2120 C 0.98091 0.71628 0.48725 0.0
C2121 C 0.00985 0.74864 0.47785 0.0
C2122 C 0.95929 0.71229 0.49934 0.0
C2123 C 0.94162 0.73025 0.4996 0.0
C2124 C 0.9852 0.73896 0.47672 0.0
C2125 C 0.9448 0.75069 0.48516 0.0
C2126 C 0.02996 0.7338 0.47374 0.0
C2127 C 0.03357 0.77475 0.50221 0.0
N2128 N 0.9667 0.75504 0.47511 0.0
N2129 N 0.01267 0.76929 0.4908 0.0
H2130 H -0.001 0.43042 0.76767 0.0
H2131 H 0.0006 0.56472 0.72628 0.0
H2132 H 0.97918 0.45841 0.69804 0.0
H2133 H 0.97013 0.53542 0.79141 0.0
H2134 H 0.02246 0.52683 0.71997 0.0
H2135 H 0.01876 0.4688 0.77704 0.0
C2136 C 5e-05 0.44418 0.75385 0.0
C2137 C 0.98695 0.44185 0.73239 0.0
C2138 C 0.01208 0.52925 0.73633 0.0
C2139 C 0.00941 0.48517 0.74283 0.0
C2140 C -0.00047 0.55075 0.73989 0.0
C2141 C 0.98305 0.55258 0.75893 0.0
C2142 C 0.00805 0.50989 0.75207 0.0
C2143 C 0.98224 0.53422 0.77614 0.0
C2144 C 0.01136 0.46599 0.75918 0.0
C2145 C 0.98868 0.45998 0.71502 0.0
N2146 N 0.99424 0.51334 0.77207 0.0
N2147 N -0.0007 0.48121 0.72081 0.0
H2148 H 0.0123 0.03527 0.69606 0.0
H2149 H 0.02476 0.95864 0.79054 0.0
H2150 H 0.98787 0.0622 0.76459 0.0
H2151 H 0.99236 0.92777 0.72708 0.0
H2152 H 0.00127 0.99523 0.78428 0.0
H2153 H 0.99372 -0.00349 0.70504 0.0
C2154 C 0.00199 0.03327 0.71253 0.0
C2155 C 0.00207 0.05145 0.72994 0.0
C2156 C -0.0016 0.98012 0.77224 0.0
C2157 C 0.98216 0.00707 0.74097 0.0
C2158 C 0.01199 0.95934 0.77577 0.0
C2159 C 0.01086 0.9407 0.7589 0.0
C2160 C 0.98486 0.98262 0.75095 0.0
C2161 C 0.99394 0.94215 0.74019 0.0
C2162 C 0.9913 0.01117 0.7177 0.0
C2163 C 0.98848 0.04824 0.75096 0.0
N2164 N 0.98225 0.96327 0.73607 0.0
N2165 N 0.97989 0.02599 0.75645 0.0
H2166 H 0.76837 0.9935 0.42739 0.0
H2167 H 0.72862 -0.00209 0.56242 0.0
H2168 H 0.69809 0.97691 0.45594 0.0
H2169 H 0.7921 0.96412 0.53307 0.0
H2170 H 0.72267 0.01911 0.52411 0.0
H2171 H 0.77916 0.0123 0.46586 0.0
C2172 C 0.75476 0.99509 0.4413 0.0
C2173 C 0.7326 0.98317 0.43904 0.0
C2174 C 0.73863 0.00811 0.52658 0.0
C2175 C 0.74465 0.0046 0.48248 0.0
C2176 C 0.74199 -0.00404 0.54833 0.0
C2177 C 0.76042 0.97879 0.55034 0.0
C2178 C 0.75397 0.00304 0.50715 0.0
C2179 C 0.77732 0.97681 0.53178 0.0
C2180 C 0.76092 0.00584 0.46317 0.0
C2181 C 0.71555 0.98553 0.45741 0.0
N2182 N 0.77344 0.98848 0.51067 0.0
N2183 N 0.72211 0.99562 0.47868 0.0
H2184 H 0.29452 0.5136 0.45603 0.0
H2185 H 0.19944 0.51593 0.53172 0.0
H2186 H 0.22722 0.48812 0.42687 0.0
H2187 H 0.26523 0.48659 0.56075 0.0
H2188 H 0.20633 0.49371 0.49453 0.0
H2189 H 0.28648 0.4915 0.49307 0.0
C2190 C 0.27852 0.50244 0.45715 0.0
C2191 C 0.26113 0.50311 0.43894 0.0
C2192 C 0.21879 0.49113 0.50935 0.0
C2193 C 0.25109 0.47907 0.48149 0.0
C2194 C 0.21484 0.50396 0.53053 0.0
C2195 C 0.23222 0.50356 0.54875 0.0
C2196 C 0.24097 0.47929 0.50604 0.0
C2197 C 0.25174 0.48767 0.54667 0.0
C2198 C 0.27389 0.4897 0.47824 0.0
C2199 C 0.24076 0.48832 0.44094 0.0
N2200 N 0.25621 0.47688 0.52517 0.0
N2201 N 0.23573 0.47763 0.46237 0.0
H2202 H 0.72837 0.98764 0.92513 0.0
H2203 H 0.76343 0.98369 0.06122 0.0
H2204 H 0.79388 0.01333 0.95806 0.0
H2205 H 0.6963 0.00809 0.03068 0.0
H2206 H 0.77347 0.96448 0.02279 0.0
H2207 H 0.7189 0.96552 0.96219 0.0
C2208 C 0.74137 0.98754 0.93971 0.0
C2209 C 0.76151 0.0028 0.93911 0.0
C2210 C 0.75592 0.97279 0.02499 0.0
C2211 C 0.75104 0.97752 0.9809 0.0
C2212 C 0.75019 0.98378 0.04685 0.0
C2213 C 0.72941 -0.00196 0.04858 0.0
C2214 C 0.74062 0.97617 0.00514 0.0
C2215 C 0.7128 -0.0023 0.02963 0.0
C2216 C 0.736 0.97487 0.96075 0.0
C2217 C 0.77786 0.00217 0.95827 0.0
N2218 N 0.719 0.98736 0.00839 0.0
N2219 N 0.77204 0.99008 0.97868 0.0
H2220 H 0.19938 0.47805 0.95189 0.0
H2221 H 0.2176 0.50984 0.06008 0.0
H2222 H 0.26694 0.50884 0.92922 0.0
H2223 H 0.28735 0.48711 0.03467 0.0
H2224 H 0.21035 0.52973 0.02126 0.0
H2225 H 0.20152 0.5014 0.98891 0.0
C2226 C 0.21418 0.49057 0.95439 0.0
C2227 C 0.23334 0.49117 0.93808 0.0
C2228 C 0.22769 0.52138 0.02463 0.0
C2229 C 0.23656 0.51713 0.98064 0.0
C2230 C 0.23186 0.51013 0.04675 0.0
C2231 C 0.25271 0.49622 0.04992 0.0
C2232 C 0.24444 0.51819 0.00591 0.0
C2233 C 0.27075 0.49714 0.0324 0.0
C2234 C 0.21536 0.50416 0.97543 0.0
C2235 C 0.25207 0.50768 0.94181 0.0
N2236 N 0.26599 0.50749 0.01081 0.0
N2237 N 0.25378 0.5193 0.96328 0.0
H2238 H 0.42885 0.77304 0.99559 0.0
H2239 H 0.56247 0.7286 0.00027 0.0
H2240 H 0.45615 0.70373 0.97373 0.0
H2241 H 0.53644 0.7965 0.97303 0.0
H2242 H 0.52337 0.72192 0.01975 0.0
H2243 H 0.46698 0.78097 0.01655 0.0
C2244 C 0.44239 0.75897 -0.00363 0.0
C2245 C 0.43993 0.73801 0.98252 0.0
C2246 C 0.52674 0.73889 0.01069 0.0
C2247 C 0.48296 0.74681 0.00636 0.0
C2248 C 0.54896 0.74269 -0.00045 0.0
C2249 C 0.55213 0.76277 0.98457 0.0
C2250 C 0.50798 0.75539 0.00675 0.0
C2251 C 0.53426 0.78053 0.98405 0.0
C2252 C 0.46405 0.76349 0.00835 0.0
C2253 C 0.4578 0.72032 0.98389 0.0
N2254 N 0.51265 0.77621 0.9946 0.0
N2255 N 0.47888 0.72531 0.99522 0.0
H2256 H 0.45702 0.29246 0.51388 0.0
H2257 H 0.53029 0.19516 0.51567 0.0
H2258 H 0.42597 0.22642 0.48742 0.0
H2259 H 0.56126 0.2601 0.48651 0.0
H2260 H 0.49315 0.20342 0.49376 0.0
H2261 H 0.49407 0.28339 0.49215 0.0
C2262 C 0.45773 0.27654 0.50258 0.0
C2263 C 0.43894 0.25978 0.50287 0.0
C2264 C 0.50837 0.21538 0.49114 0.0
C2265 C 0.48146 0.24857 0.47922 0.0
C2266 C 0.52953 0.21064 0.50378 0.0
C2267 C 0.54834 0.22739 0.50334 0.0
C2268 C 0.50571 0.2377 0.47941 0.0
C2269 C 0.54676 0.24707 0.48759 0.0
C2270 C 0.47884 0.27134 0.49006 0.0
C2271 C 0.44046 0.2395 0.48791 0.0
N2272 N 0.52531 0.25231 0.47698 0.0
N2273 N 0.46186 0.23385 0.47744 0.0
H2274 H 0.95368 0.19061 0.47395 0.0
H2275 H 0.05969 0.21673 0.5095 0.0
H2276 H 0.92517 0.25596 0.50462 0.0
H2277 H 0.03004 0.28441 0.48566 0.0
H2278 H 0.02071 0.20657 0.52773 0.0
H2279 H 0.99009 0.1956 0.4979 0.0
C2280 C 0.95478 0.20549 0.48656 0.0
C2281 C 0.93693 0.22326 0.48697 0.0
C2282 C 0.02312 0.22414 0.51955 0.0
C2283 C 0.97874 0.22972 0.51366 0.0
C2284 C 0.04534 0.22999 0.50926 0.0
C2285 C 0.04752 0.25102 0.49546 0.0
C2286 C 0.00333 0.23944 0.51558 0.0
C2287 C 0.02864 0.2677 0.49565 0.0
C2288 C 0.97548 0.20829 0.50047 0.0
C2289 C 0.93892 0.24214 0.50361 0.0
N2290 N 0.00703 0.26131 0.50508 0.0
N2291 N 0.96002 0.24551 0.51557 0.0
H2292 H 0.48957 0.06572 0.7321 0.0
H2293 H 0.49097 0.93096 0.77166 0.0
H2294 H 0.51902 0.03578 0.79742 0.0
H2295 H 0.51071 0.96019 0.70252 0.0
H2296 H 0.47117 0.96916 0.78169 0.0
H2297 H 0.46754 0.02804 0.72524 0.0
C2298 C 0.49033 0.05168 0.74566 0.0
C2299 C 0.50662 0.05325 0.7649 0.0
C2300 C 0.47859 0.96667 0.7638 0.0
C2301 C 0.48152 0.01074 0.75736 0.0
C2302 C 0.48993 0.94498 0.75809 0.0
C2303 C 0.50299 0.94301 0.73658 0.0
C2304 C 0.48045 0.98613 0.74776 0.0
C2305 C 0.50125 0.96146 0.71954 0.0
C2306 C 0.47771 0.03028 0.74177 0.0
C2307 C 0.50706 0.03479 0.78202 0.0
N2308 N 0.49058 0.98257 0.72569 0.0
N2309 N 0.49503 0.01398 0.7776 0.0
H2310 H 0.50402 0.5649 0.76238 0.0
H2311 H 0.50285 0.43095 0.71991 0.0
H2312 H 0.47696 0.53685 0.69524 0.0
H2313 H 0.48086 0.45889 0.78889 0.0
H2314 H 0.52319 0.46924 0.71134 0.0
H2315 H 0.52529 0.52677 0.76928 0.0
C2316 C 0.50368 0.55118 0.74849 0.0
C2317 C 0.48826 0.55341 0.72861 0.0
C2318 C 0.51512 0.46644 0.7289 0.0
C2319 C 0.51245 0.5104 0.73623 0.0
C2320 C 0.50347 0.4447 0.73376 0.0
C2321 C 0.4897 0.44236 0.75479 0.0
C2322 C 0.51285 0.48557 0.74528 0.0
C2323 C 0.4909 0.46047 0.77223 0.0
C2324 C 0.51585 0.52953 0.7524 0.0
C2325 C 0.48828 0.53534 0.71108 0.0
N2326 N 0.5019 0.48162 0.76689 0.0
N2327 N 0.49983 0.51427 0.71552 0.0
H2328 H 0.06584 0.26763 0.99454 0.0
H2329 H 0.95599 0.29504 0.96735 0.0
H2330 H 0.03535 0.20398 0.96211 0.0
H2331 H 0.93144 0.22627 0.99368 0.0
H2332 H 0.99439 0.28876 0.98772 0.0
H2333 H 0.02739 0.27495 0.01523 0.0
C2334 C 0.0514 0.2546 0.99272 0.0
C2335 C 0.05317 0.23566 0.9761 0.0
C2336 C 0.98024 0.27552 0.99021 0.0
C2337 C 0.00979 0.24383 -0.00058 0.0
C2338 C 0.95841 0.27909 0.97837 0.0
C2339 C 0.94105 0.26085 0.97847 0.0
C2340 C 0.98502 0.25299 0.00083 0.0
C2341 C 0.94477 0.24052 0.99297 0.0
C2342 C 0.02957 0.25879 0.0045 0.0
C2343 C 0.03423 0.21916 0.97433 0.0
N2344 N 0.96687 0.23658 0.00273 0.0
N2345 N 0.01306 0.22387 0.98553 0.0
H2346 H 0.50398 0.05852 0.21887 0.0
H2347 H 0.50089 0.92725 0.26981 0.0
H2348 H 0.48739 0.03752 0.29169 0.0
H2349 H 0.47122 0.95301 0.20283 0.0
H2350 H 0.52371 0.96497 0.27374 0.0
H2351 H 0.521 0.01842 0.21162 0.0
C2352 C 0.50528 0.04592 0.23374 0.0
C2353 C 0.49384 0.0508 0.25568 0.0
C2354 C 0.5132 0.96177 0.25759 0.0
C2355 C 0.51293 0.0054 0.24755 0.0
C2356 C 0.50014 0.94038 0.25537 0.0
C2357 C 0.48379 0.93762 0.23632 0.0
C2358 C 0.50985 0.98009 0.24048 0.0
C2359 C 0.48331 0.95493 0.21805 0.0
C2360 C 0.51495 0.02309 0.22959 0.0
C2361 C 0.49572 0.03404 0.27439 0.0
N2362 N 0.49586 0.97572 0.22077 0.0
N2363 N 0.50459 0.01174 0.26974 0.0
H2364 H 0.48188 0.42763 0.23264 0.0
H2365 H 0.51589 0.5306 0.1978 0.0
H2366 H 0.50937 0.46266 0.29624 0.0
H2367 H 0.48698 0.56439 0.2614 0.0
H2368 H 0.49182 0.49493 0.20621 0.0
H2369 H 0.46202 0.46531 0.22095 0.0
C2370 C 0.48262 0.44289 0.2448 0.0
C2371 C 0.49799 0.44261 0.26487 0.0
C2372 C 0.48964 0.51052 0.21777 0.0
C2373 C 0.47588 0.48531 0.25155 0.0
C2374 C 0.50363 0.5308 0.21301 0.0
C2375 C 0.50381 0.54995 0.22934 0.0
C2376 C 0.47708 0.509 0.23976 0.0
C2377 C 0.48757 0.5496 0.24868 0.0
C2378 C 0.47135 0.46436 0.23808 0.0
C2379 C 0.49826 0.4626 0.28018 0.0
N2380 N 0.47562 0.52892 0.25403 0.0
N2381 N 0.48784 0.48345 0.2729 0.0
H2382 H 0.03249 0.70234 0.00637 0.0
H2383 H 0.95934 0.79992 0.02195 0.0
H2384 H 0.06123 0.77083 0.98385 0.0
H2385 H 0.92596 0.7372 0.9906 0.0
H2386 H 0.99501 0.79283 -0.00265 0.0
H2387 H 0.9938 0.71308 0.98861 0.0
C2388 C 0.03089 0.71919 -0.00339 0.0
C2389 C 0.04961 0.73606 -0.00293 0.0
C2390 C 0.97955 0.78113 0.99496 0.0
C2391 C 0.00528 0.74908 0.97813 0.0
C2392 C 0.95927 0.78515 0.00916 0.0
C2393 C 0.94021 0.76868 0.00869 0.0
C2394 C 0.98116 0.75975 0.98145 0.0
C2395 C 0.94067 0.74999 0.99171 0.0
C2396 C 0.00881 0.72539 0.98641 0.0
C2397 C 0.04687 0.75759 0.98418 0.0
N2398 N 0.96134 0.74537 0.9794 0.0
N2399 N 0.02467 0.76403 0.97609 0.0
loop_
_geom_bond_atom_site_label_1
_geom_bond_atom_site_label_2
_geom_bond_distance
_geom_bond_site_symmetry_2
_ccdc_geom_bond_type
Co0 O1 2.216 . S
Co0 O2 2.091 . S
Co0 O4 2.004 . S
Co0 O10 2.021 . S
Co0 O12 2.137 . S
Co0 O13 2.244 . S
O1 Co0 2.216 . S
O1 C8 1.247 . S
O2 Co0 2.091 . S
O2 C8 1.261 . S
C3 O12 1.247 . S
C3 O13 1.272 . S
O4 Co0 2.004 . S
O4 C9 1.259 . S
Co5 O6 2.061 . S
Co5 O11 2.052 . S
Co5 O13 2.135 . S
O6 Co5 2.061 . S
O6 C9 1.235 . S
C7 O10 1.238 . S
C7 O11 1.241 . S
C8 O1 1.247 . S
C8 O2 1.261 . S
C9 O4 1.259 . S
C9 O6 1.235 . S
O10 Co0 2.021 . S
O10 C7 1.238 . S
O11 Co5 2.052 . S
O11 C7 1.241 . S
O12 Co0 2.137 . S
O12 C3 1.247 . S
O13 Co0 2.244 . S
O13 C3 1.272 . S
O13 Co5 2.135 . S
Co14 O15 2.216 . S
Co14 O16 2.091 . S
Co14 O18 2.004 . S
Co14 O24 2.021 . S
Co14 O26 2.137 . S
Co14 O27 2.244 . S
O15 Co14 2.216 . S
O15 C22 1.247 . S
O16 Co14 2.091 . S
O16 C22 1.261 . S
C17 O26 1.247 . S
C17 O27 1.272 . S
O18 Co14 2.004 . S
O18 C23 1.259 . S
Co19 O20 2.061 . S
Co19 O25 2.052 . S
Co19 O27 2.135 . S
O20 Co19 2.061 . S
O20 C23 1.235 . S
C21 O24 1.238 . S
C21 O25 1.241 . S
C22 O15 1.247 . S
C22 O16 1.261 . S
C23 O18 1.259 . S
C23 O20 1.235 . S
O24 Co14 2.021 . S
O24 C21 1.238 . S
O25 Co19 2.052 . S
O25 C21 1.241 . S
O26 Co14 2.137 . S
O26 C17 1.247 . S
O27 Co14 2.244 . S
O27 C17 1.272 . S
O27 Co19 2.135 . S
Co28 O29 2.216 . S
Co28 O30 2.091 . S
Co28 O32 2.004 . S
Co28 O38 2.021 . S
Co28 O40 2.137 . S
Co28 O41 2.244 . S
O29 Co28 2.216 . S
O29 C36 1.247 . S
O30 Co28 2.091 . S
O30 C36 1.261 . S
C31 O40 1.247 . S
C31 O41 1.272 . S
O32 Co28 2.004 . S
O32 C37 1.259 . S
Co33 O34 2.061 . S
Co33 O39 2.052 . S
Co33 O41 2.135 . S
O34 Co33 2.061 . S
O34 C37 1.235 . S
C35 O38 1.238 . S
C35 O39 1.241 . S
C36 O29 1.247 . S
C36 O30 1.261 . S
C37 O32 1.259 . S
C37 O34 1.235 . S
O38 Co28 2.021 . S
O38 C35 1.238 . S
O39 Co33 2.052 . S
O39 C35 1.241 . S
O40 Co28 2.137 . S
O40 C31 1.247 . S
O41 Co28 2.244 . S
O41 C31 1.272 . S
O41 Co33 2.135 . S
Co42 O43 2.216 . S
Co42 O44 2.091 . S
Co42 O46 2.004 . S
Co42 O52 2.021 . S
Co42 O54 2.137 . S
Co42 O55 2.244 . S
O43 Co42 2.216 . S
O43 C50 1.247 . S
O44 Co42 2.091 . S
O44 C50 1.261 . S
C45 O54 1.247 . S
C45 O55 1.272 . S
O46 Co42 2.004 . S
O46 C51 1.259 . S
Co47 O48 2.061 . S
Co47 O53 2.052 . S
Co47 O55 2.135 . S
O48 Co47 2.061 . S
O48 C51 1.235 . S
C49 O52 1.238 . S
C49 O53 1.241 . S
C50 O43 1.247 . S
C50 O44 1.261 . S
C51 O46 1.259 . S
C51 O48 1.235 . S
O52 Co42 2.021 . S
O52 C49 1.238 . S
O53 Co47 2.052 . S
O53 C49 1.241 . S
O54 Co42 2.137 . S
O54 C45 1.247 . S
O55 Co42 2.244 . S
O55 C45 1.272 . S
O55 Co47 2.135 . S
Co56 O57 2.216 . S
Co56 O58 2.091 . S
Co56 O60 2.004 . S
Co56 O66 2.021 . S
Co56 O68 2.137 . S
Co56 O69 2.244 . S
O57 Co56 2.216 . S
O57 C64 1.247 . S
O58 Co56 2.091 . S
O58 C64 1.261 . S
C59 O68 1.247 . S
C59 O69 1.272 . S
O60 Co56 2.004 . S
O60 C65 1.259 . S
Co61 O62 2.061 . S
Co61 O67 2.052 . S
Co61 O69 2.135 . S
O62 Co61 2.061 . S
O62 C65 1.235 . S
C63 O66 1.238 . S
C63 O67 1.241 . S
C64 O57 1.247 . S
C64 O58 1.261 . S
C65 O60 1.259 . S
C65 O62 1.235 . S
O66 Co56 2.021 . S
O66 C63 1.238 . S
O67 Co61 2.052 . S
O67 C63 1.241 . S
O68 Co56 2.137 . S
O68 C59 1.247 . S
O69 Co56 2.244 . S
O69 C59 1.272 . S
O69 Co61 2.135 . S
Co70 O71 2.216 . S
Co70 O72 2.091 . S
Co70 O74 2.004 . S
Co70 O80 2.021 . S
Co70 O82 2.137 . S
Co70 O83 2.244 . S
O71 Co70 2.216 . S
O71 C78 1.247 . S
O72 Co70 2.091 . S
O72 C78 1.261 . S
C73 O82 1.247 . S
C73 O83 1.272 . S
O74 Co70 2.004 . S
O74 C79 1.259 . S
Co75 O76 2.061 . S
Co75 O81 2.052 . S
Co75 O83 2.135 . S
O76 Co75 2.061 . S
O76 C79 1.235 . S
C77 O80 1.238 . S
C77 O81 1.241 . S
C78 O71 1.247 . S
C78 O72 1.261 . S
C79 O74 1.259 . S
C79 O76 1.235 . S
O80 Co70 2.021 . S
O80 C77 1.238 . S
O81 Co75 2.052 . S
O81 C77 1.241 . S
O82 Co70 2.137 . S
O82 C73 1.247 . S
O83 Co70 2.244 . S
O83 C73 1.272 . S
O83 Co75 2.135 . S
Co84 O85 2.216 . S
Co84 O86 2.091 . S
Co84 O88 2.004 . S
Co84 O94 2.021 . S
Co84 O96 2.137 . S
Co84 O97 2.244 . S
O85 Co84 2.216 . S
O85 C92 1.247 . S
O86 Co84 2.091 . S
O86 C92 1.261 . S
C87 O96 1.247 . S
C87 O97 1.272 . S
O88 Co84 2.004 . S
O88 C93 1.259 . S
Co89 O90 2.061 . S
Co89 O95 2.052 . S
Co89 O97 2.135 . S
O90 Co89 2.061 . S
O90 C93 1.235 . S
C91 O94 1.238 . S
C91 O95 1.241 . S
C92 O85 1.247 . S
C92 O86 1.261 . S
C93 O88 1.259 . S
C93 O90 1.235 . S
O94 Co84 2.021 . S
O94 C91 1.238 . S
O95 Co89 2.052 . S
O95 C91 1.241 . S
O96 Co84 2.137 . S
O96 C87 1.247 . S
O97 Co84 2.244 . S
O97 C87 1.272 . S
O97 Co89 2.135 . S
Co98 O99 2.216 . S
Co98 O100 2.091 . S
Co98 O102 2.004 . S
Co98 O108 2.021 . S
Co98 O110 2.137 . S
Co98 O111 2.244 . S
O99 Co98 2.216 . S
O99 C106 1.247 . S
O100 Co98 2.091 . S
O100 C106 1.261 . S
C101 O110 1.247 . S
C101 O111 1.272 . S
O102 Co98 2.004 . S
O102 C107 1.259 . S
Co103 O104 2.061 . S
Co103 O109 2.052 . S
Co103 O111 2.135 . S
O104 Co103 2.061 . S
O104 C107 1.235 . S
C105 O108 1.238 . S
C105 O109 1.241 . S
C106 O99 1.247 . S
C106 O100 1.261 . S
C107 O102 1.259 . S
C107 O104 1.235 . S
O108 Co98 2.021 . S
O108 C105 1.238 . S
O109 Co103 2.052 . S
O109 C105 1.241 . S
O110 Co98 2.137 . S
O110 C101 1.247 . S
O111 Co98 2.244 . S
O111 C101 1.272 . S
O111 Co103 2.135 . S
Co112 O113 2.216 . S
Co112 O114 2.091 . S
Co112 O116 2.004 . S
Co112 O122 2.021 . S
Co112 O124 2.137 . S
Co112 O125 2.244 . S
O113 Co112 2.216 . S
O113 C120 1.247 . S
O114 Co112 2.091 . S
O114 C120 1.261 . S
C115 O124 1.247 . S
C115 O125 1.272 . S
O116 Co112 2.004 . S
O116 C121 1.259 . S
Co117 O118 2.061 . S
Co117 O123 2.052 . S
Co117 O125 2.135 . S
O118 Co117 2.061 . S
O118 C121 1.235 . S
C119 O122 1.238 . S
C119 O123 1.241 . S
C120 O113 1.247 . S
C120 O114 1.261 . S
C121 O116 1.259 . S
C121 O118 1.235 . S
O122 Co112 2.021 . S
O122 C119 1.238 . S
O123 Co117 2.052 . S
O123 C119 1.241 . S
O124 Co112 2.137 . S
O124 C115 1.247 . S
O125 Co112 2.244 . S
O125 C115 1.272 . S
O125 Co117 2.135 . S
Co126 O127 2.216 . S
Co126 O128 2.091 . S
Co126 O130 2.004 . S
Co126 O136 2.021 . S
Co126 O138 2.137 . S
Co126 O139 2.244 . S
O127 Co126 2.216 . S
O127 C134 1.247 . S
O128 Co126 2.091 . S
O128 C134 1.261 . S
C129 O138 1.247 . S
C129 O139 1.272 . S
O130 Co126 2.004 . S
O130 C135 1.259 . S
Co131 O132 2.061 . S
Co131 O137 2.052 . S
Co131 O139 2.135 . S
O132 Co131 2.061 . S
O132 C135 1.235 . S
C133 O136 1.238 . S
C133 O137 1.241 . S
C134 O127 1.247 . S
C134 O128 1.261 . S
C135 O130 1.259 . S
C135 O132 1.235 . S
O136 Co126 2.021 . S
O136 C133 1.238 . S
O137 Co131 2.052 . S
O137 C133 1.241 . S
O138 Co126 2.137 . S
O138 C129 1.247 . S
O139 Co126 2.244 . S
O139 C129 1.272 . S
O139 Co131 2.135 . S
Co140 O141 2.216 . S
Co140 O142 2.091 . S
Co140 O144 2.004 . S
Co140 O150 2.021 . S
Co140 O152 2.137 . S
Co140 O153 2.244 . S
O141 Co140 2.216 . S
O141 C148 1.247 . S
O142 Co140 2.091 . S
O142 C148 1.261 . S
C143 O152 1.247 . S
C143 O153 1.272 . S
O144 Co140 2.004 . S
O144 C149 1.259 . S
Co145 O146 2.061 . S
Co145 O151 2.052 . S
Co145 O153 2.135 . S
O146 Co145 2.061 . S
O146 C149 1.235 . S
C147 O150 1.238 . S
C147 O151 1.241 . S
C148 O141 1.247 . S
C148 O142 1.261 . S
C149 O144 1.259 . S
C149 O146 1.235 . S
O150 Co140 2.021 . S
O150 C147 1.238 . S
O151 Co145 2.052 . S
O151 C147 1.241 . S
O152 Co140 2.137 . S
O152 C143 1.247 . S
O153 Co140 2.244 . S
O153 C143 1.272 . S
O153 Co145 2.135 . S
Co154 O155 2.216 . S
Co154 O156 2.091 . S
Co154 O158 2.004 . S
Co154 O164 2.021 . S
Co154 O166 2.137 . S
Co154 O167 2.244 . S
O155 Co154 2.216 . S
O155 C162 1.247 . S
O156 Co154 2.091 . S
O156 C162 1.261 . S
C157 O166 1.247 . S
C157 O167 1.272 . S
O158 Co154 2.004 . S
O158 C163 1.259 . S
Co159 O160 2.061 . S
Co159 O165 2.052 . S
Co159 O167 2.135 . S
O160 Co159 2.061 . S
O160 C163 1.235 . S
C161 O164 1.238 . S
C161 O165 1.241 . S
C162 O155 1.247 . S
C162 O156 1.261 . S
C163 O158 1.259 . S
C163 O160 1.235 . S
O164 Co154 2.021 . S
O164 C161 1.238 . S
O165 Co159 2.052 . S
O165 C161 1.241 . S
O166 Co154 2.137 . S
O166 C157 1.247 . S
O167 Co154 2.244 . S
O167 C157 1.272 . S
O167 Co159 2.135 . S
Co168 O169 2.216 . S
Co168 O170 2.091 . S
Co168 O172 2.004 . S
Co168 O178 2.021 . S
Co168 O180 2.137 . S
Co168 O181 2.244 . S
O169 Co168 2.216 . S
O169 C176 1.247 . S
O170 Co168 2.091 . S
O170 C176 1.261 . S
C171 O180 1.247 . S
C171 O181 1.272 . S
O172 Co168 2.004 . S
O172 C177 1.259 . S
Co173 O174 2.061 . S
Co173 O179 2.052 . S
Co173 O181 2.135 . S
O174 Co173 2.061 . S
O174 C177 1.235 . S
C175 O178 1.238 . S
C175 O179 1.241 . S
C176 O169 1.247 . S
C176 O170 1.261 . S
C177 O172 1.259 . S
C177 O174 1.235 . S
O178 Co168 2.021 . S
O178 C175 1.238 . S
O179 Co173 2.052 . S
O179 C175 1.241 . S
O180 Co168 2.137 . S
O180 C171 1.247 . S
O181 Co168 2.244 . S
O181 C171 1.272 . S
O181 Co173 2.135 . S
Co182 O183 2.216 . S
Co182 O184 2.091 . S
Co182 O186 2.004 . S
Co182 O192 2.021 . S
Co182 O194 2.137 . S
Co182 O195 2.244 . S
O183 Co182 2.216 . S
O183 C190 1.247 . S
O184 Co182 2.091 . S
O184 C190 1.261 . S
C185 O194 1.247 . S
C185 O195 1.272 . S
O186 Co182 2.004 . S
O186 C191 1.259 . S
Co187 O188 2.061 . S
Co187 O193 2.052 . S
Co187 O195 2.135 . S
O188 Co187 2.061 . S
O188 C191 1.235 . S
C189 O192 1.238 . S
C189 O193 1.241 . S
C190 O183 1.247 . S
C190 O184 1.261 . S
C191 O186 1.259 . S
C191 O188 1.235 . S
O192 Co182 2.021 . S
O192 C189 1.238 . S
O193 Co187 2.052 . S
O193 C189 1.241 . S
O194 Co182 2.137 . S
O194 C185 1.247 . S
O195 Co182 2.244 . S
O195 C185 1.272 . S
O195 Co187 2.135 . S
Co196 O197 2.216 . S
Co196 O198 2.091 . S
Co196 O200 2.004 . S
Co196 O206 2.021 . S
Co196 O208 2.137 . S
Co196 O209 2.244 . S
O197 Co196 2.216 . S
O197 C204 1.247 . S
O198 Co196 2.091 . S
O198 C204 1.261 . S
C199 O208 1.247 . S
C199 O209 1.272 . S
O200 Co196 2.004 . S
O200 C205 1.259 . S
Co201 O202 2.061 . S
Co201 O207 2.052 . S
Co201 O209 2.135 . S
O202 Co201 2.061 . S
O202 C205 1.235 . S
C203 O206 1.238 . S
C203 O207 1.241 . S
C204 O197 1.247 . S
C204 O198 1.261 . S
C205 O200 1.259 . S
C205 O202 1.235 . S
O206 Co196 2.021 . S
O206 C203 1.238 . S
O207 Co201 2.052 . S
O207 C203 1.241 . S
O208 Co196 2.137 . S
O208 C199 1.247 . S
O209 Co196 2.244 . S
O209 C199 1.272 . S
O209 Co201 2.135 . S
Co210 O211 2.216 . S
Co210 O212 2.091 . S
Co210 O214 2.004 . S
Co210 O220 2.021 . S
Co210 O222 2.137 . S
Co210 O223 2.244 . S
O211 Co210 2.216 . S
O211 C218 1.247 . S
O212 Co210 2.091 . S
O212 C218 1.261 . S
C213 O222 1.247 . S
C213 O223 1.272 . S
O214 Co210 2.004 . S
O214 C219 1.259 . S
Co215 O216 2.061 . S
Co215 O221 2.052 . S
Co215 O223 2.135 . S
O216 Co215 2.061 . S
O216 C219 1.235 . S
C217 O220 1.238 . S
C217 O221 1.241 . S
C218 O211 1.247 . S
C218 O212 1.261 . S
C219 O214 1.259 . S
C219 O216 1.235 . S
O220 Co210 2.021 . S
O220 C217 1.238 . S
O221 Co215 2.052 . S
O221 C217 1.241 . S
O222 Co210 2.137 . S
O222 C213 1.247 . S
O223 Co210 2.244 . S
O223 C213 1.272 . S
O223 Co215 2.135 . S
Co224 O225 2.216 . S
Co224 O226 2.091 . S
Co224 O228 2.004 . S
Co224 O234 2.021 . S
Co224 O236 2.137 . S
Co224 O237 2.244 . S
O225 Co224 2.216 . S
O225 C232 1.247 . S
O226 Co224 2.091 . S
O226 C232 1.261 . S
C227 O236 1.247 . S
C227 O237 1.272 . S
O228 Co224 2.004 . S
O228 C233 1.259 . S
Co229 O230 2.061 . S
Co229 O235 2.052 . S
Co229 O237 2.135 . S
O230 Co229 2.061 . S
O230 C233 1.235 . S
C231 O234 1.238 . S
C231 O235 1.241 . S
C232 O225 1.247 . S
C232 O226 1.261 . S
C233 O228 1.259 . S
C233 O230 1.235 . S
O234 Co224 2.021 . S
O234 C231 1.238 . S
O235 Co229 2.052 . S
O235 C231 1.241 . S
O236 Co224 2.137 . S
O236 C227 1.247 . S
O237 Co224 2.244 . S
O237 C227 1.272 . S
O237 Co229 2.135 . S
Co238 O239 2.216 . S
Co238 O240 2.091 . S
Co238 O242 2.004 . S
Co238 O248 2.021 . S
Co238 O250 2.137 . S
Co238 O251 2.244 . S
O239 Co238 2.216 . S
O239 C246 1.247 . S
O240 Co238 2.091 . S
O240 C246 1.261 . S
C241 O250 1.247 . S
C241 O251 1.272 . S
O242 Co238 2.004 . S
O242 C247 1.259 . S
Co243 O244 2.061 . S
Co243 O249 2.052 . S
Co243 O251 2.135 . S
O244 Co243 2.061 . S
O244 C247 1.235 . S
C245 O248 1.238 . S
C245 O249 1.241 . S
C246 O239 1.247 . S
C246 O240 1.261 . S
C247 O242 1.259 . S
C247 O244 1.235 . S
O248 Co238 2.021 . S
O248 C245 1.238 . S
O249 Co243 2.052 . S
O249 C245 1.241 . S
O250 Co238 2.137 . S
O250 C241 1.247 . S
O251 Co238 2.244 . S
O251 C241 1.272 . S
O251 Co243 2.135 . S
Co252 O253 2.216 . S
Co252 O254 2.091 . S
Co252 O256 2.004 . S
Co252 O262 2.021 . S
Co252 O264 2.137 . S
Co252 O265 2.244 . S
O253 Co252 2.216 . S
O253 C260 1.247 . S
O254 Co252 2.091 . S
O254 C260 1.261 . S
C255 O264 1.247 . S
C255 O265 1.272 . S
O256 Co252 2.004 . S
O256 C261 1.259 . S
Co257 O258 2.061 . S
Co257 O263 2.052 . S
Co257 O265 2.135 . S
O258 Co257 2.061 . S
O258 C261 1.235 . S
C259 O262 1.238 . S
C259 O263 1.241 . S
C260 O253 1.247 . S
C260 O254 1.261 . S
C261 O256 1.259 . S
C261 O258 1.235 . S
O262 Co252 2.021 . S
O262 C259 1.238 . S
O263 Co257 2.052 . S
O263 C259 1.241 . S
O264 Co252 2.137 . S
O264 C255 1.247 . S
O265 Co252 2.244 . S
O265 C255 1.272 . S
O265 Co257 2.135 . S
Co266 O267 2.216 . S
Co266 O268 2.091 . S
Co266 O270 2.004 . S
Co266 O276 2.021 . S
Co266 O278 2.137 . S
Co266 O279 2.244 . S
O267 Co266 2.216 . S
O267 C274 1.247 . S
O268 Co266 2.091 . S
O268 C274 1.261 . S
C269 O278 1.247 . S
C269 O279 1.272 . S
O270 Co266 2.004 . S
O270 C275 1.259 . S
Co271 O272 2.061 . S
Co271 O277 2.052 . S
Co271 O279 2.135 . S
O272 Co271 2.061 . S
O272 C275 1.235 . S
C273 O276 1.238 . S
C273 O277 1.241 . S
C274 O267 1.247 . S
C274 O268 1.261 . S
C275 O270 1.259 . S
C275 O272 1.235 . S
O276 Co266 2.021 . S
O276 C273 1.238 . S
O277 Co271 2.052 . S
O277 C273 1.241 . S
O278 Co266 2.137 . S
O278 C269 1.247 . S
O279 Co266 2.244 . S
O279 C269 1.272 . S
O279 Co271 2.135 . S
Co280 O281 2.216 . S
Co280 O282 2.091 . S
Co280 O284 2.004 . S
Co280 O290 2.021 . S
Co280 O292 2.137 . S
Co280 O293 2.244 . S
O281 Co280 2.216 . S
O281 C288 1.247 . S
O282 Co280 2.091 . S
O282 C288 1.261 . S
C283 O292 1.247 . S
C283 O293 1.272 . S
O284 Co280 2.004 . S
O284 C289 1.259 . S
Co285 O286 2.061 . S
Co285 O291 2.052 . S
Co285 O293 2.135 . S
O286 Co285 2.061 . S
O286 C289 1.235 . S
C287 O290 1.238 . S
C287 O291 1.241 . S
C288 O281 1.247 . S
C288 O282 1.261 . S
C289 O284 1.259 . S
C289 O286 1.235 . S
O290 Co280 2.021 . S
O290 C287 1.238 . S
O291 Co285 2.052 . S
O291 C287 1.241 . S
O292 Co280 2.137 . S
O292 C283 1.247 . S
O293 Co280 2.244 . S
O293 C283 1.272 . S
O293 Co285 2.135 . S
Co294 O295 2.216 . S
Co294 O296 2.091 . S
Co294 O298 2.004 . S
Co294 O304 2.021 . S
Co294 O306 2.137 . S
Co294 O307 2.244 . S
O295 Co294 2.216 . S
O295 C302 1.247 . S
O296 Co294 2.091 . S
O296 C302 1.261 . S
C297 O306 1.247 . S
C297 O307 1.272 . S
O298 Co294 2.004 . S
O298 C303 1.259 . S
Co299 O300 2.061 . S
Co299 O305 2.052 . S
Co299 O307 2.135 . S
O300 Co299 2.061 . S
O300 C303 1.235 . S
C301 O304 1.238 . S
C301 O305 1.241 . S
C302 O295 1.247 . S
C302 O296 1.261 . S
C303 O298 1.259 . S
C303 O300 1.235 . S
O304 Co294 2.021 . S
O304 C301 1.238 . S
O305 Co299 2.052 . S
O305 C301 1.241 . S
O306 Co294 2.137 . S
O306 C297 1.247 . S
O307 Co294 2.244 . S
O307 C297 1.272 . S
O307 Co299 2.135 . S
Co308 O309 2.216 . S
Co308 O310 2.091 . S
Co308 O312 2.004 . S
Co308 O318 2.021 . S
Co308 O320 2.137 . S
Co308 O321 2.244 . S
O309 Co308 2.216 . S
O309 C316 1.247 . S
O310 Co308 2.091 . S
O310 C316 1.261 . S
C311 O320 1.247 . S
C311 O321 1.272 . S
O312 Co308 2.004 . S
O312 C317 1.259 . S
Co313 O314 2.061 . S
Co313 O319 2.052 . S
Co313 O321 2.135 . S
O314 Co313 2.061 . S
O314 C317 1.235 . S
C315 O318 1.238 . S
C315 O319 1.241 . S
C316 O309 1.247 . S
C316 O310 1.261 . S
C317 O312 1.259 . S
C317 O314 1.235 . S
O318 Co308 2.021 . S
O318 C315 1.238 . S
O319 Co313 2.052 . S
O319 C315 1.241 . S
O320 Co308 2.137 . S
O320 C311 1.247 . S
O321 Co308 2.244 . S
O321 C311 1.272 . S
O321 Co313 2.135 . S
Co322 O323 2.216 . S
Co322 O324 2.091 . S
Co322 O326 2.004 . S
Co322 O332 2.021 . S
Co322 O334 2.137 . S
Co322 O335 2.244 . S
O323 Co322 2.216 . S
O323 C330 1.247 . S
O324 Co322 2.091 . S
O324 C330 1.261 . S
C325 O334 1.247 . S
C325 O335 1.272 . S
O326 Co322 2.004 . S
O326 C331 1.259 . S
Co327 O328 2.061 . S
Co327 O333 2.052 . S
Co327 O335 2.135 . S
O328 Co327 2.061 . S
O328 C331 1.235 . S
C329 O332 1.238 . S
C329 O333 1.241 . S
C330 O323 1.247 . S
C330 O324 1.261 . S
C331 O326 1.259 . S
C331 O328 1.235 . S
O332 Co322 2.021 . S
O332 C329 1.238 . S
O333 Co327 2.052 . S
O333 C329 1.241 . S
O334 Co322 2.137 . S
O334 C325 1.247 . S
O335 Co322 2.244 . S
O335 C325 1.272 . S
O335 Co327 2.135 . S
Co336 O337 2.216 . S
Co336 O338 2.091 . S
Co336 O340 2.004 . S
Co336 O346 2.021 . S
Co336 O348 2.137 . S
Co336 O349 2.244 . S
O337 Co336 2.216 . S
O337 C344 1.247 . S
O338 Co336 2.091 . S
O338 C344 1.261 . S
C339 O348 1.247 . S
C339 O349 1.272 . S
O340 Co336 2.004 . S
O340 C345 1.259 . S
Co341 O342 2.061 . S
Co341 O347 2.052 . S
Co341 O349 2.135 . S
O342 Co341 2.061 . S
O342 C345 1.235 . S
C343 O346 1.238 . S
C343 O347 1.241 . S
C344 O337 1.247 . S
C344 O338 1.261 . S
C345 O340 1.259 . S
C345 O342 1.235 . S
O346 Co336 2.021 . S
O346 C343 1.238 . S
O347 Co341 2.052 . S
O347 C343 1.241 . S
O348 Co336 2.137 . S
O348 C339 1.247 . S
O349 Co336 2.244 . S
O349 C339 1.272 . S
O349 Co341 2.135 . S
Co350 O351 2.216 . S
Co350 O352 2.091 . S
Co350 O354 2.004 . S
Co350 O360 2.021 . S
Co350 O362 2.137 . S
Co350 O363 2.244 . S
O351 Co350 2.216 . S
O351 C358 1.247 . S
O352 Co350 2.091 . S
O352 C358 1.261 . S
C353 O362 1.247 . S
C353 O363 1.272 . S
O354 Co350 2.004 . S
O354 C359 1.259 . S
Co355 O356 2.061 . S
Co355 O361 2.052 . S
Co355 O363 2.135 . S
O356 Co355 2.061 . S
O356 C359 1.235 . S
C357 O360 1.238 . S
C357 O361 1.241 . S
C358 O351 1.247 . S
C358 O352 1.261 . S
C359 O354 1.259 . S
C359 O356 1.235 . S
O360 Co350 2.021 . S
O360 C357 1.238 . S
O361 Co355 2.052 . S
O361 C357 1.241 . S
O362 Co350 2.137 . S
O362 C353 1.247 . S
O363 Co350 2.244 . S
O363 C353 1.272 . S
O363 Co355 2.135 . S
Co364 O365 2.216 . S
Co364 O366 2.091 . S
Co364 O368 2.004 . S
Co364 O374 2.021 . S
Co364 O376 2.137 . S
Co364 O377 2.244 . S
O365 Co364 2.216 . S
O365 C372 1.247 . S
O366 Co364 2.091 . S
O366 C372 1.261 . S
C367 O376 1.247 . S
C367 O377 1.272 . S
O368 Co364 2.004 . S
O368 C373 1.259 . S
Co369 O370 2.061 . S
Co369 O375 2.052 . S
Co369 O377 2.135 . S
O370 Co369 2.061 . S
O370 C373 1.235 . S
C371 O374 1.238 . S
C371 O375 1.241 . S
C372 O365 1.247 . S
C372 O366 1.261 . S
C373 O368 1.259 . S
C373 O370 1.235 . S
O374 Co364 2.021 . S
O374 C371 1.238 . S
O375 Co369 2.052 . S
O375 C371 1.241 . S
O376 Co364 2.137 . S
O376 C367 1.247 . S
O377 Co364 2.244 . S
O377 C367 1.272 . S
O377 Co369 2.135 . S
Co378 O379 2.216 . S
Co378 O380 2.091 . S
Co378 O382 2.004 . S
Co378 O388 2.021 . S
Co378 O390 2.137 . S
Co378 O391 2.244 . S
O379 Co378 2.216 . S
O379 C386 1.247 . S
O380 Co378 2.091 . S
O380 C386 1.261 . S
C381 O390 1.247 . S
C381 O391 1.272 . S
O382 Co378 2.004 . S
O382 C387 1.259 . S
Co383 O384 2.061 . S
Co383 O389 2.052 . S
Co383 O391 2.135 . S
O384 Co383 2.061 . S
O384 C387 1.235 . S
C385 O388 1.238 . S
C385 O389 1.241 . S
C386 O379 1.247 . S
C386 O380 1.261 . S
C387 O382 1.259 . S
C387 O384 1.235 . S
O388 Co378 2.021 . S
O388 C385 1.238 . S
O389 Co383 2.052 . S
O389 C385 1.241 . S
O390 Co378 2.137 . S
O390 C381 1.247 . S
O391 Co378 2.244 . S
O391 C381 1.272 . S
O391 Co383 2.135 . S
Co392 O393 2.216 . S
Co392 O394 2.091 . S
Co392 O396 2.004 . S
Co392 O402 2.021 . S
Co392 O404 2.137 . S
Co392 O405 2.244 . S
O393 Co392 2.216 . S
O393 C400 1.247 . S
O394 Co392 2.091 . S
O394 C400 1.261 . S
C395 O404 1.247 . S
C395 O405 1.272 . S
O396 Co392 2.004 . S
O396 C401 1.259 . S
Co397 O398 2.061 . S
Co397 O403 2.052 . S
Co397 O405 2.135 . S
O398 Co397 2.061 . S
O398 C401 1.235 . S
C399 O402 1.238 . S
C399 O403 1.241 . S
C400 O393 1.247 . S
C400 O394 1.261 . S
C401 O396 1.259 . S
C401 O398 1.235 . S
O402 Co392 2.021 . S
O402 C399 1.238 . S
O403 Co397 2.052 . S
O403 C399 1.241 . S
O404 Co392 2.137 . S
O404 C395 1.247 . S
O405 Co392 2.244 . S
O405 C395 1.272 . S
O405 Co397 2.135 . S
Co406 O407 2.216 . S
Co406 O408 2.091 . S
Co406 O410 2.004 . S
Co406 O416 2.021 . S
Co406 O418 2.137 . S
Co406 O419 2.244 . S
O407 Co406 2.216 . S
O407 C414 1.247 . S
O408 Co406 2.091 . S
O408 C414 1.261 . S
C409 O418 1.247 . S
C409 O419 1.272 . S
O410 Co406 2.004 . S
O410 C415 1.259 . S
Co411 O412 2.061 . S
Co411 O417 2.052 . S
Co411 O419 2.135 . S
O412 Co411 2.061 . S
O412 C415 1.235 . S
C413 O416 1.238 . S
C413 O417 1.241 . S
C414 O407 1.247 . S
C414 O408 1.261 . S
C415 O410 1.259 . S
C415 O412 1.235 . S
O416 Co406 2.021 . S
O416 C413 1.238 . S
O417 Co411 2.052 . S
O417 C413 1.241 . S
O418 Co406 2.137 . S
O418 C409 1.247 . S
O419 Co406 2.244 . S
O419 C409 1.272 . S
O419 Co411 2.135 . S
Co420 O421 2.216 . S
Co420 O422 2.091 . S
Co420 O424 2.004 . S
Co420 O430 2.021 . S
Co420 O432 2.137 . S
Co420 O433 2.244 . S
O421 Co420 2.216 . S
O421 C428 1.247 . S
O422 Co420 2.091 . S
O422 C428 1.261 . S
C423 O432 1.247 . S
C423 O433 1.272 . S
O424 Co420 2.004 . S
O424 C429 1.259 . S
Co425 O426 2.061 . S
Co425 O431 2.052 . S
Co425 O433 2.135 . S
O426 Co425 2.061 . S
O426 C429 1.235 . S
C427 O430 1.238 . S
C427 O431 1.241 . S
C428 O421 1.247 . S
C428 O422 1.261 . S
C429 O424 1.259 . S
C429 O426 1.235 . S
O430 Co420 2.021 . S
O430 C427 1.238 . S
O431 Co425 2.052 . S
O431 C427 1.241 . S
O432 Co420 2.137 . S
O432 C423 1.247 . S
O433 Co420 2.244 . S
O433 C423 1.272 . S
O433 Co425 2.135 . S
Co434 O435 2.216 . S
Co434 O436 2.091 . S
Co434 O438 2.004 . S
Co434 O444 2.021 . S
Co434 O446 2.137 . S
Co434 O447 2.244 . S
O435 Co434 2.216 . S
O435 C442 1.247 . S
O436 Co434 2.091 . S
O436 C442 1.261 . S
C437 O446 1.247 . S
C437 O447 1.272 . S
O438 Co434 2.004 . S
O438 C443 1.259 . S
Co439 O440 2.061 . S
Co439 O445 2.052 . S
Co439 O447 2.135 . S
O440 Co439 2.061 . S
O440 C443 1.235 . S
C441 O444 1.238 . S
C441 O445 1.241 . S
C442 O435 1.247 . S
C442 O436 1.261 . S
C443 O438 1.259 . S
C443 O440 1.235 . S
O444 Co434 2.021 . S
O444 C441 1.238 . S
O445 Co439 2.052 . S
O445 C441 1.241 . S
O446 Co434 2.137 . S
O446 C437 1.247 . S
O447 Co434 2.244 . S
O447 C437 1.272 . S
O447 Co439 2.135 . S
Co448 O449 2.216 . S
Co448 O450 2.091 . S
Co448 O452 2.004 . S
Co448 O458 2.021 . S
Co448 O460 2.137 . S
Co448 O461 2.244 . S
O449 Co448 2.216 . S
O449 C456 1.247 . S
O450 Co448 2.091 . S
O450 C456 1.261 . S
C451 O460 1.247 . S
C451 O461 1.272 . S
O452 Co448 2.004 . S
O452 C457 1.259 . S
Co453 O454 2.061 . S
Co453 O459 2.052 . S
Co453 O461 2.135 . S
O454 Co453 2.061 . S
O454 C457 1.235 . S
C455 O458 1.238 . S
C455 O459 1.241 . S
C456 O449 1.247 . S
C456 O450 1.261 . S
C457 O452 1.259 . S
C457 O454 1.235 . S
O458 Co448 2.021 . S
O458 C455 1.238 . S
O459 Co453 2.052 . S
O459 C455 1.241 . S
O460 Co448 2.137 . S
O460 C451 1.247 . S
O461 Co448 2.244 . S
O461 C451 1.272 . S
O461 Co453 2.135 . S
Co462 O463 2.216 . S
Co462 O464 2.091 . S
Co462 O466 2.004 . S
Co462 O472 2.021 . S
Co462 O474 2.137 . S
Co462 O475 2.244 . S
O463 Co462 2.216 . S
O463 C470 1.247 . S
O464 Co462 2.091 . S
O464 C470 1.261 . S
C465 O474 1.247 . S
C465 O475 1.272 . S
O466 Co462 2.004 . S
O466 C471 1.259 . S
Co467 O468 2.061 . S
Co467 O473 2.052 . S
Co467 O475 2.135 . S
O468 Co467 2.061 . S
O468 C471 1.235 . S
C469 O472 1.238 . S
C469 O473 1.241 . S
C470 O463 1.247 . S
C470 O464 1.261 . S
C471 O466 1.259 . S
C471 O468 1.235 . S
O472 Co462 2.021 . S
O472 C469 1.238 . S
O473 Co467 2.052 . S
O473 C469 1.241 . S
O474 Co462 2.137 . S
O474 C465 1.247 . S
O475 Co462 2.244 . S
O475 C465 1.272 . S
O475 Co467 2.135 . S
Co476 O477 2.216 . S
Co476 O478 2.091 . S
Co476 O480 2.004 . S
Co476 O486 2.021 . S
Co476 O488 2.137 . S
Co476 O489 2.244 . S
O477 Co476 2.216 . S
O477 C484 1.247 . S
O478 Co476 2.091 . S
O478 C484 1.261 . S
C479 O488 1.247 . S
C479 O489 1.272 . S
O480 Co476 2.004 . S
O480 C485 1.259 . S
Co481 O482 2.061 . S
Co481 O487 2.052 . S
Co481 O489 2.135 . S
O482 Co481 2.061 . S
O482 C485 1.235 . S
C483 O486 1.238 . S
C483 O487 1.241 . S
C484 O477 1.247 . S
C484 O478 1.261 . S
C485 O480 1.259 . S
C485 O482 1.235 . S
O486 Co476 2.021 . S
O486 C483 1.238 . S
O487 Co481 2.052 . S
O487 C483 1.241 . S
O488 Co476 2.137 . S
O488 C479 1.247 . S
O489 Co476 2.244 . S
O489 C479 1.272 . S
O489 Co481 2.135 . S
Co490 O491 2.216 . S
Co490 O492 2.091 . S
Co490 O494 2.004 . S
Co490 O500 2.021 . S
Co490 O502 2.137 . S
Co490 O503 2.244 . S
O491 Co490 2.216 . S
O491 C498 1.247 . S
O492 Co490 2.091 . S
O492 C498 1.261 . S
C493 O502 1.247 . S
C493 O503 1.272 . S
O494 Co490 2.004 . S
O494 C499 1.259 . S
Co495 O496 2.061 . S
Co495 O501 2.052 . S
Co495 O503 2.135 . S
O496 Co495 2.061 . S
O496 C499 1.235 . S
C497 O500 1.238 . S
C497 O501 1.241 . S
C498 O491 1.247 . S
C498 O492 1.261 . S
C499 O494 1.259 . S
C499 O496 1.235 . S
O500 Co490 2.021 . S
O500 C497 1.238 . S
O501 Co495 2.052 . S
O501 C497 1.241 . S
O502 Co490 2.137 . S
O502 C493 1.247 . S
O503 Co490 2.244 . S
O503 C493 1.272 . S
O503 Co495 2.135 . S
Co504 O505 2.216 . S
Co504 O506 2.091 . S
Co504 O508 2.004 . S
Co504 O514 2.021 . S
Co504 O516 2.137 . S
Co504 O517 2.244 . S
O505 Co504 2.216 . S
O505 C512 1.247 . S
O506 Co504 2.091 . S
O506 C512 1.261 . S
C507 O516 1.247 . S
C507 O517 1.272 . S
O508 Co504 2.004 . S
O508 C513 1.259 . S
Co509 O510 2.061 . S
Co509 O515 2.052 . S
Co509 O517 2.135 . S
O510 Co509 2.061 . S
O510 C513 1.235 . S
C511 O514 1.238 . S
C511 O515 1.241 . S
C512 O505 1.247 . S
C512 O506 1.261 . S
C513 O508 1.259 . S
C513 O510 1.235 . S
O514 Co504 2.021 . S
O514 C511 1.238 . S
O515 Co509 2.052 . S
O515 C511 1.241 . S
O516 Co504 2.137 . S
O516 C507 1.247 . S
O517 Co504 2.244 . S
O517 C507 1.272 . S
O517 Co509 2.135 . S
Co518 O519 2.216 . S
Co518 O520 2.091 . S
Co518 O522 2.004 . S
Co518 O528 2.021 . S
Co518 O530 2.137 . S
Co518 O531 2.244 . S
O519 Co518 2.216 . S
O519 C526 1.247 . S
O520 Co518 2.091 . S
O520 C526 1.261 . S
C521 O530 1.247 . S
C521 O531 1.272 . S
O522 Co518 2.004 . S
O522 C527 1.259 . S
Co523 O524 2.061 . S
Co523 O529 2.052 . S
Co523 O531 2.135 . S
O524 Co523 2.061 . S
O524 C527 1.235 . S
C525 O528 1.238 . S
C525 O529 1.241 . S
C526 O519 1.247 . S
C526 O520 1.261 . S
C527 O522 1.259 . S
C527 O524 1.235 . S
O528 Co518 2.021 . S
O528 C525 1.238 . S
O529 Co523 2.052 . S
O529 C525 1.241 . S
O530 Co518 2.137 . S
O530 C521 1.247 . S
O531 Co518 2.244 . S
O531 C521 1.272 . S
O531 Co523 2.135 . S
Co532 O533 2.216 . S
Co532 O534 2.091 . S
Co532 O536 2.004 . S
Co532 O542 2.021 . S
Co532 O544 2.137 . S
Co532 O545 2.244 . S
O533 Co532 2.216 . S
O533 C540 1.247 . S
O534 Co532 2.091 . S
O534 C540 1.261 . S
C535 O544 1.247 . S
C535 O545 1.272 . S
O536 Co532 2.004 . S
O536 C541 1.259 . S
Co537 O538 2.061 . S
Co537 O543 2.052 . S
Co537 O545 2.135 . S
O538 Co537 2.061 . S
O538 C541 1.235 . S
C539 O542 1.238 . S
C539 O543 1.241 . S
C540 O533 1.247 . S
C540 O534 1.261 . S
C541 O536 1.259 . S
C541 O538 1.235 . S
O542 Co532 2.021 . S
O542 C539 1.238 . S
O543 Co537 2.052 . S
O543 C539 1.241 . S
O544 Co532 2.137 . S
O544 C535 1.247 . S
O545 Co532 2.244 . S
O545 C535 1.272 . S
O545 Co537 2.135 . S
Co546 O547 2.216 . S
Co546 O548 2.091 . S
Co546 O550 2.004 . S
Co546 O556 2.021 . S
Co546 O558 2.137 . S
Co546 O559 2.244 . S
O547 Co546 2.216 . S
O547 C554 1.247 . S
O548 Co546 2.091 . S
O548 C554 1.261 . S
C549 O558 1.247 . S
C549 O559 1.272 . S
O550 Co546 2.004 . S
O550 C555 1.259 . S
Co551 O552 2.061 . S
Co551 O557 2.052 . S
Co551 O559 2.135 . S
O552 Co551 2.061 . S
O552 C555 1.235 . S
C553 O556 1.238 . S
C553 O557 1.241 . S
C554 O547 1.247 . S
C554 O548 1.261 . S
C555 O550 1.259 . S
C555 O552 1.235 . S
O556 Co546 2.021 . S
O556 C553 1.238 . S
O557 Co551 2.052 . S
O557 C553 1.241 . S
O558 Co546 2.137 . S
O558 C549 1.247 . S
O559 Co546 2.244 . S
O559 C549 1.272 . S
O559 Co551 2.135 . S
Co560 O561 2.216 . S
Co560 O562 2.091 . S
Co560 O564 2.004 . S
Co560 O570 2.021 . S
Co560 O572 2.137 . S
Co560 O573 2.244 . S
O561 Co560 2.216 . S
O561 C568 1.247 . S
O562 Co560 2.091 . S
O562 C568 1.261 . S
C563 O572 1.247 . S
C563 O573 1.272 . S
O564 Co560 2.004 . S
O564 C569 1.259 . S
Co565 O566 2.061 . S
Co565 O571 2.052 . S
Co565 O573 2.135 . S
O566 Co565 2.061 . S
O566 C569 1.235 . S
C567 O570 1.238 . S
C567 O571 1.241 . S
C568 O561 1.247 . S
C568 O562 1.261 . S
C569 O564 1.259 . S
C569 O566 1.235 . S
O570 Co560 2.021 . S
O570 C567 1.238 . S
O571 Co565 2.052 . S
O571 C567 1.241 . S
O572 Co560 2.137 . S
O572 C563 1.247 . S
O573 Co560 2.244 . S
O573 C563 1.272 . S
O573 Co565 2.135 . S
Co574 O575 2.216 . S
Co574 O576 2.091 . S
Co574 O578 2.004 . S
Co574 O584 2.021 . S
Co574 O586 2.137 . S
Co574 O587 2.244 . S
O575 Co574 2.216 . S
O575 C582 1.247 . S
O576 Co574 2.091 . S
O576 C582 1.261 . S
C577 O586 1.247 . S
C577 O587 1.272 . S
O578 Co574 2.004 . S
O578 C583 1.259 . S
Co579 O580 2.061 . S
Co579 O585 2.052 . S
Co579 O587 2.135 . S
O580 Co579 2.061 . S
O580 C583 1.235 . S
C581 O584 1.238 . S
C581 O585 1.241 . S
C582 O575 1.247 . S
C582 O576 1.261 . S
C583 O578 1.259 . S
C583 O580 1.235 . S
O584 Co574 2.021 . S
O584 C581 1.238 . S
O585 Co579 2.052 . S
O585 C581 1.241 . S
O586 Co574 2.137 . S
O586 C577 1.247 . S
O587 Co574 2.244 . S
O587 C577 1.272 . S
O587 Co579 2.135 . S
Co588 O589 2.216 . S
Co588 O590 2.091 . S
Co588 O592 2.004 . S
Co588 O598 2.021 . S
Co588 O600 2.137 . S
Co588 O601 2.244 . S
O589 Co588 2.216 . S
O589 C596 1.247 . S
O590 Co588 2.091 . S
O590 C596 1.261 . S
C591 O600 1.247 . S
C591 O601 1.272 . S
O592 Co588 2.004 . S
O592 C597 1.259 . S
Co593 O594 2.061 . S
Co593 O599 2.052 . S
Co593 O601 2.135 . S
O594 Co593 2.061 . S
O594 C597 1.235 . S
C595 O598 1.238 . S
C595 O599 1.241 . S
C596 O589 1.247 . S
C596 O590 1.261 . S
C597 O592 1.259 . S
C597 O594 1.235 . S
O598 Co588 2.021 . S
O598 C595 1.238 . S
O599 Co593 2.052 . S
O599 C595 1.241 . S
O600 Co588 2.137 . S
O600 C591 1.247 . S
O601 Co588 2.244 . S
O601 C591 1.272 . S
O601 Co593 2.135 . S
Co602 O603 2.216 . S
Co602 O604 2.091 . S
Co602 O606 2.004 . S
Co602 O612 2.021 . S
Co602 O614 2.137 . S
Co602 O615 2.244 . S
O603 Co602 2.216 . S
O603 C610 1.247 . S
O604 Co602 2.091 . S
O604 C610 1.261 . S
C605 O614 1.247 . S
C605 O615 1.272 . S
O606 Co602 2.004 . S
O606 C611 1.259 . S
Co607 O608 2.061 . S
Co607 O613 2.052 . S
Co607 O615 2.135 . S
O608 Co607 2.061 . S
O608 C611 1.235 . S
C609 O612 1.238 . S
C609 O613 1.241 . S
C610 O603 1.247 . S
C610 O604 1.261 . S
C611 O606 1.259 . S
C611 O608 1.235 . S
O612 Co602 2.021 . S
O612 C609 1.238 . S
O613 Co607 2.052 . S
O613 C609 1.241 . S
O614 Co602 2.137 . S
O614 C605 1.247 . S
O615 Co602 2.244 . S
O615 C605 1.272 . S
O615 Co607 2.135 . S
Co616 O617 2.216 . S
Co616 O618 2.091 . S
Co616 O620 2.004 . S
Co616 O626 2.021 . S
Co616 O628 2.137 . S
Co616 O629 2.244 . S
O617 Co616 2.216 . S
O617 C624 1.247 . S
O618 Co616 2.091 . S
O618 C624 1.261 . S
C619 O628 1.247 . S
C619 O629 1.272 . S
O620 Co616 2.004 . S
O620 C625 1.259 . S
Co621 O622 2.061 . S
Co621 O627 2.052 . S
Co621 O629 2.135 . S
O622 Co621 2.061 . S
O622 C625 1.235 . S
C623 O626 1.238 . S
C623 O627 1.241 . S
C624 O617 1.247 . S
C624 O618 1.261 . S
C625 O620 1.259 . S
C625 O622 1.235 . S
O626 Co616 2.021 . S
O626 C623 1.238 . S
O627 Co621 2.052 . S
O627 C623 1.241 . S
O628 Co616 2.137 . S
O628 C619 1.247 . S
O629 Co616 2.244 . S
O629 C619 1.272 . S
O629 Co621 2.135 . S
Co630 O631 2.216 . S
Co630 O632 2.091 . S
Co630 O634 2.004 . S
Co630 O640 2.021 . S
Co630 O642 2.137 . S
Co630 O643 2.244 . S
O631 Co630 2.216 . S
O631 C638 1.247 . S
O632 Co630 2.091 . S
O632 C638 1.261 . S
C633 O642 1.247 . S
C633 O643 1.272 . S
O634 Co630 2.004 . S
O634 C639 1.259 . S
Co635 O636 2.061 . S
Co635 O641 2.052 . S
Co635 O643 2.135 . S
O636 Co635 2.061 . S
O636 C639 1.235 . S
C637 O640 1.238 . S
C637 O641 1.241 . S
C638 O631 1.247 . S
C638 O632 1.261 . S
C639 O634 1.259 . S
C639 O636 1.235 . S
O640 Co630 2.021 . S
O640 C637 1.238 . S
O641 Co635 2.052 . S
O641 C637 1.241 . S
O642 Co630 2.137 . S
O642 C633 1.247 . S
O643 Co630 2.244 . S
O643 C633 1.272 . S
O643 Co635 2.135 . S
Co644 O645 2.216 . S
Co644 O646 2.091 . S
Co644 O648 2.004 . S
Co644 O654 2.021 . S
Co644 O656 2.137 . S
Co644 O657 2.244 . S
O645 Co644 2.216 . S
O645 C652 1.247 . S
O646 Co644 2.091 . S
O646 C652 1.261 . S
C647 O656 1.247 . S
C647 O657 1.272 . S
O648 Co644 2.004 . S
O648 C653 1.259 . S
Co649 O650 2.061 . S
Co649 O655 2.052 . S
Co649 O657 2.135 . S
O650 Co649 2.061 . S
O650 C653 1.235 . S
C651 O654 1.238 . S
C651 O655 1.241 . S
C652 O645 1.247 . S
C652 O646 1.261 . S
C653 O648 1.259 . S
C653 O650 1.235 . S
O654 Co644 2.021 . S
O654 C651 1.238 . S
O655 Co649 2.052 . S
O655 C651 1.241 . S
O656 Co644 2.137 . S
O656 C647 1.247 . S
O657 Co644 2.244 . S
O657 C647 1.272 . S
O657 Co649 2.135 . S
Co658 O659 2.216 . S
Co658 O660 2.091 . S
Co658 O662 2.004 . S
Co658 O668 2.021 . S
Co658 O670 2.137 . S
Co658 O671 2.244 . S
O659 Co658 2.216 . S
O659 C666 1.247 . S
O660 Co658 2.091 . S
O660 C666 1.261 . S
C661 O670 1.247 . S
C661 O671 1.272 . S
O662 Co658 2.004 . S
O662 C667 1.259 . S
Co663 O664 2.061 . S
Co663 O669 2.052 . S
Co663 O671 2.135 . S
O664 Co663 2.061 . S
O664 C667 1.235 . S
C665 O668 1.238 . S
C665 O669 1.241 . S
C666 O659 1.247 . S
C666 O660 1.261 . S
C667 O662 1.259 . S
C667 O664 1.235 . S
O668 Co658 2.021 . S
O668 C665 1.238 . S
O669 Co663 2.052 . S
O669 C665 1.241 . S
O670 Co658 2.137 . S
O670 C661 1.247 . S
O671 Co658 2.244 . S
O671 C661 1.272 . S
O671 Co663 2.135 . S
H672 C678 0.930 . S
H673 C682 0.930 . S
H674 C687 0.935 . S
H675 C685 0.935 . S
H676 C680 0.929 . S
H677 C686 0.929 . S
C678 H672 0.930 . S
C678 C679 1.367 . S
C678 C686 1.378 . S
C679 C678 1.367 . S
C679 C687 1.433 . S
C680 H676 0.929 . S
C680 C682 1.378 . S
C680 C684 1.350 . S
C681 C684 1.463 1_655 S
C681 C686 1.350 . S
C681 N689 1.427 1_655 S
C682 H673 0.930 . S
C682 C680 1.378 . S
C682 C683 1.367 . S
C683 C682 1.367 . S
C683 C685 1.433 . S
C684 C680 1.350 . S
C684 C681 1.463 1_455 S
C684 N688 1.427 1_455 S
C685 H675 0.935 . S
C685 C683 1.433 . S
C685 N688 1.384 1_455 S
C686 H677 0.929 . S
C686 C678 1.378 . S
C686 C681 1.350 . S
C687 H674 0.935 . S
C687 C679 1.433 . S
C687 N689 1.384 1_655 S
N688 C684 1.427 1_655 S
N688 C685 1.384 1_655 S
N689 C681 1.427 1_455 S
N689 C687 1.384 1_455 S
H690 C696 0.930 . S
H691 C700 0.930 . S
H692 C705 0.917 1_655 S
H693 C703 0.917 1_455 S
H694 C698 0.929 . S
H695 C704 0.929 . S
C696 H690 0.930 . S
C696 C697 1.367 . S
C696 C704 1.378 . S
C697 C696 1.367 . S
C697 C705 1.456 . S
C698 H694 0.929 . S
C698 C700 1.378 . S
C698 C702 1.350 . S
C699 C702 1.463 1_455 S
C699 C704 1.350 . S
C699 N707 1.427 1_455 S
C700 H691 0.930 . S
C700 C698 1.378 . S
C700 C701 1.367 . S
C701 C700 1.367 . S
C701 C703 1.456 . S
C702 C698 1.350 . S
C702 C699 1.463 1_655 S
C702 N706 1.427 1_655 S
C703 H693 0.917 1_655 S
C703 C701 1.456 . S
C703 N706 1.375 1_655 S
C704 H695 0.929 . S
C704 C696 1.378 . S
C704 C699 1.350 . S
C705 H692 0.917 1_455 S
C705 C697 1.456 . S
C705 N707 1.375 1_455 S
N706 C702 1.427 1_455 S
N706 C703 1.375 1_455 S
N707 C699 1.427 1_655 S
N707 C705 1.375 1_655 S
H708 C714 0.930 . S
H709 C718 0.930 . S
H710 C723 0.929 . S
H711 C721 0.929 . S
H712 C716 0.917 1_565 S
H713 C722 0.917 1_545 S
C714 H708 0.930 . S
C714 C715 1.367 . S
C714 C722 1.386 . S
C715 C714 1.367 . S
C715 C723 1.433 . S
C716 H712 0.917 1_545 S
C716 C718 1.387 . S
C716 C720 1.354 . S
C717 C720 1.463 1_565 S
C717 C722 1.354 . S
C717 N725 1.427 . S
C718 H709 0.930 . S
C718 C716 1.387 . S
C718 C719 1.367 . S
C719 C718 1.367 . S
C719 C721 1.433 . S
C720 C716 1.354 . S
C720 C717 1.463 1_545 S
C720 N724 1.427 . S
C721 H711 0.929 . S
C721 C719 1.433 . S
C721 N724 1.384 . S
C722 H713 0.917 1_565 S
C722 C714 1.386 . S
C722 C717 1.354 . S
C723 H710 0.929 . S
C723 C715 1.433 . S
C723 N725 1.384 . S
N724 C720 1.427 . S
N724 C721 1.384 . S
N725 C717 1.427 . S
N725 C723 1.384 . S
H726 C732 0.930 . S
H727 C736 0.930 . S
H728 C741 0.929 . S
H729 C739 0.929 . S
H730 C734 0.929 . S
H731 C740 0.929 . S
C732 H726 0.930 . S
C732 C733 1.367 . S
C732 C740 1.378 . S
C733 C732 1.367 . S
C733 C741 1.433 . S
C734 H730 0.929 . S
C734 C736 1.378 . S
C734 C738 1.350 . S
C735 C738 1.463 . S
C735 C740 1.350 . S
C735 N743 1.427 . S
C736 H727 0.930 . S
C736 C734 1.378 . S
C736 C737 1.367 . S
C737 C736 1.367 . S
C737 C739 1.433 . S
C738 C734 1.350 . S
C738 C735 1.463 . S
C738 N742 1.427 . S
C739 H729 0.929 . S
C739 C737 1.433 . S
C739 N742 1.384 . S
C740 H731 0.929 . S
C740 C732 1.378 . S
C740 C735 1.350 . S
C741 H728 0.929 . S
C741 C733 1.433 . S
C741 N743 1.384 . S
N742 C738 1.427 . S
N742 C739 1.384 . S
N743 C735 1.427 . S
N743 C741 1.384 . S
H744 C750 0.930 . S
H745 C754 0.930 . S
H746 C759 0.929 . S
H747 C757 0.929 . S
H748 C752 0.929 . S
H749 C758 0.929 . S
C750 H744 0.930 . S
C750 C751 1.367 . S
C750 C758 1.378 . S
C751 C750 1.367 . S
C751 C759 1.433 . S
C752 H748 0.929 . S
C752 C754 1.378 . S
C752 C756 1.350 . S
C753 C756 1.463 1_554 S
C753 C758 1.350 . S
C753 N761 1.427 . S
C754 H745 0.930 . S
C754 C752 1.378 . S
C754 C755 1.367 . S
C755 C754 1.367 . S
C755 C757 1.433 . S
C756 C752 1.350 . S
C756 C753 1.463 1_556 S
C756 N760 1.427 . S
C757 H747 0.929 . S
C757 C755 1.433 . S
C757 N760 1.384 . S
C758 H749 0.929 . S
C758 C750 1.378 . S
C758 C753 1.350 . S
C759 H746 0.929 . S
C759 C751 1.433 . S
C759 N761 1.384 . S
N760 C756 1.427 . S
N760 C757 1.384 . S
N761 C753 1.427 . S
N761 C759 1.384 . S
H762 C768 0.930 . S
H763 C772 0.930 . S
H764 C777 0.929 . S
H765 C775 0.929 . S
H766 C770 0.929 . S
H767 C776 0.929 . S
C768 H762 0.930 . S
C768 C769 1.367 . S
C768 C776 1.378 . S
C769 C768 1.367 . S
C769 C777 1.433 . S
C770 H766 0.929 . S
C770 C772 1.378 . S
C770 C774 1.350 . S
C771 C774 1.463 . S
C771 C776 1.350 . S
C771 N779 1.427 . S
C772 H763 0.930 . S
C772 C770 1.378 . S
C772 C773 1.367 . S
C773 C772 1.367 . S
C773 C775 1.433 . S
C774 C770 1.350 . S
C774 C771 1.463 . S
C774 N778 1.427 . S
C775 H765 0.929 . S
C775 C773 1.433 . S
C775 N778 1.384 . S
C776 H767 0.929 . S
C776 C768 1.378 . S
C776 C771 1.350 . S
C777 H764 0.929 . S
C777 C769 1.433 . S
C777 N779 1.384 . S
N778 C774 1.427 . S
N778 C775 1.384 . S
N779 C771 1.427 . S
N779 C777 1.384 . S
H780 C786 0.930 . S
H781 C790 0.930 . S
H782 C795 0.929 . S
H783 C793 0.929 . S
H784 C788 0.929 . S
H785 C794 0.929 . S
C786 H780 0.930 . S
C786 C787 1.367 . S
C786 C794 1.378 . S
C787 C786 1.367 . S
C787 C795 1.433 . S
C788 H784 0.929 . S
C788 C790 1.378 . S
C788 C792 1.350 . S
C789 C792 1.463 . S
C789 C794 1.350 . S
C789 N797 1.427 . S
C790 H781 0.930 . S
C790 C788 1.378 . S
C790 C791 1.367 . S
C791 C790 1.367 . S
C791 C793 1.433 . S
C792 C788 1.350 . S
C792 C789 1.463 . S
C792 N796 1.427 . S
C793 H783 0.929 . S
C793 C791 1.433 . S
C793 N796 1.384 . S
C794 H785 0.929 . S
C794 C786 1.378 . S
C794 C789 1.350 . S
C795 H782 0.929 . S
C795 C787 1.433 . S
C795 N797 1.384 . S
N796 C792 1.427 . S
N796 C793 1.384 . S
N797 C789 1.427 . S
N797 C795 1.384 . S
H798 C804 0.930 . S
H799 C808 0.930 . S
H800 C813 0.929 . S
H801 C811 0.929 . S
H802 C806 0.929 1_455 S
H803 C812 0.929 1_655 S
C804 H798 0.930 . S
C804 C805 1.367 . S
C804 C812 1.378 . S
C805 C804 1.367 . S
C805 C813 1.433 . S
C806 H802 0.929 1_655 S
C806 C808 1.378 . S
C806 C810 1.350 . S
C807 C810 1.463 1_455 S
C807 C812 1.350 . S
C807 N815 1.427 . S
C808 H799 0.930 . S
C808 C806 1.378 . S
C808 C809 1.367 . S
C809 C808 1.367 . S
C809 C811 1.433 . S
C810 C806 1.350 . S
C810 C807 1.463 1_655 S
C810 N814 1.427 . S
C811 H801 0.929 . S
C811 C809 1.433 . S
C811 N814 1.384 . S
C812 H803 0.929 1_455 S
C812 C804 1.378 . S
C812 C807 1.350 . S
C813 H800 0.929 . S
C813 C805 1.433 . S
C813 N815 1.384 . S
N814 C810 1.427 . S
N814 C811 1.384 . S
N815 C807 1.427 . S
N815 C813 1.384 . S
H816 C822 0.930 . S
H817 C826 0.930 . S
H818 C831 0.929 . S
H819 C829 0.929 . S
H820 C824 0.929 . S
H821 C830 0.929 . S
C822 H816 0.930 . S
C822 C823 1.367 1_655 S
C822 C830 1.378 . S
C823 C822 1.367 1_455 S
C823 C831 1.433 . S
C824 H820 0.929 . S
C824 C826 1.378 . S
C824 C828 1.350 1_455 S
C825 C828 1.463 1_455 S
C825 C830 1.350 1_455 S
C825 N833 1.427 . S
C826 H817 0.930 . S
C826 C824 1.378 . S
C826 C827 1.367 1_455 S
C827 C826 1.367 1_655 S
C827 C829 1.433 . S
C828 C824 1.350 1_655 S
C828 C825 1.463 1_655 S
C828 N832 1.427 . S
C829 H819 0.929 . S
C829 C827 1.433 . S
C829 N832 1.384 . S
C830 H821 0.929 . S
C830 C822 1.378 . S
C830 C825 1.350 1_655 S
C831 H818 0.929 . S
C831 C823 1.433 . S
C831 N833 1.384 . S
N832 C828 1.427 . S
N832 C829 1.384 . S
N833 C825 1.427 . S
N833 C831 1.384 . S
H834 C840 0.930 . S
H835 C844 0.930 . S
H836 C849 0.929 . S
H837 C847 0.929 . S
H838 C842 0.929 . S
H839 C848 0.929 . S
C840 H834 0.930 . S
C840 C841 1.367 1_565 S
C840 C848 1.378 . S
C841 C840 1.367 1_545 S
C841 C849 1.433 . S
C842 H838 0.929 . S
C842 C844 1.378 . S
C842 C846 1.350 1_545 S
C843 C846 1.463 1_545 S
C843 C848 1.350 1_545 S
C843 N851 1.427 . S
C844 H835 0.930 . S
C844 C842 1.378 . S
C844 C845 1.367 1_545 S
C845 C844 1.367 1_565 S
C845 C847 1.433 . S
C846 C842 1.350 1_565 S
C846 C843 1.463 1_565 S
C846 N850 1.427 . S
C847 H837 0.929 . S
C847 C845 1.433 . S
C847 N850 1.384 . S
C848 H839 0.929 . S
C848 C840 1.378 . S
C848 C843 1.350 1_565 S
C849 H836 0.929 . S
C849 C841 1.433 . S
C849 N851 1.384 . S
N850 C846 1.427 . S
N850 C847 1.384 . S
N851 C843 1.427 . S
N851 C849 1.384 . S
H852 C858 0.930 . S
H853 C862 0.930 . S
H854 C867 0.929 . S
H855 C865 0.929 . S
H856 C860 0.929 . S
H857 C866 0.929 . S
C858 H852 0.930 . S
C858 C859 1.367 . S
C858 C866 1.378 . S
C859 C858 1.367 . S
C859 C867 1.433 . S
C860 H856 0.929 . S
C860 C862 1.378 . S
C860 C864 1.350 . S
C861 C864 1.463 . S
C861 C866 1.350 . S
C861 N869 1.427 . S
C862 H853 0.930 . S
C862 C860 1.378 . S
C862 C863 1.367 . S
C863 C862 1.367 . S
C863 C865 1.433 . S
C864 C860 1.350 . S
C864 C861 1.463 . S
C864 N868 1.427 . S
C865 H855 0.929 . S
C865 C863 1.433 . S
C865 N868 1.384 . S
C866 H857 0.929 . S
C866 C858 1.378 . S
C866 C861 1.350 . S
C867 H854 0.929 . S
C867 C859 1.433 . S
C867 N869 1.384 . S
N868 C864 1.427 . S
N868 C865 1.384 . S
N869 C861 1.427 . S
N869 C867 1.384 . S
H870 C876 0.930 . S
H871 C880 0.930 . S
H872 C885 0.929 . S
H873 C883 0.929 . S
H874 C878 0.929 . S
H875 C884 0.929 . S
C876 H870 0.930 . S
C876 C877 1.367 . S
C876 C884 1.378 . S
C877 C876 1.367 . S
C877 C885 1.433 1_556 S
C878 H874 0.929 . S
C878 C880 1.378 . S
C878 C882 1.350 . S
C879 C882 1.463 1_556 S
C879 C884 1.350 . S
C879 N887 1.427 1_556 S
C880 H871 0.930 . S
C880 C878 1.378 . S
C880 C881 1.367 . S
C881 C880 1.367 . S
C881 C883 1.433 1_554 S
C882 C878 1.350 . S
C882 C879 1.463 1_554 S
C882 N886 1.427 1_554 S
C883 H873 0.929 . S
C883 C881 1.433 1_556 S
C883 N886 1.384 . S
C884 H875 0.929 . S
C884 C876 1.378 . S
C884 C879 1.350 . S
C885 H872 0.929 . S
C885 C877 1.433 1_554 S
C885 N887 1.384 . S
N886 C882 1.427 1_556 S
N886 C883 1.384 . S
N887 C879 1.427 1_554 S
N887 C885 1.384 . S
H888 C894 0.930 . S
H889 C898 0.930 . S
H890 C903 0.929 . S
H891 C901 0.929 . S
H892 C896 0.929 . S
H893 C902 0.929 . S
C894 H888 0.930 . S
C894 C895 1.367 . S
C894 C902 1.378 . S
C895 C894 1.367 . S
C895 C903 1.433 . S
C896 H892 0.929 . S
C896 C898 1.378 . S
C896 C900 1.350 . S
C897 C900 1.463 . S
C897 C902 1.350 . S
C897 N905 1.427 . S
C898 H889 0.930 . S
C898 C896 1.378 . S
C898 C899 1.367 . S
C899 C898 1.367 . S
C899 C901 1.433 . S
C900 C896 1.350 . S
C900 C897 1.463 . S
C900 N904 1.427 . S
C901 H891 0.929 . S
C901 C899 1.433 . S
C901 N904 1.384 . S
C902 H893 0.929 . S
C902 C894 1.378 . S
C902 C897 1.350 . S
C903 H890 0.929 . S
C903 C895 1.433 . S
C903 N905 1.384 . S
N904 C900 1.427 . S
N904 C901 1.384 . S
N905 C897 1.427 . S
N905 C903 1.384 . S
H906 C912 0.930 . S
H907 C916 0.930 . S
H908 C921 0.929 . S
H909 C919 0.929 . S
H910 C914 0.929 . S
H911 C920 0.929 . S
C912 H906 0.930 . S
C912 C913 1.367 . S
C912 C920 1.378 . S
C913 C912 1.367 . S
C913 C921 1.433 . S
C914 H910 0.929 . S
C914 C916 1.378 . S
C914 C918 1.350 . S
C915 C918 1.463 . S
C915 C920 1.350 . S
C915 N923 1.427 . S
C916 H907 0.930 . S
C916 C914 1.378 . S
C916 C917 1.367 . S
C917 C916 1.367 . S
C917 C919 1.433 . S
C918 C914 1.350 . S
C918 C915 1.463 . S
C918 N922 1.427 . S
C919 H909 0.929 . S
C919 C917 1.433 . S
C919 N922 1.384 . S
C920 H911 0.929 . S
C920 C912 1.378 . S
C920 C915 1.350 . S
C921 H908 0.929 . S
C921 C913 1.433 . S
C921 N923 1.384 . S
N922 C918 1.427 . S
N922 C919 1.384 . S
N923 C915 1.427 . S
N923 C921 1.384 . S
H924 C930 0.930 . S
H925 C934 0.930 . S
H926 C939 0.929 . S
H927 C937 0.929 . S
H928 C932 0.929 . S
H929 C938 0.929 . S
C930 H924 0.930 . S
C930 C931 1.367 . S
C930 C938 1.378 . S
C931 C930 1.367 . S
C931 C939 1.433 . S
C932 H928 0.929 . S
C932 C934 1.378 . S
C932 C936 1.350 . S
C933 C936 1.463 . S
C933 C938 1.350 . S
C933 N941 1.427 . S
C934 H925 0.930 . S
C934 C932 1.378 . S
C934 C935 1.367 . S
C935 C934 1.367 . S
C935 C937 1.433 . S
C936 C932 1.350 . S
C936 C933 1.463 . S
C936 N940 1.427 . S
C937 H927 0.929 . S
C937 C935 1.433 . S
C937 N940 1.384 . S
C938 H929 0.929 . S
C938 C930 1.378 . S
C938 C933 1.350 . S
C939 H926 0.929 . S
C939 C931 1.433 . S
C939 N941 1.384 . S
N940 C936 1.427 . S
N940 C937 1.384 . S
N941 C933 1.427 . S
N941 C939 1.384 . S
H942 C948 0.930 . S
H943 C952 0.930 . S
H944 C957 0.929 . S
H945 C955 0.929 . S
H946 C950 0.929 . S
H947 C956 0.929 . S
C948 H942 0.930 . S
C948 C949 1.367 . S
C948 C956 1.378 . S
C949 C948 1.367 . S
C949 C957 1.433 . S
C950 H946 0.929 . S
C950 C952 1.378 . S
C950 C954 1.350 . S
C951 C954 1.463 . S
C951 C956 1.350 . S
C951 N959 1.427 . S
C952 H943 0.930 . S
C952 C950 1.378 . S
C952 C953 1.367 . S
C953 C952 1.367 . S
C953 C955 1.433 . S
C954 C950 1.350 . S
C954 C951 1.463 . S
C954 N958 1.427 . S
C955 H945 0.929 . S
C955 C953 1.433 . S
C955 N958 1.384 . S
C956 H947 0.929 . S
C956 C948 1.378 . S
C956 C951 1.350 . S
C957 H944 0.929 . S
C957 C949 1.433 . S
C957 N959 1.384 . S
N958 C954 1.427 . S
N958 C955 1.384 . S
N959 C951 1.427 . S
N959 C957 1.384 . S
H960 C966 0.930 . S
H961 C970 0.930 . S
H962 C975 0.929 . S
H963 C973 0.929 . S
H964 C968 0.929 . S
H965 C974 0.929 . S
C966 H960 0.930 . S
C966 C967 1.367 . S
C966 C974 1.378 . S
C967 C966 1.367 . S
C967 C975 1.433 . S
C968 H964 0.929 . S
C968 C970 1.378 . S
C968 C972 1.350 . S
C969 C972 1.463 . S
C969 C974 1.350 . S
C969 N977 1.427 . S
C970 H961 0.930 . S
C970 C968 1.378 . S
C970 C971 1.367 . S
C971 C970 1.367 . S
C971 C973 1.433 . S
C972 C968 1.350 . S
C972 C969 1.463 . S
C972 N976 1.427 . S
C973 H963 0.929 . S
C973 C971 1.433 . S
C973 N976 1.384 . S
C974 H965 0.929 . S
C974 C966 1.378 . S
C974 C969 1.350 . S
C975 H962 0.929 . S
C975 C967 1.433 . S
C975 N977 1.384 . S
N976 C972 1.427 . S
N976 C973 1.384 . S
N977 C969 1.427 . S
N977 C975 1.384 . S
H978 C984 0.930 . S
H979 C988 0.930 . S
H980 C993 0.929 . S
H981 C991 0.929 . S
H982 C986 0.929 . S
H983 C992 0.929 . S
C984 H978 0.930 . S
C984 C985 1.367 1_565 S
C984 C992 1.378 . S
C985 C984 1.367 1_545 S
C985 C993 1.433 . S
C986 H982 0.929 . S
C986 C988 1.378 . S
C986 C990 1.350 1_545 S
C987 C990 1.463 1_545 S
C987 C992 1.350 1_545 S
C987 N995 1.427 . S
C988 H979 0.930 . S
C988 C986 1.378 . S
C988 C989 1.367 1_545 S
C989 C988 1.367 1_565 S
C989 C991 1.433 . S
C990 C986 1.350 1_565 S
C990 C987 1.463 1_565 S
C990 N994 1.427 . S
C991 H981 0.929 . S
C991 C989 1.433 . S
C991 N994 1.384 . S
C992 H983 0.929 . S
C992 C984 1.378 . S
C992 C987 1.350 1_565 S
C993 H980 0.929 . S
C993 C985 1.433 . S
C993 N995 1.384 . S
N994 C990 1.427 . S
N994 C991 1.384 . S
N995 C987 1.427 . S
N995 C993 1.384 . S
H996 C1002 0.930 . S
H997 C1006 0.930 . S
H998 C1011 0.929 . S
H999 C1009 0.929 . S
H1000 C1004 0.929 . S
H1001 C1010 0.929 . S
C1002 H996 0.930 . S
C1002 C1003 1.367 . S
C1002 C1010 1.378 . S
C1003 C1002 1.367 . S
C1003 C1011 1.433 1_554 S
C1004 H1000 0.929 . S
C1004 C1006 1.378 . S
C1004 C1008 1.350 . S
C1005 C1008 1.463 1_554 S
C1005 C1010 1.350 . S
C1005 N1013 1.427 1_554 S
C1006 H997 0.930 . S
C1006 C1004 1.378 . S
C1006 C1007 1.367 . S
C1007 C1006 1.367 . S
C1007 C1009 1.433 1_556 S
C1008 C1004 1.350 . S
C1008 C1005 1.463 1_556 S
C1008 N1012 1.427 1_556 S
C1009 H999 0.929 . S
C1009 C1007 1.433 1_554 S
C1009 N1012 1.384 . S
C1010 H1001 0.929 . S
C1010 C1002 1.378 . S
C1010 C1005 1.350 . S
C1011 H998 0.929 . S
C1011 C1003 1.433 1_556 S
C1011 N1013 1.384 . S
N1012 C1008 1.427 1_554 S
N1012 C1009 1.384 . S
N1013 C1005 1.427 1_556 S
N1013 C1011 1.384 . S
H1014 C1020 0.930 . S
H1015 C1024 0.930 . S
H1016 C1029 0.929 . S
H1017 C1027 0.929 . S
H1018 C1022 0.929 . S
H1019 C1028 0.929 . S
C1020 H1014 0.930 . S
C1020 C1021 1.367 . S
C1020 C1028 1.378 . S
C1021 C1020 1.367 . S
C1021 C1029 1.433 . S
C1022 H1018 0.929 . S
C1022 C1024 1.378 . S
C1022 C1026 1.350 . S
C1023 C1026 1.463 . S
C1023 C1028 1.350 . S
C1023 N1031 1.427 . S
C1024 H1015 0.930 . S
C1024 C1022 1.378 . S
C1024 C1025 1.367 . S
C1025 C1024 1.367 . S
C1025 C1027 1.433 . S
C1026 C1022 1.350 . S
C1026 C1023 1.463 . S
C1026 N1030 1.427 . S
C1027 H1017 0.929 . S
C1027 C1025 1.433 . S
C1027 N1030 1.384 . S
C1028 H1019 0.929 . S
C1028 C1020 1.378 . S
C1028 C1023 1.350 . S
C1029 H1016 0.929 . S
C1029 C1021 1.433 . S
C1029 N1031 1.384 . S
N1030 C1026 1.427 . S
N1030 C1027 1.384 . S
N1031 C1023 1.427 . S
N1031 C1029 1.384 . S
H1032 C1038 0.930 . S
H1033 C1042 0.930 . S
H1034 C1047 0.929 . S
H1035 C1045 0.929 . S
H1036 C1040 0.929 . S
H1037 C1046 0.929 . S
C1038 H1032 0.930 . S
C1038 C1039 1.367 . S
C1038 C1046 1.378 . S
C1039 C1038 1.367 . S
C1039 C1047 1.433 . S
C1040 H1036 0.929 . S
C1040 C1042 1.378 . S
C1040 C1044 1.350 . S
C1041 C1044 1.463 . S
C1041 C1046 1.350 . S
C1041 N1049 1.427 . S
C1042 H1033 0.930 . S
C1042 C1040 1.378 . S
C1042 C1043 1.367 . S
C1043 C1042 1.367 . S
C1043 C1045 1.433 . S
C1044 C1040 1.350 . S
C1044 C1041 1.463 . S
C1044 N1048 1.427 . S
C1045 H1035 0.929 . S
C1045 C1043 1.433 . S
C1045 N1048 1.384 . S
C1046 H1037 0.929 . S
C1046 C1038 1.378 . S
C1046 C1041 1.350 . S
C1047 H1034 0.929 . S
C1047 C1039 1.433 . S
C1047 N1049 1.384 . S
N1048 C1044 1.427 . S
N1048 C1045 1.384 . S
N1049 C1041 1.427 . S
N1049 C1047 1.384 . S
H1050 C1056 0.930 . S
H1051 C1060 0.930 . S
H1052 C1065 0.929 . S
H1053 C1063 0.929 . S
H1054 C1058 0.929 . S
H1055 C1064 0.929 . S
C1056 H1050 0.930 . S
C1056 C1057 1.367 . S
C1056 C1064 1.378 . S
C1057 C1056 1.367 . S
C1057 C1065 1.433 . S
C1058 H1054 0.929 . S
C1058 C1060 1.378 . S
C1058 C1062 1.350 . S
C1059 C1062 1.463 . S
C1059 C1064 1.350 . S
C1059 N1067 1.427 . S
C1060 H1051 0.930 . S
C1060 C1058 1.378 . S
C1060 C1061 1.367 . S
C1061 C1060 1.367 . S
C1061 C1063 1.433 . S
C1062 C1058 1.350 . S
C1062 C1059 1.463 . S
C1062 N1066 1.427 . S
C1063 H1053 0.929 . S
C1063 C1061 1.433 . S
C1063 N1066 1.384 . S
C1064 H1055 0.929 . S
C1064 C1056 1.378 . S
C1064 C1059 1.350 . S
C1065 H1052 0.929 . S
C1065 C1057 1.433 . S
C1065 N1067 1.384 . S
N1066 C1062 1.427 . S
N1066 C1063 1.384 . S
N1067 C1059 1.427 . S
N1067 C1065 1.384 . S
H1068 C1074 0.930 . S
H1069 C1078 0.930 . S
H1070 C1083 0.929 . S
H1071 C1081 0.929 . S
H1072 C1076 0.929 . S
H1073 C1082 0.929 . S
C1074 H1068 0.930 . S
C1074 C1075 1.367 1_565 S
C1074 C1082 1.378 . S
C1075 C1074 1.367 1_545 S
C1075 C1083 1.433 . S
C1076 H1072 0.929 . S
C1076 C1078 1.378 . S
C1076 C1080 1.350 1_545 S
C1077 C1080 1.463 1_545 S
C1077 C1082 1.350 1_545 S
C1077 N1085 1.427 . S
C1078 H1069 0.930 . S
C1078 C1076 1.378 . S
C1078 C1079 1.367 1_545 S
C1079 C1078 1.367 1_565 S
C1079 C1081 1.433 . S
C1080 C1076 1.350 1_565 S
C1080 C1077 1.463 1_565 S
C1080 N1084 1.427 . S
C1081 H1071 0.929 . S
C1081 C1079 1.433 . S
C1081 N1084 1.384 . S
C1082 H1073 0.929 . S
C1082 C1074 1.378 . S
C1082 C1077 1.350 1_565 S
C1083 H1070 0.929 . S
C1083 C1075 1.433 . S
C1083 N1085 1.384 . S
N1084 C1080 1.427 . S
N1084 C1081 1.384 . S
N1085 C1077 1.427 . S
N1085 C1083 1.384 . S
H1086 C1092 0.930 . S
H1087 C1096 0.930 . S
H1088 C1101 0.929 . S
H1089 C1099 0.929 . S
H1090 C1094 0.929 . S
H1091 C1100 0.929 . S
C1092 H1086 0.930 . S
C1092 C1093 1.367 . S
C1092 C1100 1.378 . S
C1093 C1092 1.367 . S
C1093 C1101 1.433 . S
C1094 H1090 0.929 . S
C1094 C1096 1.378 . S
C1094 C1098 1.350 . S
C1095 C1098 1.463 1_554 S
C1095 C1100 1.350 . S
C1095 N1103 1.427 . S
C1096 H1087 0.930 . S
C1096 C1094 1.378 . S
C1096 C1097 1.367 . S
C1097 C1096 1.367 . S
C1097 C1099 1.433 . S
C1098 C1094 1.350 . S
C1098 C1095 1.463 1_556 S
C1098 N1102 1.427 . S
C1099 H1089 0.929 . S
C1099 C1097 1.433 . S
C1099 N1102 1.384 . S
C1100 H1091 0.929 . S
C1100 C1092 1.378 . S
C1100 C1095 1.350 . S
C1101 H1088 0.929 . S
C1101 C1093 1.433 . S
C1101 N1103 1.384 . S
N1102 C1098 1.427 . S
N1102 C1099 1.384 . S
N1103 C1095 1.427 . S
N1103 C1101 1.384 . S
H1104 C1110 0.930 . S
H1105 C1114 0.930 . S
H1106 C1119 0.929 . S
H1107 C1117 0.929 . S
H1108 C1112 0.929 . S
H1109 C1118 0.929 . S
C1110 H1104 0.930 . S
C1110 C1111 1.367 . S
C1110 C1118 1.378 . S
C1111 C1110 1.367 . S
C1111 C1119 1.433 . S
C1112 H1108 0.929 . S
C1112 C1114 1.378 . S
C1112 C1116 1.350 . S
C1113 C1116 1.463 . S
C1113 C1118 1.350 . S
C1113 N1121 1.427 . S
C1114 H1105 0.930 . S
C1114 C1112 1.378 . S
C1114 C1115 1.367 . S
C1115 C1114 1.367 . S
C1115 C1117 1.433 . S
C1116 C1112 1.350 . S
C1116 C1113 1.463 . S
C1116 N1120 1.427 . S
C1117 H1107 0.929 . S
C1117 C1115 1.433 . S
C1117 N1120 1.384 . S
C1118 H1109 0.929 . S
C1118 C1110 1.378 . S
C1118 C1113 1.350 . S
C1119 H1106 0.929 . S
C1119 C1111 1.433 . S
C1119 N1121 1.384 . S
N1120 C1116 1.427 . S
N1120 C1117 1.384 . S
N1121 C1113 1.427 . S
N1121 C1119 1.384 . S
H1122 C1128 0.930 . S
H1123 C1132 0.930 . S
H1124 C1137 0.929 . S
H1125 C1135 0.929 . S
H1126 C1130 0.929 . S
H1127 C1136 0.929 . S
C1128 H1122 0.930 . S
C1128 C1129 1.367 . S
C1128 C1136 1.378 . S
C1129 C1128 1.367 . S
C1129 C1137 1.433 . S
C1130 H1126 0.929 . S
C1130 C1132 1.378 . S
C1130 C1134 1.350 . S
C1131 C1134 1.463 . S
C1131 C1136 1.350 . S
C1131 N1139 1.427 . S
C1132 H1123 0.930 . S
C1132 C1130 1.378 . S
C1132 C1133 1.367 . S
C1133 C1132 1.367 . S
C1133 C1135 1.433 . S
C1134 C1130 1.350 . S
C1134 C1131 1.463 . S
C1134 N1138 1.427 . S
C1135 H1125 0.929 . S
C1135 C1133 1.433 . S
C1135 N1138 1.384 . S
C1136 H1127 0.929 . S
C1136 C1128 1.378 . S
C1136 C1131 1.350 . S
C1137 H1124 0.929 . S
C1137 C1129 1.433 . S
C1137 N1139 1.384 . S
N1138 C1134 1.427 . S
N1138 C1135 1.384 . S
N1139 C1131 1.427 . S
N1139 C1137 1.384 . S
H1140 C1146 0.930 . S
H1141 C1150 0.930 . S
H1142 C1155 0.929 . S
H1143 C1153 0.929 . S
H1144 C1148 0.929 . S
H1145 C1154 0.929 . S
C1146 H1140 0.930 . S
C1146 C1147 1.367 . S
C1146 C1154 1.378 . S
C1147 C1146 1.367 . S
C1147 C1155 1.433 . S
C1148 H1144 0.929 . S
C1148 C1150 1.378 . S
C1148 C1152 1.350 . S
C1149 C1152 1.463 . S
C1149 C1154 1.350 . S
C1149 N1157 1.427 . S
C1150 H1141 0.930 . S
C1150 C1148 1.378 . S
C1150 C1151 1.367 . S
C1151 C1150 1.367 . S
C1151 C1153 1.433 . S
C1152 C1148 1.350 . S
C1152 C1149 1.463 . S
C1152 N1156 1.427 . S
C1153 H1143 0.929 . S
C1153 C1151 1.433 . S
C1153 N1156 1.384 . S
C1154 H1145 0.929 . S
C1154 C1146 1.378 . S
C1154 C1149 1.350 . S
C1155 H1142 0.929 . S
C1155 C1147 1.433 . S
C1155 N1157 1.384 . S
N1156 C1152 1.427 . S
N1156 C1153 1.384 . S
N1157 C1149 1.427 . S
N1157 C1155 1.384 . S
H1158 C1164 0.930 . S
H1159 C1168 0.930 . S
H1160 C1173 0.929 . S
H1161 C1171 0.929 . S
H1162 C1166 0.929 . S
H1163 C1172 0.929 . S
C1164 H1158 0.930 . S
C1164 C1165 1.367 . S
C1164 C1172 1.378 . S
C1165 C1164 1.367 . S
C1165 C1173 1.433 . S
C1166 H1162 0.929 . S
C1166 C1168 1.378 . S
C1166 C1170 1.350 . S
C1167 C1170 1.463 . S
C1167 C1172 1.350 . S
C1167 N1175 1.427 . S
C1168 H1159 0.930 . S
C1168 C1166 1.378 . S
C1168 C1169 1.367 . S
C1169 C1168 1.367 . S
C1169 C1171 1.433 . S
C1170 C1166 1.350 . S
C1170 C1167 1.463 . S
C1170 N1174 1.427 . S
C1171 H1161 0.929 . S
C1171 C1169 1.433 . S
C1171 N1174 1.384 . S
C1172 H1163 0.929 . S
C1172 C1164 1.378 . S
C1172 C1167 1.350 . S
C1173 H1160 0.929 . S
C1173 C1165 1.433 . S
C1173 N1175 1.384 . S
N1174 C1170 1.427 . S
N1174 C1171 1.384 . S
N1175 C1167 1.427 . S
N1175 C1173 1.384 . S
H1176 C1182 0.930 . S
H1177 C1186 0.930 . S
H1178 C1191 0.929 . S
H1179 C1189 0.929 . S
H1180 C1184 0.929 . S
H1181 C1190 0.929 . S
C1182 H1176 0.930 . S
C1182 C1183 1.367 . S
C1182 C1190 1.378 . S
C1183 C1182 1.367 . S
C1183 C1191 1.433 . S
C1184 H1180 0.929 . S
C1184 C1186 1.378 . S
C1184 C1188 1.350 . S
C1185 C1188 1.463 . S
C1185 C1190 1.350 . S
C1185 N1193 1.427 . S
C1186 H1177 0.930 . S
C1186 C1184 1.378 . S
C1186 C1187 1.367 . S
C1187 C1186 1.367 . S
C1187 C1189 1.433 . S
C1188 C1184 1.350 . S
C1188 C1185 1.463 . S
C1188 N1192 1.427 . S
C1189 H1179 0.929 . S
C1189 C1187 1.433 . S
C1189 N1192 1.384 . S
C1190 H1181 0.929 . S
C1190 C1182 1.378 . S
C1190 C1185 1.350 . S
C1191 H1178 0.929 . S
C1191 C1183 1.433 . S
C1191 N1193 1.384 . S
N1192 C1188 1.427 . S
N1192 C1189 1.384 . S
N1193 C1185 1.427 . S
N1193 C1191 1.384 . S
H1194 C1200 0.930 . S
H1195 C1204 0.930 . S
H1196 C1209 0.929 . S
H1197 C1207 0.929 . S
H1198 C1202 0.929 . S
H1199 C1208 0.929 . S
C1200 H1194 0.930 . S
C1200 C1201 1.367 . S
C1200 C1208 1.378 . S
C1201 C1200 1.367 . S
C1201 C1209 1.433 . S
C1202 H1198 0.929 . S
C1202 C1204 1.378 . S
C1202 C1206 1.350 . S
C1203 C1206 1.463 . S
C1203 C1208 1.350 . S
C1203 N1211 1.427 . S
C1204 H1195 0.930 . S
C1204 C1202 1.378 . S
C1204 C1205 1.367 . S
C1205 C1204 1.367 . S
C1205 C1207 1.433 . S
C1206 C1202 1.350 . S
C1206 C1203 1.463 . S
C1206 N1210 1.427 . S
C1207 H1197 0.929 . S
C1207 C1205 1.433 . S
C1207 N1210 1.384 . S
C1208 H1199 0.929 . S
C1208 C1200 1.378 . S
C1208 C1203 1.350 . S
C1209 H1196 0.929 . S
C1209 C1201 1.433 . S
C1209 N1211 1.384 . S
N1210 C1206 1.427 . S
N1210 C1207 1.384 . S
N1211 C1203 1.427 . S
N1211 C1209 1.384 . S
H1212 C1218 0.930 . S
H1213 C1222 0.930 . S
H1214 C1227 0.929 . S
H1215 C1225 0.929 . S
H1216 C1220 0.929 . S
H1217 C1226 0.929 . S
C1218 H1212 0.930 . S
C1218 C1219 1.367 . S
C1218 C1226 1.378 . S
C1219 C1218 1.367 . S
C1219 C1227 1.433 . S
C1220 H1216 0.929 . S
C1220 C1222 1.378 . S
C1220 C1224 1.350 . S
C1221 C1224 1.463 . S
C1221 C1226 1.350 . S
C1221 N1229 1.427 . S
C1222 H1213 0.930 . S
C1222 C1220 1.378 . S
C1222 C1223 1.367 . S
C1223 C1222 1.367 . S
C1223 C1225 1.433 . S
C1224 C1220 1.350 . S
C1224 C1221 1.463 . S
C1224 N1228 1.427 . S
C1225 H1215 0.929 . S
C1225 C1223 1.433 . S
C1225 N1228 1.384 . S
C1226 H1217 0.929 . S
C1226 C1218 1.378 . S
C1226 C1221 1.350 . S
C1227 H1214 0.929 . S
C1227 C1219 1.433 . S
C1227 N1229 1.384 . S
N1228 C1224 1.427 . S
N1228 C1225 1.384 . S
N1229 C1221 1.427 . S
N1229 C1227 1.384 . S
H1230 C1236 0.930 . S
H1231 C1240 0.930 . S
H1232 C1245 0.929 . S
H1233 C1243 0.929 . S
H1234 C1238 0.929 . S
H1235 C1244 0.929 . S
C1236 H1230 0.930 . S
C1236 C1237 1.367 . S
C1236 C1244 1.378 . S
C1237 C1236 1.367 . S
C1237 C1245 1.433 . S
C1238 H1234 0.929 . S
C1238 C1240 1.378 . S
C1238 C1242 1.350 . S
C1239 C1242 1.463 . S
C1239 C1244 1.350 . S
C1239 N1247 1.427 . S
C1240 H1231 0.930 . S
C1240 C1238 1.378 . S
C1240 C1241 1.367 . S
C1241 C1240 1.367 . S
C1241 C1243 1.433 . S
C1242 C1238 1.350 . S
C1242 C1239 1.463 . S
C1242 N1246 1.427 . S
C1243 H1233 0.929 . S
C1243 C1241 1.433 . S
C1243 N1246 1.384 . S
C1244 H1235 0.929 . S
C1244 C1236 1.378 . S
C1244 C1239 1.350 . S
C1245 H1232 0.929 . S
C1245 C1237 1.433 . S
C1245 N1247 1.384 . S
N1246 C1242 1.427 . S
N1246 C1243 1.384 . S
N1247 C1239 1.427 . S
N1247 C1245 1.384 . S
H1248 C1254 0.930 . S
H1249 C1258 0.930 . S
H1250 C1263 0.929 . S
H1251 C1261 0.929 . S
H1252 C1256 0.929 . S
H1253 C1262 0.929 . S
C1254 H1248 0.930 . S
C1254 C1255 1.367 . S
C1254 C1262 1.378 . S
C1255 C1254 1.367 . S
C1255 C1263 1.433 . S
C1256 H1252 0.929 . S
C1256 C1258 1.378 . S
C1256 C1260 1.350 . S
C1257 C1260 1.463 . S
C1257 C1262 1.350 . S
C1257 N1265 1.427 . S
C1258 H1249 0.930 . S
C1258 C1256 1.378 . S
C1258 C1259 1.367 . S
C1259 C1258 1.367 . S
C1259 C1261 1.433 . S
C1260 C1256 1.350 . S
C1260 C1257 1.463 . S
C1260 N1264 1.427 . S
C1261 H1251 0.929 . S
C1261 C1259 1.433 . S
C1261 N1264 1.384 . S
C1262 H1253 0.929 . S
C1262 C1254 1.378 . S
C1262 C1257 1.350 . S
C1263 H1250 0.929 . S
C1263 C1255 1.433 . S
C1263 N1265 1.384 . S
N1264 C1260 1.427 . S
N1264 C1261 1.384 . S
N1265 C1257 1.427 . S
N1265 C1263 1.384 . S
H1266 C1272 0.930 . S
H1267 C1276 0.930 . S
H1268 C1281 0.929 . S
H1269 C1279 0.929 . S
H1270 C1274 0.929 . S
H1271 C1280 0.929 . S
C1272 H1266 0.930 . S
C1272 C1273 1.367 . S
C1272 C1280 1.378 . S
C1273 C1272 1.367 . S
C1273 C1281 1.433 . S
C1274 H1270 0.929 . S
C1274 C1276 1.378 . S
C1274 C1278 1.350 . S
C1275 C1278 1.463 . S
C1275 C1280 1.350 . S
C1275 N1283 1.427 . S
C1276 H1267 0.930 . S
C1276 C1274 1.378 . S
C1276 C1277 1.367 . S
C1277 C1276 1.367 . S
C1277 C1279 1.433 . S
C1278 C1274 1.350 . S
C1278 C1275 1.463 . S
C1278 N1282 1.427 . S
C1279 H1269 0.929 . S
C1279 C1277 1.433 . S
C1279 N1282 1.384 . S
C1280 H1271 0.929 . S
C1280 C1272 1.378 . S
C1280 C1275 1.350 . S
C1281 H1268 0.929 . S
C1281 C1273 1.433 . S
C1281 N1283 1.384 . S
N1282 C1278 1.427 . S
N1282 C1279 1.384 . S
N1283 C1275 1.427 . S
N1283 C1281 1.384 . S
H1284 C1290 0.930 . S
H1285 C1294 0.930 . S
H1286 C1299 0.929 . S
H1287 C1297 0.929 . S
H1288 C1292 0.929 . S
H1289 C1298 0.929 . S
C1290 H1284 0.930 . S
C1290 C1291 1.367 . S
C1290 C1298 1.378 . S
C1291 C1290 1.367 . S
C1291 C1299 1.433 . S
C1292 H1288 0.929 . S
C1292 C1294 1.378 . S
C1292 C1296 1.350 . S
C1293 C1296 1.463 . S
C1293 C1298 1.350 . S
C1293 N1301 1.427 . S
C1294 H1285 0.930 . S
C1294 C1292 1.378 . S
C1294 C1295 1.367 . S
C1295 C1294 1.367 . S
C1295 C1297 1.433 . S
C1296 C1292 1.350 . S
C1296 C1293 1.463 . S
C1296 N1300 1.427 . S
C1297 H1287 0.929 . S
C1297 C1295 1.433 . S
C1297 N1300 1.384 . S
C1298 H1289 0.929 . S
C1298 C1290 1.378 . S
C1298 C1293 1.350 . S
C1299 H1286 0.929 . S
C1299 C1291 1.433 . S
C1299 N1301 1.384 . S
N1300 C1296 1.427 . S
N1300 C1297 1.384 . S
N1301 C1293 1.427 . S
N1301 C1299 1.384 . S
H1302 C1308 0.930 . S
H1303 C1312 0.930 . S
H1304 C1317 0.929 . S
H1305 C1315 0.929 . S
H1306 C1310 0.929 . S
H1307 C1316 0.929 . S
C1308 H1302 0.930 . S
C1308 C1309 1.367 . S
C1308 C1316 1.378 . S
C1309 C1308 1.367 . S
C1309 C1317 1.433 . S
C1310 H1306 0.929 . S
C1310 C1312 1.378 . S
C1310 C1314 1.350 . S
C1311 C1314 1.463 . S
C1311 C1316 1.350 . S
C1311 N1319 1.427 . S
C1312 H1303 0.930 . S
C1312 C1310 1.378 . S
C1312 C1313 1.367 . S
C1313 C1312 1.367 . S
C1313 C1315 1.433 . S
C1314 C1310 1.350 . S
C1314 C1311 1.463 . S
C1314 N1318 1.427 . S
C1315 H1305 0.929 . S
C1315 C1313 1.433 . S
C1315 N1318 1.384 . S
C1316 H1307 0.929 . S
C1316 C1308 1.378 . S
C1316 C1311 1.350 . S
C1317 H1304 0.929 . S
C1317 C1309 1.433 . S
C1317 N1319 1.384 . S
N1318 C1314 1.427 . S
N1318 C1315 1.384 . S
N1319 C1311 1.427 . S
N1319 C1317 1.384 . S
H1320 C1326 0.930 . S
H1321 C1330 0.930 . S
H1322 C1335 0.929 . S
H1323 C1333 0.929 . S
H1324 C1328 0.929 . S
H1325 C1334 0.929 . S
C1326 H1320 0.930 . S
C1326 C1327 1.367 . S
C1326 C1334 1.378 . S
C1327 C1326 1.367 . S
C1327 C1335 1.433 . S
C1328 H1324 0.929 . S
C1328 C1330 1.378 . S
C1328 C1332 1.350 . S
C1329 C1332 1.463 . S
C1329 C1334 1.350 . S
C1329 N1337 1.427 . S
C1330 H1321 0.930 . S
C1330 C1328 1.378 . S
C1330 C1331 1.367 . S
C1331 C1330 1.367 . S
C1331 C1333 1.433 . S
C1332 C1328 1.350 . S
C1332 C1329 1.463 . S
C1332 N1336 1.427 . S
C1333 H1323 0.929 . S
C1333 C1331 1.433 . S
C1333 N1336 1.384 . S
C1334 H1325 0.929 . S
C1334 C1326 1.378 . S
C1334 C1329 1.350 . S
C1335 H1322 0.929 . S
C1335 C1327 1.433 . S
C1335 N1337 1.384 . S
N1336 C1332 1.427 . S
N1336 C1333 1.384 . S
N1337 C1329 1.427 . S
N1337 C1335 1.384 . S
H1338 C1344 0.930 . S
H1339 C1348 0.930 . S
H1340 C1353 0.929 . S
H1341 C1351 0.929 . S
H1342 C1346 0.929 . S
H1343 C1352 0.929 . S
C1344 H1338 0.930 . S
C1344 C1345 1.367 . S
C1344 C1352 1.378 . S
C1345 C1344 1.367 . S
C1345 C1353 1.433 . S
C1346 H1342 0.929 . S
C1346 C1348 1.378 . S
C1346 C1350 1.350 . S
C1347 C1350 1.463 . S
C1347 C1352 1.350 . S
C1347 N1355 1.427 . S
C1348 H1339 0.930 . S
C1348 C1346 1.378 . S
C1348 C1349 1.367 . S
C1349 C1348 1.367 . S
C1349 C1351 1.433 . S
C1350 C1346 1.350 . S
C1350 C1347 1.463 . S
C1350 N1354 1.427 . S
C1351 H1341 0.929 . S
C1351 C1349 1.433 . S
C1351 N1354 1.384 . S
C1352 H1343 0.929 . S
C1352 C1344 1.378 . S
C1352 C1347 1.350 . S
C1353 H1340 0.929 . S
C1353 C1345 1.433 . S
C1353 N1355 1.384 . S
N1354 C1350 1.427 . S
N1354 C1351 1.384 . S
N1355 C1347 1.427 . S
N1355 C1353 1.384 . S
H1356 C1362 0.930 . S
H1357 C1366 0.930 . S
H1358 C1371 0.929 . S
H1359 C1369 0.929 . S
H1360 C1364 0.929 . S
H1361 C1370 0.929 . S
C1362 H1356 0.930 . S
C1362 C1363 1.367 . S
C1362 C1370 1.378 . S
C1363 C1362 1.367 . S
C1363 C1371 1.433 . S
C1364 H1360 0.929 . S
C1364 C1366 1.378 . S
C1364 C1368 1.350 . S
C1365 C1368 1.463 . S
C1365 C1370 1.350 . S
C1365 N1373 1.427 . S
C1366 H1357 0.930 . S
C1366 C1364 1.378 . S
C1366 C1367 1.367 . S
C1367 C1366 1.367 . S
C1367 C1369 1.433 . S
C1368 C1364 1.350 . S
C1368 C1365 1.463 . S
C1368 N1372 1.427 . S
C1369 H1359 0.929 . S
C1369 C1367 1.433 . S
C1369 N1372 1.384 . S
C1370 H1361 0.929 . S
C1370 C1362 1.378 . S
C1370 C1365 1.350 . S
C1371 H1358 0.929 . S
C1371 C1363 1.433 . S
C1371 N1373 1.384 . S
N1372 C1368 1.427 . S
N1372 C1369 1.384 . S
N1373 C1365 1.427 . S
N1373 C1371 1.384 . S
H1374 C1380 0.930 . S
H1375 C1384 0.930 . S
H1376 C1389 0.929 . S
H1377 C1387 0.929 . S
H1378 C1382 0.929 . S
H1379 C1388 0.929 . S
C1380 H1374 0.930 . S
C1380 C1381 1.367 . S
C1380 C1388 1.378 . S
C1381 C1380 1.367 . S
C1381 C1389 1.433 . S
C1382 H1378 0.929 . S
C1382 C1384 1.378 . S
C1382 C1386 1.350 . S
C1383 C1386 1.463 . S
C1383 C1388 1.350 . S
C1383 N1391 1.427 . S
C1384 H1375 0.930 . S
C1384 C1382 1.378 . S
C1384 C1385 1.367 . S
C1385 C1384 1.367 . S
C1385 C1387 1.433 . S
C1386 C1382 1.350 . S
C1386 C1383 1.463 . S
C1386 N1390 1.427 . S
C1387 H1377 0.929 . S
C1387 C1385 1.433 . S
C1387 N1390 1.384 . S
C1388 H1379 0.929 . S
C1388 C1380 1.378 . S
C1388 C1383 1.350 . S
C1389 H1376 0.929 . S
C1389 C1381 1.433 . S
C1389 N1391 1.384 . S
N1390 C1386 1.427 . S
N1390 C1387 1.384 . S
N1391 C1383 1.427 . S
N1391 C1389 1.384 . S
H1392 C1398 0.930 . S
H1393 C1402 0.930 . S
H1394 C1407 0.929 . S
H1395 C1405 0.929 . S
H1396 C1400 0.929 . S
H1397 C1406 0.929 . S
C1398 H1392 0.930 . S
C1398 C1399 1.367 . S
C1398 C1406 1.378 . S
C1399 C1398 1.367 . S
C1399 C1407 1.433 . S
C1400 H1396 0.929 . S
C1400 C1402 1.378 . S
C1400 C1404 1.350 . S
C1401 C1404 1.463 . S
C1401 C1406 1.350 . S
C1401 N1409 1.427 . S
C1402 H1393 0.930 . S
C1402 C1400 1.378 . S
C1402 C1403 1.367 . S
C1403 C1402 1.367 . S
C1403 C1405 1.433 . S
C1404 C1400 1.350 . S
C1404 C1401 1.463 . S
C1404 N1408 1.427 . S
C1405 H1395 0.929 . S
C1405 C1403 1.433 . S
C1405 N1408 1.384 . S
C1406 H1397 0.929 . S
C1406 C1398 1.378 . S
C1406 C1401 1.350 . S
C1407 H1394 0.929 . S
C1407 C1399 1.433 . S
C1407 N1409 1.384 . S
N1408 C1404 1.427 . S
N1408 C1405 1.384 . S
N1409 C1401 1.427 . S
N1409 C1407 1.384 . S
H1410 C1416 0.930 . S
H1411 C1420 0.930 . S
H1412 C1425 0.929 . S
H1413 C1423 0.929 . S
H1414 C1418 0.929 . S
H1415 C1424 0.929 . S
C1416 H1410 0.930 . S
C1416 C1417 1.367 . S
C1416 C1424 1.378 . S
C1417 C1416 1.367 . S
C1417 C1425 1.433 . S
C1418 H1414 0.929 . S
C1418 C1420 1.378 . S
C1418 C1422 1.350 . S
C1419 C1422 1.463 . S
C1419 C1424 1.350 . S
C1419 N1427 1.427 . S
C1420 H1411 0.930 . S
C1420 C1418 1.378 . S
C1420 C1421 1.367 . S
C1421 C1420 1.367 . S
C1421 C1423 1.433 . S
C1422 C1418 1.350 . S
C1422 C1419 1.463 . S
C1422 N1426 1.427 . S
C1423 H1413 0.929 . S
C1423 C1421 1.433 . S
C1423 N1426 1.384 . S
C1424 H1415 0.929 . S
C1424 C1416 1.378 . S
C1424 C1419 1.350 . S
C1425 H1412 0.929 . S
C1425 C1417 1.433 . S
C1425 N1427 1.384 . S
N1426 C1422 1.427 . S
N1426 C1423 1.384 . S
N1427 C1419 1.427 . S
N1427 C1425 1.384 . S
H1428 C1434 0.930 . S
H1429 C1438 0.930 . S
H1430 C1443 0.929 . S
H1431 C1441 0.929 . S
H1432 C1436 0.929 . S
H1433 C1442 0.929 . S
C1434 H1428 0.930 . S
C1434 C1435 1.367 . S
C1434 C1442 1.378 . S
C1435 C1434 1.367 . S
C1435 C1443 1.433 . S
C1436 H1432 0.929 . S
C1436 C1438 1.378 . S
C1436 C1440 1.350 . S
C1437 C1440 1.463 . S
C1437 C1442 1.350 . S
C1437 N1445 1.427 . S
C1438 H1429 0.930 . S
C1438 C1436 1.378 . S
C1438 C1439 1.367 . S
C1439 C1438 1.367 . S
C1439 C1441 1.433 . S
C1440 C1436 1.350 . S
C1440 C1437 1.463 . S
C1440 N1444 1.427 . S
C1441 H1431 0.929 . S
C1441 C1439 1.433 . S
C1441 N1444 1.384 . S
C1442 H1433 0.929 . S
C1442 C1434 1.378 . S
C1442 C1437 1.350 . S
C1443 H1430 0.929 . S
C1443 C1435 1.433 . S
C1443 N1445 1.384 . S
N1444 C1440 1.427 . S
N1444 C1441 1.384 . S
N1445 C1437 1.427 . S
N1445 C1443 1.384 . S
H1446 C1452 0.930 . S
H1447 C1456 0.930 . S
H1448 C1461 0.929 . S
H1449 C1459 0.929 . S
H1450 C1454 0.929 . S
H1451 C1460 0.929 . S
C1452 H1446 0.930 . S
C1452 C1453 1.367 . S
C1452 C1460 1.378 . S
C1453 C1452 1.367 . S
C1453 C1461 1.433 . S
C1454 H1450 0.929 . S
C1454 C1456 1.378 . S
C1454 C1458 1.350 . S
C1455 C1458 1.463 . S
C1455 C1460 1.350 . S
C1455 N1463 1.427 . S
C1456 H1447 0.930 . S
C1456 C1454 1.378 . S
C1456 C1457 1.367 . S
C1457 C1456 1.367 . S
C1457 C1459 1.433 . S
C1458 C1454 1.350 . S
C1458 C1455 1.463 . S
C1458 N1462 1.427 . S
C1459 H1449 0.929 . S
C1459 C1457 1.433 . S
C1459 N1462 1.384 . S
C1460 H1451 0.929 . S
C1460 C1452 1.378 . S
C1460 C1455 1.350 . S
C1461 H1448 0.929 . S
C1461 C1453 1.433 . S
C1461 N1463 1.384 . S
N1462 C1458 1.427 . S
N1462 C1459 1.384 . S
N1463 C1455 1.427 . S
N1463 C1461 1.384 . S
H1464 C1470 0.930 . S
H1465 C1474 0.930 . S
H1466 C1479 0.929 . S
H1467 C1477 0.929 . S
H1468 C1472 0.929 . S
H1469 C1478 0.929 . S
C1470 H1464 0.930 . S
C1470 C1471 1.367 . S
C1470 C1478 1.378 . S
C1471 C1470 1.367 . S
C1471 C1479 1.433 . S
C1472 H1468 0.929 . S
C1472 C1474 1.378 . S
C1472 C1476 1.350 . S
C1473 C1476 1.463 . S
C1473 C1478 1.350 . S
C1473 N1481 1.427 . S
C1474 H1465 0.930 . S
C1474 C1472 1.378 . S
C1474 C1475 1.367 . S
C1475 C1474 1.367 . S
C1475 C1477 1.433 . S
C1476 C1472 1.350 . S
C1476 C1473 1.463 . S
C1476 N1480 1.427 . S
C1477 H1467 0.929 . S
C1477 C1475 1.433 . S
C1477 N1480 1.384 . S
C1478 H1469 0.929 . S
C1478 C1470 1.378 . S
C1478 C1473 1.350 . S
C1479 H1466 0.929 . S
C1479 C1471 1.433 . S
C1479 N1481 1.384 . S
N1480 C1476 1.427 . S
N1480 C1477 1.384 . S
N1481 C1473 1.427 . S
N1481 C1479 1.384 . S
H1482 C1488 0.930 . S
H1483 C1492 0.930 . S
H1484 C1497 0.929 . S
H1485 C1495 0.929 . S
H1486 C1490 0.929 . S
H1487 C1496 0.929 . S
C1488 H1482 0.930 . S
C1488 C1489 1.367 . S
C1488 C1496 1.378 . S
C1489 C1488 1.367 . S
C1489 C1497 1.433 . S
C1490 H1486 0.929 . S
C1490 C1492 1.378 . S
C1490 C1494 1.350 . S
C1491 C1494 1.463 . S
C1491 C1496 1.350 . S
C1491 N1499 1.427 . S
C1492 H1483 0.930 . S
C1492 C1490 1.378 . S
C1492 C1493 1.367 . S
C1493 C1492 1.367 . S
C1493 C1495 1.433 . S
C1494 C1490 1.350 . S
C1494 C1491 1.463 . S
C1494 N1498 1.427 . S
C1495 H1485 0.929 . S
C1495 C1493 1.433 . S
C1495 N1498 1.384 . S
C1496 H1487 0.929 . S
C1496 C1488 1.378 . S
C1496 C1491 1.350 . S
C1497 H1484 0.929 . S
C1497 C1489 1.433 . S
C1497 N1499 1.384 . S
N1498 C1494 1.427 . S
N1498 C1495 1.384 . S
N1499 C1491 1.427 . S
N1499 C1497 1.384 . S
H1500 C1506 0.930 . S
H1501 C1510 0.930 . S
H1502 C1515 0.929 . S
H1503 C1513 0.929 . S
H1504 C1508 0.929 . S
H1505 C1514 0.929 . S
C1506 H1500 0.930 . S
C1506 C1507 1.367 . S
C1506 C1514 1.378 . S
C1507 C1506 1.367 . S
C1507 C1515 1.433 . S
C1508 H1504 0.929 . S
C1508 C1510 1.378 . S
C1508 C1512 1.350 . S
C1509 C1512 1.463 . S
C1509 C1514 1.350 . S
C1509 N1517 1.427 . S
C1510 H1501 0.930 . S
C1510 C1508 1.378 . S
C1510 C1511 1.367 . S
C1511 C1510 1.367 . S
C1511 C1513 1.433 . S
C1512 C1508 1.350 . S
C1512 C1509 1.463 . S
C1512 N1516 1.427 . S
C1513 H1503 0.929 . S
C1513 C1511 1.433 . S
C1513 N1516 1.384 . S
C1514 H1505 0.929 . S
C1514 C1506 1.378 . S
C1514 C1509 1.350 . S
C1515 H1502 0.929 . S
C1515 C1507 1.433 . S
C1515 N1517 1.384 . S
N1516 C1512 1.427 . S
N1516 C1513 1.384 . S
N1517 C1509 1.427 . S
N1517 C1515 1.384 . S
H1518 C1524 0.930 . S
H1519 C1528 0.930 . S
H1520 C1533 0.929 . S
H1521 C1531 0.929 . S
H1522 C1526 0.929 . S
H1523 C1532 0.929 . S
C1524 H1518 0.930 . S
C1524 C1525 1.367 . S
C1524 C1532 1.378 . S
C1525 C1524 1.367 . S
C1525 C1533 1.433 . S
C1526 H1522 0.929 . S
C1526 C1528 1.378 . S
C1526 C1530 1.350 . S
C1527 C1530 1.463 . S
C1527 C1532 1.350 . S
C1527 N1535 1.427 . S
C1528 H1519 0.930 . S
C1528 C1526 1.378 . S
C1528 C1529 1.367 . S
C1529 C1528 1.367 . S
C1529 C1531 1.433 . S
C1530 C1526 1.350 . S
C1530 C1527 1.463 . S
C1530 N1534 1.427 . S
C1531 H1521 0.929 . S
C1531 C1529 1.433 . S
C1531 N1534 1.384 . S
C1532 H1523 0.929 . S
C1532 C1524 1.378 . S
C1532 C1527 1.350 . S
C1533 H1520 0.929 . S
C1533 C1525 1.433 . S
C1533 N1535 1.384 . S
N1534 C1530 1.427 . S
N1534 C1531 1.384 . S
N1535 C1527 1.427 . S
N1535 C1533 1.384 . S
H1536 C1542 0.930 . S
H1537 C1546 0.930 . S
H1538 C1551 0.929 . S
H1539 C1549 0.929 . S
H1540 C1544 0.929 . S
H1541 C1550 0.929 . S
C1542 H1536 0.930 . S
C1542 C1543 1.367 . S
C1542 C1550 1.378 . S
C1543 C1542 1.367 . S
C1543 C1551 1.433 . S
C1544 H1540 0.929 . S
C1544 C1546 1.378 . S
C1544 C1548 1.350 . S
C1545 C1548 1.463 . S
C1545 C1550 1.350 . S
C1545 N1553 1.427 . S
C1546 H1537 0.930 . S
C1546 C1544 1.378 . S
C1546 C1547 1.367 . S
C1547 C1546 1.367 . S
C1547 C1549 1.433 . S
C1548 C1544 1.350 . S
C1548 C1545 1.463 . S
C1548 N1552 1.427 . S
C1549 H1539 0.929 . S
C1549 C1547 1.433 . S
C1549 N1552 1.384 . S
C1550 H1541 0.929 . S
C1550 C1542 1.378 . S
C1550 C1545 1.350 . S
C1551 H1538 0.929 . S
C1551 C1543 1.433 . S
C1551 N1553 1.384 . S
N1552 C1548 1.427 . S
N1552 C1549 1.384 . S
N1553 C1545 1.427 . S
N1553 C1551 1.384 . S
H1554 C1560 0.930 . S
H1555 C1564 0.930 . S
H1556 C1569 0.929 . S
H1557 C1567 0.929 . S
H1558 C1562 0.929 . S
H1559 C1568 0.929 . S
C1560 H1554 0.930 . S
C1560 C1561 1.367 . S
C1560 C1568 1.378 . S
C1561 C1560 1.367 . S
C1561 C1569 1.433 . S
C1562 H1558 0.929 . S
C1562 C1564 1.378 . S
C1562 C1566 1.350 . S
C1563 C1566 1.463 . S
C1563 C1568 1.350 . S
C1563 N1571 1.427 . S
C1564 H1555 0.930 . S
C1564 C1562 1.378 . S
C1564 C1565 1.367 . S
C1565 C1564 1.367 . S
C1565 C1567 1.433 . S
C1566 C1562 1.350 . S
C1566 C1563 1.463 . S
C1566 N1570 1.427 . S
C1567 H1557 0.929 . S
C1567 C1565 1.433 . S
C1567 N1570 1.384 . S
C1568 H1559 0.929 . S
C1568 C1560 1.378 . S
C1568 C1563 1.350 . S
C1569 H1556 0.929 . S
C1569 C1561 1.433 . S
C1569 N1571 1.384 . S
N1570 C1566 1.427 . S
N1570 C1567 1.384 . S
N1571 C1563 1.427 . S
N1571 C1569 1.384 . S
H1572 C1578 0.930 . S
H1573 C1582 0.930 . S
H1574 C1587 0.929 . S
H1575 C1585 0.929 . S
H1576 C1580 0.929 . S
H1577 C1586 0.929 . S
C1578 H1572 0.930 . S
C1578 C1579 1.367 . S
C1578 C1586 1.378 . S
C1579 C1578 1.367 . S
C1579 C1587 1.433 . S
C1580 H1576 0.929 . S
C1580 C1582 1.378 . S
C1580 C1584 1.350 . S
C1581 C1584 1.463 . S
C1581 C1586 1.350 . S
C1581 N1589 1.427 . S
C1582 H1573 0.930 . S
C1582 C1580 1.378 . S
C1582 C1583 1.367 . S
C1583 C1582 1.367 . S
C1583 C1585 1.433 . S
C1584 C1580 1.350 . S
C1584 C1581 1.463 . S
C1584 N1588 1.427 . S
C1585 H1575 0.929 . S
C1585 C1583 1.433 . S
C1585 N1588 1.384 . S
C1586 H1577 0.929 . S
C1586 C1578 1.378 . S
C1586 C1581 1.350 . S
C1587 H1574 0.929 . S
C1587 C1579 1.433 . S
C1587 N1589 1.384 . S
N1588 C1584 1.427 . S
N1588 C1585 1.384 . S
N1589 C1581 1.427 . S
N1589 C1587 1.384 . S
H1590 C1596 0.930 . S
H1591 C1600 0.930 . S
H1592 C1605 0.929 . S
H1593 C1603 0.929 . S
H1594 C1598 0.929 . S
H1595 C1604 0.929 . S
C1596 H1590 0.930 . S
C1596 C1597 1.367 . S
C1596 C1604 1.378 . S
C1597 C1596 1.367 . S
C1597 C1605 1.433 . S
C1598 H1594 0.929 . S
C1598 C1600 1.378 . S
C1598 C1602 1.350 . S
C1599 C1602 1.463 . S
C1599 C1604 1.350 . S
C1599 N1607 1.427 . S
C1600 H1591 0.930 . S
C1600 C1598 1.378 . S
C1600 C1601 1.367 . S
C1601 C1600 1.367 . S
C1601 C1603 1.433 . S
C1602 C1598 1.350 . S
C1602 C1599 1.463 . S
C1602 N1606 1.427 . S
C1603 H1593 0.929 . S
C1603 C1601 1.433 . S
C1603 N1606 1.384 . S
C1604 H1595 0.929 . S
C1604 C1596 1.378 . S
C1604 C1599 1.350 . S
C1605 H1592 0.929 . S
C1605 C1597 1.433 . S
C1605 N1607 1.384 . S
N1606 C1602 1.427 . S
N1606 C1603 1.384 . S
N1607 C1599 1.427 . S
N1607 C1605 1.384 . S
H1608 C1614 0.930 . S
H1609 C1618 0.930 . S
H1610 C1623 0.929 . S
H1611 C1621 0.929 . S
H1612 C1616 0.929 . S
H1613 C1622 0.929 . S
C1614 H1608 0.930 . S
C1614 C1615 1.367 . S
C1614 C1622 1.378 . S
C1615 C1614 1.367 . S
C1615 C1623 1.433 . S
C1616 H1612 0.929 . S
C1616 C1618 1.378 . S
C1616 C1620 1.350 . S
C1617 C1620 1.463 . S
C1617 C1622 1.350 . S
C1617 N1625 1.427 . S
C1618 H1609 0.930 . S
C1618 C1616 1.378 . S
C1618 C1619 1.367 . S
C1619 C1618 1.367 . S
C1619 C1621 1.433 . S
C1620 C1616 1.350 . S
C1620 C1617 1.463 . S
C1620 N1624 1.427 . S
C1621 H1611 0.929 . S
C1621 C1619 1.433 . S
C1621 N1624 1.384 . S
C1622 H1613 0.929 . S
C1622 C1614 1.378 . S
C1622 C1617 1.350 . S
C1623 H1610 0.929 . S
C1623 C1615 1.433 . S
C1623 N1625 1.384 . S
N1624 C1620 1.427 . S
N1624 C1621 1.384 . S
N1625 C1617 1.427 . S
N1625 C1623 1.384 . S
H1626 C1632 0.930 . S
H1627 C1636 0.930 . S
H1628 C1641 0.929 . S
H1629 C1639 0.929 . S
H1630 C1634 0.929 . S
H1631 C1640 0.929 . S
C1632 H1626 0.930 . S
C1632 C1633 1.367 . S
C1632 C1640 1.378 . S
C1633 C1632 1.367 . S
C1633 C1641 1.433 . S
C1634 H1630 0.929 . S
C1634 C1636 1.378 . S
C1634 C1638 1.350 . S
C1635 C1638 1.463 . S
C1635 C1640 1.350 . S
C1635 N1643 1.427 . S
C1636 H1627 0.930 . S
C1636 C1634 1.378 . S
C1636 C1637 1.367 . S
C1637 C1636 1.367 . S
C1637 C1639 1.433 . S
C1638 C1634 1.350 . S
C1638 C1635 1.463 . S
C1638 N1642 1.427 . S
C1639 H1629 0.929 . S
C1639 C1637 1.433 . S
C1639 N1642 1.384 . S
C1640 H1631 0.929 . S
C1640 C1632 1.378 . S
C1640 C1635 1.350 . S
C1641 H1628 0.929 . S
C1641 C1633 1.433 . S
C1641 N1643 1.384 . S
N1642 C1638 1.427 . S
N1642 C1639 1.384 . S
N1643 C1635 1.427 . S
N1643 C1641 1.384 . S
H1644 C1650 0.930 . S
H1645 C1654 0.930 . S
H1646 C1659 0.929 . S
H1647 C1657 0.929 . S
H1648 C1652 0.929 . S
H1649 C1658 0.929 . S
C1650 H1644 0.930 . S
C1650 C1651 1.367 . S
C1650 C1658 1.378 . S
C1651 C1650 1.367 . S
C1651 C1659 1.433 . S
C1652 H1648 0.929 . S
C1652 C1654 1.378 . S
C1652 C1656 1.350 . S
C1653 C1656 1.463 . S
C1653 C1658 1.350 . S
C1653 N1661 1.427 . S
C1654 H1645 0.930 . S
C1654 C1652 1.378 . S
C1654 C1655 1.367 . S
C1655 C1654 1.367 . S
C1655 C1657 1.433 . S
C1656 C1652 1.350 . S
C1656 C1653 1.463 . S
C1656 N1660 1.427 . S
C1657 H1647 0.929 . S
C1657 C1655 1.433 . S
C1657 N1660 1.384 . S
C1658 H1649 0.929 . S
C1658 C1650 1.378 . S
C1658 C1653 1.350 . S
C1659 H1646 0.929 . S
C1659 C1651 1.433 . S
C1659 N1661 1.384 . S
N1660 C1656 1.427 . S
N1660 C1657 1.384 . S
N1661 C1653 1.427 . S
N1661 C1659 1.384 . S
H1662 C1668 0.930 . S
H1663 C1672 0.930 . S
H1664 C1677 0.929 . S
H1665 C1675 0.929 . S
H1666 C1670 0.929 . S
H1667 C1676 0.929 . S
C1668 H1662 0.930 . S
C1668 C1669 1.367 . S
C1668 C1676 1.378 . S
C1669 C1668 1.367 . S
C1669 C1677 1.433 . S
C1670 H1666 0.929 . S
C1670 C1672 1.378 . S
C1670 C1674 1.350 . S
C1671 C1674 1.463 . S
C1671 C1676 1.350 . S
C1671 N1679 1.427 . S
C1672 H1663 0.930 . S
C1672 C1670 1.378 . S
C1672 C1673 1.367 . S
C1673 C1672 1.367 . S
C1673 C1675 1.433 . S
C1674 C1670 1.350 . S
C1674 C1671 1.463 . S
C1674 N1678 1.427 . S
C1675 H1665 0.929 . S
C1675 C1673 1.433 . S
C1675 N1678 1.384 . S
C1676 H1667 0.929 . S
C1676 C1668 1.378 . S
C1676 C1671 1.350 . S
C1677 H1664 0.929 . S
C1677 C1669 1.433 . S
C1677 N1679 1.384 . S
N1678 C1674 1.427 . S
N1678 C1675 1.384 . S
N1679 C1671 1.427 . S
N1679 C1677 1.384 . S
H1680 C1686 0.930 . S
H1681 C1690 0.930 . S
H1682 C1695 0.929 . S
H1683 C1693 0.929 . S
H1684 C1688 0.929 . S
H1685 C1694 0.929 . S
C1686 H1680 0.930 . S
C1686 C1687 1.367 . S
C1686 C1694 1.378 . S
C1687 C1686 1.367 . S
C1687 C1695 1.433 . S
C1688 H1684 0.929 . S
C1688 C1690 1.378 . S
C1688 C1692 1.350 . S
C1689 C1692 1.463 . S
C1689 C1694 1.350 . S
C1689 N1697 1.427 . S
C1690 H1681 0.930 . S
C1690 C1688 1.378 . S
C1690 C1691 1.367 . S
C1691 C1690 1.367 . S
C1691 C1693 1.433 . S
C1692 C1688 1.350 . S
C1692 C1689 1.463 . S
C1692 N1696 1.427 . S
C1693 H1683 0.929 . S
C1693 C1691 1.433 . S
C1693 N1696 1.384 . S
C1694 H1685 0.929 . S
C1694 C1686 1.378 . S
C1694 C1689 1.350 . S
C1695 H1682 0.929 . S
C1695 C1687 1.433 . S
C1695 N1697 1.384 . S
N1696 C1692 1.427 . S
N1696 C1693 1.384 . S
N1697 C1689 1.427 . S
N1697 C1695 1.384 . S
H1698 C1704 0.930 . S
H1699 C1708 0.930 . S
H1700 C1713 0.929 . S
H1701 C1711 0.929 . S
H1702 C1706 0.929 . S
H1703 C1712 0.929 . S
C1704 H1698 0.930 . S
C1704 C1705 1.367 . S
C1704 C1712 1.378 . S
C1705 C1704 1.367 . S
C1705 C1713 1.433 . S
C1706 H1702 0.929 . S
C1706 C1708 1.378 . S
C1706 C1710 1.350 . S
C1707 C1710 1.463 . S
C1707 C1712 1.350 . S
C1707 N1715 1.427 . S
C1708 H1699 0.930 . S
C1708 C1706 1.378 . S
C1708 C1709 1.367 . S
C1709 C1708 1.367 . S
C1709 C1711 1.433 . S
C1710 C1706 1.350 . S
C1710 C1707 1.463 . S
C1710 N1714 1.427 . S
C1711 H1701 0.929 . S
C1711 C1709 1.433 . S
C1711 N1714 1.384 . S
C1712 H1703 0.929 . S
C1712 C1704 1.378 . S
C1712 C1707 1.350 . S
C1713 H1700 0.929 . S
C1713 C1705 1.433 . S
C1713 N1715 1.384 . S
N1714 C1710 1.427 . S
N1714 C1711 1.384 . S
N1715 C1707 1.427 . S
N1715 C1713 1.384 . S
H1716 C1722 0.930 . S
H1717 C1726 0.930 . S
H1718 C1731 0.929 . S
H1719 C1729 0.929 . S
H1720 C1724 0.929 . S
H1721 C1730 0.929 . S
C1722 H1716 0.930 . S
C1722 C1723 1.367 . S
C1722 C1730 1.378 . S
C1723 C1722 1.367 . S
C1723 C1731 1.433 . S
C1724 H1720 0.929 . S
C1724 C1726 1.378 . S
C1724 C1728 1.350 . S
C1725 C1728 1.463 . S
C1725 C1730 1.350 . S
C1725 N1733 1.427 . S
C1726 H1717 0.930 . S
C1726 C1724 1.378 . S
C1726 C1727 1.367 . S
C1727 C1726 1.367 . S
C1727 C1729 1.433 . S
C1728 C1724 1.350 . S
C1728 C1725 1.463 . S
C1728 N1732 1.427 . S
C1729 H1719 0.929 . S
C1729 C1727 1.433 . S
C1729 N1732 1.384 . S
C1730 H1721 0.929 . S
C1730 C1722 1.378 . S
C1730 C1725 1.350 . S
C1731 H1718 0.929 . S
C1731 C1723 1.433 . S
C1731 N1733 1.384 . S
N1732 C1728 1.427 . S
N1732 C1729 1.384 . S
N1733 C1725 1.427 . S
N1733 C1731 1.384 . S
H1734 C1740 0.930 . S
H1735 C1744 0.930 . S
H1736 C1749 0.929 . S
H1737 C1747 0.929 . S
H1738 C1742 0.929 . S
H1739 C1748 0.929 . S
C1740 H1734 0.930 . S
C1740 C1741 1.367 . S
C1740 C1748 1.378 . S
C1741 C1740 1.367 . S
C1741 C1749 1.433 . S
C1742 H1738 0.929 . S
C1742 C1744 1.378 . S
C1742 C1746 1.350 . S
C1743 C1746 1.463 . S
C1743 C1748 1.350 . S
C1743 N1751 1.427 . S
C1744 H1735 0.930 . S
C1744 C1742 1.378 . S
C1744 C1745 1.367 . S
C1745 C1744 1.367 . S
C1745 C1747 1.433 . S
C1746 C1742 1.350 . S
C1746 C1743 1.463 . S
C1746 N1750 1.427 . S
C1747 H1737 0.929 . S
C1747 C1745 1.433 . S
C1747 N1750 1.384 . S
C1748 H1739 0.929 . S
C1748 C1740 1.378 . S
C1748 C1743 1.350 . S
C1749 H1736 0.929 . S
C1749 C1741 1.433 . S
C1749 N1751 1.384 . S
N1750 C1746 1.427 . S
N1750 C1747 1.384 . S
N1751 C1743 1.427 . S
N1751 C1749 1.384 . S
H1752 C1758 0.930 . S
H1753 C1762 0.930 . S
H1754 C1767 0.929 . S
H1755 C1765 0.929 . S
H1756 C1760 0.929 . S
H1757 C1766 0.929 . S
C1758 H1752 0.930 . S
C1758 C1759 1.367 . S
C1758 C1766 1.378 . S
C1759 C1758 1.367 . S
C1759 C1767 1.433 . S
C1760 H1756 0.929 . S
C1760 C1762 1.378 . S
C1760 C1764 1.350 . S
C1761 C1764 1.463 . S
C1761 C1766 1.350 . S
C1761 N1769 1.427 . S
C1762 H1753 0.930 . S
C1762 C1760 1.378 . S
C1762 C1763 1.367 . S
C1763 C1762 1.367 . S
C1763 C1765 1.433 . S
C1764 C1760 1.350 . S
C1764 C1761 1.463 . S
C1764 N1768 1.427 . S
C1765 H1755 0.929 . S
C1765 C1763 1.433 . S
C1765 N1768 1.384 . S
C1766 H1757 0.929 . S
C1766 C1758 1.378 . S
C1766 C1761 1.350 . S
C1767 H1754 0.929 . S
C1767 C1759 1.433 . S
C1767 N1769 1.384 . S
N1768 C1764 1.427 . S
N1768 C1765 1.384 . S
N1769 C1761 1.427 . S
N1769 C1767 1.384 . S
H1770 C1776 0.930 . S
H1771 C1780 0.930 . S
H1772 C1785 0.929 . S
H1773 C1783 0.929 . S
H1774 C1778 0.929 . S
H1775 C1784 0.929 . S
C1776 H1770 0.930 . S
C1776 C1777 1.367 . S
C1776 C1784 1.378 . S
C1777 C1776 1.367 . S
C1777 C1785 1.433 . S
C1778 H1774 0.929 . S
C1778 C1780 1.378 . S
C1778 C1782 1.350 . S
C1779 C1782 1.463 . S
C1779 C1784 1.350 . S
C1779 N1787 1.427 . S
C1780 H1771 0.930 . S
C1780 C1778 1.378 . S
C1780 C1781 1.367 . S
C1781 C1780 1.367 . S
C1781 C1783 1.433 . S
C1782 C1778 1.350 . S
C1782 C1779 1.463 . S
C1782 N1786 1.427 . S
C1783 H1773 0.929 . S
C1783 C1781 1.433 . S
C1783 N1786 1.384 . S
C1784 H1775 0.929 . S
C1784 C1776 1.378 . S
C1784 C1779 1.350 . S
C1785 H1772 0.929 . S
C1785 C1777 1.433 . S
C1785 N1787 1.384 . S
N1786 C1782 1.427 . S
N1786 C1783 1.384 . S
N1787 C1779 1.427 . S
N1787 C1785 1.384 . S
H1788 C1794 0.930 . S
H1789 C1798 0.930 . S
H1790 C1803 0.929 . S
H1791 C1801 0.929 . S
H1792 C1796 0.929 . S
H1793 C1802 0.929 . S
C1794 H1788 0.930 . S
C1794 C1795 1.367 . S
C1794 C1802 1.378 . S
C1795 C1794 1.367 . S
C1795 C1803 1.433 . S
C1796 H1792 0.929 . S
C1796 C1798 1.378 . S
C1796 C1800 1.350 . S
C1797 C1800 1.463 . S
C1797 C1802 1.350 . S
C1797 N1805 1.427 . S
C1798 H1789 0.930 . S
C1798 C1796 1.378 . S
C1798 C1799 1.367 . S
C1799 C1798 1.367 . S
C1799 C1801 1.433 . S
C1800 C1796 1.350 . S
C1800 C1797 1.463 . S
C1800 N1804 1.427 . S
C1801 H1791 0.929 . S
C1801 C1799 1.433 . S
C1801 N1804 1.384 . S
C1802 H1793 0.929 . S
C1802 C1794 1.378 . S
C1802 C1797 1.350 . S
C1803 H1790 0.929 . S
C1803 C1795 1.433 . S
C1803 N1805 1.384 . S
N1804 C1800 1.427 . S
N1804 C1801 1.384 . S
N1805 C1797 1.427 . S
N1805 C1803 1.384 . S
H1806 C1812 0.930 . S
H1807 C1816 0.930 . S
H1808 C1821 0.929 . S
H1809 C1819 0.929 . S
H1810 C1814 0.929 . S
H1811 C1820 0.929 . S
C1812 H1806 0.930 . S
C1812 C1813 1.367 . S
C1812 C1820 1.378 . S
C1813 C1812 1.367 . S
C1813 C1821 1.433 . S
C1814 H1810 0.929 . S
C1814 C1816 1.378 . S
C1814 C1818 1.350 . S
C1815 C1818 1.463 . S
C1815 C1820 1.350 . S
C1815 N1823 1.427 . S
C1816 H1807 0.930 . S
C1816 C1814 1.378 . S
C1816 C1817 1.367 . S
C1817 C1816 1.367 . S
C1817 C1819 1.433 . S
C1818 C1814 1.350 . S
C1818 C1815 1.463 . S
C1818 N1822 1.427 . S
C1819 H1809 0.929 . S
C1819 C1817 1.433 . S
C1819 N1822 1.384 . S
C1820 H1811 0.929 . S
C1820 C1812 1.378 . S
C1820 C1815 1.350 . S
C1821 H1808 0.929 . S
C1821 C1813 1.433 . S
C1821 N1823 1.384 . S
N1822 C1818 1.427 . S
N1822 C1819 1.384 . S
N1823 C1815 1.427 . S
N1823 C1821 1.384 . S
H1824 C1830 0.930 . S
H1825 C1834 0.930 . S
H1826 C1839 0.929 . S
H1827 C1837 0.929 . S
H1828 C1832 0.929 . S
H1829 C1838 0.929 . S
C1830 H1824 0.930 . S
C1830 C1831 1.367 . S
C1830 C1838 1.378 . S
C1831 C1830 1.367 . S
C1831 C1839 1.433 . S
C1832 H1828 0.929 . S
C1832 C1834 1.378 . S
C1832 C1836 1.350 . S
C1833 C1836 1.463 . S
C1833 C1838 1.350 . S
C1833 N1841 1.427 . S
C1834 H1825 0.930 . S
C1834 C1832 1.378 . S
C1834 C1835 1.367 . S
C1835 C1834 1.367 . S
C1835 C1837 1.433 . S
C1836 C1832 1.350 . S
C1836 C1833 1.463 . S
C1836 N1840 1.427 . S
C1837 H1827 0.929 . S
C1837 C1835 1.433 . S
C1837 N1840 1.384 . S
C1838 H1829 0.929 . S
C1838 C1830 1.378 . S
C1838 C1833 1.350 . S
C1839 H1826 0.929 . S
C1839 C1831 1.433 . S
C1839 N1841 1.384 . S
N1840 C1836 1.427 . S
N1840 C1837 1.384 . S
N1841 C1833 1.427 . S
N1841 C1839 1.384 . S
H1842 C1848 0.930 . S
H1843 C1852 0.930 . S
H1844 C1857 0.929 . S
H1845 C1855 0.929 . S
H1846 C1850 0.929 . S
H1847 C1856 0.929 . S
C1848 H1842 0.930 . S
C1848 C1849 1.367 . S
C1848 C1856 1.378 . S
C1849 C1848 1.367 . S
C1849 C1857 1.433 . S
C1850 H1846 0.929 . S
C1850 C1852 1.378 . S
C1850 C1854 1.350 . S
C1851 C1854 1.463 . S
C1851 C1856 1.350 . S
C1851 N1859 1.427 . S
C1852 H1843 0.930 . S
C1852 C1850 1.378 . S
C1852 C1853 1.367 . S
C1853 C1852 1.367 . S
C1853 C1855 1.433 . S
C1854 C1850 1.350 . S
C1854 C1851 1.463 . S
C1854 N1858 1.427 . S
C1855 H1845 0.929 . S
C1855 C1853 1.433 . S
C1855 N1858 1.384 . S
C1856 H1847 0.929 . S
C1856 C1848 1.378 . S
C1856 C1851 1.350 . S
C1857 H1844 0.929 . S
C1857 C1849 1.433 . S
C1857 N1859 1.384 . S
N1858 C1854 1.427 . S
N1858 C1855 1.384 . S
N1859 C1851 1.427 . S
N1859 C1857 1.384 . S
H1860 C1866 0.930 . S
H1861 C1870 0.930 . S
H1862 C1875 0.929 . S
H1863 C1873 0.929 . S
H1864 C1868 0.929 . S
H1865 C1874 0.929 . S
C1866 H1860 0.930 . S
C1866 C1867 1.367 . S
C1866 C1874 1.378 . S
C1867 C1866 1.367 . S
C1867 C1875 1.433 . S
C1868 H1864 0.929 . S
C1868 C1870 1.378 . S
C1868 C1872 1.350 . S
C1869 C1872 1.463 . S
C1869 C1874 1.350 . S
C1869 N1877 1.427 . S
C1870 H1861 0.930 . S
C1870 C1868 1.378 . S
C1870 C1871 1.367 . S
C1871 C1870 1.367 . S
C1871 C1873 1.433 . S
C1872 C1868 1.350 . S
C1872 C1869 1.463 . S
C1872 N1876 1.427 . S
C1873 H1863 0.929 . S
C1873 C1871 1.433 . S
C1873 N1876 1.384 . S
C1874 H1865 0.929 . S
C1874 C1866 1.378 . S
C1874 C1869 1.350 . S
C1875 H1862 0.929 . S
C1875 C1867 1.433 . S
C1875 N1877 1.384 . S
N1876 C1872 1.427 . S
N1876 C1873 1.384 . S
N1877 C1869 1.427 . S
N1877 C1875 1.384 . S
H1878 C1884 0.930 . S
H1879 C1888 0.930 . S
H1880 C1893 0.929 . S
H1881 C1891 0.929 . S
H1882 C1886 0.929 . S
H1883 C1892 0.929 . S
C1884 H1878 0.930 . S
C1884 C1885 1.367 . S
C1884 C1892 1.378 . S
C1885 C1884 1.367 . S
C1885 C1893 1.433 . S
C1886 H1882 0.929 . S
C1886 C1888 1.378 . S
C1886 C1890 1.350 . S
C1887 C1890 1.463 . S
C1887 C1892 1.350 . S
C1887 N1895 1.427 . S
C1888 H1879 0.930 . S
C1888 C1886 1.378 . S
C1888 C1889 1.367 . S
C1889 C1888 1.367 . S
C1889 C1891 1.433 . S
C1890 C1886 1.350 . S
C1890 C1887 1.463 . S
C1890 N1894 1.427 . S
C1891 H1881 0.929 . S
C1891 C1889 1.433 . S
C1891 N1894 1.384 . S
C1892 H1883 0.929 . S
C1892 C1884 1.378 . S
C1892 C1887 1.350 . S
C1893 H1880 0.929 . S
C1893 C1885 1.433 . S
C1893 N1895 1.384 . S
N1894 C1890 1.427 . S
N1894 C1891 1.384 . S
N1895 C1887 1.427 . S
N1895 C1893 1.384 . S
H1896 C1902 0.930 . S
H1897 C1906 0.930 . S
H1898 C1911 0.929 . S
H1899 C1909 0.929 . S
H1900 C1904 0.929 . S
H1901 C1910 0.929 . S
C1902 H1896 0.930 . S
C1902 C1903 1.367 . S
C1902 C1910 1.378 . S
C1903 C1902 1.367 . S
C1903 C1911 1.433 . S
C1904 H1900 0.929 . S
C1904 C1906 1.378 . S
C1904 C1908 1.350 . S
C1905 C1908 1.463 . S
C1905 C1910 1.350 . S
C1905 N1913 1.427 . S
C1906 H1897 0.930 . S
C1906 C1904 1.378 . S
C1906 C1907 1.367 . S
C1907 C1906 1.367 . S
C1907 C1909 1.433 . S
C1908 C1904 1.350 . S
C1908 C1905 1.463 . S
C1908 N1912 1.427 . S
C1909 H1899 0.929 . S
C1909 C1907 1.433 . S
C1909 N1912 1.384 . S
C1910 H1901 0.929 . S
C1910 C1902 1.378 . S
C1910 C1905 1.350 . S
C1911 H1898 0.929 . S
C1911 C1903 1.433 . S
C1911 N1913 1.384 . S
N1912 C1908 1.427 . S
N1912 C1909 1.384 . S
N1913 C1905 1.427 . S
N1913 C1911 1.384 . S
H1914 C1920 0.930 . S
H1915 C1924 0.930 . S
H1916 C1929 0.929 . S
H1917 C1927 0.929 . S
H1918 C1922 0.929 . S
H1919 C1928 0.929 . S
C1920 H1914 0.930 . S
C1920 C1921 1.367 . S
C1920 C1928 1.378 . S
C1921 C1920 1.367 . S
C1921 C1929 1.433 . S
C1922 H1918 0.929 . S
C1922 C1924 1.378 . S
C1922 C1926 1.350 . S
C1923 C1926 1.463 . S
C1923 C1928 1.350 . S
C1923 N1931 1.427 . S
C1924 H1915 0.930 . S
C1924 C1922 1.378 . S
C1924 C1925 1.367 . S
C1925 C1924 1.367 . S
C1925 C1927 1.433 . S
C1926 C1922 1.350 . S
C1926 C1923 1.463 . S
C1926 N1930 1.427 . S
C1927 H1917 0.929 . S
C1927 C1925 1.433 . S
C1927 N1930 1.384 . S
C1928 H1919 0.929 . S
C1928 C1920 1.378 . S
C1928 C1923 1.350 . S
C1929 H1916 0.929 . S
C1929 C1921 1.433 . S
C1929 N1931 1.384 . S
N1930 C1926 1.427 . S
N1930 C1927 1.384 . S
N1931 C1923 1.427 . S
N1931 C1929 1.384 . S
H1932 C1938 0.930 . S
H1933 C1942 0.930 . S
H1934 C1947 0.929 . S
H1935 C1945 0.929 . S
H1936 C1940 0.929 . S
H1937 C1946 0.929 . S
C1938 H1932 0.930 . S
C1938 C1939 1.367 . S
C1938 C1946 1.378 . S
C1939 C1938 1.367 . S
C1939 C1947 1.433 . S
C1940 H1936 0.929 . S
C1940 C1942 1.378 . S
C1940 C1944 1.350 . S
C1941 C1944 1.463 . S
C1941 C1946 1.350 . S
C1941 N1949 1.427 . S
C1942 H1933 0.930 . S
C1942 C1940 1.378 . S
C1942 C1943 1.367 . S
C1943 C1942 1.367 . S
C1943 C1945 1.433 . S
C1944 C1940 1.350 . S
C1944 C1941 1.463 . S
C1944 N1948 1.427 . S
C1945 H1935 0.929 . S
C1945 C1943 1.433 . S
C1945 N1948 1.384 . S
C1946 H1937 0.929 . S
C1946 C1938 1.378 . S
C1946 C1941 1.350 . S
C1947 H1934 0.929 . S
C1947 C1939 1.433 . S
C1947 N1949 1.384 . S
N1948 C1944 1.427 . S
N1948 C1945 1.384 . S
N1949 C1941 1.427 . S
N1949 C1947 1.384 . S
H1950 C1956 0.930 . S
H1951 C1960 0.930 . S
H1952 C1965 0.929 . S
H1953 C1963 0.929 . S
H1954 C1958 0.929 . S
H1955 C1964 0.929 . S
C1956 H1950 0.930 . S
C1956 C1957 1.367 . S
C1956 C1964 1.378 . S
C1957 C1956 1.367 . S
C1957 C1965 1.433 . S
C1958 H1954 0.929 . S
C1958 C1960 1.378 . S
C1958 C1962 1.350 . S
C1959 C1962 1.463 . S
C1959 C1964 1.350 . S
C1959 N1967 1.427 . S
C1960 H1951 0.930 . S
C1960 C1958 1.378 . S
C1960 C1961 1.367 . S
C1961 C1960 1.367 . S
C1961 C1963 1.433 . S
C1962 C1958 1.350 . S
C1962 C1959 1.463 . S
C1962 N1966 1.427 . S
C1963 H1953 0.929 . S
C1963 C1961 1.433 . S
C1963 N1966 1.384 . S
C1964 H1955 0.929 . S
C1964 C1956 1.378 . S
C1964 C1959 1.350 . S
C1965 H1952 0.929 . S
C1965 C1957 1.433 . S
C1965 N1967 1.384 . S
N1966 C1962 1.427 . S
N1966 C1963 1.384 . S
N1967 C1959 1.427 . S
N1967 C1965 1.384 . S
H1968 C1974 0.930 . S
H1969 C1978 0.930 . S
H1970 C1983 0.929 . S
H1971 C1981 0.929 . S
H1972 C1976 0.929 . S
H1973 C1982 0.929 . S
C1974 H1968 0.930 . S
C1974 C1975 1.367 . S
C1974 C1982 1.378 . S
C1975 C1974 1.367 . S
C1975 C1983 1.433 . S
C1976 H1972 0.929 . S
C1976 C1978 1.378 . S
C1976 C1980 1.350 . S
C1977 C1980 1.463 . S
C1977 C1982 1.350 . S
C1977 N1985 1.427 . S
C1978 H1969 0.930 . S
C1978 C1976 1.378 . S
C1978 C1979 1.367 . S
C1979 C1978 1.367 . S
C1979 C1981 1.433 . S
C1980 C1976 1.350 . S
C1980 C1977 1.463 . S
C1980 N1984 1.427 . S
C1981 H1971 0.929 . S
C1981 C1979 1.433 . S
C1981 N1984 1.384 . S
C1982 H1973 0.929 . S
C1982 C1974 1.378 . S
C1982 C1977 1.350 . S
C1983 H1970 0.929 . S
C1983 C1975 1.433 . S
C1983 N1985 1.384 . S
N1984 C1980 1.427 . S
N1984 C1981 1.384 . S
N1985 C1977 1.427 . S
N1985 C1983 1.384 . S
H1986 C1992 0.930 . S
H1987 C1996 0.930 . S
H1988 C2001 0.929 . S
H1989 C1999 0.929 . S
H1990 C1994 0.929 . S
H1991 C2000 0.929 . S
C1992 H1986 0.930 . S
C1992 C1993 1.367 . S
C1992 C2000 1.378 . S
C1993 C1992 1.367 . S
C1993 C2001 1.433 . S
C1994 H1990 0.929 . S
C1994 C1996 1.378 . S
C1994 C1998 1.350 . S
C1995 C1998 1.463 1_565 S
C1995 C2000 1.350 . S
C1995 N2003 1.427 . S
C1996 H1987 0.930 . S
C1996 C1994 1.378 . S
C1996 C1997 1.367 . S
C1997 C1996 1.367 . S
C1997 C1999 1.433 . S
C1998 C1994 1.350 . S
C1998 C1995 1.463 1_545 S
C1998 N2002 1.427 . S
C1999 H1989 0.929 . S
C1999 C1997 1.433 . S
C1999 N2002 1.384 . S
C2000 H1991 0.929 . S
C2000 C1992 1.378 . S
C2000 C1995 1.350 . S
C2001 H1988 0.929 . S
C2001 C1993 1.433 . S
C2001 N2003 1.384 . S
N2002 C1998 1.427 . S
N2002 C1999 1.384 . S
N2003 C1995 1.427 . S
N2003 C2001 1.384 . S
H2004 C2010 0.930 . S
H2005 C2014 0.930 . S
H2006 C2019 0.929 . S
H2007 C2017 0.929 . S
H2008 C2012 0.929 . S
H2009 C2018 0.929 . S
C2010 H2004 0.930 . S
C2010 C2011 1.367 . S
C2010 C2018 1.378 . S
C2011 C2010 1.367 . S
C2011 C2019 1.433 . S
C2012 H2008 0.929 . S
C2012 C2014 1.378 . S
C2012 C2016 1.350 . S
C2013 C2016 1.463 . S
C2013 C2018 1.350 . S
C2013 N2021 1.427 . S
C2014 H2005 0.930 . S
C2014 C2012 1.378 . S
C2014 C2015 1.367 . S
C2015 C2014 1.367 . S
C2015 C2017 1.433 . S
C2016 C2012 1.350 . S
C2016 C2013 1.463 . S
C2016 N2020 1.427 . S
C2017 H2007 0.929 . S
C2017 C2015 1.433 . S
C2017 N2020 1.384 . S
C2018 H2009 0.929 . S
C2018 C2010 1.378 . S
C2018 C2013 1.350 . S
C2019 H2006 0.929 . S
C2019 C2011 1.433 . S
C2019 N2021 1.384 . S
N2020 C2016 1.427 . S
N2020 C2017 1.384 . S
N2021 C2013 1.427 . S
N2021 C2019 1.384 . S
H2022 C2028 0.930 . S
H2023 C2032 0.930 . S
H2024 C2037 0.929 . S
H2025 C2035 0.929 . S
H2026 C2030 0.929 . S
H2027 C2036 0.929 . S
C2028 H2022 0.930 . S
C2028 C2029 1.367 . S
C2028 C2036 1.378 . S
C2029 C2028 1.367 . S
C2029 C2037 1.433 . S
C2030 H2026 0.929 . S
C2030 C2032 1.378 . S
C2030 C2034 1.350 . S
C2031 C2034 1.463 . S
C2031 C2036 1.350 . S
C2031 N2039 1.427 . S
C2032 H2023 0.930 . S
C2032 C2030 1.378 . S
C2032 C2033 1.367 . S
C2033 C2032 1.367 . S
C2033 C2035 1.433 . S
C2034 C2030 1.350 . S
C2034 C2031 1.463 . S
C2034 N2038 1.427 . S
C2035 H2025 0.929 . S
C2035 C2033 1.433 . S
C2035 N2038 1.384 . S
C2036 H2027 0.929 . S
C2036 C2028 1.378 . S
C2036 C2031 1.350 . S
C2037 H2024 0.929 . S
C2037 C2029 1.433 . S
C2037 N2039 1.384 . S
N2038 C2034 1.427 . S
N2038 C2035 1.384 . S
N2039 C2031 1.427 . S
N2039 C2037 1.384 . S
H2040 C2046 0.930 . S
H2041 C2050 0.930 . S
H2042 C2055 0.929 . S
H2043 C2053 0.929 . S
H2044 C2048 0.929 . S
H2045 C2054 0.929 . S
C2046 H2040 0.930 . S
C2046 C2047 1.367 . S
C2046 C2054 1.378 . S
C2047 C2046 1.367 . S
C2047 C2055 1.433 . S
C2048 H2044 0.929 . S
C2048 C2050 1.378 . S
C2048 C2052 1.350 . S
C2049 C2052 1.463 1_556 S
C2049 C2054 1.350 . S
C2049 N2057 1.427 . S
C2050 H2041 0.930 . S
C2050 C2048 1.378 . S
C2050 C2051 1.367 . S
C2051 C2050 1.367 . S
C2051 C2053 1.433 . S
C2052 C2048 1.350 . S
C2052 C2049 1.463 1_554 S
C2052 N2056 1.427 . S
C2053 H2043 0.929 . S
C2053 C2051 1.433 . S
C2053 N2056 1.384 . S
C2054 H2045 0.929 . S
C2054 C2046 1.378 . S
C2054 C2049 1.350 . S
C2055 H2042 0.929 . S
C2055 C2047 1.433 . S
C2055 N2057 1.384 . S
N2056 C2052 1.427 . S
N2056 C2053 1.384 . S
N2057 C2049 1.427 . S
N2057 C2055 1.384 . S
H2058 C2064 0.930 . S
H2059 C2068 0.930 . S
H2060 C2073 0.929 . S
H2061 C2071 0.929 . S
H2062 C2066 0.929 . S
H2063 C2072 0.929 . S
C2064 H2058 0.930 . S
C2064 C2065 1.367 . S
C2064 C2072 1.378 . S
C2065 C2064 1.367 . S
C2065 C2073 1.433 . S
C2066 H2062 0.929 . S
C2066 C2068 1.378 . S
C2066 C2070 1.350 . S
C2067 C2070 1.463 1_554 S
C2067 C2072 1.350 . S
C2067 N2075 1.427 . S
C2068 H2059 0.930 . S
C2068 C2066 1.378 . S
C2068 C2069 1.367 . S
C2069 C2068 1.367 . S
C2069 C2071 1.433 . S
C2070 C2066 1.350 . S
C2070 C2067 1.463 1_556 S
C2070 N2074 1.427 . S
C2071 H2061 0.929 . S
C2071 C2069 1.433 . S
C2071 N2074 1.384 . S
C2072 H2063 0.929 . S
C2072 C2064 1.378 . S
C2072 C2067 1.350 . S
C2073 H2060 0.929 . S
C2073 C2065 1.433 . S
C2073 N2075 1.384 . S
N2074 C2070 1.427 . S
N2074 C2071 1.384 . S
N2075 C2067 1.427 . S
N2075 C2073 1.384 . S
H2076 C2082 0.930 . S
H2077 C2086 0.930 . S
H2078 C2091 0.929 . S
H2079 C2089 0.929 . S
H2080 C2084 0.929 . S
H2081 C2090 0.929 . S
C2082 H2076 0.930 . S
C2082 C2083 1.367 . S
C2082 C2090 1.378 . S
C2083 C2082 1.367 . S
C2083 C2091 1.433 . S
C2084 H2080 0.929 . S
C2084 C2086 1.378 . S
C2084 C2088 1.350 . S
C2085 C2088 1.463 . S
C2085 C2090 1.350 . S
C2085 N2093 1.427 . S
C2086 H2077 0.930 . S
C2086 C2084 1.378 . S
C2086 C2087 1.367 . S
C2087 C2086 1.367 . S
C2087 C2089 1.433 . S
C2088 C2084 1.350 . S
C2088 C2085 1.463 . S
C2088 N2092 1.427 . S
C2089 H2079 0.929 . S
C2089 C2087 1.433 . S
C2089 N2092 1.384 . S
C2090 H2081 0.929 . S
C2090 C2082 1.378 . S
C2090 C2085 1.350 . S
C2091 H2078 0.929 . S
C2091 C2083 1.433 . S
C2091 N2093 1.384 . S
N2092 C2088 1.427 . S
N2092 C2089 1.384 . S
N2093 C2085 1.427 . S
N2093 C2091 1.384 . S
H2094 C2100 0.930 . S
H2095 C2104 0.930 . S
H2096 C2109 0.929 . S
H2097 C2107 0.929 . S
H2098 C2102 0.929 . S
H2099 C2108 0.929 . S
C2100 H2094 0.930 . S
C2100 C2101 1.367 . S
C2100 C2108 1.378 . S
C2101 C2100 1.367 . S
C2101 C2109 1.433 . S
C2102 H2098 0.929 . S
C2102 C2104 1.378 . S
C2102 C2106 1.350 . S
C2103 C2106 1.463 . S
C2103 C2108 1.350 . S
C2103 N2111 1.427 . S
C2104 H2095 0.930 . S
C2104 C2102 1.378 . S
C2104 C2105 1.367 . S
C2105 C2104 1.367 . S
C2105 C2107 1.433 . S
C2106 C2102 1.350 . S
C2106 C2103 1.463 . S
C2106 N2110 1.427 . S
C2107 H2097 0.929 . S
C2107 C2105 1.433 . S
C2107 N2110 1.384 . S
C2108 H2099 0.929 . S
C2108 C2100 1.378 . S
C2108 C2103 1.350 . S
C2109 H2096 0.929 . S
C2109 C2101 1.433 . S
C2109 N2111 1.384 . S
N2110 C2106 1.427 . S
N2110 C2107 1.384 . S
N2111 C2103 1.427 . S
N2111 C2109 1.384 . S
H2112 C2118 0.930 . S
H2113 C2122 0.930 . S
H2114 C2127 0.929 . S
H2115 C2125 0.929 . S
H2116 C2120 0.929 . S
H2117 C2126 0.929 . S
C2118 H2112 0.930 . S
C2118 C2119 1.367 . S
C2118 C2126 1.378 . S
C2119 C2118 1.367 . S
C2119 C2127 1.433 . S
C2120 H2116 0.929 . S
C2120 C2122 1.378 . S
C2120 C2124 1.350 . S
C2121 C2124 1.463 1_455 S
C2121 C2126 1.350 . S
C2121 N2129 1.427 . S
C2122 H2113 0.930 . S
C2122 C2120 1.378 . S
C2122 C2123 1.367 . S
C2123 C2122 1.367 . S
C2123 C2125 1.433 . S
C2124 C2120 1.350 . S
C2124 C2121 1.463 1_655 S
C2124 N2128 1.427 . S
C2125 H2115 0.929 . S
C2125 C2123 1.433 . S
C2125 N2128 1.384 . S
C2126 H2117 0.929 . S
C2126 C2118 1.378 . S
C2126 C2121 1.350 . S
C2127 H2114 0.929 . S
C2127 C2119 1.433 . S
C2127 N2129 1.384 . S
N2128 C2124 1.427 . S
N2128 C2125 1.384 . S
N2129 C2121 1.427 . S
N2129 C2127 1.384 . S
H2130 C2136 0.930 . S
H2131 C2140 0.930 . S
H2132 C2145 0.929 . S
H2133 C2143 0.929 . S
H2134 C2138 0.929 . S
H2135 C2144 0.929 . S
C2136 H2130 0.930 . S
C2136 C2137 1.367 . S
C2136 C2144 1.378 . S
C2137 C2136 1.367 . S
C2137 C2145 1.433 . S
C2138 H2134 0.929 . S
C2138 C2140 1.378 . S
C2138 C2142 1.350 . S
C2139 C2142 1.463 . S
C2139 C2144 1.350 . S
C2139 N2147 1.427 . S
C2140 H2131 0.930 . S
C2140 C2138 1.378 . S
C2140 C2141 1.367 . S
C2141 C2140 1.367 . S
C2141 C2143 1.433 . S
C2142 C2138 1.350 . S
C2142 C2139 1.463 . S
C2142 N2146 1.427 . S
C2143 H2133 0.929 . S
C2143 C2141 1.433 . S
C2143 N2146 1.384 . S
C2144 H2135 0.929 . S
C2144 C2136 1.378 . S
C2144 C2139 1.350 . S
C2145 H2132 0.929 . S
C2145 C2137 1.433 . S
C2145 N2147 1.384 . S
N2146 C2142 1.427 . S
N2146 C2143 1.384 . S
N2147 C2139 1.427 . S
N2147 C2145 1.384 . S
H2148 C2154 0.930 . S
H2149 C2158 0.930 . S
H2150 C2163 0.929 . S
H2151 C2161 0.929 . S
H2152 C2156 0.929 . S
H2153 C2162 0.929 . S
C2154 H2148 0.930 . S
C2154 C2155 1.367 . S
C2154 C2162 1.378 . S
C2155 C2154 1.367 . S
C2155 C2163 1.433 . S
C2156 H2152 0.929 . S
C2156 C2158 1.378 . S
C2156 C2160 1.350 . S
C2157 C2160 1.463 1_545 S
C2157 C2162 1.350 . S
C2157 N2165 1.427 . S
C2158 H2149 0.930 . S
C2158 C2156 1.378 . S
C2158 C2159 1.367 . S
C2159 C2158 1.367 . S
C2159 C2161 1.433 . S
C2160 C2156 1.350 . S
C2160 C2157 1.463 1_565 S
C2160 N2164 1.427 . S
C2161 H2151 0.929 . S
C2161 C2159 1.433 . S
C2161 N2164 1.384 . S
C2162 H2153 0.929 . S
C2162 C2154 1.378 . S
C2162 C2157 1.350 . S
C2163 H2150 0.929 . S
C2163 C2155 1.433 . S
C2163 N2165 1.384 . S
N2164 C2160 1.427 . S
N2164 C2161 1.384 . S
N2165 C2157 1.427 . S
N2165 C2163 1.384 . S
H2166 C2172 0.930 . S
H2167 C2176 0.930 . S
H2168 C2181 0.929 . S
H2169 C2179 0.929 . S
H2170 C2174 0.929 . S
H2171 C2180 0.929 . S
C2172 H2166 0.930 . S
C2172 C2173 1.367 . S
C2172 C2180 1.378 . S
C2173 C2172 1.367 . S
C2173 C2181 1.433 . S
C2174 H2170 0.929 . S
C2174 C2176 1.378 . S
C2174 C2178 1.350 . S
C2175 C2178 1.463 . S
C2175 C2180 1.350 . S
C2175 N2183 1.427 . S
C2176 H2167 0.930 . S
C2176 C2174 1.378 . S
C2176 C2177 1.367 . S
C2177 C2176 1.367 . S
C2177 C2179 1.433 . S
C2178 C2174 1.350 . S
C2178 C2175 1.463 . S
C2178 N2182 1.427 . S
C2179 H2169 0.929 . S
C2179 C2177 1.433 . S
C2179 N2182 1.384 . S
C2180 H2171 0.929 . S
C2180 C2172 1.378 . S
C2180 C2175 1.350 . S
C2181 H2168 0.929 . S
C2181 C2173 1.433 . S
C2181 N2183 1.384 . S
N2182 C2178 1.427 . S
N2182 C2179 1.384 . S
N2183 C2175 1.427 . S
N2183 C2181 1.384 . S
H2184 C2190 0.930 . S
H2185 C2194 0.930 . S
H2186 C2199 0.929 . S
H2187 C2197 0.929 . S
H2188 C2192 0.929 . S
H2189 C2198 0.929 . S
C2190 H2184 0.930 . S
C2190 C2191 1.367 . S
C2190 C2198 1.378 . S
C2191 C2190 1.367 . S
C2191 C2199 1.433 . S
C2192 H2188 0.929 . S
C2192 C2194 1.378 . S
C2192 C2196 1.350 . S
C2193 C2196 1.463 . S
C2193 C2198 1.350 . S
C2193 N2201 1.427 . S
C2194 H2185 0.930 . S
C2194 C2192 1.378 . S
C2194 C2195 1.367 . S
C2195 C2194 1.367 . S
C2195 C2197 1.433 . S
C2196 C2192 1.350 . S
C2196 C2193 1.463 . S
C2196 N2200 1.427 . S
C2197 H2187 0.929 . S
C2197 C2195 1.433 . S
C2197 N2200 1.384 . S
C2198 H2189 0.929 . S
C2198 C2190 1.378 . S
C2198 C2193 1.350 . S
C2199 H2186 0.929 . S
C2199 C2191 1.433 . S
C2199 N2201 1.384 . S
N2200 C2196 1.427 . S
N2200 C2197 1.384 . S
N2201 C2193 1.427 . S
N2201 C2199 1.384 . S
H2202 C2208 0.930 . S
H2203 C2212 0.930 . S
H2204 C2217 0.929 . S
H2205 C2215 0.929 . S
H2206 C2210 0.929 . S
H2207 C2216 0.929 . S
C2208 H2202 0.930 . S
C2208 C2209 1.367 . S
C2208 C2216 1.378 . S
C2209 C2208 1.367 . S
C2209 C2217 1.433 . S
C2210 H2206 0.929 . S
C2210 C2212 1.378 . S
C2210 C2214 1.350 . S
C2211 C2214 1.463 1_556 S
C2211 C2216 1.350 . S
C2211 N2219 1.427 . S
C2212 H2203 0.930 . S
C2212 C2210 1.378 . S
C2212 C2213 1.367 . S
C2213 C2212 1.367 . S
C2213 C2215 1.433 . S
C2214 C2210 1.350 . S
C2214 C2211 1.463 1_554 S
C2214 N2218 1.427 . S
C2215 H2205 0.929 . S
C2215 C2213 1.433 . S
C2215 N2218 1.384 . S
C2216 H2207 0.929 . S
C2216 C2208 1.378 . S
C2216 C2211 1.350 . S
C2217 H2204 0.929 . S
C2217 C2209 1.433 . S
C2217 N2219 1.384 . S
N2218 C2214 1.427 . S
N2218 C2215 1.384 . S
N2219 C2211 1.427 . S
N2219 C2217 1.384 . S
H2220 C2226 0.930 . S
H2221 C2230 0.930 . S
H2222 C2235 0.929 . S
H2223 C2233 0.929 . S
H2224 C2228 0.929 . S
H2225 C2234 0.929 . S
C2226 H2220 0.930 . S
C2226 C2227 1.367 . S
C2226 C2234 1.378 . S
C2227 C2226 1.367 . S
C2227 C2235 1.433 . S
C2228 H2224 0.929 . S
C2228 C2230 1.378 . S
C2228 C2232 1.350 . S
C2229 C2232 1.463 1_556 S
C2229 C2234 1.350 . S
C2229 N2237 1.427 . S
C2230 H2221 0.930 . S
C2230 C2228 1.378 . S
C2230 C2231 1.367 . S
C2231 C2230 1.367 . S
C2231 C2233 1.433 . S
C2232 C2228 1.350 . S
C2232 C2229 1.463 1_554 S
C2232 N2236 1.427 . S
C2233 H2223 0.929 . S
C2233 C2231 1.433 . S
C2233 N2236 1.384 . S
C2234 H2225 0.929 . S
C2234 C2226 1.378 . S
C2234 C2229 1.350 . S
C2235 H2222 0.929 . S
C2235 C2227 1.433 . S
C2235 N2237 1.384 . S
N2236 C2232 1.427 . S
N2236 C2233 1.384 . S
N2237 C2229 1.427 . S
N2237 C2235 1.384 . S
H2238 C2244 0.930 . S
H2239 C2248 0.930 . S
H2240 C2253 0.929 . S
H2241 C2251 0.929 . S
H2242 C2246 0.929 . S
H2243 C2252 0.929 . S
C2244 H2238 0.930 . S
C2244 C2245 1.367 . S
C2244 C2252 1.378 . S
C2245 C2244 1.367 . S
C2245 C2253 1.433 . S
C2246 H2242 0.929 . S
C2246 C2248 1.378 . S
C2246 C2250 1.350 . S
C2247 C2250 1.463 . S
C2247 C2252 1.350 . S
C2247 N2255 1.427 . S
C2248 H2239 0.930 . S
C2248 C2246 1.378 . S
C2248 C2249 1.367 . S
C2249 C2248 1.367 . S
C2249 C2251 1.433 . S
C2250 C2246 1.350 . S
C2250 C2247 1.463 . S
C2250 N2254 1.427 . S
C2251 H2241 0.929 . S
C2251 C2249 1.433 . S
C2251 N2254 1.384 . S
C2252 H2243 0.929 . S
C2252 C2244 1.378 . S
C2252 C2247 1.350 . S
C2253 H2240 0.929 . S
C2253 C2245 1.433 . S
C2253 N2255 1.384 . S
N2254 C2250 1.427 . S
N2254 C2251 1.384 . S
N2255 C2247 1.427 . S
N2255 C2253 1.384 . S
H2256 C2262 0.930 . S
H2257 C2266 0.930 . S
H2258 C2271 0.929 . S
H2259 C2269 0.929 . S
H2260 C2264 0.929 . S
H2261 C2270 0.929 . S
C2262 H2256 0.930 . S
C2262 C2263 1.367 . S
C2262 C2270 1.378 . S
C2263 C2262 1.367 . S
C2263 C2271 1.433 . S
C2264 H2260 0.929 . S
C2264 C2266 1.378 . S
C2264 C2268 1.350 . S
C2265 C2268 1.463 . S
C2265 C2270 1.350 . S
C2265 N2273 1.427 . S
C2266 H2257 0.930 . S
C2266 C2264 1.378 . S
C2266 C2267 1.367 . S
C2267 C2266 1.367 . S
C2267 C2269 1.433 . S
C2268 C2264 1.350 . S
C2268 C2265 1.463 . S
C2268 N2272 1.427 . S
C2269 H2259 0.929 . S
C2269 C2267 1.433 . S
C2269 N2272 1.384 . S
C2270 H2261 0.929 . S
C2270 C2262 1.378 . S
C2270 C2265 1.350 . S
C2271 H2258 0.929 . S
C2271 C2263 1.433 . S
C2271 N2273 1.384 . S
N2272 C2268 1.427 . S
N2272 C2269 1.384 . S
N2273 C2265 1.427 . S
N2273 C2271 1.384 . S
H2274 C2280 0.930 . S
H2275 C2284 0.930 . S
H2276 C2289 0.929 . S
H2277 C2287 0.929 . S
H2278 C2282 0.929 . S
H2279 C2288 0.929 . S
C2280 H2274 0.930 . S
C2280 C2281 1.367 . S
C2280 C2288 1.378 . S
C2281 C2280 1.367 . S
C2281 C2289 1.433 . S
C2282 H2278 0.929 . S
C2282 C2284 1.378 . S
C2282 C2286 1.350 . S
C2283 C2286 1.463 1_655 S
C2283 C2288 1.350 . S
C2283 N2291 1.427 . S
C2284 H2275 0.930 . S
C2284 C2282 1.378 . S
C2284 C2285 1.367 . S
C2285 C2284 1.367 . S
C2285 C2287 1.433 . S
C2286 C2282 1.350 . S
C2286 C2283 1.463 1_455 S
C2286 N2290 1.427 . S
C2287 H2277 0.929 . S
C2287 C2285 1.433 . S
C2287 N2290 1.384 . S
C2288 H2279 0.929 . S
C2288 C2280 1.378 . S
C2288 C2283 1.350 . S
C2289 H2276 0.929 . S
C2289 C2281 1.433 . S
C2289 N2291 1.384 . S
N2290 C2286 1.427 . S
N2290 C2287 1.384 . S
N2291 C2283 1.427 . S
N2291 C2289 1.384 . S
H2292 C2298 0.930 . S
H2293 C2302 0.930 . S
H2294 C2307 0.929 . S
H2295 C2305 0.929 . S
H2296 C2300 0.929 . S
H2297 C2306 0.929 . S
C2298 H2292 0.930 . S
C2298 C2299 1.367 . S
C2298 C2306 1.378 . S
C2299 C2298 1.367 . S
C2299 C2307 1.433 . S
C2300 H2296 0.929 . S
C2300 C2302 1.378 . S
C2300 C2304 1.350 . S
C2301 C2304 1.463 1_545 S
C2301 C2306 1.350 . S
C2301 N2309 1.427 . S
C2302 H2293 0.930 . S
C2302 C2300 1.378 . S
C2302 C2303 1.367 . S
C2303 C2302 1.367 . S
C2303 C2305 1.433 . S
C2304 C2300 1.350 . S
C2304 C2301 1.463 1_565 S
C2304 N2308 1.427 . S
C2305 H2295 0.929 . S
C2305 C2303 1.433 . S
C2305 N2308 1.384 . S
C2306 H2297 0.929 . S
C2306 C2298 1.378 . S
C2306 C2301 1.350 . S
C2307 H2294 0.929 . S
C2307 C2299 1.433 . S
C2307 N2309 1.384 . S
N2308 C2304 1.427 . S
N2308 C2305 1.384 . S
N2309 C2301 1.427 . S
N2309 C2307 1.384 . S
H2310 C2316 0.930 . S
H2311 C2320 0.930 . S
H2312 C2325 0.929 . S
H2313 C2323 0.929 . S
H2314 C2318 0.929 . S
H2315 C2324 0.929 . S
C2316 H2310 0.930 . S
C2316 C2317 1.367 . S
C2316 C2324 1.378 . S
C2317 C2316 1.367 . S
C2317 C2325 1.433 . S
C2318 H2314 0.929 . S
C2318 C2320 1.378 . S
C2318 C2322 1.350 . S
C2319 C2322 1.463 . S
C2319 C2324 1.350 . S
C2319 N2327 1.427 . S
C2320 H2311 0.930 . S
C2320 C2318 1.378 . S
C2320 C2321 1.367 . S
C2321 C2320 1.367 . S
C2321 C2323 1.433 . S
C2322 C2318 1.350 . S
C2322 C2319 1.463 . S
C2322 N2326 1.427 . S
C2323 H2313 0.929 . S
C2323 C2321 1.433 . S
C2323 N2326 1.384 . S
C2324 H2315 0.929 . S
C2324 C2316 1.378 . S
C2324 C2319 1.350 . S
C2325 H2312 0.929 . S
C2325 C2317 1.433 . S
C2325 N2327 1.384 . S
N2326 C2322 1.427 . S
N2326 C2323 1.384 . S
N2327 C2319 1.427 . S
N2327 C2325 1.384 . S
H2328 C2334 0.930 . S
H2329 C2338 0.930 . S
H2330 C2343 0.929 . S
H2331 C2341 0.929 . S
H2332 C2336 0.929 . S
H2333 C2342 0.929 . S
C2334 H2328 0.930 . S
C2334 C2335 1.367 . S
C2334 C2342 1.378 . S
C2335 C2334 1.367 . S
C2335 C2343 1.433 . S
C2336 H2332 0.929 . S
C2336 C2338 1.378 . S
C2336 C2340 1.350 . S
C2337 C2340 1.463 1_455 S
C2337 C2342 1.350 . S
C2337 N2345 1.427 . S
C2338 H2329 0.930 . S
C2338 C2336 1.378 . S
C2338 C2339 1.367 . S
C2339 C2338 1.367 . S
C2339 C2341 1.433 . S
C2340 C2336 1.350 . S
C2340 C2337 1.463 1_655 S
C2340 N2344 1.427 . S
C2341 H2331 0.929 . S
C2341 C2339 1.433 . S
C2341 N2344 1.384 . S
C2342 H2333 0.929 . S
C2342 C2334 1.378 . S
C2342 C2337 1.350 . S
C2343 H2330 0.929 . S
C2343 C2335 1.433 . S
C2343 N2345 1.384 . S
N2344 C2340 1.427 . S
N2344 C2341 1.384 . S
N2345 C2337 1.427 . S
N2345 C2343 1.384 . S
H2346 C2352 0.930 . S
H2347 C2356 0.930 . S
H2348 C2361 0.929 . S
H2349 C2359 0.929 . S
H2350 C2354 0.929 . S
H2351 C2360 0.929 . S
C2352 H2346 0.930 . S
C2352 C2353 1.367 . S
C2352 C2360 1.378 . S
C2353 C2352 1.367 . S
C2353 C2361 1.433 . S
C2354 H2350 0.929 . S
C2354 C2356 1.378 . S
C2354 C2358 1.350 . S
C2355 C2358 1.463 1_545 S
C2355 C2360 1.350 . S
C2355 N2363 1.427 . S
C2356 H2347 0.930 . S
C2356 C2354 1.378 . S
C2356 C2357 1.367 . S
C2357 C2356 1.367 . S
C2357 C2359 1.433 . S
C2358 C2354 1.350 . S
C2358 C2355 1.463 1_565 S
C2358 N2362 1.427 . S
C2359 H2349 0.929 . S
C2359 C2357 1.433 . S
C2359 N2362 1.384 . S
C2360 H2351 0.929 . S
C2360 C2352 1.378 . S
C2360 C2355 1.350 . S
C2361 H2348 0.929 . S
C2361 C2353 1.433 . S
C2361 N2363 1.384 . S
N2362 C2358 1.427 . S
N2362 C2359 1.384 . S
N2363 C2355 1.427 . S
N2363 C2361 1.384 . S
H2364 C2370 0.930 . S
H2365 C2374 0.930 . S
H2366 C2379 0.929 . S
H2367 C2377 0.929 . S
H2368 C2372 0.929 . S
H2369 C2378 0.929 . S
C2370 H2364 0.930 . S
C2370 C2371 1.367 . S
C2370 C2378 1.378 . S
C2371 C2370 1.367 . S
C2371 C2379 1.433 . S
C2372 H2368 0.929 . S
C2372 C2374 1.378 . S
C2372 C2376 1.350 . S
C2373 C2376 1.463 . S
C2373 C2378 1.350 . S
C2373 N2381 1.427 . S
C2374 H2365 0.930 . S
C2374 C2372 1.378 . S
C2374 C2375 1.367 . S
C2375 C2374 1.367 . S
C2375 C2377 1.433 . S
C2376 C2372 1.350 . S
C2376 C2373 1.463 . S
C2376 N2380 1.427 . S
C2377 H2367 0.929 . S
C2377 C2375 1.433 . S
C2377 N2380 1.384 . S
C2378 H2369 0.929 . S
C2378 C2370 1.378 . S
C2378 C2373 1.350 . S
C2379 H2366 0.929 . S
C2379 C2371 1.433 . S
C2379 N2381 1.384 . S
N2380 C2376 1.427 . S
N2380 C2377 1.384 . S
N2381 C2373 1.427 . S
N2381 C2379 1.384 . S
H2382 C2388 0.930 . S
H2383 C2392 0.930 . S
H2384 C2397 0.929 . S
H2385 C2395 0.929 . S
H2386 C2390 0.929 . S
H2387 C2396 0.929 . S
C2388 H2382 0.930 . S
C2388 C2389 1.367 . S
C2388 C2396 1.378 . S
C2389 C2388 1.367 . S
C2389 C2397 1.433 . S
C2390 H2386 0.929 . S
C2390 C2392 1.378 . S
C2390 C2394 1.350 . S
C2391 C2394 1.463 1_455 S
C2391 C2396 1.350 . S
C2391 N2399 1.427 . S
C2392 H2383 0.930 . S
C2392 C2390 1.378 . S
C2392 C2393 1.367 . S
C2393 C2392 1.367 . S
C2393 C2395 1.433 . S
C2394 C2390 1.350 . S
C2394 C2391 1.463 1_655 S
C2394 N2398 1.427 . S
C2395 H2385 0.929 . S
C2395 C2393 1.433 . S
C2395 N2398 1.384 . S
C2396 H2387 0.929 . S
C2396 C2388 1.378 . S
C2396 C2391 1.350 . S
C2397 H2384 0.929 . S
C2397 C2389 1.433 . S
C2397 N2399 1.384 . S
N2398 C2394 1.427 . S
N2398 C2395 1.384 . S
N2399 C2391 1.427 . S
N2399 C2397 1.384 . S
C679 C22 1.718 . S
C683 C8 1.711 . S
C697 C36 1.717 . S
C701 C50 1.711 . S
C715 C92 1.713 . S
C719 C64 1.720 . S
C733 C106 1.720 . S
C737 C78 1.715 . S
C751 C120 1.712 . S
C755 C484 1.719 . S
C769 C134 1.717 . S
C773 C162 1.711 . S
C787 C456 1.711 . S
C791 C148 1.717 . S
C805 C190 1.712 . S
C809 C176 1.720 . S
C823 C218 1.717 . S
C827 C204 1.719 . S
C841 C260 1.717 . S
C845 C232 1.719 . S
C859 C274 1.716 . S
C863 C246 1.719 . S
C877 C288 1.712 . S
C881 C652 1.715 . S
C895 C302 1.719 . S
C899 C330 1.711 . S
C913 C624 1.715 . S
C917 C316 1.720 . S
C931 C344 1.718 . S
C935 C358 1.718 . S
C949 C386 1.713 . S
C953 C372 1.720 . S
C967 C400 1.711 . S
C971 C428 1.716 . S
C985 C442 1.720 . S
C989 C414 1.715 . S
C1003 C498 1.715 . S
C1007 C470 1.712 . S
C1021 C526 1.719 . S
C1025 C512 1.718 . S
C1039 C540 1.711 . S
C1043 C554 1.715 . S
C1057 C596 1.711 . S
C1061 C568 1.717 . S
C1075 C582 1.715 . S
C1079 C610 1.720 . S
C1093 C638 1.719 . S
C1097 C666 1.712 . S
C1111 C619 1.317 . S
C1115 C7 1.284 . S
C1129 C325 1.327 . S
C1133 C21 1.302 . S
C1147 C633 1.329 . S
C1151 C35 1.302 . S
C1165 C49 1.286 . S
C1169 C647 1.320 . S
C1183 C63 1.291 . S
C1187 C507 1.325 . S
C1201 C521 1.330 . S
C1205 C77 1.302 . S
C1219 C91 1.295 . S
C1223 C535 1.327 . S
C1237 C549 1.317 . S
C1241 C105 1.284 . S
C1255 C563 1.330 . S
C1259 C119 1.302 . S
C1273 C133 1.302 . S
C1277 C591 1.327 . S
C1291 C605 1.324 . S
C1295 C147 1.299 . S
C1309 C161 1.294 . S
C1313 C241 1.320 . S
C1327 C175 1.287 . S
C1331 C451 1.316 . S
C1345 C189 1.284 . S
C1349 C157 1.317 . S
C1363 C203 1.303 . S
C1367 C465 1.329 . S
C1381 C217 1.292 . S
C1385 C479 1.326 . S
C1399 C339 1.330 . S
C1403 C231 1.302 . S
C1417 C353 1.318 . S
C1421 C245 1.290 . S
C1435 C259 1.285 . S
C1439 C367 1.320 . S
C1453 C273 1.301 . S
C1457 C381 1.330 . S
C1471 C287 1.294 . S
C1475 C395 1.327 . S
C1489 C301 1.288 . S
C1493 C423 1.323 . S
C1507 C437 1.330 . S
C1511 C315 1.300 . S
C1525 C73 1.318 . S
C1529 C329 1.284 . S
C1543 C343 1.298 . S
C1547 C283 1.323 . S
C1561 C357 1.296 . S
C1565 C661 1.328 . S
C1579 C371 1.292 . S
C1583 C297 1.319 . S
C1597 C385 1.303 . S
C1601 C311 1.329 . S
C1615 C171 1.322 . S
C1619 C399 1.287 . S
C1633 C413 1.286 . S
C1637 C185 1.321 . S
C1651 C199 1.330 . S
C1655 C427 1.300 . S
C1669 C213 1.330 . S
C1673 C441 1.301 . S
C1687 C227 1.326 . S
C1691 C455 1.293 . S
C1705 C255 1.319 . S
C1709 C469 1.285 . S
C1723 C483 1.300 . S
C1727 C269 1.330 . S
C1741 C497 1.302 . S
C1745 C577 1.327 . S
C1759 C115 1.324 . S
C1763 C511 1.290 . S
C1777 C525 1.293 . S
C1781 C493 1.326 . S
C1795 C539 1.284 . S
C1799 C129 1.317 . S
C1813 C143 1.318 . S
C1817 C553 1.291 . S
C1831 C567 1.290 . S
C1835 C3 1.318 . S
C1849 C581 1.286 . S
C1853 C17 1.316 . S
C1867 C31 1.330 . S
C1871 C595 1.300 . S
C1885 C609 1.300 . S
C1889 C45 1.324 . S
C1903 C623 1.292 . S
C1907 C59 1.318 . S
C1921 C87 1.323 . S
C1925 C637 1.288 . S
C1939 C651 1.287 . S
C1943 C101 1.321 . S
C1957 C409 1.316 . S
C1961 C665 1.286 . S
C1975 C37 0.924 . S
C1979 C9 0.938 . S
C1993 C51 0.939 . S
C1997 C23 0.922 . S
C2011 C443 0.920 . S
C2015 C65 0.921 . S
C2029 C429 0.939 . S
C2033 C79 0.922 . S
C2047 C415 0.919 . S
C2051 C93 0.939 . S
C2065 C107 0.938 . S
C2069 C401 0.914 . S
C2083 C121 0.938 . S
C2087 C499 0.915 . S
C2101 C149 0.938 . S
C2105 C135 0.914 . S
C2119 C163 0.936 . S
C2123 C457 0.913 . S
C2137 C205 0.925 . S
C2141 C177 0.917 . S
C2155 C219 0.937 . S
C2159 C191 0.926 . S
C2173 C611 0.914 . S
C2177 C233 0.932 . S
C2191 C597 0.938 . S
C2195 C247 0.923 . S
C2209 C261 0.916 . S
C2213 C583 0.926 . S
C2227 C275 0.914 . S
C2231 C569 0.936 . S
C2245 C667 0.917 . S
C2249 C289 0.925 . S
C2263 C317 0.922 . S
C2267 C303 0.939 . S
C2281 C331 0.916 . S
C2285 C625 0.939 . S
C2299 C373 0.921 . S
C2303 C345 0.920 . S
C2317 C359 0.917 . S
C2321 C387 0.924 . S
C2335 C485 0.937 . S
C2339 C471 0.914 . S
C2353 C513 0.924 . S
C2357 C541 0.918 . S
C2371 C527 0.936 . S
C2375 C555 0.914 . S
C2389 C639 0.939 . S
C2393 C653 0.922 . S
