# Generated by pormake.
# Topology pcl, (4)-cn, num edge types: 1
# Building blocks:
#     Node 0, Type 0, BuildingBlock: CEKHIL_clean_sbu_0, # of connection points: 4
#     Node 1, Type 0, BuildingBlock: CEKHIL_clean_sbu_0, # of connection points: 4
#     Node 2, Type 0, BuildingBlock: CEKHIL_clean_sbu_0, # of connection points: 4
#     Node 3, Type 0, BuildingBlock: CEKHIL_clean_sbu_0, # of connection points: 4
#     Node 4, Type 0, BuildingBlock: CEKHIL_clean_sbu_0, # of connection points: 4
#     Node 5, Type 0, BuildingBlock: CEKHIL_clean_sbu_0, # of connection points: 4
#     Node 6, Type 0, BuildingBlock: CEKHIL_clean_sbu_0, # of connection points: 4
#     Node 7, Type 0, BuildingBlock: CEKHIL_clean_sbu_0, # of connection points: 4
#     Node 8, Type 0, BuildingBlock: CEKHIL_clean_sbu_0, # of connection points: 4
#     Node 9, Type 0, BuildingBlock: CEKHIL_clean_sbu_0, # of connection points: 4
#     Node 10, Type 0, BuildingBlock: CEKHIL_clean_sbu_0, # of connection points: 4
#     Node 11, Type 0, BuildingBlock: CEKHIL_clean_sbu_0, # of connection points: 4
#     Node 12, Type 0, BuildingBlock: CEKHIL_clean_sbu_0, # of connection points: 4
#     Node 13, Type 0, BuildingBlock: CEKHIL_clean_sbu_0, # of connection points: 4
#     Node 14, Type 0, BuildingBlock: CEKHIL_clean_sbu_0, # of connection points: 4
#     Node 15, Type 0, BuildingBlock: CEKHIL_clean_sbu_0, # of connection points: 4
#     Edge 16, Type (0, 0), BuildingBlock: AJUNOK_clean_linker_0, # of connection points: 2
#     Edge 17, Type (0, 0), BuildingBlock: AJUNOK_clean_linker_0, # of connection points: 2
#     Edge 18, Type (0, 0), BuildingBlock: AJUNOK_clean_linker_0, # of connection points: 2
#     Edge 19, Type (0, 0), BuildingBlock: AJUNOK_clean_linker_0, # of connection points: 2
#     Edge 20, Type (0, 0), BuildingBlock: AJUNOK_clean_linker_0, # of connection points: 2
#     Edge 21, Type (0, 0), BuildingBlock: AJUNOK_clean_linker_0, # of connection points: 2
#     Edge 22, Type (0, 0), BuildingBlock: AJUNOK_clean_linker_0, # of connection points: 2
#     Edge 23, Type (0, 0), BuildingBlock: AJUNOK_clean_linker_0, # of connection points: 2
#     Edge 24, Type (0, 0), BuildingBlock: AJUNOK_clean_linker_0, # of connection points: 2
#     Edge 25, Type (0, 0), BuildingBlock: AJUNOK_clean_linker_0, # of connection points: 2
#     Edge 26, Type (0, 0), BuildingBlock: AJUNOK_clean_linker_0, # of connection points: 2
#     Edge 27, Type (0, 0), BuildingBlock: AJUNOK_clean_linker_0, # of connection points: 2
#     Edge 28, Type (0, 0), BuildingBlock: AJUNOK_clean_linker_0, # of connection points: 2
#     Edge 29, Type (0, 0), BuildingBlock: AJUNOK_clean_linker_0, # of connection points: 2
#     Edge 30, Type (0, 0), BuildingBlock: AJUNOK_clean_linker_0, # of connection points: 2
#     Edge 31, Type (0, 0), BuildingBlock: AJUNOK_clean_linker_0, # of connection points: 2
#     Edge 32, Type (0, 0), BuildingBlock: AJUNOK_clean_linker_0, # of connection points: 2
#     Edge 33, Type (0, 0), BuildingBlock: AJUNOK_clean_linker_0, # of connection points: 2
#     Edge 34, Type (0, 0), BuildingBlock: AJUNOK_clean_linker_0, # of connection points: 2
#     Edge 35, Type (0, 0), BuildingBlock: AJUNOK_clean_linker_0, # of connection points: 2
#     Edge 36, Type (0, 0), BuildingBlock: AJUNOK_clean_linker_0, # of connection points: 2
#     Edge 37, Type (0, 0), BuildingBlock: AJUNOK_clean_linker_0, # of connection points: 2
#     Edge 38, Type (0, 0), BuildingBlock: AJUNOK_clean_linker_0, # of connection points: 2
#     Edge 39, Type (0, 0), BuildingBlock: AJUNOK_clean_linker_0, # of connection points: 2
#     Edge 40, Type (0, 0), BuildingBlock: AJUNOK_clean_linker_0, # of connection points: 2
#     Edge 41, Type (0, 0), BuildingBlock: AJUNOK_clean_linker_0, # of connection points: 2
#     Edge 42, Type (0, 0), BuildingBlock: AJUNOK_clean_linker_0, # of connection points: 2
#     Edge 43, Type (0, 0), BuildingBlock: AJUNOK_clean_linker_0, # of connection points: 2
#     Edge 44, Type (0, 0), BuildingBlock: AJUNOK_clean_linker_0, # of connection points: 2
#     Edge 45, Type (0, 0), BuildingBlock: AJUNOK_clean_linker_0, # of connection points: 2
#     Edge 46, Type (0, 0), BuildingBlock: AJUNOK_clean_linker_0, # of connection points: 2
#     Edge 47, Type (0, 0), BuildingBlock: AJUNOK_clean_linker_0, # of connection points: 2
# Relax obj value: 0.071
# Max RMSD: 0.055
# Mean RMSD: 0.054
data_MOF--net-pcl--node1-CEKHIL_clean_sbu_0--edge1-AJUNOK_clean_linker_0
_symmetry_space_group_name_H-M    P1
_symmetry_Int_Tables_number       1
_symmetry_cell_setting            triclinic
loop_
_symmetry_equiv_pos_as_xyz
'x, y, z'
_cell_length_a     38.364968
_cell_length_b     29.956203
_cell_length_c     31.173754
_cell_angle_alpha  89.99785
_cell_angle_beta   90.013054
_cell_angle_gamma 89.975508
loop_
_atom_site_label
_atom_site_type_symbol
_atom_site_fract_x
_atom_site_fract_y
_atom_site_fract_z
_atom_type_partial_charge
Co0 Co 0.14346 0.3501 0.07656 0.0
O1 O 0.19269 0.34611 0.06325 0.0
O2 O 0.15564 0.29072 0.05505 0.0
C3 C 0.13539 0.41673 0.04272 0.0
O4 O 0.09027 0.34271 0.08555 0.0
Co5 Co 0.1157 0.42886 0.13218 0.0
O6 O 0.06925 0.40505 0.11701 0.0
C7 C 0.15585 0.35579 0.17243 0.0
C8 C 0.18747 0.30531 0.05118 0.0
C9 C 0.06478 0.36702 0.09961 0.0
O10 O 0.15351 0.33186 0.13817 0.0
O11 O 0.14558 0.39637 0.17471 0.0
O12 O 0.13476 0.37952 0.02133 0.0
O13 O 0.14311 0.41258 0.08276 0.0
Co14 Co 0.89044 0.66097 0.57518 0.0
O15 O 0.84105 0.66492 0.56259 0.0
O16 O 0.87797 0.72042 0.55421 0.0
C17 C 0.8982 0.59457 0.54081 0.0
O18 O 0.94367 0.66863 0.58335 0.0
Co19 Co 0.91953 0.58201 0.62948 0.0
O20 O 0.96564 0.60559 0.6124 0.0
C21 C 0.87948 0.65436 0.67121 0.0
C22 C 0.84613 0.70578 0.55057 0.0
C23 C 0.96957 0.64409 0.59579 0.0
O24 O 0.8811 0.67865 0.6371 0.0
O25 O 0.89005 0.61386 0.67287 0.0
O26 O 0.89856 0.63191 0.51961 0.0
O27 O 0.89106 0.59847 0.58103 0.0
Co28 Co 0.14228 0.66271 0.93512 0.0
O29 O 0.19149 0.66812 0.9489 0.0
O30 O 0.15292 0.72152 0.95868 0.0
C31 C 0.13541 0.59434 0.96609 0.0
O32 O 0.08898 0.669 0.92659 0.0
Co33 Co 0.11515 0.58609 0.87661 0.0
O34 O 0.06842 0.60722 0.89383 0.0
C35 C 0.15364 0.66177 0.83876 0.0
C36 C 0.18509 0.70819 0.96248 0.0
C37 C 0.06365 0.64455 0.91243 0.0
O38 O 0.15184 0.68387 0.87421 0.0
O39 O 0.14361 0.62126 0.83478 0.0
O40 O 0.13424 0.63047 0.98914 0.0
O41 O 0.14299 0.60059 0.92627 0.0
Co42 Co 0.8909 0.34841 0.43363 0.0
O43 O 0.84175 0.34295 0.44765 0.0
O44 O 0.88042 0.28973 0.45768 0.0
C45 C 0.89776 0.41701 0.4641 0.0
O46 O 0.94422 0.34232 0.42485 0.0
Co47 Co 0.91744 0.42465 0.37428 0.0
O48 O 0.96431 0.40389 0.3913 0.0
C49 C 0.88025 0.34765 0.3369 0.0
C50 C 0.84823 0.30298 0.46145 0.0
C51 C 0.96937 0.36678 0.41019 0.0
O52 O 0.88116 0.32661 0.37299 0.0
O53 O 0.89056 0.38794 0.33208 0.0
O54 O 0.89909 0.38103 0.48734 0.0
O55 O 0.88997 0.41052 0.42436 0.0
Co56 Co 0.83718 0.67124 0.91659 0.0
O57 O 0.78753 0.68062 0.92378 0.0
O58 O 0.82758 0.70924 0.96621 0.0
C59 C 0.83779 0.68355 0.8448 0.0
O60 O 0.891 0.66992 0.91865 0.0
Co61 Co 0.8654 0.59548 0.85739 0.0
O62 O 0.91011 0.62825 0.86328 0.0
C63 C 0.83661 0.57324 0.94295 0.0
C64 C 0.79461 0.70494 0.95703 0.0
C65 C 0.9157 0.65506 0.89427 0.0
O66 O 0.83456 0.61507 0.95275 0.0
O67 O 0.84548 0.55945 0.90562 0.0
O68 O 0.83918 0.71721 0.87111 0.0
O69 O 0.83386 0.64514 0.86246 0.0
Co70 Co 0.19571 0.33788 0.4174 0.0
O71 O 0.24509 0.32712 0.42624 0.0
O72 O 0.20358 0.29974 0.46725 0.0
C73 C 0.19665 0.32556 0.3456 0.0
O74 O 0.14189 0.34041 0.41785 0.0
Co75 Co 0.16967 0.41414 0.35737 0.0
O76 O 0.12425 0.38283 0.36229 0.0
C77 C 0.1971 0.43582 0.44373 0.0
C78 C 0.23679 0.30285 0.45913 0.0
C79 C 0.11777 0.35605 0.39305 0.0
O80 O 0.1984 0.39396 0.45361 0.0
O81 O 0.18916 0.44978 0.40614 0.0
O82 O 0.194 0.29196 0.37184 0.0
O83 O 0.20057 0.3639 0.36341 0.0
Co84 Co 0.83884 0.33448 0.09436 0.0
O85 O 0.78955 0.32333 0.08559 0.0
O86 O 0.83099 0.29907 0.04266 0.0
C87 C 0.83888 0.31782 0.16525 0.0
O88 O 0.89265 0.33809 0.09361 0.0
Co89 Co 0.86393 0.40811 0.15776 0.0
O90 O 0.90972 0.37798 0.15109 0.0
C91 C 0.83589 0.43381 0.07287 0.0
C92 C 0.79782 0.30109 0.05141 0.0
C93 C 0.91659 0.3529 0.11914 0.0
O94 O 0.83515 0.39245 0.0611 0.0
O95 O 0.84398 0.44613 0.11091 0.0
O96 O 0.84162 0.28597 0.13711 0.0
O97 O 0.83404 0.35713 0.14983 0.0
Co98 Co 0.19567 0.67449 0.59536 0.0
O99 O 0.24532 0.68388 0.58815 0.0
O100 O 0.20536 0.71008 0.54414 0.0
C101 C 0.19473 0.69046 0.6664 0.0
O102 O 0.14184 0.67261 0.59294 0.0
Co103 Co 0.16758 0.60154 0.65766 0.0
O104 O 0.12263 0.63341 0.64988 0.0
C105 C 0.19701 0.5753 0.57355 0.0
C106 C 0.23829 0.7065 0.55379 0.0
C107 C 0.11704 0.65863 0.61767 0.0
O108 O 0.1988 0.61663 0.56186 0.0
O109 O 0.18785 0.56319 0.61128 0.0
O110 O 0.19319 0.72271 0.63853 0.0
O111 O 0.19892 0.65117 0.65069 0.0
Co112 Co 0.64155 0.84809 0.07603 0.0
O113 O 0.69045 0.84285 0.0608 0.0
O114 O 0.65192 0.78924 0.05215 0.0
C115 C 0.63393 0.91648 0.04523 0.0
O116 O 0.5884 0.84182 0.08638 0.0
Co117 Co 0.61631 0.92493 0.13565 0.0
O118 O 0.56917 0.90246 0.12226 0.0
C119 C 0.65596 0.84942 0.17173 0.0
C120 C 0.68398 0.80271 0.04752 0.0
C121 C 0.56367 0.86561 0.10306 0.0
O122 O 0.65255 0.827 0.13664 0.0
O123 O 0.64647 0.89012 0.17589 0.0
O124 O 0.63227 0.88033 0.02225 0.0
O125 O 0.64246 0.9102 0.08474 0.0
Co126 Co 0.39124 0.16126 0.57695 0.0
O127 O 0.34206 0.16496 0.5631 0.0
O128 O 0.37932 0.21983 0.55324 0.0
C129 C 0.3995 0.0931 0.54594 0.0
O130 O 0.44441 0.16889 0.58613 0.0
Co131 Co 0.41836 0.08487 0.63602 0.0
O132 O 0.46491 0.10879 0.62188 0.0
C133 C 0.37755 0.15905 0.67259 0.0
C134 C 0.34742 0.20533 0.54978 0.0
C135 C 0.46964 0.14572 0.6025 0.0
O136 O 0.3809 0.182 0.63781 0.0
O137 O 0.38729 0.11838 0.67619 0.0
O138 O 0.40016 0.12927 0.52292 0.0
O139 O 0.39149 0.09918 0.58562 0.0
Co140 Co 0.6429 0.16058 0.9347 0.0
O141 O 0.69213 0.16431 0.94816 0.0
O142 O 0.65522 0.21996 0.95605 0.0
C143 C 0.63456 0.09409 0.96871 0.0
O144 O 0.58982 0.16837 0.92534 0.0
Co145 Co 0.61496 0.08166 0.87932 0.0
O146 O 0.56858 0.106 0.89419 0.0
C147 C 0.65499 0.15463 0.83879 0.0
C148 C 0.68701 0.2052 0.96006 0.0
C149 C 0.56426 0.14424 0.91123 0.0
O150 O 0.65297 0.17855 0.87309 0.0
O151 O 0.64468 0.11407 0.83658 0.0
O152 O 0.63401 0.13136 0.99001 0.0
O153 O 0.64234 0.09809 0.92869 0.0
Co154 Co 0.39168 0.84885 0.43574 0.0
O155 O 0.34283 0.84336 0.45086 0.0
O156 O 0.38107 0.78901 0.4572 0.0
C157 C 0.39952 0.91547 0.46968 0.0
O158 O 0.44475 0.84302 0.42476 0.0
Co159 Co 0.41635 0.92907 0.37961 0.0
O160 O 0.46352 0.90531 0.39113 0.0
C161 C 0.37659 0.85513 0.34054 0.0
C162 C 0.34912 0.80267 0.46259 0.0
C163 C 0.46926 0.86759 0.40866 0.0
O164 O 0.38062 0.83082 0.37433 0.0
O165 O 0.38556 0.89621 0.33845 0.0
O166 O 0.40122 0.87818 0.49088 0.0
O167 O 0.39083 0.91129 0.42998 0.0
Co168 Co 0.33887 0.17522 0.91675 0.0
O169 O 0.28956 0.18551 0.92634 0.0
O170 O 0.33128 0.21208 0.96755 0.0
C171 C 0.33756 0.18935 0.84534 0.0
O172 O 0.39273 0.1729 0.91639 0.0
Co173 Co 0.36435 0.1003 0.85494 0.0
O174 O 0.40964 0.13198 0.8595 0.0
C175 C 0.33765 0.07658 0.94102 0.0
C176 C 0.29802 0.209 0.95968 0.0
C177 C 0.4165 0.15825 0.89054 0.0
O178 O 0.3365 0.11823 0.95171 0.0
O179 O 0.34534 0.06339 0.90311 0.0
O180 O 0.34016 0.22231 0.87232 0.0
O181 O 0.33364 0.15057 0.86228 0.0
Co182 Co 0.69539 0.83588 0.41504 0.0
O183 O 0.74455 0.82491 0.42489 0.0
O184 O 0.70255 0.79962 0.4664 0.0
C185 C 0.69678 0.82044 0.34385 0.0
O186 O 0.64154 0.83922 0.41433 0.0
Co187 Co 0.67149 0.91059 0.35199 0.0
O188 O 0.62555 0.8807 0.35742 0.0
C189 C 0.6981 0.93488 0.43787 0.0
C190 C 0.73585 0.80204 0.45851 0.0
C191 C 0.61805 0.85485 0.38859 0.0
O192 O 0.69829 0.89337 0.44924 0.0
O193 O 0.69096 0.94774 0.39971 0.0
O194 O 0.69361 0.78807 0.37137 0.0
O195 O 0.70114 0.85944 0.36014 0.0
Co196 Co 0.33721 0.83883 0.09559 0.0
O197 O 0.28776 0.82957 0.08699 0.0
O198 O 0.32848 0.80145 0.04522 0.0
C199 C 0.33644 0.82536 0.16716 0.0
O200 O 0.39112 0.84027 0.09535 0.0
Co201 Co 0.3634 0.91419 0.15673 0.0
O202 O 0.40842 0.88198 0.15157 0.0
C203 C 0.33572 0.93729 0.07101 0.0
C204 C 0.29537 0.80564 0.05367 0.0
C205 C 0.41509 0.85533 0.12073 0.0
O206 O 0.33506 0.89563 0.06018 0.0
O207 O 0.34345 0.95063 0.10884 0.0
O208 O 0.33846 0.79212 0.14043 0.0
O209 O 0.33267 0.864 0.14992 0.0
Co210 Co 0.69584 0.17218 0.59405 0.0
O211 O 0.74535 0.18133 0.58569 0.0
O212 O 0.70476 0.20988 0.54396 0.0
C213 C 0.69629 0.18507 0.66569 0.0
O214 O 0.64195 0.17102 0.59353 0.0
Co215 Co 0.66909 0.09651 0.65437 0.0
O216 O 0.62437 0.1295 0.64973 0.0
C217 C 0.69641 0.07391 0.5683 0.0
C218 C 0.73784 0.2055 0.55248 0.0
C219 C 0.6179 0.15627 0.61894 0.0
O220 O 0.69793 0.11571 0.5582 0.0
O221 O 0.68836 0.06026 0.60594 0.0
O222 O 0.69452 0.21853 0.63918 0.0
O223 O 0.7001 0.14654 0.64825 0.0
C224 C 1.01328 0.34129 0.14067 0.0
C225 C 0.02852 0.34981 0.10048 0.0
C226 C 0.97698 0.33853 0.1456 0.0
C227 C 0.95424 0.34421 0.11054 0.0
H228 H 0.02949 0.3398 0.16911 0.0
H229 H 0.96654 0.33451 0.17767 0.0
S230 S 0.98109 0.3645 0.9979 0.0
N231 N 0.0183 0.36161 0.02453 0.0
N232 N 0.94991 0.35595 0.03357 0.0
C233 C 0.9692 0.34968 0.0696 0.0
C234 C 1.00638 0.35275 0.06465 0.0
C235 C 0.02028 0.67522 0.63504 0.0
C236 C 1.00573 0.66159 0.59576 0.0
C237 C 0.05656 0.67808 0.64068 0.0
C238 C 0.07983 0.66771 0.60718 0.0
H239 H 1.00357 0.68044 0.66261 0.0
H240 H 0.06654 0.68577 0.67235 0.0
S241 S 0.05487 0.63256 0.49734 0.0
N242 N 0.01723 0.63941 0.5223 0.0
N243 N 0.08545 0.64566 0.53251 0.0
C244 C 0.06556 0.657 0.56686 0.0
C245 C 0.0285 0.65359 0.56128 0.0
C246 C 0.97535 0.67613 0.8697 0.0
C247 C 0.95286 0.6652 0.90381 0.0
C248 C 1.01174 0.67409 0.8744 0.0
C249 C 0.02716 0.66084 0.91331 0.0
H250 H 0.96468 0.68361 0.83831 0.0
H251 H 0.0279 0.67976 0.84642 0.0
S252 S 0.98017 0.63044 0.01291 0.0
N253 N 0.9488 0.64284 0.97853 0.0
N254 N 0.01727 0.63832 0.98704 0.0
C255 C 1.00513 0.6523 0.94838 0.0
C256 C 0.96795 0.65478 0.94374 0.0
C257 C 0.058 0.33849 0.36643 0.0
C258 C 0.0803 0.3464 0.40147 0.0
C259 C 0.02161 0.34051 0.37084 0.0
C260 C 1.00592 0.35063 0.41043 0.0
H261 H 0.06882 0.33331 0.3347 0.0
H262 H 1.00565 0.33718 0.34232 0.0
S263 S 0.05228 0.37221 0.5126 0.0
N264 N 0.08386 0.36246 0.47775 0.0
N265 N 1.01534 0.36684 0.48578 0.0
C266 C 0.02771 0.35605 0.44631 0.0
C267 C 0.06494 0.35367 0.44191 0.0
C268 C 0.47497 0.84196 0.14911 0.0
C269 C 0.45269 0.8451 0.1133 0.0
C270 C 0.51131 0.84413 0.14471 0.0
C271 C 0.52713 0.84929 0.10433 0.0
H272 H 0.46413 0.84056 0.18119 0.0
H273 H 0.52712 0.84473 0.17353 0.0
S274 S 0.48114 0.8551 0.99996 0.0
N275 N 0.44944 0.85009 0.03556 0.0
N276 N 0.51799 0.85425 0.02747 0.0
C277 C 0.5055 0.84912 0.06792 0.0
C278 C 0.46822 0.84687 0.07236 0.0
C279 C 0.5583 0.17151 0.64726 0.0
C280 C 0.5804 0.16689 0.61146 0.0
C281 C 0.52193 0.16942 0.64312 0.0
C282 C 0.50596 0.16275 0.60302 0.0
H283 H 0.56929 0.1739 0.67922 0.0
H284 H 0.50623 0.16985 0.67203 0.0
S285 S 0.55154 0.15264 0.49871 0.0
N286 N 0.58338 0.15893 0.53395 0.0
N287 N 0.5148 0.15474 0.52635 0.0
C288 C 0.52745 0.16145 0.56652 0.0
C289 C 0.56473 0.16371 0.57068 0.0
C290 C 0.50549 0.1577 0.94462 0.0
C291 C 0.52822 0.16212 0.9094 0.0
C292 C 0.46897 0.16095 0.93933 0.0
C293 C 0.45408 0.16783 0.89848 0.0
H294 H 0.51579 0.14844 0.97574 0.0
H295 H 0.45231 0.15431 0.96664 0.0
S296 S 0.50268 0.18659 0.79717 0.0
N297 N 0.53339 0.17806 0.83341 0.0
N298 N 0.4653 0.1834 0.82327 0.0
C299 C 0.4768 0.17537 0.86379 0.0
C300 C 0.51371 0.17262 0.86929 0.0
C301 C 0.52129 0.84878 0.3652 0.0
C302 C 0.50579 0.85133 0.40599 0.0
C303 C 0.55756 0.84609 0.36026 0.0
C304 C 0.58014 0.84614 0.39592 0.0
H305 H 0.50529 0.85161 0.33666 0.0
H306 H 0.56809 0.84652 0.32801 0.0
S307 S 0.5525 0.8486 0.50999 0.0
N308 N 0.51548 0.85059 0.48289 0.0
N309 N 0.58391 0.8455 0.4738 0.0
C310 C 0.56488 0.84543 0.43707 0.0
C311 C 0.52766 0.84817 0.44207 0.0
C312 C 0.15378 0.30661 0.23749 0.0
C313 C 0.17191 0.33736 0.21161 0.0
C314 C 0.16375 0.29924 0.28051 0.0
C315 C 0.19191 0.32277 0.29861 0.0
H316 H 0.13029 0.29087 0.22554 0.0
H317 H 0.14771 0.27797 0.30049 0.0
S318 S 0.25037 0.40186 0.24216 0.0
N319 N 0.22128 0.38744 0.20566 0.0
N320 N 0.23996 0.37384 0.28594 0.0
C321 C 0.21167 0.35076 0.27188 0.0
C322 C 0.20165 0.35805 0.22847 0.0
C323 C 0.83565 0.64916 0.72891 0.0
C324 C 0.86395 0.67221 0.71097 0.0
C325 C 0.8257 0.65612 0.77154 0.0
C326 C 0.84369 0.68635 0.798 0.0
H327 H 0.82243 0.6235 0.71059 0.0
H328 H 0.80492 0.63574 0.78462 0.0
S329 S 0.91877 0.7565 0.76583 0.0
N330 N 0.90898 0.72798 0.72204 0.0
N331 N 0.89015 0.74122 0.80265 0.0
C332 C 0.87069 0.71177 0.77979 0.0
C333 C 0.8809 0.70459 0.73609 0.0
C334 C 0.19977 0.66383 0.78382 0.0
C335 C 0.1688 0.68219 0.80004 0.0
C336 C 0.20958 0.67043 0.74105 0.0
C337 C 0.18884 0.69574 0.71292 0.0
H338 H 0.21515 0.64135 0.80344 0.0
H339 H 0.23241 0.65308 0.72913 0.0
S340 S 0.10632 0.75319 0.74037 0.0
N341 N 0.11831 0.7287 0.78556 0.0
N342 N 0.13704 0.74159 0.70488 0.0
C343 C 0.15912 0.71705 0.72946 0.0
C344 C 0.14898 0.71007 0.77318 0.0
C345 C 0.87723 0.29623 0.22677 0.0
C346 C 0.84499 0.31213 0.21164 0.0
C347 C 0.88746 0.30355 0.26962 0.0
C348 C 0.86547 0.32623 0.29847 0.0
H349 H 0.89583 0.2818 0.20459 0.0
H350 H 0.9137 0.29464 0.27923 0.0
S351 S 0.77698 0.36935 0.27563 0.0
N352 N 0.79011 0.34782 0.2296 0.0
N353 N 0.80909 0.36075 0.30996 0.0
C354 C 0.83219 0.33886 0.28446 0.0
C355 C 0.822 0.33197 0.24101 0.0
C356 C 0.66226 0.79446 0.28016 0.0
C357 C 0.69198 0.81563 0.29707 0.0
C358 C 0.65231 0.80132 0.23709 0.0
C359 C 0.67208 0.82903 0.20991 0.0
H360 H 0.64503 0.77591 0.30113 0.0
H361 H 0.62759 0.78805 0.22615 0.0
S362 S 0.7546 0.88633 0.2373 0.0
N363 N 0.74294 0.86105 0.28214 0.0
N364 N 0.7244 0.87352 0.20162 0.0
C365 C 0.70332 0.84693 0.2256 0.0
C366 C 0.71325 0.8403 0.26914 0.0
C367 C 0.32356 0.16354 0.77214 0.0
C368 C 0.3423 0.19315 0.79843 0.0
C369 C 0.333 0.15648 0.72938 0.0
C370 C 0.36155 0.1788 0.71117 0.0
H371 H 0.30278 0.14337 0.78554 0.0
H372 H 0.31946 0.13087 0.71134 0.0
S373 S 0.4172 0.26295 0.76492 0.0
N374 N 0.38894 0.24787 0.80224 0.0
N375 N 0.40691 0.2343 0.72139 0.0
C376 C 0.37887 0.21115 0.73591 0.0
C377 C 0.36914 0.21848 0.77975 0.0
C378 C 0.69957 0.15199 0.7818 0.0
C379 C 0.67026 0.17329 0.79929 0.0
C380 C 0.70948 0.15932 0.7392 0.0
C381 C 0.69044 0.18818 0.71242 0.0
H382 H 0.71364 0.12727 0.80039 0.0
H383 H 0.73105 0.14015 0.72635 0.0
S384 S 0.61225 0.25324 0.74335 0.0
N385 N 0.62299 0.22578 0.78743 0.0
N386 N 0.64176 0.23975 0.70694 0.0
C387 C 0.66233 0.2119 0.73021 0.0
C388 C 0.65215 0.20432 0.77383 0.0
C389 C 0.32285 0.85149 0.24039 0.0
C390 C 0.34157 0.82193 0.21401 0.0
C391 C 0.33241 0.85856 0.28313 0.0
C392 C 0.36104 0.83627 0.30124 0.0
H393 H 0.3019 0.87148 0.22711 0.0
H394 H 0.31873 0.88394 0.30133 0.0
S395 S 0.4174 0.75335 0.24678 0.0
N396 N 0.38879 0.76808 0.20971 0.0
N397 N 0.4069 0.7815 0.29054 0.0
C398 C 0.37855 0.80425 0.27628 0.0
C399 C 0.36874 0.79697 0.23246 0.0
C400 C 0.23522 0.2205 0.98084 0.0
C401 C 0.27071 0.23172 0.98621 0.0
C402 C 0.20859 0.24306 1.00323 0.0
C403 C 0.21619 0.27835 0.03153 0.0
H404 H 0.2278 0.19434 0.95868 0.0
H405 H 0.18177 0.23371 0.99717 0.0
S406 S 0.30482 0.31924 0.05931 0.0
N407 N 0.31189 0.27913 0.02404 0.0
N408 N 0.26211 0.32186 0.06537 0.0
C409 C 0.2516 0.28914 0.03809 0.0
C410 C 0.27873 0.26577 0.01571 0.0
C411 C 0.82502 0.76824 0.50293 0.0
C412 C 0.81738 0.73268 0.53089 0.0
C413 C 0.79847 0.79078 0.4804 0.0
C414 C 0.763 0.77933 0.48531 0.0
H415 H 0.85185 0.7778 0.4972 0.0
H416 H 0.80596 0.81715 0.45849 0.0
S417 S 0.72872 0.69094 0.55727 0.0
N418 N 0.77139 0.68856 0.56384 0.0
N419 N 0.72173 0.73134 0.52226 0.0
C420 C 0.75489 0.745 0.51447 0.0
C421 C 0.78197 0.72161 0.53698 0.0
C422 C 0.27485 0.74571 1.00251 0.0
C423 C 0.2674 0.78343 0.02784 0.0
C424 C 0.24823 0.72225 0.98094 0.0
C425 C 0.21301 0.73583 0.98314 0.0
H426 H 0.30133 0.73335 1.00032 0.0
H427 H 0.25535 0.69281 0.96277 0.0
S428 S 0.17992 0.83462 0.04246 0.0
N429 N 0.22224 0.83458 0.05205 0.0
N430 N 0.17264 0.79111 0.0112 0.0
C431 C 0.20542 0.77447 0.0071 0.0
C432 C 0.23244 0.79801 0.02949 0.0
C433 C 0.75846 0.26545 0.50142 0.0
C434 C 0.76589 0.22775 0.52678 0.0
C435 C 0.78509 0.28891 0.47988 0.0
C436 C 0.82032 0.27536 0.48217 0.0
H437 H 0.73198 0.27778 0.49913 0.0
H438 H 0.77797 0.31832 0.46166 0.0
S439 S 0.85336 0.17659 0.54157 0.0
N440 N 0.81103 0.17661 0.55109 0.0
N441 N 0.86067 0.2201 0.51033 0.0
C442 C 0.82789 0.23674 0.50617 0.0
C443 C 0.80085 0.21318 0.52852 0.0
C444 C 0.74711 0.78811 0.02965 0.0
C445 C 0.71182 0.77508 0.02666 0.0
C446 C 0.77377 0.76461 0.00823 0.0
C447 C 0.76633 0.7274 0.98221 0.0
H448 H 0.75427 0.8171 0.04846 0.0
H449 H 0.80033 0.77649 0.0112 0.0
S450 S 0.67856 0.67801 0.96499 0.0
N451 N 0.67129 0.72104 0.99686 0.0
N452 N 0.721 0.67749 0.95622 0.0
C453 C 0.73126 0.71344 0.9796 0.0
C454 C 0.70417 0.73703 1.00189 0.0
C455 C 0.32634 0.26741 0.5015 0.0
C456 C 0.31872 0.2321 0.52977 0.0
C457 C 0.29971 0.2903 0.47939 0.0
C458 C 0.26419 0.27942 0.48501 0.0
H459 H 0.35318 0.27665 0.49538 0.0
H460 H 0.30716 0.31656 0.45733 0.0
S461 S 0.23001 0.19171 0.55784 0.0
N462 N 0.27273 0.18873 0.56363 0.0
N463 N 0.22298 0.23206 0.52281 0.0
C464 C 0.25616 0.24519 0.51432 0.0
C465 C 0.28329 0.2215 0.53643 0.0
C466 C 0.73494 0.28957 0.03065 0.0
C467 C 0.77042 0.27852 0.0249 0.0
C468 C 0.70824 0.26713 0.00829 0.0
C469 C 0.71577 0.23207 0.97969 0.0
H470 H 0.72758 0.31553 0.05307 0.0
H471 H 0.68143 0.27635 0.01462 0.0
S472 S 0.80434 0.19154 0.95107 0.0
N473 N 0.81151 0.23146 0.98651 0.0
N474 N 0.76161 0.18886 0.94529 0.0
C475 C 0.75116 0.2214 0.97282 0.0
C476 C 0.77837 0.2447 0.99513 0.0
C477 C 0.25921 0.76482 0.50132 0.0
C478 C 0.26659 0.72812 0.52803 0.0
C479 C 0.28595 0.78791 0.47967 0.0
C480 C 0.32122 0.7749 0.48306 0.0
H481 H 0.23268 0.77673 0.49811 0.0
H482 H 0.27886 0.81665 0.46047 0.0
S483 S 0.35429 0.67888 0.54639 0.0
N484 N 0.31182 0.67856 0.555 0.0
N485 N 0.36167 0.72131 0.51382 0.0
C486 C 0.32879 0.73722 0.50836 0.0
C487 C 0.30164 0.71409 0.53095 0.0
C488 C 0.13105 0.54295 0.02947 0.0
C489 C 0.13147 0.54881 0.98469 0.0
C490 C 0.13113 0.50013 0.04788 0.0
C491 C 0.13134 0.46134 0.02229 0.0
H492 H 0.13181 0.57163 0.0506 0.0
H493 H 0.13187 0.49752 0.08252 0.0
S494 S 0.12945 0.45817 0.90329 0.0
N495 N 0.13001 0.51186 0.91516 0.0
N496 N 0.12975 0.43172 0.94972 0.0
C497 C 0.13017 0.46669 0.97749 0.0
C498 C 0.13037 0.51029 0.95872 0.0
C499 C 0.9029 0.51125 0.54572 0.0
C500 C 0.90211 0.55005 0.52017 0.0
C501 C 0.90286 0.46846 0.52729 0.0
C502 C 0.90173 0.4626 0.48253 0.0
H503 H 0.90275 0.51382 0.58037 0.0
H504 H 0.90259 0.43977 0.54845 0.0
S505 S 0.90196 0.55329 0.40115 0.0
N506 N 0.90232 0.57973 0.4476 0.0
N507 N 0.90185 0.49959 0.413 0.0
C508 C 0.90222 0.50114 0.45655 0.0
C509 C 0.90253 0.54474 0.47534 0.0
C510 C 0.83328 0.45921 0.99642 0.0
C511 C 0.8304 0.46943 0.04025 0.0
C512 C 0.83365 0.49292 0.96531 0.0
C513 C 0.8311 0.53849 0.97652 0.0
H514 H 0.83685 0.42501 0.98598 0.0
H515 H 0.83719 0.48293 0.93221 0.0
S516 S 0.81747 0.58274 0.0865 0.0
N517 N 0.82075 0.52822 0.09302 0.0
N518 N 0.82166 0.5915 0.0345 0.0
C519 C 0.82585 0.54903 0.02002 0.0
C520 C 0.82547 0.51459 0.05182 0.0
C521 C 0.20101 0.51606 0.46613 0.0
C522 C 0.2024 0.47044 0.47746 0.0
C523 C 0.20117 0.54979 0.49723 0.0
C524 C 0.20267 0.53952 0.54115 0.0
H525 H 0.19857 0.5261 0.43289 0.0
H526 H 0.19853 0.58407 0.48665 0.0
S527 S 0.21211 0.42588 0.58796 0.0
N528 N 0.20919 0.41721 0.53582 0.0
N529 N 0.20973 0.48049 0.59431 0.0
C530 C 0.20641 0.49422 0.55294 0.0
C531 C 0.20625 0.45978 0.52116 0.0
C532 C 0.62951 0.01076 0.96356 0.0
C533 C 0.63023 0.04953 0.98916 0.0
C534 C 0.62923 0.96793 0.98194 0.0
C535 C 0.62996 0.96204 0.02671 0.0
H536 H 0.63002 0.01339 0.92891 0.0
H537 H 0.62964 0.93925 0.96078 0.0
S538 S 0.62924 0.05264 0.10817 0.0
N539 N 0.62941 0.07913 0.06175 0.0
N540 N 0.62929 0.99896 0.09626 0.0
C541 C 0.62934 1.00055 0.05271 0.0
C542 C 0.62934 0.04417 0.03397 0.0
C543 C 0.40329 0.99885 0.46427 0.0
C544 C 0.40379 0.96011 0.48993 0.0
C545 C 0.40344 0.0417 0.48257 0.0
C546 C 0.40378 0.04764 0.52734 0.0
H547 H 0.40189 0.99616 0.42966 0.0
H548 H 0.40204 0.07033 0.46141 0.0
S549 S 0.40806 0.9572 0.60882 0.0
N550 N 0.40703 0.93063 0.56246 0.0
N551 N 0.4069 0.01085 0.59687 0.0
C552 C 0.40569 0.00919 0.55334 0.0
C553 C 0.40583 0.96555 0.53466 0.0
C554 C 0.33675 0.96229 0.99439 0.0
C555 C 0.3306 0.97225 0.03774 0.0
C556 C 0.3376 0.99607 0.96333 0.0
C557 C 0.33228 0.04136 0.97417 0.0
H558 H 0.34256 0.92842 0.98453 0.0
H559 H 0.34374 0.98646 0.9307 0.0
S560 S 0.30958 0.08423 0.08238 0.0
N561 N 0.31499 0.03004 0.0893 0.0
N562 N 0.31672 0.09343 0.03093 0.0
C563 C 0.32388 0.05141 0.01702 0.0
C564 C 0.32302 0.01694 0.04873 0.0
C565 C 0.69744 0.99356 0.54565 0.0
C566 C 0.70173 0.03902 0.5348 0.0
C567 C 0.69815 0.95992 0.51448 0.0
C568 C 0.70312 0.97011 0.47094 0.0
H569 H 0.69229 0.98365 0.57845 0.0
H570 H 0.69322 0.92588 0.52452 0.0
S571 S 0.72103 0.08285 0.42596 0.0
N572 N 0.71496 0.09169 0.47767 0.0
N573 N 0.71646 0.02854 0.41904 0.0
C574 C 0.70965 0.01507 0.45983 0.0
C575 C 0.70893 0.04942 0.4917 0.0
loop_
_geom_bond_atom_site_label_1
_geom_bond_atom_site_label_2
_geom_bond_distance
_geom_bond_site_symmetry_2
_ccdc_geom_bond_type
Co0 O1 2.216 . S
Co0 O2 2.091 . S
Co0 O4 2.004 . S
Co0 O10 2.021 . S
Co0 O12 2.137 . S
Co0 O13 2.244 . S
O1 Co0 2.216 . S
O1 C8 1.247 . S
O2 Co0 2.091 . S
O2 C8 1.261 . S
C3 O12 1.247 . S
C3 O13 1.272 . S
O4 Co0 2.004 . S
O4 C9 1.259 . S
Co5 O6 2.061 . S
Co5 O11 2.052 . S
Co5 O13 2.135 . S
O6 Co5 2.061 . S
O6 C9 1.235 . S
C7 O10 1.238 . S
C7 O11 1.241 . S
C8 O1 1.247 . S
C8 O2 1.261 . S
C9 O4 1.259 . S
C9 O6 1.235 . S
O10 Co0 2.021 . S
O10 C7 1.238 . S
O11 Co5 2.052 . S
O11 C7 1.241 . S
O12 Co0 2.137 . S
O12 C3 1.247 . S
O13 Co0 2.244 . S
O13 C3 1.272 . S
O13 Co5 2.135 . S
Co14 O15 2.216 . S
Co14 O16 2.091 . S
Co14 O18 2.004 . S
Co14 O24 2.021 . S
Co14 O26 2.137 . S
Co14 O27 2.244 . S
O15 Co14 2.216 . S
O15 C22 1.247 . S
O16 Co14 2.091 . S
O16 C22 1.261 . S
C17 O26 1.247 . S
C17 O27 1.272 . S
O18 Co14 2.004 . S
O18 C23 1.259 . S
Co19 O20 2.061 . S
Co19 O25 2.052 . S
Co19 O27 2.135 . S
O20 Co19 2.061 . S
O20 C23 1.235 . S
C21 O24 1.238 . S
C21 O25 1.241 . S
C22 O15 1.247 . S
C22 O16 1.261 . S
C23 O18 1.259 . S
C23 O20 1.235 . S
O24 Co14 2.021 . S
O24 C21 1.238 . S
O25 Co19 2.052 . S
O25 C21 1.241 . S
O26 Co14 2.137 . S
O26 C17 1.247 . S
O27 Co14 2.244 . S
O27 C17 1.272 . S
O27 Co19 2.135 . S
Co28 O29 2.216 . S
Co28 O30 2.091 . S
Co28 O32 2.004 . S
Co28 O38 2.021 . S
Co28 O40 2.137 . S
Co28 O41 2.244 . S
O29 Co28 2.216 . S
O29 C36 1.247 . S
O30 Co28 2.091 . S
O30 C36 1.261 . S
C31 O40 1.247 . S
C31 O41 1.272 . S
O32 Co28 2.004 . S
O32 C37 1.259 . S
Co33 O34 2.061 . S
Co33 O39 2.052 . S
Co33 O41 2.135 . S
O34 Co33 2.061 . S
O34 C37 1.235 . S
C35 O38 1.238 . S
C35 O39 1.241 . S
C36 O29 1.247 . S
C36 O30 1.261 . S
C37 O32 1.259 . S
C37 O34 1.235 . S
O38 Co28 2.021 . S
O38 C35 1.238 . S
O39 Co33 2.052 . S
O39 C35 1.241 . S
O40 Co28 2.137 . S
O40 C31 1.247 . S
O41 Co28 2.244 . S
O41 C31 1.272 . S
O41 Co33 2.135 . S
Co42 O43 2.216 . S
Co42 O44 2.091 . S
Co42 O46 2.004 . S
Co42 O52 2.021 . S
Co42 O54 2.137 . S
Co42 O55 2.244 . S
O43 Co42 2.216 . S
O43 C50 1.247 . S
O44 Co42 2.091 . S
O44 C50 1.261 . S
C45 O54 1.247 . S
C45 O55 1.272 . S
O46 Co42 2.004 . S
O46 C51 1.259 . S
Co47 O48 2.061 . S
Co47 O53 2.052 . S
Co47 O55 2.135 . S
O48 Co47 2.061 . S
O48 C51 1.235 . S
C49 O52 1.238 . S
C49 O53 1.241 . S
C50 O43 1.247 . S
C50 O44 1.261 . S
C51 O46 1.259 . S
C51 O48 1.235 . S
O52 Co42 2.021 . S
O52 C49 1.238 . S
O53 Co47 2.052 . S
O53 C49 1.241 . S
O54 Co42 2.137 . S
O54 C45 1.247 . S
O55 Co42 2.244 . S
O55 C45 1.272 . S
O55 Co47 2.135 . S
Co56 O57 2.216 . S
Co56 O58 2.091 . S
Co56 O60 2.004 . S
Co56 O66 2.021 . S
Co56 O68 2.137 . S
Co56 O69 2.244 . S
O57 Co56 2.216 . S
O57 C64 1.247 . S
O58 Co56 2.091 . S
O58 C64 1.261 . S
C59 O68 1.247 . S
C59 O69 1.272 . S
O60 Co56 2.004 . S
O60 C65 1.259 . S
Co61 O62 2.061 . S
Co61 O67 2.052 . S
Co61 O69 2.135 . S
O62 Co61 2.061 . S
O62 C65 1.235 . S
C63 O66 1.238 . S
C63 O67 1.241 . S
C64 O57 1.247 . S
C64 O58 1.261 . S
C65 O60 1.259 . S
C65 O62 1.235 . S
O66 Co56 2.021 . S
O66 C63 1.238 . S
O67 Co61 2.052 . S
O67 C63 1.241 . S
O68 Co56 2.137 . S
O68 C59 1.247 . S
O69 Co56 2.244 . S
O69 C59 1.272 . S
O69 Co61 2.135 . S
Co70 O71 2.216 . S
Co70 O72 2.091 . S
Co70 O74 2.004 . S
Co70 O80 2.021 . S
Co70 O82 2.137 . S
Co70 O83 2.244 . S
O71 Co70 2.216 . S
O71 C78 1.247 . S
O72 Co70 2.091 . S
O72 C78 1.261 . S
C73 O82 1.247 . S
C73 O83 1.272 . S
O74 Co70 2.004 . S
O74 C79 1.259 . S
Co75 O76 2.061 . S
Co75 O81 2.052 . S
Co75 O83 2.135 . S
O76 Co75 2.061 . S
O76 C79 1.235 . S
C77 O80 1.238 . S
C77 O81 1.241 . S
C78 O71 1.247 . S
C78 O72 1.261 . S
C79 O74 1.259 . S
C79 O76 1.235 . S
O80 Co70 2.021 . S
O80 C77 1.238 . S
O81 Co75 2.052 . S
O81 C77 1.241 . S
O82 Co70 2.137 . S
O82 C73 1.247 . S
O83 Co70 2.244 . S
O83 C73 1.272 . S
O83 Co75 2.135 . S
Co84 O85 2.216 . S
Co84 O86 2.091 . S
Co84 O88 2.004 . S
Co84 O94 2.021 . S
Co84 O96 2.137 . S
Co84 O97 2.244 . S
O85 Co84 2.216 . S
O85 C92 1.247 . S
O86 Co84 2.091 . S
O86 C92 1.261 . S
C87 O96 1.247 . S
C87 O97 1.272 . S
O88 Co84 2.004 . S
O88 C93 1.259 . S
Co89 O90 2.061 . S
Co89 O95 2.052 . S
Co89 O97 2.135 . S
O90 Co89 2.061 . S
O90 C93 1.235 . S
C91 O94 1.238 . S
C91 O95 1.241 . S
C92 O85 1.247 . S
C92 O86 1.261 . S
C93 O88 1.259 . S
C93 O90 1.235 . S
O94 Co84 2.021 . S
O94 C91 1.238 . S
O95 Co89 2.052 . S
O95 C91 1.241 . S
O96 Co84 2.137 . S
O96 C87 1.247 . S
O97 Co84 2.244 . S
O97 C87 1.272 . S
O97 Co89 2.135 . S
Co98 O99 2.216 . S
Co98 O100 2.091 . S
Co98 O102 2.004 . S
Co98 O108 2.021 . S
Co98 O110 2.137 . S
Co98 O111 2.244 . S
O99 Co98 2.216 . S
O99 C106 1.247 . S
O100 Co98 2.091 . S
O100 C106 1.261 . S
C101 O110 1.247 . S
C101 O111 1.272 . S
O102 Co98 2.004 . S
O102 C107 1.259 . S
Co103 O104 2.061 . S
Co103 O109 2.052 . S
Co103 O111 2.135 . S
O104 Co103 2.061 . S
O104 C107 1.235 . S
C105 O108 1.238 . S
C105 O109 1.241 . S
C106 O99 1.247 . S
C106 O100 1.261 . S
C107 O102 1.259 . S
C107 O104 1.235 . S
O108 Co98 2.021 . S
O108 C105 1.238 . S
O109 Co103 2.052 . S
O109 C105 1.241 . S
O110 Co98 2.137 . S
O110 C101 1.247 . S
O111 Co98 2.244 . S
O111 C101 1.272 . S
O111 Co103 2.135 . S
Co112 O113 2.216 . S
Co112 O114 2.091 . S
Co112 O116 2.004 . S
Co112 O122 2.021 . S
Co112 O124 2.137 . S
Co112 O125 2.244 . S
O113 Co112 2.216 . S
O113 C120 1.247 . S
O114 Co112 2.091 . S
O114 C120 1.261 . S
C115 O124 1.247 . S
C115 O125 1.272 . S
O116 Co112 2.004 . S
O116 C121 1.259 . S
Co117 O118 2.061 . S
Co117 O123 2.052 . S
Co117 O125 2.135 . S
O118 Co117 2.061 . S
O118 C121 1.235 . S
C119 O122 1.238 . S
C119 O123 1.241 . S
C120 O113 1.247 . S
C120 O114 1.261 . S
C121 O116 1.259 . S
C121 O118 1.235 . S
O122 Co112 2.021 . S
O122 C119 1.238 . S
O123 Co117 2.052 . S
O123 C119 1.241 . S
O124 Co112 2.137 . S
O124 C115 1.247 . S
O125 Co112 2.244 . S
O125 C115 1.272 . S
O125 Co117 2.135 . S
Co126 O127 2.216 . S
Co126 O128 2.091 . S
Co126 O130 2.004 . S
Co126 O136 2.021 . S
Co126 O138 2.137 . S
Co126 O139 2.244 . S
O127 Co126 2.216 . S
O127 C134 1.247 . S
O128 Co126 2.091 . S
O128 C134 1.261 . S
C129 O138 1.247 . S
C129 O139 1.272 . S
O130 Co126 2.004 . S
O130 C135 1.259 . S
Co131 O132 2.061 . S
Co131 O137 2.052 . S
Co131 O139 2.135 . S
O132 Co131 2.061 . S
O132 C135 1.235 . S
C133 O136 1.238 . S
C133 O137 1.241 . S
C134 O127 1.247 . S
C134 O128 1.261 . S
C135 O130 1.259 . S
C135 O132 1.235 . S
O136 Co126 2.021 . S
O136 C133 1.238 . S
O137 Co131 2.052 . S
O137 C133 1.241 . S
O138 Co126 2.137 . S
O138 C129 1.247 . S
O139 Co126 2.244 . S
O139 C129 1.272 . S
O139 Co131 2.135 . S
Co140 O141 2.216 . S
Co140 O142 2.091 . S
Co140 O144 2.004 . S
Co140 O150 2.021 . S
Co140 O152 2.137 . S
Co140 O153 2.244 . S
O141 Co140 2.216 . S
O141 C148 1.247 . S
O142 Co140 2.091 . S
O142 C148 1.261 . S
C143 O152 1.247 . S
C143 O153 1.272 . S
O144 Co140 2.004 . S
O144 C149 1.259 . S
Co145 O146 2.061 . S
Co145 O151 2.052 . S
Co145 O153 2.135 . S
O146 Co145 2.061 . S
O146 C149 1.235 . S
C147 O150 1.238 . S
C147 O151 1.241 . S
C148 O141 1.247 . S
C148 O142 1.261 . S
C149 O144 1.259 . S
C149 O146 1.235 . S
O150 Co140 2.021 . S
O150 C147 1.238 . S
O151 Co145 2.052 . S
O151 C147 1.241 . S
O152 Co140 2.137 . S
O152 C143 1.247 . S
O153 Co140 2.244 . S
O153 C143 1.272 . S
O153 Co145 2.135 . S
Co154 O155 2.216 . S
Co154 O156 2.091 . S
Co154 O158 2.004 . S
Co154 O164 2.021 . S
Co154 O166 2.137 . S
Co154 O167 2.244 . S
O155 Co154 2.216 . S
O155 C162 1.247 . S
O156 Co154 2.091 . S
O156 C162 1.261 . S
C157 O166 1.247 . S
C157 O167 1.272 . S
O158 Co154 2.004 . S
O158 C163 1.259 . S
Co159 O160 2.061 . S
Co159 O165 2.052 . S
Co159 O167 2.135 . S
O160 Co159 2.061 . S
O160 C163 1.235 . S
C161 O164 1.238 . S
C161 O165 1.241 . S
C162 O155 1.247 . S
C162 O156 1.261 . S
C163 O158 1.259 . S
C163 O160 1.235 . S
O164 Co154 2.021 . S
O164 C161 1.238 . S
O165 Co159 2.052 . S
O165 C161 1.241 . S
O166 Co154 2.137 . S
O166 C157 1.247 . S
O167 Co154 2.244 . S
O167 C157 1.272 . S
O167 Co159 2.135 . S
Co168 O169 2.216 . S
Co168 O170 2.091 . S
Co168 O172 2.004 . S
Co168 O178 2.021 . S
Co168 O180 2.137 . S
Co168 O181 2.244 . S
O169 Co168 2.216 . S
O169 C176 1.247 . S
O170 Co168 2.091 . S
O170 C176 1.261 . S
C171 O180 1.247 . S
C171 O181 1.272 . S
O172 Co168 2.004 . S
O172 C177 1.259 . S
Co173 O174 2.061 . S
Co173 O179 2.052 . S
Co173 O181 2.135 . S
O174 Co173 2.061 . S
O174 C177 1.235 . S
C175 O178 1.238 . S
C175 O179 1.241 . S
C176 O169 1.247 . S
C176 O170 1.261 . S
C177 O172 1.259 . S
C177 O174 1.235 . S
O178 Co168 2.021 . S
O178 C175 1.238 . S
O179 Co173 2.052 . S
O179 C175 1.241 . S
O180 Co168 2.137 . S
O180 C171 1.247 . S
O181 Co168 2.244 . S
O181 C171 1.272 . S
O181 Co173 2.135 . S
Co182 O183 2.216 . S
Co182 O184 2.091 . S
Co182 O186 2.004 . S
Co182 O192 2.021 . S
Co182 O194 2.137 . S
Co182 O195 2.244 . S
O183 Co182 2.216 . S
O183 C190 1.247 . S
O184 Co182 2.091 . S
O184 C190 1.261 . S
C185 O194 1.247 . S
C185 O195 1.272 . S
O186 Co182 2.004 . S
O186 C191 1.259 . S
Co187 O188 2.061 . S
Co187 O193 2.052 . S
Co187 O195 2.135 . S
O188 Co187 2.061 . S
O188 C191 1.235 . S
C189 O192 1.238 . S
C189 O193 1.241 . S
C190 O183 1.247 . S
C190 O184 1.261 . S
C191 O186 1.259 . S
C191 O188 1.235 . S
O192 Co182 2.021 . S
O192 C189 1.238 . S
O193 Co187 2.052 . S
O193 C189 1.241 . S
O194 Co182 2.137 . S
O194 C185 1.247 . S
O195 Co182 2.244 . S
O195 C185 1.272 . S
O195 Co187 2.135 . S
Co196 O197 2.216 . S
Co196 O198 2.091 . S
Co196 O200 2.004 . S
Co196 O206 2.021 . S
Co196 O208 2.137 . S
Co196 O209 2.244 . S
O197 Co196 2.216 . S
O197 C204 1.247 . S
O198 Co196 2.091 . S
O198 C204 1.261 . S
C199 O208 1.247 . S
C199 O209 1.272 . S
O200 Co196 2.004 . S
O200 C205 1.259 . S
Co201 O202 2.061 . S
Co201 O207 2.052 . S
Co201 O209 2.135 . S
O202 Co201 2.061 . S
O202 C205 1.235 . S
C203 O206 1.238 . S
C203 O207 1.241 . S
C204 O197 1.247 . S
C204 O198 1.261 . S
C205 O200 1.259 . S
C205 O202 1.235 . S
O206 Co196 2.021 . S
O206 C203 1.238 . S
O207 Co201 2.052 . S
O207 C203 1.241 . S
O208 Co196 2.137 . S
O208 C199 1.247 . S
O209 Co196 2.244 . S
O209 C199 1.272 . S
O209 Co201 2.135 . S
Co210 O211 2.216 . S
Co210 O212 2.091 . S
Co210 O214 2.004 . S
Co210 O220 2.021 . S
Co210 O222 2.137 . S
Co210 O223 2.244 . S
O211 Co210 2.216 . S
O211 C218 1.247 . S
O212 Co210 2.091 . S
O212 C218 1.261 . S
C213 O222 1.247 . S
C213 O223 1.272 . S
O214 Co210 2.004 . S
O214 C219 1.259 . S
Co215 O216 2.061 . S
Co215 O221 2.052 . S
Co215 O223 2.135 . S
O216 Co215 2.061 . S
O216 C219 1.235 . S
C217 O220 1.238 . S
C217 O221 1.241 . S
C218 O211 1.247 . S
C218 O212 1.261 . S
C219 O214 1.259 . S
C219 O216 1.235 . S
O220 Co210 2.021 . S
O220 C217 1.238 . S
O221 Co215 2.052 . S
O221 C217 1.241 . S
O222 Co210 2.137 . S
O222 C213 1.247 . S
O223 Co210 2.244 . S
O223 C213 1.272 . S
O223 Co215 2.135 . S
C224 C225 1.369 . S
C224 C226 1.419 1_455 S
C224 H228 0.930 . S
C225 C224 1.369 . S
C225 C234 1.429 . S
C226 C224 1.419 1_655 S
C226 C227 1.363 . S
C226 H229 0.929 . S
C227 C226 1.363 . S
C227 C233 1.428 . S
H228 C224 0.930 . S
H229 C226 0.929 . S
S230 N231 1.613 1_655 S
S230 N232 1.610 . S
N231 S230 1.613 1_455 S
N231 C234 1.350 . S
N232 S230 1.610 . S
N232 C233 1.351 . S
C233 C227 1.428 . S
C233 N232 1.351 . S
C233 C234 1.434 1_655 S
C234 C225 1.429 . S
C234 N231 1.350 . S
C234 C233 1.434 1_455 S
C235 C236 1.369 . S
C235 C237 1.419 1_655 S
C235 H239 0.930 . S
C236 C235 1.369 . S
C236 C245 1.429 . S
C237 C235 1.419 1_455 S
C237 C238 1.363 . S
C237 H240 0.929 . S
C238 C237 1.363 . S
C238 C244 1.428 . S
H239 C235 0.930 . S
H240 C237 0.929 . S
S241 N242 1.613 1_455 S
S241 N243 1.610 . S
N242 S241 1.613 1_655 S
N242 C245 1.350 . S
N243 S241 1.610 . S
N243 C244 1.351 . S
C244 C238 1.428 . S
C244 N243 1.351 . S
C244 C245 1.434 1_455 S
C245 C236 1.429 . S
C245 N242 1.350 . S
C245 C244 1.434 1_655 S
C246 C247 1.369 . S
C246 C248 1.419 1_655 S
C246 H250 0.930 . S
C247 C246 1.369 . S
C247 C256 1.429 . S
C248 C246 1.419 1_455 S
C248 C249 1.363 . S
C248 H251 0.929 . S
C249 C248 1.363 . S
C249 C255 1.428 . S
H250 C246 0.930 . S
H251 C248 0.929 . S
S252 N253 1.613 . S
S252 N254 1.610 1_655 S
N253 S252 1.613 . S
N253 C256 1.350 . S
N254 S252 1.610 1_455 S
N254 C255 1.351 . S
C255 C249 1.428 . S
C255 N254 1.351 . S
C255 C256 1.434 1_455 S
C256 C247 1.429 . S
C256 N253 1.350 . S
C256 C255 1.434 1_655 S
C257 C258 1.369 . S
C257 C259 1.419 1_455 S
C257 H261 0.930 . S
C258 C257 1.369 . S
C258 C267 1.429 . S
C259 C257 1.419 1_655 S
C259 C260 1.363 . S
C259 H262 0.929 . S
C260 C259 1.363 . S
C260 C266 1.428 . S
H261 C257 0.930 . S
H262 C259 0.929 . S
S263 N264 1.613 . S
S263 N265 1.610 1_455 S
N264 S263 1.613 . S
N264 C267 1.350 . S
N265 S263 1.610 1_655 S
N265 C266 1.351 . S
C266 C260 1.428 . S
C266 N265 1.351 . S
C266 C267 1.434 1_655 S
C267 C258 1.429 . S
C267 N264 1.350 . S
C267 C266 1.434 1_455 S
C268 C269 1.369 . S
C268 C270 1.419 . S
C268 H272 0.930 . S
C269 C268 1.369 . S
C269 C278 1.429 . S
C270 C268 1.419 . S
C270 C271 1.363 . S
C270 H273 0.929 . S
C271 C270 1.363 . S
C271 C277 1.428 . S
H272 C268 0.930 . S
H273 C270 0.929 . S
S274 N275 1.613 . S
S274 N276 1.610 . S
N275 S274 1.613 . S
N275 C278 1.350 1_556 S
N276 S274 1.610 . S
N276 C277 1.351 1_556 S
C277 C271 1.428 . S
C277 N276 1.351 1_554 S
C277 C278 1.434 . S
C278 C269 1.429 . S
C278 N275 1.350 1_554 S
C278 C277 1.434 . S
C279 C280 1.369 . S
C279 C281 1.419 . S
C279 H283 0.930 . S
C280 C279 1.369 . S
C280 C289 1.429 . S
C281 C279 1.419 . S
C281 C282 1.363 . S
C281 H284 0.929 . S
C282 C281 1.363 . S
C282 C288 1.428 . S
H283 C279 0.930 . S
H284 C281 0.929 . S
S285 N286 1.613 . S
S285 N287 1.610 . S
N286 S285 1.613 . S
N286 C289 1.350 . S
N287 S285 1.610 . S
N287 C288 1.351 . S
C288 C282 1.428 . S
C288 N287 1.351 . S
C288 C289 1.434 . S
C289 C280 1.429 . S
C289 N286 1.350 . S
C289 C288 1.434 . S
C290 C291 1.369 . S
C290 C292 1.419 . S
C290 H294 0.930 . S
C291 C290 1.369 . S
C291 C300 1.429 . S
C292 C290 1.419 . S
C292 C293 1.363 . S
C292 H295 0.929 . S
C293 C292 1.363 . S
C293 C299 1.428 . S
H294 C290 0.930 . S
H295 C292 0.929 . S
S296 N297 1.613 . S
S296 N298 1.610 . S
N297 S296 1.613 . S
N297 C300 1.350 . S
N298 S296 1.610 . S
N298 C299 1.351 . S
C299 C293 1.428 . S
C299 N298 1.351 . S
C299 C300 1.434 . S
C300 C291 1.429 . S
C300 N297 1.350 . S
C300 C299 1.434 . S
C301 C302 1.369 . S
C301 C303 1.419 . S
C301 H305 0.930 . S
C302 C301 1.369 . S
C302 C311 1.429 . S
C303 C301 1.419 . S
C303 C304 1.363 . S
C303 H306 0.929 . S
C304 C303 1.363 . S
C304 C310 1.428 . S
H305 C301 0.930 . S
H306 C303 0.929 . S
S307 N308 1.613 . S
S307 N309 1.610 . S
N308 S307 1.613 . S
N308 C311 1.350 . S
N309 S307 1.610 . S
N309 C310 1.351 . S
C310 C304 1.428 . S
C310 N309 1.351 . S
C310 C311 1.434 . S
C311 C302 1.429 . S
C311 N308 1.350 . S
C311 C310 1.434 . S
C312 C313 1.369 . S
C312 C314 1.419 . S
C312 H316 0.930 . S
C313 C312 1.369 . S
C313 C322 1.429 . S
C314 C312 1.419 . S
C314 C315 1.363 . S
C314 H317 0.929 . S
C315 C314 1.363 . S
C315 C321 1.428 . S
H316 C312 0.930 . S
H317 C314 0.929 . S
S318 N319 1.613 . S
S318 N320 1.610 . S
N319 S318 1.613 . S
N319 C322 1.350 . S
N320 S318 1.610 . S
N320 C321 1.351 . S
C321 C315 1.428 . S
C321 N320 1.351 . S
C321 C322 1.434 . S
C322 C313 1.429 . S
C322 N319 1.350 . S
C322 C321 1.434 . S
C323 C324 1.369 . S
C323 C325 1.419 . S
C323 H327 0.930 . S
C324 C323 1.369 . S
C324 C333 1.429 . S
C325 C323 1.419 . S
C325 C326 1.363 . S
C325 H328 0.929 . S
C326 C325 1.363 . S
C326 C332 1.428 . S
H327 C323 0.930 . S
H328 C325 0.929 . S
S329 N330 1.613 . S
S329 N331 1.610 . S
N330 S329 1.613 . S
N330 C333 1.350 . S
N331 S329 1.610 . S
N331 C332 1.351 . S
C332 C326 1.428 . S
C332 N331 1.351 . S
C332 C333 1.434 . S
C333 C324 1.429 . S
C333 N330 1.350 . S
C333 C332 1.434 . S
C334 C335 1.369 . S
C334 C336 1.419 . S
C334 H338 0.930 . S
C335 C334 1.369 . S
C335 C344 1.429 . S
C336 C334 1.419 . S
C336 C337 1.363 . S
C336 H339 0.929 . S
C337 C336 1.363 . S
C337 C343 1.428 . S
H338 C334 0.930 . S
H339 C336 0.929 . S
S340 N341 1.613 . S
S340 N342 1.610 . S
N341 S340 1.613 . S
N341 C344 1.350 . S
N342 S340 1.610 . S
N342 C343 1.351 . S
C343 C337 1.428 . S
C343 N342 1.351 . S
C343 C344 1.434 . S
C344 C335 1.429 . S
C344 N341 1.350 . S
C344 C343 1.434 . S
C345 C346 1.369 . S
C345 C347 1.419 . S
C345 H349 0.930 . S
C346 C345 1.369 . S
C346 C355 1.429 . S
C347 C345 1.419 . S
C347 C348 1.363 . S
C347 H350 0.929 . S
C348 C347 1.363 . S
C348 C354 1.428 . S
H349 C345 0.930 . S
H350 C347 0.929 . S
S351 N352 1.613 . S
S351 N353 1.610 . S
N352 S351 1.613 . S
N352 C355 1.350 . S
N353 S351 1.610 . S
N353 C354 1.351 . S
C354 C348 1.428 . S
C354 N353 1.351 . S
C354 C355 1.434 . S
C355 C346 1.429 . S
C355 N352 1.350 . S
C355 C354 1.434 . S
C356 C357 1.369 . S
C356 C358 1.419 . S
C356 H360 0.930 . S
C357 C356 1.369 . S
C357 C366 1.429 . S
C358 C356 1.419 . S
C358 C359 1.363 . S
C358 H361 0.929 . S
C359 C358 1.363 . S
C359 C365 1.428 . S
H360 C356 0.930 . S
H361 C358 0.929 . S
S362 N363 1.613 . S
S362 N364 1.610 . S
N363 S362 1.613 . S
N363 C366 1.350 . S
N364 S362 1.610 . S
N364 C365 1.351 . S
C365 C359 1.428 . S
C365 N364 1.351 . S
C365 C366 1.434 . S
C366 C357 1.429 . S
C366 N363 1.350 . S
C366 C365 1.434 . S
C367 C368 1.369 . S
C367 C369 1.419 . S
C367 H371 0.930 . S
C368 C367 1.369 . S
C368 C377 1.429 . S
C369 C367 1.419 . S
C369 C370 1.363 . S
C369 H372 0.929 . S
C370 C369 1.363 . S
C370 C376 1.428 . S
H371 C367 0.930 . S
H372 C369 0.929 . S
S373 N374 1.613 . S
S373 N375 1.610 . S
N374 S373 1.613 . S
N374 C377 1.350 . S
N375 S373 1.610 . S
N375 C376 1.351 . S
C376 C370 1.428 . S
C376 N375 1.351 . S
C376 C377 1.434 . S
C377 C368 1.429 . S
C377 N374 1.350 . S
C377 C376 1.434 . S
C378 C379 1.369 . S
C378 C380 1.419 . S
C378 H382 0.930 . S
C379 C378 1.369 . S
C379 C388 1.429 . S
C380 C378 1.419 . S
C380 C381 1.363 . S
C380 H383 0.929 . S
C381 C380 1.363 . S
C381 C387 1.428 . S
H382 C378 0.930 . S
H383 C380 0.929 . S
S384 N385 1.613 . S
S384 N386 1.610 . S
N385 S384 1.613 . S
N385 C388 1.350 . S
N386 S384 1.610 . S
N386 C387 1.351 . S
C387 C381 1.428 . S
C387 N386 1.351 . S
C387 C388 1.434 . S
C388 C379 1.429 . S
C388 N385 1.350 . S
C388 C387 1.434 . S
C389 C390 1.369 . S
C389 C391 1.419 . S
C389 H393 0.930 . S
C390 C389 1.369 . S
C390 C399 1.429 . S
C391 C389 1.419 . S
C391 C392 1.363 . S
C391 H394 0.929 . S
C392 C391 1.363 . S
C392 C398 1.428 . S
H393 C389 0.930 . S
H394 C391 0.929 . S
S395 N396 1.613 . S
S395 N397 1.610 . S
N396 S395 1.613 . S
N396 C399 1.350 . S
N397 S395 1.610 . S
N397 C398 1.351 . S
C398 C392 1.428 . S
C398 N397 1.351 . S
C398 C399 1.434 . S
C399 C390 1.429 . S
C399 N396 1.350 . S
C399 C398 1.434 . S
C400 C401 1.369 . S
C400 C402 1.419 . S
C400 H404 0.930 . S
C401 C400 1.369 . S
C401 C410 1.429 1_556 S
C402 C400 1.419 . S
C402 C403 1.363 1_556 S
C402 H405 0.929 . S
C403 C402 1.363 1_554 S
C403 C409 1.428 . S
H404 C400 0.930 . S
H405 C402 0.929 . S
S406 N407 1.613 . S
S406 N408 1.610 . S
N407 S406 1.613 . S
N407 C410 1.350 . S
N408 S406 1.610 . S
N408 C409 1.351 . S
C409 C403 1.428 . S
C409 N408 1.351 . S
C409 C410 1.434 . S
C410 C401 1.429 1_554 S
C410 N407 1.350 . S
C410 C409 1.434 . S
C411 C412 1.369 . S
C411 C413 1.419 . S
C411 H415 0.930 . S
C412 C411 1.369 . S
C412 C421 1.429 . S
C413 C411 1.419 . S
C413 C414 1.363 . S
C413 H416 0.929 . S
C414 C413 1.363 . S
C414 C420 1.428 . S
H415 C411 0.930 . S
H416 C413 0.929 . S
S417 N418 1.613 . S
S417 N419 1.610 . S
N418 S417 1.613 . S
N418 C421 1.350 . S
N419 S417 1.610 . S
N419 C420 1.351 . S
C420 C414 1.428 . S
C420 N419 1.351 . S
C420 C421 1.434 . S
C421 C412 1.429 . S
C421 N418 1.350 . S
C421 C420 1.434 . S
C422 C423 1.369 1_556 S
C422 C424 1.419 . S
C422 H426 0.930 . S
C423 C422 1.369 1_554 S
C423 C432 1.429 . S
C424 C422 1.419 . S
C424 C425 1.363 . S
C424 H427 0.929 . S
C425 C424 1.363 . S
C425 C431 1.428 1_556 S
H426 C422 0.930 . S
H427 C424 0.929 . S
S428 N429 1.613 . S
S428 N430 1.610 . S
N429 S428 1.613 . S
N429 C432 1.350 . S
N430 S428 1.610 . S
N430 C431 1.351 . S
C431 C425 1.428 1_554 S
C431 N430 1.351 . S
C431 C432 1.434 . S
C432 C423 1.429 . S
C432 N429 1.350 . S
C432 C431 1.434 . S
C433 C434 1.369 . S
C433 C435 1.419 . S
C433 H437 0.930 . S
C434 C433 1.369 . S
C434 C443 1.429 . S
C435 C433 1.419 . S
C435 C436 1.363 . S
C435 H438 0.929 . S
C436 C435 1.363 . S
C436 C442 1.428 . S
H437 C433 0.930 . S
H438 C435 0.929 . S
S439 N440 1.613 . S
S439 N441 1.610 . S
N440 S439 1.613 . S
N440 C443 1.350 . S
N441 S439 1.610 . S
N441 C442 1.351 . S
C442 C436 1.428 . S
C442 N441 1.351 . S
C442 C443 1.434 . S
C443 C434 1.429 . S
C443 N440 1.350 . S
C443 C442 1.434 . S
C444 C445 1.369 . S
C444 C446 1.413 1_554 S
C444 H448 0.930 . S
C445 C444 1.369 . S
C445 C454 1.433 . S
C446 C444 1.413 1_556 S
C446 C447 1.369 . S
C446 H449 0.929 1_556 S
C447 C446 1.369 . S
C447 C453 1.428 . S
H448 C444 0.930 . S
H449 C446 0.929 1_554 S
S450 N451 1.613 . S
S450 N452 1.610 . S
N451 S450 1.613 . S
N451 C454 1.350 1_556 S
N452 S450 1.610 . S
N452 C453 1.351 . S
C453 C447 1.428 . S
C453 N452 1.351 . S
C453 C454 1.429 1_556 S
C454 C445 1.433 . S
C454 N451 1.350 1_554 S
C454 C453 1.429 1_554 S
C455 C456 1.369 . S
C455 C457 1.419 . S
C455 H459 0.930 . S
C456 C455 1.369 . S
C456 C465 1.429 . S
C457 C455 1.419 . S
C457 C458 1.363 . S
C457 H460 0.929 . S
C458 C457 1.363 . S
C458 C464 1.428 . S
H459 C455 0.930 . S
H460 C457 0.929 . S
S461 N462 1.613 . S
S461 N463 1.610 . S
N462 S461 1.613 . S
N462 C465 1.350 . S
N463 S461 1.610 . S
N463 C464 1.351 . S
C464 C458 1.428 . S
C464 N463 1.351 . S
C464 C465 1.434 . S
C465 C456 1.429 . S
C465 N462 1.350 . S
C465 C464 1.434 . S
C466 C467 1.369 . S
C466 C468 1.419 . S
C466 H470 0.930 . S
C467 C466 1.369 . S
C467 C476 1.429 1_554 S
C468 C466 1.419 . S
C468 C469 1.363 1_554 S
C468 H471 0.929 . S
C469 C468 1.363 1_556 S
C469 C475 1.428 . S
H470 C466 0.930 . S
H471 C468 0.929 . S
S472 N473 1.613 . S
S472 N474 1.610 . S
N473 S472 1.613 . S
N473 C476 1.350 . S
N474 S472 1.610 . S
N474 C475 1.351 . S
C475 C469 1.428 . S
C475 N474 1.351 . S
C475 C476 1.434 . S
C476 C467 1.429 1_556 S
C476 N473 1.350 . S
C476 C475 1.434 . S
C477 C478 1.369 . S
C477 C479 1.419 . S
C477 H481 0.930 . S
C478 C477 1.369 . S
C478 C487 1.429 . S
C479 C477 1.419 . S
C479 C480 1.363 . S
C479 H482 0.929 . S
C480 C479 1.363 . S
C480 C486 1.428 . S
H481 C477 0.930 . S
H482 C479 0.929 . S
S483 N484 1.613 . S
S483 N485 1.610 . S
N484 S483 1.613 . S
N484 C487 1.350 . S
N485 S483 1.610 . S
N485 C486 1.351 . S
C486 C480 1.428 . S
C486 N485 1.351 . S
C486 C487 1.434 . S
C487 C478 1.429 . S
C487 N484 1.350 . S
C487 C486 1.434 . S
C488 C489 1.369 1_554 S
C488 C490 1.419 . S
C488 H492 0.930 . S
C489 C488 1.369 1_556 S
C489 C498 1.429 . S
C490 C488 1.419 . S
C490 C491 1.363 . S
C490 H493 0.929 . S
C491 C490 1.363 . S
C491 C497 1.428 1_554 S
H492 C488 0.930 . S
H493 C490 0.929 . S
S494 N495 1.613 . S
S494 N496 1.610 . S
N495 S494 1.613 . S
N495 C498 1.350 . S
N496 S494 1.610 . S
N496 C497 1.351 . S
C497 C491 1.428 1_556 S
C497 N496 1.351 . S
C497 C498 1.434 . S
C498 C489 1.429 . S
C498 N495 1.350 . S
C498 C497 1.434 . S
C499 C500 1.369 . S
C499 C501 1.419 . S
C499 H503 0.930 . S
C500 C499 1.369 . S
C500 C509 1.429 . S
C501 C499 1.419 . S
C501 C502 1.363 . S
C501 H504 0.929 . S
C502 C501 1.363 . S
C502 C508 1.428 . S
H503 C499 0.930 . S
H504 C501 0.929 . S
S505 N506 1.613 . S
S505 N507 1.610 . S
N506 S505 1.613 . S
N506 C509 1.350 . S
N507 S505 1.610 . S
N507 C508 1.351 . S
C508 C502 1.428 . S
C508 N507 1.351 . S
C508 C509 1.434 . S
C509 C500 1.429 . S
C509 N506 1.350 . S
C509 C508 1.434 . S
C510 C511 1.369 1_556 S
C510 C512 1.419 . S
C510 H514 0.930 . S
C511 C510 1.369 1_554 S
C511 C520 1.429 . S
C512 C510 1.419 . S
C512 C513 1.363 . S
C512 H515 0.929 . S
C513 C512 1.363 . S
C513 C519 1.428 1_556 S
H514 C510 0.930 . S
H515 C512 0.929 . S
S516 N517 1.613 . S
S516 N518 1.610 . S
N517 S516 1.613 . S
N517 C520 1.350 . S
N518 S516 1.610 . S
N518 C519 1.351 . S
C519 C513 1.428 1_554 S
C519 N518 1.351 . S
C519 C520 1.434 . S
C520 C511 1.429 . S
C520 N517 1.350 . S
C520 C519 1.434 . S
C521 C522 1.369 . S
C521 C523 1.419 . S
C521 H525 0.930 . S
C522 C521 1.369 . S
C522 C531 1.429 . S
C523 C521 1.419 . S
C523 C524 1.363 . S
C523 H526 0.929 . S
C524 C523 1.363 . S
C524 C530 1.428 . S
H525 C521 0.930 . S
H526 C523 0.929 . S
S527 N528 1.613 . S
S527 N529 1.610 . S
N528 S527 1.613 . S
N528 C531 1.350 . S
N529 S527 1.610 . S
N529 C530 1.351 . S
C530 C524 1.428 . S
C530 N529 1.351 . S
C530 C531 1.434 . S
C531 C522 1.429 . S
C531 N528 1.350 . S
C531 C530 1.434 . S
C532 C533 1.369 . S
C532 C534 1.419 1_545 S
C532 H536 0.930 . S
C533 C532 1.369 . S
C533 C542 1.429 1_556 S
C534 C532 1.419 1_565 S
C534 C535 1.363 1_556 S
C534 H537 0.929 . S
C535 C534 1.363 1_554 S
C535 C541 1.428 . S
H536 C532 0.930 . S
H537 C534 0.929 . S
S538 N539 1.613 . S
S538 N540 1.610 1_545 S
N539 S538 1.613 . S
N539 C542 1.350 . S
N540 S538 1.610 1_565 S
N540 C541 1.351 . S
C541 C535 1.428 . S
C541 N540 1.351 . S
C541 C542 1.434 1_565 S
C542 C533 1.429 1_554 S
C542 N539 1.350 . S
C542 C541 1.434 1_545 S
C543 C544 1.369 . S
C543 C545 1.419 1_565 S
C543 H547 0.930 . S
C544 C543 1.369 . S
C544 C553 1.429 . S
C545 C543 1.419 1_545 S
C545 C546 1.363 . S
C545 H548 0.929 . S
C546 C545 1.363 . S
C546 C552 1.428 . S
H547 C543 0.930 . S
H548 C545 0.929 . S
S549 N550 1.613 . S
S549 N551 1.610 1_565 S
N550 S549 1.613 . S
N550 C553 1.350 . S
N551 S549 1.610 1_545 S
N551 C552 1.351 . S
C552 C546 1.428 . S
C552 N551 1.351 . S
C552 C553 1.434 1_545 S
C553 C544 1.429 . S
C553 N550 1.350 . S
C553 C552 1.434 1_565 S
C554 C555 1.369 1_556 S
C554 C556 1.419 1_565 S
C554 H558 0.930 . S
C555 C554 1.369 1_554 S
C555 C564 1.429 . S
C556 C554 1.419 1_545 S
C556 C557 1.363 . S
C556 H559 0.929 . S
C557 C556 1.363 . S
C557 C563 1.428 1_556 S
H558 C554 0.930 . S
H559 C556 0.929 . S
S560 N561 1.613 1_545 S
S560 N562 1.610 . S
N561 S560 1.613 1_565 S
N561 C564 1.350 . S
N562 S560 1.610 . S
N562 C563 1.351 . S
C563 C557 1.428 1_554 S
C563 N562 1.351 . S
C563 C564 1.434 1_545 S
C564 C555 1.429 . S
C564 N561 1.350 . S
C564 C563 1.434 1_565 S
C565 C566 1.369 . S
C565 C567 1.419 1_545 S
C565 H569 0.930 . S
C566 C565 1.369 . S
C566 C575 1.429 . S
C567 C565 1.419 1_565 S
C567 C568 1.363 . S
C567 H570 0.929 . S
C568 C567 1.363 . S
C568 C574 1.428 . S
H569 C565 0.930 . S
H570 C567 0.929 . S
S571 N572 1.613 . S
S571 N573 1.610 1_545 S
N572 S571 1.613 . S
N572 C575 1.350 . S
N573 S571 1.610 1_565 S
N573 C574 1.351 . S
C574 C568 1.428 . S
C574 N573 1.351 . S
C574 C575 1.434 1_565 S
C575 C566 1.429 . S
C575 N572 1.350 . S
C575 C574 1.434 1_545 S
C225 C9 1.434 . S
C227 C93 1.436 . S
C236 C23 1.436 . S
C238 C107 1.438 . S
C247 C65 1.435 . S
C249 C37 1.435 . S
C258 C79 1.435 . S
C260 C51 1.435 . S
C269 C205 1.441 . S
C271 C121 1.439 . S
C280 C219 1.439 . S
C282 C135 1.437 . S
C291 C149 1.440 . S
C293 C177 1.439 . S
C302 C163 1.436 . S
C304 C191 1.438 . S
C313 C7 1.445 . S
C315 C73 1.505 . S
C324 C21 1.441 . S
C326 C59 1.504 . S
C335 C35 1.441 . S
C337 C101 1.504 . S
C346 C87 1.506 . S
C348 C49 1.445 . S
C357 C185 1.505 . S
C359 C119 1.444 . S
C368 C171 1.504 . S
C370 C133 1.445 . S
C379 C147 1.441 . S
C381 C213 1.504 . S
C390 C199 1.504 . S
C392 C161 1.445 . S
C401 C176 1.434 . S
C403 C8 1.425 . S
C412 C22 1.426 . S
C414 C190 1.434 . S
C423 C204 1.436 . S
C425 C36 1.423 . S
C434 C218 1.436 . S
C436 C50 1.422 . S
C445 C120 1.425 . S
C447 C64 1.435 . S
C456 C134 1.421 . S
C458 C78 1.436 . S
C467 C92 1.433 . S
C469 C148 1.426 . S
C478 C106 1.436 . S
C480 C162 1.422 . S
C489 C31 1.513 . S
C491 C3 1.515 . S
C500 C17 1.514 . S
C502 C45 1.513 . S
C511 C91 1.426 . S
C513 C63 1.434 . S
C522 C77 1.434 . S
C524 C105 1.427 . S
C533 C143 1.514 . S
C535 C115 1.513 . S
C544 C157 1.515 . S
C546 C129 1.514 . S
C555 C203 1.433 . S
C557 C175 1.434 . S
C566 C217 1.436 . S
C568 C189 1.431 . S
