# Generated by pormake.
# Topology sod-e, (6)-cn, num edge types: 1
# Building blocks:
#     Node 0, Type 0, BuildingBlock: IZENUY_clean_sbu_0, # of connection points: 6
#     Node 1, Type 0, BuildingBlock: IZENUY_clean_sbu_0, # of connection points: 6
#     Node 2, Type 0, BuildingBlock: IZENUY_clean_sbu_0, # of connection points: 6
#     Node 3, Type 0, BuildingBlock: IZENUY_clean_sbu_0, # of connection points: 6
#     Node 4, Type 0, BuildingBlock: IZENUY_clean_sbu_0, # of connection points: 6
#     Node 5, Type 0, BuildingBlock: IZENUY_clean_sbu_0, # of connection points: 6
#     Node 6, Type 0, BuildingBlock: IZENUY_clean_sbu_0, # of connection points: 6
#     Node 7, Type 0, BuildingBlock: IZENUY_clean_sbu_0, # of connection points: 6
#     Node 8, Type 0, BuildingBlock: IZENUY_clean_sbu_0, # of connection points: 6
#     Node 9, Type 0, BuildingBlock: IZENUY_clean_sbu_0, # of connection points: 6
#     Node 10, Type 0, BuildingBlock: IZENUY_clean_sbu_0, # of connection points: 6
#     Node 11, Type 0, BuildingBlock: IZENUY_clean_sbu_0, # of connection points: 6
#     Node 12, Type 0, BuildingBlock: IZENUY_clean_sbu_0, # of connection points: 6
#     Node 13, Type 0, BuildingBlock: IZENUY_clean_sbu_0, # of connection points: 6
#     Node 14, Type 0, BuildingBlock: IZENUY_clean_sbu_0, # of connection points: 6
#     Node 15, Type 0, BuildingBlock: IZENUY_clean_sbu_0, # of connection points: 6
#     Node 16, Type 0, BuildingBlock: IZENUY_clean_sbu_0, # of connection points: 6
#     Node 17, Type 0, BuildingBlock: IZENUY_clean_sbu_0, # of connection points: 6
#     Node 18, Type 0, BuildingBlock: IZENUY_clean_sbu_0, # of connection points: 6
#     Node 19, Type 0, BuildingBlock: IZENUY_clean_sbu_0, # of connection points: 6
#     Node 20, Type 0, BuildingBlock: IZENUY_clean_sbu_0, # of connection points: 6
#     Node 21, Type 0, BuildingBlock: IZENUY_clean_sbu_0, # of connection points: 6
#     Node 22, Type 0, BuildingBlock: IZENUY_clean_sbu_0, # of connection points: 6
#     Node 23, Type 0, BuildingBlock: IZENUY_clean_sbu_0, # of connection points: 6
#     Edge 24, Type (0, 0), BuildingBlock: CIFDUS_clean_linker_0, # of connection points: 2
#     Edge 25, Type (0, 0), BuildingBlock: CIFDUS_clean_linker_0, # of connection points: 2
#     Edge 26, Type (0, 0), BuildingBlock: CIFDUS_clean_linker_0, # of connection points: 2
#     Edge 27, Type (0, 0), BuildingBlock: CIFDUS_clean_linker_0, # of connection points: 2
#     Edge 28, Type (0, 0), BuildingBlock: CIFDUS_clean_linker_0, # of connection points: 2
#     Edge 29, Type (0, 0), BuildingBlock: CIFDUS_clean_linker_0, # of connection points: 2
#     Edge 30, Type (0, 0), BuildingBlock: CIFDUS_clean_linker_0, # of connection points: 2
#     Edge 31, Type (0, 0), BuildingBlock: CIFDUS_clean_linker_0, # of connection points: 2
#     Edge 32, Type (0, 0), BuildingBlock: CIFDUS_clean_linker_0, # of connection points: 2
#     Edge 33, Type (0, 0), BuildingBlock: CIFDUS_clean_linker_0, # of connection points: 2
#     Edge 34, Type (0, 0), BuildingBlock: CIFDUS_clean_linker_0, # of connection points: 2
#     Edge 35, Type (0, 0), BuildingBlock: CIFDUS_clean_linker_0, # of connection points: 2
#     Edge 36, Type (0, 0), BuildingBlock: CIFDUS_clean_linker_0, # of connection points: 2
#     Edge 37, Type (0, 0), BuildingBlock: CIFDUS_clean_linker_0, # of connection points: 2
#     Edge 38, Type (0, 0), BuildingBlock: CIFDUS_clean_linker_0, # of connection points: 2
#     Edge 39, Type (0, 0), BuildingBlock: CIFDUS_clean_linker_0, # of connection points: 2
#     Edge 40, Type (0, 0), BuildingBlock: CIFDUS_clean_linker_0, # of connection points: 2
#     Edge 41, Type (0, 0), BuildingBlock: CIFDUS_clean_linker_0, # of connection points: 2
#     Edge 42, Type (0, 0), BuildingBlock: CIFDUS_clean_linker_0, # of connection points: 2
#     Edge 43, Type (0, 0), BuildingBlock: CIFDUS_clean_linker_0, # of connection points: 2
#     Edge 44, Type (0, 0), BuildingBlock: CIFDUS_clean_linker_0, # of connection points: 2
#     Edge 45, Type (0, 0), BuildingBlock: CIFDUS_clean_linker_0, # of connection points: 2
#     Edge 46, Type (0, 0), BuildingBlock: CIFDUS_clean_linker_0, # of connection points: 2
#     Edge 47, Type (0, 0), BuildingBlock: CIFDUS_clean_linker_0, # of connection points: 2
#     Edge 48, Type (0, 0), BuildingBlock: CIFDUS_clean_linker_0, # of connection points: 2
#     Edge 49, Type (0, 0), BuildingBlock: CIFDUS_clean_linker_0, # of connection points: 2
#     Edge 50, Type (0, 0), BuildingBlock: CIFDUS_clean_linker_0, # of connection points: 2
#     Edge 51, Type (0, 0), BuildingBlock: CIFDUS_clean_linker_0, # of connection points: 2
#     Edge 52, Type (0, 0), BuildingBlock: CIFDUS_clean_linker_0, # of connection points: 2
#     Edge 53, Type (0, 0), BuildingBlock: CIFDUS_clean_linker_0, # of connection points: 2
#     Edge 54, Type (0, 0), BuildingBlock: CIFDUS_clean_linker_0, # of connection points: 2
#     Edge 55, Type (0, 0), BuildingBlock: CIFDUS_clean_linker_0, # of connection points: 2
#     Edge 56, Type (0, 0), BuildingBlock: CIFDUS_clean_linker_0, # of connection points: 2
#     Edge 57, Type (0, 0), BuildingBlock: CIFDUS_clean_linker_0, # of connection points: 2
#     Edge 58, Type (0, 0), BuildingBlock: CIFDUS_clean_linker_0, # of connection points: 2
#     Edge 59, Type (0, 0), BuildingBlock: CIFDUS_clean_linker_0, # of connection points: 2
#     Edge 60, Type (0, 0), BuildingBlock: CIFDUS_clean_linker_0, # of connection points: 2
#     Edge 61, Type (0, 0), BuildingBlock: CIFDUS_clean_linker_0, # of connection points: 2
#     Edge 62, Type (0, 0), BuildingBlock: CIFDUS_clean_linker_0, # of connection points: 2
#     Edge 63, Type (0, 0), BuildingBlock: CIFDUS_clean_linker_0, # of connection points: 2
#     Edge 64, Type (0, 0), BuildingBlock: CIFDUS_clean_linker_0, # of connection points: 2
#     Edge 65, Type (0, 0), BuildingBlock: CIFDUS_clean_linker_0, # of connection points: 2
#     Edge 66, Type (0, 0), BuildingBlock: CIFDUS_clean_linker_0, # of connection points: 2
#     Edge 67, Type (0, 0), BuildingBlock: CIFDUS_clean_linker_0, # of connection points: 2
#     Edge 68, Type (0, 0), BuildingBlock: CIFDUS_clean_linker_0, # of connection points: 2
#     Edge 69, Type (0, 0), BuildingBlock: CIFDUS_clean_linker_0, # of connection points: 2
#     Edge 70, Type (0, 0), BuildingBlock: CIFDUS_clean_linker_0, # of connection points: 2
#     Edge 71, Type (0, 0), BuildingBlock: CIFDUS_clean_linker_0, # of connection points: 2
#     Edge 72, Type (0, 0), BuildingBlock: CIFDUS_clean_linker_0, # of connection points: 2
#     Edge 73, Type (0, 0), BuildingBlock: CIFDUS_clean_linker_0, # of connection points: 2
#     Edge 74, Type (0, 0), BuildingBlock: CIFDUS_clean_linker_0, # of connection points: 2
#     Edge 75, Type (0, 0), BuildingBlock: CIFDUS_clean_linker_0, # of connection points: 2
#     Edge 76, Type (0, 0), BuildingBlock: CIFDUS_clean_linker_0, # of connection points: 2
#     Edge 77, Type (0, 0), BuildingBlock: CIFDUS_clean_linker_0, # of connection points: 2
#     Edge 78, Type (0, 0), BuildingBlock: CIFDUS_clean_linker_0, # of connection points: 2
#     Edge 79, Type (0, 0), BuildingBlock: CIFDUS_clean_linker_0, # of connection points: 2
#     Edge 80, Type (0, 0), BuildingBlock: CIFDUS_clean_linker_0, # of connection points: 2
#     Edge 81, Type (0, 0), BuildingBlock: CIFDUS_clean_linker_0, # of connection points: 2
#     Edge 82, Type (0, 0), BuildingBlock: CIFDUS_clean_linker_0, # of connection points: 2
#     Edge 83, Type (0, 0), BuildingBlock: CIFDUS_clean_linker_0, # of connection points: 2
#     Edge 84, Type (0, 0), BuildingBlock: CIFDUS_clean_linker_0, # of connection points: 2
#     Edge 85, Type (0, 0), BuildingBlock: CIFDUS_clean_linker_0, # of connection points: 2
#     Edge 86, Type (0, 0), BuildingBlock: CIFDUS_clean_linker_0, # of connection points: 2
#     Edge 87, Type (0, 0), BuildingBlock: CIFDUS_clean_linker_0, # of connection points: 2
#     Edge 88, Type (0, 0), BuildingBlock: CIFDUS_clean_linker_0, # of connection points: 2
#     Edge 89, Type (0, 0), BuildingBlock: CIFDUS_clean_linker_0, # of connection points: 2
#     Edge 90, Type (0, 0), BuildingBlock: CIFDUS_clean_linker_0, # of connection points: 2
#     Edge 91, Type (0, 0), BuildingBlock: CIFDUS_clean_linker_0, # of connection points: 2
#     Edge 92, Type (0, 0), BuildingBlock: CIFDUS_clean_linker_0, # of connection points: 2
#     Edge 93, Type (0, 0), BuildingBlock: CIFDUS_clean_linker_0, # of connection points: 2
#     Edge 94, Type (0, 0), BuildingBlock: CIFDUS_clean_linker_0, # of connection points: 2
#     Edge 95, Type (0, 0), BuildingBlock: CIFDUS_clean_linker_0, # of connection points: 2
# Relax obj value: 0.473
# Max RMSD: 0.285
# Mean RMSD: 0.284
data_MOF--net-sod-e--node1-IZENUY_clean_sbu_0--edge1-CIFDUS_clean_linker_0
_symmetry_space_group_name_H-M    P1
_symmetry_Int_Tables_number       1
_symmetry_cell_setting            triclinic
loop_
_symmetry_equiv_pos_as_xyz
'x, y, z'
_cell_length_a     43.801649
_cell_length_b     44.130832
_cell_length_c     44.108566
_cell_angle_alpha  90.051542
_cell_angle_beta   90.419662
_cell_angle_gamma 90.391854
loop_
_atom_site_label
_atom_site_type_symbol
_atom_site_fract_x
_atom_site_fract_y
_atom_site_fract_z
_atom_type_partial_charge
Fe0 Fe -0.00393 0.28089 0.30873 0.0
Fe1 Fe 0.96505 0.32268 0.35489 0.0
O2 O -0.00384 0.31404 0.33154 0.0
Fe3 Fe 0.02764 0.3391 0.3308 0.0
O4 O 0.01984 0.34686 0.29164 0.0
O5 O 0.01805 0.2989 0.27774 0.0
O6 O 0.96218 0.29278 0.28888 0.0
C7 C 0.93766 0.30138 0.30075 0.0
C8 C 0.05506 0.2823 0.32783 0.0
O9 O 0.93603 0.30693 0.32888 0.0
C10 C 0.01718 0.33575 0.39116 0.0
O11 O 0.9736 0.25766 0.33578 0.0
O12 O 0.9695 0.28797 0.37498 0.0
O13 O 0.05561 0.31015 0.32154 0.0
O14 O 0.03042 0.26733 0.32722 0.0
C15 C 0.97824 0.37922 0.33623 0.0
O16 O 0.98903 0.33957 0.3851 0.0
O17 O 0.03627 0.3321 0.37026 0.0
C18 C 0.96859 0.26187 0.36381 0.0
O19 O 0.95855 0.35851 0.33624 0.0
O20 O 0.00607 0.37306 0.34018 0.0
C21 C 0.02002 0.3269 0.2712 0.0
Fe22 Fe 0.63097 0.06414 0.36411 0.0
Fe23 Fe 0.63125 -0.0047 0.36093 0.0
O24 O 0.64938 0.03032 0.35327 0.0
Fe25 Fe 0.68537 0.03084 0.33525 0.0
O26 O 0.70277 0.052 0.36583 0.0
O27 O 0.66601 0.08509 0.37301 0.0
O28 O 0.63087 0.05271 0.40334 0.0
C29 C 0.61872 0.02866 0.41265 0.0
C30 C 0.65331 0.08036 0.30899 0.0
O31 O 0.61034 0.00853 0.39407 0.0
C32 C 0.65859 0.98396 0.30479 0.0
O33 O 0.59232 0.04899 0.35669 0.0
O34 O 0.60028 0.00457 0.33568 0.0
O35 O 0.6777 0.06556 0.31331 0.0
O36 O 0.63058 0.07772 0.32607 0.0
C37 C 0.68895 0.9836 0.37899 0.0
O38 O 0.64866 0.97456 0.32981 0.0
O39 O 0.67062 0.00983 0.30278 0.0
C40 C 0.58332 0.02708 0.34006 0.0
O41 O 0.66135 0.98496 0.38635 0.0
O42 O 0.69877 -0.00389 0.3549 0.0
C43 C 0.69304 0.07624 0.37715 0.0
Fe44 Fe 0.91899 0.60219 0.37174 0.0
Fe45 Fe 0.94644 0.63702 0.31771 0.0
O46 O 0.95077 0.61476 0.3507 0.0
Fe47 Fe 0.98772 0.60428 0.36281 0.0
O48 O 0.97592 0.56956 0.38201 0.0
O49 O 0.92922 0.56293 0.36609 0.0
O50 O 0.89354 0.59759 0.33917 0.0
C51 C 0.89932 0.59573 0.31126 0.0
C52 C 0.96246 0.62123 0.41553 0.0
O53 O 0.92238 0.60859 0.2999 0.0
C54 C -0.00228 0.66322 0.34192 0.0
O55 O 0.90644 0.64008 0.37813 0.0
O56 O 0.91313 0.65793 0.33188 0.0
O57 O 0.98364 0.6261 0.39692 0.0
O58 O 0.93928 0.60527 0.4082 0.0
C59 C 0.99062 0.5929 0.3028 0.0
O60 O 0.97041 0.66727 0.33365 0.0
O61 O 0.00742 0.63674 0.3461 0.0
C62 C 0.90117 0.65951 0.35797 0.0
O63 O 0.97891 0.61886 0.29806 0.0
O64 O 0.9925 0.5821 0.32914 0.0
C65 C 0.95426 0.55214 0.3746 0.0
Fe66 Fe 0.36069 0.01235 0.34388 0.0
Fe67 Fe 0.32433 0.9817 0.29261 0.0
O68 O 0.34734 0.97935 0.32556 0.0
Fe69 Fe 0.35811 0.94356 0.34004 0.0
O70 O 0.36164 0.95621 0.37938 0.0
O71 O 0.34179 0.00158 0.3787 0.0
O72 O 0.32724 0.03481 0.33445 0.0
C73 C 0.30046 0.02743 0.32636 0.0
C74 C 0.41142 0.97511 0.34202 0.0
O75 O 0.2952 0.00311 0.31217 0.0
C76 C 0.36167 0.93488 0.27818 0.0
O77 O 0.38039 0.02505 0.31057 0.0
O78 O 0.34291 0.0165 0.27814 0.0
O79 O 0.39793 0.95166 0.33235 0.0
O80 O 0.39676 -0.00455 0.3558 0.0
C81 C 0.29852 0.93356 0.32732 0.0
O82 O 0.35259 0.96089 0.27104 0.0
O83 O 0.35606 0.92399 0.30382 0.0
C84 C 0.3684 0.02882 0.28489 0.0
O85 O 0.30175 0.94729 0.30211 0.0
O86 O 0.31902 0.93423 0.34756 0.0
C87 C 0.3482 0.97758 0.39277 0.0
Fe88 Fe 0.02236 0.6431 0.63035 0.0
Fe89 Fe 0.95731 0.6345 0.65281 0.0
O90 O 0.99107 0.65641 0.65135 0.0
Fe91 Fe 0.99334 0.69157 0.67079 0.0
O92 O 0.01906 0.70948 0.64303 0.0
O93 O 0.0213 0.67587 0.60642 0.0
O94 O -0.00115 0.62421 0.6016 0.0
C95 C 0.97173 0.62987 0.59351 0.0
C96 C 0.0497 0.66884 0.6826 0.0
O97 O 0.9518 0.63699 0.61248 0.0
C98 C 0.96091 0.65334 0.71091 0.0
O99 O 0.02533 0.60893 0.6528 0.0
O100 O 0.97647 0.5979 0.64995 0.0
O101 O 0.02508 0.6786 0.69348 0.0
O102 O 0.0513 0.66002 0.65536 0.0
C103 C 0.93602 0.69403 0.64681 0.0
O104 O 0.96152 0.63115 0.69307 0.0
O105 O 0.96767 0.67979 0.70186 0.0
C106 C 0.00372 0.59019 0.65541 0.0
O107 O 0.93165 0.66707 0.6555 0.0
O108 O 0.96191 0.70648 0.64893 0.0
C109 C 0.02424 0.70267 0.6156 0.0
Fe110 Fe 0.35237 0.91525 0.62295 0.0
Fe111 Fe 0.3512 0.9843 0.62268 0.0
O112 O 0.33461 0.94958 0.63345 0.0
Fe113 Fe 0.30027 0.94964 0.65433 0.0
O114 O 0.31839 0.92976 0.6854 0.0
O115 O 0.3408 0.89506 0.65752 0.0
O116 O 0.38747 0.92543 0.643 0.0
C117 C 0.40176 0.94987 0.63855 0.0
C118 C 0.29214 0.90171 0.61234 0.0
O119 O 0.3901 0.97054 0.62271 0.0
C120 C 0.28933 -0.00512 0.61372 0.0
O121 O 0.36633 0.92993 0.58631 0.0
O122 O 0.34586 0.97522 0.58346 0.0
O123 O 0.2854 0.91427 0.6373 0.0
O124 O 0.31889 0.90301 0.60225 0.0
C125 C 0.33503 -0.00166 0.67947 0.0
O126 O 0.31547 0.00484 0.62056 0.0
O127 O 0.28029 0.96973 0.62404 0.0
C128 C 0.35595 0.95187 0.57076 0.0
O129 O 0.35688 -0.00529 0.66152 0.0
O130 O 0.30945 0.98522 0.67501 0.0
C131 C 0.33305 0.90535 0.68321 0.0
Fe132 Fe 0.07864 0.36862 0.61648 0.0
Fe133 Fe 0.05051 0.33032 0.66788 0.0
O134 O 0.04648 0.35389 0.63568 0.0
Fe135 Fe 0.00949 0.36316 0.62287 0.0
O136 O 0.02002 0.36866 0.58356 0.0
O137 O 0.06651 0.35147 0.5806 0.0
O138 O 0.10186 0.33466 0.62268 0.0
C139 C 0.09454 0.30793 0.63056 0.0
C140 C 0.03854 0.41787 0.62194 0.0
O141 O 0.07131 0.3027 0.64647 0.0
C142 C 0.00337 0.36586 0.68518 0.0
O143 O 0.09294 0.38662 0.65051 0.0
O144 O 0.08579 0.34839 0.68161 0.0
O145 O 0.0163 0.40242 0.63154 0.0
O146 O 0.0604 0.40532 0.60796 0.0
C147 C 0.00257 0.30337 0.63395 0.0
O148 O 0.03001 0.35716 0.69135 0.0
O149 O 0.99161 0.35974 0.65978 0.0
C150 C 0.09707 0.3742 0.67587 0.0
O151 O 0.01585 0.3077 0.65932 0.0
O152 O 0.00168 0.32392 0.6141 0.0
C153 C 0.04061 0.3557 0.56878 0.0
Fe154 Fe 0.6221 0.97598 0.63434 0.0
Fe155 Fe 0.66243 -0.0003 0.6865 0.0
O156 O 0.63599 0.00618 0.65666 0.0
Fe157 Fe 0.62232 0.04325 0.64972 0.0
O158 O 0.5836 0.03174 0.65938 0.0
O159 O 0.58431 -0.00774 0.62915 0.0
O160 O 0.6069 0.95671 0.6667 0.0
C161 C 0.62209 0.94883 0.6896 0.0
C162 C 0.62817 0.01923 0.59138 0.0
O163 O 0.6472 0.96183 0.69636 0.0
C164 C 0.68279 0.05403 0.65794 0.0
O165 O 0.65725 0.95442 0.63627 0.0
O166 O 0.69025 0.98347 0.66084 0.0
O167 O 0.61541 0.0375 0.60924 0.0
O168 O 0.63644 -0.00656 0.60028 0.0
C169 C 0.6228 0.04019 0.71165 0.0
O170 O 0.68254 0.03646 0.6809 0.0
O171 O 0.66006 0.05592 0.64029 0.0
C172 C 0.68436 0.96147 0.64337 0.0
O173 O 0.63538 0.0147 0.71404 0.0
O174 O 0.62763 0.05596 0.68851 0.0
C175 C 0.57024 0.00933 0.64724 0.0
Fe176 Fe 0.31109 0.32853 -0.00331 0.0
Fe177 Fe 0.36486 0.35523 0.0333 0.0
O178 O 0.34448 0.35109 -0.00125 0.0
Fe179 Fe 0.35787 0.37026 0.96645 0.0
O180 O 0.32066 0.37497 0.9488 0.0
O181 O 0.28812 0.36048 0.98333 0.0
O182 O 0.29844 0.33873 0.03545 0.0
C183 C 0.30665 0.36061 0.05265 0.0
C184 C 0.34288 0.31614 0.94167 0.0
O185 O 0.3328 0.37227 0.0509 0.0
C186 C 0.41118 0.34902 -0.00597 0.0
O187 O 0.33186 0.29511 0.00982 0.0
O188 O 0.35437 0.3182 0.048 0.0
O189 O 0.36359 0.33543 0.94673 0.0
O190 O 0.31871 0.31511 0.9576 0.0
C191 C 0.36454 0.41332 0.0097 0.0
O192 O 0.39835 0.33811 0.01705 0.0
O193 O 0.39781 0.36862 0.97793 0.0
C194 C 0.34703 0.29419 0.03424 0.0
O195 O 0.37842 0.39375 0.02536 0.0
O196 O 0.35217 0.4061 0.98487 0.0
C197 C 0.29466 0.37661 0.9606 0.0
Fe198 Fe 0.31603 0.68522 0.04174 0.0
Fe199 Fe 0.3608 0.63684 0.06528 0.0
O200 O 0.34007 0.65374 0.03532 0.0
Fe201 Fe 0.34308 0.63916 -0.00178 0.0
O202 O 0.33613 0.67539 0.97949 0.0
O203 O 0.33898 0.70829 0.01635 0.0
O204 O 0.33906 0.70099 0.07298 0.0
C205 C 0.36656 0.6963 0.08051 0.0
C206 C 0.28242 0.64842 0.00121 0.0
O207 O 0.37958 0.67187 0.07425 0.0
C208 C 0.34264 0.58709 0.03354 0.0
O209 O 0.29281 0.66356 0.06761 0.0
O210 O 0.33079 0.6429 0.09347 0.0
O211 O 0.30332 0.62933 -0.00161 0.0
O212 O 0.28826 0.67472 0.01151 0.0
C213 C 0.40247 0.63911 0.01613 0.0
O214 O 0.34332 0.60024 0.05873 0.0
O215 O 0.35059 0.60052 0.00973 0.0
C216 C 0.30261 0.64852 0.08999 0.0
O217 O 0.3943 0.62834 0.0416 0.0
O218 O 0.38316 0.64801 -0.00313 0.0
C219 C 0.34438 0.70105 0.98924 0.0
Fe220 Fe 0.64119 0.34873 0.97626 0.0
Fe221 Fe 0.63218 0.35022 0.90776 0.0
O222 O 0.64634 0.33191 0.94056 0.0
Fe223 Fe 0.66509 0.29656 0.93864 0.0
O224 O 0.6359 0.27883 0.96264 0.0
O225 O 0.64119 0.31352 -0.00258 0.0
O226 O 0.60069 0.34459 0.97257 0.0
C227 C 0.58522 0.35432 0.9505 0.0
C228 C 0.69871 0.33026 0.98313 0.0
O229 O 0.59792 0.36445 0.92675 0.0
C230 C 0.69018 0.3279 0.89098 0.0
O231 O 0.63972 0.38724 0.96266 0.0
O232 O 0.6538 0.38499 0.91544 0.0
O233 O 0.69093 0.30493 0.97135 0.0
O234 O 0.68167 0.35302 0.98069 0.0
C235 C 0.61761 0.29091 0.89492 0.0
O236 O 0.66402 0.33808 0.88398 0.0
O237 O 0.69443 0.31245 0.91472 0.0
C238 C 0.65077 0.39983 0.93965 0.0
O239 O 0.60904 0.31786 0.89749 0.0
O240 O 0.64306 0.28245 0.90572 0.0
C241 C 0.63027 0.28853 0.98895 0.0
Fe242 Fe 0.62741 0.63006 0.95212 0.0
Fe243 Fe 0.68483 0.65529 0.98388 0.0
O244 O 0.64989 0.6349 0.98526 0.0
Fe245 Fe 0.63715 0.61903 0.01962 0.0
O246 O 0.61927 0.58571 0.00133 0.0
O247 O 0.63215 0.58975 0.95354 0.0
O248 O 0.65976 0.63053 0.92585 0.0
C249 C 0.68756 0.62469 0.93078 0.0
C250 C 0.58302 0.63842 -0.00219 0.0
O251 O 0.69991 0.62979 0.9561 0.0
C252 C 0.66156 0.67608 0.03699 0.0
O253 O 0.62243 0.67018 0.94925 0.0
O254 O 0.67125 0.68204 0.95443 0.0
O255 O 0.60261 0.64078 0.01858 0.0
O256 O 0.5905 0.62836 0.972 0.0
C257 C 0.69749 0.60554 0.02294 0.0
O258 O 0.6719 0.68223 0.01124 0.0
O259 O 0.65328 0.64934 0.04374 0.0
C260 C 0.64422 0.6887 0.94626 0.0
O261 O 0.70425 0.63183 0.01313 0.0
O262 O 0.67042 0.59629 0.02279 0.0
C263 C 0.62635 0.57361 0.97623 0.0
Fe264 Fe 0.48922 0.79727 0.81926 0.0
Fe265 Fe 0.45938 0.84296 0.86205 0.0
O266 O 0.49142 0.8304 0.84195 0.0
Fe267 Fe 0.52582 0.85132 0.84455 0.0
O268 O 0.52426 0.85896 0.80481 0.0
O269 O 0.51679 0.81154 0.79071 0.0
O270 O 0.45963 0.81317 0.79598 0.0
C271 C 0.43491 0.82386 0.8054 0.0
C272 C 0.54531 0.79072 0.84473 0.0
O273 O 0.43127 0.83018 0.83323 0.0
C274 C 0.50883 0.85096 0.90338 0.0
O275 O 0.46102 0.77749 0.84392 0.0
O276 O 0.45767 0.80839 0.88268 0.0
O277 O 0.5507 0.81841 0.83951 0.0
O278 O 0.519 0.77951 0.84114 0.0
C279 C 0.481 0.89695 0.84315 0.0
O280 O 0.48195 0.85779 0.89471 0.0
O281 O 0.52891 0.84431 0.8844 0.0
C282 C 0.45387 0.78261 0.87136 0.0
O283 O 0.45923 0.87847 0.84235 0.0
O284 O 0.50752 0.88832 0.85057 0.0
C285 C 0.52478 0.83865 0.78483 0.0
Fe286 Fe 0.13875 0.57783 0.84745 0.0
Fe287 Fe 0.1399 0.50874 0.8516 0.0
O288 O 0.15664 0.54293 0.83917 0.0
Fe289 Fe 0.19153 0.54277 0.81921 0.0
O290 O 0.20949 0.56536 0.84891 0.0
O291 O 0.17411 0.60008 0.84857 0.0
O292 O 0.1436 0.57182 0.88756 0.0
C293 C 0.13527 0.54809 0.90104 0.0
C294 C 0.15586 0.58746 0.78983 0.0
O295 O 0.12515 0.52531 0.88653 0.0
C296 C 0.16162 0.4949 0.79285 0.0
O297 O 0.09976 0.56242 0.84789 0.0
O298 O 0.1049 0.5161 0.83092 0.0
O299 O 0.18182 0.57619 0.79584 0.0
O300 O 0.1338 0.5851 0.8079 0.0
C301 C 0.19977 0.49658 0.8634 0.0
O302 O 0.15243 0.48672 0.81879 0.0
O303 O 0.1752 0.5199 0.78902 0.0
C304 C 0.08842 0.53877 0.836 0.0
O305 O 0.17318 0.49881 0.87349 0.0
O306 O 0.20711 0.50918 0.83863 0.0
C307 C 0.20006 0.59107 0.85679 0.0
Fe308 Fe 0.43493 0.15347 0.81205 0.0
Fe309 Fe 0.47817 0.12455 0.85778 0.0
O310 O 0.44057 0.13221 0.84549 0.0
Fe311 Fe 0.40986 0.11788 0.86709 0.0
O312 O 0.38494 0.11007 0.83488 0.0
O313 O 0.41189 0.12372 0.79503 0.0
O314 O 0.46808 0.13598 0.79265 0.0
C315 C 0.48259 0.11156 0.79841 0.0
C316 C 0.38832 0.17394 0.85196 0.0
O317 O 0.48419 0.10135 0.82506 0.0
C318 C 0.4518 0.14257 0.90952 0.0
O319 O 0.45767 0.18542 0.82689 0.0
O320 O 0.49597 0.15685 0.83936 0.0
O321 O 0.39382 0.15458 0.87211 0.0
O322 O 0.40103 0.17341 0.82618 0.0
C323 C 0.44922 0.07087 0.87179 0.0
O324 O 0.47262 0.14778 0.89059 0.0
O325 O 0.42997 0.12435 0.90331 0.0
C326 C 0.48526 0.18274 0.83475 0.0
O327 O 0.46902 0.09029 0.87898 0.0
O328 O 0.42343 0.07935 0.86277 0.0
C329 C 0.39007 0.10919 0.80681 0.0
Fe330 Fe 0.8683 0.45271 0.84384 0.0
Fe331 Fe 0.8554 0.51938 0.85613 0.0
O332 O 0.85135 0.48726 0.83247 0.0
Fe333 Fe 0.83093 0.4899 0.79771 0.0
O334 O 0.80475 0.4604 0.8089 0.0
O335 O 0.83888 0.42842 0.82635 0.0
O336 O 0.84619 0.45111 0.87822 0.0
C337 C 0.84627 0.47206 0.89753 0.0
C338 C 0.88223 0.4538 0.78378 0.0
O339 O 0.85712 0.49787 0.89136 0.0
C340 C 0.86033 0.54447 0.79805 0.0
O341 O 0.90108 0.47092 0.86294 0.0
O342 O 0.89636 0.51902 0.8516 0.0
O343 O 0.85559 0.46308 0.77737 0.0
O344 O 0.89143 0.45219 0.81072 0.0
C345 C 0.79577 0.52333 0.83951 0.0
O346 O 0.85428 0.5472 0.82575 0.0
O347 O 0.85555 0.51998 0.78407 0.0
C348 C 0.913 0.49646 0.85696 0.0
O349 O 0.81477 0.52119 0.86102 0.0
O350 O 0.8029 0.51705 0.81242 0.0
C351 C 0.81187 0.43436 0.81798 0.0
Fe352 Fe 0.50725 0.18546 0.16434 0.0
Fe353 Fe 0.55354 0.15298 0.12386 0.0
O354 O 0.51586 0.15705 0.13762 0.0
Fe355 Fe 0.48691 0.13274 0.12402 0.0
O356 O 0.46554 0.16399 0.1084 0.0
O357 O 0.46837 0.19216 0.14953 0.0
O358 O 0.51987 0.21482 0.13802 0.0
C359 C 0.54584 0.21526 0.12593 0.0
C360 C 0.47253 0.1385 0.18574 0.0
O361 O 0.5634 0.1929 0.128 0.0
C362 C 0.5334 0.09305 0.13103 0.0
O363 O 0.54483 0.18332 0.18361 0.0
O364 O 0.56743 0.14483 0.16116 0.0
O365 O 0.46468 0.13323 0.15866 0.0
O366 O 0.49354 0.15745 0.19174 0.0
C367 C 0.51975 0.14746 0.0727 0.0
O368 O 0.55053 0.11193 0.11772 0.0
O369 O 0.50686 0.10033 0.13906 0.0
C370 C 0.56485 0.16254 0.18338 0.0
O371 O 0.54122 0.16149 0.08567 0.0
O372 O 0.50399 0.12819 0.08688 0.0
C373 C 0.45652 0.1862 0.1238 0.0
Fe374 Fe 0.85731 0.40621 0.12575 0.0
Fe375 Fe 0.85291 0.47498 0.12393 0.0
O376 O 0.83846 0.4399 0.13656 0.0
Fe377 Fe 0.80521 0.43912 0.15916 0.0
O378 O 0.82495 0.41938 0.18949 0.0
O379 O 0.84872 0.38612 0.16094 0.0
O380 O 0.893 0.41836 0.14334 0.0
C381 C 0.9059 0.44302 0.13678 0.0
C382 C 0.79747 0.38943 0.11863 0.0
O383 O 0.8921 0.46266 0.12139 0.0
C384 C 0.79046 0.48419 0.11916 0.0
O385 O 0.86822 0.42059 0.08803 0.0
O386 O 0.84502 0.46456 0.08536 0.0
O387 O 0.79018 0.40346 0.14266 0.0
O388 O 0.82368 0.39184 0.10756 0.0
C389 C 0.84038 0.48916 0.18169 0.0
O390 O 0.81673 0.4947 0.12405 0.0
O391 O 0.78297 0.45877 0.12997 0.0
C392 C 0.85519 0.44117 0.07265 0.0
O393 O 0.86087 0.48644 0.16203 0.0
O394 O 0.81507 0.47488 0.17942 0.0
C395 C 0.84003 0.39529 0.18665 0.0
Fe396 Fe 0.57319 0.86368 0.12857 0.0
Fe397 Fe 0.54621 0.82436 0.18016 0.0
O398 O 0.54174 0.84992 0.14953 0.0
Fe399 Fe 0.50476 0.86245 0.14001 0.0
O400 O 0.51272 0.8712 0.10065 0.0
O401 O 0.5568 0.85036 0.09269 0.0
O402 O 0.59423 0.82776 0.13014 0.0
C403 C 0.58653 0.80136 0.13876 0.0
C404 C 0.53704 0.91486 0.14126 0.0
O405 O 0.56467 0.79705 0.1566 0.0
C406 C 0.50111 0.85925 0.20252 0.0
O407 O 0.59187 0.87808 0.16209 0.0
O408 O 0.58276 0.84028 0.19332 0.0
O409 O 0.51474 0.90008 0.15165 0.0
O410 O 0.55699 0.90215 0.1247 0.0
C411 C 0.49451 0.80285 0.14682 0.0
O412 O 0.528 0.85039 0.2066 0.0
O413 O 0.48849 0.85649 0.17708 0.0
C414 C 0.59624 0.8649 0.18698 0.0
O415 O 0.51029 0.80362 0.17123 0.0
O416 O 0.4941 0.82492 0.12865 0.0
C417 C 0.53105 0.85861 0.08299 0.0
Fe418 Fe 0.11618 0.46575 0.11389 0.0
Fe419 Fe 0.14978 0.48357 0.17228 0.0
O420 O 0.13128 0.49386 0.13824 0.0
Fe421 Fe 0.1265 0.53233 0.12834 0.0
O422 O 0.08517 0.52802 0.12995 0.0
O423 O 0.08566 0.48963 0.09921 0.0
O424 O 0.09025 0.45309 0.14257 0.0
C425 C 0.09848 0.44426 0.16838 0.0
C426 C 0.14117 0.50387 0.07324 0.0
O427 O 0.12497 0.45014 0.17891 0.0
C428 C 0.18478 0.53318 0.14927 0.0
O429 O 0.14367 0.43679 0.1243 0.0
O430 O 0.1777 0.46117 0.15196 0.0
O431 O 0.12821 0.5252 0.08743 0.0
O432 O 0.14173 0.47748 0.08418 0.0
C433 C 0.11601 0.5324 0.19043 0.0
O434 O 0.17747 0.51556 0.17093 0.0
O435 O 0.16694 0.53811 0.12729 0.0
C436 C 0.1704 0.43934 0.13477 0.0
O437 O 0.12248 0.5049 0.19444 0.0
O438 O 0.1249 0.54628 0.16716 0.0
C439 C 0.07086 0.50815 0.11497 0.0
Fe440 Fe 0.78179 0.80308 0.49944 0.0
Fe441 Fe 0.83604 0.84221 0.52022 0.0
O442 O 0.81229 0.82813 0.49107 0.0
Fe443 Fe 0.81903 0.83997 0.45333 0.0
O444 O 0.77946 0.8365 0.44098 0.0
O445 O 0.75444 0.82948 0.48311 0.0
O446 O 0.77302 0.82096 0.53623 0.0
C447 C 0.78044 0.84687 0.54667 0.0
C448 C 0.80811 0.78005 0.4453 0.0
O449 O 0.80451 0.86006 0.53845 0.0
C450 C 0.8781 0.832 0.47705 0.0
O451 O 0.80719 0.77545 0.51705 0.0
O452 O 0.83257 0.80901 0.54419 0.0
O453 O 0.82642 0.80192 0.44217 0.0
O454 O 0.78598 0.78112 0.46386 0.0
C455 C 0.82589 0.89283 0.48407 0.0
O456 O 0.86914 0.82505 0.50325 0.0
O457 O 0.86021 0.84476 0.45848 0.0
C458 C 0.82513 0.78191 0.53868 0.0
O459 O 0.84326 0.87841 0.5018 0.0
O460 O 0.81173 0.87928 0.46302 0.0
C461 C 0.75579 0.83966 0.45653 0.0
Fe462 Fe 0.84452 0.16326 0.54237 0.0
Fe463 Fe 0.8857 0.10953 0.55898 0.0
O464 O 0.86408 0.1298 0.53197 0.0
Fe465 Fe 0.86199 0.11711 0.49408 0.0
O466 O 0.85828 0.15516 0.47818 0.0
O467 O 0.86791 0.18528 0.51647 0.0
O468 O 0.87161 0.1743 0.57248 0.0
C469 C 0.89956 0.16775 0.57463 0.0
C470 C 0.80368 0.13406 0.50174 0.0
O471 O 0.90916 0.14228 0.56675 0.0
C472 C 0.85929 0.06307 0.52709 0.0
O473 O 0.82122 0.14231 0.56865 0.0
O474 O 0.85913 0.11732 0.59028 0.0
O475 O 0.8214 0.11222 0.49733 0.0
O476 O 0.81348 0.15827 0.51404 0.0
C477 C 0.92249 0.11082 0.50663 0.0
O478 O 0.86373 0.07521 0.55258 0.0
O479 O 0.86568 0.07705 0.50302 0.0
C480 C 0.83126 0.12519 0.58936 0.0
O481 O 0.91573 0.09888 0.53195 0.0
O482 O 0.90237 0.12149 0.48932 0.0
C483 C 0.87057 0.17894 0.4887 0.0
Fe484 Fe 0.11611 0.85729 0.4886 0.0
Fe485 Fe 0.09626 0.86639 0.4229 0.0
O486 O 0.11811 0.84658 0.45008 0.0
Fe487 Fe 0.14174 0.81595 0.43963 0.0
O488 O 0.12052 0.7902 0.46401 0.0
O489 O 0.1249 0.81982 0.50329 0.0
O490 O 0.0765 0.84681 0.49002 0.0
C491 C 0.0566 0.85675 0.47196 0.0
C492 C 0.17649 0.84882 0.4843 0.0
O493 O 0.06397 0.872 0.44867 0.0
C494 C 0.15288 0.85679 0.39403 0.0
O495 O 0.10682 0.89684 0.48164 0.0
O496 O 0.11413 0.90215 0.43302 0.0
O497 O 0.17123 0.82451 0.46934 0.0
O498 O 0.15566 0.86791 0.48835 0.0
C499 C 0.0886 0.80795 0.40293 0.0
O500 O 0.1248 0.86342 0.39283 0.0
O501 O 0.16351 0.83981 0.41452 0.0
C502 C 0.11312 0.91332 0.45923 0.0
O503 O 0.07678 0.83248 0.41097 0.0
O504 O 0.11654 0.8025 0.40846 0.0
C505 C 0.11676 0.7949 0.49188 0.0
Fe506 Fe 0.14188 0.14917 0.43835 0.0
Fe507 Fe 0.19921 0.16942 0.47324 0.0
O508 O 0.16313 0.15096 0.47234 0.0
Fe509 Fe 0.14796 0.13466 0.50535 0.0
O510 O 0.12872 0.10326 0.48516 0.0
O511 O 0.14327 0.10855 0.43783 0.0
O512 O 0.17549 0.14829 0.41367 0.0
C513 C 0.20235 0.13968 0.41972 0.0
C514 C 0.09562 0.15689 0.4826 0.0
O515 O 0.21408 0.14357 0.44558 0.0
C516 C 0.17439 0.18962 0.52579 0.0
O517 O 0.13985 0.18972 0.43775 0.0
O518 O 0.18917 0.19738 0.44358 0.0
O519 O 0.1147 0.15852 0.50392 0.0
O520 O 0.10417 0.14876 0.45649 0.0
C521 C 0.20714 0.11801 0.51101 0.0
O522 O 0.18614 0.1964 0.50073 0.0
O523 O 0.16501 0.16293 0.53112 0.0
C524 C 0.16306 0.20646 0.43511 0.0
O525 O 0.21552 0.14438 0.50284 0.0
O526 O 0.17978 0.10985 0.50869 0.0
C527 C 0.13419 0.09209 0.45923 0.0
H528 H 0.98265 0.33088 0.44108 0.0
H529 H 0.07579 0.34398 0.41248 0.0
H530 H 0.09232 0.34881 0.46544 0.0
H531 H 0.07934 0.3526 0.52011 0.0
H532 H 0.98558 0.33948 0.54695 0.0
H533 H 0.97041 0.33102 0.49455 0.0
C534 C 0.00658 0.3349 0.44637 0.0
C535 C 0.02782 0.33769 0.42293 0.0
C536 C 0.01585 0.33759 0.47664 0.0
C537 C 0.05888 0.34209 0.43019 0.0
C538 C 0.06836 0.34484 0.46045 0.0
C539 C 0.05574 0.34753 0.51438 0.0
C540 C 0.03354 0.34718 0.53721 0.0
C541 C 0.04694 0.34307 0.48391 0.0
C542 C 0.00299 0.34045 0.52963 0.0
C543 C -0.00575 0.33558 0.4997 0.0
H544 H 0.62856 0.06869 0.45828 0.0
H545 H 0.60409 0.97538 0.44002 0.0
H546 H 0.60619 0.96402 0.494 0.0
H547 H 0.61649 0.98015 0.54608 0.0
H548 H 0.63854 0.07368 0.56497 0.0
H549 H 0.63635 0.08543 0.51072 0.0
C550 C 0.62338 0.04595 0.46615 0.0
C551 C 0.61623 0.02292 0.44528 0.0
C552 C 0.62464 0.03955 0.49715 0.0
C553 C 0.60949 -0.00644 0.45572 0.0
C554 C 0.6109 0.98696 0.48652 0.0
C555 C 0.62104 0.00302 0.53819 0.0
C556 C 0.62805 0.026 0.55903 0.0
C557 C 0.61885 0.00968 0.50734 0.0
C558 C 0.63324 0.05572 0.54897 0.0
C559 C 0.6319 0.06242 0.51812 0.0
H560 H 0.00947 0.64162 0.54786 0.0
H561 H 0.91624 0.61709 0.56783 0.0
H562 H 0.90433 0.61483 0.5135 0.0
H563 H 0.92165 0.6169 0.4609 0.0
H564 H 0.01492 0.64269 0.44166 0.0
H565 H 0.02547 0.64821 0.49564 0.0
C566 C 0.98659 0.63561 0.54026 0.0
C567 C 0.96391 0.62871 0.56139 0.0
C568 C 0.97994 0.63487 0.5094 0.0
C569 C 0.93408 0.62198 0.55163 0.0
C570 C 0.9273 0.62079 0.52074 0.0
C571 C 0.94423 0.62389 0.46852 0.0
C572 C 0.96764 0.6287 0.44749 0.0
C573 C 0.95022 0.62676 0.49948 0.0
C574 C -0.00339 0.63848 0.45751 0.0
C575 C 0.00272 0.64151 0.48831 0.0
H576 H 0.36809 0.93311 0.43007 0.0
H577 H 0.32127 0.01902 0.42993 0.0
H578 H 0.31933 0.01804 0.48522 0.0
H579 H 0.33246 -0.00614 0.53301 0.0
H580 H 0.37997 0.90835 0.53362 0.0
H581 H 0.38017 0.90822 0.47814 0.0
C582 C 0.35732 0.9516 0.44207 0.0
C583 C 0.34504 0.97624 0.42594 0.0
C584 C 0.35664 0.95108 0.47373 0.0
C585 C 0.33105 -0.0001 0.44184 0.0
C586 C 0.32998 -0.00062 0.4734 0.0
C587 C 0.34303 0.97518 0.52112 0.0
C588 C 0.35655 0.95129 0.5374 0.0
C589 C 0.34305 0.97528 0.4895 0.0
C590 C 0.36967 0.92711 0.52158 0.0
C591 C 0.36972 0.927 0.48993 0.0
H592 H 0.44137 0.02826 0.34349 0.0
H593 H 0.45429 0.93272 0.32726 0.0
H594 H 0.50903 0.94154 0.32006 0.0
H595 H 0.5532 0.97565 0.32367 0.0
H596 H 0.53987 0.0709 0.34178 0.0
H597 H 0.48467 0.063 0.34192 0.0
C598 C 0.45617 0.0093 0.33852 0.0
C599 C 0.44415 0.97976 0.33685 0.0
C600 C 0.48727 0.01455 0.33443 0.0
C601 C 0.46328 0.95557 0.32932 0.0
C602 C 0.49446 0.96063 0.32508 0.0
C603 C 0.53825 -0.00517 0.32712 0.0
C604 C 0.55055 0.02374 0.33334 0.0
C605 C 0.50673 -0.01006 0.32828 0.0
C606 C 0.53089 0.04837 0.3374 0.0
C607 C 0.4994 0.04384 0.33768 0.0
H608 H 0.92092 0.50924 0.34475 0.0
H609 H 0.00036 0.52206 0.40217 0.0
H610 H 0.01478 0.46955 0.3945 0.0
H611 H 0.00666 0.42133 0.36962 0.0
H612 H 0.92715 0.40649 0.31311 0.0
H613 H 0.91091 0.45891 0.32206 0.0
C614 C 0.94105 0.50032 0.356 0.0
C615 C 0.95966 0.51942 0.37385 0.0
C616 C 0.94947 0.47014 0.35121 0.0
C617 C 0.98578 0.50777 0.38818 0.0
C618 C -0.00585 0.47783 0.38372 0.0
C619 C 0.9859 0.42963 0.35901 0.0
C620 C 0.96838 0.41056 0.34028 0.0
C621 C 0.97655 0.45913 0.36478 0.0
C622 C 0.94108 0.42114 0.32737 0.0
C623 C 0.9318 0.45093 0.33259 0.0
H624 H 0.42796 0.00176 0.65655 0.0
H625 H 0.44673 0.90715 0.64137 0.0
H626 H 0.50168 0.91745 0.64586 0.0
H627 H 0.54355 0.95456 0.6464 0.0
H628 H 0.52494 0.04921 0.66179 0.0
H629 H 0.47017 0.03774 0.66494 0.0
C630 C 0.44415 0.98334 0.65473 0.0
C631 C 0.43368 0.95389 0.64801 0.0
C632 C 0.4754 0.98957 0.65682 0.0
C633 C 0.45449 0.92998 0.64638 0.0
C634 C 0.48579 0.93594 0.64866 0.0
C635 C 0.52749 0.97265 0.65068 0.0
C636 C 0.53789 0.0028 0.65291 0.0
C637 C 0.49639 0.96583 0.65258 0.0
C638 C 0.5172 0.02595 0.65943 0.0
C639 C 0.48602 0.01938 0.66123 0.0
H640 H -0.00106 0.449 0.65638 0.0
H641 H 0.07838 0.46087 0.60006 0.0
H642 H 0.07715 0.51561 0.60917 0.0
H643 H 0.05099 0.56024 0.63016 0.0
H644 H 0.97016 0.54755 0.68411 0.0
H645 H 0.97488 0.49261 0.67948 0.0
C646 C 0.01599 0.46348 0.64592 0.0
C647 C 0.03836 0.45094 0.62704 0.0
C648 C 0.01507 0.49468 0.65116 0.0
C649 C 0.06064 0.47002 0.61432 0.0
C650 C 0.06002 0.50127 0.61963 0.0
C651 C 0.0349 0.54536 0.64147 0.0
C652 C 0.01031 0.5577 0.65753 0.0
C653 C 0.03709 0.51387 0.6377 0.0
C654 C 0.98925 0.53836 0.67169 0.0
C655 C 0.99182 0.50706 0.66886 0.0
H656 H 0.32586 0.45536 0.98898 0.0
H657 H 0.39653 0.44036 0.05598 0.0
H658 H 0.392 0.4928 0.07334 0.0
H659 H 0.37142 0.54405 0.06561 0.0
H660 H 0.30327 0.55876 -0.00372 0.0
H661 H 0.30258 0.50474 0.98411 0.0
C662 C 0.34038 0.46355 0.00732 0.0
C663 C 0.36203 0.44446 0.02069 0.0
C664 C 0.33773 0.49342 0.01698 0.0
C665 C 0.38005 0.45499 0.04502 0.0
C666 C 0.37738 0.48483 0.05503 0.0
C667 C 0.3559 0.53506 0.04849 0.0
C668 C 0.33741 0.55471 0.03177 0.0
C669 C 0.3567 0.50437 0.04075 0.0
C670 C 0.3176 0.54352 0.00927 0.0
C671 C 0.3174 0.51287 0.0022 0.0
H672 H 0.44352 0.36879 0.94652 0.0
H673 H 0.45121 0.31651 0.02902 0.0
H674 H 0.50633 0.31257 0.02171 0.0
H675 H 0.55198 0.32717 -0.00608 0.0
H676 H 0.5441 0.38099 0.91238 0.0
H677 H 0.48868 0.38133 0.91756 0.0
C678 C 0.45718 0.35647 0.96295 0.0
C679 C 0.44356 0.34348 0.98858 0.0
C680 C 0.48858 0.3549 0.95898 0.0
C681 C 0.46137 0.327 0.00928 0.0
C682 C 0.49279 0.32484 0.00518 0.0
C683 C 0.53818 0.33916 0.97734 0.0
C684 C 0.55199 0.35458 0.95314 0.0
C685 C 0.5066 0.33935 0.9805 0.0
C686 C 0.53389 0.36932 0.93142 0.0
C687 C 0.5023 0.36945 0.93431 0.0
H688 H 0.64944 0.43446 0.98946 0.0
H689 H 0.65615 0.44025 0.89199 0.0
H690 H 0.64911 0.49537 0.89492 0.0
H691 H 0.63672 0.54069 0.92516 0.0
H692 H 0.62638 0.53261 0.02224 0.0
H693 H 0.63797 0.47882 0.01922 0.0
C694 C 0.6495 0.44766 0.96871 0.0
C695 C 0.65285 0.43322 0.94047 0.0
C696 C 0.64389 0.47863 0.97047 0.0
C697 C 0.65356 0.45082 0.91399 0.0
C698 C 0.64915 0.48221 0.91566 0.0
C699 C 0.63673 0.52711 0.94563 0.0
C700 C 0.63024 0.54056 0.97388 0.0
C701 C 0.64339 0.49614 0.94374 0.0
C702 C 0.6307 0.52274 0.0002 0.0
C703 C 0.63766 0.49207 -0.00146 0.0
H704 H 0.53402 0.63756 0.95956 0.0
H705 H 0.55901 0.64712 0.05404 0.0
H706 H 0.50538 0.64769 0.06803 0.0
H707 H 0.45129 0.64341 0.0538 0.0
H708 H 0.42608 0.63622 0.95932 0.0
H709 H 0.47983 0.63664 0.94504 0.0
C710 C 0.52773 0.63995 0.98318 0.0
C711 C 0.55051 0.64193 0.00567 0.0
C712 C 0.4968 0.64038 -0.00884 0.0
C713 C 0.54197 0.64539 0.03619 0.0
C714 C 0.51128 0.6456 0.04429 0.0
C715 C 0.45765 0.64177 0.03013 0.0
C716 C 0.43491 0.63932 0.0077 0.0
C717 C 0.48852 0.64264 0.02203 0.0
C718 C 0.44329 0.63793 0.97702 0.0
C719 C 0.47398 0.6382 0.96882 0.0
H720 H 0.47224 0.85994 0.9522 0.0
H721 H 0.56584 0.84337 0.92734 0.0
H722 H 0.58101 0.84303 0.98047 0.0
H723 H 0.56798 0.84799 0.03439 0.0
H724 H 0.47433 0.86464 0.05896 0.0
H725 H 0.45912 0.8642 0.00587 0.0
C726 C 0.49596 0.85646 0.9584 0.0
C727 C 0.51778 0.85195 0.93576 0.0
C728 C 0.50466 0.85616 0.98909 0.0
C729 C 0.54845 0.84709 0.94425 0.0
C730 C 0.55724 0.84681 0.9747 0.0
C731 C 0.54427 0.85137 0.02809 0.0
C732 C 0.52246 0.85657 0.0506 0.0
C733 C 0.53556 0.85133 -0.00265 0.0
C734 C 0.49174 0.8609 0.04206 0.0
C735 C 0.48292 0.86065 0.01167 0.0
H736 H 0.14278 0.55678 0.04252 0.0
H737 H 0.15526 0.46029 0.03171 0.0
H738 H 0.15567 0.4662 0.97682 0.0
H739 H 0.14603 0.4976 0.9325 0.0
H740 H 0.13428 0.59407 0.94251 0.0
H741 H 0.13959 0.58927 -0.00236 0.0
C742 C 0.14594 0.53709 0.02816 0.0
C743 C 0.14806 0.50806 0.04102 0.0
C744 C 0.14554 0.54053 -0.00328 0.0
C745 C 0.15305 0.48284 0.02229 0.0
C746 C 0.15308 0.48613 -0.00907 0.0
C747 C 0.14449 0.51755 0.94679 0.0
C748 C 0.13873 0.54595 0.93389 0.0
C749 C 0.14807 0.51465 0.97803 0.0
C750 C 0.13797 0.57187 0.95229 0.0
C751 C 0.14116 0.56915 0.98364 0.0
H752 H 0.50428 0.16518 0.93337 0.0
H753 H 0.41182 0.1396 0.95631 0.0
H754 H 0.42477 0.1425 0.0101 0.0
H755 H 0.46397 0.14357 0.0491 0.0
H756 H 0.55704 0.16656 0.0269 0.0
H757 H 0.54226 0.173 0.97352 0.0
C758 C 0.48679 0.16074 0.95011 0.0
C759 C 0.45741 0.15122 0.94108 0.0
C760 C 0.49468 0.16122 0.98075 0.0
C761 C 0.4348 0.14623 0.9629 0.0
C762 C 0.44219 0.14775 -0.00646 0.0
C763 C 0.48099 0.15023 0.0326 0.0
C764 C 0.51159 0.15386 0.04135 0.0
C765 C 0.47238 0.15366 0.00248 0.0
C766 C 0.53341 0.16317 0.02021 0.0
C767 C 0.52496 0.16689 0.9899 0.0
H768 H 0.8664 0.42507 0.93127 0.0
H769 H 0.81129 0.5056 0.93403 0.0
H770 H 0.80685 0.50114 0.98901 0.0
H771 H 0.82336 0.47802 0.03595 0.0
H772 H 0.88185 0.39964 0.03479 0.0
H773 H 0.88025 0.39942 0.97923 0.0
C774 C 0.85285 0.44109 0.944 0.0
C775 C 0.83908 0.46556 0.92908 0.0
C776 C 0.85156 0.43911 0.97568 0.0
C777 C 0.82197 0.48663 0.94542 0.0
C778 C 0.8196 0.48417 0.97672 0.0
C779 C 0.83582 0.46081 0.02365 0.0
C780 C 0.85329 0.4393 0.03938 0.0
C781 C 0.83517 0.46115 -0.00792 0.0
C782 C 0.86862 0.41673 0.0231 0.0
C783 C 0.86766 0.41657 -0.0086 0.0
H784 H 0.94575 0.54773 0.84586 0.0
H785 H 0.95554 0.45167 0.86155 0.0
H786 H 0.01042 0.45588 0.85336 0.0
H787 H 0.05572 0.48693 0.84276 0.0
H788 H 0.04623 0.58318 0.82883 0.0
H789 H 0.99088 0.57865 0.83458 0.0
C790 C 0.95986 0.52772 0.8477 0.0
C791 C 0.94653 0.49949 0.85462 0.0
C792 C 0.99137 0.53025 0.84282 0.0
C793 C 0.96522 0.47377 0.85667 0.0
C794 C -0.00341 0.4761 0.85174 0.0
C795 C 0.04147 0.50683 0.84047 0.0
C796 C 0.05493 0.53533 0.83519 0.0
C797 C 0.00988 0.5042 0.84478 0.0
C798 C 0.03629 0.561 0.83282 0.0
C799 C 0.00473 0.55845 0.83629 0.0
H800 H 0.42186 0.02584 0.83985 0.0
H801 H 0.49696 0.04468 0.90111 0.0
H802 H 0.51527 -0.00704 0.89528 0.0
H803 H 0.50978 0.9424 0.87306 0.0
H804 H 0.43431 0.92318 0.81246 0.0
H805 H 0.41667 0.97537 0.81716 0.0
C806 C 0.44196 0.01845 0.85224 0.0
C807 C 0.45788 0.03883 0.87107 0.0
C808 C 0.45264 0.98889 0.84843 0.0
C809 C 0.48423 0.02924 0.88659 0.0
C810 C 0.49485 -0.00022 0.88313 0.0
C811 C 0.48982 0.94984 0.86048 0.0
C812 C 0.47343 0.92924 0.84237 0.0
C813 C 0.47936 0.97951 0.86394 0.0
C814 C 0.44728 0.93886 0.82652 0.0
C815 C 0.43708 0.96855 0.82935 0.0
H816 H 0.93417 0.49354 0.15502 0.0
H817 H 0.95044 0.4023 0.1244 0.0
H818 H 0.00369 0.41548 0.11368 0.0
H819 H 0.04246 0.45447 0.10664 0.0
H820 H 0.02813 0.54511 0.14053 0.0
H821 H 0.97605 0.53097 0.15518 0.0
C822 C 0.94976 0.4764 0.14684 0.0
C823 C 0.93878 0.44715 0.14022 0.0
C824 C 0.97985 0.48435 0.14015 0.0
C825 C 0.95874 0.42486 0.12983 0.0
C826 C 0.98888 0.43257 0.12318 0.0
C827 C 0.02808 0.47125 0.11728 0.0
C828 C 0.03885 0.50101 0.12197 0.0
C829 C -0.00088 0.46256 0.12701 0.0
C830 C 0.02005 0.52224 0.13621 0.0
C831 C 0.99052 0.51407 0.14488 0.0
H832 H 0.57097 0.95752 0.11175 0.0
H833 H 0.50402 0.94595 0.18239 0.0
H834 H 0.4994 0.00048 0.18742 0.0
H835 H 0.5103 0.05103 0.16849 0.0
H836 H 0.57652 0.06374 0.09761 0.0
H837 H 0.58587 0.00917 0.09631 0.0
C838 C 0.55564 0.96699 0.12841 0.0
C839 C 0.53731 0.9478 0.14605 0.0
C840 C 0.55282 -0.0015 0.13109 0.0
C841 C 0.51785 0.96029 0.16795 0.0
C842 C 0.51522 -0.00853 0.17097 0.0
C843 C 0.52693 0.04186 0.15291 0.0
C844 C 0.54223 0.0611 0.13279 0.0
C845 C 0.5319 0.0107 0.15206 0.0
C846 C 0.56427 0.04918 0.11318 0.0
C847 C 0.56954 0.01803 0.11233 0.0
H848 H 0.83343 0.92373 0.53557 0.0
H849 H 0.81571 0.93557 0.43999 0.0
H850 H 0.82214 -0.00941 0.44571 0.0
H851 H 0.83839 0.03395 0.47703 0.0
H852 H 0.85662 0.02122 0.57259 0.0
H853 H 0.84417 0.96743 0.56774 0.0
C854 C 0.83082 0.9384 0.516 0.0
C855 C 0.82496 0.92585 0.48727 0.0
C856 C 0.83491 0.96956 0.51944 0.0
C857 C 0.82065 0.94491 0.46223 0.0
C858 C 0.82445 0.97622 0.4655 0.0
C859 C 0.83958 0.01942 0.49682 0.0
C860 C 0.84918 0.0313 0.52498 0.0
C861 C 0.83257 0.9886 0.49383 0.0
C862 C 0.84976 0.01247 0.5506 0.0
C863 C 0.84266 0.98177 0.54784 0.0
H864 H 0.01065 0.85645 0.4313 0.0
H865 H 0.03104 0.84116 0.52594 0.0
H866 H 0.97751 0.82874 0.53534 0.0
H867 H 0.92481 0.82487 0.51703 0.0
H868 H 0.90474 0.84 0.42221 0.0
H869 H 0.95869 0.84911 0.41235 0.0
C870 C 0.00329 0.85068 0.45402 0.0
C871 C 0.0244 0.85038 0.47802 0.0
C872 C 0.97277 0.84317 0.45914 0.0
C873 C 0.01493 0.84197 0.50721 0.0
C874 C 0.98445 0.83472 0.51256 0.0
C875 C 0.93228 0.82972 0.49413 0.0
C876 C 0.91087 0.83222 0.47047 0.0
C877 C 0.96316 0.83551 0.48872 0.0
C878 C 0.92086 0.83834 0.44088 0.0
C879 C 0.95162 0.84369 0.43523 0.0
H880 H 0.12327 0.95647 0.41644 0.0
H881 H 0.10954 0.94395 0.51257 0.0
H882 H 0.11364 -0.00171 0.52072 0.0
H883 H 0.12167 0.04913 0.50093 0.0
H884 H 0.13631 0.06214 0.40506 0.0
H885 H 0.13108 0.00775 0.39649 0.0
C886 C 0.12113 0.96564 0.43914 0.0
C887 C 0.11602 0.94622 0.46379 0.0
C888 C 0.12353 -0.00305 0.44376 0.0
C889 C 0.11342 0.95842 0.49313 0.0
C890 C 0.11572 0.9895 0.49787 0.0
C891 C 0.12343 0.04013 0.47811 0.0
C892 C 0.12919 0.05959 0.4537 0.0
C893 C 0.12075 0.00893 0.47337 0.0
C894 C 0.13177 0.04757 0.42428 0.0
C895 C 0.12886 0.01649 0.41934 0.0
H896 H 0.04909 0.13716 0.44656 0.0
H897 H 0.06882 0.17092 0.53661 0.0
H898 H 0.01735 0.15716 0.55268 0.0
H899 H 0.96777 0.13284 0.5419 0.0
H900 H 0.94737 0.10134 0.45145 0.0
H901 H -0.00135 0.11594 0.43497 0.0
C902 C 0.04206 0.14197 0.46959 0.0
C903 C 0.06292 0.15477 0.4904 0.0
C904 C 0.01271 0.13346 0.47885 0.0
C905 C 0.05328 0.16094 0.52013 0.0
C906 C 0.02396 0.1528 0.52945 0.0
C907 C 0.97488 0.12866 0.51877 0.0
C908 C 0.95444 0.11524 0.49806 0.0
C909 C 0.00382 0.13828 0.50923 0.0
C910 C 0.96322 0.111 0.46784 0.0
C911 C 0.9923 0.11966 0.45838 0.0
H912 H 0.15554 0.19683 0.37669 0.0
H913 H 0.16098 0.26766 0.44366 0.0
H914 H 0.1316 0.30132 0.41038 0.0
H915 H 0.09386 0.30485 0.36913 0.0
H916 H 0.07864 0.22846 0.30981 0.0
H917 H 0.12201 0.20215 0.33297 0.0
C918 C 0.15141 0.22017 0.38322 0.0
C919 C 0.16017 0.23006 0.41225 0.0
C920 C 0.13169 0.2377 0.36572 0.0
C921 C 0.15463 0.25996 0.42114 0.0
C922 C 0.13732 0.27884 0.40239 0.0
C923 C 0.1006 0.28272 0.36093 0.0
C924 C 0.0833 0.26824 0.33817 0.0
C925 C 0.124 0.26711 0.37572 0.0
C926 C 0.09169 0.2396 0.32762 0.0
C927 C 0.11643 0.22474 0.34075 0.0
H928 H 0.80466 0.1356 0.44209 0.0
H929 H 0.74344 0.13179 0.5179 0.0
H930 H 0.70098 0.11777 0.48369 0.0
H931 H 0.6843 0.09814 0.43349 0.0
H932 H 0.74883 0.09533 0.36021 0.0
H933 H 0.78727 0.12059 0.3919 0.0
C934 C 0.78173 0.13258 0.45086 0.0
C935 C 0.77676 0.13469 0.4821 0.0
C936 C 0.75838 0.12284 0.43152 0.0
C937 C 0.74737 0.13053 0.49371 0.0
C938 C 0.72334 0.12218 0.47423 0.0
C939 C 0.70662 0.10377 0.42448 0.0
C940 C 0.71412 0.09503 0.39485 0.0
C941 C 0.72897 0.11697 0.44331 0.0
C942 C 0.74297 0.10184 0.38313 0.0
C943 C 0.76481 0.11624 0.40117 0.0
H944 H 0.85671 0.65691 0.39972 0.0
H945 H 0.89645 0.71562 0.33218 0.0
H946 H 0.86518 0.75764 0.35021 0.0
H947 H 0.83327 0.77891 0.39006 0.0
H948 H 0.7963 0.72096 0.45966 0.0
H949 H 0.81916 0.67678 0.43525 0.0
C950 C 0.85833 0.67885 0.38874 0.0
C951 C 0.87937 0.68355 0.36521 0.0
C952 C 0.84078 0.70279 0.39953 0.0
C953 C 0.88064 0.7117 0.35056 0.0
C954 C 0.86285 0.73564 0.3609 0.0
C955 C 0.82968 0.75647 0.3995 0.0
C956 C 0.81371 0.75304 0.42684 0.0
C957 C 0.84381 0.73165 0.38608 0.0
C958 C 0.80858 0.72399 0.43863 0.0
C959 C 0.82193 0.69888 0.42489 0.0
H960 H 0.23788 0.94442 0.32067 0.0
H961 H 0.30297 0.87568 0.34527 0.0
H962 H 0.26206 0.84316 0.36395 0.0
H963 H 0.20952 0.83782 0.38044 0.0
H964 H 0.14405 0.90741 0.35928 0.0
H965 H 0.18308 0.9358 0.33164 0.0
C966 C 0.24278 0.92197 0.32935 0.0
C967 C 0.27314 0.91237 0.33194 0.0
C968 C 0.21918 0.90377 0.34103 0.0
C969 C 0.27961 0.88344 0.34341 0.0
C970 C 0.2563 0.86492 0.35415 0.0
C971 C 0.20364 0.85895 0.36934 0.0
C972 C 0.17418 0.87074 0.37231 0.0
C973 C 0.22624 0.87541 0.35424 0.0
C974 C 0.16669 0.89789 0.35741 0.0
C975 C 0.18903 0.91425 0.34176 0.0
H976 H 0.09842 0.80428 0.54917 0.0
H977 H 0.09716 0.73738 0.47756 0.0
H978 H 0.06638 0.7036 0.50928 0.0
H979 H 0.04047 0.69345 0.55717 0.0
H980 H 0.04184 0.76087 0.62837 0.0
H981 H 0.07161 0.79476 0.59619 0.0
C982 C 0.09174 0.78219 0.54047 0.0
C983 C 0.10041 0.77312 0.5112 0.0
C984 C 0.07379 0.76333 0.55848 0.0
C985 C 0.09107 0.74467 0.50017 0.0
C986 C 0.07334 0.7255 0.51819 0.0
C987 C 0.04713 0.71561 0.56569 0.0
C988 C 0.03918 0.72455 0.59526 0.0
C989 C 0.06458 0.7347 0.54733 0.0
C990 C 0.04774 0.75343 0.60576 0.0
C991 C 0.06489 0.77271 0.58747 0.0
H992 H 0.30409 0.04941 0.59019 0.0
H993 H 0.23129 0.98285 0.59281 0.0
H994 H 0.20042 0.01467 0.55922 0.0
H995 H 0.19408 0.06139 0.53051 0.0
H996 H 0.26646 0.12847 0.52894 0.0
H997 H 0.29818 0.0956 0.56062 0.0
C998 C 0.28141 0.04176 0.58359 0.0
C999 C 0.26981 0.0139 0.59428 0.0
C1000 C 0.26401 0.06002 0.56439 0.0
C1001 C 0.24055 0.00432 0.58517 0.0
C1002 C 0.22302 0.02242 0.5659 0.0
C1003 C 0.21683 0.06895 0.53698 0.0
C1004 C 0.22782 0.09755 0.52762 0.0
C1005 C 0.23453 0.05032 0.55555 0.0
C1006 C 0.25746 0.10667 0.53592 0.0
C1007 C 0.27549 0.08796 0.55412 0.0
H1008 H 0.90583 0.19755 0.628 0.0
H1009 H 0.94275 0.1899 0.53806 0.0
H1010 H 0.97878 0.23124 0.54861 0.0
H1011 H -0.00183 0.27082 0.58284 0.0
H1012 H 0.96483 0.27592 0.67437 0.0
H1013 H 0.92915 0.23402 0.66417 0.0
C1014 C 0.92194 0.20502 0.61095 0.0
C1015 C 0.92174 0.19134 0.58232 0.0
C1016 C 0.94313 0.22812 0.61751 0.0
C1017 C 0.94275 0.20049 0.56025 0.0
C1018 C 0.96323 0.22402 0.56624 0.0
C1019 C 0.98323 0.26246 0.60055 0.0
C1020 C 0.98372 0.27627 0.62914 0.0
C1021 C 0.96341 0.23817 0.59469 0.0
C1022 C 0.96472 0.26533 0.6522 0.0
C1023 C 0.94427 0.24158 0.64633 0.0
H1024 H 0.67871 0.90301 0.6278 0.0
H1025 H 0.7442 0.97641 0.63262 0.0
H1026 H 0.78127 0.94556 0.60507 0.0
H1027 H 0.7923 0.90018 0.57516 0.0
H1028 H 0.72537 0.82793 0.56873 0.0
H1029 H 0.69129 0.85618 0.60173 0.0
C1030 C 0.70121 0.91221 0.62306 0.0
C1031 C 0.70868 0.94204 0.63167 0.0
C1032 C 0.72185 0.89473 0.60682 0.0
C1033 C 0.73804 0.95349 0.62608 0.0
C1034 C 0.75906 0.93596 0.61019 0.0
C1035 C 0.77038 0.8904 0.58116 0.0
C1036 C 0.76117 0.86213 0.56917 0.0
C1037 C 0.75079 0.90692 0.59972 0.0
C1038 C 0.73287 0.84971 0.57747 0.0
C1039 C 0.71339 0.86585 0.59629 0.0
H1040 H 0.41767 0.11132 0.17969 0.0
H1041 H 0.48917 0.12908 0.24535 0.0
H1042 H 0.4627 0.09672 0.28221 0.0
H1043 H 0.42067 0.0615 0.29432 0.0
H1044 H 0.35008 0.04365 0.2275 0.0
H1045 H 0.37528 0.07797 0.19216 0.0
C1046 C 0.42752 0.10833 0.20212 0.0
C1047 C 0.45547 0.12246 0.20974 0.0
C1048 C 0.41252 0.08952 0.22276 0.0
C1049 C 0.46762 0.11858 0.23901 0.0
C1050 C 0.4526 0.09993 0.25994 0.0
C1051 C 0.41068 0.06514 0.27206 0.0
C1052 C 0.38348 0.04988 0.26354 0.0
C1053 C 0.42528 0.08494 0.25184 0.0
C1054 C 0.37095 0.05498 0.23463 0.0
C1055 C 0.38531 0.07464 0.21444 0.0
H1056 H 0.89745 0.34707 0.3077 0.0
H1057 H 0.92179 0.2739 0.24782 0.0
H1058 H 0.88911 0.29479 0.20806 0.0
H1059 H 0.86098 0.33783 0.18793 0.0
H1060 H 0.83981 0.41341 0.24613 0.0
H1061 H 0.86363 0.38746 0.2891 0.0
C1062 C 0.89475 0.3352 0.28629 0.0
C1063 C 0.91201 0.30909 0.28055 0.0
C1064 C 0.87702 0.3481 0.26308 0.0
C1065 C 0.90873 0.2941 0.25262 0.0
C1066 C 0.89024 0.30614 0.22985 0.0
C1067 C 0.86113 0.34848 0.21011 0.0
C1068 C 0.84914 0.37772 0.21372 0.0
C1069 C 0.87547 0.33382 0.2344 0.0
C1070 C 0.84905 0.39096 0.24271 0.0
C1071 C 0.86278 0.37619 0.26726 0.0
H1072 H 0.64952 0.92348 0.30519 0.0
H1073 H 0.66059 -0.00041 0.24476 0.0
H1074 H 0.64629 0.96745 0.20158 0.0
H1075 H 0.624 0.91995 0.18263 0.0
H1076 H 0.61051 0.8448 0.24397 0.0
H1077 H 0.63291 0.87443 0.28528 0.0
C1078 C 0.64918 0.93299 0.28251 0.0
C1079 C 0.65555 0.96396 0.27815 0.0
C1080 C 0.64036 0.91464 0.25808 0.0
C1081 C 0.65563 0.97583 0.24864 0.0
C1082 C 0.64731 0.95752 0.22403 0.0
C1083 C 0.62645 0.90978 0.20488 0.0
C1084 C 0.61512 0.88032 0.21029 0.0
C1085 C 0.63861 0.92719 0.22869 0.0
C1086 C 0.61875 0.86749 0.23922 0.0
C1087 C 0.63145 0.88446 0.26289 0.0
H1088 H 0.02956 0.61879 0.26326 0.0
H1089 H 0.99266 0.53282 0.29211 0.0
H1090 H 0.02936 0.50602 0.26052 0.0
H1091 H 0.07354 0.50718 0.22681 0.0
H1092 H 0.11148 0.5932 0.19903 0.0
H1093 H 0.07323 0.61992 0.22863 0.0
C1094 C 0.0292 0.59424 0.26196 0.0
C1095 C 0.00846 0.57768 0.27949 0.0
C1096 C 0.05104 0.57904 0.2447 0.0
C1097 C 0.00845 0.54587 0.27842 0.0
C1098 C 0.02955 0.53059 0.26067 0.0
C1099 C 0.07371 0.53176 0.22767 0.0
C1100 C 0.09548 0.54822 0.21122 0.0
C1101 C 0.0514 0.54695 0.24429 0.0
C1102 C 0.09503 0.58007 0.21182 0.0
C1103 C 0.07306 0.59536 0.22852 0.0
H1104 H 0.39135 0.86746 0.80797 0.0
H1105 H 0.42509 0.79507 0.75185 0.0
H1106 H 0.39288 0.81175 0.70989 0.0
H1107 H 0.36091 0.85073 0.68711 0.0
H1108 H 0.32887 0.92491 0.74199 0.0
H1109 H 0.35419 0.90346 0.78646 0.0
C1110 C 0.39097 0.85489 0.78681 0.0
C1111 C 0.41071 0.83024 0.78291 0.0
C1112 C 0.373 0.86516 0.7624 0.0
C1113 C 0.41026 0.8143 0.75529 0.0
C1114 C 0.39192 0.82386 0.73125 0.0
C1115 C 0.35898 0.86198 0.70888 0.0
C1116 C 0.34334 0.88958 0.71105 0.0
C1117 C 0.37411 0.84991 0.7342 0.0
C1118 C 0.34087 0.90367 0.73957 0.0
C1119 C 0.35547 0.89149 0.76504 0.0
H1120 H 0.12431 0.42956 0.67155 0.0
H1121 H 0.10742 0.35624 0.73425 0.0
H1122 H 0.12865 0.38653 0.7756 0.0
H1123 H 0.14721 0.43526 0.79474 0.0
H1124 H 0.16327 0.50909 0.73257 0.0
H1125 H 0.14741 0.4769 0.69007 0.0
C1126 C 0.12566 0.42 0.69417 0.0
C1127 C 0.11398 0.39077 0.69982 0.0
C1128 C 0.13752 0.43767 0.71795 0.0
C1129 C 0.11609 0.37871 0.72925 0.0
C1130 C 0.12814 0.39605 0.75296 0.0
C1131 C 0.14752 0.44426 0.77186 0.0
C1132 C 0.15603 0.47459 0.76682 0.0
C1133 C 0.13814 0.4258 0.74769 0.0
C1134 C 0.15676 0.48579 0.73702 0.0
C1135 C 0.14758 0.46746 0.71275 0.0
H1136 H 0.58398 0.08645 0.70273 0.0
H1137 H 0.60512 0.01427 0.76544 0.0
H1138 H 0.56098 0.02825 0.79618 0.0
H1139 H 0.51754 0.06155 0.80534 0.0
H1140 H 0.49698 0.13366 0.74227 0.0
H1141 H 0.53949 0.11797 0.71051 0.0
C1142 C 0.57926 0.07384 0.72329 0.0
C1143 C 0.59817 0.04964 0.73213 0.0
C1144 C 0.5537 0.08153 0.74027 0.0
C1145 C 0.5912 0.03325 0.75845 0.0
C1146 C 0.56586 0.04107 0.77582 0.0
C1147 C 0.52214 0.07378 0.78452 0.0
C1148 C 0.50434 0.09907 0.77638 0.0
C1149 C 0.54704 0.06519 0.76689 0.0
C1150 C 0.51036 0.11424 0.74911 0.0
C1151 C 0.53482 0.10546 0.73112 0.0
H1152 H 0.9014 0.64589 0.70903 0.0
H1153 H 0.97846 0.64716 0.77009 0.0
H1154 H 0.95015 0.61566 0.80628 0.0
H1155 H 0.90833 0.57884 0.8143 0.0
H1156 H 0.83753 0.56908 0.74656 0.0
H1157 H 0.85849 0.61222 0.71848 0.0
C1158 C 0.91133 0.64032 0.73095 0.0
C1159 C 0.94162 0.64877 0.73728 0.0
C1160 C 0.89644 0.61954 0.74956 0.0
C1161 C 0.95489 0.64121 0.76522 0.0
C1162 C 0.93897 0.62265 0.78545 0.0
C1163 C 0.89745 0.58655 0.79354 0.0
C1164 C 0.87185 0.57097 0.78201 0.0
C1165 C 0.91058 0.61017 0.77687 0.0
C1166 C 0.85763 0.58069 0.75527 0.0
C1167 C 0.86944 0.60539 0.73948 0.0
H1168 H 0.23205 0.44298 0.14 0.0
H1169 H 0.15893 0.38502 0.10769 0.0
H1170 H 0.19541 0.35287 0.08191 0.0
H1171 H 0.24711 0.34562 0.06248 0.0
H1172 H 0.31994 0.40437 0.09427 0.0
H1173 H 0.28462 0.43136 0.1264 0.0
C1174 C 0.2242 0.42293 0.12792 0.0
C1175 C 0.19292 0.41679 0.12518 0.0
C1176 C 0.24519 0.4048 0.11262 0.0
C1177 C 0.183 0.39059 0.10963 0.0
C1178 C 0.20379 0.37217 0.09481 0.0
C1179 C 0.25531 0.36397 0.07682 0.0
C1180 C 0.28589 0.37329 0.07542 0.0
C1181 C 0.23482 0.37978 0.09512 0.0
C1182 C 0.29632 0.39694 0.09445 0.0
C1183 C 0.27617 0.41249 0.11293 0.0
H1184 H 0.26737 0.67639 0.94957 0.0
H1185 H 0.24054 0.60456 0.01002 0.0
H1186 H 0.21196 0.57969 0.96909 0.0
H1187 H 0.20216 0.5744 0.91458 0.0
H1188 H 0.22909 0.64556 0.85344 0.0
H1189 H 0.2513 0.67451 0.89593 0.0
C1190 C 0.25394 0.65612 0.95398 0.0
C1191 C 0.25548 0.64239 0.98259 0.0
C1192 C 0.23915 0.64117 0.92994 0.0
C1193 C 0.23894 0.61567 0.98817 0.0
C1194 C 0.22326 0.60116 0.96466 0.0
C1195 C 0.21302 0.59623 0.91073 0.0
C1196 C 0.21523 0.60763 0.88122 0.0
C1197 C 0.22464 0.6129 0.9352 0.0
C1198 C 0.22824 0.63622 0.87613 0.0
C1199 C 0.24047 0.65282 0.90036 0.0
H1200 H 0.39713 0.23341 0.8415 0.0
H1201 H 0.33542 0.16947 0.88277 0.0
H1202 H 0.31128 0.21016 0.91124 0.0
H1203 H 0.3153 0.26162 0.93201 0.0
H1204 H 0.38021 0.32447 0.8935 0.0
H1205 H 0.3953 0.28683 0.85631 0.0
C1206 C 0.3776 0.22872 0.8558 0.0
C1207 C 0.36811 0.19877 0.86039 0.0
C1208 C 0.36493 0.25194 0.87324 0.0
C1209 C 0.34308 0.19259 0.8792 0.0
C1210 C 0.32947 0.21575 0.89564 0.0
C1211 C 0.33216 0.26725 0.91498 0.0
C1212 C 0.34713 0.29539 0.91595 0.0
C1213 C 0.34139 0.24521 0.89412 0.0
C1214 C 0.36885 0.30259 0.89366 0.0
C1215 C 0.37747 0.28113 0.87229 0.0
H1216 H 0.81497 0.38131 0.84898 0.0
H1217 H 0.75419 0.4357 0.79437 0.0
H1218 H 0.71134 0.40316 0.80815 0.0
H1219 H 0.69012 0.36498 0.84199 0.0
H1220 H 0.75019 0.31285 0.89957 0.0
H1221 H 0.79441 0.33834 0.87769 0.0
C1222 C 0.7925 0.38563 0.83951 0.0
C1223 C 0.78768 0.41118 0.82112 0.0
C1224 C 0.76776 0.3674 0.84826 0.0
C1225 C 0.75843 0.41641 0.80894 0.0
C1226 C 0.73389 0.39785 0.81684 0.0
C1227 C 0.71288 0.35865 0.84933 0.0
C1228 C 0.71677 0.33748 0.87282 0.0
C1229 C 0.7381 0.37412 0.83749 0.0
C1230 C 0.74649 0.32934 0.88176 0.0
C1231 C 0.77182 0.34402 0.86938 0.0
H1232 H 0.62423 0.68357 0.88992 0.0
H1233 H 0.65004 0.74954 0.9575 0.0
H1234 H 0.62525 0.78966 0.92766 0.0
H1235 H 0.58801 0.80309 0.88741 0.0
H1236 H 0.55711 0.73428 0.82461 0.0
H1237 H 0.59232 0.69789 0.84716 0.0
C1238 C 0.62515 0.70697 0.89755 0.0
C1239 C 0.63857 0.71392 0.92564 0.0
C1240 C 0.6095 0.7291 0.88132 0.0
C1241 C 0.63988 0.74401 0.9357 0.0
C1242 C 0.62542 0.76673 0.91885 0.0
C1243 C 0.58971 0.78032 0.87831 0.0
C1244 C 0.57011 0.77103 0.85468 0.0
C1245 C 0.6089 0.75918 0.89239 0.0
C1246 C 0.57195 0.74157 0.84302 0.0
C1247 C 0.59201 0.72087 0.85587 0.0
H1248 H 0.80117 0.54034 0.097 0.0
H1249 H 0.73223 0.46987 0.10022 0.0
H1250 H 0.69842 0.50092 0.06873 0.0
H1251 H 0.68854 0.54786 0.04147 0.0
H1252 H 0.7569 0.61892 0.03917 0.0
H1253 H 0.79156 0.58704 0.06891 0.0
C1254 C 0.7787 0.53166 0.09098 0.0
C1255 C 0.76908 0.50286 0.10122 0.0
C1256 C 0.75959 0.54952 0.07293 0.0
C1257 C 0.74002 0.49204 0.09294 0.0
C1258 C 0.72081 0.50971 0.07484 0.0
C1259 C 0.71103 0.55656 0.0474 0.0
C1260 C 0.72004 0.58597 0.03836 0.0
C1261 C 0.73039 0.53846 0.06487 0.0
C1262 C 0.74941 0.59648 0.04588 0.0
C1263 C 0.7691 0.57832 0.063 0.0
H1264 H 0.43772 0.81064 0.12612 0.0
H1265 H 0.50049 0.74223 0.15703 0.0
H1266 H 0.46407 0.70241 0.14172 0.0
H1267 H 0.4172 0.68782 0.11455 0.0
H1268 H 0.35507 0.7568 0.08309 0.0
H1269 H 0.38854 0.79612 0.10415 0.0
C1270 C 0.44328 0.78697 0.12969 0.0
C1271 C 0.47174 0.77902 0.14198 0.0
C1272 C 0.42253 0.7646 0.12074 0.0
C1273 C 0.47863 0.74856 0.14737 0.0
C1274 C 0.45795 0.72595 0.13853 0.0
C1275 C 0.41084 0.71146 0.11258 0.0
C1276 C 0.38406 0.71958 0.0969 0.0
C1277 C 0.43026 0.73379 0.1244 0.0
C1278 C 0.37568 0.75013 0.09498 0.0
C1279 C 0.39483 0.77255 0.10686 0.0
H1280 H 0.53297 0.21793 0.06673 0.0
H1281 H 0.58218 0.26333 0.13863 0.0
H1282 H 0.61336 0.29022 0.10133 0.0
H1283 H 0.63072 0.29527 0.04933 0.0
H1284 H 0.58457 0.24719 0.9769 0.0
H1285 H 0.54835 0.22597 0.01352 0.0
C1286 C 0.5499 0.23447 0.07403 0.0
C1287 C 0.55514 0.23923 0.10516 0.0
C1288 C 0.56901 0.24809 0.05256 0.0
C1289 C 0.57738 0.26012 0.1147 0.0
C1290 C 0.59557 0.27489 0.09343 0.0
C1291 C 0.61285 0.27994 0.04148 0.0
C1292 C 0.6106 0.2723 0.01055 0.0
C1293 C 0.59239 0.26799 0.06249 0.0
C1294 C 0.58725 0.25265 0.00072 0.0
C1295 C 0.5664 0.24083 0.02159 0.0
H1296 H 0.89729 0.67656 0.60214 0.0
H1297 H 0.91915 0.75043 0.66276 0.0
H1298 H 0.88191 0.78253 0.63697 0.0
H1299 H 0.84852 0.79129 0.59417 0.0
H1300 H 0.83058 0.72034 0.52887 0.0
H1301 H 0.86043 0.68485 0.55994 0.0
C1302 C 0.89326 0.6995 0.60996 0.0
C1303 C 0.9106 0.71136 0.63422 0.0
C1304 C 0.87285 0.7182 0.5941 0.0
C1305 C 0.9059 0.74111 0.64408 0.0
C1306 C 0.88473 0.75937 0.62934 0.0
C1307 C 0.85084 0.76798 0.58671 0.0
C1308 C 0.83783 0.75854 0.559 0.0
C1309 C 0.8689 0.74843 0.6038 0.0
C1310 C 0.84049 0.72813 0.55008 0.0
C1311 C 0.85772 0.70797 0.56772 0.0
H1312 H 0.29789 0.87664 0.55607 0.0
H1313 H 0.23222 0.89313 0.6268 0.0
H1314 H 0.19127 0.87485 0.59374 0.0
H1315 H 0.1735 0.8593 0.54361 0.0
H1316 H 0.23776 0.84386 0.47182 0.0
H1317 H 0.28024 0.85623 0.50671 0.0
C1318 C 0.27469 0.8758 0.56447 0.0
C1319 C 0.26814 0.88652 0.59388 0.0
C1320 C 0.25111 0.86566 0.54513 0.0
C1321 C 0.23794 0.88519 0.60431 0.0
C1322 C 0.21448 0.87481 0.58539 0.0
C1323 C 0.19689 0.85833 0.5357 0.0
C1324 C 0.20271 0.85114 0.50524 0.0
C1325 C 0.22074 0.86581 0.5556 0.0
C1326 C 0.23293 0.84939 0.49523 0.0
C1327 C 0.25706 0.85664 0.51511 0.0
H1328 H 0.14309 0.30985 0.59274 0.0
H1329 H 0.0863 0.24795 0.64355 0.0
H1330 H 0.11005 0.20503 0.61853 0.0
H1331 H 0.14125 0.18573 0.57725 0.0
H1332 H 0.19589 0.24782 0.52446 0.0
H1333 H 0.179 0.28997 0.55572 0.0
C1334 C 0.13626 0.28698 0.59877 0.0
C1335 C 0.11259 0.28215 0.61955 0.0
C1336 C 0.14946 0.26242 0.5838 0.0
C1337 C 0.10423 0.25234 0.62732 0.0
C1338 C 0.11775 0.22774 0.61299 0.0
C1339 C 0.15 0.20837 0.57297 0.0
C1340 C 0.16936 0.21371 0.54829 0.0
C1341 C 0.13954 0.2326 0.59042 0.0
C1342 C 0.18064 0.24316 0.54313 0.0
C1343 C 0.17093 0.26731 0.56092 0.0
H1344 H 0.77479 0.1458 0.60165 0.0
H1345 H 0.83851 0.07569 0.62618 0.0
H1346 H 0.79847 0.04909 0.6542 0.0
H1347 H 0.74338 0.04212 0.66497 0.0
H1348 H 0.68009 0.11138 0.63712 0.0
H1349 H 0.72189 0.14206 0.61749 0.0
C1350 C 0.78011 0.12498 0.61358 0.0
C1351 C 0.80944 0.11256 0.6115 0.0
C1352 C 0.7569 0.10949 0.62887 0.0
C1353 C 0.81606 0.08575 0.6274 0.0
C1354 C 0.79311 0.0704 0.64325 0.0
C1355 C 0.739 0.06429 0.65534 0.0
C1356 C 0.70881 0.07443 0.6522 0.0
C1357 C 0.76315 0.0815 0.64319 0.0
C1358 C 0.7032 0.10304 0.63945 0.0
C1359 C 0.72705 0.12057 0.62818 0.0
H1360 H 0.88181 0.16985 0.42886 0.0
H1361 H 0.90619 0.22732 0.50481 0.0
H1362 H 0.94325 0.25403 0.47351 0.0
H1363 H 0.96653 0.2627 0.42455 0.0
H1364 H 0.9397 0.20867 0.34704 0.0
H1365 H 0.9068 0.17764 0.37962 0.0
C1366 C 0.89505 0.18838 0.43854 0.0
C1367 C 0.89089 0.1969 0.46905 0.0
C1368 C 0.91627 0.20368 0.42039 0.0
C1369 C 0.90856 0.22064 0.48131 0.0
C1370 C 0.92996 0.23571 0.46352 0.0
C1371 C 0.95374 0.24392 0.41471 0.0
C1372 C 0.95517 0.23823 0.38333 0.0
C1373 C 0.93377 0.22754 0.43306 0.0
C1374 C 0.939 0.21347 0.37111 0.0
C1375 C 0.91987 0.19608 0.38965 0.0
H1376 H 0.68245 0.92425 0.37126 0.0
H1377 H 0.73164 -0.00837 0.42311 0.0
H1378 H 0.75187 0.95203 0.45665 0.0
H1379 H 0.7557 0.89824 0.47035 0.0
H1380 H 0.71025 0.83059 0.4156 0.0
H1381 H 0.68654 0.87041 0.38482 0.0
C1382 C 0.69823 0.92999 0.38952 0.0
C1383 C 0.70653 0.96034 0.39444 0.0
C1384 C 0.70919 0.90729 0.4087 0.0
C1385 C 0.72602 0.96811 0.41854 0.0
C1386 C 0.73704 0.94561 0.43791 0.0
C1387 C 0.74 0.89239 0.4521 0.0
C1388 C 0.73398 0.86183 0.44543 0.0
C1389 C 0.72855 0.91519 0.4333 0.0
C1390 C 0.71426 0.85413 0.42149 0.0
C1391 C 0.70134 0.87681 0.40359 0.0
H1392 H 0.98409 0.7228 0.35123 0.0
H1393 H 0.05964 0.66084 0.34543 0.0
H1394 H 0.09489 0.70054 0.36183 0.0
H1395 H 0.10387 0.75166 0.38212 0.0
H1396 H 0.02814 0.81344 0.38877 0.0
H1397 H -0.00622 0.77527 0.36774 0.0
C1398 C 0.00833 0.71818 0.35302 0.0
C1399 C 0.01909 0.68884 0.34732 0.0
C1400 C 0.02859 0.74106 0.36298 0.0
C1401 C 0.05062 0.68318 0.34992 0.0
C1402 C 0.07087 0.70587 0.35937 0.0
C1403 C 0.07995 0.7569 0.37864 0.0
C1404 C 0.06876 0.78537 0.38725 0.0
C1405 C 0.06004 0.7347 0.36669 0.0
C1406 C 0.03757 0.79171 0.38249 0.0
C1407 C 0.01775 0.76985 0.37046 0.0
H1408 H 0.18817 0.09168 0.38454 0.0
H1409 H 0.25843 0.15816 0.40307 0.0
H1410 H 0.29364 0.13132 0.36998 0.0
H1411 H 0.3064 0.08572 0.3426 0.0
H1412 H 0.23885 0.01529 0.32879 0.0
H1413 H 0.20012 0.04718 0.3526 0.0
C1414 C 0.21098 0.10049 0.38059 0.0
C1415 C 0.22105 0.12659 0.39595 0.0
C1416 C 0.23147 0.08412 0.36274 0.0
C1417 C 0.25058 0.13794 0.39135 0.0
C1418 C 0.2706 0.12261 0.37256 0.0
C1419 C 0.28311 0.0774 0.34443 0.0
C1420 C 0.27556 0.04802 0.33458 0.0
C1421 C 0.26163 0.09513 0.35919 0.0
C1422 C 0.24519 0.03782 0.33643 0.0
C1423 C 0.22315 0.05594 0.3502 0.0
H1424 H 0.5841 0.85033 0.78462 0.0
H1425 H 0.50444 0.8466 0.72697 0.0
H1426 H 0.53007 0.87898 0.68964 0.0
H1427 H 0.57104 0.91525 0.67877 0.0
H1428 H 0.64841 0.92313 0.73975 0.0
H1429 H 0.62764 0.88225 0.77085 0.0
C1430 C 0.57298 0.85564 0.76321 0.0
C1431 C 0.54274 0.84609 0.75811 0.0
C1432 C 0.58702 0.87578 0.74318 0.0
C1433 C 0.52798 0.85333 0.73084 0.0
C1434 C 0.54243 0.87229 0.70991 0.0
C1435 C 0.58358 0.90792 0.69871 0.0
C1436 C 0.61098 0.92267 0.70729 0.0
C1437 C 0.57126 0.88486 0.71671 0.0
C1438 C 0.62707 0.9125 0.73292 0.0
C1439 C 0.61529 0.88905 0.75061 0.0
H1440 H 0.09896 0.63385 0.67246 0.0
H1441 H 0.06075 0.69675 0.73673 0.0
H1442 H 0.09898 0.68212 0.77432 0.0
H1443 H 0.13389 0.64323 0.79206 0.0
H1444 H 0.16695 0.57551 0.73034 0.0
H1445 H 0.14104 0.60089 0.688 0.0
C1446 C 0.09954 0.64497 0.69441 0.0
C1447 C 0.07665 0.6657 0.70225 0.0
C1448 C 0.12058 0.63539 0.71628 0.0
C1449 C 0.07777 0.6802 0.73055 0.0
C1450 C 0.0996 0.67187 0.75199 0.0
C1451 C 0.13624 0.63479 0.76906 0.0
C1452 C 0.15155 0.60752 0.76398 0.0
C1453 C 0.11977 0.64824 0.74563 0.0
C1454 C 0.15509 0.59658 0.73443 0.0
C1455 C 0.13995 0.61083 0.71044 0.0
H1456 H 0.37969 0.11393 0.74671 0.0
H1457 H 0.3587 0.05884 0.82465 0.0
H1458 H 0.33487 0.0206 0.79196 0.0
H1459 H 0.3268 -0.00027 0.7404 0.0
H1460 H 0.34954 0.05489 0.66308 0.0
H1461 H 0.36529 0.09643 0.69622 0.0
C1462 C 0.36947 0.09377 0.75653 0.0
C1463 C 0.3713 0.08892 0.78781 0.0
C1464 C 0.35617 0.07184 0.73767 0.0
C1465 C 0.35758 0.06298 0.80047 0.0
C1466 C 0.34409 0.04104 0.78182 0.0
C1467 C 0.33441 0.0212 0.73105 0.0
C1468 C 0.33745 0.02444 0.69967 0.0
C1469 C 0.34416 0.04476 0.75028 0.0
C1470 C 0.34742 0.0521 0.68739 0.0
C1471 C 0.3565 0.07575 0.70625 0.0
H1472 H 0.94068 0.43628 0.79112 0.0
H1473 H 0.86853 0.44248 0.72404 0.0
H1474 H 0.90054 0.4161 0.6874 0.0
H1475 H 0.94733 0.38905 0.67584 0.0
H1476 H 0.01887 0.38164 0.7434 0.0
H1477 H 0.98811 0.41074 0.77902 0.0
C1478 C 0.93183 0.43194 0.76848 0.0
C1479 C 0.90207 0.4409 0.76039 0.0
C1480 C 0.94997 0.41633 0.74794 0.0
C1481 C 0.89128 0.43563 0.73082 0.0
C1482 C 0.90948 0.42045 0.70998 0.0
C1483 C 0.95624 0.3936 0.69841 0.0
C1484 C 0.98514 0.38279 0.70721 0.0
C1485 C 0.93856 0.41023 0.71856 0.0
C1486 C -0.00348 0.38938 0.7363 0.0
C1487 C 0.97904 0.40609 0.75655 0.0
H1488 H 0.61738 0.13088 0.18383 0.0
H1489 H 0.55959 0.18552 0.24063 0.0
H1490 H 0.58843 0.16954 0.28537 0.0
H1491 H 0.62239 0.13235 0.30842 0.0
H1492 H 0.67655 0.07397 0.25207 0.0
H1493 H 0.6574 0.09982 0.20669 0.0
C1494 C 0.61138 0.1397 0.20595 0.0
C1495 C 0.58585 0.1586 0.20917 0.0
C1496 C 0.62733 0.12965 0.23149 0.0
C1497 C 0.57888 0.17058 0.23773 0.0
C1498 C 0.59527 0.16138 0.26327 0.0
C1499 C 0.63055 0.12585 0.28617 0.0
C1500 C 0.65015 0.10098 0.28323 0.0
C1501 C 0.6184 0.13975 0.26046 0.0
C1502 C 0.66129 0.09301 0.25464 0.0
C1503 C 0.65009 0.10754 0.22879 0.0
H1504 H 0.88927 0.60184 0.25133 0.0
H1505 H 0.86593 0.54638 0.32829 0.0
H1506 H 0.84089 0.50945 0.29486 0.0
H1507 H 0.83222 0.48972 0.24284 0.0
H1508 H 0.85719 0.54553 0.16662 0.0
H1509 H 0.8744 0.58576 0.20055 0.0
C1510 C 0.87824 0.58191 0.26077 0.0
C1511 C 0.87973 0.57654 0.29198 0.0
C1512 C 0.86425 0.56077 0.24151 0.0
C1513 C 0.86503 0.55092 0.30416 0.0
C1514 C 0.85087 0.52972 0.28509 0.0
C1515 C 0.84068 0.51105 0.23389 0.0
C1516 C 0.84396 0.51471 0.20255 0.0
C1517 C 0.85123 0.53392 0.2536 0.0
C1518 C 0.85496 0.54227 0.19086 0.0
C1519 C 0.86485 0.56522 0.21017 0.0
H1520 H 0.44593 0.8402 0.21746 0.0
H1521 H 0.51389 0.90831 0.23793 0.0
H1522 H 0.47472 0.94031 0.26103 0.0
H1523 H 0.42014 0.95033 0.27079 0.0
H1524 H 0.3527 0.88204 0.24902 0.0
H1525 H 0.39254 0.84887 0.22933 0.0
C1526 C 0.45223 0.86161 0.22803 0.0
C1527 C 0.4825 0.87194 0.22654 0.0
C1528 C 0.42952 0.88028 0.23943 0.0
C1529 C 0.49073 0.89975 0.23971 0.0
C1530 C 0.46825 0.91827 0.25214 0.0
C1531 C 0.41432 0.92847 0.26097 0.0
C1532 C 0.38375 0.91878 0.26 0.0
C1533 C 0.43743 0.9092 0.251 0.0
C1534 C 0.37614 0.89007 0.2487 0.0
C1535 C 0.39888 0.871 0.23811 0.0
H1536 H 0.11141 0.3873 0.18574 0.0
H1537 H 0.04008 0.45404 0.18354 0.0
H1538 H 0.00526 0.41891 0.20902 0.0
H1539 H -0.00187 0.37226 0.23807 0.0
H1540 H 0.06949 0.30568 0.24146 0.0
H1541 H 0.10102 0.33689 0.20792 0.0
C1542 C 0.08824 0.39394 0.19103 0.0
C1543 C 0.07828 0.42319 0.18393 0.0
C1544 C 0.06836 0.37349 0.20516 0.0
C1545 C 0.04807 0.43164 0.18958 0.0
C1546 C 0.02822 0.41157 0.20387 0.0
C1547 C 0.02006 0.3641 0.23029 0.0
C1548 C 0.03174 0.33705 0.24205 0.0
C1549 C 0.03841 0.38276 0.21241 0.0
C1550 C 0.06008 0.32639 0.23222 0.0
C1551 C 0.07832 0.34453 0.21367 0.0
H1552 H 0.67771 0.57564 0.89556 0.0
H1553 H 0.74044 0.64954 0.91245 0.0
H1554 H 0.77794 0.62653 0.879 0.0
H1555 H 0.79592 0.58153 0.85303 0.0
H1556 H 0.73632 0.50453 0.84056 0.0
H1557 H 0.69406 0.5325 0.86378 0.0
C1558 C 0.6993 0.58692 0.89108 0.0
C1559 C 0.70672 0.61395 0.90623 0.0
C1560 C 0.72121 0.57282 0.87299 0.0
C1561 C 0.73467 0.62854 0.90092 0.0
C1562 C 0.75602 0.61541 0.88194 0.0
C1563 C 0.77334 0.57136 0.85465 0.0
C1564 C 0.76879 0.54137 0.84542 0.0
C1565 C 0.75002 0.58699 0.86902 0.0
C1566 C 0.73986 0.52786 0.84752 0.0
C1567 C 0.71595 0.54372 0.86097 0.0
H1568 H 0.6866 0.34789 0.0394 0.0
H1569 H 0.75914 0.3147 0.98312 0.0
H1570 H 0.79635 0.3257 0.02377 0.0
H1571 H 0.80825 0.3516 0.07162 0.0
H1572 H 0.73546 0.38793 0.12609 0.0
H1573 H 0.69785 0.36802 0.08992 0.0
C1574 C 0.71057 0.3427 0.03628 0.0
C1575 C 0.72055 0.33115 0.00838 0.0
C1576 C 0.73151 0.34968 0.05926 0.0
C1577 C 0.75128 0.3238 0.00448 0.0
C1578 C 0.7724 0.33022 0.0276 0.0
C1579 C 0.78412 0.35477 0.07592 0.0
C1580 C 0.77463 0.37177 0.10122 0.0
C1581 C 0.76282 0.34421 0.05457 0.0
C1582 C 0.74333 0.37513 0.10673 0.0
C1583 C 0.72187 0.36395 0.08596 0.0
H1584 H 0.6339 0.80012 0.09915 0.0
H1585 H 0.57502 0.74207 0.15211 0.0
H1586 H 0.59649 0.69752 0.12814 0.0
H1587 H 0.62727 0.67541 0.08792 0.0
H1588 H 0.6849 0.73338 0.0337 0.0
H1589 H 0.66902 0.77739 0.06282 0.0
C1590 C 0.62606 0.77773 0.10576 0.0
C1591 C 0.60258 0.77455 0.12702 0.0
C1592 C 0.6382 0.75209 0.09161 0.0
C1593 C 0.59288 0.74529 0.13554 0.0
C1594 C 0.60512 0.71971 0.12185 0.0
C1595 C 0.6369 0.69755 0.08293 0.0
C1596 C 0.65688 0.70116 0.05848 0.0
C1597 C 0.62713 0.72289 0.09924 0.0
C1598 C 0.66917 0.73003 0.05226 0.0
C1599 C 0.66004 0.75526 0.06881 0.0
H1600 H 0.30836 0.5958 0.1209 0.0
H1601 H 0.24676 0.6701 0.10474 0.0
H1602 H 0.20548 0.6419 0.12885 0.0
H1603 H 0.18501 0.59315 0.14501 0.0
H1604 H 0.24454 0.51673 0.15661 0.0
H1605 H 0.28892 0.54882 0.14452 0.0
C1606 C 0.28613 0.60613 0.12354 0.0
C1607 C 0.28039 0.6348 0.11082 0.0
C1608 C 0.26218 0.58924 0.13627 0.0
C1609 C 0.25152 0.64792 0.11411 0.0
C1610 C 0.22793 0.63179 0.1278 0.0
C1611 C 0.20788 0.58383 0.14572 0.0
C1612 C 0.21181 0.55281 0.15131 0.0
C1613 C 0.23269 0.60197 0.13754 0.0
C1614 C 0.24126 0.54068 0.15244 0.0
C1615 C 0.26646 0.55894 0.14521 0.0
H1616 H 0.35643 0.28235 0.09299 0.0
H1617 H 0.36521 0.24303 0.00401 0.0
H1618 H 0.39835 0.20342 0.02495 0.0
H1619 H 0.43069 0.18527 0.06725 0.0
H1620 H 0.42401 0.22807 0.15509 0.0
H1621 H 0.38434 0.26137 0.13576 0.0
C1622 C 0.36504 0.26468 0.07827 0.0
C1623 C 0.35871 0.26566 0.04702 0.0
C1624 C 0.38501 0.24312 0.09017 0.0
C1625 C 0.36965 0.24255 0.0282 0.0
C1626 C 0.38894 0.22023 0.04011 0.0
C1627 C 0.4203 0.20162 0.08226 0.0
C1628 C 0.43066 0.20445 0.11249 0.0
C1629 C 0.39777 0.22113 0.07084 0.0
C1630 C 0.41683 0.22568 0.13165 0.0
C1631 C 0.39404 0.24467 0.12066 0.0
H1632 H 0.18927 0.46241 0.91389 0.0
H1633 H 0.25886 0.48474 0.84843 0.0
H1634 H 0.29369 0.44937 0.87289 0.0
H1635 H 0.30408 0.41193 0.91166 0.0
H1636 H 0.2354 0.38875 0.97766 0.0
H1637 H 0.20022 0.42484 0.95382 0.0
C1638 C 0.21209 0.45965 0.90498 0.0
C1639 C 0.22137 0.47619 0.87919 0.0
C1640 C 0.23198 0.43907 0.91904 0.0
C1641 C 0.25105 0.47231 0.8681 0.0
C1642 C 0.27097 0.45204 0.88205 0.0
C1643 C 0.28138 0.41451 0.92094 0.0
C1644 C 0.27232 0.39738 0.94634 0.0
C1645 C 0.26157 0.4352 0.90731 0.0
C1646 C 0.24287 0.40141 0.95801 0.0
C1647 C 0.22284 0.4221 0.94444 0.0
H1648 H 0.55766 0.29817 0.87969 0.0
H1649 H 0.6319 0.23443 0.87442 0.0
H1650 H 0.59768 0.19704 0.85133 0.0
H1651 H 0.54655 0.18117 0.83656 0.0
H1652 H 0.4709 0.24276 0.8446 0.0
H1653 H 0.50618 0.28283 0.86192 0.0
C1654 C 0.56647 0.27622 0.87317 0.0
C1655 C 0.59736 0.26905 0.87892 0.0
C1656 C 0.54649 0.25459 0.86035 0.0
C1657 C 0.60828 0.24047 0.87047 0.0
C1658 C 0.58873 0.21911 0.8572 0.0
C1659 C 0.53766 0.20345 0.84178 0.0
C1660 C 0.50606 0.20892 0.83955 0.0
C1661 C 0.55776 0.22576 0.85262 0.0
C1662 C 0.49511 0.23802 0.846 0.0
C1663 C 0.51524 0.26078 0.85618 0.0
H1664 H 0.43954 0.78883 0.93015 0.0
H1665 H 0.42671 0.72845 0.85389 0.0
H1666 H 0.3905 0.69817 0.88375 0.0
H1667 H 0.36104 0.69074 0.93076 0.0
H1668 H 0.37275 0.75389 0.00502 0.0
H1669 H 0.41025 0.7822 0.97578 0.0
C1670 C 0.42896 0.76903 0.91981 0.0
C1671 C 0.43569 0.76105 0.88964 0.0
C1672 C 0.40747 0.75277 0.93647 0.0
C1673 C 0.42202 0.73503 0.87705 0.0
C1674 C 0.4011 0.71797 0.894 0.0
C1675 C 0.37152 0.71091 0.94043 0.0
C1676 C 0.3639 0.72034 0.97001 0.0
C1677 C 0.39325 0.72703 0.92353 0.0
C1678 C 0.37789 0.74635 0.98225 0.0
C1679 C 0.39956 0.76236 0.96567 0.0
loop_
_geom_bond_atom_site_label_1
_geom_bond_atom_site_label_2
_geom_bond_distance
_geom_bond_site_symmetry_2
_ccdc_geom_bond_type
Fe0 O2 1.918 . S
Fe0 O5 2.023 . S
Fe0 O6 1.977 1_455 S
Fe0 O11 1.950 1_455 S
Fe0 O14 2.022 . S
Fe1 O2 1.898 1_655 S
Fe1 O9 1.997 . S
Fe1 O12 1.996 . S
Fe1 O16 1.976 . S
Fe1 O19 2.002 . S
O2 Fe0 1.918 . S
O2 Fe1 1.898 1_455 S
O2 Fe3 1.939 . S
Fe3 O2 1.939 . S
Fe3 O4 2.002 . S
Fe3 O13 1.976 . S
Fe3 O17 1.996 . S
Fe3 O20 1.997 . S
O4 Fe3 2.002 . S
O4 C21 1.295 . S
O5 Fe0 2.023 . S
O5 C21 1.235 . S
O6 Fe0 1.977 1_655 S
O6 C7 1.295 . S
C7 O6 1.295 . S
C7 O9 1.235 . S
C8 O13 1.287 . S
C8 O14 1.255 . S
O9 Fe1 1.997 . S
O9 C7 1.235 . S
C10 O16 1.287 1_455 S
C10 O17 1.255 . S
O11 Fe0 1.950 1_655 S
O11 C18 1.287 . S
O12 Fe1 1.996 . S
O12 C18 1.255 . S
O13 Fe3 1.976 . S
O13 C8 1.287 . S
O14 Fe0 2.022 . S
O14 C8 1.255 . S
C15 O19 1.299 . S
C15 O20 1.231 1_655 S
O16 Fe1 1.976 . S
O16 C10 1.287 1_655 S
O17 Fe3 1.996 . S
O17 C10 1.255 . S
C18 O11 1.287 . S
C18 O12 1.255 . S
O19 Fe1 2.002 . S
O19 C15 1.299 . S
O20 Fe3 1.997 . S
O20 C15 1.231 1_455 S
C21 O4 1.295 . S
C21 O5 1.235 . S
Fe22 O24 1.939 . S
Fe22 O27 1.997 . S
Fe22 O28 2.002 . S
Fe22 O33 1.976 . S
Fe22 O36 1.996 . S
Fe23 O24 1.898 1_565 S
Fe23 O31 1.997 . S
Fe23 O34 1.996 . S
Fe23 O38 1.976 . S
Fe23 O41 2.002 . S
O24 Fe22 1.939 . S
O24 Fe23 1.898 1_545 S
O24 Fe25 1.918 . S
Fe25 O24 1.918 . S
Fe25 O26 2.010 . S
Fe25 O35 1.984 . S
Fe25 O39 1.987 1_545 S
Fe25 O42 1.988 1_545 S
O26 Fe25 2.010 . S
O26 C43 1.295 . S
O27 Fe22 1.997 . S
O27 C43 1.235 . S
O28 Fe22 2.002 . S
O28 C29 1.295 . S
C29 O28 1.295 . S
C29 O31 1.235 1_545 S
C30 O35 1.287 . S
C30 O36 1.255 . S
O31 Fe23 1.997 . S
O31 C29 1.235 1_565 S
C32 O38 1.287 . S
C32 O39 1.255 . S
O33 Fe22 1.976 . S
O33 C40 1.280 1_545 S
O34 Fe23 1.996 . S
O34 C40 1.262 . S
O35 Fe25 1.984 . S
O35 C30 1.287 . S
O36 Fe22 1.996 . S
O36 C30 1.255 . S
C37 O41 1.295 . S
C37 O42 1.235 . S
O38 Fe23 1.976 . S
O38 C32 1.287 . S
O39 Fe25 1.987 1_565 S
O39 C32 1.255 . S
C40 O33 1.280 1_565 S
C40 O34 1.262 . S
O41 Fe23 2.002 . S
O41 C37 1.295 . S
O42 Fe25 1.988 1_565 S
O42 C37 1.235 . S
C43 O26 1.295 . S
C43 O27 1.235 . S
Fe44 O46 1.918 1_655 S
Fe44 O49 1.997 . S
Fe44 O50 2.002 . S
Fe44 O55 1.976 . S
Fe44 O58 1.996 . S
Fe45 O46 1.918 1_655 S
Fe45 O53 2.000 . S
Fe45 O56 1.999 . S
Fe45 O60 1.972 1_655 S
Fe45 O63 1.999 1_655 S
O46 Fe44 1.918 1_455 S
O46 Fe45 1.918 1_455 S
O46 Fe47 1.918 . S
Fe47 O46 1.918 . S
Fe47 O48 2.002 . S
Fe47 O57 1.976 . S
Fe47 O61 1.996 . S
Fe47 O64 1.997 . S
O48 Fe47 2.002 . S
O48 C65 1.328 . S
O49 Fe44 1.997 . S
O49 C65 1.203 1_655 S
O50 Fe44 2.002 . S
O50 C51 1.295 . S
C51 O50 1.295 . S
C51 O53 1.235 . S
C52 O57 1.260 1_655 S
C52 O58 1.281 . S
O53 Fe45 2.000 . S
O53 C51 1.235 . S
C54 O60 1.287 . S
C54 O61 1.255 . S
O55 Fe44 1.976 . S
O55 C62 1.287 . S
O56 Fe45 1.999 . S
O56 C62 1.255 . S
O57 Fe47 1.976 . S
O57 C52 1.260 1_455 S
O58 Fe44 1.996 . S
O58 C52 1.281 . S
C59 O63 1.295 . S
C59 O64 1.235 . S
O60 Fe45 1.972 1_455 S
O60 C54 1.287 . S
O61 Fe47 1.996 . S
O61 C54 1.255 . S
C62 O55 1.287 . S
C62 O56 1.255 . S
O63 Fe45 1.999 1_455 S
O63 C59 1.295 . S
O64 Fe47 1.997 . S
O64 C59 1.235 . S
C65 O48 1.328 . S
C65 O49 1.203 1_455 S
Fe66 O68 1.918 . S
Fe66 O71 1.997 . S
Fe66 O72 2.002 . S
Fe66 O77 1.976 . S
Fe66 O80 1.996 . S
Fe67 O68 1.918 . S
Fe67 O75 2.005 . S
Fe67 O78 2.004 . S
Fe67 O82 1.967 1_545 S
Fe67 O85 1.994 1_545 S
O68 Fe66 1.918 . S
O68 Fe67 1.918 . S
O68 Fe69 1.918 1_545 S
Fe69 O68 1.918 1_565 S
Fe69 O70 2.002 . S
Fe69 O79 1.976 . S
Fe69 O83 1.996 . S
Fe69 O86 1.997 . S
O70 Fe69 2.002 . S
O70 C87 1.319 . S
O71 Fe66 1.997 . S
O71 C87 1.212 1_545 S
O72 Fe66 2.002 . S
O72 C73 1.295 . S
C73 O72 1.295 . S
C73 O75 1.235 . S
C74 O79 1.287 1_545 S
C74 O80 1.255 . S
O75 Fe67 2.005 . S
O75 C73 1.235 . S
C76 O82 1.287 . S
C76 O83 1.255 . S
O77 Fe66 1.976 . S
O77 C84 1.287 . S
O78 Fe67 2.004 . S
O78 C84 1.255 . S
O79 Fe69 1.976 . S
O79 C74 1.287 1_565 S
O80 Fe66 1.996 . S
O80 C74 1.255 . S
C81 O85 1.295 . S
C81 O86 1.235 . S
O82 Fe67 1.967 1_565 S
O82 C76 1.287 . S
O83 Fe69 1.996 . S
O83 C76 1.255 . S
C84 O77 1.287 . S
C84 O78 1.255 . S
O85 Fe67 1.994 1_565 S
O85 C81 1.295 . S
O86 Fe69 1.997 . S
O86 C81 1.235 . S
C87 O70 1.319 . S
C87 O71 1.212 1_565 S
Fe88 O90 1.918 . S
Fe88 O93 1.997 . S
Fe88 O94 2.002 . S
Fe88 O99 1.976 . S
Fe88 O102 1.996 . S
Fe89 O90 1.918 1_655 S
Fe89 O97 1.997 . S
Fe89 O100 1.996 . S
Fe89 O104 1.976 . S
Fe89 O107 2.002 . S
O90 Fe88 1.918 . S
O90 Fe89 1.918 1_455 S
O90 Fe91 1.918 1_455 S
Fe91 O90 1.918 1_655 S
Fe91 O92 1.999 1_655 S
Fe91 O101 1.972 1_655 S
Fe91 O105 1.999 . S
Fe91 O108 2.000 . S
O92 Fe91 1.999 1_455 S
O92 C109 1.295 . S
O93 Fe88 1.997 . S
O93 C109 1.235 . S
O94 Fe88 2.002 . S
O94 C95 1.327 . S
C95 O94 1.327 . S
C95 O97 1.204 1_455 S
C96 O101 1.287 . S
C96 O102 1.255 . S
O97 Fe89 1.997 . S
O97 C95 1.204 1_655 S
C98 O104 1.287 . S
C98 O105 1.255 . S
O99 Fe88 1.976 . S
O99 C106 1.262 1_455 S
O100 Fe89 1.996 . S
O100 C106 1.280 . S
O101 Fe91 1.972 1_455 S
O101 C96 1.287 . S
O102 Fe88 1.996 . S
O102 C96 1.255 . S
C103 O107 1.295 . S
C103 O108 1.235 . S
O104 Fe89 1.976 . S
O104 C98 1.287 . S
O105 Fe91 1.999 . S
O105 C98 1.255 . S
C106 O99 1.262 1_655 S
C106 O100 1.280 . S
O107 Fe89 2.002 . S
O107 C103 1.295 . S
O108 Fe91 2.000 . S
O108 C103 1.235 . S
C109 O92 1.295 . S
C109 O93 1.235 . S
Fe110 O112 1.918 1_565 S
Fe110 O115 1.997 . S
Fe110 O116 2.002 . S
Fe110 O121 1.976 . S
Fe110 O124 1.996 . S
Fe111 O112 1.918 . S
Fe111 O119 1.997 . S
Fe111 O122 1.996 . S
Fe111 O126 1.976 . S
Fe111 O129 2.002 . S
O112 Fe110 1.918 1_545 S
O112 Fe111 1.918 . S
O112 Fe113 1.918 . S
Fe113 O112 1.918 . S
Fe113 O114 1.994 1_545 S
Fe113 O123 1.967 1_545 S
Fe113 O127 2.004 . S
Fe113 O130 2.005 . S
O114 Fe113 1.994 1_565 S
O114 C131 1.295 . S
O115 Fe110 1.997 . S
O115 C131 1.235 . S
O116 Fe110 2.002 . S
O116 C117 1.318 . S
C117 O116 1.318 . S
C117 O119 1.213 1_565 S
C118 O123 1.287 . S
C118 O124 1.255 . S
O119 Fe111 1.997 . S
O119 C117 1.213 1_545 S
C120 O126 1.287 . S
C120 O127 1.255 . S
O121 Fe110 1.976 . S
O121 C128 1.253 1_565 S
O122 Fe111 1.996 . S
O122 C128 1.290 . S
O123 Fe113 1.967 1_565 S
O123 C118 1.287 . S
O124 Fe110 1.996 . S
O124 C118 1.255 . S
C125 O129 1.295 . S
C125 O130 1.235 . S
O126 Fe111 1.976 . S
O126 C120 1.287 . S
O127 Fe113 2.004 . S
O127 C120 1.255 . S
C128 O121 1.253 1_545 S
C128 O122 1.290 . S
O129 Fe111 2.002 . S
O129 C125 1.295 . S
O130 Fe113 2.005 . S
O130 C125 1.235 . S
C131 O114 1.295 . S
C131 O115 1.235 . S
Fe132 O134 1.939 . S
Fe132 O137 1.997 . S
Fe132 O138 2.002 . S
Fe132 O143 1.976 . S
Fe132 O146 1.996 . S
Fe133 O134 1.918 . S
Fe133 O141 2.023 . S
Fe133 O144 2.022 . S
Fe133 O148 1.950 1_455 S
Fe133 O151 1.977 1_455 S
O134 Fe132 1.939 . S
O134 Fe133 1.918 . S
O134 Fe135 1.897 1_455 S
Fe135 O134 1.897 1_655 S
Fe135 O136 2.002 . S
Fe135 O145 1.976 . S
Fe135 O149 1.996 . S
Fe135 O152 1.997 . S
O136 Fe135 2.002 . S
O136 C153 1.298 . S
O137 Fe132 1.997 . S
O137 C153 1.233 1_455 S
O138 Fe132 2.002 . S
O138 C139 1.295 . S
C139 O138 1.295 . S
C139 O141 1.235 . S
C140 O145 1.287 1_455 S
C140 O146 1.255 . S
O141 Fe133 2.023 . S
O141 C139 1.235 . S
C142 O148 1.287 . S
C142 O149 1.255 . S
O143 Fe132 1.976 . S
O143 C150 1.287 . S
O144 Fe133 2.022 . S
O144 C150 1.255 . S
O145 Fe135 1.976 . S
O145 C140 1.287 1_655 S
O146 Fe132 1.996 . S
O146 C140 1.255 . S
C147 O151 1.295 . S
C147 O152 1.235 . S
O148 Fe133 1.950 1_655 S
O148 C142 1.287 . S
O149 Fe135 1.996 . S
O149 C142 1.255 . S
C150 O143 1.287 . S
C150 O144 1.255 . S
O151 Fe133 1.977 1_655 S
O151 C147 1.295 . S
O152 Fe135 1.997 . S
O152 C147 1.235 . S
C153 O136 1.298 . S
C153 O137 1.233 1_655 S
Fe154 O156 1.898 1_565 S
Fe154 O159 1.997 . S
Fe154 O160 2.002 . S
Fe154 O165 1.976 . S
Fe154 O168 1.996 . S
Fe155 O156 1.918 . S
Fe155 O163 1.988 1_545 S
Fe155 O166 1.988 1_545 S
Fe155 O170 1.984 . S
Fe155 O173 2.010 . S
O156 Fe154 1.898 1_545 S
O156 Fe155 1.918 . S
O156 Fe157 1.939 . S
Fe157 O156 1.939 . S
Fe157 O158 2.002 . S
Fe157 O167 1.976 . S
Fe157 O171 1.996 . S
Fe157 O174 1.997 . S
O158 Fe157 2.002 . S
O158 C175 1.295 . S
O159 Fe154 1.997 . S
O159 C175 1.235 1_565 S
O160 Fe154 2.002 . S
O160 C161 1.295 . S
C161 O160 1.295 . S
C161 O163 1.235 . S
C162 O167 1.281 1_565 S
C162 O168 1.260 . S
O163 Fe155 1.988 1_565 S
O163 C161 1.235 . S
C164 O170 1.287 . S
C164 O171 1.255 . S
O165 Fe154 1.976 . S
O165 C172 1.287 . S
O166 Fe155 1.988 1_565 S
O166 C172 1.255 . S
O167 Fe157 1.976 . S
O167 C162 1.281 1_545 S
O168 Fe154 1.996 . S
O168 C162 1.260 . S
C169 O173 1.295 . S
C169 O174 1.235 . S
O170 Fe155 1.984 . S
O170 C164 1.287 . S
O171 Fe157 1.996 . S
O171 C164 1.255 . S
C172 O165 1.287 . S
C172 O166 1.255 . S
O173 Fe155 2.010 . S
O173 C169 1.295 . S
O174 Fe157 1.997 . S
O174 C169 1.235 . S
C175 O158 1.295 . S
C175 O159 1.235 1_545 S
Fe176 O178 1.918 1_556 S
Fe176 O181 2.000 . S
Fe176 O182 1.999 1_556 S
Fe176 O187 1.973 1_556 S
Fe176 O190 1.999 . S
Fe177 O178 1.918 . S
Fe177 O185 1.997 . S
Fe177 O188 1.996 . S
Fe177 O192 1.976 . S
Fe177 O195 2.002 . S
O178 Fe176 1.918 1_554 S
O178 Fe177 1.918 . S
O178 Fe179 1.918 1_554 S
Fe179 O178 1.918 1_556 S
Fe179 O180 2.002 . S
Fe179 O189 1.976 . S
Fe179 O193 1.996 . S
Fe179 O196 1.997 . S
O180 Fe179 2.002 . S
O180 C197 1.295 . S
O181 Fe176 2.000 . S
O181 C197 1.235 . S
O182 Fe176 1.999 1_554 S
O182 C183 1.295 . S
C183 O182 1.295 . S
C183 O185 1.235 . S
C184 O189 1.287 . S
C184 O190 1.255 . S
O185 Fe177 1.997 . S
O185 C183 1.235 . S
C186 O192 1.258 1_556 S
C186 O193 1.283 . S
O187 Fe176 1.973 1_554 S
O187 C194 1.287 . S
O188 Fe177 1.996 . S
O188 C194 1.255 . S
O189 Fe179 1.976 . S
O189 C184 1.287 . S
O190 Fe176 1.999 . S
O190 C184 1.255 . S
C191 O195 1.329 . S
C191 O196 1.203 1_554 S
O192 Fe177 1.976 . S
O192 C186 1.258 1_554 S
O193 Fe179 1.996 . S
O193 C186 1.283 . S
C194 O187 1.287 . S
C194 O188 1.255 . S
O195 Fe177 2.002 . S
O195 C191 1.329 . S
O196 Fe179 1.997 . S
O196 C191 1.203 1_556 S
C197 O180 1.295 . S
C197 O181 1.235 . S
Fe198 O200 1.918 1_556 S
Fe198 O203 1.999 . S
Fe198 O204 2.000 1_556 S
Fe198 O209 1.973 1_556 S
Fe198 O212 1.999 . S
Fe199 O200 1.918 . S
Fe199 O207 1.997 . S
Fe199 O210 1.996 . S
Fe199 O214 1.976 . S
Fe199 O217 2.002 . S
O200 Fe198 1.918 1_554 S
O200 Fe199 1.918 . S
O200 Fe201 1.918 1_554 S
Fe201 O200 1.918 1_556 S
Fe201 O202 2.002 . S
Fe201 O211 1.976 . S
Fe201 O215 1.996 . S
Fe201 O218 1.997 . S
O202 Fe201 2.002 . S
O202 C219 1.295 . S
O203 Fe198 1.999 . S
O203 C219 1.235 . S
O204 Fe198 2.000 1_554 S
O204 C205 1.295 . S
C205 O204 1.295 . S
C205 O207 1.235 . S
C206 O211 1.287 . S
C206 O212 1.255 . S
O207 Fe199 1.997 . S
O207 C205 1.235 . S
C208 O214 1.262 1_556 S
C208 O215 1.280 . S
O209 Fe198 1.973 1_554 S
O209 C216 1.287 . S
O210 Fe199 1.996 . S
O210 C216 1.255 . S
O211 Fe201 1.976 . S
O211 C206 1.287 . S
O212 Fe198 1.999 . S
O212 C206 1.255 . S
C213 O217 1.325 . S
C213 O218 1.206 1_554 S
O214 Fe199 1.976 . S
O214 C208 1.262 1_554 S
O215 Fe201 1.996 . S
O215 C208 1.280 . S
C216 O209 1.287 . S
C216 O210 1.255 . S
O217 Fe199 2.002 . S
O217 C213 1.325 . S
O218 Fe201 1.997 . S
O218 C213 1.206 1_556 S
C219 O202 1.295 . S
C219 O203 1.235 . S
Fe220 O222 1.918 . S
Fe220 O225 1.997 . S
Fe220 O226 2.002 . S
Fe220 O231 1.976 . S
Fe220 O234 1.996 . S
Fe221 O222 1.918 1_556 S
Fe221 O229 1.997 . S
Fe221 O232 1.996 . S
Fe221 O236 1.976 . S
Fe221 O239 2.002 . S
O222 Fe220 1.918 . S
O222 Fe221 1.918 1_554 S
O222 Fe223 1.918 1_554 S
Fe223 O222 1.918 1_556 S
Fe223 O224 2.000 1_556 S
Fe223 O233 1.973 1_556 S
Fe223 O237 1.999 . S
Fe223 O240 1.999 . S
O224 Fe223 2.000 1_554 S
O224 C241 1.295 . S
O225 Fe220 1.997 . S
O225 C241 1.235 . S
O226 Fe220 2.002 . S
O226 C227 1.325 . S
C227 O226 1.325 . S
C227 O229 1.206 1_554 S
C228 O233 1.287 . S
C228 O234 1.255 . S
O229 Fe221 1.997 . S
O229 C227 1.206 1_556 S
C230 O236 1.287 . S
C230 O237 1.255 . S
O231 Fe220 1.976 . S
O231 C238 1.262 1_554 S
O232 Fe221 1.996 . S
O232 C238 1.280 . S
O233 Fe223 1.973 1_554 S
O233 C228 1.287 . S
O234 Fe220 1.996 . S
O234 C228 1.255 . S
C235 O239 1.295 . S
C235 O240 1.235 . S
O236 Fe221 1.976 . S
O236 C230 1.287 . S
O237 Fe223 1.999 . S
O237 C230 1.255 . S
C238 O231 1.262 1_556 S
C238 O232 1.280 . S
O239 Fe221 2.002 . S
O239 C235 1.295 . S
O240 Fe223 1.999 . S
O240 C235 1.235 . S
C241 O224 1.295 . S
C241 O225 1.235 . S
Fe242 O244 1.918 1_556 S
Fe242 O247 1.997 . S
Fe242 O248 2.002 . S
Fe242 O253 1.976 . S
Fe242 O256 1.996 . S
Fe243 O244 1.918 1_556 S
Fe243 O251 2.000 . S
Fe243 O254 1.999 . S
Fe243 O258 1.973 1_556 S
Fe243 O261 1.999 1_556 S
O244 Fe242 1.918 1_554 S
O244 Fe243 1.918 1_554 S
O244 Fe245 1.918 . S
Fe245 O244 1.918 . S
Fe245 O246 2.002 . S
Fe245 O255 1.976 . S
Fe245 O259 1.996 . S
Fe245 O262 1.997 . S
O246 Fe245 2.002 . S
O246 C263 1.329 . S
O247 Fe242 1.997 . S
O247 C263 1.203 1_556 S
O248 Fe242 2.002 . S
O248 C249 1.295 . S
C249 O248 1.295 . S
C249 O251 1.235 . S
C250 O255 1.258 1_556 S
C250 O256 1.283 . S
O251 Fe243 2.000 . S
O251 C249 1.235 . S
C252 O258 1.287 . S
C252 O259 1.255 . S
O253 Fe242 1.976 . S
O253 C260 1.287 . S
O254 Fe243 1.999 . S
O254 C260 1.255 . S
O255 Fe245 1.976 . S
O255 C250 1.258 1_554 S
O256 Fe242 1.996 . S
O256 C250 1.283 . S
C257 O261 1.295 . S
C257 O262 1.235 . S
O258 Fe243 1.973 1_554 S
O258 C252 1.287 . S
O259 Fe245 1.996 . S
O259 C252 1.255 . S
C260 O253 1.287 . S
C260 O254 1.255 . S
O261 Fe243 1.999 1_554 S
O261 C257 1.295 . S
O262 Fe245 1.997 . S
O262 C257 1.235 . S
C263 O246 1.329 . S
C263 O247 1.203 1_554 S
Fe264 O266 1.918 . S
Fe264 O269 1.997 . S
Fe264 O270 2.002 . S
Fe264 O275 1.976 . S
Fe264 O278 1.996 . S
Fe265 O266 1.918 . S
Fe265 O273 1.997 . S
Fe265 O276 1.996 . S
Fe265 O280 1.976 . S
Fe265 O283 2.002 . S
O266 Fe264 1.918 . S
O266 Fe265 1.918 . S
O266 Fe267 1.918 . S
Fe267 O266 1.918 . S
Fe267 O268 2.002 . S
Fe267 O277 1.976 . S
Fe267 O281 1.996 . S
Fe267 O284 1.997 . S
O268 Fe267 2.002 . S
O268 C285 1.295 . S
O269 Fe264 1.997 . S
O269 C285 1.235 . S
O270 Fe264 2.002 . S
O270 C271 1.295 . S
C271 O270 1.295 . S
C271 O273 1.235 . S
C272 O277 1.287 . S
C272 O278 1.255 . S
O273 Fe265 1.997 . S
O273 C271 1.235 . S
C274 O280 1.287 . S
C274 O281 1.255 . S
O275 Fe264 1.976 . S
O275 C282 1.287 . S
O276 Fe265 1.996 . S
O276 C282 1.255 . S
O277 Fe267 1.976 . S
O277 C272 1.287 . S
O278 Fe264 1.996 . S
O278 C272 1.255 . S
C279 O283 1.295 . S
C279 O284 1.235 . S
O280 Fe265 1.976 . S
O280 C274 1.287 . S
O281 Fe267 1.996 . S
O281 C274 1.255 . S
C282 O275 1.287 . S
C282 O276 1.255 . S
O283 Fe265 2.002 . S
O283 C279 1.295 . S
O284 Fe267 1.997 . S
O284 C279 1.235 . S
C285 O268 1.295 . S
C285 O269 1.235 . S
Fe286 O288 1.918 . S
Fe286 O291 1.997 . S
Fe286 O292 2.002 . S
Fe286 O297 1.976 . S
Fe286 O300 1.996 . S
Fe287 O288 1.918 . S
Fe287 O295 1.997 . S
Fe287 O298 1.996 . S
Fe287 O302 1.976 . S
Fe287 O305 2.002 . S
O288 Fe286 1.918 . S
O288 Fe287 1.918 . S
O288 Fe289 1.918 . S
Fe289 O288 1.918 . S
Fe289 O290 2.002 . S
Fe289 O299 1.976 . S
Fe289 O303 1.996 . S
Fe289 O306 1.997 . S
O290 Fe289 2.002 . S
O290 C307 1.295 . S
O291 Fe286 1.997 . S
O291 C307 1.235 . S
O292 Fe286 2.002 . S
O292 C293 1.295 . S
C293 O292 1.295 . S
C293 O295 1.235 . S
C294 O299 1.287 . S
C294 O300 1.255 . S
O295 Fe287 1.997 . S
O295 C293 1.235 . S
C296 O302 1.287 . S
C296 O303 1.255 . S
O297 Fe286 1.976 . S
O297 C304 1.287 . S
O298 Fe287 1.996 . S
O298 C304 1.255 . S
O299 Fe289 1.976 . S
O299 C294 1.287 . S
O300 Fe286 1.996 . S
O300 C294 1.255 . S
C301 O305 1.295 . S
C301 O306 1.235 . S
O302 Fe287 1.976 . S
O302 C296 1.287 . S
O303 Fe289 1.996 . S
O303 C296 1.255 . S
C304 O297 1.287 . S
C304 O298 1.255 . S
O305 Fe287 2.002 . S
O305 C301 1.295 . S
O306 Fe289 1.997 . S
O306 C301 1.235 . S
C307 O290 1.295 . S
C307 O291 1.235 . S
Fe308 O310 1.918 . S
Fe308 O313 1.997 . S
Fe308 O314 2.002 . S
Fe308 O319 1.976 . S
Fe308 O322 1.996 . S
Fe309 O310 1.918 . S
Fe309 O317 1.997 . S
Fe309 O320 1.996 . S
Fe309 O324 1.976 . S
Fe309 O327 2.002 . S
O310 Fe308 1.918 . S
O310 Fe309 1.918 . S
O310 Fe311 1.918 . S
Fe311 O310 1.918 . S
Fe311 O312 2.002 . S
Fe311 O321 1.976 . S
Fe311 O325 1.996 . S
Fe311 O328 1.997 . S
O312 Fe311 2.002 . S
O312 C329 1.295 . S
O313 Fe308 1.997 . S
O313 C329 1.235 . S
O314 Fe308 2.002 . S
O314 C315 1.295 . S
C315 O314 1.295 . S
C315 O317 1.235 . S
C316 O321 1.287 . S
C316 O322 1.255 . S
O317 Fe309 1.997 . S
O317 C315 1.235 . S
C318 O324 1.287 . S
C318 O325 1.255 . S
O319 Fe308 1.976 . S
O319 C326 1.287 . S
O320 Fe309 1.996 . S
O320 C326 1.255 . S
O321 Fe311 1.976 . S
O321 C316 1.287 . S
O322 Fe308 1.996 . S
O322 C316 1.255 . S
C323 O327 1.295 . S
C323 O328 1.235 . S
O324 Fe309 1.976 . S
O324 C318 1.287 . S
O325 Fe311 1.996 . S
O325 C318 1.255 . S
C326 O319 1.287 . S
C326 O320 1.255 . S
O327 Fe309 2.002 . S
O327 C323 1.295 . S
O328 Fe311 1.997 . S
O328 C323 1.235 . S
C329 O312 1.295 . S
C329 O313 1.235 . S
Fe330 O332 1.918 . S
Fe330 O335 1.997 . S
Fe330 O336 2.002 . S
Fe330 O341 1.976 . S
Fe330 O344 1.996 . S
Fe331 O332 1.918 . S
Fe331 O339 1.997 . S
Fe331 O342 1.996 . S
Fe331 O346 1.976 . S
Fe331 O349 2.002 . S
O332 Fe330 1.918 . S
O332 Fe331 1.918 . S
O332 Fe333 1.918 . S
Fe333 O332 1.918 . S
Fe333 O334 2.002 . S
Fe333 O343 1.976 . S
Fe333 O347 1.996 . S
Fe333 O350 1.997 . S
O334 Fe333 2.002 . S
O334 C351 1.295 . S
O335 Fe330 1.997 . S
O335 C351 1.235 . S
O336 Fe330 2.002 . S
O336 C337 1.295 . S
C337 O336 1.295 . S
C337 O339 1.235 . S
C338 O343 1.287 . S
C338 O344 1.255 . S
O339 Fe331 1.997 . S
O339 C337 1.235 . S
C340 O346 1.287 . S
C340 O347 1.255 . S
O341 Fe330 1.976 . S
O341 C348 1.287 . S
O342 Fe331 1.996 . S
O342 C348 1.255 . S
O343 Fe333 1.976 . S
O343 C338 1.287 . S
O344 Fe330 1.996 . S
O344 C338 1.255 . S
C345 O349 1.295 . S
C345 O350 1.235 . S
O346 Fe331 1.976 . S
O346 C340 1.287 . S
O347 Fe333 1.996 . S
O347 C340 1.255 . S
C348 O341 1.287 . S
C348 O342 1.255 . S
O349 Fe331 2.002 . S
O349 C345 1.295 . S
O350 Fe333 1.997 . S
O350 C345 1.235 . S
C351 O334 1.295 . S
C351 O335 1.235 . S
Fe352 O354 1.918 . S
Fe352 O357 1.997 . S
Fe352 O358 2.002 . S
Fe352 O363 1.976 . S
Fe352 O366 1.996 . S
Fe353 O354 1.918 . S
Fe353 O361 1.997 . S
Fe353 O364 1.996 . S
Fe353 O368 1.976 . S
Fe353 O371 2.002 . S
O354 Fe352 1.918 . S
O354 Fe353 1.918 . S
O354 Fe355 1.918 . S
Fe355 O354 1.918 . S
Fe355 O356 2.002 . S
Fe355 O365 1.976 . S
Fe355 O369 1.996 . S
Fe355 O372 1.997 . S
O356 Fe355 2.002 . S
O356 C373 1.295 . S
O357 Fe352 1.997 . S
O357 C373 1.235 . S
O358 Fe352 2.002 . S
O358 C359 1.295 . S
C359 O358 1.295 . S
C359 O361 1.235 . S
C360 O365 1.287 . S
C360 O366 1.255 . S
O361 Fe353 1.997 . S
O361 C359 1.235 . S
C362 O368 1.287 . S
C362 O369 1.255 . S
O363 Fe352 1.976 . S
O363 C370 1.287 . S
O364 Fe353 1.996 . S
O364 C370 1.255 . S
O365 Fe355 1.976 . S
O365 C360 1.287 . S
O366 Fe352 1.996 . S
O366 C360 1.255 . S
C367 O371 1.295 . S
C367 O372 1.235 . S
O368 Fe353 1.976 . S
O368 C362 1.287 . S
O369 Fe355 1.996 . S
O369 C362 1.255 . S
C370 O363 1.287 . S
C370 O364 1.255 . S
O371 Fe353 2.002 . S
O371 C367 1.295 . S
O372 Fe355 1.997 . S
O372 C367 1.235 . S
C373 O356 1.295 . S
C373 O357 1.235 . S
Fe374 O376 1.918 . S
Fe374 O379 1.997 . S
Fe374 O380 2.002 . S
Fe374 O385 1.976 . S
Fe374 O388 1.996 . S
Fe375 O376 1.918 . S
Fe375 O383 1.997 . S
Fe375 O386 1.996 . S
Fe375 O390 1.976 . S
Fe375 O393 2.002 . S
O376 Fe374 1.918 . S
O376 Fe375 1.918 . S
O376 Fe377 1.918 . S
Fe377 O376 1.918 . S
Fe377 O378 2.002 . S
Fe377 O387 1.976 . S
Fe377 O391 1.996 . S
Fe377 O394 1.997 . S
O378 Fe377 2.002 . S
O378 C395 1.295 . S
O379 Fe374 1.997 . S
O379 C395 1.235 . S
O380 Fe374 2.002 . S
O380 C381 1.295 . S
C381 O380 1.295 . S
C381 O383 1.235 . S
C382 O387 1.287 . S
C382 O388 1.255 . S
O383 Fe375 1.997 . S
O383 C381 1.235 . S
C384 O390 1.287 . S
C384 O391 1.255 . S
O385 Fe374 1.976 . S
O385 C392 1.287 . S
O386 Fe375 1.996 . S
O386 C392 1.255 . S
O387 Fe377 1.976 . S
O387 C382 1.287 . S
O388 Fe374 1.996 . S
O388 C382 1.255 . S
C389 O393 1.295 . S
C389 O394 1.235 . S
O390 Fe375 1.976 . S
O390 C384 1.287 . S
O391 Fe377 1.996 . S
O391 C384 1.255 . S
C392 O385 1.287 . S
C392 O386 1.255 . S
O393 Fe375 2.002 . S
O393 C389 1.295 . S
O394 Fe377 1.997 . S
O394 C389 1.235 . S
C395 O378 1.295 . S
C395 O379 1.235 . S
Fe396 O398 1.918 . S
Fe396 O401 1.997 . S
Fe396 O402 2.002 . S
Fe396 O407 1.976 . S
Fe396 O410 1.996 . S
Fe397 O398 1.918 . S
Fe397 O405 1.997 . S
Fe397 O408 1.996 . S
Fe397 O412 1.976 . S
Fe397 O415 2.002 . S
O398 Fe396 1.918 . S
O398 Fe397 1.918 . S
O398 Fe399 1.918 . S
Fe399 O398 1.918 . S
Fe399 O400 2.002 . S
Fe399 O409 1.976 . S
Fe399 O413 1.996 . S
Fe399 O416 1.997 . S
O400 Fe399 2.002 . S
O400 C417 1.295 . S
O401 Fe396 1.997 . S
O401 C417 1.235 . S
O402 Fe396 2.002 . S
O402 C403 1.295 . S
C403 O402 1.295 . S
C403 O405 1.235 . S
C404 O409 1.287 . S
C404 O410 1.255 . S
O405 Fe397 1.997 . S
O405 C403 1.235 . S
C406 O412 1.287 . S
C406 O413 1.255 . S
O407 Fe396 1.976 . S
O407 C414 1.287 . S
O408 Fe397 1.996 . S
O408 C414 1.255 . S
O409 Fe399 1.976 . S
O409 C404 1.287 . S
O410 Fe396 1.996 . S
O410 C404 1.255 . S
C411 O415 1.295 . S
C411 O416 1.235 . S
O412 Fe397 1.976 . S
O412 C406 1.287 . S
O413 Fe399 1.996 . S
O413 C406 1.255 . S
C414 O407 1.287 . S
C414 O408 1.255 . S
O415 Fe397 2.002 . S
O415 C411 1.295 . S
O416 Fe399 1.997 . S
O416 C411 1.235 . S
C417 O400 1.295 . S
C417 O401 1.235 . S
Fe418 O420 1.918 . S
Fe418 O423 1.997 . S
Fe418 O424 2.002 . S
Fe418 O429 1.976 . S
Fe418 O432 1.996 . S
Fe419 O420 1.918 . S
Fe419 O427 1.997 . S
Fe419 O430 1.996 . S
Fe419 O434 1.976 . S
Fe419 O437 2.002 . S
O420 Fe418 1.918 . S
O420 Fe419 1.918 . S
O420 Fe421 1.918 . S
Fe421 O420 1.918 . S
Fe421 O422 2.002 . S
Fe421 O431 1.976 . S
Fe421 O435 1.996 . S
Fe421 O438 1.997 . S
O422 Fe421 2.002 . S
O422 C439 1.295 . S
O423 Fe418 1.997 . S
O423 C439 1.235 . S
O424 Fe418 2.002 . S
O424 C425 1.295 . S
C425 O424 1.295 . S
C425 O427 1.235 . S
C426 O431 1.287 . S
C426 O432 1.255 . S
O427 Fe419 1.997 . S
O427 C425 1.235 . S
C428 O434 1.287 . S
C428 O435 1.255 . S
O429 Fe418 1.976 . S
O429 C436 1.287 . S
O430 Fe419 1.996 . S
O430 C436 1.255 . S
O431 Fe421 1.976 . S
O431 C426 1.287 . S
O432 Fe418 1.996 . S
O432 C426 1.255 . S
C433 O437 1.295 . S
C433 O438 1.235 . S
O434 Fe419 1.976 . S
O434 C428 1.287 . S
O435 Fe421 1.996 . S
O435 C428 1.255 . S
C436 O429 1.287 . S
C436 O430 1.255 . S
O437 Fe419 2.002 . S
O437 C433 1.295 . S
O438 Fe421 1.997 . S
O438 C433 1.235 . S
C439 O422 1.295 . S
C439 O423 1.235 . S
Fe440 O442 1.918 . S
Fe440 O445 1.997 . S
Fe440 O446 2.002 . S
Fe440 O451 1.976 . S
Fe440 O454 1.996 . S
Fe441 O442 1.918 . S
Fe441 O449 1.997 . S
Fe441 O452 1.996 . S
Fe441 O456 1.976 . S
Fe441 O459 2.002 . S
O442 Fe440 1.918 . S
O442 Fe441 1.918 . S
O442 Fe443 1.918 . S
Fe443 O442 1.918 . S
Fe443 O444 2.002 . S
Fe443 O453 1.976 . S
Fe443 O457 1.996 . S
Fe443 O460 1.997 . S
O444 Fe443 2.002 . S
O444 C461 1.295 . S
O445 Fe440 1.997 . S
O445 C461 1.235 . S
O446 Fe440 2.002 . S
O446 C447 1.295 . S
C447 O446 1.295 . S
C447 O449 1.235 . S
C448 O453 1.287 . S
C448 O454 1.255 . S
O449 Fe441 1.997 . S
O449 C447 1.235 . S
C450 O456 1.287 . S
C450 O457 1.255 . S
O451 Fe440 1.976 . S
O451 C458 1.287 . S
O452 Fe441 1.996 . S
O452 C458 1.255 . S
O453 Fe443 1.976 . S
O453 C448 1.287 . S
O454 Fe440 1.996 . S
O454 C448 1.255 . S
C455 O459 1.295 . S
C455 O460 1.235 . S
O456 Fe441 1.976 . S
O456 C450 1.287 . S
O457 Fe443 1.996 . S
O457 C450 1.255 . S
C458 O451 1.287 . S
C458 O452 1.255 . S
O459 Fe441 2.002 . S
O459 C455 1.295 . S
O460 Fe443 1.997 . S
O460 C455 1.235 . S
C461 O444 1.295 . S
C461 O445 1.235 . S
Fe462 O464 1.918 . S
Fe462 O467 1.997 . S
Fe462 O468 2.002 . S
Fe462 O473 1.976 . S
Fe462 O476 1.996 . S
Fe463 O464 1.918 . S
Fe463 O471 1.997 . S
Fe463 O474 1.996 . S
Fe463 O478 1.976 . S
Fe463 O481 2.002 . S
O464 Fe462 1.918 . S
O464 Fe463 1.918 . S
O464 Fe465 1.918 . S
Fe465 O464 1.918 . S
Fe465 O466 2.002 . S
Fe465 O475 1.976 . S
Fe465 O479 1.996 . S
Fe465 O482 1.997 . S
O466 Fe465 2.002 . S
O466 C483 1.295 . S
O467 Fe462 1.997 . S
O467 C483 1.235 . S
O468 Fe462 2.002 . S
O468 C469 1.295 . S
C469 O468 1.295 . S
C469 O471 1.235 . S
C470 O475 1.287 . S
C470 O476 1.255 . S
O471 Fe463 1.997 . S
O471 C469 1.235 . S
C472 O478 1.287 . S
C472 O479 1.255 . S
O473 Fe462 1.976 . S
O473 C480 1.287 . S
O474 Fe463 1.996 . S
O474 C480 1.255 . S
O475 Fe465 1.976 . S
O475 C470 1.287 . S
O476 Fe462 1.996 . S
O476 C470 1.255 . S
C477 O481 1.295 . S
C477 O482 1.235 . S
O478 Fe463 1.976 . S
O478 C472 1.287 . S
O479 Fe465 1.996 . S
O479 C472 1.255 . S
C480 O473 1.287 . S
C480 O474 1.255 . S
O481 Fe463 2.002 . S
O481 C477 1.295 . S
O482 Fe465 1.997 . S
O482 C477 1.235 . S
C483 O466 1.295 . S
C483 O467 1.235 . S
Fe484 O486 1.918 . S
Fe484 O489 1.997 . S
Fe484 O490 2.002 . S
Fe484 O495 1.976 . S
Fe484 O498 1.996 . S
Fe485 O486 1.918 . S
Fe485 O493 1.997 . S
Fe485 O496 1.996 . S
Fe485 O500 1.976 . S
Fe485 O503 2.002 . S
O486 Fe484 1.918 . S
O486 Fe485 1.918 . S
O486 Fe487 1.918 . S
Fe487 O486 1.918 . S
Fe487 O488 2.002 . S
Fe487 O497 1.976 . S
Fe487 O501 1.996 . S
Fe487 O504 1.997 . S
O488 Fe487 2.002 . S
O488 C505 1.295 . S
O489 Fe484 1.997 . S
O489 C505 1.235 . S
O490 Fe484 2.002 . S
O490 C491 1.295 . S
C491 O490 1.295 . S
C491 O493 1.235 . S
C492 O497 1.287 . S
C492 O498 1.255 . S
O493 Fe485 1.997 . S
O493 C491 1.235 . S
C494 O500 1.287 . S
C494 O501 1.255 . S
O495 Fe484 1.976 . S
O495 C502 1.287 . S
O496 Fe485 1.996 . S
O496 C502 1.255 . S
O497 Fe487 1.976 . S
O497 C492 1.287 . S
O498 Fe484 1.996 . S
O498 C492 1.255 . S
C499 O503 1.295 . S
C499 O504 1.235 . S
O500 Fe485 1.976 . S
O500 C494 1.287 . S
O501 Fe487 1.996 . S
O501 C494 1.255 . S
C502 O495 1.287 . S
C502 O496 1.255 . S
O503 Fe485 2.002 . S
O503 C499 1.295 . S
O504 Fe487 1.997 . S
O504 C499 1.235 . S
C505 O488 1.295 . S
C505 O489 1.235 . S
Fe506 O508 1.918 . S
Fe506 O511 1.997 . S
Fe506 O512 2.002 . S
Fe506 O517 1.976 . S
Fe506 O520 1.996 . S
Fe507 O508 1.918 . S
Fe507 O515 1.997 . S
Fe507 O518 1.996 . S
Fe507 O522 1.976 . S
Fe507 O525 2.002 . S
O508 Fe506 1.918 . S
O508 Fe507 1.918 . S
O508 Fe509 1.918 . S
Fe509 O508 1.918 . S
Fe509 O510 2.002 . S
Fe509 O519 1.976 . S
Fe509 O523 1.996 . S
Fe509 O526 1.997 . S
O510 Fe509 2.002 . S
O510 C527 1.295 . S
O511 Fe506 1.997 . S
O511 C527 1.235 . S
O512 Fe506 2.002 . S
O512 C513 1.295 . S
C513 O512 1.295 . S
C513 O515 1.235 . S
C514 O519 1.287 . S
C514 O520 1.255 . S
O515 Fe507 1.997 . S
O515 C513 1.235 . S
C516 O522 1.287 . S
C516 O523 1.255 . S
O517 Fe506 1.976 . S
O517 C524 1.287 . S
O518 Fe507 1.996 . S
O518 C524 1.255 . S
O519 Fe509 1.976 . S
O519 C514 1.287 . S
O520 Fe506 1.996 . S
O520 C514 1.255 . S
C521 O525 1.295 . S
C521 O526 1.235 . S
O522 Fe507 1.976 . S
O522 C516 1.287 . S
O523 Fe509 1.996 . S
O523 C516 1.255 . S
C524 O517 1.287 . S
C524 O518 1.255 . S
O525 Fe507 2.002 . S
O525 C521 1.295 . S
O526 Fe509 1.997 . S
O526 C521 1.235 . S
C527 O510 1.295 . S
C527 O511 1.235 . S
H528 C534 0.929 1_655 S
H529 C537 0.930 . S
H530 C538 0.930 . S
H531 C539 0.931 . S
H532 C542 0.930 . S
H533 C543 0.930 . S
C534 H528 0.929 1_455 S
C534 C535 1.356 . S
C534 C536 1.414 1_455 S
C535 C534 1.356 . S
C535 C537 1.419 . S
C536 C534 1.414 1_655 S
C536 C541 1.425 1_655 S
C536 C543 1.410 . S
C537 H529 0.930 . S
C537 C535 1.419 . S
C537 C538 1.362 . S
C538 H530 0.930 . S
C538 C537 1.362 . S
C538 C541 1.409 . S
C539 H531 0.931 . S
C539 C540 1.353 1_455 S
C539 C541 1.416 . S
C540 C539 1.353 1_655 S
C540 C542 1.421 . S
C541 C536 1.425 1_455 S
C541 C538 1.409 . S
C541 C539 1.416 . S
C542 H532 0.930 . S
C542 C540 1.421 . S
C542 C543 1.362 . S
C543 H533 0.930 . S
C543 C536 1.410 . S
C543 C542 1.362 . S
H544 C550 0.930 . S
H545 C553 0.930 . S
H546 C554 0.930 . S
H547 C555 0.930 . S
H548 C558 0.930 . S
H549 C559 0.930 . S
C550 H544 0.930 . S
C550 C551 1.355 1_545 S
C550 C552 1.415 . S
C551 C550 1.355 1_565 S
C551 C553 1.419 . S
C552 C550 1.415 . S
C552 C557 1.425 1_545 S
C552 C559 1.409 . S
C553 H545 0.930 . S
C553 C551 1.419 . S
C553 C554 1.362 . S
C554 H546 0.930 . S
C554 C553 1.362 . S
C554 C557 1.409 . S
C555 H547 0.930 . S
C555 C556 1.355 1_565 S
C555 C557 1.415 . S
C556 C555 1.355 1_545 S
C556 C558 1.419 . S
C557 C552 1.425 1_565 S
C557 C554 1.409 . S
C557 C555 1.415 . S
C558 H548 0.930 . S
C558 C556 1.419 . S
C558 C559 1.362 . S
C559 H549 0.930 . S
C559 C552 1.409 . S
C559 C558 1.362 . S
H560 C566 0.930 . S
H561 C569 0.930 . S
H562 C570 0.930 . S
H563 C571 0.930 . S
H564 C574 0.930 . S
H565 C575 0.930 . S
C566 H560 0.930 . S
C566 C567 1.355 1_655 S
C566 C568 1.415 . S
C567 C566 1.355 1_455 S
C567 C569 1.419 . S
C568 C566 1.415 . S
C568 C573 1.425 1_655 S
C568 C575 1.409 . S
C569 H561 0.930 . S
C569 C567 1.419 . S
C569 C570 1.362 . S
C570 H562 0.930 . S
C570 C569 1.362 . S
C570 C573 1.409 . S
C571 H563 0.930 . S
C571 C572 1.355 1_455 S
C571 C573 1.415 . S
C572 C571 1.355 1_655 S
C572 C574 1.419 . S
C573 C568 1.425 1_455 S
C573 C570 1.409 . S
C573 C571 1.415 . S
C574 H564 0.930 . S
C574 C572 1.419 . S
C574 C575 1.362 . S
C575 H565 0.930 . S
C575 C568 1.409 . S
C575 C574 1.362 . S
H576 C582 0.930 . S
H577 C585 0.930 . S
H578 C586 0.930 . S
H579 C587 0.930 . S
H580 C590 0.930 . S
H581 C591 0.930 . S
C582 H576 0.930 . S
C582 C583 1.343 1_565 S
C582 C584 1.415 . S
C583 C582 1.343 1_545 S
C583 C585 1.435 . S
C584 C582 1.415 . S
C584 C589 1.425 1_565 S
C584 C591 1.409 . S
C585 H577 0.930 . S
C585 C583 1.435 . S
C585 C586 1.362 . S
C586 H578 0.930 . S
C586 C585 1.362 . S
C586 C589 1.409 . S
C587 H579 0.930 . S
C587 C588 1.347 1_545 S
C587 C589 1.415 . S
C588 C587 1.347 1_565 S
C588 C590 1.429 . S
C589 C584 1.425 1_545 S
C589 C586 1.409 . S
C589 C587 1.415 . S
C590 H580 0.930 . S
C590 C588 1.429 . S
C590 C591 1.362 . S
C591 H581 0.930 . S
C591 C584 1.409 . S
C591 C590 1.362 . S
H592 C598 0.930 . S
H593 C601 0.930 . S
H594 C602 0.930 . S
H595 C603 0.930 . S
H596 C606 0.930 . S
H597 C607 0.930 . S
C598 H592 0.930 . S
C598 C599 1.355 1_545 S
C598 C600 1.415 . S
C599 C598 1.355 1_565 S
C599 C601 1.419 . S
C600 C598 1.415 . S
C600 C605 1.425 1_545 S
C600 C607 1.409 . S
C601 H593 0.930 . S
C601 C599 1.419 . S
C601 C602 1.362 . S
C602 H594 0.930 . S
C602 C601 1.362 . S
C602 C605 1.409 . S
C603 H595 0.930 . S
C603 C604 1.355 1_565 S
C603 C605 1.415 . S
C604 C603 1.355 1_545 S
C604 C606 1.419 . S
C605 C600 1.425 1_565 S
C605 C602 1.409 . S
C605 C603 1.415 . S
C606 H596 0.930 . S
C606 C604 1.419 . S
C606 C607 1.362 . S
C607 H597 0.930 . S
C607 C600 1.409 . S
C607 C606 1.362 . S
H608 C614 0.930 . S
H609 C617 0.930 . S
H610 C618 0.930 . S
H611 C619 0.930 . S
H612 C622 0.930 . S
H613 C623 0.930 . S
C614 H608 0.930 . S
C614 C615 1.355 1_655 S
C614 C616 1.415 . S
C615 C614 1.355 1_455 S
C615 C617 1.419 . S
C616 C614 1.415 . S
C616 C621 1.425 1_655 S
C616 C623 1.409 . S
C617 H609 0.930 . S
C617 C615 1.419 . S
C617 C618 1.362 . S
C618 H610 0.930 . S
C618 C617 1.362 . S
C618 C621 1.409 . S
C619 H611 0.930 . S
C619 C620 1.352 1_455 S
C619 C621 1.415 . S
C620 C619 1.352 1_655 S
C620 C622 1.423 . S
C621 C616 1.425 1_455 S
C621 C618 1.409 . S
C621 C619 1.415 . S
C622 H612 0.930 . S
C622 C620 1.423 . S
C622 C623 1.362 . S
C623 H613 0.930 . S
C623 C616 1.409 . S
C623 C622 1.362 . S
H624 C630 0.930 . S
H625 C633 0.930 . S
H626 C634 0.930 . S
H627 C635 0.930 . S
H628 C638 0.930 . S
H629 C639 0.930 . S
C630 H624 0.930 . S
C630 C631 1.348 1_545 S
C630 C632 1.415 . S
C631 C630 1.348 1_565 S
C631 C633 1.428 . S
C632 C630 1.415 . S
C632 C637 1.425 1_545 S
C632 C639 1.409 . S
C633 H625 0.930 . S
C633 C631 1.428 . S
C633 C634 1.362 . S
C634 H626 0.930 . S
C634 C633 1.362 . S
C634 C637 1.409 . S
C635 H627 0.930 . S
C635 C636 1.355 1_565 S
C635 C637 1.415 . S
C636 C635 1.355 1_545 S
C636 C638 1.419 . S
C637 C632 1.425 1_565 S
C637 C634 1.409 . S
C637 C635 1.415 . S
C638 H628 0.930 . S
C638 C636 1.419 . S
C638 C639 1.362 . S
C639 H629 0.930 . S
C639 C632 1.409 . S
C639 C638 1.362 . S
H640 C646 0.930 . S
H641 C649 0.930 . S
H642 C650 0.930 . S
H643 C651 0.930 . S
H644 C654 0.930 . S
H645 C655 0.930 . S
C646 H640 0.930 . S
C646 C647 1.355 1_655 S
C646 C648 1.415 . S
C647 C646 1.355 1_455 S
C647 C649 1.419 . S
C648 C646 1.415 . S
C648 C653 1.425 1_655 S
C648 C655 1.409 . S
C649 H641 0.930 . S
C649 C647 1.419 . S
C649 C650 1.362 . S
C650 H642 0.930 . S
C650 C649 1.362 . S
C650 C653 1.409 . S
C651 H643 0.930 . S
C651 C652 1.357 . S
C651 C653 1.415 . S
C652 C651 1.357 . S
C652 C654 1.417 1_455 S
C653 C648 1.425 1_455 S
C653 C650 1.409 . S
C653 C651 1.415 . S
C654 H644 0.930 . S
C654 C652 1.417 1_655 S
C654 C655 1.362 . S
C655 H645 0.930 . S
C655 C648 1.409 . S
C655 C654 1.362 . S
H656 C662 0.930 . S
H657 C665 0.930 . S
H658 C666 0.930 . S
H659 C667 0.930 . S
H660 C670 0.930 . S
H661 C671 0.930 . S
C662 H656 0.930 . S
C662 C663 1.355 1_556 S
C662 C664 1.415 . S
C663 C662 1.355 1_554 S
C663 C665 1.419 . S
C664 C662 1.415 . S
C664 C669 1.425 1_556 S
C664 C671 1.409 . S
C665 H657 0.930 . S
C665 C663 1.419 . S
C665 C666 1.362 . S
C666 H658 0.930 . S
C666 C665 1.362 . S
C666 C669 1.409 . S
C667 H659 0.930 . S
C667 C668 1.355 1_554 S
C667 C669 1.415 . S
C668 C667 1.355 1_556 S
C668 C670 1.419 . S
C669 C664 1.425 1_554 S
C669 C666 1.409 . S
C669 C667 1.415 . S
C670 H660 0.930 . S
C670 C668 1.419 . S
C670 C671 1.362 . S
C671 H661 0.930 . S
C671 C664 1.409 . S
C671 C670 1.362 . S
H672 C678 0.930 . S
H673 C681 0.930 . S
H674 C682 0.930 . S
H675 C683 0.930 . S
H676 C686 0.930 . S
H677 C687 0.930 . S
C678 H672 0.930 . S
C678 C679 1.355 1_556 S
C678 C680 1.415 . S
C679 C678 1.355 1_554 S
C679 C681 1.419 . S
C680 C678 1.415 . S
C680 C685 1.425 1_556 S
C680 C687 1.409 . S
C681 H673 0.930 . S
C681 C679 1.419 . S
C681 C682 1.362 . S
C682 H674 0.930 . S
C682 C681 1.362 . S
C682 C685 1.409 . S
C683 H675 0.930 . S
C683 C684 1.355 1_554 S
C683 C685 1.415 . S
C684 C683 1.355 1_556 S
C684 C686 1.419 . S
C685 C680 1.425 1_554 S
C685 C682 1.409 . S
C685 C683 1.415 . S
C686 H676 0.930 . S
C686 C684 1.419 . S
C686 C687 1.362 . S
C687 H677 0.930 . S
C687 C680 1.409 . S
C687 C686 1.362 . S
H688 C694 0.930 . S
H689 C697 0.930 . S
H690 C698 0.930 . S
H691 C699 0.930 . S
H692 C702 0.930 . S
H693 C703 0.930 . S
C694 H688 0.930 . S
C694 C695 1.355 1_554 S
C694 C696 1.415 . S
C695 C694 1.355 1_556 S
C695 C697 1.419 . S
C696 C694 1.415 . S
C696 C701 1.425 1_554 S
C696 C703 1.409 . S
C697 H689 0.930 . S
C697 C695 1.419 . S
C697 C698 1.362 . S
C698 H690 0.930 . S
C698 C697 1.362 . S
C698 C701 1.409 . S
C699 H691 0.930 . S
C699 C700 1.355 1_556 S
C699 C701 1.415 . S
C700 C699 1.355 1_554 S
C700 C702 1.419 . S
C701 C696 1.425 1_556 S
C701 C698 1.409 . S
C701 C699 1.415 . S
C702 H692 0.930 . S
C702 C700 1.419 . S
C702 C703 1.362 . S
C703 H693 0.930 . S
C703 C696 1.409 . S
C703 C702 1.362 . S
H704 C710 0.930 . S
H705 C713 0.930 . S
H706 C714 0.930 . S
H707 C715 0.930 . S
H708 C718 0.930 . S
H709 C719 0.930 . S
C710 H704 0.930 . S
C710 C711 1.355 1_556 S
C710 C712 1.415 . S
C711 C710 1.355 1_554 S
C711 C713 1.419 . S
C712 C710 1.415 . S
C712 C717 1.425 1_556 S
C712 C719 1.409 . S
C713 H705 0.930 . S
C713 C711 1.419 . S
C713 C714 1.362 . S
C714 H706 0.930 . S
C714 C713 1.362 . S
C714 C717 1.409 . S
C715 H707 0.930 . S
C715 C716 1.355 1_554 S
C715 C717 1.415 . S
C716 C715 1.355 1_556 S
C716 C718 1.419 . S
C717 C712 1.425 1_554 S
C717 C714 1.409 . S
C717 C715 1.415 . S
C718 H708 0.930 . S
C718 C716 1.419 . S
C718 C719 1.362 . S
C719 H709 0.930 . S
C719 C712 1.409 . S
C719 C718 1.362 . S
H720 C726 0.930 . S
H721 C729 0.930 . S
H722 C730 0.930 . S
H723 C731 0.930 . S
H724 C734 0.930 . S
H725 C735 0.930 . S
C726 H720 0.930 . S
C726 C727 1.355 . S
C726 C728 1.415 . S
C727 C726 1.355 . S
C727 C729 1.419 . S
C728 C726 1.415 . S
C728 C733 1.425 1_556 S
C728 C735 1.409 1_556 S
C729 H721 0.930 . S
C729 C727 1.419 . S
C729 C730 1.362 . S
C730 H722 0.930 . S
C730 C729 1.362 . S
C730 C733 1.409 1_556 S
C731 H723 0.930 . S
C731 C732 1.355 . S
C731 C733 1.415 . S
C732 C731 1.355 . S
C732 C734 1.419 . S
C733 C728 1.425 1_554 S
C733 C730 1.409 1_554 S
C733 C731 1.415 . S
C734 H724 0.930 . S
C734 C732 1.419 . S
C734 C735 1.362 . S
C735 H725 0.930 . S
C735 C728 1.409 1_554 S
C735 C734 1.362 . S
H736 C742 0.930 . S
H737 C745 0.930 . S
H738 C746 0.930 . S
H739 C747 0.930 . S
H740 C750 0.930 . S
H741 C751 0.930 . S
C742 H736 0.930 . S
C742 C743 1.355 . S
C742 C744 1.415 . S
C743 C742 1.355 . S
C743 C745 1.419 . S
C744 C742 1.415 . S
C744 C749 1.425 1_554 S
C744 C751 1.409 1_554 S
C745 H737 0.930 . S
C745 C743 1.419 . S
C745 C746 1.362 . S
C746 H738 0.930 . S
C746 C745 1.362 . S
C746 C749 1.409 1_554 S
C747 H739 0.930 . S
C747 C748 1.355 . S
C747 C749 1.415 . S
C748 C747 1.355 . S
C748 C750 1.419 . S
C749 C744 1.425 1_556 S
C749 C746 1.409 1_556 S
C749 C747 1.415 . S
C750 H740 0.930 . S
C750 C748 1.419 . S
C750 C751 1.362 . S
C751 H741 0.930 . S
C751 C744 1.409 1_556 S
C751 C750 1.362 . S
H752 C758 0.930 . S
H753 C761 0.930 . S
H754 C762 0.930 . S
H755 C763 0.930 . S
H756 C766 0.930 . S
H757 C767 0.930 . S
C758 H752 0.930 . S
C758 C759 1.355 . S
C758 C760 1.415 . S
C759 C758 1.355 . S
C759 C761 1.419 . S
C760 C758 1.415 . S
C760 C765 1.425 1_556 S
C760 C767 1.409 1_556 S
C761 H753 0.930 . S
C761 C759 1.419 . S
C761 C762 1.362 . S
C762 H754 0.930 . S
C762 C761 1.362 . S
C762 C765 1.409 1_556 S
C763 H755 0.930 . S
C763 C764 1.355 . S
C763 C765 1.415 . S
C764 C763 1.355 . S
C764 C766 1.419 . S
C765 C760 1.425 1_554 S
C765 C762 1.409 1_554 S
C765 C763 1.415 . S
C766 H756 0.930 . S
C766 C764 1.419 . S
C766 C767 1.362 . S
C767 H757 0.930 . S
C767 C760 1.409 1_554 S
C767 C766 1.362 . S
H768 C774 0.930 . S
H769 C777 0.930 . S
H770 C778 0.930 . S
H771 C779 0.930 . S
H772 C782 0.930 . S
H773 C783 0.930 . S
C774 H768 0.930 . S
C774 C775 1.355 . S
C774 C776 1.415 . S
C775 C774 1.355 . S
C775 C777 1.419 . S
C776 C774 1.415 . S
C776 C781 1.425 1_556 S
C776 C783 1.409 1_556 S
C777 H769 0.930 . S
C777 C775 1.419 . S
C777 C778 1.362 . S
C778 H770 0.930 . S
C778 C777 1.362 . S
C778 C781 1.409 1_556 S
C779 H771 0.930 . S
C779 C780 1.355 . S
C779 C781 1.415 . S
C780 C779 1.355 . S
C780 C782 1.419 . S
C781 C776 1.425 1_554 S
C781 C778 1.409 1_554 S
C781 C779 1.415 . S
C782 H772 0.930 . S
C782 C780 1.419 . S
C782 C783 1.362 . S
C783 H773 0.930 . S
C783 C776 1.409 1_554 S
C783 C782 1.362 . S
H784 C790 0.930 . S
H785 C793 0.930 . S
H786 C794 0.930 . S
H787 C795 0.930 . S
H788 C798 0.930 . S
H789 C799 0.930 . S
C790 H784 0.930 . S
C790 C791 1.355 . S
C790 C792 1.415 . S
C791 C790 1.355 . S
C791 C793 1.419 . S
C792 C790 1.415 . S
C792 C797 1.425 1_655 S
C792 C799 1.409 1_655 S
C793 H785 0.930 . S
C793 C791 1.419 . S
C793 C794 1.362 . S
C794 H786 0.930 . S
C794 C793 1.362 . S
C794 C797 1.409 1_655 S
C795 H787 0.930 . S
C795 C796 1.355 . S
C795 C797 1.415 . S
C796 C795 1.355 . S
C796 C798 1.419 . S
C797 C792 1.425 1_455 S
C797 C794 1.409 1_455 S
C797 C795 1.415 . S
C798 H788 0.930 . S
C798 C796 1.419 . S
C798 C799 1.362 . S
C799 H789 0.930 . S
C799 C792 1.409 1_455 S
C799 C798 1.362 . S
H800 C806 0.930 . S
H801 C809 0.930 . S
H802 C810 0.930 . S
H803 C811 0.930 . S
H804 C814 0.930 . S
H805 C815 0.930 . S
C806 H800 0.930 . S
C806 C807 1.355 . S
C806 C808 1.415 . S
C807 C806 1.355 . S
C807 C809 1.419 . S
C808 C806 1.415 . S
C808 C813 1.425 1_545 S
C808 C815 1.409 1_545 S
C809 H801 0.930 . S
C809 C807 1.419 . S
C809 C810 1.362 . S
C810 H802 0.930 . S
C810 C809 1.362 . S
C810 C813 1.409 1_545 S
C811 H803 0.930 . S
C811 C812 1.355 . S
C811 C813 1.415 . S
C812 C811 1.355 . S
C812 C814 1.419 . S
C813 C808 1.425 1_565 S
C813 C810 1.409 1_565 S
C813 C811 1.415 . S
C814 H804 0.930 . S
C814 C812 1.419 . S
C814 C815 1.362 . S
C815 H805 0.930 . S
C815 C808 1.409 1_565 S
C815 C814 1.362 . S
H816 C822 0.930 . S
H817 C825 0.930 . S
H818 C826 0.930 . S
H819 C827 0.930 . S
H820 C830 0.930 . S
H821 C831 0.930 . S
C822 H816 0.930 . S
C822 C823 1.355 . S
C822 C824 1.415 . S
C823 C822 1.355 . S
C823 C825 1.419 . S
C824 C822 1.415 . S
C824 C829 1.425 1_655 S
C824 C831 1.409 1_655 S
C825 H817 0.930 . S
C825 C823 1.419 . S
C825 C826 1.362 . S
C826 H818 0.930 . S
C826 C825 1.362 . S
C826 C829 1.409 1_655 S
C827 H819 0.930 . S
C827 C828 1.355 . S
C827 C829 1.415 . S
C828 C827 1.355 . S
C828 C830 1.419 . S
C829 C824 1.425 1_455 S
C829 C826 1.409 1_455 S
C829 C827 1.415 . S
C830 H820 0.930 . S
C830 C828 1.419 . S
C830 C831 1.362 . S
C831 H821 0.930 . S
C831 C824 1.409 1_455 S
C831 C830 1.362 . S
H832 C838 0.930 . S
H833 C841 0.930 . S
H834 C842 0.930 . S
H835 C843 0.930 . S
H836 C846 0.930 . S
H837 C847 0.930 . S
C838 H832 0.930 . S
C838 C839 1.355 . S
C838 C840 1.415 . S
C839 C838 1.355 . S
C839 C841 1.419 . S
C840 C838 1.415 . S
C840 C845 1.425 1_565 S
C840 C847 1.409 1_565 S
C841 H833 0.930 . S
C841 C839 1.419 . S
C841 C842 1.362 . S
C842 H834 0.930 . S
C842 C841 1.362 . S
C842 C845 1.409 1_565 S
C843 H835 0.930 . S
C843 C844 1.355 . S
C843 C845 1.415 . S
C844 C843 1.355 . S
C844 C846 1.419 . S
C845 C840 1.425 1_545 S
C845 C842 1.409 1_545 S
C845 C843 1.415 . S
C846 H836 0.930 . S
C846 C844 1.419 . S
C846 C847 1.362 . S
C847 H837 0.930 . S
C847 C840 1.409 1_545 S
C847 C846 1.362 . S
H848 C854 0.930 . S
H849 C857 0.930 . S
H850 C858 0.930 . S
H851 C859 0.930 . S
H852 C862 0.930 . S
H853 C863 0.930 . S
C854 H848 0.930 . S
C854 C855 1.355 . S
C854 C856 1.415 . S
C855 C854 1.355 . S
C855 C857 1.419 . S
C856 C854 1.415 . S
C856 C861 1.425 1_565 S
C856 C863 1.409 1_565 S
C857 H849 0.930 . S
C857 C855 1.419 . S
C857 C858 1.362 . S
C858 H850 0.930 . S
C858 C857 1.362 . S
C858 C861 1.409 1_565 S
C859 H851 0.930 . S
C859 C860 1.355 . S
C859 C861 1.415 . S
C860 C859 1.355 . S
C860 C862 1.419 . S
C861 C856 1.425 1_545 S
C861 C858 1.409 1_545 S
C861 C859 1.415 . S
C862 H852 0.930 . S
C862 C860 1.419 . S
C862 C863 1.362 . S
C863 H853 0.930 . S
C863 C856 1.409 1_545 S
C863 C862 1.362 . S
H864 C870 0.930 . S
H865 C873 0.930 . S
H866 C874 0.930 . S
H867 C875 0.930 . S
H868 C878 0.930 . S
H869 C879 0.930 . S
C870 H864 0.930 . S
C870 C871 1.355 . S
C870 C872 1.415 . S
C871 C870 1.355 . S
C871 C873 1.419 . S
C872 C870 1.415 . S
C872 C877 1.425 1_455 S
C872 C879 1.409 1_455 S
C873 H865 0.930 . S
C873 C871 1.419 . S
C873 C874 1.362 . S
C874 H866 0.930 . S
C874 C873 1.362 . S
C874 C877 1.409 1_455 S
C875 H867 0.930 . S
C875 C876 1.355 . S
C875 C877 1.415 . S
C876 C875 1.355 . S
C876 C878 1.419 . S
C877 C872 1.425 1_655 S
C877 C874 1.409 1_655 S
C877 C875 1.415 . S
C878 H868 0.930 . S
C878 C876 1.419 . S
C878 C879 1.362 . S
C879 H869 0.930 . S
C879 C872 1.409 1_655 S
C879 C878 1.362 . S
H880 C886 0.930 . S
H881 C889 0.930 . S
H882 C890 0.930 . S
H883 C891 0.930 . S
H884 C894 0.930 . S
H885 C895 0.930 . S
C886 H880 0.930 . S
C886 C887 1.355 . S
C886 C888 1.415 . S
C887 C886 1.355 . S
C887 C889 1.419 . S
C888 C886 1.415 . S
C888 C893 1.425 1_565 S
C888 C895 1.409 1_565 S
C889 H881 0.930 . S
C889 C887 1.419 . S
C889 C890 1.362 . S
C890 H882 0.930 . S
C890 C889 1.362 . S
C890 C893 1.409 1_565 S
C891 H883 0.930 . S
C891 C892 1.355 . S
C891 C893 1.415 . S
C892 C891 1.355 . S
C892 C894 1.419 . S
C893 C888 1.425 1_545 S
C893 C890 1.409 1_545 S
C893 C891 1.415 . S
C894 H884 0.930 . S
C894 C892 1.419 . S
C894 C895 1.362 . S
C895 H885 0.930 . S
C895 C888 1.409 1_545 S
C895 C894 1.362 . S
H896 C902 0.930 . S
H897 C905 0.930 . S
H898 C906 0.930 . S
H899 C907 0.930 . S
H900 C910 0.930 . S
H901 C911 0.930 . S
C902 H896 0.930 . S
C902 C903 1.355 . S
C902 C904 1.415 . S
C903 C902 1.355 . S
C903 C905 1.419 . S
C904 C902 1.415 . S
C904 C909 1.425 1_455 S
C904 C911 1.409 1_455 S
C905 H897 0.930 . S
C905 C903 1.419 . S
C905 C906 1.362 . S
C906 H898 0.930 . S
C906 C905 1.362 . S
C906 C909 1.409 1_455 S
C907 H899 0.930 . S
C907 C908 1.355 . S
C907 C909 1.415 . S
C908 C907 1.355 . S
C908 C910 1.419 . S
C909 C904 1.425 1_655 S
C909 C906 1.409 1_655 S
C909 C907 1.415 . S
C910 H900 0.930 . S
C910 C908 1.419 . S
C910 C911 1.362 . S
C911 H901 0.930 . S
C911 C904 1.409 1_655 S
C911 C910 1.362 . S
H912 C918 0.930 . S
H913 C921 0.930 . S
H914 C922 0.930 . S
H915 C923 0.930 . S
H916 C926 0.930 . S
H917 C927 0.930 . S
C918 H912 0.930 . S
C918 C919 1.355 . S
C918 C920 1.415 . S
C919 C918 1.355 . S
C919 C921 1.419 . S
C920 C918 1.415 . S
C920 C925 1.425 . S
C920 C927 1.409 . S
C921 H913 0.930 . S
C921 C919 1.419 . S
C921 C922 1.362 . S
C922 H914 0.930 . S
C922 C921 1.362 . S
C922 C925 1.409 . S
C923 H915 0.930 . S
C923 C924 1.355 . S
C923 C925 1.415 . S
C924 C923 1.355 . S
C924 C926 1.419 . S
C925 C920 1.425 . S
C925 C922 1.409 . S
C925 C923 1.415 . S
C926 H916 0.930 . S
C926 C924 1.419 . S
C926 C927 1.362 . S
C927 H917 0.930 . S
C927 C920 1.409 . S
C927 C926 1.362 . S
H928 C934 0.930 . S
H929 C937 0.930 . S
H930 C938 0.930 . S
H931 C939 0.930 . S
H932 C942 0.930 . S
H933 C943 0.930 . S
C934 H928 0.930 . S
C934 C935 1.355 . S
C934 C936 1.415 . S
C935 C934 1.355 . S
C935 C937 1.419 . S
C936 C934 1.415 . S
C936 C941 1.425 . S
C936 C943 1.409 . S
C937 H929 0.930 . S
C937 C935 1.419 . S
C937 C938 1.362 . S
C938 H930 0.930 . S
C938 C937 1.362 . S
C938 C941 1.409 . S
C939 H931 0.930 . S
C939 C940 1.355 . S
C939 C941 1.415 . S
C940 C939 1.355 . S
C940 C942 1.419 . S
C941 C936 1.425 . S
C941 C938 1.409 . S
C941 C939 1.415 . S
C942 H932 0.930 . S
C942 C940 1.419 . S
C942 C943 1.362 . S
C943 H933 0.930 . S
C943 C936 1.409 . S
C943 C942 1.362 . S
H944 C950 0.930 . S
H945 C953 0.930 . S
H946 C954 0.930 . S
H947 C955 0.930 . S
H948 C958 0.930 . S
H949 C959 0.930 . S
C950 H944 0.930 . S
C950 C951 1.355 . S
C950 C952 1.415 . S
C951 C950 1.355 . S
C951 C953 1.419 . S
C952 C950 1.415 . S
C952 C957 1.425 . S
C952 C959 1.409 . S
C953 H945 0.930 . S
C953 C951 1.419 . S
C953 C954 1.362 . S
C954 H946 0.930 . S
C954 C953 1.362 . S
C954 C957 1.409 . S
C955 H947 0.930 . S
C955 C956 1.355 . S
C955 C957 1.415 . S
C956 C955 1.355 . S
C956 C958 1.419 . S
C957 C952 1.425 . S
C957 C954 1.409 . S
C957 C955 1.415 . S
C958 H948 0.930 . S
C958 C956 1.419 . S
C958 C959 1.362 . S
C959 H949 0.930 . S
C959 C952 1.409 . S
C959 C958 1.362 . S
H960 C966 0.930 . S
H961 C969 0.930 . S
H962 C970 0.930 . S
H963 C971 0.930 . S
H964 C974 0.930 . S
H965 C975 0.930 . S
C966 H960 0.930 . S
C966 C967 1.355 . S
C966 C968 1.415 . S
C967 C966 1.355 . S
C967 C969 1.419 . S
C968 C966 1.415 . S
C968 C973 1.425 . S
C968 C975 1.409 . S
C969 H961 0.930 . S
C969 C967 1.419 . S
C969 C970 1.362 . S
C970 H962 0.930 . S
C970 C969 1.362 . S
C970 C973 1.409 . S
C971 H963 0.930 . S
C971 C972 1.355 . S
C971 C973 1.415 . S
C972 C971 1.355 . S
C972 C974 1.419 . S
C973 C968 1.425 . S
C973 C970 1.409 . S
C973 C971 1.415 . S
C974 H964 0.930 . S
C974 C972 1.419 . S
C974 C975 1.362 . S
C975 H965 0.930 . S
C975 C968 1.409 . S
C975 C974 1.362 . S
H976 C982 0.930 . S
H977 C985 0.930 . S
H978 C986 0.930 . S
H979 C987 0.930 . S
H980 C990 0.930 . S
H981 C991 0.930 . S
C982 H976 0.930 . S
C982 C983 1.355 . S
C982 C984 1.415 . S
C983 C982 1.355 . S
C983 C985 1.419 . S
C984 C982 1.415 . S
C984 C989 1.425 . S
C984 C991 1.409 . S
C985 H977 0.930 . S
C985 C983 1.419 . S
C985 C986 1.362 . S
C986 H978 0.930 . S
C986 C985 1.362 . S
C986 C989 1.409 . S
C987 H979 0.930 . S
C987 C988 1.355 . S
C987 C989 1.415 . S
C988 C987 1.355 . S
C988 C990 1.419 . S
C989 C984 1.425 . S
C989 C986 1.409 . S
C989 C987 1.415 . S
C990 H980 0.930 . S
C990 C988 1.419 . S
C990 C991 1.362 . S
C991 H981 0.930 . S
C991 C984 1.409 . S
C991 C990 1.362 . S
H992 C998 0.930 . S
H993 C1001 0.930 . S
H994 C1002 0.930 . S
H995 C1003 0.930 . S
H996 C1006 0.930 . S
H997 C1007 0.930 . S
C998 H992 0.930 . S
C998 C999 1.355 . S
C998 C1000 1.415 . S
C999 C998 1.355 . S
C999 C1001 1.419 . S
C1000 C998 1.415 . S
C1000 C1005 1.425 . S
C1000 C1007 1.409 . S
C1001 H993 0.930 . S
C1001 C999 1.419 . S
C1001 C1002 1.362 . S
C1002 H994 0.930 . S
C1002 C1001 1.362 . S
C1002 C1005 1.409 . S
C1003 H995 0.930 . S
C1003 C1004 1.355 . S
C1003 C1005 1.415 . S
C1004 C1003 1.355 . S
C1004 C1006 1.419 . S
C1005 C1000 1.425 . S
C1005 C1002 1.409 . S
C1005 C1003 1.415 . S
C1006 H996 0.930 . S
C1006 C1004 1.419 . S
C1006 C1007 1.362 . S
C1007 H997 0.930 . S
C1007 C1000 1.409 . S
C1007 C1006 1.362 . S
H1008 C1014 0.930 . S
H1009 C1017 0.930 . S
H1010 C1018 0.930 . S
H1011 C1019 0.930 . S
H1012 C1022 0.930 . S
H1013 C1023 0.930 . S
C1014 H1008 0.930 . S
C1014 C1015 1.355 . S
C1014 C1016 1.415 . S
C1015 C1014 1.355 . S
C1015 C1017 1.419 . S
C1016 C1014 1.415 . S
C1016 C1021 1.425 . S
C1016 C1023 1.409 . S
C1017 H1009 0.930 . S
C1017 C1015 1.419 . S
C1017 C1018 1.362 . S
C1018 H1010 0.930 . S
C1018 C1017 1.362 . S
C1018 C1021 1.409 . S
C1019 H1011 0.930 . S
C1019 C1020 1.355 . S
C1019 C1021 1.415 . S
C1020 C1019 1.355 . S
C1020 C1022 1.419 . S
C1021 C1016 1.425 . S
C1021 C1018 1.409 . S
C1021 C1019 1.415 . S
C1022 H1012 0.930 . S
C1022 C1020 1.419 . S
C1022 C1023 1.362 . S
C1023 H1013 0.930 . S
C1023 C1016 1.409 . S
C1023 C1022 1.362 . S
H1024 C1030 0.930 . S
H1025 C1033 0.930 . S
H1026 C1034 0.930 . S
H1027 C1035 0.930 . S
H1028 C1038 0.930 . S
H1029 C1039 0.930 . S
C1030 H1024 0.930 . S
C1030 C1031 1.355 . S
C1030 C1032 1.415 . S
C1031 C1030 1.355 . S
C1031 C1033 1.419 . S
C1032 C1030 1.415 . S
C1032 C1037 1.425 . S
C1032 C1039 1.409 . S
C1033 H1025 0.930 . S
C1033 C1031 1.419 . S
C1033 C1034 1.362 . S
C1034 H1026 0.930 . S
C1034 C1033 1.362 . S
C1034 C1037 1.409 . S
C1035 H1027 0.930 . S
C1035 C1036 1.355 . S
C1035 C1037 1.415 . S
C1036 C1035 1.355 . S
C1036 C1038 1.419 . S
C1037 C1032 1.425 . S
C1037 C1034 1.409 . S
C1037 C1035 1.415 . S
C1038 H1028 0.930 . S
C1038 C1036 1.419 . S
C1038 C1039 1.362 . S
C1039 H1029 0.930 . S
C1039 C1032 1.409 . S
C1039 C1038 1.362 . S
H1040 C1046 0.930 . S
H1041 C1049 0.930 . S
H1042 C1050 0.930 . S
H1043 C1051 0.930 . S
H1044 C1054 0.930 . S
H1045 C1055 0.930 . S
C1046 H1040 0.930 . S
C1046 C1047 1.355 . S
C1046 C1048 1.415 . S
C1047 C1046 1.355 . S
C1047 C1049 1.419 . S
C1048 C1046 1.415 . S
C1048 C1053 1.425 . S
C1048 C1055 1.409 . S
C1049 H1041 0.930 . S
C1049 C1047 1.419 . S
C1049 C1050 1.362 . S
C1050 H1042 0.930 . S
C1050 C1049 1.362 . S
C1050 C1053 1.409 . S
C1051 H1043 0.930 . S
C1051 C1052 1.355 . S
C1051 C1053 1.415 . S
C1052 C1051 1.355 . S
C1052 C1054 1.419 . S
C1053 C1048 1.425 . S
C1053 C1050 1.409 . S
C1053 C1051 1.415 . S
C1054 H1044 0.930 . S
C1054 C1052 1.419 . S
C1054 C1055 1.362 . S
C1055 H1045 0.930 . S
C1055 C1048 1.409 . S
C1055 C1054 1.362 . S
H1056 C1062 0.930 . S
H1057 C1065 0.930 . S
H1058 C1066 0.930 . S
H1059 C1067 0.930 . S
H1060 C1070 0.930 . S
H1061 C1071 0.930 . S
C1062 H1056 0.930 . S
C1062 C1063 1.355 . S
C1062 C1064 1.415 . S
C1063 C1062 1.355 . S
C1063 C1065 1.419 . S
C1064 C1062 1.415 . S
C1064 C1069 1.425 . S
C1064 C1071 1.409 . S
C1065 H1057 0.930 . S
C1065 C1063 1.419 . S
C1065 C1066 1.362 . S
C1066 H1058 0.930 . S
C1066 C1065 1.362 . S
C1066 C1069 1.409 . S
C1067 H1059 0.930 . S
C1067 C1068 1.355 . S
C1067 C1069 1.415 . S
C1068 C1067 1.355 . S
C1068 C1070 1.419 . S
C1069 C1064 1.425 . S
C1069 C1066 1.409 . S
C1069 C1067 1.415 . S
C1070 H1060 0.930 . S
C1070 C1068 1.419 . S
C1070 C1071 1.362 . S
C1071 H1061 0.930 . S
C1071 C1064 1.409 . S
C1071 C1070 1.362 . S
H1072 C1078 0.930 . S
H1073 C1081 0.930 . S
H1074 C1082 0.930 . S
H1075 C1083 0.930 . S
H1076 C1086 0.930 . S
H1077 C1087 0.930 . S
C1078 H1072 0.930 . S
C1078 C1079 1.355 . S
C1078 C1080 1.415 . S
C1079 C1078 1.355 . S
C1079 C1081 1.419 . S
C1080 C1078 1.415 . S
C1080 C1085 1.425 . S
C1080 C1087 1.409 . S
C1081 H1073 0.930 . S
C1081 C1079 1.419 . S
C1081 C1082 1.362 . S
C1082 H1074 0.930 . S
C1082 C1081 1.362 . S
C1082 C1085 1.409 . S
C1083 H1075 0.930 . S
C1083 C1084 1.355 . S
C1083 C1085 1.415 . S
C1084 C1083 1.355 . S
C1084 C1086 1.419 . S
C1085 C1080 1.425 . S
C1085 C1082 1.409 . S
C1085 C1083 1.415 . S
C1086 H1076 0.930 . S
C1086 C1084 1.419 . S
C1086 C1087 1.362 . S
C1087 H1077 0.930 . S
C1087 C1080 1.409 . S
C1087 C1086 1.362 . S
H1088 C1094 0.930 . S
H1089 C1097 0.930 . S
H1090 C1098 0.930 . S
H1091 C1099 0.930 . S
H1092 C1102 0.930 . S
H1093 C1103 0.930 . S
C1094 H1088 0.930 . S
C1094 C1095 1.355 . S
C1094 C1096 1.415 . S
C1095 C1094 1.355 . S
C1095 C1097 1.419 . S
C1096 C1094 1.415 . S
C1096 C1101 1.425 . S
C1096 C1103 1.409 . S
C1097 H1089 0.930 . S
C1097 C1095 1.419 . S
C1097 C1098 1.362 . S
C1098 H1090 0.930 . S
C1098 C1097 1.362 . S
C1098 C1101 1.409 . S
C1099 H1091 0.930 . S
C1099 C1100 1.355 . S
C1099 C1101 1.415 . S
C1100 C1099 1.355 . S
C1100 C1102 1.419 . S
C1101 C1096 1.425 . S
C1101 C1098 1.409 . S
C1101 C1099 1.415 . S
C1102 H1092 0.930 . S
C1102 C1100 1.419 . S
C1102 C1103 1.362 . S
C1103 H1093 0.930 . S
C1103 C1096 1.409 . S
C1103 C1102 1.362 . S
H1104 C1110 0.930 . S
H1105 C1113 0.930 . S
H1106 C1114 0.930 . S
H1107 C1115 0.930 . S
H1108 C1118 0.930 . S
H1109 C1119 0.930 . S
C1110 H1104 0.930 . S
C1110 C1111 1.355 . S
C1110 C1112 1.415 . S
C1111 C1110 1.355 . S
C1111 C1113 1.419 . S
C1112 C1110 1.415 . S
C1112 C1117 1.425 . S
C1112 C1119 1.409 . S
C1113 H1105 0.930 . S
C1113 C1111 1.419 . S
C1113 C1114 1.362 . S
C1114 H1106 0.930 . S
C1114 C1113 1.362 . S
C1114 C1117 1.409 . S
C1115 H1107 0.930 . S
C1115 C1116 1.355 . S
C1115 C1117 1.415 . S
C1116 C1115 1.355 . S
C1116 C1118 1.419 . S
C1117 C1112 1.425 . S
C1117 C1114 1.409 . S
C1117 C1115 1.415 . S
C1118 H1108 0.930 . S
C1118 C1116 1.419 . S
C1118 C1119 1.362 . S
C1119 H1109 0.930 . S
C1119 C1112 1.409 . S
C1119 C1118 1.362 . S
H1120 C1126 0.930 . S
H1121 C1129 0.930 . S
H1122 C1130 0.930 . S
H1123 C1131 0.930 . S
H1124 C1134 0.930 . S
H1125 C1135 0.930 . S
C1126 H1120 0.930 . S
C1126 C1127 1.355 . S
C1126 C1128 1.415 . S
C1127 C1126 1.355 . S
C1127 C1129 1.419 . S
C1128 C1126 1.415 . S
C1128 C1133 1.425 . S
C1128 C1135 1.409 . S
C1129 H1121 0.930 . S
C1129 C1127 1.419 . S
C1129 C1130 1.362 . S
C1130 H1122 0.930 . S
C1130 C1129 1.362 . S
C1130 C1133 1.409 . S
C1131 H1123 0.930 . S
C1131 C1132 1.355 . S
C1131 C1133 1.415 . S
C1132 C1131 1.355 . S
C1132 C1134 1.419 . S
C1133 C1128 1.425 . S
C1133 C1130 1.409 . S
C1133 C1131 1.415 . S
C1134 H1124 0.930 . S
C1134 C1132 1.419 . S
C1134 C1135 1.362 . S
C1135 H1125 0.930 . S
C1135 C1128 1.409 . S
C1135 C1134 1.362 . S
H1136 C1142 0.930 . S
H1137 C1145 0.930 . S
H1138 C1146 0.930 . S
H1139 C1147 0.930 . S
H1140 C1150 0.930 . S
H1141 C1151 0.930 . S
C1142 H1136 0.930 . S
C1142 C1143 1.355 . S
C1142 C1144 1.415 . S
C1143 C1142 1.355 . S
C1143 C1145 1.419 . S
C1144 C1142 1.415 . S
C1144 C1149 1.425 . S
C1144 C1151 1.409 . S
C1145 H1137 0.930 . S
C1145 C1143 1.419 . S
C1145 C1146 1.362 . S
C1146 H1138 0.930 . S
C1146 C1145 1.362 . S
C1146 C1149 1.409 . S
C1147 H1139 0.930 . S
C1147 C1148 1.355 . S
C1147 C1149 1.415 . S
C1148 C1147 1.355 . S
C1148 C1150 1.419 . S
C1149 C1144 1.425 . S
C1149 C1146 1.409 . S
C1149 C1147 1.415 . S
C1150 H1140 0.930 . S
C1150 C1148 1.419 . S
C1150 C1151 1.362 . S
C1151 H1141 0.930 . S
C1151 C1144 1.409 . S
C1151 C1150 1.362 . S
H1152 C1158 0.930 . S
H1153 C1161 0.930 . S
H1154 C1162 0.930 . S
H1155 C1163 0.930 . S
H1156 C1166 0.930 . S
H1157 C1167 0.930 . S
C1158 H1152 0.930 . S
C1158 C1159 1.355 . S
C1158 C1160 1.415 . S
C1159 C1158 1.355 . S
C1159 C1161 1.419 . S
C1160 C1158 1.415 . S
C1160 C1165 1.425 . S
C1160 C1167 1.409 . S
C1161 H1153 0.930 . S
C1161 C1159 1.419 . S
C1161 C1162 1.362 . S
C1162 H1154 0.930 . S
C1162 C1161 1.362 . S
C1162 C1165 1.409 . S
C1163 H1155 0.930 . S
C1163 C1164 1.355 . S
C1163 C1165 1.415 . S
C1164 C1163 1.355 . S
C1164 C1166 1.419 . S
C1165 C1160 1.425 . S
C1165 C1162 1.409 . S
C1165 C1163 1.415 . S
C1166 H1156 0.930 . S
C1166 C1164 1.419 . S
C1166 C1167 1.362 . S
C1167 H1157 0.930 . S
C1167 C1160 1.409 . S
C1167 C1166 1.362 . S
H1168 C1174 0.930 . S
H1169 C1177 0.930 . S
H1170 C1178 0.930 . S
H1171 C1179 0.930 . S
H1172 C1182 0.930 . S
H1173 C1183 0.930 . S
C1174 H1168 0.930 . S
C1174 C1175 1.355 . S
C1174 C1176 1.415 . S
C1175 C1174 1.355 . S
C1175 C1177 1.419 . S
C1176 C1174 1.415 . S
C1176 C1181 1.425 . S
C1176 C1183 1.409 . S
C1177 H1169 0.930 . S
C1177 C1175 1.419 . S
C1177 C1178 1.362 . S
C1178 H1170 0.930 . S
C1178 C1177 1.362 . S
C1178 C1181 1.409 . S
C1179 H1171 0.930 . S
C1179 C1180 1.355 . S
C1179 C1181 1.415 . S
C1180 C1179 1.355 . S
C1180 C1182 1.419 . S
C1181 C1176 1.425 . S
C1181 C1178 1.409 . S
C1181 C1179 1.415 . S
C1182 H1172 0.930 . S
C1182 C1180 1.419 . S
C1182 C1183 1.362 . S
C1183 H1173 0.930 . S
C1183 C1176 1.409 . S
C1183 C1182 1.362 . S
H1184 C1190 0.930 . S
H1185 C1193 0.930 . S
H1186 C1194 0.930 . S
H1187 C1195 0.930 . S
H1188 C1198 0.930 . S
H1189 C1199 0.930 . S
C1190 H1184 0.930 . S
C1190 C1191 1.355 . S
C1190 C1192 1.415 . S
C1191 C1190 1.355 . S
C1191 C1193 1.419 . S
C1192 C1190 1.415 . S
C1192 C1197 1.425 . S
C1192 C1199 1.409 . S
C1193 H1185 0.930 . S
C1193 C1191 1.419 . S
C1193 C1194 1.362 . S
C1194 H1186 0.930 . S
C1194 C1193 1.362 . S
C1194 C1197 1.409 . S
C1195 H1187 0.930 . S
C1195 C1196 1.355 . S
C1195 C1197 1.415 . S
C1196 C1195 1.355 . S
C1196 C1198 1.419 . S
C1197 C1192 1.425 . S
C1197 C1194 1.409 . S
C1197 C1195 1.415 . S
C1198 H1188 0.930 . S
C1198 C1196 1.419 . S
C1198 C1199 1.362 . S
C1199 H1189 0.930 . S
C1199 C1192 1.409 . S
C1199 C1198 1.362 . S
H1200 C1206 0.930 . S
H1201 C1209 0.930 . S
H1202 C1210 0.930 . S
H1203 C1211 0.930 . S
H1204 C1214 0.930 . S
H1205 C1215 0.930 . S
C1206 H1200 0.930 . S
C1206 C1207 1.355 . S
C1206 C1208 1.415 . S
C1207 C1206 1.355 . S
C1207 C1209 1.419 . S
C1208 C1206 1.415 . S
C1208 C1213 1.425 . S
C1208 C1215 1.409 . S
C1209 H1201 0.930 . S
C1209 C1207 1.419 . S
C1209 C1210 1.362 . S
C1210 H1202 0.930 . S
C1210 C1209 1.362 . S
C1210 C1213 1.409 . S
C1211 H1203 0.930 . S
C1211 C1212 1.355 . S
C1211 C1213 1.415 . S
C1212 C1211 1.355 . S
C1212 C1214 1.419 . S
C1213 C1208 1.425 . S
C1213 C1210 1.409 . S
C1213 C1211 1.415 . S
C1214 H1204 0.930 . S
C1214 C1212 1.419 . S
C1214 C1215 1.362 . S
C1215 H1205 0.930 . S
C1215 C1208 1.409 . S
C1215 C1214 1.362 . S
H1216 C1222 0.930 . S
H1217 C1225 0.930 . S
H1218 C1226 0.930 . S
H1219 C1227 0.930 . S
H1220 C1230 0.930 . S
H1221 C1231 0.930 . S
C1222 H1216 0.930 . S
C1222 C1223 1.355 . S
C1222 C1224 1.415 . S
C1223 C1222 1.355 . S
C1223 C1225 1.419 . S
C1224 C1222 1.415 . S
C1224 C1229 1.425 . S
C1224 C1231 1.409 . S
C1225 H1217 0.930 . S
C1225 C1223 1.419 . S
C1225 C1226 1.362 . S
C1226 H1218 0.930 . S
C1226 C1225 1.362 . S
C1226 C1229 1.409 . S
C1227 H1219 0.930 . S
C1227 C1228 1.355 . S
C1227 C1229 1.415 . S
C1228 C1227 1.355 . S
C1228 C1230 1.419 . S
C1229 C1224 1.425 . S
C1229 C1226 1.409 . S
C1229 C1227 1.415 . S
C1230 H1220 0.930 . S
C1230 C1228 1.419 . S
C1230 C1231 1.362 . S
C1231 H1221 0.930 . S
C1231 C1224 1.409 . S
C1231 C1230 1.362 . S
H1232 C1238 0.930 . S
H1233 C1241 0.930 . S
H1234 C1242 0.930 . S
H1235 C1243 0.930 . S
H1236 C1246 0.930 . S
H1237 C1247 0.930 . S
C1238 H1232 0.930 . S
C1238 C1239 1.355 . S
C1238 C1240 1.415 . S
C1239 C1238 1.355 . S
C1239 C1241 1.419 . S
C1240 C1238 1.415 . S
C1240 C1245 1.425 . S
C1240 C1247 1.409 . S
C1241 H1233 0.930 . S
C1241 C1239 1.419 . S
C1241 C1242 1.362 . S
C1242 H1234 0.930 . S
C1242 C1241 1.362 . S
C1242 C1245 1.409 . S
C1243 H1235 0.930 . S
C1243 C1244 1.355 . S
C1243 C1245 1.415 . S
C1244 C1243 1.355 . S
C1244 C1246 1.419 . S
C1245 C1240 1.425 . S
C1245 C1242 1.409 . S
C1245 C1243 1.415 . S
C1246 H1236 0.930 . S
C1246 C1244 1.419 . S
C1246 C1247 1.362 . S
C1247 H1237 0.930 . S
C1247 C1240 1.409 . S
C1247 C1246 1.362 . S
H1248 C1254 0.930 . S
H1249 C1257 0.930 . S
H1250 C1258 0.930 . S
H1251 C1259 0.930 . S
H1252 C1262 0.930 . S
H1253 C1263 0.930 . S
C1254 H1248 0.930 . S
C1254 C1255 1.355 . S
C1254 C1256 1.415 . S
C1255 C1254 1.355 . S
C1255 C1257 1.419 . S
C1256 C1254 1.415 . S
C1256 C1261 1.425 . S
C1256 C1263 1.409 . S
C1257 H1249 0.930 . S
C1257 C1255 1.419 . S
C1257 C1258 1.362 . S
C1258 H1250 0.930 . S
C1258 C1257 1.362 . S
C1258 C1261 1.409 . S
C1259 H1251 0.930 . S
C1259 C1260 1.355 . S
C1259 C1261 1.415 . S
C1260 C1259 1.355 . S
C1260 C1262 1.419 . S
C1261 C1256 1.425 . S
C1261 C1258 1.409 . S
C1261 C1259 1.415 . S
C1262 H1252 0.930 . S
C1262 C1260 1.419 . S
C1262 C1263 1.362 . S
C1263 H1253 0.930 . S
C1263 C1256 1.409 . S
C1263 C1262 1.362 . S
H1264 C1270 0.930 . S
H1265 C1273 0.930 . S
H1266 C1274 0.930 . S
H1267 C1275 0.930 . S
H1268 C1278 0.930 . S
H1269 C1279 0.930 . S
C1270 H1264 0.930 . S
C1270 C1271 1.355 . S
C1270 C1272 1.415 . S
C1271 C1270 1.355 . S
C1271 C1273 1.419 . S
C1272 C1270 1.415 . S
C1272 C1277 1.425 . S
C1272 C1279 1.409 . S
C1273 H1265 0.930 . S
C1273 C1271 1.419 . S
C1273 C1274 1.362 . S
C1274 H1266 0.930 . S
C1274 C1273 1.362 . S
C1274 C1277 1.409 . S
C1275 H1267 0.930 . S
C1275 C1276 1.355 . S
C1275 C1277 1.415 . S
C1276 C1275 1.355 . S
C1276 C1278 1.419 . S
C1277 C1272 1.425 . S
C1277 C1274 1.409 . S
C1277 C1275 1.415 . S
C1278 H1268 0.930 . S
C1278 C1276 1.419 . S
C1278 C1279 1.362 . S
C1279 H1269 0.930 . S
C1279 C1272 1.409 . S
C1279 C1278 1.362 . S
H1280 C1286 0.930 . S
H1281 C1289 0.930 . S
H1282 C1290 0.930 . S
H1283 C1291 0.930 . S
H1284 C1294 0.930 . S
H1285 C1295 0.930 . S
C1286 H1280 0.930 . S
C1286 C1287 1.355 . S
C1286 C1288 1.415 . S
C1287 C1286 1.355 . S
C1287 C1289 1.419 . S
C1288 C1286 1.415 . S
C1288 C1293 1.425 . S
C1288 C1295 1.409 . S
C1289 H1281 0.930 . S
C1289 C1287 1.419 . S
C1289 C1290 1.362 . S
C1290 H1282 0.930 . S
C1290 C1289 1.362 . S
C1290 C1293 1.409 . S
C1291 H1283 0.930 . S
C1291 C1292 1.355 . S
C1291 C1293 1.415 . S
C1292 C1291 1.355 . S
C1292 C1294 1.419 . S
C1293 C1288 1.425 . S
C1293 C1290 1.409 . S
C1293 C1291 1.415 . S
C1294 H1284 0.930 . S
C1294 C1292 1.419 . S
C1294 C1295 1.362 . S
C1295 H1285 0.930 . S
C1295 C1288 1.409 . S
C1295 C1294 1.362 . S
H1296 C1302 0.930 . S
H1297 C1305 0.930 . S
H1298 C1306 0.930 . S
H1299 C1307 0.930 . S
H1300 C1310 0.930 . S
H1301 C1311 0.930 . S
C1302 H1296 0.930 . S
C1302 C1303 1.355 . S
C1302 C1304 1.415 . S
C1303 C1302 1.355 . S
C1303 C1305 1.419 . S
C1304 C1302 1.415 . S
C1304 C1309 1.425 . S
C1304 C1311 1.409 . S
C1305 H1297 0.930 . S
C1305 C1303 1.419 . S
C1305 C1306 1.362 . S
C1306 H1298 0.930 . S
C1306 C1305 1.362 . S
C1306 C1309 1.409 . S
C1307 H1299 0.930 . S
C1307 C1308 1.355 . S
C1307 C1309 1.415 . S
C1308 C1307 1.355 . S
C1308 C1310 1.419 . S
C1309 C1304 1.425 . S
C1309 C1306 1.409 . S
C1309 C1307 1.415 . S
C1310 H1300 0.930 . S
C1310 C1308 1.419 . S
C1310 C1311 1.362 . S
C1311 H1301 0.930 . S
C1311 C1304 1.409 . S
C1311 C1310 1.362 . S
H1312 C1318 0.930 . S
H1313 C1321 0.930 . S
H1314 C1322 0.930 . S
H1315 C1323 0.930 . S
H1316 C1326 0.930 . S
H1317 C1327 0.930 . S
C1318 H1312 0.930 . S
C1318 C1319 1.355 . S
C1318 C1320 1.415 . S
C1319 C1318 1.355 . S
C1319 C1321 1.419 . S
C1320 C1318 1.415 . S
C1320 C1325 1.425 . S
C1320 C1327 1.409 . S
C1321 H1313 0.930 . S
C1321 C1319 1.419 . S
C1321 C1322 1.362 . S
C1322 H1314 0.930 . S
C1322 C1321 1.362 . S
C1322 C1325 1.409 . S
C1323 H1315 0.930 . S
C1323 C1324 1.355 . S
C1323 C1325 1.415 . S
C1324 C1323 1.355 . S
C1324 C1326 1.419 . S
C1325 C1320 1.425 . S
C1325 C1322 1.409 . S
C1325 C1323 1.415 . S
C1326 H1316 0.930 . S
C1326 C1324 1.419 . S
C1326 C1327 1.362 . S
C1327 H1317 0.930 . S
C1327 C1320 1.409 . S
C1327 C1326 1.362 . S
H1328 C1334 0.930 . S
H1329 C1337 0.930 . S
H1330 C1338 0.930 . S
H1331 C1339 0.930 . S
H1332 C1342 0.930 . S
H1333 C1343 0.930 . S
C1334 H1328 0.930 . S
C1334 C1335 1.355 . S
C1334 C1336 1.415 . S
C1335 C1334 1.355 . S
C1335 C1337 1.419 . S
C1336 C1334 1.415 . S
C1336 C1341 1.425 . S
C1336 C1343 1.409 . S
C1337 H1329 0.930 . S
C1337 C1335 1.419 . S
C1337 C1338 1.362 . S
C1338 H1330 0.930 . S
C1338 C1337 1.362 . S
C1338 C1341 1.409 . S
C1339 H1331 0.930 . S
C1339 C1340 1.355 . S
C1339 C1341 1.415 . S
C1340 C1339 1.355 . S
C1340 C1342 1.419 . S
C1341 C1336 1.425 . S
C1341 C1338 1.409 . S
C1341 C1339 1.415 . S
C1342 H1332 0.930 . S
C1342 C1340 1.419 . S
C1342 C1343 1.362 . S
C1343 H1333 0.930 . S
C1343 C1336 1.409 . S
C1343 C1342 1.362 . S
H1344 C1350 0.930 . S
H1345 C1353 0.930 . S
H1346 C1354 0.930 . S
H1347 C1355 0.930 . S
H1348 C1358 0.930 . S
H1349 C1359 0.930 . S
C1350 H1344 0.930 . S
C1350 C1351 1.355 . S
C1350 C1352 1.415 . S
C1351 C1350 1.355 . S
C1351 C1353 1.419 . S
C1352 C1350 1.415 . S
C1352 C1357 1.425 . S
C1352 C1359 1.409 . S
C1353 H1345 0.930 . S
C1353 C1351 1.419 . S
C1353 C1354 1.362 . S
C1354 H1346 0.930 . S
C1354 C1353 1.362 . S
C1354 C1357 1.409 . S
C1355 H1347 0.930 . S
C1355 C1356 1.355 . S
C1355 C1357 1.415 . S
C1356 C1355 1.355 . S
C1356 C1358 1.419 . S
C1357 C1352 1.425 . S
C1357 C1354 1.409 . S
C1357 C1355 1.415 . S
C1358 H1348 0.930 . S
C1358 C1356 1.419 . S
C1358 C1359 1.362 . S
C1359 H1349 0.930 . S
C1359 C1352 1.409 . S
C1359 C1358 1.362 . S
H1360 C1366 0.930 . S
H1361 C1369 0.930 . S
H1362 C1370 0.930 . S
H1363 C1371 0.930 . S
H1364 C1374 0.930 . S
H1365 C1375 0.930 . S
C1366 H1360 0.930 . S
C1366 C1367 1.355 . S
C1366 C1368 1.415 . S
C1367 C1366 1.355 . S
C1367 C1369 1.419 . S
C1368 C1366 1.415 . S
C1368 C1373 1.425 . S
C1368 C1375 1.409 . S
C1369 H1361 0.930 . S
C1369 C1367 1.419 . S
C1369 C1370 1.362 . S
C1370 H1362 0.930 . S
C1370 C1369 1.362 . S
C1370 C1373 1.409 . S
C1371 H1363 0.930 . S
C1371 C1372 1.355 . S
C1371 C1373 1.415 . S
C1372 C1371 1.355 . S
C1372 C1374 1.419 . S
C1373 C1368 1.425 . S
C1373 C1370 1.409 . S
C1373 C1371 1.415 . S
C1374 H1364 0.930 . S
C1374 C1372 1.419 . S
C1374 C1375 1.362 . S
C1375 H1365 0.930 . S
C1375 C1368 1.409 . S
C1375 C1374 1.362 . S
H1376 C1382 0.930 . S
H1377 C1385 0.930 . S
H1378 C1386 0.930 . S
H1379 C1387 0.930 . S
H1380 C1390 0.930 . S
H1381 C1391 0.930 . S
C1382 H1376 0.930 . S
C1382 C1383 1.355 . S
C1382 C1384 1.415 . S
C1383 C1382 1.355 . S
C1383 C1385 1.419 . S
C1384 C1382 1.415 . S
C1384 C1389 1.425 . S
C1384 C1391 1.409 . S
C1385 H1377 0.930 . S
C1385 C1383 1.419 . S
C1385 C1386 1.362 . S
C1386 H1378 0.930 . S
C1386 C1385 1.362 . S
C1386 C1389 1.409 . S
C1387 H1379 0.930 . S
C1387 C1388 1.355 . S
C1387 C1389 1.415 . S
C1388 C1387 1.355 . S
C1388 C1390 1.419 . S
C1389 C1384 1.425 . S
C1389 C1386 1.409 . S
C1389 C1387 1.415 . S
C1390 H1380 0.930 . S
C1390 C1388 1.419 . S
C1390 C1391 1.362 . S
C1391 H1381 0.930 . S
C1391 C1384 1.409 . S
C1391 C1390 1.362 . S
H1392 C1398 0.930 . S
H1393 C1401 0.930 . S
H1394 C1402 0.930 . S
H1395 C1403 0.930 . S
H1396 C1406 0.930 . S
H1397 C1407 0.930 . S
C1398 H1392 0.930 . S
C1398 C1399 1.355 . S
C1398 C1400 1.415 . S
C1399 C1398 1.355 . S
C1399 C1401 1.419 . S
C1400 C1398 1.415 . S
C1400 C1405 1.425 . S
C1400 C1407 1.409 . S
C1401 H1393 0.930 . S
C1401 C1399 1.419 . S
C1401 C1402 1.362 . S
C1402 H1394 0.930 . S
C1402 C1401 1.362 . S
C1402 C1405 1.409 . S
C1403 H1395 0.930 . S
C1403 C1404 1.355 . S
C1403 C1405 1.415 . S
C1404 C1403 1.355 . S
C1404 C1406 1.419 . S
C1405 C1400 1.425 . S
C1405 C1402 1.409 . S
C1405 C1403 1.415 . S
C1406 H1396 0.930 . S
C1406 C1404 1.419 . S
C1406 C1407 1.362 . S
C1407 H1397 0.930 . S
C1407 C1400 1.409 . S
C1407 C1406 1.362 . S
H1408 C1414 0.930 . S
H1409 C1417 0.930 . S
H1410 C1418 0.930 . S
H1411 C1419 0.930 . S
H1412 C1422 0.930 . S
H1413 C1423 0.930 . S
C1414 H1408 0.930 . S
C1414 C1415 1.355 . S
C1414 C1416 1.415 . S
C1415 C1414 1.355 . S
C1415 C1417 1.419 . S
C1416 C1414 1.415 . S
C1416 C1421 1.425 . S
C1416 C1423 1.409 . S
C1417 H1409 0.930 . S
C1417 C1415 1.419 . S
C1417 C1418 1.362 . S
C1418 H1410 0.930 . S
C1418 C1417 1.362 . S
C1418 C1421 1.409 . S
C1419 H1411 0.930 . S
C1419 C1420 1.355 . S
C1419 C1421 1.415 . S
C1420 C1419 1.355 . S
C1420 C1422 1.419 . S
C1421 C1416 1.425 . S
C1421 C1418 1.409 . S
C1421 C1419 1.415 . S
C1422 H1412 0.930 . S
C1422 C1420 1.419 . S
C1422 C1423 1.362 . S
C1423 H1413 0.930 . S
C1423 C1416 1.409 . S
C1423 C1422 1.362 . S
H1424 C1430 0.930 . S
H1425 C1433 0.930 . S
H1426 C1434 0.930 . S
H1427 C1435 0.930 . S
H1428 C1438 0.930 . S
H1429 C1439 0.930 . S
C1430 H1424 0.930 . S
C1430 C1431 1.355 . S
C1430 C1432 1.415 . S
C1431 C1430 1.355 . S
C1431 C1433 1.419 . S
C1432 C1430 1.415 . S
C1432 C1437 1.425 . S
C1432 C1439 1.409 . S
C1433 H1425 0.930 . S
C1433 C1431 1.419 . S
C1433 C1434 1.362 . S
C1434 H1426 0.930 . S
C1434 C1433 1.362 . S
C1434 C1437 1.409 . S
C1435 H1427 0.930 . S
C1435 C1436 1.355 . S
C1435 C1437 1.415 . S
C1436 C1435 1.355 . S
C1436 C1438 1.419 . S
C1437 C1432 1.425 . S
C1437 C1434 1.409 . S
C1437 C1435 1.415 . S
C1438 H1428 0.930 . S
C1438 C1436 1.419 . S
C1438 C1439 1.362 . S
C1439 H1429 0.930 . S
C1439 C1432 1.409 . S
C1439 C1438 1.362 . S
H1440 C1446 0.930 . S
H1441 C1449 0.930 . S
H1442 C1450 0.930 . S
H1443 C1451 0.930 . S
H1444 C1454 0.930 . S
H1445 C1455 0.930 . S
C1446 H1440 0.930 . S
C1446 C1447 1.355 . S
C1446 C1448 1.415 . S
C1447 C1446 1.355 . S
C1447 C1449 1.419 . S
C1448 C1446 1.415 . S
C1448 C1453 1.425 . S
C1448 C1455 1.409 . S
C1449 H1441 0.930 . S
C1449 C1447 1.419 . S
C1449 C1450 1.362 . S
C1450 H1442 0.930 . S
C1450 C1449 1.362 . S
C1450 C1453 1.409 . S
C1451 H1443 0.930 . S
C1451 C1452 1.355 . S
C1451 C1453 1.415 . S
C1452 C1451 1.355 . S
C1452 C1454 1.419 . S
C1453 C1448 1.425 . S
C1453 C1450 1.409 . S
C1453 C1451 1.415 . S
C1454 H1444 0.930 . S
C1454 C1452 1.419 . S
C1454 C1455 1.362 . S
C1455 H1445 0.930 . S
C1455 C1448 1.409 . S
C1455 C1454 1.362 . S
H1456 C1462 0.930 . S
H1457 C1465 0.930 . S
H1458 C1466 0.930 . S
H1459 C1467 0.930 . S
H1460 C1470 0.930 . S
H1461 C1471 0.930 . S
C1462 H1456 0.930 . S
C1462 C1463 1.355 . S
C1462 C1464 1.415 . S
C1463 C1462 1.355 . S
C1463 C1465 1.419 . S
C1464 C1462 1.415 . S
C1464 C1469 1.425 . S
C1464 C1471 1.409 . S
C1465 H1457 0.930 . S
C1465 C1463 1.419 . S
C1465 C1466 1.362 . S
C1466 H1458 0.930 . S
C1466 C1465 1.362 . S
C1466 C1469 1.409 . S
C1467 H1459 0.930 . S
C1467 C1468 1.355 . S
C1467 C1469 1.415 . S
C1468 C1467 1.355 . S
C1468 C1470 1.419 . S
C1469 C1464 1.425 . S
C1469 C1466 1.409 . S
C1469 C1467 1.415 . S
C1470 H1460 0.930 . S
C1470 C1468 1.419 . S
C1470 C1471 1.362 . S
C1471 H1461 0.930 . S
C1471 C1464 1.409 . S
C1471 C1470 1.362 . S
H1472 C1478 0.930 . S
H1473 C1481 0.930 . S
H1474 C1482 0.930 . S
H1475 C1483 0.930 . S
H1476 C1486 0.930 . S
H1477 C1487 0.930 . S
C1478 H1472 0.930 . S
C1478 C1479 1.355 . S
C1478 C1480 1.415 . S
C1479 C1478 1.355 . S
C1479 C1481 1.419 . S
C1480 C1478 1.415 . S
C1480 C1485 1.425 . S
C1480 C1487 1.409 . S
C1481 H1473 0.930 . S
C1481 C1479 1.419 . S
C1481 C1482 1.362 . S
C1482 H1474 0.930 . S
C1482 C1481 1.362 . S
C1482 C1485 1.409 . S
C1483 H1475 0.930 . S
C1483 C1484 1.355 . S
C1483 C1485 1.415 . S
C1484 C1483 1.355 . S
C1484 C1486 1.419 . S
C1485 C1480 1.425 . S
C1485 C1482 1.409 . S
C1485 C1483 1.415 . S
C1486 H1476 0.930 . S
C1486 C1484 1.419 . S
C1486 C1487 1.362 . S
C1487 H1477 0.930 . S
C1487 C1480 1.409 . S
C1487 C1486 1.362 . S
H1488 C1494 0.930 . S
H1489 C1497 0.930 . S
H1490 C1498 0.930 . S
H1491 C1499 0.930 . S
H1492 C1502 0.930 . S
H1493 C1503 0.930 . S
C1494 H1488 0.930 . S
C1494 C1495 1.355 . S
C1494 C1496 1.415 . S
C1495 C1494 1.355 . S
C1495 C1497 1.419 . S
C1496 C1494 1.415 . S
C1496 C1501 1.425 . S
C1496 C1503 1.409 . S
C1497 H1489 0.930 . S
C1497 C1495 1.419 . S
C1497 C1498 1.362 . S
C1498 H1490 0.930 . S
C1498 C1497 1.362 . S
C1498 C1501 1.409 . S
C1499 H1491 0.930 . S
C1499 C1500 1.355 . S
C1499 C1501 1.415 . S
C1500 C1499 1.355 . S
C1500 C1502 1.419 . S
C1501 C1496 1.425 . S
C1501 C1498 1.409 . S
C1501 C1499 1.415 . S
C1502 H1492 0.930 . S
C1502 C1500 1.419 . S
C1502 C1503 1.362 . S
C1503 H1493 0.930 . S
C1503 C1496 1.409 . S
C1503 C1502 1.362 . S
H1504 C1510 0.930 . S
H1505 C1513 0.930 . S
H1506 C1514 0.930 . S
H1507 C1515 0.930 . S
H1508 C1518 0.930 . S
H1509 C1519 0.930 . S
C1510 H1504 0.930 . S
C1510 C1511 1.355 . S
C1510 C1512 1.415 . S
C1511 C1510 1.355 . S
C1511 C1513 1.419 . S
C1512 C1510 1.415 . S
C1512 C1517 1.425 . S
C1512 C1519 1.409 . S
C1513 H1505 0.930 . S
C1513 C1511 1.419 . S
C1513 C1514 1.362 . S
C1514 H1506 0.930 . S
C1514 C1513 1.362 . S
C1514 C1517 1.409 . S
C1515 H1507 0.930 . S
C1515 C1516 1.355 . S
C1515 C1517 1.415 . S
C1516 C1515 1.355 . S
C1516 C1518 1.419 . S
C1517 C1512 1.425 . S
C1517 C1514 1.409 . S
C1517 C1515 1.415 . S
C1518 H1508 0.930 . S
C1518 C1516 1.419 . S
C1518 C1519 1.362 . S
C1519 H1509 0.930 . S
C1519 C1512 1.409 . S
C1519 C1518 1.362 . S
H1520 C1526 0.930 . S
H1521 C1529 0.930 . S
H1522 C1530 0.930 . S
H1523 C1531 0.930 . S
H1524 C1534 0.930 . S
H1525 C1535 0.930 . S
C1526 H1520 0.930 . S
C1526 C1527 1.355 . S
C1526 C1528 1.415 . S
C1527 C1526 1.355 . S
C1527 C1529 1.419 . S
C1528 C1526 1.415 . S
C1528 C1533 1.425 . S
C1528 C1535 1.409 . S
C1529 H1521 0.930 . S
C1529 C1527 1.419 . S
C1529 C1530 1.362 . S
C1530 H1522 0.930 . S
C1530 C1529 1.362 . S
C1530 C1533 1.409 . S
C1531 H1523 0.930 . S
C1531 C1532 1.355 . S
C1531 C1533 1.415 . S
C1532 C1531 1.355 . S
C1532 C1534 1.419 . S
C1533 C1528 1.425 . S
C1533 C1530 1.409 . S
C1533 C1531 1.415 . S
C1534 H1524 0.930 . S
C1534 C1532 1.419 . S
C1534 C1535 1.362 . S
C1535 H1525 0.930 . S
C1535 C1528 1.409 . S
C1535 C1534 1.362 . S
H1536 C1542 0.930 . S
H1537 C1545 0.930 . S
H1538 C1546 0.930 . S
H1539 C1547 0.930 . S
H1540 C1550 0.930 . S
H1541 C1551 0.930 . S
C1542 H1536 0.930 . S
C1542 C1543 1.355 . S
C1542 C1544 1.415 . S
C1543 C1542 1.355 . S
C1543 C1545 1.419 . S
C1544 C1542 1.415 . S
C1544 C1549 1.425 . S
C1544 C1551 1.409 . S
C1545 H1537 0.930 . S
C1545 C1543 1.419 . S
C1545 C1546 1.362 . S
C1546 H1538 0.930 . S
C1546 C1545 1.362 . S
C1546 C1549 1.409 . S
C1547 H1539 0.930 . S
C1547 C1548 1.355 . S
C1547 C1549 1.415 . S
C1548 C1547 1.355 . S
C1548 C1550 1.419 . S
C1549 C1544 1.425 . S
C1549 C1546 1.409 . S
C1549 C1547 1.415 . S
C1550 H1540 0.930 . S
C1550 C1548 1.419 . S
C1550 C1551 1.362 . S
C1551 H1541 0.930 . S
C1551 C1544 1.409 . S
C1551 C1550 1.362 . S
H1552 C1558 0.930 . S
H1553 C1561 0.930 . S
H1554 C1562 0.930 . S
H1555 C1563 0.930 . S
H1556 C1566 0.930 . S
H1557 C1567 0.930 . S
C1558 H1552 0.930 . S
C1558 C1559 1.355 . S
C1558 C1560 1.415 . S
C1559 C1558 1.355 . S
C1559 C1561 1.419 . S
C1560 C1558 1.415 . S
C1560 C1565 1.425 . S
C1560 C1567 1.409 . S
C1561 H1553 0.930 . S
C1561 C1559 1.419 . S
C1561 C1562 1.362 . S
C1562 H1554 0.930 . S
C1562 C1561 1.362 . S
C1562 C1565 1.409 . S
C1563 H1555 0.930 . S
C1563 C1564 1.355 . S
C1563 C1565 1.415 . S
C1564 C1563 1.355 . S
C1564 C1566 1.419 . S
C1565 C1560 1.425 . S
C1565 C1562 1.409 . S
C1565 C1563 1.415 . S
C1566 H1556 0.930 . S
C1566 C1564 1.419 . S
C1566 C1567 1.362 . S
C1567 H1557 0.930 . S
C1567 C1560 1.409 . S
C1567 C1566 1.362 . S
H1568 C1574 0.930 . S
H1569 C1577 0.930 . S
H1570 C1578 0.930 . S
H1571 C1579 0.930 . S
H1572 C1582 0.930 . S
H1573 C1583 0.930 . S
C1574 H1568 0.930 . S
C1574 C1575 1.355 . S
C1574 C1576 1.415 . S
C1575 C1574 1.355 . S
C1575 C1577 1.419 . S
C1576 C1574 1.415 . S
C1576 C1581 1.425 . S
C1576 C1583 1.409 . S
C1577 H1569 0.930 . S
C1577 C1575 1.419 . S
C1577 C1578 1.362 . S
C1578 H1570 0.930 . S
C1578 C1577 1.362 . S
C1578 C1581 1.409 . S
C1579 H1571 0.930 . S
C1579 C1580 1.355 . S
C1579 C1581 1.415 . S
C1580 C1579 1.355 . S
C1580 C1582 1.419 . S
C1581 C1576 1.425 . S
C1581 C1578 1.409 . S
C1581 C1579 1.415 . S
C1582 H1572 0.930 . S
C1582 C1580 1.419 . S
C1582 C1583 1.362 . S
C1583 H1573 0.930 . S
C1583 C1576 1.409 . S
C1583 C1582 1.362 . S
H1584 C1590 0.930 . S
H1585 C1593 0.930 . S
H1586 C1594 0.930 . S
H1587 C1595 0.930 . S
H1588 C1598 0.930 . S
H1589 C1599 0.930 . S
C1590 H1584 0.930 . S
C1590 C1591 1.355 . S
C1590 C1592 1.415 . S
C1591 C1590 1.355 . S
C1591 C1593 1.419 . S
C1592 C1590 1.415 . S
C1592 C1597 1.425 . S
C1592 C1599 1.409 . S
C1593 H1585 0.930 . S
C1593 C1591 1.419 . S
C1593 C1594 1.362 . S
C1594 H1586 0.930 . S
C1594 C1593 1.362 . S
C1594 C1597 1.409 . S
C1595 H1587 0.930 . S
C1595 C1596 1.355 . S
C1595 C1597 1.415 . S
C1596 C1595 1.355 . S
C1596 C1598 1.419 . S
C1597 C1592 1.425 . S
C1597 C1594 1.409 . S
C1597 C1595 1.415 . S
C1598 H1588 0.930 . S
C1598 C1596 1.419 . S
C1598 C1599 1.362 . S
C1599 H1589 0.930 . S
C1599 C1592 1.409 . S
C1599 C1598 1.362 . S
H1600 C1606 0.930 . S
H1601 C1609 0.930 . S
H1602 C1610 0.930 . S
H1603 C1611 0.930 . S
H1604 C1614 0.930 . S
H1605 C1615 0.930 . S
C1606 H1600 0.930 . S
C1606 C1607 1.355 . S
C1606 C1608 1.415 . S
C1607 C1606 1.355 . S
C1607 C1609 1.419 . S
C1608 C1606 1.415 . S
C1608 C1613 1.425 . S
C1608 C1615 1.409 . S
C1609 H1601 0.930 . S
C1609 C1607 1.419 . S
C1609 C1610 1.362 . S
C1610 H1602 0.930 . S
C1610 C1609 1.362 . S
C1610 C1613 1.409 . S
C1611 H1603 0.930 . S
C1611 C1612 1.355 . S
C1611 C1613 1.415 . S
C1612 C1611 1.355 . S
C1612 C1614 1.419 . S
C1613 C1608 1.425 . S
C1613 C1610 1.409 . S
C1613 C1611 1.415 . S
C1614 H1604 0.930 . S
C1614 C1612 1.419 . S
C1614 C1615 1.362 . S
C1615 H1605 0.930 . S
C1615 C1608 1.409 . S
C1615 C1614 1.362 . S
H1616 C1622 0.930 . S
H1617 C1625 0.930 . S
H1618 C1626 0.930 . S
H1619 C1627 0.930 . S
H1620 C1630 0.930 . S
H1621 C1631 0.930 . S
C1622 H1616 0.930 . S
C1622 C1623 1.355 . S
C1622 C1624 1.415 . S
C1623 C1622 1.355 . S
C1623 C1625 1.419 . S
C1624 C1622 1.415 . S
C1624 C1629 1.425 . S
C1624 C1631 1.409 . S
C1625 H1617 0.930 . S
C1625 C1623 1.419 . S
C1625 C1626 1.362 . S
C1626 H1618 0.930 . S
C1626 C1625 1.362 . S
C1626 C1629 1.409 . S
C1627 H1619 0.930 . S
C1627 C1628 1.355 . S
C1627 C1629 1.415 . S
C1628 C1627 1.355 . S
C1628 C1630 1.419 . S
C1629 C1624 1.425 . S
C1629 C1626 1.409 . S
C1629 C1627 1.415 . S
C1630 H1620 0.930 . S
C1630 C1628 1.419 . S
C1630 C1631 1.362 . S
C1631 H1621 0.930 . S
C1631 C1624 1.409 . S
C1631 C1630 1.362 . S
H1632 C1638 0.930 . S
H1633 C1641 0.930 . S
H1634 C1642 0.930 . S
H1635 C1643 0.930 . S
H1636 C1646 0.930 . S
H1637 C1647 0.930 . S
C1638 H1632 0.930 . S
C1638 C1639 1.355 . S
C1638 C1640 1.415 . S
C1639 C1638 1.355 . S
C1639 C1641 1.419 . S
C1640 C1638 1.415 . S
C1640 C1645 1.425 . S
C1640 C1647 1.409 . S
C1641 H1633 0.930 . S
C1641 C1639 1.419 . S
C1641 C1642 1.362 . S
C1642 H1634 0.930 . S
C1642 C1641 1.362 . S
C1642 C1645 1.409 . S
C1643 H1635 0.930 . S
C1643 C1644 1.355 . S
C1643 C1645 1.415 . S
C1644 C1643 1.355 . S
C1644 C1646 1.419 . S
C1645 C1640 1.425 . S
C1645 C1642 1.409 . S
C1645 C1643 1.415 . S
C1646 H1636 0.930 . S
C1646 C1644 1.419 . S
C1646 C1647 1.362 . S
C1647 H1637 0.930 . S
C1647 C1640 1.409 . S
C1647 C1646 1.362 . S
H1648 C1654 0.930 . S
H1649 C1657 0.930 . S
H1650 C1658 0.930 . S
H1651 C1659 0.930 . S
H1652 C1662 0.930 . S
H1653 C1663 0.930 . S
C1654 H1648 0.930 . S
C1654 C1655 1.355 . S
C1654 C1656 1.415 . S
C1655 C1654 1.355 . S
C1655 C1657 1.419 . S
C1656 C1654 1.415 . S
C1656 C1661 1.425 . S
C1656 C1663 1.409 . S
C1657 H1649 0.930 . S
C1657 C1655 1.419 . S
C1657 C1658 1.362 . S
C1658 H1650 0.930 . S
C1658 C1657 1.362 . S
C1658 C1661 1.409 . S
C1659 H1651 0.930 . S
C1659 C1660 1.355 . S
C1659 C1661 1.415 . S
C1660 C1659 1.355 . S
C1660 C1662 1.419 . S
C1661 C1656 1.425 . S
C1661 C1658 1.409 . S
C1661 C1659 1.415 . S
C1662 H1652 0.930 . S
C1662 C1660 1.419 . S
C1662 C1663 1.362 . S
C1663 H1653 0.930 . S
C1663 C1656 1.409 . S
C1663 C1662 1.362 . S
H1664 C1670 0.930 . S
H1665 C1673 0.930 . S
H1666 C1674 0.930 . S
H1667 C1675 0.930 . S
H1668 C1678 0.930 . S
H1669 C1679 0.930 . S
C1670 H1664 0.930 . S
C1670 C1671 1.355 . S
C1670 C1672 1.415 . S
C1671 C1670 1.355 . S
C1671 C1673 1.419 . S
C1672 C1670 1.415 . S
C1672 C1677 1.425 . S
C1672 C1679 1.409 . S
C1673 H1665 0.930 . S
C1673 C1671 1.419 . S
C1673 C1674 1.362 . S
C1674 H1666 0.930 . S
C1674 C1673 1.362 . S
C1674 C1677 1.409 . S
C1675 H1667 0.930 . S
C1675 C1676 1.355 . S
C1675 C1677 1.415 . S
C1676 C1675 1.355 . S
C1676 C1678 1.419 . S
C1677 C1672 1.425 . S
C1677 C1674 1.409 . S
C1677 C1675 1.415 . S
C1678 H1668 0.930 . S
C1678 C1676 1.419 . S
C1678 C1679 1.362 . S
C1679 H1669 0.930 . S
C1679 C1672 1.409 . S
C1679 C1678 1.362 . S
C535 C10 1.141 . S
C540 C153 1.131 . S
C551 C29 1.151 1_565 S
C556 C162 1.150 1_545 S
C567 C95 1.151 . S
C572 C52 1.149 . S
C583 C87 1.155 1_545 S
C588 C128 1.149 1_565 S
C599 C74 1.106 1_565 S
C604 C40 1.106 1_545 S
C615 C65 1.174 . S
C620 C15 1.194 . S
C631 C117 1.173 . S
C636 C175 1.194 . S
C647 C140 1.107 . S
C652 C106 1.100 1_455 S
C663 C191 1.140 . S
C668 C208 1.144 . S
C679 C186 1.145 1_554 S
C684 C227 1.144 1_556 S
C695 C238 1.143 . S
C700 C263 1.136 . S
C711 C250 1.143 1_554 S
C716 C213 1.137 1_556 S
C727 C274 1.141 . S
C732 C417 1.131 . S
C743 C426 1.142 . S
C748 C293 1.139 . S
C759 C318 1.151 . S
C764 C367 1.157 . S
C775 C337 1.156 . S
C780 C392 1.150 . S
C791 C348 1.106 . S
C796 C304 1.107 . S
C807 C323 1.173 . S
C812 C279 1.193 . S
C823 C381 1.174 . S
C828 C439 1.193 . S
C839 C404 1.103 . S
C844 C362 1.108 . S
C855 C455 1.151 . S
C860 C472 1.147 . S
C871 C491 1.148 . S
C876 C450 1.145 . S
C887 C502 1.149 . S
C892 C527 1.148 . S
C903 C514 1.142 . S
C908 C477 1.133 . S
C919 C524 0.988 . S
C924 C8 0.982 . S
C935 C470 1.007 . S
C940 C43 0.989 . S
C951 C62 0.994 . S
C956 C448 0.968 . S
C967 C81 0.915 . S
C972 C494 0.919 . S
C983 C505 1.040 . S
C988 C109 1.049 . S
C999 C120 0.989 . S
C1004 C521 0.958 . S
C1015 C469 0.966 . S
C1020 C147 0.986 . S
C1031 C172 0.938 . S
C1036 C447 0.977 . S
C1047 C360 0.905 . S
C1052 C84 0.949 . S
C1063 C7 1.019 . S
C1068 C395 0.993 . S
C1079 C32 0.911 . S
C1084 C414 0.965 . S
C1095 C59 0.993 . S
C1100 C433 1.018 . S
C1111 C271 1.018 . S
C1116 C131 1.035 . S
C1127 C150 0.969 . S
C1132 C296 1.007 . S
C1143 C169 0.976 . S
C1148 C315 1.003 . S
C1159 C98 1.001 . S
C1164 C340 0.993 . S
C1175 C436 0.937 . S
C1180 C183 0.970 . S
C1191 C206 0.957 . S
C1196 C307 0.999 . S
C1207 C316 0.927 . S
C1212 C184 0.893 . S
C1223 C351 0.937 . S
C1228 C230 0.977 . S
C1239 C260 0.939 . S
C1244 C272 0.991 . S
C1255 C384 0.982 . S
C1260 C257 1.024 . S
C1271 C411 1.048 . S
C1276 C205 1.045 . S
C1287 C359 0.968 . S
C1292 C241 0.960 . S
C1303 C103 0.917 . S
C1308 C458 0.955 . S
C1319 C118 0.985 . S
C1324 C492 0.951 . S
C1335 C139 0.959 . S
C1340 C516 0.991 . S
C1351 C480 0.966 . S
C1356 C164 0.902 . S
C1367 C483 0.929 . S
C1372 C18 0.937 . S
C1383 C37 0.943 . S
C1388 C461 0.960 . S
C1399 C54 1.020 . S
C1404 C499 0.988 . S
C1415 C513 0.968 . S
C1420 C73 0.996 . S
C1431 C285 0.937 . S
C1436 C161 0.961 . S
C1447 C96 0.994 . S
C1452 C294 0.978 . S
C1463 C329 0.928 . S
C1468 C125 0.927 . S
C1479 C338 0.977 . S
C1484 C142 0.915 . S
C1495 C370 0.996 . S
C1500 C30 0.955 . S
C1511 C51 0.929 . S
C1516 C389 0.927 . S
C1527 C406 0.885 . S
C1532 C76 0.931 . S
C1543 C425 0.936 . S
C1548 C21 0.960 . S
C1559 C249 1.035 . S
C1564 C345 1.019 . S
C1575 C228 0.870 . S
C1580 C382 0.900 . S
C1591 C403 0.980 . S
C1596 C252 0.995 . S
C1607 C216 0.985 . S
C1612 C428 0.950 . S
C1623 C194 0.896 . S
C1628 C373 0.946 . S
C1639 C301 1.006 . S
C1644 C197 0.980 . S
C1655 C235 0.997 . S
C1660 C326 1.025 . S
C1671 C282 0.986 . S
C1676 C219 0.952 . S
