# Generated by pormake.
# Topology dia, (4)-cn, num edge types: 1
# Building blocks:
#     Node 0, Type 0, BuildingBlock: QUQFOY_clean_sbu_1, # of connection points: 4
#     Node 1, Type 0, BuildingBlock: QUQFOY_clean_sbu_1, # of connection points: 4
#     Node 2, Type 0, BuildingBlock: QUQFOY_clean_sbu_1, # of connection points: 4
#     Node 3, Type 0, BuildingBlock: QUQFOY_clean_sbu_1, # of connection points: 4
#     Node 4, Type 0, BuildingBlock: QUQFOY_clean_sbu_1, # of connection points: 4
#     Node 5, Type 0, BuildingBlock: QUQFOY_clean_sbu_1, # of connection points: 4
#     Node 6, Type 0, BuildingBlock: QUQFOY_clean_sbu_1, # of connection points: 4
#     Node 7, Type 0, BuildingBlock: QUQFOY_clean_sbu_1, # of connection points: 4
#     Edge 8, Type (0, 0), BuildingBlock: FUNLAD_clean_linker_1, # of connection points: 2
#     Edge 9, Type (0, 0), BuildingBlock: FUNLAD_clean_linker_1, # of connection points: 2
#     Edge 10, Type (0, 0), BuildingBlock: FUNLAD_clean_linker_1, # of connection points: 2
#     Edge 11, Type (0, 0), BuildingBlock: FUNLAD_clean_linker_1, # of connection points: 2
#     Edge 12, Type (0, 0), BuildingBlock: FUNLAD_clean_linker_1, # of connection points: 2
#     Edge 13, Type (0, 0), BuildingBlock: FUNLAD_clean_linker_1, # of connection points: 2
#     Edge 14, Type (0, 0), BuildingBlock: FUNLAD_clean_linker_1, # of connection points: 2
#     Edge 15, Type (0, 0), BuildingBlock: FUNLAD_clean_linker_1, # of connection points: 2
#     Edge 16, Type (0, 0), BuildingBlock: FUNLAD_clean_linker_1, # of connection points: 2
#     Edge 17, Type (0, 0), BuildingBlock: FUNLAD_clean_linker_1, # of connection points: 2
#     Edge 18, Type (0, 0), BuildingBlock: FUNLAD_clean_linker_1, # of connection points: 2
#     Edge 19, Type (0, 0), BuildingBlock: FUNLAD_clean_linker_1, # of connection points: 2
#     Edge 20, Type (0, 0), BuildingBlock: FUNLAD_clean_linker_1, # of connection points: 2
#     Edge 21, Type (0, 0), BuildingBlock: FUNLAD_clean_linker_1, # of connection points: 2
#     Edge 22, Type (0, 0), BuildingBlock: FUNLAD_clean_linker_1, # of connection points: 2
#     Edge 23, Type (0, 0), BuildingBlock: FUNLAD_clean_linker_1, # of connection points: 2
# Relax obj value: 0.200
# Max RMSD: 0.231
# Mean RMSD: 0.231
data_MOF--net-dia--node1-QUQFOY_clean_sbu_1--edge1-FUNLAD_clean_linker_1
_symmetry_space_group_name_H-M    P1
_symmetry_Int_Tables_number       1
_symmetry_cell_setting            triclinic
loop_
_symmetry_equiv_pos_as_xyz
'x, y, z'
_cell_length_a     34.948478
_cell_length_b     35.02727
_cell_length_c     42.114907
_cell_angle_alpha  90.244182
_cell_angle_beta   89.814282
_cell_angle_gamma 104.30929
loop_
_atom_site_label
_atom_site_type_symbol
_atom_site_fract_x
_atom_site_fract_y
_atom_site_fract_z
_atom_type_partial_charge
O0 O 0.15446 0.18997 0.60483 0.0
Cd1 Cd 0.11009 0.15126 0.62905 0.0
Cd2 Cd 0.15931 0.10316 0.62123 0.0
O3 O 0.1946 0.15075 0.59857 0.0
O4 O 0.07561 0.18532 0.6435 0.0
O5 O 0.10535 0.1532 0.67668 0.0
C6 C 0.08262 0.17666 0.67223 0.0
C7 C 0.18567 0.07391 0.66232 0.0
C8 C 0.18626 0.18359 0.59407 0.0
C9 C 0.08077 0.0783 0.58973 0.0
O10 O 0.11387 0.07037 0.5944 0.0
O11 O 0.07279 0.10834 0.60242 0.0
O12 O 0.19381 0.06809 0.63307 0.0
O13 O 0.16214 0.09628 0.66832 0.0
O14 O 0.82277 0.35325 0.9026 0.0
Cd15 Cd 0.85686 0.40157 0.87972 0.0
Cd16 Cd 0.90393 0.34978 0.86728 0.0
O17 O 0.85958 0.3118 0.8919 0.0
O18 O 0.82286 0.43944 0.87735 0.0
O19 O 0.84599 0.41512 0.8348 0.0
C20 C 0.82548 0.43765 0.84692 0.0
C21 C 0.92927 0.32393 0.82317 0.0
C22 C 0.82954 0.31938 0.90497 0.0
C23 C 0.93866 0.42156 0.90682 0.0
O24 O 0.94379 0.39048 0.89378 0.0
O25 O 0.90638 0.43162 0.90362 0.0
O26 O 0.93628 0.31428 0.85162 0.0
O27 O 0.90757 0.34852 0.8195 0.0
O28 O 0.64072 0.18194 0.10517 0.0
Cd29 Cd 0.59811 0.14185 0.12949 0.0
Cd30 Cd 0.65287 0.09913 0.12889 0.0
O31 O 0.68427 0.14586 0.10243 0.0
O32 O 0.56024 0.17244 0.14393 0.0
O33 O 0.59465 0.14497 0.17704 0.0
C34 C 0.56974 0.16622 0.17267 0.0
C35 C 0.68422 0.07664 0.17102 0.0
C36 C 0.67354 0.17694 0.09553 0.0
C37 C 0.57705 0.06424 0.09526 0.0
O38 O 0.60989 0.0591 0.10462 0.0
O39 O 0.56627 0.0952 0.10283 0.0
O40 O 0.69202 0.06953 0.14197 0.0
O41 O 0.6585 0.0968 0.1763 0.0
O42 O 0.82576 0.859 0.38533 0.0
Cd43 Cd 0.86552 0.9026 0.36157 0.0
Cd44 Cd 0.90998 0.84921 0.36193 0.0
O45 O 0.86352 0.81706 0.38873 0.0
O46 O 0.83437 0.94002 0.34767 0.0
O47 O 0.86354 0.90733 0.31407 0.0
C48 C 0.84191 0.93185 0.3188 0.0
C49 C 0.93504 0.82066 0.31918 0.0
C50 C 0.83169 0.82684 0.39533 0.0
C51 C 0.94337 0.92558 0.39516 0.0
O52 O 0.94936 0.89317 0.38561 0.0
O53 O 0.9116 0.93519 0.38834 0.0
O54 O 0.9418 0.81217 0.34806 0.0
O55 O 0.91292 0.84466 0.31444 0.0
O56 O 0.17428 0.69147 0.10002 0.0
Cd57 Cd 0.12756 0.65865 0.12602 0.0
Cd58 Cd 0.1716 0.60237 0.12301 0.0
O59 O 0.2101 0.64752 0.09975 0.0
O60 O 0.09638 0.69587 0.14073 0.0
O61 O 0.12413 0.66154 0.17364 0.0
C62 C 0.10259 0.6862 0.1694 0.0
C63 C 0.20013 0.56558 0.15762 0.0
C64 C 0.20516 0.68087 0.09181 0.0
C65 C 0.09195 0.58366 0.09127 0.0
O66 O 0.12302 0.57251 0.0976 0.0
O67 O 0.08751 0.61653 0.10115 0.0
O68 O 0.20321 0.56256 0.12735 0.0
O69 O 0.1804 0.58943 0.16864 0.0
O70 O 0.33112 0.35685 0.39783 0.0
Cd71 Cd 0.35969 0.40529 0.37186 0.0
Cd72 Cd 0.4165 0.36267 0.36782 0.0
O73 O 0.37576 0.32215 0.39336 0.0
O74 O 0.31875 0.4355 0.36691 0.0
O75 O 0.34677 0.413 0.32607 0.0
C76 C 0.32216 0.43214 0.33668 0.0
C77 C 0.44362 0.33819 0.324 0.0
C78 C 0.343 0.3262 0.40395 0.0
C79 C 0.43837 0.44024 0.40209 0.0
O80 O 0.44931 0.40974 0.39346 0.0
O81 O 0.40457 0.44466 0.39472 0.0
O82 O 0.45435 0.33256 0.3525 0.0
O83 O 0.41814 0.35892 0.32018 0.0
O84 O 0.3281 0.85558 0.87982 0.0
Cd85 Cd 0.36489 0.90043 0.85468 0.0
Cd86 Cd 0.41693 0.85593 0.8633 0.0
O87 O 0.37204 0.82145 0.8898 0.0
O88 O 0.32864 0.93204 0.83914 0.0
O89 O 0.3633 0.90343 0.8069 0.0
C90 C 0.33829 0.92473 0.81063 0.0
C91 C 0.44408 0.82872 0.82091 0.0
C92 C 0.3377 0.82703 0.89337 0.0
C93 C 0.43812 0.93565 0.89268 0.0
O94 O 0.44934 0.90439 0.88719 0.0
O95 O 0.4059 0.94015 0.88135 0.0
O96 O 0.45315 0.82284 0.84987 0.0
O97 O 0.41957 0.85029 0.81597 0.0
O98 O 0.6659 0.6856 0.59915 0.0
Cd99 Cd 0.62145 0.65148 0.62627 0.0
Cd100 Cd 0.67328 0.60326 0.63038 0.0
O101 O 0.70888 0.64937 0.60562 0.0
O102 O 0.58687 0.68582 0.64053 0.0
O103 O 0.61991 0.65693 0.67375 0.0
C104 C 0.59612 0.67938 0.66931 0.0
C105 C 0.70457 0.57167 0.6673 0.0
C106 C 0.69956 0.67912 0.59384 0.0
C107 C 0.59586 0.5726 0.59569 0.0
O108 O 0.62839 0.56662 0.60497 0.0
O109 O 0.58635 0.6044 0.60255 0.0
O110 O 0.70952 0.56826 0.63728 0.0
O111 O 0.68191 0.5935 0.67682 0.0
H112 H 0.33065 0.26973 0.4295 0.0
C113 C 0.32096 0.29668 0.4263 0.0
H114 H 0.28513 0.33239 0.44424 0.0
H115 H 0.2045 0.15816 0.50956 0.0
H116 H 0.18229 0.13686 0.45646 0.0
H117 H 0.20334 0.18042 0.41045 0.0
H118 H 0.24702 0.24551 0.41731 0.0
C119 C 0.29329 0.30445 0.44569 0.0
C120 C 0.27894 0.2787 0.47327 0.0
C121 C 0.25334 0.24086 0.46878 0.0
C122 C 0.24094 0.21596 0.49533 0.0
C123 C 0.21507 0.17833 0.49026 0.0
C124 C 0.20195 0.16573 0.45988 0.0
C125 C 0.21386 0.19023 0.43397 0.0
C126 C 0.23912 0.22744 0.43823 0.0
H127 H 0.20287 0.24085 0.56977 0.0
C128 C 0.21084 0.21298 0.57287 0.0
H129 H 0.24497 0.17536 0.55541 0.0
H130 H 0.3288 0.34947 0.48986 0.0
H131 H 0.35165 0.37051 0.54292 0.0
H132 H 0.33043 0.32701 0.58895 0.0
H133 H 0.28617 0.26217 0.58215 0.0
C134 C 0.23834 0.20402 0.55393 0.0
C135 C 0.2538 0.22926 0.52628 0.0
C136 C 0.27968 0.26697 0.53073 0.0
C137 C 0.2921 0.29185 0.50418 0.0
C138 C 0.31823 0.32935 0.5092 0.0
C139 C 0.33166 0.34179 0.53954 0.0
C140 C 0.31969 0.31732 0.56546 0.0
C141 C 0.29409 0.28027 0.56124 0.0
H142 H 0.74218 0.53199 0.6791 0.0
C143 C 0.72417 0.55018 0.68937 0.0
H144 H 0.70346 0.57018 0.73203 0.0
H145 H 0.75369 0.4048 0.77175 0.0
H146 H 0.6949 0.37183 0.74269 0.0
H147 H 0.656 0.41006 0.71342 0.0
H148 H 0.67575 0.48149 0.71294 0.0
C149 C 0.72031 0.55142 0.72102 0.0
C150 C 0.74098 0.52844 0.74156 0.0
C151 C 0.7287 0.48669 0.74196 0.0
C152 C 0.75081 0.46467 0.7592 0.0
C153 C 0.73801 0.423 0.75905 0.0
C154 C 0.70427 0.40368 0.74251 0.0
C155 C 0.6824 0.42521 0.726 0.0
C156 C 0.69424 0.46621 0.72574 0.0
H157 H 0.78851 0.47927 0.83915 0.0
C158 C 0.80529 0.46116 0.82712 0.0
H159 H 0.82236 0.44228 0.78274 0.0
H160 H 0.77119 0.60804 0.74697 0.0
H161 H 0.82984 0.64115 0.77621 0.0
H162 H 0.86898 0.60299 0.8053 0.0
H163 H 0.84965 0.53158 0.80548 0.0
C164 C 0.80685 0.46112 0.7953 0.0
C165 C 0.78468 0.48443 0.77651 0.0
C166 C 0.79667 0.52623 0.77645 0.0
C167 C 0.7745 0.54824 0.75923 0.0
C168 C 0.78705 0.5899 0.75956 0.0
C169 C 0.82066 0.60928 0.77622 0.0
C170 C 0.84266 0.5878 0.79264 0.0
C171 C 0.83106 0.54678 0.79273 0.0
H172 H 0.56374 0.00941 0.06722 0.0
C173 C 0.55445 0.03635 0.07185 0.0
H174 H 0.52045 0.07436 0.05549 0.0
H175 H 0.53094 0.01957 0.91335 0.0
H176 H 0.572 0.08643 0.91208 0.0
H177 H 0.58766 0.1254 0.96137 0.0
H178 H 0.56268 0.09772 0.01217 0.0
C179 C 0.52803 0.04628 0.0525 0.0
C180 C 0.51559 0.02363 0.02278 0.0
C181 C 0.52991 0.04064 0.99316 0.0
C182 C 0.52056 0.01837 0.96469 0.0
C183 C 0.53639 0.03551 0.93559 0.0
C184 C 0.56021 0.07378 0.93455 0.0
C185 C 0.56908 0.09569 0.9623 0.0
C186 C 0.55438 0.07944 0.99133 0.0
H187 H 0.44908 0.99129 0.91969 0.0
C188 C 0.45923 0.96465 0.91603 0.0
H189 H 0.49394 0.92828 0.93415 0.0
H190 H 0.48082 0.98365 0.07526 0.0
H191 H 0.43991 0.9167 0.07657 0.0
H192 H 0.42453 0.8776 0.02733 0.0
H193 H 0.44927 0.90534 0.97649 0.0
C194 C 0.48545 0.95601 0.9363 0.0
C195 C 0.49651 0.97938 0.96588 0.0
C196 C 0.48198 0.96247 0.99548 0.0
C197 C 0.4913 0.98475 0.02394 0.0
C198 C 0.47543 0.96765 0.05303 0.0
C199 C 0.4517 0.92934 0.0541 0.0
C200 C 0.44296 0.90737 0.02637 0.0
C201 C 0.45757 0.92364 -0.00267 0.0
H202 H 0.94643 0.81206 0.26828 0.0
C203 C 0.95336 0.80465 0.29227 0.0
H204 H 0.98626 0.77473 0.3207 0.0
H205 H 1.01167 0.65874 0.21164 0.0
H206 H 0.96292 0.6145 0.24406 0.0
H207 H 0.93051 0.63981 0.28878 0.0
H208 H 0.94647 0.70964 0.30115 0.0
C209 C 0.97965 0.78291 0.29685 0.0
C210 C 0.99958 0.76802 0.2699 0.0
C211 C 0.99061 0.72703 0.26342 0.0
C212 C 1.00982 0.71236 0.23798 0.0
C213 C 0.99894 0.67144 0.23122 0.0
C214 C 0.97075 0.64569 0.24953 0.0
C215 C 0.95247 0.65994 0.27468 0.0
C216 C 0.96202 0.7001 0.28157 0.0
H217 H 0.09109 0.69372 0.22046 0.0
C218 C 0.08434 0.70175 0.1966 0.0
H219 H 0.05195 0.73266 0.16862 0.0
H220 H 0.02635 0.84801 0.27765 0.0
H221 H 0.07511 0.89227 0.24525 0.0
H222 H 0.10768 0.86696 0.20063 0.0
H223 H 0.09185 0.79712 0.18832 0.0
C224 C 0.05835 0.72391 0.19236 0.0
C225 C 0.03863 0.73872 0.21948 0.0
C226 C 0.04763 0.77971 0.22598 0.0
C227 C 0.02839 0.79437 0.25141 0.0
C228 C 0.03917 0.83531 0.25812 0.0
C229 C 0.06735 0.86107 0.23982 0.0
C230 C 0.08572 0.84682 0.21472 0.0
C231 C 0.07624 0.80665 0.20786 0.0
H232 H 0.33086 0.93445 0.75936 0.0
C233 C 0.32134 0.94046 0.78305 0.0
H234 H 0.28596 0.96918 0.81042 0.0
H235 H 0.27603 0.09562 0.707 0.0
H236 H 0.32207 0.13546 0.74412 0.0
H237 H 0.34885 0.10479 0.78873 0.0
H238 H 0.32994 0.03402 0.79629 0.0
C239 C 0.29474 0.96208 0.78677 0.0
C240 C 0.2789 0.98 0.75941 0.0
C241 C 0.28966 0.0215 0.75567 0.0
C242 C 0.27371 0.03925 0.73028 0.0
C243 C 0.28624 0.08063 0.7264 0.0
C244 C 0.31293 0.10387 0.74742 0.0
C245 C 0.32803 0.0866 0.77251 0.0
C246 C 0.3168 0.04593 0.77663 0.0
H247 H 0.19524 0.06138 0.71266 0.0
C248 C 0.20313 0.05591 0.68837 0.0
H249 H 0.23615 0.02722 0.65857 0.0
H250 H 0.2503 0.89971 0.76082 0.0
H251 H 0.20454 0.85983 0.7235 0.0
H252 H 0.17748 0.89055 0.67908 0.0
H253 H 0.19584 0.9614 0.67184 0.0
C254 C 0.22884 0.03374 0.68277 0.0
C255 C 0.24634 0.01546 0.70905 0.0
C256 C 0.23597 0.97392 0.71254 0.0
C257 C 0.252 0.95616 0.73791 0.0
C258 C 0.23986 0.91473 0.74155 0.0
C259 C 0.21339 0.89147 0.72039 0.0
C260 C 0.19812 0.90876 0.6954 0.0
C261 C 0.20902 0.94948 0.69148 0.0
H262 H 0.99634 0.43391 0.93082 0.0
C263 C 0.96929 0.4437 0.92838 0.0
H264 H 0.93515 0.48094 0.94647 0.0
H265 H 1.00976 0.48867 0.08307 0.0
H266 H 0.94322 0.44926 0.09262 0.0
H267 H 0.8974 0.42678 0.04809 0.0
H268 H 0.91782 0.44344 0.9938 0.0
C269 C 0.9629 0.47226 0.94749 0.0
C270 C 0.99019 0.48753 0.97409 0.0
C271 C 0.97745 0.47789 0.00573 0.0
C272 C 1.00369 0.49109 0.03142 0.0
C273 C 0.99069 0.48014 0.06273 0.0
C274 C 0.95266 0.45731 0.06853 0.0
C275 C 0.92689 0.44461 0.04346 0.0
C276 C 0.939 0.45453 0.01238 0.0
H277 H 0.03524 0.57011 0.06586 0.0
C278 C 0.06207 0.56033 0.06973 0.0
H279 H 0.09668 0.52213 0.05425 0.0
H280 H 0.02284 0.51344 0.91642 0.0
H281 H 0.08956 0.55229 0.9069 0.0
H282 H 0.13557 0.57406 0.95141 0.0
H283 H 0.11506 0.55741 0.0057 0.0
C284 C 0.069 0.53077 0.05207 0.0
C285 C 0.04235 0.51427 0.02538 0.0
C286 C 0.05522 0.52358 0.99375 0.0
C287 C 0.02894 0.51054 0.96805 0.0
C288 C 0.04195 0.52164 0.93677 0.0
C289 C 0.0801 0.54419 0.93098 0.0
C290 C 0.10598 0.55651 0.95604 0.0
C291 C 0.09381 0.54662 0.98711 0.0
H292 H 0.44929 0.32572 0.27289 0.0
C293 C 0.45887 0.3201 0.29657 0.0
H294 H 0.49097 0.28851 0.32413 0.0
H295 H 0.48093 0.15231 0.2239 0.0
H296 H 0.43482 0.11889 0.26391 0.0
H297 H 0.41556 0.15578 0.30872 0.0
H298 H 0.4421 0.22635 0.31365 0.0
C299 C 0.48261 0.29555 0.30044 0.0
C300 C 0.49459 0.27373 0.27331 0.0
C301 C 0.47937 0.23232 0.27111 0.0
C302 C 0.49089 0.21095 0.24551 0.0
C303 C 0.47405 0.16987 0.24327 0.0
C304 C 0.44731 0.15032 0.26598 0.0
C305 C 0.43644 0.17109 0.29119 0.0
C306 C 0.45203 0.21161 0.29378 0.0
H307 H 0.56277 0.17841 0.22364 0.0
C308 C 0.55388 0.18426 0.1998 0.0
H309 H 0.52281 0.21633 0.17171 0.0
H310 H 0.5316 0.35242 0.27179 0.0
H311 H 0.57781 0.38583 0.23184 0.0
H312 H 0.59726 0.34893 0.18713 0.0
H313 H 0.57078 0.27835 0.18221 0.0
C314 C 0.5305 0.20908 0.19553 0.0
C315 C 0.51817 0.23096 0.22248 0.0
C316 C 0.53337 0.27238 0.22468 0.0
C317 C 0.5218 0.29376 0.25025 0.0
C318 C 0.53858 0.33485 0.25247 0.0
C319 C 0.56536 0.3544 0.22979 0.0
C320 C 0.57633 0.33362 0.20463 0.0
C321 C 0.56077 0.29309 0.20205 0.0
H322 H 0.77406 0.80964 0.41957 0.0
C323 C 0.80299 0.80344 0.41775 0.0
H324 H 0.84336 0.77551 0.43929 0.0
H325 H 0.75535 0.78735 0.57111 0.0
H326 H 0.80649 0.84842 0.57418 0.0
H327 H 0.84954 0.87213 0.52821 0.0
H328 H 0.84236 0.83463 0.47905 0.0
C329 C 0.81365 0.7799 0.43925 0.0
C330 C 0.78774 0.76528 0.46682 0.0
C331 C 0.79312 0.78712 0.4956 0.0
C332 C 0.76831 0.7735 0.52211 0.0
C333 C 0.77372 0.79619 0.55038 0.0
C334 C 0.80287 0.83134 0.55243 0.0
C335 C 0.82719 0.84465 0.52656 0.0
C336 C 0.82264 0.82287 0.49846 0.0
H337 H 0.75702 0.70081 0.56996 0.0
C338 C 0.72662 0.70328 0.57072 0.0
H339 H 0.68217 0.72293 0.54657 0.0
H340 H 0.76992 0.71679 0.4151 0.0
H341 H 0.7181 0.65619 0.41174 0.0
H342 H 0.67512 0.63233 0.45775 0.0
H343 H 0.68332 0.66904 0.50732 0.0
C344 C 0.71321 0.72279 0.5476 0.0
C345 C 0.73843 0.73802 0.51977 0.0
C346 C 0.73275 0.71642 0.49087 0.0
C347 C 0.75756 0.73005 0.46436 0.0
C348 C 0.75171 0.70775 0.4359 0.0
C349 C 0.72214 0.67292 0.43367 0.0
C350 C 0.6979 0.65952 0.45957 0.0
C351 C 0.70296 0.68088 0.48789 0.0
H352 H 0.23693 0.52432 0.16707 0.0
C353 C 0.21977 0.54262 0.17838 0.0
H354 H 0.20032 0.56107 0.22213 0.0
H355 H 0.23088 0.40689 0.28825 0.0
H356 H 0.15938 0.38857 0.28482 0.0
H357 H 0.12373 0.43052 0.25628 0.0
H358 H 0.15942 0.49099 0.23083 0.0
C359 C 0.21811 0.54395 0.21016 0.0
C360 C 0.23953 0.52052 0.22954 0.0
C361 C 0.2182 0.48584 0.24491 0.0
C362 C 0.23873 0.46204 0.26185 0.0
C363 C 0.21675 0.42668 0.27588 0.0
C364 C 0.1757 0.41566 0.27389 0.0
C365 C 0.15563 0.43924 0.25777 0.0
C366 C 0.17647 0.47388 0.2433 0.0
H367 H 0.2788 0.46638 0.32647 0.0
C368 C 0.29878 0.45081 0.3155 0.0
H369 H 0.32307 0.43662 0.27235 0.0
H370 H 0.28918 0.5867 0.20462 0.0
H371 H 0.36064 0.60512 0.20806 0.0
H372 H 0.39632 0.56357 0.23705 0.0
H373 H 0.36075 0.50341 0.26282 0.0
C374 C 0.30212 0.45061 0.28377 0.0
C375 C 0.28053 0.47352 0.26399 0.0
C376 C 0.30186 0.50817 0.24852 0.0
C377 C 0.28133 0.53189 0.23151 0.0
C378 C 0.3033 0.56708 0.21722 0.0
C379 C 0.34434 0.57815 0.21918 0.0
C380 C 0.36443 0.55479 0.23553 0.0
C381 C 0.34361 0.52027 0.25018 0.0
H382 H 0.81236 0.26123 0.92786 0.0
C383 C 0.80539 0.28976 0.92625 0.0
H384 H 0.77397 0.32807 0.94667 0.0
H385 H 0.68819 0.15258 0.00932 0.0
H386 H 0.66415 0.13322 0.95625 0.0
H387 H 0.68498 0.17783 0.91082 0.0
H388 H 0.73032 0.24196 0.91819 0.0
C389 C 0.77955 0.29889 0.94677 0.0
C390 C 0.76467 0.27277 0.97409 0.0
C391 C 0.73793 0.23558 0.96933 0.0
C392 C 0.72551 0.21015 0.99558 0.0
C393 C 0.69869 0.17312 0.99024 0.0
C394 C 0.68455 0.16165 0.95989 0.0
C395 C 0.69634 0.18673 0.93431 0.0
C396 C 0.72259 0.22336 0.93884 0.0
H397 H 0.6886 0.23351 0.07018 0.0
C398 C 0.69693 0.20583 0.07337 0.0
H399 H 0.73062 0.1681 0.05534 0.0
H400 H 0.81672 0.3421 0.9913 0.0
H401 H 0.8408 0.36128 0.04435 0.0
H402 H 0.81917 0.317 0.08985 0.0
H403 H 0.77327 0.25319 0.08249 0.0
C404 C 0.72392 0.19674 0.05398 0.0
C405 C 0.73932 0.22235 0.02653 0.0
C406 C 0.76612 0.25947 0.03128 0.0
C407 C 0.7787 0.28483 0.00503 0.0
C408 C 0.80587 0.32167 0.01038 0.0
C409 C 0.82005 0.33305 0.04073 0.0
C410 C 0.80786 0.30814 0.06635 0.0
C411 C 0.78132 0.27169 0.06181 0.0
H412 H 0.8329 0.94201 0.26787 0.0
C413 C 0.82544 0.94928 0.29185 0.0
H414 H 0.79367 0.98079 0.32024 0.0
H415 H 0.77765 0.10331 0.21499 0.0
H416 H 0.82573 0.14449 0.24999 0.0
H417 H 0.85484 0.11545 0.29426 0.0
H418 H 0.8362 0.045 0.30367 0.0
C419 C 0.80059 0.97263 0.29636 0.0
C420 C 0.7831 0.98972 0.26937 0.0
C421 C 0.79384 0.03104 0.2645 0.0
C422 C 0.77671 0.04785 0.2392 0.0
C423 C 0.789 0.08905 0.23427 0.0
C424 C 0.81677 0.11304 0.25409 0.0
C425 C 0.83318 0.09669 0.27899 0.0
C426 C 0.8221 0.05619 0.28418 0.0
H427 H 0.69614 0.06812 0.2217 0.0
C428 C 0.70386 0.06181 0.19755 0.0
H429 H 0.73737 0.0329 0.16844 0.0
H430 H 0.75293 0.90974 0.27389 0.0
H431 H 0.70509 0.86866 0.23877 0.0
H432 H 0.67666 0.89766 0.19411 0.0
H433 H 0.69571 0.96803 0.18452 0.0
C434 C 0.7304 0.04044 0.19247 0.0
C435 C 0.74844 0.02332 0.2191 0.0
C436 C 0.73776 0.98199 0.22391 0.0
C437 C 0.75472 0.96519 0.2493 0.0
C438 C 0.74203 0.92402 0.25441 0.0
C439 C 0.71431 0.90007 0.23455 0.0
C440 C 0.69827 0.9164 0.20943 0.0
C441 C 0.70958 0.95685 0.20414 0.0
H442 H 1.00084 0.94333 0.41932 0.0
C443 C 0.97206 0.94975 0.41715 0.0
H444 H 0.93205 0.97935 0.43756 0.0
H445 H 0.01962 0.97231 0.56983 0.0
H446 H 0.96581 0.91367 0.57503 0.0
H447 H 0.92141 0.88944 0.53001 0.0
H448 H 0.92996 0.92401 0.47965 0.0
C449 C 0.96163 0.97463 0.4378 0.0
C450 C 0.98761 0.99026 0.46503 0.0
C451 C 0.98137 0.97025 0.49452 0.0
C452 C 1.00692 0.98419 0.52047 0.0
C453 C 1.00072 0.96321 0.54946 0.0
C454 C 0.97004 0.92946 0.55274 0.0
C455 C 0.94497 0.91585 0.52739 0.0
C456 C 0.95032 0.93594 0.4986 0.0
H457 H 0.02291 0.05933 0.56617 0.0
C458 C 0.05271 0.05514 0.56678 0.0
H459 H 0.09501 0.03152 0.5429 0.0
H460 H 1.00698 0.03543 0.4118 0.0
H461 H 0.0614 0.09357 0.40633 0.0
H462 H 0.10584 0.11788 0.45138 0.0
H463 H 0.09632 0.08417 0.50211 0.0
C464 C 0.06453 0.03367 0.54403 0.0
C465 C 0.03837 0.0182 0.51686 0.0
C466 C 0.04475 0.03808 0.48732 0.0
C467 C 0.01919 0.02413 0.46136 0.0
C468 C 0.02576 0.04472 0.43221 0.0
C469 C 0.05681 0.07814 0.42878 0.0
C470 C 0.08185 0.09182 0.45414 0.0
C471 C 0.07604 0.07217 0.48313 0.0
H472 H 0.94078 0.3174 0.77198 0.0
C473 C 0.94594 0.30749 0.79565 0.0
H474 H 0.9736 0.27167 0.82312 0.0
H475 H 0.97126 0.18719 0.68179 0.0
H476 H 0.89996 0.1695 0.68702 0.0
H477 H 0.86741 0.19465 0.73173 0.0
H478 H 0.90593 0.23784 0.77133 0.0
C479 C 0.96745 0.28088 0.79946 0.0
C480 C 0.98654 0.26563 0.77229 0.0
C481 C 0.96347 0.24009 0.74952 0.0
C482 C 0.98227 0.22513 0.72401 0.0
C483 C 0.95857 0.19959 0.7016 0.0
C484 C 0.91758 0.18905 0.70436 0.0
C485 C 0.89926 0.20325 0.72951 0.0
C486 C 0.92176 0.22828 0.75198 0.0
H487 H 0.0703 0.18397 0.72314 0.0
C488 C 0.06511 0.19317 0.69926 0.0
H489 H 0.03712 0.22793 0.67097 0.0
H490 H 0.03931 0.31367 0.81212 0.0
H491 H 0.1106 0.33157 0.80679 0.0
H492 H 0.14314 0.30663 0.76196 0.0
H493 H 0.10464 0.26341 0.72239 0.0
C494 C 0.04322 0.21933 0.69482 0.0
C495 C 0.02405 0.23514 0.72167 0.0
C496 C 0.04711 0.26085 0.74435 0.0
C497 C 0.02832 0.27576 0.76988 0.0
C498 C 0.05201 0.30133 0.79228 0.0
C499 C 0.09299 0.31199 0.78946 0.0
C500 C 0.11131 0.29791 0.76425 0.0
C501 C 0.08881 0.27283 0.7418 0.0
H502 H 0.58894 0.69126 0.72034 0.0
C503 C 0.58005 0.6972 0.69653 0.0
H504 H 0.54488 0.72548 0.66891 0.0
H505 H 0.42522 0.73512 0.77973 0.0
H506 H 0.38535 0.68277 0.74753 0.0
H507 H 0.41454 0.65492 0.70231 0.0
H508 H 0.48392 0.67909 0.68916 0.0
C509 C 0.55494 0.72037 0.69254 0.0
C510 C 0.53772 0.73744 0.71996 0.0
C511 C 0.49694 0.72356 0.72697 0.0
C512 C 0.47995 0.74005 0.75277 0.0
C513 C 0.43947 0.72448 0.75992 0.0
C514 C 0.41626 0.69422 0.74174 0.0
C515 C 0.4327 0.67851 0.7163 0.0
C516 C 0.47256 0.69276 0.70896 0.0
H517 H 0.45205 0.81655 0.77008 0.0
C518 C 0.4609 0.81106 0.79401 0.0
H519 H 0.49631 0.7836 0.82212 0.0
H520 H 0.61623 0.77304 0.71155 0.0
H521 H 0.6561 0.82546 0.7437 0.0
H522 H 0.62687 0.85344 0.78884 0.0
H523 H 0.55748 0.82932 0.80196 0.0
C524 C 0.48632 0.78831 0.79838 0.0
C525 C 0.50367 0.77095 0.77118 0.0
C526 C 0.54448 0.78479 0.7642 0.0
C527 C 0.56147 0.76827 0.73842 0.0
C528 C 0.60197 0.78376 0.7313 0.0
C529 C 0.62518 0.81405 0.74947 0.0
C530 C 0.60871 0.82983 0.77486 0.0
C531 C 0.56885 0.81561 0.78218 0.0
H532 H 0.26089 0.6959 0.06493 0.0
C533 C 0.23362 0.70469 0.06946 0.0
H534 H 0.19629 0.74006 0.0538 0.0
H535 H 0.34789 0.84544 0.9787 0.0
H536 H 0.35256 0.88577 0.02624 0.0
H537 H 0.31021 0.86258 0.07272 0.0
H538 H 0.26233 0.79907 0.07178 0.0
C539 C 0.22408 0.73182 0.05076 0.0
C540 C 0.24853 0.74661 0.02244 0.0
C541 C 0.27641 0.78351 0.0235 0.0
C542 C 0.30103 0.79665 -0.0032 0.0
C543 C 0.32856 0.83385 -0.00163 0.0
C544 C 0.33159 0.85729 0.02552 0.0
C545 C 0.30768 0.84427 0.05168 0.0
C546 C 0.28037 0.8078 0.05084 0.0
H547 H 0.27942 0.80491 0.91592 0.0
C548 C 0.31019 0.80368 0.91661 0.0
H549 H 0.35471 0.78815 0.94381 0.0
H550 H 0.19568 0.6756 0.01183 0.0
H551 H 0.19048 0.6355 0.96422 0.0
H552 H 0.23446 0.65749 0.91839 0.0
H553 H 0.28381 0.71994 0.9199 0.0
C554 C 0.32344 0.78679 0.94144 0.0
C555 C 0.29747 0.77281 0.96911 0.0
C556 C 0.26918 0.73612 0.96789 0.0
C557 C 0.24438 0.72314 0.99451 0.0
C558 C 0.21581 0.68663 0.99252 0.0
C559 C 0.2124 0.66336 0.96527 0.0
C560 C 0.23712 0.67577 0.93946 0.0
C561 C 0.26525 0.71171 0.94061 0.0
H562 H 0.45366 0.49593 0.42895 0.0
C563 C 0.4625 0.46877 0.42426 0.0
H564 H 0.4973 0.43105 0.43975 0.0
H565 H 0.57856 0.60207 0.51198 0.0
H566 H 0.60055 0.62655 0.45962 0.0
H567 H 0.58005 0.58548 0.41196 0.0
H568 H 0.53694 0.51977 0.41643 0.0
C569 C 0.49017 0.45938 0.44255 0.0
C570 C 0.50501 0.48332 0.47116 0.0
C571 C 0.53043 0.52149 0.46812 0.0
C572 C 0.54259 0.54492 0.49563 0.0
C573 C 0.56817 0.58296 0.49193 0.0
C574 C 0.58119 0.59736 0.46198 0.0
C575 C 0.56957 0.57428 0.43515 0.0
C576 C 0.54462 0.5367 0.43804 0.0
H577 H 0.58013 0.51667 0.56911 0.0
C578 C 0.57178 0.54418 0.57337 0.0
H579 H 0.53776 0.58234 0.55729 0.0
H580 H 0.4557 0.41138 0.48523 0.0
H581 H 0.43291 0.38722 0.53754 0.0
H582 H 0.4537 0.42816 0.58522 0.0
H583 H 0.49746 0.49356 0.58082 0.0
C584 C 0.54458 0.55384 0.55472 0.0
C585 C 0.52973 0.52986 0.52612 0.0
C586 C 0.50419 0.49175 0.52916 0.0
C587 C 0.492 0.46832 0.50164 0.0
C588 C 0.46612 0.43044 0.50531 0.0
C589 C 0.45271 0.41621 0.53521 0.0
C590 C 0.46444 0.43924 0.56206 0.0
C591 C 0.48977 0.47663 0.55921 0.0
loop_
_geom_bond_atom_site_label_1
_geom_bond_atom_site_label_2
_geom_bond_distance
_geom_bond_site_symmetry_2
_ccdc_geom_bond_type
O0 Cd1 2.223 . S
O0 C8 1.315 . S
Cd1 O0 2.223 . S
Cd1 O4 2.297 . S
Cd1 O5 2.439 . S
Cd1 O11 2.240 . S
Cd2 O3 2.240 . S
Cd2 O10 2.223 . S
Cd2 O12 2.297 . S
Cd2 O13 2.439 . S
O3 Cd2 2.240 . S
O3 C8 1.279 . S
O4 Cd1 2.297 . S
O4 C6 1.247 . S
O5 Cd1 2.439 . S
O5 C6 1.208 . S
C6 O4 1.247 . S
C6 O5 1.208 . S
C7 O12 1.247 . S
C7 O13 1.208 . S
C8 O0 1.315 . S
C8 O3 1.279 . S
C9 O10 1.315 . S
C9 O11 1.279 . S
O10 Cd2 2.223 . S
O10 C9 1.315 . S
O11 Cd1 2.240 . S
O11 C9 1.279 . S
O12 Cd2 2.297 . S
O12 C7 1.247 . S
O13 Cd2 2.439 . S
O13 C7 1.208 . S
O14 Cd15 2.223 . S
O14 C22 1.315 . S
Cd15 O14 2.223 . S
Cd15 O18 2.297 . S
Cd15 O19 2.439 . S
Cd15 O25 2.240 . S
Cd16 O17 2.240 . S
Cd16 O24 2.223 . S
Cd16 O26 2.297 . S
Cd16 O27 2.439 . S
O17 Cd16 2.240 . S
O17 C22 1.279 . S
O18 Cd15 2.297 . S
O18 C20 1.247 . S
O19 Cd15 2.439 . S
O19 C20 1.208 . S
C20 O18 1.247 . S
C20 O19 1.208 . S
C21 O26 1.247 . S
C21 O27 1.208 . S
C22 O14 1.315 . S
C22 O17 1.279 . S
C23 O24 1.315 . S
C23 O25 1.279 . S
O24 Cd16 2.223 . S
O24 C23 1.315 . S
O25 Cd15 2.240 . S
O25 C23 1.279 . S
O26 Cd16 2.297 . S
O26 C21 1.247 . S
O27 Cd16 2.439 . S
O27 C21 1.208 . S
O28 Cd29 2.223 . S
O28 C36 1.315 . S
Cd29 O28 2.223 . S
Cd29 O32 2.297 . S
Cd29 O33 2.439 . S
Cd29 O39 2.240 . S
Cd30 O31 2.240 . S
Cd30 O38 2.223 . S
Cd30 O40 2.297 . S
Cd30 O41 2.439 . S
O31 Cd30 2.240 . S
O31 C36 1.279 . S
O32 Cd29 2.297 . S
O32 C34 1.247 . S
O33 Cd29 2.439 . S
O33 C34 1.208 . S
C34 O32 1.247 . S
C34 O33 1.208 . S
C35 O40 1.247 . S
C35 O41 1.208 . S
C36 O28 1.315 . S
C36 O31 1.279 . S
C37 O38 1.315 . S
C37 O39 1.279 . S
O38 Cd30 2.223 . S
O38 C37 1.315 . S
O39 Cd29 2.240 . S
O39 C37 1.279 . S
O40 Cd30 2.297 . S
O40 C35 1.247 . S
O41 Cd30 2.439 . S
O41 C35 1.208 . S
O42 Cd43 2.223 . S
O42 C50 1.315 . S
Cd43 O42 2.223 . S
Cd43 O46 2.297 . S
Cd43 O47 2.439 . S
Cd43 O53 2.240 . S
Cd44 O45 2.240 . S
Cd44 O52 2.223 . S
Cd44 O54 2.297 . S
Cd44 O55 2.439 . S
O45 Cd44 2.240 . S
O45 C50 1.279 . S
O46 Cd43 2.297 . S
O46 C48 1.247 . S
O47 Cd43 2.439 . S
O47 C48 1.208 . S
C48 O46 1.247 . S
C48 O47 1.208 . S
C49 O54 1.247 . S
C49 O55 1.208 . S
C50 O42 1.315 . S
C50 O45 1.279 . S
C51 O52 1.315 . S
C51 O53 1.279 . S
O52 Cd44 2.223 . S
O52 C51 1.315 . S
O53 Cd43 2.240 . S
O53 C51 1.279 . S
O54 Cd44 2.297 . S
O54 C49 1.247 . S
O55 Cd44 2.439 . S
O55 C49 1.208 . S
O56 Cd57 2.223 . S
O56 C64 1.315 . S
Cd57 O56 2.223 . S
Cd57 O60 2.297 . S
Cd57 O61 2.439 . S
Cd57 O67 2.240 . S
Cd58 O59 2.240 . S
Cd58 O66 2.223 . S
Cd58 O68 2.297 . S
Cd58 O69 2.439 . S
O59 Cd58 2.240 . S
O59 C64 1.279 . S
O60 Cd57 2.297 . S
O60 C62 1.247 . S
O61 Cd57 2.439 . S
O61 C62 1.208 . S
C62 O60 1.247 . S
C62 O61 1.208 . S
C63 O68 1.247 . S
C63 O69 1.208 . S
C64 O56 1.315 . S
C64 O59 1.279 . S
C65 O66 1.315 . S
C65 O67 1.279 . S
O66 Cd58 2.223 . S
O66 C65 1.315 . S
O67 Cd57 2.240 . S
O67 C65 1.279 . S
O68 Cd58 2.297 . S
O68 C63 1.247 . S
O69 Cd58 2.439 . S
O69 C63 1.208 . S
O70 Cd71 2.223 . S
O70 C78 1.315 . S
Cd71 O70 2.223 . S
Cd71 O74 2.297 . S
Cd71 O75 2.439 . S
Cd71 O81 2.240 . S
Cd72 O73 2.240 . S
Cd72 O80 2.223 . S
Cd72 O82 2.297 . S
Cd72 O83 2.439 . S
O73 Cd72 2.240 . S
O73 C78 1.279 . S
O74 Cd71 2.297 . S
O74 C76 1.247 . S
O75 Cd71 2.439 . S
O75 C76 1.208 . S
C76 O74 1.247 . S
C76 O75 1.208 . S
C77 O82 1.247 . S
C77 O83 1.208 . S
C78 O70 1.315 . S
C78 O73 1.279 . S
C79 O80 1.315 . S
C79 O81 1.279 . S
O80 Cd72 2.223 . S
O80 C79 1.315 . S
O81 Cd71 2.240 . S
O81 C79 1.279 . S
O82 Cd72 2.297 . S
O82 C77 1.247 . S
O83 Cd72 2.439 . S
O83 C77 1.208 . S
O84 Cd85 2.223 . S
O84 C92 1.315 . S
Cd85 O84 2.223 . S
Cd85 O88 2.297 . S
Cd85 O89 2.439 . S
Cd85 O95 2.240 . S
Cd86 O87 2.240 . S
Cd86 O94 2.223 . S
Cd86 O96 2.297 . S
Cd86 O97 2.439 . S
O87 Cd86 2.240 . S
O87 C92 1.279 . S
O88 Cd85 2.297 . S
O88 C90 1.247 . S
O89 Cd85 2.439 . S
O89 C90 1.208 . S
C90 O88 1.247 . S
C90 O89 1.208 . S
C91 O96 1.247 . S
C91 O97 1.208 . S
C92 O84 1.315 . S
C92 O87 1.279 . S
C93 O94 1.315 . S
C93 O95 1.279 . S
O94 Cd86 2.223 . S
O94 C93 1.315 . S
O95 Cd85 2.240 . S
O95 C93 1.279 . S
O96 Cd86 2.297 . S
O96 C91 1.247 . S
O97 Cd86 2.439 . S
O97 C91 1.208 . S
O98 Cd99 2.223 . S
O98 C106 1.315 . S
Cd99 O98 2.223 . S
Cd99 O102 2.297 . S
Cd99 O103 2.439 . S
Cd99 O109 2.240 . S
Cd100 O101 2.240 . S
Cd100 O108 2.223 . S
Cd100 O110 2.297 . S
Cd100 O111 2.439 . S
O101 Cd100 2.240 . S
O101 C106 1.279 . S
O102 Cd99 2.297 . S
O102 C104 1.247 . S
O103 Cd99 2.439 . S
O103 C104 1.208 . S
C104 O102 1.247 . S
C104 O103 1.208 . S
C105 O110 1.247 . S
C105 O111 1.208 . S
C106 O98 1.315 . S
C106 O101 1.279 . S
C107 O108 1.315 . S
C107 O109 1.279 . S
O108 Cd100 2.223 . S
O108 C107 1.315 . S
O109 Cd99 2.240 . S
O109 C107 1.279 . S
O110 Cd100 2.297 . S
O110 C105 1.247 . S
O111 Cd100 2.439 . S
O111 C105 1.208 . S
H112 C113 0.951 . S
C113 H112 0.951 . S
C113 C119 1.265 . S
H114 C119 0.950 . S
H115 C123 0.949 . S
H116 C124 0.950 . S
H117 C125 0.951 . S
H118 C126 0.951 . S
C119 C113 1.265 . S
C119 H114 0.950 . S
C119 C120 1.478 . S
C120 C119 1.478 . S
C120 C121 1.397 . S
C120 C137 1.394 . S
C121 C120 1.397 . S
C121 C122 1.438 . S
C121 C126 1.429 . S
C122 C121 1.438 . S
C122 C123 1.428 . S
C122 C135 1.394 . S
C123 H115 0.949 . S
C123 C122 1.428 . S
C123 C124 1.345 . S
C124 H116 0.950 . S
C124 C123 1.345 . S
C124 C125 1.424 . S
C125 H117 0.951 . S
C125 C124 1.424 . S
C125 C126 1.347 . S
C126 H118 0.951 . S
C126 C121 1.429 . S
C126 C125 1.347 . S
H127 C128 0.951 . S
C128 H127 0.951 . S
C128 C134 1.265 . S
H129 C134 0.950 . S
H130 C138 0.949 . S
H131 C139 0.950 . S
H132 C140 0.951 . S
H133 C141 0.951 . S
C134 C128 1.265 . S
C134 H129 0.950 . S
C134 C135 1.478 . S
C135 C122 1.394 . S
C135 C134 1.478 . S
C135 C136 1.397 . S
C136 C135 1.397 . S
C136 C137 1.438 . S
C136 C141 1.429 . S
C137 C120 1.394 . S
C137 C136 1.438 . S
C137 C138 1.428 . S
C138 H130 0.949 . S
C138 C137 1.428 . S
C138 C139 1.345 . S
C139 H131 0.950 . S
C139 C138 1.345 . S
C139 C140 1.424 . S
C140 H132 0.951 . S
C140 C139 1.424 . S
C140 C141 1.347 . S
C141 H133 0.951 . S
C141 C136 1.429 . S
C141 C140 1.347 . S
H142 C143 0.951 . S
C143 H142 0.951 . S
C143 C149 1.265 . S
H144 C149 0.950 . S
H145 C153 0.949 . S
H146 C154 0.950 . S
H147 C155 0.951 . S
H148 C156 0.951 . S
C149 C143 1.265 . S
C149 H144 0.950 . S
C149 C150 1.478 . S
C150 C149 1.478 . S
C150 C151 1.397 . S
C150 C167 1.394 . S
C151 C150 1.397 . S
C151 C152 1.438 . S
C151 C156 1.429 . S
C152 C151 1.438 . S
C152 C153 1.428 . S
C152 C165 1.394 . S
C153 H145 0.949 . S
C153 C152 1.428 . S
C153 C154 1.345 . S
C154 H146 0.950 . S
C154 C153 1.345 . S
C154 C155 1.424 . S
C155 H147 0.951 . S
C155 C154 1.424 . S
C155 C156 1.347 . S
C156 H148 0.951 . S
C156 C151 1.429 . S
C156 C155 1.347 . S
H157 C158 0.951 . S
C158 H157 0.951 . S
C158 C164 1.265 . S
H159 C164 0.950 . S
H160 C168 0.949 . S
H161 C169 0.950 . S
H162 C170 0.951 . S
H163 C171 0.951 . S
C164 C158 1.265 . S
C164 H159 0.950 . S
C164 C165 1.478 . S
C165 C152 1.394 . S
C165 C164 1.478 . S
C165 C166 1.397 . S
C166 C165 1.397 . S
C166 C167 1.438 . S
C166 C171 1.429 . S
C167 C150 1.394 . S
C167 C166 1.438 . S
C167 C168 1.428 . S
C168 H160 0.949 . S
C168 C167 1.428 . S
C168 C169 1.345 . S
C169 H161 0.950 . S
C169 C168 1.345 . S
C169 C170 1.424 . S
C170 H162 0.951 . S
C170 C169 1.424 . S
C170 C171 1.347 . S
C171 H163 0.951 . S
C171 C166 1.429 . S
C171 C170 1.347 . S
H172 C173 0.951 . S
C173 H172 0.951 . S
C173 C179 1.265 . S
H174 C179 0.950 . S
H175 C183 0.949 1_565 S
H176 C184 0.950 . S
H177 C185 0.956 . S
H178 C186 0.951 . S
C179 C173 1.265 . S
C179 H174 0.950 . S
C179 C180 1.478 . S
C180 C179 1.478 . S
C180 C181 1.397 . S
C180 C197 1.394 1_545 S
C181 C180 1.397 . S
C181 C182 1.438 1_544 S
C181 C186 1.429 . S
C182 C181 1.438 1_566 S
C182 C183 1.428 1_565 S
C182 C195 1.394 . S
C183 H175 0.949 1_545 S
C183 C182 1.428 1_545 S
C183 C184 1.345 . S
C184 H176 0.950 . S
C184 C183 1.345 . S
C184 C185 1.424 . S
C185 H177 0.956 . S
C185 C184 1.424 . S
C185 C186 1.347 1_556 S
C186 H178 0.951 . S
C186 C181 1.429 . S
C186 C185 1.347 1_554 S
H187 C188 0.951 . S
C188 H187 0.951 . S
C188 C194 1.265 . S
H189 C194 0.950 . S
H190 C198 0.949 . S
H191 C199 0.950 . S
H192 C200 0.956 . S
H193 C201 0.951 . S
C194 C188 1.265 . S
C194 H189 0.950 . S
C194 C195 1.478 . S
C195 C182 1.394 . S
C195 C194 1.478 . S
C195 C196 1.397 . S
C196 C195 1.397 . S
C196 C197 1.438 1_556 S
C196 C201 1.429 . S
C197 C180 1.394 1_565 S
C197 C196 1.438 1_554 S
C197 C198 1.428 . S
C198 H190 0.949 . S
C198 C197 1.428 . S
C198 C199 1.345 . S
C199 H191 0.950 . S
C199 C198 1.345 . S
C199 C200 1.424 . S
C200 H192 0.956 . S
C200 C199 1.424 . S
C200 C201 1.347 1_554 S
C201 H193 0.951 . S
C201 C196 1.429 . S
C201 C200 1.347 1_556 S
H202 C203 0.951 . S
C203 H202 0.951 . S
C203 C209 1.265 . S
H204 C209 0.950 1_455 S
H205 C213 0.949 . S
H206 C214 0.950 . S
H207 C215 0.951 . S
H208 C216 0.951 . S
C209 C203 1.265 . S
C209 H204 0.950 1_655 S
C209 C210 1.478 1_655 S
C210 C209 1.478 1_455 S
C210 C211 1.397 . S
C210 C227 1.394 . S
C211 C210 1.397 . S
C211 C212 1.438 . S
C211 C216 1.429 . S
C212 C211 1.438 . S
C212 C213 1.428 . S
C212 C225 1.394 . S
C213 H205 0.949 . S
C213 C212 1.428 . S
C213 C214 1.345 . S
C214 H206 0.950 . S
C214 C213 1.345 . S
C214 C215 1.424 . S
C215 H207 0.951 . S
C215 C214 1.424 . S
C215 C216 1.347 . S
C216 H208 0.951 . S
C216 C211 1.429 . S
C216 C215 1.347 . S
H217 C218 0.951 . S
C218 H217 0.951 . S
C218 C224 1.265 . S
H219 C224 0.950 . S
H220 C228 0.949 . S
H221 C229 0.950 . S
H222 C230 0.951 . S
H223 C231 0.951 . S
C224 C218 1.265 . S
C224 H219 0.950 . S
C224 C225 1.478 . S
C225 C212 1.394 . S
C225 C224 1.478 . S
C225 C226 1.397 . S
C226 C225 1.397 . S
C226 C227 1.438 . S
C226 C231 1.429 . S
C227 C210 1.394 . S
C227 C226 1.438 . S
C227 C228 1.428 1_455 S
C228 H220 0.949 . S
C228 C227 1.428 1_655 S
C228 C229 1.345 . S
C229 H221 0.950 . S
C229 C228 1.345 . S
C229 C230 1.424 1_655 S
C230 H222 0.951 . S
C230 C229 1.424 1_455 S
C230 C231 1.347 . S
C231 H223 0.951 . S
C231 C226 1.429 . S
C231 C230 1.347 . S
H232 C233 0.951 . S
C233 H232 0.951 . S
C233 C239 1.265 . S
H234 C239 0.950 . S
H235 C243 0.949 . S
H236 C244 0.950 . S
H237 C245 0.951 . S
H238 C246 0.951 . S
C239 C233 1.265 . S
C239 H234 0.950 . S
C239 C240 1.478 . S
C240 C239 1.478 . S
C240 C241 1.397 . S
C240 C257 1.394 . S
C241 C240 1.397 . S
C241 C242 1.438 . S
C241 C246 1.429 . S
C242 C241 1.438 . S
C242 C243 1.428 1_565 S
C242 C255 1.394 1_565 S
C243 H235 0.949 . S
C243 C242 1.428 1_545 S
C243 C244 1.345 . S
C244 H236 0.950 . S
C244 C243 1.345 . S
C244 C245 1.424 1_545 S
C245 H237 0.951 . S
C245 C244 1.424 1_565 S
C245 C246 1.347 . S
C246 H238 0.951 . S
C246 C241 1.429 . S
C246 C245 1.347 . S
H247 C248 0.951 . S
C248 H247 0.951 . S
C248 C254 1.265 . S
H249 C254 0.950 . S
H250 C258 0.949 . S
H251 C259 0.950 . S
H252 C260 0.951 . S
H253 C261 0.951 1_545 S
C254 C248 1.265 . S
C254 H249 0.950 . S
C254 C255 1.478 . S
C255 C242 1.394 1_545 S
C255 C254 1.478 . S
C255 C256 1.397 1_545 S
C256 C255 1.397 1_565 S
C256 C257 1.438 . S
C256 C261 1.429 . S
C257 C240 1.394 . S
C257 C256 1.438 . S
C257 C258 1.428 . S
C258 H250 0.949 . S
C258 C257 1.428 . S
C258 C259 1.345 . S
C259 H251 0.950 . S
C259 C258 1.345 . S
C259 C260 1.424 . S
C260 H252 0.951 . S
C260 C259 1.424 . S
C260 C261 1.347 . S
C261 H253 0.951 1_565 S
C261 C256 1.429 . S
C261 C260 1.347 . S
H262 C263 0.951 . S
C263 H262 0.951 . S
C263 C269 1.265 . S
H264 C269 0.950 . S
H265 C273 0.949 1_455 S
H266 C274 0.950 . S
H267 C275 0.951 . S
H268 C276 0.951 . S
C269 C263 1.265 . S
C269 H264 0.950 . S
C269 C270 1.478 . S
C270 C269 1.478 . S
C270 C271 1.397 1_556 S
C270 C287 1.394 1_655 S
C271 C270 1.397 1_554 S
C271 C272 1.438 1_655 S
C271 C276 1.429 . S
C272 C271 1.438 1_455 S
C272 C273 1.428 1_455 S
C272 C285 1.394 . S
C273 H265 0.949 1_655 S
C273 C272 1.428 1_655 S
C273 C274 1.345 . S
C274 H266 0.950 . S
C274 C273 1.345 . S
C274 C275 1.424 . S
C275 H267 0.951 . S
C275 C274 1.424 . S
C275 C276 1.347 . S
C276 H268 0.951 . S
C276 C271 1.429 . S
C276 C275 1.347 . S
H277 C278 0.951 . S
C278 H277 0.951 . S
C278 C284 1.265 . S
H279 C284 0.950 . S
H280 C288 0.949 . S
H281 C289 0.950 . S
H282 C290 0.951 . S
H283 C291 0.951 . S
C284 C278 1.265 . S
C284 H279 0.950 . S
C284 C285 1.478 . S
C285 C272 1.394 . S
C285 C284 1.478 . S
C285 C286 1.397 1_554 S
C286 C285 1.397 1_556 S
C286 C287 1.438 . S
C286 C291 1.429 . S
C287 C270 1.394 1_455 S
C287 C286 1.438 . S
C287 C288 1.428 . S
C288 H280 0.949 . S
C288 C287 1.428 . S
C288 C289 1.345 . S
C289 H281 0.950 . S
C289 C288 1.345 . S
C289 C290 1.424 . S
C290 H282 0.951 . S
C290 C289 1.424 . S
C290 C291 1.347 . S
C291 H283 0.951 . S
C291 C286 1.429 . S
C291 C290 1.347 . S
H292 C293 0.951 . S
C293 H292 0.951 . S
C293 C299 1.265 . S
H294 C299 0.950 . S
H295 C303 0.949 . S
H296 C304 0.950 . S
H297 C305 0.951 . S
H298 C306 0.951 . S
C299 C293 1.265 . S
C299 H294 0.950 . S
C299 C300 1.478 . S
C300 C299 1.478 . S
C300 C301 1.397 . S
C300 C317 1.394 . S
C301 C300 1.397 . S
C301 C302 1.438 . S
C301 C306 1.429 . S
C302 C301 1.438 . S
C302 C303 1.428 . S
C302 C315 1.394 . S
C303 H295 0.949 . S
C303 C302 1.428 . S
C303 C304 1.345 . S
C304 H296 0.950 . S
C304 C303 1.345 . S
C304 C305 1.424 . S
C305 H297 0.951 . S
C305 C304 1.424 . S
C305 C306 1.347 . S
C306 H298 0.951 . S
C306 C301 1.429 . S
C306 C305 1.347 . S
H307 C308 0.951 . S
C308 H307 0.951 . S
C308 C314 1.265 . S
H309 C314 0.950 . S
H310 C318 0.949 . S
H311 C319 0.950 . S
H312 C320 0.951 . S
H313 C321 0.951 . S
C314 C308 1.265 . S
C314 H309 0.950 . S
C314 C315 1.478 . S
C315 C302 1.394 . S
C315 C314 1.478 . S
C315 C316 1.397 . S
C316 C315 1.397 . S
C316 C317 1.438 . S
C316 C321 1.429 . S
C317 C300 1.394 . S
C317 C316 1.438 . S
C317 C318 1.428 . S
C318 H310 0.949 . S
C318 C317 1.428 . S
C318 C319 1.345 . S
C319 H311 0.950 . S
C319 C318 1.345 . S
C319 C320 1.424 . S
C320 H312 0.951 . S
C320 C319 1.424 . S
C320 C321 1.347 . S
C321 H313 0.951 . S
C321 C316 1.429 . S
C321 C320 1.347 . S
H322 C323 0.951 . S
C323 H322 0.951 . S
C323 C329 1.265 . S
H324 C329 0.950 . S
H325 C333 0.949 . S
H326 C334 0.950 . S
H327 C335 0.951 . S
H328 C336 0.951 . S
C329 C323 1.265 . S
C329 H324 0.950 . S
C329 C330 1.478 . S
C330 C329 1.478 . S
C330 C331 1.397 . S
C330 C347 1.394 . S
C331 C330 1.397 . S
C331 C332 1.438 . S
C331 C336 1.429 . S
C332 C331 1.438 . S
C332 C333 1.428 . S
C332 C345 1.394 . S
C333 H325 0.949 . S
C333 C332 1.428 . S
C333 C334 1.345 . S
C334 H326 0.950 . S
C334 C333 1.345 . S
C334 C335 1.424 . S
C335 H327 0.951 . S
C335 C334 1.424 . S
C335 C336 1.347 . S
C336 H328 0.951 . S
C336 C331 1.429 . S
C336 C335 1.347 . S
H337 C338 0.951 . S
C338 H337 0.951 . S
C338 C344 1.265 . S
H339 C344 0.950 . S
H340 C348 0.949 . S
H341 C349 0.950 . S
H342 C350 0.951 . S
H343 C351 0.951 . S
C344 C338 1.265 . S
C344 H339 0.950 . S
C344 C345 1.478 . S
C345 C332 1.394 . S
C345 C344 1.478 . S
C345 C346 1.397 . S
C346 C345 1.397 . S
C346 C347 1.438 . S
C346 C351 1.429 . S
C347 C330 1.394 . S
C347 C346 1.438 . S
C347 C348 1.428 . S
C348 H340 0.949 . S
C348 C347 1.428 . S
C348 C349 1.345 . S
C349 H341 0.950 . S
C349 C348 1.345 . S
C349 C350 1.424 . S
C350 H342 0.951 . S
C350 C349 1.424 . S
C350 C351 1.347 . S
C351 H343 0.951 . S
C351 C346 1.429 . S
C351 C350 1.347 . S
H352 C353 0.951 . S
C353 H352 0.951 . S
C353 C359 1.265 . S
H354 C359 0.950 . S
H355 C363 0.949 . S
H356 C364 0.950 . S
H357 C365 0.951 . S
H358 C366 0.951 . S
C359 C353 1.265 . S
C359 H354 0.950 . S
C359 C360 1.478 . S
C360 C359 1.478 . S
C360 C361 1.397 . S
C360 C377 1.394 . S
C361 C360 1.397 . S
C361 C362 1.438 . S
C361 C366 1.429 . S
C362 C361 1.438 . S
C362 C363 1.428 . S
C362 C375 1.394 . S
C363 H355 0.949 . S
C363 C362 1.428 . S
C363 C364 1.345 . S
C364 H356 0.950 . S
C364 C363 1.345 . S
C364 C365 1.424 . S
C365 H357 0.951 . S
C365 C364 1.424 . S
C365 C366 1.347 . S
C366 H358 0.951 . S
C366 C361 1.429 . S
C366 C365 1.347 . S
H367 C368 0.951 . S
C368 H367 0.951 . S
C368 C374 1.265 . S
H369 C374 0.950 . S
H370 C378 0.949 . S
H371 C379 0.950 . S
H372 C380 0.951 . S
H373 C381 0.951 . S
C374 C368 1.265 . S
C374 H369 0.950 . S
C374 C375 1.478 . S
C375 C362 1.394 . S
C375 C374 1.478 . S
C375 C376 1.397 . S
C376 C375 1.397 . S
C376 C377 1.438 . S
C376 C381 1.429 . S
C377 C360 1.394 . S
C377 C376 1.438 . S
C377 C378 1.428 . S
C378 H370 0.949 . S
C378 C377 1.428 . S
C378 C379 1.345 . S
C379 H371 0.950 . S
C379 C378 1.345 . S
C379 C380 1.424 . S
C380 H372 0.951 . S
C380 C379 1.424 . S
C380 C381 1.347 . S
C381 H373 0.951 . S
C381 C376 1.429 . S
C381 C380 1.347 . S
H382 C383 0.951 . S
C383 H382 0.951 . S
C383 C389 1.265 . S
H384 C389 0.950 . S
H385 C393 0.949 1_554 S
H386 C394 0.950 . S
H387 C395 0.951 . S
H388 C396 0.951 . S
C389 C383 1.265 . S
C389 H384 0.950 . S
C389 C390 1.478 . S
C390 C389 1.478 . S
C390 C391 1.397 . S
C390 C407 1.394 1_556 S
C391 C390 1.397 . S
C391 C392 1.438 . S
C391 C396 1.429 . S
C392 C391 1.438 . S
C392 C393 1.428 . S
C392 C405 1.394 1_556 S
C393 H385 0.949 1_556 S
C393 C392 1.428 . S
C393 C394 1.345 . S
C394 H386 0.950 . S
C394 C393 1.345 . S
C394 C395 1.424 . S
C395 H387 0.951 . S
C395 C394 1.424 . S
C395 C396 1.347 . S
C396 H388 0.951 . S
C396 C391 1.429 . S
C396 C395 1.347 . S
H397 C398 0.951 . S
C398 H397 0.951 . S
C398 C404 1.265 . S
H399 C404 0.950 . S
H400 C408 0.949 1_556 S
H401 C409 0.950 . S
H402 C410 0.951 . S
H403 C411 0.951 . S
C404 C398 1.265 . S
C404 H399 0.950 . S
C404 C405 1.478 . S
C405 C392 1.394 1_554 S
C405 C404 1.478 . S
C405 C406 1.397 . S
C406 C405 1.397 . S
C406 C407 1.438 . S
C406 C411 1.429 . S
C407 C390 1.394 1_554 S
C407 C406 1.438 . S
C407 C408 1.428 . S
C408 H400 0.949 1_554 S
C408 C407 1.428 . S
C408 C409 1.345 . S
C409 H401 0.950 . S
C409 C408 1.345 . S
C409 C410 1.424 . S
C410 H402 0.951 . S
C410 C409 1.424 . S
C410 C411 1.347 . S
C411 H403 0.951 . S
C411 C406 1.429 . S
C411 C410 1.347 . S
H412 C413 0.951 . S
C413 H412 0.951 . S
C413 C419 1.265 . S
H414 C419 0.950 . S
H415 C423 0.949 . S
H416 C424 0.950 . S
H417 C425 0.951 . S
H418 C426 0.951 . S
C419 C413 1.265 . S
C419 H414 0.950 . S
C419 C420 1.478 . S
C420 C419 1.478 . S
C420 C421 1.397 . S
C420 C437 1.394 . S
C421 C420 1.397 . S
C421 C422 1.438 1_565 S
C421 C426 1.429 . S
C422 C421 1.438 1_545 S
C422 C423 1.428 . S
C422 C435 1.394 . S
C423 H415 0.949 . S
C423 C422 1.428 . S
C423 C424 1.345 . S
C424 H416 0.950 . S
C424 C423 1.345 . S
C424 C425 1.424 . S
C425 H417 0.951 . S
C425 C424 1.424 . S
C425 C426 1.347 1_545 S
C426 H418 0.951 . S
C426 C421 1.429 . S
C426 C425 1.347 1_565 S
H427 C428 0.951 . S
C428 H427 0.951 . S
C428 C434 1.265 . S
H429 C434 0.950 . S
H430 C438 0.949 . S
H431 C439 0.950 . S
H432 C440 0.951 . S
H433 C441 0.951 . S
C434 C428 1.265 . S
C434 H429 0.950 . S
C434 C435 1.478 . S
C435 C422 1.394 . S
C435 C434 1.478 . S
C435 C436 1.397 1_545 S
C436 C435 1.397 1_565 S
C436 C437 1.438 . S
C436 C441 1.429 . S
C437 C420 1.394 . S
C437 C436 1.438 . S
C437 C438 1.428 . S
C438 H430 0.949 . S
C438 C437 1.428 . S
C438 C439 1.345 . S
C439 H431 0.950 . S
C439 C438 1.345 . S
C439 C440 1.424 . S
C440 H432 0.951 . S
C440 C439 1.424 . S
C440 C441 1.347 . S
C441 H433 0.951 . S
C441 C436 1.429 . S
C441 C440 1.347 . S
H442 C443 0.951 . S
C443 H442 0.951 . S
C443 C449 1.265 . S
H444 C449 0.950 . S
H445 C453 0.949 . S
H446 C454 0.946 1_455 S
H447 C455 0.951 . S
H448 C456 0.951 . S
C449 C443 1.265 . S
C449 H444 0.950 . S
C449 C450 1.478 . S
C450 C449 1.478 . S
C450 C451 1.397 . S
C450 C467 1.416 1_655 S
C451 C450 1.397 . S
C451 C452 1.438 1_655 S
C451 C456 1.429 . S
C452 C451 1.438 1_455 S
C452 C453 1.428 . S
C452 C465 1.394 1_565 S
C453 H445 0.949 . S
C453 C452 1.428 . S
C453 C454 1.339 1_455 S
C454 H446 0.946 1_655 S
C454 C453 1.339 1_655 S
C454 C455 1.434 . S
C455 H447 0.951 . S
C455 C454 1.434 . S
C455 C456 1.347 . S
C456 H448 0.951 . S
C456 C451 1.429 . S
C456 C455 1.347 . S
H457 C458 0.951 . S
C458 H457 0.951 . S
C458 C464 1.265 . S
H459 C464 0.950 . S
H460 C468 0.944 1_665 S
H461 C469 0.950 . S
H462 C470 0.951 . S
H463 C471 0.951 . S
C464 C458 1.265 . S
C464 H459 0.950 . S
C464 C465 1.478 . S
C465 C452 1.394 1_545 S
C465 C464 1.478 . S
C465 C466 1.397 . S
C466 C465 1.397 . S
C466 C467 1.427 1_545 S
C466 C471 1.429 . S
C467 C450 1.416 1_455 S
C467 C466 1.427 1_565 S
C467 C468 1.416 1_565 S
C468 H460 0.944 1_445 S
C468 C467 1.416 1_545 S
C468 C469 1.345 . S
C469 H461 0.950 . S
C469 C468 1.345 . S
C469 C470 1.424 . S
C470 H462 0.951 . S
C470 C469 1.424 . S
C470 C471 1.347 . S
C471 H463 0.951 . S
C471 C466 1.429 . S
C471 C470 1.347 . S
H472 C473 0.951 . S
C473 H472 0.951 . S
C473 C479 1.265 . S
H474 C479 0.950 . S
H475 C483 0.949 . S
H476 C484 0.950 . S
H477 C485 0.951 . S
H478 C486 0.951 . S
C479 C473 1.265 . S
C479 H474 0.950 . S
C479 C480 1.478 . S
C480 C479 1.478 . S
C480 C481 1.397 . S
C480 C497 1.394 1_655 S
C481 C480 1.397 . S
C481 C482 1.438 1_655 S
C481 C486 1.429 . S
C482 C481 1.438 1_455 S
C482 C483 1.428 . S
C482 C495 1.394 . S
C483 H475 0.949 . S
C483 C482 1.428 . S
C483 C484 1.345 1_455 S
C484 H476 0.950 . S
C484 C483 1.345 1_655 S
C484 C485 1.424 . S
C485 H477 0.951 . S
C485 C484 1.424 . S
C485 C486 1.347 . S
C486 H478 0.951 . S
C486 C481 1.429 . S
C486 C485 1.347 . S
H487 C488 0.951 . S
C488 H487 0.951 . S
C488 C494 1.265 . S
H489 C494 0.950 . S
H490 C498 0.971 . S
H491 C499 0.950 . S
H492 C500 0.951 . S
H493 C501 0.951 . S
C494 C488 1.265 . S
C494 H489 0.950 . S
C494 C495 1.478 . S
C495 C482 1.394 . S
C495 C494 1.478 . S
C495 C496 1.397 . S
C496 C495 1.397 . S
C496 C497 1.438 . S
C496 C501 1.429 . S
C497 C480 1.394 1_455 S
C497 C496 1.438 . S
C497 C498 1.428 . S
C498 H490 0.971 . S
C498 C497 1.428 . S
C498 C499 1.345 . S
C499 H491 0.950 . S
C499 C498 1.345 . S
C499 C500 1.424 . S
C500 H492 0.951 . S
C500 C499 1.424 . S
C500 C501 1.347 . S
C501 H493 0.951 . S
C501 C496 1.429 . S
C501 C500 1.347 . S
H502 C503 0.951 . S
C503 H502 0.951 . S
C503 C509 1.265 . S
H504 C509 0.950 . S
H505 C513 0.949 . S
H506 C514 0.950 . S
H507 C515 0.951 . S
H508 C516 0.951 . S
C509 C503 1.265 . S
C509 H504 0.950 . S
C509 C510 1.478 . S
C510 C509 1.478 . S
C510 C511 1.397 . S
C510 C527 1.394 . S
C511 C510 1.397 . S
C511 C512 1.438 . S
C511 C516 1.429 . S
C512 C511 1.438 . S
C512 C513 1.428 . S
C512 C525 1.394 . S
C513 H505 0.949 . S
C513 C512 1.428 . S
C513 C514 1.345 . S
C514 H506 0.950 . S
C514 C513 1.345 . S
C514 C515 1.424 . S
C515 H507 0.951 . S
C515 C514 1.424 . S
C515 C516 1.347 . S
C516 H508 0.951 . S
C516 C511 1.429 . S
C516 C515 1.347 . S
H517 C518 0.951 . S
C518 H517 0.951 . S
C518 C524 1.265 . S
H519 C524 0.950 . S
H520 C528 0.949 . S
H521 C529 0.950 . S
H522 C530 0.951 . S
H523 C531 0.951 . S
C524 C518 1.265 . S
C524 H519 0.950 . S
C524 C525 1.478 . S
C525 C512 1.394 . S
C525 C524 1.478 . S
C525 C526 1.397 . S
C526 C525 1.397 . S
C526 C527 1.438 . S
C526 C531 1.429 . S
C527 C510 1.394 . S
C527 C526 1.438 . S
C527 C528 1.428 . S
C528 H520 0.949 . S
C528 C527 1.428 . S
C528 C529 1.345 . S
C529 H521 0.950 . S
C529 C528 1.345 . S
C529 C530 1.424 . S
C530 H522 0.951 . S
C530 C529 1.424 . S
C530 C531 1.347 . S
C531 H523 0.951 . S
C531 C526 1.429 . S
C531 C530 1.347 . S
H532 C533 0.951 . S
C533 H532 0.951 . S
C533 C539 1.265 . S
H534 C539 0.950 . S
H535 C543 0.949 . S
H536 C544 0.950 . S
H537 C545 0.951 . S
H538 C546 0.951 . S
C539 C533 1.265 . S
C539 H534 0.950 . S
C539 C540 1.478 . S
C540 C539 1.478 . S
C540 C541 1.397 . S
C540 C557 1.394 . S
C541 C540 1.397 . S
C541 C542 1.438 1_554 S
C541 C546 1.429 . S
C542 C541 1.438 1_556 S
C542 C543 1.428 . S
C542 C555 1.394 . S
C543 H535 0.949 . S
C543 C542 1.428 . S
C543 C544 1.345 . S
C544 H536 0.950 . S
C544 C543 1.345 . S
C544 C545 1.424 1_556 S
C545 H537 0.951 . S
C545 C544 1.424 1_554 S
C545 C546 1.347 . S
C546 H538 0.951 . S
C546 C541 1.429 . S
C546 C545 1.347 . S
H547 C548 0.951 . S
C548 H547 0.951 . S
C548 C554 1.265 . S
H549 C554 0.950 . S
H550 C558 0.949 . S
H551 C559 0.950 . S
H552 C560 0.951 . S
H553 C561 0.951 . S
C554 C548 1.265 . S
C554 H549 0.950 . S
C554 C555 1.478 . S
C555 C542 1.394 . S
C555 C554 1.478 . S
C555 C556 1.397 . S
C556 C555 1.397 . S
C556 C557 1.438 1_556 S
C556 C561 1.429 . S
C557 C540 1.394 . S
C557 C556 1.438 1_554 S
C557 C558 1.428 . S
C558 H550 0.949 . S
C558 C557 1.428 . S
C558 C559 1.345 . S
C559 H551 0.950 . S
C559 C558 1.345 . S
C559 C560 1.424 1_554 S
C560 H552 0.951 . S
C560 C559 1.424 1_556 S
C560 C561 1.347 . S
C561 H553 0.951 . S
C561 C556 1.429 . S
C561 C560 1.347 . S
H562 C563 0.951 . S
C563 H562 0.951 . S
C563 C569 1.265 . S
H564 C569 0.950 . S
H565 C573 0.949 . S
H566 C574 0.950 . S
H567 C575 0.951 . S
H568 C576 0.951 . S
C569 C563 1.265 . S
C569 H564 0.950 . S
C569 C570 1.478 . S
C570 C569 1.478 . S
C570 C571 1.397 . S
C570 C587 1.394 . S
C571 C570 1.397 . S
C571 C572 1.438 . S
C571 C576 1.429 . S
C572 C571 1.438 . S
C572 C573 1.428 . S
C572 C585 1.394 . S
C573 H565 0.949 . S
C573 C572 1.428 . S
C573 C574 1.345 . S
C574 H566 0.950 . S
C574 C573 1.345 . S
C574 C575 1.424 . S
C575 H567 0.951 . S
C575 C574 1.424 . S
C575 C576 1.347 . S
C576 H568 0.951 . S
C576 C571 1.429 . S
C576 C575 1.347 . S
H577 C578 0.951 . S
C578 H577 0.951 . S
C578 C584 1.265 . S
H579 C584 0.950 . S
H580 C588 0.949 . S
H581 C589 0.950 . S
H582 C590 0.951 . S
H583 C591 0.951 . S
C584 C578 1.265 . S
C584 H579 0.950 . S
C584 C585 1.478 . S
C585 C572 1.394 . S
C585 C584 1.478 . S
C585 C586 1.397 . S
C586 C585 1.397 . S
C586 C587 1.438 . S
C586 C591 1.429 . S
C587 C570 1.394 . S
C587 C586 1.438 . S
C587 C588 1.428 . S
C588 H580 0.949 . S
C588 C587 1.428 . S
C588 C589 1.345 . S
C589 H581 0.950 . S
C589 C588 1.345 . S
C589 C590 1.424 . S
C590 H582 0.951 . S
C590 C589 1.424 . S
C590 C591 1.347 . S
C591 H583 0.951 . S
C591 C586 1.429 . S
C591 C590 1.347 . S
C113 C78 1.588 . S
C128 C8 1.571 . S
C143 C105 1.485 . S
C158 C20 1.545 . S
C173 C37 1.573 . S
C188 C93 1.585 . S
C203 C49 1.520 . S
C218 C62 1.570 . S
C233 C90 1.499 . S
C248 C7 1.562 . S
C263 C23 1.571 . S
C278 C65 1.591 . S
C293 C77 1.553 . S
C308 C34 1.560 . S
C323 C50 1.573 . S
C338 C106 1.591 . S
C353 C63 1.486 . S
C368 C76 1.508 . S
C383 C22 1.590 . S
C398 C36 1.571 . S
C413 C48 1.519 . S
C428 C35 1.570 . S
C443 C51 1.576 . S
C458 C9 1.589 . S
C473 C21 1.548 . S
C488 C6 1.486 . S
C503 C104 1.567 . S
C518 C91 1.540 . S
C533 C64 1.588 . S
C548 C92 1.578 . S
C563 C79 1.587 . S
C578 C107 1.571 . S
