# Generated by pormake.
# Topology tsi, (8)-cn, num edge types: 1
# Building blocks:
#     Node 0, Type 0, BuildingBlock: LIZSOE_clean_sbu_0, # of connection points: 8
#     Node 1, Type 0, BuildingBlock: LIZSOE_clean_sbu_0, # of connection points: 8
#     Node 2, Type 0, BuildingBlock: LIZSOE_clean_sbu_0, # of connection points: 8
#     Node 3, Type 0, BuildingBlock: LIZSOE_clean_sbu_0, # of connection points: 8
#     Edge 4, Type (0, 0), BuildingBlock: ZUJKAS_clean_linker_0, # of connection points: 2
#     Edge 5, Type (0, 0), BuildingBlock: ZUJKAS_clean_linker_0, # of connection points: 2
#     Edge 6, Type (0, 0), BuildingBlock: ZUJKAS_clean_linker_0, # of connection points: 2
#     Edge 7, Type (0, 0), BuildingBlock: ZUJKAS_clean_linker_0, # of connection points: 2
#     Edge 8, Type (0, 0), BuildingBlock: ZUJKAS_clean_linker_0, # of connection points: 2
#     Edge 9, Type (0, 0), BuildingBlock: ZUJKAS_clean_linker_0, # of connection points: 2
#     Edge 10, Type (0, 0), BuildingBlock: ZUJKAS_clean_linker_0, # of connection points: 2
#     Edge 11, Type (0, 0), BuildingBlock: ZUJKAS_clean_linker_0, # of connection points: 2
#     Edge 12, Type (0, 0), BuildingBlock: ZUJKAS_clean_linker_0, # of connection points: 2
#     Edge 13, Type (0, 0), BuildingBlock: ZUJKAS_clean_linker_0, # of connection points: 2
#     Edge 14, Type (0, 0), BuildingBlock: ZUJKAS_clean_linker_0, # of connection points: 2
#     Edge 15, Type (0, 0), BuildingBlock: ZUJKAS_clean_linker_0, # of connection points: 2
#     Edge 16, Type (0, 0), BuildingBlock: ZUJKAS_clean_linker_0, # of connection points: 2
#     Edge 17, Type (0, 0), BuildingBlock: ZUJKAS_clean_linker_0, # of connection points: 2
#     Edge 18, Type (0, 0), BuildingBlock: ZUJKAS_clean_linker_0, # of connection points: 2
#     Edge 19, Type (0, 0), BuildingBlock: ZUJKAS_clean_linker_0, # of connection points: 2
# Relax obj value: 0.211
# Max RMSD: 0.260
# Mean RMSD: 0.249
data_MOF--net-tsi--node1-LIZSOE_clean_sbu_0--edge1-ZUJKAS_clean_linker_0
_symmetry_space_group_name_H-M    P1
_symmetry_Int_Tables_number       1
_symmetry_cell_setting            triclinic
loop_
_symmetry_equiv_pos_as_xyz
'x, y, z'
_cell_length_a     19.990692
_cell_length_b     20.020813
_cell_length_c     81.740685
_cell_angle_alpha  99.87673
_cell_angle_beta   99.502141
_cell_angle_gamma 90.132652
loop_
_atom_site_label
_atom_site_type_symbol
_atom_site_fract_x
_atom_site_fract_y
_atom_site_fract_z
_atom_type_partial_charge
Co0 Co 0.18497 0.39814 0.46102 0.0
N1 N 0.24813 0.36412 0.47634 0.0
C2 C 0.31659 0.36565 0.47867 0.0
N3 N 0.28752 0.31266 0.49814 0.0
C4 C 0.23193 0.33227 0.48849 0.0
C5 C 0.34082 0.33315 0.4919 0.0
Co6 Co 0.03175 0.43928 0.38521 0.0
N7 N 0.97113 0.47901 0.37009 0.0
N8 N 0.91173 0.5022 0.34594 0.0
C9 C 0.90275 0.55211 0.35862 0.0
C10 C 0.9385 0.53748 0.37339 0.0
C11 C 0.95298 0.45806 0.35326 0.0
Co12 Co 0.11054 0.42003 0.42336 0.0
C13 C 0.13028 0.41475 0.3868 0.0
H14 H 0.94106 0.56816 0.38575 0.0
O15 O 0.12353 0.43637 0.44874 0.0
O16 O 1.00974 0.41642 0.42381 0.0
O17 O 0.11305 0.31835 0.42314 0.0
O18 O 0.20979 0.42419 0.42239 0.0
O19 O 0.25097 0.39985 0.44735 0.0
O20 O 0.9638 0.43105 0.39779 0.0
O21 O 0.09449 0.40081 0.39798 0.0
O22 O 0.05658 0.52593 0.39803 0.0
O23 O 0.15834 0.3111 0.44984 0.0
O24 O 0.20546 0.48425 0.46969 0.0
O25 O 0.10863 0.52106 0.42406 0.0
O26 O 0.1011 0.44481 0.37474 0.0
C27 C 0.13178 0.28368 0.43493 0.0
C28 C 0.97788 0.39443 0.34393 0.0
H29 H 1.01915 0.3725 0.35198 0.0
H30 H 0.93558 0.35614 0.33999 0.0
H31 H 0.99555 0.40494 0.33242 0.0
C32 C 0.95825 0.42281 0.41259 0.0
C33 C 0.25927 0.41088 0.43308 0.0
H34 H 0.34717 0.38913 0.47136 0.0
H35 H 0.14778 0.35587 0.50133 0.0
H36 H 0.15383 0.26722 0.49315 0.0
H37 H 0.12407 0.32605 0.47914 0.0
C38 C 0.16013 0.31924 0.49053 0.0
C39 C 0.14488 0.48702 0.46107 0.0
C40 C 0.08531 0.55482 0.41255 0.0
H41 H 0.39355 0.32546 0.49666 0.0
H42 H 0.87223 0.59607 0.35727 0.0
Co43 Co 0.11363 0.57918 0.69501 0.0
N44 N 0.0594 0.52263 0.70374 0.0
C45 C 0.07533 0.45865 0.7057 0.0
N46 N 0.98589 0.48193 0.71798 0.0
C47 C 1.00394 0.53531 0.71127 0.0
C48 C 0.03016 0.43348 0.71429 0.0
Co49 Co 0.21593 0.71516 0.63451 0.0
N50 N 0.2716 0.77021 0.62626 0.0
N51 N 0.30323 0.85058 0.6128 0.0
C52 C 0.35807 0.81505 0.61754 0.0
C53 C 0.33858 0.76575 0.62577 0.0
C54 C 0.25126 0.82189 0.61818 0.0
Co55 Co 0.16367 0.64752 0.66465 0.0
C56 C 0.18134 0.61853 0.62734 0.0
H57 H 0.37094 0.72799 0.63064 0.0
O58 O 0.16582 0.63814 0.68896 0.0
O59 O 0.16576 0.74997 0.67185 0.0
O60 O 0.06164 0.649 0.65974 0.0
O61 O 0.16175 0.54517 0.65738 0.0
O62 O 0.13499 0.5063 0.67975 0.0
O63 O 0.19617 0.7883 0.64977 0.0
O64 O 0.16157 0.65747 0.64026 0.0
O65 O 0.29068 0.69832 0.64992 0.0
O66 O 0.0383 0.59339 0.67947 0.0
O67 O 0.09781 0.65374 0.70842 0.0
O68 O 0.26548 0.64528 0.6698 0.0
O69 O 0.23094 0.64077 0.62102 0.0
C70 C 1.01943 0.62064 0.6667 0.0
C71 C 0.17824 0.83976 0.61444 0.0
H72 H 0.14472 0.79638 0.61513 0.0
H73 H 0.1683 0.88342 0.62399 0.0
H74 H 0.1662 0.85419 0.60179 0.0
C75 C 0.17831 0.79821 0.66416 0.0
C76 C 0.15157 0.49673 0.66522 0.0
H77 H 0.11898 0.43274 0.70179 0.0
H78 H 0.99134 0.63729 0.72331 0.0
H79 H 0.913 0.59235 0.71342 0.0
H80 H 0.9673 0.62379 0.70085 0.0
C81 C 0.96667 0.60071 0.71216 0.0
C82 C 0.14496 0.67758 0.70162 0.0
C83 C 0.30862 0.67156 0.66277 0.0
H84 H 0.03193 0.38469 0.71835 0.0
H85 H 0.40856 0.82349 0.61498 0.0
Co86 Co 0.34103 0.77127 0.93679 0.0
N87 N 0.30061 0.83407 0.95126 0.0
C88 C 0.2524 0.87821 0.94721 0.0
N89 N 0.27503 0.89508 0.97506 0.0
C90 C 0.31392 0.84587 0.96829 0.0
C91 C 0.23673 0.91571 0.96178 0.0
Co92 Co 0.39595 0.61142 0.86199 0.0
N93 N 0.44156 0.552 0.84781 0.0
N94 N 0.50619 0.5006 0.82961 0.0
C95 C 0.4545 0.45789 0.82983 0.0
C96 C 0.41525 0.48936 0.84099 0.0
C97 C 0.49719 0.55767 0.84052 0.0
Co98 Co 0.36411 0.69044 0.89917 0.0
C99 C 0.36119 0.70614 0.86189 0.0
H100 H 0.3689 0.46867 0.84361 0.0
O101 O 0.37969 0.70681 0.92459 0.0
O102 O 0.46556 0.6927 0.90102 0.0
O103 O 0.36548 0.79124 0.89855 0.0
O104 O 0.26273 0.68977 0.89771 0.0
O105 O 0.25604 0.75242 0.92264 0.0
O106 O 0.4794 0.64394 0.87522 0.0
O107 O 0.34887 0.672 0.87357 0.0
O108 O 0.39097 0.54539 0.87507 0.0
O109 O 0.36028 0.83825 0.92521 0.0
O110 O 0.32576 0.7027 0.94651 0.0
O111 O 0.36326 0.5902 0.89991 0.0
O112 O 0.39747 0.67799 0.85095 0.0
C113 C 0.36715 0.84308 0.91029 0.0
C114 C 0.54083 0.62102 0.84313 0.0
H115 H 0.51433 0.66686 0.84776 0.0
H116 H 0.58671 0.61631 0.8525 0.0
H117 H 0.55762 0.62763 0.83121 0.0
C118 C 0.50307 0.67392 0.89 0.0
C119 C 0.22801 0.72033 0.90838 0.0
H120 H 0.23032 0.88307 0.93448 0.0
H121 H 0.34722 0.767 0.98204 0.0
H122 H 0.39366 0.84653 0.98963 0.0
H123 H 0.408 0.79328 0.97027 0.0
C124 C 0.36926 0.8115 0.97815 0.0
C125 C 0.35979 0.67215 0.93532 0.0
C126 C 0.37757 0.53946 0.88938 0.0
H127 H 0.19986 0.95517 0.96256 0.0
H128 H 0.44495 0.40806 0.82212 0.0
Co129 Co 0.44878 0.29572 0.19956 0.0
N130 N 0.4055 0.26613 0.21587 0.0
C131 C 0.35003 0.22459 0.21293 0.0
N132 N 0.37458 0.25529 0.24065 0.0
C133 C 0.4199 0.28342 0.2329 0.0
C134 C 0.33068 0.21847 0.22803 0.0
Co135 Co 0.48956 0.32692 0.1222 0.0
N136 N 0.52235 0.36274 0.10506 0.0
N137 N 0.53101 0.39779 0.08062 0.0
C138 C 0.58493 0.3605 0.0848 0.0
C139 C 0.57954 0.33927 0.09965 0.0
C140 C 0.49362 0.39872 0.09313 0.0
Co141 Co 0.47037 0.31091 0.16096 0.0
C142 C 0.39852 0.28836 0.12465 0.0
H143 H 0.61268 0.30411 0.10541 0.0
O144 O 0.49153 0.33021 0.18605 0.0
O145 O 0.47051 0.41147 0.16056 0.0
O146 O 0.36927 0.31274 0.16057 0.0
O147 O 0.46938 0.21027 0.16171 0.0
O148 O 0.44892 0.20602 0.18779 0.0
O149 O 0.47706 0.41531 0.13369 0.0
O150 O 0.45272 0.28849 0.13601 0.0
O151 O 0.57758 0.32952 0.13477 0.0
O152 O 0.36346 0.30799 0.18723 0.0
O153 O 0.45333 0.3838 0.20879 0.0
O154 O 0.57143 0.31038 0.16079 0.0
O155 O 0.4029 0.31999 0.11218 0.0
C156 C 0.33511 0.31293 0.17246 0.0
C157 C 0.42456 0.42809 0.09263 0.0
H158 H 0.41206 0.44172 0.10546 0.0
H159 H 0.4215 0.47377 0.08658 0.0
H160 H 0.38633 0.38992 0.08503 0.0
C161 C 0.47188 0.44462 0.14852 0.0
C162 C 0.45843 0.1769 0.1732 0.0
H163 H 0.32406 0.2017 0.20055 0.0
H164 H 0.51629 0.33292 0.23383 0.0
H165 H 0.49886 0.32105 0.25409 0.0
H166 H 0.45514 0.38437 0.24378 0.0
C167 C 0.47604 0.33289 0.2417 0.0
C168 C 0.49013 0.38545 0.19708 0.0
C169 C 0.60569 0.32144 0.14946 0.0
H170 H 0.28658 0.19029 0.22962 0.0
H171 H 0.62338 0.34607 0.07707 0.0
H172 H 0.14889 0.61001 0.48156 0.0
H173 H 0.12176 0.62438 0.51004 0.0
H174 H 1.01549 0.43025 0.49774 0.0
H175 H 0.04123 0.41624 0.46916 0.0
H176 H 0.96357 0.52899 0.52356 0.0
H177 H 0.24108 0.49494 0.5371 0.0
H178 H 0.21788 0.56488 0.52641 0.0
H179 H 0.19338 0.4797 0.516 0.0
C180 C 0.11602 0.57234 0.48456 0.0
C181 C 0.09796 0.51173 0.47303 0.0
C182 C 0.10158 0.58 0.50099 0.0
C183 C 0.06848 0.5274 0.50625 0.0
C184 C 0.04167 0.47133 0.49409 0.0
H185 H 0.19584 0.49025 0.61108 0.0
H186 H 0.15374 0.45411 0.58101 0.0
C187 C 0.05575 0.46381 0.47758 0.0
C188 C 0.07177 0.52623 0.52465 0.0
H189 H 0.18584 0.52465 0.56065 0.0
C190 C 1.01207 0.52778 0.53169 0.0
C191 C 0.13476 0.52212 0.53524 0.0
C192 C 0.20043 0.51458 0.52833 0.0
C193 C 1.01407 0.52833 0.54912 0.0
C194 C 0.0776 0.52872 0.55992 0.0
C195 C 0.13688 0.52464 0.55263 0.0
C196 C 0.08546 0.53718 0.57883 0.0
C197 C 0.94787 0.52741 0.55564 0.0
C198 C 0.05703 0.59233 0.58818 0.0
C199 C 0.07901 0.61111 0.60562 0.0
C200 C 0.13173 0.57675 0.61403 0.0
C201 C 0.15428 0.51704 0.6051 0.0
C202 C 0.13118 0.49729 0.58774 0.0
H203 H 0.90695 0.50099 0.54575 0.0
H204 H 0.95231 0.50203 0.56681 0.0
H205 H 0.9323 0.58034 0.55924 0.0
H206 H 1.02286 0.62519 0.58183 0.0
H207 H 0.06188 0.65843 0.61196 0.0
H208 H 0.64251 0.51775 0.8377 0.0
H209 H 0.72393 0.5076 0.81798 0.0
H210 H 0.56035 0.44721 0.77641 0.0
H211 H 0.47897 0.45837 0.79611 0.0
H212 H 0.74845 0.39124 0.79247 0.0
H213 H 0.6552 0.61821 0.7658 0.0
H214 H 0.63731 0.60169 0.78571 0.0
H215 H 0.59173 0.55515 0.76633 0.0
C216 C 0.62425 0.50254 0.82435 0.0
C217 C 0.55467 0.48995 0.81831 0.0
C218 C 0.67059 0.49631 0.81314 0.0
C219 C 0.64785 0.47757 0.79575 0.0
C220 C 0.57865 0.46256 0.78977 0.0
H221 H 0.89314 0.38162 0.71589 0.0
H222 H 0.80971 0.37648 0.73473 0.0
C223 C 0.53242 0.46854 0.80098 0.0
C224 C 0.69624 0.47583 0.78383 0.0
H225 H 0.73977 0.55638 0.75335 0.0
C226 C 0.74656 0.4271 0.78387 0.0
C227 C 0.69375 0.52319 0.77277 0.0
C228 C 0.64201 0.57796 0.77265 0.0
C229 C 0.79451 0.42433 0.77301 0.0
C230 C 0.79158 0.47132 0.76185 0.0
C231 C 0.74138 0.52013 0.76186 0.0
C232 C 0.84213 0.4729 0.75058 0.0
C233 C 0.84888 0.37231 0.77379 0.0
C234 C 0.88738 0.52881 0.75325 0.0
C235 C 0.93468 0.53162 0.74259 0.0
C236 C 0.93668 0.47917 0.72887 0.0
C237 C 0.8919 0.4228 0.72631 0.0
C238 C 0.84464 0.41981 0.73705 0.0
H239 H 0.85128 0.34773 0.78507 0.0
H240 H 0.83806 0.33233 0.7624 0.0
H241 H 0.89932 0.39606 0.77398 0.0
H242 H 0.88649 0.57 0.76371 0.0
H243 H 0.97032 0.57437 0.74518 0.0
H244 H 0.29465 0.55674 0.93746 0.0
H245 H 0.33273 0.49114 0.95961 0.0
H246 H 0.53075 0.58876 0.96812 0.0
H247 H 0.49343 0.65207 0.94529 0.0
H248 H 0.53344 0.45721 0.97718 0.0
H249 H 0.34167 0.61833 1.00516 0.0
H250 H 0.30745 0.56347 0.9858 0.0
H251 H 0.36857 0.62953 0.98578 0.0
C252 C 0.34779 0.56034 0.94313 0.0
C253 C 0.39109 0.60928 0.93951 0.0
C254 C 0.3691 0.52406 0.95615 0.0
C255 C 0.43374 0.53708 0.96602 0.0
C256 C 0.48029 0.57843 0.96083 0.0
H257 H 0.51636 0.52553 0.07416 0.0
H258 H 0.49576 0.55954 0.04623 0.0
C259 C 0.45923 0.61383 0.94753 0.0
C260 C 0.44839 0.51682 0.98299 0.0
H261 H 0.39359 0.5385 1.02102 0.0
C262 C 0.50286 0.47483 0.98676 0.0
C263 C 0.40985 0.54154 0.99573 0.0
C264 C 0.35408 0.59127 0.99303 0.0
C265 C 0.51863 0.45549 1.00274 0.0
C266 C 0.47787 0.47751 1.01521 0.0
C267 C 0.42441 0.52075 1.01149 0.0
C268 C 0.48979 0.45688 1.0322 0.0
C269 C 0.57996 0.4131 1.00619 0.0
C270 C 0.49167 0.38802 1.03375 0.0
C271 C 0.50369 0.36892 0.04966 0.0
C272 C 0.51252 0.41807 0.0644 0.0
C273 C 0.50875 0.48683 0.06295 0.0
C274 C 0.4974 0.50608 0.04701 0.0
H275 H 0.61702 0.419 0.99775 0.0
H276 H 0.60598 0.42692 1.01945 0.0
H277 H 0.56365 0.3588 1.00384 0.0
H278 H 0.48386 0.34885 1.02264 0.0
H279 H 0.50643 0.31559 0.05052 0.0
H280 H 0.84042 0.39807 0.32464 0.0
H281 H 0.78568 0.39774 0.29551 0.0
H282 H 0.85991 0.60287 0.29888 0.0
H283 H 0.91614 0.6025 0.32798 0.0
H284 H 0.68568 0.49106 0.28704 0.0
H285 H 0.90149 0.50468 0.25253 0.0
H286 H 0.91079 0.47615 0.27257 0.0
H287 H 0.9036 0.56482 0.27171 0.0
C288 C 0.84698 0.44212 0.31898 0.0
C289 C 0.88371 0.49977 0.32841 0.0
C290 C 0.8152 0.44222 0.30239 0.0
C291 C 0.81961 0.49991 0.2949 0.0
C292 C 0.85702 0.55731 0.30424 0.0
H293 H 0.49653 0.51992 0.21098 0.0
H294 H 0.58884 0.56887 0.23341 0.0
C295 C 0.88861 0.55726 0.32087 0.0
C296 C 0.77939 0.5018 0.27799 0.0
H297 H 0.79109 0.50785 0.23697 0.0
C298 C 0.70867 0.49523 0.27611 0.0
C299 C 0.80961 0.50736 0.26378 0.0
C300 C 0.88558 0.51322 0.2651 0.0
C301 C 0.66719 0.49207 0.26037 0.0
C302 C 0.69708 0.49716 0.24601 0.0
C303 C 0.76803 0.50507 0.24796 0.0
C304 C 0.65563 0.48533 0.22878 0.0
C305 C 0.59188 0.47988 0.25926 0.0
C306 C 0.66645 0.42743 0.21725 0.0
C307 C 0.6147 0.40088 0.20397 0.0
C308 C 0.55097 0.43101 0.20237 0.0
C309 C 0.54489 0.4953 0.21201 0.0
C310 C 0.59732 0.52272 0.22504 0.0
H311 H 0.57968 0.46033 0.27038 0.0
H312 H 0.5656 0.52834 0.2586 0.0
H313 H 0.57129 0.44298 0.2478 0.0
H314 H 0.7115 0.39825 0.21963 0.0
H315 H 0.62122 0.35137 0.19675 0.0
H316 H 0.26162 0.2953 0.25286 0.0
H317 H 0.24521 0.31533 0.28229 0.0
H318 H 0.45265 0.26349 0.2977 0.0
H319 H 0.46752 0.23913 0.268 0.0
H320 H 0.37218 0.21175 0.31574 0.0
H321 H 0.30953 0.48016 0.31628 0.0
H322 H 0.25328 0.42646 0.29996 0.0
H323 H 0.34274 0.43017 0.29907 0.0
C324 C 0.30371 0.28842 0.26255 0.0
C325 C 0.36661 0.26825 0.25818 0.0
C326 C 0.29456 0.3004 0.2794 0.0
C327 C 0.34834 0.29329 0.29239 0.0
C328 C 0.41069 0.27072 0.28801 0.0
H329 H 0.24975 0.48 0.38827 0.0
H330 H 0.32707 0.44355 0.36858 0.0
C331 C 0.41959 0.25794 0.27106 0.0
C332 C 0.33865 0.30917 0.31041 0.0
H333 H 0.27515 0.42917 0.33819 0.0
C334 C 0.35189 0.25971 0.32076 0.0
C335 C 0.31411 0.37236 0.31726 0.0
C336 C 0.30488 0.43052 0.30761 0.0
C337 C 0.33771 0.2704 0.33736 0.0
C338 C 0.30762 0.33144 0.34367 0.0
C339 C 0.29771 0.38198 0.33354 0.0
C340 C 0.28068 0.3431 0.35998 0.0
C341 C 0.3555 0.21619 0.34793 0.0
C342 C 0.23346 0.29675 0.36321 0.0
C343 C 0.19199 0.31656 0.37538 0.0
C344 C 0.19513 0.38377 0.38404 0.0
C345 C 0.24768 0.42724 0.38227 0.0
C346 C 0.29078 0.40678 0.37059 0.0
H347 H 0.40063 0.1885 0.34446 0.0
H348 H 0.36606 0.23772 0.36158 0.0
H349 H 0.31253 0.17868 0.34556 0.0
H350 H 0.22316 0.2478 0.35514 0.0
H351 H 0.15068 0.28255 0.37607 0.0
H352 H 0.26726 0.64911 0.71781 0.0
H353 H 0.30226 0.68962 0.74784 0.0
H354 H 0.16248 0.85279 0.74539 0.0
H355 H 0.12316 0.80814 0.7155 0.0
H356 H 0.35023 0.78325 0.77093 0.0
H357 H 0.07853 0.76447 0.77639 0.0
H358 H 0.10779 0.74136 0.7566 0.0
H359 H 0.09582 0.82919 0.76489 0.0
C360 C 0.24646 0.69579 0.72344 0.0
C361 C 0.19198 0.72498 0.71423 0.0
C362 C 0.26565 0.71839 0.74082 0.0
C363 C 0.23236 0.77224 0.74931 0.0
C364 C 0.18642 0.80879 0.73948 0.0
H365 H 0.39094 0.83451 0.85792 0.0
H366 H 0.35045 0.86987 0.83096 0.0
C367 C 0.16557 0.7847 0.72218 0.0
C368 C 0.24148 0.78506 0.76829 0.0
H369 H 0.15506 0.79716 0.80158 0.0
C370 C 0.30739 0.78656 0.77759 0.0
C371 C 0.18581 0.78803 0.77721 0.0
C372 C 0.11307 0.77996 0.76827 0.0
C373 C 0.31926 0.78851 0.79518 0.0
C374 C 0.26372 0.79373 0.80417 0.0
C375 C 0.1979 0.7944 0.79493 0.0
C376 C 0.2724 0.79046 0.8227 0.0
C377 C 0.39118 0.78007 0.80359 0.0
C378 C 0.23471 0.74223 0.82841 0.0
C379 C 0.25444 0.72596 0.84454 0.0
C380 C 0.31433 0.75492 0.85489 0.0
C381 C 0.34447 0.81114 0.85034 0.0
C382 C 0.32299 0.82948 0.83452 0.0
H383 H 0.42355 0.7578 0.79435 0.0
H384 H 0.41401 0.83044 0.80984 0.0
H385 H 0.39265 0.74672 0.81318 0.0
H386 H 0.19416 0.71218 0.81987 0.0
H387 H 0.23002 0.68227 0.84755 0.0
H388 H 0.2727 0.82604 1.00083 0.0
H389 H 0.275 0.87497 1.03064 0.0
H390 H 0.27593 0.07598 1.01836 0.0
H391 H 0.27505 0.02721 0.98869 0.0
H392 H 0.3796 0.05305 0.04511 0.0
H393 H 0.12325 0.97424 0.05436 0.0
H394 H 0.17371 0.90953 0.04466 0.0
H395 H 0.14378 0.97699 1.03376 0.0
C396 C 0.274 0.88061 1.00457 0.0
C397 C 0.27498 0.92299 0.99254 0.0
C398 C 0.27423 0.90846 1.02153 0.0
C399 C 0.27501 0.97911 1.0267 0.0
C400 C 0.27498 1.02133 1.01464 0.0
H401 H 0.26765 0.28687 0.10872 0.0
H402 H 0.22339 0.19188 0.08665 0.0
C403 C 0.27448 0.99355 0.99772 0.0
C404 C 0.28073 1.00987 0.04477 0.0
H405 H 0.1945 0.03677 0.07807 0.0
C406 C 0.33946 0.04887 0.05237 0.0
C407 C 0.22803 1.00456 0.05416 0.0
C408 C 0.16328 0.96449 0.04638 0.0
C409 C 0.34656 0.08392 0.06897 0.0
C410 C 0.29382 0.07906 0.07841 0.0
C411 C 0.23523 0.03935 0.07092 0.0
C412 C 0.2973 0.12158 0.09531 0.0
C413 C 0.4095 0.12829 0.07608 0.0
C414 C 0.34812 0.11112 0.1086 0.0
C415 C 0.3734 0.1656 0.12132 0.0
C416 C 0.34858 0.2309 0.12063 0.0
C417 C 0.28838 0.23727 0.10942 0.0
C418 C 0.26326 0.18295 0.09667 0.0
H419 H 0.44057 0.13416 0.0663 0.0
H420 H 0.39568 0.1795 0.08194 0.0
H421 H 0.44137 0.10535 0.08599 0.0
H422 H 0.3745 0.06376 0.1079 0.0
H423 H 0.41959 0.15878 0.12973 0.0
H424 H 0.35708 0.19958 0.50085 0.0
H425 H 0.35898 0.12959 0.5228 0.0
H426 H 0.22815 0.26933 0.5476 0.0
H427 H 0.22654 0.33936 0.52565 0.0
H428 H 0.40026 0.16347 0.55772 0.0
H429 H 0.12664 0.08579 0.54135 0.0
H430 H 0.17008 0.1246 0.52752 0.0
H431 H 0.14473 0.17564 0.54565 0.0
C432 C 0.32901 0.21518 0.51105 0.0
C433 C 0.29048 0.27371 0.51144 0.0
C434 C 0.32998 0.17535 0.52352 0.0
C435 C 0.2926 0.1936 0.53662 0.0
C436 C 0.25587 0.25342 0.53735 0.0
H437 H 0.23987 0.97053 0.61741 0.0
H438 H 0.23679 0.05911 0.59991 0.0
C439 C 0.25477 0.29319 0.52483 0.0
C440 C 0.29238 0.1496 0.54945 0.0
H441 H 0.1904 0.04566 0.56443 0.0
C442 C 0.35436 0.13793 0.55925 0.0
C443 C 0.2323 0.11664 0.55145 0.0
C444 C 0.16465 0.12567 0.54087 0.0
C445 C 0.35805 0.09346 0.57086 0.0
C446 C 0.29833 0.05907 0.57252 0.0
C447 C 0.23603 0.07221 0.5631 0.0
C448 C 0.30018 1.00619 0.58319 0.0
C449 C 0.42585 0.0835 0.58125 0.0
C450 C 0.33586 0.94688 0.57937 0.0
C451 C 0.33673 0.89606 0.58913 0.0
C452 C 0.30149 0.90334 0.60281 0.0
C453 C 0.26596 0.96291 0.60668 0.0
C454 C 0.26479 1.01372 0.59683 0.0
H455 H 0.46199 0.12659 0.58198 0.0
H456 H 0.4202 0.07778 0.59423 0.0
H457 H 0.4482 0.03667 0.57531 0.0
H458 H 0.36243 0.93954 0.5687 0.0
H459 H 0.36417 0.85048 0.58586 0.0
H460 H 0.08585 0.19707 0.40485 0.0
H461 H 0.0769 0.07241 0.40037 0.0
H462 H 0.15111 0.07665 0.45316 0.0
H463 H 0.16082 0.19924 0.45776 0.0
H464 H 0.21655 0.98432 0.4322 0.0
H465 H 0.93573 0.95433 0.41506 0.0
H466 H 0.97642 1.0036 0.40285 0.0
H467 H 0.97788 0.03453 0.42487 0.0
C468 C 0.09992 0.17137 0.41549 0.0
C469 C 0.12399 0.2085 0.43164 0.0
C470 C 0.09456 0.10023 0.41293 0.0
C471 C 0.11288 0.0654 0.42648 0.0
C472 C 0.13674 0.10241 0.44253 0.0
H473 H 0.12955 0.64297 0.4424 0.0
H474 H 0.13733 0.76758 0.44648 0.0
C475 C 0.14212 0.17286 0.4451 0.0
C476 C 0.10887 0.99031 0.4242 0.0
H477 H 0.99787 0.85396 0.41429 0.0
C478 C 0.16876 0.95572 0.42827 0.0
C479 C 0.04641 0.95333 0.41921 0.0
C480 C 0.98024 0.98814 0.41536 0.0
C481 C 0.16801 0.88499 0.42726 0.0
C482 C 0.10553 0.84803 0.42231 0.0
C483 C 0.04566 0.88257 0.4182 0.0
C484 C 0.10155 0.77302 0.42026 0.0
C485 C 0.23418 0.85021 0.43113 0.0
C486 C 0.07817 0.73514 0.40429 0.0
C487 C 0.07357 0.66466 0.40194 0.0
C488 C 0.09181 0.62999 0.41557 0.0
C489 C 0.11534 0.66799 0.43165 0.0
C490 C 0.11998 0.73909 0.43398 0.0
H491 H 0.27866 0.88386 0.4313 0.0
H492 H 0.23824 0.8353 0.44371 0.0
H493 H 0.23638 0.8035 0.42171 0.0
H494 H 0.06385 0.76021 0.39354 0.0
H495 H 0.05583 0.63744 0.38932 0.0
H496 H 0.38261 0.56315 0.67098 0.0
H497 H 0.506 0.55329 0.67227 0.0
H498 H 0.52297 0.76382 0.66763 0.0
H499 H 0.4005 0.77338 0.6661 0.0
H500 H 0.57566 0.67784 0.64318 0.0
H501 H 0.67606 0.62102 0.70668 0.0
H502 H 0.6056 0.56754 0.69514 0.0
H503 H 0.59366 0.65639 0.70172 0.0
C504 C 0.41325 0.6078 0.67092 0.0
C505 C 0.38234 0.66905 0.66851 0.0
C506 C 0.48363 0.60213 0.67157 0.0
C507 C 0.52374 0.65788 0.67001 0.0
C508 C 0.49314 0.72015 0.6688 0.0
H509 H 0.94359 0.72749 0.65819 0.0
H510 H 0.82042 0.73647 0.65738 0.0
C511 C 0.42325 0.72565 0.66804 0.0
C512 C 0.59587 0.65033 0.66784 0.0
H513 H 0.75219 0.61182 0.68711 0.0
C514 C 0.61437 0.66361 0.65281 0.0
C515 C 0.64617 0.63158 0.68038 0.0
C516 C 0.62977 0.61883 0.69696 0.0
C517 C 0.68161 0.65788 0.64989 0.0
C518 C 0.732 0.63939 0.66244 0.0
C519 C 0.71348 0.62599 0.67747 0.0
C520 C 0.80419 0.63238 0.66028 0.0
C521 C 0.69778 0.67017 0.63324 0.0
C522 C 0.83564 0.57071 0.66176 0.0
C523 C 0.90543 0.56571 0.66224 0.0
C524 C 0.94545 0.62223 0.66123 0.0
C525 C 0.91365 0.68285 0.65862 0.0
C526 C 0.84339 0.68802 0.65826 0.0
H527 H 0.6515 0.66644 0.62347 0.0
H528 H 0.72056 0.72198 0.63489 0.0
H529 H 0.73482 0.63334 0.62863 0.0
H530 H 0.80656 0.52711 0.66328 0.0
H531 H 0.92885 0.51851 0.6644 0.0
H532 H 0.30707 0.485 0.91045 0.0
H533 H 0.30924 0.36715 0.91548 0.0
H534 H 0.45179 0.31996 0.88119 0.0
H535 H 0.45231 0.43689 0.87682 0.0
H536 H 0.27331 0.25029 0.89191 0.0
H537 H 0.54215 0.24293 0.92156 0.0
H538 H 0.50023 0.3214 0.91936 0.0
H539 H 0.53342 0.27322 0.90193 0.0
C540 C 0.34037 0.44985 0.90447 0.0
C541 C 0.38032 0.47045 0.89352 0.0
C542 C 0.34094 0.38248 0.90714 0.0
C543 C 0.38159 0.33512 0.8989 0.0
C544 C 0.42133 0.35588 0.88798 0.0
H545 H 0.33028 0.8919 0.88067 0.0
H546 H 0.33558 1.01089 0.87682 0.0
C547 C 0.42104 0.42275 0.8854 0.0
C548 C 0.3808 0.26304 0.90092 0.0
H549 H 0.48499 0.1356 0.91049 0.0
C550 C 0.31939 0.2252 0.89614 0.0
C551 C 0.44097 0.23062 0.9065 0.0
C552 C 0.50776 0.26932 0.91279 0.0
C553 C 0.31673 0.15537 0.89653 0.0
C554 C 0.37748 0.12239 0.90142 0.0
C555 C 0.43865 0.16062 0.90643 0.0
C556 C 0.37819 0.04958 0.9029 0.0
C557 C 0.24876 0.11801 0.89205 0.0
C558 C 0.40327 0.03159 0.91853 0.0
C559 C 0.40204 0.96407 0.92055 0.0
C560 C 0.37551 0.91267 0.907 0.0
C561 C 0.35226 0.9302 0.89118 0.0
C562 C 0.35401 0.99827 0.8891 0.0
H563 H 0.20612 0.15336 0.89267 0.0
H564 H 0.24312 0.08938 0.87899 0.0
H565 H 0.24456 0.08133 0.90063 0.0
H566 H 0.42245 0.07011 0.92933 0.0
H567 H 0.42066 0.9523 0.93292 0.0
H568 H 0.24806 0.31611 0.14253 0.0
H569 H 0.12357 0.32203 0.13845 0.0
H570 H 0.12868 0.32486 0.1915 0.0
H571 H 0.25131 0.32006 0.19575 0.0
H572 H 0.02827 0.2316 0.14566 0.0
H573 H 1.01445 0.48769 0.18329 0.0
H574 H 0.0913 0.45677 0.17616 0.0
H575 H 0.06694 0.43227 0.19457 0.0
C576 C 0.22261 0.31847 0.15332 0.0
C577 C 0.26001 0.3178 0.16946 0.0
C578 C 0.15154 0.32176 0.15097 0.0
C579 C 0.11697 0.3251 0.16474 0.0
C580 C 0.15423 0.32393 0.18076 0.0
H581 H 0.69185 0.28386 0.17625 0.0
H582 H 0.81675 0.28459 0.18057 0.0
C583 C 0.22467 0.32066 0.18312 0.0
C584 C 0.04181 0.32758 0.16255 0.0
H585 H 0.91215 0.41936 0.17664 0.0
C586 C 1.00288 0.27288 0.15232 0.0
C587 C 1.00869 0.38146 0.1713 0.0
C588 C 0.04743 0.44319 0.18182 0.0
C589 C 0.93186 0.27005 0.15091 0.0
C590 C 0.89914 0.32313 0.15994 0.0
C591 C 0.93775 0.37818 0.16999 0.0
C592 C 0.82429 0.32464 0.15796 0.0
C593 C 0.89182 0.21036 0.13983 0.0
C594 C 0.78789 0.34807 0.14406 0.0
C595 C 0.71723 0.34814 0.14162 0.0
C596 C 0.6811 0.32441 0.15302 0.0
C597 C 0.71793 0.30238 0.16724 0.0
C598 C 0.78915 0.30257 0.16969 0.0
H599 H 0.92511 0.17027 0.13482 0.0
H600 H 0.85754 0.18813 0.14701 0.0
H601 H 0.85959 0.22781 0.12905 0.0
H602 H 0.81425 0.36586 0.13498 0.0
H603 H 0.69101 0.36667 0.13069 0.0
H604 H 0.28208 0.88717 0.67721 0.0
H605 H 0.27756 1.00975 0.67788 0.0
H606 H 0.05926 0.99272 0.66544 0.0
H607 H 0.06397 0.87011 0.66505 0.0
H608 H 0.2275 0.05717 0.64878 0.0
H609 H 0.08808 0.16795 0.69981 0.0
H610 H 0.12571 0.08579 0.699 0.0
H611 H 0.04572 0.09526 0.686 0.0
C612 C 0.23302 0.91036 0.67562 0.0
C613 C 0.17324 0.86975 0.67157 0.0
C614 C 0.23049 0.98017 0.67572 0.0
C615 C 0.16811 1.01058 0.67171 0.0
C616 C 0.1079 0.97076 0.66889 0.0
H617 H 0.04843 0.4074 0.65167 0.0
H618 H 0.05349 0.28454 0.6505 0.0
C619 C 0.11048 0.90077 0.66884 0.0
C620 C 0.16681 0.08132 0.66837 0.0
H621 H 0.10351 0.23742 0.6798 0.0
C622 C 0.20079 0.09677 0.65565 0.0
C623 C 0.13148 0.13274 0.6772 0.0
C624 C 0.09616 0.11997 0.69137 0.0
C625 C 0.19973 0.16197 0.65141 0.0
C626 C 0.16424 0.21333 0.66022 0.0
C627 C 0.13026 0.19786 0.67293 0.0
C628 C 0.16289 0.28417 0.65694 0.0
C629 C 0.2354 0.17497 0.63733 0.0
C630 C 0.22291 0.3244 0.66009 0.0
C631 C 0.22003 0.39458 0.66045 0.0
C632 C 0.15714 0.42537 0.65769 0.0
C633 C 0.0976 0.38445 0.6533 0.0
C634 C 0.10044 0.31444 0.65289 0.0
H635 H 0.24544 0.127 0.62916 0.0
H636 H 0.20498 0.2077 0.62943 0.0
H637 H 0.2849 0.20152 0.64277 0.0
H638 H 0.27158 0.30257 0.6636 0.0
H639 H 0.26635 0.42544 0.66448 0.0
H640 H 0.57481 0.74001 0.87234 0.0
H641 H 0.69807 0.74829 0.87476 0.0
H642 H 0.72057 0.65233 0.91869 0.0
H643 H 0.59609 0.64214 0.91591 0.0
H644 H 0.7976 0.80968 0.89959 0.0
H645 H 0.82863 0.53094 0.88738 0.0
H646 H 0.74698 0.56919 0.88389 0.0
H647 H 0.78614 0.56088 0.90485 0.0
C648 C 0.60617 0.72087 0.88253 0.0
C649 C 0.57645 0.68948 0.89377 0.0
C650 C 0.67648 0.7258 0.88394 0.0
C651 C 0.71848 0.69945 0.89664 0.0
C652 C 0.68894 0.6715 0.90854 0.0
H653 H 0.14298 0.77469 0.92952 0.0
H654 H 1.02031 0.76876 0.92497 0.0
C655 C 0.61813 0.66653 0.90711 0.0
C656 C 0.79297 0.70087 0.89712 0.0
H657 H 0.92976 0.59976 0.8947 0.0
C658 C 0.82644 0.76376 0.89849 0.0
C659 C 0.83023 0.64077 0.89522 0.0
C660 C 0.79623 0.5715 0.89258 0.0
C661 C 0.89646 0.76839 0.8985 0.0
C662 C 0.9343 0.70861 0.89744 0.0
C663 C 0.90064 0.6455 0.89557 0.0
C664 C 1.0094 0.71142 0.89969 0.0
C665 C 0.92931 0.83734 0.89961 0.0
C666 C 0.04448 0.67951 0.88707 0.0
C667 C 0.11575 0.68255 0.88963 0.0
C668 C 0.15268 0.71709 0.90491 0.0
C669 C 0.11676 0.74824 0.91749 0.0
C670 C 0.04623 0.74517 0.91492 0.0
H671 H 0.89194 0.87384 0.89505 0.0
H672 H 0.95062 0.85771 0.91296 0.0
H673 H 0.97124 0.83432 0.89216 0.0
H674 H 1.01676 0.65268 0.87525 0.0
H675 H 0.14175 0.65777 0.87974 0.0
H676 H 0.49197 0.53065 0.1271 0.0
H677 H 0.48855 0.65373 0.13177 0.0
H678 H 0.44118 0.65422 0.18139 0.0
H679 H 0.44599 0.53006 0.17695 0.0
H680 H 0.38689 0.73689 0.13743 0.0
H681 H 0.59759 0.79083 0.19177 0.0
H682 H 0.58092 0.70754 0.17911 0.0
H683 H 0.5307 0.73735 0.19508 0.0
C684 C 0.48083 0.55657 0.13906 0.0
C685 C 0.46925 0.52002 0.15166 0.0
C686 C 0.47891 0.62727 0.1417 0.0
C687 C 0.46547 0.66365 0.157 0.0
C688 C 0.45318 0.62753 0.1696 0.0
H689 H 0.42149 0.09145 0.1931 0.0
H690 H 0.42224 0.96809 0.18853 0.0
C691 C 0.45551 0.55643 0.16701 0.0
C692 C 0.46342 0.73916 0.15944 0.0
H693 H 0.53505 0.88487 0.18439 0.0
C694 C 0.41948 0.7692 0.14768 0.0
C695 C 0.5061 0.78153 0.17276 0.0
C696 C 0.55698 0.75282 0.18532 0.0
C697 C 0.41643 0.84008 0.14899 0.0
C698 C 0.45888 0.88228 0.16234 0.0
C699 C 0.5026 0.85242 0.17414 0.0
C700 C 0.45735 0.95761 0.16462 0.0
C701 C 0.36683 0.86935 0.13629 0.0
C702 C 0.47712 0.99314 0.15268 0.0
C703 C 0.4771 0.06432 0.15528 0.0
C704 C 0.45724 0.10129 0.16986 0.0
C705 C 0.43727 0.06512 0.18171 0.0
C706 C 0.4376 0.99433 0.17914 0.0
H707 H 0.32806 0.83091 0.12902 0.0
H708 H 0.34061 0.91275 0.1426 0.0
H709 H 0.39479 0.8883 0.12726 0.0
H710 H 0.49365 0.96587 0.1415 0.0
H711 H 0.49377 0.09024 0.14601 0.0
H712 H 0.85016 0.4843 0.39778 0.0
H713 H 0.73304 0.4792 0.40205 0.0
H714 H 0.78927 0.35439 0.43994 0.0
H715 H 0.90843 0.36115 0.43605 0.0
H716 H 0.65039 0.37065 0.39638 0.0
H717 H 0.67544 0.4929 0.46355 0.0
H718 H 0.74323 0.49558 0.45157 0.0
H719 H 0.72749 0.4207 0.45993 0.0
C720 C 0.83797 0.45612 0.40715 0.0
C721 C 0.88859 0.42279 0.41654 0.0
C722 C 0.77079 0.45324 0.40956 0.0
C723 C 0.75214 0.41666 0.42134 0.0
C724 C 0.8026 0.38399 0.43098 0.0
H725 H 0.35509 0.32395 0.4427 0.0
H726 H 0.47413 0.3234 0.43915 0.0
C727 C 0.87059 0.38764 0.42873 0.0
C728 C 0.67928 0.41137 0.42283 0.0
H729 H 0.56695 0.44653 0.4502 0.0
C730 C 0.63222 0.38738 0.40816 0.0
C731 C 0.65548 0.43337 0.43818 0.0
C732 C 0.70288 0.46268 0.45418 0.0
C733 C 0.56222 0.38491 0.40843 0.0
C734 C 0.53871 0.40689 0.42375 0.0
C735 C 0.58549 0.42991 0.43847 0.0
C736 C 0.46566 0.40528 0.42487 0.0
C737 C 0.51373 0.35828 0.39241 0.0
C738 C 0.42145 0.45133 0.41788 0.0
C739 C 0.35337 0.45231 0.42007 0.0
C740 C 0.32877 0.40698 0.42918 0.0
C741 C 0.37292 0.35992 0.43576 0.0
C742 C 0.44079 0.35932 0.4337 0.0
H743 H 0.54055 0.33396 0.38217 0.0
H744 H 0.47684 0.32083 0.39472 0.0
H745 H 0.48448 0.40084 0.38806 0.0
H746 H 0.44011 0.48775 0.41119 0.0
H747 H 0.32087 0.49024 0.41531 0.0
loop_
_geom_bond_atom_site_label_1
_geom_bond_atom_site_label_2
_geom_bond_distance
_geom_bond_site_symmetry_2
_ccdc_geom_bond_type
Co0 N1 2.034 . S
Co0 O15 2.262 . S
Co0 O19 1.958 . S
Co0 O23 1.950 . S
Co0 O24 2.057 . S
N1 Co0 2.034 . S
N1 C2 1.366 . S
N1 C4 1.332 . S
C2 N1 1.366 . S
C2 C5 1.377 . S
C2 H34 0.931 . S
N3 C4 1.346 . S
N3 C5 1.337 . S
C4 N1 1.332 . S
C4 N3 1.346 . S
C4 C38 1.361 . S
C5 C2 1.377 . S
C5 N3 1.337 . S
C5 H41 0.930 . S
Co6 N7 2.034 . S
Co6 O20 1.950 . S
Co6 O21 2.262 1_655 S
Co6 O22 1.958 1_655 S
Co6 O26 2.048 1_655 S
N7 Co6 2.034 . S
N7 C10 1.366 . S
N7 C11 1.332 . S
N8 C9 1.337 . S
N8 C11 1.346 . S
C9 N8 1.337 . S
C9 C10 1.377 . S
C9 H42 0.930 . S
C10 N7 1.366 . S
C10 C9 1.377 . S
C10 H14 0.931 . S
C11 N7 1.332 . S
C11 N8 1.346 . S
C11 C28 1.361 . S
Co12 O15 2.097 . S
Co12 O16 2.065 1_455 S
Co12 O17 2.065 . S
Co12 O18 2.042 . S
Co12 O21 2.097 . S
Co12 O25 2.042 . S
C13 O21 1.253 . S
C13 O26 1.272 . S
H14 C10 0.931 . S
O15 Co0 2.262 . S
O15 Co12 2.097 . S
O15 C39 1.253 . S
O16 Co12 2.065 1_655 S
O16 C32 1.221 . S
O17 Co12 2.065 . S
O17 C27 1.221 . S
O18 Co12 2.042 . S
O18 C33 1.237 . S
O19 Co0 1.958 . S
O19 C33 1.278 . S
O20 Co6 1.950 . S
O20 C32 1.277 . S
O21 Co6 2.262 1_455 S
O21 Co12 2.097 . S
O21 C13 1.253 . S
O22 Co6 1.958 1_455 S
O22 C40 1.278 . S
O23 Co0 1.950 . S
O23 C27 1.277 . S
O24 Co0 2.057 . S
O24 C39 1.263 . S
O25 Co12 2.042 . S
O25 C40 1.237 . S
O26 Co6 2.048 1_455 S
O26 C13 1.272 . S
C27 O17 1.221 . S
C27 O23 1.277 . S
C28 C11 1.361 . S
C28 H29 0.960 . S
C28 H30 0.961 . S
C28 H31 0.961 . S
H29 C28 0.960 . S
H30 C28 0.961 . S
H31 C28 0.961 . S
C32 O16 1.221 . S
C32 O20 1.277 . S
C33 O18 1.237 . S
C33 O19 1.278 . S
H34 C2 0.931 . S
H35 C38 0.961 . S
H36 C38 0.961 . S
H37 C38 0.960 . S
C38 C4 1.361 . S
C38 H35 0.961 . S
C38 H36 0.961 . S
C38 H37 0.960 . S
C39 O15 1.253 . S
C39 O24 1.263 . S
C40 O22 1.278 . S
C40 O25 1.237 . S
H41 C5 0.930 . S
H42 C9 0.930 . S
Co43 N44 2.034 . S
Co43 O58 2.262 . S
Co43 O62 1.958 . S
Co43 O66 1.950 . S
Co43 O67 2.057 . S
N44 Co43 2.034 . S
N44 C45 1.366 . S
N44 C47 1.332 . S
C45 N44 1.366 . S
C45 C48 1.377 . S
C45 H77 0.931 . S
N46 C47 1.346 . S
N46 C48 1.337 . S
C47 N44 1.332 . S
C47 N46 1.346 . S
C47 C81 1.361 . S
C48 C45 1.377 . S
C48 N46 1.337 . S
C48 H84 0.930 . S
Co49 N50 2.034 . S
Co49 O63 1.950 . S
Co49 O64 2.262 . S
Co49 O65 1.958 . S
Co49 O69 2.057 . S
N50 Co49 2.034 . S
N50 C53 1.366 . S
N50 C54 1.332 . S
N51 C52 1.337 . S
N51 C54 1.346 . S
C52 N51 1.337 . S
C52 C53 1.377 . S
C52 H85 0.930 . S
C53 N50 1.366 . S
C53 C52 1.377 . S
C53 H57 0.931 . S
C54 N50 1.332 . S
C54 N51 1.346 . S
C54 C71 1.361 . S
Co55 O58 2.097 . S
Co55 O59 2.065 . S
Co55 O60 2.065 . S
Co55 O61 2.042 . S
Co55 O64 2.097 . S
Co55 O68 2.042 . S
C56 O64 1.253 . S
C56 O69 1.263 . S
H57 C53 0.931 . S
O58 Co43 2.262 . S
O58 Co55 2.097 . S
O58 C82 1.253 . S
O59 Co55 2.065 . S
O59 C75 1.221 . S
O60 Co55 2.065 . S
O60 C70 1.221 . S
O61 Co55 2.042 . S
O61 C76 1.237 . S
O62 Co43 1.958 . S
O62 C76 1.278 . S
O63 Co49 1.950 . S
O63 C75 1.277 . S
O64 Co49 2.262 . S
O64 Co55 2.097 . S
O64 C56 1.253 . S
O65 Co49 1.958 . S
O65 C83 1.278 . S
O66 Co43 1.950 . S
O66 C70 1.277 . S
O67 Co43 2.057 . S
O67 C82 1.263 . S
O68 Co55 2.042 . S
O68 C83 1.237 . S
O69 Co49 2.057 . S
O69 C56 1.263 . S
C70 O60 1.221 . S
C70 O66 1.277 . S
C71 C54 1.361 . S
C71 H72 0.960 . S
C71 H73 0.961 . S
C71 H74 0.961 . S
H72 C71 0.960 . S
H73 C71 0.961 . S
H74 C71 0.961 . S
C75 O59 1.221 . S
C75 O63 1.277 . S
C76 O61 1.237 . S
C76 O62 1.278 . S
H77 C45 0.931 . S
H78 C81 0.961 . S
H79 C81 0.961 1_655 S
H80 C81 0.960 . S
C81 C47 1.361 . S
C81 H78 0.961 . S
C81 H79 0.961 1_455 S
C81 H80 0.960 . S
C82 O58 1.253 . S
C82 O67 1.263 . S
C83 O65 1.278 . S
C83 O68 1.237 . S
H84 C48 0.930 . S
H85 C52 0.930 . S
Co86 N87 2.034 . S
Co86 O101 2.262 . S
Co86 O105 1.958 . S
Co86 O109 1.950 . S
Co86 O110 2.057 . S
N87 Co86 2.034 . S
N87 C88 1.366 . S
N87 C90 1.332 . S
C88 N87 1.366 . S
C88 C91 1.377 . S
C88 H120 0.931 . S
N89 C90 1.346 . S
N89 C91 1.337 . S
C90 N87 1.332 . S
C90 N89 1.346 . S
C90 C124 1.361 . S
C91 C88 1.377 . S
C91 N89 1.337 . S
C91 H127 0.930 . S
Co92 N93 2.034 . S
Co92 O106 1.950 . S
Co92 O107 2.262 . S
Co92 O108 1.958 . S
Co92 O112 2.057 . S
N93 Co92 2.034 . S
N93 C96 1.366 . S
N93 C97 1.332 . S
N94 C95 1.337 . S
N94 C97 1.346 . S
C95 N94 1.337 . S
C95 C96 1.377 . S
C95 H128 0.930 . S
C96 N93 1.366 . S
C96 C95 1.377 . S
C96 H100 0.931 . S
C97 N93 1.332 . S
C97 N94 1.346 . S
C97 C114 1.361 . S
Co98 O101 2.097 . S
Co98 O102 2.065 . S
Co98 O103 2.065 . S
Co98 O104 2.042 . S
Co98 O107 2.097 . S
Co98 O111 2.042 . S
C99 O107 1.253 . S
C99 O112 1.263 . S
H100 C96 0.931 . S
O101 Co86 2.262 . S
O101 Co98 2.097 . S
O101 C125 1.253 . S
O102 Co98 2.065 . S
O102 C118 1.221 . S
O103 Co98 2.065 . S
O103 C113 1.221 . S
O104 Co98 2.042 . S
O104 C119 1.237 . S
O105 Co86 1.958 . S
O105 C119 1.278 . S
O106 Co92 1.950 . S
O106 C118 1.277 . S
O107 Co92 2.262 . S
O107 Co98 2.097 . S
O107 C99 1.253 . S
O108 Co92 1.958 . S
O108 C126 1.278 . S
O109 Co86 1.950 . S
O109 C113 1.277 . S
O110 Co86 2.057 . S
O110 C125 1.263 . S
O111 Co98 2.042 . S
O111 C126 1.237 . S
O112 Co92 2.057 . S
O112 C99 1.263 . S
C113 O103 1.221 . S
C113 O109 1.277 . S
C114 C97 1.361 . S
C114 H115 0.960 . S
C114 H116 0.961 . S
C114 H117 0.961 . S
H115 C114 0.960 . S
H116 C114 0.961 . S
H117 C114 0.961 . S
C118 O102 1.221 . S
C118 O106 1.277 . S
C119 O104 1.237 . S
C119 O105 1.278 . S
H120 C88 0.931 . S
H121 C124 0.961 . S
H122 C124 0.961 . S
H123 C124 0.960 . S
C124 C90 1.361 . S
C124 H121 0.961 . S
C124 H122 0.961 . S
C124 H123 0.960 . S
C125 O101 1.253 . S
C125 O110 1.263 . S
C126 O108 1.278 . S
C126 O111 1.237 . S
H127 C91 0.930 . S
H128 C95 0.930 . S
Co129 N130 2.034 . S
Co129 O144 2.262 . S
Co129 O148 1.958 . S
Co129 O152 1.950 . S
Co129 O153 2.057 . S
N130 Co129 2.034 . S
N130 C131 1.366 . S
N130 C133 1.332 . S
C131 N130 1.366 . S
C131 C134 1.377 . S
C131 H163 0.931 . S
N132 C133 1.346 . S
N132 C134 1.337 . S
C133 N130 1.332 . S
C133 N132 1.346 . S
C133 C167 1.361 . S
C134 C131 1.377 . S
C134 N132 1.337 . S
C134 H170 0.930 . S
Co135 N136 2.034 . S
Co135 O149 1.950 . S
Co135 O150 2.262 . S
Co135 O151 1.958 . S
Co135 O155 2.057 . S
N136 Co135 2.034 . S
N136 C139 1.366 . S
N136 C140 1.332 . S
N137 C138 1.337 . S
N137 C140 1.346 . S
C138 N137 1.337 . S
C138 C139 1.377 . S
C138 H171 0.930 . S
C139 N136 1.366 . S
C139 C138 1.377 . S
C139 H143 0.931 . S
C140 N136 1.332 . S
C140 N137 1.346 . S
C140 C157 1.361 . S
Co141 O144 2.097 . S
Co141 O145 2.065 . S
Co141 O146 2.065 . S
Co141 O147 2.042 . S
Co141 O150 2.097 . S
Co141 O154 2.042 . S
C142 O150 1.253 . S
C142 O155 1.263 . S
H143 C139 0.931 . S
O144 Co129 2.262 . S
O144 Co141 2.097 . S
O144 C168 1.253 . S
O145 Co141 2.065 . S
O145 C161 1.221 . S
O146 Co141 2.065 . S
O146 C156 1.221 . S
O147 Co141 2.042 . S
O147 C162 1.237 . S
O148 Co129 1.958 . S
O148 C162 1.278 . S
O149 Co135 1.950 . S
O149 C161 1.277 . S
O150 Co135 2.262 . S
O150 Co141 2.097 . S
O150 C142 1.253 . S
O151 Co135 1.958 . S
O151 C169 1.278 . S
O152 Co129 1.950 . S
O152 C156 1.277 . S
O153 Co129 2.057 . S
O153 C168 1.263 . S
O154 Co141 2.042 . S
O154 C169 1.237 . S
O155 Co135 2.057 . S
O155 C142 1.263 . S
C156 O146 1.221 . S
C156 O152 1.277 . S
C157 C140 1.361 . S
C157 H158 0.960 . S
C157 H159 0.961 . S
C157 H160 0.961 . S
H158 C157 0.960 . S
H159 C157 0.961 . S
H160 C157 0.961 . S
C161 O145 1.221 . S
C161 O149 1.277 . S
C162 O147 1.237 . S
C162 O148 1.278 . S
H163 C131 0.931 . S
H164 C167 0.961 . S
H165 C167 0.961 . S
H166 C167 0.960 . S
C167 C133 1.361 . S
C167 H164 0.961 . S
C167 H165 0.961 . S
C167 H166 0.960 . S
C168 O144 1.253 . S
C168 O153 1.263 . S
C169 O151 1.278 . S
C169 O154 1.237 . S
H170 C134 0.930 . S
H171 C138 0.930 . S
H172 C180 0.929 . S
H173 C182 0.930 . S
H174 C184 0.930 . S
H175 C187 0.929 . S
H176 C190 0.930 1_655 S
H177 C192 0.960 . S
H178 C192 0.960 . S
H179 C192 0.960 . S
C180 H172 0.929 . S
C180 C181 1.377 . S
C180 C182 1.384 . S
C181 C180 1.377 . S
C181 C187 1.390 . S
C182 H173 0.930 . S
C182 C180 1.384 . S
C182 C183 1.372 . S
C183 C182 1.372 . S
C183 C184 1.400 . S
C183 C188 1.490 . S
C184 H174 0.930 . S
C184 C183 1.400 . S
C184 C187 1.386 . S
H185 C201 0.930 . S
H186 C202 0.931 . S
C187 H175 0.929 . S
C187 C181 1.390 . S
C187 C184 1.386 . S
C188 C183 1.490 . S
C188 C190 1.395 . S
C188 C191 1.403 . S
H189 C195 0.930 . S
C190 H176 0.930 1_455 S
C190 C188 1.395 . S
C190 C193 1.403 . S
C191 C188 1.403 . S
C191 C192 1.524 . S
C191 C195 1.400 . S
C192 H177 0.960 . S
C192 H178 0.960 . S
C192 H179 0.960 . S
C192 C191 1.524 . S
C193 C190 1.403 . S
C193 C194 1.392 . S
C193 C197 1.495 1_455 S
C194 C193 1.392 . S
C194 C195 1.385 . S
C194 C196 1.478 . S
C195 H189 0.930 . S
C195 C191 1.400 . S
C195 C194 1.385 . S
C196 C194 1.478 . S
C196 C198 1.381 . S
C196 C202 1.383 . S
C197 C193 1.495 1_655 S
C197 H203 0.959 . S
C197 H204 0.961 . S
C197 H205 0.960 . S
C198 C196 1.381 . S
C198 C199 1.394 . S
C198 H206 0.930 . S
C199 C198 1.394 . S
C199 C200 1.383 . S
C199 H207 0.929 . S
C200 C199 1.383 . S
C200 C201 1.377 . S
C201 H185 0.930 . S
C201 C200 1.377 . S
C201 C202 1.379 . S
C202 H186 0.931 . S
C202 C196 1.383 . S
C202 C201 1.379 . S
H203 C197 0.959 . S
H204 C197 0.961 . S
H205 C197 0.960 . S
H206 C198 0.930 . S
H207 C199 0.929 . S
H208 C216 0.929 . S
H209 C218 0.930 . S
H210 C220 0.930 . S
H211 C223 0.929 . S
H212 C226 0.930 . S
H213 C228 0.960 . S
H214 C228 0.960 . S
H215 C228 0.960 . S
C216 H208 0.929 . S
C216 C217 1.377 . S
C216 C218 1.384 . S
C217 C216 1.377 . S
C217 C223 1.390 . S
C218 H209 0.930 . S
C218 C216 1.384 . S
C218 C219 1.372 . S
C219 C218 1.372 . S
C219 C220 1.400 . S
C219 C224 1.490 . S
C220 H210 0.930 . S
C220 C219 1.400 . S
C220 C223 1.386 . S
H221 C237 0.930 . S
H222 C238 0.931 . S
C223 H211 0.929 . S
C223 C217 1.390 . S
C223 C220 1.386 . S
C224 C219 1.490 . S
C224 C226 1.395 . S
C224 C227 1.403 . S
H225 C231 0.930 . S
C226 H212 0.930 . S
C226 C224 1.395 . S
C226 C229 1.403 . S
C227 C224 1.403 . S
C227 C228 1.524 . S
C227 C231 1.400 . S
C228 H213 0.960 . S
C228 H214 0.960 . S
C228 H215 0.960 . S
C228 C227 1.524 . S
C229 C226 1.403 . S
C229 C230 1.392 . S
C229 C233 1.495 . S
C230 C229 1.392 . S
C230 C231 1.385 . S
C230 C232 1.478 . S
C231 H225 0.930 . S
C231 C227 1.400 . S
C231 C230 1.385 . S
C232 C230 1.478 . S
C232 C234 1.381 . S
C232 C238 1.383 . S
C233 C229 1.495 . S
C233 H239 0.959 . S
C233 H240 0.961 . S
C233 H241 0.960 . S
C234 C232 1.381 . S
C234 C235 1.394 . S
C234 H242 0.930 . S
C235 C234 1.394 . S
C235 C236 1.383 . S
C235 H243 0.929 1_655 S
C236 C235 1.383 . S
C236 C237 1.377 . S
C237 H221 0.930 . S
C237 C236 1.377 . S
C237 C238 1.379 . S
C238 H222 0.931 . S
C238 C232 1.383 . S
C238 C237 1.379 . S
H239 C233 0.959 . S
H240 C233 0.961 . S
H241 C233 0.960 . S
H242 C234 0.930 . S
H243 C235 0.929 1_455 S
H244 C252 0.929 . S
H245 C254 0.930 . S
H246 C256 0.930 . S
H247 C259 0.929 . S
H248 C262 0.930 . S
H249 C264 0.960 . S
H250 C264 0.960 . S
H251 C264 0.960 . S
C252 H244 0.929 . S
C252 C253 1.377 . S
C252 C254 1.384 . S
C253 C252 1.377 . S
C253 C259 1.390 . S
C254 H245 0.930 . S
C254 C252 1.384 . S
C254 C255 1.372 . S
C255 C254 1.372 . S
C255 C256 1.400 . S
C255 C260 1.490 . S
C256 H246 0.930 . S
C256 C255 1.400 . S
C256 C259 1.386 . S
H257 C273 0.930 . S
H258 C274 0.931 . S
C259 H247 0.929 . S
C259 C253 1.390 . S
C259 C256 1.386 . S
C260 C255 1.490 . S
C260 C262 1.395 . S
C260 C263 1.403 . S
H261 C267 0.930 . S
C262 H248 0.930 . S
C262 C260 1.395 . S
C262 C265 1.403 . S
C263 C260 1.403 . S
C263 C264 1.524 . S
C263 C267 1.400 . S
C264 H249 0.960 . S
C264 H250 0.960 . S
C264 H251 0.960 . S
C264 C263 1.524 . S
C265 C262 1.403 . S
C265 C266 1.392 . S
C265 C269 1.495 . S
C266 C265 1.392 . S
C266 C267 1.385 . S
C266 C268 1.478 1_556 S
C267 H261 0.930 . S
C267 C263 1.400 . S
C267 C266 1.385 . S
C268 C266 1.478 1_554 S
C268 C270 1.381 . S
C268 C274 1.383 . S
C269 C265 1.495 . S
C269 H275 0.959 . S
C269 H276 0.961 1_556 S
C269 H277 0.960 . S
C270 C268 1.381 . S
C270 C271 1.394 . S
C270 H278 0.930 . S
C271 C270 1.394 . S
C271 C272 1.383 . S
C271 H279 0.929 . S
C272 C271 1.383 . S
C272 C273 1.377 . S
C273 H257 0.930 . S
C273 C272 1.377 . S
C273 C274 1.379 . S
C274 H258 0.931 . S
C274 C268 1.383 . S
C274 C273 1.379 . S
H275 C269 0.959 . S
H276 C269 0.961 1_554 S
H277 C269 0.960 . S
H278 C270 0.930 . S
H279 C271 0.929 . S
H280 C288 0.929 . S
H281 C290 0.930 . S
H282 C292 0.930 . S
H283 C295 0.929 . S
H284 C298 0.930 . S
H285 C300 0.960 . S
H286 C300 0.960 . S
H287 C300 0.960 . S
C288 H280 0.929 . S
C288 C289 1.377 . S
C288 C290 1.384 . S
C289 C288 1.377 . S
C289 C295 1.390 . S
C290 H281 0.930 . S
C290 C288 1.384 . S
C290 C291 1.372 . S
C291 C290 1.372 . S
C291 C292 1.400 . S
C291 C296 1.490 . S
C292 H282 0.930 . S
C292 C291 1.400 . S
C292 C295 1.386 . S
H293 C309 0.930 . S
H294 C310 0.931 . S
C295 H283 0.929 . S
C295 C289 1.390 . S
C295 C292 1.386 . S
C296 C291 1.490 . S
C296 C298 1.395 . S
C296 C299 1.403 . S
H297 C303 0.930 . S
C298 H284 0.930 . S
C298 C296 1.395 . S
C298 C301 1.403 . S
C299 C296 1.403 . S
C299 C300 1.524 . S
C299 C303 1.400 . S
C300 H285 0.960 . S
C300 H286 0.960 . S
C300 H287 0.960 . S
C300 C299 1.524 . S
C301 C298 1.403 . S
C301 C302 1.392 . S
C301 C305 1.495 . S
C302 C301 1.392 . S
C302 C303 1.385 . S
C302 C304 1.478 . S
C303 H297 0.930 . S
C303 C299 1.400 . S
C303 C302 1.385 . S
C304 C302 1.478 . S
C304 C306 1.381 . S
C304 C310 1.383 . S
C305 C301 1.495 . S
C305 H311 0.959 . S
C305 H312 0.961 . S
C305 H313 0.960 . S
C306 C304 1.381 . S
C306 C307 1.394 . S
C306 H314 0.930 . S
C307 C306 1.394 . S
C307 C308 1.383 . S
C307 H315 0.929 . S
C308 C307 1.383 . S
C308 C309 1.377 . S
C309 H293 0.930 . S
C309 C308 1.377 . S
C309 C310 1.379 . S
C310 H294 0.931 . S
C310 C304 1.383 . S
C310 C309 1.379 . S
H311 C305 0.959 . S
H312 C305 0.961 . S
H313 C305 0.960 . S
H314 C306 0.930 . S
H315 C307 0.929 . S
H316 C324 0.929 . S
H317 C326 0.930 . S
H318 C328 0.930 . S
H319 C331 0.929 . S
H320 C334 0.930 . S
H321 C336 0.960 . S
H322 C336 0.960 . S
H323 C336 0.960 . S
C324 H316 0.929 . S
C324 C325 1.377 . S
C324 C326 1.384 . S
C325 C324 1.377 . S
C325 C331 1.390 . S
C326 H317 0.930 . S
C326 C324 1.384 . S
C326 C327 1.372 . S
C327 C326 1.372 . S
C327 C328 1.400 . S
C327 C332 1.490 . S
C328 H318 0.930 . S
C328 C327 1.400 . S
C328 C331 1.386 . S
H329 C345 0.930 . S
H330 C346 0.931 . S
C331 H319 0.929 . S
C331 C325 1.390 . S
C331 C328 1.386 . S
C332 C327 1.490 . S
C332 C334 1.395 . S
C332 C335 1.403 . S
H333 C339 0.930 . S
C334 H320 0.930 . S
C334 C332 1.395 . S
C334 C337 1.403 . S
C335 C332 1.403 . S
C335 C336 1.524 . S
C335 C339 1.400 . S
C336 H321 0.960 . S
C336 H322 0.960 . S
C336 H323 0.960 . S
C336 C335 1.524 . S
C337 C334 1.403 . S
C337 C338 1.392 . S
C337 C341 1.495 . S
C338 C337 1.392 . S
C338 C339 1.385 . S
C338 C340 1.478 . S
C339 H333 0.930 . S
C339 C335 1.400 . S
C339 C338 1.385 . S
C340 C338 1.478 . S
C340 C342 1.381 . S
C340 C346 1.383 . S
C341 C337 1.495 . S
C341 H347 0.959 . S
C341 H348 0.961 . S
C341 H349 0.960 . S
C342 C340 1.381 . S
C342 C343 1.394 . S
C342 H350 0.930 1_455 S
C343 C342 1.394 . S
C343 C344 1.383 . S
C343 H351 0.929 1_455 S
C344 C343 1.383 . S
C344 C345 1.377 . S
C345 H329 0.930 . S
C345 C344 1.377 . S
C345 C346 1.379 . S
C346 H330 0.931 . S
C346 C340 1.383 . S
C346 C345 1.379 . S
H347 C341 0.959 . S
H348 C341 0.961 . S
H349 C341 0.960 . S
H350 C342 0.930 1_655 S
H351 C343 0.929 1_655 S
H352 C360 0.929 . S
H353 C362 0.930 . S
H354 C364 0.930 . S
H355 C367 0.929 . S
H356 C370 0.930 . S
H357 C372 0.960 . S
H358 C372 0.960 . S
H359 C372 0.960 . S
C360 H352 0.929 . S
C360 C361 1.377 . S
C360 C362 1.384 . S
C361 C360 1.377 . S
C361 C367 1.390 . S
C362 H353 0.930 . S
C362 C360 1.384 . S
C362 C363 1.372 . S
C363 C362 1.372 . S
C363 C364 1.400 . S
C363 C368 1.490 . S
C364 H354 0.930 . S
C364 C363 1.400 . S
C364 C367 1.386 . S
H365 C381 0.930 . S
H366 C382 0.931 . S
C367 H355 0.929 . S
C367 C361 1.390 . S
C367 C364 1.386 . S
C368 C363 1.490 . S
C368 C370 1.395 . S
C368 C371 1.403 . S
H369 C375 0.930 . S
C370 H356 0.930 . S
C370 C368 1.395 . S
C370 C373 1.403 . S
C371 C368 1.403 . S
C371 C372 1.524 . S
C371 C375 1.400 . S
C372 H357 0.960 . S
C372 H358 0.960 . S
C372 H359 0.960 . S
C372 C371 1.524 . S
C373 C370 1.403 . S
C373 C374 1.392 . S
C373 C377 1.495 . S
C374 C373 1.392 . S
C374 C375 1.385 . S
C374 C376 1.478 . S
C375 H369 0.930 . S
C375 C371 1.400 . S
C375 C374 1.385 . S
C376 C374 1.478 . S
C376 C378 1.381 . S
C376 C382 1.383 . S
C377 C373 1.495 . S
C377 H383 0.959 . S
C377 H384 0.961 . S
C377 H385 0.960 . S
C378 C376 1.381 . S
C378 C379 1.394 . S
C378 H386 0.930 . S
C379 C378 1.394 . S
C379 C380 1.383 . S
C379 H387 0.929 . S
C380 C379 1.383 . S
C380 C381 1.377 . S
C381 H365 0.930 . S
C381 C380 1.377 . S
C381 C382 1.379 . S
C382 H366 0.931 . S
C382 C376 1.383 . S
C382 C381 1.379 . S
H383 C377 0.959 . S
H384 C377 0.961 . S
H385 C377 0.960 . S
H386 C378 0.930 . S
H387 C379 0.929 . S
H388 C396 0.929 . S
H389 C398 0.931 . S
H390 C400 0.930 . S
H391 C403 0.929 . S
H392 C406 0.930 1_556 S
H393 C408 0.960 . S
H394 C408 0.960 1_565 S
H395 C408 0.960 1_556 S
C396 H388 0.929 . S
C396 C397 1.377 . S
C396 C398 1.385 . S
C397 C396 1.377 . S
C397 C403 1.390 1_565 S
C398 H389 0.931 . S
C398 C396 1.385 . S
C398 C399 1.370 1_565 S
C399 C398 1.370 1_545 S
C399 C400 1.400 . S
C399 C404 1.553 . S
C400 H390 0.930 . S
C400 C399 1.400 . S
C400 C403 1.386 . S
H401 C417 0.930 . S
H402 C418 0.931 . S
C403 H391 0.929 . S
C403 C397 1.390 1_545 S
C403 C400 1.386 . S
C404 C399 1.553 . S
C404 C406 1.389 1_556 S
C404 C407 1.349 1_556 S
H405 C411 0.930 . S
C406 H392 0.930 1_554 S
C406 C404 1.389 1_554 S
C406 C409 1.403 . S
C407 C404 1.349 1_554 S
C407 C408 1.524 . S
C407 C411 1.400 . S
C408 H393 0.960 . S
C408 H394 0.960 1_545 S
C408 H395 0.960 1_554 S
C408 C407 1.524 . S
C409 C406 1.403 . S
C409 C410 1.392 . S
C409 C413 1.495 . S
C410 C409 1.392 . S
C410 C411 1.385 . S
C410 C412 1.478 . S
C411 H405 0.930 . S
C411 C407 1.400 . S
C411 C410 1.385 . S
C412 C410 1.478 . S
C412 C414 1.381 . S
C412 C418 1.383 . S
C413 C409 1.495 . S
C413 H419 0.959 . S
C413 H420 0.961 . S
C413 H421 0.960 . S
C414 C412 1.381 . S
C414 C415 1.394 . S
C414 H422 0.930 . S
C415 C414 1.394 . S
C415 C416 1.383 . S
C415 H423 0.929 . S
C416 C415 1.383 . S
C416 C417 1.377 . S
C417 H401 0.930 . S
C417 C416 1.377 . S
C417 C418 1.379 . S
C418 H402 0.931 . S
C418 C412 1.383 . S
C418 C417 1.379 . S
H419 C413 0.959 . S
H420 C413 0.961 . S
H421 C413 0.960 . S
H422 C414 0.930 . S
H423 C415 0.929 . S
H424 C432 0.929 . S
H425 C434 0.930 1_565 S
H426 C436 0.930 . S
H427 C439 0.929 . S
H428 C442 0.930 . S
H429 C444 0.960 . S
H430 C444 0.960 . S
H431 C444 0.960 1_545 S
C432 H424 0.929 . S
C432 C433 1.377 . S
C432 C434 1.384 . S
C433 C432 1.377 . S
C433 C439 1.390 . S
C434 H425 0.930 1_545 S
C434 C432 1.384 . S
C434 C435 1.372 . S
C435 C434 1.372 . S
C435 C436 1.400 . S
C435 C440 1.490 1_545 S
C436 H426 0.930 . S
C436 C435 1.400 . S
C436 C439 1.386 . S
H437 C453 0.930 . S
H438 C454 0.931 . S
C439 H427 0.929 . S
C439 C433 1.390 . S
C439 C436 1.386 . S
C440 C435 1.490 1_565 S
C440 C442 1.395 . S
C440 C443 1.403 . S
H441 C447 0.930 . S
C442 H428 0.930 . S
C442 C440 1.395 . S
C442 C445 1.403 . S
C443 C440 1.403 . S
C443 C444 1.524 . S
C443 C447 1.400 . S
C444 H429 0.960 . S
C444 H430 0.960 . S
C444 H431 0.960 1_565 S
C444 C443 1.524 . S
C445 C442 1.403 . S
C445 C446 1.392 . S
C445 C449 1.495 . S
C446 C445 1.392 . S
C446 C447 1.385 . S
C446 C448 1.478 . S
C447 H441 0.930 . S
C447 C443 1.400 . S
C447 C446 1.385 . S
C448 C446 1.478 . S
C448 C450 1.381 . S
C448 C454 1.383 . S
C449 C445 1.495 . S
C449 H455 0.959 . S
C449 H456 0.961 . S
C449 H457 0.960 . S
C450 C448 1.381 . S
C450 C451 1.394 . S
C450 H458 0.930 . S
C451 C450 1.394 . S
C451 C452 1.383 . S
C451 H459 0.929 . S
C452 C451 1.383 . S
C452 C453 1.377 . S
C453 H437 0.930 . S
C453 C452 1.377 . S
C453 C454 1.379 . S
C454 H438 0.931 . S
C454 C448 1.383 . S
C454 C453 1.379 . S
H455 C449 0.959 . S
H456 C449 0.961 . S
H457 C449 0.960 . S
H458 C450 0.930 . S
H459 C451 0.929 . S
H460 C468 0.929 . S
H461 C470 0.930 1_565 S
H462 C472 0.929 1_565 S
H463 C475 0.929 . S
H464 C478 0.930 . S
H465 C480 0.960 . S
H466 C480 0.960 . S
H467 C480 0.960 . S
C468 H460 0.929 . S
C468 C469 1.377 . S
C468 C470 1.384 . S
C469 C468 1.377 . S
C469 C475 1.390 1_455 S
C470 H461 0.930 1_545 S
C470 C468 1.384 . S
C470 C471 1.372 1_545 S
C471 C470 1.372 1_565 S
C471 C472 1.401 1_465 S
C471 C476 1.490 . S
C472 H462 0.929 1_545 S
C472 C471 1.401 1_645 S
C472 C475 1.386 . S
H473 C489 0.930 1_655 S
H474 C490 0.931 . S
C475 H463 0.929 . S
C475 C469 1.390 1_655 S
C475 C472 1.386 . S
C476 C471 1.490 . S
C476 C478 1.395 . S
C476 C479 1.403 1_455 S
H477 C483 0.930 1_655 S
C478 H464 0.930 . S
C478 C476 1.395 . S
C478 C481 1.403 . S
C479 C476 1.403 1_655 S
C479 C480 1.524 . S
C479 C483 1.400 1_655 S
C480 H465 0.960 . S
C480 H466 0.960 . S
C480 H467 0.960 . S
C480 C479 1.524 . S
C481 C478 1.403 . S
C481 C482 1.392 . S
C481 C485 1.495 . S
C482 C481 1.392 . S
C482 C483 1.385 . S
C482 C484 1.478 . S
C483 H477 0.930 1_455 S
C483 C479 1.400 1_455 S
C483 C482 1.385 . S
C484 C482 1.478 . S
C484 C486 1.381 . S
C484 C490 1.383 . S
C485 C481 1.495 . S
C485 H491 0.959 . S
C485 H492 0.961 . S
C485 H493 0.960 . S
C486 C484 1.381 . S
C486 C487 1.394 . S
C486 H494 0.930 . S
C487 C486 1.394 . S
C487 C488 1.383 . S
C487 H495 0.929 . S
C488 C487 1.383 . S
C488 C489 1.377 . S
C489 H473 0.930 1_455 S
C489 C488 1.377 . S
C489 C490 1.379 . S
C490 H474 0.931 . S
C490 C484 1.383 . S
C490 C489 1.379 . S
H491 C485 0.959 . S
H492 C485 0.961 . S
H493 C485 0.960 . S
H494 C486 0.930 . S
H495 C487 0.929 . S
H496 C504 0.929 . S
H497 C506 0.930 . S
H498 C508 0.930 . S
H499 C511 0.929 . S
H500 C514 0.930 . S
H501 C516 0.960 . S
H502 C516 0.960 . S
H503 C516 0.960 . S
C504 H496 0.929 . S
C504 C505 1.377 . S
C504 C506 1.384 . S
C505 C504 1.377 . S
C505 C511 1.390 . S
C506 H497 0.930 . S
C506 C504 1.384 . S
C506 C507 1.372 . S
C507 C506 1.372 . S
C507 C508 1.400 . S
C507 C512 1.490 . S
C508 H498 0.930 . S
C508 C507 1.400 . S
C508 C511 1.386 . S
H509 C525 0.930 . S
H510 C526 0.931 . S
C511 H499 0.929 . S
C511 C505 1.390 . S
C511 C508 1.386 . S
C512 C507 1.490 . S
C512 C514 1.395 . S
C512 C515 1.403 . S
H513 C519 0.930 . S
C514 H500 0.930 . S
C514 C512 1.395 . S
C514 C517 1.403 . S
C515 C512 1.403 . S
C515 C516 1.524 . S
C515 C519 1.400 . S
C516 H501 0.960 . S
C516 H502 0.960 . S
C516 H503 0.960 . S
C516 C515 1.524 . S
C517 C514 1.403 . S
C517 C518 1.392 . S
C517 C521 1.495 . S
C518 C517 1.392 . S
C518 C519 1.385 . S
C518 C520 1.478 . S
C519 H513 0.930 . S
C519 C515 1.400 . S
C519 C518 1.385 . S
C520 C518 1.478 . S
C520 C522 1.381 . S
C520 C526 1.383 . S
C521 C517 1.495 . S
C521 H527 0.959 . S
C521 H528 0.961 . S
C521 H529 0.960 . S
C522 C520 1.381 . S
C522 C523 1.394 . S
C522 H530 0.930 . S
C523 C522 1.394 . S
C523 C524 1.383 . S
C523 H531 0.929 . S
C524 C523 1.383 . S
C524 C525 1.377 . S
C525 H509 0.930 . S
C525 C524 1.377 . S
C525 C526 1.379 . S
C526 H510 0.931 . S
C526 C520 1.383 . S
C526 C525 1.379 . S
H527 C521 0.959 . S
H528 C521 0.961 . S
H529 C521 0.960 . S
H530 C522 0.930 . S
H531 C523 0.929 . S
H532 C540 0.929 . S
H533 C542 0.930 . S
H534 C544 0.930 . S
H535 C547 0.929 . S
H536 C550 0.930 . S
H537 C552 0.960 . S
H538 C552 0.960 . S
H539 C552 0.960 . S
C540 H532 0.929 . S
C540 C541 1.377 . S
C540 C542 1.384 . S
C541 C540 1.377 . S
C541 C547 1.390 . S
C542 H533 0.930 . S
C542 C540 1.384 . S
C542 C543 1.372 . S
C543 C542 1.372 . S
C543 C544 1.400 . S
C543 C548 1.490 . S
C544 H534 0.930 . S
C544 C543 1.400 . S
C544 C547 1.386 . S
H545 C561 0.930 . S
H546 C562 0.931 . S
C547 H535 0.929 . S
C547 C541 1.390 . S
C547 C544 1.386 . S
C548 C543 1.490 . S
C548 C550 1.395 . S
C548 C551 1.403 . S
H549 C555 0.930 . S
C550 H536 0.930 . S
C550 C548 1.395 . S
C550 C553 1.403 . S
C551 C548 1.403 . S
C551 C552 1.524 . S
C551 C555 1.400 . S
C552 H537 0.960 . S
C552 H538 0.960 . S
C552 H539 0.960 . S
C552 C551 1.524 . S
C553 C550 1.403 . S
C553 C554 1.392 . S
C553 C557 1.495 . S
C554 C553 1.392 . S
C554 C555 1.385 . S
C554 C556 1.478 . S
C555 H549 0.930 . S
C555 C551 1.400 . S
C555 C554 1.385 . S
C556 C554 1.478 . S
C556 C558 1.381 . S
C556 C562 1.383 . S
C557 C553 1.495 . S
C557 H563 0.959 . S
C557 H564 0.961 . S
C557 H565 0.960 . S
C558 C556 1.381 . S
C558 C559 1.394 1_545 S
C558 H566 0.930 . S
C559 C558 1.394 1_565 S
C559 C560 1.383 . S
C559 H567 0.929 . S
C560 C559 1.383 . S
C560 C561 1.377 . S
C561 H545 0.930 . S
C561 C560 1.377 . S
C561 C562 1.379 1_565 S
C562 H546 0.931 . S
C562 C556 1.383 . S
C562 C561 1.379 1_545 S
H563 C557 0.959 . S
H564 C557 0.961 . S
H565 C557 0.960 . S
H566 C558 0.930 . S
H567 C559 0.929 . S
H568 C576 0.929 . S
H569 C578 0.930 . S
H570 C580 0.930 . S
H571 C583 0.929 . S
H572 C586 0.930 . S
H573 C588 0.960 . S
H574 C588 0.960 . S
H575 C588 0.960 . S
C576 H568 0.929 . S
C576 C577 1.377 . S
C576 C578 1.384 . S
C577 C576 1.377 . S
C577 C583 1.390 . S
C578 H569 0.930 . S
C578 C576 1.384 . S
C578 C579 1.372 . S
C579 C578 1.372 . S
C579 C580 1.400 . S
C579 C584 1.490 1_455 S
C580 H570 0.930 . S
C580 C579 1.400 . S
C580 C583 1.386 . S
H581 C597 0.930 . S
H582 C598 0.931 . S
C583 H571 0.929 . S
C583 C577 1.390 . S
C583 C580 1.386 . S
C584 C579 1.490 1_655 S
C584 C586 1.395 . S
C584 C587 1.403 . S
H585 C591 0.930 . S
C586 H572 0.930 . S
C586 C584 1.395 . S
C586 C589 1.403 . S
C587 C584 1.403 . S
C587 C588 1.524 . S
C587 C591 1.400 . S
C588 H573 0.960 . S
C588 H574 0.960 . S
C588 H575 0.960 . S
C588 C587 1.524 . S
C589 C586 1.403 . S
C589 C590 1.392 . S
C589 C593 1.495 . S
C590 C589 1.392 . S
C590 C591 1.385 . S
C590 C592 1.478 . S
C591 H585 0.930 . S
C591 C587 1.400 . S
C591 C590 1.385 . S
C592 C590 1.478 . S
C592 C594 1.381 . S
C592 C598 1.383 . S
C593 C589 1.495 . S
C593 H599 0.959 . S
C593 H600 0.961 . S
C593 H601 0.960 . S
C594 C592 1.381 . S
C594 C595 1.394 . S
C594 H602 0.930 . S
C595 C594 1.394 . S
C595 C596 1.383 . S
C595 H603 0.929 . S
C596 C595 1.383 . S
C596 C597 1.377 . S
C597 H581 0.930 . S
C597 C596 1.377 . S
C597 C598 1.379 . S
C598 H582 0.931 . S
C598 C592 1.383 . S
C598 C597 1.379 . S
H599 C593 0.959 . S
H600 C593 0.961 . S
H601 C593 0.960 . S
H602 C594 0.930 . S
H603 C595 0.929 . S
H604 C612 0.929 . S
H605 C614 0.930 . S
H606 C616 0.930 . S
H607 C619 0.929 . S
H608 C622 0.930 1_565 S
H609 C624 0.960 . S
H610 C624 0.960 . S
H611 C624 0.960 1_565 S
C612 H604 0.929 . S
C612 C613 1.377 . S
C612 C614 1.384 . S
C613 C612 1.377 . S
C613 C619 1.390 . S
C614 H605 0.930 . S
C614 C612 1.384 . S
C614 C615 1.372 . S
C615 C614 1.372 . S
C615 C616 1.400 . S
C615 C620 1.490 . S
C616 H606 0.930 . S
C616 C615 1.400 . S
C616 C619 1.386 . S
H617 C633 0.930 . S
H618 C634 0.931 . S
C619 H607 0.929 . S
C619 C613 1.390 . S
C619 C616 1.386 . S
C620 C615 1.490 . S
C620 C622 1.395 1_565 S
C620 C623 1.403 1_565 S
H621 C627 0.930 . S
C622 H608 0.930 1_545 S
C622 C620 1.395 1_545 S
C622 C625 1.403 . S
C623 C620 1.403 1_545 S
C623 C624 1.524 . S
C623 C627 1.400 . S
C624 H609 0.960 . S
C624 H610 0.960 . S
C624 H611 0.960 1_545 S
C624 C623 1.524 . S
C625 C622 1.403 . S
C625 C626 1.392 . S
C625 C629 1.495 . S
C626 C625 1.392 . S
C626 C627 1.385 . S
C626 C628 1.478 . S
C627 H621 0.930 . S
C627 C623 1.400 . S
C627 C626 1.385 . S
C628 C626 1.478 . S
C628 C630 1.381 . S
C628 C634 1.383 . S
C629 C625 1.495 . S
C629 H635 0.959 . S
C629 H636 0.961 . S
C629 H637 0.960 . S
C630 C628 1.381 . S
C630 C631 1.394 . S
C630 H638 0.930 . S
C631 C630 1.394 . S
C631 C632 1.383 . S
C631 H639 0.929 . S
C632 C631 1.383 . S
C632 C633 1.377 . S
C633 H617 0.930 . S
C633 C632 1.377 . S
C633 C634 1.379 . S
C634 H618 0.931 . S
C634 C628 1.383 . S
C634 C633 1.379 . S
H635 C629 0.959 . S
H636 C629 0.961 . S
H637 C629 0.960 . S
H638 C630 0.930 . S
H639 C631 0.929 . S
H640 C648 0.929 . S
H641 C650 0.930 . S
H642 C652 0.930 . S
H643 C655 0.929 . S
H644 C658 0.930 . S
H645 C660 0.960 . S
H646 C660 0.960 . S
H647 C660 0.960 . S
C648 H640 0.929 . S
C648 C649 1.377 . S
C648 C650 1.384 . S
C649 C648 1.377 . S
C649 C655 1.390 . S
C650 H641 0.930 . S
C650 C648 1.384 . S
C650 C651 1.372 . S
C651 C650 1.372 . S
C651 C652 1.400 . S
C651 C656 1.490 . S
C652 H642 0.930 . S
C652 C651 1.400 . S
C652 C655 1.386 . S
H653 C669 0.930 . S
H654 C670 0.931 . S
C655 H643 0.929 . S
C655 C649 1.390 . S
C655 C652 1.386 . S
C656 C651 1.490 . S
C656 C658 1.395 . S
C656 C659 1.403 . S
H657 C663 0.930 . S
C658 H644 0.930 . S
C658 C656 1.395 . S
C658 C661 1.403 . S
C659 C656 1.403 . S
C659 C660 1.524 . S
C659 C663 1.400 . S
C660 H645 0.960 . S
C660 H646 0.960 . S
C660 H647 0.960 . S
C660 C659 1.524 . S
C661 C658 1.403 . S
C661 C662 1.392 . S
C661 C665 1.495 . S
C662 C661 1.392 . S
C662 C663 1.385 . S
C662 C664 1.478 1_655 S
C663 H657 0.930 . S
C663 C659 1.400 . S
C663 C662 1.385 . S
C664 C662 1.478 1_455 S
C664 C666 1.381 . S
C664 C670 1.383 . S
C665 C661 1.495 . S
C665 H671 0.959 . S
C665 H672 0.961 1_655 S
C665 H673 0.960 . S
C666 C664 1.381 . S
C666 C667 1.394 . S
C666 H674 0.930 . S
C667 C666 1.394 . S
C667 C668 1.383 . S
C667 H675 0.929 . S
C668 C667 1.383 . S
C668 C669 1.377 . S
C669 H653 0.930 . S
C669 C668 1.377 . S
C669 C670 1.379 . S
C670 H654 0.931 . S
C670 C664 1.383 . S
C670 C669 1.379 . S
H671 C665 0.959 . S
H672 C665 0.961 1_455 S
H673 C665 0.960 . S
H674 C666 0.930 . S
H675 C667 0.929 . S
H676 C684 0.929 . S
H677 C686 0.930 . S
H678 C688 0.930 . S
H679 C691 0.929 . S
H680 C694 0.930 . S
H681 C696 0.960 . S
H682 C696 0.960 . S
H683 C696 0.960 . S
C684 H676 0.929 . S
C684 C685 1.377 . S
C684 C686 1.384 . S
C685 C684 1.377 . S
C685 C691 1.390 . S
C686 H677 0.930 . S
C686 C684 1.384 . S
C686 C687 1.372 . S
C687 C686 1.372 . S
C687 C688 1.400 . S
C687 C692 1.490 . S
C688 H678 0.930 . S
C688 C687 1.400 . S
C688 C691 1.386 . S
H689 C705 0.930 . S
H690 C706 0.931 . S
C691 H679 0.929 . S
C691 C685 1.390 . S
C691 C688 1.386 . S
C692 C687 1.490 . S
C692 C694 1.395 . S
C692 C695 1.403 . S
H693 C699 0.930 . S
C694 H680 0.930 . S
C694 C692 1.395 . S
C694 C697 1.403 . S
C695 C692 1.403 . S
C695 C696 1.524 . S
C695 C699 1.400 . S
C696 H681 0.960 . S
C696 H682 0.960 . S
C696 H683 0.960 . S
C696 C695 1.524 . S
C697 C694 1.403 . S
C697 C698 1.392 . S
C697 C701 1.495 . S
C698 C697 1.392 . S
C698 C699 1.385 . S
C698 C700 1.478 1_565 S
C699 H693 0.930 . S
C699 C695 1.400 . S
C699 C698 1.385 . S
C700 C698 1.478 1_545 S
C700 C702 1.381 . S
C700 C706 1.383 . S
C701 C697 1.495 . S
C701 H707 0.959 . S
C701 H708 0.961 . S
C701 H709 0.960 . S
C702 C700 1.381 . S
C702 C703 1.394 . S
C702 H710 0.930 . S
C703 C702 1.394 . S
C703 C704 1.383 . S
C703 H711 0.929 . S
C704 C703 1.383 . S
C704 C705 1.377 . S
C705 H689 0.930 . S
C705 C704 1.377 . S
C705 C706 1.379 . S
C706 H690 0.931 . S
C706 C700 1.383 . S
C706 C705 1.379 . S
H707 C701 0.959 . S
H708 C701 0.961 . S
H709 C701 0.960 . S
H710 C702 0.930 . S
H711 C703 0.929 . S
H712 C720 0.929 . S
H713 C722 0.930 . S
H714 C724 0.930 . S
H715 C727 0.929 . S
H716 C730 0.930 . S
H717 C732 0.960 . S
H718 C732 0.960 . S
H719 C732 0.960 . S
C720 H712 0.929 . S
C720 C721 1.377 . S
C720 C722 1.384 . S
C721 C720 1.377 . S
C721 C727 1.390 . S
C722 H713 0.930 . S
C722 C720 1.384 . S
C722 C723 1.372 . S
C723 C722 1.372 . S
C723 C724 1.400 . S
C723 C728 1.490 . S
C724 H714 0.930 . S
C724 C723 1.400 . S
C724 C727 1.386 . S
H725 C741 0.930 . S
H726 C742 0.931 . S
C727 H715 0.929 . S
C727 C721 1.390 . S
C727 C724 1.386 . S
C728 C723 1.490 . S
C728 C730 1.395 . S
C728 C731 1.403 . S
H729 C735 0.930 . S
C730 H716 0.930 . S
C730 C728 1.395 . S
C730 C733 1.403 . S
C731 C728 1.403 . S
C731 C732 1.524 . S
C731 C735 1.400 . S
C732 H717 0.960 . S
C732 H718 0.960 . S
C732 H719 0.960 . S
C732 C731 1.524 . S
C733 C730 1.403 . S
C733 C734 1.392 . S
C733 C737 1.495 . S
C734 C733 1.392 . S
C734 C735 1.385 . S
C734 C736 1.478 . S
C735 H729 0.930 . S
C735 C731 1.400 . S
C735 C734 1.385 . S
C736 C734 1.478 . S
C736 C738 1.381 . S
C736 C742 1.383 . S
C737 C733 1.495 . S
C737 H743 0.959 . S
C737 H744 0.961 . S
C737 H745 0.960 . S
C738 C736 1.381 . S
C738 C739 1.394 . S
C738 H746 0.930 . S
C739 C738 1.394 . S
C739 C740 1.383 . S
C739 H747 0.929 . S
C740 C739 1.383 . S
C740 C741 1.377 . S
C741 H725 0.930 . S
C741 C740 1.377 . S
C741 C742 1.379 . S
C742 H726 0.931 . S
C742 C736 1.383 . S
C742 C741 1.379 . S
H743 C737 0.959 . S
H744 C737 0.961 . S
H745 C737 0.960 . S
H746 C738 0.930 . S
H747 C739 0.929 . S
C181 C39 1.674 . S
C200 C56 1.696 . S
C217 N94 1.583 . S
C236 N46 1.590 1_655 S
C253 C125 1.359 . S
C272 N137 1.575 . S
C289 N8 1.762 . S
C308 C168 1.491 . S
C325 N132 1.584 . S
C344 C13 1.386 . S
C361 C82 1.674 . S
C380 C99 1.661 . S
C397 N89 1.762 . S
C416 C142 1.477 . S
C433 N3 1.580 . S
C452 N51 1.573 . S
C469 C27 1.281 . S
C488 C40 1.309 . S
C505 C83 1.296 . S
C524 C70 1.308 1_655 S
C541 C126 1.414 . S
C560 C113 1.382 . S
C577 C156 1.332 . S
C596 C169 1.318 . S
C613 C75 1.287 . S
C632 C76 1.318 . S
C649 C118 1.269 . S
C668 C119 1.270 . S
C685 C161 1.322 . S
C704 C162 1.318 . S
C721 C32 1.397 . S
C740 C33 1.420 . S
