# Generated by pormake.
# Topology uku, (4)-cn, num edge types: 1
# Building blocks:
#     Node 0, Type 0, BuildingBlock: QUQFOY_clean_sbu_1, # of connection points: 4
#     Node 1, Type 0, BuildingBlock: QUQFOY_clean_sbu_1, # of connection points: 4
#     Node 2, Type 0, BuildingBlock: QUQFOY_clean_sbu_1, # of connection points: 4
#     Node 3, Type 0, BuildingBlock: QUQFOY_clean_sbu_1, # of connection points: 4
#     Node 4, Type 0, BuildingBlock: QUQFOY_clean_sbu_1, # of connection points: 4
#     Node 5, Type 0, BuildingBlock: QUQFOY_clean_sbu_1, # of connection points: 4
#     Node 6, Type 0, BuildingBlock: QUQFOY_clean_sbu_1, # of connection points: 4
#     Node 7, Type 0, BuildingBlock: QUQFOY_clean_sbu_1, # of connection points: 4
#     Node 8, Type 0, BuildingBlock: QUQFOY_clean_sbu_1, # of connection points: 4
#     Node 9, Type 0, BuildingBlock: QUQFOY_clean_sbu_1, # of connection points: 4
#     Node 10, Type 0, BuildingBlock: QUQFOY_clean_sbu_1, # of connection points: 4
#     Node 11, Type 0, BuildingBlock: QUQFOY_clean_sbu_1, # of connection points: 4
#     Edge 12, Type (0, 0), BuildingBlock: EZIPEK_clean_linker_0, # of connection points: 2
#     Edge 13, Type (0, 0), BuildingBlock: EZIPEK_clean_linker_0, # of connection points: 2
#     Edge 14, Type (0, 0), BuildingBlock: EZIPEK_clean_linker_0, # of connection points: 2
#     Edge 15, Type (0, 0), BuildingBlock: EZIPEK_clean_linker_0, # of connection points: 2
#     Edge 16, Type (0, 0), BuildingBlock: EZIPEK_clean_linker_0, # of connection points: 2
#     Edge 17, Type (0, 0), BuildingBlock: EZIPEK_clean_linker_0, # of connection points: 2
#     Edge 18, Type (0, 0), BuildingBlock: EZIPEK_clean_linker_0, # of connection points: 2
#     Edge 19, Type (0, 0), BuildingBlock: EZIPEK_clean_linker_0, # of connection points: 2
#     Edge 20, Type (0, 0), BuildingBlock: EZIPEK_clean_linker_0, # of connection points: 2
#     Edge 21, Type (0, 0), BuildingBlock: EZIPEK_clean_linker_0, # of connection points: 2
#     Edge 22, Type (0, 0), BuildingBlock: EZIPEK_clean_linker_0, # of connection points: 2
#     Edge 23, Type (0, 0), BuildingBlock: EZIPEK_clean_linker_0, # of connection points: 2
#     Edge 24, Type (0, 0), BuildingBlock: EZIPEK_clean_linker_0, # of connection points: 2
#     Edge 25, Type (0, 0), BuildingBlock: EZIPEK_clean_linker_0, # of connection points: 2
#     Edge 26, Type (0, 0), BuildingBlock: EZIPEK_clean_linker_0, # of connection points: 2
#     Edge 27, Type (0, 0), BuildingBlock: EZIPEK_clean_linker_0, # of connection points: 2
#     Edge 28, Type (0, 0), BuildingBlock: EZIPEK_clean_linker_0, # of connection points: 2
#     Edge 29, Type (0, 0), BuildingBlock: EZIPEK_clean_linker_0, # of connection points: 2
#     Edge 30, Type (0, 0), BuildingBlock: EZIPEK_clean_linker_0, # of connection points: 2
#     Edge 31, Type (0, 0), BuildingBlock: EZIPEK_clean_linker_0, # of connection points: 2
#     Edge 32, Type (0, 0), BuildingBlock: EZIPEK_clean_linker_0, # of connection points: 2
#     Edge 33, Type (0, 0), BuildingBlock: EZIPEK_clean_linker_0, # of connection points: 2
#     Edge 34, Type (0, 0), BuildingBlock: EZIPEK_clean_linker_0, # of connection points: 2
#     Edge 35, Type (0, 0), BuildingBlock: EZIPEK_clean_linker_0, # of connection points: 2
# Relax obj value: 0.260
# Max RMSD: 0.221
# Mean RMSD: 0.221
data_MOF--net-uku--node1-QUQFOY_clean_sbu_1--edge1-EZIPEK_clean_linker_0
_symmetry_space_group_name_H-M    P1
_symmetry_Int_Tables_number       1
_symmetry_cell_setting            triclinic
loop_
_symmetry_equiv_pos_as_xyz
'x, y, z'
_cell_length_a     32.467714
_cell_length_b     32.475017
_cell_length_c     32.547948
_cell_angle_alpha  90.015878
_cell_angle_beta   89.968913
_cell_angle_gamma 90.004667
loop_
_atom_site_label
_atom_site_type_symbol
_atom_site_fract_x
_atom_site_fract_y
_atom_site_fract_z
_atom_type_partial_charge
O0 O 0.07439 0.07542 0.64463 0.0
Cd1 Cd 0.10346 0.12515 0.6184 0.0
Cd2 Cd 0.09211 0.15357 0.69148 0.0
O3 O 0.04388 0.11198 0.69289 0.0
O4 O 0.09402 0.11806 0.55847 0.0
O5 O 0.06253 0.16575 0.59578 0.0
C6 C 0.06531 0.14541 0.56171 0.0
C7 C 0.08877 0.22081 0.71534 0.0
C8 C 0.04734 0.07872 0.67261 0.0
C9 C 0.17662 0.12566 0.66785 0.0
O10 O 0.15029 0.12927 0.69643 0.0
O11 O 0.16593 0.1298 0.63051 0.0
O12 O 0.08765 0.18996 0.74021 0.0
O13 O 0.08869 0.21369 0.67627 0.0
O14 O 0.91339 0.93334 0.64373 0.0
Cd15 Cd 0.897 0.88043 0.61315 0.0
Cd16 Cd 0.9138 0.85359 0.68207 0.0
O17 O 0.95941 0.8988 0.67809 0.0
O18 O 0.9166 0.88675 0.55532 0.0
O19 O 0.94341 0.84164 0.59902 0.0
C20 C 0.94463 0.85972 0.56364 0.0
C21 C 0.92022 0.78774 0.70899 0.0
C22 C 0.94646 0.93311 0.66427 0.0
C23 C 0.82604 0.87333 0.65963 0.0
O24 O 0.85383 0.87448 0.6871 0.0
O25 O 0.83572 0.86707 0.62227 0.0
O26 O 0.92149 0.81978 0.73239 0.0
O27 O 0.91928 0.79304 0.66965 0.0
O28 O 0.09368 0.93717 0.35952 0.0
Cd29 Cd 0.11545 0.88375 0.38584 0.0
Cd30 Cd 0.09398 0.85712 0.31737 0.0
O31 O 0.04937 0.90266 0.32194 0.0
O32 O 0.06894 0.84927 0.40778 0.0
O33 O 0.10956 0.88712 0.4469 0.0
C34 C 0.0767 0.86497 0.44348 0.0
C35 C 0.08687 0.78907 0.2972 0.0
C36 C 0.06131 0.93658 0.33754 0.0
C37 C 0.18226 0.87569 0.33088 0.0
O38 O 0.15261 0.87783 0.30563 0.0
O39 O 0.17516 0.86948 0.36877 0.0
O40 O 0.08312 0.81877 0.27112 0.0
O41 O 0.08994 0.7981 0.33578 0.0
O42 O 0.93262 0.07869 0.35364 0.0
Cd43 Cd 0.90116 0.1276 0.37866 0.0
Cd44 Cd 0.91653 0.15625 0.30747 0.0
O45 O 0.96625 0.11644 0.30842 0.0
O46 O 0.94086 0.16742 0.40442 0.0
O47 O 0.90621 0.12002 0.43913 0.0
C48 C 0.93576 0.14663 0.43794 0.0
C49 C 0.91621 0.22522 0.28949 0.0
C50 C 0.96174 0.08279 0.32787 0.0
C51 C 0.83174 0.12649 0.32419 0.0
O52 O 0.86015 0.12955 0.29762 0.0
O53 O 0.83959 0.1318 0.36209 0.0
O54 O 0.91527 0.21477 0.32781 0.0
O55 O 0.92153 0.19683 0.26225 0.0
O56 O 0.64523 0.07594 0.06251 0.0
Cd57 Cd 0.61739 0.10245 0.11254 0.0
Cd58 Cd 0.69018 0.09216 0.14134 0.0
O59 O 0.69524 0.04663 0.09761 0.0
O60 O 0.55801 0.09036 0.10423 0.0
O61 O 0.59579 0.06007 0.15228 0.0
C62 C 0.56185 0.06173 0.13153 0.0
C63 C 0.71469 0.08814 0.20801 0.0
C64 C 0.67463 0.05026 0.06463 0.0
C65 C 0.66529 0.17677 0.1156 0.0
O66 O 0.69428 0.15089 0.11914 0.0
O67 O 0.62794 0.16529 0.11854 0.0
O68 O 0.67551 0.08647 0.20127 0.0
O69 O 0.73939 0.08862 0.17704 0.0
O70 O 0.35549 0.91252 0.05992 0.0
Cd71 Cd 0.38677 0.88728 0.10871 0.0
Cd72 Cd 0.31815 0.89973 0.14316 0.0
O73 O 0.30984 0.94367 0.09837 0.0
O74 O 0.40761 0.92985 0.14851 0.0
O75 O 0.44583 0.90069 0.10002 0.0
C76 C 0.44168 0.92877 0.1279 0.0
C77 C 0.29689 0.90575 0.21084 0.0
C78 C 0.32556 0.93756 0.06318 0.0
C79 C 0.33864 0.81402 0.1171 0.0
O80 O 0.31078 0.84065 0.12301 0.0
O81 O 0.37634 0.82463 0.11639 0.0
O82 O 0.2708 0.90492 0.1811 0.0
O83 O 0.33571 0.90665 0.20225 0.0
O84 O 0.64724 0.9258 0.92193 0.0
Cd85 Cd 0.61963 0.89721 0.87305 0.0
Cd86 Cd 0.69044 0.91011 0.84258 0.0
O87 O 0.6946 0.95713 0.8849 0.0
O88 O 0.59562 0.9384 0.83353 0.0
O89 O 0.55991 0.90656 0.88216 0.0
C90 C 0.56216 0.93542 0.85493 0.0
C91 C 0.71064 0.91271 0.77441 0.0
C92 C 0.67516 0.95297 0.91856 0.0
C93 C 0.67082 0.82539 0.87168 0.0
O94 O 0.69839 0.85254 0.86666 0.0
O95 O 0.63291 0.8348 0.86859 0.0
O96 O 0.73717 0.91466 0.80378 0.0
O97 O 0.6719 0.91311 0.78356 0.0
O98 O 0.35395 0.06994 0.93072 0.0
Cd99 Cd 0.38185 0.10185 0.88406 0.0
Cd100 Cd 0.31364 0.08789 0.8489 0.0
O101 O 0.31106 0.03854 0.88862 0.0
O102 O 0.44163 0.09148 0.89095 0.0
O103 O 0.40436 0.06366 0.84094 0.0
C104 C 0.43842 0.06489 0.86153 0.0
C105 C 0.29364 0.0863 0.78058 0.0
C106 C 0.32798 0.04161 0.9237 0.0
C107 C 0.32843 0.17203 0.88289 0.0
O108 O 0.30222 0.14425 0.87488 0.0
O109 O 0.36676 0.16392 0.88205 0.0
O110 O 0.26724 0.08234 0.80987 0.0
O111 O 0.33232 0.08756 0.78978 0.0
O112 O 0.06946 0.63359 0.09004 0.0
Cd113 Cd 0.11989 0.60915 0.1184 0.0
Cd114 Cd 0.14933 0.67908 0.09877 0.0
O115 O 0.10654 0.67512 0.05152 0.0
O116 O 0.11853 0.54945 0.10354 0.0
O117 O 0.16539 0.59314 0.07995 0.0
C118 C 0.14808 0.55736 0.07801 0.0
C119 C 0.21743 0.70028 0.09228 0.0
C120 C 0.07258 0.6571 0.05912 0.0
C121 C 0.12153 0.66522 0.18579 0.0
O122 O 0.12574 0.69055 0.15637 0.0
O123 O 0.12496 0.62664 0.1795 0.0
O124 O 0.18741 0.72596 0.08828 0.0
O125 O 0.20896 0.66174 0.09687 0.0
O126 O 0.06944 0.36727 0.92732 0.0
Cd127 Cd 0.12289 0.38947 0.90276 0.0
Cd128 Cd 0.14473 0.31697 0.91945 0.0
O129 O 0.10187 0.32267 0.96643 0.0
O130 O 0.12314 0.44864 0.91893 0.0
O131 O 0.1667 0.40256 0.94428 0.0
C132 C 0.15073 0.43902 0.94595 0.0
C133 C 0.2105 0.28953 0.92344 0.0
C134 C 0.06955 0.3431 0.95789 0.0
C135 C 0.12196 0.33766 0.83278 0.0
O136 O 0.12105 0.31088 0.86118 0.0
O137 O 0.12989 0.37515 0.84112 0.0
O138 O 0.17837 0.2664 0.92684 0.0
O139 O 0.20549 0.32896 0.92171 0.0
O140 O 0.93143 0.6372 0.92423 0.0
Cd141 Cd 0.88034 0.61495 0.89519 0.0
Cd142 Cd 0.85563 0.68685 0.9124 0.0
O143 O 0.89611 0.68137 0.96145 0.0
O144 O 0.87895 0.55541 0.91055 0.0
O145 O 0.83358 0.60118 0.93308 0.0
C146 C 0.8494 0.56476 0.9356 0.0
C147 C 0.78829 0.71064 0.91339 0.0
C148 C 0.92907 0.66121 0.95486 0.0
C149 C 0.88427 0.66943 0.82674 0.0
O150 O 0.88225 0.69546 0.85577 0.0
O151 O 0.87734 0.63143 0.83362 0.0
O152 O 0.81887 0.73543 0.91884 0.0
O153 O 0.79557 0.67162 0.91149 0.0
O154 O 0.92219 0.37243 0.08446 0.0
Cd155 Cd 0.87037 0.39681 0.11026 0.0
Cd156 Cd 0.84403 0.32549 0.09329 0.0
O157 O 0.88732 0.32867 0.04646 0.0
O158 O 0.87199 0.45587 0.0939 0.0
O159 O 0.82594 0.41141 0.06998 0.0
C160 C 0.8433 0.4472 0.0677 0.0
C161 C 0.77781 0.29918 0.08716 0.0
C162 C 0.92061 0.34774 0.05435 0.0
C163 C 0.87002 0.3448 0.18003 0.0
O164 O 0.86729 0.31806 0.15168 0.0
O165 O 0.8649 0.38284 0.17205 0.0
O166 O 0.80965 0.27557 0.08508 0.0
O167 O 0.78338 0.33848 0.08951 0.0
C168 C 0.98303 0.18512 0.48683 0.0
C169 C 0.9676 0.14732 0.47105 0.0
C170 C 0.01247 0.10947 0.51857 0.0
C171 C 0.03168 0.14694 0.53055 0.0
N172 N 0.03895 0.22028 0.52193 0.0
N173 N 0.97533 0.0731 0.46581 0.0
C174 C 0.01788 0.18483 0.51365 0.0
C175 C 0.98438 0.10937 0.48526 0.0
N176 N 0.96352 0.22117 0.47742 0.0
N177 N 0.01987 0.07386 0.53982 0.0
H178 H 0.95765 0.07093 0.43926 0.0
H179 H 0.98969 0.04531 0.47273 0.0
H180 H 0.03821 0.07228 0.56599 0.0
H181 H 0.00404 0.04651 0.53455 0.0
H182 H 0.97078 0.24923 0.49111 0.0
H183 H 0.93736 0.22238 0.45887 0.0
H184 H 0.03302 0.24813 0.50722 0.0
H185 H 0.06485 0.22105 0.54085 0.0
C186 C 0.03891 0.89435 0.50569 0.0
C187 C 0.04661 0.86072 0.47836 0.0
C188 C 0.98744 0.82395 0.50891 0.0
C189 C 0.9818 0.85666 0.53706 0.0
N190 N 0.01207 0.91459 0.57183 0.0
N191 N 0.03516 0.78856 0.46374 0.0
C192 C 0.01081 0.88904 0.53855 0.0
C193 C 0.02288 0.82395 0.48282 0.0
N194 N 0.05561 0.93247 0.4993 0.0
N195 N 0.95881 0.79326 0.50665 0.0
H196 H 0.06254 0.78647 0.44711 0.0
H197 H 0.02091 0.76022 0.46848 0.0
H198 H 0.93344 0.7919 0.52631 0.0
H199 H 0.9589 0.77091 0.48368 0.0
H200 H 0.04655 0.95833 0.51603 0.0
H201 H 0.07471 0.94017 0.47496 0.0
H202 H 0.03512 0.93652 0.57622 0.0
H203 H 0.99308 0.91033 0.59727 0.0
C204 C 0.48791 0.97709 0.169 0.0
C205 C 0.4723 0.9629 0.13068 0.0
C206 C 0.51998 0.0087 0.09478 0.0
C207 C 0.53159 0.0272 0.13255 0.0
N208 N 0.52229 0.03243 0.20587 0.0
N209 N 0.46482 0.97617 0.0578 0.0
C210 C 0.51442 0.01231 0.16988 0.0
C211 C 0.4858 0.98185 0.09377 0.0
N212 N 0.47867 0.95625 0.20424 0.0
N213 N 0.54268 0.01495 0.05994 0.0
H214 H 0.43744 0.95952 0.05578 0.0
H215 H 0.4718 0.99254 0.03114 0.0
H216 H 0.56998 0.03183 0.05949 0.0
H217 H 0.53716 0.9989 0.03275 0.0
H218 H 0.4923 0.96277 0.23246 0.0
H219 H 0.46018 0.92999 0.20456 0.0
H220 H 0.50745 0.02547 0.23338 0.0
H221 H 0.54104 0.05846 0.20744 0.0
C222 C 0.51376 0.98472 0.81751 0.0
C223 C 0.53059 0.96881 0.8546 0.0
C224 C 0.48242 0.01095 0.89404 0.0
C225 C 0.4696 0.03142 0.85775 0.0
N226 N 0.47726 0.04125 0.7847 0.0
N227 N 0.53964 0.9788 0.9279 0.0
C228 C 0.48637 0.01925 0.81925 0.0
C229 C 0.51749 0.98538 0.8928 0.0
N230 N 0.52272 0.96618 0.78093 0.0
N231 N 0.4601 0.01404 0.92953 0.0
H232 H 0.56785 0.9635 0.92832 0.0
H233 H 0.53261 0.9934 0.95557 0.0
H234 H 0.43214 0.0297 0.93146 0.0
H235 H 0.46673 0.99644 0.95549 0.0
H236 H 0.50831 0.97397 0.75343 0.0
H237 H 0.54184 0.94048 0.77873 0.0
H238 H 0.49165 0.03627 0.75653 0.0
H239 H 0.45791 0.06688 0.78508 0.0
C240 C 0.15704 0.45532 0.02216 0.0
C241 C 0.16006 0.46808 0.98032 0.0
C242 C 0.15932 0.54024 0.00258 0.0
C243 C 0.15827 0.5275 0.04453 0.0
N244 N 0.16924 0.47305 0.09348 0.0
N245 N 0.17737 0.522 0.93265 0.0
C246 C 0.16156 0.48504 0.05401 0.0
C247 C 0.16575 0.51035 0.97127 0.0
N248 N 0.14674 0.4157 0.03195 0.0
N249 N 0.15093 0.58007 0.99187 0.0
H250 H 0.1832 0.5007 0.90934 0.0
H251 H 0.18563 0.55212 0.92525 0.0
H252 H 0.14381 0.60317 0.01281 0.0
H253 H 0.14678 0.58935 0.9615 0.0
H254 H 0.13946 0.40653 0.06177 0.0
H255 H 0.14139 0.39272 0.01037 0.0
H256 H 0.17571 0.44267 0.10154 0.0
H257 H 0.17372 0.49413 0.11727 0.0
C258 C 0.83701 0.54851 0.01106 0.0
C259 C 0.8376 0.5356 0.96914 0.0
C260 C 0.83628 0.46347 0.9916 0.0
C261 C 0.83424 0.47643 0.03343 0.0
N262 N 0.81919 0.53088 0.08124 0.0
N263 N 0.82431 0.48155 0.92032 0.0
C264 C 0.82999 0.51886 0.04248 0.0
C265 C 0.83265 0.49329 0.95975 0.0
N266 N 0.84634 0.58817 0.02163 0.0
N267 N 0.84484 0.42344 0.98178 0.0
H268 H 0.82052 0.5028 0.89656 0.0
H269 H 0.81663 0.45144 0.9123 0.0
H270 H 0.8493 0.40027 0.00335 0.0
H271 H 0.85146 0.4139 0.95193 0.0
H272 H 0.85102 0.59743 0.05193 0.0
H273 H 0.85355 0.61115 0.00061 0.0
H274 H 0.8119 0.56122 0.08874 0.0
H275 H 0.81306 0.50977 0.10464 0.0
C276 C 0.22702 0.07206 0.68765 0.0
C277 C 0.21897 0.1141 0.67963 0.0
C278 C 0.27678 0.13437 0.72336 0.0
C279 C 0.27843 0.09335 0.73834 0.0
N280 N 0.26145 0.0218 0.73126 0.0
N281 N 0.23902 0.185 0.68289 0.0
C282 C 0.2561 0.06156 0.71861 0.0
C283 C 0.24559 0.14513 0.69456 0.0
N284 N 0.20559 0.04271 0.66652 0.0
N285 N 0.30386 0.16304 0.73806 0.0
H286 H 0.21744 0.19267 0.66037 0.0
H287 H 0.2542 0.21031 0.69527 0.0
H288 H 0.32674 0.15583 0.75931 0.0
H289 H 0.30573 0.19319 0.72748 0.0
H290 H 0.21062 0.01121 0.66924 0.0
H291 H 0.18434 0.05044 0.64371 0.0
H292 H 0.24376 0.99708 0.72123 0.0
H293 H 0.28404 0.01371 0.75262 0.0
C294 C 0.7481 0.93749 0.71229 0.0
C295 C 0.72553 0.90587 0.73199 0.0
C296 C 0.75731 0.85394 0.68748 0.0
C297 C 0.78385 0.8848 0.67211 0.0
N298 N 0.79716 0.95618 0.65881 0.0
N299 N 0.6988 0.83671 0.73094 0.0
C300 C 0.77622 0.92687 0.6805 0.0
C301 C 0.72643 0.86498 0.71656 0.0
N302 N 0.74398 0.97714 0.72573 0.0
N303 N 0.76367 0.81396 0.67608 0.0
H304 H 0.67611 0.84422 0.75234 0.0
H305 H 0.69614 0.80686 0.71968 0.0
H306 H 0.78501 0.80603 0.65341 0.0
H307 H 0.74871 0.78885 0.68915 0.0
H308 H 0.76232 0.00149 0.7159 0.0
H309 H 0.72207 0.98545 0.74772 0.0
H310 H 0.79206 0.98768 0.66158 0.0
H311 H 0.81775 0.94839 0.6354 0.0
C312 C 0.276 0.85876 0.26753 0.0
C313 C 0.28174 0.89965 0.25316 0.0
C314 C 0.23376 0.92578 0.30476 0.0
C315 C 0.22401 0.88455 0.31527 0.0
N316 N 0.2428 0.81323 0.31699 0.0
N317 N 0.27624 0.97242 0.26414 0.0
C318 C 0.248 0.85149 0.30037 0.0
C319 C 0.26422 0.9334 0.27425 0.0
N320 N 0.29527 0.82693 0.24784 0.0
N321 N 0.21202 0.95718 0.32244 0.0
H322 H 0.29874 0.97799 0.24188 0.0
H323 H 0.26648 0.9988 0.27941 0.0
H324 H 0.19092 0.95204 0.34612 0.0
H325 H 0.21422 0.98787 0.31361 0.0
H326 H 0.28918 0.79599 0.25343 0.0
H327 H 0.31706 0.83166 0.22475 0.0
H328 H 0.26056 0.7877 0.30934 0.0
H329 H 0.22239 0.80795 0.34122 0.0
C330 C 0.73475 0.13622 0.26428 0.0
C331 C 0.73167 0.09517 0.24952 0.0
C332 C 0.78403 0.07246 0.29846 0.0
C333 C 0.79048 0.11416 0.30962 0.0
N334 N 0.76555 0.1835 0.31361 0.0
N335 N 0.74366 0.02297 0.25916 0.0
C336 C 0.76318 0.14526 0.29628 0.0
C337 C 0.75293 0.06274 0.26923 0.0
N338 N 0.71263 0.16679 0.24564 0.0
N339 N 0.80936 0.0428 0.3142 0.0
H340 H 0.72071 0.01576 0.23786 0.0
H341 H 0.75609 0.99736 0.27379 0.0
H342 H 0.83104 0.04926 0.337 0.0
H343 H 0.80964 0.0123 0.30444 0.0
H344 H 0.71681 0.19803 0.25137 0.0
H345 H 0.69059 0.16085 0.2231 0.0
H346 H 0.74514 0.20737 0.30733 0.0
H347 H 0.78632 0.19015 0.33717 0.0
C348 C 0.68754 0.24621 0.13762 0.0
C349 C 0.67695 0.21942 0.10514 0.0
C350 C 0.71915 0.25971 0.05742 0.0
C351 C 0.7365 0.28043 0.0915 0.0
N352 N 0.73546 0.29737 0.16363 0.0
N353 N 0.67712 0.20256 0.03333 0.0
C354 C 0.7193 0.27577 0.13139 0.0
C355 C 0.69025 0.22755 0.06447 0.0
N356 N 0.66802 0.24207 0.17456 0.0
N357 N 0.73109 0.27056 0.01866 0.0
H358 H 0.65463 0.18002 0.0379 0.0
H359 H 0.68878 0.20338 0.00357 0.0
H360 H 0.75213 0.29431 0.01334 0.0
H361 H 0.71811 0.25861 0.99199 0.0
H362 H 0.67213 0.26194 0.1993 0.0
H363 H 0.64485 0.22023 0.17912 0.0
H364 H 0.72782 0.29214 0.19423 0.0
H365 H 0.75787 0.32005 0.15984 0.0
C366 C 0.27786 0.72028 0.13567 0.0
C367 C 0.26003 0.71603 0.09601 0.0
C368 C 0.31072 0.76369 0.06724 0.0
C369 C 0.32488 0.77181 0.10759 0.0
N370 N 0.33258 0.75017 0.17737 0.0
N371 N 0.26603 0.7231 0.02286 0.0
C372 C 0.31229 0.74689 0.14078 0.0
C373 C 0.27903 0.73404 0.06125 0.0
N374 N 0.25996 0.70143 0.16872 0.0
N375 N 0.32572 0.78661 0.03538 0.0
H376 H 0.24292 0.70121 0.01829 0.0
H377 H 0.27999 0.73299 0.99583 0.0
H378 H 0.35009 0.80725 0.03924 0.0
H379 H 0.31381 0.786 0.00572 0.0
H380 H 0.26834 0.70699 0.19907 0.0
H381 H 0.23537 0.68099 0.16591 0.0
H382 H 0.32704 0.73132 0.20262 0.0
H383 H 0.3577 0.76994 0.18098 0.0
C384 C 0.73194 0.72848 0.86408 0.0
C385 C 0.74678 0.7277 0.90519 0.0
C386 C 0.69353 0.77702 0.92577 0.0
C387 C 0.68472 0.78385 0.88375 0.0
N388 N 0.68996 0.76394 0.8131 0.0
N389 N 0.73915 0.74588 0.97634 0.0
C390 C 0.70147 0.758 0.85305 0.0
C391 C 0.72615 0.74982 0.9366 0.0
N392 N 0.74809 0.70214 0.83551 0.0
N393 N 0.67139 0.79784 0.95483 0.0
H394 H 0.76163 0.72458 0.98495 0.0
H395 H 0.72841 0.76369 0.00064 0.0
H396 H 0.64737 0.8177 0.94693 0.0
H397 H 0.67453 0.79357 0.98633 0.0
H398 H 0.73704 0.69915 0.80568 0.0
H399 H 0.77122 0.68098 0.84224 0.0
H400 H 0.70392 0.74991 0.78797 0.0
H401 H 0.66619 0.78408 0.80515 0.0
C402 C 0.29995 0.21724 0.93773 0.0
C403 C 0.31249 0.21246 0.89626 0.0
C404 C 0.26625 0.26787 0.87486 0.0
C405 C 0.25112 0.27029 0.91582 0.0
N406 N 0.26012 0.25637 0.98768 0.0
N407 N 0.31727 0.2394 0.8279 0.0
C408 C 0.27045 0.24806 0.94783 0.0
C409 C 0.2991 0.24033 0.86576 0.0
N410 N 0.31448 0.19056 0.96677 0.0
N411 N 0.24722 0.28955 0.84425 0.0
H412 H 0.34124 0.21909 0.82101 0.0
H413 H 0.31136 0.26071 0.80477 0.0
H414 H 0.22366 0.31065 0.84977 0.0
H415 H 0.25328 0.28539 0.81313 0.0
H416 H 0.30316 0.1888 0.99663 0.0
H417 H 0.33744 0.16898 0.96033 0.0
H418 H 0.27497 0.24355 0.01294 0.0
H419 H 0.23863 0.27901 0.99541 0.0
C420 C 0.13197 0.72836 0.28187 0.0
C421 C 0.09202 0.74635 0.28173 0.0
C422 C 0.06861 0.69419 0.23252 0.0
C423 C 0.11011 0.68233 0.22636 0.0
N424 N 0.18102 0.68379 0.24678 0.0
N425 N 0.02088 0.74411 0.26164 0.0
C426 C 0.14157 0.69737 0.25238 0.0
C427 C 0.05966 0.72795 0.25901 0.0
N428 N 0.16093 0.74178 0.30925 0.0
N429 N 0.03821 0.67358 0.21205 0.0
H430 H 0.01342 0.76734 0.28254 0.0
H431 H 0.99644 0.73536 0.24294 0.0
H432 H 0.04463 0.64873 0.1927 0.0
H433 H 0.00689 0.67869 0.21642 0.0
H434 H 0.1896 0.72803 0.31308 0.0
H435 H 0.15524 0.76488 0.33068 0.0
H436 H 0.20673 0.69683 0.26071 0.0
H437 H 0.18804 0.65964 0.22679 0.0
C438 C 0.13494 0.27897 0.73564 0.0
C439 C 0.09444 0.26272 0.73227 0.0
C440 C 0.06953 0.31149 0.78383 0.0
C441 C 0.11081 0.32379 0.79099 0.0
N442 N 0.18036 0.32976 0.76708 0.0
N443 N 0.02181 0.27025 0.74327 0.0
C444 C 0.14265 0.31135 0.76413 0.0
C445 C 0.06114 0.28165 0.75293 0.0
N446 N 0.16627 0.26141 0.71371 0.0
N447 N 0.03901 0.32683 0.80839 0.0
H448 H 0.01555 0.24857 0.72041 0.0
H449 H 0.99557 0.28408 0.75535 0.0
H450 H 0.04457 0.35013 0.82982 0.0
H451 H 0.00873 0.31641 0.8082 0.0
H452 H 0.19726 0.26834 0.71792 0.0
H453 H 0.16121 0.23867 0.69166 0.0
H454 H 0.20472 0.32417 0.74707 0.0
H455 H 0.18609 0.35341 0.78803 0.0
C456 C 0.86621 0.69654 0.75763 0.0
C457 C 0.89707 0.68496 0.78595 0.0
C458 C 0.94719 0.72891 0.75041 0.0
C459 C 0.91446 0.74657 0.72779 0.0
N460 N 0.84313 0.74632 0.70699 0.0
N461 N 0.96779 0.68522 0.80753 0.0
C462 C 0.87422 0.72932 0.72968 0.0
C463 C 0.93815 0.69903 0.78112 0.0
N464 N 0.82903 0.67687 0.75857 0.0
N465 N 0.98665 0.74125 0.74255 0.0
H466 H 0.96208 0.66181 0.82878 0.0
H467 H 0.99745 0.69722 0.80918 0.0
H468 H 0.99354 0.76295 0.71989 0.0
H469 H 0.01258 0.72804 0.75587 0.0
H470 H 0.80574 0.6815 0.73712 0.0
H471 H 0.82286 0.65303 0.77918 0.0
H472 H 0.81221 0.73869 0.71041 0.0
H473 H 0.84805 0.76959 0.68549 0.0
C474 C 0.86558 0.2816 0.276 0.0
C475 C 0.9071 0.26777 0.27568 0.0
C476 C 0.92531 0.32281 0.22751 0.0
C477 C 0.88283 0.33011 0.22105 0.0
N478 N 0.81241 0.32149 0.24133 0.0
N479 N 0.97778 0.27777 0.25638 0.0
C480 C 0.85298 0.31178 0.24686 0.0
C481 C 0.93756 0.28985 0.25362 0.0
N482 N 0.83815 0.26487 0.30313 0.0
N483 N 0.95348 0.34671 0.20743 0.0
H484 H 0.98738 0.25505 0.27694 0.0
H485 H 0.00138 0.28942 0.23815 0.0
H486 H 0.94457 0.37091 0.18828 0.0
H487 H 0.98514 0.34488 0.21195 0.0
H488 H 0.80808 0.27527 0.30689 0.0
H489 H 0.84641 0.24244 0.32445 0.0
H490 H 0.78807 0.30604 0.25528 0.0
H491 H 0.80316 0.34499 0.22147 0.0
C492 C 0.02078 0.01438 0.70655 0.0
C493 C 0.01658 0.04557 0.67653 0.0
C494 C 0.9686 0.00304 0.63797 0.0
C495 C 0.97022 0.97222 0.66928 0.0
N496 N 0.98827 0.95627 0.73981 0.0
N497 N 0.9758 0.07558 0.62273 0.0
C498 C 0.99356 0.98001 0.70558 0.0
C499 C 0.98664 0.04193 0.64546 0.0
N500 N 0.05101 0.01723 0.73556 0.0
N501 N 0.95287 0.99476 0.59986 0.0
H502 H 0.98886 0.10457 0.62749 0.0
H503 H 0.95116 0.07544 0.6022 0.0
H504 H 0.94442 0.96554 0.58991 0.0
H505 H 0.95322 0.016 0.57592 0.0
H506 H 0.05841 0.99314 0.75537 0.0
H507 H 0.07027 0.04285 0.73798 0.0
H508 H 0.00225 0.96291 0.76785 0.0
H509 H 0.96613 0.93314 0.74185 0.0
C510 C 0.99334 0.02167 0.29198 0.0
C511 C 0.99273 0.04967 0.32534 0.0
C512 C 0.03324 0.00234 0.36661 0.0
C513 C 0.03705 0.9752 0.33257 0.0
N514 N 0.0295 0.96527 0.25919 0.0
N515 N 0.02444 0.07299 0.38789 0.0
C516 C 0.01963 0.98655 0.29402 0.0
C517 C 0.01698 0.04213 0.36042 0.0
N518 N 0.96829 0.02804 0.25892 0.0
N519 N 0.04199 0.98925 0.40549 0.0
H520 H 0.01297 0.10276 0.3839 0.0
H521 H 0.04527 0.06983 0.41207 0.0
H522 H 0.04825 0.95856 0.41228 0.0
H523 H 0.03747 0.0075 0.43143 0.0
H524 H 0.96407 0.00624 0.2358 0.0
H525 H 0.94983 0.05419 0.25603 0.0
H526 H 0.02037 0.9746 0.22995 0.0
H527 H 0.05044 0.94095 0.25886 0.0
C528 C 0.69051 0.9588 0.99322 0.0
C529 C 0.68477 0.97866 0.95483 0.0
C530 C 0.68776 0.04541 0.98936 0.0
C531 C 0.68429 0.02525 0.02788 0.0
N532 N 0.6777 0.96169 0.06622 0.0
N533 N 0.67359 0.04161 0.91663 0.0
C534 C 0.68506 0.98161 0.02997 0.0
C535 C 0.68287 0.02226 0.95274 0.0
N536 N 0.70135 0.91815 0.99448 0.0
N537 N 0.69602 0.08665 0.98784 0.0
H538 H 0.66866 0.02605 0.88909 0.0
H539 H 0.66723 0.07301 0.91479 0.0
H540 H 0.70095 0.10428 0.01421 0.0
H541 H 0.70241 0.10222 0.96058 0.0
H542 H 0.70942 0.90306 0.02156 0.0
H543 H 0.70665 0.90084 0.96797 0.0
H544 H 0.67334 0.92995 0.06812 0.0
H545 H 0.67218 0.97686 0.09387 0.0
C546 C 0.32163 0.94368 0.9867 0.0
C547 C 0.31179 0.96048 0.0257 0.0
C548 C 0.29956 0.02767 0.99376 0.0
C549 C 0.31757 0.01253 0.95692 0.0
N550 N 0.34754 0.95645 0.9183 0.0
N551 N 0.27079 0.0118 0.06068 0.0
C552 C 0.32824 0.9704 0.95298 0.0
C553 C 0.29455 1.00064 0.02786 0.0
N554 N 0.32257 0.90191 0.98169 0.0
N555 N 0.28809 0.06813 0.9963 0.0
H556 H 0.26086 0.99092 0.08277 0.0
H557 H 0.25556 0.03987 0.06307 0.0
H558 H 0.28803 0.08786 0.971 0.0
H559 H 0.28028 0.08278 0.02365 0.0
H560 H 0.32616 0.88761 0.95326 0.0
H561 H 0.31433 0.88173 0.00527 0.0
H562 H 0.36062 0.92725 0.91603 0.0
H563 H 0.35352 0.97501 0.89286 0.0
C564 C 0.98459 0.69936 0.9937 0.0
C565 C 0.96402 0.66202 0.98396 0.0
C566 C 0.01897 0.62266 0.01681 0.0
C567 C 0.03715 0.65982 0.03073 0.0
N568 N 0.03333 0.73368 0.03854 0.0
N569 N 0.95638 0.58889 0.99555 0.0
C570 C 0.01896 0.69833 0.02086 0.0
C571 C 0.97965 0.62388 0.99833 0.0
N572 N 0.97254 0.73545 0.97581 0.0
N573 N 0.03989 0.58623 0.01979 0.0
H574 H 0.92663 0.58865 0.98354 0.0
H575 H 0.9648 0.56114 0.00926 0.0
H576 H 0.06965 0.5841 0.03162 0.0
H577 H 0.02958 0.55897 0.00637 0.0
H578 H 0.98925 0.76272 0.97837 0.0
H579 H 0.94775 0.73747 0.95557 0.0
H580 H 0.01841 0.76195 0.03584 0.0
H581 H 0.05817 0.7342 0.05882 0.0
C582 C 0.01191 0.30506 0.99375 0.0
C583 C 0.03276 0.34242 0.98469 0.0
C584 C 0.97559 0.38174 0.01356 0.0
C585 C 0.9571 0.34469 0.02733 0.0
N586 N 0.96131 0.271 0.03671 0.0
N587 N 0.03911 0.41577 0.99587 0.0
C588 C 0.97616 0.30619 0.0191 0.0
C589 C 0.01597 0.38062 0.99754 0.0
N590 N 0.02509 0.26882 0.97694 0.0
N591 N 0.95409 0.41794 0.01447 0.0
H592 H 0.06967 0.41608 0.98606 0.0
H593 H 0.02949 0.44363 0.00858 0.0
H594 H 0.92361 0.41988 0.02436 0.0
H595 H 0.96494 0.44502 0.00111 0.0
H596 H 0.00841 0.24149 0.97903 0.0
H597 H 0.05083 0.26674 0.9579 0.0
H598 H 0.97669 0.24288 0.03523 0.0
H599 H 0.93551 0.27054 0.05576 0.0
loop_
_geom_bond_atom_site_label_1
_geom_bond_atom_site_label_2
_geom_bond_distance
_geom_bond_site_symmetry_2
_ccdc_geom_bond_type
O0 Cd1 2.223 . S
O0 C8 1.315 . S
Cd1 O0 2.223 . S
Cd1 O4 2.297 . S
Cd1 O5 2.439 . S
Cd1 O11 2.240 . S
Cd2 O3 2.240 . S
Cd2 O10 2.223 . S
Cd2 O12 2.297 . S
Cd2 O13 2.439 . S
O3 Cd2 2.240 . S
O3 C8 1.279 . S
O4 Cd1 2.297 . S
O4 C6 1.247 . S
O5 Cd1 2.439 . S
O5 C6 1.208 . S
C6 O4 1.247 . S
C6 O5 1.208 . S
C7 O12 1.247 . S
C7 O13 1.208 . S
C8 O0 1.315 . S
C8 O3 1.279 . S
C9 O10 1.315 . S
C9 O11 1.279 . S
O10 Cd2 2.223 . S
O10 C9 1.315 . S
O11 Cd1 2.240 . S
O11 C9 1.279 . S
O12 Cd2 2.297 . S
O12 C7 1.247 . S
O13 Cd2 2.439 . S
O13 C7 1.208 . S
O14 Cd15 2.223 . S
O14 C22 1.315 . S
Cd15 O14 2.223 . S
Cd15 O18 2.297 . S
Cd15 O19 2.439 . S
Cd15 O25 2.240 . S
Cd16 O17 2.240 . S
Cd16 O24 2.223 . S
Cd16 O26 2.297 . S
Cd16 O27 2.439 . S
O17 Cd16 2.240 . S
O17 C22 1.279 . S
O18 Cd15 2.297 . S
O18 C20 1.247 . S
O19 Cd15 2.439 . S
O19 C20 1.208 . S
C20 O18 1.247 . S
C20 O19 1.208 . S
C21 O26 1.247 . S
C21 O27 1.208 . S
C22 O14 1.315 . S
C22 O17 1.279 . S
C23 O24 1.315 . S
C23 O25 1.279 . S
O24 Cd16 2.223 . S
O24 C23 1.315 . S
O25 Cd15 2.240 . S
O25 C23 1.279 . S
O26 Cd16 2.297 . S
O26 C21 1.247 . S
O27 Cd16 2.439 . S
O27 C21 1.208 . S
O28 Cd29 2.223 . S
O28 C36 1.315 . S
Cd29 O28 2.223 . S
Cd29 O32 2.297 . S
Cd29 O33 2.439 . S
Cd29 O39 2.240 . S
Cd30 O31 2.240 . S
Cd30 O38 2.223 . S
Cd30 O40 2.297 . S
Cd30 O41 2.439 . S
O31 Cd30 2.240 . S
O31 C36 1.279 . S
O32 Cd29 2.297 . S
O32 C34 1.247 . S
O33 Cd29 2.439 . S
O33 C34 1.208 . S
C34 O32 1.247 . S
C34 O33 1.208 . S
C35 O40 1.247 . S
C35 O41 1.208 . S
C36 O28 1.315 . S
C36 O31 1.279 . S
C37 O38 1.315 . S
C37 O39 1.279 . S
O38 Cd30 2.223 . S
O38 C37 1.315 . S
O39 Cd29 2.240 . S
O39 C37 1.279 . S
O40 Cd30 2.297 . S
O40 C35 1.247 . S
O41 Cd30 2.439 . S
O41 C35 1.208 . S
O42 Cd43 2.223 . S
O42 C50 1.315 . S
Cd43 O42 2.223 . S
Cd43 O46 2.297 . S
Cd43 O47 2.439 . S
Cd43 O53 2.240 . S
Cd44 O45 2.240 . S
Cd44 O52 2.223 . S
Cd44 O54 2.297 . S
Cd44 O55 2.439 . S
O45 Cd44 2.240 . S
O45 C50 1.279 . S
O46 Cd43 2.297 . S
O46 C48 1.247 . S
O47 Cd43 2.439 . S
O47 C48 1.208 . S
C48 O46 1.247 . S
C48 O47 1.208 . S
C49 O54 1.247 . S
C49 O55 1.208 . S
C50 O42 1.315 . S
C50 O45 1.279 . S
C51 O52 1.315 . S
C51 O53 1.279 . S
O52 Cd44 2.223 . S
O52 C51 1.315 . S
O53 Cd43 2.240 . S
O53 C51 1.279 . S
O54 Cd44 2.297 . S
O54 C49 1.247 . S
O55 Cd44 2.439 . S
O55 C49 1.208 . S
O56 Cd57 2.223 . S
O56 C64 1.315 . S
Cd57 O56 2.223 . S
Cd57 O60 2.297 . S
Cd57 O61 2.439 . S
Cd57 O67 2.240 . S
Cd58 O59 2.240 . S
Cd58 O66 2.223 . S
Cd58 O68 2.297 . S
Cd58 O69 2.439 . S
O59 Cd58 2.240 . S
O59 C64 1.279 . S
O60 Cd57 2.297 . S
O60 C62 1.247 . S
O61 Cd57 2.439 . S
O61 C62 1.208 . S
C62 O60 1.247 . S
C62 O61 1.208 . S
C63 O68 1.247 . S
C63 O69 1.208 . S
C64 O56 1.315 . S
C64 O59 1.279 . S
C65 O66 1.315 . S
C65 O67 1.279 . S
O66 Cd58 2.223 . S
O66 C65 1.315 . S
O67 Cd57 2.240 . S
O67 C65 1.279 . S
O68 Cd58 2.297 . S
O68 C63 1.247 . S
O69 Cd58 2.439 . S
O69 C63 1.208 . S
O70 Cd71 2.223 . S
O70 C78 1.315 . S
Cd71 O70 2.223 . S
Cd71 O74 2.297 . S
Cd71 O75 2.439 . S
Cd71 O81 2.240 . S
Cd72 O73 2.240 . S
Cd72 O80 2.223 . S
Cd72 O82 2.297 . S
Cd72 O83 2.439 . S
O73 Cd72 2.240 . S
O73 C78 1.279 . S
O74 Cd71 2.297 . S
O74 C76 1.247 . S
O75 Cd71 2.439 . S
O75 C76 1.208 . S
C76 O74 1.247 . S
C76 O75 1.208 . S
C77 O82 1.247 . S
C77 O83 1.208 . S
C78 O70 1.315 . S
C78 O73 1.279 . S
C79 O80 1.315 . S
C79 O81 1.279 . S
O80 Cd72 2.223 . S
O80 C79 1.315 . S
O81 Cd71 2.240 . S
O81 C79 1.279 . S
O82 Cd72 2.297 . S
O82 C77 1.247 . S
O83 Cd72 2.439 . S
O83 C77 1.208 . S
O84 Cd85 2.223 . S
O84 C92 1.315 . S
Cd85 O84 2.223 . S
Cd85 O88 2.297 . S
Cd85 O89 2.439 . S
Cd85 O95 2.240 . S
Cd86 O87 2.240 . S
Cd86 O94 2.223 . S
Cd86 O96 2.297 . S
Cd86 O97 2.439 . S
O87 Cd86 2.240 . S
O87 C92 1.279 . S
O88 Cd85 2.297 . S
O88 C90 1.247 . S
O89 Cd85 2.439 . S
O89 C90 1.208 . S
C90 O88 1.247 . S
C90 O89 1.208 . S
C91 O96 1.247 . S
C91 O97 1.208 . S
C92 O84 1.315 . S
C92 O87 1.279 . S
C93 O94 1.315 . S
C93 O95 1.279 . S
O94 Cd86 2.223 . S
O94 C93 1.315 . S
O95 Cd85 2.240 . S
O95 C93 1.279 . S
O96 Cd86 2.297 . S
O96 C91 1.247 . S
O97 Cd86 2.439 . S
O97 C91 1.208 . S
O98 Cd99 2.223 . S
O98 C106 1.315 . S
Cd99 O98 2.223 . S
Cd99 O102 2.297 . S
Cd99 O103 2.439 . S
Cd99 O109 2.240 . S
Cd100 O101 2.240 . S
Cd100 O108 2.223 . S
Cd100 O110 2.297 . S
Cd100 O111 2.439 . S
O101 Cd100 2.240 . S
O101 C106 1.279 . S
O102 Cd99 2.297 . S
O102 C104 1.247 . S
O103 Cd99 2.439 . S
O103 C104 1.208 . S
C104 O102 1.247 . S
C104 O103 1.208 . S
C105 O110 1.247 . S
C105 O111 1.208 . S
C106 O98 1.315 . S
C106 O101 1.279 . S
C107 O108 1.315 . S
C107 O109 1.279 . S
O108 Cd100 2.223 . S
O108 C107 1.315 . S
O109 Cd99 2.240 . S
O109 C107 1.279 . S
O110 Cd100 2.297 . S
O110 C105 1.247 . S
O111 Cd100 2.439 . S
O111 C105 1.208 . S
O112 Cd113 2.223 . S
O112 C120 1.315 . S
Cd113 O112 2.223 . S
Cd113 O116 2.297 . S
Cd113 O117 2.439 . S
Cd113 O123 2.240 . S
Cd114 O115 2.240 . S
Cd114 O122 2.223 . S
Cd114 O124 2.297 . S
Cd114 O125 2.439 . S
O115 Cd114 2.240 . S
O115 C120 1.279 . S
O116 Cd113 2.297 . S
O116 C118 1.247 . S
O117 Cd113 2.439 . S
O117 C118 1.208 . S
C118 O116 1.247 . S
C118 O117 1.208 . S
C119 O124 1.247 . S
C119 O125 1.208 . S
C120 O112 1.315 . S
C120 O115 1.279 . S
C121 O122 1.315 . S
C121 O123 1.279 . S
O122 Cd114 2.223 . S
O122 C121 1.315 . S
O123 Cd113 2.240 . S
O123 C121 1.279 . S
O124 Cd114 2.297 . S
O124 C119 1.247 . S
O125 Cd114 2.439 . S
O125 C119 1.208 . S
O126 Cd127 2.223 . S
O126 C134 1.315 . S
Cd127 O126 2.223 . S
Cd127 O130 2.297 . S
Cd127 O131 2.439 . S
Cd127 O137 2.240 . S
Cd128 O129 2.240 . S
Cd128 O136 2.223 . S
Cd128 O138 2.297 . S
Cd128 O139 2.439 . S
O129 Cd128 2.240 . S
O129 C134 1.279 . S
O130 Cd127 2.297 . S
O130 C132 1.247 . S
O131 Cd127 2.439 . S
O131 C132 1.208 . S
C132 O130 1.247 . S
C132 O131 1.208 . S
C133 O138 1.247 . S
C133 O139 1.208 . S
C134 O126 1.315 . S
C134 O129 1.279 . S
C135 O136 1.315 . S
C135 O137 1.279 . S
O136 Cd128 2.223 . S
O136 C135 1.315 . S
O137 Cd127 2.240 . S
O137 C135 1.279 . S
O138 Cd128 2.297 . S
O138 C133 1.247 . S
O139 Cd128 2.439 . S
O139 C133 1.208 . S
O140 Cd141 2.223 . S
O140 C148 1.315 . S
Cd141 O140 2.223 . S
Cd141 O144 2.297 . S
Cd141 O145 2.439 . S
Cd141 O151 2.240 . S
Cd142 O143 2.240 . S
Cd142 O150 2.223 . S
Cd142 O152 2.297 . S
Cd142 O153 2.439 . S
O143 Cd142 2.240 . S
O143 C148 1.279 . S
O144 Cd141 2.297 . S
O144 C146 1.247 . S
O145 Cd141 2.439 . S
O145 C146 1.208 . S
C146 O144 1.247 . S
C146 O145 1.208 . S
C147 O152 1.247 . S
C147 O153 1.208 . S
C148 O140 1.315 . S
C148 O143 1.279 . S
C149 O150 1.315 . S
C149 O151 1.279 . S
O150 Cd142 2.223 . S
O150 C149 1.315 . S
O151 Cd141 2.240 . S
O151 C149 1.279 . S
O152 Cd142 2.297 . S
O152 C147 1.247 . S
O153 Cd142 2.439 . S
O153 C147 1.208 . S
O154 Cd155 2.223 . S
O154 C162 1.315 . S
Cd155 O154 2.223 . S
Cd155 O158 2.297 . S
Cd155 O159 2.439 . S
Cd155 O165 2.240 . S
Cd156 O157 2.240 . S
Cd156 O164 2.223 . S
Cd156 O166 2.297 . S
Cd156 O167 2.439 . S
O157 Cd156 2.240 . S
O157 C162 1.279 . S
O158 Cd155 2.297 . S
O158 C160 1.247 . S
O159 Cd155 2.439 . S
O159 C160 1.208 . S
C160 O158 1.247 . S
C160 O159 1.208 . S
C161 O166 1.247 . S
C161 O167 1.208 . S
C162 O154 1.315 . S
C162 O157 1.279 . S
C163 O164 1.315 . S
C163 O165 1.279 . S
O164 Cd156 2.223 . S
O164 C163 1.315 . S
O165 Cd155 2.240 . S
O165 C163 1.279 . S
O166 Cd156 2.297 . S
O166 C161 1.247 . S
O167 Cd156 2.439 . S
O167 C161 1.208 . S
C168 C169 1.363 1_455 S
C168 C174 1.379 . S
C168 N176 1.356 . S
C169 C168 1.363 1_655 S
C169 C175 1.363 . S
C170 C171 1.363 1_655 S
C170 C175 1.379 . S
C170 N177 1.356 . S
C171 C170 1.363 1_455 S
C171 C174 1.363 . S
N172 C174 1.356 . S
N172 H184 0.984 . S
N172 H185 0.985 . S
N173 C175 1.356 . S
N173 H178 0.984 . S
N173 H179 0.985 . S
C174 C168 1.379 . S
C174 C171 1.363 . S
C174 N172 1.356 . S
C175 C169 1.363 . S
C175 C170 1.379 . S
C175 N173 1.356 . S
N176 C168 1.356 . S
N176 H182 0.984 . S
N176 H183 0.984 . S
N177 C170 1.356 . S
N177 H180 0.984 . S
N177 H181 0.985 . S
H178 N173 0.984 . S
H179 N173 0.985 . S
H180 N177 0.984 . S
H181 N177 0.985 . S
H182 N176 0.984 . S
H183 N176 0.984 . S
H184 N172 0.984 . S
H185 N172 0.985 . S
C186 C187 1.363 . S
C186 C192 1.379 . S
C186 N194 1.356 . S
C187 C186 1.363 . S
C187 C193 1.363 1_455 S
C188 C189 1.363 . S
C188 C193 1.379 . S
C188 N195 1.356 . S
C189 C188 1.363 . S
C189 C192 1.363 1_655 S
N190 C192 1.356 . S
N190 H202 0.984 . S
N190 H203 0.985 . S
N191 C193 1.356 . S
N191 H196 0.984 . S
N191 H197 0.985 . S
C192 C186 1.379 . S
C192 C189 1.363 1_455 S
C192 N190 1.356 . S
C193 C187 1.363 1_655 S
C193 C188 1.379 . S
C193 N191 1.356 . S
N194 C186 1.356 . S
N194 H200 0.984 . S
N194 H201 0.984 . S
N195 C188 1.356 . S
N195 H198 0.984 . S
N195 H199 0.985 . S
H196 N191 0.984 . S
H197 N191 0.985 . S
H198 N195 0.984 . S
H199 N195 0.985 . S
H200 N194 0.984 . S
H201 N194 0.984 . S
H202 N190 0.984 . S
H203 N190 0.985 . S
C204 C205 1.363 1_545 S
C204 C210 1.379 . S
C204 N212 1.356 . S
C205 C204 1.363 1_565 S
C205 C211 1.363 . S
C206 C207 1.363 1_565 S
C206 C211 1.379 . S
C206 N213 1.356 . S
C207 C206 1.363 1_545 S
C207 C210 1.363 . S
N208 C210 1.356 . S
N208 H220 0.984 . S
N208 H221 0.985 . S
N209 C211 1.356 . S
N209 H214 0.984 . S
N209 H215 0.985 . S
C210 C204 1.379 . S
C210 C207 1.363 . S
C210 N208 1.356 . S
C211 C205 1.363 . S
C211 C206 1.379 . S
C211 N209 1.356 . S
N212 C204 1.356 . S
N212 H218 0.984 . S
N212 H219 0.984 . S
N213 C206 1.356 . S
N213 H216 0.984 . S
N213 H217 0.985 . S
H214 N209 0.984 . S
H215 N209 0.985 . S
H216 N213 0.984 . S
H217 N213 0.985 . S
H218 N212 0.984 . S
H219 N212 0.984 . S
H220 N208 0.984 . S
H221 N208 0.985 . S
C222 C223 1.363 1_545 S
C222 C228 1.379 . S
C222 N230 1.356 . S
C223 C222 1.363 1_565 S
C223 C229 1.363 . S
C224 C225 1.363 1_565 S
C224 C229 1.379 . S
C224 N231 1.356 . S
C225 C224 1.363 1_545 S
C225 C228 1.363 . S
N226 C228 1.356 . S
N226 H238 0.984 . S
N226 H239 0.985 . S
N227 C229 1.356 . S
N227 H232 0.984 . S
N227 H233 0.985 . S
C228 C222 1.379 . S
C228 C225 1.363 . S
C228 N226 1.356 . S
C229 C223 1.363 . S
C229 C224 1.379 . S
C229 N227 1.356 . S
N230 C222 1.356 . S
N230 H236 0.984 . S
N230 H237 0.984 . S
N231 C224 1.356 . S
N231 H234 0.984 . S
N231 H235 0.985 . S
H232 N227 0.984 . S
H233 N227 0.985 . S
H234 N231 0.984 . S
H235 N231 0.985 . S
H236 N230 0.984 . S
H237 N230 0.984 . S
H238 N226 0.984 . S
H239 N226 0.985 . S
C240 C241 1.363 1_554 S
C240 C246 1.379 . S
C240 N248 1.356 . S
C241 C240 1.363 1_556 S
C241 C247 1.363 . S
C242 C243 1.363 1_556 S
C242 C247 1.379 . S
C242 N249 1.356 . S
C243 C242 1.363 1_554 S
C243 C246 1.363 . S
N244 C246 1.356 . S
N244 H256 0.984 . S
N244 H257 0.985 . S
N245 C247 1.356 . S
N245 H250 0.984 . S
N245 H251 0.985 . S
C246 C240 1.379 . S
C246 C243 1.363 . S
C246 N244 1.356 . S
C247 C241 1.363 . S
C247 C242 1.379 . S
C247 N245 1.356 . S
N248 C240 1.356 . S
N248 H254 0.984 . S
N248 H255 0.984 . S
N249 C242 1.356 . S
N249 H252 0.984 . S
N249 H253 0.985 . S
H250 N245 0.984 . S
H251 N245 0.985 . S
H252 N249 0.984 . S
H253 N249 0.985 . S
H254 N248 0.984 . S
H255 N248 0.984 . S
H256 N244 0.984 . S
H257 N244 0.985 . S
C258 C259 1.363 1_554 S
C258 C264 1.379 . S
C258 N266 1.356 . S
C259 C258 1.363 1_556 S
C259 C265 1.363 . S
C260 C261 1.363 1_556 S
C260 C265 1.379 . S
C260 N267 1.356 . S
C261 C260 1.363 1_554 S
C261 C264 1.363 . S
N262 C264 1.356 . S
N262 H274 0.984 . S
N262 H275 0.985 . S
N263 C265 1.356 . S
N263 H268 0.984 . S
N263 H269 0.985 . S
C264 C258 1.379 . S
C264 C261 1.363 . S
C264 N262 1.356 . S
C265 C259 1.363 . S
C265 C260 1.379 . S
C265 N263 1.356 . S
N266 C258 1.356 . S
N266 H272 0.984 . S
N266 H273 0.984 . S
N267 C260 1.356 . S
N267 H270 0.984 . S
N267 H271 0.985 . S
H268 N263 0.984 . S
H269 N263 0.985 . S
H270 N267 0.984 . S
H271 N267 0.985 . S
H272 N266 0.984 . S
H273 N266 0.984 . S
H274 N262 0.984 . S
H275 N262 0.985 . S
C276 C277 1.363 . S
C276 C282 1.379 . S
C276 N284 1.356 . S
C277 C276 1.363 . S
C277 C283 1.363 . S
C278 C279 1.363 . S
C278 C283 1.379 . S
C278 N285 1.356 . S
C279 C278 1.363 . S
C279 C282 1.363 . S
N280 C282 1.356 . S
N280 H292 0.984 . S
N280 H293 0.985 . S
N281 C283 1.356 . S
N281 H286 0.984 . S
N281 H287 0.985 . S
C282 C276 1.379 . S
C282 C279 1.363 . S
C282 N280 1.356 . S
C283 C277 1.363 . S
C283 C278 1.379 . S
C283 N281 1.356 . S
N284 C276 1.356 . S
N284 H290 0.984 . S
N284 H291 0.984 . S
N285 C278 1.356 . S
N285 H288 0.984 . S
N285 H289 0.985 . S
H286 N281 0.984 . S
H287 N281 0.985 . S
H288 N285 0.984 . S
H289 N285 0.985 . S
H290 N284 0.984 . S
H291 N284 0.984 . S
H292 N280 0.984 . S
H293 N280 0.985 . S
C294 C295 1.363 . S
C294 C300 1.379 . S
C294 N302 1.356 . S
C295 C294 1.363 . S
C295 C301 1.363 . S
C296 C297 1.363 . S
C296 C301 1.379 . S
C296 N303 1.356 . S
C297 C296 1.363 . S
C297 C300 1.363 . S
N298 C300 1.356 . S
N298 H310 0.984 . S
N298 H311 0.985 . S
N299 C301 1.356 . S
N299 H304 0.984 . S
N299 H305 0.985 . S
C300 C294 1.379 . S
C300 C297 1.363 . S
C300 N298 1.356 . S
C301 C295 1.363 . S
C301 C296 1.379 . S
C301 N299 1.356 . S
N302 C294 1.356 . S
N302 H308 0.984 . S
N302 H309 0.984 . S
N303 C296 1.356 . S
N303 H306 0.984 . S
N303 H307 0.985 . S
H304 N299 0.984 . S
H305 N299 0.985 . S
H306 N303 0.984 . S
H307 N303 0.985 . S
H308 N302 0.984 . S
H309 N302 0.984 . S
H310 N298 0.984 . S
H311 N298 0.985 . S
C312 C313 1.363 . S
C312 C318 1.379 . S
C312 N320 1.356 . S
C313 C312 1.363 . S
C313 C319 1.363 . S
C314 C315 1.363 . S
C314 C319 1.379 . S
C314 N321 1.356 . S
C315 C314 1.363 . S
C315 C318 1.363 . S
N316 C318 1.356 . S
N316 H328 0.984 . S
N316 H329 0.985 . S
N317 C319 1.356 . S
N317 H322 0.984 . S
N317 H323 0.985 . S
C318 C312 1.379 . S
C318 C315 1.363 . S
C318 N316 1.356 . S
C319 C313 1.363 . S
C319 C314 1.379 . S
C319 N317 1.356 . S
N320 C312 1.356 . S
N320 H326 0.984 . S
N320 H327 0.984 . S
N321 C314 1.356 . S
N321 H324 0.984 . S
N321 H325 0.985 . S
H322 N317 0.984 . S
H323 N317 0.985 . S
H324 N321 0.984 . S
H325 N321 0.985 . S
H326 N320 0.984 . S
H327 N320 0.984 . S
H328 N316 0.984 . S
H329 N316 0.985 . S
C330 C331 1.363 . S
C330 C336 1.379 . S
C330 N338 1.356 . S
C331 C330 1.363 . S
C331 C337 1.363 . S
C332 C333 1.363 . S
C332 C337 1.379 . S
C332 N339 1.356 . S
C333 C332 1.363 . S
C333 C336 1.363 . S
N334 C336 1.356 . S
N334 H346 0.984 . S
N334 H347 0.985 . S
N335 C337 1.356 . S
N335 H340 0.984 . S
N335 H341 0.985 . S
C336 C330 1.379 . S
C336 C333 1.363 . S
C336 N334 1.356 . S
C337 C331 1.363 . S
C337 C332 1.379 . S
C337 N335 1.356 . S
N338 C330 1.356 . S
N338 H344 0.984 . S
N338 H345 0.984 . S
N339 C332 1.356 . S
N339 H342 0.984 . S
N339 H343 0.985 . S
H340 N335 0.984 . S
H341 N335 0.985 . S
H342 N339 0.984 . S
H343 N339 0.985 . S
H344 N338 0.984 . S
H345 N338 0.984 . S
H346 N334 0.984 . S
H347 N334 0.985 . S
C348 C349 1.363 . S
C348 C354 1.379 . S
C348 N356 1.356 . S
C349 C348 1.363 . S
C349 C355 1.363 . S
C350 C351 1.363 . S
C350 C355 1.379 . S
C350 N357 1.356 . S
C351 C350 1.363 . S
C351 C354 1.363 . S
N352 C354 1.356 . S
N352 H364 0.984 . S
N352 H365 0.985 . S
N353 C355 1.356 . S
N353 H358 0.984 . S
N353 H359 0.985 . S
C354 C348 1.379 . S
C354 C351 1.363 . S
C354 N352 1.356 . S
C355 C349 1.363 . S
C355 C350 1.379 . S
C355 N353 1.356 . S
N356 C348 1.356 . S
N356 H362 0.984 . S
N356 H363 0.984 . S
N357 C350 1.356 . S
N357 H360 0.984 . S
N357 H361 0.985 . S
H358 N353 0.984 . S
H359 N353 0.985 . S
H360 N357 0.984 . S
H361 N357 0.985 . S
H362 N356 0.984 . S
H363 N356 0.984 . S
H364 N352 0.984 . S
H365 N352 0.985 . S
C366 C367 1.363 . S
C366 C372 1.379 . S
C366 N374 1.356 . S
C367 C366 1.363 . S
C367 C373 1.363 . S
C368 C369 1.363 . S
C368 C373 1.379 . S
C368 N375 1.356 . S
C369 C368 1.363 . S
C369 C372 1.363 . S
N370 C372 1.356 . S
N370 H382 0.984 . S
N370 H383 0.985 . S
N371 C373 1.356 . S
N371 H376 0.984 . S
N371 H377 0.985 . S
C372 C366 1.379 . S
C372 C369 1.363 . S
C372 N370 1.356 . S
C373 C367 1.363 . S
C373 C368 1.379 . S
C373 N371 1.356 . S
N374 C366 1.356 . S
N374 H380 0.984 . S
N374 H381 0.984 . S
N375 C368 1.356 . S
N375 H378 0.984 . S
N375 H379 0.985 . S
H376 N371 0.984 . S
H377 N371 0.985 . S
H378 N375 0.984 . S
H379 N375 0.985 . S
H380 N374 0.984 . S
H381 N374 0.984 . S
H382 N370 0.984 . S
H383 N370 0.985 . S
C384 C385 1.363 . S
C384 C390 1.379 . S
C384 N392 1.356 . S
C385 C384 1.363 . S
C385 C391 1.363 . S
C386 C387 1.363 . S
C386 C391 1.379 . S
C386 N393 1.356 . S
C387 C386 1.363 . S
C387 C390 1.363 . S
N388 C390 1.356 . S
N388 H400 0.984 . S
N388 H401 0.985 . S
N389 C391 1.356 . S
N389 H394 0.984 . S
N389 H395 0.985 . S
C390 C384 1.379 . S
C390 C387 1.363 . S
C390 N388 1.356 . S
C391 C385 1.363 . S
C391 C386 1.379 . S
C391 N389 1.356 . S
N392 C384 1.356 . S
N392 H398 0.984 . S
N392 H399 0.984 . S
N393 C386 1.356 . S
N393 H396 0.984 . S
N393 H397 0.985 . S
H394 N389 0.984 . S
H395 N389 0.985 . S
H396 N393 0.984 . S
H397 N393 0.985 . S
H398 N392 0.984 . S
H399 N392 0.984 . S
H400 N388 0.984 . S
H401 N388 0.985 . S
C402 C403 1.363 . S
C402 C408 1.379 . S
C402 N410 1.356 . S
C403 C402 1.363 . S
C403 C409 1.363 . S
C404 C405 1.363 . S
C404 C409 1.379 . S
C404 N411 1.356 . S
C405 C404 1.363 . S
C405 C408 1.363 . S
N406 C408 1.356 . S
N406 H418 0.984 . S
N406 H419 0.985 . S
N407 C409 1.356 . S
N407 H412 0.984 . S
N407 H413 0.985 . S
C408 C402 1.379 . S
C408 C405 1.363 . S
C408 N406 1.356 . S
C409 C403 1.363 . S
C409 C404 1.379 . S
C409 N407 1.356 . S
N410 C402 1.356 . S
N410 H416 0.984 . S
N410 H417 0.984 . S
N411 C404 1.356 . S
N411 H414 0.984 . S
N411 H415 0.985 . S
H412 N407 0.984 . S
H413 N407 0.985 . S
H414 N411 0.984 . S
H415 N411 0.985 . S
H416 N410 0.984 . S
H417 N410 0.984 . S
H418 N406 0.984 . S
H419 N406 0.985 . S
C420 C421 1.363 . S
C420 C426 1.379 . S
C420 N428 1.356 . S
C421 C420 1.363 . S
C421 C427 1.363 . S
C422 C423 1.363 . S
C422 C427 1.379 . S
C422 N429 1.356 . S
C423 C422 1.363 . S
C423 C426 1.363 . S
N424 C426 1.356 . S
N424 H436 0.984 . S
N424 H437 0.985 . S
N425 C427 1.356 . S
N425 H430 0.984 . S
N425 H431 0.985 . S
C426 C420 1.379 . S
C426 C423 1.363 . S
C426 N424 1.356 . S
C427 C421 1.363 . S
C427 C422 1.379 . S
C427 N425 1.356 . S
N428 C420 1.356 . S
N428 H434 0.984 . S
N428 H435 0.984 . S
N429 C422 1.356 . S
N429 H432 0.984 . S
N429 H433 0.985 . S
H430 N425 0.984 . S
H431 N425 0.985 . S
H432 N429 0.984 . S
H433 N429 0.985 . S
H434 N428 0.984 . S
H435 N428 0.984 . S
H436 N424 0.984 . S
H437 N424 0.985 . S
C438 C439 1.363 . S
C438 C444 1.379 . S
C438 N446 1.356 . S
C439 C438 1.363 . S
C439 C445 1.363 . S
C440 C441 1.363 . S
C440 C445 1.379 . S
C440 N447 1.356 . S
C441 C440 1.363 . S
C441 C444 1.363 . S
N442 C444 1.356 . S
N442 H454 0.984 . S
N442 H455 0.985 . S
N443 C445 1.356 . S
N443 H448 0.984 . S
N443 H449 0.985 1_455 S
C444 C438 1.379 . S
C444 C441 1.363 . S
C444 N442 1.356 . S
C445 C439 1.363 . S
C445 C440 1.379 . S
C445 N443 1.356 . S
N446 C438 1.356 . S
N446 H452 0.984 . S
N446 H453 0.984 . S
N447 C440 1.356 . S
N447 H450 0.984 . S
N447 H451 0.985 . S
H448 N443 0.984 . S
H449 N443 0.985 1_655 S
H450 N447 0.984 . S
H451 N447 0.985 . S
H452 N446 0.984 . S
H453 N446 0.984 . S
H454 N442 0.984 . S
H455 N442 0.985 . S
C456 C457 1.363 . S
C456 C462 1.379 . S
C456 N464 1.356 . S
C457 C456 1.363 . S
C457 C463 1.363 . S
C458 C459 1.363 . S
C458 C463 1.379 . S
C458 N465 1.356 . S
C459 C458 1.363 . S
C459 C462 1.363 . S
N460 C462 1.356 . S
N460 H472 0.984 . S
N460 H473 0.985 . S
N461 C463 1.356 . S
N461 H466 0.984 . S
N461 H467 0.985 . S
C462 C456 1.379 . S
C462 C459 1.363 . S
C462 N460 1.356 . S
C463 C457 1.363 . S
C463 C458 1.379 . S
C463 N461 1.356 . S
N464 C456 1.356 . S
N464 H470 0.984 . S
N464 H471 0.984 . S
N465 C458 1.356 . S
N465 H468 0.984 . S
N465 H469 0.985 1_655 S
H466 N461 0.984 . S
H467 N461 0.985 . S
H468 N465 0.984 . S
H469 N465 0.985 1_455 S
H470 N464 0.984 . S
H471 N464 0.984 . S
H472 N460 0.984 . S
H473 N460 0.985 . S
C474 C475 1.363 . S
C474 C480 1.379 . S
C474 N482 1.356 . S
C475 C474 1.363 . S
C475 C481 1.363 . S
C476 C477 1.363 . S
C476 C481 1.379 . S
C476 N483 1.356 . S
C477 C476 1.363 . S
C477 C480 1.363 . S
N478 C480 1.356 . S
N478 H490 0.984 . S
N478 H491 0.985 . S
N479 C481 1.356 . S
N479 H484 0.984 . S
N479 H485 0.985 . S
C480 C474 1.379 . S
C480 C477 1.363 . S
C480 N478 1.356 . S
C481 C475 1.363 . S
C481 C476 1.379 . S
C481 N479 1.356 . S
N482 C474 1.356 . S
N482 H488 0.984 . S
N482 H489 0.984 . S
N483 C476 1.356 . S
N483 H486 0.984 . S
N483 H487 0.985 . S
H484 N479 0.984 . S
H485 N479 0.985 . S
H486 N483 0.984 . S
H487 N483 0.985 . S
H488 N482 0.984 . S
H489 N482 0.984 . S
H490 N478 0.984 . S
H491 N478 0.985 . S
C492 C493 1.363 . S
C492 C498 1.379 1_545 S
C492 N500 1.356 . S
C493 C492 1.363 . S
C493 C499 1.363 1_455 S
C494 C495 1.363 . S
C494 C499 1.379 1_565 S
C494 N501 1.356 . S
C495 C494 1.363 . S
C495 C498 1.363 1_655 S
N496 C498 1.356 . S
N496 H508 0.984 . S
N496 H509 0.999 . S
N497 C499 1.356 . S
N497 H502 0.999 . S
N497 H503 0.985 . S
C498 C492 1.379 1_565 S
C498 C495 1.363 1_455 S
C498 N496 1.356 . S
C499 C493 1.363 1_655 S
C499 C494 1.379 1_545 S
C499 N497 1.356 . S
N500 C492 1.356 . S
N500 H506 0.984 . S
N500 H507 0.984 . S
N501 C494 1.356 . S
N501 H504 0.984 . S
N501 H505 0.985 . S
H502 N497 0.999 . S
H503 N497 0.985 . S
H504 N501 0.984 . S
H505 N501 0.985 . S
H506 N500 0.984 . S
H507 N500 0.984 . S
H508 N496 0.984 . S
H509 N496 0.999 . S
C510 C511 1.363 . S
C510 C516 1.379 1_545 S
C510 N518 1.356 . S
C511 C510 1.363 . S
C511 C517 1.363 1_655 S
C512 C513 1.363 . S
C512 C517 1.379 1_565 S
C512 N519 1.356 . S
C513 C512 1.363 . S
C513 C516 1.363 1_455 S
N514 C516 1.356 . S
N514 H526 0.984 . S
N514 H527 0.999 . S
N515 C517 1.356 . S
N515 H520 0.999 . S
N515 H521 0.985 . S
C516 C510 1.379 1_565 S
C516 C513 1.363 1_655 S
C516 N514 1.356 . S
C517 C511 1.363 1_455 S
C517 C512 1.379 1_545 S
C517 N515 1.356 . S
N518 C510 1.356 . S
N518 H524 0.984 . S
N518 H525 0.984 . S
N519 C512 1.356 . S
N519 H522 0.984 . S
N519 H523 0.985 . S
H520 N515 0.999 . S
H521 N515 0.985 . S
H522 N519 0.984 . S
H523 N519 0.985 . S
H524 N518 0.984 . S
H525 N518 0.984 . S
H526 N514 0.984 . S
H527 N514 0.999 . S
C528 C529 1.363 . S
C528 C534 1.379 1_556 S
C528 N536 1.356 . S
C529 C528 1.363 . S
C529 C535 1.363 1_565 S
C530 C531 1.363 . S
C530 C535 1.379 1_554 S
C530 N537 1.356 . S
C531 C530 1.363 . S
C531 C534 1.363 1_545 S
N532 C534 1.356 . S
N532 H544 0.984 . S
N532 H545 0.985 . S
N533 C535 1.356 . S
N533 H538 0.984 . S
N533 H539 0.985 . S
C534 C528 1.379 1_554 S
C534 C531 1.363 1_565 S
C534 N532 1.356 . S
C535 C529 1.363 1_545 S
C535 C530 1.379 1_556 S
C535 N533 1.356 . S
N536 C528 1.356 . S
N536 H542 0.984 . S
N536 H543 0.984 . S
N537 C530 1.356 . S
N537 H540 0.984 . S
N537 H541 0.985 . S
H538 N533 0.984 . S
H539 N533 0.985 . S
H540 N537 0.984 . S
H541 N537 0.985 . S
H542 N536 0.984 . S
H543 N536 0.984 . S
H544 N532 0.984 . S
H545 N532 0.985 . S
C546 C547 1.363 . S
C546 C552 1.379 1_554 S
C546 N554 1.356 . S
C547 C546 1.363 . S
C547 C553 1.363 1_565 S
C548 C549 1.363 . S
C548 C553 1.379 1_556 S
C548 N555 1.356 . S
C549 C548 1.363 . S
C549 C552 1.363 1_545 S
N550 C552 1.356 . S
N550 H562 0.984 . S
N550 H563 0.985 . S
N551 C553 1.356 . S
N551 H556 0.984 . S
N551 H557 0.985 . S
C552 C546 1.379 1_556 S
C552 C549 1.363 1_565 S
C552 N550 1.356 . S
C553 C547 1.363 1_545 S
C553 C548 1.379 1_554 S
C553 N551 1.356 . S
N554 C546 1.356 . S
N554 H560 0.984 . S
N554 H561 0.984 . S
N555 C548 1.356 . S
N555 H558 0.984 . S
N555 H559 0.985 . S
H556 N551 0.984 . S
H557 N551 0.985 . S
H558 N555 0.984 . S
H559 N555 0.985 . S
H560 N554 0.984 . S
H561 N554 0.984 . S
H562 N550 0.984 . S
H563 N550 0.985 . S
C564 C565 1.363 . S
C564 C570 1.379 1_655 S
C564 N572 1.356 . S
C565 C564 1.363 . S
C565 C571 1.363 1_556 S
C566 C567 1.363 . S
C566 C571 1.379 1_455 S
C566 N573 1.356 . S
C567 C566 1.363 . S
C567 C570 1.363 1_554 S
N568 C570 1.356 . S
N568 H580 0.984 . S
N568 H581 0.999 . S
N569 C571 1.356 . S
N569 H574 0.999 . S
N569 H575 0.985 . S
C570 C564 1.379 1_455 S
C570 C567 1.363 1_556 S
C570 N568 1.356 . S
C571 C565 1.363 1_554 S
C571 C566 1.379 1_655 S
C571 N569 1.356 . S
N572 C564 1.356 . S
N572 H578 0.984 . S
N572 H579 0.984 . S
N573 C566 1.356 . S
N573 H576 0.984 . S
N573 H577 0.985 . S
H574 N569 0.999 . S
H575 N569 0.985 . S
H576 N573 0.984 . S
H577 N573 0.985 . S
H578 N572 0.984 . S
H579 N572 0.984 . S
H580 N568 0.984 . S
H581 N568 0.999 . S
C582 C583 1.363 . S
C582 C588 1.379 1_455 S
C582 N590 1.356 . S
C583 C582 1.363 . S
C583 C589 1.363 1_556 S
C584 C585 1.363 . S
C584 C589 1.379 1_655 S
C584 N591 1.356 . S
C585 C584 1.363 . S
C585 C588 1.363 1_554 S
N586 C588 1.356 . S
N586 H598 0.984 . S
N586 H599 0.999 . S
N587 C589 1.356 . S
N587 H592 0.999 . S
N587 H593 0.985 . S
C588 C582 1.379 1_655 S
C588 C585 1.363 1_556 S
C588 N586 1.356 . S
C589 C583 1.363 1_554 S
C589 C584 1.379 1_455 S
C589 N587 1.356 . S
N590 C582 1.356 . S
N590 H596 0.984 . S
N590 H597 0.984 . S
N591 C584 1.356 . S
N591 H594 0.984 . S
N591 H595 0.985 . S
H592 N587 0.999 . S
H593 N587 0.985 . S
H594 N591 0.984 . S
H595 N591 0.985 . S
H596 N590 0.984 . S
H597 N590 0.984 . S
H598 N586 0.984 . S
H599 N586 0.999 . S
C169 C48 1.198 . S
C171 C6 1.198 . S
C187 C34 1.198 . S
C189 C20 1.198 . S
C205 C76 1.198 . S
C207 C62 1.198 . S
C223 C90 1.198 . S
C225 C104 1.198 . S
C241 C132 1.198 . S
C243 C118 1.198 . S
C259 C146 1.198 . S
C261 C160 1.198 . S
C277 C9 1.314 . S
C279 C105 1.164 . S
C295 C91 1.164 . S
C297 C23 1.314 . S
C313 C77 1.164 . S
C315 C37 1.314 . S
C331 C63 1.164 . S
C333 C51 1.314 . S
C349 C65 1.314 . S
C351 C161 1.164 . S
C367 C119 1.164 . S
C369 C79 1.314 . S
C385 C147 1.164 . S
C387 C93 1.314 . S
C403 C107 1.314 . S
C405 C133 1.164 . S
C421 C35 1.164 . S
C423 C121 1.314 . S
C439 C7 1.164 . S
C441 C135 1.314 . S
C457 C149 1.314 . S
C459 C21 1.164 . S
C475 C49 1.164 . S
C477 C163 1.314 . S
C493 C8 1.456 . S
C495 C22 1.456 . S
C511 C50 1.456 . S
C513 C36 1.456 . S
C529 C92 1.456 . S
C531 C64 1.456 . S
C547 C78 1.456 . S
C549 C106 1.456 . S
C565 C148 1.456 . S
C567 C120 1.456 . S
C583 C134 1.456 . S
C585 C162 1.456 . S
