# Generated by pormake.
# Topology uob, (4)-cn, num edge types: 1
# Building blocks:
#     Node 0, Type 0, BuildingBlock: KOZSID_clean_sbu_0, # of connection points: 4
#     Node 1, Type 0, BuildingBlock: KOZSID_clean_sbu_0, # of connection points: 4
#     Node 2, Type 0, BuildingBlock: KOZSID_clean_sbu_0, # of connection points: 4
#     Node 3, Type 0, BuildingBlock: KOZSID_clean_sbu_0, # of connection points: 4
#     Node 4, Type 0, BuildingBlock: KOZSID_clean_sbu_0, # of connection points: 4
#     Node 5, Type 0, BuildingBlock: KOZSID_clean_sbu_0, # of connection points: 4
#     Node 6, Type 0, BuildingBlock: KOZSID_clean_sbu_0, # of connection points: 4
#     Node 7, Type 0, BuildingBlock: KOZSID_clean_sbu_0, # of connection points: 4
#     Node 8, Type 0, BuildingBlock: KOZSID_clean_sbu_0, # of connection points: 4
#     Node 9, Type 0, BuildingBlock: KOZSID_clean_sbu_0, # of connection points: 4
#     Node 10, Type 0, BuildingBlock: KOZSID_clean_sbu_0, # of connection points: 4
#     Node 11, Type 0, BuildingBlock: KOZSID_clean_sbu_0, # of connection points: 4
#     Node 12, Type 0, BuildingBlock: KOZSID_clean_sbu_0, # of connection points: 4
#     Node 13, Type 0, BuildingBlock: KOZSID_clean_sbu_0, # of connection points: 4
#     Node 14, Type 0, BuildingBlock: KOZSID_clean_sbu_0, # of connection points: 4
#     Node 15, Type 0, BuildingBlock: KOZSID_clean_sbu_0, # of connection points: 4
#     Edge 16, Type (0, 0), BuildingBlock: EZIPEK_clean_linker_0, # of connection points: 2
#     Edge 17, Type (0, 0), BuildingBlock: EZIPEK_clean_linker_0, # of connection points: 2
#     Edge 18, Type (0, 0), BuildingBlock: EZIPEK_clean_linker_0, # of connection points: 2
#     Edge 19, Type (0, 0), BuildingBlock: EZIPEK_clean_linker_0, # of connection points: 2
#     Edge 20, Type (0, 0), BuildingBlock: EZIPEK_clean_linker_0, # of connection points: 2
#     Edge 21, Type (0, 0), BuildingBlock: EZIPEK_clean_linker_0, # of connection points: 2
#     Edge 22, Type (0, 0), BuildingBlock: EZIPEK_clean_linker_0, # of connection points: 2
#     Edge 23, Type (0, 0), BuildingBlock: EZIPEK_clean_linker_0, # of connection points: 2
#     Edge 24, Type (0, 0), BuildingBlock: EZIPEK_clean_linker_0, # of connection points: 2
#     Edge 25, Type (0, 0), BuildingBlock: EZIPEK_clean_linker_0, # of connection points: 2
#     Edge 26, Type (0, 0), BuildingBlock: EZIPEK_clean_linker_0, # of connection points: 2
#     Edge 27, Type (0, 0), BuildingBlock: EZIPEK_clean_linker_0, # of connection points: 2
#     Edge 28, Type (0, 0), BuildingBlock: EZIPEK_clean_linker_0, # of connection points: 2
#     Edge 29, Type (0, 0), BuildingBlock: EZIPEK_clean_linker_0, # of connection points: 2
#     Edge 30, Type (0, 0), BuildingBlock: EZIPEK_clean_linker_0, # of connection points: 2
#     Edge 31, Type (0, 0), BuildingBlock: EZIPEK_clean_linker_0, # of connection points: 2
#     Edge 32, Type (0, 0), BuildingBlock: EZIPEK_clean_linker_0, # of connection points: 2
#     Edge 33, Type (0, 0), BuildingBlock: EZIPEK_clean_linker_0, # of connection points: 2
#     Edge 34, Type (0, 0), BuildingBlock: EZIPEK_clean_linker_0, # of connection points: 2
#     Edge 35, Type (0, 0), BuildingBlock: EZIPEK_clean_linker_0, # of connection points: 2
#     Edge 36, Type (0, 0), BuildingBlock: EZIPEK_clean_linker_0, # of connection points: 2
#     Edge 37, Type (0, 0), BuildingBlock: EZIPEK_clean_linker_0, # of connection points: 2
#     Edge 38, Type (0, 0), BuildingBlock: EZIPEK_clean_linker_0, # of connection points: 2
#     Edge 39, Type (0, 0), BuildingBlock: EZIPEK_clean_linker_0, # of connection points: 2
#     Edge 40, Type (0, 0), BuildingBlock: EZIPEK_clean_linker_0, # of connection points: 2
#     Edge 41, Type (0, 0), BuildingBlock: EZIPEK_clean_linker_0, # of connection points: 2
#     Edge 42, Type (0, 0), BuildingBlock: EZIPEK_clean_linker_0, # of connection points: 2
#     Edge 43, Type (0, 0), BuildingBlock: EZIPEK_clean_linker_0, # of connection points: 2
#     Edge 44, Type (0, 0), BuildingBlock: EZIPEK_clean_linker_0, # of connection points: 2
#     Edge 45, Type (0, 0), BuildingBlock: EZIPEK_clean_linker_0, # of connection points: 2
#     Edge 46, Type (0, 0), BuildingBlock: EZIPEK_clean_linker_0, # of connection points: 2
#     Edge 47, Type (0, 0), BuildingBlock: EZIPEK_clean_linker_0, # of connection points: 2
# Relax obj value: 0.102
# Max RMSD: 0.287
# Mean RMSD: 0.244
data_MOF--net-uob--node1-KOZSID_clean_sbu_0--edge1-EZIPEK_clean_linker_0
_symmetry_space_group_name_H-M    P1
_symmetry_Int_Tables_number       1
_symmetry_cell_setting            triclinic
loop_
_symmetry_equiv_pos_as_xyz
'x, y, z'
_cell_length_a     41.860989
_cell_length_b     55.387665
_cell_length_c     26.543011
_cell_angle_alpha  89.976035
_cell_angle_beta   89.997777
_cell_angle_gamma 90.068572
loop_
_atom_site_label
_atom_site_type_symbol
_atom_site_fract_x
_atom_site_fract_y
_atom_site_fract_z
_atom_type_partial_charge
C0 C 0.2074 0.08034 0.35748 0.0
C1 C 0.23318 0.06456 0.3577 0.0
C2 C 0.22369 0.04428 0.33234 0.0
C3 C 0.19261 0.0485 0.3186 0.0
N4 N 0.18191 0.07025 0.33352 0.0
Co5 Co 0.13745 0.08237 0.32604 0.0
N6 N 0.12043 0.04913 0.31637 0.0
C7 C 0.13785 0.02971 0.30306 0.0
C8 C 0.11998 1.00911 0.2979 0.0
C9 C 0.08927 1.01598 0.30796 0.0
C10 C 0.09013 0.04057 0.31853 0.0
N11 N 0.09314 0.09436 0.31983 0.0
C12 C 0.06487 0.08213 0.32173 0.0
C13 C 0.03953 0.09786 0.31458 0.0
C14 C 0.05255 0.1205 0.30747 0.0
C15 C 0.0851 0.11744 0.31069 0.0
N16 N 0.15625 0.11517 0.33411 0.0
C17 C 0.14172 0.13589 0.32118 0.0
C18 C 0.15979 0.15581 0.3338 0.0
C19 C 0.18712 0.14693 0.35625 0.0
C20 C 0.1843 0.12202 0.35639 0.0
N21 N 0.14169 0.08577 0.25112 0.0
C22 C 0.13338 0.102 0.14998 0.0
C23 C 0.16053 0.10856 0.17844 0.0
C24 C 0.16431 0.1002 0.22872 0.0
C25 C 0.11209 0.08576 0.17229 0.0
C26 C 0.11686 0.07773 0.22178 0.0
N27 N 0.13001 0.08039 0.40033 0.0
C28 C 0.11531 0.10224 0.47574 0.0
C29 C 0.10363 0.08146 0.49899 0.0
C30 C 0.10718 0.05956 0.47263 0.0
C31 C 0.122 0.0593 0.42464 0.0
C32 C 0.12613 0.10156 0.42644 0.0
H33 H 0.12521 0.04204 0.40668 0.0
H34 H 0.12951 0.11893 0.40995 0.0
H35 H 0.18464 0.10644 0.25017 0.0
H36 H 0.0988 0.06623 0.2371 0.0
C37 C 0.17114 0.0307 0.30323 0.0
C38 C 0.20832 0.10515 0.37786 0.0
C39 C 0.06154 0.05549 0.32524 0.0
C40 C 0.10871 0.13571 0.31016 0.0
H41 H 0.25633 0.06703 0.37494 0.0
H42 H 0.23715 0.02776 0.3277 0.0
H43 H 0.12835 0.9911 0.28926 0.0
H44 H 0.0686 1.00425 0.30672 0.0
H45 H 0.01439 0.09333 0.31349 0.0
H46 H 0.03973 0.13719 0.30132 0.0
H47 H 0.15296 0.17458 0.33054 0.0
H48 H 0.20644 0.15751 0.37201 0.0
H49 H 0.17814 0.12071 0.16256 0.0
H50 H 0.09106 0.07979 0.15198 0.0
H51 H 0.11371 0.11966 0.49419 0.0
H52 H 0.09811 0.04285 0.48826 0.0
C53 C 0.8866 0.63392 0.49268 0.0
C54 C 0.85558 0.62767 0.47909 0.0
C55 C 0.83771 0.62775 0.52225 0.0
C56 C 0.85872 0.63322 0.56016 0.0
N57 N 0.88878 0.63656 0.54356 0.0
Co58 Co 0.92737 0.63963 0.58669 0.0
N59 N 0.90504 0.62515 0.6451 0.0
C60 C 0.87315 0.62519 0.65175 0.0
C61 C 0.86393 0.61745 0.69853 0.0
C62 C 0.89179 0.61239 0.72313 0.0
C63 C 0.9166 0.61698 0.68943 0.0
N64 N 0.96617 0.64175 0.62897 0.0
C65 C 0.97388 0.6291 0.6713 0.0
C66 C 1.00528 0.63379 0.6849 0.0
C67 C 0.01683 0.65061 0.65113 0.0
C68 C 0.99217 0.65502 0.61811 0.0
N69 N 0.94798 0.6548 0.52728 0.0
C70 C 0.97451 0.66847 0.52885 0.0
C71 C 0.98382 0.67586 0.48151 0.0
C72 C 0.96185 0.66608 0.44855 0.0
C73 C 0.94031 0.65303 0.47738 0.0
N74 N 0.91414 0.67242 0.61221 0.0
C75 C 0.90453 0.71995 0.65239 0.0
C76 C 0.91435 0.70072 0.68275 0.0
C77 C 0.91886 0.67753 0.6624 0.0
C78 C 0.89875 0.71461 0.60104 0.0
C79 C 0.90371 0.69085 0.58175 0.0
N80 N 0.94325 0.60739 0.56434 0.0
C81 C 0.98971 0.58425 0.53849 0.0
C82 C 0.97564 0.56268 0.55384 0.0
C83 C 0.94398 0.56366 0.57181 0.0
C84 C 0.92809 0.58617 0.57629 0.0
C85 C 0.97348 0.60611 0.54433 0.0
H86 H 0.90421 0.58647 0.5917 0.0
H87 H 0.98679 0.62206 0.53524 0.0
H88 H 0.92732 0.66391 0.68787 0.0
H89 H 0.89988 0.68754 0.54207 0.0
C90 C 0.8527 0.62943 0.61124 0.0
C91 C 0.91279 0.63914 0.4566 0.0
C92 C 0.95067 0.61505 0.7021 0.0
C93 C 0.994 0.66799 0.5723 0.0
H94 H 0.84645 0.62309 0.44229 0.0
H95 H 0.81288 0.62257 0.52592 0.0
H96 H 0.83987 0.61537 0.71283 0.0
H97 H 0.89345 0.60654 0.76189 0.0
H98 H 0.01813 0.6264 0.71673 0.0
H99 H 0.04073 0.65805 0.64987 0.0
H100 H 1.00533 0.68562 0.47162 0.0
H101 H 0.96218 0.66772 0.40792 0.0
H102 H 0.91914 0.70368 0.72238 0.0
H103 H 0.89107 0.72881 0.57577 0.0
H104 H 0.01399 0.5844 0.52435 0.0
H105 H 0.93204 0.5473 0.58388 0.0
C106 C 0.30419 0.45653 0.8432 0.0
C107 C 0.27643 0.47016 0.84728 0.0
C108 C 0.28271 0.49205 0.82575 0.0
C109 C 0.31388 0.4908 0.8103 0.0
N110 N 0.32779 0.46943 0.82064 0.0
Co111 Co 0.37302 0.46085 0.80552 0.0
N112 N 0.38544 0.49546 0.80087 0.0
C113 C 0.36529 0.51415 0.79468 0.0
C114 C 0.3804 0.53609 0.79266 0.0
C115 C 0.41218 0.53095 0.79721 0.0
C116 C 0.41467 0.506 0.80145 0.0
N117 N 0.4178 0.45275 0.78758 0.0
C118 C 0.44442 0.46691 0.7866 0.0
C119 C 0.47041 0.45382 0.76934 0.0
C120 C 0.45945 0.43084 0.75902 0.0
C121 C 0.42735 0.43108 0.77028 0.0
N122 N 0.35966 0.42665 0.81318 0.0
C123 C 0.37618 0.40754 0.79619 0.0
C124 C 0.36189 0.38603 0.80937 0.0
C125 C 0.33482 0.39215 0.83627 0.0
C126 C 0.33391 0.41713 0.83819 0.0
N127 N 0.36417 0.45966 0.73172 0.0
C128 C 0.3749 0.44206 0.63275 0.0
C129 C 0.34952 0.43323 0.66246 0.0
C130 C 0.34444 0.44236 0.71165 0.0
C131 C 0.39196 0.46183 0.6517 0.0
C132 C 0.38559 0.47075 0.70008 0.0
N133 N 0.38459 0.46002 0.87786 0.0
C134 C 0.41686 0.44028 0.94111 0.0
C135 C 0.39995 0.45133 0.97956 0.0
C136 C 0.37623 0.46829 0.96644 0.0
C137 C 0.36935 0.47278 0.91498 0.0
C138 C 0.40792 0.44391 0.89159 0.0
H139 H 0.35102 0.4857 0.90542 0.0
H140 H 0.41931 0.43223 0.86522 0.0
H141 H 0.32629 0.43399 0.73475 0.0
H142 H 0.40087 0.48491 0.71348 0.0
C143 C 0.33239 0.51074 0.79728 0.0
C144 C 0.30712 0.4314 0.86033 0.0
C145 C 0.44511 0.49302 0.79879 0.0
C146 C 0.40689 0.41081 0.77483 0.0
H147 H 0.25406 0.46527 0.86482 0.0
H148 H 0.26705 0.50758 0.82468 0.0
H149 H 0.36958 0.55376 0.78923 0.0
H150 H 0.43134 0.54407 0.79596 0.0
H151 H 0.49464 0.46026 0.76458 0.0
H152 H 0.47352 0.41557 0.74666 0.0
H153 H 0.37062 0.368 0.80188 0.0
H154 H 0.3176 0.37975 0.85228 0.0
H155 H 0.33487 0.41849 0.64888 0.0
H156 H 0.41124 0.46975 0.63004 0.0
H157 H 0.43526 0.42711 0.94953 0.0
H158 H 0.36272 0.47744 0.99549 0.0
C159 C 0.63773 0.89763 0.97882 0.0
C160 C 0.66874 0.89894 0.96065 0.0
C161 C 0.68828 0.90009 1.00199 0.0
C162 C 0.66813 0.89936 0.04283 0.0
N163 N 0.63717 0.8977 0.02977 0.0
Co164 Co 0.60037 0.89573 0.07662 0.0
N165 N 0.62546 0.91131 0.1309 0.0
C166 C 0.65759 0.91301 0.13269 0.0
C167 C 0.66849 0.92503 0.17434 0.0
C168 C 0.64164 0.93094 0.20086 0.0
C169 C 0.61563 0.9219 0.17399 0.0
N170 N 0.56389 0.89368 0.12339 0.0
C171 C 0.55907 0.90508 0.16807 0.0
C172 C 0.52977 0.89846 0.18825 0.0
C173 C 0.51634 0.88209 0.15533 0.0
C174 C 0.53801 0.87963 0.11672 0.0
N175 N 0.57668 0.8806 1.01996 0.0
C176 C 0.54972 0.86756 0.02425 0.0
C177 C 0.53695 0.86203 0.97777 0.0
C178 C 0.55715 0.87233 0.9426 0.0
C179 C 0.58133 0.88358 0.96937 0.0
N180 N 0.61418 0.8629 0.10181 0.0
C181 C 0.61777 0.81538 0.14479 0.0
C182 C 0.61717 0.81906 0.09213 0.0
C183 C 0.61572 0.84281 0.07149 0.0
C184 C 0.61832 0.83613 0.17478 0.0
C185 C 0.61654 0.85929 0.15297 0.0
N186 N 0.58346 0.92791 0.05503 0.0
C187 C 0.5356 0.95078 0.03462 0.0
C188 C 0.55042 0.97257 0.04629 0.0
C189 C 0.58299 0.97179 0.05982 0.0
C190 C 0.59918 0.94932 0.06336 0.0
C191 C 0.55208 0.92901 0.03984 0.0
H192 H 0.62393 0.94926 0.07485 0.0
H193 H 0.53812 0.91305 0.03435 0.0
H194 H 0.6145 0.84476 0.03104 0.0
H195 H 0.61538 0.8742 0.17856 0.0
C196 C 0.67642 0.90606 0.09174 0.0
C197 C 0.60941 0.89604 0.94683 0.0
C198 C 0.58316 0.92001 0.19472 0.0
C199 C 0.53319 0.86728 0.07068 0.0
H200 H 0.67631 0.89944 0.92167 0.0
H201 H 0.7139 0.90275 1.00212 0.0
H202 H 0.69297 0.92938 0.18389 0.0
H203 H 0.64152 0.94007 0.23687 0.0
H204 H 0.51961 0.9044 0.22363 0.0
H205 H 0.4932 0.8735 0.15867 0.0
H206 H 0.51437 0.85321 0.97026 0.0
H207 H 0.55417 0.87193 0.90212 0.0
H208 H 0.617 0.80366 0.06703 0.0
H209 H 0.61889 0.83448 0.21544 0.0
H210 H 0.51058 0.95042 0.02414 0.0
H211 H 0.59557 0.98832 0.06886 0.0
C212 C 0.20751 0.45431 0.02233 0.0
C213 C 0.23662 0.46648 1.02043 0.0
C214 C 0.2331 0.4872 0.04749 0.0
C215 C 0.20207 0.487 0.0636 0.0
N216 N 0.18554 0.46735 0.04856 0.0
Co217 Co 0.13942 0.46107 0.06355 0.0
N218 N 0.13174 0.49568 0.08004 0.0
C219 C 0.15422 0.51252 0.08896 0.0
C220 C 0.14194 0.53499 0.09862 0.0
C221 C 0.10954 0.53219 0.09588 0.0
C222 C 0.104 0.50804 0.08492 0.0
N223 N 0.09445 0.45488 0.08371 0.0
C224 C 0.07016 0.47069 0.09261 0.0
C225 C 0.0425 0.45841 0.10556 0.0
C226 C 0.04982 0.43415 0.10429 0.0
C227 C 0.08152 0.4329 0.09068 0.0
N228 N 0.14752 0.42716 0.04187 0.0
C229 C 0.12741 0.40855 0.04922 0.0
C230 C 0.13817 0.38757 0.02727 0.0
C231 C 0.16673 0.39344 1.00445 0.0
C232 C 0.172 0.41774 1.01364 0.0
N233 N 0.14986 0.45326 0.13578 0.0
C234 C 0.13861 0.43397 0.23434 0.0
C235 C 0.1524 0.42007 0.19565 0.0
C236 C 0.15976 0.43042 0.14848 0.0
C237 C 0.13387 0.45855 0.22344 0.0
C238 C 0.13847 0.46753 0.17425 0.0
N239 N 0.12608 0.46697 0.99214 0.0
C240 C 0.08771 0.45603 0.92762 0.0
C241 C 0.11069 0.45821 0.8906 0.0
C242 C 0.14041 0.46816 0.90365 0.0
C243 C 0.14733 0.47303 0.95474 0.0
C244 C 0.09587 0.45997 0.97744 0.0
H245 H 0.17044 0.48043 0.96347 0.0
H246 H 0.07705 0.45557 1.00266 0.0
H247 H 0.17159 0.41903 0.1215 0.0
H248 H 0.13066 0.48571 0.16772 0.0
C249 C 0.18637 0.50713 0.08274 0.0
C250 C 0.2013 0.43099 0.99731 0.0
C251 C 0.07227 0.49707 0.08492 0.0
C252 C 0.09784 0.41221 0.07353 0.0
H253 H 0.25807 0.46173 1.00025 0.0
H254 H 0.25046 0.50157 0.05167 0.0
H255 H 0.15497 0.55153 0.10585 0.0
H256 H 0.092 0.54619 0.10243 0.0
H257 H 0.01925 0.46614 0.11309 0.0
H258 H 0.03339 0.41925 0.10934 0.0
H259 H 0.12637 0.37018 0.02688 0.0
H260 H 0.18201 0.38129 0.98355 0.0
H261 H 0.15724 0.40107 0.20135 0.0
H262 H 0.12447 0.47055 0.25201 0.0
H263 H 0.06416 0.44905 0.91866 0.0
H264 H 0.15856 0.47097 0.87518 0.0
C265 C 0.62532 0.63388 0.40737 0.0
C266 C 0.65636 0.6302 0.42405 0.0
C267 C 0.6753 0.62939 0.38197 0.0
C268 C 0.65488 0.63246 0.342 0.0
N269 N 0.62428 0.63524 0.35628 0.0
Co270 Co 0.58712 0.63897 0.31042 0.0
N271 N 0.61067 0.62375 0.25403 0.0
C272 C 0.64272 0.62226 0.25038 0.0
C273 C 0.65281 0.61244 0.20579 0.0
C274 C 0.62545 0.60771 0.17944 0.0
C275 C 0.59998 0.61484 0.20973 0.0
N276 N 0.55002 0.64234 0.26507 0.0
C277 C 0.54356 0.63088 0.22088 0.0
C278 C 0.51382 0.6378 0.20296 0.0
C279 C 0.50192 0.65452 0.23657 0.0
C280 C 0.52481 0.6568 0.27347 0.0
N281 N 0.56512 0.65417 0.36854 0.0
C282 C 0.53912 0.66829 0.36544 0.0
C283 C 0.52798 0.67473 0.41242 0.0
C284 C 0.54822 0.66387 0.4467 0.0
C285 C 0.57063 0.65122 0.41894 0.0
N286 N 0.60229 0.67162 0.28617 0.0
C287 C 0.61117 0.71931 0.24586 0.0
C288 C 0.61248 0.71471 0.29826 0.0
C289 C 0.60825 0.69084 0.31754 0.0
C290 C 0.60658 0.69927 0.21468 0.0
C291 C 0.60208 0.67608 0.23514 0.0
N292 N 0.56915 0.60705 0.33102 0.0
C293 C 0.52068 0.58494 0.35145 0.0
C294 C 0.53443 0.56309 0.33731 0.0
C295 C 0.56684 0.56338 0.32292 0.0
C296 C 0.5839 0.58551 0.32063 0.0
C297 C 0.53802 0.60642 0.34749 0.0
H298 H 0.60844 0.58526 0.3081 0.0
H299 H 0.52497 0.62264 0.35499 0.0
H300 H 0.60865 0.68814 0.35787 0.0
H301 H 0.5968 0.66197 0.20877 0.0
C302 C 0.66221 0.62731 0.29183 0.0
C303 C 0.59769 0.63733 0.44086 0.0
C304 C 0.56658 0.61555 0.19279 0.0
C305 C 0.52165 0.66914 0.31988 0.0
H306 H 0.66453 0.62808 0.46244 0.0
H307 H 0.70062 0.6255 0.38062 0.0
H308 H 0.67711 0.60882 0.19408 0.0
H309 H 0.6246 0.6005 0.14159 0.0
H310 H 0.50235 0.63184 0.1686 0.0
H311 H 0.47891 0.66336 0.23495 0.0
H312 H 0.5064 0.68467 0.42095 0.0
H313 H 0.54638 0.66475 0.48733 0.0
H314 H 0.61606 0.72952 0.32425 0.0
H315 H 0.60526 0.70164 0.17422 0.0
H316 H 0.49586 0.58561 0.36296 0.0
H317 H 0.5786 0.54676 0.31214 0.0
C318 C 0.31436 0.07845 0.53113 0.0
C319 C 0.28688 0.06446 0.52776 0.0
C320 C 0.29391 0.04265 0.54923 0.0
C321 C 0.32518 0.04444 0.56425 0.0
N322 N 0.33832 0.06606 0.55372 0.0
Co323 Co 0.38298 0.07584 0.56916 0.0
N324 N 0.39693 0.04164 0.57288 0.0
C325 C 0.37765 0.0224 0.57923 0.0
C326 C 0.39383 1.0009 0.58073 0.0
C327 C 0.42534 1.00697 0.57561 0.0
C328 C 0.42663 0.03199 0.57148 0.0
N329 N 0.4273 0.08523 0.58677 0.0
C330 C 0.45459 0.07192 0.58653 0.0
C331 C 0.48003 0.08566 0.60385 0.0
C332 C 0.46795 0.10816 0.61554 0.0
C333 C 0.4358 0.107 0.60493 0.0
N334 N 0.36803 0.10967 0.56253 0.0
C335 C 0.38333 0.12913 0.5807 0.0
C336 C 0.36821 0.15028 0.56737 0.0
C337 C 0.3419 0.14349 0.53918 0.0
C338 C 0.34228 0.11852 0.53669 0.0
N339 N 0.37416 0.07629 0.64293 0.0
C340 C 0.38428 0.09325 0.74244 0.0
C341 C 0.35845 0.10165 0.71323 0.0
C342 C 0.35369 0.09286 0.6637 0.0
C343 C 0.40216 0.07414 0.72267 0.0
C344 C 0.39609 0.0655 0.67403 0.0
N345 N 0.39453 0.07727 0.49726 0.0
C346 C 0.42508 0.09879 0.43465 0.0
C347 C 0.41176 0.0851 0.39634 0.0
C348 C 0.39078 0.06614 0.40944 0.0
C349 C 0.38286 0.06222 0.4607 0.0
C350 C 0.41523 0.09533 0.4837 0.0
H351 H 0.36665 0.04778 0.47059 0.0
H352 H 0.42393 0.10829 0.51011 0.0
H353 H 0.33516 0.10094 0.64096 0.0
H354 H 0.41192 0.05187 0.66005 0.0
C355 C 0.34452 0.0249 0.5771 0.0
C356 C 0.31669 0.10346 0.51337 0.0
C357 C 0.45643 0.04591 0.57361 0.0
C358 C 0.41423 0.12667 0.6019 0.0
H359 H 0.26425 0.06924 0.51085 0.0
H360 H 0.27865 0.02688 0.55072 0.0
H361 H 0.38389 0.98293 0.58417 0.0
H362 H 0.44514 0.99443 0.57643 0.0
H363 H 0.50461 0.07996 0.6079 0.0
H364 H 0.48132 0.12372 0.6284 0.0
H365 H 0.37601 0.16851 0.57533 0.0
H366 H 0.32438 0.15546 0.52265 0.0
H367 H 0.34319 0.11587 0.72745 0.0
H368 H 0.42185 0.06656 0.74391 0.0
H369 H 0.44134 0.1135 0.4262 0.0
H370 H 0.3801 0.05499 0.38047 0.0
C371 C 0.88085 0.90057 0.91565 0.0
C372 C 0.85023 0.90263 0.93514 0.0
C373 C 0.82998 0.90381 0.89467 0.0
C374 C 0.84933 0.90236 0.85299 0.0
N375 N 0.88045 0.90018 0.8647 0.0
Co376 Co 0.91624 0.89697 0.81622 0.0
N377 N 0.89068 0.9124 0.76233 0.0
C378 C 0.85865 0.91499 0.76208 0.0
C379 C 0.84753 0.92686 0.72036 0.0
C380 C 0.87412 0.93174 0.69221 0.0
C381 C 0.90016 0.92227 0.71826 0.0
N382 N 0.95156 0.89332 0.76762 0.0
C383 C 0.95559 0.9035 0.72151 0.0
C384 C 0.98353 0.8952 0.69942 0.0
C385 C 0.99704 0.87915 0.73286 0.0
C386 C 0.97669 0.87846 0.77352 0.0
N387 N 0.94088 0.88256 0.87265 0.0
C388 C 0.96747 0.86918 0.86796 0.0
C389 C 0.98105 0.86415 0.91407 0.0
C390 C 0.96176 0.87512 0.94952 0.0
C391 C 0.93728 0.88623 0.92323 0.0
N392 N 0.90097 0.86397 0.79394 0.0
C393 C 0.89724 0.81618 0.75231 0.0
C394 C 0.90011 0.8201 0.8047 0.0
C395 C 0.90162 0.84398 0.82469 0.0
C396 C 0.89405 0.83677 0.72224 0.0
C397 C 0.89581 0.86004 0.7434 0.0
N398 N 0.93425 0.92914 0.83483 0.0
C399 C 0.98284 0.9524 0.84721 0.0
C400 C 0.96655 0.97421 0.84225 0.0
C401 C 0.93307 0.97303 0.83584 0.0
C402 C 0.9174 0.95032 0.83201 0.0
C403 C 0.96654 0.93044 0.84364 0.0
H404 H 0.89195 0.94992 0.82537 0.0
H405 H 0.98088 0.91447 0.84559 0.0
H406 H 0.90474 0.84608 0.86484 0.0
H407 H 0.89469 0.87478 0.71746 0.0
C408 C 0.84036 0.90886 0.80423 0.0
C409 C 0.90969 0.89894 0.94647 0.0
C410 C 0.93203 0.9192 0.696 0.0
C411 C 0.9825 0.86721 0.82047 0.0
H412 H 0.84338 0.90366 0.97441 0.0
H413 H 0.80448 0.907 0.8956 0.0
H414 H 0.82311 0.93176 0.71177 0.0
H415 H 0.87405 0.94044 0.65571 0.0
H416 H 0.99284 0.89999 0.66271 0.0
H417 H 0.01944 0.86964 0.7285 0.0
H418 H 1.00344 0.85498 0.92105 0.0
H419 H 0.9654 0.87511 0.98988 0.0
H420 H 0.9022 0.80483 0.82995 0.0
H421 H 0.8914 0.83494 0.68182 0.0
H422 H 0.00852 0.95227 0.85237 0.0
H423 H 0.91932 0.98948 0.83225 0.0
C424 C 0.7029 0.58482 0.8488 0.0
C425 C 0.72912 0.56967 0.84477 0.0
C426 C 0.71814 0.54848 0.82549 0.0
C427 C 0.68601 0.5519 0.81888 0.0
N428 N 0.67559 0.57411 0.83164 0.0
Co429 Co 0.62981 0.58562 0.82968 0.0
N430 N 0.6139 0.5531 0.80685 0.0
C431 C 0.63196 0.53332 0.79865 0.0
C432 C 0.61516 0.5136 0.78246 0.0
C433 C 0.58427 0.52109 0.78047 0.0
C434 C 0.58403 0.54517 0.79533 0.0
N435 N 0.5843 0.5966 0.82921 0.0
C436 C 0.55677 0.58443 0.81807 0.0
C437 C 0.53023 0.59888 0.826 0.0
C438 C 0.54133 0.62056 0.84381 0.0
C439 C 0.57397 0.61826 0.84558 0.0
N440 N 0.64726 0.61814 0.85115 0.0
C441 C 0.62922 0.63741 0.86346 0.0
C442 C 0.64675 0.65646 0.88181 0.0
C443 C 0.67779 0.64857 0.88298 0.0
C444 C 0.67762 0.62506 0.86526 0.0
N445 N 0.63333 0.59579 0.75661 0.0
C446 C 0.62358 0.60867 0.65283 0.0
C447 C 0.61571 0.62435 0.69218 0.0
C448 C 0.62107 0.61783 0.74269 0.0
C449 C 0.63801 0.58663 0.66674 0.0
C450 C 0.64262 0.58057 0.71838 0.0
N451 N 0.62284 0.57677 0.90265 0.0
C452 C 0.621 0.59249 0.98801 0.0
C453 C 0.59393 0.579 0.99927 0.0
C454 C 0.58392 0.56197 0.96373 0.0
C455 C 0.59916 0.56076 0.91629 0.0
C456 C 0.63469 0.59122 0.94029 0.0
H457 H 0.5898 0.54786 0.89025 0.0
H458 H 0.65356 0.60354 0.9346 0.0
H459 H 0.61384 0.63073 0.77016 0.0
H460 H 0.65298 0.56331 0.72679 0.0
C461 C 0.66477 0.53397 0.80485 0.0
C462 C 0.70501 0.60845 0.87302 0.0
C463 C 0.55451 0.55869 0.80379 0.0
C464 C 0.59574 0.636 0.86142 0.0
H465 H 0.75347 0.57327 0.85623 0.0
H466 H 0.73174 0.53216 0.81898 0.0
H467 H 0.62429 0.49584 0.77349 0.0
H468 H 0.5642 0.50975 0.77053 0.0
H469 H 0.50542 0.59392 0.82091 0.0
H470 H 0.52722 0.63606 0.85474 0.0
H471 H 0.63779 0.67354 0.89567 0.0
H472 H 0.6979 0.65828 0.89876 0.0
H473 H 0.6049 0.64167 0.684 0.0
H474 H 0.64511 0.57391 0.63789 0.0
H475 H 0.63026 0.60547 1.01491 0.0
H476 H 0.56357 0.55049 0.97159 0.0
C477 C 0.3858 0.13363 0.96978 0.0
C478 C 0.35551 0.13134 0.94913 0.0
C479 C 0.33475 0.12953 0.98877 0.0
C480 C 0.35351 0.13088 0.03111 0.0
N481 N 0.38476 0.1337 1.02069 0.0
Co482 Co 0.41985 0.13726 0.07056 0.0
N483 N 0.39345 0.12189 0.12372 0.0
C484 C 0.3617 0.11767 0.12174 0.0
C485 C 0.35023 0.10568 0.1631 0.0
C486 C 0.37628 0.10222 0.19322 0.0
C487 C 0.40227 0.11264 0.16862 0.0
N488 N 0.45429 0.14153 0.12062 0.0
C489 C 0.45733 0.13196 0.1674 0.0
C490 C 0.48498 0.14028 0.19041 0.0
C491 C 0.49955 0.15561 0.15665 0.0
C492 C 0.48004 0.1559 0.11497 0.0
N493 N 0.44601 0.15075 1.01442 0.0
C494 C 0.47374 0.16287 1.0193 0.0
C495 C 0.48819 0.16709 0.97352 0.0
C496 C 0.46845 0.15675 0.93791 0.0
C497 C 0.44287 0.14688 0.96385 0.0
N498 N 0.404 0.1708 0.09101 0.0
C499 C 0.39741 0.21818 0.13634 0.0
C500 C 0.41339 0.2145 0.09018 0.0
C501 C 0.41471 0.19139 0.06718 0.0
C502 C 0.38267 0.19752 0.15667 0.0
C503 C 0.38729 0.17439 0.13523 0.0
N504 N 0.43795 0.10486 0.05386 0.0
C505 C 0.48623 0.08101 0.04426 0.0
C506 C 0.46916 0.05942 0.04587 0.0
C507 C 0.43557 0.06102 0.04969 0.0
C508 C 0.42044 0.0839 0.05379 0.0
C509 C 0.47047 0.10313 0.04811 0.0
H510 H 0.3948 0.08459 0.05794 0.0
H511 H 0.48537 0.11882 0.04837 0.0
H512 H 0.42546 0.19062 0.03053 0.0
H513 H 0.37785 0.15971 0.1568 0.0
C514 C 0.34397 0.12353 0.07899 0.0
C515 C 0.41504 0.13489 0.94 0.0
C516 C 0.4336 0.11618 0.19199 0.0
C517 C 0.48773 0.16567 0.06732 0.0
H518 H 0.34924 0.1303 0.90963 0.0
H519 H 0.30938 0.12585 0.98682 0.0
H520 H 0.32595 0.09988 0.17025 0.0
H521 H 0.3759 0.09362 0.22983 0.0
H522 H 0.49363 0.13572 0.22764 0.0
H523 H 0.52228 0.16467 0.16127 0.0
H524 H 0.51118 0.17546 0.96691 0.0
H525 H 0.47248 0.15634 0.89765 0.0
H526 H 0.42509 0.22946 0.07147 0.0
H527 H 0.36884 0.1989 0.19102 0.0
H528 H 0.51205 0.08081 0.04123 0.0
H529 H 0.42125 0.04474 0.0507 0.0
C530 C 0.81102 0.95415 0.35837 0.0
C531 C 0.7829 0.96741 0.36159 0.0
C532 C 0.7885 0.98901 0.33831 0.0
C533 C 0.81968 0.98801 0.32272 0.0
N534 N 0.83415 0.96706 0.33467 0.0
Co535 Co 0.87951 0.95897 0.31998 0.0
N536 N 0.89107 0.99359 0.31394 0.0
C537 C 0.87059 1.01189 0.30594 0.0
C538 C 0.88527 0.03402 0.30405 0.0
C539 C 0.91708 0.02934 0.3108 0.0
C540 C 0.92001 1.00447 0.31612 0.0
N541 N 0.92437 0.95137 0.30232 0.0
C542 C 0.95073 0.96575 0.3029 0.0
C543 C 0.97723 0.95293 0.28673 0.0
C544 C 0.96682 0.92983 0.27584 0.0
C545 C 0.93451 0.92975 0.28564 0.0
N546 N 0.86704 0.92473 0.32918 0.0
C547 C 0.88397 0.90571 0.31284 0.0
C548 C 0.87034 0.88415 0.32742 0.0
C549 C 0.8433 0.89019 0.35454 0.0
C550 C 0.84175 0.91516 0.35524 0.0
N551 N 0.87071 0.95696 0.24619 0.0
C552 C 0.88022 0.9396 0.14649 0.0
C553 C 0.85524 0.9307 0.17701 0.0
C554 C 0.85087 0.9396 0.2266 0.0
C555 C 0.89774 0.95915 0.16545 0.0
C556 C 0.89198 0.96795 0.21414 0.0
N557 N 0.89121 0.9591 0.39233 0.0
C558 C 0.92596 0.94207 0.45563 0.0
C559 C 0.90782 0.95198 0.49397 0.0
C560 C 0.8822 0.96726 0.48079 0.0
C561 C 0.8749 0.97121 0.42929 0.0
C562 C 0.9161 0.94444 0.40633 0.0
H563 H 0.85536 0.98305 0.41967 0.0
H564 H 0.92818 0.93283 0.38062 0.0
H565 H 0.83305 0.93116 0.25022 0.0
H566 H 0.90755 0.982 0.22738 0.0
C567 C 0.8377 1.00805 0.30829 0.0
C568 C 0.81484 0.92936 0.37734 0.0
C569 C 0.95071 0.99171 0.31651 0.0
C570 C 0.91457 0.90921 0.29111 0.0
H571 H 0.76072 0.96247 0.37969 0.0
H572 H 0.77241 1.00426 0.33623 0.0
H573 H 0.87413 0.05152 0.29979 0.0
H574 H 0.93596 0.0427 0.31062 0.0
H575 H 1.00149 0.95953 0.28354 0.0
H576 H 0.98143 0.91465 0.26467 0.0
H577 H 0.87952 0.86617 0.32079 0.0
H578 H 0.82656 0.87773 0.3716 0.0
H579 H 0.84029 0.91607 0.16364 0.0
H580 H 0.91684 0.96708 0.14339 0.0
H581 H 0.94577 0.93013 0.46413 0.0
H582 H 0.86764 0.97549 0.50977 0.0
C583 C 0.13952 0.40464 0.47183 0.0
C584 C 0.16937 0.41086 0.4527 0.0
C585 C 0.19 0.41145 0.4924 0.0
C586 C 0.17174 0.40632 0.53381 0.0
N587 N 0.14074 0.40229 0.52273 0.0
Co588 Co 0.10559 0.39763 0.57243 0.0
N589 N 0.13149 0.41265 0.62673 0.0
C590 C 0.16328 0.41656 0.62589 0.0
C591 C 0.17461 0.42771 0.66832 0.0
C592 C 0.14839 0.43089 0.6981 0.0
C593 C 0.12246 0.42122 0.67209 0.0
N594 N 0.07108 0.39256 0.62216 0.0
C595 C 0.06775 0.4016 0.66936 0.0
C596 C 0.04036 0.39261 0.692 0.0
C597 C 0.02626 0.37736 0.65759 0.0
C598 C 0.04579 0.37781 0.61593 0.0
N599 N 0.08002 0.38426 0.51564 0.0
C600 C 0.05291 0.37133 0.52023 0.0
C601 C 0.03966 0.36571 0.47426 0.0
C602 C 0.05954 0.37595 0.43876 0.0
C603 C 0.08392 0.38734 0.46492 0.0
N604 N 0.12158 0.36408 0.59204 0.0
C605 C 0.12377 0.31655 0.63749 0.0
C606 C 0.11132 0.32054 0.58876 0.0
C607 C 0.11223 0.34375 0.56599 0.0
C608 C 0.13792 0.33684 0.66024 0.0
C609 C 0.1355 0.36007 0.63844 0.0
N610 N 0.08715 0.42994 0.55658 0.0
C611 C 0.03878 0.45376 0.54854 0.0
C612 C 0.0559 0.47537 0.54998 0.0
C613 C 0.08952 0.47375 0.55252 0.0
C614 C 0.10467 0.45088 0.55603 0.0
C615 C 0.0546 0.4316 0.55146 0.0
H616 H 0.13034 0.45018 0.5597 0.0
H617 H 0.03985 0.41579 0.55147 0.0
H618 H 0.10389 0.34496 0.52779 0.0
H619 H 0.1439 0.37455 0.66163 0.0
C620 C 0.18094 0.41216 0.58261 0.0
C621 C 0.11092 0.40034 0.44061 0.0
C622 C 0.09081 0.41781 0.69424 0.0
C623 C 0.03874 0.36811 0.56801 0.0
H624 H 0.17587 0.41538 0.41451 0.0
H625 H 0.21471 0.41723 0.49162 0.0
H626 H 0.19888 0.43331 0.67623 0.0
H627 H 0.14862 0.43888 0.7353 0.0
H628 H 0.03156 0.39668 0.72939 0.0
H629 H 1.00386 0.3678 0.66186 0.0
H630 H 0.01748 0.35623 0.46732 0.0
H631 H 0.05632 0.37537 0.39832 0.0
H632 H 0.10051 0.30582 0.56805 0.0
H633 H 0.14925 0.33514 0.69676 0.0
H634 H 0.01293 0.45397 0.5462 0.0
H635 H 0.10387 0.49002 0.55323 0.0
C636 C 0.71075 0.95217 0.53412 0.0
C637 C 0.73776 0.96671 0.53067 0.0
C638 C 0.73037 0.98813 0.55342 0.0
C639 C 0.69931 0.9857 0.56901 0.0
N640 N 0.68662 0.96402 0.55763 0.0
Co641 Co 0.64203 0.95373 0.57216 0.0
N642 N 0.62755 0.98775 0.57705 0.0
C643 C 0.64646 1.00708 0.58473 0.0
C644 C 0.62995 0.02842 0.58668 0.0
C645 C 0.5986 0.02214 0.5804 0.0
C646 C 0.59775 0.99716 0.57516 0.0
N647 N 0.59777 0.94384 0.58874 0.0
C648 C 0.57026 0.95689 0.58805 0.0
C649 C 0.54488 0.94279 0.60428 0.0
C650 C 0.55721 0.92032 0.61566 0.0
C651 C 0.58946 0.92186 0.60599 0.0
N652 N 0.65754 0.92013 0.56441 0.0
C653 C 0.64245 0.9004 0.58182 0.0
C654 C 0.65807 0.8795 0.56824 0.0
C655 C 0.68445 0.88673 0.54069 0.0
C656 C 0.68362 0.91171 0.53874 0.0
N657 N 0.65032 0.95263 0.64626 0.0
C658 C 0.64062 0.93571 0.74628 0.0
C659 C 0.66632 0.92732 0.71672 0.0
C660 C 0.67086 0.93609 0.66702 0.0
C661 C 0.6224 0.9546 0.7263 0.0
C662 C 0.62814 0.96314 0.6774 0.0
N663 N 0.63082 0.95295 0.49992 0.0
C664 C 0.5986 0.93309 0.43705 0.0
C665 C 0.61103 0.94759 0.39916 0.0
C666 C 0.6331 0.96577 0.41283 0.0
C667 C 0.64214 0.96854 0.46402 0.0
C668 C 0.60996 0.93515 0.48564 0.0
H669 H 0.65863 0.98272 0.47437 0.0
H670 H 0.6019 0.92156 0.51122 0.0
H671 H 0.68946 0.92811 0.64427 0.0
H672 H 0.61199 0.97658 0.66343 0.0
C673 C 0.67962 1.00489 0.58275 0.0
C674 C 0.70903 0.92715 0.51585 0.0
C675 C 0.56817 0.98294 0.57556 0.0
C676 C 0.61138 0.90241 0.60265 0.0
H677 H 0.76033 0.96268 0.51284 0.0
H678 H 0.74519 1.00414 0.55516 0.0
H679 H 0.63959 0.04644 0.59097 0.0
H680 H 0.57861 0.03451 0.58106 0.0
H681 H 0.52015 0.94822 0.60772 0.0
H682 H 0.54396 0.90454 0.62759 0.0
H683 H 0.65056 0.86113 0.57561 0.0
H684 H 0.70229 0.87505 0.52413 0.0
H685 H 0.6818 0.91325 0.73098 0.0
H686 H 0.60278 0.96216 0.7477 0.0
H687 H 0.58172 0.91882 0.42842 0.0
H688 H 0.64339 0.97742 0.38437 0.0
C689 C 0.13296 0.1366 0.91261 0.0
C690 C 0.16386 0.1341 0.93067 0.0
C691 C 0.18321 0.13216 0.88941 0.0
C692 C 0.16308 0.13363 0.8487 0.0
N693 N 0.13224 0.13675 0.86151 0.0
Co694 Co 0.0954 0.1397 0.81423 0.0
N695 N 0.12064 0.12529 0.75816 0.0
C696 C 0.15257 0.12164 0.75776 0.0
C697 C 0.16396 0.11354 0.7125 0.0
C698 C 0.13762 0.11161 0.6825 0.0
C699 C 0.11141 0.11837 0.71158 0.0
N700 N 0.05885 0.14261 0.76705 0.0
C701 C 0.0538 0.13139 0.72208 0.0
C702 C 0.02307 0.13584 0.70495 0.0
C703 C 0.009 0.15101 0.73938 0.0
C704 C 0.03153 0.15469 0.77628 0.0
N705 N 0.07081 0.15282 0.87288 0.0
C706 C 0.04201 0.16367 0.87048 0.0
C707 C 0.02926 0.168 0.91741 0.0
C708 C 0.0511 0.15898 0.95132 0.0
C709 C 0.07615 0.14971 0.9233 0.0
N710 N 0.10945 0.17388 0.79244 0.0
C711 C 0.1163 0.22109 0.74542 0.0
C712 C 0.09707 0.21724 0.78823 0.0
C713 C 0.09546 0.19435 0.81222 0.0
C714 C 0.13379 0.20087 0.72943 0.0
C715 C 0.12929 0.17785 0.75161 0.0
N716 N 0.07903 0.10672 0.83248 0.0
C717 C 0.03202 0.08236 0.85082 0.0
C718 C 0.04811 0.06105 0.84023 0.0
C719 C 0.08085 0.0628 0.82806 0.0
C720 C 0.09594 0.08579 0.82494 0.0
C721 C 0.04749 0.10457 0.84628 0.0
H722 H 0.12085 0.08658 0.81459 0.0
H723 H 0.0326 0.1199 0.85162 0.0
H724 H 0.0823 0.19391 0.84664 0.0
H725 H 0.1419 0.16368 0.73332 0.0
C726 C 0.17116 0.12683 0.79991 0.0
C727 C 0.10494 0.13825 0.94525 0.0
C728 C 0.07828 0.11767 0.6937 0.0
C729 C 0.02551 0.16469 0.82424 0.0
H730 H 0.17146 0.13309 0.9696 0.0
H731 H 0.20859 0.12845 0.88922 0.0
H732 H 0.18849 0.10977 0.70231 0.0
H733 H 0.13791 0.1061 0.64343 0.0
H734 H 0.01201 0.12892 0.67106 0.0
H735 H 0.98459 0.15741 0.73895 0.0
H736 H 1.00595 0.17535 0.92597 0.0
H737 H 0.04862 0.15877 0.9919 0.0
H738 H 0.08321 0.23195 0.80375 0.0
H739 H 0.1501 0.20248 0.69792 0.0
H740 H 1.00684 0.08198 0.86029 0.0
H741 H 0.09441 0.04665 0.81978 0.0
C742 C 0.81739 0.58323 0.029 0.0
C743 C 0.7926 0.56659 0.025 0.0
C744 C 0.80119 0.54685 0.05258 0.0
C745 C 0.83099 0.55202 0.07091 0.0
N746 N 0.84177 0.57396 0.05691 0.0
Co747 Co 0.88569 0.58669 0.06846 0.0
N748 N 0.90268 0.55372 0.08196 0.0
C749 C 0.88509 0.53402 0.09295 0.0
C750 C 0.90302 0.51365 0.10049 0.0
C751 C 0.93397 0.52094 0.09438 0.0
C752 C 0.93311 0.54554 0.08383 0.0
N753 N 0.92938 0.59925 0.07939 0.0
C754 C 0.9577 0.58727 0.08264 0.0
C755 C 0.98252 0.60329 0.09149 0.0
C756 C 0.96913 0.62597 0.09406 0.0
C757 C 0.93691 0.62259 0.08665 0.0
N758 N 0.86715 0.61923 0.05441 0.0
C759 C 0.88139 0.64043 0.06512 0.0
C760 C 0.86377 0.65988 0.04869 0.0
C761 C 0.83704 0.65025 0.02585 0.0
C762 C 0.83976 0.62538 0.02932 0.0
N763 N 0.87798 0.59148 0.14348 0.0
C764 C 0.8866 0.60819 0.24551 0.0
C765 C 0.8678 0.62085 0.2102 0.0
C766 C 0.86204 0.61143 0.16141 0.0
C767 C 0.89819 0.58571 0.22918 0.0
C768 C 0.89497 0.57835 0.17856 0.0
N769 N 0.8964 0.58332 0.995 0.0
C770 C 0.9128 0.60343 0.9181 0.0
C771 C 0.92499 0.58218 0.89763 0.0
C772 C 0.92099 0.56095 0.92612 0.0
C773 C 0.90514 0.56174 0.97328 0.0
C774 C 0.90065 0.60386 0.96672 0.0
H775 H 0.90146 0.54486 0.99251 0.0
H776 H 0.89659 0.62158 0.98083 0.0
H777 H 0.84577 0.62135 0.13786 0.0
H778 H 0.90797 0.56242 0.16867 0.0
C779 C 0.852 0.53458 0.0889 0.0
C780 C 0.81631 0.60799 1.00799 0.0
C781 C 0.96154 0.56076 0.07993 0.0
C782 C 0.9136 0.64076 0.08066 0.0
H783 H 0.77085 0.56791 1.00338 0.0
H784 H 0.78837 0.5299 0.0552 0.0
H785 H 0.89459 0.49552 0.10801 0.0
H786 H 0.95473 0.50945 0.09794 0.0
H787 H 1.00758 0.59898 0.0959 0.0
H788 H 0.98157 0.64291 0.0995 0.0
H789 H 0.87045 0.67875 0.05022 0.0
H790 H 0.81821 0.6603 1.00743 0.0
H791 H 0.8576 0.6382 0.21979 0.0
H792 H 0.91173 0.57439 0.25468 0.0
H793 H 0.91479 0.62039 0.8979 0.0
H794 H 0.93034 0.54391 0.91268 0.0
C795 C 0.37646 0.39941 0.40716 0.0
C796 C 0.34632 0.40063 0.4287 0.0
C797 C 0.32496 0.40112 0.38967 0.0
C798 C 0.34324 0.40012 0.34676 0.0
N799 N 0.37477 0.39877 0.3563 0.0
Co800 Co 0.40942 0.39641 0.30544 0.0
N801 N 0.38141 0.41052 0.25287 0.0
C802 C 0.34938 0.41297 0.25542 0.0
C803 C 0.33648 0.4239 0.21384 0.0
C804 C 0.3619 0.4285 0.18296 0.0
C805 C 0.38899 0.41985 0.20744 0.0
N806 N 0.44346 0.39338 0.25441 0.0
C807 C 0.4455 0.4032 0.2077 0.0
C808 C 0.47345 0.39599 0.18406 0.0
C809 C 0.48919 0.38106 0.21729 0.0
C810 C 0.47005 0.37991 0.25936 0.0
N811 N 0.43698 0.3841 0.36095 0.0
C812 C 0.46518 0.37278 0.35532 0.0
C813 C 0.48045 0.36931 0.40073 0.0
C814 C 0.4607 0.37927 0.43679 0.0
C815 C 0.43431 0.38822 0.41153 0.0
N816 N 0.39567 0.36227 0.28576 0.0
C817 C 0.39303 0.3145 0.24134 0.0
C818 C 0.40769 0.31898 0.28832 0.0
C819 C 0.40706 0.34225 0.31078 0.0
C820 C 0.37743 0.33447 0.21976 0.0
C821 C 0.38017 0.35784 0.2408 0.0
N822 N 0.42567 0.42943 0.32143 0.0
C823 C 0.47263 0.45475 0.33123 0.0
C824 C 0.45436 0.47572 0.33159 0.0
C825 C 0.42085 0.47307 0.32802 0.0
C826 C 0.40697 0.44976 0.32269 0.0
C827 C 0.45811 0.43222 0.32634 0.0
H828 H 0.38136 0.4482 0.31897 0.0
H829 H 0.4739 0.41709 0.32498 0.0
H830 H 0.41705 0.34371 0.34793 0.0
H831 H 0.37045 0.37207 0.21826 0.0
C832 C 0.33261 0.40656 0.29886 0.0
C833 C 0.40614 0.3995 0.43601 0.0
C834 C 0.42049 0.41809 0.18375 0.0
C835 C 0.47875 0.37038 0.30685 0.0
H836 H 0.34048 0.40178 0.46835 0.0
H837 H 0.29939 0.40372 0.3923 0.0
H838 H 0.31166 0.42825 0.207 0.0
H839 H 0.36041 0.43667 0.14599 0.0
H840 H 0.4815 0.40096 0.14672 0.0
H841 H 0.51241 0.37286 0.21209 0.0
H842 H 0.50396 0.36173 0.40673 0.0
H843 H 0.46526 0.38005 0.47688 0.0
H844 H 0.41992 0.30458 0.30798 0.0
H845 H 0.3645 0.33241 0.18468 0.0
H846 H 0.49844 0.45577 0.33385 0.0
H847 H 0.40563 0.48886 0.32843 0.0
C848 C 0.25982 0.11823 0.49661 0.0
C849 C 0.29071 0.11263 0.47761 0.0
C850 C 0.26789 0.11315 0.39151 0.0
C851 C 0.23636 0.11311 0.41129 0.0
N852 N 0.20222 0.11781 0.48341 0.0
N853 N 0.32364 0.10355 0.40605 0.0
C854 C 0.23236 0.11679 0.46406 0.0
C855 C 0.29466 0.11028 0.42463 0.0
N856 N 0.25677 0.1243 0.54622 0.0
N857 N 0.27214 0.11535 0.34074 0.0
H858 H 0.3435 0.10156 0.42928 0.0
H859 H 0.32742 0.09854 0.3687 0.0
H860 H 0.25292 0.11739 0.31602 0.0
H861 H 0.29448 0.11745 0.324 0.0
H862 H 0.23561 0.13045 0.56229 0.0
H863 H 0.27636 0.12505 0.57048 0.0
H864 H 0.19706 0.1173 0.52175 0.0
H865 H 0.18214 0.11846 0.46044 0.0
C866 C 0.87259 0.77491 0.72937 0.0
C867 C 0.89903 0.79113 0.72779 0.0
C868 C 0.92693 0.76225 0.67083 0.0
C869 C 0.90146 0.74526 0.67531 0.0
N870 N 0.85125 0.73461 0.71354 0.0
N871 N 0.95335 0.7985 0.70233 0.0
C872 C 0.87468 0.75143 0.70602 0.0
C873 C 0.92666 0.7843 0.6997 0.0
N874 N 0.84486 0.7823 0.7517 0.0
N875 N 0.9515 0.75738 0.63848 0.0
H876 H 0.95423 0.81447 0.72309 0.0
H877 H 0.97546 0.79359 0.68766 0.0
H878 H 0.95324 0.74124 0.61844 0.0
H879 H 0.96893 0.76991 0.62853 0.0
H880 H 0.82345 0.77279 0.7495 0.0
H881 H 0.8426 0.79897 0.7696 0.0
H882 H 0.83316 0.73645 0.74016 0.0
H883 H 0.8509 0.71801 0.695 0.0
C884 C 0.2852 0.41973 0.94733 0.0
C885 C 0.28074 0.42116 0.89435 0.0
C886 C 0.22222 0.42032 0.90837 0.0
C887 C 0.22688 0.42078 0.96151 0.0
N888 N 0.26221 0.41077 0.02958 0.0
N889 N 0.2453 0.41446 0.82471 0.0
C890 C 0.25823 0.41652 0.98001 0.0
C891 C 0.24924 0.41821 0.87512 0.0
N892 N 0.31486 0.42353 0.96687 0.0
N893 N 0.19222 0.42331 0.88955 0.0
H894 H 0.26475 0.41322 0.80021 0.0
H895 H 0.22335 0.41049 0.80818 0.0
H896 H 0.17231 0.42406 0.91289 0.0
H897 H 0.18726 0.42604 0.85153 0.0
H898 H 0.31923 0.42564 1.00526 0.0
H899 H 0.33467 0.42632 0.94387 0.0
H900 H 0.28419 0.4059 0.04492 0.0
H901 H 0.24276 0.40872 0.05387 0.0
C902 C 0.58613 0.77968 0.18138 0.0
C903 C 0.61622 0.79035 0.16944 0.0
C904 C 0.64293 0.7561 0.21351 0.0
C905 C 0.61291 0.74467 0.22261 0.0
N906 N 0.55588 0.74478 0.2109 0.0
N907 N 0.67348 0.78753 0.17023 0.0
C908 C 0.58455 0.75632 0.20526 0.0
C909 C 0.64465 0.77819 0.18464 0.0
N910 N 0.55883 0.79231 0.1712 0.0
N911 N 0.66993 0.7459 0.2331 0.0
H912 H 0.67555 0.80361 0.15002 0.0
H913 H 0.69519 0.77872 0.17503 0.0
H914 H 0.66967 0.72959 0.25275 0.0
H915 H 0.69223 0.75419 0.23299 0.0
H916 H 0.5363 0.78731 0.18409 0.0
H917 H 0.55885 0.80884 0.15233 0.0
H918 H 0.53483 0.75037 0.19364 0.0
H919 H 0.55334 0.72867 0.23089 0.0
C920 C 0.73121 0.60699 0.96093 0.0
C921 C 0.73307 0.61353 0.90913 0.0
C922 C 0.79116 0.62052 0.92254 0.0
C923 C 0.78786 0.61559 0.97505 0.0
N924 N 0.75147 0.61398 0.04508 0.0
N925 N 0.76508 0.63081 0.84298 0.0
C926 C 0.75654 0.61303 0.9944 0.0
C927 C 0.76313 0.622 0.89087 0.0
N928 N 0.708 0.59164 0.97715 0.0
N929 N 0.821 0.62269 0.90242 0.0
H930 H 0.74527 0.63157 0.81913 0.0
H931 H 0.78551 0.63903 0.82856 0.0
H932 H 0.84154 0.62239 0.92459 0.0
H933 H 0.82537 0.62353 0.86383 0.0
H934 H 0.70655 0.58555 1.01428 0.0
H935 H 0.69485 0.58138 0.95174 0.0
H936 H 0.72861 0.61313 0.06067 0.0
H937 H 0.76987 0.6179 0.07038 0.0
C938 C 0.39825 0.28775 0.16116 0.0
C939 C 0.39426 0.28967 0.21457 0.0
C940 C 0.39894 0.245 0.21693 0.0
C941 C 0.3963 0.24297 0.16332 0.0
N942 N 0.38261 0.26501 0.08746 0.0
N943 N 0.38042 0.26713 0.28976 0.0
C944 C 0.39277 0.26511 0.13626 0.0
C945 C 0.39156 0.26741 0.2415 0.0
N946 N 0.40896 0.30698 0.13381 0.0
N947 N 0.41014 0.22615 0.24487 0.0
H948 H 0.37137 0.28247 0.30742 0.0
H949 H 0.37625 0.25108 0.30929 0.0
H950 H 0.41938 0.2105 0.22867 0.0
H951 H 0.41423 0.22757 0.28353 0.0
H952 H 0.41398 0.30569 0.0954 0.0
H953 H 0.41692 0.32292 0.15047 0.0
H954 H 0.37787 0.28091 0.06774 0.0
H955 H 0.37484 0.24938 0.06936 0.0
C956 C 0.79387 0.91858 0.46557 0.0
C957 C 0.78899 0.9192 0.41254 0.0
C958 C 0.73064 0.91772 0.42758 0.0
C959 C 0.73548 0.91816 0.4806 0.0
N960 N 0.77169 0.91129 0.54922 0.0
N961 N 0.75315 0.91127 0.34392 0.0
C962 C 0.76719 0.91557 0.4991 0.0
C963 C 0.75745 0.91562 0.39405 0.0
N964 N 0.82377 0.92257 0.48408 0.0
N965 N 0.70062 0.92115 0.40906 0.0
H966 H 0.77239 0.91002 0.31902 0.0
H967 H 0.73112 0.90676 0.32827 0.0
H968 H 0.68078 0.92259 0.43258 0.0
H969 H 0.69579 0.92409 0.37106 0.0
H970 H 0.82872 0.92524 0.52212 0.0
H971 H 0.8434 0.92466 0.46038 0.0
H972 H 0.79391 0.90746 0.56493 0.0
H973 H 0.75253 0.90942 0.57412 0.0
C974 C 0.11463 0.29038 0.71761 0.0
C975 C 0.12169 0.29192 0.66494 0.0
C976 C 0.11878 0.24712 0.66384 0.0
C977 C 0.11813 0.24564 0.71766 0.0
N978 N 0.12599 0.26853 0.79443 0.0
N979 N 0.14034 0.26915 0.59282 0.0
C980 C 0.11915 0.26806 0.74421 0.0
C981 C 0.12663 0.26952 0.63941 0.0
N982 N 0.10193 0.30968 0.74243 0.0
N983 N 0.11032 0.22767 0.6353 0.0
H984 H 0.14962 0.28458 0.57572 0.0
H985 H 0.14624 0.25308 0.57459 0.0
H986 H 0.10115 0.21183 0.65086 0.0
H987 H 0.10841 0.2286 0.59616 0.0
H988 H 0.09461 0.30867 0.77994 0.0
H989 H 0.09473 0.32538 0.724 0.0
H990 H 0.12904 0.28465 0.81418 0.0
H991 H 0.13276 0.25317 0.81442 0.0
C992 C 0.01675 0.03582 0.27574 0.0
C993 C 0.02969 0.04261 0.32325 0.0
C994 C 0.99397 1.01338 0.36534 0.0
C995 C 0.98073 1.00686 0.31795 0.0
N996 N 0.97706 1.01319 0.22837 0.0
N997 N 0.028 0.04075 0.4135 0.0
C998 C 0.99162 1.01838 0.2732 0.0
C999 C 0.01739 0.03222 0.36815 0.0
N1000 N 0.02935 0.04557 0.23282 0.0
N1001 N 0.9844 1.00117 0.40752 0.0
H1002 H 0.04459 0.05478 0.41621 0.0
H1003 H 0.01887 0.03548 0.44822 0.0
H1004 H 0.96746 0.98733 0.40644 0.0
H1005 H 0.99452 1.00341 0.44298 0.0
H1006 H 0.02476 0.03914 0.19672 0.0
H1007 H 0.0453 0.05999 0.23344 0.0
H1008 H 0.98059 0.02295 0.19535 0.0
H1009 H 0.96007 0.99955 0.22448 0.0
C1010 C 0.99566 0.5245 0.51083 0.0
C1011 C 0.99548 0.53985 0.55372 0.0
C1012 C 0.03625 0.51375 0.59374 0.0
C1013 C 0.03766 0.49906 0.54975 0.0
N1014 N 0.02311 0.49335 0.46283 0.0
N1015 N 0.01942 0.55139 0.63272 0.0
C1016 C 0.01851 0.50529 0.50731 0.0
C1017 C 0.01695 0.53512 0.59416 0.0
N1018 N 0.97368 0.52815 0.47353 0.0
N1019 N 0.05234 0.50679 0.63608 0.0
H1020 H 1.00498 0.56666 0.63557 0.0
H1021 H 0.03723 0.55076 0.66005 0.0
H1022 H 0.06721 0.49175 0.63724 0.0
H1023 H 0.04936 0.51494 0.67109 0.0
H1024 H 0.97003 0.5162 0.44382 0.0
H1025 H 0.95726 0.5423 0.47431 0.0
H1026 H 0.01242 0.49835 0.42901 0.0
H1027 H 0.04009 0.47972 0.4586 0.0
C1028 C 0.48595 0.51922 0.75328 0.0
C1029 C 0.47533 0.50799 0.79859 0.0
C1030 C 0.51036 0.53503 0.84742 0.0
C1031 C 0.52325 0.54475 0.80215 0.0
N1032 N 0.524 0.54588 0.7116 0.0
N1033 N 0.48027 0.50287 0.88809 0.0
C1034 C 0.51095 0.53688 0.75494 0.0
C1035 C 0.48849 0.51524 0.84541 0.0
N1036 N 0.47137 0.51347 0.70881 0.0
N1037 N 0.51818 0.54534 0.89243 0.0
H1038 H 0.46433 0.48836 0.88778 0.0
H1039 H 0.49128 0.50545 0.92284 0.0
H1040 H 0.53278 0.56048 0.89495 0.0
H1041 H 0.50753 0.54072 0.92654 0.0
H1042 H 0.47488 0.5229 0.67535 0.0
H1043 H 0.45446 0.49973 0.7058 0.0
H1044 H 0.51939 0.53896 0.67589 0.0
H1045 H 0.54075 0.55986 0.71162 0.0
C1046 C 0.52898 1.01054 1.00388 0.0
C1047 C 0.53046 0.99538 0.04705 0.0
C1048 C 0.49046 0.02145 0.08908 0.0
C1049 C 0.48755 0.03582 0.04483 0.0
N1050 N 0.4999 0.04129 0.95702 0.0
N1051 N 0.50836 0.98404 0.12756 0.0
C1052 C 0.50574 0.02955 1.00138 0.0
C1053 C 0.50991 1.00018 0.08866 0.0
N1054 N 0.55004 1.0069 0.96531 0.0
N1055 N 0.47568 0.02865 0.13243 0.0
H1056 H 0.52275 0.96873 0.12958 0.0
H1057 H 0.49123 0.98479 0.15595 0.0
H1058 H 0.46059 0.04356 0.13416 0.0
H1059 H 0.48009 0.02089 0.16747 0.0
H1060 H 0.55275 0.01872 0.93511 0.0
H1061 H 0.56666 0.99288 0.96536 0.0
H1062 H 0.50982 0.03624 0.92266 0.0
H1063 H 0.4827 0.05482 0.95366 0.0
C1064 C 0.03096 0.5227 0.13018 0.0
C1065 C 0.04348 0.51351 0.0842 0.0
C1066 C 0.00816 0.54104 0.03661 0.0
C1067 C 0.99356 0.54838 0.08224 0.0
N1068 N 0.99013 0.54645 0.1726 0.0
N1069 N 0.04398 0.51338 0.99349 0.0
C1070 C 1.00504 0.53949 0.12915 0.0
C1071 C 0.03213 0.52266 0.03736 0.0
N1072 N 0.04453 0.51583 0.1748 0.0
N1073 N 0.99917 0.55196 0.99262 0.0
H1074 H 0.06217 0.50061 0.99273 0.0
H1075 H 0.03484 0.51717 0.95793 0.0
H1076 H 0.98194 0.56554 0.99136 0.0
H1077 H 0.01021 0.54913 0.95804 0.0
H1078 H 0.03925 0.52374 0.20935 0.0
H1079 H 0.06268 0.50299 0.17712 0.0
H1080 H 0.99415 0.53854 0.20757 0.0
H1081 H 0.97246 0.55972 0.17331 0.0
C1082 C 0.48999 0.50532 0.37854 0.0
C1083 C 0.47156 0.49979 0.33488 0.0
C1084 C 0.49262 0.53676 0.29436 0.0
C1085 C 0.5138 0.54065 0.33562 0.0
N1086 N 0.53428 0.52758 0.4158 0.0
N1087 N 0.45846 0.50895 0.24855 0.0
C1088 C 0.51292 0.52458 0.37736 0.0
C1089 C 0.47359 0.51527 0.29219 0.0
N1090 N 0.48475 0.49254 0.42183 0.0
N1091 N 0.49009 0.55391 0.25752 0.0
H1092 H 0.44357 0.49395 0.24571 0.0
H1093 H 0.46234 0.5176 0.21425 0.0
H1094 H 0.50386 0.56958 0.25697 0.0
H1095 H 0.47255 0.55359 0.2297 0.0
H1096 H 0.49485 0.49695 0.45645 0.0
H1097 H 0.46782 0.47875 0.4242 0.0
H1098 H 0.53747 0.5151 0.44468 0.0
H1099 H 0.55057 0.54184 0.417 0.0
C1100 C 0.49867 0.02242 0.62156 0.0
C1101 C 0.48725 0.03179 0.575 0.0
C1102 C 0.52437 1.00501 0.52932 0.0
C1103 C 0.53714 0.99679 0.57585 0.0
N1104 N 0.53924 0.99972 0.66639 0.0
N1105 N 0.49125 0.03424 0.48484 0.0
C1106 C 0.5249 1.00598 0.62201 0.0
C1107 C 0.50077 0.02369 0.52893 0.0
N1108 N 0.48364 0.02858 0.6654 0.0
N1109 N 0.53467 0.9946 0.48553 0.0
H1110 H 0.47418 0.04796 0.48359 0.0
H1111 H 0.50177 0.03089 0.45004 0.0
H1112 H 0.55176 0.98088 0.48486 0.0
H1113 H 0.52476 0.99806 0.45033 0.0
H1114 H 0.48765 0.01994 0.69965 0.0
H1115 H 0.46574 0.04158 0.66718 0.0
H1116 H 0.53462 1.00823 0.70057 0.0
H1117 H 0.55723 0.9868 0.66874 0.0
C1118 C 0.02645 0.02339 0.88348 0.0
C1119 C 0.02912 0.03775 0.83927 0.0
C1120 C 0.98982 1.01107 0.79705 0.0
C1121 C 0.9856 0.99758 0.84228 0.0
N1122 N 0.99591 0.99369 0.93111 0.0
N1123 N 0.00963 0.04743 0.75625 0.0
C1124 C 1.00293 1.00454 0.88618 0.0
C1125 C 0.0097 0.03216 0.79675 0.0
N1126 N 0.04666 0.02768 0.92291 0.0
N1127 N 0.9758 1.00321 0.75358 0.0
H1128 H 0.02471 0.06236 0.75345 0.0
H1129 H 0.99318 0.04632 0.72693 0.0
H1130 H 0.96044 0.98843 0.75225 0.0
H1131 H 0.98103 1.0103 0.71821 0.0
H1132 H 0.04849 1.01647 0.95425 0.0
H1133 H 0.06357 0.04153 0.92249 0.0
H1134 H 1.00514 0.99931 0.96557 0.0
H1135 H 0.9784 0.98037 0.93464 0.0
C1136 C 0.08274 0.08024 0.64044 0.0
C1137 C 0.07221 0.10458 0.64466 0.0
C1138 C 0.0655 0.10471 0.55332 0.0
C1139 C 0.08628 0.08454 0.54856 0.0
N1140 N 0.11651 0.05354 0.59207 0.0
N1141 N 0.05876 0.14146 0.60027 0.0
C1142 C 0.09472 0.07183 0.59322 0.0
C1143 C 0.06415 0.11718 0.5999 0.0
N1144 N 0.08384 0.06601 0.68233 0.0
N1145 N 0.04881 0.11281 0.51258 0.0
H1146 H 0.061 0.15204 0.63249 0.0
H1147 H 0.05552 0.15138 0.56725 0.0
H1148 H 0.04923 0.10367 0.47816 0.0
H1149 H 0.03233 0.12687 0.51508 0.0
H1150 H 0.08948 0.04769 0.68094 0.0
H1151 H 0.07608 0.07223 0.71735 0.0
H1152 H 0.12562 0.04561 0.62465 0.0
H1153 H 0.12782 0.04781 0.55934 0.0
C1154 C 0.9665 0.6156 0.7952 0.0
C1155 C 0.95826 0.60244 0.75116 0.0
C1156 C 0.93497 0.57065 0.80458 0.0
C1157 C 0.94315 0.58409 0.84845 0.0
N1158 N 0.98069 0.6126 0.88333 0.0
N1159 N 0.94597 0.56354 0.71586 0.0
C1160 C 0.9644 0.60393 0.84269 0.0
C1161 C 0.94728 0.57828 0.75692 0.0
N1162 N 0.97259 0.63979 0.79325 0.0
N1163 N 0.9131 0.5524 0.80679 0.0
H1164 H 0.95402 0.56925 0.6806 0.0
H1165 H 0.93996 0.5453 0.71819 0.0
H1166 H 0.90178 0.5471 0.83984 0.0
H1167 H 0.90406 0.54396 0.77472 0.0
H1168 H 0.97583 0.65018 0.82561 0.0
H1169 H 0.97094 0.64992 0.76035 0.0
H1170 H 0.99757 0.62639 0.8803 0.0
H1171 H 0.97954 0.60412 0.91846 0.0
C1172 C 0.42809 0.45003 0.11723 0.0
C1173 C 0.42234 0.42549 0.12957 0.0
C1174 C 0.40044 0.41837 0.04525 0.0
C1175 C 0.40638 0.44301 0.03232 0.0
N1176 N 0.432 0.48083 0.05226 0.0
N1177 N 0.4089 0.38514 0.10331 0.0
C1178 C 0.42196 0.45846 0.06731 0.0
C1179 C 0.4106 0.40929 0.0927 0.0
N1180 N 0.43855 0.46541 0.1539 0.0
N1181 N 0.38395 0.40375 1.01287 0.0
H1182 H 0.41479 0.3779 0.13833 0.0
H1183 H 0.40425 0.37193 0.07642 0.0
H1184 H 0.37741 0.4089 0.9767 0.0
H1185 H 0.37475 0.38695 0.02281 0.0
H1186 H 0.43939 0.48408 0.14967 0.0
H1187 H 0.44517 0.45937 0.18966 0.0
H1188 H 0.44643 0.492 0.07411 0.0
H1189 H 0.42791 0.48759 1.01616 0.0
C1190 C 0.60707 0.91715 0.32915 0.0
C1191 C 0.6022 0.9413 0.34595 0.0
C1192 C 0.57695 0.95062 0.26453 0.0
C1193 C 0.58026 0.92611 0.24964 0.0
N1194 N 0.58935 0.88488 0.27481 0.0
N1195 N 0.57557 0.97948 0.33338 0.0
C1196 C 0.59198 0.909 0.28457 0.0
C1197 C 0.58501 0.95764 0.31477 0.0
N1198 N 0.62732 0.90213 0.35456 0.0
N1199 N 0.56739 0.96734 0.22992 0.0
H1200 H 0.58074 0.9851 0.36997 0.0
H1201 H 0.56038 0.99109 0.31395 0.0
H1202 H 0.56047 0.96249 0.19356 0.0
H1203 H 0.56803 0.98588 0.23644 0.0
H1204 H 0.63453 0.88541 0.34067 0.0
H1205 H 0.63951 0.90729 0.38692 0.0
H1206 H 0.59507 0.87159 0.3011 0.0
H1207 H 0.578 0.87816 0.24291 0.0
C1208 C 0.10026 0.41134 0.7866 0.0
C1209 C 0.08706 0.42576 0.74768 0.0
C1210 C 0.08997 0.46157 0.80181 0.0
C1211 C 0.10368 0.4473 0.84056 0.0
N1212 N 0.11357 0.4075 0.87494 0.0
N1213 N 0.06121 0.46231 0.72223 0.0
C1214 C 0.10619 0.42181 0.83457 0.0
C1215 C 0.07921 0.45018 0.75678 0.0
N1216 N 0.10882 0.388 0.77674 0.0
N1217 N 0.08789 0.48603 0.80765 0.0
H1218 H 0.0531 0.4541 0.68918 0.0
H1219 H 0.05165 0.47936 0.72871 0.0
H1220 H 0.09506 0.49485 0.84049 0.0
H1221 H 0.08113 0.49773 0.77886 0.0
H1222 H 0.12267 0.37759 0.80102 0.0
H1223 H 0.10348 0.37941 0.74282 0.0
H1224 H 0.11223 0.38873 0.87411 0.0
H1225 H 0.1186 0.41428 0.91068 0.0
C1226 C 0.56334 0.57967 0.13537 0.0
C1227 C 0.56007 0.60507 0.1414 0.0
C1228 C 0.56378 0.60953 0.04961 0.0
C1229 C 0.57516 0.58549 0.04551 0.0
N1230 N 0.58538 0.5471 0.08492 0.0
N1231 N 0.56043 0.6447 0.10292 0.0
C1232 C 0.57402 0.57013 0.08826 0.0
C1233 C 0.56031 0.62015 0.09803 0.0
N1234 N 0.55794 0.56494 0.1757 0.0
N1235 N 0.55729 0.62239 1.00692 0.0
H1236 H 0.5591 0.65349 0.13748 0.0
H1237 H 0.5645 0.65636 0.07278 0.0
H1238 H 0.55953 0.6149 0.971 0.0
H1239 H 0.54656 0.63936 1.0075 0.0
H1240 H 0.55733 0.54618 0.17329 0.0
H1241 H 0.55139 0.57177 0.21082 0.0
H1242 H 0.58869 0.53591 0.11602 0.0
H1243 H 0.5933 0.53959 0.05118 0.0
C1244 C 0.43795 0.07831 0.31144 0.0
C1245 C 0.41864 0.0928 0.34345 0.0
C1246 C 0.42071 0.12576 0.28131 0.0
C1247 C 0.43577 0.11006 0.24671 0.0
N1248 N 0.45872 0.07151 0.22708 0.0
N1249 N 0.38904 0.12984 0.35668 0.0
C1250 C 0.44465 0.0864 0.26148 0.0
C1251 C 0.40952 0.11647 0.32787 0.0
N1252 N 0.4508 0.05732 0.32936 0.0
N1253 N 0.41672 0.14958 0.26919 0.0
H1254 H 0.3809 0.12438 0.39185 0.0
H1255 H 0.3781 0.14562 0.34421 0.0
H1256 H 0.42385 0.15686 0.23477 0.0
H1257 H 0.4091 0.16261 0.29475 0.0
H1258 H 0.46767 0.04721 0.3098 0.0
H1259 H 0.4464 0.05086 0.36561 0.0
H1260 H 0.4623 0.05313 0.23298 0.0
H1261 H 0.46576 0.07759 0.19153 0.0
C1262 C 0.92103 0.90948 0.60556 0.0
C1263 C 0.93479 0.92543 0.64116 0.0
C1264 C 0.93042 0.9591 0.58113 0.0
C1265 C 0.91478 0.94352 0.5464 0.0
N1266 N 0.89863 0.90303 0.52265 0.0
N1267 N 0.96001 0.96306 0.65988 0.0
C1268 C 0.91111 0.91843 0.55787 0.0
C1269 C 0.94178 0.94958 0.62784 0.0
N1270 N 0.91631 0.88587 0.61855 0.0
N1271 N 0.93421 0.98299 0.5695 0.0
H1272 H 0.96915 0.95586 0.69327 0.0
H1273 H 0.96852 0.98025 0.65166 0.0
H1274 H 0.92744 0.99032 0.53494 0.0
H1275 H 0.94258 0.99591 0.59468 0.0
H1276 H 0.90174 0.87388 0.59904 0.0
H1277 H 0.92722 0.87815 0.64987 0.0
H1278 H 0.89898 0.88432 0.52552 0.0
H1279 H 0.88886 0.90875 0.4887 0.0
C1280 C 0.1138 0.14585 0.03984 0.0
C1281 C 0.10797 0.12947 0.99954 0.0
C1282 C 0.12334 0.0958 0.05591 0.0
C1283 C 0.12628 0.11188 0.09756 0.0
N1284 N 0.11749 0.15197 0.13032 0.0
N1285 N 0.10151 0.08833 0.97247 0.0
C1286 C 0.11959 0.13686 0.0898 0.0
C1287 C 0.11094 0.10428 1.0088 0.0
N1288 N 0.11511 0.17004 0.03018 0.0
N1289 N 0.13379 0.07255 0.0606 0.0
H1290 H 0.0921 0.0939 0.93799 0.0
H1291 H 0.10003 0.06977 0.97836 0.0
H1292 H 0.144 0.06589 0.09364 0.0
H1293 H 0.13537 0.06061 0.0304 0.0
H1294 H 0.12288 0.18269 0.05652 0.0
H1295 H 0.11082 0.17729 0.99455 0.0
H1296 H 0.10937 0.1697 0.12766 0.0
H1297 H 0.121 0.1462 0.16729 0.0
C1298 C 0.88179 0.64282 0.37317 0.0
C1299 C 0.9088 0.63406 0.39996 0.0
C1300 C 0.92569 0.61487 0.32011 0.0
C1301 C 0.89466 0.61812 0.29829 0.0
N1302 N 0.84029 0.63089 0.31538 0.0
N1303 N 0.95565 0.60872 0.39734 0.0
C1304 C 0.87191 0.63114 0.32774 0.0
C1305 C 0.93058 0.6192 0.37293 0.0
N1306 N 0.86524 0.66218 0.39113 0.0
N1307 N 0.95114 0.60916 0.29029 0.0
H1308 H 0.95995 0.61117 0.43567 0.0
H1309 H 0.97039 0.59598 0.38017 0.0
H1310 H 0.94961 0.60856 0.25111 0.0
H1311 H 0.97445 0.60832 0.30401 0.0
H1312 H 0.84653 0.67008 0.37109 0.0
H1313 H 0.87243 0.67151 0.42339 0.0
H1314 H 0.82294 0.63895 0.33802 0.0
H1315 H 0.83101 0.61994 0.28703 0.0
C1316 C 0.39408 0.40597 0.58002 0.0
C1317 C 0.38454 0.43068 0.58286 0.0
C1318 C 0.40063 0.43536 0.49387 0.0
C1319 C 0.4051 0.41007 0.48887 0.0
N1320 N 0.40119 0.37067 0.5268 0.0
N1321 N 0.37324 0.46757 0.53783 0.0
C1322 C 0.4006 0.39518 0.53195 0.0
C1323 C 0.38646 0.44504 0.53846 0.0
N1324 N 0.39818 0.39293 0.62321 0.0
N1325 N 0.41016 0.45022 0.45574 0.0
H1326 H 0.36113 0.47486 0.5686 0.0
H1327 H 0.37123 0.47792 0.5052 0.0
H1328 H 0.42184 0.44359 0.42397 0.0
H1329 H 0.40995 0.46899 0.45837 0.0
H1330 H 0.408 0.37566 0.6236 0.0
H1331 H 0.3949 0.40024 0.65902 0.0
H1332 H 0.39448 0.35889 0.55555 0.0
H1333 H 0.40611 0.36219 0.49261 0.0
C1334 C 0.62335 0.90011 0.80239 0.0
C1335 C 0.63193 0.92494 0.79731 0.0
C1336 C 0.61622 0.93096 0.88622 0.0
C1337 C 0.61201 0.9057 0.89319 0.0
N1338 N 0.61807 0.86572 0.85868 0.0
N1339 N 0.64259 0.96276 0.83914 0.0
C1340 C 0.61728 0.89011 0.85141 0.0
C1341 C 0.62992 0.94003 0.8406 0.0
N1342 N 0.61974 0.88613 0.76039 0.0
N1343 N 0.6069 0.94644 0.92339 0.0
H1344 H 0.65423 0.96967 0.80751 0.0
H1345 H 0.64469 0.97372 0.87085 0.0
H1346 H 0.5962 0.94041 0.95651 0.0
H1347 H 0.60661 0.96513 0.91903 0.0
H1348 H 0.61052 0.86866 0.76158 0.0
H1349 H 0.62285 0.89277 0.72397 0.0
H1350 H 0.62525 0.85363 0.83084 0.0
H1351 H 0.61417 0.85776 0.89375 0.0
C1352 C 0.09391 0.4235 0.36082 0.0
C1353 C 0.11263 0.40524 0.38401 0.0
C1354 C 0.14847 0.4059 0.3106 0.0
C1355 C 0.12881 0.42306 0.28518 0.0
N1356 N 0.07563 0.44025 0.28154 0.0
N1357 N 0.14982 0.3728 0.37039 0.0
C1358 C 0.0993 0.42953 0.3089 0.0
C1359 C 0.13678 0.39406 0.35469 0.0
N1360 N 0.07151 0.4356 0.38828 0.0
N1361 N 0.17941 0.40241 0.2962 0.0
H1362 H 0.14171 0.36386 0.4026 0.0
H1363 H 0.16624 0.3632 0.34868 0.0
H1364 H 0.19062 0.41297 0.26893 0.0
H1365 H 0.19506 0.39136 0.31625 0.0
H1366 H 0.05954 0.45072 0.37452 0.0
H1367 H 0.06664 0.43155 0.42589 0.0
H1368 H 0.05299 0.44366 0.29627 0.0
H1369 H 0.07722 0.44279 0.2427 0.0
C1370 C 0.59435 0.60243 0.56816 0.0
C1371 C 0.61647 0.61581 0.59817 0.0
C1372 C 0.6196 0.64607 0.52914 0.0
C1373 C 0.60086 0.63119 0.49697 0.0
N1374 N 0.5732 0.59355 0.48465 0.0
N1375 N 0.65448 0.6485 0.60212 0.0
C1376 C 0.58901 0.60891 0.51628 0.0
C1377 C 0.63011 0.63721 0.57723 0.0
N1378 N 0.57726 0.58412 0.58973 0.0
N1379 N 0.62744 0.66884 0.51364 0.0
H1380 H 0.66377 0.64215 0.63608 0.0
H1381 H 0.66768 0.66264 0.5867 0.0
H1382 H 0.62047 0.67573 0.47874 0.0
H1383 H 0.63821 0.68155 0.53704 0.0
H1384 H 0.55844 0.57535 0.57171 0.0
H1385 H 0.57988 0.57912 0.62738 0.0
H1386 H 0.56729 0.57587 0.49428 0.0
H1387 H 0.56786 0.598 0.44741 0.0
C1388 C 0.39659 0.08975 0.83634 0.0
C1389 C 0.39363 0.10445 0.79257 0.0
C1390 C 0.40833 0.13991 0.84453 0.0
C1391 C 0.41394 0.12477 0.88686 0.0
N1392 N 0.42113 0.0845 0.91843 0.0
N1393 N 0.40523 0.14292 0.75346 0.0
C1394 C 0.41065 0.09942 0.88101 0.0
C1395 C 0.40201 0.12939 0.79619 0.0
N1396 N 0.3844 0.06686 0.83633 0.0
N1397 N 0.40766 0.16437 0.85067 0.0
H1398 H 0.40212 0.13584 0.71741 0.0
H1399 H 0.41422 0.16047 0.75363 0.0
H1400 H 0.41233 0.1727 0.88513 0.0
H1401 H 0.40014 0.17618 0.82251 0.0
H1402 H 0.38317 0.05617 0.86857 0.0
H1403 H 0.37234 0.05953 0.80553 0.0
H1404 H 0.4219 0.06577 0.91496 0.0
H1405 H 0.43249 0.09115 0.95051 0.0
C1406 C 0.89103 0.94346 0.05196 0.0
C1407 C 0.88892 0.92861 0.09566 0.0
C1408 C 0.9028 0.89344 0.04217 0.0
C1409 C 0.9081 0.90879 0.99999 0.0
N1410 N 0.91451 0.94933 0.96927 0.0
N1411 N 0.90127 0.88996 0.13328 0.0
C1412 C 0.90462 0.9341 1.00658 0.0
C1413 C 0.89728 0.90371 0.09104 0.0
N1414 N 0.87845 0.96621 0.05269 0.0
N1415 N 0.90158 0.86902 0.03547 0.0
H1416 H 0.8989 0.89686 0.16962 0.0
H1417 H 0.91024 0.87243 0.13223 0.0
H1418 H 0.9052 0.86087 1.00054 0.0
H1419 H 0.89438 0.85713 0.06371 0.0
H1420 H 0.87661 0.97697 1.02062 0.0
H1421 H 0.86659 0.97327 0.08392 0.0
H1422 H 0.91522 0.96804 0.97332 0.0
H1423 H 0.92541 0.943 0.93654 0.0
loop_
_geom_bond_atom_site_label_1
_geom_bond_atom_site_label_2
_geom_bond_distance
_geom_bond_site_symmetry_2
_ccdc_geom_bond_type
C0 C1 1.443 . S
C0 N4 1.376 . S
C0 C38 1.389 . S
C1 C0 1.443 . S
C1 C2 1.340 . S
C1 H41 0.951 . S
C2 C1 1.340 . S
C2 C3 1.439 . S
C2 H42 0.950 . S
C3 C2 1.439 . S
C3 N4 1.374 . S
C3 C37 1.395 . S
N4 C0 1.376 . S
N4 C3 1.374 . S
N4 Co5 2.008 . S
Co5 N4 2.008 . S
Co5 N6 1.995 . S
Co5 N11 2.008 . S
Co5 N16 1.995 . S
Co5 N21 2.282 . S
Co5 N27 2.282 . S
N6 Co5 1.995 . S
N6 C7 1.376 . S
N6 C10 1.383 . S
C7 N6 1.376 . S
C7 C8 1.446 . S
C7 C37 1.391 . S
C8 C7 1.446 . S
C8 C9 1.339 . S
C8 H43 0.999 . S
C9 C8 1.339 . S
C9 C10 1.439 . S
C9 H44 0.950 . S
C10 N6 1.383 . S
C10 C9 1.439 . S
C10 C39 1.392 . S
N11 Co5 2.008 . S
N11 C12 1.376 . S
N11 C15 1.374 . S
C12 N11 1.376 . S
C12 C13 1.443 . S
C12 C39 1.389 . S
C13 C12 1.443 . S
C13 C14 1.340 . S
C13 H45 0.951 1_455 S
C14 C13 1.340 . S
C14 C15 1.439 . S
C14 H46 0.950 . S
C15 N11 1.374 . S
C15 C14 1.439 . S
C15 C40 1.395 . S
N16 Co5 1.995 . S
N16 C17 1.376 . S
N16 C20 1.383 . S
C17 N16 1.376 . S
C17 C18 1.446 . S
C17 C40 1.391 . S
C18 C17 1.446 . S
C18 C19 1.339 . S
C18 H47 0.949 . S
C19 C18 1.339 . S
C19 C20 1.439 . S
C19 H48 0.950 . S
C20 N16 1.383 . S
C20 C19 1.439 . S
C20 C38 1.392 . S
N21 Co5 2.282 . S
N21 C24 1.332 . S
N21 C26 1.332 . S
C22 C23 1.386 . S
C22 C25 1.388 . S
C23 C22 1.386 . S
C23 C24 1.382 . S
C23 H49 0.950 . S
C24 N21 1.332 . S
C24 C23 1.382 . S
C24 H35 0.952 . S
C25 C22 1.388 . S
C25 C26 1.382 . S
C25 H50 0.950 . S
C26 N21 1.332 . S
C26 C25 1.382 . S
C26 H36 0.948 . S
N27 Co5 2.282 . S
N27 C31 1.332 . S
N27 C32 1.332 . S
C28 C29 1.388 . S
C28 C32 1.382 . S
C28 H51 0.950 . S
C29 C28 1.388 . S
C29 C30 1.386 . S
C30 C29 1.386 . S
C30 C31 1.382 . S
C30 H52 0.950 . S
C31 N27 1.332 . S
C31 C30 1.382 . S
C31 H33 0.952 . S
C32 N27 1.332 . S
C32 C28 1.382 . S
C32 H34 0.948 . S
H33 C31 0.952 . S
H34 C32 0.948 . S
H35 C24 0.952 . S
H36 C26 0.948 . S
C37 C3 1.395 . S
C37 C7 1.391 . S
C38 C0 1.389 . S
C38 C20 1.392 . S
C39 C10 1.392 . S
C39 C12 1.389 . S
C40 C15 1.395 . S
C40 C17 1.391 . S
H41 C1 0.951 . S
H42 C2 0.950 . S
H43 C8 0.999 . S
H44 C9 0.950 . S
H45 C13 0.951 1_655 S
H46 C14 0.950 . S
H47 C18 0.949 . S
H48 C19 0.950 . S
H49 C23 0.950 . S
H50 C25 0.950 . S
H51 C28 0.950 . S
H52 C30 0.950 . S
C53 C54 1.443 . S
C53 N57 1.376 . S
C53 C91 1.389 . S
C54 C53 1.443 . S
C54 C55 1.340 . S
C54 H94 0.951 . S
C55 C54 1.340 . S
C55 C56 1.439 . S
C55 H95 0.950 . S
C56 C55 1.439 . S
C56 N57 1.374 . S
C56 C90 1.395 . S
N57 C53 1.376 . S
N57 C56 1.374 . S
N57 Co58 2.008 . S
Co58 N57 2.008 . S
Co58 N59 1.995 . S
Co58 N64 2.008 . S
Co58 N69 1.995 . S
Co58 N74 2.282 . S
Co58 N80 2.282 . S
N59 Co58 1.995 . S
N59 C60 1.376 . S
N59 C63 1.383 . S
C60 N59 1.376 . S
C60 C61 1.446 . S
C60 C90 1.391 . S
C61 C60 1.446 . S
C61 C62 1.339 . S
C61 H96 0.949 . S
C62 C61 1.339 . S
C62 C63 1.439 . S
C62 H97 0.950 . S
C63 N59 1.383 . S
C63 C62 1.439 . S
C63 C92 1.392 . S
N64 Co58 2.008 . S
N64 C65 1.376 . S
N64 C68 1.374 . S
C65 N64 1.376 . S
C65 C66 1.443 . S
C65 C92 1.389 . S
C66 C65 1.443 . S
C66 C67 1.340 . S
C66 H98 0.951 . S
C67 C66 1.340 . S
C67 C68 1.439 . S
C67 H99 0.950 1_655 S
C68 N64 1.374 . S
C68 C67 1.439 . S
C68 C93 1.395 . S
N69 Co58 1.995 . S
N69 C70 1.376 . S
N69 C73 1.383 . S
C70 N69 1.376 . S
C70 C71 1.446 . S
C70 C93 1.391 . S
C71 C70 1.446 . S
C71 C72 1.339 . S
C71 H100 0.949 1_655 S
C72 C71 1.339 . S
C72 C73 1.439 . S
C72 H101 0.950 . S
C73 N69 1.383 . S
C73 C72 1.439 . S
C73 C91 1.392 . S
N74 Co58 2.282 . S
N74 C77 1.332 . S
N74 C79 1.332 . S
C75 C76 1.386 . S
C75 C78 1.388 . S
C76 C75 1.386 . S
C76 C77 1.382 . S
C76 H102 0.950 . S
C77 N74 1.332 . S
C77 C76 1.382 . S
C77 H88 0.952 . S
C78 C75 1.388 . S
C78 C79 1.382 . S
C78 H103 0.950 . S
C79 N74 1.332 . S
C79 C78 1.382 . S
C79 H89 0.948 . S
N80 Co58 2.282 . S
N80 C84 1.332 . S
N80 C85 1.332 . S
C81 C82 1.388 . S
C81 C85 1.382 . S
C81 H104 0.950 . S
C82 C81 1.388 . S
C82 C83 1.386 . S
C83 C82 1.386 . S
C83 C84 1.382 . S
C83 H105 0.950 . S
C84 N80 1.332 . S
C84 C83 1.382 . S
C84 H86 0.952 . S
C85 N80 1.332 . S
C85 C81 1.382 . S
C85 H87 0.948 . S
H86 C84 0.952 . S
H87 C85 0.948 . S
H88 C77 0.952 . S
H89 C79 0.948 . S
C90 C56 1.395 . S
C90 C60 1.391 . S
C91 C53 1.389 . S
C91 C73 1.392 . S
C92 C63 1.392 . S
C92 C65 1.389 . S
C93 C68 1.395 . S
C93 C70 1.391 . S
H94 C54 0.951 . S
H95 C55 0.950 . S
H96 C61 0.949 . S
H97 C62 0.950 . S
H98 C66 0.951 . S
H99 C67 0.950 1_455 S
H100 C71 0.949 1_455 S
H101 C72 0.950 . S
H102 C76 0.950 . S
H103 C78 0.950 . S
H104 C81 0.950 . S
H105 C83 0.950 . S
C106 C107 1.443 . S
C106 N110 1.376 . S
C106 C144 1.389 . S
C107 C106 1.443 . S
C107 C108 1.340 . S
C107 H147 0.951 . S
C108 C107 1.340 . S
C108 C109 1.439 . S
C108 H148 0.950 . S
C109 C108 1.439 . S
C109 N110 1.374 . S
C109 C143 1.395 . S
N110 C106 1.376 . S
N110 C109 1.374 . S
N110 Co111 2.008 . S
Co111 N110 2.008 . S
Co111 N112 1.995 . S
Co111 N117 2.008 . S
Co111 N122 1.995 . S
Co111 N127 2.282 . S
Co111 N133 2.282 . S
N112 Co111 1.995 . S
N112 C113 1.376 . S
N112 C116 1.383 . S
C113 N112 1.376 . S
C113 C114 1.446 . S
C113 C143 1.391 . S
C114 C113 1.446 . S
C114 C115 1.339 . S
C114 H149 0.949 . S
C115 C114 1.339 . S
C115 C116 1.439 . S
C115 H150 0.950 . S
C116 N112 1.383 . S
C116 C115 1.439 . S
C116 C145 1.392 . S
N117 Co111 2.008 . S
N117 C118 1.376 . S
N117 C121 1.374 . S
C118 N117 1.376 . S
C118 C119 1.443 . S
C118 C145 1.389 . S
C119 C118 1.443 . S
C119 C120 1.340 . S
C119 H151 0.951 . S
C120 C119 1.340 . S
C120 C121 1.439 . S
C120 H152 0.950 . S
C121 N117 1.374 . S
C121 C120 1.439 . S
C121 C146 1.395 . S
N122 Co111 1.995 . S
N122 C123 1.376 . S
N122 C126 1.383 . S
C123 N122 1.376 . S
C123 C124 1.446 . S
C123 C146 1.391 . S
C124 C123 1.446 . S
C124 C125 1.339 . S
C124 H153 0.949 . S
C125 C124 1.339 . S
C125 C126 1.439 . S
C125 H154 0.950 . S
C126 N122 1.383 . S
C126 C125 1.439 . S
C126 C144 1.392 . S
N127 Co111 2.282 . S
N127 C130 1.332 . S
N127 C132 1.332 . S
C128 C129 1.386 . S
C128 C131 1.388 . S
C129 C128 1.386 . S
C129 C130 1.382 . S
C129 H155 0.950 . S
C130 N127 1.332 . S
C130 C129 1.382 . S
C130 H141 0.952 . S
C131 C128 1.388 . S
C131 C132 1.382 . S
C131 H156 0.950 . S
C132 N127 1.332 . S
C132 C131 1.382 . S
C132 H142 0.948 . S
N133 Co111 2.282 . S
N133 C137 1.332 . S
N133 C138 1.332 . S
C134 C135 1.388 . S
C134 C138 1.382 . S
C134 H157 0.950 . S
C135 C134 1.388 . S
C135 C136 1.386 . S
C136 C135 1.386 . S
C136 C137 1.382 . S
C136 H158 0.950 . S
C137 N133 1.332 . S
C137 C136 1.382 . S
C137 H139 0.952 . S
C138 N133 1.332 . S
C138 C134 1.382 . S
C138 H140 0.948 . S
H139 C137 0.952 . S
H140 C138 0.948 . S
H141 C130 0.952 . S
H142 C132 0.948 . S
C143 C109 1.395 . S
C143 C113 1.391 . S
C144 C106 1.389 . S
C144 C126 1.392 . S
C145 C116 1.392 . S
C145 C118 1.389 . S
C146 C121 1.395 . S
C146 C123 1.391 . S
H147 C107 0.951 . S
H148 C108 0.950 . S
H149 C114 0.949 . S
H150 C115 0.950 . S
H151 C119 0.951 . S
H152 C120 0.950 . S
H153 C124 0.949 . S
H154 C125 0.950 . S
H155 C129 0.950 . S
H156 C131 0.950 . S
H157 C134 0.950 . S
H158 C136 0.950 . S
C159 C160 1.443 . S
C159 N163 1.376 . S
C159 C197 1.389 . S
C160 C159 1.443 . S
C160 C161 1.340 . S
C160 H200 0.951 . S
C161 C160 1.340 . S
C161 C162 1.439 1_556 S
C161 H201 0.950 . S
C162 C161 1.439 1_554 S
C162 N163 1.374 1_554 S
C162 C196 1.395 . S
N163 C159 1.376 . S
N163 C162 1.374 1_556 S
N163 Co164 2.008 1_556 S
Co164 N163 2.008 1_554 S
Co164 N165 1.995 . S
Co164 N170 2.008 . S
Co164 N175 1.996 1_554 S
Co164 N180 2.282 . S
Co164 N186 2.282 . S
N165 Co164 1.995 . S
N165 C166 1.376 . S
N165 C169 1.383 . S
C166 N165 1.376 . S
C166 C167 1.446 . S
C166 C196 1.391 . S
C167 C166 1.446 . S
C167 C168 1.339 . S
C167 H202 0.949 . S
C168 C167 1.339 . S
C168 C169 1.439 . S
C168 H203 0.950 . S
C169 N165 1.383 . S
C169 C168 1.439 . S
C169 C198 1.392 . S
N170 Co164 2.008 . S
N170 C171 1.376 . S
N170 C174 1.374 . S
C171 N170 1.376 . S
C171 C172 1.443 . S
C171 C198 1.389 . S
C172 C171 1.443 . S
C172 C173 1.340 . S
C172 H204 0.951 . S
C173 C172 1.340 . S
C173 C174 1.439 . S
C173 H205 0.950 . S
C174 N170 1.374 . S
C174 C173 1.439 . S
C174 C199 1.395 . S
N175 Co164 1.996 1_556 S
N175 C176 1.376 1_556 S
N175 C179 1.381 . S
C176 N175 1.376 1_554 S
C176 C177 1.446 1_554 S
C176 C199 1.391 . S
C177 C176 1.446 1_556 S
C177 C178 1.339 . S
C177 H206 0.949 . S
C178 C177 1.339 . S
C178 C179 1.439 . S
C178 H207 0.950 . S
C179 N175 1.381 . S
C179 C178 1.439 . S
C179 C197 1.392 . S
N180 Co164 2.282 . S
N180 C183 1.332 . S
N180 C185 1.332 . S
C181 C182 1.386 . S
C181 C184 1.388 . S
C182 C181 1.386 . S
C182 C183 1.382 . S
C182 H208 0.950 . S
C183 N180 1.332 . S
C183 C182 1.382 . S
C183 H194 0.952 . S
C184 C181 1.388 . S
C184 C185 1.382 . S
C184 H209 0.950 . S
C185 N180 1.332 . S
C185 C184 1.382 . S
C185 H195 0.948 . S
N186 Co164 2.282 . S
N186 C190 1.332 . S
N186 C191 1.332 . S
C187 C188 1.388 . S
C187 C191 1.382 . S
C187 H210 0.950 1_554 S
C188 C187 1.388 . S
C188 C189 1.386 . S
C189 C188 1.386 . S
C189 C190 1.382 . S
C189 H211 0.950 . S
C190 N186 1.332 . S
C190 C189 1.382 . S
C190 H192 0.952 . S
C191 N186 1.332 . S
C191 C187 1.382 . S
C191 H193 0.948 . S
H192 C190 0.952 . S
H193 C191 0.948 . S
H194 C183 0.952 . S
H195 C185 0.948 . S
C196 C162 1.395 . S
C196 C166 1.391 . S
C197 C159 1.389 . S
C197 C179 1.392 . S
C198 C169 1.392 . S
C198 C171 1.389 . S
C199 C174 1.395 . S
C199 C176 1.391 . S
H200 C160 0.951 . S
H201 C161 0.950 . S
H202 C167 0.949 . S
H203 C168 0.950 . S
H204 C172 0.951 . S
H205 C173 0.950 . S
H206 C177 0.949 . S
H207 C178 0.950 . S
H208 C182 0.950 . S
H209 C184 0.950 . S
H210 C187 0.950 1_556 S
H211 C189 0.950 . S
C212 C213 1.437 1_554 S
C212 N216 1.383 . S
C212 C250 1.388 1_554 S
C213 C212 1.437 1_556 S
C213 C214 1.340 . S
C213 H253 0.951 . S
C214 C213 1.340 . S
C214 C215 1.439 1_556 S
C214 H254 0.950 . S
C215 C214 1.439 1_554 S
C215 N216 1.374 . S
C215 C249 1.395 . S
N216 C212 1.383 . S
N216 C215 1.374 . S
N216 Co217 2.008 . S
Co217 N216 2.008 . S
Co217 N218 1.995 . S
Co217 N223 2.008 . S
Co217 N228 1.995 . S
Co217 N233 2.282 . S
Co217 N239 2.282 1_554 S
N218 Co217 1.995 . S
N218 C219 1.376 . S
N218 C222 1.383 . S
C219 N218 1.376 . S
C219 C220 1.446 . S
C219 C249 1.391 . S
C220 C219 1.446 . S
C220 C221 1.339 . S
C220 H255 0.949 . S
C221 C220 1.339 . S
C221 C222 1.439 . S
C221 H256 0.950 . S
C222 N218 1.383 . S
C222 C221 1.439 . S
C222 C251 1.392 . S
N223 Co217 2.008 . S
N223 C224 1.376 . S
N223 C227 1.374 . S
C224 N223 1.376 . S
C224 C225 1.443 . S
C224 C251 1.389 . S
C225 C224 1.443 . S
C225 C226 1.340 . S
C225 H257 0.951 1_455 S
C226 C225 1.340 . S
C226 C227 1.439 . S
C226 H258 0.950 . S
C227 N223 1.374 . S
C227 C226 1.439 . S
C227 C252 1.395 . S
N228 Co217 1.995 . S
N228 C229 1.376 . S
N228 C232 1.383 . S
C229 N228 1.376 . S
C229 C230 1.446 . S
C229 C252 1.391 . S
C230 C229 1.446 . S
C230 C231 1.339 . S
C230 H259 0.949 . S
C231 C230 1.339 . S
C231 C232 1.439 . S
C231 H260 0.950 . S
C232 N228 1.383 . S
C232 C231 1.439 . S
C232 C250 1.387 1_554 S
N233 Co217 2.282 . S
N233 C236 1.332 . S
N233 C238 1.332 . S
C234 C235 1.386 . S
C234 C237 1.388 . S
C235 C234 1.386 . S
C235 C236 1.382 . S
C235 H261 0.950 . S
C236 N233 1.332 . S
C236 C235 1.382 . S
C236 H247 0.952 . S
C237 C234 1.388 . S
C237 C238 1.382 . S
C237 H262 0.950 . S
C238 N233 1.332 . S
C238 C237 1.382 . S
C238 H248 0.948 . S
N239 Co217 2.282 1_556 S
N239 C243 1.332 . S
N239 C244 1.332 . S
C240 C241 1.388 . S
C240 C244 1.382 . S
C240 H263 0.950 . S
C241 C240 1.388 . S
C241 C242 1.386 . S
C242 C241 1.386 . S
C242 C243 1.382 . S
C242 H264 0.950 . S
C243 N239 1.332 . S
C243 C242 1.382 . S
C243 H245 0.952 . S
C244 N239 1.332 . S
C244 C240 1.382 . S
C244 H246 0.948 . S
H245 C243 0.952 . S
H246 C244 0.948 . S
H247 C236 0.952 . S
H248 C238 0.948 . S
C249 C215 1.395 . S
C249 C219 1.391 . S
C250 C212 1.388 1_556 S
C250 C232 1.387 1_556 S
C251 C222 1.392 . S
C251 C224 1.389 . S
C252 C227 1.395 . S
C252 C229 1.391 . S
H253 C213 0.951 . S
H254 C214 0.950 . S
H255 C220 0.949 . S
H256 C221 0.950 . S
H257 C225 0.951 1_655 S
H258 C226 0.950 . S
H259 C230 0.949 . S
H260 C231 0.950 . S
H261 C235 0.950 . S
H262 C237 0.950 . S
H263 C240 0.950 . S
H264 C242 0.950 . S
C265 C266 1.443 . S
C265 N269 1.376 . S
C265 C303 1.389 . S
C266 C265 1.443 . S
C266 C267 1.340 . S
C266 H306 0.951 . S
C267 C266 1.340 . S
C267 C268 1.439 . S
C267 H307 0.950 . S
C268 C267 1.439 . S
C268 N269 1.374 . S
C268 C302 1.395 . S
N269 C265 1.376 . S
N269 C268 1.374 . S
N269 Co270 2.008 . S
Co270 N269 2.008 . S
Co270 N271 1.995 . S
Co270 N276 2.008 . S
Co270 N281 1.995 . S
Co270 N286 2.282 . S
Co270 N292 2.282 . S
N271 Co270 1.995 . S
N271 C272 1.376 . S
N271 C275 1.383 . S
C272 N271 1.376 . S
C272 C273 1.446 . S
C272 C302 1.391 . S
C273 C272 1.446 . S
C273 C274 1.339 . S
C273 H308 0.949 . S
C274 C273 1.339 . S
C274 C275 1.439 . S
C274 H309 0.950 . S
C275 N271 1.383 . S
C275 C274 1.439 . S
C275 C304 1.392 . S
N276 Co270 2.008 . S
N276 C277 1.376 . S
N276 C280 1.374 . S
C277 N276 1.376 . S
C277 C278 1.443 . S
C277 C304 1.389 . S
C278 C277 1.443 . S
C278 C279 1.340 . S
C278 H310 0.951 . S
C279 C278 1.340 . S
C279 C280 1.439 . S
C279 H311 0.950 . S
C280 N276 1.374 . S
C280 C279 1.439 . S
C280 C305 1.395 . S
N281 Co270 1.995 . S
N281 C282 1.376 . S
N281 C285 1.383 . S
C282 N281 1.376 . S
C282 C283 1.446 . S
C282 C305 1.391 . S
C283 C282 1.446 . S
C283 C284 1.339 . S
C283 H312 0.949 . S
C284 C283 1.339 . S
C284 C285 1.439 . S
C284 H313 0.950 . S
C285 N281 1.383 . S
C285 C284 1.439 . S
C285 C303 1.392 . S
N286 Co270 2.282 . S
N286 C289 1.332 . S
N286 C291 1.332 . S
C287 C288 1.386 . S
C287 C290 1.388 . S
C288 C287 1.386 . S
C288 C289 1.382 . S
C288 H314 0.950 . S
C289 N286 1.332 . S
C289 C288 1.382 . S
C289 H300 0.952 . S
C290 C287 1.388 . S
C290 C291 1.382 . S
C290 H315 0.950 . S
C291 N286 1.332 . S
C291 C290 1.382 . S
C291 H301 0.948 . S
N292 Co270 2.282 . S
N292 C296 1.332 . S
N292 C297 1.332 . S
C293 C294 1.388 . S
C293 C297 1.382 . S
C293 H316 0.950 . S
C294 C293 1.388 . S
C294 C295 1.386 . S
C295 C294 1.386 . S
C295 C296 1.382 . S
C295 H317 0.950 . S
C296 N292 1.332 . S
C296 C295 1.382 . S
C296 H298 0.952 . S
C297 N292 1.332 . S
C297 C293 1.382 . S
C297 H299 0.948 . S
H298 C296 0.952 . S
H299 C297 0.948 . S
H300 C289 0.952 . S
H301 C291 0.948 . S
C302 C268 1.395 . S
C302 C272 1.391 . S
C303 C265 1.389 . S
C303 C285 1.392 . S
C304 C275 1.392 . S
C304 C277 1.389 . S
C305 C280 1.395 . S
C305 C282 1.391 . S
H306 C266 0.951 . S
H307 C267 0.950 . S
H308 C273 0.949 . S
H309 C274 0.950 . S
H310 C278 0.951 . S
H311 C279 0.950 . S
H312 C283 0.949 . S
H313 C284 0.950 . S
H314 C288 0.950 . S
H315 C290 0.950 . S
H316 C293 0.950 . S
H317 C295 0.950 . S
C318 C319 1.443 . S
C318 N322 1.376 . S
C318 C356 1.389 . S
C319 C318 1.443 . S
C319 C320 1.340 . S
C319 H359 0.951 . S
C320 C319 1.340 . S
C320 C321 1.439 . S
C320 H360 0.950 . S
C321 C320 1.439 . S
C321 N322 1.374 . S
C321 C355 1.395 . S
N322 C318 1.376 . S
N322 C321 1.374 . S
N322 Co323 2.008 . S
Co323 N322 2.008 . S
Co323 N324 1.995 . S
Co323 N329 2.008 . S
Co323 N334 1.995 . S
Co323 N339 2.282 . S
Co323 N345 2.282 . S
N324 Co323 1.995 . S
N324 C325 1.376 . S
N324 C328 1.383 . S
C325 N324 1.376 . S
C325 C326 1.446 . S
C325 C355 1.391 . S
C326 C325 1.446 . S
C326 C327 1.339 . S
C326 H361 0.949 . S
C327 C326 1.339 . S
C327 C328 1.439 . S
C327 H362 0.950 . S
C328 N324 1.383 . S
C328 C327 1.439 . S
C328 C357 1.392 . S
N329 Co323 2.008 . S
N329 C330 1.376 . S
N329 C333 1.374 . S
C330 N329 1.376 . S
C330 C331 1.443 . S
C330 C357 1.389 . S
C331 C330 1.443 . S
C331 C332 1.340 . S
C331 H363 0.951 . S
C332 C331 1.340 . S
C332 C333 1.439 . S
C332 H364 0.950 . S
C333 N329 1.374 . S
C333 C332 1.439 . S
C333 C358 1.395 . S
N334 Co323 1.995 . S
N334 C335 1.376 . S
N334 C338 1.383 . S
C335 N334 1.376 . S
C335 C336 1.446 . S
C335 C358 1.391 . S
C336 C335 1.446 . S
C336 C337 1.339 . S
C336 H365 0.949 . S
C337 C336 1.339 . S
C337 C338 1.439 . S
C337 H366 0.950 . S
C338 N334 1.383 . S
C338 C337 1.439 . S
C338 C356 1.392 . S
N339 Co323 2.282 . S
N339 C342 1.332 . S
N339 C344 1.332 . S
C340 C341 1.386 . S
C340 C343 1.388 . S
C341 C340 1.386 . S
C341 C342 1.382 . S
C341 H367 0.950 . S
C342 N339 1.332 . S
C342 C341 1.382 . S
C342 H353 0.952 . S
C343 C340 1.388 . S
C343 C344 1.382 . S
C343 H368 0.950 . S
C344 N339 1.332 . S
C344 C343 1.382 . S
C344 H354 0.948 . S
N345 Co323 2.282 . S
N345 C349 1.332 . S
N345 C350 1.332 . S
C346 C347 1.388 . S
C346 C350 1.382 . S
C346 H369 0.950 . S
C347 C346 1.388 . S
C347 C348 1.386 . S
C348 C347 1.386 . S
C348 C349 1.382 . S
C348 H370 0.950 . S
C349 N345 1.332 . S
C349 C348 1.382 . S
C349 H351 0.952 . S
C350 N345 1.332 . S
C350 C346 1.382 . S
C350 H352 0.948 . S
H351 C349 0.952 . S
H352 C350 0.948 . S
H353 C342 0.952 . S
H354 C344 0.948 . S
C355 C321 1.395 . S
C355 C325 1.391 . S
C356 C318 1.389 . S
C356 C338 1.392 . S
C357 C328 1.392 . S
C357 C330 1.389 . S
C358 C333 1.395 . S
C358 C335 1.391 . S
H359 C319 0.951 . S
H360 C320 0.950 . S
H361 C326 0.949 . S
H362 C327 0.950 . S
H363 C331 0.951 . S
H364 C332 0.950 . S
H365 C336 0.949 . S
H366 C337 0.950 . S
H367 C341 0.950 . S
H368 C343 0.950 . S
H369 C346 0.950 . S
H370 C348 0.950 . S
C371 C372 1.443 . S
C371 N375 1.376 . S
C371 C409 1.389 . S
C372 C371 1.443 . S
C372 C373 1.340 . S
C372 H412 0.951 . S
C373 C372 1.340 . S
C373 C374 1.439 . S
C373 H413 0.950 . S
C374 C373 1.439 . S
C374 N375 1.374 . S
C374 C408 1.395 . S
N375 C371 1.376 . S
N375 C374 1.374 . S
N375 Co376 2.008 . S
Co376 N375 2.008 . S
Co376 N377 1.995 . S
Co376 N382 2.008 . S
Co376 N387 1.995 . S
Co376 N392 2.282 . S
Co376 N398 2.282 . S
N377 Co376 1.995 . S
N377 C378 1.376 . S
N377 C381 1.383 . S
C378 N377 1.376 . S
C378 C379 1.446 . S
C378 C408 1.391 . S
C379 C378 1.446 . S
C379 C380 1.339 . S
C379 H414 0.949 . S
C380 C379 1.339 . S
C380 C381 1.439 . S
C380 H415 0.950 . S
C381 N377 1.383 . S
C381 C380 1.439 . S
C381 C410 1.392 . S
N382 Co376 2.008 . S
N382 C383 1.376 . S
N382 C386 1.374 . S
C383 N382 1.376 . S
C383 C384 1.443 . S
C383 C410 1.389 . S
C384 C383 1.443 . S
C384 C385 1.340 . S
C384 H416 0.951 . S
C385 C384 1.340 . S
C385 C386 1.439 . S
C385 H417 0.950 1_655 S
C386 N382 1.374 . S
C386 C385 1.439 . S
C386 C411 1.395 . S
N387 Co376 1.995 . S
N387 C388 1.376 . S
N387 C391 1.383 . S
C388 N387 1.376 . S
C388 C389 1.446 . S
C388 C411 1.391 . S
C389 C388 1.446 . S
C389 C390 1.339 . S
C389 H418 0.949 1_655 S
C390 C389 1.339 . S
C390 C391 1.439 . S
C390 H419 0.950 . S
C391 N387 1.383 . S
C391 C390 1.439 . S
C391 C409 1.392 . S
N392 Co376 2.282 . S
N392 C395 1.332 . S
N392 C397 1.332 . S
C393 C394 1.386 . S
C393 C396 1.388 . S
C394 C393 1.386 . S
C394 C395 1.382 . S
C394 H420 0.950 . S
C395 N392 1.332 . S
C395 C394 1.382 . S
C395 H406 0.952 . S
C396 C393 1.388 . S
C396 C397 1.382 . S
C396 H421 0.950 . S
C397 N392 1.332 . S
C397 C396 1.382 . S
C397 H407 0.948 . S
N398 Co376 2.282 . S
N398 C402 1.332 . S
N398 C403 1.332 . S
C399 C400 1.388 . S
C399 C403 1.382 . S
C399 H422 0.950 . S
C400 C399 1.388 . S
C400 C401 1.386 . S
C401 C400 1.386 . S
C401 C402 1.382 . S
C401 H423 0.950 . S
C402 N398 1.332 . S
C402 C401 1.382 . S
C402 H404 0.952 . S
C403 N398 1.332 . S
C403 C399 1.382 . S
C403 H405 0.948 . S
H404 C402 0.952 . S
H405 C403 0.948 . S
H406 C395 0.952 . S
H407 C397 0.948 . S
C408 C374 1.395 . S
C408 C378 1.391 . S
C409 C371 1.389 . S
C409 C391 1.392 . S
C410 C381 1.392 . S
C410 C383 1.389 . S
C411 C386 1.395 . S
C411 C388 1.391 . S
H412 C372 0.951 . S
H413 C373 0.950 . S
H414 C379 0.949 . S
H415 C380 0.950 . S
H416 C384 0.951 . S
H417 C385 0.950 1_455 S
H418 C389 0.949 1_455 S
H419 C390 0.950 . S
H420 C394 0.950 . S
H421 C396 0.950 . S
H422 C399 0.950 . S
H423 C401 0.950 . S
C424 C425 1.443 . S
C424 N428 1.376 . S
C424 C462 1.389 . S
C425 C424 1.443 . S
C425 C426 1.340 . S
C425 H465 0.951 . S
C426 C425 1.340 . S
C426 C427 1.439 . S
C426 H466 0.950 . S
C427 C426 1.439 . S
C427 N428 1.374 . S
C427 C461 1.395 . S
N428 C424 1.376 . S
N428 C427 1.374 . S
N428 Co429 2.008 . S
Co429 N428 2.008 . S
Co429 N430 1.995 . S
Co429 N435 2.008 . S
Co429 N440 1.995 . S
Co429 N445 2.282 . S
Co429 N451 2.282 . S
N430 Co429 1.995 . S
N430 C431 1.376 . S
N430 C434 1.383 . S
C431 N430 1.376 . S
C431 C432 1.446 . S
C431 C461 1.391 . S
C432 C431 1.446 . S
C432 C433 1.339 . S
C432 H467 0.949 . S
C433 C432 1.339 . S
C433 C434 1.439 . S
C433 H468 0.950 . S
C434 N430 1.383 . S
C434 C433 1.439 . S
C434 C463 1.392 . S
N435 Co429 2.008 . S
N435 C436 1.376 . S
N435 C439 1.374 . S
C436 N435 1.376 . S
C436 C437 1.443 . S
C436 C463 1.389 . S
C437 C436 1.443 . S
C437 C438 1.340 . S
C437 H469 0.951 . S
C438 C437 1.340 . S
C438 C439 1.439 . S
C438 H470 0.950 . S
C439 N435 1.374 . S
C439 C438 1.439 . S
C439 C464 1.395 . S
N440 Co429 1.995 . S
N440 C441 1.376 . S
N440 C444 1.383 . S
C441 N440 1.376 . S
C441 C442 1.446 . S
C441 C464 1.391 . S
C442 C441 1.446 . S
C442 C443 1.339 . S
C442 H471 0.949 . S
C443 C442 1.339 . S
C443 C444 1.439 . S
C443 H472 0.950 . S
C444 N440 1.383 . S
C444 C443 1.439 . S
C444 C462 1.392 . S
N445 Co429 2.282 . S
N445 C448 1.332 . S
N445 C450 1.332 . S
C446 C447 1.386 . S
C446 C449 1.388 . S
C447 C446 1.386 . S
C447 C448 1.382 . S
C447 H473 0.950 . S
C448 N445 1.332 . S
C448 C447 1.382 . S
C448 H459 0.952 . S
C449 C446 1.388 . S
C449 C450 1.382 . S
C449 H474 0.950 . S
C450 N445 1.332 . S
C450 C449 1.382 . S
C450 H460 0.948 . S
N451 Co429 2.282 . S
N451 C455 1.332 . S
N451 C456 1.332 . S
C452 C453 1.388 . S
C452 C456 1.382 . S
C452 H475 0.950 . S
C453 C452 1.388 . S
C453 C454 1.386 . S
C454 C453 1.386 . S
C454 C455 1.382 . S
C454 H476 0.950 . S
C455 N451 1.332 . S
C455 C454 1.382 . S
C455 H457 0.952 . S
C456 N451 1.332 . S
C456 C452 1.382 . S
C456 H458 0.948 . S
H457 C455 0.952 . S
H458 C456 0.948 . S
H459 C448 0.952 . S
H460 C450 0.948 . S
C461 C427 1.395 . S
C461 C431 1.391 . S
C462 C424 1.389 . S
C462 C444 1.392 . S
C463 C434 1.392 . S
C463 C436 1.389 . S
C464 C439 1.395 . S
C464 C441 1.391 . S
H465 C425 0.951 . S
H466 C426 0.950 . S
H467 C432 0.949 . S
H468 C433 0.950 . S
H469 C437 0.951 . S
H470 C438 0.950 . S
H471 C442 0.949 . S
H472 C443 0.950 . S
H473 C447 0.950 . S
H474 C449 0.950 . S
H475 C452 0.950 . S
H476 C454 0.950 . S
C477 C478 1.443 . S
C477 N481 1.376 . S
C477 C515 1.389 . S
C478 C477 1.443 . S
C478 C479 1.340 . S
C478 H518 0.951 . S
C479 C478 1.340 . S
C479 C480 1.439 1_556 S
C479 H519 0.950 . S
C480 C479 1.439 1_554 S
C480 N481 1.374 1_554 S
C480 C514 1.395 . S
N481 C477 1.376 . S
N481 C480 1.374 1_556 S
N481 Co482 2.008 1_556 S
Co482 N481 2.008 1_554 S
Co482 N483 1.995 . S
Co482 N488 2.008 . S
Co482 N493 1.996 1_554 S
Co482 N498 2.282 . S
Co482 N504 2.282 . S
N483 Co482 1.995 . S
N483 C484 1.376 . S
N483 C487 1.383 . S
C484 N483 1.376 . S
C484 C485 1.446 . S
C484 C514 1.391 . S
C485 C484 1.446 . S
C485 C486 1.339 . S
C485 H520 0.949 . S
C486 C485 1.339 . S
C486 C487 1.439 . S
C486 H521 0.950 . S
C487 N483 1.383 . S
C487 C486 1.439 . S
C487 C516 1.392 . S
N488 Co482 2.008 . S
N488 C489 1.376 . S
N488 C492 1.374 . S
C489 N488 1.376 . S
C489 C490 1.443 . S
C489 C516 1.389 . S
C490 C489 1.443 . S
C490 C491 1.340 . S
C490 H522 0.951 . S
C491 C490 1.340 . S
C491 C492 1.439 . S
C491 H523 0.950 . S
C492 N488 1.374 . S
C492 C491 1.439 . S
C492 C517 1.395 . S
N493 Co482 1.996 1_556 S
N493 C494 1.376 1_556 S
N493 C497 1.381 . S
C494 N493 1.376 1_554 S
C494 C495 1.446 1_554 S
C494 C517 1.391 . S
C495 C494 1.446 1_556 S
C495 C496 1.339 . S
C495 H524 0.949 . S
C496 C495 1.339 . S
C496 C497 1.439 . S
C496 H525 0.950 . S
C497 N493 1.381 . S
C497 C496 1.439 . S
C497 C515 1.392 . S
N498 Co482 2.282 . S
N498 C501 1.332 . S
N498 C503 1.332 . S
C499 C500 1.386 . S
C499 C502 1.388 . S
C500 C499 1.386 . S
C500 C501 1.382 . S
C500 H526 0.950 . S
C501 N498 1.332 . S
C501 C500 1.382 . S
C501 H512 0.952 . S
C502 C499 1.388 . S
C502 C503 1.382 . S
C502 H527 0.950 . S
C503 N498 1.332 . S
C503 C502 1.382 . S
C503 H513 0.948 . S
N504 Co482 2.282 . S
N504 C508 1.332 . S
N504 C509 1.332 . S
C505 C506 1.388 . S
C505 C509 1.382 . S
C505 H528 0.950 1_554 S
C506 C505 1.388 . S
C506 C507 1.386 . S
C507 C506 1.386 . S
C507 C508 1.382 . S
C507 H529 0.950 . S
C508 N504 1.332 . S
C508 C507 1.382 . S
C508 H510 0.952 . S
C509 N504 1.332 . S
C509 C505 1.382 . S
C509 H511 0.948 . S
H510 C508 0.952 . S
H511 C509 0.948 . S
H512 C501 0.952 . S
H513 C503 0.948 . S
C514 C480 1.395 . S
C514 C484 1.391 . S
C515 C477 1.389 . S
C515 C497 1.392 . S
C516 C487 1.392 . S
C516 C489 1.389 . S
C517 C492 1.395 . S
C517 C494 1.391 . S
H518 C478 0.951 . S
H519 C479 0.950 . S
H520 C485 0.949 . S
H521 C486 0.950 . S
H522 C490 0.951 . S
H523 C491 0.950 . S
H524 C495 0.949 . S
H525 C496 0.950 . S
H526 C500 0.950 . S
H527 C502 0.950 . S
H528 C505 0.950 1_556 S
H529 C507 0.950 . S
C530 C531 1.443 . S
C530 N534 1.376 . S
C530 C568 1.389 . S
C531 C530 1.443 . S
C531 C532 1.340 . S
C531 H571 0.951 . S
C532 C531 1.340 . S
C532 C533 1.439 . S
C532 H572 0.950 . S
C533 C532 1.439 . S
C533 N534 1.374 . S
C533 C567 1.395 . S
N534 C530 1.376 . S
N534 C533 1.374 . S
N534 Co535 2.008 . S
Co535 N534 2.008 . S
Co535 N536 1.995 . S
Co535 N541 2.008 . S
Co535 N546 1.995 . S
Co535 N551 2.282 . S
Co535 N557 2.282 . S
N536 Co535 1.995 . S
N536 C537 1.376 . S
N536 C540 1.383 . S
C537 N536 1.376 . S
C537 C538 1.446 . S
C537 C567 1.391 . S
C538 C537 1.446 . S
C538 C539 1.339 . S
C538 H573 0.999 . S
C539 C538 1.339 . S
C539 C540 1.439 . S
C539 H574 0.950 . S
C540 N536 1.383 . S
C540 C539 1.439 . S
C540 C569 1.392 . S
N541 Co535 2.008 . S
N541 C542 1.376 . S
N541 C545 1.374 . S
C542 N541 1.376 . S
C542 C543 1.443 . S
C542 C569 1.389 . S
C543 C542 1.443 . S
C543 C544 1.340 . S
C543 H575 0.951 1_655 S
C544 C543 1.340 . S
C544 C545 1.439 . S
C544 H576 0.950 . S
C545 N541 1.374 . S
C545 C544 1.439 . S
C545 C570 1.395 . S
N546 Co535 1.995 . S
N546 C547 1.376 . S
N546 C550 1.383 . S
C547 N546 1.376 . S
C547 C548 1.446 . S
C547 C570 1.391 . S
C548 C547 1.446 . S
C548 C549 1.339 . S
C548 H577 0.949 . S
C549 C548 1.339 . S
C549 C550 1.439 . S
C549 H578 0.950 . S
C550 N546 1.383 . S
C550 C549 1.439 . S
C550 C568 1.392 . S
N551 Co535 2.282 . S
N551 C554 1.332 . S
N551 C556 1.332 . S
C552 C553 1.386 . S
C552 C555 1.388 . S
C553 C552 1.386 . S
C553 C554 1.382 . S
C553 H579 0.950 . S
C554 N551 1.332 . S
C554 C553 1.382 . S
C554 H565 0.952 . S
C555 C552 1.388 . S
C555 C556 1.382 . S
C555 H580 0.950 . S
C556 N551 1.332 . S
C556 C555 1.382 . S
C556 H566 0.948 . S
N557 Co535 2.282 . S
N557 C561 1.332 . S
N557 C562 1.332 . S
C558 C559 1.388 . S
C558 C562 1.382 . S
C558 H581 0.950 . S
C559 C558 1.388 . S
C559 C560 1.386 . S
C560 C559 1.386 . S
C560 C561 1.382 . S
C560 H582 0.950 . S
C561 N557 1.332 . S
C561 C560 1.382 . S
C561 H563 0.952 . S
C562 N557 1.332 . S
C562 C558 1.382 . S
C562 H564 0.948 . S
H563 C561 0.952 . S
H564 C562 0.948 . S
H565 C554 0.952 . S
H566 C556 0.948 . S
C567 C533 1.395 . S
C567 C537 1.391 . S
C568 C530 1.389 . S
C568 C550 1.392 . S
C569 C540 1.392 . S
C569 C542 1.389 . S
C570 C545 1.395 . S
C570 C547 1.391 . S
H571 C531 0.951 . S
H572 C532 0.950 . S
H573 C538 0.999 . S
H574 C539 0.950 . S
H575 C543 0.951 1_455 S
H576 C544 0.950 . S
H577 C548 0.949 . S
H578 C549 0.950 . S
H579 C553 0.950 . S
H580 C555 0.950 . S
H581 C558 0.950 . S
H582 C560 0.950 . S
C583 C584 1.443 . S
C583 N587 1.376 . S
C583 C621 1.389 . S
C584 C583 1.443 . S
C584 C585 1.340 . S
C584 H624 0.951 . S
C585 C584 1.340 . S
C585 C586 1.439 . S
C585 H625 0.950 . S
C586 C585 1.439 . S
C586 N587 1.374 . S
C586 C620 1.395 . S
N587 C583 1.376 . S
N587 C586 1.374 . S
N587 Co588 2.008 . S
Co588 N587 2.008 . S
Co588 N589 1.995 . S
Co588 N594 2.008 . S
Co588 N599 1.995 . S
Co588 N604 2.282 . S
Co588 N610 2.282 . S
N589 Co588 1.995 . S
N589 C590 1.376 . S
N589 C593 1.383 . S
C590 N589 1.376 . S
C590 C591 1.446 . S
C590 C620 1.391 . S
C591 C590 1.446 . S
C591 C592 1.339 . S
C591 H626 0.949 . S
C592 C591 1.339 . S
C592 C593 1.439 . S
C592 H627 0.950 . S
C593 N589 1.383 . S
C593 C592 1.439 . S
C593 C622 1.392 . S
N594 Co588 2.008 . S
N594 C595 1.376 . S
N594 C598 1.374 . S
C595 N594 1.376 . S
C595 C596 1.443 . S
C595 C622 1.389 . S
C596 C595 1.443 . S
C596 C597 1.340 . S
C596 H628 0.951 . S
C597 C596 1.340 . S
C597 C598 1.439 . S
C597 H629 0.950 1_455 S
C598 N594 1.374 . S
C598 C597 1.439 . S
C598 C623 1.395 . S
N599 Co588 1.995 . S
N599 C600 1.376 . S
N599 C603 1.383 . S
C600 N599 1.376 . S
C600 C601 1.446 . S
C600 C623 1.391 . S
C601 C600 1.446 . S
C601 C602 1.339 . S
C601 H630 0.949 1_455 S
C602 C601 1.339 . S
C602 C603 1.439 . S
C602 H631 0.950 . S
C603 N599 1.383 . S
C603 C602 1.439 . S
C603 C621 1.392 . S
N604 Co588 2.282 . S
N604 C607 1.332 . S
N604 C609 1.332 . S
C605 C606 1.386 . S
C605 C608 1.388 . S
C606 C605 1.386 . S
C606 C607 1.382 . S
C606 H632 0.950 . S
C607 N604 1.332 . S
C607 C606 1.382 . S
C607 H618 0.952 . S
C608 C605 1.388 . S
C608 C609 1.382 . S
C608 H633 0.950 . S
C609 N604 1.332 . S
C609 C608 1.382 . S
C609 H619 0.948 . S
N610 Co588 2.282 . S
N610 C614 1.332 . S
N610 C615 1.332 . S
C611 C612 1.388 . S
C611 C615 1.382 . S
C611 H634 0.950 . S
C612 C611 1.388 . S
C612 C613 1.386 . S
C613 C612 1.386 . S
C613 C614 1.382 . S
C613 H635 0.950 . S
C614 N610 1.332 . S
C614 C613 1.382 . S
C614 H616 0.952 . S
C615 N610 1.332 . S
C615 C611 1.382 . S
C615 H617 0.948 . S
H616 C614 0.952 . S
H617 C615 0.948 . S
H618 C607 0.952 . S
H619 C609 0.948 . S
C620 C586 1.395 . S
C620 C590 1.391 . S
C621 C583 1.389 . S
C621 C603 1.392 . S
C622 C593 1.392 . S
C622 C595 1.389 . S
C623 C598 1.395 . S
C623 C600 1.391 . S
H624 C584 0.951 . S
H625 C585 0.950 . S
H626 C591 0.949 . S
H627 C592 0.950 . S
H628 C596 0.951 . S
H629 C597 0.950 1_655 S
H630 C601 0.949 1_655 S
H631 C602 0.950 . S
H632 C606 0.950 . S
H633 C608 0.950 . S
H634 C611 0.950 . S
H635 C613 0.950 . S
C636 C637 1.443 . S
C636 N640 1.376 . S
C636 C674 1.389 . S
C637 C636 1.443 . S
C637 C638 1.340 . S
C637 H677 0.951 . S
C638 C637 1.340 . S
C638 C639 1.439 . S
C638 H678 0.950 . S
C639 C638 1.439 . S
C639 N640 1.374 . S
C639 C673 1.395 . S
N640 C636 1.376 . S
N640 C639 1.374 . S
N640 Co641 2.008 . S
Co641 N640 2.008 . S
Co641 N642 1.995 . S
Co641 N647 2.008 . S
Co641 N652 1.995 . S
Co641 N657 2.282 . S
Co641 N663 2.282 . S
N642 Co641 1.995 . S
N642 C643 1.376 . S
N642 C646 1.383 . S
C643 N642 1.376 . S
C643 C644 1.446 . S
C643 C673 1.391 . S
C644 C643 1.446 . S
C644 C645 1.339 . S
C644 H679 0.949 . S
C645 C644 1.339 . S
C645 C646 1.439 . S
C645 H680 0.950 . S
C646 N642 1.383 . S
C646 C645 1.439 . S
C646 C675 1.392 . S
N647 Co641 2.008 . S
N647 C648 1.376 . S
N647 C651 1.374 . S
C648 N647 1.376 . S
C648 C649 1.443 . S
C648 C675 1.389 . S
C649 C648 1.443 . S
C649 C650 1.340 . S
C649 H681 0.951 . S
C650 C649 1.340 . S
C650 C651 1.439 . S
C650 H682 0.950 . S
C651 N647 1.374 . S
C651 C650 1.439 . S
C651 C676 1.395 . S
N652 Co641 1.995 . S
N652 C653 1.376 . S
N652 C656 1.383 . S
C653 N652 1.376 . S
C653 C654 1.446 . S
C653 C676 1.391 . S
C654 C653 1.446 . S
C654 C655 1.339 . S
C654 H683 0.949 . S
C655 C654 1.339 . S
C655 C656 1.439 . S
C655 H684 0.950 . S
C656 N652 1.383 . S
C656 C655 1.439 . S
C656 C674 1.392 . S
N657 Co641 2.282 . S
N657 C660 1.332 . S
N657 C662 1.332 . S
C658 C659 1.386 . S
C658 C661 1.388 . S
C659 C658 1.386 . S
C659 C660 1.382 . S
C659 H685 0.950 . S
C660 N657 1.332 . S
C660 C659 1.382 . S
C660 H671 0.952 . S
C661 C658 1.388 . S
C661 C662 1.382 . S
C661 H686 0.950 . S
C662 N657 1.332 . S
C662 C661 1.382 . S
C662 H672 0.948 . S
N663 Co641 2.282 . S
N663 C667 1.332 . S
N663 C668 1.332 . S
C664 C665 1.388 . S
C664 C668 1.382 . S
C664 H687 0.950 . S
C665 C664 1.388 . S
C665 C666 1.386 . S
C666 C665 1.386 . S
C666 C667 1.382 . S
C666 H688 0.950 . S
C667 N663 1.332 . S
C667 C666 1.382 . S
C667 H669 0.952 . S
C668 N663 1.332 . S
C668 C664 1.382 . S
C668 H670 0.948 . S
H669 C667 0.952 . S
H670 C668 0.948 . S
H671 C660 0.952 . S
H672 C662 0.948 . S
C673 C639 1.395 . S
C673 C643 1.391 . S
C674 C636 1.389 . S
C674 C656 1.392 . S
C675 C646 1.392 . S
C675 C648 1.389 . S
C676 C651 1.395 . S
C676 C653 1.391 . S
H677 C637 0.951 . S
H678 C638 0.950 . S
H679 C644 0.949 . S
H680 C645 0.950 . S
H681 C649 0.951 . S
H682 C650 0.950 . S
H683 C654 0.949 . S
H684 C655 0.950 . S
H685 C659 0.950 . S
H686 C661 0.950 . S
H687 C664 0.950 . S
H688 C666 0.950 . S
C689 C690 1.443 . S
C689 N693 1.376 . S
C689 C727 1.389 . S
C690 C689 1.443 . S
C690 C691 1.340 . S
C690 H730 0.951 . S
C691 C690 1.340 . S
C691 C692 1.439 . S
C691 H731 0.950 . S
C692 C691 1.439 . S
C692 N693 1.374 . S
C692 C726 1.395 . S
N693 C689 1.376 . S
N693 C692 1.374 . S
N693 Co694 2.008 . S
Co694 N693 2.008 . S
Co694 N695 1.995 . S
Co694 N700 2.008 . S
Co694 N705 1.995 . S
Co694 N710 2.282 . S
Co694 N716 2.282 . S
N695 Co694 1.995 . S
N695 C696 1.376 . S
N695 C699 1.383 . S
C696 N695 1.376 . S
C696 C697 1.446 . S
C696 C726 1.391 . S
C697 C696 1.446 . S
C697 C698 1.339 . S
C697 H732 0.949 . S
C698 C697 1.339 . S
C698 C699 1.439 . S
C698 H733 0.950 . S
C699 N695 1.383 . S
C699 C698 1.439 . S
C699 C728 1.392 . S
N700 Co694 2.008 . S
N700 C701 1.376 . S
N700 C704 1.374 . S
C701 N700 1.376 . S
C701 C702 1.443 . S
C701 C728 1.389 . S
C702 C701 1.443 . S
C702 C703 1.340 . S
C702 H734 0.951 . S
C703 C702 1.340 . S
C703 C704 1.439 . S
C703 H735 0.950 1_455 S
C704 N700 1.374 . S
C704 C703 1.439 . S
C704 C729 1.395 . S
N705 Co694 1.995 . S
N705 C706 1.376 . S
N705 C709 1.383 . S
C706 N705 1.376 . S
C706 C707 1.446 . S
C706 C729 1.391 . S
C707 C706 1.446 . S
C707 C708 1.339 . S
C707 H736 0.949 1_455 S
C708 C707 1.339 . S
C708 C709 1.439 . S
C708 H737 0.950 . S
C709 N705 1.383 . S
C709 C708 1.439 . S
C709 C727 1.392 . S
N710 Co694 2.282 . S
N710 C713 1.332 . S
N710 C715 1.332 . S
C711 C712 1.386 . S
C711 C714 1.388 . S
C712 C711 1.386 . S
C712 C713 1.382 . S
C712 H738 0.950 . S
C713 N710 1.332 . S
C713 C712 1.382 . S
C713 H724 0.952 . S
C714 C711 1.388 . S
C714 C715 1.382 . S
C714 H739 0.950 . S
C715 N710 1.332 . S
C715 C714 1.382 . S
C715 H725 0.948 . S
N716 Co694 2.282 . S
N716 C720 1.332 . S
N716 C721 1.332 . S
C717 C718 1.388 . S
C717 C721 1.382 . S
C717 H740 0.950 . S
C718 C717 1.388 . S
C718 C719 1.386 . S
C719 C718 1.386 . S
C719 C720 1.382 . S
C719 H741 0.950 . S
C720 N716 1.332 . S
C720 C719 1.382 . S
C720 H722 0.952 . S
C721 N716 1.332 . S
C721 C717 1.382 . S
C721 H723 0.948 . S
H722 C720 0.952 . S
H723 C721 0.948 . S
H724 C713 0.952 . S
H725 C715 0.948 . S
C726 C692 1.395 . S
C726 C696 1.391 . S
C727 C689 1.389 . S
C727 C709 1.392 . S
C728 C699 1.392 . S
C728 C701 1.389 . S
C729 C704 1.395 . S
C729 C706 1.391 . S
H730 C690 0.951 . S
H731 C691 0.950 . S
H732 C697 0.949 . S
H733 C698 0.950 . S
H734 C702 0.951 . S
H735 C703 0.950 1_655 S
H736 C707 0.949 1_655 S
H737 C708 0.950 . S
H738 C712 0.950 . S
H739 C714 0.950 . S
H740 C717 0.950 . S
H741 C719 0.950 . S
C742 C743 1.437 1_554 S
C742 N746 1.383 . S
C742 C780 1.388 1_554 S
C743 C742 1.437 1_556 S
C743 C744 1.340 . S
C743 H783 0.951 . S
C744 C743 1.340 . S
C744 C745 1.439 1_556 S
C744 H784 0.950 . S
C745 C744 1.439 1_554 S
C745 N746 1.374 . S
C745 C779 1.395 . S
N746 C742 1.383 . S
N746 C745 1.374 . S
N746 Co747 2.008 . S
Co747 N746 2.008 . S
Co747 N748 1.995 . S
Co747 N753 2.008 . S
Co747 N758 1.995 . S
Co747 N763 2.282 . S
Co747 N769 2.282 1_554 S
N748 Co747 1.995 . S
N748 C749 1.376 . S
N748 C752 1.383 . S
C749 N748 1.376 . S
C749 C750 1.446 . S
C749 C779 1.391 . S
C750 C749 1.446 . S
C750 C751 1.339 . S
C750 H785 0.949 . S
C751 C750 1.339 . S
C751 C752 1.439 . S
C751 H786 0.950 . S
C752 N748 1.383 . S
C752 C751 1.439 . S
C752 C781 1.392 . S
N753 Co747 2.008 . S
N753 C754 1.376 . S
N753 C757 1.374 . S
C754 N753 1.376 . S
C754 C755 1.443 . S
C754 C781 1.389 . S
C755 C754 1.443 . S
C755 C756 1.340 . S
C755 H787 0.951 1_655 S
C756 C755 1.340 . S
C756 C757 1.439 . S
C756 H788 0.950 . S
C757 N753 1.374 . S
C757 C756 1.439 . S
C757 C782 1.395 . S
N758 Co747 1.995 . S
N758 C759 1.376 . S
N758 C762 1.383 . S
C759 N758 1.376 . S
C759 C760 1.446 . S
C759 C782 1.391 . S
C760 C759 1.446 . S
C760 C761 1.339 . S
C760 H789 0.949 . S
C761 C760 1.339 . S
C761 C762 1.439 . S
C761 H790 0.950 . S
C762 N758 1.383 . S
C762 C761 1.439 . S
C762 C780 1.387 1_554 S
N763 Co747 2.282 . S
N763 C766 1.332 . S
N763 C768 1.332 . S
C764 C765 1.386 . S
C764 C767 1.388 . S
C765 C764 1.386 . S
C765 C766 1.382 . S
C765 H791 0.950 . S
C766 N763 1.332 . S
C766 C765 1.382 . S
C766 H777 0.952 . S
C767 C764 1.388 . S
C767 C768 1.382 . S
C767 H792 0.950 . S
C768 N763 1.332 . S
C768 C767 1.382 . S
C768 H778 0.948 . S
N769 Co747 2.282 1_556 S
N769 C773 1.332 . S
N769 C774 1.332 . S
C770 C771 1.388 . S
C770 C774 1.382 . S
C770 H793 0.950 . S
C771 C770 1.388 . S
C771 C772 1.386 . S
C772 C771 1.386 . S
C772 C773 1.382 . S
C772 H794 0.950 . S
C773 N769 1.332 . S
C773 C772 1.382 . S
C773 H775 0.952 . S
C774 N769 1.332 . S
C774 C770 1.382 . S
C774 H776 0.948 . S
H775 C773 0.952 . S
H776 C774 0.948 . S
H777 C766 0.952 . S
H778 C768 0.948 . S
C779 C745 1.395 . S
C779 C749 1.391 . S
C780 C742 1.388 1_556 S
C780 C762 1.387 1_556 S
C781 C752 1.392 . S
C781 C754 1.389 . S
C782 C757 1.395 . S
C782 C759 1.391 . S
H783 C743 0.951 . S
H784 C744 0.950 . S
H785 C750 0.949 . S
H786 C751 0.950 . S
H787 C755 0.951 1_455 S
H788 C756 0.950 . S
H789 C760 0.949 . S
H790 C761 0.950 . S
H791 C765 0.950 . S
H792 C767 0.950 . S
H793 C770 0.950 . S
H794 C772 0.950 . S
C795 C796 1.443 . S
C795 N799 1.376 . S
C795 C833 1.389 . S
C796 C795 1.443 . S
C796 C797 1.340 . S
C796 H836 0.951 . S
C797 C796 1.340 . S
C797 C798 1.439 . S
C797 H837 0.950 . S
C798 C797 1.439 . S
C798 N799 1.374 . S
C798 C832 1.395 . S
N799 C795 1.376 . S
N799 C798 1.374 . S
N799 Co800 2.008 . S
Co800 N799 2.008 . S
Co800 N801 1.995 . S
Co800 N806 2.008 . S
Co800 N811 1.995 . S
Co800 N816 2.282 . S
Co800 N822 2.282 . S
N801 Co800 1.995 . S
N801 C802 1.376 . S
N801 C805 1.383 . S
C802 N801 1.376 . S
C802 C803 1.446 . S
C802 C832 1.391 . S
C803 C802 1.446 . S
C803 C804 1.339 . S
C803 H838 0.949 . S
C804 C803 1.339 . S
C804 C805 1.439 . S
C804 H839 0.950 . S
C805 N801 1.383 . S
C805 C804 1.439 . S
C805 C834 1.392 . S
N806 Co800 2.008 . S
N806 C807 1.376 . S
N806 C810 1.374 . S
C807 N806 1.376 . S
C807 C808 1.443 . S
C807 C834 1.389 . S
C808 C807 1.443 . S
C808 C809 1.340 . S
C808 H840 0.951 . S
C809 C808 1.340 . S
C809 C810 1.439 . S
C809 H841 0.950 . S
C810 N806 1.374 . S
C810 C809 1.439 . S
C810 C835 1.395 . S
N811 Co800 1.995 . S
N811 C812 1.376 . S
N811 C815 1.383 . S
C812 N811 1.376 . S
C812 C813 1.446 . S
C812 C835 1.391 . S
C813 C812 1.446 . S
C813 C814 1.339 . S
C813 H842 0.949 . S
C814 C813 1.339 . S
C814 C815 1.439 . S
C814 H843 0.950 . S
C815 N811 1.383 . S
C815 C814 1.439 . S
C815 C833 1.392 . S
N816 Co800 2.282 . S
N816 C819 1.332 . S
N816 C821 1.332 . S
C817 C818 1.386 . S
C817 C820 1.388 . S
C818 C817 1.386 . S
C818 C819 1.382 . S
C818 H844 0.950 . S
C819 N816 1.332 . S
C819 C818 1.382 . S
C819 H830 0.952 . S
C820 C817 1.388 . S
C820 C821 1.382 . S
C820 H845 0.950 . S
C821 N816 1.332 . S
C821 C820 1.382 . S
C821 H831 0.948 . S
N822 Co800 2.282 . S
N822 C826 1.332 . S
N822 C827 1.332 . S
C823 C824 1.388 . S
C823 C827 1.382 . S
C823 H846 0.950 . S
C824 C823 1.388 . S
C824 C825 1.386 . S
C825 C824 1.386 . S
C825 C826 1.382 . S
C825 H847 0.950 . S
C826 N822 1.332 . S
C826 C825 1.382 . S
C826 H828 0.952 . S
C827 N822 1.332 . S
C827 C823 1.382 . S
C827 H829 0.948 . S
H828 C826 0.952 . S
H829 C827 0.948 . S
H830 C819 0.952 . S
H831 C821 0.948 . S
C832 C798 1.395 . S
C832 C802 1.391 . S
C833 C795 1.389 . S
C833 C815 1.392 . S
C834 C805 1.392 . S
C834 C807 1.389 . S
C835 C810 1.395 . S
C835 C812 1.391 . S
H836 C796 0.951 . S
H837 C797 0.950 . S
H838 C803 0.949 . S
H839 C804 0.950 . S
H840 C808 0.951 . S
H841 C809 0.950 . S
H842 C813 0.949 . S
H843 C814 0.950 . S
H844 C818 0.950 . S
H845 C820 0.950 . S
H846 C823 0.950 . S
H847 C825 0.950 . S
C848 C849 1.363 . S
C848 C854 1.379 . S
C848 N856 1.356 . S
C849 C848 1.363 . S
C849 C855 1.363 . S
C850 C851 1.363 . S
C850 C855 1.379 . S
C850 N857 1.356 . S
C851 C850 1.363 . S
C851 C854 1.363 . S
N852 C854 1.356 . S
N852 H864 0.984 . S
N852 H865 0.985 . S
N853 C855 1.356 . S
N853 H858 0.984 . S
N853 H859 0.985 . S
C854 C848 1.379 . S
C854 C851 1.363 . S
C854 N852 1.356 . S
C855 C849 1.363 . S
C855 C850 1.379 . S
C855 N853 1.356 . S
N856 C848 1.356 . S
N856 H862 0.984 . S
N856 H863 0.984 . S
N857 C850 1.356 . S
N857 H860 0.984 . S
N857 H861 0.985 . S
H858 N853 0.984 . S
H859 N853 0.985 . S
H860 N857 0.984 . S
H861 N857 0.985 . S
H862 N856 0.984 . S
H863 N856 0.984 . S
H864 N852 0.984 . S
H865 N852 0.985 . S
C866 C867 1.363 . S
C866 C872 1.379 . S
C866 N874 1.356 . S
C867 C866 1.363 . S
C867 C873 1.363 . S
C868 C869 1.363 . S
C868 C873 1.379 . S
C868 N875 1.356 . S
C869 C868 1.363 . S
C869 C872 1.363 . S
N870 C872 1.356 . S
N870 H882 0.984 . S
N870 H883 0.985 . S
N871 C873 1.356 . S
N871 H876 0.984 . S
N871 H877 0.985 . S
C872 C866 1.379 . S
C872 C869 1.363 . S
C872 N870 1.356 . S
C873 C867 1.363 . S
C873 C868 1.379 . S
C873 N871 1.356 . S
N874 C866 1.356 . S
N874 H880 0.984 . S
N874 H881 0.984 . S
N875 C868 1.356 . S
N875 H878 0.984 . S
N875 H879 0.985 . S
H876 N871 0.984 . S
H877 N871 0.985 . S
H878 N875 0.984 . S
H879 N875 0.985 . S
H880 N874 0.984 . S
H881 N874 0.984 . S
H882 N870 0.984 . S
H883 N870 0.985 . S
C884 C885 1.363 . S
C884 C890 1.379 . S
C884 N892 1.356 . S
C885 C884 1.363 . S
C885 C891 1.363 . S
C886 C887 1.363 . S
C886 C891 1.379 . S
C886 N893 1.356 . S
C887 C886 1.363 . S
C887 C890 1.363 . S
N888 C890 1.356 . S
N888 H900 0.984 1_556 S
N888 H901 0.985 1_556 S
N889 C891 1.356 . S
N889 H894 0.984 . S
N889 H895 0.985 . S
C890 C884 1.379 . S
C890 C887 1.363 . S
C890 N888 1.356 . S
C891 C885 1.363 . S
C891 C886 1.379 . S
C891 N889 1.356 . S
N892 C884 1.356 . S
N892 H898 0.984 . S
N892 H899 0.984 . S
N893 C886 1.356 . S
N893 H896 0.984 . S
N893 H897 0.985 . S
H894 N889 0.984 . S
H895 N889 0.985 . S
H896 N893 0.984 . S
H897 N893 0.985 . S
H898 N892 0.984 . S
H899 N892 0.984 . S
H900 N888 0.984 1_554 S
H901 N888 0.985 1_554 S
C902 C903 1.363 . S
C902 C908 1.379 . S
C902 N910 1.356 . S
C903 C902 1.363 . S
C903 C909 1.363 . S
C904 C905 1.363 . S
C904 C909 1.379 . S
C904 N911 1.356 . S
C905 C904 1.363 . S
C905 C908 1.363 . S
N906 C908 1.356 . S
N906 H918 0.984 . S
N906 H919 0.985 . S
N907 C909 1.356 . S
N907 H912 0.984 . S
N907 H913 0.985 . S
C908 C902 1.379 . S
C908 C905 1.363 . S
C908 N906 1.356 . S
C909 C903 1.363 . S
C909 C904 1.379 . S
C909 N907 1.356 . S
N910 C902 1.356 . S
N910 H916 0.984 . S
N910 H917 0.984 . S
N911 C904 1.356 . S
N911 H914 0.984 . S
N911 H915 0.985 . S
H912 N907 0.984 . S
H913 N907 0.985 . S
H914 N911 0.984 . S
H915 N911 0.985 . S
H916 N910 0.984 . S
H917 N910 0.984 . S
H918 N906 0.984 . S
H919 N906 0.985 . S
C920 C921 1.363 . S
C920 C926 1.379 . S
C920 N928 1.356 . S
C921 C920 1.363 . S
C921 C927 1.363 . S
C922 C923 1.363 . S
C922 C927 1.379 . S
C922 N929 1.356 . S
C923 C922 1.363 . S
C923 C926 1.363 . S
N924 C926 1.356 . S
N924 H936 0.984 1_556 S
N924 H937 0.985 1_556 S
N925 C927 1.356 . S
N925 H930 0.984 . S
N925 H931 0.985 . S
C926 C920 1.379 . S
C926 C923 1.363 . S
C926 N924 1.356 . S
C927 C921 1.363 . S
C927 C922 1.379 . S
C927 N925 1.356 . S
N928 C920 1.356 . S
N928 H934 0.984 . S
N928 H935 0.984 . S
N929 C922 1.356 . S
N929 H932 0.984 . S
N929 H933 0.985 . S
H930 N925 0.984 . S
H931 N925 0.985 . S
H932 N929 0.984 . S
H933 N929 0.985 . S
H934 N928 0.984 . S
H935 N928 0.984 . S
H936 N924 0.984 1_554 S
H937 N924 0.985 1_554 S
C938 C939 1.363 . S
C938 C944 1.379 . S
C938 N946 1.356 . S
C939 C938 1.363 . S
C939 C945 1.363 . S
C940 C941 1.363 . S
C940 C945 1.379 . S
C940 N947 1.356 . S
C941 C940 1.363 . S
C941 C944 1.363 . S
N942 C944 1.356 . S
N942 H954 0.984 . S
N942 H955 0.985 . S
N943 C945 1.356 . S
N943 H948 0.984 . S
N943 H949 0.985 . S
C944 C938 1.379 . S
C944 C941 1.363 . S
C944 N942 1.356 . S
C945 C939 1.363 . S
C945 C940 1.379 . S
C945 N943 1.356 . S
N946 C938 1.356 . S
N946 H952 0.984 . S
N946 H953 0.984 . S
N947 C940 1.356 . S
N947 H950 0.984 . S
N947 H951 0.985 . S
H948 N943 0.984 . S
H949 N943 0.985 . S
H950 N947 0.984 . S
H951 N947 0.985 . S
H952 N946 0.984 . S
H953 N946 0.984 . S
H954 N942 0.984 . S
H955 N942 0.985 . S
C956 C957 1.363 . S
C956 C962 1.379 . S
C956 N964 1.356 . S
C957 C956 1.363 . S
C957 C963 1.363 . S
C958 C959 1.363 . S
C958 C963 1.379 . S
C958 N965 1.356 . S
C959 C958 1.363 . S
C959 C962 1.363 . S
N960 C962 1.356 . S
N960 H972 0.984 . S
N960 H973 0.985 . S
N961 C963 1.356 . S
N961 H966 0.984 . S
N961 H967 0.985 . S
C962 C956 1.379 . S
C962 C959 1.363 . S
C962 N960 1.356 . S
C963 C957 1.363 . S
C963 C958 1.379 . S
C963 N961 1.356 . S
N964 C956 1.356 . S
N964 H970 0.984 . S
N964 H971 0.984 . S
N965 C958 1.356 . S
N965 H968 0.984 . S
N965 H969 0.985 . S
H966 N961 0.984 . S
H967 N961 0.985 . S
H968 N965 0.984 . S
H969 N965 0.985 . S
H970 N964 0.984 . S
H971 N964 0.984 . S
H972 N960 0.984 . S
H973 N960 0.985 . S
C974 C975 1.363 . S
C974 C980 1.379 . S
C974 N982 1.356 . S
C975 C974 1.363 . S
C975 C981 1.363 . S
C976 C977 1.363 . S
C976 C981 1.379 . S
C976 N983 1.356 . S
C977 C976 1.363 . S
C977 C980 1.363 . S
N978 C980 1.356 . S
N978 H990 0.984 . S
N978 H991 0.985 . S
N979 C981 1.356 . S
N979 H984 0.984 . S
N979 H985 0.985 . S
C980 C974 1.379 . S
C980 C977 1.363 . S
C980 N978 1.356 . S
C981 C975 1.363 . S
C981 C976 1.379 . S
C981 N979 1.356 . S
N982 C974 1.356 . S
N982 H988 0.984 . S
N982 H989 0.984 . S
N983 C976 1.356 . S
N983 H986 0.984 . S
N983 H987 0.985 . S
H984 N979 0.984 . S
H985 N979 0.985 . S
H986 N983 0.984 . S
H987 N983 0.985 . S
H988 N982 0.984 . S
H989 N982 0.984 . S
H990 N978 0.984 . S
H991 N978 0.985 . S
C992 C993 1.363 1_655 S
C992 C998 1.379 1_545 S
C992 N1000 1.356 . S
C993 C992 1.363 1_455 S
C993 C999 1.363 . S
C994 C995 1.363 1_455 S
C994 C999 1.379 1_565 S
C994 N1001 1.356 . S
C995 C994 1.363 1_655 S
C995 C998 1.363 . S
N996 C998 1.356 . S
N996 H1008 0.984 . S
N996 H1009 0.985 . S
N997 C999 1.356 . S
N997 H1002 0.984 . S
N997 H1003 0.985 . S
C998 C992 1.379 1_565 S
C998 C995 1.363 . S
C998 N996 1.356 . S
C999 C993 1.363 . S
C999 C994 1.379 1_545 S
C999 N997 1.356 . S
N1000 C992 1.356 . S
N1000 H1006 0.984 . S
N1000 H1007 0.984 . S
N1001 C994 1.356 . S
N1001 H1004 0.984 . S
N1001 H1005 0.985 . S
H1002 N997 0.984 . S
H1003 N997 0.985 . S
H1004 N1001 0.984 . S
H1005 N1001 0.985 . S
H1006 N1000 0.984 . S
H1007 N1000 0.984 . S
H1008 N996 0.984 . S
H1009 N996 0.985 . S
C1010 C1011 1.363 . S
C1010 C1016 1.379 1_655 S
C1010 N1018 1.356 . S
C1011 C1010 1.363 . S
C1011 C1017 1.363 . S
C1012 C1013 1.363 . S
C1012 C1017 1.379 1_455 S
C1012 N1019 1.356 . S
C1013 C1012 1.363 . S
C1013 C1016 1.363 . S
N1014 C1016 1.356 . S
N1014 H1026 0.984 . S
N1014 H1027 0.985 . S
N1015 C1017 1.356 . S
N1015 H1020 0.984 . S
N1015 H1021 0.985 . S
C1016 C1010 1.379 1_455 S
C1016 C1013 1.363 . S
C1016 N1014 1.356 . S
C1017 C1011 1.363 . S
C1017 C1012 1.379 1_655 S
C1017 N1015 1.356 . S
N1018 C1010 1.356 . S
N1018 H1024 0.984 . S
N1018 H1025 0.984 . S
N1019 C1012 1.356 . S
N1019 H1022 0.984 . S
N1019 H1023 0.985 . S
H1020 N1015 0.984 . S
H1021 N1015 0.985 . S
H1022 N1019 0.984 . S
H1023 N1019 0.985 . S
H1024 N1018 0.984 . S
H1025 N1018 0.984 . S
H1026 N1014 0.984 . S
H1027 N1014 0.985 . S
C1028 C1029 1.363 . S
C1028 C1034 1.379 . S
C1028 N1036 1.356 . S
C1029 C1028 1.363 . S
C1029 C1035 1.363 . S
C1030 C1031 1.363 . S
C1030 C1035 1.379 . S
C1030 N1037 1.356 . S
C1031 C1030 1.363 . S
C1031 C1034 1.363 . S
N1032 C1034 1.356 . S
N1032 H1044 0.984 . S
N1032 H1045 0.985 . S
N1033 C1035 1.356 . S
N1033 H1038 0.984 . S
N1033 H1039 0.985 . S
C1034 C1028 1.379 . S
C1034 C1031 1.363 . S
C1034 N1032 1.356 . S
C1035 C1029 1.363 . S
C1035 C1030 1.379 . S
C1035 N1033 1.356 . S
N1036 C1028 1.356 . S
N1036 H1042 0.984 . S
N1036 H1043 0.984 . S
N1037 C1030 1.356 . S
N1037 H1040 0.984 . S
N1037 H1041 0.985 . S
H1038 N1033 0.984 . S
H1039 N1033 0.985 . S
H1040 N1037 0.984 . S
H1041 N1037 0.985 . S
H1042 N1036 0.984 . S
H1043 N1036 0.984 . S
H1044 N1032 0.984 . S
H1045 N1032 0.985 . S
C1046 C1047 1.363 1_545 S
C1046 C1052 1.379 . S
C1046 N1054 1.356 . S
C1047 C1046 1.363 1_565 S
C1047 C1053 1.363 1_556 S
C1048 C1049 1.363 1_564 S
C1048 C1053 1.379 . S
C1048 N1055 1.356 . S
C1049 C1048 1.363 1_546 S
C1049 C1052 1.363 . S
N1050 C1052 1.356 . S
N1050 H1062 0.984 . S
N1050 H1063 0.985 . S
N1051 C1053 1.356 . S
N1051 H1056 0.984 . S
N1051 H1057 0.985 . S
C1052 C1046 1.379 . S
C1052 C1049 1.363 . S
C1052 N1050 1.356 . S
C1053 C1047 1.363 1_554 S
C1053 C1048 1.379 . S
C1053 N1051 1.356 . S
N1054 C1046 1.356 . S
N1054 H1060 0.984 . S
N1054 H1061 0.984 1_545 S
N1055 C1048 1.356 . S
N1055 H1058 0.984 1_565 S
N1055 H1059 0.985 . S
H1056 N1051 0.984 . S
H1057 N1051 0.985 . S
H1058 N1055 0.984 1_545 S
H1059 N1055 0.985 . S
H1060 N1054 0.984 . S
H1061 N1054 0.984 1_565 S
H1062 N1050 0.984 . S
H1063 N1050 0.985 . S
C1064 C1065 1.363 1_655 S
C1064 C1070 1.379 . S
C1064 N1072 1.356 . S
C1065 C1064 1.363 1_455 S
C1065 C1071 1.363 . S
C1066 C1067 1.363 1_455 S
C1066 C1071 1.379 . S
C1066 N1073 1.356 . S
C1067 C1066 1.363 1_655 S
C1067 C1070 1.363 . S
N1068 C1070 1.356 . S
N1068 H1080 0.984 . S
N1068 H1081 0.985 . S
N1069 C1071 1.356 . S
N1069 H1074 0.984 . S
N1069 H1075 0.985 1_554 S
C1070 C1064 1.379 . S
C1070 C1067 1.363 . S
C1070 N1068 1.356 . S
C1071 C1065 1.363 . S
C1071 C1066 1.379 . S
C1071 N1069 1.356 . S
N1072 C1064 1.356 . S
N1072 H1078 0.984 . S
N1072 H1079 0.984 . S
N1073 C1066 1.356 . S
N1073 H1076 0.984 . S
N1073 H1077 0.985 1_554 S
H1074 N1069 0.984 . S
H1075 N1069 0.985 1_556 S
H1076 N1073 0.984 . S
H1077 N1073 0.985 1_556 S
H1078 N1072 0.984 . S
H1079 N1072 0.984 . S
H1080 N1068 0.984 . S
H1081 N1068 0.985 . S
C1082 C1083 1.363 . S
C1082 C1088 1.379 . S
C1082 N1090 1.356 . S
C1083 C1082 1.363 . S
C1083 C1089 1.363 . S
C1084 C1085 1.363 . S
C1084 C1089 1.379 . S
C1084 N1091 1.356 . S
C1085 C1084 1.363 . S
C1085 C1088 1.363 . S
N1086 C1088 1.356 . S
N1086 H1098 0.984 . S
N1086 H1099 0.985 . S
N1087 C1089 1.356 . S
N1087 H1092 0.984 . S
N1087 H1093 0.985 . S
C1088 C1082 1.379 . S
C1088 C1085 1.363 . S
C1088 N1086 1.356 . S
C1089 C1083 1.363 . S
C1089 C1084 1.379 . S
C1089 N1087 1.356 . S
N1090 C1082 1.356 . S
N1090 H1096 0.984 . S
N1090 H1097 0.984 . S
N1091 C1084 1.356 . S
N1091 H1094 0.984 . S
N1091 H1095 0.985 . S
H1092 N1087 0.984 . S
H1093 N1087 0.985 . S
H1094 N1091 0.984 . S
H1095 N1091 0.985 . S
H1096 N1090 0.984 . S
H1097 N1090 0.984 . S
H1098 N1086 0.984 . S
H1099 N1086 0.985 . S
C1100 C1101 1.363 . S
C1100 C1106 1.379 1_545 S
C1100 N1108 1.356 . S
C1101 C1100 1.363 . S
C1101 C1107 1.363 . S
C1102 C1103 1.363 . S
C1102 C1107 1.379 1_565 S
C1102 N1109 1.356 . S
C1103 C1102 1.363 . S
C1103 C1106 1.363 . S
N1104 C1106 1.356 . S
N1104 H1116 0.984 . S
N1104 H1117 0.985 . S
N1105 C1107 1.356 . S
N1105 H1110 0.984 . S
N1105 H1111 0.985 . S
C1106 C1100 1.379 1_565 S
C1106 C1103 1.363 . S
C1106 N1104 1.356 . S
C1107 C1101 1.363 . S
C1107 C1102 1.379 1_545 S
C1107 N1105 1.356 . S
N1108 C1100 1.356 . S
N1108 H1114 0.984 . S
N1108 H1115 0.984 . S
N1109 C1102 1.356 . S
N1109 H1112 0.984 . S
N1109 H1113 0.985 . S
H1110 N1105 0.984 . S
H1111 N1105 0.985 . S
H1112 N1109 0.984 . S
H1113 N1109 0.985 . S
H1114 N1108 0.984 . S
H1115 N1108 0.984 . S
H1116 N1104 0.984 . S
H1117 N1104 0.985 . S
C1118 C1119 1.363 1_565 S
C1118 C1124 1.379 1_455 S
C1118 N1126 1.356 . S
C1119 C1118 1.363 1_545 S
C1119 C1125 1.363 . S
C1120 C1121 1.363 1_545 S
C1120 C1125 1.379 1_655 S
C1120 N1127 1.356 . S
C1121 C1120 1.363 1_565 S
C1121 C1124 1.363 . S
N1122 C1124 1.356 . S
N1122 H1134 0.984 . S
N1122 H1135 0.985 . S
N1123 C1125 1.356 . S
N1123 H1128 0.984 . S
N1123 H1129 0.985 . S
C1124 C1118 1.379 1_655 S
C1124 C1121 1.363 . S
C1124 N1122 1.356 . S
C1125 C1119 1.363 . S
C1125 C1120 1.379 1_455 S
C1125 N1123 1.356 . S
N1126 C1118 1.356 . S
N1126 H1132 0.984 . S
N1126 H1133 0.984 1_565 S
N1127 C1120 1.356 . S
N1127 H1130 0.984 1_545 S
N1127 H1131 0.985 . S
H1128 N1123 0.984 . S
H1129 N1123 0.985 . S
H1130 N1127 0.984 1_565 S
H1131 N1127 0.985 . S
H1132 N1126 0.984 . S
H1133 N1126 0.984 1_545 S
H1134 N1122 0.984 . S
H1135 N1122 0.985 . S
C1136 C1137 1.363 . S
C1136 C1142 1.379 . S
C1136 N1144 1.356 . S
C1137 C1136 1.363 . S
C1137 C1143 1.363 . S
C1138 C1139 1.363 . S
C1138 C1143 1.379 . S
C1138 N1145 1.356 . S
C1139 C1138 1.363 . S
C1139 C1142 1.363 . S
N1140 C1142 1.356 . S
N1140 H1152 0.984 . S
N1140 H1153 0.985 . S
N1141 C1143 1.356 . S
N1141 H1146 0.984 . S
N1141 H1147 0.985 . S
C1142 C1136 1.379 . S
C1142 C1139 1.363 . S
C1142 N1140 1.356 . S
C1143 C1137 1.363 . S
C1143 C1138 1.379 . S
C1143 N1141 1.356 . S
N1144 C1136 1.356 . S
N1144 H1150 0.984 . S
N1144 H1151 0.984 . S
N1145 C1138 1.356 . S
N1145 H1148 0.984 . S
N1145 H1149 0.985 . S
H1146 N1141 0.984 . S
H1147 N1141 0.985 . S
H1148 N1145 0.984 . S
H1149 N1145 0.985 . S
H1150 N1144 0.984 . S
H1151 N1144 0.984 . S
H1152 N1140 0.984 . S
H1153 N1140 0.985 . S
C1154 C1155 1.363 . S
C1154 C1160 1.379 . S
C1154 N1162 1.356 . S
C1155 C1154 1.363 . S
C1155 C1161 1.363 . S
C1156 C1157 1.363 . S
C1156 C1161 1.379 . S
C1156 N1163 1.356 . S
C1157 C1156 1.363 . S
C1157 C1160 1.363 . S
N1158 C1160 1.356 . S
N1158 H1170 0.984 . S
N1158 H1171 0.985 . S
N1159 C1161 1.356 . S
N1159 H1164 0.984 . S
N1159 H1165 0.985 . S
C1160 C1154 1.379 . S
C1160 C1157 1.363 . S
C1160 N1158 1.356 . S
C1161 C1155 1.363 . S
C1161 C1156 1.379 . S
C1161 N1159 1.356 . S
N1162 C1154 1.356 . S
N1162 H1168 0.984 . S
N1162 H1169 0.984 . S
N1163 C1156 1.356 . S
N1163 H1166 0.984 . S
N1163 H1167 0.985 . S
H1164 N1159 0.984 . S
H1165 N1159 0.985 . S
H1166 N1163 0.984 . S
H1167 N1163 0.985 . S
H1168 N1162 0.984 . S
H1169 N1162 0.984 . S
H1170 N1158 0.984 . S
H1171 N1158 0.985 . S
C1172 C1173 1.363 . S
C1172 C1178 1.379 . S
C1172 N1180 1.356 . S
C1173 C1172 1.363 . S
C1173 C1179 1.363 . S
C1174 C1175 1.363 . S
C1174 C1179 1.379 . S
C1174 N1181 1.356 . S
C1175 C1174 1.363 . S
C1175 C1178 1.363 . S
N1176 C1178 1.356 . S
N1176 H1188 0.984 . S
N1176 H1189 0.985 1_554 S
N1177 C1179 1.356 . S
N1177 H1182 0.984 . S
N1177 H1183 0.985 . S
C1178 C1172 1.379 . S
C1178 C1175 1.363 . S
C1178 N1176 1.356 . S
C1179 C1173 1.363 . S
C1179 C1174 1.379 . S
C1179 N1177 1.356 . S
N1180 C1172 1.356 . S
N1180 H1186 0.984 . S
N1180 H1187 0.984 . S
N1181 C1174 1.356 . S
N1181 H1184 0.984 . S
N1181 H1185 0.985 . S
H1182 N1177 0.984 . S
H1183 N1177 0.985 . S
H1184 N1181 0.984 . S
H1185 N1181 0.985 . S
H1186 N1180 0.984 . S
H1187 N1180 0.984 . S
H1188 N1176 0.984 . S
H1189 N1176 0.985 1_556 S
C1190 C1191 1.363 . S
C1190 C1196 1.379 . S
C1190 N1198 1.356 . S
C1191 C1190 1.363 . S
C1191 C1197 1.363 . S
C1192 C1193 1.363 . S
C1192 C1197 1.379 . S
C1192 N1199 1.356 . S
C1193 C1192 1.363 . S
C1193 C1196 1.363 . S
N1194 C1196 1.356 . S
N1194 H1206 0.984 . S
N1194 H1207 0.985 . S
N1195 C1197 1.356 . S
N1195 H1200 0.984 . S
N1195 H1201 0.985 . S
C1196 C1190 1.379 . S
C1196 C1193 1.363 . S
C1196 N1194 1.356 . S
C1197 C1191 1.363 . S
C1197 C1192 1.379 . S
C1197 N1195 1.356 . S
N1198 C1190 1.356 . S
N1198 H1204 0.984 . S
N1198 H1205 0.984 . S
N1199 C1192 1.356 . S
N1199 H1202 0.984 . S
N1199 H1203 0.985 . S
H1200 N1195 0.984 . S
H1201 N1195 0.985 . S
H1202 N1199 0.984 . S
H1203 N1199 0.985 . S
H1204 N1198 0.984 . S
H1205 N1198 0.984 . S
H1206 N1194 0.984 . S
H1207 N1194 0.985 . S
C1208 C1209 1.363 . S
C1208 C1214 1.379 . S
C1208 N1216 1.356 . S
C1209 C1208 1.363 . S
C1209 C1215 1.363 . S
C1210 C1211 1.363 . S
C1210 C1215 1.379 . S
C1210 N1217 1.356 . S
C1211 C1210 1.363 . S
C1211 C1214 1.363 . S
N1212 C1214 1.356 . S
N1212 H1224 0.984 . S
N1212 H1225 0.985 . S
N1213 C1215 1.356 . S
N1213 H1218 0.984 . S
N1213 H1219 0.985 . S
C1214 C1208 1.379 . S
C1214 C1211 1.363 . S
C1214 N1212 1.356 . S
C1215 C1209 1.363 . S
C1215 C1210 1.379 . S
C1215 N1213 1.356 . S
N1216 C1208 1.356 . S
N1216 H1222 0.984 . S
N1216 H1223 0.984 . S
N1217 C1210 1.356 . S
N1217 H1220 0.984 . S
N1217 H1221 0.985 . S
H1218 N1213 0.984 . S
H1219 N1213 0.985 . S
H1220 N1217 0.984 . S
H1221 N1217 0.985 . S
H1222 N1216 0.984 . S
H1223 N1216 0.984 . S
H1224 N1212 0.984 . S
H1225 N1212 0.985 . S
C1226 C1227 1.363 . S
C1226 C1232 1.379 . S
C1226 N1234 1.356 . S
C1227 C1226 1.363 . S
C1227 C1233 1.363 . S
C1228 C1229 1.363 . S
C1228 C1233 1.379 . S
C1228 N1235 1.356 1_554 S
C1229 C1228 1.363 . S
C1229 C1232 1.363 . S
N1230 C1232 1.356 . S
N1230 H1242 0.984 . S
N1230 H1243 0.985 . S
N1231 C1233 1.356 . S
N1231 H1236 0.984 . S
N1231 H1237 0.985 . S
C1232 C1226 1.379 . S
C1232 C1229 1.363 . S
C1232 N1230 1.356 . S
C1233 C1227 1.363 . S
C1233 C1228 1.379 . S
C1233 N1231 1.356 . S
N1234 C1226 1.356 . S
N1234 H1240 0.984 . S
N1234 H1241 0.984 . S
N1235 C1228 1.356 1_556 S
N1235 H1238 0.984 . S
N1235 H1239 0.985 . S
H1236 N1231 0.984 . S
H1237 N1231 0.985 . S
H1238 N1235 0.984 . S
H1239 N1235 0.985 . S
H1240 N1234 0.984 . S
H1241 N1234 0.984 . S
H1242 N1230 0.984 . S
H1243 N1230 0.985 . S
C1244 C1245 1.363 . S
C1244 C1250 1.379 . S
C1244 N1252 1.356 . S
C1245 C1244 1.363 . S
C1245 C1251 1.363 . S
C1246 C1247 1.363 . S
C1246 C1251 1.379 . S
C1246 N1253 1.356 . S
C1247 C1246 1.363 . S
C1247 C1250 1.363 . S
N1248 C1250 1.356 . S
N1248 H1260 0.984 . S
N1248 H1261 0.985 . S
N1249 C1251 1.356 . S
N1249 H1254 0.984 . S
N1249 H1255 0.985 . S
C1250 C1244 1.379 . S
C1250 C1247 1.363 . S
C1250 N1248 1.356 . S
C1251 C1245 1.363 . S
C1251 C1246 1.379 . S
C1251 N1249 1.356 . S
N1252 C1244 1.356 . S
N1252 H1258 0.984 . S
N1252 H1259 0.984 . S
N1253 C1246 1.356 . S
N1253 H1256 0.984 . S
N1253 H1257 0.985 . S
H1254 N1249 0.984 . S
H1255 N1249 0.985 . S
H1256 N1253 0.984 . S
H1257 N1253 0.985 . S
H1258 N1252 0.984 . S
H1259 N1252 0.984 . S
H1260 N1248 0.984 . S
H1261 N1248 0.985 . S
C1262 C1263 1.363 . S
C1262 C1268 1.379 . S
C1262 N1270 1.356 . S
C1263 C1262 1.363 . S
C1263 C1269 1.363 . S
C1264 C1265 1.363 . S
C1264 C1269 1.379 . S
C1264 N1271 1.356 . S
C1265 C1264 1.363 . S
C1265 C1268 1.363 . S
N1266 C1268 1.356 . S
N1266 H1278 0.984 . S
N1266 H1279 0.985 . S
N1267 C1269 1.356 . S
N1267 H1272 0.984 . S
N1267 H1273 0.985 . S
C1268 C1262 1.379 . S
C1268 C1265 1.363 . S
C1268 N1266 1.356 . S
C1269 C1263 1.363 . S
C1269 C1264 1.379 . S
C1269 N1267 1.356 . S
N1270 C1262 1.356 . S
N1270 H1276 0.984 . S
N1270 H1277 0.984 . S
N1271 C1264 1.356 . S
N1271 H1274 0.984 . S
N1271 H1275 0.985 . S
H1272 N1267 0.984 . S
H1273 N1267 0.985 . S
H1274 N1271 0.984 . S
H1275 N1271 0.985 . S
H1276 N1270 0.984 . S
H1277 N1270 0.984 . S
H1278 N1266 0.984 . S
H1279 N1266 0.985 . S
C1280 C1281 1.363 1_554 S
C1280 C1286 1.379 . S
C1280 N1288 1.360 . S
C1281 C1280 1.363 1_556 S
C1281 C1287 1.363 . S
C1282 C1283 1.363 . S
C1282 C1287 1.379 1_554 S
C1282 N1289 1.356 . S
C1283 C1282 1.363 . S
C1283 C1286 1.363 . S
N1284 C1286 1.356 . S
N1284 H1296 0.984 . S
N1284 H1297 0.985 . S
N1285 C1287 1.356 . S
N1285 H1290 0.984 . S
N1285 H1291 0.985 . S
C1286 C1280 1.379 . S
C1286 C1283 1.363 . S
C1286 N1284 1.356 . S
C1287 C1281 1.363 . S
C1287 C1282 1.379 1_556 S
C1287 N1285 1.356 . S
N1288 C1280 1.360 . S
N1288 H1294 0.991 . S
N1288 H1295 0.974 1_554 S
N1289 C1282 1.356 . S
N1289 H1292 0.984 . S
N1289 H1293 0.985 . S
H1290 N1285 0.984 . S
H1291 N1285 0.985 . S
H1292 N1289 0.984 . S
H1293 N1289 0.985 . S
H1294 N1288 0.991 . S
H1295 N1288 0.974 1_556 S
H1296 N1284 0.984 . S
H1297 N1284 0.985 . S
C1298 C1299 1.363 . S
C1298 C1304 1.379 . S
C1298 N1306 1.356 . S
C1299 C1298 1.363 . S
C1299 C1305 1.363 . S
C1300 C1301 1.363 . S
C1300 C1305 1.379 . S
C1300 N1307 1.356 . S
C1301 C1300 1.363 . S
C1301 C1304 1.363 . S
N1302 C1304 1.356 . S
N1302 H1314 0.984 . S
N1302 H1315 0.985 . S
N1303 C1305 1.356 . S
N1303 H1308 0.984 . S
N1303 H1309 0.985 . S
C1304 C1298 1.379 . S
C1304 C1301 1.363 . S
C1304 N1302 1.356 . S
C1305 C1299 1.363 . S
C1305 C1300 1.379 . S
C1305 N1303 1.356 . S
N1306 C1298 1.356 . S
N1306 H1312 0.984 . S
N1306 H1313 0.984 . S
N1307 C1300 1.356 . S
N1307 H1310 0.984 . S
N1307 H1311 0.985 . S
H1308 N1303 0.984 . S
H1309 N1303 0.985 . S
H1310 N1307 0.984 . S
H1311 N1307 0.985 . S
H1312 N1306 0.984 . S
H1313 N1306 0.984 . S
H1314 N1302 0.984 . S
H1315 N1302 0.985 . S
C1316 C1317 1.363 . S
C1316 C1322 1.379 . S
C1316 N1324 1.356 . S
C1317 C1316 1.363 . S
C1317 C1323 1.363 . S
C1318 C1319 1.363 . S
C1318 C1323 1.379 . S
C1318 N1325 1.356 . S
C1319 C1318 1.363 . S
C1319 C1322 1.363 . S
N1320 C1322 1.356 . S
N1320 H1332 0.984 . S
N1320 H1333 0.985 . S
N1321 C1323 1.356 . S
N1321 H1326 0.984 . S
N1321 H1327 0.985 . S
C1322 C1316 1.379 . S
C1322 C1319 1.363 . S
C1322 N1320 1.356 . S
C1323 C1317 1.363 . S
C1323 C1318 1.379 . S
C1323 N1321 1.356 . S
N1324 C1316 1.356 . S
N1324 H1330 0.984 . S
N1324 H1331 0.984 . S
N1325 C1318 1.356 . S
N1325 H1328 0.984 . S
N1325 H1329 0.985 . S
H1326 N1321 0.984 . S
H1327 N1321 0.985 . S
H1328 N1325 0.984 . S
H1329 N1325 0.985 . S
H1330 N1324 0.984 . S
H1331 N1324 0.984 . S
H1332 N1320 0.984 . S
H1333 N1320 0.985 . S
C1334 C1335 1.363 . S
C1334 C1340 1.379 . S
C1334 N1342 1.356 . S
C1335 C1334 1.363 . S
C1335 C1341 1.363 . S
C1336 C1337 1.363 . S
C1336 C1341 1.379 . S
C1336 N1343 1.356 . S
C1337 C1336 1.363 . S
C1337 C1340 1.363 . S
N1338 C1340 1.356 . S
N1338 H1350 0.984 . S
N1338 H1351 0.985 . S
N1339 C1341 1.356 . S
N1339 H1344 0.984 . S
N1339 H1345 0.985 . S
C1340 C1334 1.379 . S
C1340 C1337 1.363 . S
C1340 N1338 1.356 . S
C1341 C1335 1.363 . S
C1341 C1336 1.379 . S
C1341 N1339 1.356 . S
N1342 C1334 1.356 . S
N1342 H1348 0.984 . S
N1342 H1349 0.984 . S
N1343 C1336 1.356 . S
N1343 H1346 0.984 . S
N1343 H1347 0.985 . S
H1344 N1339 0.984 . S
H1345 N1339 0.985 . S
H1346 N1343 0.984 . S
H1347 N1343 0.985 . S
H1348 N1342 0.984 . S
H1349 N1342 0.984 . S
H1350 N1338 0.984 . S
H1351 N1338 0.985 . S
C1352 C1353 1.363 . S
C1352 C1358 1.379 . S
C1352 N1360 1.356 . S
C1353 C1352 1.363 . S
C1353 C1359 1.363 . S
C1354 C1355 1.363 . S
C1354 C1359 1.379 . S
C1354 N1361 1.356 . S
C1355 C1354 1.363 . S
C1355 C1358 1.363 . S
N1356 C1358 1.356 . S
N1356 H1368 0.984 . S
N1356 H1369 0.985 . S
N1357 C1359 1.356 . S
N1357 H1362 0.984 . S
N1357 H1363 0.985 . S
C1358 C1352 1.379 . S
C1358 C1355 1.363 . S
C1358 N1356 1.356 . S
C1359 C1353 1.363 . S
C1359 C1354 1.379 . S
C1359 N1357 1.356 . S
N1360 C1352 1.356 . S
N1360 H1366 0.984 . S
N1360 H1367 0.984 . S
N1361 C1354 1.356 . S
N1361 H1364 0.984 . S
N1361 H1365 0.985 . S
H1362 N1357 0.984 . S
H1363 N1357 0.985 . S
H1364 N1361 0.984 . S
H1365 N1361 0.985 . S
H1366 N1360 0.984 . S
H1367 N1360 0.984 . S
H1368 N1356 0.984 . S
H1369 N1356 0.985 . S
C1370 C1371 1.363 . S
C1370 C1376 1.379 . S
C1370 N1378 1.356 . S
C1371 C1370 1.363 . S
C1371 C1377 1.363 . S
C1372 C1373 1.363 . S
C1372 C1377 1.379 . S
C1372 N1379 1.356 . S
C1373 C1372 1.363 . S
C1373 C1376 1.363 . S
N1374 C1376 1.356 . S
N1374 H1386 0.984 . S
N1374 H1387 0.985 . S
N1375 C1377 1.356 . S
N1375 H1380 0.984 . S
N1375 H1381 0.985 . S
C1376 C1370 1.379 . S
C1376 C1373 1.363 . S
C1376 N1374 1.356 . S
C1377 C1371 1.363 . S
C1377 C1372 1.379 . S
C1377 N1375 1.356 . S
N1378 C1370 1.356 . S
N1378 H1384 0.984 . S
N1378 H1385 0.984 . S
N1379 C1372 1.356 . S
N1379 H1382 0.984 . S
N1379 H1383 0.985 . S
H1380 N1375 0.984 . S
H1381 N1375 0.985 . S
H1382 N1379 0.984 . S
H1383 N1379 0.985 . S
H1384 N1378 0.984 . S
H1385 N1378 0.984 . S
H1386 N1374 0.984 . S
H1387 N1374 0.985 . S
C1388 C1389 1.363 . S
C1388 C1394 1.379 . S
C1388 N1396 1.356 . S
C1389 C1388 1.363 . S
C1389 C1395 1.363 . S
C1390 C1391 1.363 . S
C1390 C1395 1.379 . S
C1390 N1397 1.356 . S
C1391 C1390 1.363 . S
C1391 C1394 1.363 . S
N1392 C1394 1.356 . S
N1392 H1404 0.984 . S
N1392 H1405 0.985 . S
N1393 C1395 1.356 . S
N1393 H1398 0.984 . S
N1393 H1399 0.985 . S
C1394 C1388 1.379 . S
C1394 C1391 1.363 . S
C1394 N1392 1.356 . S
C1395 C1389 1.363 . S
C1395 C1390 1.379 . S
C1395 N1393 1.356 . S
N1396 C1388 1.356 . S
N1396 H1402 0.984 . S
N1396 H1403 0.984 . S
N1397 C1390 1.356 . S
N1397 H1400 0.984 . S
N1397 H1401 0.985 . S
H1398 N1393 0.984 . S
H1399 N1393 0.985 . S
H1400 N1397 0.984 . S
H1401 N1397 0.985 . S
H1402 N1396 0.984 . S
H1403 N1396 0.984 . S
H1404 N1392 0.984 . S
H1405 N1392 0.985 . S
C1406 C1407 1.363 . S
C1406 C1412 1.379 1_554 S
C1406 N1414 1.356 . S
C1407 C1406 1.363 . S
C1407 C1413 1.363 . S
C1408 C1409 1.363 1_554 S
C1408 C1413 1.379 . S
C1408 N1415 1.351 1_554 S
C1409 C1408 1.363 1_556 S
C1409 C1412 1.363 . S
N1410 C1412 1.356 . S
N1410 H1422 0.984 . S
N1410 H1423 0.985 . S
N1411 C1413 1.356 . S
N1411 H1416 0.984 . S
N1411 H1417 0.985 . S
C1412 C1406 1.379 1_556 S
C1412 C1409 1.363 . S
C1412 N1410 1.356 . S
C1413 C1407 1.363 . S
C1413 C1408 1.379 . S
C1413 N1411 1.356 . S
N1414 C1406 1.356 . S
N1414 H1420 0.984 . S
N1414 H1421 0.984 . S
N1415 C1408 1.351 1_556 S
N1415 H1418 0.998 . S
N1415 H1419 0.977 1_556 S
H1416 N1411 0.984 . S
H1417 N1411 0.985 . S
H1418 N1415 0.998 . S
H1419 N1415 0.977 1_554 S
H1420 N1414 0.984 . S
H1421 N1414 0.984 . S
H1422 N1410 0.984 . S
H1423 N1410 0.985 . S
C849 C356 2.271 . S
C851 C38 2.271 . S
C867 C393 2.140 . S
C869 C75 2.140 . S
C885 C144 2.271 . S
C887 C250 2.280 . S
C903 C181 2.140 . S
C905 C287 2.140 . S
C921 C462 2.271 . S
C923 C780 2.280 . S
C939 C817 2.140 . S
C941 C499 2.140 . S
C957 C568 2.271 . S
C959 C674 2.271 . S
C975 C605 2.140 . S
C977 C711 2.140 . S
C993 C39 2.750 . S
C995 C569 2.750 . S
C1011 C82 1.985 . S
C1013 C612 1.985 . S
C1029 C145 2.750 . S
C1031 C463 2.750 . S
C1047 C188 1.986 1_556 S
C1049 C506 1.986 1_556 S
C1065 C251 2.750 . S
C1067 C781 2.750 . S
C1083 C824 1.985 . S
C1085 C294 1.985 . S
C1101 C357 2.750 . S
C1103 C675 2.750 . S
C1119 C718 1.985 . S
C1121 C400 1.985 . S
C1137 C728 1.201 . S
C1139 C29 1.210 . S
C1155 C92 1.202 . S
C1157 C771 1.211 . S
C1173 C834 1.201 . S
C1175 C135 1.210 1_554 S
C1191 C665 1.211 . S
C1193 C198 1.202 . S
C1209 C622 1.202 . S
C1211 C241 1.211 . S
C1227 C304 1.201 . S
C1229 C453 1.210 1_554 S
C1245 C347 1.211 . S
C1247 C516 1.202 . S
C1263 C410 1.201 . S
C1265 C559 1.210 . S
C1281 C727 1.720 . S
C1283 C22 1.712 . S
C1299 C91 1.720 . S
C1301 C764 1.712 . S
C1317 C128 1.711 . S
C1319 C833 1.720 . S
C1335 C658 1.712 . S
C1337 C197 1.720 . S
C1353 C621 1.720 . S
C1355 C234 1.712 . S
C1371 C446 1.711 . S
C1373 C303 1.720 . S
C1389 C340 1.712 . S
C1391 C515 1.720 . S
C1407 C552 1.712 . S
C1409 C409 1.720 . S
