# Generated by pormake.
# Topology unm, (4)-cn, num edge types: 1
# Building blocks:
#     Node 0, Type 0, BuildingBlock: KUFVIS_clean_sbu_0, # of connection points: 4
#     Node 1, Type 0, BuildingBlock: KUFVIS_clean_sbu_0, # of connection points: 4
#     Node 2, Type 0, BuildingBlock: KUFVIS_clean_sbu_0, # of connection points: 4
#     Node 3, Type 0, BuildingBlock: KUFVIS_clean_sbu_0, # of connection points: 4
#     Node 4, Type 0, BuildingBlock: KUFVIS_clean_sbu_0, # of connection points: 4
#     Node 5, Type 0, BuildingBlock: KUFVIS_clean_sbu_0, # of connection points: 4
#     Node 6, Type 0, BuildingBlock: KUFVIS_clean_sbu_0, # of connection points: 4
#     Node 7, Type 0, BuildingBlock: KUFVIS_clean_sbu_0, # of connection points: 4
#     Edge 8, Type (0, 0), BuildingBlock: TEMPAE_clean_linker_10, # of connection points: 2
#     Edge 9, Type (0, 0), BuildingBlock: TEMPAE_clean_linker_10, # of connection points: 2
#     Edge 10, Type (0, 0), BuildingBlock: TEMPAE_clean_linker_10, # of connection points: 2
#     Edge 11, Type (0, 0), BuildingBlock: TEMPAE_clean_linker_10, # of connection points: 2
#     Edge 12, Type (0, 0), BuildingBlock: TEMPAE_clean_linker_10, # of connection points: 2
#     Edge 13, Type (0, 0), BuildingBlock: TEMPAE_clean_linker_10, # of connection points: 2
#     Edge 14, Type (0, 0), BuildingBlock: TEMPAE_clean_linker_10, # of connection points: 2
#     Edge 15, Type (0, 0), BuildingBlock: TEMPAE_clean_linker_10, # of connection points: 2
#     Edge 16, Type (0, 0), BuildingBlock: TEMPAE_clean_linker_10, # of connection points: 2
#     Edge 17, Type (0, 0), BuildingBlock: TEMPAE_clean_linker_10, # of connection points: 2
#     Edge 18, Type (0, 0), BuildingBlock: TEMPAE_clean_linker_10, # of connection points: 2
#     Edge 19, Type (0, 0), BuildingBlock: TEMPAE_clean_linker_10, # of connection points: 2
#     Edge 20, Type (0, 0), BuildingBlock: TEMPAE_clean_linker_10, # of connection points: 2
#     Edge 21, Type (0, 0), BuildingBlock: TEMPAE_clean_linker_10, # of connection points: 2
#     Edge 22, Type (0, 0), BuildingBlock: TEMPAE_clean_linker_10, # of connection points: 2
#     Edge 23, Type (0, 0), BuildingBlock: TEMPAE_clean_linker_10, # of connection points: 2
# Relax obj value: 0.139
# Max RMSD: 0.133
# Mean RMSD: 0.133
data_MOF--net-unm--node1-KUFVIS_clean_sbu_0--edge1-TEMPAE_clean_linker_10
_symmetry_space_group_name_H-M    P1
_symmetry_Int_Tables_number       1
_symmetry_cell_setting            triclinic
loop_
_symmetry_equiv_pos_as_xyz
'x, y, z'
_cell_length_a     25.521888
_cell_length_b     25.524371
_cell_length_c     45.23162
_cell_angle_alpha  89.993575
_cell_angle_beta   90.000647
_cell_angle_gamma 89.984162
loop_
_atom_site_label
_atom_site_type_symbol
_atom_site_fract_x
_atom_site_fract_y
_atom_site_fract_z
_atom_type_partial_charge
Mn0 Mn 0.17313 0.29242 0.17363 0.0
Mn1 Mn 0.24413 0.38657 0.13977 0.0
C2 C 0.13195 0.36017 0.14926 0.0
C3 C 0.12471 0.26225 0.21422 0.0
C4 C 0.2235 0.28043 0.11245 0.0
O5 O 0.24613 0.28198 0.19206 0.0
O6 O 0.28874 0.34605 0.16757 0.0
C7 C 0.26555 0.45251 0.19226 0.0
N8 N 0.24584 0.44735 0.16443 0.0
C9 C 0.22109 0.5383 0.16304 0.0
C10 C 0.2414 0.54465 0.19162 0.0
C11 C 0.26362 0.50153 0.20631 0.0
C12 C 0.22428 0.48856 0.15012 0.0
H13 H 0.28256 0.41946 0.20366 0.0
C14 C 0.28771 0.30822 0.18621 0.0
O15 O 0.14125 0.23019 0.19391 0.0
O16 O 0.14135 0.31006 0.21255 0.0
N17 N 0.20574 0.4292 0.11249 0.0
C18 C 0.18507 0.41577 0.08576 0.0
C19 C 0.15961 0.45405 0.0687 0.0
C20 C 0.1562 0.50578 0.07912 0.0
C21 C 0.17826 0.51877 0.10654 0.0
C22 C 0.20324 0.479 0.12256 0.0
H23 H 0.18756 0.37607 0.07763 0.0
O24 O 0.10785 0.31642 0.15408 0.0
O25 O 0.17968 0.3636 0.15923 0.0
O26 O 0.19725 0.261 0.13388 0.0
O27 O 0.24313 0.3264 0.1126 0.0
C28 C 0.17572 0.56943 0.11884 0.0
C29 C 0.19702 0.57916 0.14709 0.0
H30 H 0.23975 0.58234 0.2026 0.0
H31 H 0.27916 0.50606 0.22842 0.0
H32 H 0.14261 0.44369 0.04757 0.0
H33 H 0.13635 0.53513 0.06594 0.0
H34 H 0.15698 0.60108 0.1069 0.0
H35 H 0.19408 0.61808 0.1565 0.0
Mn36 Mn 0.21711 0.67639 0.67363 0.0
Mn37 Mn 0.12304 0.74705 0.63944 0.0
C38 C 0.14952 0.63498 0.64928 0.0
C39 C 0.24711 0.62829 0.71439 0.0
C40 C 0.22934 0.72622 0.61233 0.0
O41 O 0.22737 0.74953 0.69188 0.0
O42 O 0.16337 0.79191 0.66719 0.0
C43 C 0.05679 0.76888 0.69176 0.0
N44 N 0.06212 0.74891 0.66399 0.0
C45 C 0.97124 0.72396 0.66257 0.0
C46 C 0.96471 0.74453 0.69107 0.0
C47 C 0.00771 0.76698 0.70575 0.0
C48 C 0.02103 0.72714 0.64969 0.0
H49 H 0.08975 0.78606 0.70315 0.0
C50 C 0.20112 0.79105 0.68588 0.0
O51 O 0.27926 0.64468 0.69409 0.0
O52 O 0.19929 0.64493 0.7126 0.0
N53 N 0.0806 0.70839 0.6122 0.0
C54 C 0.0942 0.68751 0.58554 0.0
C55 C 0.05606 0.66181 0.56851 0.0
C56 C 1.0043 0.65837 0.57888 0.0
C57 C 0.99112 0.68065 0.60622 0.0
C58 C 0.03076 0.70587 0.62221 0.0
H59 H 0.13393 0.69001 0.57746 0.0
O60 O 0.19328 0.61095 0.65423 0.0
O61 O 0.14599 0.68278 0.65911 0.0
O62 O 0.2487 0.70017 0.63386 0.0
O63 O 0.18335 0.74585 0.61237 0.0
C64 C 0.94042 0.67811 0.61846 0.0
C65 C 0.93051 0.69965 0.64663 0.0
H66 H 0.92697 0.74291 0.702 0.0
H67 H 1.00304 0.78272 0.72781 0.0
H68 H 0.06656 0.64464 0.54745 0.0
H69 H 0.97505 0.63832 0.56573 0.0
H70 H 0.90888 0.65917 0.60655 0.0
H71 H 0.89156 0.6967 0.656 0.0
Mn72 Mn 0.83334 0.71442 0.17309 0.0
Mn73 Mn 0.76225 0.62042 0.13918 0.0
C74 C 0.87443 0.64659 0.14876 0.0
C75 C 0.8818 0.74451 0.2137 0.0
C76 C 0.7831 0.72654 0.11189 0.0
O77 O 0.76034 0.72496 0.1915 0.0
O78 O 0.71764 0.66105 0.16693 0.0
C79 C 0.7405 0.55455 0.19166 0.0
N80 N 0.76034 0.55966 0.16385 0.0
C81 C 0.78501 0.46868 0.16255 0.0
C82 C 0.76457 0.46238 0.1911 0.0
C83 C 0.74232 0.50554 0.20574 0.0
C84 C 0.78192 0.5184 0.14959 0.0
H85 H 0.72348 0.58763 0.20303 0.0
C86 C 0.71871 0.69885 0.18559 0.0
O87 O 0.86531 0.77659 0.19338 0.0
O88 O 0.86508 0.69672 0.21202 0.0
N89 N 0.80066 0.5777 0.11196 0.0
C90 C 0.82147 0.59108 0.08525 0.0
C91 C 0.84699 0.55277 0.06825 0.0
C92 C 0.85032 0.50105 0.0787 0.0
C93 C 0.82811 0.48811 0.1061 0.0
C94 C 0.80307 0.52791 0.12205 0.0
H95 H 0.81906 0.63078 0.07711 0.0
O96 O 0.8986 0.69031 0.15357 0.0
O97 O 0.82668 0.64326 0.1587 0.0
O98 O 0.80931 0.74591 0.13335 0.0
O99 O 0.76345 0.68058 0.112 0.0
C100 C 0.83056 0.43747 0.11843 0.0
C101 C 0.80913 0.42778 0.14665 0.0
H102 H 0.76614 0.4247 0.2021 0.0
H103 H 0.72669 0.50105 0.22783 0.0
H104 H 0.8641 0.56309 0.04715 0.0
H105 H 0.87022 0.47167 0.06558 0.0
H106 H 0.84934 0.40579 0.10654 0.0
H107 H 0.812 0.38888 0.15608 0.0
Mn108 Mn 0.79641 0.33504 0.67341 0.0
Mn109 Mn 0.89115 0.26428 0.6399 0.0
C110 C 0.86417 0.37638 0.64917 0.0
C111 C 0.76567 0.38352 0.71385 0.0
C112 C 0.7851 0.28431 0.61229 0.0
O113 O 0.78615 0.2621 0.69193 0.0
O114 O 0.85058 0.21963 0.66765 0.0
C115 C 0.95672 0.24331 0.69261 0.0
N116 N 0.95173 0.2629 0.66474 0.0
C117 C 0.04259 0.28802 0.6636 0.0
C118 C 0.04877 0.26784 0.69222 0.0
C119 C 0.00561 0.24549 0.7068 0.0
C120 C 0.99298 0.28458 0.65052 0.0
H121 H 0.92365 0.22621 0.70393 0.0
C122 C 0.81259 0.22059 0.68619 0.0
O123 O 0.73386 0.36675 0.69347 0.0
O124 O 0.81359 0.36709 0.71233 0.0
N125 N 0.93386 0.30274 0.61271 0.0
C126 C 0.92057 0.32329 0.58592 0.0
C127 C 0.95888 0.34886 0.56894 0.0
C128 C 0.01051 0.35251 0.57951 0.0
C129 C 0.02336 0.33058 0.60699 0.0
C130 C 0.98357 0.30548 0.62291 0.0
H131 H 0.88094 0.32062 0.57768 0.0
O132 O 0.82026 0.40031 0.65383 0.0
O133 O 0.86774 0.32872 0.65922 0.0
O134 O 0.7654 0.31056 0.63364 0.0
O135 O 0.83119 0.26492 0.61256 0.0
C136 C 0.0739 0.33337 0.61944 0.0
C137 C 0.08348 0.31221 0.64774 0.0
H138 H 0.08635 0.26968 0.7033 0.0
H139 H 0.01002 0.23005 0.72895 0.0
H140 H 0.94863 0.36577 0.54777 0.0
H141 H 0.03989 0.37244 0.5664 0.0
H142 H 0.10557 0.35221 0.60758 0.0
H143 H 0.1223 0.31535 0.65726 0.0
Mn144 Mn 0.67321 0.21448 0.33979 0.0
Mn145 Mn 0.74415 0.12032 0.3737 0.0
C146 C 0.63201 0.14681 0.3642 0.0
C147 C 0.62472 0.24456 0.29919 0.0
C148 C 0.72372 0.22658 0.40091 0.0
O149 O 0.74619 0.22475 0.32131 0.0
O150 O 0.78879 0.16073 0.34587 0.0
C151 C 0.76555 0.05423 0.32127 0.0
N152 N 0.74581 0.05948 0.34909 0.0
C153 C 0.7209 0.96858 0.35051 0.0
C154 C 0.74124 0.96214 0.32194 0.0
C155 C 0.76355 0.00519 0.30724 0.0
C156 C 0.72417 0.01834 0.36341 0.0
H157 H 0.78262 0.08722 0.30985 0.0
C158 C 0.78777 0.1985 0.32719 0.0
O159 O 0.64131 0.27667 0.31946 0.0
O160 O 0.64135 0.19674 0.3009 0.0
N161 N 0.70569 0.0778 0.40099 0.0
C162 C 0.68496 0.09134 0.4277 0.0
C163 C 0.65937 0.05316 0.44476 0.0
C164 C 0.65588 1.00142 0.43436 0.0
C165 C 0.678 0.98832 0.40697 0.0
C166 C 0.70311 0.02799 0.39096 0.0
H167 H 0.68749 0.13105 0.4358 0.0
O168 O 0.60795 0.1906 0.35939 0.0
O169 O 0.67973 0.14333 0.35422 0.0
O170 O 0.69746 0.246 0.37948 0.0
O171 O 0.74322 0.18054 0.40082 0.0
C172 C 0.67538 0.93765 0.3947 0.0
C173 C 0.69672 0.92781 0.36647 0.0
H174 H 0.73953 0.92444 0.31098 0.0
H175 H 0.77911 1.00058 0.28513 0.0
H176 H 0.64232 0.0636 0.46586 0.0
H177 H 0.63592 0.97214 0.44754 0.0
H178 H 0.65656 0.90607 0.40664 0.0
H179 H 0.69372 0.88889 0.35708 0.0
Mn180 Mn 0.29353 0.17634 0.83944 0.0
Mn181 Mn 0.38753 0.24686 0.87373 0.0
C182 C 0.36114 0.13484 0.86376 0.0
C183 C 0.26359 0.12831 0.79866 0.0
C184 C 0.28117 0.22606 0.90076 0.0
O185 O 0.28331 0.24952 0.82122 0.0
O186 O 0.34727 0.29182 0.84598 0.0
C187 C 0.45392 0.26886 0.82149 0.0
N188 N 0.44851 0.24878 0.84922 0.0
C189 C 0.5394 0.22379 0.8507 0.0
C190 C 0.54601 0.24447 0.82222 0.0
C191 C 0.50304 0.267 0.80754 0.0
C192 C 0.48958 0.22693 0.86354 0.0
H193 H 0.42099 0.2861 0.81008 0.0
C194 C 0.30956 0.29101 0.82725 0.0
O195 O 0.23141 0.1447 0.81895 0.0
O196 O 0.3114 0.14493 0.80046 0.0
N197 N 0.4299 0.20805 0.90095 0.0
C198 C 0.41621 0.187 0.92755 0.0
C199 C 0.45429 0.16116 0.94457 0.0
C200 C 0.50609 0.15775 0.93425 0.0
C201 C 0.51935 0.1802 0.90696 0.0
C202 C 0.47977 0.20555 0.89098 0.0
H203 H 0.37645 0.18947 0.93559 0.0
O204 O 0.31737 0.11085 0.85882 0.0
O205 O 0.36464 0.18267 0.85397 0.0
O206 O 0.26187 0.20005 0.8792 0.0
O207 O 0.32716 0.24564 0.90076 0.0
C208 C 0.57008 0.17768 0.89476 0.0
C209 C 0.58008 0.19937 0.86663 0.0
H210 H 0.58377 0.24287 0.81133 0.0
H211 H 0.50777 0.28283 0.78551 0.0
H212 H 0.44373 0.14386 0.96559 0.0
H213 H 0.53529 0.1376 0.94739 0.0
H214 H 0.6016 0.15867 0.90668 0.0
H215 H 0.61906 0.19644 0.8573 0.0
Mn216 Mn 0.33337 0.79283 0.33917 0.0
Mn217 Mn 0.26219 0.88679 0.37309 0.0
C218 C 0.37442 0.86064 0.36351 0.0
C219 C 0.38177 0.76274 0.29854 0.0
C220 C 0.28328 0.78073 0.40041 0.0
O221 O 0.26036 0.78223 0.32079 0.0
O222 O 0.21762 0.84616 0.34533 0.0
C223 C 0.24042 0.95266 0.32061 0.0
N224 N 0.26023 0.94757 0.34842 0.0
C225 C 0.2848 0.03856 0.34974 0.0
C226 C 0.26438 0.04485 0.32118 0.0
C227 C 0.2422 1.00168 0.30653 0.0
C228 C 0.28175 0.98883 0.36269 0.0
H229 H 0.22345 0.91958 0.30923 0.0
C230 C 0.21871 0.80835 0.32669 0.0
O231 O 0.36535 0.73066 0.31887 0.0
O232 O 0.36502 0.81052 0.30022 0.0
N233 N 0.30052 0.92953 0.40032 0.0
C234 C 0.32127 0.91617 0.42706 0.0
C235 C 0.34668 0.95451 0.44408 0.0
C236 C 0.34997 0.00623 0.43363 0.0
C237 C 0.32782 0.01916 0.40621 0.0
C238 C 0.30288 0.97933 0.39024 0.0
H239 H 0.31888 0.87648 0.43521 0.0
O240 O 0.39864 0.81696 0.35865 0.0
O241 O 0.32666 0.86399 0.35357 0.0
O242 O 0.30948 0.76136 0.37894 0.0
O243 O 0.26348 0.82663 0.40027 0.0
C244 C 0.33023 0.0698 0.39389 0.0
C245 C 0.30884 0.07947 0.36565 0.0
H246 H 0.26592 0.08253 0.31018 0.0
H247 H 0.22658 0.00616 0.28443 0.0
H248 H 0.36374 0.94421 0.4652 0.0
H249 H 0.36978 0.03563 0.44678 0.0
H250 H 0.34895 0.10149 0.40579 0.0
H251 H 0.31168 0.11837 0.35622 0.0
Mn252 Mn 0.71508 0.83509 0.83895 0.0
Mn253 Mn 0.62 0.76421 0.87206 0.0
C254 C 0.64698 0.87637 0.86295 0.0
C255 C 0.7463 0.88359 0.79864 0.0
C256 C 0.7256 0.78439 0.90015 0.0
O257 O 0.72571 0.76218 0.82048 0.0
O258 O 0.6611 0.71962 0.84453 0.0
C259 C 0.55532 0.74319 0.81902 0.0
N260 N 0.55982 0.76274 0.84692 0.0
C261 C 0.46887 0.78761 0.84763 0.0
C262 C 0.46319 0.76747 0.81897 0.0
C263 C 0.50665 0.74527 0.80459 0.0
C264 C 0.51829 0.78429 0.86094 0.0
H265 H 0.58862 0.7262 0.80785 0.0
C266 C 0.69932 0.72062 0.82615 0.0
O267 O 0.77785 0.86685 0.81916 0.0
O268 O 0.69838 0.86714 0.79997 0.0
N269 N 0.57677 0.80254 0.89905 0.0
C270 C 0.58956 0.823 0.92594 0.0
C271 C 0.55089 0.84836 0.94276 0.0
C272 C 0.49941 0.85188 0.93194 0.0
C273 C 0.48707 0.83005 0.90437 0.0
C274 C 0.52721 0.80515 0.88861 0.0
H275 H 0.62906 0.8204 0.93437 0.0
O276 O 0.69091 0.90034 0.85844 0.0
O277 O 0.64357 0.82871 0.85287 0.0
O278 O 0.74558 0.81062 0.87887 0.0
O279 O 0.67954 0.76497 0.89968 0.0
C280 C 0.43671 0.83272 0.89168 0.0
C281 C 0.42765 0.81162 0.86331 0.0
H282 H 0.42577 0.76923 0.80771 0.0
H283 H 0.50264 0.72987 0.78241 0.0
H284 H 0.56074 0.86519 0.964 0.0
H285 H 0.46974 0.87163 0.94495 0.0
H286 H 0.40479 0.85142 0.9034 0.0
H287 H 0.38897 0.81467 0.85361 0.0
C288 C 0.17831 0.24368 0.06861 0.0
C289 C 0.22515 0.25273 0.08394 0.0
C290 C 0.17869 0.23263 0.03815 0.0
C291 C 0.22716 0.22955 0.02298 0.0
C292 C 0.27463 0.23407 0.03908 0.0
C293 C 0.27301 0.24666 0.06927 0.0
C294 C 0.12726 0.22906 0.02183 0.0
C295 C 0.32722 0.22953 0.02399 0.0
C296 C 0.24299 0.18049 0.94412 0.0
C297 C 0.2532 0.22751 0.9292 0.0
C298 C 0.2314 0.18037 0.97452 0.0
C299 C 0.22893 0.22852 0.99003 0.0
C300 C 0.23467 0.27626 0.97433 0.0
C301 C 0.24776 0.27512 0.9442 0.0
C302 C 0.22652 0.12864 0.99043 0.0
C303 C 0.23081 0.32857 0.98978 0.0
H304 H 0.14126 0.24968 0.07987 0.0
H305 H 0.30915 0.25431 0.08112 0.0
H306 H 0.12085 0.26582 0.00923 0.0
H307 H 0.12775 0.19636 1.00569 0.0
H308 H 0.09371 0.22351 0.03717 0.0
H309 H 0.35987 0.22646 0.04015 0.0
H310 H 0.32816 0.19472 0.0093 0.0
H311 H 0.33399 0.2646 0.01001 0.0
H312 H 0.24846 0.14361 0.93261 0.0
H313 H 0.25627 0.31139 0.93267 0.0
H314 H 0.19344 0.12936 0.00632 0.0
H315 H 0.26285 0.12128 1.00326 0.0
H316 H 0.22073 0.09555 0.9748 0.0
H317 H 0.19568 0.32985 1.00422 0.0
H318 H 0.22876 0.36166 0.97386 0.0
H319 H 0.26568 0.3343 1.00407 0.0
C320 C 0.2664 0.68045 0.56877 0.0
C321 C 0.2571 0.72752 0.58383 0.0
C322 C 0.27743 0.68035 0.5383 0.0
C323 C 0.28025 0.72856 0.52286 0.0
C324 C 0.27551 0.77628 0.53869 0.0
C325 C 0.26295 0.77514 0.56889 0.0
C326 C 0.28124 0.62865 0.52228 0.0
C327 C 0.27978 0.82862 0.5233 0.0
C328 C 0.32908 0.74328 0.44389 0.0
C329 C 0.28198 0.75306 0.42895 0.0
C330 C 0.32932 0.73217 0.47435 0.0
C331 C 0.2812 0.72975 0.4899 0.0
C332 C 0.2334 0.73502 0.4742 0.0
C333 C 0.23442 0.74765 0.44401 0.0
C334 C 0.38111 0.72779 0.49024 0.0
C335 C 0.18113 0.73118 0.48971 0.0
H336 H 0.26059 0.64358 0.58023 0.0
H337 H 0.2551 0.81145 0.58053 0.0
H338 H 0.24449 0.62184 0.50974 0.0
H339 H 0.31391 0.62902 0.50611 0.0
H340 H 0.28701 0.59541 0.5378 0.0
H341 H 0.28272 0.86156 0.53927 0.0
H342 H 0.31456 0.82945 0.50859 0.0
H343 H 0.24464 0.83499 0.5093 0.0
H344 H 0.36592 0.74875 0.43233 0.0
H345 H 0.19809 0.75583 0.43246 0.0
H346 H 0.38057 0.69503 0.50635 0.0
H347 H 0.38834 0.7644 0.50284 0.0
H348 H 0.41418 0.72182 0.47463 0.0
H349 H 0.18006 0.69631 0.50435 0.0
H350 H 0.14803 0.7287 0.47382 0.0
H351 H 0.17524 0.76627 0.5038 0.0
C352 C 0.82826 0.76293 0.06796 0.0
C353 C 0.78147 0.75437 0.08342 0.0
C354 C 0.82769 0.77433 0.03753 0.0
C355 C 0.7791 0.77829 0.02256 0.0
C356 C 0.73175 0.77418 0.0388 0.0
C357 C 0.73353 0.7612 0.06894 0.0
C358 C 0.87898 0.77737 0.02104 0.0
C359 C 0.67906 0.77965 0.02392 0.0
C360 C 0.76378 0.82881 0.94392 0.0
C361 C 0.75299 0.78217 0.92876 0.0
C362 C 0.77525 0.82829 0.97434 0.0
C363 C 0.77702 0.77987 0.98962 0.0
C364 C 0.77056 0.73246 0.97369 0.0
C365 C 0.7576 0.73426 0.94356 0.0
C366 C 0.78088 0.87969 0.9905 0.0
C367 C 0.77364 0.67986 0.98889 0.0
H368 H 0.86534 0.75633 0.07907 0.0
H369 H 0.69743 0.75391 0.08089 0.0
H370 H 0.8846 0.74081 0.00815 0.0
H371 H 0.87886 0.81044 1.00514 0.0
H372 H 0.91281 0.782 0.03628 0.0
H373 H 0.64663 0.78296 0.0402 0.0
H374 H 0.67845 0.81467 0.00938 0.0
H375 H 0.67166 0.74487 0.00982 0.0
H376 H 0.75896 0.86593 0.93257 0.0
H377 H 0.74866 0.69829 0.93183 0.0
H378 H 0.81415 0.87833 0.00625 0.0
H379 H 0.74481 0.8872 1.00353 0.0
H380 H 0.78682 0.91299 0.97504 0.0
H381 H 0.80883 0.67779 1.00325 0.0
H382 H 0.77504 0.64698 0.97282 0.0
H383 H 0.73877 0.67449 1.00323 0.0
C384 C 0.67913 0.26241 0.44516 0.0
C385 C 0.72566 0.25448 0.42934 0.0
C386 C 0.68027 0.27377 0.47558 0.0
C387 C 0.72915 0.27832 0.49019 0.0
C388 C 0.77616 0.27486 0.47359 0.0
C389 C 0.77384 0.26192 0.44346 0.0
C390 C 0.62932 0.27612 0.49245 0.0
C391 C 0.82912 0.28095 0.48808 0.0
C392 C 0.74557 0.32856 0.56881 0.0
C393 C 0.75726 0.28196 0.58381 0.0
C394 C 0.73346 0.32809 0.53847 0.0
C395 C 0.73198 0.27973 0.52312 0.0
C396 C 0.7394 0.23232 0.53891 0.0
C397 C 0.75296 0.2341 0.56896 0.0
C398 C 0.72679 0.3795 0.52245 0.0
C399 C 0.73666 0.17977 0.52363 0.0
H400 H 0.64188 0.25534 0.43432 0.0
H401 H 0.80975 0.25508 0.43123 0.0
H402 H 0.62446 0.23941 0.50532 0.0
H403 H 0.62941 0.3091 0.50841 0.0
H404 H 0.59509 0.28043 0.47747 0.0
H405 H 0.8611 0.28475 0.47156 0.0
H406 H 0.8296 0.3159 0.50267 0.0
H407 H 0.83733 0.24619 0.50207 0.0
H408 H 0.75013 0.36567 0.5802 0.0
H409 H 0.76258 0.19816 0.58055 0.0
H410 H 0.69318 0.37782 0.50694 0.0
H411 H 0.76246 0.38754 0.50916 0.0
H412 H 0.72078 0.41264 0.53801 0.0
H413 H 0.70115 0.17734 0.50954 0.0
H414 H 0.73608 0.14678 0.53965 0.0
H415 H 0.77124 0.17494 0.50902 0.0
C416 C 0.3395 0.26713 0.22799 0.0
C417 C 0.33802 0.29615 0.20164 0.0
C418 C 0.38709 0.25914 0.24326 0.0
C419 C 0.43441 0.28022 0.23179 0.0
C420 C 0.43321 0.30849 0.20492 0.0
C421 C 0.3853 0.31621 0.19031 0.0
C422 C 0.38665 0.22885 0.27191 0.0
C423 C 0.48261 0.33105 0.19163 0.0
C424 C 0.55012 0.30285 0.28388 0.0
C425 C 0.5807 0.25798 0.27896 0.0
C426 C 0.50259 0.31066 0.26865 0.0
C427 C 0.48529 0.27295 0.24779 0.0
C428 C 0.51707 0.22867 0.2419 0.0
C429 C 0.56416 0.22167 0.25757 0.0
C430 C 0.47001 0.35849 0.27557 0.0
C431 C 0.50066 0.1879 0.21955 0.0
H432 H 0.30335 0.25164 0.23703 0.0
H433 H 0.38501 0.33832 0.16986 0.0
H434 H 0.41345 0.19473 0.27034 0.0
H435 H 0.40122 0.25406 0.29013 0.0
H436 H 0.34688 0.21453 0.27776 0.0
H437 H 0.47526 0.35106 0.17021 0.0
H438 H 0.50037 0.35965 0.20714 0.0
H439 H 0.51182 0.29949 0.18802 0.0
H440 H 0.56214 0.33081 0.30058 0.0
H441 H 0.58732 0.18673 0.25367 0.0
H442 H 0.43137 0.34628 0.28445 0.0
H443 H 0.46255 0.3812 0.25508 0.0
H444 H 0.48925 0.38458 0.29196 0.0
H445 H 0.46337 0.16942 0.22662 0.0
H446 H 0.53061 0.15671 0.21673 0.0
H447 H 0.49346 0.20659 0.19778 0.0
C448 C 0.24196 0.84314 0.7276 0.0
C449 C 0.21303 0.84146 0.70123 0.0
C450 C 0.24977 0.89082 0.74279 0.0
C451 C 0.22862 0.93803 0.73122 0.0
C452 C 0.20046 0.93664 0.70431 0.0
C453 C 0.19292 0.88864 0.68978 0.0
C454 C 0.27996 0.89059 0.77148 0.0
C455 C 0.17783 0.98593 0.69091 0.0
C456 C 0.20544 0.05376 0.7832 0.0
C457 C 0.25029 0.08439 0.77835 0.0
C458 C 0.19779 0.00622 0.76796 0.0
C459 C 0.23564 0.98898 0.74717 0.0
C460 C 0.27988 0.02084 0.74132 0.0
C461 C 0.28671 0.06793 0.757 0.0
C462 C 0.15 0.97357 0.77483 0.0
C463 C 0.32078 0.00449 0.71903 0.0
H464 H 0.25749 0.80707 0.73673 0.0
H465 H 0.17088 0.8882 0.6693 0.0
H466 H 0.31398 0.91748 0.76992 0.0
H467 H 0.25461 0.90515 0.78965 0.0
H468 H 0.2944 0.85088 0.7774 0.0
H469 H 0.15797 0.97843 0.66947 0.0
H470 H 0.14907 1.00366 0.70634 0.0
H471 H 0.20932 0.0152 0.68732 0.0
H472 H 0.17738 0.06572 0.79987 0.0
H473 H 0.32163 0.09113 0.75316 0.0
H474 H 0.16227 0.935 0.78379 0.0
H475 H 0.12745 0.96597 0.75431 0.0
H476 H 0.12374 0.99281 0.79113 0.0
H477 H 0.33942 0.96731 0.72618 0.0
H478 H 0.35185 0.03455 0.7162 0.0
H479 H 0.3022 0.99711 0.69726 0.0
C480 C 0.45627 0.7044 0.28316 0.0
C481 C 0.42575 0.74933 0.27829 0.0
C482 C 0.50377 0.69656 0.26791 0.0
C483 C 0.52111 0.73432 0.24709 0.0
C484 C 0.4894 0.77867 0.24124 0.0
C485 C 0.44232 0.78569 0.25693 0.0
C486 C 0.53627 0.64865 0.27477 0.0
C487 C 0.50585 0.81948 0.21893 0.0
C488 C 0.66693 0.73995 0.22735 0.0
C489 C 0.6684 0.711 0.20099 0.0
C490 C 0.61933 0.74799 0.2426 0.0
C491 C 0.57199 0.72705 0.23109 0.0
C492 C 0.57317 0.69886 0.20419 0.0
C493 C 0.6211 0.69109 0.18961 0.0
C494 C 0.61978 0.77819 0.27128 0.0
C495 C 0.52375 0.67643 0.19086 0.0
H496 H 0.44422 0.67639 0.29983 0.0
H497 H 0.41922 0.82067 0.25307 0.0
H498 H 0.54371 0.62602 0.25426 0.0
H499 H 0.57494 0.66077 0.28367 0.0
H500 H 0.517 0.62252 0.29113 0.0
H501 H 0.47594 0.85072 0.21613 0.0
H502 H 0.54316 0.83791 0.22602 0.0
H503 H 0.51305 0.80086 0.19714 0.0
H504 H 0.70309 0.75533 0.23643 0.0
H505 H 0.62138 0.66903 0.16913 0.0
H506 H 0.60517 0.75294 0.28947 0.0
H507 H 0.59302 0.81234 0.26973 0.0
H508 H 0.65957 0.79245 0.27715 0.0
H509 H 0.50594 0.64779 0.20632 0.0
H510 H 0.5311 0.65651 0.16942 0.0
H511 H 0.49459 0.70805 0.18728 0.0
C512 C 0.8212 0.12307 0.69053 0.0
C513 C 0.8005 0.17027 0.70161 0.0
C514 C 0.81324 0.07515 0.70508 0.0
C515 C 0.78404 0.07386 0.73163 0.0
C516 C 0.7624 0.12111 0.74286 0.0
C517 C 0.77065 0.16871 0.72765 0.0
C518 C 0.83645 0.02583 0.69205 0.0
C519 C 0.73113 0.12145 0.77118 0.0
C520 C 0.7248 0.94406 0.75674 0.0
C521 C 0.76037 0.92757 0.77854 0.0
C522 C 0.73231 0.99113 0.74113 0.0
C523 C 0.77633 0.02295 0.74753 0.0
C524 C 0.81332 0.00571 0.76881 0.0
C525 C 0.80503 0.95818 0.78396 0.0
C526 C 0.69234 0.00748 0.71831 0.0
C527 C 0.86083 0.03834 0.77628 0.0
H528 H 0.84398 0.12342 0.67031 0.0
H529 H 0.75466 0.20478 0.7365 0.0
H530 H 0.86449 0.0081 0.7079 0.0
H531 H 0.80511 0.99657 0.68803 0.0
H532 H 0.85727 0.03326 0.67089 0.0
H533 H 0.7166 0.1612 0.77691 0.0
H534 H 0.69708 0.09467 0.7692 0.0
H535 H 0.75572 0.1068 0.78965 0.0
H536 H 0.69004 0.92087 0.75246 0.0
H537 H 0.83242 0.9462 0.80098 0.0
H538 H 0.7118 0.01472 0.69677 0.0
H539 H 0.6735 0.04472 0.72517 0.0
H540 H 0.66132 0.97747 0.71512 0.0
H541 H 0.88424 0.04589 0.75606 0.0
H542 H 0.8864 0.01911 0.79294 0.0
H543 H 0.84823 0.07694 0.78505 0.0
C544 C 0.88535 0.19044 0.32309 0.0
C545 C 0.83808 0.21052 0.31176 0.0
C546 C 0.93328 0.19815 0.3085 0.0
C547 C 0.93448 0.22643 0.28163 0.0
C548 C 0.88716 0.24751 0.27015 0.0
C549 C 0.83956 0.23954 0.28541 0.0
C550 C 0.98268 0.17558 0.3218 0.0
C551 C 0.88673 0.27782 0.2415 0.0
C552 C 0.06417 0.28506 0.25587 0.0
C553 C 0.08073 0.24878 0.23446 0.0
C554 C 0.0171 0.27801 0.27155 0.0
C555 C 0.98537 0.23372 0.26565 0.0
C556 C 1.00269 0.19603 0.24478 0.0
C557 C 0.0502 0.20389 0.22954 0.0
C558 C 1.00066 0.31874 0.29391 0.0
C559 C 0.97017 0.14819 0.23785 0.0
H560 H 0.88506 0.16832 0.34355 0.0
H561 H 0.80342 0.25504 0.27637 0.0
H562 H 1.00047 0.147 0.30629 0.0
H563 H 0.01186 0.20714 0.32543 0.0
H564 H 0.97531 0.15555 0.34321 0.0
H565 H 0.84695 0.29212 0.23564 0.0
H566 H 0.91349 0.31194 0.24309 0.0
H567 H 0.90136 0.25262 0.22329 0.0
H568 H 0.08729 0.32 0.25977 0.0
H569 H 0.06224 0.17595 0.21283 0.0
H570 H 0.99345 0.30003 0.31567 0.0
H571 H 0.96337 0.33724 0.28684 0.0
H572 H 0.03059 0.34993 0.29675 0.0
H573 H 0.96271 0.12548 0.25834 0.0
H574 H 0.98944 0.1221 0.22147 0.0
H575 H 0.93152 0.16039 0.22896 0.0
C576 C 0.30528 0.5537 0.72984 0.0
C577 C 0.26045 0.58437 0.7347 0.0
C578 C 0.31296 0.50618 0.7451 0.0
C579 C 0.27515 0.48899 0.76593 0.0
C580 C 0.23094 0.52088 0.77179 0.0
C581 C 0.22407 0.56797 0.75609 0.0
C582 C 0.36073 0.47349 0.73821 0.0
C583 C 0.19008 0.50459 0.79412 0.0
C584 C 0.26875 0.34316 0.78554 0.0
C585 C 0.2977 0.34145 0.8119 0.0
C586 C 0.26096 0.39085 0.77033 0.0
C587 C 0.28218 0.43803 0.78188 0.0
C588 C 0.31038 0.43661 0.80877 0.0
C589 C 0.31789 0.3886 0.82332 0.0
C590 C 0.23074 0.39065 0.74165 0.0
C591 C 0.33309 0.48586 0.82215 0.0
H592 H 0.33331 0.56562 0.71314 0.0
H593 H 0.18917 0.59119 0.75995 0.0
H594 H 0.38331 0.46585 0.75872 0.0
H595 H 0.34843 0.43493 0.72926 0.0
H596 H 0.38697 0.4927 0.7219 0.0
H597 H 0.15903 0.53468 0.79697 0.0
H598 H 0.17141 0.46743 0.787 0.0
H599 H 0.20871 0.4972 0.81588 0.0
H600 H 0.25316 0.30712 0.77643 0.0
H601 H 0.33996 0.38813 0.84379 0.0
H602 H 0.25605 0.40519 0.72348 0.0
H603 H 0.19672 0.41757 0.74324 0.0
H604 H 0.21628 0.35095 0.73575 0.0
H605 H 0.36182 0.50356 0.80669 0.0
H606 H 0.35299 0.47834 0.84358 0.0
H607 H 0.30162 0.51517 0.82576 0.0
C608 C 0.1211 0.81616 0.32263 0.0
C609 C 0.16841 0.79619 0.31128 0.0
C610 C 0.07319 0.80839 0.30803 0.0
C611 C 0.07203 0.78016 0.28115 0.0
C612 C 0.11938 0.75916 0.26967 0.0
C613 C 0.16697 0.76719 0.28493 0.0
C614 C 0.02375 0.83088 0.32133 0.0
C615 C 0.11986 0.7289 0.24101 0.0
C616 C 0.94236 0.72156 0.25532 0.0
C617 C 0.9258 0.7579 0.23394 0.0
C618 C 0.98943 0.72857 0.27101 0.0
C619 C 0.02116 0.77289 0.26514 0.0
C620 C 1.00384 0.81062 0.24429 0.0
C621 C 0.95633 0.8028 0.22905 0.0
C622 C 0.00587 0.68778 0.29334 0.0
C623 C 0.03635 0.85849 0.23741 0.0
H624 H 0.12136 0.83826 0.34309 0.0
H625 H 0.20314 0.75177 0.27587 0.0
H626 H 0.00597 0.8595 0.30584 0.0
H627 H 0.99459 0.79928 0.32492 0.0
H628 H 0.03108 0.85083 0.34276 0.0
H629 H 0.15965 0.7146 0.23517 0.0
H630 H 0.09309 0.69477 0.24257 0.0
H631 H 0.10528 0.75413 0.2228 0.0
H632 H 0.91924 0.68661 0.2592 0.0
H633 H 0.94429 0.83079 0.21236 0.0
H634 H 0.01305 0.70643 0.31512 0.0
H635 H 0.04319 0.66932 0.28627 0.0
H636 H 0.97596 0.65656 0.29614 0.0
H637 H 0.04377 0.88116 0.2579 0.0
H638 H 0.0171 0.88459 0.22103 0.0
H639 H 0.07503 0.84632 0.22853 0.0
C640 C 0.78774 0.44421 0.75554 0.0
C641 C 0.75182 0.42753 0.73398 0.0
C642 C 0.78035 0.49131 0.77114 0.0
C643 C 0.73608 0.52295 0.76499 0.0
C644 C 0.69875 0.50551 0.74395 0.0
C645 C 0.70694 0.45797 0.72881 0.0
C646 C 0.8207 0.50787 0.79369 0.0
C647 C 0.65095 0.53794 0.73675 0.0
C648 C 0.69158 0.62303 0.8221 0.0
C649 C 0.71173 0.67031 0.81083 0.0
C650 C 0.69968 0.57508 0.8076 0.0
C651 C 0.72843 0.57386 0.78089 0.0
C652 C 0.74959 0.62118 0.76949 0.0
C653 C 0.74122 0.6688 0.78465 0.0
C654 C 0.67702 0.52567 0.82083 0.0
C655 C 0.78037 0.62159 0.741 0.0
H656 H 0.82268 0.42116 0.75963 0.0
H657 H 0.67927 0.44584 0.71197 0.0
H658 H 0.80163 0.51511 0.81535 0.0
H659 H 0.85191 0.47799 0.79672 0.0
H660 H 0.83924 0.54517 0.78668 0.0
H661 H 0.62518 0.51861 0.72024 0.0
H662 H 0.62788 0.5454 0.7571 0.0
H663 H 0.66321 0.57659 0.7279 0.0
H664 H 0.66911 0.62334 0.84243 0.0
H665 H 0.75679 0.70495 0.77566 0.0
H666 H 0.70859 0.49656 0.82464 0.0
H667 H 0.64871 0.5078 0.80519 0.0
H668 H 0.65663 0.53305 0.84213 0.0
H669 H 0.81453 0.5949 0.7428 0.0
H670 H 0.79467 0.66139 0.73518 0.0
H671 H 0.75551 0.60688 0.72267 0.0
C672 C 0.90393 0.55569 0.15757 0.0
C673 C 0.90566 0.6009 0.1402 0.0
C674 C 0.94026 0.51533 0.15337 0.0
C675 C 0.98081 0.5218 0.13231 0.0
C676 C 0.98173 0.56676 0.11404 0.0
C677 C 0.94401 0.60597 0.11827 0.0
C678 C 0.93712 0.46722 0.17273 0.0
C679 C 0.02468 0.57546 0.09167 0.0
C680 C 0.10224 0.45106 0.15787 0.0
C681 C 0.10068 0.40576 0.14058 0.0
C682 C 0.06589 0.49135 0.15353 0.0
C683 C 0.02547 0.48472 0.1324 0.0
C684 C 0.02469 0.43965 0.11422 0.0
C685 C 0.06244 0.40051 0.11859 0.0
C686 C 0.06887 0.53957 0.1728 0.0
C687 C 0.98186 0.43076 0.0918 0.0
H688 H 0.87567 0.55293 0.17539 0.0
H689 H 0.94586 0.6417 0.10532 0.0
H690 H 0.93894 0.4313 0.15895 0.0
H691 H 0.97101 0.46629 0.18808 0.0
H692 H 0.90056 0.46622 0.18605 0.0
H693 H 0.01407 0.6063 0.0754 0.0
H694 H 0.06068 0.58804 0.1034 0.0
H695 H 0.03399 0.53882 0.07959 0.0
H696 H 0.13041 0.45395 0.17573 0.0
H697 H 0.06071 0.36471 0.10571 0.0
H698 H 0.03486 0.54058 0.18807 0.0
H699 H 0.06712 0.57541 0.15894 0.0
H700 H 0.10533 0.54067 0.18621 0.0
H701 H 0.94584 0.41814 0.1035 0.0
H702 H 0.99262 0.39988 0.07559 0.0
H703 H 0.97252 0.46733 0.07966 0.0
C704 C 0.90449 0.446 0.61859 0.0
C705 C 0.90971 0.40782 0.64061 0.0
C706 C 0.94349 0.4839 0.61432 0.0
C707 C 0.9884 0.48335 0.63263 0.0
C708 C 0.99502 0.443 0.65381 0.0
C709 C 0.95486 0.40648 0.65805 0.0
C710 C 0.93462 0.52665 0.59185 0.0
C711 C 0.04308 0.44025 0.67323 0.0
C712 C 0.10942 0.56521 0.61874 0.0
C713 C 0.104 0.6036 0.64062 0.0
C714 C 0.0704 0.52733 0.61445 0.0
C715 C 0.02529 0.52813 0.63261 0.0
C716 C 0.01848 0.56872 0.65361 0.0
C717 C 0.05865 0.60521 0.65788 0.0
C718 C 0.07949 0.48434 0.59216 0.0
C719 C 0.97019 0.57174 0.67284 0.0
H720 H 0.8688 0.44756 0.6056 0.0
H721 H 0.95771 0.37836 0.67593 0.0
H722 H 0.9219 0.5627 0.60349 0.0
H723 H 0.97123 0.53599 0.57975 0.0
H724 H 0.90382 0.51582 0.5756 0.0
H725 H 0.07904 0.44209 0.65948 0.0
H726 H 0.0438 0.4743 0.68847 0.0
H727 H 0.0442 0.40384 0.68667 0.0
H728 H 0.14526 0.56345 0.6059 0.0
H729 H 0.05563 0.63352 0.67565 0.0
H730 H 0.04297 0.47482 0.58001 0.0
H731 H 0.09216 0.44845 0.60397 0.0
H732 H 0.1104 0.49502 0.57595 0.0
H733 H 0.93439 0.56973 0.65896 0.0
H734 H 0.96893 0.60833 0.68612 0.0
H735 H 0.96929 0.5379 0.68822 0.0
C736 C 0.60232 0.056 0.35537 0.0
C737 C 0.60066 0.1012 0.37275 0.0
C738 C 0.56591 0.01574 0.35955 0.0
C739 C 0.52533 0.02229 0.38059 0.0
C740 C 0.52445 0.06726 0.39885 0.0
C741 C 0.56227 0.10637 0.39465 0.0
C742 C 0.56901 0.96762 0.3402 0.0
C743 C 0.48147 0.07604 0.42119 0.0
C744 C 0.40397 0.9516 0.35497 0.0
C745 C 0.40557 0.90627 0.37224 0.0
C746 C 0.44027 0.9919 0.35935 0.0
C747 C 0.48065 0.98527 0.3805 0.0
C748 C 0.48143 0.94018 0.39868 0.0
C749 C 0.44375 0.90102 0.39426 0.0
C750 C 0.43729 0.04014 0.34008 0.0
C751 C 0.52421 0.93127 0.42113 0.0
H752 H 0.63061 0.05318 0.33757 0.0
H753 H 0.56047 0.1421 0.40759 0.0
H754 H 0.56715 0.93171 0.35399 0.0
H755 H 0.53511 0.96673 0.32485 0.0
H756 H 0.60556 0.96656 0.32687 0.0
H757 H 0.49196 0.10705 0.43738 0.0
H758 H 0.44542 0.08839 0.40943 0.0
H759 H 0.47231 0.03946 0.43337 0.0
H760 H 0.37583 0.95449 0.33709 0.0
H761 H 0.4455 0.8652 0.40713 0.0
H762 H 0.47129 0.04112 0.32481 0.0
H763 H 0.43905 0.07597 0.35394 0.0
H764 H 0.40082 0.04127 0.32668 0.0
H765 H 0.56015 0.91833 0.40947 0.0
H766 H 0.51328 0.90059 0.43742 0.0
H767 H 0.53374 0.96789 0.43317 0.0
C768 C 0.45202 0.10521 0.85494 0.0
C769 C 0.40672 0.10336 0.87224 0.0
C770 C 0.49225 0.06869 0.85902 0.0
C771 C 0.48555 0.02782 0.87987 0.0
C772 C 0.44048 0.02675 0.89805 0.0
C773 C 0.40143 0.06467 0.89397 0.0
C774 C 0.54049 0.07201 0.83978 0.0
C775 C 0.43155 0.98345 0.92018 0.0
C776 C 0.55629 0.90654 0.85404 0.0
C777 C 0.60138 0.90773 0.87153 0.0
C778 C 0.51607 0.94299 0.85836 0.0
C779 C 0.52257 0.98312 0.87968 0.0
C780 C 0.56745 0.98354 0.89802 0.0
C781 C 0.6065 0.94571 0.89366 0.0
C782 C 0.46805 0.94039 0.8389 0.0
C783 C 0.57625 0.02609 0.92061 0.0
H784 H 0.45494 0.13374 0.83727 0.0
H785 H 0.36563 0.06274 0.90685 0.0
H786 H 0.54147 0.03833 0.82429 0.0
H787 H 0.54163 0.10874 0.82661 0.0
H788 H 0.57631 0.06994 0.85363 0.0
H789 H 0.40026 0.99361 0.93627 0.0
H790 H 0.41954 0.94751 0.90822 0.0
H791 H 0.46799 0.97428 0.93249 0.0
H792 H 0.55352 0.87859 0.83608 0.0
H793 H 0.64216 0.94717 0.90669 0.0
H794 H 0.46729 0.97461 0.82378 0.0
H795 H 0.43206 0.94203 0.85264 0.0
H796 H 0.46702 0.90413 0.82533 0.0
H797 H 0.60685 0.015 0.93693 0.0
H798 H 0.53957 0.03553 0.93262 0.0
H799 H 0.58925 0.06215 0.90908 0.0
loop_
_geom_bond_atom_site_label_1
_geom_bond_atom_site_label_2
_geom_bond_distance
_geom_bond_site_symmetry_2
_ccdc_geom_bond_type
Mn0 O5 2.095 . S
Mn0 O15 2.162 . S
Mn0 O16 2.297 . S
Mn0 O24 2.385 . S
Mn0 O25 2.209 . S
Mn0 O26 2.094 . S
Mn1 O6 2.121 . S
Mn1 N8 2.257 . S
Mn1 N17 2.282 . S
Mn1 O25 2.215 . S
Mn1 O27 2.117 . S
C2 O24 1.234 . S
C2 O25 1.283 . S
C3 O15 1.281 . S
C3 O16 1.236 . S
C4 O26 1.240 . S
C4 O27 1.264 . S
O5 Mn0 2.095 . S
O5 C14 1.250 . S
O6 Mn1 2.121 . S
O6 C14 1.258 . S
C7 N8 1.326 . S
C7 C11 1.460 . S
C7 H13 0.929 . S
N8 Mn1 2.257 . S
N8 C7 1.326 . S
N8 C12 1.362 . S
C9 C10 1.258 . S
C9 C12 1.431 . S
C9 C29 1.449 . S
C10 C9 1.258 . S
C10 C11 1.477 . S
C10 H30 0.931 . S
C11 C7 1.460 . S
C11 C10 1.477 . S
C11 H31 0.930 . S
C12 N8 1.362 . S
C12 C9 1.431 . S
C12 C22 1.476 . S
H13 C7 0.929 . S
C14 O5 1.250 . S
C14 O6 1.258 . S
O15 Mn0 2.162 . S
O15 C3 1.281 . S
O16 Mn0 2.297 . S
O16 C3 1.236 . S
N17 Mn1 2.282 . S
N17 C18 1.328 . S
N17 C22 1.318 . S
C18 N17 1.328 . S
C18 C19 1.457 . S
C18 H23 0.929 . S
C19 C18 1.457 . S
C19 C20 1.291 . S
C19 H32 0.931 . S
C20 C19 1.291 . S
C20 C21 1.373 . S
C20 H33 0.929 . S
C21 C20 1.373 . S
C21 C22 1.396 . S
C21 C28 1.403 . S
C22 C12 1.476 . S
C22 N17 1.318 . S
C22 C21 1.396 . S
H23 C18 0.929 . S
O24 Mn0 2.385 . S
O24 C2 1.234 . S
O25 Mn0 2.209 . S
O25 Mn1 2.215 . S
O25 C2 1.283 . S
O26 Mn0 2.094 . S
O26 C4 1.240 . S
O27 Mn1 2.117 . S
O27 C4 1.264 . S
C28 C21 1.403 . S
C28 C29 1.399 . S
C28 H34 0.929 . S
C29 C9 1.449 . S
C29 C28 1.399 . S
C29 H35 0.930 . S
H30 C10 0.931 . S
H31 C11 0.930 . S
H32 C19 0.931 . S
H33 C20 0.929 . S
H34 C28 0.929 . S
H35 C29 0.930 . S
Mn36 O41 2.095 . S
Mn36 O51 2.162 . S
Mn36 O52 2.297 . S
Mn36 O60 2.385 . S
Mn36 O61 2.209 . S
Mn36 O62 2.094 . S
Mn37 O42 2.121 . S
Mn37 N44 2.257 . S
Mn37 N53 2.282 . S
Mn37 O61 2.215 . S
Mn37 O63 2.117 . S
C38 O60 1.234 . S
C38 O61 1.283 . S
C39 O51 1.281 . S
C39 O52 1.236 . S
C40 O62 1.240 . S
C40 O63 1.264 . S
O41 Mn36 2.095 . S
O41 C50 1.250 . S
O42 Mn37 2.121 . S
O42 C50 1.258 . S
C43 N44 1.326 . S
C43 C47 1.460 . S
C43 H49 0.929 . S
N44 Mn37 2.257 . S
N44 C43 1.326 . S
N44 C48 1.362 . S
C45 C46 1.258 . S
C45 C48 1.431 1_655 S
C45 C65 1.449 . S
C46 C45 1.258 . S
C46 C47 1.477 1_655 S
C46 H66 0.931 . S
C47 C43 1.460 . S
C47 C46 1.477 1_455 S
C47 H67 0.930 . S
C48 N44 1.362 . S
C48 C45 1.431 1_455 S
C48 C58 1.476 . S
H49 C43 0.929 . S
C50 O41 1.250 . S
C50 O42 1.258 . S
O51 Mn36 2.162 . S
O51 C39 1.281 . S
O52 Mn36 2.297 . S
O52 C39 1.236 . S
N53 Mn37 2.282 . S
N53 C54 1.328 . S
N53 C58 1.318 . S
C54 N53 1.328 . S
C54 C55 1.457 . S
C54 H59 0.929 . S
C55 C54 1.457 . S
C55 C56 1.291 . S
C55 H68 0.931 . S
C56 C55 1.291 . S
C56 C57 1.368 1_455 S
C56 H69 0.929 1_455 S
C57 C56 1.368 1_655 S
C57 C58 1.380 1_655 S
C57 C64 1.422 . S
C58 C48 1.476 . S
C58 N53 1.318 . S
C58 C57 1.380 1_455 S
H59 C54 0.929 . S
O60 Mn36 2.385 . S
O60 C38 1.234 . S
O61 Mn36 2.209 . S
O61 Mn37 2.215 . S
O61 C38 1.283 . S
O62 Mn36 2.094 . S
O62 C40 1.240 . S
O63 Mn37 2.117 . S
O63 C40 1.264 . S
C64 C57 1.422 . S
C64 C65 1.399 . S
C64 H70 0.929 . S
C65 C45 1.449 . S
C65 C64 1.399 . S
C65 H71 0.930 . S
H66 C46 0.931 . S
H67 C47 0.930 . S
H68 C55 0.931 . S
H69 C56 0.929 1_655 S
H70 C64 0.929 . S
H71 C65 0.930 . S
Mn72 O77 2.095 . S
Mn72 O87 2.162 . S
Mn72 O88 2.297 . S
Mn72 O96 2.385 . S
Mn72 O97 2.209 . S
Mn72 O98 2.094 . S
Mn73 O78 2.121 . S
Mn73 N80 2.257 . S
Mn73 N89 2.282 . S
Mn73 O97 2.215 . S
Mn73 O99 2.117 . S
C74 O96 1.234 . S
C74 O97 1.283 . S
C75 O87 1.281 . S
C75 O88 1.236 . S
C76 O98 1.240 . S
C76 O99 1.264 . S
O77 Mn72 2.095 . S
O77 C86 1.250 . S
O78 Mn73 2.121 . S
O78 C86 1.258 . S
C79 N80 1.326 . S
C79 C83 1.460 . S
C79 H85 0.929 . S
N80 Mn73 2.257 . S
N80 C79 1.326 . S
N80 C84 1.362 . S
C81 C82 1.258 . S
C81 C84 1.431 . S
C81 C101 1.449 . S
C82 C81 1.258 . S
C82 C83 1.477 . S
C82 H102 0.931 . S
C83 C79 1.460 . S
C83 C82 1.477 . S
C83 H103 0.930 . S
C84 N80 1.362 . S
C84 C81 1.431 . S
C84 C94 1.476 . S
H85 C79 0.929 . S
C86 O77 1.250 . S
C86 O78 1.258 . S
O87 Mn72 2.162 . S
O87 C75 1.281 . S
O88 Mn72 2.297 . S
O88 C75 1.236 . S
N89 Mn73 2.282 . S
N89 C90 1.328 . S
N89 C94 1.318 . S
C90 N89 1.328 . S
C90 C91 1.457 . S
C90 H95 0.929 . S
C91 C90 1.457 . S
C91 C92 1.291 . S
C91 H104 0.931 . S
C92 C91 1.291 . S
C92 C93 1.373 . S
C92 H105 0.929 . S
C93 C92 1.373 . S
C93 C94 1.396 . S
C93 C100 1.403 . S
C94 C84 1.476 . S
C94 N89 1.318 . S
C94 C93 1.396 . S
H95 C90 0.929 . S
O96 Mn72 2.385 . S
O96 C74 1.234 . S
O97 Mn72 2.209 . S
O97 Mn73 2.215 . S
O97 C74 1.283 . S
O98 Mn72 2.094 . S
O98 C76 1.240 . S
O99 Mn73 2.117 . S
O99 C76 1.264 . S
C100 C93 1.403 . S
C100 C101 1.399 . S
C100 H106 0.929 . S
C101 C81 1.449 . S
C101 C100 1.399 . S
C101 H107 0.930 . S
H102 C82 0.931 . S
H103 C83 0.930 . S
H104 C91 0.931 . S
H105 C92 0.929 . S
H106 C100 0.929 . S
H107 C101 0.930 . S
Mn108 O113 2.095 . S
Mn108 O123 2.162 . S
Mn108 O124 2.297 . S
Mn108 O132 2.385 . S
Mn108 O133 2.209 . S
Mn108 O134 2.094 . S
Mn109 O114 2.121 . S
Mn109 N116 2.257 . S
Mn109 N125 2.282 . S
Mn109 O133 2.215 . S
Mn109 O135 2.117 . S
C110 O132 1.234 . S
C110 O133 1.283 . S
C111 O123 1.281 . S
C111 O124 1.236 . S
C112 O134 1.240 . S
C112 O135 1.264 . S
O113 Mn108 2.095 . S
O113 C122 1.250 . S
O114 Mn109 2.121 . S
O114 C122 1.258 . S
C115 N116 1.326 . S
C115 C119 1.460 . S
C115 H121 0.929 . S
N116 Mn109 2.257 . S
N116 C115 1.326 . S
N116 C120 1.362 . S
C117 C118 1.258 . S
C117 C120 1.431 1_455 S
C117 C137 1.449 . S
C118 C117 1.258 . S
C118 C119 1.477 1_455 S
C118 H138 0.931 . S
C119 C115 1.460 . S
C119 C118 1.477 1_655 S
C119 H139 0.930 . S
C120 N116 1.362 . S
C120 C117 1.431 1_655 S
C120 C130 1.476 . S
H121 C115 0.929 . S
C122 O113 1.250 . S
C122 O114 1.258 . S
O123 Mn108 2.162 . S
O123 C111 1.281 . S
O124 Mn108 2.297 . S
O124 C111 1.236 . S
N125 Mn109 2.282 . S
N125 C126 1.328 . S
N125 C130 1.318 . S
C126 N125 1.328 . S
C126 C127 1.457 . S
C126 H131 0.929 . S
C127 C126 1.457 . S
C127 C128 1.291 . S
C127 H140 0.931 . S
C128 C127 1.291 . S
C128 C129 1.368 1_655 S
C128 H141 0.929 1_655 S
C129 C128 1.368 1_455 S
C129 C130 1.380 1_455 S
C129 C136 1.422 . S
C130 C120 1.476 . S
C130 N125 1.318 . S
C130 C129 1.380 1_655 S
H131 C126 0.929 . S
O132 Mn108 2.385 . S
O132 C110 1.234 . S
O133 Mn108 2.209 . S
O133 Mn109 2.215 . S
O133 C110 1.283 . S
O134 Mn108 2.094 . S
O134 C112 1.240 . S
O135 Mn109 2.117 . S
O135 C112 1.264 . S
C136 C129 1.422 . S
C136 C137 1.399 . S
C136 H142 0.929 . S
C137 C117 1.449 . S
C137 C136 1.399 . S
C137 H143 0.930 . S
H138 C118 0.931 . S
H139 C119 0.930 . S
H140 C127 0.931 . S
H141 C128 0.929 1_455 S
H142 C136 0.929 . S
H143 C137 0.930 . S
Mn144 O149 2.095 . S
Mn144 O159 2.162 . S
Mn144 O160 2.297 . S
Mn144 O168 2.385 . S
Mn144 O169 2.209 . S
Mn144 O170 2.094 . S
Mn145 O150 2.121 . S
Mn145 N152 2.257 . S
Mn145 N161 2.282 . S
Mn145 O169 2.215 . S
Mn145 O171 2.117 . S
C146 O168 1.234 . S
C146 O169 1.283 . S
C147 O159 1.281 . S
C147 O160 1.236 . S
C148 O170 1.240 . S
C148 O171 1.264 . S
O149 Mn144 2.095 . S
O149 C158 1.250 . S
O150 Mn145 2.121 . S
O150 C158 1.258 . S
C151 N152 1.326 . S
C151 C155 1.460 . S
C151 H157 0.929 . S
N152 Mn145 2.257 . S
N152 C151 1.326 . S
N152 C156 1.362 . S
C153 C154 1.258 . S
C153 C156 1.431 1_565 S
C153 C173 1.449 . S
C154 C153 1.258 . S
C154 C155 1.477 1_565 S
C154 H174 0.931 . S
C155 C151 1.460 . S
C155 C154 1.477 1_545 S
C155 H175 0.930 . S
C156 N152 1.362 . S
C156 C153 1.431 1_545 S
C156 C166 1.476 . S
H157 C151 0.929 . S
C158 O149 1.250 . S
C158 O150 1.258 . S
O159 Mn144 2.162 . S
O159 C147 1.281 . S
O160 Mn144 2.297 . S
O160 C147 1.236 . S
N161 Mn145 2.282 . S
N161 C162 1.328 . S
N161 C166 1.318 . S
C162 N161 1.328 . S
C162 C163 1.457 . S
C162 H167 0.929 . S
C163 C162 1.457 . S
C163 C164 1.291 . S
C163 H176 0.931 . S
C164 C163 1.291 . S
C164 C165 1.368 1_545 S
C164 H177 0.929 1_545 S
C165 C164 1.368 1_565 S
C165 C166 1.380 1_565 S
C165 C172 1.422 . S
C166 C156 1.476 . S
C166 N161 1.318 . S
C166 C165 1.380 1_545 S
H167 C162 0.929 . S
O168 Mn144 2.385 . S
O168 C146 1.234 . S
O169 Mn144 2.209 . S
O169 Mn145 2.215 . S
O169 C146 1.283 . S
O170 Mn144 2.094 . S
O170 C148 1.240 . S
O171 Mn145 2.117 . S
O171 C148 1.264 . S
C172 C165 1.422 . S
C172 C173 1.399 . S
C172 H178 0.929 . S
C173 C153 1.449 . S
C173 C172 1.399 . S
C173 H179 0.930 . S
H174 C154 0.931 . S
H175 C155 0.930 . S
H176 C163 0.931 . S
H177 C164 0.929 1_565 S
H178 C172 0.929 . S
H179 C173 0.930 . S
Mn180 O185 2.095 . S
Mn180 O195 2.162 . S
Mn180 O196 2.297 . S
Mn180 O204 2.385 . S
Mn180 O205 2.209 . S
Mn180 O206 2.094 . S
Mn181 O186 2.121 . S
Mn181 N188 2.257 . S
Mn181 N197 2.282 . S
Mn181 O205 2.215 . S
Mn181 O207 2.117 . S
C182 O204 1.234 . S
C182 O205 1.283 . S
C183 O195 1.281 . S
C183 O196 1.236 . S
C184 O206 1.240 . S
C184 O207 1.264 . S
O185 Mn180 2.095 . S
O185 C194 1.250 . S
O186 Mn181 2.121 . S
O186 C194 1.258 . S
C187 N188 1.326 . S
C187 C191 1.460 . S
C187 H193 0.929 . S
N188 Mn181 2.257 . S
N188 C187 1.326 . S
N188 C192 1.362 . S
C189 C190 1.258 . S
C189 C192 1.431 . S
C189 C209 1.449 . S
C190 C189 1.258 . S
C190 C191 1.477 . S
C190 H210 0.931 . S
C191 C187 1.460 . S
C191 C190 1.477 . S
C191 H211 0.930 . S
C192 N188 1.362 . S
C192 C189 1.431 . S
C192 C202 1.476 . S
H193 C187 0.929 . S
C194 O185 1.250 . S
C194 O186 1.258 . S
O195 Mn180 2.162 . S
O195 C183 1.281 . S
O196 Mn180 2.297 . S
O196 C183 1.236 . S
N197 Mn181 2.282 . S
N197 C198 1.328 . S
N197 C202 1.318 . S
C198 N197 1.328 . S
C198 C199 1.457 . S
C198 H203 0.929 . S
C199 C198 1.457 . S
C199 C200 1.291 . S
C199 H212 0.931 . S
C200 C199 1.291 . S
C200 C201 1.373 . S
C200 H213 0.929 . S
C201 C200 1.373 . S
C201 C202 1.396 . S
C201 C208 1.403 . S
C202 C192 1.476 . S
C202 N197 1.318 . S
C202 C201 1.396 . S
H203 C198 0.929 . S
O204 Mn180 2.385 . S
O204 C182 1.234 . S
O205 Mn180 2.209 . S
O205 Mn181 2.215 . S
O205 C182 1.283 . S
O206 Mn180 2.094 . S
O206 C184 1.240 . S
O207 Mn181 2.117 . S
O207 C184 1.264 . S
C208 C201 1.403 . S
C208 C209 1.399 . S
C208 H214 0.929 . S
C209 C189 1.449 . S
C209 C208 1.399 . S
C209 H215 0.930 . S
H210 C190 0.931 . S
H211 C191 0.930 . S
H212 C199 0.931 . S
H213 C200 0.929 . S
H214 C208 0.929 . S
H215 C209 0.930 . S
Mn216 O221 2.095 . S
Mn216 O231 2.162 . S
Mn216 O232 2.297 . S
Mn216 O240 2.385 . S
Mn216 O241 2.209 . S
Mn216 O242 2.094 . S
Mn217 O222 2.121 . S
Mn217 N224 2.257 . S
Mn217 N233 2.282 . S
Mn217 O241 2.215 . S
Mn217 O243 2.117 . S
C218 O240 1.234 . S
C218 O241 1.283 . S
C219 O231 1.281 . S
C219 O232 1.236 . S
C220 O242 1.240 . S
C220 O243 1.264 . S
O221 Mn216 2.095 . S
O221 C230 1.250 . S
O222 Mn217 2.121 . S
O222 C230 1.258 . S
C223 N224 1.326 . S
C223 C227 1.460 . S
C223 H229 0.929 . S
N224 Mn217 2.257 . S
N224 C223 1.326 . S
N224 C228 1.362 . S
C225 C226 1.258 . S
C225 C228 1.431 1_545 S
C225 C245 1.449 . S
C226 C225 1.258 . S
C226 C227 1.477 1_545 S
C226 H246 0.931 . S
C227 C223 1.460 . S
C227 C226 1.477 1_565 S
C227 H247 0.930 . S
C228 N224 1.362 . S
C228 C225 1.431 1_565 S
C228 C238 1.476 . S
H229 C223 0.929 . S
C230 O221 1.250 . S
C230 O222 1.258 . S
O231 Mn216 2.162 . S
O231 C219 1.281 . S
O232 Mn216 2.297 . S
O232 C219 1.236 . S
N233 Mn217 2.282 . S
N233 C234 1.328 . S
N233 C238 1.318 . S
C234 N233 1.328 . S
C234 C235 1.457 . S
C234 H239 0.929 . S
C235 C234 1.457 . S
C235 C236 1.291 . S
C235 H248 0.931 . S
C236 C235 1.291 . S
C236 C237 1.368 1_565 S
C236 H249 0.929 1_565 S
C237 C236 1.368 1_545 S
C237 C238 1.380 1_545 S
C237 C244 1.422 . S
C238 C228 1.476 . S
C238 N233 1.318 . S
C238 C237 1.380 1_565 S
H239 C234 0.929 . S
O240 Mn216 2.385 . S
O240 C218 1.234 . S
O241 Mn216 2.209 . S
O241 Mn217 2.215 . S
O241 C218 1.283 . S
O242 Mn216 2.094 . S
O242 C220 1.240 . S
O243 Mn217 2.117 . S
O243 C220 1.264 . S
C244 C237 1.422 . S
C244 C245 1.399 . S
C244 H250 0.929 . S
C245 C225 1.449 . S
C245 C244 1.399 . S
C245 H251 0.930 . S
H246 C226 0.931 . S
H247 C227 0.930 . S
H248 C235 0.931 . S
H249 C236 0.929 1_545 S
H250 C244 0.929 . S
H251 C245 0.930 . S
Mn252 O257 2.095 . S
Mn252 O267 2.162 . S
Mn252 O268 2.297 . S
Mn252 O276 2.385 . S
Mn252 O277 2.209 . S
Mn252 O278 2.094 . S
Mn253 O258 2.121 . S
Mn253 N260 2.257 . S
Mn253 N269 2.282 . S
Mn253 O277 2.215 . S
Mn253 O279 2.117 . S
C254 O276 1.234 . S
C254 O277 1.283 . S
C255 O267 1.281 . S
C255 O268 1.236 . S
C256 O278 1.240 . S
C256 O279 1.264 . S
O257 Mn252 2.095 . S
O257 C266 1.250 . S
O258 Mn253 2.121 . S
O258 C266 1.258 . S
C259 N260 1.326 . S
C259 C263 1.460 . S
C259 H265 0.929 . S
N260 Mn253 2.257 . S
N260 C259 1.326 . S
N260 C264 1.362 . S
C261 C262 1.258 . S
C261 C264 1.431 . S
C261 C281 1.449 . S
C262 C261 1.258 . S
C262 C263 1.477 . S
C262 H282 0.931 . S
C263 C259 1.460 . S
C263 C262 1.477 . S
C263 H283 0.930 . S
C264 N260 1.362 . S
C264 C261 1.431 . S
C264 C274 1.476 . S
H265 C259 0.929 . S
C266 O257 1.250 . S
C266 O258 1.258 . S
O267 Mn252 2.162 . S
O267 C255 1.281 . S
O268 Mn252 2.297 . S
O268 C255 1.236 . S
N269 Mn253 2.282 . S
N269 C270 1.328 . S
N269 C274 1.318 . S
C270 N269 1.328 . S
C270 C271 1.457 . S
C270 H275 0.929 . S
C271 C270 1.457 . S
C271 C272 1.291 . S
C271 H284 0.931 . S
C272 C271 1.291 . S
C272 C273 1.373 . S
C272 H285 0.929 . S
C273 C272 1.373 . S
C273 C274 1.396 . S
C273 C280 1.403 . S
C274 C264 1.476 . S
C274 N269 1.318 . S
C274 C273 1.396 . S
H275 C270 0.929 . S
O276 Mn252 2.385 . S
O276 C254 1.234 . S
O277 Mn252 2.209 . S
O277 Mn253 2.215 . S
O277 C254 1.283 . S
O278 Mn252 2.094 . S
O278 C256 1.240 . S
O279 Mn253 2.117 . S
O279 C256 1.264 . S
C280 C273 1.403 . S
C280 C281 1.399 . S
C280 H286 0.929 . S
C281 C261 1.449 . S
C281 C280 1.399 . S
C281 H287 0.930 . S
H282 C262 0.931 . S
H283 C263 0.930 . S
H284 C271 0.931 . S
H285 C272 0.929 . S
H286 C280 0.929 . S
H287 C281 0.930 . S
C288 C289 1.391 . S
C288 C290 1.394 . S
C288 H304 0.931 . S
C289 C288 1.391 . S
C289 C293 1.376 . S
C290 C288 1.394 . S
C290 C291 1.369 . S
C290 C294 1.531 1_554 S
C291 C290 1.369 . S
C291 C292 1.410 . S
C291 C299 1.503 1_554 S
C292 C291 1.410 . S
C292 C293 1.392 . S
C292 C295 1.511 . S
C293 C289 1.376 . S
C293 C292 1.392 . S
C293 H305 0.929 . S
C294 C290 1.531 1_556 S
C294 H306 0.960 . S
C294 H307 0.962 . S
C294 H308 0.960 . S
C295 C292 1.511 . S
C295 H309 0.961 . S
C295 H310 0.961 . S
C295 H311 0.961 . S
C296 C297 1.370 . S
C296 C298 1.363 . S
C296 H312 0.931 . S
C297 C296 1.370 . S
C297 C301 1.408 . S
C298 C296 1.363 . S
C298 C299 1.370 . S
C298 C302 1.524 . S
C299 C291 1.503 1_556 S
C299 C298 1.370 . S
C299 C300 1.403 . S
C300 C299 1.403 . S
C300 C301 1.404 . S
C300 C303 1.539 . S
C301 C297 1.408 . S
C301 C300 1.404 . S
C301 H313 0.930 . S
C302 C298 1.524 . S
C302 H314 0.956 . S
C302 H315 0.961 1_556 S
C302 H316 0.961 . S
C303 C300 1.539 . S
C303 H317 0.958 . S
C303 H318 0.961 . S
C303 H319 0.960 . S
H304 C288 0.931 . S
H305 C293 0.929 . S
H306 C294 0.960 . S
H307 C294 0.962 . S
H308 C294 0.960 . S
H309 C295 0.961 . S
H310 C295 0.961 . S
H311 C295 0.961 . S
H312 C296 0.931 . S
H313 C301 0.930 . S
H314 C302 0.956 . S
H315 C302 0.961 1_554 S
H316 C302 0.961 . S
H317 C303 0.958 . S
H318 C303 0.961 . S
H319 C303 0.960 . S
C320 C321 1.391 . S
C320 C322 1.394 . S
C320 H336 0.931 . S
C321 C320 1.391 . S
C321 C325 1.376 . S
C322 C320 1.394 . S
C322 C323 1.369 . S
C322 C326 1.531 . S
C323 C322 1.369 . S
C323 C324 1.410 . S
C323 C331 1.503 . S
C324 C323 1.410 . S
C324 C325 1.392 . S
C324 C327 1.511 . S
C325 C321 1.376 . S
C325 C324 1.392 . S
C325 H337 0.929 . S
C326 C322 1.531 . S
C326 H338 0.960 . S
C326 H339 0.962 . S
C326 H340 0.960 . S
C327 C324 1.511 . S
C327 H341 0.961 . S
C327 H342 0.961 . S
C327 H343 0.961 . S
C328 C329 1.370 . S
C328 C330 1.363 . S
C328 H344 0.931 . S
C329 C328 1.370 . S
C329 C333 1.408 . S
C330 C328 1.363 . S
C330 C331 1.370 . S
C330 C334 1.524 . S
C331 C323 1.503 . S
C331 C330 1.370 . S
C331 C332 1.403 . S
C332 C331 1.403 . S
C332 C333 1.404 . S
C332 C335 1.539 . S
C333 C329 1.408 . S
C333 C332 1.404 . S
C333 H345 0.930 . S
C334 C330 1.524 . S
C334 H346 0.956 . S
C334 H347 0.961 . S
C334 H348 0.961 . S
C335 C332 1.539 . S
C335 H349 0.958 . S
C335 H350 0.961 . S
C335 H351 0.960 . S
H336 C320 0.931 . S
H337 C325 0.929 . S
H338 C326 0.960 . S
H339 C326 0.962 . S
H340 C326 0.960 . S
H341 C327 0.961 . S
H342 C327 0.961 . S
H343 C327 0.961 . S
H344 C328 0.931 . S
H345 C333 0.930 . S
H346 C334 0.956 . S
H347 C334 0.961 . S
H348 C334 0.961 . S
H349 C335 0.958 . S
H350 C335 0.961 . S
H351 C335 0.960 . S
C352 C353 1.391 . S
C352 C354 1.394 . S
C352 H368 0.931 . S
C353 C352 1.391 . S
C353 C357 1.376 . S
C354 C352 1.394 . S
C354 C355 1.369 . S
C354 C358 1.531 1_554 S
C355 C354 1.369 . S
C355 C356 1.410 . S
C355 C363 1.503 1_554 S
C356 C355 1.410 . S
C356 C357 1.392 . S
C356 C359 1.511 . S
C357 C353 1.376 . S
C357 C356 1.392 . S
C357 H369 0.929 . S
C358 C354 1.531 1_556 S
C358 H370 0.960 . S
C358 H371 0.962 . S
C358 H372 0.960 1_556 S
C359 C356 1.511 . S
C359 H373 0.961 . S
C359 H374 0.961 . S
C359 H375 0.961 . S
C360 C361 1.370 . S
C360 C362 1.363 . S
C360 H376 0.931 . S
C361 C360 1.370 . S
C361 C365 1.408 . S
C362 C360 1.363 . S
C362 C363 1.370 . S
C362 C366 1.524 . S
C363 C355 1.503 1_556 S
C363 C362 1.370 . S
C363 C364 1.403 . S
C364 C363 1.403 . S
C364 C365 1.404 . S
C364 C367 1.539 . S
C365 C361 1.408 . S
C365 C364 1.404 . S
C365 H377 0.930 . S
C366 C362 1.524 . S
C366 H378 0.956 . S
C366 H379 0.961 . S
C366 H380 0.961 . S
C367 C364 1.539 . S
C367 H381 0.958 . S
C367 H382 0.961 . S
C367 H383 0.960 1_556 S
H368 C352 0.931 . S
H369 C357 0.929 . S
H370 C358 0.960 . S
H371 C358 0.962 . S
H372 C358 0.960 1_554 S
H373 C359 0.961 . S
H374 C359 0.961 . S
H375 C359 0.961 . S
H376 C360 0.931 . S
H377 C365 0.930 . S
H378 C366 0.956 . S
H379 C366 0.961 . S
H380 C366 0.961 . S
H381 C367 0.958 . S
H382 C367 0.961 . S
H383 C367 0.960 1_554 S
C384 C385 1.391 . S
C384 C386 1.394 . S
C384 H400 0.931 . S
C385 C384 1.391 . S
C385 C389 1.376 . S
C386 C384 1.394 . S
C386 C387 1.369 . S
C386 C390 1.531 . S
C387 C386 1.369 . S
C387 C388 1.410 . S
C387 C395 1.503 . S
C388 C387 1.410 . S
C388 C389 1.392 . S
C388 C391 1.511 . S
C389 C385 1.376 . S
C389 C388 1.392 . S
C389 H401 0.929 . S
C390 C386 1.531 . S
C390 H402 0.960 . S
C390 H403 0.962 . S
C390 H404 0.960 . S
C391 C388 1.511 . S
C391 H405 0.961 . S
C391 H406 0.961 . S
C391 H407 0.961 . S
C392 C393 1.370 . S
C392 C394 1.363 . S
C392 H408 0.931 . S
C393 C392 1.370 . S
C393 C397 1.408 . S
C394 C392 1.363 . S
C394 C395 1.370 . S
C394 C398 1.524 . S
C395 C387 1.503 . S
C395 C394 1.370 . S
C395 C396 1.403 . S
C396 C395 1.403 . S
C396 C397 1.404 . S
C396 C399 1.539 . S
C397 C393 1.408 . S
C397 C396 1.404 . S
C397 H409 0.930 . S
C398 C394 1.524 . S
C398 H410 0.956 . S
C398 H411 0.961 . S
C398 H412 0.961 . S
C399 C396 1.539 . S
C399 H413 0.958 . S
C399 H414 0.961 . S
C399 H415 0.960 . S
H400 C384 0.931 . S
H401 C389 0.929 . S
H402 C390 0.960 . S
H403 C390 0.962 . S
H404 C390 0.960 . S
H405 C391 0.961 . S
H406 C391 0.961 . S
H407 C391 0.961 . S
H408 C392 0.931 . S
H409 C397 0.930 . S
H410 C398 0.956 . S
H411 C398 0.961 . S
H412 C398 0.961 . S
H413 C399 0.958 . S
H414 C399 0.961 . S
H415 C399 0.960 . S
C416 C417 1.391 . S
C416 C418 1.394 . S
C416 H432 0.931 . S
C417 C416 1.391 . S
C417 C421 1.376 . S
C418 C416 1.394 . S
C418 C419 1.369 . S
C418 C422 1.531 . S
C419 C418 1.369 . S
C419 C420 1.410 . S
C419 C427 1.503 . S
C420 C419 1.410 . S
C420 C421 1.392 . S
C420 C423 1.511 . S
C421 C417 1.376 . S
C421 C420 1.392 . S
C421 H433 0.929 . S
C422 C418 1.531 . S
C422 H434 0.960 . S
C422 H435 0.962 . S
C422 H436 0.960 . S
C423 C420 1.511 . S
C423 H437 0.961 . S
C423 H438 0.961 . S
C423 H439 0.961 . S
C424 C425 1.370 . S
C424 C426 1.363 . S
C424 H440 0.931 . S
C425 C424 1.370 . S
C425 C429 1.408 . S
C426 C424 1.363 . S
C426 C427 1.370 . S
C426 C430 1.524 . S
C427 C419 1.503 . S
C427 C426 1.370 . S
C427 C428 1.403 . S
C428 C427 1.403 . S
C428 C429 1.404 . S
C428 C431 1.539 . S
C429 C425 1.408 . S
C429 C428 1.404 . S
C429 H441 0.930 . S
C430 C426 1.524 . S
C430 H442 0.956 . S
C430 H443 0.961 . S
C430 H444 0.961 . S
C431 C428 1.539 . S
C431 H445 0.958 . S
C431 H446 0.961 . S
C431 H447 0.960 . S
H432 C416 0.931 . S
H433 C421 0.929 . S
H434 C422 0.960 . S
H435 C422 0.962 . S
H436 C422 0.960 . S
H437 C423 0.961 . S
H438 C423 0.961 . S
H439 C423 0.961 . S
H440 C424 0.931 . S
H441 C429 0.930 . S
H442 C430 0.956 . S
H443 C430 0.961 . S
H444 C430 0.961 . S
H445 C431 0.958 . S
H446 C431 0.961 . S
H447 C431 0.960 . S
C448 C449 1.391 . S
C448 C450 1.394 . S
C448 H464 0.931 . S
C449 C448 1.391 . S
C449 C453 1.376 . S
C450 C448 1.394 . S
C450 C451 1.369 . S
C450 C454 1.531 . S
C451 C450 1.369 . S
C451 C452 1.410 . S
C451 C459 1.503 . S
C452 C451 1.410 . S
C452 C453 1.392 . S
C452 C455 1.511 . S
C453 C449 1.376 . S
C453 C452 1.392 . S
C453 H465 0.929 . S
C454 C450 1.531 . S
C454 H466 0.960 . S
C454 H467 0.962 . S
C454 H468 0.960 . S
C455 C452 1.511 . S
C455 H469 0.961 . S
C455 H470 0.961 . S
C455 H471 0.961 . S
C456 C457 1.370 . S
C456 C458 1.363 . S
C456 H472 0.931 . S
C457 C456 1.370 . S
C457 C461 1.408 . S
C458 C456 1.363 . S
C458 C459 1.370 . S
C458 C462 1.524 . S
C459 C451 1.503 . S
C459 C458 1.370 . S
C459 C460 1.403 . S
C460 C459 1.403 . S
C460 C461 1.404 . S
C460 C463 1.539 . S
C461 C457 1.408 . S
C461 C460 1.404 . S
C461 H473 0.930 1_565 S
C462 C458 1.524 . S
C462 H474 0.956 . S
C462 H475 0.961 . S
C462 H476 0.961 . S
C463 C460 1.539 . S
C463 H477 0.958 . S
C463 H478 0.961 . S
C463 H479 0.960 . S
H464 C448 0.931 . S
H465 C453 0.929 . S
H466 C454 0.960 . S
H467 C454 0.962 . S
H468 C454 0.960 . S
H469 C455 0.961 . S
H470 C455 0.961 . S
H471 C455 0.961 . S
H472 C456 0.931 . S
H473 C461 0.930 1_545 S
H474 C462 0.956 . S
H475 C462 0.961 . S
H476 C462 0.961 . S
H477 C463 0.958 . S
H478 C463 0.961 . S
H479 C463 0.960 . S
C480 C481 1.391 . S
C480 C482 1.394 . S
C480 H496 0.931 . S
C481 C480 1.391 . S
C481 C485 1.376 . S
C482 C480 1.394 . S
C482 C483 1.369 . S
C482 C486 1.531 . S
C483 C482 1.369 . S
C483 C484 1.410 . S
C483 C491 1.503 . S
C484 C483 1.410 . S
C484 C485 1.392 . S
C484 C487 1.511 . S
C485 C481 1.376 . S
C485 C484 1.392 . S
C485 H497 0.929 . S
C486 C482 1.531 . S
C486 H498 0.960 . S
C486 H499 0.962 . S
C486 H500 0.960 . S
C487 C484 1.511 . S
C487 H501 0.961 . S
C487 H502 0.961 . S
C487 H503 0.961 . S
C488 C489 1.370 . S
C488 C490 1.363 . S
C488 H504 0.931 . S
C489 C488 1.370 . S
C489 C493 1.408 . S
C490 C488 1.363 . S
C490 C491 1.370 . S
C490 C494 1.524 . S
C491 C483 1.503 . S
C491 C490 1.370 . S
C491 C492 1.403 . S
C492 C491 1.403 . S
C492 C493 1.404 . S
C492 C495 1.539 . S
C493 C489 1.408 . S
C493 C492 1.404 . S
C493 H505 0.930 . S
C494 C490 1.524 . S
C494 H506 0.956 . S
C494 H507 0.961 . S
C494 H508 0.961 . S
C495 C492 1.539 . S
C495 H509 0.958 . S
C495 H510 0.961 . S
C495 H511 0.960 . S
H496 C480 0.931 . S
H497 C485 0.929 . S
H498 C486 0.960 . S
H499 C486 0.962 . S
H500 C486 0.960 . S
H501 C487 0.961 . S
H502 C487 0.961 . S
H503 C487 0.961 . S
H504 C488 0.931 . S
H505 C493 0.930 . S
H506 C494 0.956 . S
H507 C494 0.961 . S
H508 C494 0.961 . S
H509 C495 0.958 . S
H510 C495 0.961 . S
H511 C495 0.960 . S
C512 C513 1.391 . S
C512 C514 1.394 . S
C512 H528 0.931 . S
C513 C512 1.391 . S
C513 C517 1.376 . S
C514 C512 1.394 . S
C514 C515 1.369 . S
C514 C518 1.531 . S
C515 C514 1.369 . S
C515 C516 1.410 . S
C515 C523 1.503 . S
C516 C515 1.410 . S
C516 C517 1.392 . S
C516 C519 1.511 . S
C517 C513 1.376 . S
C517 C516 1.392 . S
C517 H529 0.929 . S
C518 C514 1.531 . S
C518 H530 0.960 . S
C518 H531 0.962 . S
C518 H532 0.960 . S
C519 C516 1.511 . S
C519 H533 0.961 . S
C519 H534 0.961 . S
C519 H535 0.961 . S
C520 C521 1.370 . S
C520 C522 1.363 . S
C520 H536 0.931 1_545 S
C521 C520 1.370 . S
C521 C525 1.408 . S
C522 C520 1.363 . S
C522 C523 1.370 . S
C522 C526 1.524 . S
C523 C515 1.503 . S
C523 C522 1.370 . S
C523 C524 1.403 . S
C524 C523 1.403 . S
C524 C525 1.404 . S
C524 C527 1.539 . S
C525 C521 1.408 . S
C525 C524 1.404 . S
C525 H537 0.930 . S
C526 C522 1.524 . S
C526 H538 0.956 . S
C526 H539 0.961 . S
C526 H540 0.961 . S
C527 C524 1.539 . S
C527 H541 0.958 . S
C527 H542 0.961 . S
C527 H543 0.960 . S
H528 C512 0.931 . S
H529 C517 0.929 . S
H530 C518 0.960 . S
H531 C518 0.962 . S
H532 C518 0.960 . S
H533 C519 0.961 . S
H534 C519 0.961 . S
H535 C519 0.961 . S
H536 C520 0.931 1_565 S
H537 C525 0.930 . S
H538 C526 0.956 . S
H539 C526 0.961 . S
H540 C526 0.961 . S
H541 C527 0.958 . S
H542 C527 0.961 . S
H543 C527 0.960 . S
C544 C545 1.391 . S
C544 C546 1.394 . S
C544 H560 0.931 . S
C545 C544 1.391 . S
C545 C549 1.376 . S
C546 C544 1.394 . S
C546 C547 1.369 . S
C546 C550 1.531 . S
C547 C546 1.369 . S
C547 C548 1.410 . S
C547 C555 1.503 . S
C548 C547 1.410 . S
C548 C549 1.392 . S
C548 C551 1.511 . S
C549 C545 1.376 . S
C549 C548 1.392 . S
C549 H561 0.929 . S
C550 C546 1.531 . S
C550 H562 0.960 . S
C550 H563 0.962 . S
C550 H564 0.960 . S
C551 C548 1.511 . S
C551 H565 0.961 . S
C551 H566 0.961 . S
C551 H567 0.961 . S
C552 C553 1.370 . S
C552 C554 1.363 . S
C552 H568 0.931 . S
C553 C552 1.370 . S
C553 C557 1.408 . S
C554 C552 1.363 . S
C554 C555 1.370 . S
C554 C558 1.524 . S
C555 C547 1.503 . S
C555 C554 1.370 . S
C555 C556 1.403 . S
C556 C555 1.403 . S
C556 C557 1.404 . S
C556 C559 1.539 . S
C557 C553 1.408 . S
C557 C556 1.404 . S
C557 H569 0.930 . S
C558 C554 1.524 . S
C558 H570 0.956 . S
C558 H571 0.961 . S
C558 H572 0.961 . S
C559 C556 1.539 . S
C559 H573 0.958 . S
C559 H574 0.961 . S
C559 H575 0.960 . S
H560 C544 0.931 . S
H561 C549 0.929 . S
H562 C550 0.960 . S
H563 C550 0.962 . S
H564 C550 0.960 . S
H565 C551 0.961 . S
H566 C551 0.961 . S
H567 C551 0.961 . S
H568 C552 0.931 . S
H569 C557 0.930 . S
H570 C558 0.956 . S
H571 C558 0.961 . S
H572 C558 0.961 . S
H573 C559 0.958 . S
H574 C559 0.961 . S
H575 C559 0.960 . S
C576 C577 1.391 . S
C576 C578 1.394 . S
C576 H592 0.931 . S
C577 C576 1.391 . S
C577 C581 1.376 . S
C578 C576 1.394 . S
C578 C579 1.369 . S
C578 C582 1.531 . S
C579 C578 1.369 . S
C579 C580 1.410 . S
C579 C587 1.503 . S
C580 C579 1.410 . S
C580 C581 1.392 . S
C580 C583 1.511 . S
C581 C577 1.376 . S
C581 C580 1.392 . S
C581 H593 0.929 . S
C582 C578 1.531 . S
C582 H594 0.960 . S
C582 H595 0.962 . S
C582 H596 0.960 . S
C583 C580 1.511 . S
C583 H597 0.961 . S
C583 H598 0.961 . S
C583 H599 0.961 . S
C584 C585 1.370 . S
C584 C586 1.363 . S
C584 H600 0.931 . S
C585 C584 1.370 . S
C585 C589 1.408 . S
C586 C584 1.363 . S
C586 C587 1.370 . S
C586 C590 1.524 . S
C587 C579 1.503 . S
C587 C586 1.370 . S
C587 C588 1.403 . S
C588 C587 1.403 . S
C588 C589 1.404 . S
C588 C591 1.539 . S
C589 C585 1.408 . S
C589 C588 1.404 . S
C589 H601 0.930 . S
C590 C586 1.524 . S
C590 H602 0.956 . S
C590 H603 0.961 . S
C590 H604 0.961 . S
C591 C588 1.539 . S
C591 H605 0.958 . S
C591 H606 0.961 . S
C591 H607 0.960 . S
H592 C576 0.931 . S
H593 C581 0.929 . S
H594 C582 0.960 . S
H595 C582 0.962 . S
H596 C582 0.960 . S
H597 C583 0.961 . S
H598 C583 0.961 . S
H599 C583 0.961 . S
H600 C584 0.931 . S
H601 C589 0.930 . S
H602 C590 0.956 . S
H603 C590 0.961 . S
H604 C590 0.961 . S
H605 C591 0.958 . S
H606 C591 0.961 . S
H607 C591 0.960 . S
C608 C609 1.391 . S
C608 C610 1.394 . S
C608 H624 0.931 . S
C609 C608 1.391 . S
C609 C613 1.376 . S
C610 C608 1.394 . S
C610 C611 1.369 . S
C610 C614 1.531 . S
C611 C610 1.369 . S
C611 C612 1.410 . S
C611 C619 1.503 . S
C612 C611 1.410 . S
C612 C613 1.392 . S
C612 C615 1.511 . S
C613 C609 1.376 . S
C613 C612 1.392 . S
C613 H625 0.929 . S
C614 C610 1.531 . S
C614 H626 0.960 . S
C614 H627 0.962 . S
C614 H628 0.960 . S
C615 C612 1.511 . S
C615 H629 0.961 . S
C615 H630 0.961 . S
C615 H631 0.961 . S
C616 C617 1.370 . S
C616 C618 1.363 . S
C616 H632 0.931 . S
C617 C616 1.370 . S
C617 C621 1.408 . S
C618 C616 1.363 . S
C618 C619 1.370 . S
C618 C622 1.524 . S
C619 C611 1.503 . S
C619 C618 1.370 . S
C619 C620 1.403 . S
C620 C619 1.403 . S
C620 C621 1.404 . S
C620 C623 1.539 . S
C621 C617 1.408 . S
C621 C620 1.404 . S
C621 H633 0.930 . S
C622 C618 1.524 . S
C622 H634 0.956 . S
C622 H635 0.961 . S
C622 H636 0.961 . S
C623 C620 1.539 . S
C623 H637 0.958 . S
C623 H638 0.961 . S
C623 H639 0.960 . S
H624 C608 0.931 . S
H625 C613 0.929 . S
H626 C614 0.960 . S
H627 C614 0.962 . S
H628 C614 0.960 . S
H629 C615 0.961 . S
H630 C615 0.961 . S
H631 C615 0.961 . S
H632 C616 0.931 . S
H633 C621 0.930 . S
H634 C622 0.956 . S
H635 C622 0.961 . S
H636 C622 0.961 . S
H637 C623 0.958 . S
H638 C623 0.961 . S
H639 C623 0.960 . S
C640 C641 1.391 . S
C640 C642 1.394 . S
C640 H656 0.931 . S
C641 C640 1.391 . S
C641 C645 1.376 . S
C642 C640 1.394 . S
C642 C643 1.369 . S
C642 C646 1.531 . S
C643 C642 1.369 . S
C643 C644 1.410 . S
C643 C651 1.503 . S
C644 C643 1.410 . S
C644 C645 1.392 . S
C644 C647 1.511 . S
C645 C641 1.376 . S
C645 C644 1.392 . S
C645 H657 0.929 . S
C646 C642 1.531 . S
C646 H658 0.960 . S
C646 H659 0.962 . S
C646 H660 0.960 . S
C647 C644 1.511 . S
C647 H661 0.961 . S
C647 H662 0.961 . S
C647 H663 0.961 . S
C648 C649 1.370 . S
C648 C650 1.363 . S
C648 H664 0.931 . S
C649 C648 1.370 . S
C649 C653 1.408 . S
C650 C648 1.363 . S
C650 C651 1.370 . S
C650 C654 1.524 . S
C651 C643 1.503 . S
C651 C650 1.370 . S
C651 C652 1.403 . S
C652 C651 1.403 . S
C652 C653 1.404 . S
C652 C655 1.539 . S
C653 C649 1.408 . S
C653 C652 1.404 . S
C653 H665 0.930 . S
C654 C650 1.524 . S
C654 H666 0.956 . S
C654 H667 0.961 . S
C654 H668 0.961 . S
C655 C652 1.539 . S
C655 H669 0.958 . S
C655 H670 0.961 . S
C655 H671 0.960 . S
H656 C640 0.931 . S
H657 C645 0.929 . S
H658 C646 0.960 . S
H659 C646 0.962 . S
H660 C646 0.960 . S
H661 C647 0.961 . S
H662 C647 0.961 . S
H663 C647 0.961 . S
H664 C648 0.931 . S
H665 C653 0.930 . S
H666 C654 0.956 . S
H667 C654 0.961 . S
H668 C654 0.961 . S
H669 C655 0.958 . S
H670 C655 0.961 . S
H671 C655 0.960 . S
C672 C673 1.391 . S
C672 C674 1.394 . S
C672 H688 0.931 . S
C673 C672 1.391 . S
C673 C677 1.376 . S
C674 C672 1.394 . S
C674 C675 1.369 . S
C674 C678 1.531 1_655 S
C675 C674 1.369 . S
C675 C676 1.410 . S
C675 C683 1.503 1_655 S
C676 C675 1.410 . S
C676 C677 1.392 . S
C676 C679 1.511 . S
C677 C673 1.376 . S
C677 C676 1.392 . S
C677 H689 0.929 . S
C678 C674 1.531 1_455 S
C678 H690 0.960 . S
C678 H691 0.962 . S
C678 H692 0.960 1_455 S
C679 C676 1.511 . S
C679 H693 0.961 . S
C679 H694 0.961 . S
C679 H695 0.961 . S
C680 C681 1.370 . S
C680 C682 1.363 . S
C680 H696 0.931 . S
C681 C680 1.370 . S
C681 C685 1.408 . S
C682 C680 1.363 . S
C682 C683 1.370 . S
C682 C686 1.524 . S
C683 C675 1.503 1_455 S
C683 C682 1.370 . S
C683 C684 1.403 1_455 S
C684 C683 1.403 1_655 S
C684 C685 1.404 1_655 S
C684 C687 1.539 . S
C685 C681 1.408 . S
C685 C684 1.404 1_455 S
C685 H697 0.930 . S
C686 C682 1.524 . S
C686 H698 0.956 . S
C686 H699 0.961 . S
C686 H700 0.961 . S
C687 C684 1.539 . S
C687 H701 0.958 . S
C687 H702 0.961 . S
C687 H703 0.960 . S
H688 C672 0.931 . S
H689 C677 0.929 . S
H690 C678 0.960 . S
H691 C678 0.962 . S
H692 C678 0.960 1_655 S
H693 C679 0.961 . S
H694 C679 0.961 . S
H695 C679 0.961 . S
H696 C680 0.931 . S
H697 C685 0.930 . S
H698 C686 0.956 . S
H699 C686 0.961 . S
H700 C686 0.961 . S
H701 C687 0.958 . S
H702 C687 0.961 . S
H703 C687 0.960 . S
C704 C705 1.391 . S
C704 C706 1.394 . S
C704 H720 0.931 . S
C705 C704 1.391 . S
C705 C709 1.376 . S
C706 C704 1.394 . S
C706 C707 1.369 . S
C706 C710 1.531 . S
C707 C706 1.369 . S
C707 C708 1.410 . S
C707 C715 1.503 1_655 S
C708 C707 1.410 . S
C708 C709 1.392 . S
C708 C711 1.511 1_655 S
C709 C705 1.376 . S
C709 C708 1.392 . S
C709 H721 0.929 . S
C710 C706 1.531 . S
C710 H722 0.960 . S
C710 H723 0.962 . S
C710 H724 0.960 . S
C711 C708 1.511 1_455 S
C711 H725 0.961 . S
C711 H726 0.961 . S
C711 H727 0.961 . S
C712 C713 1.370 . S
C712 C714 1.363 . S
C712 H728 0.931 . S
C713 C712 1.370 . S
C713 C717 1.408 . S
C714 C712 1.363 . S
C714 C715 1.370 . S
C714 C718 1.524 1_455 S
C715 C707 1.503 1_455 S
C715 C714 1.370 . S
C715 C716 1.403 . S
C716 C715 1.403 . S
C716 C717 1.404 . S
C716 C719 1.539 . S
C717 C713 1.408 . S
C717 C716 1.404 . S
C717 H729 0.930 . S
C718 C714 1.524 1_655 S
C718 H730 0.956 . S
C718 H731 0.961 . S
C718 H732 0.961 1_655 S
C719 C716 1.539 . S
C719 H733 0.958 . S
C719 H734 0.961 . S
C719 H735 0.960 . S
H720 C704 0.931 . S
H721 C709 0.929 . S
H722 C710 0.960 . S
H723 C710 0.962 . S
H724 C710 0.960 . S
H725 C711 0.961 . S
H726 C711 0.961 . S
H727 C711 0.961 . S
H728 C712 0.931 . S
H729 C717 0.930 . S
H730 C718 0.956 . S
H731 C718 0.961 . S
H732 C718 0.961 1_455 S
H733 C719 0.958 . S
H734 C719 0.961 . S
H735 C719 0.960 . S
C736 C737 1.391 . S
C736 C738 1.394 . S
C736 H752 0.931 . S
C737 C736 1.391 . S
C737 C741 1.376 . S
C738 C736 1.394 . S
C738 C739 1.369 . S
C738 C742 1.531 1_545 S
C739 C738 1.369 . S
C739 C740 1.410 . S
C739 C747 1.503 1_545 S
C740 C739 1.410 . S
C740 C741 1.392 . S
C740 C743 1.511 . S
C741 C737 1.376 . S
C741 C740 1.392 . S
C741 H753 0.929 . S
C742 C738 1.531 1_565 S
C742 H754 0.960 . S
C742 H755 0.962 1_565 S
C742 H756 0.960 1_565 S
C743 C740 1.511 . S
C743 H757 0.961 . S
C743 H758 0.961 . S
C743 H759 0.961 . S
C744 C745 1.370 . S
C744 C746 1.363 . S
C744 H760 0.931 . S
C745 C744 1.370 . S
C745 C749 1.408 . S
C746 C744 1.363 . S
C746 C747 1.370 . S
C746 C750 1.524 1_565 S
C747 C739 1.503 1_565 S
C747 C746 1.370 . S
C747 C748 1.403 . S
C748 C747 1.403 . S
C748 C749 1.404 . S
C748 C751 1.539 . S
C749 C745 1.408 . S
C749 C748 1.404 . S
C749 H761 0.930 . S
C750 C746 1.524 1_545 S
C750 H762 0.956 . S
C750 H763 0.961 . S
C750 H764 0.961 . S
C751 C748 1.539 . S
C751 H765 0.958 . S
C751 H766 0.961 . S
C751 H767 0.960 . S
H752 C736 0.931 . S
H753 C741 0.929 . S
H754 C742 0.960 . S
H755 C742 0.962 1_545 S
H756 C742 0.960 1_545 S
H757 C743 0.961 . S
H758 C743 0.961 . S
H759 C743 0.961 . S
H760 C744 0.931 . S
H761 C749 0.930 . S
H762 C750 0.956 . S
H763 C750 0.961 . S
H764 C750 0.961 . S
H765 C751 0.958 . S
H766 C751 0.961 . S
H767 C751 0.960 . S
C768 C769 1.391 . S
C768 C770 1.394 . S
C768 H784 0.931 . S
C769 C768 1.391 . S
C769 C773 1.376 . S
C770 C768 1.394 . S
C770 C771 1.369 . S
C770 C774 1.531 . S
C771 C770 1.369 . S
C771 C772 1.410 1_545 S
C771 C779 1.503 1_545 S
C772 C771 1.410 1_565 S
C772 C773 1.392 1_565 S
C772 C775 1.511 . S
C773 C769 1.376 . S
C773 C772 1.392 1_545 S
C773 H785 0.929 . S
C774 C770 1.531 . S
C774 H786 0.960 . S
C774 H787 0.962 . S
C774 H788 0.960 . S
C775 C772 1.511 . S
C775 H789 0.961 . S
C775 H790 0.961 . S
C775 H791 0.961 . S
C776 C777 1.370 . S
C776 C778 1.363 . S
C776 H792 0.931 . S
C777 C776 1.370 . S
C777 C781 1.408 . S
C778 C776 1.363 . S
C778 C779 1.370 . S
C778 C782 1.524 1_565 S
C779 C771 1.503 1_565 S
C779 C778 1.370 . S
C779 C780 1.403 . S
C780 C779 1.403 . S
C780 C781 1.404 . S
C780 C783 1.539 . S
C781 C777 1.408 . S
C781 C780 1.404 . S
C781 H793 0.930 . S
C782 C778 1.524 1_545 S
C782 H794 0.956 . S
C782 H795 0.961 . S
C782 H796 0.961 . S
C783 C780 1.539 . S
C783 H797 0.958 . S
C783 H798 0.961 . S
C783 H799 0.960 . S
H784 C768 0.931 . S
H785 C773 0.929 . S
H786 C774 0.960 . S
H787 C774 0.962 . S
H788 C774 0.960 . S
H789 C775 0.961 . S
H790 C775 0.961 . S
H791 C775 0.961 . S
H792 C776 0.931 . S
H793 C781 0.930 . S
H794 C782 0.956 . S
H795 C782 0.961 . S
H796 C782 0.961 . S
H797 C783 0.958 . S
H798 C783 0.961 . S
H799 C783 0.960 . S
C289 C4 1.338 . S
C297 C184 1.351 . S
C321 C40 1.341 . S
C329 C220 1.350 . S
C353 C76 1.345 . S
C361 C256 1.350 . S
C385 C148 1.344 . S
C393 C112 1.350 . S
C417 C14 1.592 . S
C425 C147 1.633 . S
C449 C50 1.557 . S
C457 C183 1.639 1_565 S
C481 C219 1.642 . S
C489 C86 1.564 . S
C513 C122 1.588 . S
C521 C255 1.638 1_545 S
C545 C158 1.570 . S
C553 C3 1.642 1_655 S
C577 C39 1.648 . S
C585 C194 1.561 . S
C609 C230 1.540 . S
C617 C75 1.646 1_455 S
C641 C111 1.636 . S
C649 C266 1.579 . S
C673 C74 0.576 . S
C681 C2 0.481 . S
C705 C110 0.537 . S
C713 C38 0.492 . S
C737 C146 0.582 . S
C745 C218 0.487 . S
C769 C182 0.481 . S
C777 C254 0.535 . S
