# Generated by pormake.
# Topology fnh, (5)-cn, num edge types: 1
# Building blocks:
#     Node 0, Type 0, BuildingBlock: BEQFEK_clean_sbu_0, # of connection points: 5
#     Node 1, Type 0, BuildingBlock: BEQFEK_clean_sbu_0, # of connection points: 5
#     Node 2, Type 0, BuildingBlock: BEQFEK_clean_sbu_0, # of connection points: 5
#     Node 3, Type 0, BuildingBlock: BEQFEK_clean_sbu_0, # of connection points: 5
#     Node 4, Type 0, BuildingBlock: BEQFEK_clean_sbu_0, # of connection points: 5
#     Node 5, Type 0, BuildingBlock: BEQFEK_clean_sbu_0, # of connection points: 5
#     Node 6, Type 0, BuildingBlock: BEQFEK_clean_sbu_0, # of connection points: 5
#     Node 7, Type 0, BuildingBlock: BEQFEK_clean_sbu_0, # of connection points: 5
#     Node 8, Type 0, BuildingBlock: BEQFEK_clean_sbu_0, # of connection points: 5
#     Node 9, Type 0, BuildingBlock: BEQFEK_clean_sbu_0, # of connection points: 5
#     Node 10, Type 0, BuildingBlock: BEQFEK_clean_sbu_0, # of connection points: 5
#     Node 11, Type 0, BuildingBlock: BEQFEK_clean_sbu_0, # of connection points: 5
#     Node 12, Type 0, BuildingBlock: BEQFEK_clean_sbu_0, # of connection points: 5
#     Node 13, Type 0, BuildingBlock: BEQFEK_clean_sbu_0, # of connection points: 5
#     Node 14, Type 0, BuildingBlock: BEQFEK_clean_sbu_0, # of connection points: 5
#     Node 15, Type 0, BuildingBlock: BEQFEK_clean_sbu_0, # of connection points: 5
#     Node 16, Type 0, BuildingBlock: BEQFEK_clean_sbu_0, # of connection points: 5
#     Node 17, Type 0, BuildingBlock: BEQFEK_clean_sbu_0, # of connection points: 5
#     Edge 18, Type (0, 0), BuildingBlock: CIFDUS_clean_linker_0, # of connection points: 2
#     Edge 19, Type (0, 0), BuildingBlock: CIFDUS_clean_linker_0, # of connection points: 2
#     Edge 20, Type (0, 0), BuildingBlock: CIFDUS_clean_linker_0, # of connection points: 2
#     Edge 21, Type (0, 0), BuildingBlock: CIFDUS_clean_linker_0, # of connection points: 2
#     Edge 22, Type (0, 0), BuildingBlock: CIFDUS_clean_linker_0, # of connection points: 2
#     Edge 23, Type (0, 0), BuildingBlock: CIFDUS_clean_linker_0, # of connection points: 2
#     Edge 24, Type (0, 0), BuildingBlock: CIFDUS_clean_linker_0, # of connection points: 2
#     Edge 25, Type (0, 0), BuildingBlock: CIFDUS_clean_linker_0, # of connection points: 2
#     Edge 26, Type (0, 0), BuildingBlock: CIFDUS_clean_linker_0, # of connection points: 2
#     Edge 27, Type (0, 0), BuildingBlock: CIFDUS_clean_linker_0, # of connection points: 2
#     Edge 28, Type (0, 0), BuildingBlock: CIFDUS_clean_linker_0, # of connection points: 2
#     Edge 29, Type (0, 0), BuildingBlock: CIFDUS_clean_linker_0, # of connection points: 2
#     Edge 30, Type (0, 0), BuildingBlock: CIFDUS_clean_linker_0, # of connection points: 2
#     Edge 31, Type (0, 0), BuildingBlock: CIFDUS_clean_linker_0, # of connection points: 2
#     Edge 32, Type (0, 0), BuildingBlock: CIFDUS_clean_linker_0, # of connection points: 2
#     Edge 33, Type (0, 0), BuildingBlock: CIFDUS_clean_linker_0, # of connection points: 2
#     Edge 34, Type (0, 0), BuildingBlock: CIFDUS_clean_linker_0, # of connection points: 2
#     Edge 35, Type (0, 0), BuildingBlock: CIFDUS_clean_linker_0, # of connection points: 2
#     Edge 36, Type (0, 0), BuildingBlock: CIFDUS_clean_linker_0, # of connection points: 2
#     Edge 37, Type (0, 0), BuildingBlock: CIFDUS_clean_linker_0, # of connection points: 2
#     Edge 38, Type (0, 0), BuildingBlock: CIFDUS_clean_linker_0, # of connection points: 2
#     Edge 39, Type (0, 0), BuildingBlock: CIFDUS_clean_linker_0, # of connection points: 2
#     Edge 40, Type (0, 0), BuildingBlock: CIFDUS_clean_linker_0, # of connection points: 2
#     Edge 41, Type (0, 0), BuildingBlock: CIFDUS_clean_linker_0, # of connection points: 2
#     Edge 42, Type (0, 0), BuildingBlock: CIFDUS_clean_linker_0, # of connection points: 2
#     Edge 43, Type (0, 0), BuildingBlock: CIFDUS_clean_linker_0, # of connection points: 2
#     Edge 44, Type (0, 0), BuildingBlock: CIFDUS_clean_linker_0, # of connection points: 2
#     Edge 45, Type (0, 0), BuildingBlock: CIFDUS_clean_linker_0, # of connection points: 2
#     Edge 46, Type (0, 0), BuildingBlock: CIFDUS_clean_linker_0, # of connection points: 2
#     Edge 47, Type (0, 0), BuildingBlock: CIFDUS_clean_linker_0, # of connection points: 2
#     Edge 48, Type (0, 0), BuildingBlock: CIFDUS_clean_linker_0, # of connection points: 2
#     Edge 49, Type (0, 0), BuildingBlock: CIFDUS_clean_linker_0, # of connection points: 2
#     Edge 50, Type (0, 0), BuildingBlock: CIFDUS_clean_linker_0, # of connection points: 2
#     Edge 51, Type (0, 0), BuildingBlock: CIFDUS_clean_linker_0, # of connection points: 2
#     Edge 52, Type (0, 0), BuildingBlock: CIFDUS_clean_linker_0, # of connection points: 2
#     Edge 53, Type (0, 0), BuildingBlock: CIFDUS_clean_linker_0, # of connection points: 2
#     Edge 54, Type (0, 0), BuildingBlock: CIFDUS_clean_linker_0, # of connection points: 2
#     Edge 55, Type (0, 0), BuildingBlock: CIFDUS_clean_linker_0, # of connection points: 2
#     Edge 56, Type (0, 0), BuildingBlock: CIFDUS_clean_linker_0, # of connection points: 2
#     Edge 57, Type (0, 0), BuildingBlock: CIFDUS_clean_linker_0, # of connection points: 2
#     Edge 58, Type (0, 0), BuildingBlock: CIFDUS_clean_linker_0, # of connection points: 2
#     Edge 59, Type (0, 0), BuildingBlock: CIFDUS_clean_linker_0, # of connection points: 2
#     Edge 60, Type (0, 0), BuildingBlock: CIFDUS_clean_linker_0, # of connection points: 2
#     Edge 61, Type (0, 0), BuildingBlock: CIFDUS_clean_linker_0, # of connection points: 2
#     Edge 62, Type (0, 0), BuildingBlock: CIFDUS_clean_linker_0, # of connection points: 2
# Relax obj value: 0.278
# Max RMSD: 0.097
# Mean RMSD: 0.097
data_MOF--net-fnh--node1-BEQFEK_clean_sbu_0--edge1-CIFDUS_clean_linker_0
_symmetry_space_group_name_H-M    P1
_symmetry_Int_Tables_number       1
_symmetry_cell_setting            triclinic
loop_
_symmetry_equiv_pos_as_xyz
'x, y, z'
_cell_length_a     59.369765
_cell_length_b     59.313274
_cell_length_c     21.048754
_cell_angle_alpha  89.957011
_cell_angle_beta   89.872409
_cell_angle_gamma 119.94589
loop_
_atom_site_label
_atom_site_type_symbol
_atom_site_fract_x
_atom_site_fract_y
_atom_site_fract_z
_atom_type_partial_charge
Co0 Co 0.15279 0.22834 0.34798 0.0
Co1 Co 0.11814 0.2362 0.26689 0.0
C2 C 0.09442 0.21157 0.38874 0.0
O3 O 0.11789 0.21673 0.39764 0.0
O4 O 0.08839 0.21568 0.33318 0.0
C5 C 0.14876 0.18531 0.39452 0.0
O6 O 0.1293 0.17617 0.35431 0.0
C7 C 0.08758 0.24797 0.17584 0.0
C8 C 0.12001 0.28308 0.13101 0.0
C9 C 0.0933 0.26743 0.13109 0.0
N10 N 0.10999 0.25239 0.20155 0.0
N11 N 0.12923 0.27339 0.1748 0.0
C12 C 0.06192 0.22441 0.19046 0.0
H13 H 0.06481 0.20938 0.2145 0.0
H14 H 0.05056 0.21624 0.14628 0.0
H15 H 0.05069 0.22994 0.22274 0.0
C16 C 0.16403 0.20652 0.22685 0.0
N17 N 0.15131 0.21623 0.26123 0.0
N18 N 0.13393 0.2173 0.22565 0.0
C19 C 0.13437 0.20745 0.16734 0.0
C20 C 0.15386 0.20004 0.16452 0.0
C21 C 0.18699 0.20554 0.25252 0.0
H22 H 0.19521 0.21867 0.29401 0.0
H23 H 0.18076 0.1854 0.26826 0.0
H24 H 0.20225 0.21139 0.21551 0.0
O25 O 0.17625 0.26718 0.35585 0.0
O26 O 0.14478 0.27013 0.30921 0.0
H27 H 0.12529 0.22172 0.08371 0.0
H28 H 0.10959 0.18661 0.08858 0.0
C29 C 0.11576 0.2047 0.11611 0.0
H30 H 0.09837 0.20427 0.13701 0.0
H31 H 0.14881 0.28101 0.18607 0.0
O32 O 0.1649 0.20958 0.39662 0.0
C33 C 0.16651 0.281 0.33819 0.0
Co34 Co 0.84115 0.9411 0.35608 0.0
Co35 Co 0.82373 0.8954 0.27414 0.0
C36 C 0.85053 0.89479 0.39355 0.0
O37 O 0.84951 0.91556 0.40237 0.0
O38 O 0.84313 0.88351 0.33934 0.0
C39 C 0.88751 0.97774 0.39761 0.0
O40 O 0.89461 0.96579 0.3566 0.0
C41 C 0.80616 0.85203 0.18178 0.0
C42 C 0.772 0.85297 0.14279 0.0
C43 C 0.78597 0.84016 0.13831 0.0
N44 N 0.80388 0.87075 0.21137 0.0
N45 N 0.78325 0.87096 0.18841 0.0
C46 C 0.82879 0.84778 0.18997 0.0
H47 H 0.82223 0.82901 0.21488 0.0
H48 H 0.8443 0.86371 0.21833 0.0
H49 H 0.83663 0.84665 0.14287 0.0
C50 C 0.86218 0.97205 0.23311 0.0
N51 N 0.85131 0.94965 0.26788 0.0
N52 N 0.84401 0.92972 0.23001 0.0
C53 C 0.8498 0.93903 0.1691 0.0
C54 C 0.862 0.96659 0.16818 0.0
C55 C 0.87013 0.99818 0.26088 0.0
H56 H 0.8583 0.99609 0.30368 0.0
H57 H 0.89086 1.00758 0.27507 0.0
H58 H 0.86799 1.01092 0.22569 0.0
O59 O 0.80316 0.92952 0.36988 0.0
O60 O 0.79293 0.89285 0.32126 0.0
H61 H 0.82206 0.91495 0.09981 0.0
H62 H 0.8551 0.93241 0.07085 0.0
C63 C 0.84264 0.92178 0.11217 0.0
H64 H 0.84446 0.90445 0.12308 0.0
H65 H 0.7773 0.88405 0.20245 0.0
O66 O 0.86377 0.97161 0.40259 0.0
C67 C 0.78608 0.90656 0.35344 0.0
Co68 Co 0.12409 0.9084 0.34966 0.0
Co69 Co 0.16601 0.93751 0.26 0.0
C70 C 0.16638 0.96588 0.38082 0.0
O71 O 0.14671 0.94397 0.39622 0.0
O72 O 0.17637 0.96806 0.32525 0.0
C73 C 0.08116 0.90733 0.39168 0.0
O74 O 0.09314 0.93072 0.36644 0.0
C75 C 0.20964 0.96693 0.17165 0.0
C76 C 0.21049 0.93379 0.12531 0.0
C77 C 0.22346 0.96063 0.1284 0.0
N78 N 0.18989 0.94469 0.19393 0.0
N79 N 0.19051 0.92502 0.16617 0.0
C80 C 0.21351 0.99314 0.18853 0.0
H81 H 0.19549 0.99122 0.20967 0.0
H82 H 0.21895 1.00581 0.14584 0.0
H83 H 0.22934 1.00245 0.22399 0.0
C84 C 0.09011 0.89493 0.23092 0.0
N85 N 0.11324 0.90814 0.26166 0.0
N86 N 0.13119 0.92307 0.22106 0.0
C87 C 0.11955 0.92093 0.16339 0.0
C88 C 0.0924 0.90303 0.16711 0.0
C89 C 0.06711 0.87176 0.25922 0.0
H90 H 0.07332 0.86316 0.29738 0.0
H91 H 0.05382 0.87794 0.27931 0.0
H92 H 0.05644 0.85671 0.22257 0.0
O93 O 0.13846 0.88462 0.36177 0.0
O94 O 0.17178 0.9095 0.30096 0.0
H95 H 0.13751 0.92215 0.07466 0.0
H96 H 0.12283 0.94232 0.07822 0.0
C97 C 0.13423 0.93542 0.10547 0.0
H98 H 0.15337 0.95219 0.11875 0.0
H99 H 0.17729 0.90548 0.17552 0.0
O100 O 0.09209 0.89371 0.39379 0.0
C101 C 0.16003 0.88972 0.3371 0.0
Co102 Co 0.23377 0.13148 0.70908 0.0
Co103 Co 0.24535 0.10003 0.7943 0.0
C104 C 0.21753 0.07301 0.67555 0.0
O105 O 0.22078 0.09551 0.66116 0.0
O106 O 0.22415 0.06978 0.73139 0.0
C107 C 0.19097 0.1317 0.671 0.0
O108 O 0.18045 0.10845 0.69684 0.0
C109 C 0.26086 0.0711 0.88071 0.0
C110 C 0.29533 0.10449 0.92436 0.0
C111 C 0.28143 0.07763 0.92235 0.0
N112 N 0.26307 0.0932 0.85825 0.0
N113 N 0.28367 0.11303 0.88433 0.0
C114 C 0.23834 0.04479 0.86576 0.0
H115 H 0.22202 0.04659 0.84582 0.0
H116 H 0.23164 0.03246 0.90908 0.0
H117 H 0.24443 0.03516 0.82992 0.0
C118 C 0.21534 0.14529 0.83336 0.0
N119 N 0.22399 0.13175 0.79833 0.0
N120 N 0.22675 0.11575 0.83563 0.0
C121 C 0.21872 0.11759 0.89526 0.0
C122 C 0.21092 0.13676 0.89737 0.0
C123 C 0.21433 0.16823 0.80751 0.0
H124 H 0.22655 0.17583 0.76422 0.0
H125 H 0.19393 0.16217 0.79538 0.0
H126 H 0.22133 0.18401 0.84336 0.0
O127 O 0.27232 0.15484 0.69542 0.0
O128 O 0.27791 0.12602 0.74785 0.0
H129 H 0.23622 0.11169 0.97743 0.0
H130 H 0.20105 0.09486 0.97946 0.0
C131 C 0.21832 0.10076 0.94868 0.0
H132 H 0.21794 0.0831 0.92982 0.0
H133 H 0.28985 0.13251 0.87448 0.0
O134 O 0.21546 0.14583 0.66702 0.0
C135 C 0.28724 0.14664 0.71452 0.0
Co136 Co 0.91994 0.10848 0.70301 0.0
Co137 Co 0.95228 0.15317 0.78212 0.0
C138 C 0.97729 0.15173 0.66189 0.0
O139 O 0.95435 0.1325 0.65307 0.0
O140 O 0.98255 0.16244 0.71684 0.0
C141 C 0.92781 0.07018 0.67056 0.0
O142 O 0.94915 0.08595 0.7014 0.0
C143 C 0.98264 0.19684 0.86848 0.0
C144 C 0.95138 0.20355 0.90485 0.0
C145 C 0.97775 0.21262 0.90834 0.0
N146 N 0.96015 0.17958 0.84185 0.0
N147 N 0.9416 0.18376 0.86336 0.0
C148 C 1.00731 0.19608 0.86056 0.0
H149 H 1.00319 0.1771 0.84042 0.0
H150 H 1.01736 0.19923 0.90686 0.0
H151 H 1.0204 0.21176 0.82744 0.0
C152 C 0.90857 0.07782 0.82877 0.0
N153 N 0.92101 0.0999 0.7927 0.0
N154 N 0.93717 0.11927 0.82834 0.0
C155 C 0.93597 0.10988 0.88849 0.0
C156 C 0.91781 0.08268 0.89188 0.0
C157 C 0.887 0.05259 0.8041 0.0
H158 H 0.88477 0.05306 0.75227 0.0
H159 H 0.89031 0.03636 0.81729 0.0
H160 H 0.86838 0.04897 0.82532 0.0
O161 O 0.89504 0.12203 0.6892 0.0
O162 O 0.92483 0.15766 0.73582 0.0
H163 H 0.95429 0.14715 0.93488 0.0
H164 H 0.93918 0.11956 0.98807 0.0
C165 C 0.95039 0.1271 0.94327 0.0
H166 H 0.96935 0.12785 0.94833 0.0
H167 H 0.92207 0.17276 0.85063 0.0
O168 O 0.91034 0.07628 0.6613 0.0
C169 C 0.90356 0.14562 0.70533 0.0
Co170 Co 0.94271 0.81307 0.70929 0.0
Co171 Co 0.90554 0.81229 0.79662 0.0
C172 C 0.90381 0.83258 0.66965 0.0
O173 O 0.91976 0.82445 0.65935 0.0
O174 O 0.89658 0.83223 0.72719 0.0
C175 C 0.9794 0.8539 0.65487 0.0
O176 O 0.96943 0.86349 0.69508 0.0
C177 C 0.85829 0.79647 0.86883 0.0
C178 C 0.86892 0.78659 0.96111 0.0
C179 C 0.84848 0.78625 0.92861 0.0
N180 N 0.88337 0.8029 0.86709 0.0
N181 N 0.88943 0.79638 0.92174 0.0
C182 C 0.84363 0.7968 0.81142 0.0
H183 H 0.85131 0.79205 0.76845 0.0
H184 H 0.84652 0.81665 0.80497 0.0
H185 H 0.82256 0.78262 0.81625 0.0
C186 C 0.98061 0.83627 0.81873 0.0
N187 N 0.95689 0.82738 0.79193 0.0
N188 N 0.94169 0.83064 0.83083 0.0
C189 C 0.95594 0.84318 0.88367 0.0
C190 C 0.98173 0.84739 0.87891 0.0
C191 C 1.00092 0.83191 0.78826 0.0
H192 H 0.99176 0.8153 0.75472 0.0
H193 H 1.01454 0.84948 0.76074 0.0
H194 H 1.01193 0.8278 0.82456 0.0
O195 O 0.92567 0.77458 0.709 0.0
O196 O 0.89424 0.77507 0.76378 0.0
H197 H 0.94069 0.83868 0.97782 0.0
H198 H 0.96018 0.87188 0.95205 0.0
C199 C 0.94541 0.85201 0.93669 0.0
H200 H 0.92747 0.85191 0.92154 0.0
H201 H 0.90725 0.79765 0.93134 0.0
O202 O 0.972 0.82972 0.65562 0.0
C203 C 0.90313 0.76236 0.73377 0.0
Co204 Co 0.81293 0.55189 0.68579 0.0
Co205 Co 0.7831 0.56589 0.60198 0.0
C206 C 0.75568 0.53986 0.72095 0.0
O207 O 0.77801 0.5422 0.73099 0.0
O208 O 0.75151 0.5464 0.66587 0.0
C209 C 0.80622 0.50755 0.73618 0.0
O210 O 0.7865 0.49802 0.69674 0.0
C211 C 0.75912 0.58401 0.50435 0.0
C212 C 0.79574 0.61508 0.46174 0.0
C213 C 0.76905 0.60328 0.45781 0.0
N214 N 0.77923 0.58477 0.53502 0.0
N215 N 0.80097 0.60357 0.50975 0.0
C216 C 0.73139 0.56356 0.51499 0.0
H217 H 0.72089 0.57254 0.53769 0.0
H218 H 0.73013 0.54792 0.54636 0.0
H219 H 0.72185 0.55519 0.46886 0.0
C220 C 0.82499 0.53104 0.56479 0.0
N221 N 0.81242 0.54101 0.59881 0.0
N222 N 0.79736 0.54508 0.56135 0.0
C223 C 0.79903 0.53677 0.50186 0.0
C224 C 0.81707 0.52739 0.50033 0.0
C225 C 0.84626 0.52773 0.593 0.0
H226 H 0.85352 0.53921 0.63734 0.0
H227 H 0.8386 0.50691 0.60472 0.0
H228 H 0.86267 0.53421 0.55903 0.0
O229 O 0.83812 0.58989 0.69708 0.0
O230 O 0.81065 0.59849 0.64805 0.0
H231 H 0.79491 0.55528 0.41907 0.0
H232 H 0.77623 0.52006 0.41759 0.0
C233 C 0.78304 0.53754 0.448 0.0
H234 H 0.76593 0.53836 0.46641 0.0
H235 H 0.81955 0.60807 0.5242 0.0
O236 O 0.82284 0.53168 0.73554 0.0
C237 C 0.8315 0.60631 0.67977 0.0
Co238 Co 0.49771 0.26694 0.67737 0.0
Co239 Co 0.48486 0.22358 0.59308 0.0
C240 C 0.51138 0.22432 0.71589 0.0
O241 O 0.50894 0.24399 0.72915 0.0
O242 O 0.50458 0.21437 0.66046 0.0
C243 C 0.53945 0.30602 0.73117 0.0
O244 O 0.5508 0.2961 0.69654 0.0
C245 C 0.47548 0.17798 0.52162 0.0
C246 C 0.43842 0.16808 0.47419 0.0
C247 C 0.45535 0.15889 0.48587 0.0
N248 N 0.47013 0.19704 0.53227 0.0
N249 N 0.44802 0.1911 0.50384 0.0
C250 C 0.50013 0.17917 0.54259 0.0
H251 H 0.51529 0.1996 0.55221 0.0
H252 H 0.50738 0.17101 0.50566 0.0
H253 H 0.49642 0.16768 0.58691 0.0
C254 C 0.51969 0.29971 0.55571 0.0
N255 N 0.50945 0.2771 0.58959 0.0
N256 N 0.50501 0.25797 0.55139 0.0
C257 C 0.5133 0.26796 0.49196 0.0
C258 C 0.52309 0.29535 0.49122 0.0
C259 C 0.52317 0.32445 0.58352 0.0
H260 H 0.51043 0.32029 0.62564 0.0
H261 H 0.54367 0.33679 0.59864 0.0
H262 H 0.5184 0.33531 0.54815 0.0
O263 O 0.45933 0.25297 0.68587 0.0
O264 O 0.45093 0.21826 0.63056 0.0
H265 H 0.49377 0.24511 0.41055 0.0
H266 H 0.52887 0.2621 0.40499 0.0
C267 C 0.51201 0.25127 0.43731 0.0
H268 H 0.51177 0.2335 0.45482 0.0
H269 H 0.43906 0.20238 0.50639 0.0
O270 O 0.51533 0.29778 0.72512 0.0
C271 C 0.44291 0.23088 0.66346 0.0
Co272 Co 0.78708 0.24121 0.68162 0.0
Co273 Co 0.82986 0.27027 0.59317 0.0
C274 C 0.83067 0.29779 0.71626 0.0
O275 O 0.81085 0.27595 0.7312 0.0
O276 O 0.84019 0.30017 0.66017 0.0
C277 C 0.74716 0.24469 0.72375 0.0
O278 O 0.76192 0.26772 0.69819 0.0
C279 C 0.87998 0.29773 0.52963 0.0
C280 C 0.87134 0.27582 0.43971 0.0
C281 C 0.89136 0.29595 0.47326 0.0
N282 N 0.85455 0.28016 0.52778 0.0
N283 N 0.84969 0.26652 0.47501 0.0
C284 C 0.89322 0.31255 0.58849 0.0
H285 H 0.88347 0.30055 0.63109 0.0
H286 H 0.89162 0.33039 0.5911 0.0
H287 H 0.914 0.3179 0.58903 0.0
C288 C 0.75353 0.23061 0.56156 0.0
N289 N 0.77664 0.24226 0.59324 0.0
N290 N 0.79522 0.25676 0.55324 0.0
C291 C 0.7841 0.25553 0.49526 0.0
C292 C 0.75697 0.23854 0.49797 0.0
C293 C 0.72834 0.21045 0.58958 0.0
H294 H 0.73179 0.20017 0.62904 0.0
H295 H 0.71764 0.2201 0.60705 0.0
H296 H 0.7161 0.19607 0.553 0.0
O297 O 0.80081 0.21641 0.69045 0.0
O298 O 0.8346 0.24112 0.63011 0.0
H299 H 0.80107 0.25825 0.40407 0.0
H300 H 0.78735 0.27887 0.41417 0.0
C301 C 0.79866 0.2711 0.43833 0.0
H302 H 0.81801 0.28737 0.4521 0.0
H303 H 0.83176 0.25041 0.46387 0.0
O304 O 0.75485 0.22822 0.72575 0.0
C305 C 0.82222 0.22103 0.66514 0.0
Co306 Co 0.90285 0.46315 0.04557 0.0
Co307 Co 0.91382 0.43136 0.13143 0.0
C308 C 0.88607 0.40432 1.0127 0.0
O309 O 0.88971 0.42697 0.99836 0.0
O310 O 0.89262 0.40094 0.06858 0.0
C311 C 0.86005 0.46224 1.00572 0.0
O312 O 0.85034 0.43913 1.03198 0.0
C313 C 0.93032 0.40438 0.22426 0.0
C314 C 0.96225 0.43961 0.26933 0.0
C315 C 0.94987 0.41279 0.26974 0.0
N316 N 0.93154 0.42547 0.19758 0.0
N317 N 0.95077 0.44637 0.22437 0.0
C318 C 0.90951 0.37712 0.21017 0.0
H319 H 0.89354 0.37706 0.18271 0.0
H320 H 0.90169 0.366 0.25501 0.0
H321 H 0.91791 0.36735 0.18172 0.0
C322 C 0.88331 0.47653 0.16909 0.0
N323 N 0.89248 0.46333 0.13443 0.0
N324 N 0.8948 0.44703 0.17158 0.0
C325 C 0.88594 0.4483 0.23065 0.0
C326 C 0.87807 0.46747 0.23278 0.0
C327 C 0.88229 0.49944 0.14305 0.0
H328 H 0.89471 0.50715 0.1001 0.0
H329 H 0.86194 0.49334 0.13019 0.0
H330 H 0.8891 0.51516 0.17901 0.0
O331 O 0.94162 0.48646 0.0328 0.0
O332 O 0.94676 0.45736 0.0852 0.0
H333 H 0.90181 0.44133 0.31448 0.0
H334 H 0.86662 0.4241 0.31176 0.0
C335 C 0.88461 0.43073 0.2833 0.0
H336 H 0.8849 0.4135 0.26374 0.0
H337 H 0.95585 0.46541 0.21241 0.0
O338 O 0.88446 0.47723 1.00239 0.0
C339 C 0.9564 0.47809 0.05208 0.0
Co340 Co 0.58147 0.44693 0.04642 0.0
Co341 Co 0.6201 0.48815 0.12414 0.0
C342 C 0.63928 0.48469 0.99617 0.0
O343 O 0.61524 0.46734 0.98926 0.0
O344 O 0.64667 0.49482 0.0513 0.0
C345 C 0.57771 0.40405 1.00476 0.0
O346 O 0.60132 0.41679 1.02821 0.0
C347 C 0.65399 0.53718 0.18802 0.0
C348 C 0.63348 0.52999 0.28005 0.0
C349 C 0.65424 0.54888 0.24548 0.0
N350 N 0.63433 0.51254 0.18966 0.0
N351 N 0.62178 0.50857 0.24404 0.0
C352 C 0.66956 0.54979 0.12938 0.0
H353 H 0.65696 0.5421 0.08685 0.0
H354 H 0.68526 0.54491 0.12479 0.0
H355 H 0.67818 0.57125 0.13103 0.0
C356 C 0.57097 0.4139 0.1673 0.0
N357 N 0.58436 0.43608 0.13223 0.0
N358 N 0.60389 0.4534 0.1652 0.0
C359 C 0.60451 0.44228 0.2216 0.0
C360 C 0.58318 0.41632 0.22648 0.0
C361 C 0.54544 0.39167 0.14637 0.0
H362 H 0.53661 0.39811 0.10933 0.0
H363 H 0.54855 0.37616 0.12622 0.0
H364 H 0.5318 0.38355 0.18715 0.0
O365 O 0.56055 0.46493 0.04584 0.0
O366 O 0.59329 0.49803 0.09345 0.0
H367 H 0.64339 0.47212 0.24472 0.0
H368 H 0.61981 0.46431 0.30691 0.0
C369 C 0.62612 0.45596 0.26832 0.0
H370 H 0.63147 0.44215 0.28953 0.0
H371 H 0.60471 0.49148 0.25577 0.0
O372 O 0.56347 0.41438 1.00428 0.0
C373 C 0.571 0.48805 0.06695 0.0
Co374 Co 0.6112 0.16226 0.03263 0.0
Co375 Co 0.57036 0.14498 0.12827 0.0
C376 C 0.56558 0.1723 1.01055 0.0
O377 O 0.58552 0.17143 0.99238 0.0
O378 O 0.55716 0.16446 0.06709 0.0
C379 C 0.64394 0.20694 0.97448 0.0
O380 O 0.63331 0.21589 1.01457 0.0
C381 C 0.5251 0.12928 0.20856 0.0
C382 C 0.52209 0.09441 0.25534 0.0
C383 C 0.50917 0.10818 0.24696 0.0
N384 N 0.54601 0.12749 0.19316 0.0
N385 N 0.54414 0.10664 0.22109 0.0
C386 C 0.52155 0.15163 0.18947 0.0
H387 H 0.54062 0.16894 0.1781 0.0
H388 H 0.51212 0.15668 0.22812 0.0
H389 H 0.50906 0.14619 0.14666 0.0
C390 C 0.64763 0.1842 0.14756 0.0
N391 N 0.62369 0.17286 0.12003 0.0
N392 N 0.6059 0.16568 0.16444 0.0
C393 C 0.61821 0.17239 0.22215 0.0
C394 C 0.64551 0.18442 0.21428 0.0
C395 C 0.67233 0.19459 0.11005 0.0
H396 H 0.67293 0.20814 0.07317 0.0
H397 H 0.68983 0.20541 0.13999 0.0
H398 H 0.67287 0.17826 0.08578 0.0
O399 O 0.59805 0.12413 1.01574 0.0
O400 O 0.56618 0.11269 0.08454 0.0
H401 H 0.61068 0.15408 0.31346 0.0
H402 H 0.60935 0.18357 0.31098 0.0
C403 C 0.60426 0.16549 0.28451 0.0
H404 H 0.58293 0.15425 0.27784 0.0
H405 H 0.55761 0.10037 0.21532 0.0
O406 O 0.63944 0.18365 0.97886 0.0
C407 C 0.57771 0.1064 0.04317 0.0
Co408 Co 0.4826 0.8956 1.03006 0.0
Co409 Co 0.45392 0.90492 0.9332 0.0
C410 C 0.42527 0.88037 0.05653 0.0
O411 O 0.44736 0.88409 0.07401 0.0
O412 O 0.4229 0.88572 0.99867 0.0
C413 C 0.47753 0.85469 0.09126 0.0
O414 O 0.45773 0.84354 0.05214 0.0
C415 C 0.42586 0.9244 0.86141 0.0
C416 C 0.44665 0.93418 0.76946 0.0
C417 C 0.42691 0.93529 0.80215 0.0
N418 N 0.44351 0.91662 0.86238 0.0
N419 N 0.45646 0.92327 0.80815 0.0
C420 C 0.4117 0.92509 0.91969 0.0
H421 H 0.42413 0.92888 0.96214 0.0
H422 H 0.3939 0.90587 0.92624 0.0
H423 H 0.40634 0.94049 0.91606 0.0
C424 C 0.49808 0.87204 0.92059 0.0
N425 N 0.48438 0.88266 0.94579 0.0
N426 N 0.46952 0.88403 0.90213 0.0
C427 C 0.47209 0.87259 0.84807 0.0
C428 C 0.49082 0.86457 0.85662 0.0
C429 C 0.51965 0.87161 0.95623 0.0
H430 H 0.52723 0.88681 0.99357 0.0
H431 H 0.51212 0.85241 0.97972 0.0
H432 H 0.53583 0.87508 0.92378 0.0
O433 O 0.50467 0.93394 0.03851 0.0
O434 O 0.48148 0.94083 0.96772 0.0
H435 H 0.46689 0.88217 0.75326 0.0
H436 H 0.44925 0.84801 0.77135 0.0
C437 C 0.45552 0.86768 0.79059 0.0
H438 H 0.43815 0.86929 0.8025 0.0
H439 H 0.47261 0.92131 0.79845 0.0
O440 O 0.49405 0.87873 0.08578 0.0
C441 C 0.50016 0.94966 1.00752 0.0
Co442 Co 0.16672 0.60414 1.01923 0.0
Co443 Co 0.15734 0.55991 0.94074 0.0
C444 C 0.18241 0.56367 0.06794 0.0
O445 O 0.17831 0.58272 0.07571 0.0
O446 O 0.17739 0.55272 1.01334 0.0
C447 C 0.20793 0.64615 0.05939 0.0
O448 O 0.21757 0.63211 0.03664 0.0
C449 C 0.14196 0.50932 0.88483 0.0
C450 C 0.1274 0.51343 0.79162 0.0
C451 C 0.13087 0.49604 0.82868 0.0
N452 N 0.14565 0.53348 0.87948 0.0
N453 N 0.13606 0.5355 0.82469 0.0
C454 C 0.14517 0.49841 0.94611 0.0
H455 H 0.14056 0.50738 0.98661 0.0
H456 H 0.16565 0.50304 0.95084 0.0
H457 H 0.132 0.47703 0.94845 0.0
C458 C 0.18965 0.63576 0.89699 0.0
N459 N 0.17944 0.61335 0.93191 0.0
N460 N 0.17686 0.59426 0.89577 0.0
C461 C 0.18619 0.60439 0.83654 0.0
C462 C 0.19479 0.63137 0.83465 0.0
C463 C 0.19197 0.66063 0.92042 0.0
H464 H 0.17727 0.65668 0.95783 0.0
H465 H 0.2117 0.673 0.94028 0.0
H466 H 0.18935 0.67154 0.88097 0.0
O467 O 0.12795 0.58824 1.02322 0.0
O468 O 0.12177 0.55298 0.97329 0.0
H469 H 0.17094 0.58365 0.74984 0.0
H470 H 0.20568 0.60094 0.75433 0.0
C471 C 0.1876 0.58899 0.78209 0.0
H472 H 0.18709 0.57106 0.79934 0.0
H473 H 0.13494 0.55175 0.8105 0.0
O474 O 0.18354 0.63714 0.06007 0.0
C475 C 0.11251 0.56546 1.00245 0.0
Co476 Co 0.45014 0.5791 0.03266 0.0
Co477 Co 0.49489 0.60797 0.94986 0.0
C478 C 0.49523 0.63496 0.07034 0.0
O479 O 0.47502 0.61289 0.08054 0.0
O480 O 0.50593 0.63887 1.0154 0.0
C481 C 0.41347 0.58863 0.07326 0.0
O482 O 0.42562 0.60753 1.03189 0.0
C483 C 0.54137 0.63837 0.87241 0.0
C484 C 0.54443 0.60652 0.82583 0.0
C485 C 0.55715 0.63323 0.8333 0.0
N486 N 0.5207 0.61565 0.88864 0.0
N487 N 0.52265 0.59668 0.861 0.0
C488 C 0.54463 0.66423 0.89061 0.0
H489 H 0.52574 0.66208 0.90569 0.0
H490 H 0.55247 0.67806 0.85014 0.0
H491 H 0.5585 0.67235 0.93075 0.0
C492 C 0.41847 0.56886 0.91125 0.0
N493 N 0.44109 0.58065 0.94479 0.0
N494 N 0.46067 0.59345 0.90594 0.0
C495 C 0.45092 0.58975 0.84557 0.0
C496 C 0.42341 0.5742 0.84621 0.0
C497 C 0.39264 0.55034 0.94008 0.0
H498 H 0.39519 0.5404 0.9818 0.0
H499 H 0.38316 0.56141 0.95617 0.0
H500 H 0.37973 0.53563 0.90495 0.0
O501 O 0.46239 0.55298 0.04461 0.0
O502 O 0.49846 0.57955 0.99364 0.0
H503 H 0.4738 0.58533 0.77387 0.0
H504 H 0.45688 0.60179 0.74747 0.0
C505 C 0.46769 0.59955 0.78765 0.0
H506 H 0.48545 0.61839 0.79795 0.0
H507 H 0.50918 0.57694 0.86671 0.0
O508 O 0.41949 0.57092 0.07902 0.0
C509 C 0.48516 0.55888 1.02593 0.0
Co510 Co 0.57919 0.81017 0.38778 0.0
Co511 Co 0.58218 0.77232 0.46785 0.0
C512 C 0.55891 0.75238 0.34062 0.0
O513 O 0.56584 0.7764 0.33215 0.0
O514 O 0.56165 0.74535 0.39626 0.0
C515 C 0.53953 0.81334 0.34839 0.0
O516 O 0.52897 0.78971 0.37208 0.0
C517 C 0.58837 0.73383 0.54055 0.0
C518 C 0.62454 0.76024 0.59231 0.0
C519 C 0.60742 0.73426 0.5798 0.0
N520 N 0.59453 0.75846 0.52934 0.0
N521 N 0.61608 0.77413 0.56038 0.0
C522 C 0.56403 0.71085 0.51648 0.0
H523 H 0.54978 0.71678 0.50198 0.0
H524 H 0.55518 0.69556 0.55362 0.0
H525 H 0.56876 0.70265 0.47451 0.0
C526 C 0.55795 0.82209 0.50663 0.0
N527 N 0.56636 0.80786 0.47436 0.0
N528 N 0.56453 0.78918 0.51069 0.0
C529 C 0.55345 0.79022 0.56714 0.0
C530 C 0.54821 0.81119 0.56697 0.0
C531 C 0.56265 0.84793 0.48315 0.0
H532 H 0.57907 0.85641 0.44887 0.0
H533 H 0.54501 0.84531 0.45878 0.0
H534 H 0.56708 0.86165 0.52323 0.0
O535 O 0.61771 0.83162 0.38416 0.0
O536 O 0.61823 0.79916 0.43306 0.0
H537 H 0.56325 0.78162 0.65783 0.0
H538 H 0.52895 0.76561 0.6421 0.0
C539 C 0.54826 0.7717 0.62066 0.0
H540 H 0.54911 0.75441 0.6038 0.0
H541 H 0.62542 0.7944 0.55838 0.0
O542 O 0.56404 0.82765 0.34613 0.0
C543 C 0.6304 0.82121 0.40513 0.0
Co544 Co 0.26312 0.78233 0.38217 0.0
Co545 Co 0.29003 0.82466 0.47177 0.0
C546 C 0.32009 0.82759 0.35499 0.0
O547 O 0.29837 0.80809 0.33902 0.0
O548 O 0.32226 0.83641 0.41172 0.0
C549 C 0.27198 0.74819 0.31896 0.0
O550 O 0.29259 0.75827 0.35562 0.0
C551 C 0.31619 0.868 0.5631 0.0
C552 C 0.28163 0.86813 0.60266 0.0
C553 C 0.30843 0.88088 0.6052 0.0
N554 N 0.29488 0.8488 0.53599 0.0
N555 N 0.27435 0.84919 0.55925 0.0
C556 C 0.34299 0.87225 0.55273 0.0
H557 H 0.35407 0.8896 0.52202 0.0
H558 H 0.34214 0.85512 0.52912 0.0
H559 H 0.35337 0.8759 0.59868 0.0
C560 C 0.25136 0.74704 0.50158 0.0
N561 N 0.26263 0.77031 0.46985 0.0
N562 N 0.27473 0.78923 0.51074 0.0
C563 C 0.27149 0.7785 0.57002 0.0
C564 C 0.25643 0.75088 0.56744 0.0
C565 C 0.23564 0.72128 0.46966 0.0
H566 H 0.23997 0.72255 0.4184 0.0
H567 H 0.23949 0.70651 0.49155 0.0
H568 H 0.21469 0.7148 0.47532 0.0
O569 O 0.23772 0.79535 0.36891 0.0
O570 O 0.26419 0.83032 0.42274 0.0
H571 H 0.26786 0.7847 0.66962 0.0
H572 H 0.3007 0.79743 0.64083 0.0
C573 C 0.28122 0.79453 0.6291 0.0
H574 H 0.28318 0.81388 0.62214 0.0
H575 H 0.25521 0.83615 0.54617 0.0
O576 O 0.25417 0.75383 0.32743 0.0
C577 C 0.24421 0.81812 0.38809 0.0
Co578 Co 0.28395 0.49284 0.38397 0.0
Co579 Co 0.23733 0.47613 0.4621 0.0
C580 C 0.23955 0.50406 0.34095 0.0
O581 O 0.25993 0.50227 0.33252 0.0
O582 O 0.22787 0.49665 0.39471 0.0
C583 C 0.32202 0.53924 0.34858 0.0
O584 O 0.30548 0.54498 0.37512 0.0
C585 C 0.18965 0.45959 0.53795 0.0
C586 C 0.18576 0.42379 0.58131 0.0
C587 C 0.17372 0.43853 0.57656 0.0
N588 N 0.20987 0.45702 0.51966 0.0
N589 N 0.20726 0.43545 0.54517 0.0
C590 C 0.18695 0.48277 0.52286 0.0
H591 H 0.20559 0.499 0.50471 0.0
H592 H 0.1808 0.4892 0.56578 0.0
H593 H 0.17177 0.47738 0.48602 0.0
C594 C 0.31291 0.51296 0.50992 0.0
N595 N 0.29087 0.50204 0.47395 0.0
N596 N 0.27067 0.49577 0.51031 0.0
C597 C 0.27949 0.50285 0.57128 0.0
C598 C 0.30698 0.51414 0.57417 0.0
C599 C 0.33953 0.52419 0.48177 0.0
H600 H 0.33926 0.51238 0.44072 0.0
H601 H 0.34575 0.54426 0.46584 0.0
H602 H 0.35427 0.52562 0.51568 0.0
O603 O 0.2721 0.45468 0.37061 0.0
O604 O 0.23534 0.44457 0.41886 0.0
H605 H 0.27028 0.49479 0.67075 0.0
H606 H 0.25935 0.51503 0.63384 0.0
C607 C 0.26186 0.49787 0.62682 0.0
H608 H 0.24246 0.48074 0.61793 0.0
H609 H 0.22039 0.42881 0.53843 0.0
O610 O 0.31667 0.5157 0.34428 0.0
C611 C 0.24924 0.43752 0.38794 0.0
H612 H 0.18056 0.1618 0.90008 0.0
H613 H 0.22003 0.1362 1.02808 0.0
H614 H 0.20443 0.15019 0.11788 0.0
H615 H 0.17973 0.17035 0.16294 0.0
H616 H 0.14958 0.20526 0.03342 0.0
H617 H 0.16129 0.18734 0.94429 0.0
C618 C 0.18658 0.15964 0.94695 0.0
C619 C 0.20156 0.14692 0.95438 0.0
C620 C 0.17882 0.16954 1.00001 0.0
C621 C 0.20783 0.14442 1.01794 0.0
C622 C 0.19915 0.15302 0.07051 0.0
C623 C 0.17606 0.17483 0.11571 0.0
C624 C 0.16271 0.18921 0.10791 0.0
C625 C 0.18461 0.16571 0.06255 0.0
C626 C 0.1583 0.19355 0.0441 0.0
C627 C 0.16558 0.18353 0.9918 0.0
H628 H 0.87063 0.03582 0.92271 0.0
H629 H 0.94872 0.08381 0.99258 0.0
H630 H 0.93876 0.05434 0.08235 0.0
H631 H 0.90804 1.01368 0.14271 0.0
H632 H 0.83206 0.96334 0.06484 0.0
H633 H 0.84146 0.99396 0.97706 0.0
C634 C 0.88599 0.04 0.95594 0.0
C635 C 0.91071 0.06323 0.94855 0.0
C636 C 0.88047 1.0219 1.00723 0.0
C637 C 0.92929 0.06729 0.99584 0.0
C638 C 0.92367 0.04994 0.04764 0.0
C639 C 0.8935 1.00925 0.10643 0.0
C640 C 0.86915 0.98562 0.11161 0.0
C641 C 0.89931 0.02705 0.05422 0.0
C642 C 0.85096 0.98079 0.06301 0.0
C643 C 0.85635 0.99858 1.01246 0.0
H644 H 0.09156 0.89839 1.03132 0.0
H645 H 0.04111 0.88893 0.18909 0.0
H646 H 1.0037 0.86959 0.11971 0.0
H647 H 0.98377 0.85384 1.01339 0.0
H648 H 1.03493 0.87311 0.85173 0.0
H649 H 0.07213 0.88944 0.92179 0.0
C650 C 0.07255 0.89242 0.05108 0.0
C651 C 0.06993 0.89409 0.11815 0.0
C652 C 0.05044 0.88248 1.00913 0.0
C653 C 0.04449 0.88646 0.13988 0.0
C654 C 1.02267 0.87568 0.09935 0.0
C655 C 1.00288 0.86185 0.99245 0.0
C656 C 1.00528 0.86043 0.92526 0.0
C657 C 1.02515 0.87319 0.03369 0.0
C658 C 1.03114 0.87167 0.90211 0.0
C659 C 0.053 0.88176 0.94278 0.0
H660 H 0.78598 0.79475 0.14595 0.0
H661 H 0.78224 0.84823 1.0136 0.0
H662 H 0.79464 0.82949 0.9267 0.0
H663 H 0.81901 0.80821 0.8988 0.0
H664 H 0.82447 0.75541 1.03082 0.0
H665 H 0.79841 0.76327 0.10768 0.0
C666 C 0.78709 0.80159 0.0976 0.0
C667 C 0.78428 0.82328 0.08587 0.0
C668 C 0.79493 0.79121 0.04839 0.0
C669 C 0.78483 0.83173 1.02335 0.0
C670 C 0.79208 0.82115 0.97383 0.0
C671 C 0.81337 0.79712 0.94248 0.0
C672 C 0.82437 0.78187 0.95977 0.0
C673 C 0.79905 0.80229 0.98693 0.0
C674 C 0.81676 0.76785 1.0172 0.0
C675 C 0.80199 0.77243 0.06134 0.0
H676 H 0.27401 0.02958 0.89692 0.0
H677 H 0.29878 0.08762 0.04402 0.0
H678 H 0.29045 0.05478 0.12447 0.0
H679 H 0.26386 1.0089 0.1535 0.0
H680 H 0.23082 0.95086 1.00638 0.0
H681 H 0.25509 0.98374 0.92587 0.0
C682 C 0.27774 0.03497 0.94657 0.0
C683 C 0.2852 0.06036 0.96538 0.0
C684 C 0.27103 1.01575 0.99268 0.0
C685 C 0.29207 0.06781 1.0289 0.0
C686 C 0.28715 0.04904 0.07496 0.0
C687 C 0.26214 1.00351 0.10384 0.0
C688 C 0.24433 0.9781 0.0851 0.0
C689 C 0.27453 1.02275 0.05768 0.0
C690 C 0.24378 0.97068 1.02149 0.0
C691 C 0.25751 0.98948 0.97539 0.0
H692 H 1.02787 0.24943 0.89015 0.0
H693 H 0.96673 0.218 1.03059 0.0
H694 H 0.99854 0.23909 0.11511 0.0
H695 H 0.0437 0.25689 0.14899 0.0
H696 H 0.10452 0.28254 1.00813 0.0
H697 H 0.07321 0.27407 0.92392 0.0
C698 C 1.02161 0.24753 0.93926 0.0
C699 C 0.99544 0.23131 0.95496 0.0
C700 C 0.04002 0.25842 0.98746 0.0
C701 C 0.98705 0.23002 1.01794 0.0
C702 C 1.0052 0.24188 0.06623 0.0
C703 C 0.05002 0.26067 0.09987 0.0
C704 C 0.07589 0.26885 0.08411 0.0
C705 C 1.03177 0.25451 0.05168 0.0
C706 C 0.0844 0.27549 1.02099 0.0
C707 C 0.06654 0.27055 0.97282 0.0
H708 H 0.8413 0.49603 0.49775 0.0
H709 H 0.81673 0.53627 0.36907 0.0
H710 H 0.82988 0.51982 0.27966 0.0
H711 H 0.84896 0.49412 0.23487 0.0
H712 H 0.88378 0.46391 0.36445 0.0
H713 H 0.86639 0.47621 0.45347 0.0
C714 C 0.8392 0.50208 0.45085 0.0
C715 C 0.82687 0.51747 0.44337 0.0
C716 C 0.84878 0.49393 0.39775 0.0
C717 C 0.8245 0.52371 0.37959 0.0
C718 C 0.83267 0.51455 0.3271 0.0
C719 C 0.85362 0.49058 0.28197 0.0
C720 C 0.86776 0.47695 0.28963 0.0
C721 C 0.84493 0.49961 0.33515 0.0
C722 C 0.87222 0.47276 0.35358 0.0
C723 C 0.86251 0.48041 0.40594 0.0
H724 H 0.55293 0.36097 0.22741 0.0
H725 H 0.59264 0.42537 0.35685 0.0
H726 H 0.58047 0.39515 0.4451 0.0
H727 H 0.55786 0.34997 0.48875 0.0
H728 H 0.51043 0.28665 0.36218 0.0
H729 H 0.52607 0.31642 0.27254 0.0
C730 C 0.55864 0.36889 0.2746 0.0
C731 C 0.57453 0.39646 0.28255 0.0
C732 C 0.55008 0.35107 0.32742 0.0
C733 C 0.58163 0.40491 0.34602 0.0
C734 C 0.57417 0.38734 0.39783 0.0
C735 C 0.55026 0.34237 0.44216 0.0
C736 C 0.53287 0.31502 0.43471 0.0
C737 C 0.55828 0.36026 0.38955 0.0
C738 C 0.52442 0.30672 0.37179 0.0
C739 C 0.53316 0.32413 0.31951 0.0
H740 H 0.74725 0.21102 0.38286 0.0
H741 H 0.71676 0.24868 0.50137 0.0
H742 H 0.6803 0.23575 0.42805 0.0
H743 H 0.65612 0.21341 0.32843 0.0
H744 H 0.68486 0.17259 0.21525 0.0
H745 H 0.7219 0.18683 0.28642 0.0
C746 C 0.73282 0.2167 0.39241 0.0
C747 C 0.73551 0.23148 0.44807 0.0
C748 C 0.71105 0.20841 0.35018 0.0
C749 C 0.71582 0.23776 0.45926 0.0
C750 C 0.69469 0.23019 0.41706 0.0
C751 C 0.67028 0.20737 0.31929 0.0
C752 C 0.66737 0.1922 0.26403 0.0
C753 C 0.69186 0.21537 0.36215 0.0
C754 C 0.68642 0.18482 0.25507 0.0
C755 C 0.70782 0.19291 0.29651 0.0
H756 H 0.49783 0.0943 0.36927 0.0
H757 H 0.46812 0.11196 0.20137 0.0
H758 H 0.44088 0.12287 0.26669 0.0
H759 H 0.43762 0.14042 0.36918 0.0
H760 H 0.46931 0.12503 0.53692 0.0
H761 H 0.48313 0.09939 0.47441 0.0
C762 C 0.48456 0.09948 0.34704 0.0
C763 C 0.48592 0.10396 0.28145 0.0
C764 C 0.46987 0.10668 0.38495 0.0
C765 C 0.46817 0.10977 0.25245 0.0
C766 C 0.45263 0.11597 0.28969 0.0
C767 C 0.44667 0.13064 0.39243 0.0
C768 C 0.45424 0.13598 0.45616 0.0
C769 C 0.45519 0.11669 0.3559 0.0
C770 C 0.46493 0.12245 0.48667 0.0
C771 C 0.47266 0.10769 0.4511 0.0
H772 H 0.95046 0.36756 0.25661 0.0
H773 H 0.95637 0.42382 0.39497 0.0
H774 H 0.94669 0.39254 0.48016 0.0
H775 H 0.92323 0.34702 0.50682 0.0
H776 H 0.91501 0.28934 0.3695 0.0
H777 H 0.93964 0.32365 0.29235 0.0
C778 C 0.95024 0.37302 0.30566 0.0
C779 C 0.95271 0.39723 0.31974 0.0
C780 C 0.94392 0.35469 0.35419 0.0
C781 C 0.95377 0.40489 0.38323 0.0
C782 C 0.94814 0.38699 0.43191 0.0
C783 C 0.92777 0.34162 0.46173 0.0
C784 C 0.91601 0.31545 0.44309 0.0
C785 C 0.94113 0.3613 0.41709 0.0
C786 C 0.92299 0.30939 0.38423 0.0
C787 C 0.93691 0.32898 0.3398 0.0
H788 H 0.70583 0.57419 0.21567 0.0
H789 H 0.64993 0.57659 0.34283 0.0
H790 H 0.68414 0.60051 0.42027 0.0
H791 H 0.72619 0.60819 0.46156 0.0
H792 H 0.78094 0.60422 0.33381 0.0
H793 H 0.75108 0.5944 0.24539 0.0
C794 C 0.70113 0.58116 0.25827 0.0
C795 C 0.67519 0.57278 0.27439 0.0
C796 C 0.72067 0.59412 0.30319 0.0
C797 C 0.66976 0.5822 0.33026 0.0
C798 C 0.68925 0.59569 0.37481 0.0
C799 C 0.73173 0.60591 0.41387 0.0
C800 C 0.75498 0.60579 0.40398 0.0
C801 C 0.71424 0.59971 0.36368 0.0
C802 C 0.76273 0.60383 0.34221 0.0
C803 C 0.74565 0.59811 0.29178 0.0
H804 H 0.54524 0.80868 0.7033 0.0
H805 H 0.51762 0.83317 0.54293 0.0
H806 H 0.50033 0.85306 0.6134 0.0
H807 H 0.49325 0.86512 0.72148 0.0
H808 H 0.51128 0.83203 0.88251 0.0
H809 H 0.53151 0.81471 0.81254 0.0
C810 C 0.53531 0.81811 0.68315 0.0
C811 C 0.53466 0.82037 0.61561 0.0
C812 C 0.52352 0.82855 0.72521 0.0
C813 C 0.52072 0.8324 0.59316 0.0
C814 C 0.51011 0.84355 0.63414 0.0
C815 C 0.50108 0.85384 0.74224 0.0
C816 C 0.50121 0.85145 0.80974 0.0
C817 C 0.51157 0.84214 0.70052 0.0
C818 C 0.51185 0.83623 0.83249 0.0
C819 C 0.52321 0.82562 0.79169 0.0
H820 H 0.23895 0.68093 0.82108 0.0
H821 H 0.17072 0.62587 0.71906 0.0
H822 H 0.18242 0.65687 0.63092 0.0
H823 H 0.21139 0.70067 0.58266 0.0
H824 H 0.28273 0.75326 0.67875 0.0
H825 H 0.27016 0.72313 0.76773 0.0
C826 C 0.22666 0.67553 0.77942 0.0
C827 C 0.20374 0.65052 0.77795 0.0
C828 C 0.23394 0.69355 0.72719 0.0
C829 C 0.18848 0.64446 0.72252 0.0
C830 C 0.19517 0.66246 0.67173 0.0
C831 C 0.2247 0.70569 0.62199 0.0
C832 C 0.24814 0.73046 0.62219 0.0
C833 C 0.21786 0.68723 0.67322 0.0
C834 C 0.26417 0.73554 0.67613 0.0
C835 C 0.2571 0.71783 0.72758 0.0
H836 H 0.35054 0.50948 0.60994 0.0
H837 H 0.30649 0.54525 0.67193 0.0
H838 H 0.33684 0.56576 0.76017 0.0
H839 H 0.37752 0.57529 0.81977 0.0
H840 H 0.42449 0.54438 0.74742 0.0
H841 H 0.39275 0.52195 0.66275 0.0
C842 C 0.34792 0.52264 0.64055 0.0
C843 C 0.32593 0.52602 0.63114 0.0
C844 C 0.36653 0.53572 0.69019 0.0
C845 C 0.32267 0.54179 0.67633 0.0
C846 C 0.3404 0.55389 0.72709 0.0
C847 C 0.38101 0.56384 0.78518 0.0
C848 C 0.40398 0.56192 0.79096 0.0
C849 C 0.36265 0.55129 0.73453 0.0
C850 C 0.40756 0.54675 0.74488 0.0
C851 C 0.38914 0.53366 0.69622 0.0
H852 H 0.10476 0.46974 0.72448 0.0
H853 H 0.15444 0.46862 0.87298 0.0
H854 H 0.16467 0.44138 0.80919 0.0
H855 H 0.17135 0.43103 0.70173 0.0
H856 H 0.13075 0.44178 0.54581 0.0
H857 H 0.10555 0.4522 0.62038 0.0
C858 C 0.11732 0.46299 0.74364 0.0
C859 C 0.1292 0.47199 0.80316 0.0
C860 C 0.12559 0.44971 0.70378 0.0
C861 C 0.14475 0.46234 0.82791 0.0
C862 C 0.15113 0.44696 0.79061 0.0
C863 C 0.15627 0.4347 0.68441 0.0
C864 C 0.15319 0.43641 0.61897 0.0
C865 C 0.14346 0.44253 0.72695 0.0
C866 C 0.13367 0.44102 0.59638 0.0
C867 C 0.11938 0.44701 0.63892 0.0
H868 H 0.62569 0.73502 0.69669 0.0
H869 H 0.59092 0.68475 0.53522 0.0
H870 H 0.57777 0.64658 0.60238 0.0
H871 H 0.56566 0.62882 0.71006 0.0
H872 H 0.59832 0.67948 0.87163 0.0
H873 H 0.62388 0.71637 0.80106 0.0
C874 C 0.61594 0.71575 0.67571 0.0
C875 C 0.60747 0.71239 0.61248 0.0
C876 C 0.60793 0.69408 0.71482 0.0
C877 C 0.59591 0.68755 0.58509 0.0
C878 C 0.58865 0.66578 0.62327 0.0
C879 C 0.57916 0.64774 0.72975 0.0
C880 C 0.57924 0.65205 0.79521 0.0
C881 C 0.59277 0.66888 0.68897 0.0
C882 C 0.59721 0.67626 0.82082 0.0
C883 C 0.61177 0.69727 0.78059 0.0
H884 H 0.37626 0.91721 0.83685 0.0
H885 H 0.43366 0.96415 0.69575 0.0
H886 H 0.39911 0.95632 0.62144 0.0
H887 H 0.35419 0.92543 0.58915 0.0
H888 H 0.29803 0.8775 0.73082 0.0
H889 H 0.33055 0.89774 0.81393 0.0
C890 C 0.3816 0.92713 0.79165 0.0
C891 C 0.40762 0.94047 0.77131 0.0
C892 C 0.36172 0.92198 0.74879 0.0
C893 C 0.41368 0.95306 0.71188 0.0
C894 C 0.39394 0.94851 0.66919 0.0
C895 C 0.34902 0.92017 0.63859 0.0
C896 C 0.3244 0.89941 0.6542 0.0
C897 C 0.36804 0.93121 0.68564 0.0
C898 C 0.31721 0.89316 0.71806 0.0
C899 C 0.33584 0.90457 0.76544 0.0
H900 H 0.19851 0.39861 0.39351 0.0
H901 H 0.2753 0.41146 0.35376 0.0
H902 H 0.25729 0.36449 0.33863 0.0
H903 H 0.21908 0.319 0.33649 0.0
H904 H 0.14248 0.30796 0.3694 0.0
H905 H 0.16097 0.35445 0.38775 0.0
C906 C 0.21143 0.39127 0.38139 0.0
C907 C 0.23839 0.4089 0.375 0.0
C908 C 0.20086 0.36422 0.37186 0.0
C909 C 0.25453 0.39864 0.3588 0.0
C910 C 0.24419 0.37164 0.35039 0.0
C911 C 0.2065 0.32678 0.34821 0.0
C912 C 0.17928 0.30967 0.35213 0.0
C913 C 0.21732 0.3541 0.35696 0.0
C914 C 0.16338 0.3204 0.36617 0.0
C915 C 0.17397 0.34712 0.37663 0.0
H916 H 0.7493 0.85538 0.36383 0.0
H917 H 0.75862 0.93211 0.37613 0.0
H918 H 0.71149 0.91289 0.391 0.0
H919 H 0.66697 0.87375 0.39797 0.0
H920 H 0.65922 0.79748 0.39335 0.0
H921 H 0.70602 0.81695 0.37782 0.0
C922 C 0.74111 0.868 0.37011 0.0
C923 C 0.7577 0.89528 0.36852 0.0
C924 C 0.71403 0.85678 0.37963 0.0
C925 C 0.74653 0.91113 0.3774 0.0
C926 C 0.71947 0.90009 0.38556 0.0
C927 C 0.67554 0.86142 0.39345 0.0
C928 C 0.65932 0.83404 0.39626 0.0
C929 C 0.70291 0.87288 0.38623 0.0
C930 C 0.671 0.81849 0.39134 0.0
C931 C 0.69787 0.82965 0.3824 0.0
H932 H 0.19297 0.8051 0.40802 0.0
H933 H 0.26506 0.86374 0.32514 0.0
H934 H 0.24561 0.89058 0.30049 0.0
H935 H 0.20876 0.89858 0.30607 0.0
H936 H 0.13718 0.8416 0.39495 0.0
H937 H 0.1556 0.81332 0.41367 0.0
C938 C 0.2042 0.82353 0.38354 0.0
C939 C 0.23037 0.83214 0.36732 0.0
C940 C 0.19303 0.83946 0.37127 0.0
C941 C 0.24484 0.85647 0.33733 0.0
C942 C 0.23374 0.87194 0.32352 0.0
C943 C 0.19709 0.87997 0.32947 0.0
C944 C 0.17149 0.87244 0.34903 0.0
C945 C 0.20796 0.86384 0.34091 0.0
C946 C 0.15692 0.84815 0.37949 0.0
C947 C 0.16746 0.83184 0.39011 0.0
H948 H 0.40419 0.18041 0.64817 0.0
H949 H 0.41667 0.25575 0.70361 0.0
H950 H 0.36977 0.23726 0.71949 0.0
H951 H 0.32461 0.19898 0.71991 0.0
H952 H 0.31361 0.12348 0.67228 0.0
H953 H 0.36002 0.14262 0.65066 0.0
C954 C 0.39673 0.19288 0.66364 0.0
C955 C 0.41421 0.21956 0.67447 0.0
C956 C 0.36971 0.18199 0.67385 0.0
C957 C 0.40391 0.23518 0.69504 0.0
C958 C 0.37697 0.22459 0.70397 0.0
C959 C 0.33239 0.18685 0.70399 0.0
C960 C 0.31545 0.15979 0.6969 0.0
C961 C 0.35957 0.19796 0.69365 0.0
C962 C 0.32605 0.14431 0.67772 0.0
C963 C 0.35268 0.15525 0.66551 0.0
H964 H 0.85218 0.13308 0.72416 0.0
H965 H 0.92561 0.19275 0.64926 0.0
H966 H 0.90718 0.22077 0.62893 0.0
H967 H 0.87088 0.22948 0.63579 0.0
H968 H 0.79788 0.17159 0.71688 0.0
H969 H 0.81529 0.14216 0.73155 0.0
C970 C 0.86395 0.15203 0.70237 0.0
C971 C 0.89024 0.16054 0.68724 0.0
C972 C 0.85335 0.16865 0.69262 0.0
C973 C 0.90533 0.18551 0.66073 0.0
C974 C 0.89481 0.20166 0.64934 0.0
C975 C 0.85866 0.21041 0.65659 0.0
C976 C 0.83295 0.20297 0.67508 0.0
C977 C 0.86895 0.19363 0.66572 0.0
C978 C 0.8177 0.17809 0.7023 0.0
C979 C 0.82768 0.16114 0.71056 0.0
H980 H 0.91823 0.72532 0.72225 0.0
H981 H 0.85025 0.73383 0.72772 0.0
H982 H 0.8224 0.68706 0.71093 0.0
H983 H 0.81701 0.6434 0.69277 0.0
H984 H 0.88438 0.6339 0.697 0.0
H985 H 0.91249 0.68087 0.71211 0.0
C986 C 0.89732 0.71693 0.71984 0.0
C987 C 0.88649 0.73337 0.72579 0.0
C988 C 0.88117 0.68962 0.71194 0.0
C989 C 0.85925 0.72188 0.7234 0.0
C990 C 0.84324 0.69503 0.71362 0.0
C991 C 0.83784 0.65156 0.69726 0.0
C992 C 0.84845 0.63489 0.69332 0.0
C993 C 0.85392 0.67866 0.70758 0.0
C994 C 0.87553 0.64602 0.69999 0.0
C995 C 0.89169 0.673 0.70841 0.0
H996 H 0.07499 0.51379 0.99561 0.0
H997 H 0.08433 0.58963 1.02992 0.0
H998 H 0.03725 0.57013 0.04358 0.0
H999 H 0.99274 0.53096 0.04822 0.0
H1000 H 0.98465 0.45518 1.02222 0.0
H1001 H 1.03127 0.47504 1.00262 0.0
C1002 C 0.06679 0.52613 1.00591 0.0
C1003 C 0.08352 0.5533 1.01144 0.0
C1004 C 0.03958 0.51468 1.0151 0.0
C1005 C 0.07222 0.56873 1.02549 0.0
C1006 C 0.04514 0.55754 0.03318 0.0
C1007 C 1.00117 0.51885 0.03754 0.0
C1008 C 0.98491 0.49149 0.03606 0.0
C1009 C 1.02851 0.53047 1.02828 0.0
C1010 C 0.99647 0.4762 1.02348 0.0
C1011 C 1.02325 0.48758 1.01233 0.0
H1012 H 0.53647 0.57299 1.03022 0.0
H1013 H 0.45997 0.50594 0.04977 0.0
H1014 H 0.47924 0.47791 0.06179 0.0
H1015 H 0.51836 0.47228 0.06467 0.0
H1016 H 0.59453 0.54051 0.05314 0.0
H1017 H 0.57498 0.56792 0.03989 0.0
C1018 C 0.52392 0.55224 0.03743 0.0
C1019 C 0.49666 0.54171 0.03877 0.0
C1020 C 0.5352 0.5363 0.04541 0.0
C1021 C 0.48093 0.51474 0.04878 0.0
C1022 C 0.492 0.49864 0.05533 0.0
C1023 C 0.53066 0.49314 0.05914 0.0
C1024 C 0.55804 0.50416 0.05939 0.0
C1025 C 0.51917 0.50914 0.05329 0.0
C1026 C 0.57352 0.53135 0.05315 0.0
C1027 C 0.56232 0.54712 0.0455 0.0
H1028 H 0.55333 0.06411 0.12159 0.0
H1029 H 0.57597 0.08498 0.92623 0.0
H1030 H 0.55348 0.03877 0.89681 0.0
H1031 H 0.52586 0.99182 0.92648 0.0
H1032 H 0.50772 0.97157 0.12398 0.0
H1033 H 0.52969 1.01768 0.15251 0.0
C1034 C 0.55354 0.05856 0.0726 0.0
C1035 C 0.56632 0.07818 1.02619 0.0
C1036 C 0.54113 0.03185 0.05632 0.0
C1037 C 0.5665 0.07046 0.96307 0.0
C1038 C 0.55346 0.04395 0.94616 0.0
C1039 C 0.52684 0.99756 0.97573 0.0
C1040 C 0.5149 0.97813 1.02302 0.0
C1041 C 0.54046 0.02438 0.99226 0.0
C1042 C 0.51669 0.986 0.08668 0.0
C1043 C 0.52925 1.01244 0.10304 0.0
H1044 H 0.1627 0.20006 0.51349 0.0
H1045 H 0.13319 0.13359 0.38928 0.0
H1046 H 0.13746 0.10772 0.47465 0.0
H1047 H 0.1573 0.10739 0.57718 0.0
H1048 H 0.19129 0.1764 0.69322 0.0
H1049 H 0.17644 0.19779 0.6198 0.0
C1050 C 0.15714 0.17986 0.50526 0.0
C1051 C 0.14873 0.1688 0.44536 0.0
C1052 C 0.16001 0.1656 0.55348 0.0
C1053 C 0.1404 0.14244 0.43527 0.0
C1054 C 0.14273 0.12774 0.48386 0.0
C1055 C 0.16042 0.1267 0.58713 0.0
C1056 C 0.1751 0.14048 0.63984 0.0
C1057 C 0.15354 0.13951 0.54228 0.0
C1058 C 0.17971 0.16556 0.6529 0.0
C1059 C 0.17156 0.17788 0.61057 0.0
H1060 H 0.95541 0.06975 0.57158 0.0
H1061 H 0.89411 1.02038 0.7011 0.0
H1062 H 0.88028 0.98345 0.62952 0.0
H1063 H 0.87863 0.96958 0.52048 0.0
H1064 H 0.93556 1.02047 0.38404 0.0
H1065 H 0.95886 0.05259 0.46783 0.0
C1066 C 0.93973 0.05055 0.5847 0.0
C1067 C 0.92541 0.04733 0.64009 0.0
C1068 C 0.93095 0.0301 0.54151 0.0
C1069 C 0.90504 1.02287 0.65787 0.0
C1070 C 0.89712 1.00194 0.61696 0.0
C1071 C 0.89653 0.9875 0.50982 0.0
C1072 C 0.9052 0.99352 0.44711 0.0
C1073 C 0.90877 1.00594 0.55701 0.0
C1074 C 0.92861 1.01607 0.43262 0.0
C1075 C 0.94173 0.03432 0.48022 0.0
H1076 H 0.0656 0.93169 0.4724 0.0
H1077 H 0.041 0.85884 0.37626 0.0
H1078 H 1.00268 0.83739 0.44215 0.0
H1079 H 0.98258 0.83681 0.54115 0.0
H1080 H 1.01084 0.90671 0.65261 0.0
H1081 H 0.04154 0.93203 0.56767 0.0
C1082 C 0.05124 0.91138 0.46493 0.0
C1083 C 0.05563 0.89685 0.41948 0.0
C1084 C 1.03058 0.89851 0.50734 0.0
C1085 C 0.03754 0.87047 0.41004 0.0
C1086 C 1.01584 0.85807 0.44844 0.0
C1087 C 0.99542 0.85762 0.54672 0.0
C1088 C 0.99558 0.86991 0.60319 0.0
C1089 C 1.01324 0.8715 0.49958 0.0
C1090 C 1.01121 0.89696 0.60945 0.0
C1091 C 1.02858 0.91134 0.56111 0.0
H1092 H 0.88061 0.86446 0.66413 0.0
H1093 H 0.90466 0.82163 0.54336 0.0
H1094 H 0.89021 0.83518 0.44978 0.0
H1095 H 0.87082 0.86 0.39857 0.0
H1096 H 0.84968 0.90518 0.51955 0.0
H1097 H 0.86253 0.89021 0.61298 0.0
C1098 C 0.88266 0.85793 0.61753 0.0
C1099 C 0.89387 0.84163 0.61268 0.0
C1100 C 0.87467 0.86643 0.5621 0.0
C1101 C 0.89629 0.83402 0.5504 0.0
C1102 C 0.88792 0.84184 0.49598 0.0
C1103 C 0.86889 0.86657 0.44522 0.0
C1104 C 0.8589 0.88395 0.45008 0.0
C1105 C 0.87706 0.85816 0.50062 0.0
C1106 C 0.85714 0.89202 0.51236 0.0
C1107 C 0.86456 0.88336 0.56679 0.0
H1108 H 0.16293 0.9656 0.51408 0.0
H1109 H 0.19559 1.01884 0.35661 0.0
H1110 H 0.21277 0.05572 0.43034 0.0
H1111 H 0.21914 0.07384 0.54132 0.0
H1112 H 0.18992 1.02022 0.69884 0.0
H1113 H 0.17128 0.98353 0.62482 0.0
C1114 C 0.17378 0.98523 0.49546 0.0
C1115 C 0.17749 0.98882 0.42828 0.0
C1116 C 0.18445 1.00679 0.53907 0.0
C1117 C 0.19209 1.01485 0.40698 0.0
C1118 C 0.20201 0.0362 0.44965 0.0
C1119 C 0.20863 0.05416 0.55979 0.0
C1120 C 0.20599 0.05041 0.62714 0.0
C1121 C 0.19839 0.03259 0.51608 0.0
C1122 C 0.19249 0.02432 0.64837 0.0
C1123 C 0.18169 1.00308 0.60553 0.0
H1124 H 1.03265 0.18148 0.65852 0.0
H1125 H 0.96616 0.14491 0.53476 0.0
H1126 H 0.99466 0.16002 0.44194 0.0
H1127 H 0.03912 0.18382 0.3924 0.0
H1128 H 0.10574 0.21735 0.51604 0.0
H1129 H 0.07723 0.20356 0.60895 0.0
C1130 C 1.02426 0.17678 0.61139 0.0
C1131 C 0.99665 0.16186 0.60545 0.0
C1132 C 0.04116 0.18516 0.5565 0.0
C1133 C 0.98694 0.15612 0.54262 0.0
C1134 C 1.00342 0.16489 0.48866 0.0
C1135 C 0.04754 0.18821 0.43952 0.0
C1136 C 0.07518 0.20205 0.44541 0.0
C1137 C 1.03068 0.17947 0.49443 0.0
C1138 C 0.08495 0.20692 0.50824 0.0
C1139 C 0.06845 0.19897 0.56223 0.0
H1140 H 0.82206 0.5244 0.85282 0.0
H1141 H 0.79092 0.4557 0.73597 0.0
H1142 H 0.79944 0.43243 0.82076 0.0
H1143 H 0.82386 0.4354 0.9182 0.0
H1144 H 0.86032 0.50713 1.02409 0.0
H1145 H 0.84089 0.52548 0.95466 0.0
C1146 C 0.81696 0.50424 0.84618 0.0
C1147 C 0.80693 0.49186 0.78823 0.0
C1148 C 0.82271 0.49166 0.89341 0.0
C1149 C 0.79926 0.46555 0.78036 0.0
C1150 C 0.80414 0.45238 0.82855 0.0
C1151 C 0.82668 0.45469 0.92683 0.0
C1152 C 0.84327 0.47009 0.97539 0.0
C1153 C 0.81703 0.46572 0.88394 0.0
C1154 C 0.84741 0.49511 0.98677 0.0
C1155 C 0.83653 0.50563 0.94687 0.0
H1156 H 0.60598 0.39291 0.9256 0.0
H1157 H 0.53005 0.3618 1.01098 0.0
H1158 H 0.51248 0.32509 0.93772 0.0
H1159 H 0.51714 0.30715 0.83935 0.0
H1160 H 0.59142 0.34055 0.74419 0.0
H1161 H 0.61171 0.37138 0.83211 0.0
C1162 C 0.5858 0.3776 0.92894 0.0
C1163 C 0.56904 0.37972 0.97221 0.0
C1164 C 0.57563 0.35761 0.88442 0.0
C1165 C 0.54296 0.36026 0.97701 0.0
C1166 C 0.53298 0.3395 0.9352 0.0
C1167 C 0.53781 0.32117 0.83786 0.0
C1168 C 0.55276 0.32256 0.78504 0.0
C1169 C 0.54885 0.33887 0.88682 0.0
C1170 C 0.57963 0.33981 0.78435 0.0
C1171 C 0.59112 0.35728 0.83434 0.0
H1172 H 0.64176 0.1891 0.85915 0.0
H1173 H 0.67917 0.2592 0.97066 0.0
H1174 H 0.71257 0.28051 0.8879 0.0
H1175 H 0.7363 0.27435 0.79932 0.0
H1176 H 0.7025 0.1994 0.70783 0.0
H1177 H 0.66223 0.18475 0.76547 0.0
C1178 C 0.65703 0.20923 0.86455 0.0
C1179 C 0.65906 0.22245 0.92088 0.0
C1180 C 0.67683 0.22024 0.82015 0.0
C1181 C 0.67793 0.24872 0.92747 0.0
C1182 C 0.69699 0.26071 0.88062 0.0
C1183 C 0.71974 0.25513 0.79118 0.0
C1184 C 0.722 0.23791 0.74976 0.0
C1185 C 0.69756 0.24597 0.82907 0.0
C1186 C 0.70091 0.21294 0.73925 0.0
C1187 C 0.67797 0.20451 0.77246 0.0
H1188 H 0.56683 0.17329 0.87861 0.0
H1189 H 0.53518 0.19496 0.03605 0.0
H1190 H 0.5169 0.21354 0.96156 0.0
H1191 H 0.50996 0.2244 0.84983 0.0
H1192 H 0.53829 0.19855 0.69336 0.0
H1193 H 0.55741 0.18125 0.76813 0.0
C1194 C 0.55587 0.18199 0.89707 0.0
C1195 C 0.55279 0.18262 0.96421 0.0
C1196 C 0.54468 0.19215 0.85329 0.0
C1197 C 0.53811 0.19391 0.98558 0.0
C1198 C 0.52763 0.2047 0.94252 0.0
C1199 C 0.52032 0.215 0.83184 0.0
C1200 C 0.52265 0.21326 0.76462 0.0
C1201 C 0.5308 0.2041 0.87599 0.0
C1202 C 0.53597 0.20048 0.74377 0.0
C1203 C 0.54704 0.19049 0.78697 0.0
H1204 H 0.88646 0.40528 0.8785 0.0
H1205 H 0.85824 0.35142 0.03562 0.0
H1206 H 0.83836 0.31487 0.96125 0.0
H1207 H 0.82853 0.29712 0.85011 0.0
H1208 H 0.86025 0.35069 0.69299 0.0
H1209 H 0.8787 0.38737 0.76725 0.0
C1210 C 0.87593 0.38558 0.89685 0.0
C1211 C 0.87397 0.38174 0.9642 0.0
C1212 C 0.86494 0.36409 0.85288 0.0
C1213 C 0.86036 0.35561 0.98517 0.0
C1214 C 0.84883 0.33444 0.94212 0.0
C1215 C 0.83944 0.31679 0.8317 0.0
C1216 C 0.84248 0.32052 0.7644 0.0
C1217 C 0.8509 0.33825 0.87562 0.0
C1218 C 0.85722 0.34658 0.7434 0.0
C1219 C 0.86788 0.36782 0.78639 0.0
H1220 H 0.69427 0.51246 0.99041 0.0
H1221 H 0.62715 0.47707 0.86863 0.0
H1222 H 0.65537 0.49113 0.77488 0.0
H1223 H 0.69999 0.51376 0.72422 0.0
H1224 H 0.76674 0.54602 0.84755 0.0
H1225 H 0.73845 0.53324 0.94046 0.0
C1226 C 0.68565 0.50772 0.94352 0.0
C1227 C 0.658 0.4935 0.93841 0.0
C1228 C 0.70232 0.51553 0.88836 0.0
C1229 C 0.64798 0.48777 0.87585 0.0
C1230 C 0.66431 0.49595 0.8214 0.0
C1231 C 0.70847 0.51814 0.77126 0.0
C1232 C 0.73613 0.5313 0.777 0.0
C1233 C 0.69166 0.50993 0.82647 0.0
C1234 C 0.74594 0.5361 0.83979 0.0
C1235 C 0.72958 0.52872 0.89384 0.0
H1236 H 0.49725 0.78566 0.27749 0.0
H1237 H 0.54691 0.86184 0.35683 0.0
H1238 H 0.52565 0.87988 0.29297 0.0
H1239 H 0.50076 0.87591 0.19988 0.0
H1240 H 0.45734 0.80214 0.10432 0.0
H1241 H 0.4679 0.78078 0.18969 0.0
C1242 C 0.50274 0.80601 0.28173 0.0
C1243 C 0.5234 0.82258 0.32096 0.0
C1244 C 0.49199 0.81661 0.24107 0.0
C1245 C 0.53088 0.84892 0.32665 0.0
C1246 C 0.51891 0.85922 0.28995 0.0
C1247 C 0.49347 0.8551 0.19793 0.0
C1248 C 0.47937 0.84062 0.14542 0.0
C1249 C 0.50069 0.84356 0.24449 0.0
C1250 C 0.46887 0.81358 0.14419 0.0
C1251 C 0.47492 0.80148 0.19267 0.0
H1252 H 0.25018 0.74777 0.2093 0.0
H1253 H 0.29041 0.71433 0.30675 0.0
H1254 H 0.27862 0.68202 0.22179 0.0
H1255 H 0.24903 0.65844 0.13347 0.0
H1256 H 0.20389 0.6892 0.04838 0.0
H1257 H 0.22587 0.72804 0.11404 0.0
C1258 C 0.25659 0.73354 0.21147 0.0
C1259 C 0.27012 0.73242 0.26445 0.0
C1260 C 0.2488 0.7147 0.16479 0.0
C1261 C 0.27942 0.71489 0.26635 0.0
C1262 C 0.27263 0.69649 0.21815 0.0
C1263 C 0.24468 0.67408 0.1284 0.0
C1264 C 0.22487 0.67124 0.08757 0.0
C1265 C 0.25613 0.69542 0.1691 0.0
C1266 C 0.219 0.69121 0.08054 0.0
C1267 C 0.23145 0.71326 0.118 0.0
H1268 H 0.32311 0.56809 0.25063 0.0
H1269 H 0.37171 0.55336 0.37587 0.0
H1270 H 0.40841 0.57616 0.30427 0.0
H1271 H 0.42207 0.58832 0.19554 0.0
H1272 H 0.37143 0.59529 0.06076 0.0
H1273 H 0.34006 0.58797 0.14592 0.0
C1274 C 0.3421 0.57092 0.26286 0.0
C1275 C 0.34506 0.55927 0.31754 0.0
C1276 C 0.36237 0.582 0.21881 0.0
C1277 C 0.3693 0.56241 0.33383 0.0
C1278 C 0.39017 0.5752 0.29266 0.0
C1279 C 0.40436 0.58879 0.18549 0.0
C1280 C 0.39814 0.59123 0.123 0.0
C1281 C 0.38625 0.58322 0.23328 0.0
C1282 C 0.37592 0.59281 0.10923 0.0
C1283 C 0.35811 0.58855 0.15762 0.0
H1284 H 0.21146 0.53148 0.33806 0.0
H1285 H 0.24463 0.49783 0.21417 0.0
H1286 H 0.22997 0.5116 0.12135 0.0
H1287 H 0.20775 0.53382 0.07194 0.0
H1288 H 0.17801 0.57093 0.19526 0.0
H1289 H 0.19101 0.55558 0.28834 0.0
C1290 C 0.21544 0.52701 0.2909 0.0
C1291 C 0.22926 0.51315 0.28482 0.0
C1292 C 0.20747 0.53586 0.23599 0.0
C1293 C 0.23422 0.50826 0.222 0.0
C1294 C 0.22574 0.51621 0.16809 0.0
C1295 C 0.20405 0.53863 0.11903 0.0
C1296 C 0.19155 0.55376 0.12482 0.0
C1297 C 0.21235 0.53014 0.17392 0.0
C1298 C 0.18748 0.55958 0.18757 0.0
C1299 C 0.19495 0.55066 0.24164 0.0
H1300 H 0.52951 0.69735 0.33754 0.0
H1301 H 0.56508 0.76387 0.21281 0.0
H1302 H 0.55046 0.7352 0.12031 0.0
H1303 H 0.52697 0.69039 0.07162 0.0
H1304 H 0.48859 0.62435 0.19738 0.0
H1305 H 0.50457 0.65299 0.28929 0.0
C1306 C 0.53415 0.70572 0.29027 0.0
C1307 C 0.54878 0.73333 0.28388 0.0
C1308 C 0.52499 0.68882 0.23579 0.0
C1309 C 0.554 0.74308 0.22091 0.0
C1310 C 0.54559 0.72648 0.1672 0.0
C1311 C 0.5221 0.68214 0.11899 0.0
C1312 C 0.50637 0.65459 0.12579 0.0
C1313 C 0.53099 0.69918 0.17348 0.0
C1314 C 0.50043 0.64507 0.18888 0.0
C1315 C 0.50968 0.66163 0.24234 0.0
H1316 H 0.31874 0.826 0.22191 0.0
H1317 H 0.3731 0.85672 0.37697 0.0
H1318 H 0.40937 0.87466 0.30103 0.0
H1319 H 0.42649 0.8817 0.18942 0.0
H1320 H 0.37212 0.85436 0.03405 0.0
H1321 H 0.33583 0.83552 0.11 0.0
C1322 C 0.3385 0.83664 0.23947 0.0
C1323 C 0.34265 0.83957 0.30659 0.0
C1324 C 0.35965 0.84772 0.19467 0.0
C1325 C 0.36875 0.85387 0.3267 0.0
C1326 C 0.38971 0.8642 0.28278 0.0
C1327 C 0.40672 0.87167 0.17175 0.0
C1328 C 0.40259 0.86956 0.1046 0.0
C1329 C 0.38555 0.86127 0.21647 0.0
C1330 C 0.37646 0.85657 0.08436 0.0
C1331 C 0.35549 0.84564 0.12829 0.0
loop_
_geom_bond_atom_site_label_1
_geom_bond_atom_site_label_2
_geom_bond_distance
_geom_bond_site_symmetry_2
_ccdc_geom_bond_type
Co0 O3 1.970 . S
Co0 N17 1.989 . S
Co0 O25 1.967 . S
Co0 O32 1.920 . S
Co1 O4 1.966 . S
Co1 N10 2.022 . S
Co1 N18 1.993 . S
Co1 O26 1.941 . S
C2 O3 1.258 . S
C2 O4 1.263 . S
O3 Co0 1.970 . S
O3 C2 1.258 . S
O4 Co1 1.966 . S
O4 C2 1.263 . S
C5 O6 1.235 . S
C5 O32 1.289 . S
O6 C5 1.235 . S
C7 C9 1.400 . S
C7 N10 1.351 . S
C7 C12 1.501 . S
C8 C9 1.387 . S
C8 N11 1.341 . S
C9 C7 1.400 . S
C9 C8 1.387 . S
N10 Co1 2.022 . S
N10 C7 1.351 . S
N10 N11 1.365 . S
N11 C8 1.341 . S
N11 N10 1.365 . S
N11 H31 0.862 . S
C12 C7 1.501 . S
C12 H13 0.961 . S
C12 H14 0.961 . S
C12 H15 0.960 . S
H13 C12 0.961 . S
H14 C12 0.961 . S
H15 C12 0.960 . S
C16 N17 1.342 . S
C16 C20 1.401 . S
C16 C21 1.499 . S
N17 Co0 1.989 . S
N17 C16 1.342 . S
N17 N18 1.388 . S
N18 Co1 1.993 . S
N18 N17 1.388 . S
N18 C19 1.346 . S
C19 N18 1.346 . S
C19 C20 1.396 . S
C19 C29 1.510 . S
C20 C16 1.401 . S
C20 C19 1.396 . S
C21 C16 1.499 . S
C21 H22 0.959 . S
C21 H23 0.960 . S
C21 H24 0.961 . S
H22 C21 0.959 . S
H23 C21 0.960 . S
H24 C21 0.961 . S
O25 Co0 1.967 . S
O25 C33 1.258 . S
O26 Co1 1.941 . S
O26 C33 1.266 . S
H27 C29 0.959 . S
H28 C29 0.961 . S
C29 C19 1.510 . S
C29 H27 0.959 . S
C29 H28 0.961 . S
C29 H30 0.960 . S
H30 C29 0.960 . S
H31 N11 0.862 . S
O32 Co0 1.920 . S
O32 C5 1.289 . S
C33 O25 1.258 . S
C33 O26 1.266 . S
Co34 O37 1.970 . S
Co34 N51 1.989 . S
Co34 O59 1.967 . S
Co34 O66 1.920 . S
Co35 O38 1.966 . S
Co35 N44 2.022 . S
Co35 N52 1.993 . S
Co35 O60 1.941 . S
C36 O37 1.258 . S
C36 O38 1.263 . S
O37 Co34 1.970 . S
O37 C36 1.258 . S
O38 Co35 1.966 . S
O38 C36 1.263 . S
C39 O40 1.235 . S
C39 O66 1.289 . S
O40 C39 1.235 . S
C41 C43 1.400 . S
C41 N44 1.351 . S
C41 C46 1.501 . S
C42 C43 1.387 . S
C42 N45 1.341 . S
C43 C41 1.400 . S
C43 C42 1.387 . S
N44 Co35 2.022 . S
N44 C41 1.351 . S
N44 N45 1.365 . S
N45 C42 1.341 . S
N45 N44 1.365 . S
N45 H65 0.862 . S
C46 C41 1.501 . S
C46 H47 0.961 . S
C46 H48 0.961 . S
C46 H49 0.960 . S
H47 C46 0.961 . S
H48 C46 0.961 . S
H49 C46 0.960 . S
C50 N51 1.342 . S
C50 C54 1.401 . S
C50 C55 1.499 . S
N51 Co34 1.989 . S
N51 C50 1.342 . S
N51 N52 1.388 . S
N52 Co35 1.993 . S
N52 N51 1.388 . S
N52 C53 1.346 . S
C53 N52 1.346 . S
C53 C54 1.396 . S
C53 C63 1.510 . S
C54 C50 1.401 . S
C54 C53 1.396 . S
C55 C50 1.499 . S
C55 H56 0.959 . S
C55 H57 0.960 . S
C55 H58 0.961 . S
H56 C55 0.959 . S
H57 C55 0.960 . S
H58 C55 0.961 . S
O59 Co34 1.967 . S
O59 C67 1.258 . S
O60 Co35 1.941 . S
O60 C67 1.266 . S
H61 C63 0.959 . S
H62 C63 0.961 . S
C63 C53 1.510 . S
C63 H61 0.959 . S
C63 H62 0.961 . S
C63 H64 0.960 . S
H64 C63 0.960 . S
H65 N45 0.862 . S
O66 Co34 1.920 . S
O66 C39 1.289 . S
C67 O59 1.258 . S
C67 O60 1.266 . S
Co68 O71 1.970 . S
Co68 N85 1.989 . S
Co68 O93 1.967 . S
Co68 O100 1.920 . S
Co69 O72 1.966 . S
Co69 N78 2.022 . S
Co69 N86 1.993 . S
Co69 O94 1.941 . S
C70 O71 1.258 . S
C70 O72 1.263 . S
O71 Co68 1.970 . S
O71 C70 1.258 . S
O72 Co69 1.966 . S
O72 C70 1.263 . S
C73 O74 1.235 . S
C73 O100 1.289 . S
O74 C73 1.235 . S
C75 C77 1.400 . S
C75 N78 1.351 . S
C75 C80 1.501 . S
C76 C77 1.387 . S
C76 N79 1.341 . S
C77 C75 1.400 . S
C77 C76 1.387 . S
N78 Co69 2.022 . S
N78 C75 1.351 . S
N78 N79 1.365 . S
N79 C76 1.341 . S
N79 N78 1.365 . S
N79 H99 0.862 . S
C80 C75 1.501 . S
C80 H81 0.961 . S
C80 H82 0.961 . S
C80 H83 0.960 . S
H81 C80 0.961 . S
H82 C80 0.961 . S
H83 C80 0.960 . S
C84 N85 1.342 . S
C84 C88 1.401 . S
C84 C89 1.499 . S
N85 Co68 1.989 . S
N85 C84 1.342 . S
N85 N86 1.388 . S
N86 Co69 1.993 . S
N86 N85 1.388 . S
N86 C87 1.346 . S
C87 N86 1.346 . S
C87 C88 1.396 . S
C87 C97 1.510 . S
C88 C84 1.401 . S
C88 C87 1.396 . S
C89 C84 1.499 . S
C89 H90 0.959 . S
C89 H91 0.960 . S
C89 H92 0.961 . S
H90 C89 0.959 . S
H91 C89 0.960 . S
H92 C89 0.961 . S
O93 Co68 1.967 . S
O93 C101 1.258 . S
O94 Co69 1.941 . S
O94 C101 1.266 . S
H95 C97 0.959 . S
H96 C97 0.961 . S
C97 C87 1.510 . S
C97 H95 0.959 . S
C97 H96 0.961 . S
C97 H98 0.960 . S
H98 C97 0.960 . S
H99 N79 0.862 . S
O100 Co68 1.920 . S
O100 C73 1.289 . S
C101 O93 1.258 . S
C101 O94 1.266 . S
Co102 O105 1.970 . S
Co102 N119 1.989 . S
Co102 O127 1.967 . S
Co102 O134 1.920 . S
Co103 O106 1.966 . S
Co103 N112 2.022 . S
Co103 N120 1.993 . S
Co103 O128 1.941 . S
C104 O105 1.258 . S
C104 O106 1.263 . S
O105 Co102 1.970 . S
O105 C104 1.258 . S
O106 Co103 1.966 . S
O106 C104 1.263 . S
C107 O108 1.235 . S
C107 O134 1.289 . S
O108 C107 1.235 . S
C109 C111 1.400 . S
C109 N112 1.351 . S
C109 C114 1.501 . S
C110 C111 1.387 . S
C110 N113 1.341 . S
C111 C109 1.400 . S
C111 C110 1.387 . S
N112 Co103 2.022 . S
N112 C109 1.351 . S
N112 N113 1.365 . S
N113 C110 1.341 . S
N113 N112 1.365 . S
N113 H133 0.862 . S
C114 C109 1.501 . S
C114 H115 0.961 . S
C114 H116 0.961 . S
C114 H117 0.960 . S
H115 C114 0.961 . S
H116 C114 0.961 . S
H117 C114 0.960 . S
C118 N119 1.342 . S
C118 C122 1.401 . S
C118 C123 1.499 . S
N119 Co102 1.989 . S
N119 C118 1.342 . S
N119 N120 1.388 . S
N120 Co103 1.993 . S
N120 N119 1.388 . S
N120 C121 1.346 . S
C121 N120 1.346 . S
C121 C122 1.396 . S
C121 C131 1.510 . S
C122 C118 1.401 . S
C122 C121 1.396 . S
C123 C118 1.499 . S
C123 H124 0.959 . S
C123 H125 0.960 . S
C123 H126 0.961 . S
H124 C123 0.959 . S
H125 C123 0.960 . S
H126 C123 0.961 . S
O127 Co102 1.967 . S
O127 C135 1.258 . S
O128 Co103 1.941 . S
O128 C135 1.266 . S
H129 C131 0.959 . S
H130 C131 0.961 . S
C131 C121 1.510 . S
C131 H129 0.959 . S
C131 H130 0.961 . S
C131 H132 0.960 . S
H132 C131 0.960 . S
H133 N113 0.862 . S
O134 Co102 1.920 . S
O134 C107 1.289 . S
C135 O127 1.258 . S
C135 O128 1.266 . S
Co136 O139 1.970 . S
Co136 N153 1.989 . S
Co136 O161 1.967 . S
Co136 O168 1.920 . S
Co137 O140 1.966 . S
Co137 N146 2.022 . S
Co137 N154 1.993 . S
Co137 O162 1.941 . S
C138 O139 1.258 . S
C138 O140 1.263 . S
O139 Co136 1.970 . S
O139 C138 1.258 . S
O140 Co137 1.966 . S
O140 C138 1.263 . S
C141 O142 1.235 . S
C141 O168 1.289 . S
O142 C141 1.235 . S
C143 C145 1.400 . S
C143 N146 1.351 . S
C143 C148 1.501 . S
C144 C145 1.387 . S
C144 N147 1.341 . S
C145 C143 1.400 . S
C145 C144 1.387 . S
N146 Co137 2.022 . S
N146 C143 1.351 . S
N146 N147 1.365 . S
N147 C144 1.341 . S
N147 N146 1.365 . S
N147 H167 0.862 . S
C148 C143 1.501 . S
C148 H149 0.961 . S
C148 H150 0.961 . S
C148 H151 0.960 . S
H149 C148 0.961 . S
H150 C148 0.961 . S
H151 C148 0.960 . S
C152 N153 1.342 . S
C152 C156 1.401 . S
C152 C157 1.499 . S
N153 Co136 1.989 . S
N153 C152 1.342 . S
N153 N154 1.388 . S
N154 Co137 1.993 . S
N154 N153 1.388 . S
N154 C155 1.346 . S
C155 N154 1.346 . S
C155 C156 1.396 . S
C155 C165 1.510 . S
C156 C152 1.401 . S
C156 C155 1.396 . S
C157 C152 1.499 . S
C157 H158 0.959 . S
C157 H159 0.960 . S
C157 H160 0.961 . S
H158 C157 0.959 . S
H159 C157 0.960 . S
H160 C157 0.961 . S
O161 Co136 1.967 . S
O161 C169 1.258 . S
O162 Co137 1.941 . S
O162 C169 1.266 . S
H163 C165 0.959 . S
H164 C165 0.961 . S
C165 C155 1.510 . S
C165 H163 0.959 . S
C165 H164 0.961 . S
C165 H166 0.960 . S
H166 C165 0.960 . S
H167 N147 0.862 . S
O168 Co136 1.920 . S
O168 C141 1.289 . S
C169 O161 1.258 . S
C169 O162 1.266 . S
Co170 O173 1.970 . S
Co170 N187 1.989 . S
Co170 O195 1.967 . S
Co170 O202 1.920 . S
Co171 O174 1.966 . S
Co171 N180 2.022 . S
Co171 N188 1.993 . S
Co171 O196 1.941 . S
C172 O173 1.258 . S
C172 O174 1.263 . S
O173 Co170 1.970 . S
O173 C172 1.258 . S
O174 Co171 1.966 . S
O174 C172 1.263 . S
C175 O176 1.235 . S
C175 O202 1.289 . S
O176 C175 1.235 . S
C177 C179 1.400 . S
C177 N180 1.351 . S
C177 C182 1.501 . S
C178 C179 1.387 . S
C178 N181 1.341 . S
C179 C177 1.400 . S
C179 C178 1.387 . S
N180 Co171 2.022 . S
N180 C177 1.351 . S
N180 N181 1.365 . S
N181 C178 1.341 . S
N181 N180 1.365 . S
N181 H201 0.862 . S
C182 C177 1.501 . S
C182 H183 0.961 . S
C182 H184 0.961 . S
C182 H185 0.960 . S
H183 C182 0.961 . S
H184 C182 0.961 . S
H185 C182 0.960 . S
C186 N187 1.342 . S
C186 C190 1.401 . S
C186 C191 1.499 . S
N187 Co170 1.989 . S
N187 C186 1.342 . S
N187 N188 1.388 . S
N188 Co171 1.993 . S
N188 N187 1.388 . S
N188 C189 1.346 . S
C189 N188 1.346 . S
C189 C190 1.396 . S
C189 C199 1.510 . S
C190 C186 1.401 . S
C190 C189 1.396 . S
C191 C186 1.499 . S
C191 H192 0.959 . S
C191 H193 0.960 . S
C191 H194 0.961 . S
H192 C191 0.959 . S
H193 C191 0.960 . S
H194 C191 0.961 . S
O195 Co170 1.967 . S
O195 C203 1.258 . S
O196 Co171 1.941 . S
O196 C203 1.266 . S
H197 C199 0.959 . S
H198 C199 0.961 . S
C199 C189 1.510 . S
C199 H197 0.959 . S
C199 H198 0.961 . S
C199 H200 0.960 . S
H200 C199 0.960 . S
H201 N181 0.862 . S
O202 Co170 1.920 . S
O202 C175 1.289 . S
C203 O195 1.258 . S
C203 O196 1.266 . S
Co204 O207 1.970 . S
Co204 N221 1.989 . S
Co204 O229 1.967 . S
Co204 O236 1.920 . S
Co205 O208 1.966 . S
Co205 N214 2.022 . S
Co205 N222 1.993 . S
Co205 O230 1.941 . S
C206 O207 1.258 . S
C206 O208 1.263 . S
O207 Co204 1.970 . S
O207 C206 1.258 . S
O208 Co205 1.966 . S
O208 C206 1.263 . S
C209 O210 1.235 . S
C209 O236 1.289 . S
O210 C209 1.235 . S
C211 C213 1.400 . S
C211 N214 1.351 . S
C211 C216 1.501 . S
C212 C213 1.387 . S
C212 N215 1.341 . S
C213 C211 1.400 . S
C213 C212 1.387 . S
N214 Co205 2.022 . S
N214 C211 1.351 . S
N214 N215 1.365 . S
N215 C212 1.341 . S
N215 N214 1.365 . S
N215 H235 0.862 . S
C216 C211 1.501 . S
C216 H217 0.961 . S
C216 H218 0.961 . S
C216 H219 0.960 . S
H217 C216 0.961 . S
H218 C216 0.961 . S
H219 C216 0.960 . S
C220 N221 1.342 . S
C220 C224 1.401 . S
C220 C225 1.499 . S
N221 Co204 1.989 . S
N221 C220 1.342 . S
N221 N222 1.388 . S
N222 Co205 1.993 . S
N222 N221 1.388 . S
N222 C223 1.346 . S
C223 N222 1.346 . S
C223 C224 1.396 . S
C223 C233 1.510 . S
C224 C220 1.401 . S
C224 C223 1.396 . S
C225 C220 1.499 . S
C225 H226 0.959 . S
C225 H227 0.960 . S
C225 H228 0.961 . S
H226 C225 0.959 . S
H227 C225 0.960 . S
H228 C225 0.961 . S
O229 Co204 1.967 . S
O229 C237 1.258 . S
O230 Co205 1.941 . S
O230 C237 1.266 . S
H231 C233 0.959 . S
H232 C233 0.961 . S
C233 C223 1.510 . S
C233 H231 0.959 . S
C233 H232 0.961 . S
C233 H234 0.960 . S
H234 C233 0.960 . S
H235 N215 0.862 . S
O236 Co204 1.920 . S
O236 C209 1.289 . S
C237 O229 1.258 . S
C237 O230 1.266 . S
Co238 O241 1.970 . S
Co238 N255 1.989 . S
Co238 O263 1.967 . S
Co238 O270 1.920 . S
Co239 O242 1.966 . S
Co239 N248 2.022 . S
Co239 N256 1.993 . S
Co239 O264 1.941 . S
C240 O241 1.258 . S
C240 O242 1.263 . S
O241 Co238 1.970 . S
O241 C240 1.258 . S
O242 Co239 1.966 . S
O242 C240 1.263 . S
C243 O244 1.235 . S
C243 O270 1.289 . S
O244 C243 1.235 . S
C245 C247 1.400 . S
C245 N248 1.351 . S
C245 C250 1.501 . S
C246 C247 1.387 . S
C246 N249 1.341 . S
C247 C245 1.400 . S
C247 C246 1.387 . S
N248 Co239 2.022 . S
N248 C245 1.351 . S
N248 N249 1.365 . S
N249 C246 1.341 . S
N249 N248 1.365 . S
N249 H269 0.862 . S
C250 C245 1.501 . S
C250 H251 0.961 . S
C250 H252 0.961 . S
C250 H253 0.960 . S
H251 C250 0.961 . S
H252 C250 0.961 . S
H253 C250 0.960 . S
C254 N255 1.342 . S
C254 C258 1.401 . S
C254 C259 1.499 . S
N255 Co238 1.989 . S
N255 C254 1.342 . S
N255 N256 1.388 . S
N256 Co239 1.993 . S
N256 N255 1.388 . S
N256 C257 1.346 . S
C257 N256 1.346 . S
C257 C258 1.396 . S
C257 C267 1.510 . S
C258 C254 1.401 . S
C258 C257 1.396 . S
C259 C254 1.499 . S
C259 H260 0.959 . S
C259 H261 0.960 . S
C259 H262 0.961 . S
H260 C259 0.959 . S
H261 C259 0.960 . S
H262 C259 0.961 . S
O263 Co238 1.967 . S
O263 C271 1.258 . S
O264 Co239 1.941 . S
O264 C271 1.266 . S
H265 C267 0.959 . S
H266 C267 0.961 . S
C267 C257 1.510 . S
C267 H265 0.959 . S
C267 H266 0.961 . S
C267 H268 0.960 . S
H268 C267 0.960 . S
H269 N249 0.862 . S
O270 Co238 1.920 . S
O270 C243 1.289 . S
C271 O263 1.258 . S
C271 O264 1.266 . S
Co272 O275 1.970 . S
Co272 N289 1.989 . S
Co272 O297 1.967 . S
Co272 O304 1.920 . S
Co273 O276 1.966 . S
Co273 N282 2.022 . S
Co273 N290 1.993 . S
Co273 O298 1.941 . S
C274 O275 1.258 . S
C274 O276 1.263 . S
O275 Co272 1.970 . S
O275 C274 1.258 . S
O276 Co273 1.966 . S
O276 C274 1.263 . S
C277 O278 1.235 . S
C277 O304 1.289 . S
O278 C277 1.235 . S
C279 C281 1.400 . S
C279 N282 1.351 . S
C279 C284 1.501 . S
C280 C281 1.387 . S
C280 N283 1.341 . S
C281 C279 1.400 . S
C281 C280 1.387 . S
N282 Co273 2.022 . S
N282 C279 1.351 . S
N282 N283 1.365 . S
N283 C280 1.341 . S
N283 N282 1.365 . S
N283 H303 0.862 . S
C284 C279 1.501 . S
C284 H285 0.961 . S
C284 H286 0.961 . S
C284 H287 0.960 . S
H285 C284 0.961 . S
H286 C284 0.961 . S
H287 C284 0.960 . S
C288 N289 1.342 . S
C288 C292 1.401 . S
C288 C293 1.499 . S
N289 Co272 1.989 . S
N289 C288 1.342 . S
N289 N290 1.388 . S
N290 Co273 1.993 . S
N290 N289 1.388 . S
N290 C291 1.346 . S
C291 N290 1.346 . S
C291 C292 1.396 . S
C291 C301 1.510 . S
C292 C288 1.401 . S
C292 C291 1.396 . S
C293 C288 1.499 . S
C293 H294 0.959 . S
C293 H295 0.960 . S
C293 H296 0.961 . S
H294 C293 0.959 . S
H295 C293 0.960 . S
H296 C293 0.961 . S
O297 Co272 1.967 . S
O297 C305 1.258 . S
O298 Co273 1.941 . S
O298 C305 1.266 . S
H299 C301 0.959 . S
H300 C301 0.961 . S
C301 C291 1.510 . S
C301 H299 0.959 . S
C301 H300 0.961 . S
C301 H302 0.960 . S
H302 C301 0.960 . S
H303 N283 0.862 . S
O304 Co272 1.920 . S
O304 C277 1.289 . S
C305 O297 1.258 . S
C305 O298 1.266 . S
Co306 O309 1.970 1_554 S
Co306 N323 1.989 . S
Co306 O331 1.967 . S
Co306 O338 1.920 1_554 S
Co307 O310 1.966 . S
Co307 N316 2.022 . S
Co307 N324 1.993 . S
Co307 O332 1.941 . S
C308 O309 1.258 . S
C308 O310 1.263 1_556 S
O309 Co306 1.970 1_556 S
O309 C308 1.258 . S
O310 Co307 1.966 . S
O310 C308 1.263 1_554 S
C311 O312 1.235 . S
C311 O338 1.289 . S
O312 C311 1.235 . S
C313 C315 1.400 . S
C313 N316 1.351 . S
C313 C318 1.501 . S
C314 C315 1.387 . S
C314 N317 1.341 . S
C315 C313 1.400 . S
C315 C314 1.387 . S
N316 Co307 2.022 . S
N316 C313 1.351 . S
N316 N317 1.365 . S
N317 C314 1.341 . S
N317 N316 1.365 . S
N317 H337 0.862 . S
C318 C313 1.501 . S
C318 H319 0.961 . S
C318 H320 0.961 . S
C318 H321 0.960 . S
H319 C318 0.961 . S
H320 C318 0.961 . S
H321 C318 0.960 . S
C322 N323 1.342 . S
C322 C326 1.401 . S
C322 C327 1.499 . S
N323 Co306 1.989 . S
N323 C322 1.342 . S
N323 N324 1.388 . S
N324 Co307 1.993 . S
N324 N323 1.388 . S
N324 C325 1.346 . S
C325 N324 1.346 . S
C325 C326 1.396 . S
C325 C335 1.510 . S
C326 C322 1.401 . S
C326 C325 1.396 . S
C327 C322 1.499 . S
C327 H328 0.959 . S
C327 H329 0.960 . S
C327 H330 0.961 . S
H328 C327 0.959 . S
H329 C327 0.960 . S
H330 C327 0.961 . S
O331 Co306 1.967 . S
O331 C339 1.258 . S
O332 Co307 1.941 . S
O332 C339 1.266 . S
H333 C335 0.959 . S
H334 C335 0.961 . S
C335 C325 1.510 . S
C335 H333 0.959 . S
C335 H334 0.961 . S
C335 H336 0.960 . S
H336 C335 0.960 . S
H337 N317 0.862 . S
O338 Co306 1.920 1_556 S
O338 C311 1.289 . S
C339 O331 1.258 . S
C339 O332 1.266 . S
Co340 O343 1.970 1_554 S
Co340 N357 1.989 . S
Co340 O365 1.967 . S
Co340 O372 1.920 1_554 S
Co341 O344 1.966 . S
Co341 N350 2.022 . S
Co341 N358 1.993 . S
Co341 O366 1.941 . S
C342 O343 1.258 . S
C342 O344 1.263 1_556 S
O343 Co340 1.970 1_556 S
O343 C342 1.258 . S
O344 Co341 1.966 . S
O344 C342 1.263 1_554 S
C345 O346 1.235 . S
C345 O372 1.289 . S
O346 C345 1.235 . S
C347 C349 1.400 . S
C347 N350 1.351 . S
C347 C352 1.501 . S
C348 C349 1.387 . S
C348 N351 1.341 . S
C349 C347 1.400 . S
C349 C348 1.387 . S
N350 Co341 2.022 . S
N350 C347 1.351 . S
N350 N351 1.365 . S
N351 C348 1.341 . S
N351 N350 1.365 . S
N351 H371 0.862 . S
C352 C347 1.501 . S
C352 H353 0.961 . S
C352 H354 0.961 . S
C352 H355 0.960 . S
H353 C352 0.961 . S
H354 C352 0.961 . S
H355 C352 0.960 . S
C356 N357 1.342 . S
C356 C360 1.401 . S
C356 C361 1.499 . S
N357 Co340 1.989 . S
N357 C356 1.342 . S
N357 N358 1.388 . S
N358 Co341 1.993 . S
N358 N357 1.388 . S
N358 C359 1.346 . S
C359 N358 1.346 . S
C359 C360 1.396 . S
C359 C369 1.510 . S
C360 C356 1.401 . S
C360 C359 1.396 . S
C361 C356 1.499 . S
C361 H362 0.959 . S
C361 H363 0.960 . S
C361 H364 0.961 . S
H362 C361 0.959 . S
H363 C361 0.960 . S
H364 C361 0.961 . S
O365 Co340 1.967 . S
O365 C373 1.258 . S
O366 Co341 1.941 . S
O366 C373 1.266 . S
H367 C369 0.959 . S
H368 C369 0.961 . S
C369 C359 1.510 . S
C369 H367 0.959 . S
C369 H368 0.961 . S
C369 H370 0.960 . S
H370 C369 0.960 . S
H371 N351 0.862 . S
O372 Co340 1.920 1_556 S
O372 C345 1.289 . S
C373 O365 1.258 . S
C373 O366 1.266 . S
Co374 O377 1.970 1_554 S
Co374 N391 1.989 . S
Co374 O399 1.967 . S
Co374 O406 1.920 1_554 S
Co375 O378 1.966 . S
Co375 N384 2.022 . S
Co375 N392 1.993 . S
Co375 O400 1.941 . S
C376 O377 1.258 . S
C376 O378 1.263 1_556 S
O377 Co374 1.970 1_556 S
O377 C376 1.258 . S
O378 Co375 1.966 . S
O378 C376 1.263 1_554 S
C379 O380 1.235 . S
C379 O406 1.289 . S
O380 C379 1.235 . S
C381 C383 1.400 . S
C381 N384 1.351 . S
C381 C386 1.501 . S
C382 C383 1.387 . S
C382 N385 1.341 . S
C383 C381 1.400 . S
C383 C382 1.387 . S
N384 Co375 2.022 . S
N384 C381 1.351 . S
N384 N385 1.365 . S
N385 C382 1.341 . S
N385 N384 1.365 . S
N385 H405 0.862 . S
C386 C381 1.501 . S
C386 H387 0.961 . S
C386 H388 0.961 . S
C386 H389 0.960 . S
H387 C386 0.961 . S
H388 C386 0.961 . S
H389 C386 0.960 . S
C390 N391 1.342 . S
C390 C394 1.401 . S
C390 C395 1.499 . S
N391 Co374 1.989 . S
N391 C390 1.342 . S
N391 N392 1.388 . S
N392 Co375 1.993 . S
N392 N391 1.388 . S
N392 C393 1.346 . S
C393 N392 1.346 . S
C393 C394 1.396 . S
C393 C403 1.510 . S
C394 C390 1.401 . S
C394 C393 1.396 . S
C395 C390 1.499 . S
C395 H396 0.959 . S
C395 H397 0.960 . S
C395 H398 0.961 . S
H396 C395 0.959 . S
H397 C395 0.960 . S
H398 C395 0.961 . S
O399 Co374 1.967 . S
O399 C407 1.258 . S
O400 Co375 1.941 . S
O400 C407 1.266 . S
H401 C403 0.959 . S
H402 C403 0.961 . S
C403 C393 1.510 . S
C403 H401 0.959 . S
C403 H402 0.961 . S
C403 H404 0.960 . S
H404 C403 0.960 . S
H405 N385 0.862 . S
O406 Co374 1.920 1_556 S
O406 C379 1.289 . S
C407 O399 1.258 . S
C407 O400 1.266 . S
Co408 O411 1.970 1_556 S
Co408 N425 1.989 . S
Co408 O433 1.967 . S
Co408 O440 1.920 1_556 S
Co409 O412 1.966 . S
Co409 N418 2.022 . S
Co409 N426 1.993 . S
Co409 O434 1.941 . S
C410 O411 1.258 . S
C410 O412 1.263 1_554 S
O411 Co408 1.970 1_554 S
O411 C410 1.258 . S
O412 Co409 1.966 . S
O412 C410 1.263 1_556 S
C413 O414 1.235 . S
C413 O440 1.289 . S
O414 C413 1.235 . S
C415 C417 1.400 . S
C415 N418 1.351 . S
C415 C420 1.501 . S
C416 C417 1.387 . S
C416 N419 1.341 . S
C417 C415 1.400 . S
C417 C416 1.387 . S
N418 Co409 2.022 . S
N418 C415 1.351 . S
N418 N419 1.365 . S
N419 C416 1.341 . S
N419 N418 1.365 . S
N419 H439 0.862 . S
C420 C415 1.501 . S
C420 H421 0.961 . S
C420 H422 0.961 . S
C420 H423 0.960 . S
H421 C420 0.961 . S
H422 C420 0.961 . S
H423 C420 0.960 . S
C424 N425 1.342 . S
C424 C428 1.401 . S
C424 C429 1.499 . S
N425 Co408 1.989 . S
N425 C424 1.342 . S
N425 N426 1.388 . S
N426 Co409 1.993 . S
N426 N425 1.388 . S
N426 C427 1.346 . S
C427 N426 1.346 . S
C427 C428 1.396 . S
C427 C437 1.510 . S
C428 C424 1.401 . S
C428 C427 1.396 . S
C429 C424 1.499 . S
C429 H430 0.959 . S
C429 H431 0.960 . S
C429 H432 0.961 . S
H430 C429 0.959 . S
H431 C429 0.960 . S
H432 C429 0.961 . S
O433 Co408 1.967 . S
O433 C441 1.258 . S
O434 Co409 1.941 . S
O434 C441 1.266 . S
H435 C437 0.959 . S
H436 C437 0.961 . S
C437 C427 1.510 . S
C437 H435 0.959 . S
C437 H436 0.961 . S
C437 H438 0.960 . S
H438 C437 0.960 . S
H439 N419 0.862 . S
O440 Co408 1.920 1_554 S
O440 C413 1.289 . S
C441 O433 1.258 . S
C441 O434 1.266 . S
Co442 O445 1.970 1_556 S
Co442 N459 1.989 . S
Co442 O467 1.967 . S
Co442 O474 1.920 1_556 S
Co443 O446 1.966 . S
Co443 N452 2.022 . S
Co443 N460 1.993 . S
Co443 O468 1.941 . S
C444 O445 1.258 . S
C444 O446 1.263 1_554 S
O445 Co442 1.970 1_554 S
O445 C444 1.258 . S
O446 Co443 1.966 . S
O446 C444 1.263 1_556 S
C447 O448 1.235 . S
C447 O474 1.289 . S
O448 C447 1.235 . S
C449 C451 1.400 . S
C449 N452 1.351 . S
C449 C454 1.501 . S
C450 C451 1.387 . S
C450 N453 1.341 . S
C451 C449 1.400 . S
C451 C450 1.387 . S
N452 Co443 2.022 . S
N452 C449 1.351 . S
N452 N453 1.365 . S
N453 C450 1.341 . S
N453 N452 1.365 . S
N453 H473 0.862 . S
C454 C449 1.501 . S
C454 H455 0.961 . S
C454 H456 0.961 . S
C454 H457 0.960 . S
H455 C454 0.961 . S
H456 C454 0.961 . S
H457 C454 0.960 . S
C458 N459 1.342 . S
C458 C462 1.401 . S
C458 C463 1.499 . S
N459 Co442 1.989 . S
N459 C458 1.342 . S
N459 N460 1.388 . S
N460 Co443 1.993 . S
N460 N459 1.388 . S
N460 C461 1.346 . S
C461 N460 1.346 . S
C461 C462 1.396 . S
C461 C471 1.510 . S
C462 C458 1.401 . S
C462 C461 1.396 . S
C463 C458 1.499 . S
C463 H464 0.959 . S
C463 H465 0.960 . S
C463 H466 0.961 . S
H464 C463 0.959 . S
H465 C463 0.960 . S
H466 C463 0.961 . S
O467 Co442 1.967 . S
O467 C475 1.258 . S
O468 Co443 1.941 . S
O468 C475 1.266 . S
H469 C471 0.959 . S
H470 C471 0.961 . S
C471 C461 1.510 . S
C471 H469 0.959 . S
C471 H470 0.961 . S
C471 H472 0.960 . S
H472 C471 0.960 . S
H473 N453 0.862 . S
O474 Co442 1.920 1_554 S
O474 C447 1.289 . S
C475 O467 1.258 . S
C475 O468 1.266 . S
Co476 O479 1.970 1_556 S
Co476 N493 1.989 . S
Co476 O501 1.967 . S
Co476 O508 1.920 1_556 S
Co477 O480 1.966 . S
Co477 N486 2.022 . S
Co477 N494 1.993 . S
Co477 O502 1.941 . S
C478 O479 1.258 . S
C478 O480 1.263 1_554 S
O479 Co476 1.970 1_554 S
O479 C478 1.258 . S
O480 Co477 1.966 . S
O480 C478 1.263 1_556 S
C481 O482 1.235 . S
C481 O508 1.289 . S
O482 C481 1.235 . S
C483 C485 1.400 . S
C483 N486 1.351 . S
C483 C488 1.501 . S
C484 C485 1.387 . S
C484 N487 1.341 . S
C485 C483 1.400 . S
C485 C484 1.387 . S
N486 Co477 2.022 . S
N486 C483 1.351 . S
N486 N487 1.365 . S
N487 C484 1.341 . S
N487 N486 1.365 . S
N487 H507 0.862 . S
C488 C483 1.501 . S
C488 H489 0.961 . S
C488 H490 0.961 . S
C488 H491 0.960 . S
H489 C488 0.961 . S
H490 C488 0.961 . S
H491 C488 0.960 . S
C492 N493 1.342 . S
C492 C496 1.401 . S
C492 C497 1.499 . S
N493 Co476 1.989 . S
N493 C492 1.342 . S
N493 N494 1.388 . S
N494 Co477 1.993 . S
N494 N493 1.388 . S
N494 C495 1.346 . S
C495 N494 1.346 . S
C495 C496 1.396 . S
C495 C505 1.510 . S
C496 C492 1.401 . S
C496 C495 1.396 . S
C497 C492 1.499 . S
C497 H498 0.959 . S
C497 H499 0.960 . S
C497 H500 0.961 . S
H498 C497 0.959 . S
H499 C497 0.960 . S
H500 C497 0.961 . S
O501 Co476 1.967 . S
O501 C509 1.258 . S
O502 Co477 1.941 . S
O502 C509 1.266 . S
H503 C505 0.959 . S
H504 C505 0.961 . S
C505 C495 1.510 . S
C505 H503 0.959 . S
C505 H504 0.961 . S
C505 H506 0.960 . S
H506 C505 0.960 . S
H507 N487 0.862 . S
O508 Co476 1.920 1_554 S
O508 C481 1.289 . S
C509 O501 1.258 . S
C509 O502 1.266 . S
Co510 O513 1.970 . S
Co510 N527 1.989 . S
Co510 O535 1.967 . S
Co510 O542 1.920 . S
Co511 O514 1.966 . S
Co511 N520 2.022 . S
Co511 N528 1.993 . S
Co511 O536 1.941 . S
C512 O513 1.258 . S
C512 O514 1.263 . S
O513 Co510 1.970 . S
O513 C512 1.258 . S
O514 Co511 1.966 . S
O514 C512 1.263 . S
C515 O516 1.235 . S
C515 O542 1.289 . S
O516 C515 1.235 . S
C517 C519 1.400 . S
C517 N520 1.351 . S
C517 C522 1.501 . S
C518 C519 1.387 . S
C518 N521 1.341 . S
C519 C517 1.400 . S
C519 C518 1.387 . S
N520 Co511 2.022 . S
N520 C517 1.351 . S
N520 N521 1.365 . S
N521 C518 1.341 . S
N521 N520 1.365 . S
N521 H541 0.862 . S
C522 C517 1.501 . S
C522 H523 0.961 . S
C522 H524 0.961 . S
C522 H525 0.960 . S
H523 C522 0.961 . S
H524 C522 0.961 . S
H525 C522 0.960 . S
C526 N527 1.342 . S
C526 C530 1.401 . S
C526 C531 1.499 . S
N527 Co510 1.989 . S
N527 C526 1.342 . S
N527 N528 1.388 . S
N528 Co511 1.993 . S
N528 N527 1.388 . S
N528 C529 1.346 . S
C529 N528 1.346 . S
C529 C530 1.396 . S
C529 C539 1.510 . S
C530 C526 1.401 . S
C530 C529 1.396 . S
C531 C526 1.499 . S
C531 H532 0.959 . S
C531 H533 0.960 . S
C531 H534 0.961 . S
H532 C531 0.959 . S
H533 C531 0.960 . S
H534 C531 0.961 . S
O535 Co510 1.967 . S
O535 C543 1.258 . S
O536 Co511 1.941 . S
O536 C543 1.266 . S
H537 C539 0.959 . S
H538 C539 0.961 . S
C539 C529 1.510 . S
C539 H537 0.959 . S
C539 H538 0.961 . S
C539 H540 0.960 . S
H540 C539 0.960 . S
H541 N521 0.862 . S
O542 Co510 1.920 . S
O542 C515 1.289 . S
C543 O535 1.258 . S
C543 O536 1.266 . S
Co544 O547 1.970 . S
Co544 N561 1.989 . S
Co544 O569 1.967 . S
Co544 O576 1.920 . S
Co545 O548 1.966 . S
Co545 N554 2.022 . S
Co545 N562 1.993 . S
Co545 O570 1.941 . S
C546 O547 1.258 . S
C546 O548 1.263 . S
O547 Co544 1.970 . S
O547 C546 1.258 . S
O548 Co545 1.966 . S
O548 C546 1.263 . S
C549 O550 1.235 . S
C549 O576 1.289 . S
O550 C549 1.235 . S
C551 C553 1.400 . S
C551 N554 1.351 . S
C551 C556 1.501 . S
C552 C553 1.387 . S
C552 N555 1.341 . S
C553 C551 1.400 . S
C553 C552 1.387 . S
N554 Co545 2.022 . S
N554 C551 1.351 . S
N554 N555 1.365 . S
N555 C552 1.341 . S
N555 N554 1.365 . S
N555 H575 0.862 . S
C556 C551 1.501 . S
C556 H557 0.961 . S
C556 H558 0.961 . S
C556 H559 0.960 . S
H557 C556 0.961 . S
H558 C556 0.961 . S
H559 C556 0.960 . S
C560 N561 1.342 . S
C560 C564 1.401 . S
C560 C565 1.499 . S
N561 Co544 1.989 . S
N561 C560 1.342 . S
N561 N562 1.388 . S
N562 Co545 1.993 . S
N562 N561 1.388 . S
N562 C563 1.346 . S
C563 N562 1.346 . S
C563 C564 1.396 . S
C563 C573 1.510 . S
C564 C560 1.401 . S
C564 C563 1.396 . S
C565 C560 1.499 . S
C565 H566 0.959 . S
C565 H567 0.960 . S
C565 H568 0.961 . S
H566 C565 0.959 . S
H567 C565 0.960 . S
H568 C565 0.961 . S
O569 Co544 1.967 . S
O569 C577 1.258 . S
O570 Co545 1.941 . S
O570 C577 1.266 . S
H571 C573 0.959 . S
H572 C573 0.961 . S
C573 C563 1.510 . S
C573 H571 0.959 . S
C573 H572 0.961 . S
C573 H574 0.960 . S
H574 C573 0.960 . S
H575 N555 0.862 . S
O576 Co544 1.920 . S
O576 C549 1.289 . S
C577 O569 1.258 . S
C577 O570 1.266 . S
Co578 O581 1.970 . S
Co578 N595 1.989 . S
Co578 O603 1.967 . S
Co578 O610 1.920 . S
Co579 O582 1.966 . S
Co579 N588 2.022 . S
Co579 N596 1.993 . S
Co579 O604 1.941 . S
C580 O581 1.258 . S
C580 O582 1.263 . S
O581 Co578 1.970 . S
O581 C580 1.258 . S
O582 Co579 1.966 . S
O582 C580 1.263 . S
C583 O584 1.235 . S
C583 O610 1.289 . S
O584 C583 1.235 . S
C585 C587 1.400 . S
C585 N588 1.351 . S
C585 C590 1.501 . S
C586 C587 1.387 . S
C586 N589 1.341 . S
C587 C585 1.400 . S
C587 C586 1.387 . S
N588 Co579 2.022 . S
N588 C585 1.351 . S
N588 N589 1.365 . S
N589 C586 1.341 . S
N589 N588 1.365 . S
N589 H609 0.862 . S
C590 C585 1.501 . S
C590 H591 0.961 . S
C590 H592 0.961 . S
C590 H593 0.960 . S
H591 C590 0.961 . S
H592 C590 0.961 . S
H593 C590 0.960 . S
C594 N595 1.342 . S
C594 C598 1.401 . S
C594 C599 1.499 . S
N595 Co578 1.989 . S
N595 C594 1.342 . S
N595 N596 1.388 . S
N596 Co579 1.993 . S
N596 N595 1.388 . S
N596 C597 1.346 . S
C597 N596 1.346 . S
C597 C598 1.396 . S
C597 C607 1.510 . S
C598 C594 1.401 . S
C598 C597 1.396 . S
C599 C594 1.499 . S
C599 H600 0.959 . S
C599 H601 0.960 . S
C599 H602 0.961 . S
H600 C599 0.959 . S
H601 C599 0.960 . S
H602 C599 0.961 . S
O603 Co578 1.967 . S
O603 C611 1.258 . S
O604 Co579 1.941 . S
O604 C611 1.266 . S
H605 C607 0.959 . S
H606 C607 0.961 . S
C607 C597 1.510 . S
C607 H605 0.959 . S
C607 H606 0.961 . S
C607 H608 0.960 . S
H608 C607 0.960 . S
H609 N589 0.862 . S
O610 Co578 1.920 . S
O610 C583 1.289 . S
C611 O603 1.258 . S
C611 O604 1.266 . S
H612 C618 0.930 . S
H613 C621 0.930 . S
H614 C622 0.930 . S
H615 C623 0.930 . S
H616 C626 0.930 . S
H617 C627 0.930 . S
C618 H612 0.930 . S
C618 C619 1.355 . S
C618 C620 1.415 . S
C619 C618 1.355 . S
C619 C621 1.419 . S
C620 C618 1.415 . S
C620 C625 1.425 1_556 S
C620 C627 1.409 . S
C621 H613 0.930 . S
C621 C619 1.419 . S
C621 C622 1.362 1_556 S
C622 H614 0.930 . S
C622 C621 1.362 1_554 S
C622 C625 1.409 . S
C623 H615 0.930 . S
C623 C624 1.355 . S
C623 C625 1.415 . S
C624 C623 1.355 . S
C624 C626 1.419 . S
C625 C620 1.425 1_554 S
C625 C622 1.409 . S
C625 C623 1.415 . S
C626 H616 0.930 . S
C626 C624 1.419 . S
C626 C627 1.362 1_554 S
C627 H617 0.930 . S
C627 C620 1.409 . S
C627 C626 1.362 1_556 S
H628 C634 0.930 . S
H629 C637 0.930 . S
H630 C638 0.920 1_565 S
H631 C639 0.930 . S
H632 C642 0.930 . S
H633 C643 0.930 . S
C634 H628 0.930 . S
C634 C635 1.355 . S
C634 C636 1.415 . S
C635 C634 1.355 . S
C635 C637 1.419 . S
C636 C634 1.415 . S
C636 C641 1.425 1_546 S
C636 C643 1.409 1_546 S
C637 H629 0.930 . S
C637 C635 1.419 . S
C637 C638 1.362 . S
C638 H630 0.920 1_545 S
C638 C637 1.362 . S
C638 C641 1.409 1_546 S
C639 H631 0.930 . S
C639 C640 1.355 . S
C639 C641 1.415 . S
C640 C639 1.355 . S
C640 C642 1.419 . S
C641 C636 1.425 1_564 S
C641 C638 1.409 1_564 S
C641 C639 1.415 . S
C642 H632 0.930 . S
C642 C640 1.419 . S
C642 C643 1.362 . S
C643 H633 0.930 . S
C643 C636 1.409 1_564 S
C643 C642 1.362 . S
H644 C650 0.930 . S
H645 C653 0.930 . S
H646 C654 0.930 . S
H647 C655 0.930 . S
H648 C658 0.930 . S
H649 C659 0.930 . S
C650 H644 0.930 . S
C650 C651 1.355 . S
C650 C652 1.415 1_554 S
C651 C650 1.355 . S
C651 C653 1.419 . S
C652 C650 1.415 1_556 S
C652 C657 1.425 1_456 S
C652 C659 1.409 . S
C653 H645 0.930 . S
C653 C651 1.419 . S
C653 C654 1.362 1_455 S
C654 H646 0.930 . S
C654 C653 1.362 1_655 S
C654 C657 1.409 . S
C655 H647 0.930 . S
C655 C656 1.355 . S
C655 C657 1.415 1_556 S
C656 C655 1.355 . S
C656 C658 1.419 . S
C657 C652 1.425 1_654 S
C657 C654 1.409 . S
C657 C655 1.415 1_554 S
C658 H648 0.930 . S
C658 C656 1.419 . S
C658 C659 1.362 1_655 S
C659 H649 0.930 . S
C659 C652 1.409 . S
C659 C658 1.362 1_455 S
H660 C666 0.930 . S
H661 C669 0.930 . S
H662 C670 0.930 . S
H663 C671 0.930 . S
H664 C674 0.930 . S
H665 C675 0.930 . S
C666 H660 0.930 . S
C666 C667 1.355 . S
C666 C668 1.415 1_554 S
C667 C666 1.355 . S
C667 C669 1.419 . S
C668 C666 1.415 1_556 S
C668 C673 1.425 1_556 S
C668 C675 1.409 . S
C669 H661 0.930 . S
C669 C667 1.419 . S
C669 C670 1.362 . S
C670 H662 0.930 . S
C670 C669 1.362 . S
C670 C673 1.409 . S
C671 H663 0.930 . S
C671 C672 1.355 . S
C671 C673 1.415 1_556 S
C672 C671 1.355 . S
C672 C674 1.419 . S
C673 C668 1.425 1_554 S
C673 C670 1.409 . S
C673 C671 1.415 1_554 S
C674 H664 0.930 . S
C674 C672 1.419 . S
C674 C675 1.362 . S
C675 H665 0.930 . S
C675 C668 1.409 . S
C675 C674 1.362 . S
H676 C682 0.930 . S
H677 C685 0.930 . S
H678 C686 0.930 . S
H679 C687 0.930 . S
H680 C690 0.930 . S
H681 C691 0.930 . S
C682 H676 0.930 . S
C682 C683 1.355 . S
C682 C684 1.415 1_545 S
C683 C682 1.355 . S
C683 C685 1.419 . S
C684 C682 1.415 1_565 S
C684 C689 1.425 1_566 S
C684 C691 1.409 . S
C685 H677 0.930 . S
C685 C683 1.419 . S
C685 C686 1.362 1_556 S
C686 H678 0.930 . S
C686 C685 1.362 1_554 S
C686 C689 1.409 . S
C687 H679 0.930 . S
C687 C688 1.355 . S
C687 C689 1.415 1_565 S
C688 C687 1.355 . S
C688 C690 1.419 . S
C689 C684 1.425 1_544 S
C689 C686 1.409 . S
C689 C687 1.415 1_545 S
C690 H680 0.930 . S
C690 C688 1.419 . S
C690 C691 1.362 1_554 S
C691 H681 0.930 . S
C691 C684 1.409 . S
C691 C690 1.362 1_556 S
H692 C698 0.930 . S
H693 C701 0.929 1_554 S
H694 C702 0.930 . S
H695 C703 0.930 . S
H696 C706 0.929 1_556 S
H697 C707 0.930 . S
C698 H692 0.930 . S
C698 C699 1.355 . S
C698 C700 1.415 1_655 S
C699 C698 1.355 . S
C699 C701 1.419 . S
C700 C698 1.415 1_455 S
C700 C705 1.425 1_456 S
C700 C707 1.409 . S
C701 H693 0.929 1_556 S
C701 C699 1.419 . S
C701 C702 1.362 1_556 S
C702 H694 0.930 . S
C702 C701 1.362 1_554 S
C702 C705 1.409 . S
C703 H695 0.930 . S
C703 C704 1.355 . S
C703 C705 1.415 1_455 S
C704 C703 1.355 . S
C704 C706 1.419 . S
C705 C700 1.425 1_654 S
C705 C702 1.409 . S
C705 C703 1.415 1_655 S
C706 H696 0.929 1_554 S
C706 C704 1.419 . S
C706 C707 1.362 1_554 S
C707 H697 0.930 . S
C707 C700 1.409 . S
C707 C706 1.362 1_556 S
H708 C714 0.930 . S
H709 C717 0.930 . S
H710 C718 0.930 . S
H711 C719 0.930 . S
H712 C722 0.930 . S
H713 C723 0.930 . S
C714 H708 0.930 . S
C714 C715 1.355 . S
C714 C716 1.415 . S
C715 C714 1.355 . S
C715 C717 1.419 . S
C716 C714 1.415 . S
C716 C721 1.425 . S
C716 C723 1.409 . S
C717 H709 0.930 . S
C717 C715 1.419 . S
C717 C718 1.362 . S
C718 H710 0.930 . S
C718 C717 1.362 . S
C718 C721 1.409 . S
C719 H711 0.930 . S
C719 C720 1.355 . S
C719 C721 1.415 . S
C720 C719 1.355 . S
C720 C722 1.419 . S
C721 C716 1.425 . S
C721 C718 1.409 . S
C721 C719 1.415 . S
C722 H712 0.930 . S
C722 C720 1.419 . S
C722 C723 1.362 . S
C723 H713 0.930 . S
C723 C716 1.409 . S
C723 C722 1.362 . S
H724 C730 0.930 . S
H725 C733 0.930 . S
H726 C734 0.930 . S
H727 C735 0.930 . S
H728 C738 0.930 . S
H729 C739 0.930 . S
C730 H724 0.930 . S
C730 C731 1.355 . S
C730 C732 1.415 . S
C731 C730 1.355 . S
C731 C733 1.419 . S
C732 C730 1.415 . S
C732 C737 1.425 . S
C732 C739 1.409 . S
C733 H725 0.930 . S
C733 C731 1.419 . S
C733 C734 1.362 . S
C734 H726 0.930 . S
C734 C733 1.362 . S
C734 C737 1.409 . S
C735 H727 0.930 . S
C735 C736 1.355 . S
C735 C737 1.415 . S
C736 C735 1.355 . S
C736 C738 1.419 . S
C737 C732 1.425 . S
C737 C734 1.409 . S
C737 C735 1.415 . S
C738 H728 0.930 . S
C738 C736 1.419 . S
C738 C739 1.362 . S
C739 H729 0.930 . S
C739 C732 1.409 . S
C739 C738 1.362 . S
H740 C746 0.930 . S
H741 C749 0.930 . S
H742 C750 0.930 . S
H743 C751 0.930 . S
H744 C754 0.930 . S
H745 C755 0.930 . S
C746 H740 0.930 . S
C746 C747 1.355 . S
C746 C748 1.415 . S
C747 C746 1.355 . S
C747 C749 1.419 . S
C748 C746 1.415 . S
C748 C753 1.425 . S
C748 C755 1.409 . S
C749 H741 0.930 . S
C749 C747 1.419 . S
C749 C750 1.362 . S
C750 H742 0.930 . S
C750 C749 1.362 . S
C750 C753 1.409 . S
C751 H743 0.930 . S
C751 C752 1.355 . S
C751 C753 1.415 . S
C752 C751 1.355 . S
C752 C754 1.419 . S
C753 C748 1.425 . S
C753 C750 1.409 . S
C753 C751 1.415 . S
C754 H744 0.930 . S
C754 C752 1.419 . S
C754 C755 1.362 . S
C755 H745 0.930 . S
C755 C748 1.409 . S
C755 C754 1.362 . S
H756 C762 0.930 . S
H757 C765 0.930 . S
H758 C766 0.930 . S
H759 C767 0.930 . S
H760 C770 0.930 . S
H761 C771 0.930 . S
C762 H756 0.930 . S
C762 C763 1.355 . S
C762 C764 1.415 . S
C763 C762 1.355 . S
C763 C765 1.419 . S
C764 C762 1.415 . S
C764 C769 1.425 . S
C764 C771 1.409 . S
C765 H757 0.930 . S
C765 C763 1.419 . S
C765 C766 1.362 . S
C766 H758 0.930 . S
C766 C765 1.362 . S
C766 C769 1.409 . S
C767 H759 0.930 . S
C767 C768 1.355 . S
C767 C769 1.415 . S
C768 C767 1.355 . S
C768 C770 1.419 . S
C769 C764 1.425 . S
C769 C766 1.409 . S
C769 C767 1.415 . S
C770 H760 0.930 . S
C770 C768 1.419 . S
C770 C771 1.362 . S
C771 H761 0.930 . S
C771 C764 1.409 . S
C771 C770 1.362 . S
H772 C778 0.930 . S
H773 C781 0.930 . S
H774 C782 0.930 . S
H775 C783 0.930 . S
H776 C786 0.930 . S
H777 C787 0.930 . S
C778 H772 0.930 . S
C778 C779 1.355 . S
C778 C780 1.415 . S
C779 C778 1.355 . S
C779 C781 1.419 . S
C780 C778 1.415 . S
C780 C785 1.425 . S
C780 C787 1.409 . S
C781 H773 0.930 . S
C781 C779 1.419 . S
C781 C782 1.362 . S
C782 H774 0.930 . S
C782 C781 1.362 . S
C782 C785 1.409 . S
C783 H775 0.930 . S
C783 C784 1.355 . S
C783 C785 1.415 . S
C784 C783 1.355 . S
C784 C786 1.419 . S
C785 C780 1.425 . S
C785 C782 1.409 . S
C785 C783 1.415 . S
C786 H776 0.930 . S
C786 C784 1.419 . S
C786 C787 1.362 . S
C787 H777 0.930 . S
C787 C780 1.409 . S
C787 C786 1.362 . S
H788 C794 0.930 . S
H789 C797 0.930 . S
H790 C798 0.930 . S
H791 C799 0.930 . S
H792 C802 0.930 . S
H793 C803 0.930 . S
C794 H788 0.930 . S
C794 C795 1.355 . S
C794 C796 1.415 . S
C795 C794 1.355 . S
C795 C797 1.419 . S
C796 C794 1.415 . S
C796 C801 1.425 . S
C796 C803 1.409 . S
C797 H789 0.930 . S
C797 C795 1.419 . S
C797 C798 1.362 . S
C798 H790 0.930 . S
C798 C797 1.362 . S
C798 C801 1.409 . S
C799 H791 0.930 . S
C799 C800 1.355 . S
C799 C801 1.415 . S
C800 C799 1.355 . S
C800 C802 1.419 . S
C801 C796 1.425 . S
C801 C798 1.409 . S
C801 C799 1.415 . S
C802 H792 0.930 . S
C802 C800 1.419 . S
C802 C803 1.362 . S
C803 H793 0.930 . S
C803 C796 1.409 . S
C803 C802 1.362 . S
H804 C810 0.930 . S
H805 C813 0.930 . S
H806 C814 0.930 . S
H807 C815 0.930 . S
H808 C818 0.930 . S
H809 C819 0.930 . S
C810 H804 0.930 . S
C810 C811 1.355 . S
C810 C812 1.415 . S
C811 C810 1.355 . S
C811 C813 1.419 . S
C812 C810 1.415 . S
C812 C817 1.425 . S
C812 C819 1.409 . S
C813 H805 0.930 . S
C813 C811 1.419 . S
C813 C814 1.362 . S
C814 H806 0.930 . S
C814 C813 1.362 . S
C814 C817 1.409 . S
C815 H807 0.930 . S
C815 C816 1.355 . S
C815 C817 1.415 . S
C816 C815 1.355 . S
C816 C818 1.419 . S
C817 C812 1.425 . S
C817 C814 1.409 . S
C817 C815 1.415 . S
C818 H808 0.930 . S
C818 C816 1.419 . S
C818 C819 1.362 . S
C819 H809 0.930 . S
C819 C812 1.409 . S
C819 C818 1.362 . S
H820 C826 0.930 . S
H821 C829 0.930 . S
H822 C830 0.930 . S
H823 C831 0.930 . S
H824 C834 0.930 . S
H825 C835 0.930 . S
C826 H820 0.930 . S
C826 C827 1.355 . S
C826 C828 1.415 . S
C827 C826 1.355 . S
C827 C829 1.419 . S
C828 C826 1.415 . S
C828 C833 1.425 . S
C828 C835 1.409 . S
C829 H821 0.930 . S
C829 C827 1.419 . S
C829 C830 1.362 . S
C830 H822 0.930 . S
C830 C829 1.362 . S
C830 C833 1.409 . S
C831 H823 0.930 . S
C831 C832 1.355 . S
C831 C833 1.415 . S
C832 C831 1.355 . S
C832 C834 1.419 . S
C833 C828 1.425 . S
C833 C830 1.409 . S
C833 C831 1.415 . S
C834 H824 0.930 . S
C834 C832 1.419 . S
C834 C835 1.362 . S
C835 H825 0.930 . S
C835 C828 1.409 . S
C835 C834 1.362 . S
H836 C842 0.930 . S
H837 C845 0.930 . S
H838 C846 0.930 . S
H839 C847 0.930 . S
H840 C850 0.930 . S
H841 C851 0.930 . S
C842 H836 0.930 . S
C842 C843 1.355 . S
C842 C844 1.415 . S
C843 C842 1.355 . S
C843 C845 1.419 . S
C844 C842 1.415 . S
C844 C849 1.425 . S
C844 C851 1.409 . S
C845 H837 0.930 . S
C845 C843 1.419 . S
C845 C846 1.362 . S
C846 H838 0.930 . S
C846 C845 1.362 . S
C846 C849 1.409 . S
C847 H839 0.930 . S
C847 C848 1.355 . S
C847 C849 1.415 . S
C848 C847 1.355 . S
C848 C850 1.419 . S
C849 C844 1.425 . S
C849 C846 1.409 . S
C849 C847 1.415 . S
C850 H840 0.930 . S
C850 C848 1.419 . S
C850 C851 1.362 . S
C851 H841 0.930 . S
C851 C844 1.409 . S
C851 C850 1.362 . S
H852 C858 0.930 . S
H853 C861 0.930 . S
H854 C862 0.930 . S
H855 C863 0.930 . S
H856 C866 0.930 . S
H857 C867 0.930 . S
C858 H852 0.930 . S
C858 C859 1.355 . S
C858 C860 1.415 . S
C859 C858 1.355 . S
C859 C861 1.419 . S
C860 C858 1.415 . S
C860 C865 1.425 . S
C860 C867 1.409 . S
C861 H853 0.930 . S
C861 C859 1.419 . S
C861 C862 1.362 . S
C862 H854 0.930 . S
C862 C861 1.362 . S
C862 C865 1.409 . S
C863 H855 0.930 . S
C863 C864 1.355 . S
C863 C865 1.415 . S
C864 C863 1.355 . S
C864 C866 1.419 . S
C865 C860 1.425 . S
C865 C862 1.409 . S
C865 C863 1.415 . S
C866 H856 0.930 . S
C866 C864 1.419 . S
C866 C867 1.362 . S
C867 H857 0.930 . S
C867 C860 1.409 . S
C867 C866 1.362 . S
H868 C874 0.930 . S
H869 C877 0.930 . S
H870 C878 0.930 . S
H871 C879 0.930 . S
H872 C882 0.930 . S
H873 C883 0.930 . S
C874 H868 0.930 . S
C874 C875 1.355 . S
C874 C876 1.415 . S
C875 C874 1.355 . S
C875 C877 1.419 . S
C876 C874 1.415 . S
C876 C881 1.425 . S
C876 C883 1.409 . S
C877 H869 0.930 . S
C877 C875 1.419 . S
C877 C878 1.362 . S
C878 H870 0.930 . S
C878 C877 1.362 . S
C878 C881 1.409 . S
C879 H871 0.930 . S
C879 C880 1.355 . S
C879 C881 1.415 . S
C880 C879 1.355 . S
C880 C882 1.419 . S
C881 C876 1.425 . S
C881 C878 1.409 . S
C881 C879 1.415 . S
C882 H872 0.930 . S
C882 C880 1.419 . S
C882 C883 1.362 . S
C883 H873 0.930 . S
C883 C876 1.409 . S
C883 C882 1.362 . S
H884 C890 0.930 . S
H885 C893 0.930 . S
H886 C894 0.930 . S
H887 C895 0.930 . S
H888 C898 0.930 . S
H889 C899 0.930 . S
C890 H884 0.930 . S
C890 C891 1.355 . S
C890 C892 1.415 . S
C891 C890 1.355 . S
C891 C893 1.419 . S
C892 C890 1.415 . S
C892 C897 1.425 . S
C892 C899 1.409 . S
C893 H885 0.930 . S
C893 C891 1.419 . S
C893 C894 1.362 . S
C894 H886 0.930 . S
C894 C893 1.362 . S
C894 C897 1.409 . S
C895 H887 0.930 . S
C895 C896 1.355 . S
C895 C897 1.415 . S
C896 C895 1.355 . S
C896 C898 1.419 . S
C897 C892 1.425 . S
C897 C894 1.409 . S
C897 C895 1.415 . S
C898 H888 0.930 . S
C898 C896 1.419 . S
C898 C899 1.362 . S
C899 H889 0.930 . S
C899 C892 1.409 . S
C899 C898 1.362 . S
H900 C906 0.930 . S
H901 C909 0.930 . S
H902 C910 0.930 . S
H903 C911 0.930 . S
H904 C914 0.930 . S
H905 C915 0.930 . S
C906 H900 0.930 . S
C906 C907 1.355 . S
C906 C908 1.415 . S
C907 C906 1.355 . S
C907 C909 1.419 . S
C908 C906 1.415 . S
C908 C913 1.425 . S
C908 C915 1.409 . S
C909 H901 0.930 . S
C909 C907 1.419 . S
C909 C910 1.362 . S
C910 H902 0.930 . S
C910 C909 1.362 . S
C910 C913 1.409 . S
C911 H903 0.930 . S
C911 C912 1.355 . S
C911 C913 1.415 . S
C912 C911 1.355 . S
C912 C914 1.419 . S
C913 C908 1.425 . S
C913 C910 1.409 . S
C913 C911 1.415 . S
C914 H904 0.930 . S
C914 C912 1.419 . S
C914 C915 1.362 . S
C915 H905 0.930 . S
C915 C908 1.409 . S
C915 C914 1.362 . S
H916 C922 0.930 . S
H917 C925 0.930 . S
H918 C926 0.930 . S
H919 C927 0.930 . S
H920 C930 0.930 . S
H921 C931 0.930 . S
C922 H916 0.930 . S
C922 C923 1.355 . S
C922 C924 1.415 . S
C923 C922 1.355 . S
C923 C925 1.419 . S
C924 C922 1.415 . S
C924 C929 1.425 . S
C924 C931 1.409 . S
C925 H917 0.930 . S
C925 C923 1.419 . S
C925 C926 1.362 . S
C926 H918 0.930 . S
C926 C925 1.362 . S
C926 C929 1.409 . S
C927 H919 0.930 . S
C927 C928 1.355 . S
C927 C929 1.415 . S
C928 C927 1.355 . S
C928 C930 1.419 . S
C929 C924 1.425 . S
C929 C926 1.409 . S
C929 C927 1.415 . S
C930 H920 0.930 . S
C930 C928 1.419 . S
C930 C931 1.362 . S
C931 H921 0.930 . S
C931 C924 1.409 . S
C931 C930 1.362 . S
H932 C938 0.930 . S
H933 C941 0.930 . S
H934 C942 0.930 . S
H935 C943 0.930 . S
H936 C946 0.930 . S
H937 C947 0.930 . S
C938 H932 0.930 . S
C938 C939 1.355 . S
C938 C940 1.415 . S
C939 C938 1.355 . S
C939 C941 1.419 . S
C940 C938 1.415 . S
C940 C945 1.425 . S
C940 C947 1.409 . S
C941 H933 0.930 . S
C941 C939 1.419 . S
C941 C942 1.362 . S
C942 H934 0.930 . S
C942 C941 1.362 . S
C942 C945 1.409 . S
C943 H935 0.930 . S
C943 C944 1.355 . S
C943 C945 1.415 . S
C944 C943 1.355 . S
C944 C946 1.419 . S
C945 C940 1.425 . S
C945 C942 1.409 . S
C945 C943 1.415 . S
C946 H936 0.930 . S
C946 C944 1.419 . S
C946 C947 1.362 . S
C947 H937 0.930 . S
C947 C940 1.409 . S
C947 C946 1.362 . S
H948 C954 0.930 . S
H949 C957 0.930 . S
H950 C958 0.930 . S
H951 C959 0.930 . S
H952 C962 0.930 . S
H953 C963 0.930 . S
C954 H948 0.930 . S
C954 C955 1.355 . S
C954 C956 1.415 . S
C955 C954 1.355 . S
C955 C957 1.419 . S
C956 C954 1.415 . S
C956 C961 1.425 . S
C956 C963 1.409 . S
C957 H949 0.930 . S
C957 C955 1.419 . S
C957 C958 1.362 . S
C958 H950 0.930 . S
C958 C957 1.362 . S
C958 C961 1.409 . S
C959 H951 0.930 . S
C959 C960 1.355 . S
C959 C961 1.415 . S
C960 C959 1.355 . S
C960 C962 1.419 . S
C961 C956 1.425 . S
C961 C958 1.409 . S
C961 C959 1.415 . S
C962 H952 0.930 . S
C962 C960 1.419 . S
C962 C963 1.362 . S
C963 H953 0.930 . S
C963 C956 1.409 . S
C963 C962 1.362 . S
H964 C970 0.930 . S
H965 C973 0.930 . S
H966 C974 0.930 . S
H967 C975 0.930 . S
H968 C978 0.930 . S
H969 C979 0.930 . S
C970 H964 0.930 . S
C970 C971 1.355 . S
C970 C972 1.415 . S
C971 C970 1.355 . S
C971 C973 1.419 . S
C972 C970 1.415 . S
C972 C977 1.425 . S
C972 C979 1.409 . S
C973 H965 0.930 . S
C973 C971 1.419 . S
C973 C974 1.362 . S
C974 H966 0.930 . S
C974 C973 1.362 . S
C974 C977 1.409 . S
C975 H967 0.930 . S
C975 C976 1.355 . S
C975 C977 1.415 . S
C976 C975 1.355 . S
C976 C978 1.419 . S
C977 C972 1.425 . S
C977 C974 1.409 . S
C977 C975 1.415 . S
C978 H968 0.930 . S
C978 C976 1.419 . S
C978 C979 1.362 . S
C979 H969 0.930 . S
C979 C972 1.409 . S
C979 C978 1.362 . S
H980 C986 0.930 . S
H981 C989 0.930 . S
H982 C990 0.930 . S
H983 C991 0.930 . S
H984 C994 0.930 . S
H985 C995 0.930 . S
C986 H980 0.930 . S
C986 C987 1.355 . S
C986 C988 1.415 . S
C987 C986 1.355 . S
C987 C989 1.419 . S
C988 C986 1.415 . S
C988 C993 1.425 . S
C988 C995 1.409 . S
C989 H981 0.930 . S
C989 C987 1.419 . S
C989 C990 1.362 . S
C990 H982 0.930 . S
C990 C989 1.362 . S
C990 C993 1.409 . S
C991 H983 0.930 . S
C991 C992 1.355 . S
C991 C993 1.415 . S
C992 C991 1.355 . S
C992 C994 1.419 . S
C993 C988 1.425 . S
C993 C990 1.409 . S
C993 C991 1.415 . S
C994 H984 0.930 . S
C994 C992 1.419 . S
C994 C995 1.362 . S
C995 H985 0.930 . S
C995 C988 1.409 . S
C995 C994 1.362 . S
H996 C1002 0.930 . S
H997 C1005 0.930 . S
H998 C1006 0.930 . S
H999 C1007 0.930 . S
H1000 C1010 0.930 . S
H1001 C1011 0.930 . S
C1002 H996 0.930 . S
C1002 C1003 1.355 . S
C1002 C1004 1.415 . S
C1003 C1002 1.355 . S
C1003 C1005 1.419 . S
C1004 C1002 1.415 . S
C1004 C1009 1.425 1_456 S
C1004 C1011 1.409 1_455 S
C1005 H997 0.930 . S
C1005 C1003 1.419 . S
C1005 C1006 1.362 1_556 S
C1006 H998 0.930 . S
C1006 C1005 1.362 1_554 S
C1006 C1009 1.409 1_455 S
C1007 H999 0.930 . S
C1007 C1008 1.355 . S
C1007 C1009 1.415 . S
C1008 C1007 1.355 . S
C1008 C1010 1.419 . S
C1009 C1004 1.425 1_654 S
C1009 C1006 1.409 1_655 S
C1009 C1007 1.415 . S
C1010 H1000 0.930 . S
C1010 C1008 1.419 . S
C1010 C1011 1.362 1_554 S
C1011 H1001 0.930 . S
C1011 C1004 1.409 1_655 S
C1011 C1010 1.362 1_556 S
H1012 C1018 0.930 . S
H1013 C1021 0.930 . S
H1014 C1022 0.931 . S
H1015 C1023 0.930 . S
H1016 C1026 0.930 . S
H1017 C1027 0.931 . S
C1018 H1012 0.930 . S
C1018 C1019 1.355 . S
C1018 C1020 1.415 . S
C1019 C1018 1.355 . S
C1019 C1021 1.419 . S
C1020 C1018 1.415 . S
C1020 C1025 1.425 1_556 S
C1020 C1027 1.409 . S
C1021 H1013 0.930 . S
C1021 C1019 1.419 . S
C1021 C1022 1.362 1_556 S
C1022 H1014 0.931 . S
C1022 C1021 1.362 1_554 S
C1022 C1025 1.409 . S
C1023 H1015 0.930 . S
C1023 C1024 1.355 . S
C1023 C1025 1.415 . S
C1024 C1023 1.355 . S
C1024 C1026 1.419 . S
C1025 C1020 1.425 1_554 S
C1025 C1022 1.409 . S
C1025 C1023 1.415 . S
C1026 H1016 0.930 . S
C1026 C1024 1.419 . S
C1026 C1027 1.362 1_554 S
C1027 H1017 0.931 . S
C1027 C1020 1.409 . S
C1027 C1026 1.362 1_556 S
H1028 C1034 0.930 . S
H1029 C1037 0.930 . S
H1030 C1038 0.930 . S
H1031 C1039 0.930 . S
H1032 C1042 0.930 . S
H1033 C1043 0.930 . S
C1034 H1028 0.930 . S
C1034 C1035 1.355 . S
C1034 C1036 1.413 1_545 S
C1035 C1034 1.355 . S
C1035 C1037 1.419 1_554 S
C1036 C1034 1.413 1_565 S
C1036 C1041 1.426 1_554 S
C1036 C1043 1.410 . S
C1037 H1029 0.930 . S
C1037 C1035 1.419 1_556 S
C1037 C1038 1.362 . S
C1038 H1030 0.930 . S
C1038 C1037 1.362 . S
C1038 C1041 1.409 1_545 S
C1039 H1031 0.930 . S
C1039 C1040 1.355 . S
C1039 C1041 1.415 . S
C1040 C1039 1.355 . S
C1040 C1042 1.419 1_556 S
C1041 C1036 1.426 1_556 S
C1041 C1038 1.409 1_565 S
C1041 C1039 1.415 . S
C1042 H1032 0.930 . S
C1042 C1040 1.419 1_554 S
C1042 C1043 1.362 . S
C1043 H1033 0.930 . S
C1043 C1036 1.410 . S
C1043 C1042 1.362 . S
H1044 C1050 0.930 . S
H1045 C1053 0.930 . S
H1046 C1054 0.930 . S
H1047 C1055 0.930 . S
H1048 C1058 0.930 . S
H1049 C1059 0.930 . S
C1050 H1044 0.930 . S
C1050 C1051 1.355 . S
C1050 C1052 1.415 . S
C1051 C1050 1.355 . S
C1051 C1053 1.419 . S
C1052 C1050 1.415 . S
C1052 C1057 1.425 . S
C1052 C1059 1.409 . S
C1053 H1045 0.930 . S
C1053 C1051 1.419 . S
C1053 C1054 1.362 . S
C1054 H1046 0.930 . S
C1054 C1053 1.362 . S
C1054 C1057 1.409 . S
C1055 H1047 0.930 . S
C1055 C1056 1.355 . S
C1055 C1057 1.415 . S
C1056 C1055 1.355 . S
C1056 C1058 1.419 . S
C1057 C1052 1.425 . S
C1057 C1054 1.409 . S
C1057 C1055 1.415 . S
C1058 H1048 0.930 . S
C1058 C1056 1.419 . S
C1058 C1059 1.362 . S
C1059 H1049 0.930 . S
C1059 C1052 1.409 . S
C1059 C1058 1.362 . S
H1060 C1066 0.930 . S
H1061 C1069 0.930 . S
H1062 C1070 0.930 . S
H1063 C1071 0.930 . S
H1064 C1074 0.930 . S
H1065 C1075 0.930 . S
C1066 H1060 0.930 . S
C1066 C1067 1.355 . S
C1066 C1068 1.415 . S
C1067 C1066 1.355 . S
C1067 C1069 1.419 . S
C1068 C1066 1.415 . S
C1068 C1073 1.425 1_545 S
C1068 C1075 1.409 . S
C1069 H1061 0.930 . S
C1069 C1067 1.419 . S
C1069 C1070 1.362 1_545 S
C1070 H1062 0.930 . S
C1070 C1069 1.362 1_565 S
C1070 C1073 1.409 . S
C1071 H1063 0.930 . S
C1071 C1072 1.355 . S
C1071 C1073 1.415 . S
C1072 C1071 1.355 . S
C1072 C1074 1.419 . S
C1073 C1068 1.425 1_565 S
C1073 C1070 1.409 . S
C1073 C1071 1.415 . S
C1074 H1064 0.930 . S
C1074 C1072 1.419 . S
C1074 C1075 1.362 1_565 S
C1075 H1065 0.930 . S
C1075 C1068 1.409 . S
C1075 C1074 1.362 1_545 S
H1076 C1082 0.930 . S
H1077 C1085 0.930 . S
H1078 C1086 0.930 . S
H1079 C1087 0.930 . S
H1080 C1090 0.930 . S
H1081 C1091 0.934 . S
C1082 H1076 0.930 . S
C1082 C1083 1.355 . S
C1082 C1084 1.415 . S
C1083 C1082 1.355 . S
C1083 C1085 1.419 . S
C1084 C1082 1.415 . S
C1084 C1089 1.425 1_455 S
C1084 C1091 1.417 . S
C1085 H1077 0.930 . S
C1085 C1083 1.419 . S
C1085 C1086 1.362 1_455 S
C1086 H1078 0.930 . S
C1086 C1085 1.362 1_655 S
C1086 C1089 1.409 . S
C1087 H1079 0.930 . S
C1087 C1088 1.355 . S
C1087 C1089 1.415 . S
C1088 C1087 1.355 . S
C1088 C1090 1.419 . S
C1089 C1084 1.425 1_655 S
C1089 C1086 1.409 . S
C1089 C1087 1.415 . S
C1090 H1080 0.930 . S
C1090 C1088 1.419 . S
C1090 C1091 1.351 1_655 S
C1091 H1081 0.934 . S
C1091 C1084 1.417 . S
C1091 C1090 1.351 1_455 S
H1092 C1098 0.930 . S
H1093 C1101 0.930 . S
H1094 C1102 0.930 . S
H1095 C1103 0.930 . S
H1096 C1106 0.930 . S
H1097 C1107 0.930 . S
C1098 H1092 0.930 . S
C1098 C1099 1.355 . S
C1098 C1100 1.415 . S
C1099 C1098 1.355 . S
C1099 C1101 1.419 . S
C1100 C1098 1.415 . S
C1100 C1105 1.425 . S
C1100 C1107 1.409 . S
C1101 H1093 0.930 . S
C1101 C1099 1.419 . S
C1101 C1102 1.362 . S
C1102 H1094 0.930 . S
C1102 C1101 1.362 . S
C1102 C1105 1.409 . S
C1103 H1095 0.930 . S
C1103 C1104 1.355 . S
C1103 C1105 1.415 . S
C1104 C1103 1.355 . S
C1104 C1106 1.419 . S
C1105 C1100 1.425 . S
C1105 C1102 1.409 . S
C1105 C1103 1.415 . S
C1106 H1096 0.930 . S
C1106 C1104 1.419 . S
C1106 C1107 1.362 . S
C1107 H1097 0.930 . S
C1107 C1100 1.409 . S
C1107 C1106 1.362 . S
H1108 C1114 0.930 . S
H1109 C1117 0.930 . S
H1110 C1118 0.930 . S
H1111 C1119 0.930 . S
H1112 C1122 0.930 . S
H1113 C1123 0.930 . S
C1114 H1108 0.930 . S
C1114 C1115 1.355 . S
C1114 C1116 1.415 . S
C1115 C1114 1.355 . S
C1115 C1117 1.419 . S
C1116 C1114 1.415 . S
C1116 C1121 1.425 1_565 S
C1116 C1123 1.409 . S
C1117 H1109 0.930 . S
C1117 C1115 1.419 . S
C1117 C1118 1.362 1_565 S
C1118 H1110 0.930 . S
C1118 C1117 1.362 1_545 S
C1118 C1121 1.409 . S
C1119 H1111 0.930 . S
C1119 C1120 1.355 . S
C1119 C1121 1.415 . S
C1120 C1119 1.355 . S
C1120 C1122 1.419 . S
C1121 C1116 1.425 1_545 S
C1121 C1118 1.409 . S
C1121 C1119 1.415 . S
C1122 H1112 0.930 . S
C1122 C1120 1.419 . S
C1122 C1123 1.362 1_545 S
C1123 H1113 0.930 . S
C1123 C1116 1.409 . S
C1123 C1122 1.362 1_565 S
H1124 C1130 0.930 . S
H1125 C1133 0.930 . S
H1126 C1134 0.930 . S
H1127 C1135 0.930 . S
H1128 C1138 0.930 . S
H1129 C1139 0.930 . S
C1130 H1124 0.930 . S
C1130 C1131 1.355 . S
C1130 C1132 1.415 1_655 S
C1131 C1130 1.355 . S
C1131 C1133 1.419 . S
C1132 C1130 1.415 1_455 S
C1132 C1137 1.425 1_455 S
C1132 C1139 1.409 . S
C1133 H1125 0.930 . S
C1133 C1131 1.419 . S
C1133 C1134 1.362 . S
C1134 H1126 0.930 . S
C1134 C1133 1.362 . S
C1134 C1137 1.409 . S
C1135 H1127 0.930 . S
C1135 C1136 1.355 . S
C1135 C1137 1.415 1_455 S
C1136 C1135 1.355 . S
C1136 C1138 1.419 . S
C1137 C1132 1.425 1_655 S
C1137 C1134 1.409 . S
C1137 C1135 1.415 1_655 S
C1138 H1128 0.930 . S
C1138 C1136 1.419 . S
C1138 C1139 1.362 . S
C1139 H1129 0.930 . S
C1139 C1132 1.409 . S
C1139 C1138 1.362 . S
H1140 C1146 0.930 . S
H1141 C1149 0.930 . S
H1142 C1150 0.930 . S
H1143 C1151 0.930 . S
H1144 C1154 0.930 . S
H1145 C1155 0.930 . S
C1146 H1140 0.930 . S
C1146 C1147 1.355 . S
C1146 C1148 1.415 . S
C1147 C1146 1.355 . S
C1147 C1149 1.419 . S
C1148 C1146 1.415 . S
C1148 C1153 1.425 . S
C1148 C1155 1.409 . S
C1149 H1141 0.930 . S
C1149 C1147 1.419 . S
C1149 C1150 1.362 . S
C1150 H1142 0.930 . S
C1150 C1149 1.362 . S
C1150 C1153 1.409 . S
C1151 H1143 0.930 . S
C1151 C1152 1.355 . S
C1151 C1153 1.415 . S
C1152 C1151 1.355 . S
C1152 C1154 1.419 . S
C1153 C1148 1.425 . S
C1153 C1150 1.409 . S
C1153 C1151 1.415 . S
C1154 H1144 0.930 . S
C1154 C1152 1.419 . S
C1154 C1155 1.362 . S
C1155 H1145 0.930 . S
C1155 C1148 1.409 . S
C1155 C1154 1.362 . S
H1156 C1162 0.930 . S
H1157 C1165 0.930 . S
H1158 C1166 0.930 . S
H1159 C1167 0.930 . S
H1160 C1170 0.930 . S
H1161 C1171 0.930 . S
C1162 H1156 0.930 . S
C1162 C1163 1.355 . S
C1162 C1164 1.415 . S
C1163 C1162 1.355 . S
C1163 C1165 1.419 . S
C1164 C1162 1.415 . S
C1164 C1169 1.425 . S
C1164 C1171 1.409 . S
C1165 H1157 0.930 . S
C1165 C1163 1.419 . S
C1165 C1166 1.362 . S
C1166 H1158 0.930 . S
C1166 C1165 1.362 . S
C1166 C1169 1.409 . S
C1167 H1159 0.930 . S
C1167 C1168 1.355 . S
C1167 C1169 1.415 . S
C1168 C1167 1.355 . S
C1168 C1170 1.419 . S
C1169 C1164 1.425 . S
C1169 C1166 1.409 . S
C1169 C1167 1.415 . S
C1170 H1160 0.930 . S
C1170 C1168 1.419 . S
C1170 C1171 1.362 . S
C1171 H1161 0.930 . S
C1171 C1164 1.409 . S
C1171 C1170 1.362 . S
H1172 C1178 0.930 . S
H1173 C1181 0.930 . S
H1174 C1182 0.930 . S
H1175 C1183 0.930 . S
H1176 C1186 0.930 . S
H1177 C1187 0.930 . S
C1178 H1172 0.930 . S
C1178 C1179 1.355 . S
C1178 C1180 1.415 . S
C1179 C1178 1.355 . S
C1179 C1181 1.419 . S
C1180 C1178 1.415 . S
C1180 C1185 1.425 . S
C1180 C1187 1.409 . S
C1181 H1173 0.930 . S
C1181 C1179 1.419 . S
C1181 C1182 1.362 . S
C1182 H1174 0.930 . S
C1182 C1181 1.362 . S
C1182 C1185 1.409 . S
C1183 H1175 0.930 . S
C1183 C1184 1.355 . S
C1183 C1185 1.415 . S
C1184 C1183 1.355 . S
C1184 C1186 1.419 . S
C1185 C1180 1.425 . S
C1185 C1182 1.409 . S
C1185 C1183 1.415 . S
C1186 H1176 0.930 . S
C1186 C1184 1.419 . S
C1186 C1187 1.362 . S
C1187 H1177 0.930 . S
C1187 C1180 1.409 . S
C1187 C1186 1.362 . S
H1188 C1194 0.930 . S
H1189 C1197 0.930 . S
H1190 C1198 0.930 . S
H1191 C1199 0.930 . S
H1192 C1202 0.930 . S
H1193 C1203 0.930 . S
C1194 H1188 0.930 . S
C1194 C1195 1.355 . S
C1194 C1196 1.415 . S
C1195 C1194 1.355 . S
C1195 C1197 1.419 . S
C1196 C1194 1.415 . S
C1196 C1201 1.425 . S
C1196 C1203 1.409 . S
C1197 H1189 0.930 . S
C1197 C1195 1.419 . S
C1197 C1198 1.362 . S
C1198 H1190 0.930 . S
C1198 C1197 1.362 . S
C1198 C1201 1.409 . S
C1199 H1191 0.930 . S
C1199 C1200 1.355 . S
C1199 C1201 1.415 . S
C1200 C1199 1.355 . S
C1200 C1202 1.419 . S
C1201 C1196 1.425 . S
C1201 C1198 1.409 . S
C1201 C1199 1.415 . S
C1202 H1192 0.930 . S
C1202 C1200 1.419 . S
C1202 C1203 1.362 . S
C1203 H1193 0.930 . S
C1203 C1196 1.409 . S
C1203 C1202 1.362 . S
H1204 C1210 0.930 . S
H1205 C1213 0.930 . S
H1206 C1214 0.930 . S
H1207 C1215 0.930 . S
H1208 C1218 0.930 . S
H1209 C1219 0.930 . S
C1210 H1204 0.930 . S
C1210 C1211 1.355 . S
C1210 C1212 1.415 . S
C1211 C1210 1.355 . S
C1211 C1213 1.419 . S
C1212 C1210 1.415 . S
C1212 C1217 1.425 . S
C1212 C1219 1.409 . S
C1213 H1205 0.930 . S
C1213 C1211 1.419 . S
C1213 C1214 1.362 . S
C1214 H1206 0.930 . S
C1214 C1213 1.362 . S
C1214 C1217 1.409 . S
C1215 H1207 0.930 . S
C1215 C1216 1.355 . S
C1215 C1217 1.415 . S
C1216 C1215 1.355 . S
C1216 C1218 1.419 . S
C1217 C1212 1.425 . S
C1217 C1214 1.409 . S
C1217 C1215 1.415 . S
C1218 H1208 0.930 . S
C1218 C1216 1.419 . S
C1218 C1219 1.362 . S
C1219 H1209 0.930 . S
C1219 C1212 1.409 . S
C1219 C1218 1.362 . S
H1220 C1226 0.930 . S
H1221 C1229 0.930 . S
H1222 C1230 0.930 . S
H1223 C1231 0.930 . S
H1224 C1234 0.930 . S
H1225 C1235 0.930 . S
C1226 H1220 0.930 . S
C1226 C1227 1.355 . S
C1226 C1228 1.415 . S
C1227 C1226 1.355 . S
C1227 C1229 1.419 . S
C1228 C1226 1.415 . S
C1228 C1233 1.425 . S
C1228 C1235 1.409 . S
C1229 H1221 0.930 . S
C1229 C1227 1.419 . S
C1229 C1230 1.362 . S
C1230 H1222 0.930 . S
C1230 C1229 1.362 . S
C1230 C1233 1.409 . S
C1231 H1223 0.930 . S
C1231 C1232 1.355 . S
C1231 C1233 1.415 . S
C1232 C1231 1.355 . S
C1232 C1234 1.419 . S
C1233 C1228 1.425 . S
C1233 C1230 1.409 . S
C1233 C1231 1.415 . S
C1234 H1224 0.930 . S
C1234 C1232 1.419 . S
C1234 C1235 1.362 . S
C1235 H1225 0.930 . S
C1235 C1228 1.409 . S
C1235 C1234 1.362 . S
H1236 C1242 0.930 . S
H1237 C1245 0.930 . S
H1238 C1246 0.930 . S
H1239 C1247 0.930 . S
H1240 C1250 0.930 . S
H1241 C1251 0.930 . S
C1242 H1236 0.930 . S
C1242 C1243 1.355 . S
C1242 C1244 1.415 . S
C1243 C1242 1.355 . S
C1243 C1245 1.419 . S
C1244 C1242 1.415 . S
C1244 C1249 1.425 . S
C1244 C1251 1.409 . S
C1245 H1237 0.930 . S
C1245 C1243 1.419 . S
C1245 C1246 1.362 . S
C1246 H1238 0.930 . S
C1246 C1245 1.362 . S
C1246 C1249 1.409 . S
C1247 H1239 0.930 . S
C1247 C1248 1.355 . S
C1247 C1249 1.415 . S
C1248 C1247 1.355 . S
C1248 C1250 1.419 . S
C1249 C1244 1.425 . S
C1249 C1246 1.409 . S
C1249 C1247 1.415 . S
C1250 H1240 0.930 . S
C1250 C1248 1.419 . S
C1250 C1251 1.362 . S
C1251 H1241 0.930 . S
C1251 C1244 1.409 . S
C1251 C1250 1.362 . S
H1252 C1258 0.930 . S
H1253 C1261 0.930 . S
H1254 C1262 0.930 . S
H1255 C1263 0.930 . S
H1256 C1266 0.930 . S
H1257 C1267 0.930 . S
C1258 H1252 0.930 . S
C1258 C1259 1.355 . S
C1258 C1260 1.415 . S
C1259 C1258 1.355 . S
C1259 C1261 1.419 . S
C1260 C1258 1.415 . S
C1260 C1265 1.425 . S
C1260 C1267 1.409 . S
C1261 H1253 0.930 . S
C1261 C1259 1.419 . S
C1261 C1262 1.362 . S
C1262 H1254 0.930 . S
C1262 C1261 1.362 . S
C1262 C1265 1.409 . S
C1263 H1255 0.930 . S
C1263 C1264 1.355 . S
C1263 C1265 1.415 . S
C1264 C1263 1.355 . S
C1264 C1266 1.419 . S
C1265 C1260 1.425 . S
C1265 C1262 1.409 . S
C1265 C1263 1.415 . S
C1266 H1256 0.930 . S
C1266 C1264 1.419 . S
C1266 C1267 1.362 . S
C1267 H1257 0.930 . S
C1267 C1260 1.409 . S
C1267 C1266 1.362 . S
H1268 C1274 0.930 . S
H1269 C1277 0.930 . S
H1270 C1278 0.930 . S
H1271 C1279 0.930 . S
H1272 C1282 0.930 . S
H1273 C1283 0.930 . S
C1274 H1268 0.930 . S
C1274 C1275 1.355 . S
C1274 C1276 1.415 . S
C1275 C1274 1.355 . S
C1275 C1277 1.419 . S
C1276 C1274 1.415 . S
C1276 C1281 1.425 . S
C1276 C1283 1.409 . S
C1277 H1269 0.930 . S
C1277 C1275 1.419 . S
C1277 C1278 1.362 . S
C1278 H1270 0.930 . S
C1278 C1277 1.362 . S
C1278 C1281 1.409 . S
C1279 H1271 0.930 . S
C1279 C1280 1.355 . S
C1279 C1281 1.415 . S
C1280 C1279 1.355 . S
C1280 C1282 1.419 . S
C1281 C1276 1.425 . S
C1281 C1278 1.409 . S
C1281 C1279 1.415 . S
C1282 H1272 0.930 . S
C1282 C1280 1.419 . S
C1282 C1283 1.362 . S
C1283 H1273 0.930 . S
C1283 C1276 1.409 . S
C1283 C1282 1.362 . S
H1284 C1290 0.930 . S
H1285 C1293 0.930 . S
H1286 C1294 0.930 . S
H1287 C1295 0.930 . S
H1288 C1298 0.930 . S
H1289 C1299 0.930 . S
C1290 H1284 0.930 . S
C1290 C1291 1.355 . S
C1290 C1292 1.415 . S
C1291 C1290 1.355 . S
C1291 C1293 1.419 . S
C1292 C1290 1.415 . S
C1292 C1297 1.425 . S
C1292 C1299 1.409 . S
C1293 H1285 0.930 . S
C1293 C1291 1.419 . S
C1293 C1294 1.362 . S
C1294 H1286 0.930 . S
C1294 C1293 1.362 . S
C1294 C1297 1.409 . S
C1295 H1287 0.930 . S
C1295 C1296 1.355 . S
C1295 C1297 1.415 . S
C1296 C1295 1.355 . S
C1296 C1298 1.419 . S
C1297 C1292 1.425 . S
C1297 C1294 1.409 . S
C1297 C1295 1.415 . S
C1298 H1288 0.930 . S
C1298 C1296 1.419 . S
C1298 C1299 1.362 . S
C1299 H1289 0.930 . S
C1299 C1292 1.409 . S
C1299 C1298 1.362 . S
H1300 C1306 0.930 . S
H1301 C1309 0.930 . S
H1302 C1310 0.930 . S
H1303 C1311 0.930 . S
H1304 C1314 0.930 . S
H1305 C1315 0.930 . S
C1306 H1300 0.930 . S
C1306 C1307 1.355 . S
C1306 C1308 1.415 . S
C1307 C1306 1.355 . S
C1307 C1309 1.419 . S
C1308 C1306 1.415 . S
C1308 C1313 1.425 . S
C1308 C1315 1.409 . S
C1309 H1301 0.930 . S
C1309 C1307 1.419 . S
C1309 C1310 1.362 . S
C1310 H1302 0.930 . S
C1310 C1309 1.362 . S
C1310 C1313 1.409 . S
C1311 H1303 0.930 . S
C1311 C1312 1.355 . S
C1311 C1313 1.415 . S
C1312 C1311 1.355 . S
C1312 C1314 1.419 . S
C1313 C1308 1.425 . S
C1313 C1310 1.409 . S
C1313 C1311 1.415 . S
C1314 H1304 0.930 . S
C1314 C1312 1.419 . S
C1314 C1315 1.362 . S
C1315 H1305 0.930 . S
C1315 C1308 1.409 . S
C1315 C1314 1.362 . S
H1316 C1322 0.930 . S
H1317 C1325 0.930 . S
H1318 C1326 0.930 . S
H1319 C1327 0.930 . S
H1320 C1330 0.930 . S
H1321 C1331 0.930 . S
C1322 H1316 0.930 . S
C1322 C1323 1.355 . S
C1322 C1324 1.415 . S
C1323 C1322 1.355 . S
C1323 C1325 1.419 . S
C1324 C1322 1.415 . S
C1324 C1329 1.425 . S
C1324 C1331 1.409 . S
C1325 H1317 0.930 . S
C1325 C1323 1.419 . S
C1325 C1326 1.362 . S
C1326 H1318 0.930 . S
C1326 C1325 1.362 . S
C1326 C1329 1.409 . S
C1327 H1319 0.930 . S
C1327 C1328 1.355 . S
C1327 C1329 1.415 . S
C1328 C1327 1.355 . S
C1328 C1330 1.419 . S
C1329 C1324 1.425 . S
C1329 C1326 1.409 . S
C1329 C1327 1.415 . S
C1330 H1320 0.930 . S
C1330 C1328 1.419 . S
C1330 C1331 1.362 . S
C1331 H1321 0.930 . S
C1331 C1324 1.409 . S
C1331 C1330 1.362 . S
C619 C122 2.331 . S
C624 C20 2.328 . S
C635 C156 2.325 . S
C640 C54 2.334 . S
C651 C88 2.329 . S
C656 C190 2.329 . S
C667 C43 0.706 . S
C672 C179 0.665 . S
C683 C111 0.636 . S
C688 C77 0.634 . S
C699 C145 0.645 . S
C704 C9 0.627 . S
C715 C224 2.333 . S
C720 C326 2.326 . S
C731 C360 2.325 . S
C736 C258 2.333 . S
C747 C292 2.325 . S
C752 C394 2.334 . S
C763 C383 0.674 . S
C768 C247 0.706 . S
C779 C315 0.674 . S
C784 C281 0.627 . S
C795 C349 0.645 . S
C800 C213 0.697 . S
C811 C530 2.328 . S
C816 C428 2.331 . S
C827 C462 2.334 . S
C832 C564 2.325 . S
C843 C598 2.325 . S
C848 C496 2.334 . S
C859 C451 0.705 . S
C864 C587 0.682 . S
C875 C519 0.693 . S
C880 C485 0.699 . S
C891 C417 0.637 . S
C896 C553 0.691 . S
C907 C611 0.949 . S
C912 C33 0.946 . S
C923 C67 0.948 . S
C928 C543 0.941 . S
C939 C577 0.940 . S
C944 C101 0.942 . S
C955 C271 0.949 . S
C960 C135 0.948 . S
C971 C169 0.940 . S
C976 C305 0.946 . S
C987 C203 0.938 . S
C992 C237 0.943 . S
C1003 C475 0.947 . S
C1008 C339 0.940 . S
C1019 C509 0.949 . S
C1024 C373 0.942 . S
C1035 C407 0.943 . S
C1040 C441 0.938 . S
C1051 C5 1.119 . S
C1056 C107 1.191 . S
C1067 C141 1.177 . S
C1072 C39 1.122 . S
C1083 C73 1.193 . S
C1088 C175 1.119 . S
C1099 C172 2.901 . S
C1104 C36 2.896 . S
C1115 C70 2.899 . S
C1120 C104 2.901 . S
C1131 C138 2.899 . S
C1136 C2 2.896 . S
C1147 C209 1.140 . S
C1152 C311 1.210 . S
C1163 C345 1.179 . S
C1168 C243 1.190 . S
C1179 C379 1.166 . S
C1184 C277 1.200 . S
C1195 C376 2.895 . S
C1200 C240 2.902 . S
C1211 C308 2.902 . S
C1216 C274 2.897 . S
C1227 C342 2.902 . S
C1232 C206 2.895 . S
C1243 C515 1.188 . S
C1248 C413 1.182 . S
C1259 C549 1.137 . S
C1264 C447 1.153 . S
C1275 C583 1.209 . S
C1280 C481 1.130 . S
C1291 C580 2.898 . S
C1296 C444 2.897 . S
C1307 C512 2.902 . S
C1312 C478 2.895 . S
C1323 C546 2.897 . S
C1328 C410 2.902 . S
