# Generated by pormake.
# Topology umo, (4)-cn, num edge types: 1
# Building blocks:
#     Node 0, Type 0, BuildingBlock: QUQFOY_clean_sbu_1, # of connection points: 4
#     Node 1, Type 0, BuildingBlock: QUQFOY_clean_sbu_1, # of connection points: 4
#     Node 2, Type 0, BuildingBlock: QUQFOY_clean_sbu_1, # of connection points: 4
#     Node 3, Type 0, BuildingBlock: QUQFOY_clean_sbu_1, # of connection points: 4
#     Node 4, Type 0, BuildingBlock: QUQFOY_clean_sbu_1, # of connection points: 4
#     Node 5, Type 0, BuildingBlock: QUQFOY_clean_sbu_1, # of connection points: 4
#     Node 6, Type 0, BuildingBlock: QUQFOY_clean_sbu_1, # of connection points: 4
#     Node 7, Type 0, BuildingBlock: QUQFOY_clean_sbu_1, # of connection points: 4
#     Node 8, Type 0, BuildingBlock: QUQFOY_clean_sbu_1, # of connection points: 4
#     Node 9, Type 0, BuildingBlock: QUQFOY_clean_sbu_1, # of connection points: 4
#     Node 10, Type 0, BuildingBlock: QUQFOY_clean_sbu_1, # of connection points: 4
#     Node 11, Type 0, BuildingBlock: QUQFOY_clean_sbu_1, # of connection points: 4
#     Edge 12, Type (0, 0), BuildingBlock: EZIPEK_clean_linker_0, # of connection points: 2
#     Edge 13, Type (0, 0), BuildingBlock: EZIPEK_clean_linker_0, # of connection points: 2
#     Edge 14, Type (0, 0), BuildingBlock: EZIPEK_clean_linker_0, # of connection points: 2
#     Edge 15, Type (0, 0), BuildingBlock: EZIPEK_clean_linker_0, # of connection points: 2
#     Edge 16, Type (0, 0), BuildingBlock: EZIPEK_clean_linker_0, # of connection points: 2
#     Edge 17, Type (0, 0), BuildingBlock: EZIPEK_clean_linker_0, # of connection points: 2
#     Edge 18, Type (0, 0), BuildingBlock: EZIPEK_clean_linker_0, # of connection points: 2
#     Edge 19, Type (0, 0), BuildingBlock: EZIPEK_clean_linker_0, # of connection points: 2
#     Edge 20, Type (0, 0), BuildingBlock: EZIPEK_clean_linker_0, # of connection points: 2
#     Edge 21, Type (0, 0), BuildingBlock: EZIPEK_clean_linker_0, # of connection points: 2
#     Edge 22, Type (0, 0), BuildingBlock: EZIPEK_clean_linker_0, # of connection points: 2
#     Edge 23, Type (0, 0), BuildingBlock: EZIPEK_clean_linker_0, # of connection points: 2
#     Edge 24, Type (0, 0), BuildingBlock: EZIPEK_clean_linker_0, # of connection points: 2
#     Edge 25, Type (0, 0), BuildingBlock: EZIPEK_clean_linker_0, # of connection points: 2
#     Edge 26, Type (0, 0), BuildingBlock: EZIPEK_clean_linker_0, # of connection points: 2
#     Edge 27, Type (0, 0), BuildingBlock: EZIPEK_clean_linker_0, # of connection points: 2
#     Edge 28, Type (0, 0), BuildingBlock: EZIPEK_clean_linker_0, # of connection points: 2
#     Edge 29, Type (0, 0), BuildingBlock: EZIPEK_clean_linker_0, # of connection points: 2
#     Edge 30, Type (0, 0), BuildingBlock: EZIPEK_clean_linker_0, # of connection points: 2
#     Edge 31, Type (0, 0), BuildingBlock: EZIPEK_clean_linker_0, # of connection points: 2
#     Edge 32, Type (0, 0), BuildingBlock: EZIPEK_clean_linker_0, # of connection points: 2
#     Edge 33, Type (0, 0), BuildingBlock: EZIPEK_clean_linker_0, # of connection points: 2
#     Edge 34, Type (0, 0), BuildingBlock: EZIPEK_clean_linker_0, # of connection points: 2
#     Edge 35, Type (0, 0), BuildingBlock: EZIPEK_clean_linker_0, # of connection points: 2
# Relax obj value: 0.084
# Max RMSD: 0.122
# Mean RMSD: 0.122
data_MOF--net-umo--node1-QUQFOY_clean_sbu_1--edge1-EZIPEK_clean_linker_0
_symmetry_space_group_name_H-M    P1
_symmetry_Int_Tables_number       1
_symmetry_cell_setting            triclinic
loop_
_symmetry_equiv_pos_as_xyz
'x, y, z'
_cell_length_a     39.885539
_cell_length_b     39.898908
_cell_length_c     27.736986
_cell_angle_alpha  89.918571
_cell_angle_beta   90.0244
_cell_angle_gamma 120.1166
loop_
_atom_site_label
_atom_site_type_symbol
_atom_site_fract_x
_atom_site_fract_y
_atom_site_fract_z
_atom_type_partial_charge
O0 O 0.13997 0.59154 0.48858 0.0
Cd1 Cd 0.12381 0.58734 0.4181 0.0
Cd2 Cd 0.19139 0.58432 0.40877 0.0
O3 O 0.18676 0.57696 0.48342 0.0
O4 O 0.06782 0.57045 0.41875 0.0
O5 O 0.09129 0.53565 0.38642 0.0
C6 C 0.06177 0.53946 0.39675 0.0
C7 C 0.22315 0.56388 0.35375 0.0
C8 C 0.16559 0.58615 0.50827 0.0
C9 C 0.18747 0.65779 0.3844 0.0
O10 O 0.20546 0.63978 0.39351 0.0
O11 O 0.1508 0.64039 0.38538 0.0
O12 O 0.24125 0.58671 0.38915 0.0
O13 O 0.18606 0.54934 0.35189 0.0
O14 O 0.51934 0.13866 0.65989 0.0
Cd15 Cd 0.49693 0.12626 0.59199 0.0
Cd16 Cd 0.57017 0.19002 0.5732 0.0
O17 O 0.58139 0.17639 0.64165 0.0
O18 O 0.45503 0.07121 0.59264 0.0
O19 O 0.50882 0.09342 0.54913 0.0
C20 C 0.47617 0.06454 0.56342 0.0
C21 C 0.61853 0.22351 0.51369 0.0
C22 C 0.55457 0.15818 0.67268 0.0
C23 C 0.4954 0.19541 0.5732 0.0
O24 O 0.53196 0.21028 0.57544 0.0
O25 O 0.4731 0.15902 0.57209 0.0
O26 O 0.61868 0.23932 0.55413 0.0
O27 O 0.59261 0.18754 0.50788 0.0
O28 O 0.37282 0.52538 0.80858 0.0
Cd29 Cd 0.3722 0.51621 0.73629 0.0
Cd30 Cd 0.38725 0.58879 0.73634 0.0
O31 O 0.40666 0.58913 0.80707 0.0
O32 O 0.38775 0.47661 0.72726 0.0
O33 O 0.42245 0.53713 0.70057 0.0
C34 C 0.41873 0.50326 0.70656 0.0
C35 C 0.41005 0.64076 0.67938 0.0
C36 C 0.39072 0.55731 0.83091 0.0
C37 C 0.30507 0.51886 0.72103 0.0
O38 O 0.32809 0.55373 0.73322 0.0
O39 O 0.3178 0.49644 0.71013 0.0
O40 O 0.3915 0.63993 0.71786 0.0
O41 O 0.41913 0.61402 0.67557 0.0
O42 O 0.85331 0.40473 0.99299 0.0
Cd43 Cd 0.86979 0.40751 0.92269 0.0
Cd44 Cd 0.79706 0.39827 0.90908 0.0
O45 O 0.80013 0.40851 0.98289 0.0
O46 O 0.92676 0.42895 0.9245 0.0
O47 O 0.8993 0.45826 0.88749 0.0
C48 C 0.93039 0.45778 0.8994 0.0
C49 C 0.76206 0.41397 0.85334 0.0
C50 C 0.82438 0.40576 1.01023 0.0
C51 C 0.81215 0.33124 0.89091 0.0
O52 O 0.7891 0.34418 0.89657 0.0
O53 O 0.84848 0.35355 0.89376 0.0
O54 O 0.7453 0.3905 0.88872 0.0
O55 O 0.7994 0.43127 0.85134 0.0
O56 O 0.46921 0.85241 0.1509 0.0
Cd57 Cd 0.48267 0.86324 0.07944 0.0
Cd58 Cd 0.40794 0.81531 0.07456 0.0
O59 O 0.40892 0.83887 0.14238 0.0
O60 O 0.52757 0.91619 0.07324 0.0
O61 O 0.46891 0.89811 0.04385 0.0
C62 C 0.5044 0.92501 0.05141 0.0
C63 C 0.357 0.7861 1.01711 0.0
C64 C 0.43753 0.84586 0.16971 0.0
C65 C 0.4677 0.7894 0.06294 0.0
O66 O 0.43479 0.78301 0.0775 0.0
O67 O 0.49337 0.82301 0.04959 0.0
O68 O 0.35254 0.77387 0.06097 0.0
O69 O 0.38856 0.81797 1.00724 0.0
O70 O 0.60992 0.45352 0.32046 0.0
Cd71 Cd 0.61872 0.4772 0.25342 0.0
Cd72 Cd 0.62737 0.41179 0.23501 0.0
O73 O 0.61014 0.39888 0.30652 0.0
O74 O 0.59965 0.51437 0.25975 0.0
O75 O 0.57574 0.46621 0.20697 0.0
C76 C 0.57539 0.49562 0.22582 0.0
C77 C 0.61404 0.36276 0.17741 0.0
C78 C 0.60792 0.42253 0.33537 0.0
C79 C 0.69722 0.49575 0.23296 0.0
O80 O 0.68228 0.45914 0.2302 0.0
O81 O 0.67627 0.51097 0.23875 0.0
O82 O 0.63699 0.36915 0.2132 0.0
O83 O 0.59697 0.38293 0.17496 0.0
O84 O 0.42591 0.85373 0.4005 0.0
Cd85 Cd 0.39527 0.84714 0.46154 0.0
Cd86 Cd 0.39501 0.77638 0.46842 0.0
O87 O 0.41776 0.79461 0.3981 0.0
O88 O 0.39629 0.89749 0.46054 0.0
O89 O 0.42301 0.88123 0.5189 0.0
C90 C 0.41662 0.90683 0.49927 0.0
C91 C 0.41384 0.74476 0.52699 0.0
C92 C 0.42814 0.82734 0.3781 0.0
C93 C 0.31908 0.77288 0.45398 0.0
O94 O 0.33621 0.75512 0.46829 0.0
O95 O 0.33718 0.8095 0.44996 0.0
O96 O 0.3956 0.72772 0.48808 0.0
O97 O 0.42458 0.78105 0.53076 0.0
O98 O 0.59404 0.44759 0.56168 0.0
Cd99 Cd 0.5592 0.42319 0.62061 0.0
Cd100 Cd 0.61322 0.39943 0.64124 0.0
O101 O 0.62267 0.41266 0.5681 0.0
O102 O 0.51833 0.43697 0.60824 0.0
O103 O 0.55417 0.45487 0.67407 0.0
C104 C 0.52653 0.45425 0.64918 0.0
C105 C 0.66237 0.41293 0.6987 0.0
C106 C 0.61186 0.4321 0.54257 0.0
C107 C 0.53198 0.33751 0.62983 0.0
O108 O 0.56438 0.34605 0.64848 0.0
O109 O 0.52521 0.36377 0.61562 0.0
O110 O 0.65572 0.38976 0.66305 0.0
O111 O 0.64269 0.43057 0.70055 0.0
O112 O 0.15142 0.61495 0.73661 0.0
Cd113 Cd 0.14821 0.58534 0.79865 0.0
Cd114 Cd 0.2263 0.63884 0.80267 0.0
O115 O 0.21477 0.64237 0.72989 0.0
O116 O 0.09258 0.5444 0.79549 0.0
O117 O 0.11639 0.5856 0.85583 0.0
C118 C 0.08695 0.55678 0.83559 0.0
C119 C 0.25848 0.68851 0.86031 0.0
C120 C 0.18149 0.62877 0.71039 0.0
C121 C 0.2068 0.55761 0.79665 0.0
O122 O 0.23304 0.59132 0.80922 0.0
O123 O 0.17209 0.54994 0.79065 0.0
O124 O 0.27689 0.6846 0.82451 0.0
O125 O 0.22131 0.66577 0.86203 0.0
O126 O 0.5918 0.15198 0.89453 0.0
Cd127 Cd 0.61033 0.14698 0.96125 0.0
Cd128 Cd 0.61411 0.21912 0.9672 0.0
O129 O 0.58048 0.20036 0.90515 0.0
O130 O 0.59945 0.09271 0.95811 0.0
O131 O 0.57259 0.11257 1.01229 0.0
C132 C 0.57606 0.08482 0.99372 0.0
C133 C 0.60703 0.25748 0.02698 0.0
C134 C 0.57999 0.17404 0.87863 0.0
C135 C 0.68758 0.21305 0.95593 0.0
O136 O 0.67037 0.23254 0.9531 0.0
O137 O 0.66927 0.17734 0.96656 0.0
O138 O 0.62004 0.27089 0.98457 0.0
O139 O 0.5963 0.22162 0.0353 0.0
O140 O 0.4051 0.53911 0.05995 0.0
Cd141 Cd 0.434 0.56854 0.11978 0.0
Cd142 Cd 0.36733 0.573 0.13978 0.0
O143 O 0.36185 0.55812 0.0655 0.0
O144 O 0.48142 0.56432 0.11567 0.0
O145 O 0.44174 0.54314 0.17836 0.0
C146 C 0.47246 0.54753 0.15706 0.0
C147 C 0.31627 0.55703 0.19551 0.0
C148 C 0.37973 0.54497 0.04055 0.0
C149 C 0.44096 0.64622 0.12769 0.0
O150 O 0.40955 0.62966 0.15133 0.0
O151 O 0.45531 0.62677 0.11054 0.0
O152 O 0.32029 0.57692 0.15715 0.0
O153 O 0.33859 0.54243 0.20005 0.0
O154 O 0.835 0.3902 0.24295 0.0
Cd155 Cd 0.84141 0.4215 0.3043 0.0
Cd156 Cd 0.7609 0.37357 0.30723 0.0
O157 O 0.77243 0.3685 0.23491 0.0
O158 O 0.89794 0.45889 0.29896 0.0
O159 O 0.87281 0.41948 0.36093 0.0
C160 C 0.90298 0.44644 0.33939 0.0
C161 C 0.72098 0.3238 0.36156 0.0
C162 C 0.80526 0.37798 0.21639 0.0
C163 C 0.7893 0.45705 0.30333 0.0
O164 O 0.76074 0.42445 0.31522 0.0
O165 O 0.82265 0.46115 0.2967 0.0
O166 O 0.7067 0.33224 0.32486 0.0
O167 O 0.75828 0.34182 0.36592 0.0
C168 C 0.21117 0.72064 0.42474 0.0
C169 C 0.2114 0.70034 0.38299 0.0
C170 C 0.28113 0.73245 0.3837 0.0
C171 C 0.28176 0.75036 0.42842 0.0
N172 N 0.24876 0.76972 0.48503 0.0
N173 N 0.24472 0.70228 0.31094 0.0
C174 C 0.2472 0.74769 0.44652 0.0
C175 C 0.24609 0.71321 0.35774 0.0
N176 N 0.17654 0.71164 0.44515 0.0
N177 N 0.3127 0.73092 0.3676 0.0
H178 H 0.2182 0.68591 0.29327 0.0
H179 H 0.26937 0.71235 0.28942 0.0
H180 H 0.33935 0.744 0.38512 0.0
H181 H 0.31168 0.71443 0.33793 0.0
H182 H 0.17375 0.72148 0.47881 0.0
H183 H 0.15034 0.69376 0.42767 0.0
H184 H 0.22497 0.77113 0.49777 0.0
H185 H 0.27464 0.78844 0.50263 0.0
C186 C 0.49373 0.25195 0.54526 0.0
C187 C 0.48049 0.22212 0.57952 0.0
C188 C 0.48447 0.26698 0.64239 0.0
C189 C 0.50776 0.29795 0.61085 0.0
N190 N 0.53661 0.32011 0.53188 0.0
N191 N 0.45584 0.19803 0.65865 0.0
C192 C 0.51195 0.29065 0.5616 0.0
C193 C 0.47225 0.22845 0.62723 0.0
N194 N 0.49194 0.24293 0.49757 0.0
N195 N 0.47513 0.27466 0.68677 0.0
H196 H 0.44545 0.16957 0.64726 0.0
H197 H 0.45311 0.20088 0.69551 0.0
H198 H 0.48426 0.30288 0.6982 0.0
H199 H 0.45619 0.25333 0.71054 0.0
H200 H 0.49899 0.26313 0.46998 0.0
H201 H 0.47966 0.21416 0.48626 0.0
H202 H 0.54358 0.31579 0.49713 0.0
H203 H 0.55308 0.34863 0.54344 0.0
C204 C 0.22572 0.53524 0.72268 0.0
C205 C 0.2192 0.53223 0.77348 0.0
C206 C 0.25324 0.49596 0.78117 0.0
C207 C 0.264 0.50404 0.73199 0.0
N208 N 0.24876 0.51556 0.65301 0.0
N209 N 0.21669 0.50092 0.84849 0.0
C210 C 0.24517 0.51742 0.70168 0.0
C211 C 0.22923 0.50912 0.80187 0.0
N212 N 0.21681 0.55816 0.69537 0.0
N213 N 0.26911 0.47896 0.80846 0.0
H214 H 0.19928 0.51072 0.86384 0.0
H215 H 0.22112 0.48245 0.87069 0.0
H216 H 0.2858 0.46835 0.79294 0.0
H217 H 0.26643 0.4759 0.84574 0.0
H218 H 0.22443 0.56465 0.65925 0.0
H219 H 0.20415 0.57311 0.70989 0.0
H220 H 0.2337 0.52251 0.628 0.0
H221 H 0.26436 0.50339 0.63833 0.0
C222 C 0.76368 0.26648 0.86388 0.0
C223 C 0.79487 0.28901 0.89507 0.0
C224 C 0.75985 0.24775 0.9634 0.0
C225 C 0.72635 0.23008 0.93421 0.0
N226 N 0.69846 0.21161 0.85487 0.0
N227 N 0.82974 0.29044 0.96623 0.0
C228 C 0.72925 0.23532 0.88344 0.0
C229 C 0.7955 0.27527 0.94191 0.0
N230 N 0.76619 0.2778 0.81695 0.0
N231 N 0.75691 0.24022 1.01171 0.0
H232 H 0.85591 0.3103 0.95002 0.0
H233 H 0.83263 0.28062 0.99992 0.0
H234 H 0.73104 0.21932 0.02758 0.0
H235 H 0.77947 0.25547 0.03598 0.0
H236 H 0.74327 0.26561 0.7926 0.0
H237 H 0.79198 0.30056 0.80308 0.0
H238 H 0.69904 0.21276 0.81738 0.0
H239 H 0.67302 0.18863 0.869 0.0
C240 C 0.44384 0.72227 0.04449 0.0
C241 C 0.47425 0.75634 0.06415 0.0
C242 C 0.48968 0.71728 0.11813 0.0
C243 C 0.45325 0.68458 0.10657 0.0
N244 N 0.39191 0.65871 0.06363 0.0
N245 N 0.5283 0.78757 0.11874 0.0
C246 C 0.42926 0.68766 0.07092 0.0
C247 C 0.49855 0.7543 0.09999 0.0
N248 N 0.42745 0.72386 1.00199 0.0
N249 N 0.51501 0.71317 0.14722 0.0
H250 H 0.53638 0.81481 0.1046 0.0
H251 H 0.544 0.78817 0.14907 0.0
H252 H 0.50841 0.68671 0.16273 0.0
H253 H 0.54332 0.73537 0.15336 0.0
H254 H 0.40657 0.6992 0.98407 0.0
H255 H 0.43786 0.7498 0.98287 0.0
H256 H 0.3727 0.66209 0.04153 0.0
H257 H 0.3791 0.63202 0.08099 0.0
C258 C 0.76937 0.50715 0.31303 0.0
C259 C 0.78073 0.48604 0.28263 0.0
C260 C 0.76107 0.50883 0.21211 0.0
C261 C 0.73909 0.51802 0.24278 0.0
N262 N 0.73542 0.54377 0.31891 0.0
N263 N 0.78608 0.46559 0.202 0.0
C264 C 0.74874 0.5242 0.29221 0.0
C265 C 0.77783 0.48786 0.2315 0.0
N266 N 0.77649 0.5088 0.36137 0.0
N267 N 0.76094 0.51555 0.16399 0.0
H268 H 0.79416 0.44629 0.21514 0.0
H269 H 0.78112 0.46328 0.16496 0.0
H270 H 0.74597 0.52881 0.15048 0.0
H271 H 0.778 0.51123 0.13914 0.0
H272 H 0.76759 0.52217 0.38633 0.0
H273 H 0.79211 0.49683 0.37648 0.0
H274 H 0.7402 0.5491 0.35567 0.0
H275 H 0.72079 0.55638 0.30263 0.0
C276 C 0.15072 0.57874 0.64376 0.0
C277 C 0.17694 0.61795 0.6581 0.0
C278 C 0.20155 0.63284 0.57487 0.0
C279 C 0.17263 0.59507 0.5603 0.0
N280 N 0.11535 0.53444 0.57883 0.0
N281 N 0.22307 0.68357 0.63527 0.0
C282 C 0.14585 0.56888 0.59412 0.0
C283 C 0.2014 0.64531 0.62306 0.0
N284 N 0.13244 0.54991 0.67723 0.0
N285 N 0.22892 0.65693 0.54243 0.0
H286 H 0.22264 0.69382 0.66971 0.0
H287 H 0.23858 0.70563 0.61046 0.0
H288 H 0.22923 0.64922 0.50658 0.0
H289 H 0.25303 0.68329 0.55177 0.0
H290 H 0.11684 0.52062 0.66828 0.0
H291 H 0.13648 0.5539 0.71415 0.0
H292 H 0.09184 0.51663 0.60081 0.0
H293 H 0.11215 0.52489 0.54322 0.0
C294 C 0.54565 0.12951 0.75542 0.0
C295 C 0.56294 0.1627 0.72512 0.0
C296 C 0.5919 0.20389 0.79592 0.0
C297 C 0.5707 0.17135 0.82653 0.0
N298 N 0.52138 0.10421 0.83522 0.0
N299 N 0.59361 0.23252 0.71868 0.0
C300 C 0.54567 0.13442 0.80615 0.0
C301 C 0.58357 0.20023 0.74587 0.0
N302 N 0.53039 0.09333 0.73588 0.0
N303 N 0.62162 0.23774 0.81365 0.0
H304 H 0.58665 0.23163 0.68233 0.0
H305 H 0.60509 0.26 0.73374 0.0
H306 H 0.63014 0.2419 0.84967 0.0
H307 H 0.64056 0.26026 0.79121 0.0
H308 H 0.52062 0.06833 0.75659 0.0
H309 H 0.53129 0.0887 0.699 0.0
H310 H 0.50003 0.07752 0.82195 0.0
H311 H 0.51992 0.10716 0.87242 0.0
C312 C 0.37702 0.51632 0.95856 0.0
C313 C 0.38009 0.54718 0.98683 0.0
C314 C 0.3882 0.58448 0.91316 0.0
C315 C 0.39018 0.55585 0.88496 0.0
N316 N 0.39919 0.50005 0.88613 0.0
N317 N 0.40797 0.6166 0.98943 0.0
C318 C 0.3881 0.52315 0.90913 0.0
C319 C 0.39097 0.58303 0.96384 0.0
N320 N 0.36395 0.48067 0.97875 0.0
N321 N 0.38253 0.61241 0.89281 0.0
H322 H 0.41634 0.6174 0.02514 0.0
H323 H 0.41916 0.64367 0.97299 0.0
H324 H 0.37665 0.61309 0.85639 0.0
H325 H 0.37885 0.63208 0.91372 0.0
H326 H 0.35812 0.45633 0.95849 0.0
H327 H 0.35546 0.47483 1.0148 0.0
H328 H 0.40086 0.47772 0.90341 0.0
H329 H 0.41184 0.50661 0.85205 0.0
C330 C 0.78785 0.35391 0.13073 0.0
C331 C 0.81085 0.38442 0.16324 0.0
C332 C 0.84238 0.42892 0.0948 0.0
C333 C 0.81742 0.3994 0.06273 0.0
N334 N 0.76741 0.33341 0.04787 0.0
N335 N 0.85659 0.45303 0.17614 0.0
C336 C 0.79017 0.36178 0.08012 0.0
C337 C 0.83747 0.42238 0.14528 0.0
N338 N 0.76496 0.31722 0.1484 0.0
N339 N 0.87155 0.46322 0.07684 0.0
H340 H 0.85448 0.45104 0.21345 0.0
H341 H 0.87185 0.48179 0.16487 0.0
H342 H 0.8744 0.4704 0.0403 0.0
H343 H 0.89455 0.48358 0.09754 0.0
H344 H 0.7486 0.29279 0.12738 0.0
H345 H 0.76385 0.31049 0.18492 0.0
H346 H 0.74565 0.30572 0.05725 0.0
H347 H 0.76922 0.33777 1.01067 0.0
C348 C 0.46737 0.86634 0.25277 0.0
C349 C 0.43413 0.84304 0.22348 0.0
C350 C 0.39689 0.81539 0.29702 0.0
C351 C 0.43131 0.83149 0.32485 0.0
N352 N 0.50067 0.87157 0.32823 0.0
N353 N 0.3691 0.78675 0.22074 0.0
C354 C 0.46711 0.85662 0.30234 0.0
C355 C 0.39932 0.81505 0.24628 0.0
N356 N 0.49819 0.89902 0.23426 0.0
N357 N 0.36186 0.80292 0.31848 0.0
H358 H 0.3703 0.7821 0.18405 0.0
H359 H 0.34455 0.76466 0.2377 0.0
H360 H 0.35914 0.80628 0.35527 0.0
H361 H 0.33649 0.79392 0.29868 0.0
H362 H 0.52168 0.91848 0.2551 0.0
H363 H 0.49803 0.9093 0.19974 0.0
H364 H 0.528 0.8873 0.31248 0.0
H365 H 0.50105 0.86538 0.36474 0.0
C366 C 0.6419 0.42765 0.41294 0.0
C367 C 0.6068 0.41704 0.3881 0.0
C368 C 0.57428 0.41224 0.46465 0.0
C369 C 0.61062 0.42777 0.48918 0.0
N370 N 0.6797 0.4538 0.48608 0.0
N371 N 0.54051 0.4024 0.38875 0.0
C372 C 0.64458 0.43599 0.46323 0.0
C373 C 0.57328 0.41015 0.41359 0.0
N374 N 0.67287 0.43042 0.38822 0.0
N375 N 0.54029 0.39759 0.48988 0.0
H376 H 0.53766 0.39762 0.35161 0.0
H377 H 0.51703 0.40288 0.40445 0.0
H378 H 0.53849 0.39726 0.52727 0.0
H379 H 0.51308 0.38176 0.47395 0.0
H380 H 0.69802 0.43433 0.40475 0.0
H381 H 0.67234 0.42566 0.35121 0.0
H382 H 0.7061 0.46429 0.46838 0.0
H383 H 0.68283 0.46124 0.5225 0.0
C384 C 0.97244 0.46707 0.32628 0.0
C385 C 0.94287 0.46263 0.35853 0.0
C386 C 0.99219 0.4976 0.4201 0.0
C387 C 0.02157 0.50924 0.3845 0.0
N388 N 0.03874 0.50823 0.30098 0.0
N389 N 0.92502 0.47717 0.43581 0.0
C390 C 0.01164 0.49443 0.33693 0.0
C391 C 0.95269 0.47832 0.4057 0.0
N392 N 0.96304 0.44486 0.28562 0.0
N393 N 0.002 0.50438 0.46775 0.0
H394 H 0.89581 0.46409 0.42672 0.0
H395 H 0.93165 0.49216 0.46837 0.0
H396 H 0.03062 0.51713 0.4797 0.0
H397 H 0.98161 0.49345 0.49546 0.0
H398 H 0.98374 0.44452 0.26302 0.0
H399 H 0.93462 0.42358 0.27759 0.0
H400 H 0.0317 0.50124 0.26479 0.0
H401 H 0.06756 0.52949 0.30624 0.0
C402 C 0.43112 0.95496 0.56639 0.0
C403 C 0.43472 0.94712 0.51742 0.0
C404 C 0.46382 0.01608 0.49804 0.0
C405 C 0.46332 0.0244 0.54761 0.0
N406 N 0.45623 0.00253 0.63032 0.0
N407 N 0.46553 0.97183 0.44019 0.0
C408 C 0.44984 0.99407 0.58229 0.0
C409 C 0.45444 0.97818 0.48428 0.0
N410 N 0.40854 0.92544 0.59729 0.0
N411 N 0.47127 0.04358 0.46373 0.0
H412 H 0.46117 0.94486 0.42955 0.0
H413 H 0.48307 0.99421 0.4166 0.0
H414 H 0.47651 0.0713 0.47183 0.0
H415 H 0.46809 0.03749 0.42693 0.0
H416 H 0.40179 0.9301 0.63202 0.0
H417 H 0.39353 0.89644 0.58689 0.0
H418 H 0.45019 0.98157 0.65662 0.0
H419 H 0.47153 0.03081 0.64343 0.0
C420 C 0.46297 0.478 0.72791 0.0
C421 C 0.45018 0.49538 0.69327 0.0
C422 C 0.49649 0.49552 0.63524 0.0
C423 C 0.50362 0.47171 0.6668 0.0
N424 N 0.48801 0.43484 0.74103 0.0
N425 N 0.45158 0.51652 0.61123 0.0
C426 C 0.48564 0.46169 0.71279 0.0
C427 C 0.4663 0.5034 0.64622 0.0
N428 N 0.45446 0.47805 0.77559 0.0
N429 N 0.51913 0.51133 0.5953 0.0
H430 H 0.42875 0.52165 0.61724 0.0
H431 H 0.45961 0.51885 0.5751 0.0
H432 H 0.54238 0.50728 0.58707 0.0
H433 H 0.51753 0.53175 0.57345 0.0
H434 H 0.46618 0.46901 0.8028 0.0
H435 H 0.43945 0.49135 0.78835 0.0
H436 H 0.4718 0.42365 0.77245 0.0
H437 H 0.50295 0.42076 0.731 0.0
C438 C 0.01617 0.53059 0.82383 0.0
C439 C 0.04713 0.53852 0.8557 0.0
C440 C -0.00012 0.50405 0.91967 0.0
C441 C 0.96959 0.4891 0.88497 0.0
N442 N 0.95037 0.48463 0.80126 0.0
N443 N 0.06815 0.52899 0.93381 0.0
C444 C 0.97791 0.50176 0.83634 0.0
C445 C 0.03905 0.52471 0.90388 0.0
N446 N 0.02329 0.55093 0.78176 0.0
N447 N 0.99123 0.49913 0.96774 0.0
H448 H 0.0972 0.54303 0.92371 0.0
H449 H 0.06299 0.51554 0.9674 0.0
H450 H 0.96282 0.48554 0.98062 0.0
H451 H 0.01213 0.51237 0.99456 0.0
H452 H 0.00129 0.5486 0.75925 0.0
H453 H 0.05086 0.57333 0.77232 0.0
H454 H 0.95658 0.49026 0.76465 0.0
H455 H 0.92236 0.46201 0.80782 0.0
C456 C 0.53025 0.01498 0.97681 0.0
C457 C 0.5529 0.04435 1.01075 0.0
C458 C 0.535 0.99503 0.07335 0.0
C459 C 0.51822 0.96572 0.03759 0.0
N460 N 0.50345 0.94785 0.95384 0.0
N461 N 0.58048 0.06241 0.09053 0.0
C462 C 0.5164 0.9756 0.98893 0.0
C463 C 0.556 0.03451 0.05902 0.0
N464 N 0.52127 0.02473 0.93337 0.0
N465 N 0.52994 0.98518 0.1211 0.0
H466 H 0.59669 0.09167 0.08149 0.0
H467 H 0.58718 0.05611 0.12444 0.0
H468 H 0.51367 0.95658 0.13298 0.0
H469 H 0.5383 0.00545 0.14878 0.0
H470 H 0.5018 0.00437 0.90908 0.0
H471 H 0.5301 0.05329 0.92379 0.0
H472 H 0.50562 0.95424 0.91715 0.0
H473 H 0.49362 0.91871 0.96095 0.0
C474 C 0.48263 0.49445 0.18988 0.0
C475 C 0.49756 0.53422 0.17895 0.0
C476 C 0.56352 0.54733 0.19371 0.0
C477 C 0.54843 0.50836 0.20876 0.0
N478 N 0.49309 0.44688 0.23101 0.0
N479 N 0.5509 0.60003 0.18143 0.0
C480 C 0.50779 0.48242 0.20967 0.0
C481 C 0.53765 0.56113 0.18419 0.0
N482 N 0.44497 0.46785 0.17933 0.0
N483 N 0.60245 0.57071 0.18627 0.0
H484 H 0.5326 0.6113 0.17582 0.0
H485 H 0.57928 0.62104 0.18975 0.0
H486 H 0.6224 0.56135 0.19107 0.0
H487 H 0.6145 0.59808 0.17056 0.0
H488 H 0.43388 0.43804 0.18152 0.0
H489 H 0.42559 0.47528 0.16441 0.0
H490 H 0.46359 0.4285 0.23721 0.0
H491 H 0.51048 0.4372 0.24669 0.0
C492 C 0.24038 0.5242 0.29746 0.0
C493 C 0.24549 0.56055 0.31244 0.0
C494 C 0.29921 0.5936 0.25492 0.0
C495 C 0.29187 0.55732 0.23643 0.0
N496 N 0.25223 0.48777 0.23605 0.0
N497 N 0.27332 0.62896 0.29624 0.0
C498 C 0.26156 0.52244 0.25668 0.0
C499 C 0.27305 0.59496 0.28851 0.0
N500 N 0.21626 0.49159 0.32308 0.0
N501 N 0.33232 0.62693 0.2423 0.0
H502 H 0.25389 0.63127 0.3192 0.0
H503 H 0.28997 0.65389 0.27585 0.0
H504 H 0.35333 0.62745 0.21949 0.0
H505 H 0.34105 0.65355 0.25872 0.0
H506 H 0.21423 0.46485 0.31732 0.0
H507 H 0.20033 0.49195 0.35269 0.0
H508 H 0.228 0.4616 0.24578 0.0
H509 H 0.26714 0.48558 0.20645 0.0
C510 C 0.66916 0.30678 0.42409 0.0
C511 C 0.69493 0.2974 0.40024 0.0
C512 C 0.67211 0.23993 0.45256 0.0
C513 C 0.64415 0.2477 0.47334 0.0
N514 N 0.61031 0.2837 0.47071 0.0
N515 N 0.71713 0.25207 0.38675 0.0
C516 C 0.64106 0.27977 0.45674 0.0
C517 C 0.69541 0.26314 0.41316 0.0
N518 N 0.67263 0.34237 0.41735 0.0
N519 N 0.67736 0.21129 0.47157 0.0
H520 H 0.73437 0.26826 0.3578 0.0
H521 H 0.71567 0.22543 0.39091 0.0
H522 H 0.66073 0.19373 0.50007 0.0
H523 H 0.7 0.20683 0.46168 0.0
H524 H 0.65755 0.3524 0.43779 0.0
H525 H 0.69343 0.36357 0.39487 0.0
H526 H 0.60429 0.30408 0.45575 0.0
H527 H 0.58844 0.26412 0.49356 0.0
C528 C 0.42338 0.70718 0.6522 0.0
C529 C 0.41791 0.67014 0.63996 0.0
C530 C 0.424 0.6898 0.5546 0.0
C531 C 0.41978 0.72212 0.56668 0.0
N532 N 0.40714 0.75588 0.63083 0.0
N533 N 0.40465 0.62389 0.57533 0.0
C534 C 0.41752 0.72959 0.61657 0.0
C535 C 0.41625 0.6608 0.59 0.0
N536 N 0.43488 0.72157 0.69761 0.0
N537 N 0.43607 0.68684 0.50957 0.0
H538 H 0.39493 0.6004 0.59861 0.0
H539 H 0.39999 0.61574 0.53915 0.0
H540 H 0.44464 0.70867 0.48375 0.0
H541 H 0.44234 0.66524 0.50037 0.0
H542 H 0.44203 0.74968 0.70703 0.0
H543 H 0.44214 0.70742 0.72369 0.0
H544 H 0.40196 0.75929 0.66684 0.0
H545 H 0.39896 0.77073 0.60719 0.0
C546 C 0.71032 0.38025 0.79124 0.0
C547 C 0.7383 0.41558 0.81268 0.0
C548 C 0.71934 0.45082 0.75593 0.0
C549 C 0.68824 0.41495 0.73903 0.0
N550 N 0.64822 0.34598 0.75203 0.0
N551 N 0.76645 0.48476 0.81953 0.0
C552 C 0.68209 0.37983 0.75989 0.0
C553 C 0.74211 0.45107 0.7961 0.0
N554 N 0.71164 0.34707 0.79878 0.0
N555 N 0.72801 0.48441 0.73269 0.0
H556 H 0.78334 0.48586 0.84887 0.0
H557 H 0.76757 0.51093 0.81238 0.0
H558 H 0.71229 0.4852 0.70309 0.0
H559 H 0.75264 0.51093 0.74015 0.0
H560 H 0.69464 0.32183 0.77918 0.0
H561 H 0.73281 0.34601 0.81974 0.0
H562 H 0.64085 0.32083 0.7714 0.0
H563 H 0.62562 0.34418 0.73116 0.0
C564 C 0.3184 0.72126 0.97527 0.0
C565 C 0.32946 0.7612 0.97813 0.0
C566 C 0.29376 0.75392 0.90235 0.0
C567 C 0.28039 0.71354 0.90219 0.0
N568 N 0.27343 0.65744 0.94412 0.0
N569 N 0.32169 0.81375 0.94856 0.0
C570 C 0.29042 0.69685 0.94066 0.0
C571 C 0.3155 0.77708 0.94271 0.0
N572 N 0.33677 0.70694 1.0029 0.0
N573 N 0.28612 0.77021 0.86364 0.0
H574 H 0.33641 0.83097 0.97817 0.0
H575 H 0.30924 0.82575 0.92664 0.0
H576 H 0.26912 0.75383 0.83466 0.0
H577 H 0.29855 0.8 0.85883 0.0
H578 H 0.33273 0.67928 0.99823 0.0
H579 H 0.3594 0.72373 0.02642 0.0
H580 H 0.27601 0.64348 0.97448 0.0
H581 H 0.2539 0.63843 0.91869 0.0
C582 C 0.57536 0.30172 0.12778 0.0
C583 C 0.61101 0.33599 0.1379 0.0
C584 C 0.64402 0.31643 0.07908 0.0
C585 C 0.60795 0.2838 0.06594 0.0
N586 N 0.53834 0.24816 0.07276 0.0
N587 N 0.67765 0.37992 0.11615 0.0
C588 C 0.57331 0.27713 0.08901 0.0
C589 C 0.64487 0.34443 0.11154 0.0
N590 N 0.54382 0.29198 0.15626 0.0
N591 N 0.67783 0.3199 0.06223 0.0
H592 H 0.67942 0.40155 0.1389 0.0
H593 H 0.70184 0.3894 0.09401 0.0
H594 H 0.67878 0.29974 0.03923 0.0
H595 H 0.70499 0.34068 0.07487 0.0
H596 H 0.51821 0.26541 0.15431 0.0
H597 H 0.54424 0.30941 0.18453 0.0
H598 H 0.51183 0.24433 0.08441 0.0
H599 H 0.5358 0.22968 0.04465 0.0
loop_
_geom_bond_atom_site_label_1
_geom_bond_atom_site_label_2
_geom_bond_distance
_geom_bond_site_symmetry_2
_ccdc_geom_bond_type
O0 Cd1 2.223 . S
O0 C8 1.315 . S
Cd1 O0 2.223 . S
Cd1 O4 2.297 . S
Cd1 O5 2.439 . S
Cd1 O11 2.240 . S
Cd2 O3 2.240 . S
Cd2 O10 2.223 . S
Cd2 O12 2.297 . S
Cd2 O13 2.439 . S
O3 Cd2 2.240 . S
O3 C8 1.279 . S
O4 Cd1 2.297 . S
O4 C6 1.247 . S
O5 Cd1 2.439 . S
O5 C6 1.208 . S
C6 O4 1.247 . S
C6 O5 1.208 . S
C7 O12 1.247 . S
C7 O13 1.208 . S
C8 O0 1.315 . S
C8 O3 1.279 . S
C9 O10 1.315 . S
C9 O11 1.279 . S
O10 Cd2 2.223 . S
O10 C9 1.315 . S
O11 Cd1 2.240 . S
O11 C9 1.279 . S
O12 Cd2 2.297 . S
O12 C7 1.247 . S
O13 Cd2 2.439 . S
O13 C7 1.208 . S
O14 Cd15 2.223 . S
O14 C22 1.315 . S
Cd15 O14 2.223 . S
Cd15 O18 2.297 . S
Cd15 O19 2.439 . S
Cd15 O25 2.240 . S
Cd16 O17 2.240 . S
Cd16 O24 2.223 . S
Cd16 O26 2.297 . S
Cd16 O27 2.439 . S
O17 Cd16 2.240 . S
O17 C22 1.279 . S
O18 Cd15 2.297 . S
O18 C20 1.247 . S
O19 Cd15 2.439 . S
O19 C20 1.208 . S
C20 O18 1.247 . S
C20 O19 1.208 . S
C21 O26 1.247 . S
C21 O27 1.208 . S
C22 O14 1.315 . S
C22 O17 1.279 . S
C23 O24 1.315 . S
C23 O25 1.279 . S
O24 Cd16 2.223 . S
O24 C23 1.315 . S
O25 Cd15 2.240 . S
O25 C23 1.279 . S
O26 Cd16 2.297 . S
O26 C21 1.247 . S
O27 Cd16 2.439 . S
O27 C21 1.208 . S
O28 Cd29 2.223 . S
O28 C36 1.315 . S
Cd29 O28 2.223 . S
Cd29 O32 2.297 . S
Cd29 O33 2.439 . S
Cd29 O39 2.240 . S
Cd30 O31 2.240 . S
Cd30 O38 2.223 . S
Cd30 O40 2.297 . S
Cd30 O41 2.439 . S
O31 Cd30 2.240 . S
O31 C36 1.279 . S
O32 Cd29 2.297 . S
O32 C34 1.247 . S
O33 Cd29 2.439 . S
O33 C34 1.208 . S
C34 O32 1.247 . S
C34 O33 1.208 . S
C35 O40 1.247 . S
C35 O41 1.208 . S
C36 O28 1.315 . S
C36 O31 1.279 . S
C37 O38 1.315 . S
C37 O39 1.279 . S
O38 Cd30 2.223 . S
O38 C37 1.315 . S
O39 Cd29 2.240 . S
O39 C37 1.279 . S
O40 Cd30 2.297 . S
O40 C35 1.247 . S
O41 Cd30 2.439 . S
O41 C35 1.208 . S
O42 Cd43 2.223 . S
O42 C50 1.315 . S
Cd43 O42 2.223 . S
Cd43 O46 2.297 . S
Cd43 O47 2.439 . S
Cd43 O53 2.240 . S
Cd44 O45 2.240 . S
Cd44 O52 2.223 . S
Cd44 O54 2.297 . S
Cd44 O55 2.439 . S
O45 Cd44 2.240 . S
O45 C50 1.279 . S
O46 Cd43 2.297 . S
O46 C48 1.247 . S
O47 Cd43 2.439 . S
O47 C48 1.208 . S
C48 O46 1.247 . S
C48 O47 1.208 . S
C49 O54 1.247 . S
C49 O55 1.208 . S
C50 O42 1.315 . S
C50 O45 1.279 . S
C51 O52 1.315 . S
C51 O53 1.279 . S
O52 Cd44 2.223 . S
O52 C51 1.315 . S
O53 Cd43 2.240 . S
O53 C51 1.279 . S
O54 Cd44 2.297 . S
O54 C49 1.247 . S
O55 Cd44 2.439 . S
O55 C49 1.208 . S
O56 Cd57 2.223 . S
O56 C64 1.315 . S
Cd57 O56 2.223 . S
Cd57 O60 2.297 . S
Cd57 O61 2.439 . S
Cd57 O67 2.240 . S
Cd58 O59 2.240 . S
Cd58 O66 2.223 . S
Cd58 O68 2.297 . S
Cd58 O69 2.439 1_554 S
O59 Cd58 2.240 . S
O59 C64 1.279 . S
O60 Cd57 2.297 . S
O60 C62 1.247 . S
O61 Cd57 2.439 . S
O61 C62 1.208 . S
C62 O60 1.247 . S
C62 O61 1.208 . S
C63 O68 1.247 1_556 S
C63 O69 1.208 . S
C64 O56 1.315 . S
C64 O59 1.279 . S
C65 O66 1.315 . S
C65 O67 1.279 . S
O66 Cd58 2.223 . S
O66 C65 1.315 . S
O67 Cd57 2.240 . S
O67 C65 1.279 . S
O68 Cd58 2.297 . S
O68 C63 1.247 1_554 S
O69 Cd58 2.439 1_556 S
O69 C63 1.208 . S
O70 Cd71 2.223 . S
O70 C78 1.315 . S
Cd71 O70 2.223 . S
Cd71 O74 2.297 . S
Cd71 O75 2.439 . S
Cd71 O81 2.240 . S
Cd72 O73 2.240 . S
Cd72 O80 2.223 . S
Cd72 O82 2.297 . S
Cd72 O83 2.439 . S
O73 Cd72 2.240 . S
O73 C78 1.279 . S
O74 Cd71 2.297 . S
O74 C76 1.247 . S
O75 Cd71 2.439 . S
O75 C76 1.208 . S
C76 O74 1.247 . S
C76 O75 1.208 . S
C77 O82 1.247 . S
C77 O83 1.208 . S
C78 O70 1.315 . S
C78 O73 1.279 . S
C79 O80 1.315 . S
C79 O81 1.279 . S
O80 Cd72 2.223 . S
O80 C79 1.315 . S
O81 Cd71 2.240 . S
O81 C79 1.279 . S
O82 Cd72 2.297 . S
O82 C77 1.247 . S
O83 Cd72 2.439 . S
O83 C77 1.208 . S
O84 Cd85 2.223 . S
O84 C92 1.315 . S
Cd85 O84 2.223 . S
Cd85 O88 2.297 . S
Cd85 O89 2.439 . S
Cd85 O95 2.240 . S
Cd86 O87 2.240 . S
Cd86 O94 2.223 . S
Cd86 O96 2.297 . S
Cd86 O97 2.439 . S
O87 Cd86 2.240 . S
O87 C92 1.279 . S
O88 Cd85 2.297 . S
O88 C90 1.247 . S
O89 Cd85 2.439 . S
O89 C90 1.208 . S
C90 O88 1.247 . S
C90 O89 1.208 . S
C91 O96 1.247 . S
C91 O97 1.208 . S
C92 O84 1.315 . S
C92 O87 1.279 . S
C93 O94 1.315 . S
C93 O95 1.279 . S
O94 Cd86 2.223 . S
O94 C93 1.315 . S
O95 Cd85 2.240 . S
O95 C93 1.279 . S
O96 Cd86 2.297 . S
O96 C91 1.247 . S
O97 Cd86 2.439 . S
O97 C91 1.208 . S
O98 Cd99 2.223 . S
O98 C106 1.315 . S
Cd99 O98 2.223 . S
Cd99 O102 2.297 . S
Cd99 O103 2.439 . S
Cd99 O109 2.240 . S
Cd100 O101 2.240 . S
Cd100 O108 2.223 . S
Cd100 O110 2.297 . S
Cd100 O111 2.439 . S
O101 Cd100 2.240 . S
O101 C106 1.279 . S
O102 Cd99 2.297 . S
O102 C104 1.247 . S
O103 Cd99 2.439 . S
O103 C104 1.208 . S
C104 O102 1.247 . S
C104 O103 1.208 . S
C105 O110 1.247 . S
C105 O111 1.208 . S
C106 O98 1.315 . S
C106 O101 1.279 . S
C107 O108 1.315 . S
C107 O109 1.279 . S
O108 Cd100 2.223 . S
O108 C107 1.315 . S
O109 Cd99 2.240 . S
O109 C107 1.279 . S
O110 Cd100 2.297 . S
O110 C105 1.247 . S
O111 Cd100 2.439 . S
O111 C105 1.208 . S
O112 Cd113 2.223 . S
O112 C120 1.315 . S
Cd113 O112 2.223 . S
Cd113 O116 2.297 . S
Cd113 O117 2.439 . S
Cd113 O123 2.240 . S
Cd114 O115 2.240 . S
Cd114 O122 2.223 . S
Cd114 O124 2.297 . S
Cd114 O125 2.439 . S
O115 Cd114 2.240 . S
O115 C120 1.279 . S
O116 Cd113 2.297 . S
O116 C118 1.247 . S
O117 Cd113 2.439 . S
O117 C118 1.208 . S
C118 O116 1.247 . S
C118 O117 1.208 . S
C119 O124 1.247 . S
C119 O125 1.208 . S
C120 O112 1.315 . S
C120 O115 1.279 . S
C121 O122 1.315 . S
C121 O123 1.279 . S
O122 Cd114 2.223 . S
O122 C121 1.315 . S
O123 Cd113 2.240 . S
O123 C121 1.279 . S
O124 Cd114 2.297 . S
O124 C119 1.247 . S
O125 Cd114 2.439 . S
O125 C119 1.208 . S
O126 Cd127 2.223 . S
O126 C134 1.315 . S
Cd127 O126 2.223 . S
Cd127 O130 2.297 . S
Cd127 O131 2.439 . S
Cd127 O137 2.240 . S
Cd128 O129 2.240 . S
Cd128 O136 2.223 . S
Cd128 O138 2.297 . S
Cd128 O139 2.439 1_556 S
O129 Cd128 2.240 . S
O129 C134 1.279 . S
O130 Cd127 2.297 . S
O130 C132 1.247 . S
O131 Cd127 2.439 . S
O131 C132 1.208 . S
C132 O130 1.247 . S
C132 O131 1.208 . S
C133 O138 1.247 1_554 S
C133 O139 1.208 . S
C134 O126 1.315 . S
C134 O129 1.279 . S
C135 O136 1.315 . S
C135 O137 1.279 . S
O136 Cd128 2.223 . S
O136 C135 1.315 . S
O137 Cd127 2.240 . S
O137 C135 1.279 . S
O138 Cd128 2.297 . S
O138 C133 1.247 1_556 S
O139 Cd128 2.439 1_554 S
O139 C133 1.208 . S
O140 Cd141 2.223 . S
O140 C148 1.315 . S
Cd141 O140 2.223 . S
Cd141 O144 2.297 . S
Cd141 O145 2.439 . S
Cd141 O151 2.240 . S
Cd142 O143 2.240 . S
Cd142 O150 2.223 . S
Cd142 O152 2.297 . S
Cd142 O153 2.439 . S
O143 Cd142 2.240 . S
O143 C148 1.279 . S
O144 Cd141 2.297 . S
O144 C146 1.247 . S
O145 Cd141 2.439 . S
O145 C146 1.208 . S
C146 O144 1.247 . S
C146 O145 1.208 . S
C147 O152 1.247 . S
C147 O153 1.208 . S
C148 O140 1.315 . S
C148 O143 1.279 . S
C149 O150 1.315 . S
C149 O151 1.279 . S
O150 Cd142 2.223 . S
O150 C149 1.315 . S
O151 Cd141 2.240 . S
O151 C149 1.279 . S
O152 Cd142 2.297 . S
O152 C147 1.247 . S
O153 Cd142 2.439 . S
O153 C147 1.208 . S
O154 Cd155 2.223 . S
O154 C162 1.315 . S
Cd155 O154 2.223 . S
Cd155 O158 2.297 . S
Cd155 O159 2.439 . S
Cd155 O165 2.240 . S
Cd156 O157 2.240 . S
Cd156 O164 2.223 . S
Cd156 O166 2.297 . S
Cd156 O167 2.439 . S
O157 Cd156 2.240 . S
O157 C162 1.279 . S
O158 Cd155 2.297 . S
O158 C160 1.247 . S
O159 Cd155 2.439 . S
O159 C160 1.208 . S
C160 O158 1.247 . S
C160 O159 1.208 . S
C161 O166 1.247 . S
C161 O167 1.208 . S
C162 O154 1.315 . S
C162 O157 1.279 . S
C163 O164 1.315 . S
C163 O165 1.279 . S
O164 Cd156 2.223 . S
O164 C163 1.315 . S
O165 Cd155 2.240 . S
O165 C163 1.279 . S
O166 Cd156 2.297 . S
O166 C161 1.247 . S
O167 Cd156 2.439 . S
O167 C161 1.208 . S
C168 C169 1.363 . S
C168 C174 1.379 . S
C168 N176 1.356 . S
C169 C168 1.363 . S
C169 C175 1.363 . S
C170 C171 1.363 . S
C170 C175 1.379 . S
C170 N177 1.356 . S
C171 C170 1.363 . S
C171 C174 1.363 . S
N172 C174 1.356 . S
N172 H184 0.984 . S
N172 H185 0.985 . S
N173 C175 1.356 . S
N173 H178 0.984 . S
N173 H179 0.985 . S
C174 C168 1.379 . S
C174 C171 1.363 . S
C174 N172 1.356 . S
C175 C169 1.363 . S
C175 C170 1.379 . S
C175 N173 1.356 . S
N176 C168 1.356 . S
N176 H182 0.984 . S
N176 H183 0.984 . S
N177 C170 1.356 . S
N177 H180 0.984 . S
N177 H181 0.985 . S
H178 N173 0.984 . S
H179 N173 0.985 . S
H180 N177 0.984 . S
H181 N177 0.985 . S
H182 N176 0.984 . S
H183 N176 0.984 . S
H184 N172 0.984 . S
H185 N172 0.985 . S
C186 C187 1.363 . S
C186 C192 1.379 . S
C186 N194 1.356 . S
C187 C186 1.363 . S
C187 C193 1.363 . S
C188 C189 1.363 . S
C188 C193 1.379 . S
C188 N195 1.356 . S
C189 C188 1.363 . S
C189 C192 1.363 . S
N190 C192 1.356 . S
N190 H202 0.984 . S
N190 H203 0.985 . S
N191 C193 1.356 . S
N191 H196 0.984 . S
N191 H197 0.985 . S
C192 C186 1.379 . S
C192 C189 1.363 . S
C192 N190 1.356 . S
C193 C187 1.363 . S
C193 C188 1.379 . S
C193 N191 1.356 . S
N194 C186 1.356 . S
N194 H200 0.984 . S
N194 H201 0.984 . S
N195 C188 1.356 . S
N195 H198 0.984 . S
N195 H199 0.985 . S
H196 N191 0.984 . S
H197 N191 0.985 . S
H198 N195 0.984 . S
H199 N195 0.985 . S
H200 N194 0.984 . S
H201 N194 0.984 . S
H202 N190 0.984 . S
H203 N190 0.985 . S
C204 C205 1.363 . S
C204 C210 1.379 . S
C204 N212 1.356 . S
C205 C204 1.363 . S
C205 C211 1.363 . S
C206 C207 1.363 . S
C206 C211 1.379 . S
C206 N213 1.356 . S
C207 C206 1.363 . S
C207 C210 1.363 . S
N208 C210 1.356 . S
N208 H220 0.984 . S
N208 H221 0.985 . S
N209 C211 1.356 . S
N209 H214 0.984 . S
N209 H215 0.985 . S
C210 C204 1.379 . S
C210 C207 1.363 . S
C210 N208 1.356 . S
C211 C205 1.363 . S
C211 C206 1.379 . S
C211 N209 1.356 . S
N212 C204 1.356 . S
N212 H218 0.984 . S
N212 H219 0.984 . S
N213 C206 1.356 . S
N213 H216 0.984 . S
N213 H217 0.985 . S
H214 N209 0.984 . S
H215 N209 0.985 . S
H216 N213 0.984 . S
H217 N213 0.985 . S
H218 N212 0.984 . S
H219 N212 0.984 . S
H220 N208 0.984 . S
H221 N208 0.985 . S
C222 C223 1.363 . S
C222 C228 1.379 . S
C222 N230 1.356 . S
C223 C222 1.363 . S
C223 C229 1.363 . S
C224 C225 1.363 . S
C224 C229 1.379 . S
C224 N231 1.356 . S
C225 C224 1.363 . S
C225 C228 1.363 . S
N226 C228 1.356 . S
N226 H238 0.984 . S
N226 H239 0.985 . S
N227 C229 1.356 . S
N227 H232 0.984 . S
N227 H233 1.002 . S
C228 C222 1.379 . S
C228 C225 1.363 . S
C228 N226 1.356 . S
C229 C223 1.363 . S
C229 C224 1.379 . S
C229 N227 1.356 . S
N230 C222 1.356 . S
N230 H236 0.984 . S
N230 H237 0.984 . S
N231 C224 1.356 . S
N231 H234 0.984 . S
N231 H235 0.985 1_556 S
H232 N227 0.984 . S
H233 N227 1.002 . S
H234 N231 0.984 . S
H235 N231 0.985 1_554 S
H236 N230 0.984 . S
H237 N230 0.984 . S
H238 N226 0.984 . S
H239 N226 0.985 . S
C240 C241 1.363 . S
C240 C246 1.379 . S
C240 N248 1.356 . S
C241 C240 1.363 . S
C241 C247 1.363 . S
C242 C243 1.363 . S
C242 C247 1.379 . S
C242 N249 1.356 . S
C243 C242 1.363 . S
C243 C246 1.363 . S
N244 C246 1.356 . S
N244 H256 0.984 . S
N244 H257 0.985 . S
N245 C247 1.356 . S
N245 H250 0.984 . S
N245 H251 0.985 . S
C246 C240 1.379 . S
C246 C243 1.363 . S
C246 N244 1.356 . S
C247 C241 1.363 . S
C247 C242 1.379 . S
C247 N245 1.356 . S
N248 C240 1.356 . S
N248 H254 0.984 . S
N248 H255 0.984 . S
N249 C242 1.356 . S
N249 H252 0.984 . S
N249 H253 0.985 . S
H250 N245 0.984 . S
H251 N245 0.985 . S
H252 N249 0.984 . S
H253 N249 0.985 . S
H254 N248 0.984 . S
H255 N248 0.984 . S
H256 N244 0.984 . S
H257 N244 0.985 . S
C258 C259 1.363 . S
C258 C264 1.379 . S
C258 N266 1.356 . S
C259 C258 1.363 . S
C259 C265 1.363 . S
C260 C261 1.363 . S
C260 C265 1.379 . S
C260 N267 1.356 . S
C261 C260 1.363 . S
C261 C264 1.363 . S
N262 C264 1.356 . S
N262 H274 0.984 . S
N262 H275 0.985 . S
N263 C265 1.356 . S
N263 H268 0.984 . S
N263 H269 0.985 . S
C264 C258 1.379 . S
C264 C261 1.363 . S
C264 N262 1.356 . S
C265 C259 1.363 . S
C265 C260 1.379 . S
C265 N263 1.356 . S
N266 C258 1.356 . S
N266 H272 0.984 . S
N266 H273 0.984 . S
N267 C260 1.356 . S
N267 H270 0.984 . S
N267 H271 0.985 . S
H268 N263 0.984 . S
H269 N263 0.985 . S
H270 N267 0.984 . S
H271 N267 0.985 . S
H272 N266 0.984 . S
H273 N266 0.984 . S
H274 N262 0.984 . S
H275 N262 0.985 . S
C276 C277 1.363 . S
C276 C282 1.379 . S
C276 N284 1.356 . S
C277 C276 1.363 . S
C277 C283 1.363 . S
C278 C279 1.363 . S
C278 C283 1.379 . S
C278 N285 1.356 . S
C279 C278 1.363 . S
C279 C282 1.363 . S
N280 C282 1.356 . S
N280 H292 0.984 . S
N280 H293 0.985 . S
N281 C283 1.356 . S
N281 H286 0.984 . S
N281 H287 0.985 . S
C282 C276 1.379 . S
C282 C279 1.363 . S
C282 N280 1.356 . S
C283 C277 1.363 . S
C283 C278 1.379 . S
C283 N281 1.356 . S
N284 C276 1.356 . S
N284 H290 0.984 . S
N284 H291 0.984 . S
N285 C278 1.356 . S
N285 H288 0.984 . S
N285 H289 0.985 . S
H286 N281 0.984 . S
H287 N281 0.985 . S
H288 N285 0.984 . S
H289 N285 0.985 . S
H290 N284 0.984 . S
H291 N284 0.984 . S
H292 N280 0.984 . S
H293 N280 0.985 . S
C294 C295 1.363 . S
C294 C300 1.379 . S
C294 N302 1.356 . S
C295 C294 1.363 . S
C295 C301 1.363 . S
C296 C297 1.363 . S
C296 C301 1.379 . S
C296 N303 1.356 . S
C297 C296 1.363 . S
C297 C300 1.363 . S
N298 C300 1.356 . S
N298 H310 0.984 . S
N298 H311 0.985 . S
N299 C301 1.356 . S
N299 H304 0.984 . S
N299 H305 0.985 . S
C300 C294 1.379 . S
C300 C297 1.363 . S
C300 N298 1.356 . S
C301 C295 1.363 . S
C301 C296 1.379 . S
C301 N299 1.356 . S
N302 C294 1.356 . S
N302 H308 0.984 . S
N302 H309 0.984 . S
N303 C296 1.356 . S
N303 H306 0.984 . S
N303 H307 0.985 . S
H304 N299 0.984 . S
H305 N299 0.985 . S
H306 N303 0.984 . S
H307 N303 0.985 . S
H308 N302 0.984 . S
H309 N302 0.984 . S
H310 N298 0.984 . S
H311 N298 0.985 . S
C312 C313 1.363 . S
C312 C318 1.379 . S
C312 N320 1.356 . S
C313 C312 1.363 . S
C313 C319 1.363 . S
C314 C315 1.363 . S
C314 C319 1.379 . S
C314 N321 1.356 . S
C315 C314 1.363 . S
C315 C318 1.363 . S
N316 C318 1.356 . S
N316 H328 0.984 . S
N316 H329 0.985 . S
N317 C319 1.356 . S
N317 H322 0.984 1_556 S
N317 H323 0.985 . S
C318 C312 1.379 . S
C318 C315 1.363 . S
C318 N316 1.356 . S
C319 C313 1.363 . S
C319 C314 1.379 . S
C319 N317 1.356 . S
N320 C312 1.356 . S
N320 H326 0.984 . S
N320 H327 0.984 . S
N321 C314 1.356 . S
N321 H324 0.984 . S
N321 H325 0.985 . S
H322 N317 0.984 1_554 S
H323 N317 0.985 . S
H324 N321 0.984 . S
H325 N321 0.985 . S
H326 N320 0.984 . S
H327 N320 0.984 . S
H328 N316 0.984 . S
H329 N316 0.985 . S
C330 C331 1.363 . S
C330 C336 1.379 . S
C330 N338 1.356 . S
C331 C330 1.363 . S
C331 C337 1.363 . S
C332 C333 1.363 . S
C332 C337 1.379 . S
C332 N339 1.356 . S
C333 C332 1.363 . S
C333 C336 1.363 . S
N334 C336 1.356 . S
N334 H346 0.984 . S
N334 H347 0.985 1_554 S
N335 C337 1.356 . S
N335 H340 0.984 . S
N335 H341 0.985 . S
C336 C330 1.379 . S
C336 C333 1.363 . S
C336 N334 1.356 . S
C337 C331 1.363 . S
C337 C332 1.379 . S
C337 N335 1.356 . S
N338 C330 1.356 . S
N338 H344 0.984 . S
N338 H345 0.984 . S
N339 C332 1.356 . S
N339 H342 0.984 . S
N339 H343 0.985 . S
H340 N335 0.984 . S
H341 N335 0.985 . S
H342 N339 0.984 . S
H343 N339 0.985 . S
H344 N338 0.984 . S
H345 N338 0.984 . S
H346 N334 0.984 . S
H347 N334 0.985 1_556 S
C348 C349 1.363 . S
C348 C354 1.379 . S
C348 N356 1.356 . S
C349 C348 1.363 . S
C349 C355 1.363 . S
C350 C351 1.363 . S
C350 C355 1.379 . S
C350 N357 1.356 . S
C351 C350 1.363 . S
C351 C354 1.363 . S
N352 C354 1.356 . S
N352 H364 0.984 . S
N352 H365 0.985 . S
N353 C355 1.356 . S
N353 H358 0.984 . S
N353 H359 0.985 . S
C354 C348 1.379 . S
C354 C351 1.363 . S
C354 N352 1.356 . S
C355 C349 1.363 . S
C355 C350 1.379 . S
C355 N353 1.356 . S
N356 C348 1.356 . S
N356 H362 0.984 . S
N356 H363 0.984 . S
N357 C350 1.356 . S
N357 H360 0.984 . S
N357 H361 0.985 . S
H358 N353 0.984 . S
H359 N353 0.985 . S
H360 N357 0.984 . S
H361 N357 0.985 . S
H362 N356 0.984 . S
H363 N356 0.984 . S
H364 N352 0.984 . S
H365 N352 0.985 . S
C366 C367 1.363 . S
C366 C372 1.379 . S
C366 N374 1.356 . S
C367 C366 1.363 . S
C367 C373 1.363 . S
C368 C369 1.363 . S
C368 C373 1.379 . S
C368 N375 1.356 . S
C369 C368 1.363 . S
C369 C372 1.363 . S
N370 C372 1.356 . S
N370 H382 0.984 . S
N370 H383 0.985 . S
N371 C373 1.356 . S
N371 H376 0.984 . S
N371 H377 0.985 . S
C372 C366 1.379 . S
C372 C369 1.363 . S
C372 N370 1.356 . S
C373 C367 1.363 . S
C373 C368 1.379 . S
C373 N371 1.356 . S
N374 C366 1.356 . S
N374 H380 0.984 . S
N374 H381 0.984 . S
N375 C368 1.356 . S
N375 H378 0.984 . S
N375 H379 0.985 . S
H376 N371 0.984 . S
H377 N371 0.985 . S
H378 N375 0.984 . S
H379 N375 0.985 . S
H380 N374 0.984 . S
H381 N374 0.984 . S
H382 N370 0.984 . S
H383 N370 0.985 . S
C384 C385 1.363 . S
C384 C390 1.379 1_655 S
C384 N392 1.356 . S
C385 C384 1.363 . S
C385 C391 1.363 . S
C386 C387 1.363 . S
C386 C391 1.379 1_455 S
C386 N393 1.356 . S
C387 C386 1.363 . S
C387 C390 1.363 . S
N388 C390 1.356 . S
N388 H400 0.984 . S
N388 H401 0.985 . S
N389 C391 1.356 . S
N389 H394 0.984 . S
N389 H395 0.985 . S
C390 C384 1.379 1_455 S
C390 C387 1.363 . S
C390 N388 1.356 . S
C391 C385 1.363 . S
C391 C386 1.379 1_655 S
C391 N389 1.356 . S
N392 C384 1.356 . S
N392 H398 0.984 . S
N392 H399 0.984 . S
N393 C386 1.356 . S
N393 H396 0.984 . S
N393 H397 0.985 . S
H394 N389 0.984 . S
H395 N389 0.985 . S
H396 N393 0.984 . S
H397 N393 0.985 . S
H398 N392 0.984 . S
H399 N392 0.984 . S
H400 N388 0.984 . S
H401 N388 0.985 . S
C402 C403 1.363 . S
C402 C408 1.379 1_565 S
C402 N410 1.356 . S
C403 C402 1.363 . S
C403 C409 1.363 . S
C404 C405 1.363 . S
C404 C409 1.379 1_545 S
C404 N411 1.356 . S
C405 C404 1.363 . S
C405 C408 1.363 . S
N406 C408 1.356 . S
N406 H418 0.984 . S
N406 H419 0.985 . S
N407 C409 1.356 . S
N407 H412 0.984 . S
N407 H413 0.985 . S
C408 C402 1.379 1_545 S
C408 C405 1.363 . S
C408 N406 1.356 . S
C409 C403 1.363 . S
C409 C404 1.379 1_565 S
C409 N407 1.356 . S
N410 C402 1.356 . S
N410 H416 0.984 . S
N410 H417 0.984 . S
N411 C404 1.356 . S
N411 H414 0.984 . S
N411 H415 0.985 . S
H412 N407 0.984 . S
H413 N407 0.985 . S
H414 N411 0.984 . S
H415 N411 0.985 . S
H416 N410 0.984 . S
H417 N410 0.984 . S
H418 N406 0.984 . S
H419 N406 0.985 . S
C420 C421 1.363 . S
C420 C426 1.379 . S
C420 N428 1.356 . S
C421 C420 1.363 . S
C421 C427 1.363 . S
C422 C423 1.363 . S
C422 C427 1.379 . S
C422 N429 1.356 . S
C423 C422 1.363 . S
C423 C426 1.363 . S
N424 C426 1.356 . S
N424 H436 0.984 . S
N424 H437 0.985 . S
N425 C427 1.356 . S
N425 H430 0.984 . S
N425 H431 0.985 . S
C426 C420 1.379 . S
C426 C423 1.363 . S
C426 N424 1.356 . S
C427 C421 1.363 . S
C427 C422 1.379 . S
C427 N425 1.356 . S
N428 C420 1.356 . S
N428 H434 0.984 . S
N428 H435 0.984 . S
N429 C422 1.356 . S
N429 H432 0.984 . S
N429 H433 0.985 . S
H430 N425 0.984 . S
H431 N425 0.985 . S
H432 N429 0.984 . S
H433 N429 0.985 . S
H434 N428 0.984 . S
H435 N428 0.984 . S
H436 N424 0.984 . S
H437 N424 0.985 . S
C438 C439 1.363 . S
C438 C444 1.379 1_455 S
C438 N446 1.356 . S
C439 C438 1.363 . S
C439 C445 1.363 . S
C440 C441 1.363 . S
C440 C445 1.379 1_655 S
C440 N447 1.356 . S
C441 C440 1.363 . S
C441 C444 1.363 . S
N442 C444 1.356 . S
N442 H454 0.984 . S
N442 H455 0.985 . S
N443 C445 1.356 . S
N443 H448 0.984 . S
N443 H449 0.985 . S
C444 C438 1.379 1_655 S
C444 C441 1.363 . S
C444 N442 1.356 . S
C445 C439 1.363 . S
C445 C440 1.379 1_455 S
C445 N443 1.356 . S
N446 C438 1.356 . S
N446 H452 0.984 . S
N446 H453 0.984 . S
N447 C440 1.356 . S
N447 H450 0.984 . S
N447 H451 0.985 . S
H448 N443 0.984 . S
H449 N443 0.985 . S
H450 N447 0.984 . S
H451 N447 0.985 . S
H452 N446 0.984 . S
H453 N446 0.984 . S
H454 N442 0.984 . S
H455 N442 0.985 . S
C456 C457 1.363 . S
C456 C462 1.379 1_545 S
C456 N464 1.356 . S
C457 C456 1.363 . S
C457 C463 1.363 1_556 S
C458 C459 1.363 . S
C458 C463 1.379 1_565 S
C458 N465 1.356 . S
C459 C458 1.363 . S
C459 C462 1.363 1_554 S
N460 C462 1.356 . S
N460 H472 0.984 . S
N460 H473 0.985 . S
N461 C463 1.356 . S
N461 H466 0.984 . S
N461 H467 0.985 . S
C462 C456 1.379 1_565 S
C462 C459 1.363 1_556 S
C462 N460 1.356 . S
C463 C457 1.363 1_554 S
C463 C458 1.379 1_545 S
C463 N461 1.356 . S
N464 C456 1.356 . S
N464 H470 0.984 . S
N464 H471 0.984 . S
N465 C458 1.356 . S
N465 H468 0.984 . S
N465 H469 0.985 . S
H466 N461 0.984 . S
H467 N461 0.985 . S
H468 N465 0.984 . S
H469 N465 0.985 . S
H470 N464 0.984 . S
H471 N464 0.984 . S
H472 N460 0.984 . S
H473 N460 0.985 . S
C474 C475 1.363 . S
C474 C480 1.379 . S
C474 N482 1.356 . S
C475 C474 1.363 . S
C475 C481 1.363 . S
C476 C477 1.363 . S
C476 C481 1.379 . S
C476 N483 1.356 . S
C477 C476 1.363 . S
C477 C480 1.363 . S
N478 C480 1.356 . S
N478 H490 0.984 . S
N478 H491 0.985 . S
N479 C481 1.356 . S
N479 H484 0.984 . S
N479 H485 0.985 . S
C480 C474 1.379 . S
C480 C477 1.363 . S
C480 N478 1.356 . S
C481 C475 1.363 . S
C481 C476 1.379 . S
C481 N479 1.356 . S
N482 C474 1.356 . S
N482 H488 0.984 . S
N482 H489 0.984 . S
N483 C476 1.356 . S
N483 H486 0.984 . S
N483 H487 0.985 . S
H484 N479 0.984 . S
H485 N479 0.985 . S
H486 N483 0.984 . S
H487 N483 0.985 . S
H488 N482 0.984 . S
H489 N482 0.984 . S
H490 N478 0.984 . S
H491 N478 0.985 . S
C492 C493 1.363 . S
C492 C498 1.379 . S
C492 N500 1.356 . S
C493 C492 1.363 . S
C493 C499 1.363 . S
C494 C495 1.363 . S
C494 C499 1.379 . S
C494 N501 1.356 . S
C495 C494 1.363 . S
C495 C498 1.363 . S
N496 C498 1.356 . S
N496 H508 0.984 . S
N496 H509 0.985 . S
N497 C499 1.356 . S
N497 H502 0.984 . S
N497 H503 0.985 . S
C498 C492 1.379 . S
C498 C495 1.363 . S
C498 N496 1.356 . S
C499 C493 1.363 . S
C499 C494 1.379 . S
C499 N497 1.356 . S
N500 C492 1.356 . S
N500 H506 0.984 . S
N500 H507 0.984 . S
N501 C494 1.356 . S
N501 H504 0.984 . S
N501 H505 0.985 . S
H502 N497 0.984 . S
H503 N497 0.985 . S
H504 N501 0.984 . S
H505 N501 0.985 . S
H506 N500 0.984 . S
H507 N500 0.984 . S
H508 N496 0.984 . S
H509 N496 0.985 . S
C510 C511 1.363 . S
C510 C516 1.379 . S
C510 N518 1.356 . S
C511 C510 1.363 . S
C511 C517 1.363 . S
C512 C513 1.363 . S
C512 C517 1.379 . S
C512 N519 1.356 . S
C513 C512 1.363 . S
C513 C516 1.363 . S
N514 C516 1.356 . S
N514 H526 0.984 . S
N514 H527 0.985 . S
N515 C517 1.356 . S
N515 H520 0.984 . S
N515 H521 0.985 . S
C516 C510 1.379 . S
C516 C513 1.363 . S
C516 N514 1.356 . S
C517 C511 1.363 . S
C517 C512 1.379 . S
C517 N515 1.356 . S
N518 C510 1.356 . S
N518 H524 0.984 . S
N518 H525 0.984 . S
N519 C512 1.356 . S
N519 H522 0.984 . S
N519 H523 0.985 . S
H520 N515 0.984 . S
H521 N515 0.985 . S
H522 N519 0.984 . S
H523 N519 0.985 . S
H524 N518 0.984 . S
H525 N518 0.984 . S
H526 N514 0.984 . S
H527 N514 0.985 . S
C528 C529 1.363 . S
C528 C534 1.379 . S
C528 N536 1.356 . S
C529 C528 1.363 . S
C529 C535 1.363 . S
C530 C531 1.363 . S
C530 C535 1.379 . S
C530 N537 1.356 . S
C531 C530 1.363 . S
C531 C534 1.363 . S
N532 C534 1.356 . S
N532 H544 0.984 . S
N532 H545 0.985 . S
N533 C535 1.356 . S
N533 H538 0.984 . S
N533 H539 0.985 . S
C534 C528 1.379 . S
C534 C531 1.363 . S
C534 N532 1.356 . S
C535 C529 1.363 . S
C535 C530 1.379 . S
C535 N533 1.356 . S
N536 C528 1.356 . S
N536 H542 0.984 . S
N536 H543 0.984 . S
N537 C530 1.356 . S
N537 H540 0.984 . S
N537 H541 0.985 . S
H538 N533 0.984 . S
H539 N533 0.985 . S
H540 N537 0.984 . S
H541 N537 0.985 . S
H542 N536 0.984 . S
H543 N536 0.984 . S
H544 N532 0.984 . S
H545 N532 0.985 . S
C546 C547 1.363 . S
C546 C552 1.379 . S
C546 N554 1.356 . S
C547 C546 1.363 . S
C547 C553 1.363 . S
C548 C549 1.363 . S
C548 C553 1.379 . S
C548 N555 1.356 . S
C549 C548 1.363 . S
C549 C552 1.363 . S
N550 C552 1.356 . S
N550 H562 0.984 . S
N550 H563 0.985 . S
N551 C553 1.356 . S
N551 H556 0.984 . S
N551 H557 0.985 . S
C552 C546 1.379 . S
C552 C549 1.363 . S
C552 N550 1.356 . S
C553 C547 1.363 . S
C553 C548 1.379 . S
C553 N551 1.356 . S
N554 C546 1.356 . S
N554 H560 0.984 . S
N554 H561 0.984 . S
N555 C548 1.356 . S
N555 H558 0.984 . S
N555 H559 0.985 . S
H556 N551 0.984 . S
H557 N551 0.985 . S
H558 N555 0.984 . S
H559 N555 0.985 . S
H560 N554 0.984 . S
H561 N554 0.984 . S
H562 N550 0.984 . S
H563 N550 0.985 . S
C564 C565 1.363 . S
C564 C570 1.379 . S
C564 N572 1.356 1_556 S
C565 C564 1.363 . S
C565 C571 1.363 . S
C566 C567 1.363 . S
C566 C571 1.379 . S
C566 N573 1.356 . S
C567 C566 1.363 . S
C567 C570 1.363 . S
N568 C570 1.356 . S
N568 H580 0.984 . S
N568 H581 0.985 . S
N569 C571 1.356 . S
N569 H574 0.984 . S
N569 H575 0.985 . S
C570 C564 1.379 . S
C570 C567 1.363 . S
C570 N568 1.356 . S
C571 C565 1.363 . S
C571 C566 1.379 . S
C571 N569 1.356 . S
N572 C564 1.356 1_554 S
N572 H578 0.984 . S
N572 H579 0.984 . S
N573 C566 1.356 . S
N573 H576 0.984 . S
N573 H577 0.985 . S
H574 N569 0.984 . S
H575 N569 0.985 . S
H576 N573 0.984 . S
H577 N573 0.985 . S
H578 N572 0.984 . S
H579 N572 0.984 . S
H580 N568 0.984 . S
H581 N568 0.985 . S
C582 C583 1.363 . S
C582 C588 1.379 . S
C582 N590 1.356 . S
C583 C582 1.363 . S
C583 C589 1.363 . S
C584 C585 1.363 . S
C584 C589 1.379 . S
C584 N591 1.356 . S
C585 C584 1.363 . S
C585 C588 1.363 . S
N586 C588 1.356 . S
N586 H598 0.984 . S
N586 H599 0.985 1_554 S
N587 C589 1.356 . S
N587 H592 0.984 . S
N587 H593 0.985 . S
C588 C582 1.379 . S
C588 C585 1.363 . S
C588 N586 1.356 . S
C589 C583 1.363 . S
C589 C584 1.379 . S
C589 N587 1.356 . S
N590 C582 1.356 . S
N590 H596 0.984 . S
N590 H597 0.984 . S
N591 C584 1.356 . S
N591 H594 0.984 . S
N591 H595 0.985 . S
H592 N587 0.984 . S
H593 N587 0.985 . S
H594 N591 0.984 . S
H595 N591 0.985 . S
H596 N590 0.984 . S
H597 N590 0.984 . S
H598 N586 0.984 . S
H599 N586 0.985 1_556 S
C169 C9 1.121 . S
C171 C93 1.121 . S
C187 C23 1.121 . S
C189 C107 1.121 . S
C205 C121 1.121 . S
C207 C37 1.121 . S
C223 C51 1.121 . S
C225 C135 1.121 . S
C241 C65 1.121 . S
C243 C149 1.121 . S
C259 C163 1.121 . S
C261 C79 1.121 . S
C277 C120 1.639 . S
C279 C8 1.639 . S
C295 C22 1.639 . S
C297 C134 1.639 . S
C313 C148 1.639 1_556 S
C315 C36 1.639 . S
C331 C162 1.639 . S
C333 C50 1.639 1_554 S
C349 C64 1.639 . S
C351 C92 1.639 . S
C367 C78 1.639 . S
C369 C106 1.639 . S
C385 C160 1.441 . S
C387 C6 1.441 . S
C403 C90 1.441 . S
C405 C20 1.441 . S
C421 C34 1.441 . S
C423 C104 1.441 . S
C439 C118 1.441 . S
C441 C48 1.441 . S
C457 C132 1.441 . S
C459 C62 1.441 . S
C475 C146 1.441 . S
C477 C76 1.441 . S
C493 C7 1.315 . S
C495 C147 1.315 . S
C511 C161 1.315 . S
C513 C21 1.315 . S
C529 C35 1.315 . S
C531 C91 1.315 . S
C547 C49 1.315 . S
C549 C105 1.315 . S
C565 C63 1.315 . S
C567 C119 1.315 . S
C583 C77 1.315 . S
C585 C133 1.315 . S
