# Generated by pormake.
# Topology rac, (4)-cn, num edge types: 1
# Building blocks:
#     Node 0, Type 0, BuildingBlock: UXUYUI_clean_sbu_0, # of connection points: 4
#     Node 1, Type 0, BuildingBlock: UXUYUI_clean_sbu_0, # of connection points: 4
#     Node 2, Type 0, BuildingBlock: UXUYUI_clean_sbu_0, # of connection points: 4
#     Node 3, Type 0, BuildingBlock: UXUYUI_clean_sbu_0, # of connection points: 4
#     Node 4, Type 0, BuildingBlock: UXUYUI_clean_sbu_0, # of connection points: 4
#     Node 5, Type 0, BuildingBlock: UXUYUI_clean_sbu_0, # of connection points: 4
#     Node 6, Type 0, BuildingBlock: UXUYUI_clean_sbu_0, # of connection points: 4
#     Node 7, Type 0, BuildingBlock: UXUYUI_clean_sbu_0, # of connection points: 4
#     Edge 8, Type (0, 0), BuildingBlock: UVAHIK_clean_linker_0, # of connection points: 2
#     Edge 9, Type (0, 0), BuildingBlock: UVAHIK_clean_linker_0, # of connection points: 2
#     Edge 10, Type (0, 0), BuildingBlock: UVAHIK_clean_linker_0, # of connection points: 2
#     Edge 11, Type (0, 0), BuildingBlock: UVAHIK_clean_linker_0, # of connection points: 2
#     Edge 12, Type (0, 0), BuildingBlock: UVAHIK_clean_linker_0, # of connection points: 2
#     Edge 13, Type (0, 0), BuildingBlock: UVAHIK_clean_linker_0, # of connection points: 2
#     Edge 14, Type (0, 0), BuildingBlock: UVAHIK_clean_linker_0, # of connection points: 2
#     Edge 15, Type (0, 0), BuildingBlock: UVAHIK_clean_linker_0, # of connection points: 2
#     Edge 16, Type (0, 0), BuildingBlock: UVAHIK_clean_linker_0, # of connection points: 2
#     Edge 17, Type (0, 0), BuildingBlock: UVAHIK_clean_linker_0, # of connection points: 2
#     Edge 18, Type (0, 0), BuildingBlock: UVAHIK_clean_linker_0, # of connection points: 2
#     Edge 19, Type (0, 0), BuildingBlock: UVAHIK_clean_linker_0, # of connection points: 2
#     Edge 20, Type (0, 0), BuildingBlock: UVAHIK_clean_linker_0, # of connection points: 2
#     Edge 21, Type (0, 0), BuildingBlock: UVAHIK_clean_linker_0, # of connection points: 2
#     Edge 22, Type (0, 0), BuildingBlock: UVAHIK_clean_linker_0, # of connection points: 2
#     Edge 23, Type (0, 0), BuildingBlock: UVAHIK_clean_linker_0, # of connection points: 2
# Relax obj value: 0.361
# Max RMSD: 0.174
# Mean RMSD: 0.174
data_MOF--net-rac--node1-UXUYUI_clean_sbu_0--edge1-UVAHIK_clean_linker_0
_symmetry_space_group_name_H-M    P1
_symmetry_Int_Tables_number       1
_symmetry_cell_setting            triclinic
loop_
_symmetry_equiv_pos_as_xyz
'x, y, z'
_cell_length_a     68.425189
_cell_length_b     35.222257
_cell_length_c     73.690645
_cell_angle_alpha  90.00369
_cell_angle_beta   89.998012
_cell_angle_gamma 90.034128
loop_
_atom_site_label
_atom_site_type_symbol
_atom_site_fract_x
_atom_site_fract_y
_atom_site_fract_z
_atom_type_partial_charge
Li0 Li 0.40785 0.2545 0.05851 0.0
Li1 Li 0.39926 0.23592 0.09031 0.0
Li2 Li 0.38596 0.20019 0.06355 0.0
Li3 Li 0.37499 0.26362 0.06993 0.0
C4 C 0.42974 0.18882 0.06391 0.0
N5 N 0.46227 0.15623 0.04813 0.0
C6 C 0.44824 0.19472 0.07142 0.0
C7 C 0.42772 0.16575 0.0486 0.0
C8 C 0.46453 0.17818 0.06318 0.0
C9 C 0.44436 0.14969 0.04076 0.0
C10 C 0.39356 0.32231 0.08299 0.0
C11 C 0.37781 0.36684 0.10308 0.0
N12 N 0.37969 0.39436 0.09025 0.0
C13 C 0.3954 0.35104 0.07003 0.0
C14 C 0.38474 0.33023 0.09968 0.0
C15 C 0.38828 0.38729 0.07395 0.0
C16 C 0.42174 0.30047 0.02991 0.0
N17 N 0.42733 0.28135 0.04508 0.0
C18 C 0.45744 0.31585 0.04603 0.0
C19 C 0.4449 0.28815 0.05306 0.0
C20 C 0.45169 0.3372 0.03082 0.0
C21 C 0.43381 0.32836 0.02243 0.0
H22 H 0.40727 0.2963 0.02441 0.0
H23 H 0.44862 0.274 0.0656 0.0
C24 C 0.40189 0.20692 0.12617 0.0
N25 N 0.40771 0.23504 0.11475 0.0
C26 C 0.40578 0.20964 0.14476 0.0
C27 C 0.42186 0.26975 0.13928 0.0
C28 C 0.41794 0.26559 0.12082 0.0
C29 C 0.41542 0.2419 0.15152 0.0
H30 H 0.3936 0.18316 0.12093 0.0
H31 H 0.42234 0.28753 0.1114 0.0
C32 C 0.38039 0.23425 0.02849 0.0
N33 N 0.37537 0.21524 0.99241 0.0
C34 C 0.36212 0.23855 0.02025 0.0
C35 C 0.39615 0.22066 0.01833 0.0
C36 C 0.35987 0.22866 0.00201 0.0
C37 C 0.39331 0.21112 1.00012 0.0
C38 C 0.35327 0.20613 0.08652 0.0
C39 C 0.34162 0.20636 0.07093 0.0
C40 C 0.34578 0.19151 0.10271 0.0
C41 C 0.32268 0.19168 0.07178 0.0
C42 C 0.32674 0.17715 0.10302 0.0
N43 N 0.31569 0.1775 0.08767 0.0
C44 C 0.3713 0.12882 0.07188 0.0
C45 C 0.36728 0.14359 0.04076 0.0
C46 C 0.35716 0.10029 0.0707 0.0
N47 N 0.37523 0.15123 0.0573 0.0
C48 C 0.35324 0.11501 0.03891 0.0
C49 C 0.34727 0.09437 0.05424 0.0
H50 H 0.37768 0.13559 0.08492 0.0
H51 H 0.37056 0.16131 0.02928 0.0
C52 C 0.35061 0.31832 0.05418 0.0
N53 N 0.35346 0.29694 0.06928 0.0
C54 C 0.33516 0.34404 0.05346 0.0
C55 C 0.32587 0.32489 0.0838 0.0
C56 C 0.34156 0.29974 0.08397 0.0
C57 C 0.32257 0.3476 0.06843 0.0
H58 H 0.36054 0.31574 0.04283 0.0
H59 H 0.34438 0.28268 0.09588 0.0
O60 O 0.41364 0.20473 0.07183 0.0
O61 O 0.39988 0.28636 0.07919 0.0
O62 O 0.3828 0.24385 0.04633 0.0
O63 O 0.37207 0.21939 0.08592 0.0
H64 H 0.44998 0.21204 0.08345 0.0
H65 H 0.41345 0.16022 0.04286 0.0
H66 H 0.47897 0.18273 0.06876 0.0
H67 H 0.44303 0.13195 0.02884 0.0
H68 H 0.37083 0.37332 0.11588 0.0
H69 H 0.40207 0.34534 0.05701 0.0
H70 H 0.38297 0.30817 0.10977 0.0
H71 H 0.38952 0.40977 0.06402 0.0
H72 H 0.47111 0.32161 0.05291 0.0
H73 H 0.42853 0.34463 0.01097 0.0
H74 H 0.40048 0.18775 0.15384 0.0
H75 H 0.42943 0.29489 0.14402 0.0
H76 H 0.34978 0.24925 0.02789 0.0
H77 H 0.41047 0.21786 0.02437 0.0
H78 H 0.34579 0.23166 0.99549 0.0
H79 H 0.40538 0.20054 0.9921 0.0
H80 H 0.34721 0.21742 0.05828 0.0
H81 H 0.35463 0.19106 0.11489 0.0
H82 H 0.31356 0.19146 0.05979 0.0
H83 H 0.32076 0.16563 0.11544 0.0
H84 H 0.35318 0.08462 0.08279 0.0
H85 H 0.346 0.11133 0.02596 0.0
H86 H 0.33334 0.36146 0.04147 0.0
H87 H 0.31642 0.32643 0.09556 0.0
Li88 Li 0.0933 0.74841 0.06112 0.0
Li89 Li 0.10181 0.76284 0.09286 0.0
Li90 Li 0.12085 0.78969 0.06726 0.0
Li91 Li 0.12307 0.72214 0.07481 0.0
C92 C 0.07466 0.81169 0.06925 0.0
N93 N 0.03736 0.83427 0.05987 0.0
C94 C 0.0595 0.80923 0.08189 0.0
C95 C 0.07093 0.82596 0.0519 0.0
C96 C 0.04072 0.82074 0.07687 0.0
C97 C 0.05195 0.83712 0.0474 0.0
C98 C 0.09529 0.67525 0.08546 0.0
C99 C 0.1039 0.62185 0.10433 0.0
N100 N 0.09575 0.59797 0.09195 0.0
C101 C 0.08694 0.65018 0.07296 0.0
C102 C 0.10376 0.66101 0.10132 0.0
C103 C 0.08733 0.61122 0.07648 0.0
C104 C 0.07796 0.71529 0.02966 0.0
N105 N 0.07275 0.73134 0.04572 0.0
C106 C 0.04153 0.70099 0.04455 0.0
C107 C 0.05473 0.7256 0.05299 0.0
C108 C 0.04713 0.68134 0.02875 0.0
C109 C 0.06531 0.69014 0.02088 0.0
H110 H 0.09262 0.71912 0.02452 0.0
H111 H 0.05122 0.73736 0.06613 0.0
C112 C 0.09774 0.79895 0.12759 0.0
N113 N 0.0923 0.76905 0.11706 0.0
C114 C 0.09348 0.79904 0.14615 0.0
C115 C 0.07644 0.73951 0.14225 0.0
C116 C 0.08123 0.74037 0.12387 0.0
C117 C 0.08318 0.7684 0.15383 0.0
H118 H 0.10614 0.8219 0.12177 0.0
H119 H 0.0766 0.71746 0.11513 0.0
C120 C 0.12986 0.7552 0.03571 0.0
N121 N 0.1513 0.77744 0.00578 0.0
C122 C 0.14824 0.73929 0.03243 0.0
C123 C 0.12229 0.78208 0.02368 0.0
C124 C 0.15888 0.751 0.01725 0.0
C125 C 0.13339 0.79305 0.00865 0.0
C126 C 0.1384 0.7774 0.10572 0.0
C127 C 0.14418 0.81522 0.10787 0.0
C128 C 0.1404 0.75206 0.12021 0.0
C129 C 0.15173 0.82711 0.12454 0.0
C130 C 0.14797 0.76508 0.13668 0.0
N131 N 0.15342 0.80202 0.13849 0.0
C132 C 0.13386 0.86624 0.05755 0.0
C133 C 0.15709 0.81638 0.05875 0.0
C134 C 0.14874 0.8926 0.05385 0.0
N135 N 0.13837 0.82896 0.05995 0.0
C136 C 0.17222 0.84138 0.05472 0.0
C137 C 0.1682 0.88008 0.05239 0.0
H138 H 0.11888 0.87559 0.05893 0.0
H139 H 0.16032 0.78685 0.06138 0.0
C140 C 0.13721 0.65063 0.06372 0.0
N141 N 0.14062 0.68103 0.07464 0.0
C142 C 0.15098 0.62156 0.06246 0.0
C143 C 0.1716 0.65619 0.0834 0.0
C144 C 0.15738 0.68434 0.08438 0.0
C145 C 0.16852 0.62449 0.07222 0.0
H146 H 0.12404 0.64949 0.05564 0.0
H147 H 0.15994 0.70932 0.09253 0.0
O148 O 0.0931 0.8003 0.07385 0.0
O149 O 0.09527 0.71351 0.08218 0.0
O150 O 0.11936 0.74453 0.05065 0.0
O151 O 0.13087 0.76523 0.08953 0.0
H152 H 0.06216 0.79833 0.09539 0.0
H153 H 0.08256 0.82832 0.04202 0.0
H154 H 0.02881 0.81883 0.08648 0.0
H155 H 0.04882 0.84806 0.03399 0.0
H156 H 0.11049 0.61045 0.11651 0.0
H157 H 0.08038 0.66055 0.06058 0.0
H158 H 0.11025 0.67998 0.11116 0.0
H159 H 0.08099 0.5915 0.06688 0.0
H160 H 0.02758 0.69561 0.05099 0.0
H161 H 0.07046 0.67542 0.00891 0.0
H162 H 0.099 0.82198 0.15448 0.0
H163 H 0.06793 0.71593 0.14741 0.0
H164 H 0.15429 0.7184 0.04161 0.0
H165 H 0.10805 0.79447 0.02599 0.0
H166 H 0.17317 0.73913 0.0146 0.0
H167 H 0.12776 0.81399 0.99927 0.0
H168 H 0.14268 0.8353 0.09686 0.0
H169 H 0.13606 0.72269 0.11877 0.0
H170 H 0.15618 0.85632 0.12642 0.0
H171 H 0.14949 0.74582 0.14802 0.0
H172 H 0.14513 0.92235 0.05226 0.0
H173 H 0.18706 0.83074 0.05411 0.0
H174 H 0.14825 0.59777 0.0535 0.0
H175 H 0.18495 0.65933 0.09116 0.0
Li176 Li 0.37399 0.22956 0.42698 0.0
Li177 Li 0.38222 0.2929 0.43466 0.0
Li178 Li 0.39671 0.26459 0.40694 0.0
Li179 Li 0.40622 0.24232 0.43795 0.0
C180 C 0.35235 0.29532 0.41039 0.0
N181 N 0.31919 0.33976 0.40783 0.0
C182 C 0.33651 0.28888 0.42198 0.0
C183 C 0.35126 0.32416 0.39741 0.0
C184 C 0.31989 0.31169 0.42048 0.0
C185 C 0.33438 0.34637 0.39635 0.0
C186 C 0.38461 0.25923 0.46877 0.0
C187 C 0.40043 0.30084 0.49023 0.0
N188 N 0.39178 0.28164 0.50408 0.0
C189 C 0.3758 0.24003 0.48321 0.0
C190 C 0.39697 0.28998 0.47228 0.0
C191 C 0.37964 0.25174 0.50097 0.0
C192 C 0.35312 0.16764 0.44073 0.0
N193 N 0.35375 0.19327 0.42699 0.0
C194 C 0.32563 0.16576 0.41313 0.0
C195 C 0.34049 0.19282 0.41328 0.0
C196 C 0.32462 0.13859 0.42708 0.0
C197 C 0.33869 0.13971 0.44099 0.0
H198 H 0.36403 0.16864 0.45134 0.0
H199 H 0.34149 0.21348 0.40247 0.0
C200 C 0.37097 0.37061 0.43322 0.0
N201 N 0.36955 0.33812 0.4431 0.0
C202 C 0.35717 0.39957 0.43547 0.0
C203 C 0.34173 0.36227 0.45895 0.0
C204 C 0.35565 0.334 0.45615 0.0
C205 C 0.34187 0.39495 0.44804 0.0
H206 H 0.3818 0.3727 0.42257 0.0
H207 H 0.35417 0.30736 0.46326 0.0
C208 C 0.39455 0.17506 0.41328 0.0
N209 N 0.3836 0.10045 0.40757 0.0
C210 C 0.39906 0.14724 0.42615 0.0
C211 C 0.38438 0.16492 0.39754 0.0
C212 C 0.39344 0.10967 0.42299 0.0
C213 C 0.37899 0.12706 0.39491 0.0
C214 C 0.42956 0.30259 0.42598 0.0
C215 C 0.44163 0.28413 0.41349 0.0
C216 C 0.43756 0.32955 0.43776 0.0
C217 C 0.46157 0.29263 0.41312 0.0
C218 C 0.45757 0.3373 0.43695 0.0
N219 N 0.46906 0.31882 0.42476 0.0
C220 C 0.40384 0.30612 0.37431 0.0
C221 C 0.41079 0.24031 0.37327 0.0
C222 C 0.40833 0.3098 0.35587 0.0
N223 N 0.4048 0.27159 0.38248 0.0
C224 C 0.41514 0.24253 0.35483 0.0
C225 C 0.41371 0.27752 0.34574 0.0
H226 H 0.39931 0.33067 0.38206 0.0
H227 H 0.41188 0.21337 0.38017 0.0
C228 C 0.42752 0.20862 0.46808 0.0
N229 N 0.4276 0.2173 0.45008 0.0
C230 C 0.4404 0.18142 0.47498 0.0
C231 C 0.454 0.17403 0.44497 0.0
C232 C 0.44087 0.20131 0.43866 0.0
C233 C 0.45338 0.16268 0.46323 0.0
H234 H 0.4167 0.22061 0.47699 0.0
H235 H 0.44029 0.20749 0.42431 0.0
O236 O 0.369 0.27407 0.412 0.0
O237 O 0.38078 0.24819 0.45133 0.0
O238 O 0.39944 0.21222 0.41636 0.0
O239 O 0.40999 0.29466 0.42661 0.0
H240 H 0.33719 0.26699 0.43226 0.0
H241 H 0.36339 0.32958 0.38836 0.0
H242 H 0.3076 0.30726 0.42948 0.0
H243 H 0.33339 0.36897 0.38645 0.0
H244 H 0.40997 0.32456 0.49313 0.0
H245 H 0.36611 0.21629 0.4807 0.0
H246 H 0.40374 0.30537 0.4613 0.0
H247 H 0.37296 0.23708 0.51228 0.0
H248 H 0.31496 0.16641 0.40229 0.0
H249 H 0.33874 0.11897 0.45183 0.0
H250 H 0.35789 0.4244 0.42683 0.0
H251 H 0.33002 0.35704 0.46852 0.0
H252 H 0.40654 0.15455 0.43858 0.0
H253 H 0.38033 0.18619 0.38764 0.0
H254 H 0.3968 0.08789 0.43285 0.0
H255 H 0.37102 0.11888 0.38285 0.0
H256 H 0.43575 0.2631 0.40432 0.0
H257 H 0.42841 0.34449 0.44737 0.0
H258 H 0.47109 0.27836 0.40359 0.0
H259 H 0.46396 0.35806 0.44601 0.0
H260 H 0.40742 0.33755 0.34962 0.0
H261 H 0.41894 0.21668 0.34772 0.0
H262 H 0.43923 0.17333 0.48911 0.0
H263 H 0.4639 0.16068 0.43545 0.0
Li264 Li 0.11703 0.7001 0.43681 0.0
Li265 Li 0.12363 0.76443 0.42877 0.0
Li266 Li 0.09241 0.74962 0.44123 0.0
Li267 Li 0.10099 0.7295 0.40961 0.0
C268 C 0.1162 0.73412 0.47104 0.0
N269 N 0.11187 0.7117 0.50674 0.0
C270 C 0.12654 0.75267 0.48478 0.0
C271 C 0.10374 0.70407 0.47544 0.0
C272 C 0.12413 0.74096 0.50276 0.0
C273 C 0.10173 0.69317 0.49357 0.0
C274 C 0.14824 0.70822 0.41358 0.0
C275 C 0.17471 0.674 0.39945 0.0
N276 N 0.1864 0.6825 0.41381 0.0
C277 C 0.16055 0.71667 0.42819 0.0
C278 C 0.15538 0.68676 0.39907 0.0
C279 C 0.17978 0.70342 0.42805 0.0
C280 C 0.13104 0.62558 0.43225 0.0
N281 N 0.13068 0.65506 0.44416 0.0
C282 C 0.15797 0.62932 0.46028 0.0
C283 C 0.14348 0.65683 0.45827 0.0
C284 C 0.15956 0.59994 0.44749 0.0
C285 C 0.14543 0.59753 0.43367 0.0
H286 H 0.12113 0.62549 0.42081 0.0
H287 H 0.14372 0.6813 0.46705 0.0
C288 C 0.14435 0.82669 0.44229 0.0
N289 N 0.1429 0.80272 0.42793 0.0
C290 C 0.1584 0.85534 0.44232 0.0
C291 C 0.16925 0.83376 0.41282 0.0
C292 C 0.1548 0.80588 0.41326 0.0
C293 C 0.17123 0.85896 0.42751 0.0
H294 H 0.13447 0.82363 0.45366 0.0
H295 H 0.15314 0.78655 0.40196 0.0
C296 C 0.06983 0.6866 0.43084 0.0
N297 N 0.03121 0.66436 0.43372 0.0
C298 C 0.05558 0.7034 0.41992 0.0
C299 C 0.06449 0.65799 0.44303 0.0
C300 C 0.03612 0.69194 0.42164 0.0
C301 C 0.04487 0.64727 0.44434 0.0
C302 C 0.10128 0.81734 0.41524 0.0
C303 C 0.09815 0.84602 0.42803 0.0
C304 C 0.10864 0.82656 0.39811 0.0
C305 C 0.1025 0.88357 0.42344 0.0
C306 C 0.11283 0.86445 0.39406 0.0
N307 N 0.10971 0.89192 0.40671 0.0
C308 C 0.0733 0.78446 0.47211 0.0
C309 C 0.05708 0.7885 0.44382 0.0
C310 C 0.06082 0.81174 0.47952 0.0
N311 N 0.07158 0.77404 0.45439 0.0
C312 C 0.04423 0.81573 0.45069 0.0
C313 C 0.04649 0.82884 0.46859 0.0
H314 H 0.08518 0.77402 0.48026 0.0
H315 H 0.05641 0.78116 0.4296 0.0
C316 C 0.10101 0.69946 0.37389 0.0
N317 N 0.09241 0.72489 0.38522 0.0
C318 C 0.09708 0.70049 0.35527 0.0
C319 C 0.07486 0.75266 0.36055 0.0
C320 C 0.07934 0.75083 0.37899 0.0
C321 C 0.08416 0.72795 0.34831 0.0
H322 H 0.1115 0.67942 0.37921 0.0
H323 H 0.07292 0.77107 0.38828 0.0
O324 O 0.11856 0.74518 0.45339 0.0
O325 O 0.12908 0.71948 0.41376 0.0
O326 O 0.08898 0.69746 0.42936 0.0
O327 O 0.09759 0.78031 0.41962 0.0
H328 H 0.13633 0.77589 0.48158 0.0
H329 H 0.09577 0.68933 0.46498 0.0
H330 H 0.13202 0.7551 0.51354 0.0
H331 H 0.09211 0.66997 0.49716 0.0
H332 H 0.1804 0.65721 0.38835 0.0
H333 H 0.15523 0.73274 0.43968 0.0
H334 H 0.14606 0.67972 0.38771 0.0
H335 H 0.18941 0.70956 0.43932 0.0
H336 H 0.16875 0.63285 0.4709 0.0
H337 H 0.14606 0.57525 0.42356 0.0
H338 H 0.15908 0.87457 0.45377 0.0
H339 H 0.17894 0.83508 0.40123 0.0
H340 H 0.05946 0.72526 0.41031 0.0
H341 H 0.07536 0.64397 0.45131 0.0
H342 H 0.02492 0.70495 0.41335 0.0
H343 H 0.04053 0.62526 0.45376 0.0
H344 H 0.09264 0.83933 0.44141 0.0
H345 H 0.11135 0.80462 0.38814 0.0
H346 H 0.10024 0.90605 0.43322 0.0
H347 H 0.11865 0.87199 0.3809 0.0
H348 H 0.06336 0.82125 0.49329 0.0
H349 H 0.03327 0.82774 0.44179 0.0
H350 H 0.10479 0.68114 0.34638 0.0
H351 H 0.06455 0.77384 0.3559 0.0
Li352 Li 0.59261 0.75314 0.94226 0.0
Li353 Li 0.62319 0.73054 0.92705 0.0
Li354 Li 0.61944 0.79624 0.93462 0.0
Li355 Li 0.60125 0.77059 0.9095 0.0
C356 C 0.6287 0.76537 0.96644 0.0
N357 N 0.64801 0.79561 0.99599 0.0
C358 C 0.6481 0.7554 0.96988 0.0
C359 C 0.61902 0.79037 0.97809 0.0
C360 C 0.65764 0.77109 0.98488 0.0
C361 C 0.62907 0.80545 0.99294 0.0
C362 C 0.59649 0.68223 0.91634 0.0
C363 C 0.60651 0.63101 0.8967 0.0
N364 N 0.59925 0.60555 0.90884 0.0
C365 C 0.58907 0.65556 0.92859 0.0
C366 C 0.60521 0.6699 0.90023 0.0
C367 C 0.59062 0.61692 0.92455 0.0
C368 C 0.55453 0.72881 0.95005 0.0
N369 N 0.57259 0.73364 0.95735 0.0
C370 C 0.56518 0.69045 0.98138 0.0
C371 C 0.57791 0.71605 0.973 0.0
C372 C 0.54693 0.68263 0.97343 0.0
C373 C 0.54134 0.70343 0.95798 0.0
H374 H 0.55096 0.74231 0.93729 0.0
H375 H 0.59262 0.71937 0.97812 0.0
C376 C 0.65598 0.69045 0.91454 0.0
N377 N 0.64091 0.68971 0.92651 0.0
C378 C 0.66941 0.66077 0.91411 0.0
C379 C 0.65169 0.63043 0.93855 0.0
C380 C 0.63861 0.66078 0.93852 0.0
C381 C 0.66734 0.63021 0.92621 0.0
H382 H 0.65773 0.71431 0.9055 0.0
H383 H 0.62662 0.66139 0.94807 0.0
C384 C 0.58674 0.84025 0.93366 0.0
N385 N 0.57816 0.91492 0.94181 0.0
C386 C 0.5912 0.86899 0.92126 0.0
C387 C 0.5778 0.84937 0.95015 0.0
C388 C 0.58677 0.90661 0.92565 0.0
C389 C 0.57361 0.88734 0.95403 0.0
C390 C 0.63639 0.78967 0.89617 0.0
C391 C 0.64035 0.82855 0.89493 0.0
C392 C 0.63897 0.76654 0.88093 0.0
C393 C 0.64683 0.84361 0.87846 0.0
C394 C 0.64542 0.78272 0.86469 0.0
N395 N 0.64919 0.82059 0.8638 0.0
C396 C 0.65555 0.82464 0.94076 0.0
C397 C 0.63235 0.87104 0.94953 0.0
C398 C 0.67094 0.84856 0.94543 0.0
N399 N 0.63669 0.83607 0.94275 0.0
C400 C 0.64742 0.8964 0.95402 0.0
C401 C 0.66699 0.88507 0.95198 0.0
H402 H 0.65864 0.79669 0.93541 0.0
H403 H 0.61736 0.87947 0.95144 0.0
C404 C 0.5795 0.74677 0.87941 0.0
N405 N 0.59044 0.77623 0.88563 0.0
C406 C 0.5738 0.74525 0.86126 0.0
C407 C 0.58957 0.80576 0.85641 0.0
C408 C 0.59482 0.80624 0.87474 0.0
C409 C 0.57942 0.77437 0.84931 0.0
H410 H 0.57569 0.72373 0.88841 0.0
H411 H 0.60317 0.82977 0.88001 0.0
O412 O 0.61929 0.75116 0.95156 0.0
O413 O 0.59548 0.72019 0.92019 0.0
O414 O 0.59052 0.80322 0.92946 0.0
O415 O 0.63009 0.77427 0.91219 0.0
H416 H 0.65577 0.73607 0.96094 0.0
H417 H 0.60399 0.79831 0.97558 0.0
H418 H 0.6727 0.76386 0.98766 0.0
H419 H 0.62182 0.82505 0.00202 0.0
H420 H 0.61332 0.62108 0.88434 0.0
H421 H 0.58233 0.6645 0.94114 0.0
H422 H 0.61106 0.69015 0.89063 0.0
H423 H 0.585 0.59598 0.93394 0.0
H424 H 0.57025 0.67474 0.9931 0.0
H425 H 0.52735 0.69859 0.95151 0.0
H426 H 0.68152 0.66213 0.90466 0.0
H427 H 0.64951 0.60734 0.94804 0.0
H428 H 0.59808 0.86233 0.90845 0.0
H429 H 0.57409 0.82733 0.95979 0.0
H430 H 0.59021 0.92919 0.91623 0.0
H431 H 0.56673 0.89486 0.96675 0.0
H432 H 0.63822 0.84705 0.90646 0.0
H433 H 0.63585 0.73647 0.88158 0.0
H434 H 0.64988 0.87365 0.8773 0.0
H435 H 0.64738 0.76518 0.85278 0.0
H436 H 0.68582 0.8389 0.94349 0.0
H437 H 0.64385 0.92438 0.95914 0.0
H438 H 0.56547 0.72103 0.85654 0.0
H439 H 0.59426 0.82887 0.84775 0.0
Li440 Li 0.90719 0.26009 0.93916 0.0
Li441 Li 0.87469 0.27112 0.92546 0.0
Li442 Li 0.88369 0.20795 0.93417 0.0
Li443 Li 0.89922 0.2382 0.90786 0.0
C444 C 0.88225 0.24271 0.96824 0.0
N445 N 0.88558 0.22286 0.00439 0.0
C446 C 0.86719 0.2512 0.9804 0.0
C447 C 0.89905 0.22435 0.9745 0.0
C448 C 0.86913 0.24083 0.99861 0.0
C449 C 0.90046 0.21453 0.99282 0.0
C450 C 0.90802 0.31357 0.90451 0.0
C451 C 0.90745 0.33992 0.87428 0.0
N452 N 0.92468 0.35783 0.87765 0.0
C453 C 0.92568 0.3324 0.90769 0.0
C454 C 0.89877 0.31753 0.88769 0.0
C455 C 0.93387 0.35461 0.89394 0.0
C456 C 0.94554 0.2849 0.94949 0.0
N457 N 0.92613 0.28621 0.95343 0.0
C458 C 0.93114 0.33786 0.97392 0.0
C459 C 0.91885 0.31157 0.96557 0.0
C460 C 0.95107 0.33871 0.96942 0.0
C461 C 0.95836 0.31127 0.95732 0.0
H462 H 0.95083 0.26507 0.93942 0.0
H463 H 0.90329 0.31283 0.968 0.0
C464 C 0.8385 0.29886 0.93673 0.0
N465 N 0.85352 0.30566 0.92512 0.0
C466 C 0.82234 0.32294 0.93708 0.0
C467 C 0.83758 0.3609 0.91366 0.0
C468 C 0.85343 0.33607 0.91379 0.0
C469 C 0.82176 0.3544 0.9254 0.0
H470 H 0.839 0.27442 0.94559 0.0
H471 H 0.86566 0.34125 0.90492 0.0
C472 C 0.9178 0.17212 0.92735 0.0
N473 N 0.92748 0.09598 0.92656 0.0
C474 C 0.91242 0.14964 0.91254 0.0
C475 C 0.92826 0.15596 0.94169 0.0
C476 C 0.9174 0.11118 0.91242 0.0
C477 C 0.93298 0.11739 0.94105 0.0
C478 C 0.85283 0.22868 0.90527 0.0
C479 C 0.83731 0.21649 0.91617 0.0
C480 C 0.8489 0.24644 0.8887 0.0
C481 C 0.81813 0.22222 0.91029 0.0
C482 C 0.82952 0.25173 0.88332 0.0
N483 N 0.81466 0.2396 0.89413 0.0
C484 C 0.86556 0.15283 0.95864 0.0
C485 C 0.86501 0.13989 0.92711 0.0
C486 C 0.85144 0.12481 0.96176 0.0
N487 N 0.87146 0.16089 0.94141 0.0
C488 C 0.85076 0.11203 0.92958 0.0
C489 C 0.8432 0.10538 0.94699 0.0
H490 H 0.87064 0.16964 0.96989 0.0
H491 H 0.86964 0.14703 0.9135 0.0
C492 C 0.92696 0.24591 0.87912 0.0
N493 N 0.90928 0.23131 0.88389 0.0
C494 C 0.93272 0.24634 0.86092 0.0
C495 C 0.90282 0.21353 0.85318 0.0
C496 C 0.8975 0.21433 0.87145 0.0
C497 C 0.92038 0.23065 0.84767 0.0
H498 H 0.93617 0.25884 0.88933 0.0
H499 H 0.88365 0.20243 0.87565 0.0
O500 O 0.88063 0.253 0.95041 0.0
O501 O 0.89995 0.29121 0.91775 0.0
O502 O 0.91271 0.20966 0.92785 0.0
O503 O 0.87174 0.224 0.91097 0.0
H504 H 0.85414 0.26562 0.97582 0.0
H505 H 0.91087 0.21782 0.96533 0.0
H506 H 0.85756 0.24711 0.00815 0.0
H507 H 0.91337 0.20026 0.99783 0.0
H508 H 0.90053 0.3429 0.86116 0.0
H509 H 0.93298 0.33002 0.92063 0.0
H510 H 0.88521 0.30292 0.88492 0.0
H511 H 0.94755 0.36927 0.89622 0.0
H512 H 0.92486 0.35889 0.98292 0.0
H513 H 0.97364 0.31108 0.95349 0.0
H514 H 0.81036 0.31674 0.94621 0.0
H515 H 0.83785 0.38522 0.90467 0.0
H516 H 0.90424 0.1616 0.90137 0.0
H517 H 0.93277 0.17297 0.95317 0.0
H518 H 0.9132 0.0934 0.9011 0.0
H519 H 0.94103 0.10449 0.95207 0.0
H520 H 0.83999 0.20348 0.92922 0.0
H521 H 0.86066 0.25625 0.88011 0.0
H522 H 0.80601 0.21309 0.91864 0.0
H523 H 0.82628 0.26553 0.87056 0.0
H524 H 0.84596 0.12051 0.9754 0.0
H525 H 0.84491 0.09735 0.91786 0.0
H526 H 0.94647 0.25947 0.8572 0.0
H527 H 0.89287 0.20125 0.84336 0.0
Li528 Li 0.60012 0.73394 0.59527 0.0
Li529 Li 0.61691 0.70644 0.56878 0.0
Li530 Li 0.62216 0.7737 0.57721 0.0
Li531 Li 0.59105 0.75351 0.56431 0.0
C532 C 0.64039 0.71857 0.60505 0.0
N533 N 0.66486 0.69958 0.63347 0.0
C534 C 0.64628 0.68092 0.60752 0.0
C535 C 0.64715 0.74662 0.61692 0.0
C536 C 0.6586 0.67188 0.622 0.0
C537 C 0.65945 0.73643 0.63124 0.0
C538 C 0.57961 0.67773 0.56323 0.0
C539 C 0.57579 0.6547 0.5326 0.0
N540 N 0.56173 0.63025 0.53841 0.0
C541 C 0.56514 0.65237 0.56889 0.0
C542 C 0.58501 0.67893 0.54494 0.0
C543 C 0.55626 0.62859 0.55614 0.0
C544 C 0.5752 0.74865 0.62456 0.0
N545 N 0.59065 0.72693 0.61942 0.0
C546 C 0.59493 0.7049 0.64984 0.0
C547 C 0.60006 0.7042 0.6315 0.0
C548 C 0.57982 0.72895 0.65577 0.0
C549 C 0.56953 0.75016 0.64275 0.0
H550 H 0.56779 0.7661 0.61464 0.0
H551 H 0.61199 0.6865 0.62708 0.0
C552 C 0.64831 0.67414 0.55139 0.0
N553 N 0.63172 0.66445 0.56038 0.0
C554 C 0.66253 0.64689 0.54768 0.0
C555 C 0.64208 0.59975 0.56214 0.0
C556 C 0.62811 0.62799 0.56543 0.0
C557 C 0.65978 0.60931 0.55353 0.0
H558 H 0.651 0.70356 0.54802 0.0
H559 H 0.61495 0.62128 0.57291 0.0
C560 C 0.59505 0.81847 0.59567 0.0
N561 N 0.5941 0.88503 0.61551 0.0
C562 C 0.5855 0.85048 0.58879 0.0
C563 C 0.60398 0.82029 0.6127 0.0
C564 C 0.58523 0.88388 0.599 0.0
C565 C 0.60336 0.85419 0.62251 0.0
C566 C 0.62005 0.77896 0.5395 0.0
C567 C 0.6119 0.81506 0.54155 0.0
C568 C 0.63098 0.7706 0.52399 0.0
C569 C 0.61483 0.84229 0.52805 0.0
C570 C 0.6336 0.79861 0.51079 0.0
N571 N 0.62554 0.83358 0.51307 0.0
C572 C 0.6605 0.79919 0.57983 0.0
C573 C 0.63767 0.84922 0.57612 0.0
C574 C 0.67595 0.82499 0.58023 0.0
N575 N 0.64181 0.81167 0.578 0.0
C576 C 0.6527 0.87596 0.57609 0.0
C577 C 0.67207 0.86383 0.57824 0.0
H578 H 0.66341 0.7691 0.58087 0.0
H579 H 0.62279 0.85853 0.57438 0.0
C580 C 0.55552 0.78955 0.56055 0.0
N581 N 0.56978 0.77305 0.55045 0.0
C582 C 0.5426 0.81524 0.55261 0.0
C583 C 0.55806 0.80372 0.52365 0.0
C584 C 0.57063 0.77793 0.53216 0.0
C585 C 0.54447 0.8242 0.53411 0.0
H586 H 0.55522 0.78514 0.57508 0.0
H587 H 0.58211 0.76442 0.52441 0.0
O588 O 0.62843 0.72793 0.59084 0.0
O589 O 0.58838 0.70109 0.57564 0.0
O590 O 0.59551 0.78555 0.5858 0.0
O591 O 0.61742 0.75181 0.55256 0.0
H592 H 0.64126 0.65884 0.59847 0.0
H593 H 0.64314 0.77602 0.61501 0.0
H594 H 0.66318 0.64282 0.62413 0.0
H595 H 0.66476 0.75786 0.64053 0.0
H596 H 0.57982 0.65533 0.51841 0.0
H597 H 0.56081 0.65109 0.58301 0.0
H598 H 0.5962 0.69823 0.54025 0.0
H599 H 0.54503 0.60883 0.56034 0.0
H600 H 0.60333 0.6881 0.65935 0.0
H601 H 0.55752 0.76845 0.64662 0.0
H602 H 0.67605 0.65571 0.54131 0.0
H603 H 0.63937 0.57108 0.56682 0.0
H604 H 0.57855 0.84971 0.57561 0.0
H605 H 0.61116 0.79571 0.61835 0.0
H606 H 0.57799 0.9089 0.5938 0.0
H607 H 0.61022 0.85594 0.63571 0.0
H608 H 0.60321 0.82186 0.55335 0.0
H609 H 0.63734 0.74274 0.52216 0.0
H610 H 0.60854 0.87031 0.52946 0.0
H611 H 0.64203 0.79254 0.49871 0.0
H612 H 0.69078 0.81468 0.58168 0.0
H613 H 0.64924 0.90578 0.57453 0.0
H614 H 0.53203 0.82962 0.56111 0.0
H615 H 0.56005 0.80969 0.50935 0.0
Li616 Li 0.88264 0.29314 0.56763 0.0
Li617 Li 0.90049 0.26335 0.59376 0.0
Li618 Li 0.90807 0.24556 0.56163 0.0
Li619 Li 0.87759 0.22817 0.5751 0.0
C620 C 0.91771 0.33264 0.57476 0.0
N621 N 0.9299 0.40734 0.57682 0.0
C622 C 0.91255 0.35497 0.58966 0.0
C623 C 0.92935 0.34813 0.56102 0.0
C624 C 0.91877 0.39273 0.59042 0.0
C625 C 0.93529 0.38599 0.56228 0.0
C626 C 0.85538 0.26306 0.5986 0.0
C627 C 0.83759 0.22947 0.62183 0.0
N628 N 0.82049 0.24052 0.61405 0.0
C629 C 0.83765 0.27422 0.59086 0.0
C630 C 0.8554 0.24063 0.61424 0.0
C631 C 0.82016 0.26249 0.59887 0.0
C632 C 0.85753 0.34059 0.54566 0.0
N633 N 0.86758 0.33769 0.56155 0.0
C634 C 0.84915 0.38914 0.57415 0.0
C635 C 0.86385 0.36176 0.57557 0.0
C636 C 0.83795 0.39155 0.55821 0.0
C637 C 0.84274 0.3676 0.54365 0.0
H638 H 0.85983 0.32044 0.53491 0.0
H639 H 0.8713 0.35797 0.58836 0.0
C640 C 0.92532 0.24758 0.62339 0.0
N641 N 0.90988 0.26887 0.61785 0.0
C642 C 0.93074 0.24708 0.64168 0.0
C643 C 0.9048 0.29177 0.64801 0.0
C644 C 0.89971 0.29097 0.62966 0.0
C645 C 0.92024 0.26903 0.65426 0.0
H646 H 0.93304 0.23009 0.6137 0.0
H647 H 0.88723 0.307 0.62493 0.0
C648 C 0.88261 0.26051 0.53291 0.0
N649 N 0.88521 0.28309 0.49709 0.0
C650 C 0.87068 0.2437 0.51978 0.0
C651 C 0.8959 0.2887 0.52782 0.0
C652 C 0.8722 0.25553 0.50173 0.0
C653 C 0.89698 0.29977 0.50965 0.0
C654 C 0.90819 0.17552 0.57838 0.0
C655 C 0.90056 0.1598 0.56245 0.0
C656 C 0.92115 0.1543 0.58896 0.0
C657 C 0.9061 0.12317 0.55734 0.0
C658 C 0.92633 0.11775 0.58338 0.0
N659 N 0.91878 0.10309 0.56781 0.0
C660 C 0.9456 0.21665 0.55652 0.0
C661 C 0.92522 0.20869 0.53079 0.0
C662 C 0.959 0.19044 0.54959 0.0
N663 N 0.9288 0.2243 0.54736 0.0
C664 C 0.93835 0.18281 0.52325 0.0
C665 C 0.95509 0.17223 0.53302 0.0
H666 H 0.94779 0.22846 0.56992 0.0
H667 H 0.91148 0.2135 0.52405 0.0
C668 C 0.84221 0.19523 0.5651 0.0
N669 N 0.85791 0.1906 0.57612 0.0
C670 C 0.82707 0.16878 0.56529 0.0
C671 C 0.84478 0.13296 0.58796 0.0
C672 C 0.85943 0.1605 0.58755 0.0
C673 C 0.82828 0.13689 0.57672 0.0
H674 H 0.84138 0.21978 0.55632 0.0
H675 H 0.87203 0.15782 0.5963 0.0
O676 O 0.9118 0.29558 0.57376 0.0
O677 O 0.87265 0.27336 0.59069 0.0
O678 O 0.88138 0.24883 0.55056 0.0
O679 O 0.90367 0.212 0.58328 0.0
H680 H 0.90373 0.34338 0.60047 0.0
H681 H 0.93386 0.33104 0.54956 0.0
H682 H 0.91475 0.4104 0.60184 0.0
H683 H 0.94424 0.39837 0.55172 0.0
H684 H 0.83737 0.2119 0.63387 0.0
H685 H 0.8374 0.29137 0.57867 0.0
H686 H 0.86903 0.23151 0.6203 0.0
H687 H 0.80631 0.27074 0.59298 0.0
H688 H 0.84603 0.40712 0.58572 0.0
H689 H 0.83427 0.36784 0.53123 0.0
H690 H 0.94278 0.22931 0.64599 0.0
H691 H 0.89618 0.30866 0.65733 0.0
H692 H 0.86038 0.22168 0.5235 0.0
H693 H 0.90521 0.30189 0.5378 0.0
H694 H 0.86306 0.24277 0.49142 0.0
H695 H 0.90718 0.32161 0.50553 0.0
H696 H 0.89066 0.17584 0.55398 0.0
H697 H 0.92727 0.16604 0.60128 0.0
H698 H 0.9004 0.11079 0.545 0.0
H699 H 0.93641 0.10108 0.5914 0.0
H700 H 0.97177 0.18309 0.55752 0.0
H701 H 0.9346 0.16895 0.5106 0.0
H702 H 0.81447 0.17357 0.5567 0.0
H703 H 0.84653 0.10869 0.59682 0.0
C704 C 0.31494 0.07469 0.06706 0.0
C705 C 0.32934 0.07057 0.05358 0.0
C706 C 0.29721 0.05516 0.06579 0.0
C707 C 0.27375 0.97185 0.04544 0.0
H708 H 0.22563 0.02719 0.054 0.0
C709 C 0.19913 0.89876 0.0366 0.0
C710 C 0.18465 0.90688 0.04954 0.0
C711 C 0.2161 0.92078 0.03559 0.0
C712 C 0.23891 0.01114 0.05177 0.0
H713 H 0.33655 0.0422 0.02838 0.0
H714 H 0.30559 0.00745 0.0263 0.0
H715 H 0.25691 0.06026 0.05576 0.0
H716 H 0.17627 0.94498 0.07122 0.0
H717 H 0.20606 0.98302 0.0698 0.0
H718 H 0.25598 0.92249 0.042 0.0
C719 C 0.30807 0.02594 0.03782 0.0
C720 C 0.25684 0.03016 0.05274 0.0
C721 C 0.32574 0.04589 0.03897 0.0
C722 C 0.18711 0.93838 0.06098 0.0
C723 C 0.20422 0.96016 0.06013 0.0
C724 C 0.25585 0.95271 0.04467 0.0
C725 C 0.29351 0.03076 0.0511 0.0
C726 C 0.27446 0.01069 0.04965 0.0
C727 C 0.21914 0.95116 0.04767 0.0
C728 C 0.23815 0.97205 0.04786 0.0
H729 H 0.31713 0.09393 0.07835 0.0
H730 H 0.28637 0.05917 0.07633 0.0
H731 H 0.2871 0.956 0.0432 0.0
H732 H 0.1975 0.8748 0.0275 0.0
H733 H 0.22697 0.91353 0.02549 0.0
C734 C 0.18519 0.5618 0.46386 0.0
C735 C 0.17711 0.57497 0.44748 0.0
C736 C 0.20297 0.54219 0.46397 0.0
C737 C 0.24773 0.52942 0.43644 0.0
H738 H 0.25725 0.44508 0.46905 0.0
C739 C 0.31655 0.43419 0.43204 0.0
C740 C 0.32487 0.42128 0.44837 0.0
C741 C 0.29903 0.45462 0.43212 0.0
C742 C 0.25492 0.46892 0.46002 0.0
H743 H 0.18132 0.57721 0.41832 0.0
H744 H 0.21197 0.5421 0.41846 0.0
H745 H 0.22518 0.47516 0.46855 0.0
H746 H 0.32173 0.42139 0.47764 0.0
H747 H 0.2912 0.4572 0.4778 0.0
H748 H 0.27745 0.52299 0.42785 0.0
C749 C 0.20472 0.54741 0.43127 0.0
C750 C 0.2365 0.48613 0.45972 0.0
C751 C 0.18695 0.56702 0.43116 0.0
C752 C 0.3156 0.43052 0.46482 0.0
C753 C 0.29806 0.45091 0.4649 0.0
C754 C 0.26613 0.51215 0.43673 0.0
C755 C 0.21312 0.5353 0.44769 0.0
C756 C 0.23265 0.51658 0.4479 0.0
C757 C 0.28937 0.46259 0.44854 0.0
C758 C 0.26995 0.48168 0.44852 0.0
H759 H 0.17794 0.56725 0.47666 0.0
H760 H 0.20905 0.53353 0.47688 0.0
H761 H 0.24542 0.55326 0.42742 0.0
H762 H 0.32308 0.42699 0.4191 0.0
H763 H 0.29265 0.46282 0.41926 0.0
C764 C 0.68441 0.9469 0.94744 0.0
C765 C 0.68346 0.9112 0.95583 0.0
C766 C 0.70131 0.96913 0.94887 0.0
C767 C 0.75439 0.95936 0.95903 0.0
H768 H 0.75318 0.06926 0.95654 0.0
C769 C 0.82388 0.0547 0.96316 0.0
C770 C 0.8253 0.08205 0.94934 0.0
C771 C 0.80655 0.03402 0.96555 0.0
C772 C 0.75372 0.03855 0.95723 0.0
H773 H 0.69883 0.87164 0.97318 0.0
H774 H 0.72797 0.91097 0.9764 0.0
H775 H 0.7226 0.03395 0.95883 0.0
H776 H 0.80962 0.10988 0.92751 0.0
H777 H 0.77942 0.07411 0.93179 0.0
H778 H 0.7856 0.96429 0.95763 0.0
C779 C 0.71605 0.9214 0.96813 0.0
C780 C 0.73619 0.01825 0.95845 0.0
C781 C 0.69929 0.89897 0.96645 0.0
C782 C 0.80905 0.08856 0.9381 0.0
C783 C 0.79169 0.06841 0.94067 0.0
C784 C 0.77192 0.97973 0.95808 0.0
C785 C 0.71754 0.95635 0.95895 0.0
C786 C 0.73624 0.9783 0.95908 0.0
C787 C 0.79024 0.04095 0.95441 0.0
C788 C 0.77175 0.01949 0.95687 0.0
H789 H 0.67248 0.95676 0.939 0.0
H790 H 0.70191 0.99557 0.94141 0.0
H791 H 0.75512 0.92867 0.95914 0.0
H792 H 0.83617 0.04922 0.97204 0.0
H793 H 0.80579 0.01307 0.97629 0.0
C794 C 0.68117 0.55897 0.56716 0.0
C795 C 0.67614 0.58166 0.55218 0.0
C796 C 0.69807 0.53667 0.56685 0.0
C797 C 0.74614 0.53103 0.54408 0.0
H798 H 0.74888 0.43281 0.56767 0.0
C799 C 0.81502 0.43506 0.54135 0.0
C800 C 0.82016 0.41584 0.55739 0.0
C801 C 0.79742 0.45518 0.54021 0.0
C802 C 0.74841 0.46038 0.56118 0.0
H803 H 0.68437 0.59713 0.52476 0.0
H804 H 0.71372 0.5578 0.52409 0.0
H805 H 0.7177 0.4661 0.56603 0.0
H806 H 0.81075 0.40296 0.58484 0.0
H807 H 0.78037 0.43866 0.58297 0.0
H808 H 0.77688 0.52529 0.53927 0.0
C809 C 0.70485 0.55792 0.53626 0.0
C810 C 0.73052 0.47946 0.56022 0.0
C811 C 0.68798 0.58032 0.5366 0.0
C812 C 0.80743 0.41784 0.57235 0.0
C813 C 0.78984 0.43785 0.5712 0.0
C814 C 0.76403 0.51189 0.545 0.0
C815 C 0.71034 0.53641 0.55152 0.0
C816 C 0.72917 0.51516 0.55177 0.0
C817 C 0.78451 0.45641 0.55505 0.0
C818 C 0.76541 0.47647 0.55368 0.0
H819 H 0.67254 0.5598 0.57948 0.0
H820 H 0.70193 0.52085 0.57892 0.0
H821 H 0.74575 0.55875 0.53774 0.0
H822 H 0.82453 0.43427 0.52961 0.0
H823 H 0.79371 0.46899 0.52754 0.0
C824 C 0.42519 0.21958 0.18257 0.0
C825 C 0.41743 0.24798 0.1713 0.0
C826 C 0.42646 0.22533 0.20133 0.0
C827 C 0.40268 0.27472 0.23821 0.0
H828 H 0.45095 0.26123 0.26497 0.0
C829 C 0.40549 0.30407 0.31492 0.0
C830 C 0.41681 0.27958 0.32572 0.0
C831 C 0.40704 0.30333 0.29601 0.0
C832 C 0.43726 0.26461 0.25779 0.0
H833 H 0.40475 0.30434 0.1707 0.0
H834 H 0.40655 0.31396 0.20354 0.0
H835 H 0.45063 0.25205 0.23212 0.0
H836 H 0.43956 0.23663 0.32487 0.0
H837 H 0.44137 0.23365 0.29208 0.0
H838 H 0.38896 0.28551 0.26367 0.0
C839 C 0.41188 0.28757 0.19784 0.0
C840 C 0.43715 0.25951 0.23896 0.0
C841 C 0.41096 0.28214 0.17909 0.0
C842 C 0.43023 0.2553 0.31707 0.0
C843 C 0.43153 0.25406 0.29815 0.0
C844 C 0.40268 0.27909 0.25704 0.0
C845 C 0.4196 0.25921 0.20912 0.0
C846 C 0.41986 0.26459 0.22903 0.0
C847 C 0.41972 0.27762 0.28732 0.0
C848 C 0.41997 0.27415 0.26713 0.0
H849 H 0.43029 0.19303 0.17686 0.0
H850 H 0.43237 0.20297 0.20981 0.0
H851 H 0.38911 0.2784 0.23083 0.0
H852 H 0.39487 0.323 0.32097 0.0
H853 H 0.39804 0.32261 0.28821 0.0
C854 C 0.07983 0.76889 0.32068 0.0
C855 C 0.08137 0.73245 0.32837 0.0
C856 C 0.07814 0.77351 0.30192 0.0
C857 C 0.06658 0.72177 0.2593 0.0
H858 H 0.09569 0.80397 0.23699 0.0
C859 C 0.08214 0.72973 0.18244 0.0
C860 C 0.08053 0.76527 0.17383 0.0
C861 C 0.08055 0.7266 0.20126 0.0
C862 C 0.08727 0.7812 0.24303 0.0
H863 H 0.08192 0.67223 0.32224 0.0
H864 H 0.07961 0.68033 0.28947 0.0
H865 H 0.09627 0.79644 0.26983 0.0
H866 H 0.07558 0.82535 0.17843 0.0
H867 H 0.07312 0.8199 0.21141 0.0
H868 H 0.05802 0.70607 0.23235 0.0
C869 C 0.07939 0.70536 0.298 0.0
C870 C 0.08757 0.77687 0.26188 0.0
C871 C 0.08096 0.70072 0.3168 0.0
C872 C 0.07715 0.79761 0.18459 0.0
C873 C 0.0757 0.7945 0.20348 0.0
C874 C 0.0664 0.72597 0.24043 0.0
C875 C 0.07812 0.74185 0.29031 0.0
C876 C 0.0773 0.74699 0.27026 0.0
C877 C 0.07748 0.75896 0.21201 0.0
C878 C 0.07682 0.75561 0.23209 0.0
H879 H 0.08039 0.79407 0.32909 0.0
H880 H 0.07692 0.80201 0.29653 0.0
H881 H 0.05824 0.69885 0.26529 0.0
H882 H 0.08519 0.70429 0.17469 0.0
H883 H 0.08231 0.69892 0.20745 0.0
C884 C 0.57803 0.73526 0.82088 0.0
C885 C 0.57586 0.77069 0.82946 0.0
C886 C 0.57576 0.73177 0.80213 0.0
C887 C 0.57916 0.78695 0.7601 0.0
H888 H 0.55328 0.69963 0.73883 0.0
C889 C 0.5719 0.77005 0.68262 0.0
C890 C 0.57577 0.73378 0.67547 0.0
C891 C 0.56959 0.7753 0.70129 0.0
C892 C 0.56069 0.72404 0.74455 0.0
H893 H 0.56911 0.83013 0.82498 0.0
H894 H 0.56532 0.82404 0.79213 0.0
H895 H 0.55337 0.70776 0.77172 0.0
H896 H 0.57957 0.67439 0.68239 0.0
H897 H 0.57604 0.68369 0.71499 0.0
H898 H 0.5869 0.80283 0.73304 0.0
C899 C 0.56893 0.79903 0.79999 0.0
C900 C 0.5607 0.72872 0.76339 0.0
C901 C 0.57112 0.80251 0.8188 0.0
C902 C 0.57681 0.70276 0.68744 0.0
C903 C 0.57455 0.70804 0.70613 0.0
C904 C 0.57921 0.78221 0.74127 0.0
C905 C 0.57135 0.76364 0.79144 0.0
C906 C 0.57012 0.76003 0.77139 0.0
C907 C 0.57118 0.74447 0.71331 0.0
C908 C 0.57014 0.7505 0.73327 0.0
H909 H 0.5821 0.71028 0.82857 0.0
H910 H 0.57807 0.70424 0.79594 0.0
H911 H 0.58679 0.81108 0.76585 0.0
H912 H 0.57124 0.79469 0.67385 0.0
H913 H 0.56675 0.80366 0.70632 0.0
C914 C 0.92628 0.23073 0.68232 0.0
C915 C 0.92445 0.26638 0.67397 0.0
C916 C 0.92858 0.22792 0.70112 0.0
C917 C 0.92037 0.28326 0.74335 0.0
H918 H 0.9494 0.20061 0.76529 0.0
C919 C 0.93027 0.26987 0.82087 0.0
C920 C 0.92497 0.2344 0.82809 0.0
C921 C 0.93259 0.27453 0.80216 0.0
C922 C 0.94123 0.2238 0.75932 0.0
H923 H 0.92441 0.32709 0.67858 0.0
H924 H 0.92912 0.32239 0.71133 0.0
H925 H 0.94955 0.20818 0.73236 0.0
H926 H 0.91871 0.17569 0.82151 0.0
H927 H 0.92306 0.18371 0.78876 0.0
H928 H 0.91225 0.29897 0.77039 0.0
C929 C 0.92817 0.29646 0.70349 0.0
C930 C 0.94122 0.22809 0.74045 0.0
C931 C 0.92559 0.29923 0.68471 0.0
C932 C 0.92274 0.20336 0.81629 0.0
C933 C 0.92533 0.2079 0.79759 0.0
C934 C 0.92062 0.27926 0.76221 0.0
C935 C 0.92937 0.26073 0.71201 0.0
C936 C 0.93056 0.25759 0.73217 0.0
C937 C 0.92992 0.24369 0.79031 0.0
C938 C 0.93085 0.24923 0.77038 0.0
H939 H 0.92518 0.20492 0.67439 0.0
H940 H 0.92908 0.19989 0.70713 0.0
H941 H 0.91167 0.30587 0.73754 0.0
H942 H 0.93189 0.29437 0.82964 0.0
H943 H 0.93624 0.30238 0.79691 0.0
C944 C 0.47121 0.39588 0.03776 0.0
C945 C 0.46313 0.37097 0.02485 0.0
C946 C 0.48036 0.42952 0.03234 0.0
C947 C 0.4818 0.49772 0.99432 0.0
H948 H 0.52869 0.53438 0.01813 0.0
C949 C 0.52651 0.62486 0.96725 0.0
C950 C 0.53503 0.64987 0.97987 0.0
C951 C 0.51706 0.59183 0.97304 0.0
C952 C 0.51544 0.52483 0.01151 0.0
H953 H 0.45899 0.36141 0.99604 0.0
H954 H 0.47503 0.42007 0.98656 0.0
H955 H 0.51449 0.47384 0.02731 0.0
H956 H 0.53967 0.66026 0.00854 0.0
H957 H 0.52304 0.60262 0.01867 0.0
H958 H 0.48274 0.54867 0.97851 0.0
C959 C 0.47399 0.41384 0.00092 0.0
C960 C 0.50732 0.49004 0.01675 0.0
C961 C 0.46485 0.38015 0.00635 0.0
C962 C 0.53343 0.64144 0.99846 0.0
C963 C 0.52396 0.60834 0.00426 0.0
C964 C 0.4899 0.53251 0.9891 0.0
C965 C 0.48164 0.43918 0.01386 0.0
C966 C 0.49043 0.476 0.00818 0.0
C967 C 0.51588 0.58287 0.99159 0.0
C968 C 0.50685 0.54647 0.99759 0.0
H969 H 0.46983 0.39016 0.05214 0.0
H970 H 0.48585 0.44858 0.04268 0.0
H971 H 0.46857 0.48812 0.98767 0.0
H972 H 0.52782 0.62994 0.95281 0.0
H973 H 0.51128 0.57262 0.96289 0.0
C974 C 0.02617 0.62382 0.03424 0.0
C975 C 0.0354 0.64857 0.02192 0.0
C976 C 0.01686 0.59087 0.02818 0.0
C977 C 0.01758 0.52173 0.99106 0.0
H978 H 0.96742 0.49069 0.01051 0.0
C979 C 0.97489 0.39147 0.96369 0.0
C980 C 0.96346 0.37052 0.97596 0.0
C981 C 0.98435 0.42473 0.96924 0.0
C982 C 0.98159 0.49855 0.00514 0.0
H983 H 0.04142 0.65829 0.99337 0.0
H984 H 0.02538 0.60031 0.98285 0.0
H985 H 0.98164 0.55099 0.01985 0.0
H986 H 0.95384 0.3668 0.0039 0.0
H987 H 0.9708 0.4241 0.01379 0.0
H988 H 0.01775 0.46903 0.97659 0.0
C989 C 0.02552 0.60651 0.99724 0.0
C990 C 0.98967 0.53328 0.01043 0.0
C991 C 0.03469 0.63974 0.00329 0.0
C992 C 0.9624 0.38259 0.9941 0.0
C993 C 0.972 0.41562 0.99971 0.0
C994 C 0.00957 0.48679 0.98587 0.0
C995 C 0.01667 0.58154 0.00966 0.0
C996 C 0.00776 0.54525 0.00348 0.0
C997 C 0.98272 0.43766 0.98726 0.0
C998 C 0.99148 0.47466 0.99288 0.0
H999 H 0.02679 0.62897 0.04871 0.0
H1000 H 0.0104 0.57197 0.03811 0.0
H1001 H 0.03169 0.52994 0.98566 0.0
H1002 H 0.97575 0.38318 0.94955 0.0
H1003 H 0.99228 0.44108 0.95921 0.0
C1004 C 0.52673 0.85744 0.50859 0.0
C1005 C 0.53408 0.85767 0.52641 0.0
C1006 C 0.51822 0.89014 0.50118 0.0
C1007 C 0.51741 0.99456 0.50687 0.0
H1008 H 0.47012 0.98931 0.47803 0.0
C1009 C 0.473 0.128 0.48696 0.0
C1010 C 0.46464 0.129 0.46954 0.0
C1011 C 0.4822 0.09508 0.4933 0.0
C1012 C 0.48348 0.99124 0.48585 0.0
H1013 H 0.53838 0.89277 0.55032 0.0
H1014 H 0.5232 0.94908 0.53761 0.0
H1015 H 0.48437 0.93109 0.49011 0.0
H1016 H 0.45946 0.09597 0.44513 0.0
H1017 H 0.47588 0.03911 0.456 0.0
H1018 H 0.51651 0.05467 0.50267 0.0
C1019 C 0.52412 0.92381 0.52928 0.0
C1020 C 0.49164 0.95784 0.49279 0.0
C1021 C 0.53256 0.89124 0.53667 0.0
C1022 C 0.466 0.09649 0.45851 0.0
C1023 C 0.47517 0.06362 0.46485 0.0
C1024 C 0.50927 0.02793 0.49993 0.0
C1025 C 0.51702 0.92383 0.5114 0.0
C1026 C 0.50862 0.95912 0.50349 0.0
C1027 C 0.48319 0.06234 0.48239 0.0
C1028 C 0.49215 0.02673 0.48941 0.0
H1029 H 0.52763 0.83205 0.50034 0.0
H1030 H 0.51299 0.88928 0.48732 0.0
H1031 H 0.53071 0.99651 0.51478 0.0
H1032 H 0.47231 0.15258 0.49577 0.0
H1033 H 0.48808 0.09499 0.50694 0.0
C1034 C 0.97183 0.11037 0.53927 0.0
C1035 C 0.96695 0.13929 0.52693 0.0
C1036 C 0.98097 0.07717 0.53328 0.0
C1037 C 0.00942 0.03607 0.49553 0.0
H1038 H 0.98849 0.94034 0.51286 0.0
C1039 C 0.03233 0.89377 0.4635 0.0
C1040 C 0.03556 0.86277 0.47516 0.0
C1041 C 0.0237 0.92709 0.46993 0.0
C1042 C 0.99469 0.96678 0.50805 0.0
H1043 H 0.96836 0.15658 0.49875 0.0
H1044 H 0.98443 0.0986 0.48827 0.0
H1045 H 0.975 -0.00011 0.52416 0.0
H1046 H 0.03167 0.84238 0.5027 0.0
H1047 H 0.01703 0.90087 0.51403 0.0
H1048 H 0.02922 0.00313 0.47954 0.0
C1049 C 0.98122 0.10166 0.50259 0.0
C1050 C 0.98695 0.00093 0.51453 0.0
C1051 C 0.97193 0.13476 0.50856 0.0
C1052 C 0.02955 0.86576 0.49336 0.0
C1053 C 0.02098 0.89921 0.49982 0.0
C1054 C 0.01724 0.00194 0.48913 0.0
C1055 C 0.98554 0.07221 0.51484 0.0
C1056 C 0.99417 0.03597 0.5083 0.0
C1057 C 0.01818 0.9305 0.48823 0.0
C1058 C 0.00991 0.96682 0.49523 0.0
H1059 H 0.96792 0.11275 0.55347 0.0
H1060 H 0.9843 0.05518 0.54308 0.0
H1061 H 0.01547 0.06259 0.49064 0.0
H1062 H 0.03703 0.89286 0.44947 0.0
H1063 H 0.02148 0.95033 0.46053 0.0
C1064 C 0.17935 0.55663 0.07147 0.0
C1065 C 0.18392 0.59541 0.07032 0.0
C1066 C 0.19413 0.52939 0.07035 0.0
C1067 C 0.24736 0.51929 0.07646 0.0
H1068 H 0.23957 0.42316 0.05185 0.0
C1069 C 0.29516 0.38095 0.05239 0.0
C1070 C 0.3063 0.37534 0.06818 0.0
C1071 C 0.28 0.40746 0.05217 0.0
C1072 C 0.24203 0.45002 0.05863 0.0
H1073 H 0.20723 0.6362 0.06626 0.0
H1074 H 0.23298 0.58876 0.06399 0.0
H1075 H 0.21361 0.47058 0.05155 0.0
H1076 H 0.31035 0.39335 0.0961 0.0
H1077 H 0.28355 0.43859 0.0959 0.0
H1078 H 0.27592 0.4993 0.08313 0.0
C1079 C 0.21812 0.57931 0.06628 0.0
C1080 C 0.22707 0.47698 0.05865 0.0
C1081 C 0.20339 0.60647 0.06755 0.0
C1082 C 0.30189 0.39663 0.08377 0.0
C1083 C 0.28669 0.42295 0.08358 0.0
C1084 C 0.26232 0.49247 0.07636 0.0
C1085 C 0.2137 0.54049 0.06792 0.0
C1086 C 0.22957 0.51189 0.0676 0.0
C1087 C 0.27565 0.42882 0.06776 0.0
C1088 C 0.25979 0.45746 0.06753 0.0
H1089 H 0.16443 0.54744 0.07371 0.0
H1090 H 0.19027 0.49973 0.07187 0.0
H1091 H 0.24968 0.54568 0.08369 0.0
H1092 H 0.29807 0.36469 0.04021 0.0
H1093 H 0.27188 0.41158 0.03971 0.0
C1094 C 0.30231 0.09334 0.41082 0.0
C1095 C 0.30896 0.1094 0.42716 0.0
C1096 C 0.28735 0.06643 0.41087 0.0
C1097 C 0.2473 0.02889 0.43971 0.0
H1098 H 0.24843 0.94564 0.40526 0.0
C1099 C 0.1965 0.89809 0.44366 0.0
C1100 C 0.18674 0.88845 0.4275 0.0
C1101 C 0.21122 0.92551 0.44363 0.0
C1102 C 0.24791 0.96891 0.41487 0.0
H1103 H 0.305 0.1096 0.4564 0.0
H1104 H 0.27966 0.06133 0.45655 0.0
H1105 H 0.27495 0.99191 0.40544 0.0
H1106 H 0.18466 0.90074 0.39867 0.0
H1107 H 0.21086 0.94771 0.3986 0.0
H1108 H 0.22048 0.00494 0.44943 0.0
C1109 C 0.28565 0.07024 0.44363 0.0
C1110 C 0.26303 0.99552 0.41494 0.0
C1111 C 0.30044 0.09752 0.44357 0.0
C1112 C 0.1921 0.90688 0.4113 0.0
C1113 C 0.20702 0.9339 0.41124 0.0
C1114 C 0.23234 0.00194 0.4398 0.0
C1115 C 0.27884 0.05451 0.42728 0.0
C1116 C 0.26287 0.02593 0.42732 0.0
C1117 C 0.21667 0.94343 0.42741 0.0
C1118 C 0.23251 0.97186 0.42734 0.0
H1119 H 0.30873 0.10136 0.39795 0.0
H1120 H 0.28231 0.05532 0.39799 0.0
H1121 H 0.24649 0.0523 0.4492 0.0
H1122 H 0.19305 0.88399 0.45632 0.0
H1123 H 0.21863 0.93217 0.45623 0.0
C1124 C 0.68879 0.58382 0.94258 0.0
C1125 C 0.68173 0.59884 0.92617 0.0
C1126 C 0.70309 0.55558 0.94251 0.0
C1127 C 0.74245 0.51764 0.91406 0.0
H1128 H 0.74028 0.43141 0.94673 0.0
C1129 C 0.79714 0.39439 0.90914 0.0
C1130 C 0.80483 0.38052 0.92551 0.0
C1131 C 0.7815 0.41976 0.90923 0.0
C1132 C 0.74116 0.45554 0.93766 0.0
H1133 H 0.68356 0.59503 0.89684 0.0
H1134 H 0.70859 0.54583 0.89673 0.0
H1135 H 0.71383 0.47795 0.94689 0.0
H1136 H 0.80219 0.38231 0.95483 0.0
H1137 H 0.77488 0.42679 0.955 0.0
H1138 H 0.76982 0.49556 0.90493 0.0
C1139 C 0.70328 0.55633 0.90964 0.0
C1140 C 0.72603 0.48212 0.93774 0.0
C1141 C 0.68897 0.58449 0.9097 0.0
C1142 C 0.79641 0.39217 0.94199 0.0
C1143 C 0.78077 0.41761 0.94208 0.0
C1144 C 0.75757 0.49114 0.914 0.0
C1145 C 0.71063 0.54188 0.92603 0.0
C1146 C 0.72652 0.51339 0.92592 0.0
C1147 C 0.77324 0.43184 0.9257 0.0
C1148 C 0.75708 0.45978 0.92577 0.0
H1149 H 0.68367 0.59465 0.95549 0.0
H1150 H 0.70865 0.54525 0.95536 0.0
H1151 H 0.74339 0.54184 0.90503 0.0
H1152 H 0.80312 0.3854 0.89622 0.0
H1153 H 0.7758 0.42975 0.89638 0.0
C1154 C 0.70198 0.89191 0.59221 0.0
C1155 C 0.68821 0.89155 0.57812 0.0
C1156 C 0.71719 0.91834 0.59214 0.0
C1157 C 0.73242 0.00935 0.57075 0.0
H1158 H 0.78327 0.98117 0.58972 0.0
C1159 C 0.80236 0.09881 0.56083 0.0
C1160 C 0.81245 0.10798 0.57689 0.0
C1161 C 0.78724 0.07223 0.56102 0.0
C1162 C 0.76909 0.98935 0.58447 0.0
H1163 H 0.67961 0.91752 0.55273 0.0
H1164 H 0.70658 0.96273 0.55215 0.0
H1165 H 0.75686 0.9346 0.58957 0.0
H1166 H 0.81439 0.09617 0.60578 0.0
H1167 H 0.78848 0.04856 0.60586 0.0
H1168 H 0.74504 0.06378 0.56511 0.0
C1169 C 0.70536 0.94364 0.56361 0.0
C1170 C 0.75392 0.96284 0.58446 0.0
C1171 C 0.68997 0.91766 0.56385 0.0
C1172 C 0.80722 0.0894 0.59309 0.0
C1173 C 0.79233 0.0623 0.5932 0.0
C1174 C 0.74769 0.0356 0.57046 0.0
C1175 C 0.71912 0.94448 0.5778 0.0
C1176 C 0.73535 0.97255 0.57767 0.0
C1177 C 0.78215 0.05375 0.5772 0.0
C1178 C 0.7661 0.02583 0.57738 0.0
H1179 H 0.70078 0.87216 0.60342 0.0
H1180 H 0.72725 0.91856 0.60348 0.0
H1181 H 0.71825 0.01817 0.56576 0.0
H1182 H 0.80624 0.11186 0.54802 0.0
H1183 H 0.77969 0.0657 0.54848 0.0
loop_
_geom_bond_atom_site_label_1
_geom_bond_atom_site_label_2
_geom_bond_distance
_geom_bond_site_symmetry_2
_ccdc_geom_bond_type
Li0 N17 1.990 . S
Li0 O60 1.956 . S
Li0 O61 1.970 . S
Li0 O62 1.961 . S
Li1 N25 1.990 . S
Li1 O60 1.970 . S
Li1 O61 1.956 . S
Li1 O63 1.961 . S
Li2 N47 1.990 . S
Li2 O60 1.961 . S
Li2 O62 1.956 . S
Li2 O63 1.970 . S
Li3 N53 1.990 . S
Li3 O61 1.961 . S
Li3 O62 1.970 . S
Li3 O63 1.956 . S
C4 C6 1.348 . S
C4 C7 1.356 . S
C4 O60 1.325 . S
N5 C8 1.314 . S
N5 C9 1.279 . S
C6 C4 1.348 . S
C6 C8 1.353 . S
C6 H64 0.929 . S
C7 C4 1.356 . S
C7 C9 1.358 . S
C7 H65 0.930 . S
C8 N5 1.314 . S
C8 C6 1.353 . S
C8 H66 0.930 . S
C9 N5 1.279 . S
C9 C7 1.358 . S
C9 H67 0.930 . S
C10 C13 1.348 . S
C10 C14 1.356 . S
C10 O61 1.325 . S
C11 N12 1.279 . S
C11 C14 1.358 . S
C11 H68 0.930 . S
N12 C11 1.279 . S
N12 C15 1.314 . S
C13 C10 1.348 . S
C13 C15 1.353 . S
C13 H69 0.929 . S
C14 C10 1.356 . S
C14 C11 1.358 . S
C14 H70 0.930 . S
C15 N12 1.314 . S
C15 C13 1.353 . S
C15 H71 0.930 . S
C16 N17 1.314 . S
C16 C21 1.353 . S
C16 H22 0.930 . S
N17 Li0 1.990 . S
N17 C16 1.314 . S
N17 C19 1.279 . S
C18 C19 1.358 . S
C18 C20 1.356 . S
C18 H72 0.930 . S
C19 N17 1.279 . S
C19 C18 1.358 . S
C19 H23 0.930 . S
C20 C18 1.356 . S
C20 C21 1.348 . S
C21 C16 1.353 . S
C21 C20 1.348 . S
C21 H73 0.929 . S
H22 C16 0.930 . S
H23 C19 0.930 . S
C24 N25 1.314 . S
C24 C26 1.353 . S
C24 H30 0.930 . S
N25 Li1 1.990 . S
N25 C24 1.314 . S
N25 C28 1.279 . S
C26 C24 1.353 . S
C26 C29 1.348 . S
C26 H74 0.929 . S
C27 C28 1.358 . S
C27 C29 1.356 . S
C27 H75 0.930 . S
C28 N25 1.279 . S
C28 C27 1.358 . S
C28 H31 0.930 . S
C29 C26 1.348 . S
C29 C27 1.356 . S
H30 C24 0.930 . S
H31 C28 0.930 . S
C32 C34 1.348 . S
C32 C35 1.356 . S
C32 O62 1.325 . S
N33 C36 1.314 1_556 S
N33 C37 1.279 . S
C34 C32 1.348 . S
C34 C36 1.353 . S
C34 H76 0.929 . S
C35 C32 1.356 . S
C35 C37 1.358 1_554 S
C35 H77 0.930 . S
C36 N33 1.314 1_554 S
C36 C34 1.353 . S
C36 H78 0.916 1_554 S
C37 N33 1.279 . S
C37 C35 1.358 1_556 S
C37 H79 0.930 . S
C38 C39 1.348 . S
C38 C40 1.356 . S
C38 O63 1.325 . S
C39 C38 1.348 . S
C39 C41 1.353 . S
C39 H80 0.929 . S
C40 C38 1.356 . S
C40 C42 1.358 . S
C40 H81 0.930 . S
C41 C39 1.353 . S
C41 N43 1.314 . S
C41 H82 0.930 . S
C42 C40 1.358 . S
C42 N43 1.279 . S
C42 H83 0.930 . S
N43 C41 1.314 . S
N43 C42 1.279 . S
C44 C46 1.353 . S
C44 N47 1.314 . S
C44 H50 0.930 . S
C45 N47 1.279 . S
C45 C48 1.358 . S
C45 H51 0.930 . S
C46 C44 1.353 . S
C46 C49 1.348 . S
C46 H84 0.929 . S
N47 Li2 1.990 . S
N47 C44 1.314 . S
N47 C45 1.279 . S
C48 C45 1.358 . S
C48 C49 1.356 . S
C48 H85 0.930 . S
C49 C46 1.348 . S
C49 C48 1.356 . S
H50 C44 0.930 . S
H51 C45 0.930 . S
C52 N53 1.314 . S
C52 C54 1.353 . S
C52 H58 0.930 . S
N53 Li3 1.990 . S
N53 C52 1.314 . S
N53 C56 1.279 . S
C54 C52 1.353 . S
C54 C57 1.348 . S
C54 H86 0.929 . S
C55 C56 1.358 . S
C55 C57 1.356 . S
C55 H87 0.930 . S
C56 N53 1.279 . S
C56 C55 1.358 . S
C56 H59 0.930 . S
C57 C54 1.348 . S
C57 C55 1.356 . S
H58 C52 0.930 . S
H59 C56 0.930 . S
O60 Li0 1.956 . S
O60 Li1 1.970 . S
O60 Li2 1.961 . S
O60 C4 1.325 . S
O61 Li0 1.970 . S
O61 Li1 1.956 . S
O61 Li3 1.961 . S
O61 C10 1.325 . S
O62 Li0 1.961 . S
O62 Li2 1.956 . S
O62 Li3 1.970 . S
O62 C32 1.325 . S
O63 Li1 1.961 . S
O63 Li2 1.970 . S
O63 Li3 1.956 . S
O63 C38 1.325 . S
H64 C6 0.929 . S
H65 C7 0.930 . S
H66 C8 0.930 . S
H67 C9 0.930 . S
H68 C11 0.930 . S
H69 C13 0.929 . S
H70 C14 0.930 . S
H71 C15 0.930 . S
H72 C18 0.930 . S
H73 C21 0.929 . S
H74 C26 0.929 . S
H75 C27 0.930 . S
H76 C34 0.929 . S
H77 C35 0.930 . S
H78 C36 0.916 1_556 S
H79 C37 0.930 . S
H80 C39 0.929 . S
H81 C40 0.930 . S
H82 C41 0.930 . S
H83 C42 0.930 . S
H84 C46 0.929 . S
H85 C48 0.930 . S
H86 C54 0.929 . S
H87 C55 0.930 . S
Li88 N105 1.990 . S
Li88 O148 1.956 . S
Li88 O149 1.970 . S
Li88 O150 1.961 . S
Li89 N113 1.990 . S
Li89 O148 1.970 . S
Li89 O149 1.956 . S
Li89 O151 1.961 . S
Li90 N135 1.990 . S
Li90 O148 1.961 . S
Li90 O150 1.956 . S
Li90 O151 1.970 . S
Li91 N141 1.990 . S
Li91 O149 1.961 . S
Li91 O150 1.970 . S
Li91 O151 1.956 . S
C92 C94 1.348 . S
C92 C95 1.356 . S
C92 O148 1.325 . S
N93 C96 1.314 . S
N93 C97 1.279 . S
C94 C92 1.348 . S
C94 C96 1.353 . S
C94 H152 0.929 . S
C95 C92 1.356 . S
C95 C97 1.358 . S
C95 H153 0.930 . S
C96 N93 1.314 . S
C96 C94 1.353 . S
C96 H154 0.930 . S
C97 N93 1.279 . S
C97 C95 1.358 . S
C97 H155 0.930 . S
C98 C101 1.348 . S
C98 C102 1.356 . S
C98 O149 1.325 . S
C99 N100 1.279 . S
C99 C102 1.358 . S
C99 H156 0.930 . S
N100 C99 1.279 . S
N100 C103 1.314 . S
C101 C98 1.348 . S
C101 C103 1.353 . S
C101 H157 0.929 . S
C102 C98 1.356 . S
C102 C99 1.358 . S
C102 H158 0.930 . S
C103 N100 1.314 . S
C103 C101 1.353 . S
C103 H159 0.930 . S
C104 N105 1.314 . S
C104 C109 1.353 . S
C104 H110 0.930 . S
N105 Li88 1.990 . S
N105 C104 1.314 . S
N105 C107 1.279 . S
C106 C107 1.358 . S
C106 C108 1.356 . S
C106 H160 0.930 . S
C107 N105 1.279 . S
C107 C106 1.358 . S
C107 H111 0.930 . S
C108 C106 1.356 . S
C108 C109 1.348 . S
C109 C104 1.353 . S
C109 C108 1.348 . S
C109 H161 0.929 . S
H110 C104 0.930 . S
H111 C107 0.930 . S
C112 N113 1.314 . S
C112 C114 1.353 . S
C112 H118 0.930 . S
N113 Li89 1.990 . S
N113 C112 1.314 . S
N113 C116 1.279 . S
C114 C112 1.353 . S
C114 C117 1.348 . S
C114 H162 0.929 . S
C115 C116 1.358 . S
C115 C117 1.356 . S
C115 H163 0.930 . S
C116 N113 1.279 . S
C116 C115 1.358 . S
C116 H119 0.930 . S
C117 C114 1.348 . S
C117 C115 1.356 . S
H118 C112 0.930 . S
H119 C116 0.930 . S
C120 C122 1.348 . S
C120 C123 1.356 . S
C120 O150 1.325 . S
N121 C124 1.314 1_556 S
N121 C125 1.279 . S
C122 C120 1.348 . S
C122 C124 1.353 . S
C122 H164 0.929 . S
C123 C120 1.356 . S
C123 C125 1.358 1_554 S
C123 H165 0.930 . S
C124 N121 1.314 1_554 S
C124 C122 1.353 . S
C124 H166 0.916 1_554 S
C125 N121 1.279 . S
C125 C123 1.358 1_556 S
C125 H167 0.930 . S
C126 C127 1.348 . S
C126 C128 1.356 . S
C126 O151 1.325 . S
C127 C126 1.348 . S
C127 C129 1.353 . S
C127 H168 0.929 . S
C128 C126 1.356 . S
C128 C130 1.358 . S
C128 H169 0.930 . S
C129 C127 1.353 . S
C129 N131 1.314 . S
C129 H170 0.930 . S
C130 C128 1.358 . S
C130 N131 1.279 . S
C130 H171 0.930 . S
N131 C129 1.314 . S
N131 C130 1.279 . S
C132 C134 1.353 . S
C132 N135 1.314 . S
C132 H138 0.930 . S
C133 N135 1.279 . S
C133 C136 1.358 . S
C133 H139 0.930 . S
C134 C132 1.353 . S
C134 C137 1.348 . S
C134 H172 0.929 . S
N135 Li90 1.990 . S
N135 C132 1.314 . S
N135 C133 1.279 . S
C136 C133 1.358 . S
C136 C137 1.356 . S
C136 H173 0.930 . S
C137 C134 1.348 . S
C137 C136 1.356 . S
H138 C132 0.930 . S
H139 C133 0.930 . S
C140 N141 1.314 . S
C140 C142 1.353 . S
C140 H146 0.930 . S
N141 Li91 1.990 . S
N141 C140 1.314 . S
N141 C144 1.279 . S
C142 C140 1.353 . S
C142 C145 1.348 . S
C142 H174 0.929 . S
C143 C144 1.358 . S
C143 C145 1.356 . S
C143 H175 0.930 . S
C144 N141 1.279 . S
C144 C143 1.358 . S
C144 H147 0.930 . S
C145 C142 1.348 . S
C145 C143 1.356 . S
H146 C140 0.930 . S
H147 C144 0.930 . S
O148 Li88 1.956 . S
O148 Li89 1.970 . S
O148 Li90 1.961 . S
O148 C92 1.325 . S
O149 Li88 1.970 . S
O149 Li89 1.956 . S
O149 Li91 1.961 . S
O149 C98 1.325 . S
O150 Li88 1.961 . S
O150 Li90 1.956 . S
O150 Li91 1.970 . S
O150 C120 1.325 . S
O151 Li89 1.961 . S
O151 Li90 1.970 . S
O151 Li91 1.956 . S
O151 C126 1.325 . S
H152 C94 0.929 . S
H153 C95 0.930 . S
H154 C96 0.930 . S
H155 C97 0.930 . S
H156 C99 0.930 . S
H157 C101 0.929 . S
H158 C102 0.930 . S
H159 C103 0.930 . S
H160 C106 0.930 . S
H161 C109 0.929 . S
H162 C114 0.929 . S
H163 C115 0.930 . S
H164 C122 0.929 . S
H165 C123 0.930 . S
H166 C124 0.916 1_556 S
H167 C125 0.930 . S
H168 C127 0.929 . S
H169 C128 0.930 . S
H170 C129 0.930 . S
H171 C130 0.930 . S
H172 C134 0.929 . S
H173 C136 0.930 . S
H174 C142 0.929 . S
H175 C143 0.930 . S
Li176 N193 1.990 . S
Li176 O236 1.956 . S
Li176 O237 1.970 . S
Li176 O238 1.961 . S
Li177 N201 1.990 . S
Li177 O236 1.970 . S
Li177 O237 1.956 . S
Li177 O239 1.961 . S
Li178 N223 1.990 . S
Li178 O236 1.961 . S
Li178 O238 1.956 . S
Li178 O239 1.970 . S
Li179 N229 1.990 . S
Li179 O237 1.961 . S
Li179 O238 1.970 . S
Li179 O239 1.956 . S
C180 C182 1.348 . S
C180 C183 1.356 . S
C180 O236 1.325 . S
N181 C184 1.314 . S
N181 C185 1.279 . S
C182 C180 1.348 . S
C182 C184 1.353 . S
C182 H240 0.929 . S
C183 C180 1.356 . S
C183 C185 1.358 . S
C183 H241 0.930 . S
C184 N181 1.314 . S
C184 C182 1.353 . S
C184 H242 0.930 . S
C185 N181 1.279 . S
C185 C183 1.358 . S
C185 H243 0.930 . S
C186 C189 1.348 . S
C186 C190 1.356 . S
C186 O237 1.325 . S
C187 N188 1.279 . S
C187 C190 1.358 . S
C187 H244 0.930 . S
N188 C187 1.279 . S
N188 C191 1.314 . S
C189 C186 1.348 . S
C189 C191 1.353 . S
C189 H245 0.929 . S
C190 C186 1.356 . S
C190 C187 1.358 . S
C190 H246 0.930 . S
C191 N188 1.314 . S
C191 C189 1.353 . S
C191 H247 0.930 . S
C192 N193 1.314 . S
C192 C197 1.353 . S
C192 H198 0.930 . S
N193 Li176 1.990 . S
N193 C192 1.314 . S
N193 C195 1.279 . S
C194 C195 1.358 . S
C194 C196 1.356 . S
C194 H248 0.930 . S
C195 N193 1.279 . S
C195 C194 1.358 . S
C195 H199 0.930 . S
C196 C194 1.356 . S
C196 C197 1.348 . S
C197 C192 1.353 . S
C197 C196 1.348 . S
C197 H249 0.929 . S
H198 C192 0.930 . S
H199 C195 0.930 . S
C200 N201 1.314 . S
C200 C202 1.353 . S
C200 H206 0.930 . S
N201 Li177 1.990 . S
N201 C200 1.314 . S
N201 C204 1.279 . S
C202 C200 1.353 . S
C202 C205 1.348 . S
C202 H250 0.929 . S
C203 C204 1.358 . S
C203 C205 1.356 . S
C203 H251 0.930 . S
C204 N201 1.279 . S
C204 C203 1.358 . S
C204 H207 0.930 . S
C205 C202 1.348 . S
C205 C203 1.356 . S
H206 C200 0.930 . S
H207 C204 0.930 . S
C208 C210 1.348 . S
C208 C211 1.356 . S
C208 O238 1.325 . S
N209 C212 1.314 . S
N209 C213 1.279 . S
C210 C208 1.348 . S
C210 C212 1.353 . S
C210 H252 0.929 . S
C211 C208 1.356 . S
C211 C213 1.358 . S
C211 H253 0.930 . S
C212 N209 1.314 . S
C212 C210 1.353 . S
C212 H254 0.930 . S
C213 N209 1.279 . S
C213 C211 1.358 . S
C213 H255 0.930 . S
C214 C215 1.348 . S
C214 C216 1.356 . S
C214 O239 1.325 . S
C215 C214 1.348 . S
C215 C217 1.353 . S
C215 H256 0.929 . S
C216 C214 1.356 . S
C216 C218 1.358 . S
C216 H257 0.930 . S
C217 C215 1.353 . S
C217 N219 1.314 . S
C217 H258 0.930 . S
C218 C216 1.358 . S
C218 N219 1.279 . S
C218 H259 0.930 . S
N219 C217 1.314 . S
N219 C218 1.279 . S
C220 C222 1.353 . S
C220 N223 1.314 . S
C220 H226 0.930 . S
C221 N223 1.279 . S
C221 C224 1.358 . S
C221 H227 0.930 . S
C222 C220 1.353 . S
C222 C225 1.348 . S
C222 H260 0.929 . S
N223 Li178 1.990 . S
N223 C220 1.314 . S
N223 C221 1.279 . S
C224 C221 1.358 . S
C224 C225 1.356 . S
C224 H261 0.930 . S
C225 C222 1.348 . S
C225 C224 1.356 . S
H226 C220 0.930 . S
H227 C221 0.930 . S
C228 N229 1.314 . S
C228 C230 1.353 . S
C228 H234 0.930 . S
N229 Li179 1.990 . S
N229 C228 1.314 . S
N229 C232 1.279 . S
C230 C228 1.353 . S
C230 C233 1.348 . S
C230 H262 0.929 . S
C231 C232 1.358 . S
C231 C233 1.356 . S
C231 H263 0.930 . S
C232 N229 1.279 . S
C232 C231 1.358 . S
C232 H235 0.930 . S
C233 C230 1.348 . S
C233 C231 1.356 . S
H234 C228 0.930 . S
H235 C232 0.930 . S
O236 Li176 1.956 . S
O236 Li177 1.970 . S
O236 Li178 1.961 . S
O236 C180 1.325 . S
O237 Li176 1.970 . S
O237 Li177 1.956 . S
O237 Li179 1.961 . S
O237 C186 1.325 . S
O238 Li176 1.961 . S
O238 Li178 1.956 . S
O238 Li179 1.970 . S
O238 C208 1.325 . S
O239 Li177 1.961 . S
O239 Li178 1.970 . S
O239 Li179 1.956 . S
O239 C214 1.325 . S
H240 C182 0.929 . S
H241 C183 0.930 . S
H242 C184 0.930 . S
H243 C185 0.930 . S
H244 C187 0.930 . S
H245 C189 0.929 . S
H246 C190 0.930 . S
H247 C191 0.930 . S
H248 C194 0.930 . S
H249 C197 0.929 . S
H250 C202 0.929 . S
H251 C203 0.930 . S
H252 C210 0.929 . S
H253 C211 0.930 . S
H254 C212 0.930 . S
H255 C213 0.930 . S
H256 C215 0.929 . S
H257 C216 0.930 . S
H258 C217 0.930 . S
H259 C218 0.930 . S
H260 C222 0.929 . S
H261 C224 0.930 . S
H262 C230 0.929 . S
H263 C231 0.930 . S
Li264 N281 1.990 . S
Li264 O324 1.956 . S
Li264 O325 1.970 . S
Li264 O326 1.961 . S
Li265 N289 1.990 . S
Li265 O324 1.970 . S
Li265 O325 1.956 . S
Li265 O327 1.961 . S
Li266 N311 1.990 . S
Li266 O324 1.961 . S
Li266 O326 1.956 . S
Li266 O327 1.970 . S
Li267 N317 1.990 . S
Li267 O325 1.961 . S
Li267 O326 1.970 . S
Li267 O327 1.956 . S
C268 C270 1.348 . S
C268 C271 1.356 . S
C268 O324 1.325 . S
N269 C272 1.314 . S
N269 C273 1.279 . S
C270 C268 1.348 . S
C270 C272 1.353 . S
C270 H328 0.929 . S
C271 C268 1.356 . S
C271 C273 1.358 . S
C271 H329 0.930 . S
C272 N269 1.314 . S
C272 C270 1.353 . S
C272 H330 0.930 . S
C273 N269 1.279 . S
C273 C271 1.358 . S
C273 H331 0.930 . S
C274 C277 1.348 . S
C274 C278 1.356 . S
C274 O325 1.325 . S
C275 N276 1.279 . S
C275 C278 1.358 . S
C275 H332 0.930 . S
N276 C275 1.279 . S
N276 C279 1.314 . S
C277 C274 1.348 . S
C277 C279 1.353 . S
C277 H333 0.929 . S
C278 C274 1.356 . S
C278 C275 1.358 . S
C278 H334 0.930 . S
C279 N276 1.314 . S
C279 C277 1.353 . S
C279 H335 0.930 . S
C280 N281 1.314 . S
C280 C285 1.353 . S
C280 H286 0.930 . S
N281 Li264 1.990 . S
N281 C280 1.314 . S
N281 C283 1.279 . S
C282 C283 1.358 . S
C282 C284 1.356 . S
C282 H336 0.930 . S
C283 N281 1.279 . S
C283 C282 1.358 . S
C283 H287 0.930 . S
C284 C282 1.356 . S
C284 C285 1.348 . S
C285 C280 1.353 . S
C285 C284 1.348 . S
C285 H337 0.929 . S
H286 C280 0.930 . S
H287 C283 0.930 . S
C288 N289 1.314 . S
C288 C290 1.353 . S
C288 H294 0.930 . S
N289 Li265 1.990 . S
N289 C288 1.314 . S
N289 C292 1.279 . S
C290 C288 1.353 . S
C290 C293 1.348 . S
C290 H338 0.929 . S
C291 C292 1.358 . S
C291 C293 1.356 . S
C291 H339 0.930 . S
C292 N289 1.279 . S
C292 C291 1.358 . S
C292 H295 0.930 . S
C293 C290 1.348 . S
C293 C291 1.356 . S
H294 C288 0.930 . S
H295 C292 0.930 . S
C296 C298 1.348 . S
C296 C299 1.356 . S
C296 O326 1.325 . S
N297 C300 1.314 . S
N297 C301 1.279 . S
C298 C296 1.348 . S
C298 C300 1.353 . S
C298 H340 0.929 . S
C299 C296 1.356 . S
C299 C301 1.358 . S
C299 H341 0.930 . S
C300 N297 1.314 . S
C300 C298 1.353 . S
C300 H342 0.930 . S
C301 N297 1.279 . S
C301 C299 1.358 . S
C301 H343 0.930 . S
C302 C303 1.348 . S
C302 C304 1.356 . S
C302 O327 1.325 . S
C303 C302 1.348 . S
C303 C305 1.353 . S
C303 H344 0.929 . S
C304 C302 1.356 . S
C304 C306 1.358 . S
C304 H345 0.930 . S
C305 C303 1.353 . S
C305 N307 1.314 . S
C305 H346 0.930 . S
C306 C304 1.358 . S
C306 N307 1.279 . S
C306 H347 0.930 . S
N307 C305 1.314 . S
N307 C306 1.279 . S
C308 C310 1.353 . S
C308 N311 1.314 . S
C308 H314 0.930 . S
C309 N311 1.279 . S
C309 C312 1.358 . S
C309 H315 0.930 . S
C310 C308 1.353 . S
C310 C313 1.348 . S
C310 H348 0.929 . S
N311 Li266 1.990 . S
N311 C308 1.314 . S
N311 C309 1.279 . S
C312 C309 1.358 . S
C312 C313 1.356 . S
C312 H349 0.930 . S
C313 C310 1.348 . S
C313 C312 1.356 . S
H314 C308 0.930 . S
H315 C309 0.930 . S
C316 N317 1.314 . S
C316 C318 1.353 . S
C316 H322 0.930 . S
N317 Li267 1.990 . S
N317 C316 1.314 . S
N317 C320 1.279 . S
C318 C316 1.353 . S
C318 C321 1.348 . S
C318 H350 0.929 . S
C319 C320 1.358 . S
C319 C321 1.356 . S
C319 H351 0.930 . S
C320 N317 1.279 . S
C320 C319 1.358 . S
C320 H323 0.930 . S
C321 C318 1.348 . S
C321 C319 1.356 . S
H322 C316 0.930 . S
H323 C320 0.930 . S
O324 Li264 1.956 . S
O324 Li265 1.970 . S
O324 Li266 1.961 . S
O324 C268 1.325 . S
O325 Li264 1.970 . S
O325 Li265 1.956 . S
O325 Li267 1.961 . S
O325 C274 1.325 . S
O326 Li264 1.961 . S
O326 Li266 1.956 . S
O326 Li267 1.970 . S
O326 C296 1.325 . S
O327 Li265 1.961 . S
O327 Li266 1.970 . S
O327 Li267 1.956 . S
O327 C302 1.325 . S
H328 C270 0.929 . S
H329 C271 0.930 . S
H330 C272 0.930 . S
H331 C273 0.930 . S
H332 C275 0.930 . S
H333 C277 0.929 . S
H334 C278 0.930 . S
H335 C279 0.930 . S
H336 C282 0.930 . S
H337 C285 0.929 . S
H338 C290 0.929 . S
H339 C291 0.930 . S
H340 C298 0.929 . S
H341 C299 0.930 . S
H342 C300 0.930 . S
H343 C301 0.930 . S
H344 C303 0.929 . S
H345 C304 0.930 . S
H346 C305 0.930 . S
H347 C306 0.930 . S
H348 C310 0.929 . S
H349 C312 0.930 . S
H350 C318 0.929 . S
H351 C319 0.930 . S
Li352 N369 1.990 . S
Li352 O412 1.956 . S
Li352 O413 1.970 . S
Li352 O414 1.961 . S
Li353 N377 1.990 . S
Li353 O412 1.970 . S
Li353 O413 1.956 . S
Li353 O415 1.961 . S
Li354 N399 1.990 . S
Li354 O412 1.961 . S
Li354 O414 1.956 . S
Li354 O415 1.970 . S
Li355 N405 1.990 . S
Li355 O413 1.961 . S
Li355 O414 1.970 . S
Li355 O415 1.956 . S
C356 C358 1.348 . S
C356 C359 1.356 . S
C356 O412 1.325 . S
N357 C360 1.314 1_554 S
N357 C361 1.279 . S
C358 C356 1.348 . S
C358 C360 1.353 . S
C358 H416 0.929 . S
C359 C356 1.356 . S
C359 C361 1.358 1_556 S
C359 H417 0.930 . S
C360 N357 1.314 1_556 S
C360 C358 1.353 . S
C360 H418 0.930 1_556 S
C361 N357 1.279 . S
C361 C359 1.358 1_554 S
C361 H419 0.930 . S
C362 C365 1.348 . S
C362 C366 1.356 . S
C362 O413 1.325 . S
C363 N364 1.279 . S
C363 C366 1.358 . S
C363 H420 0.930 . S
N364 C363 1.279 . S
N364 C367 1.314 . S
C365 C362 1.348 . S
C365 C367 1.353 . S
C365 H421 0.929 . S
C366 C362 1.356 . S
C366 C363 1.358 . S
C366 H422 0.930 . S
C367 N364 1.314 . S
C367 C365 1.353 . S
C367 H423 0.930 . S
C368 N369 1.314 . S
C368 C373 1.353 . S
C368 H374 0.930 . S
N369 Li352 1.990 . S
N369 C368 1.314 . S
N369 C371 1.279 . S
C370 C371 1.358 . S
C370 C372 1.356 . S
C370 H424 0.930 . S
C371 N369 1.279 . S
C371 C370 1.358 . S
C371 H375 0.930 . S
C372 C370 1.356 . S
C372 C373 1.348 . S
C373 C368 1.353 . S
C373 C372 1.348 . S
C373 H425 0.929 . S
H374 C368 0.930 . S
H375 C371 0.930 . S
C376 N377 1.314 . S
C376 C378 1.353 . S
C376 H382 0.930 . S
N377 Li353 1.990 . S
N377 C376 1.314 . S
N377 C380 1.279 . S
C378 C376 1.353 . S
C378 C381 1.348 . S
C378 H426 0.929 . S
C379 C380 1.358 . S
C379 C381 1.356 . S
C379 H427 0.930 . S
C380 N377 1.279 . S
C380 C379 1.358 . S
C380 H383 0.930 . S
C381 C378 1.348 . S
C381 C379 1.356 . S
H382 C376 0.930 . S
H383 C380 0.930 . S
C384 C386 1.348 . S
C384 C387 1.356 . S
C384 O414 1.325 . S
N385 C388 1.314 . S
N385 C389 1.279 . S
C386 C384 1.348 . S
C386 C388 1.353 . S
C386 H428 0.929 . S
C387 C384 1.356 . S
C387 C389 1.358 . S
C387 H429 0.930 . S
C388 N385 1.314 . S
C388 C386 1.353 . S
C388 H430 0.930 . S
C389 N385 1.279 . S
C389 C387 1.358 . S
C389 H431 0.930 . S
C390 C391 1.348 . S
C390 C392 1.356 . S
C390 O415 1.325 . S
C391 C390 1.348 . S
C391 C393 1.353 . S
C391 H432 0.929 . S
C392 C390 1.356 . S
C392 C394 1.358 . S
C392 H433 0.930 . S
C393 C391 1.353 . S
C393 N395 1.314 . S
C393 H434 0.930 . S
C394 C392 1.358 . S
C394 N395 1.279 . S
C394 H435 0.930 . S
N395 C393 1.314 . S
N395 C394 1.279 . S
C396 C398 1.353 . S
C396 N399 1.314 . S
C396 H402 0.930 . S
C397 N399 1.279 . S
C397 C400 1.358 . S
C397 H403 0.930 . S
C398 C396 1.353 . S
C398 C401 1.348 . S
C398 H436 0.929 . S
N399 Li354 1.990 . S
N399 C396 1.314 . S
N399 C397 1.279 . S
C400 C397 1.358 . S
C400 C401 1.356 . S
C400 H437 0.930 . S
C401 C398 1.348 . S
C401 C400 1.356 . S
H402 C396 0.930 . S
H403 C397 0.930 . S
C404 N405 1.314 . S
C404 C406 1.353 . S
C404 H410 0.930 . S
N405 Li355 1.990 . S
N405 C404 1.314 . S
N405 C408 1.279 . S
C406 C404 1.353 . S
C406 C409 1.348 . S
C406 H438 0.929 . S
C407 C408 1.358 . S
C407 C409 1.356 . S
C407 H439 0.930 . S
C408 N405 1.279 . S
C408 C407 1.358 . S
C408 H411 0.930 . S
C409 C406 1.348 . S
C409 C407 1.356 . S
H410 C404 0.930 . S
H411 C408 0.930 . S
O412 Li352 1.956 . S
O412 Li353 1.970 . S
O412 Li354 1.961 . S
O412 C356 1.325 . S
O413 Li352 1.970 . S
O413 Li353 1.956 . S
O413 Li355 1.961 . S
O413 C362 1.325 . S
O414 Li352 1.961 . S
O414 Li354 1.956 . S
O414 Li355 1.970 . S
O414 C384 1.325 . S
O415 Li353 1.961 . S
O415 Li354 1.970 . S
O415 Li355 1.956 . S
O415 C390 1.325 . S
H416 C358 0.929 . S
H417 C359 0.930 . S
H418 C360 0.930 1_554 S
H419 C361 0.930 . S
H420 C363 0.930 . S
H421 C365 0.929 . S
H422 C366 0.930 . S
H423 C367 0.930 . S
H424 C370 0.930 . S
H425 C373 0.929 . S
H426 C378 0.929 . S
H427 C379 0.930 . S
H428 C386 0.929 . S
H429 C387 0.930 . S
H430 C388 0.930 . S
H431 C389 0.930 . S
H432 C391 0.929 . S
H433 C392 0.930 . S
H434 C393 0.930 . S
H435 C394 0.930 . S
H436 C398 0.929 . S
H437 C400 0.930 . S
H438 C406 0.929 . S
H439 C407 0.930 . S
Li440 N457 1.990 . S
Li440 O500 1.956 . S
Li440 O501 1.970 . S
Li440 O502 1.961 . S
Li441 N465 1.990 . S
Li441 O500 1.970 . S
Li441 O501 1.956 . S
Li441 O503 1.961 . S
Li442 N487 1.990 . S
Li442 O500 1.961 . S
Li442 O502 1.956 . S
Li442 O503 1.970 . S
Li443 N493 1.990 . S
Li443 O501 1.961 . S
Li443 O502 1.970 . S
Li443 O503 1.956 . S
C444 C446 1.348 . S
C444 C447 1.356 . S
C444 O500 1.325 . S
N445 C448 1.314 1_554 S
N445 C449 1.279 . S
C446 C444 1.348 . S
C446 C448 1.353 . S
C446 H504 0.929 . S
C447 C444 1.356 . S
C447 C449 1.358 1_556 S
C447 H505 0.930 . S
C448 N445 1.314 1_556 S
C448 C446 1.353 . S
C448 H506 0.930 1_556 S
C449 N445 1.279 . S
C449 C447 1.358 1_554 S
C449 H507 0.930 . S
C450 C453 1.348 . S
C450 C454 1.356 . S
C450 O501 1.325 . S
C451 N452 1.279 . S
C451 C454 1.358 . S
C451 H508 0.930 . S
N452 C451 1.279 . S
N452 C455 1.314 . S
C453 C450 1.348 . S
C453 C455 1.353 . S
C453 H509 0.929 . S
C454 C450 1.356 . S
C454 C451 1.358 . S
C454 H510 0.930 . S
C455 N452 1.314 . S
C455 C453 1.353 . S
C455 H511 0.930 . S
C456 N457 1.314 . S
C456 C461 1.353 . S
C456 H462 0.930 . S
N457 Li440 1.990 . S
N457 C456 1.314 . S
N457 C459 1.279 . S
C458 C459 1.358 . S
C458 C460 1.356 . S
C458 H512 0.930 . S
C459 N457 1.279 . S
C459 C458 1.358 . S
C459 H463 0.930 . S
C460 C458 1.356 . S
C460 C461 1.348 . S
C461 C456 1.353 . S
C461 C460 1.348 . S
C461 H513 0.929 . S
H462 C456 0.930 . S
H463 C459 0.930 . S
C464 N465 1.314 . S
C464 C466 1.353 . S
C464 H470 0.930 . S
N465 Li441 1.990 . S
N465 C464 1.314 . S
N465 C468 1.279 . S
C466 C464 1.353 . S
C466 C469 1.348 . S
C466 H514 0.929 . S
C467 C468 1.358 . S
C467 C469 1.356 . S
C467 H515 0.930 . S
C468 N465 1.279 . S
C468 C467 1.358 . S
C468 H471 0.930 . S
C469 C466 1.348 . S
C469 C467 1.356 . S
H470 C464 0.930 . S
H471 C468 0.930 . S
C472 C474 1.348 . S
C472 C475 1.356 . S
C472 O502 1.325 . S
N473 C476 1.314 . S
N473 C477 1.279 . S
C474 C472 1.348 . S
C474 C476 1.353 . S
C474 H516 0.929 . S
C475 C472 1.356 . S
C475 C477 1.358 . S
C475 H517 0.930 . S
C476 N473 1.314 . S
C476 C474 1.353 . S
C476 H518 0.930 . S
C477 N473 1.279 . S
C477 C475 1.358 . S
C477 H519 0.930 . S
C478 C479 1.348 . S
C478 C480 1.356 . S
C478 O503 1.325 . S
C479 C478 1.348 . S
C479 C481 1.353 . S
C479 H520 0.929 . S
C480 C478 1.356 . S
C480 C482 1.358 . S
C480 H521 0.930 . S
C481 C479 1.353 . S
C481 N483 1.314 . S
C481 H522 0.930 . S
C482 C480 1.358 . S
C482 N483 1.279 . S
C482 H523 0.930 . S
N483 C481 1.314 . S
N483 C482 1.279 . S
C484 C486 1.353 . S
C484 N487 1.314 . S
C484 H490 0.930 . S
C485 N487 1.279 . S
C485 C488 1.358 . S
C485 H491 0.930 . S
C486 C484 1.353 . S
C486 C489 1.348 . S
C486 H524 0.929 . S
N487 Li442 1.990 . S
N487 C484 1.314 . S
N487 C485 1.279 . S
C488 C485 1.358 . S
C488 C489 1.356 . S
C488 H525 0.930 . S
C489 C486 1.348 . S
C489 C488 1.356 . S
H490 C484 0.930 . S
H491 C485 0.930 . S
C492 N493 1.314 . S
C492 C494 1.353 . S
C492 H498 0.930 . S
N493 Li443 1.990 . S
N493 C492 1.314 . S
N493 C496 1.279 . S
C494 C492 1.353 . S
C494 C497 1.348 . S
C494 H526 0.929 . S
C495 C496 1.358 . S
C495 C497 1.356 . S
C495 H527 0.930 . S
C496 N493 1.279 . S
C496 C495 1.358 . S
C496 H499 0.930 . S
C497 C494 1.348 . S
C497 C495 1.356 . S
H498 C492 0.930 . S
H499 C496 0.930 . S
O500 Li440 1.956 . S
O500 Li441 1.970 . S
O500 Li442 1.961 . S
O500 C444 1.325 . S
O501 Li440 1.970 . S
O501 Li441 1.956 . S
O501 Li443 1.961 . S
O501 C450 1.325 . S
O502 Li440 1.961 . S
O502 Li442 1.956 . S
O502 Li443 1.970 . S
O502 C472 1.325 . S
O503 Li441 1.961 . S
O503 Li442 1.970 . S
O503 Li443 1.956 . S
O503 C478 1.325 . S
H504 C446 0.929 . S
H505 C447 0.930 . S
H506 C448 0.930 1_554 S
H507 C449 0.930 . S
H508 C451 0.930 . S
H509 C453 0.929 . S
H510 C454 0.930 . S
H511 C455 0.930 . S
H512 C458 0.930 . S
H513 C461 0.929 . S
H514 C466 0.929 . S
H515 C467 0.930 . S
H516 C474 0.929 . S
H517 C475 0.930 . S
H518 C476 0.930 . S
H519 C477 0.930 . S
H520 C479 0.929 . S
H521 C480 0.930 . S
H522 C481 0.930 . S
H523 C482 0.930 . S
H524 C486 0.929 . S
H525 C488 0.930 . S
H526 C494 0.929 . S
H527 C495 0.930 . S
Li528 N545 1.990 . S
Li528 O588 1.956 . S
Li528 O589 1.970 . S
Li528 O590 1.961 . S
Li529 N553 1.990 . S
Li529 O588 1.970 . S
Li529 O589 1.956 . S
Li529 O591 1.961 . S
Li530 N575 1.990 . S
Li530 O588 1.961 . S
Li530 O590 1.956 . S
Li530 O591 1.970 . S
Li531 N581 1.990 . S
Li531 O589 1.961 . S
Li531 O590 1.970 . S
Li531 O591 1.956 . S
C532 C534 1.348 . S
C532 C535 1.356 . S
C532 O588 1.325 . S
N533 C536 1.314 . S
N533 C537 1.279 . S
C534 C532 1.348 . S
C534 C536 1.353 . S
C534 H592 0.929 . S
C535 C532 1.356 . S
C535 C537 1.358 . S
C535 H593 0.930 . S
C536 N533 1.314 . S
C536 C534 1.353 . S
C536 H594 0.930 . S
C537 N533 1.279 . S
C537 C535 1.358 . S
C537 H595 0.930 . S
C538 C541 1.348 . S
C538 C542 1.356 . S
C538 O589 1.325 . S
C539 N540 1.279 . S
C539 C542 1.358 . S
C539 H596 0.930 . S
N540 C539 1.279 . S
N540 C543 1.314 . S
C541 C538 1.348 . S
C541 C543 1.353 . S
C541 H597 0.929 . S
C542 C538 1.356 . S
C542 C539 1.358 . S
C542 H598 0.930 . S
C543 N540 1.314 . S
C543 C541 1.353 . S
C543 H599 0.930 . S
C544 N545 1.314 . S
C544 C549 1.353 . S
C544 H550 0.930 . S
N545 Li528 1.990 . S
N545 C544 1.314 . S
N545 C547 1.279 . S
C546 C547 1.358 . S
C546 C548 1.356 . S
C546 H600 0.930 . S
C547 N545 1.279 . S
C547 C546 1.358 . S
C547 H551 0.930 . S
C548 C546 1.356 . S
C548 C549 1.348 . S
C549 C544 1.353 . S
C549 C548 1.348 . S
C549 H601 0.929 . S
H550 C544 0.930 . S
H551 C547 0.930 . S
C552 N553 1.314 . S
C552 C554 1.353 . S
C552 H558 0.930 . S
N553 Li529 1.990 . S
N553 C552 1.314 . S
N553 C556 1.279 . S
C554 C552 1.353 . S
C554 C557 1.348 . S
C554 H602 0.929 . S
C555 C556 1.358 . S
C555 C557 1.356 . S
C555 H603 0.930 . S
C556 N553 1.279 . S
C556 C555 1.358 . S
C556 H559 0.930 . S
C557 C554 1.348 . S
C557 C555 1.356 . S
H558 C552 0.930 . S
H559 C556 0.930 . S
C560 C562 1.348 . S
C560 C563 1.356 . S
C560 O590 1.325 . S
N561 C564 1.314 . S
N561 C565 1.279 . S
C562 C560 1.348 . S
C562 C564 1.353 . S
C562 H604 0.929 . S
C563 C560 1.356 . S
C563 C565 1.358 . S
C563 H605 0.930 . S
C564 N561 1.314 . S
C564 C562 1.353 . S
C564 H606 0.930 . S
C565 N561 1.279 . S
C565 C563 1.358 . S
C565 H607 0.930 . S
C566 C567 1.348 . S
C566 C568 1.356 . S
C566 O591 1.325 . S
C567 C566 1.348 . S
C567 C569 1.353 . S
C567 H608 0.929 . S
C568 C566 1.356 . S
C568 C570 1.358 . S
C568 H609 0.930 . S
C569 C567 1.353 . S
C569 N571 1.314 . S
C569 H610 0.930 . S
C570 C568 1.358 . S
C570 N571 1.279 . S
C570 H611 0.930 . S
N571 C569 1.314 . S
N571 C570 1.279 . S
C572 C574 1.353 . S
C572 N575 1.314 . S
C572 H578 0.930 . S
C573 N575 1.279 . S
C573 C576 1.358 . S
C573 H579 0.930 . S
C574 C572 1.353 . S
C574 C577 1.348 . S
C574 H612 0.929 . S
N575 Li530 1.990 . S
N575 C572 1.314 . S
N575 C573 1.279 . S
C576 C573 1.358 . S
C576 C577 1.356 . S
C576 H613 0.930 . S
C577 C574 1.348 . S
C577 C576 1.356 . S
H578 C572 0.930 . S
H579 C573 0.930 . S
C580 N581 1.314 . S
C580 C582 1.353 . S
C580 H586 0.930 . S
N581 Li531 1.990 . S
N581 C580 1.314 . S
N581 C584 1.279 . S
C582 C580 1.353 . S
C582 C585 1.348 . S
C582 H614 0.929 . S
C583 C584 1.358 . S
C583 C585 1.356 . S
C583 H615 0.930 . S
C584 N581 1.279 . S
C584 C583 1.358 . S
C584 H587 0.930 . S
C585 C582 1.348 . S
C585 C583 1.356 . S
H586 C580 0.930 . S
H587 C584 0.930 . S
O588 Li528 1.956 . S
O588 Li529 1.970 . S
O588 Li530 1.961 . S
O588 C532 1.325 . S
O589 Li528 1.970 . S
O589 Li529 1.956 . S
O589 Li531 1.961 . S
O589 C538 1.325 . S
O590 Li528 1.961 . S
O590 Li530 1.956 . S
O590 Li531 1.970 . S
O590 C560 1.325 . S
O591 Li529 1.961 . S
O591 Li530 1.970 . S
O591 Li531 1.956 . S
O591 C566 1.325 . S
H592 C534 0.929 . S
H593 C535 0.930 . S
H594 C536 0.930 . S
H595 C537 0.930 . S
H596 C539 0.930 . S
H597 C541 0.929 . S
H598 C542 0.930 . S
H599 C543 0.930 . S
H600 C546 0.930 . S
H601 C549 0.929 . S
H602 C554 0.929 . S
H603 C555 0.930 . S
H604 C562 0.929 . S
H605 C563 0.930 . S
H606 C564 0.930 . S
H607 C565 0.930 . S
H608 C567 0.929 . S
H609 C568 0.930 . S
H610 C569 0.930 . S
H611 C570 0.930 . S
H612 C574 0.929 . S
H613 C576 0.930 . S
H614 C582 0.929 . S
H615 C583 0.930 . S
Li616 N633 1.990 . S
Li616 O676 1.956 . S
Li616 O677 1.970 . S
Li616 O678 1.961 . S
Li617 N641 1.990 . S
Li617 O676 1.970 . S
Li617 O677 1.956 . S
Li617 O679 1.961 . S
Li618 N663 1.990 . S
Li618 O676 1.961 . S
Li618 O678 1.956 . S
Li618 O679 1.970 . S
Li619 N669 1.990 . S
Li619 O677 1.961 . S
Li619 O678 1.970 . S
Li619 O679 1.956 . S
C620 C622 1.348 . S
C620 C623 1.356 . S
C620 O676 1.325 . S
N621 C624 1.314 . S
N621 C625 1.279 . S
C622 C620 1.348 . S
C622 C624 1.353 . S
C622 H680 0.929 . S
C623 C620 1.356 . S
C623 C625 1.358 . S
C623 H681 0.930 . S
C624 N621 1.314 . S
C624 C622 1.353 . S
C624 H682 0.930 . S
C625 N621 1.279 . S
C625 C623 1.358 . S
C625 H683 0.930 . S
C626 C629 1.348 . S
C626 C630 1.356 . S
C626 O677 1.325 . S
C627 N628 1.279 . S
C627 C630 1.358 . S
C627 H684 0.930 . S
N628 C627 1.279 . S
N628 C631 1.314 . S
C629 C626 1.348 . S
C629 C631 1.353 . S
C629 H685 0.929 . S
C630 C626 1.356 . S
C630 C627 1.358 . S
C630 H686 0.930 . S
C631 N628 1.314 . S
C631 C629 1.353 . S
C631 H687 0.930 . S
C632 N633 1.314 . S
C632 C637 1.353 . S
C632 H638 0.930 . S
N633 Li616 1.990 . S
N633 C632 1.314 . S
N633 C635 1.279 . S
C634 C635 1.358 . S
C634 C636 1.356 . S
C634 H688 0.930 . S
C635 N633 1.279 . S
C635 C634 1.358 . S
C635 H639 0.930 . S
C636 C634 1.356 . S
C636 C637 1.348 . S
C637 C632 1.353 . S
C637 C636 1.348 . S
C637 H689 0.929 . S
H638 C632 0.930 . S
H639 C635 0.930 . S
C640 N641 1.314 . S
C640 C642 1.353 . S
C640 H646 0.930 . S
N641 Li617 1.990 . S
N641 C640 1.314 . S
N641 C644 1.279 . S
C642 C640 1.353 . S
C642 C645 1.348 . S
C642 H690 0.929 . S
C643 C644 1.358 . S
C643 C645 1.356 . S
C643 H691 0.930 . S
C644 N641 1.279 . S
C644 C643 1.358 . S
C644 H647 0.930 . S
C645 C642 1.348 . S
C645 C643 1.356 . S
H646 C640 0.930 . S
H647 C644 0.930 . S
C648 C650 1.348 . S
C648 C651 1.356 . S
C648 O678 1.325 . S
N649 C652 1.314 . S
N649 C653 1.279 . S
C650 C648 1.348 . S
C650 C652 1.353 . S
C650 H692 0.929 . S
C651 C648 1.356 . S
C651 C653 1.358 . S
C651 H693 0.930 . S
C652 N649 1.314 . S
C652 C650 1.353 . S
C652 H694 0.930 . S
C653 N649 1.279 . S
C653 C651 1.358 . S
C653 H695 0.930 . S
C654 C655 1.348 . S
C654 C656 1.356 . S
C654 O679 1.325 . S
C655 C654 1.348 . S
C655 C657 1.353 . S
C655 H696 0.929 . S
C656 C654 1.356 . S
C656 C658 1.358 . S
C656 H697 0.930 . S
C657 C655 1.353 . S
C657 N659 1.314 . S
C657 H698 0.930 . S
C658 C656 1.358 . S
C658 N659 1.279 . S
C658 H699 0.930 . S
N659 C657 1.314 . S
N659 C658 1.279 . S
C660 C662 1.353 . S
C660 N663 1.314 . S
C660 H666 0.930 . S
C661 N663 1.279 . S
C661 C664 1.358 . S
C661 H667 0.930 . S
C662 C660 1.353 . S
C662 C665 1.348 . S
C662 H700 0.929 . S
N663 Li618 1.990 . S
N663 C660 1.314 . S
N663 C661 1.279 . S
C664 C661 1.358 . S
C664 C665 1.356 . S
C664 H701 0.930 . S
C665 C662 1.348 . S
C665 C664 1.356 . S
H666 C660 0.930 . S
H667 C661 0.930 . S
C668 N669 1.314 . S
C668 C670 1.353 . S
C668 H674 0.930 . S
N669 Li619 1.990 . S
N669 C668 1.314 . S
N669 C672 1.279 . S
C670 C668 1.353 . S
C670 C673 1.348 . S
C670 H702 0.929 . S
C671 C672 1.358 . S
C671 C673 1.356 . S
C671 H703 0.930 . S
C672 N669 1.279 . S
C672 C671 1.358 . S
C672 H675 0.930 . S
C673 C670 1.348 . S
C673 C671 1.356 . S
H674 C668 0.930 . S
H675 C672 0.930 . S
O676 Li616 1.956 . S
O676 Li617 1.970 . S
O676 Li618 1.961 . S
O676 C620 1.325 . S
O677 Li616 1.970 . S
O677 Li617 1.956 . S
O677 Li619 1.961 . S
O677 C626 1.325 . S
O678 Li616 1.961 . S
O678 Li618 1.956 . S
O678 Li619 1.970 . S
O678 C648 1.325 . S
O679 Li617 1.961 . S
O679 Li618 1.970 . S
O679 Li619 1.956 . S
O679 C654 1.325 . S
H680 C622 0.929 . S
H681 C623 0.930 . S
H682 C624 0.930 . S
H683 C625 0.930 . S
H684 C627 0.930 . S
H685 C629 0.929 . S
H686 C630 0.930 . S
H687 C631 0.930 . S
H688 C634 0.930 . S
H689 C637 0.929 . S
H690 C642 0.929 . S
H691 C643 0.930 . S
H692 C650 0.929 . S
H693 C651 0.930 . S
H694 C652 0.930 . S
H695 C653 0.930 . S
H696 C655 0.929 . S
H697 C656 0.930 . S
H698 C657 0.930 . S
H699 C658 0.930 . S
H700 C662 0.929 . S
H701 C664 0.930 . S
H702 C670 0.929 . S
H703 C671 0.930 . S
C704 C705 1.349 . S
C704 C706 1.327 . S
C704 H729 0.950 . S
C705 C704 1.349 . S
C705 C721 1.349 . S
C706 C704 1.327 . S
C706 C725 1.429 . S
C706 H730 0.950 . S
C707 C724 1.574 . S
C707 C726 1.368 1_565 S
C707 H731 0.949 . S
H708 C712 0.949 . S
C709 C710 1.349 . S
C709 C711 1.327 . S
C709 H732 0.950 . S
C710 C709 1.349 . S
C710 C722 1.349 . S
C711 C709 1.327 . S
C711 C727 1.429 . S
C711 H733 0.950 . S
C712 H708 0.949 . S
C712 C720 1.574 . S
C712 C728 1.368 1_545 S
H713 C721 0.950 . S
H714 C719 0.950 . S
H715 C720 0.949 . S
H716 C722 0.950 . S
H717 C723 0.950 . S
H718 C724 0.949 . S
C719 H714 0.950 . S
C719 C721 1.327 . S
C719 C725 1.429 . S
C720 C712 1.574 . S
C720 H715 0.949 . S
C720 C726 1.368 . S
C721 C705 1.349 . S
C721 H713 0.950 . S
C721 C719 1.327 . S
C722 C710 1.349 . S
C722 H716 0.950 . S
C722 C723 1.327 . S
C723 H717 0.950 . S
C723 C722 1.327 . S
C723 C727 1.429 . S
C724 C707 1.574 . S
C724 H718 0.949 . S
C724 C728 1.368 . S
C725 C706 1.429 . S
C725 C719 1.429 . S
C725 C726 1.523 . S
C726 C707 1.368 1_545 S
C726 C720 1.368 . S
C726 C725 1.523 . S
C727 C711 1.429 . S
C727 C723 1.429 . S
C727 C728 1.523 . S
C728 C712 1.368 1_565 S
C728 C724 1.368 . S
C728 C727 1.523 . S
H729 C704 0.950 . S
H730 C706 0.950 . S
H731 C707 0.949 . S
H732 C709 0.950 . S
H733 C711 0.950 . S
C734 C735 1.349 . S
C734 C736 1.327 . S
C734 H759 0.950 . S
C735 C734 1.349 . S
C735 C751 1.349 . S
C736 C734 1.327 . S
C736 C755 1.429 . S
C736 H760 0.950 . S
C737 C754 1.574 . S
C737 C756 1.368 . S
C737 H761 0.949 . S
H738 C742 0.949 . S
C739 C740 1.349 . S
C739 C741 1.327 . S
C739 H762 0.950 . S
C740 C739 1.349 . S
C740 C752 1.349 . S
C741 C739 1.327 . S
C741 C757 1.429 . S
C741 H763 0.950 . S
C742 H738 0.949 . S
C742 C750 1.574 . S
C742 C758 1.368 . S
H743 C751 0.950 . S
H744 C749 0.950 . S
H745 C750 0.949 . S
H746 C752 0.950 . S
H747 C753 0.950 . S
H748 C754 0.949 . S
C749 H744 0.950 . S
C749 C751 1.327 . S
C749 C755 1.429 . S
C750 C742 1.574 . S
C750 H745 0.949 . S
C750 C756 1.368 . S
C751 C735 1.349 . S
C751 H743 0.950 . S
C751 C749 1.327 . S
C752 C740 1.349 . S
C752 H746 0.950 . S
C752 C753 1.327 . S
C753 H747 0.950 . S
C753 C752 1.327 . S
C753 C757 1.429 . S
C754 C737 1.574 . S
C754 H748 0.949 . S
C754 C758 1.368 . S
C755 C736 1.429 . S
C755 C749 1.429 . S
C755 C756 1.523 . S
C756 C737 1.368 . S
C756 C750 1.368 . S
C756 C755 1.523 . S
C757 C741 1.429 . S
C757 C753 1.429 . S
C757 C758 1.523 . S
C758 C742 1.368 . S
C758 C754 1.368 . S
C758 C757 1.523 . S
H759 C734 0.950 . S
H760 C736 0.950 . S
H761 C737 0.949 . S
H762 C739 0.950 . S
H763 C741 0.950 . S
C764 C765 1.349 . S
C764 C766 1.327 . S
C764 H789 0.950 . S
C765 C764 1.349 . S
C765 C781 1.349 . S
C766 C764 1.327 . S
C766 C785 1.429 . S
C766 H790 0.950 . S
C767 C784 1.574 . S
C767 C786 1.368 . S
C767 H791 0.949 . S
H768 C772 0.949 . S
C769 C770 1.349 . S
C769 C771 1.327 . S
C769 H792 0.950 . S
C770 C769 1.349 . S
C770 C782 1.349 . S
C771 C769 1.327 . S
C771 C787 1.429 . S
C771 H793 0.950 . S
C772 H768 0.949 . S
C772 C780 1.574 . S
C772 C788 1.368 . S
H773 C781 0.950 . S
H774 C779 0.950 . S
H775 C780 0.949 . S
H776 C782 0.950 . S
H777 C783 0.950 . S
H778 C784 0.949 . S
C779 H774 0.950 . S
C779 C781 1.327 . S
C779 C785 1.429 . S
C780 C772 1.574 . S
C780 H775 0.949 . S
C780 C786 1.368 1_545 S
C781 C765 1.349 . S
C781 H773 0.950 . S
C781 C779 1.327 . S
C782 C770 1.349 . S
C782 H776 0.950 . S
C782 C783 1.327 . S
C783 H777 0.950 . S
C783 C782 1.327 . S
C783 C787 1.429 . S
C784 C767 1.574 . S
C784 H778 0.949 . S
C784 C788 1.368 1_565 S
C785 C766 1.429 . S
C785 C779 1.429 . S
C785 C786 1.523 . S
C786 C767 1.368 . S
C786 C780 1.368 1_565 S
C786 C785 1.523 . S
C787 C771 1.429 . S
C787 C783 1.429 . S
C787 C788 1.523 . S
C788 C772 1.368 . S
C788 C784 1.368 1_545 S
C788 C787 1.523 . S
H789 C764 0.950 . S
H790 C766 0.950 . S
H791 C767 0.949 . S
H792 C769 0.950 . S
H793 C771 0.950 . S
C794 C795 1.349 . S
C794 C796 1.327 . S
C794 H819 0.950 . S
C795 C794 1.349 . S
C795 C811 1.349 . S
C796 C794 1.327 . S
C796 C815 1.429 . S
C796 H820 0.950 . S
C797 C814 1.574 . S
C797 C816 1.368 . S
C797 H821 0.949 . S
H798 C802 0.949 . S
C799 C800 1.349 . S
C799 C801 1.327 . S
C799 H822 0.950 . S
C800 C799 1.349 . S
C800 C812 1.349 . S
C801 C799 1.327 . S
C801 C817 1.429 . S
C801 H823 0.950 . S
C802 H798 0.949 . S
C802 C810 1.574 . S
C802 C818 1.368 . S
H803 C811 0.950 . S
H804 C809 0.950 . S
H805 C810 0.949 . S
H806 C812 0.950 . S
H807 C813 0.950 . S
H808 C814 0.949 . S
C809 H804 0.950 . S
C809 C811 1.327 . S
C809 C815 1.429 . S
C810 C802 1.574 . S
C810 H805 0.949 . S
C810 C816 1.368 . S
C811 C795 1.349 . S
C811 H803 0.950 . S
C811 C809 1.327 . S
C812 C800 1.349 . S
C812 H806 0.950 . S
C812 C813 1.327 . S
C813 H807 0.950 . S
C813 C812 1.327 . S
C813 C817 1.429 . S
C814 C797 1.574 . S
C814 H808 0.949 . S
C814 C818 1.368 . S
C815 C796 1.429 . S
C815 C809 1.429 . S
C815 C816 1.523 . S
C816 C797 1.368 . S
C816 C810 1.368 . S
C816 C815 1.523 . S
C817 C801 1.429 . S
C817 C813 1.429 . S
C817 C818 1.523 . S
C818 C802 1.368 . S
C818 C814 1.368 . S
C818 C817 1.523 . S
H819 C794 0.950 . S
H820 C796 0.950 . S
H821 C797 0.949 . S
H822 C799 0.950 . S
H823 C801 0.950 . S
C824 C825 1.349 . S
C824 C826 1.327 . S
C824 H849 0.950 . S
C825 C824 1.349 . S
C825 C841 1.349 . S
C826 C824 1.327 . S
C826 C845 1.429 . S
C826 H850 0.950 . S
C827 C844 1.574 . S
C827 C846 1.368 . S
C827 H851 0.949 . S
H828 C832 0.949 . S
C829 C830 1.349 . S
C829 C831 1.327 . S
C829 H852 0.950 . S
C830 C829 1.349 . S
C830 C842 1.349 . S
C831 C829 1.327 . S
C831 C847 1.429 . S
C831 H853 0.950 . S
C832 H828 0.949 . S
C832 C840 1.574 . S
C832 C848 1.368 . S
H833 C841 0.950 . S
H834 C839 0.950 . S
H835 C840 0.949 . S
H836 C842 0.950 . S
H837 C843 0.950 . S
H838 C844 0.949 . S
C839 H834 0.950 . S
C839 C841 1.327 . S
C839 C845 1.429 . S
C840 C832 1.574 . S
C840 H835 0.949 . S
C840 C846 1.368 . S
C841 C825 1.349 . S
C841 H833 0.950 . S
C841 C839 1.327 . S
C842 C830 1.349 . S
C842 H836 0.950 . S
C842 C843 1.327 . S
C843 H837 0.950 . S
C843 C842 1.327 . S
C843 C847 1.429 . S
C844 C827 1.574 . S
C844 H838 0.949 . S
C844 C848 1.368 . S
C845 C826 1.429 . S
C845 C839 1.429 . S
C845 C846 1.523 . S
C846 C827 1.368 . S
C846 C840 1.368 . S
C846 C845 1.523 . S
C847 C831 1.429 . S
C847 C843 1.429 . S
C847 C848 1.523 . S
C848 C832 1.368 . S
C848 C844 1.368 . S
C848 C847 1.523 . S
H849 C824 0.950 . S
H850 C826 0.950 . S
H851 C827 0.949 . S
H852 C829 0.950 . S
H853 C831 0.950 . S
C854 C855 1.349 . S
C854 C856 1.327 . S
C854 H879 0.950 . S
C855 C854 1.349 . S
C855 C871 1.349 . S
C856 C854 1.327 . S
C856 C875 1.429 . S
C856 H880 0.950 . S
C857 C874 1.574 . S
C857 C876 1.368 . S
C857 H881 0.949 . S
H858 C862 0.949 . S
C859 C860 1.349 . S
C859 C861 1.327 . S
C859 H882 0.950 . S
C860 C859 1.349 . S
C860 C872 1.349 . S
C861 C859 1.327 . S
C861 C877 1.429 . S
C861 H883 0.950 . S
C862 H858 0.949 . S
C862 C870 1.574 . S
C862 C878 1.368 . S
H863 C871 0.950 . S
H864 C869 0.950 . S
H865 C870 0.949 . S
H866 C872 0.950 . S
H867 C873 0.950 . S
H868 C874 0.949 . S
C869 H864 0.950 . S
C869 C871 1.327 . S
C869 C875 1.429 . S
C870 C862 1.574 . S
C870 H865 0.949 . S
C870 C876 1.368 . S
C871 C855 1.349 . S
C871 H863 0.950 . S
C871 C869 1.327 . S
C872 C860 1.349 . S
C872 H866 0.950 . S
C872 C873 1.327 . S
C873 H867 0.950 . S
C873 C872 1.327 . S
C873 C877 1.429 . S
C874 C857 1.574 . S
C874 H868 0.949 . S
C874 C878 1.368 . S
C875 C856 1.429 . S
C875 C869 1.429 . S
C875 C876 1.523 . S
C876 C857 1.368 . S
C876 C870 1.368 . S
C876 C875 1.523 . S
C877 C861 1.429 . S
C877 C873 1.429 . S
C877 C878 1.523 . S
C878 C862 1.368 . S
C878 C874 1.368 . S
C878 C877 1.523 . S
H879 C854 0.950 . S
H880 C856 0.950 . S
H881 C857 0.949 . S
H882 C859 0.950 . S
H883 C861 0.950 . S
C884 C885 1.349 . S
C884 C886 1.327 . S
C884 H909 0.950 . S
C885 C884 1.349 . S
C885 C901 1.349 . S
C886 C884 1.327 . S
C886 C905 1.429 . S
C886 H910 0.950 . S
C887 C904 1.574 . S
C887 C906 1.368 . S
C887 H911 0.949 . S
H888 C892 0.949 . S
C889 C890 1.349 . S
C889 C891 1.327 . S
C889 H912 0.950 . S
C890 C889 1.349 . S
C890 C902 1.349 . S
C891 C889 1.327 . S
C891 C907 1.429 . S
C891 H913 0.950 . S
C892 H888 0.949 . S
C892 C900 1.574 . S
C892 C908 1.368 . S
H893 C901 0.950 . S
H894 C899 0.950 . S
H895 C900 0.949 . S
H896 C902 0.950 . S
H897 C903 0.950 . S
H898 C904 0.949 . S
C899 H894 0.950 . S
C899 C901 1.327 . S
C899 C905 1.429 . S
C900 C892 1.574 . S
C900 H895 0.949 . S
C900 C906 1.368 . S
C901 C885 1.349 . S
C901 H893 0.950 . S
C901 C899 1.327 . S
C902 C890 1.349 . S
C902 H896 0.950 . S
C902 C903 1.327 . S
C903 H897 0.950 . S
C903 C902 1.327 . S
C903 C907 1.429 . S
C904 C887 1.574 . S
C904 H898 0.949 . S
C904 C908 1.368 . S
C905 C886 1.429 . S
C905 C899 1.429 . S
C905 C906 1.523 . S
C906 C887 1.368 . S
C906 C900 1.368 . S
C906 C905 1.523 . S
C907 C891 1.429 . S
C907 C903 1.429 . S
C907 C908 1.523 . S
C908 C892 1.368 . S
C908 C904 1.368 . S
C908 C907 1.523 . S
H909 C884 0.950 . S
H910 C886 0.950 . S
H911 C887 0.949 . S
H912 C889 0.950 . S
H913 C891 0.950 . S
C914 C915 1.349 . S
C914 C916 1.327 . S
C914 H939 0.950 . S
C915 C914 1.349 . S
C915 C931 1.349 . S
C916 C914 1.327 . S
C916 C935 1.429 . S
C916 H940 0.950 . S
C917 C934 1.574 . S
C917 C936 1.368 . S
C917 H941 0.949 . S
H918 C922 0.949 . S
C919 C920 1.349 . S
C919 C921 1.327 . S
C919 H942 0.950 . S
C920 C919 1.349 . S
C920 C932 1.349 . S
C921 C919 1.327 . S
C921 C937 1.429 . S
C921 H943 0.950 . S
C922 H918 0.949 . S
C922 C930 1.574 . S
C922 C938 1.368 . S
H923 C931 0.950 . S
H924 C929 0.950 . S
H925 C930 0.949 . S
H926 C932 0.950 . S
H927 C933 0.950 . S
H928 C934 0.949 . S
C929 H924 0.950 . S
C929 C931 1.327 . S
C929 C935 1.429 . S
C930 C922 1.574 . S
C930 H925 0.949 . S
C930 C936 1.368 . S
C931 C915 1.349 . S
C931 H923 0.950 . S
C931 C929 1.327 . S
C932 C920 1.349 . S
C932 H926 0.950 . S
C932 C933 1.327 . S
C933 H927 0.950 . S
C933 C932 1.327 . S
C933 C937 1.429 . S
C934 C917 1.574 . S
C934 H928 0.949 . S
C934 C938 1.368 . S
C935 C916 1.429 . S
C935 C929 1.429 . S
C935 C936 1.523 . S
C936 C917 1.368 . S
C936 C930 1.368 . S
C936 C935 1.523 . S
C937 C921 1.429 . S
C937 C933 1.429 . S
C937 C938 1.523 . S
C938 C922 1.368 . S
C938 C934 1.368 . S
C938 C937 1.523 . S
H939 C914 0.950 . S
H940 C916 0.950 . S
H941 C917 0.949 . S
H942 C919 0.950 . S
H943 C921 0.950 . S
C944 C945 1.349 . S
C944 C946 1.327 . S
C944 H969 0.950 . S
C945 C944 1.349 . S
C945 C961 1.313 1_554 S
C946 C944 1.327 . S
C946 C965 1.429 . S
C946 H970 0.950 . S
C947 C964 1.574 . S
C947 C966 1.368 1_556 S
C947 H971 0.949 . S
H948 C952 0.949 . S
C949 C950 1.349 . S
C949 C951 1.327 . S
C949 H972 0.950 . S
C950 C949 1.349 . S
C950 C962 1.300 1_556 S
C951 C949 1.327 . S
C951 C967 1.429 . S
C951 H973 0.950 . S
C952 H948 0.949 . S
C952 C960 1.574 . S
C952 C968 1.368 1_554 S
H953 C961 0.978 . S
H954 C959 0.950 . S
H955 C960 0.949 . S
H956 C962 0.988 . S
H957 C963 0.950 . S
H958 C964 0.949 . S
C959 H954 0.950 . S
C959 C961 1.337 . S
C959 C965 1.429 1_556 S
C960 C952 1.574 . S
C960 H955 0.949 . S
C960 C966 1.368 . S
C961 C945 1.313 1_556 S
C961 H953 0.978 . S
C961 C959 1.337 . S
C962 C950 1.300 1_554 S
C962 H956 0.988 . S
C962 C963 1.341 . S
C963 H957 0.950 . S
C963 C962 1.341 . S
C963 C967 1.429 1_554 S
C964 C947 1.574 . S
C964 H958 0.949 . S
C964 C968 1.368 . S
C965 C946 1.429 . S
C965 C959 1.429 1_554 S
C965 C966 1.523 . S
C966 C947 1.368 1_554 S
C966 C960 1.368 . S
C966 C965 1.523 . S
C967 C951 1.429 . S
C967 C963 1.429 1_556 S
C967 C968 1.523 . S
C968 C952 1.368 1_556 S
C968 C964 1.368 . S
C968 C967 1.523 . S
H969 C944 0.950 . S
H970 C946 0.950 . S
H971 C947 0.949 . S
H972 C949 0.950 . S
H973 C951 0.950 . S
C974 C975 1.349 . S
C974 C976 1.327 . S
C974 H999 0.950 . S
C975 C974 1.349 . S
C975 C991 1.349 1_554 S
C976 C974 1.327 . S
C976 C995 1.429 . S
C976 H1000 0.950 . S
C977 C994 1.574 . S
C977 C996 1.368 1_556 S
C977 H1001 0.949 . S
H978 C982 0.949 . S
C979 C980 1.349 . S
C979 C981 1.327 . S
C979 H1002 0.950 . S
C980 C979 1.349 . S
C980 C992 1.349 1_556 S
C981 C979 1.327 . S
C981 C997 1.429 . S
C981 H1003 0.950 . S
C982 H978 0.949 . S
C982 C990 1.574 . S
C982 C998 1.368 1_554 S
H983 C991 0.950 . S
H984 C989 0.950 . S
H985 C990 0.949 . S
H986 C992 0.950 . S
H987 C993 0.950 . S
H988 C994 0.949 . S
C989 H984 0.950 . S
C989 C991 1.327 . S
C989 C995 1.429 1_556 S
C990 C982 1.574 . S
C990 H985 0.949 . S
C990 C996 1.368 1_655 S
C991 C975 1.349 1_556 S
C991 H983 0.950 . S
C991 C989 1.327 . S
C992 C980 1.349 1_554 S
C992 H986 0.950 . S
C992 C993 1.327 . S
C993 H987 0.950 . S
C993 C992 1.327 . S
C993 C997 1.429 1_554 S
C994 C977 1.574 . S
C994 H988 0.949 . S
C994 C998 1.368 1_455 S
C995 C976 1.429 . S
C995 C989 1.429 1_554 S
C995 C996 1.523 . S
C996 C977 1.368 1_554 S
C996 C990 1.368 1_455 S
C996 C995 1.523 . S
C997 C981 1.429 . S
C997 C993 1.429 1_556 S
C997 C998 1.523 . S
C998 C982 1.368 1_556 S
C998 C994 1.368 1_655 S
C998 C997 1.523 . S
H999 C974 0.950 . S
H1000 C976 0.950 . S
H1001 C977 0.949 . S
H1002 C979 0.950 . S
H1003 C981 0.950 . S
C1004 C1005 1.349 . S
C1004 C1006 1.327 . S
C1004 H1029 0.950 . S
C1005 C1004 1.349 . S
C1005 C1021 1.349 . S
C1006 C1004 1.327 . S
C1006 C1025 1.429 . S
C1006 H1030 0.950 . S
C1007 C1024 1.574 1_565 S
C1007 C1026 1.368 . S
C1007 H1031 0.949 . S
H1008 C1012 0.949 . S
C1009 C1010 1.349 . S
C1009 C1011 1.327 . S
C1009 H1032 0.950 . S
C1010 C1009 1.349 . S
C1010 C1022 1.349 . S
C1011 C1009 1.327 . S
C1011 C1027 1.429 . S
C1011 H1033 0.950 . S
C1012 H1008 0.949 . S
C1012 C1020 1.574 1_545 S
C1012 C1028 1.368 . S
H1013 C1021 0.950 . S
H1014 C1019 0.950 . S
H1015 C1020 0.949 . S
H1016 C1022 0.950 . S
H1017 C1023 0.950 . S
H1018 C1024 0.949 . S
C1019 H1014 0.950 . S
C1019 C1021 1.327 . S
C1019 C1025 1.429 . S
C1020 C1012 1.574 1_565 S
C1020 H1015 0.949 . S
C1020 C1026 1.368 . S
C1021 C1005 1.349 . S
C1021 H1013 0.950 . S
C1021 C1019 1.327 . S
C1022 C1010 1.349 . S
C1022 H1016 0.950 . S
C1022 C1023 1.327 . S
C1023 H1017 0.950 . S
C1023 C1022 1.327 . S
C1023 C1027 1.429 . S
C1024 C1007 1.574 1_545 S
C1024 H1018 0.949 . S
C1024 C1028 1.368 . S
C1025 C1006 1.429 . S
C1025 C1019 1.429 . S
C1025 C1026 1.523 . S
C1026 C1007 1.368 . S
C1026 C1020 1.368 . S
C1026 C1025 1.523 . S
C1027 C1011 1.429 . S
C1027 C1023 1.429 . S
C1027 C1028 1.523 . S
C1028 C1012 1.368 . S
C1028 C1024 1.368 . S
C1028 C1027 1.523 . S
H1029 C1004 0.950 . S
H1030 C1006 0.950 . S
H1031 C1007 0.949 . S
H1032 C1009 0.950 . S
H1033 C1011 0.950 . S
C1034 C1035 1.349 . S
C1034 C1036 1.327 . S
C1034 H1059 0.950 . S
C1035 C1034 1.349 . S
C1035 C1051 1.349 . S
C1036 C1034 1.327 . S
C1036 C1055 1.429 . S
C1036 H1060 0.950 . S
C1037 C1054 1.574 1_545 S
C1037 C1056 1.368 1_455 S
C1037 H1061 0.949 . S
H1038 C1042 0.949 . S
C1039 C1040 1.349 . S
C1039 C1041 1.327 . S
C1039 H1062 0.950 . S
C1040 C1039 1.349 . S
C1040 C1052 1.349 . S
C1041 C1039 1.327 . S
C1041 C1057 1.429 . S
C1041 H1063 0.950 . S
C1042 H1038 0.949 . S
C1042 C1050 1.574 1_565 S
C1042 C1058 1.368 1_655 S
H1043 C1051 0.950 . S
H1044 C1049 0.964 . S
H1045 C1050 0.949 . S
H1046 C1052 0.950 . S
H1047 C1053 0.983 . S
H1048 C1054 0.949 . S
C1049 H1044 0.964 . S
C1049 C1051 1.327 . S
C1049 C1055 1.429 . S
C1050 C1042 1.574 1_545 S
C1050 H1045 0.949 . S
C1050 C1056 1.368 . S
C1051 C1035 1.349 . S
C1051 H1043 0.950 . S
C1051 C1049 1.327 . S
C1052 C1040 1.349 . S
C1052 H1046 0.950 . S
C1052 C1053 1.327 . S
C1053 H1047 0.983 . S
C1053 C1052 1.327 . S
C1053 C1057 1.429 . S
C1054 C1037 1.574 1_565 S
C1054 H1048 0.949 . S
C1054 C1058 1.368 . S
C1055 C1036 1.429 . S
C1055 C1049 1.429 . S
C1055 C1056 1.523 . S
C1056 C1037 1.368 1_655 S
C1056 C1050 1.368 . S
C1056 C1055 1.523 . S
C1057 C1041 1.429 . S
C1057 C1053 1.429 . S
C1057 C1058 1.523 . S
C1058 C1042 1.368 1_455 S
C1058 C1054 1.368 . S
C1058 C1057 1.523 . S
H1059 C1034 0.950 . S
H1060 C1036 0.950 . S
H1061 C1037 0.949 . S
H1062 C1039 0.950 . S
H1063 C1041 0.950 . S
C1064 C1065 1.349 . S
C1064 C1066 1.327 . S
C1064 H1089 0.950 . S
C1065 C1064 1.349 . S
C1065 C1081 1.349 . S
C1066 C1064 1.327 . S
C1066 C1085 1.429 . S
C1066 H1090 0.950 . S
C1067 C1084 1.574 . S
C1067 C1086 1.368 . S
C1067 H1091 0.949 . S
H1068 C1072 0.949 . S
C1069 C1070 1.349 . S
C1069 C1071 1.327 . S
C1069 H1092 0.950 . S
C1070 C1069 1.349 . S
C1070 C1082 1.349 . S
C1071 C1069 1.327 . S
C1071 C1087 1.429 . S
C1071 H1093 0.950 . S
C1072 H1068 0.949 . S
C1072 C1080 1.574 . S
C1072 C1088 1.368 . S
H1073 C1081 0.950 . S
H1074 C1079 0.950 . S
H1075 C1080 0.949 . S
H1076 C1082 0.950 . S
H1077 C1083 0.950 . S
H1078 C1084 0.949 . S
C1079 H1074 0.950 . S
C1079 C1081 1.327 . S
C1079 C1085 1.429 . S
C1080 C1072 1.574 . S
C1080 H1075 0.949 . S
C1080 C1086 1.368 . S
C1081 C1065 1.349 . S
C1081 H1073 0.950 . S
C1081 C1079 1.327 . S
C1082 C1070 1.349 . S
C1082 H1076 0.950 . S
C1082 C1083 1.327 . S
C1083 H1077 0.950 . S
C1083 C1082 1.327 . S
C1083 C1087 1.429 . S
C1084 C1067 1.574 . S
C1084 H1078 0.949 . S
C1084 C1088 1.368 . S
C1085 C1066 1.429 . S
C1085 C1079 1.429 . S
C1085 C1086 1.523 . S
C1086 C1067 1.368 . S
C1086 C1080 1.368 . S
C1086 C1085 1.523 . S
C1087 C1071 1.429 . S
C1087 C1083 1.429 . S
C1087 C1088 1.523 . S
C1088 C1072 1.368 . S
C1088 C1084 1.368 . S
C1088 C1087 1.523 . S
H1089 C1064 0.950 . S
H1090 C1066 0.950 . S
H1091 C1067 0.949 . S
H1092 C1069 0.950 . S
H1093 C1071 0.950 . S
C1094 C1095 1.349 . S
C1094 C1096 1.327 . S
C1094 H1119 0.950 . S
C1095 C1094 1.349 . S
C1095 C1111 1.349 . S
C1096 C1094 1.327 . S
C1096 C1115 1.429 . S
C1096 H1120 0.950 . S
C1097 C1114 1.575 1_545 S
C1097 C1116 1.368 . S
C1097 H1121 0.949 . S
H1098 C1102 0.949 . S
C1099 C1100 1.349 . S
C1099 C1101 1.327 . S
C1099 H1122 0.950 . S
C1100 C1099 1.349 . S
C1100 C1112 1.349 . S
C1101 C1099 1.327 . S
C1101 C1117 1.429 . S
C1101 H1123 0.950 . S
C1102 H1098 0.949 . S
C1102 C1110 1.575 1_565 S
C1102 C1118 1.368 . S
H1103 C1111 0.950 . S
H1104 C1109 0.950 . S
H1105 C1110 0.949 . S
H1106 C1112 0.950 . S
H1107 C1113 0.950 . S
H1108 C1114 0.949 . S
C1109 H1104 0.950 . S
C1109 C1111 1.327 . S
C1109 C1115 1.429 . S
C1110 C1102 1.575 1_545 S
C1110 H1105 0.949 . S
C1110 C1116 1.367 . S
C1111 C1095 1.349 . S
C1111 H1103 0.950 . S
C1111 C1109 1.327 . S
C1112 C1100 1.349 . S
C1112 H1106 0.950 . S
C1112 C1113 1.327 . S
C1113 H1107 0.950 . S
C1113 C1112 1.327 . S
C1113 C1117 1.429 . S
C1114 C1097 1.575 1_565 S
C1114 H1108 0.949 . S
C1114 C1118 1.367 . S
C1115 C1096 1.429 . S
C1115 C1109 1.429 . S
C1115 C1116 1.523 . S
C1116 C1097 1.368 . S
C1116 C1110 1.367 . S
C1116 C1115 1.523 . S
C1117 C1101 1.429 . S
C1117 C1113 1.429 . S
C1117 C1118 1.523 . S
C1118 C1102 1.368 . S
C1118 C1114 1.367 . S
C1118 C1117 1.523 . S
H1119 C1094 0.950 . S
H1120 C1096 0.950 . S
H1121 C1097 0.949 . S
H1122 C1099 0.950 . S
H1123 C1101 0.950 . S
C1124 C1125 1.349 . S
C1124 C1126 1.327 . S
C1124 H1149 0.950 . S
C1125 C1124 1.349 . S
C1125 C1141 1.349 . S
C1126 C1124 1.327 . S
C1126 C1145 1.429 . S
C1126 H1150 0.950 . S
C1127 C1144 1.574 . S
C1127 C1146 1.368 . S
C1127 H1151 0.949 . S
H1128 C1132 0.949 . S
C1129 C1130 1.349 . S
C1129 C1131 1.327 . S
C1129 H1152 0.950 . S
C1130 C1129 1.349 . S
C1130 C1142 1.349 . S
C1131 C1129 1.327 . S
C1131 C1147 1.429 . S
C1131 H1153 0.950 . S
C1132 H1128 0.949 . S
C1132 C1140 1.574 . S
C1132 C1148 1.368 . S
H1133 C1141 0.950 . S
H1134 C1139 0.950 . S
H1135 C1140 0.949 . S
H1136 C1142 0.950 . S
H1137 C1143 0.950 . S
H1138 C1144 0.949 . S
C1139 H1134 0.950 . S
C1139 C1141 1.327 . S
C1139 C1145 1.429 . S
C1140 C1132 1.574 . S
C1140 H1135 0.949 . S
C1140 C1146 1.368 . S
C1141 C1125 1.349 . S
C1141 H1133 0.950 . S
C1141 C1139 1.327 . S
C1142 C1130 1.349 . S
C1142 H1136 0.950 . S
C1142 C1143 1.327 . S
C1143 H1137 0.950 . S
C1143 C1142 1.327 . S
C1143 C1147 1.429 . S
C1144 C1127 1.574 . S
C1144 H1138 0.949 . S
C1144 C1148 1.368 . S
C1145 C1126 1.429 . S
C1145 C1139 1.429 . S
C1145 C1146 1.523 . S
C1146 C1127 1.368 . S
C1146 C1140 1.368 . S
C1146 C1145 1.523 . S
C1147 C1131 1.429 . S
C1147 C1143 1.429 . S
C1147 C1148 1.523 . S
C1148 C1132 1.368 . S
C1148 C1144 1.368 . S
C1148 C1147 1.523 . S
H1149 C1124 0.950 . S
H1150 C1126 0.950 . S
H1151 C1127 0.949 . S
H1152 C1129 0.950 . S
H1153 C1131 0.950 . S
C1154 C1155 1.349 . S
C1154 C1156 1.327 . S
C1154 H1179 0.950 . S
C1155 C1154 1.349 . S
C1155 C1171 1.349 . S
C1156 C1154 1.327 . S
C1156 C1175 1.429 . S
C1156 H1180 0.950 . S
C1157 C1174 1.574 1_565 S
C1157 C1176 1.368 . S
C1157 H1181 0.949 . S
H1158 C1162 0.949 . S
C1159 C1160 1.349 . S
C1159 C1161 1.327 . S
C1159 H1182 0.950 . S
C1160 C1159 1.349 . S
C1160 C1172 1.349 . S
C1161 C1159 1.327 . S
C1161 C1177 1.429 . S
C1161 H1183 0.950 . S
C1162 H1158 0.949 . S
C1162 C1170 1.574 1_545 S
C1162 C1178 1.368 . S
H1163 C1171 0.950 . S
H1164 C1169 0.950 . S
H1165 C1170 0.949 . S
H1166 C1172 0.950 . S
H1167 C1173 0.950 . S
H1168 C1174 0.949 . S
C1169 H1164 0.950 . S
C1169 C1171 1.327 . S
C1169 C1175 1.429 . S
C1170 C1162 1.574 1_565 S
C1170 H1165 0.949 . S
C1170 C1176 1.368 . S
C1171 C1155 1.349 . S
C1171 H1163 0.950 . S
C1171 C1169 1.327 . S
C1172 C1160 1.349 . S
C1172 H1166 0.950 . S
C1172 C1173 1.327 . S
C1173 H1167 0.950 . S
C1173 C1172 1.327 . S
C1173 C1177 1.429 . S
C1174 C1157 1.574 1_545 S
C1174 H1168 0.949 . S
C1174 C1178 1.368 . S
C1175 C1156 1.429 . S
C1175 C1169 1.429 . S
C1175 C1176 1.523 . S
C1176 C1157 1.368 . S
C1176 C1170 1.368 . S
C1176 C1175 1.523 . S
C1177 C1161 1.429 . S
C1177 C1173 1.429 . S
C1177 C1178 1.523 . S
C1178 C1162 1.368 . S
C1178 C1174 1.368 . S
C1178 C1177 1.523 . S
H1179 C1154 0.950 . S
H1180 C1156 0.950 . S
H1181 C1157 0.949 . S
H1182 C1159 0.950 . S
H1183 C1161 0.950 . S
C705 C49 1.687 . S
C710 C137 1.687 . S
C735 C284 1.686 . S
C740 C205 1.686 . S
C765 C401 1.697 . S
C770 C489 1.697 . S
C795 C557 1.697 . S
C800 C636 1.697 . S
C825 C29 1.605 . S
C830 C225 1.605 . S
C855 C321 1.605 . S
C860 C117 1.605 . S
C885 C409 1.603 . S
C890 C548 1.603 . S
C915 C645 1.603 . S
C920 C497 1.603 . S
C945 C20 1.997 . S
C950 C372 1.993 . S
C975 C108 1.997 . S
C980 C460 1.993 . S
C1005 C585 1.993 . S
C1010 C233 1.997 . S
C1035 C665 1.993 . S
C1040 C313 1.997 . S
C1065 C145 0.357 . S
C1070 C57 0.357 . S
C1095 C196 0.357 . S
C1100 C293 0.357 . S
C1125 C381 0.337 . S
C1130 C469 0.337 . S
C1155 C577 0.337 . S
C1160 C673 0.337 . S
