# Generated by pormake.
# Topology une, (4)-cn, num edge types: 1
# Building blocks:
#     Node 0, Type 0, BuildingBlock: NAHDIM_clean_sbu_0, # of connection points: 4
#     Node 1, Type 0, BuildingBlock: NAHDIM_clean_sbu_0, # of connection points: 4
#     Node 2, Type 0, BuildingBlock: NAHDIM_clean_sbu_0, # of connection points: 4
#     Node 3, Type 0, BuildingBlock: NAHDIM_clean_sbu_0, # of connection points: 4
#     Node 4, Type 0, BuildingBlock: NAHDIM_clean_sbu_0, # of connection points: 4
#     Node 5, Type 0, BuildingBlock: NAHDIM_clean_sbu_0, # of connection points: 4
#     Node 6, Type 0, BuildingBlock: NAHDIM_clean_sbu_0, # of connection points: 4
#     Node 7, Type 0, BuildingBlock: NAHDIM_clean_sbu_0, # of connection points: 4
#     Node 8, Type 0, BuildingBlock: NAHDIM_clean_sbu_0, # of connection points: 4
#     Node 9, Type 0, BuildingBlock: NAHDIM_clean_sbu_0, # of connection points: 4
#     Node 10, Type 0, BuildingBlock: NAHDIM_clean_sbu_0, # of connection points: 4
#     Node 11, Type 0, BuildingBlock: NAHDIM_clean_sbu_0, # of connection points: 4
#     Node 12, Type 0, BuildingBlock: NAHDIM_clean_sbu_0, # of connection points: 4
#     Node 13, Type 0, BuildingBlock: NAHDIM_clean_sbu_0, # of connection points: 4
#     Node 14, Type 0, BuildingBlock: NAHDIM_clean_sbu_0, # of connection points: 4
#     Node 15, Type 0, BuildingBlock: NAHDIM_clean_sbu_0, # of connection points: 4
#     Node 16, Type 0, BuildingBlock: NAHDIM_clean_sbu_0, # of connection points: 4
#     Node 17, Type 0, BuildingBlock: NAHDIM_clean_sbu_0, # of connection points: 4
#     Edge 18, Type (0, 0), BuildingBlock: KIFKEQ_clean_linker_1, # of connection points: 2
#     Edge 19, Type (0, 0), BuildingBlock: KIFKEQ_clean_linker_1, # of connection points: 2
#     Edge 20, Type (0, 0), BuildingBlock: KIFKEQ_clean_linker_1, # of connection points: 2
#     Edge 21, Type (0, 0), BuildingBlock: KIFKEQ_clean_linker_1, # of connection points: 2
#     Edge 22, Type (0, 0), BuildingBlock: KIFKEQ_clean_linker_1, # of connection points: 2
#     Edge 23, Type (0, 0), BuildingBlock: KIFKEQ_clean_linker_1, # of connection points: 2
#     Edge 24, Type (0, 0), BuildingBlock: KIFKEQ_clean_linker_1, # of connection points: 2
#     Edge 25, Type (0, 0), BuildingBlock: KIFKEQ_clean_linker_1, # of connection points: 2
#     Edge 26, Type (0, 0), BuildingBlock: KIFKEQ_clean_linker_1, # of connection points: 2
#     Edge 27, Type (0, 0), BuildingBlock: KIFKEQ_clean_linker_1, # of connection points: 2
#     Edge 28, Type (0, 0), BuildingBlock: KIFKEQ_clean_linker_1, # of connection points: 2
#     Edge 29, Type (0, 0), BuildingBlock: KIFKEQ_clean_linker_1, # of connection points: 2
#     Edge 30, Type (0, 0), BuildingBlock: KIFKEQ_clean_linker_1, # of connection points: 2
#     Edge 31, Type (0, 0), BuildingBlock: KIFKEQ_clean_linker_1, # of connection points: 2
#     Edge 32, Type (0, 0), BuildingBlock: KIFKEQ_clean_linker_1, # of connection points: 2
#     Edge 33, Type (0, 0), BuildingBlock: KIFKEQ_clean_linker_1, # of connection points: 2
#     Edge 34, Type (0, 0), BuildingBlock: KIFKEQ_clean_linker_1, # of connection points: 2
#     Edge 35, Type (0, 0), BuildingBlock: KIFKEQ_clean_linker_1, # of connection points: 2
#     Edge 36, Type (0, 0), BuildingBlock: KIFKEQ_clean_linker_1, # of connection points: 2
#     Edge 37, Type (0, 0), BuildingBlock: KIFKEQ_clean_linker_1, # of connection points: 2
#     Edge 38, Type (0, 0), BuildingBlock: KIFKEQ_clean_linker_1, # of connection points: 2
#     Edge 39, Type (0, 0), BuildingBlock: KIFKEQ_clean_linker_1, # of connection points: 2
#     Edge 40, Type (0, 0), BuildingBlock: KIFKEQ_clean_linker_1, # of connection points: 2
#     Edge 41, Type (0, 0), BuildingBlock: KIFKEQ_clean_linker_1, # of connection points: 2
#     Edge 42, Type (0, 0), BuildingBlock: KIFKEQ_clean_linker_1, # of connection points: 2
#     Edge 43, Type (0, 0), BuildingBlock: KIFKEQ_clean_linker_1, # of connection points: 2
#     Edge 44, Type (0, 0), BuildingBlock: KIFKEQ_clean_linker_1, # of connection points: 2
#     Edge 45, Type (0, 0), BuildingBlock: KIFKEQ_clean_linker_1, # of connection points: 2
#     Edge 46, Type (0, 0), BuildingBlock: KIFKEQ_clean_linker_1, # of connection points: 2
#     Edge 47, Type (0, 0), BuildingBlock: KIFKEQ_clean_linker_1, # of connection points: 2
#     Edge 48, Type (0, 0), BuildingBlock: KIFKEQ_clean_linker_1, # of connection points: 2
#     Edge 49, Type (0, 0), BuildingBlock: KIFKEQ_clean_linker_1, # of connection points: 2
#     Edge 50, Type (0, 0), BuildingBlock: KIFKEQ_clean_linker_1, # of connection points: 2
#     Edge 51, Type (0, 0), BuildingBlock: KIFKEQ_clean_linker_1, # of connection points: 2
#     Edge 52, Type (0, 0), BuildingBlock: KIFKEQ_clean_linker_1, # of connection points: 2
#     Edge 53, Type (0, 0), BuildingBlock: KIFKEQ_clean_linker_1, # of connection points: 2
# Relax obj value: 0.230
# Max RMSD: 0.185
# Mean RMSD: 0.174
data_MOF--net-une--node1-NAHDIM_clean_sbu_0--edge1-KIFKEQ_clean_linker_1
_symmetry_space_group_name_H-M    P1
_symmetry_Int_Tables_number       1
_symmetry_cell_setting            triclinic
loop_
_symmetry_equiv_pos_as_xyz
'x, y, z'
_cell_length_a     38.174163
_cell_length_b     37.880926
_cell_length_c     56.739028
_cell_angle_alpha  90.341423
_cell_angle_beta   90.076126
_cell_angle_gamma 120.42754
loop_
_atom_site_label
_atom_site_type_symbol
_atom_site_fract_x
_atom_site_fract_y
_atom_site_fract_z
_atom_type_partial_charge
C0 C 0.4156 0.02357 0.01395 0.0
O1 O 0.37694 0.00166 0.00833 0.0
O2 O 0.38764 0.10774 0.00462 0.0
Zn3 Zn 0.38606 0.07357 0.03202 0.0
O4 O 0.33078 0.02263 0.03325 0.0
C5 C 0.37696 0.12758 0.06238 0.0
O6 O 0.36001 0.13029 0.04286 0.0
O7 O 0.42804 0.05674 0.0256 0.0
C8 C 0.29715 0.02124 0.03005 0.0
O9 O 0.29689 0.0553 0.02639 0.0
C10 C 0.37012 0.09296 0.98497 0.0
O11 O 0.35052 0.05313 0.98162 0.0
O12 O 0.39355 0.10566 0.06239 0.0
C13 C 0.90152 0.21698 0.11317 0.0
O14 O 0.89534 0.19919 0.09243 0.0
O15 O 0.01209 0.27771 0.08565 0.0
Zn16 Zn 0.9621 0.28252 0.08612 0.0
O17 O 0.93021 0.25347 0.05696 0.0
C18 C 0.00326 0.3576 0.06423 0.0
O19 O 0.01358 0.33439 0.05235 0.0
O20 O 0.92873 0.25464 0.11526 0.0
C21 C 0.91139 0.26577 0.04402 0.0
O22 O 0.91134 0.29939 0.04975 0.0
C23 C 0.01005 0.24464 0.07897 0.0
O24 O 0.97421 0.21225 0.07492 0.0
O25 O 0.9801 0.34241 0.08201 0.0
C26 C 0.67573 0.64768 0.10392 0.0
O27 O 0.66216 0.67332 0.10291 0.0
O28 O 0.65955 0.69032 0.05215 0.0
Zn29 Zn 0.65668 0.63601 0.05358 0.0
O30 O 0.69957 0.6398 0.03164 0.0
C31 C 0.59357 0.59697 0.02083 0.0
O32 O 0.62151 0.62795 0.00876 0.0
O33 O 0.67316 0.62673 0.08572 0.0
C34 C 0.69917 0.6105 0.02041 0.0
O35 O 0.66734 0.57347 0.02189 0.0
C36 C 0.69416 0.72279 0.05152 0.0
O37 O 0.72696 0.72002 0.05368 0.0
O38 O 0.60134 0.59244 0.04205 0.0
C39 C 0.72713 0.9631 0.87883 0.0
O40 O 0.75767 0.98545 0.89316 0.0
O41 O 0.63606 0.9776 0.92278 0.0
Zn42 Zn 0.6881 0.97752 0.91635 0.0
O43 O 0.69477 0.94268 0.94032 0.0
C44 C 0.7294 0.06526 0.92363 0.0
O45 O 0.69323 0.06024 0.9197 0.0
O46 O 0.69187 0.95609 0.88436 0.0
C47 C 0.69194 0.94678 0.96237 0.0
O48 O 0.68347 0.97434 0.97015 0.0
C49 C 0.60636 0.94987 0.93426 0.0
O50 O 0.60624 0.9161 0.93957 0.0
O51 O 0.73451 0.03472 0.92181 0.0
C52 C 0.11067 0.71504 0.92739 0.0
O53 O 0.12908 0.71808 0.94753 0.0
O54 O 0.04943 0.62385 0.97062 0.0
Zn55 Zn 0.04503 0.6714 0.9579 0.0
O56 O 0.07324 0.72 0.97969 0.0
C57 C 0.9715 0.65308 0.97771 0.0
O58 O 0.99499 0.65985 0.99614 0.0
O59 O 0.07219 0.69234 0.92633 0.0
C60 C 0.07198 0.75188 0.97443 0.0
O61 O 0.05124 0.75109 0.95574 0.0
C62 C 0.05881 0.62371 0.99216 0.0
O63 O 0.06854 0.65599 0.00538 0.0
O64 O 0.98599 0.65525 0.95726 0.0
C65 C 0.20393 0.34141 0.90314 0.0
O66 O 0.20192 0.35259 0.92483 0.0
O67 O 0.31704 0.38087 0.93112 0.0
Zn68 Zn 0.26429 0.32818 0.92453 0.0
O69 O 0.23118 0.31314 0.95417 0.0
C70 C 0.31146 0.2908 0.91107 0.0
O71 O 0.3396 0.32859 0.90623 0.0
O72 O 0.23039 0.33155 0.8982 0.0
C73 C 0.22447 0.28439 0.96821 0.0
O74 O 0.23913 0.26036 0.96354 0.0
C75 C 0.31973 0.40368 0.9484 0.0
O76 O 0.28672 0.39522 0.96008 0.0
O77 O 0.27679 0.28361 0.91791 0.0
C78 C 0.07915 0.34692 0.3473 0.0
O79 O 0.04488 0.33399 0.33575 0.0
O80 O 0.05037 0.42831 0.34766 0.0
Zn81 Zn 0.04607 0.38813 0.37217 0.0
O82 O 0.98938 0.34012 0.37061 0.0
C83 C 0.03009 0.43048 0.40641 0.0
O84 O 0.00574 0.42679 0.38898 0.0
O85 O 0.08696 0.37076 0.36492 0.0
C86 C 0.97373 0.30996 0.38458 0.0
O87 O 0.99585 0.30793 0.40169 0.0
C88 C 0.0255 0.41752 0.3305 0.0
O89 O -0.00185 0.37864 0.32762 0.0
O90 O 0.053 0.41533 0.40391 0.0
C91 C 0.59149 0.59895 0.47371 0.0
O92 O 0.63139 0.61968 0.47454 0.0
O93 O 0.65261 0.615 0.42348 0.0
Zn94 Zn 0.60456 0.62314 0.42474 0.0
O95 O 0.56785 0.59104 0.39758 0.0
C96 C 0.65448 0.70236 0.40583 0.0
O97 O 0.67472 0.68428 0.39964 0.0
O98 O 0.57359 0.59872 0.45476 0.0
C99 C 0.5825 0.59135 0.3774 0.0
O100 O 0.62194 0.61326 0.37429 0.0
C101 C 0.64843 0.58039 0.41835 0.0
O102 O 0.61165 0.54834 0.41659 0.0
O103 O 0.62322 0.68309 0.4188 0.0
C104 C 0.34315 0.95528 0.43531 0.0
O105 O 0.33902 0.98625 0.42891 0.0
O106 O 0.32703 0.9833 0.37969 0.0
Zn107 Zn 0.31315 0.92624 0.38806 0.0
O108 O 0.34561 0.91138 0.36674 0.0
C109 C 0.22957 0.90239 0.38066 0.0
O110 O 0.24294 0.94014 0.38787 0.0
O111 O 0.3311 0.92479 0.4214 0.0
C112 C 0.34879 0.91935 0.34486 0.0
O113 O 0.32861 0.93568 0.3358 0.0
C114 C 0.36265 0.0115 0.37441 0.0
O115 O 0.39275 0.00411 0.37518 0.0
O116 O 0.25361 0.88836 0.38095 0.0
C117 C 0.32912 0.24055 0.21245 0.0
O118 O 0.29557 0.21696 0.22411 0.0
O119 O 0.29797 0.28652 0.26283 0.0
Zn120 Zn 0.35014 0.28716 0.25548 0.0
O121 O 0.35166 0.24458 0.2756 0.0
C122 C 0.39305 0.37398 0.26499 0.0
O123 O 0.35935 0.37115 0.25708 0.0
O124 O 0.35613 0.27388 0.22185 0.0
C125 C 0.38327 0.25057 0.28658 0.0
O126 O 0.41704 0.28605 0.28477 0.0
C127 C 0.29285 0.28914 0.28481 0.0
O128 O 0.31995 0.29041 0.29962 0.0
O129 O 0.39654 0.34236 0.26492 0.0
C130 C 0.75873 0.04369 0.25496 0.0
O131 O 0.77956 0.05095 0.27464 0.0
O132 O 0.69698 0.95802 0.30258 0.0
Zn133 Zn 0.69481 0.00572 0.28787 0.0
O134 O 0.72608 0.05688 0.30728 0.0
C135 C 0.6078 0.95506 0.28411 0.0
O136 O 0.61628 0.92565 0.28186 0.0
O137 O 0.72024 0.02114 0.25563 0.0
C138 C 0.71942 0.06575 0.32778 0.0
O139 O 0.68765 0.0388 0.33969 0.0
C140 C 0.71404 0.96096 0.32237 0.0
O141 O 0.73445 0.99684 0.3328 0.0
O142 O 0.63668 0.99185 0.28633 0.0
C143 C 0.87048 0.68582 0.23567 0.0
O144 O 0.87947 0.71458 0.25156 0.0
O145 O 0.96493 0.72 0.27423 0.0
Zn146 Zn 0.91543 0.66456 0.26755 0.0
O147 O 0.87752 0.64937 0.29509 0.0
C148 C 0.95907 0.62843 0.2829 0.0
O149 O 0.96735 0.65648 0.29915 0.0
O150 O 0.8843 0.66177 0.2382 0.0
C151 C 0.85957 0.61445 0.30482 0.0
O152 O 0.86463 0.58495 0.29643 0.0
C153 C 0.9657 0.74178 0.29161 0.0
O154 O 0.93166 0.7317 0.30259 0.0
O155 O 0.93565 0.62484 0.26594 0.0
C156 C 0.80657 0.74679 0.68614 0.0
O157 O 0.80431 0.77598 0.67514 0.0
O158 O 0.73461 0.77653 0.68726 0.0
Zn159 Zn 0.74126 0.74414 0.71302 0.0
O160 O 0.68845 0.69135 0.71517 0.0
C161 C 0.76878 0.81398 0.74374 0.0
O162 O 0.7862 0.83376 0.72431 0.0
O163 O 0.78457 0.73059 0.70419 0.0
C164 C 0.65546 0.69149 0.71768 0.0
O165 O 0.65675 0.72667 0.72004 0.0
C166 C 0.71513 0.75982 0.66837 0.0
O167 O 0.6993 0.72022 0.66523 0.0
O168 O 0.75027 0.77507 0.74359 0.0
C169 C 0.26993 0.91655 0.79859 0.0
O170 O 0.30905 0.93028 0.79681 0.0
O171 O 0.33114 0.94415 0.74957 0.0
Zn172 Zn 0.2832 0.95224 0.75254 0.0
O173 O 0.24745 0.92361 0.7244 0.0
C174 C 0.33411 0.03477 0.73769 0.0
O175 O 0.35578 0.0187 0.73062 0.0
O176 O 0.25217 0.92468 0.78233 0.0
C177 C 0.26388 0.92724 0.70437 0.0
O178 O 0.3035 0.95013 0.70249 0.0
C179 C 0.32638 0.90923 0.7446 0.0
O180 O 0.28941 0.87737 0.74335 0.0
O181 O 0.30181 0.01272 0.7494 0.0
C182 C 0.99503 0.29957 0.78011 0.0
O183 O 0.98625 0.32848 0.77663 0.0
O184 O 0.98204 0.33707 0.72623 0.0
Zn185 Zn 0.97366 0.28064 0.73042 0.0
O186 O 0.01393 0.27515 0.71012 0.0
C187 C 0.90803 0.24514 0.69904 0.0
O188 O 0.93533 0.27713 0.68737 0.0
O189 O 0.98812 0.27378 0.76371 0.0
C190 C 0.03143 0.29606 0.69191 0.0
O191 O 0.02187 0.3227 0.68412 0.0
C192 C 0.01717 0.36875 0.72779 0.0
O193 O 0.04839 0.36461 0.73317 0.0
O194 O 0.91682 0.23893 0.71967 0.0
C195 C 0.01601 0.56501 0.55738 0.0
O196 O 0.00599 0.54379 0.57694 0.0
O197 O 0.98476 0.63912 0.59755 0.0
Zn198 Zn 0.03063 0.629 0.59016 0.0
O199 O 0.035 0.59453 0.61539 0.0
C200 C 0.08078 0.71641 0.5892 0.0
O201 O 0.0474 0.71384 0.58094 0.0
O202 O 0.02625 0.60263 0.5583 0.0
C203 C 0.03272 0.59983 0.63734 0.0
O204 O 0.0264 0.62909 0.64467 0.0
C205 C 0.9534 0.61682 0.6098 0.0
O206 O 0.94596 0.58057 0.61657 0.0
O207 O 0.08164 0.68374 0.59267 0.0
C208 C 0.44406 0.39766 0.60449 0.0
O209 O 0.46615 0.39776 0.6223 0.0
O210 O 0.38378 0.3073 0.6492 0.0
Zn211 Zn 0.3812 0.35709 0.63848 0.0
O212 O 0.41252 0.40364 0.66106 0.0
C213 C 0.30461 0.33272 0.65835 0.0
O214 O 0.32454 0.33198 0.67704 0.0
O215 O 0.40562 0.37884 0.60656 0.0
C216 C 0.41425 0.43761 0.65779 0.0
O217 O 0.39394 0.44106 0.64011 0.0
C218 C 0.39133 0.30499 0.67083 0.0
O219 O 0.40048 0.33616 0.68491 0.0
O220 O 0.32286 0.34301 0.6387 0.0
C221 C 0.53573 0.99252 0.56798 0.0
O222 O 0.53303 0.00682 0.58863 0.0
O223 O 0.6389 0.02757 0.60399 0.0
Zn224 Zn 0.58783 0.97467 0.59484 0.0
O225 O 0.54859 0.95891 0.62163 0.0
C226 C 0.63791 0.93935 0.58557 0.0
O227 O 0.66478 0.97707 0.57972 0.0
O228 O 0.55972 0.97864 0.56569 0.0
C229 C 0.53709 0.92874 0.63542 0.0
O230 O 0.55014 0.90296 0.63224 0.0
C231 C 0.6396 0.04767 0.62223 0.0
O232 O 0.60564 0.03638 0.6336 0.0
O233 O 0.60235 0.93092 0.59131 0.0
H234 H 0.39645 0.95066 0.99371 0.0
H235 H 0.49898 0.06869 0.01268 0.0
H236 H 0.44181 0.93211 0.97446 0.0
H237 H 0.54464 0.04977 0.99355 0.0
H238 H 0.60415 0.02082 0.93174 0.0
H239 H 0.55876 0.03783 0.95253 0.0
H240 H 0.49588 0.91678 0.98258 0.0
H241 H 0.54104 0.8995 0.96162 0.0
C242 C 0.42877 0.97253 0.994 0.0
C243 C 0.4441 0.01127 0.00464 0.0
C244 C 0.45479 0.96177 0.98304 0.0
C245 C 0.49678 0.98955 0.98232 0.0
C246 C 0.51232 0.02792 0.99352 0.0
C247 C 0.48624 0.03862 0.00466 0.0
C248 C 0.58042 0.99764 0.94259 0.0
C249 C 0.5762 0.95873 0.94496 0.0
C250 C 0.55469 0.00759 0.95472 0.0
C251 C 0.524 0.97882 0.96939 0.0
C252 C 0.51914 0.93958 0.97133 0.0
C253 C 0.545 0.92967 0.95929 0.0
H254 H 0.98352 0.41303 0.08194 0.0
H255 H 0.05006 0.39542 0.026 0.0
H256 H -0.00042 0.47866 0.06479 0.0
H257 H 0.06622 0.46076 0.00912 0.0
H258 H 0.03959 0.55135 0.97032 0.0
H259 H 0.02836 0.48843 0.98873 0.0
H260 H 0.05755 0.54845 0.05682 0.0
H261 H 0.06846 0.61127 0.0385 0.0
C262 C 0.00188 0.42331 0.06617 0.0
C263 C 0.01532 0.39888 0.0553 0.0
C264 C 0.01118 0.46093 0.05638 0.0
C265 C 0.03392 0.47472 0.03549 0.0
C266 C 0.04811 0.4507 0.025 0.0
C267 C 0.03901 0.41332 0.0348 0.0
C268 C 0.04392 0.55124 0.98918 0.0
C269 C 0.05488 0.58634 0.00292 0.0
C270 C 0.03761 0.51522 0.99974 0.0
C271 C 0.04195 0.51344 0.02426 0.0
C272 C 0.05348 0.54871 0.03794 0.0
C273 C 0.06002 0.58479 0.02738 0.0
H274 H 0.33624 0.44988 0.98845 0.0
H275 H 0.3945 0.42866 0.92921 0.0
H276 H 0.40257 0.49688 0.00563 0.0
H277 H 0.46091 0.47565 0.94654 0.0
H278 H 0.57176 0.59423 0.97478 0.0
H279 H 0.50575 0.54939 0.95659 0.0
H280 H 0.45905 0.49093 0.02358 0.0
H281 H 0.52516 0.53603 0.04192 0.0
C282 C 0.36317 0.45551 0.97896 0.0
C283 C 0.36004 0.43543 0.95745 0.0
C284 C 0.40117 0.48218 0.98894 0.0
C285 C 0.43692 0.48965 0.97756 0.0
C286 C 0.43388 0.47064 0.95568 0.0
C287 C 0.39583 0.4437 0.94576 0.0
C288 C 0.54746 0.57179 0.98566 0.0
C289 C 0.5537 0.56874 0.00983 0.0
C290 C 0.5097 0.54598 0.97518 0.0
C291 C 0.47719 0.51675 0.98865 0.0
C292 C 0.48342 0.51354 0.01281 0.0
C293 C 0.52134 0.53916 0.02327 0.0
H294 H 0.07036 0.29564 0.31082 0.0
H295 H 0.1555 0.37286 0.36462 0.0
H296 H 0.12013 0.27904 0.29586 0.0
H297 H 0.20561 0.35695 0.34932 0.0
H298 H 0.27234 0.29026 0.33063 0.0
H299 H 0.21946 0.30166 0.34601 0.0
H300 H 0.18427 0.31104 0.27495 0.0
H301 H 0.23686 0.29869 0.25948 0.0
C302 C 0.0997 0.30909 0.31948 0.0
C303 C 0.10896 0.33562 0.33893 0.0
C304 C 0.12834 0.29976 0.31078 0.0
C305 C 0.16693 0.31674 0.32131 0.0
C306 C 0.17599 0.3429 0.34095 0.0
C307 C 0.14733 0.35219 0.34968 0.0
C308 C 0.25321 0.29452 0.31823 0.0
C309 C 0.25893 0.29369 0.2938 0.0
C310 C 0.22303 0.30133 0.32709 0.0
C311 C 0.19781 0.30762 0.31175 0.0
C312 C 0.20293 0.30594 0.28727 0.0
C313 C 0.23315 0.299 0.27839 0.0
H314 H 0.70373 0.73813 0.36827 0.0
H315 H 0.62912 0.75603 0.41863 0.0
H316 H 0.71851 0.8009 0.34837 0.0
H317 H 0.64478 0.81974 0.3987 0.0
H318 H 0.72541 0.95341 0.36912 0.0
H319 H 0.71105 0.89144 0.3902 0.0
H320 H 0.67325 0.82269 0.32498 0.0
H321 H 0.68691 0.8845 0.30383 0.0
C322 C 0.69078 0.75567 0.37528 0.0
C323 C 0.66522 0.74208 0.39508 0.0
C324 C 0.69909 0.79148 0.36374 0.0
C325 C 0.68262 0.81494 0.37194 0.0
C326 C 0.65791 0.80213 0.39209 0.0
C327 C 0.64893 0.76573 0.40344 0.0
C328 C 0.71422 0.92513 0.35923 0.0
C329 C 0.70743 0.92385 0.33477 0.0
C330 C 0.70572 0.88967 0.37136 0.0
C331 C 0.69098 0.85241 0.35921 0.0
C332 C 0.68476 0.85117 0.33472 0.0
C333 C 0.69255 0.88647 0.32264 0.0
H334 H 0.97857 0.78935 0.33077 0.0
H335 H 0.04195 0.76058 0.27792 0.0
H336 H 0.04179 0.82875 0.35282 0.0
H337 H 0.10524 0.80054 0.29982 0.0
H338 H 0.19571 0.82699 0.35946 0.0
H339 H 0.13244 0.79163 0.33705 0.0
H340 H 0.10954 0.88996 0.35241 0.0
H341 H 0.17252 0.9251 0.37515 0.0
C342 C 0.00611 0.79207 0.3236 0.0
C343 C 0.00509 0.77155 0.30265 0.0
C344 C 0.04238 0.8147 0.33626 0.0
C345 C 0.07842 0.81725 0.32827 0.0
C346 C 0.07779 0.79842 0.30671 0.0
C347 C 0.04157 0.77589 0.29402 0.0
C348 C 0.17702 0.84091 0.35827 0.0
C349 C 0.18925 0.87892 0.36908 0.0
C350 C 0.14095 0.82084 0.34521 0.0
C351 C 0.11621 0.83825 0.34269 0.0
C352 C 0.12783 0.87567 0.35407 0.0
C353 C 0.16397 0.89581 0.3671 0.0
H354 H 0.97051 0.69574 0.60617 0.0
H355 H 0.88354 0.57895 0.63596 0.0
H356 H 0.93651 0.72743 0.62532 0.0
H357 H 0.8483 0.61053 0.6545 0.0
H358 H 0.82096 0.68847 0.70461 0.0
H359 H 0.85562 0.65661 0.68572 0.0
H360 H 0.87739 0.732 0.62437 0.0
H361 H 0.84434 0.76474 0.64353 0.0
C362 C 0.94364 0.67659 0.61648 0.0
C363 C 0.92972 0.63472 0.61949 0.0
C364 C 0.92401 0.69483 0.62745 0.0
C365 C 0.88961 0.67164 0.64153 0.0
C366 C 0.87511 0.62951 0.64413 0.0
C367 C 0.89504 0.61128 0.63329 0.0
C368 C 0.83356 0.6985 0.68719 0.0
C369 C 0.83004 0.72929 0.67564 0.0
C370 C 0.85305 0.67993 0.67624 0.0
C371 C 0.8692 0.69154 0.65344 0.0
C372 C 0.86594 0.72264 0.64205 0.0
C373 C 0.84683 0.74141 0.65306 0.0
H374 H 0.38859 0.28568 0.71724 0.0
H375 H 0.38076 0.23688 0.64712 0.0
H376 H 0.37567 0.22116 0.73408 0.0
H377 H 0.36805 0.17222 0.66414 0.0
H378 H 0.39134 0.0814 0.70528 0.0
H379 H 0.40624 0.14704 0.68928 0.0
H380 H 0.3162 0.14755 0.73499 0.0
H381 H 0.30086 0.08136 0.75104 0.0
C382 C 0.3844 0.2613 0.70539 0.0
C383 C 0.38576 0.26644 0.6808 0.0
C384 C 0.3767 0.22425 0.71509 0.0
C385 C 0.37071 0.19167 0.70044 0.0
C386 C 0.37279 0.19696 0.67585 0.0
C387 C 0.37998 0.23391 0.66612 0.0
C388 C 0.37483 0.09553 0.7121 0.0
C389 C 0.34486 0.0761 0.72948 0.0
C390 C 0.38322 0.13302 0.70277 0.0
C391 C 0.36224 0.15225 0.71078 0.0
C392 C 0.33297 0.13343 0.72856 0.0
C393 C 0.32415 0.09556 0.73772 0.0
H394 H 0.71585 0.07901 0.60369 0.0
H395 H 0.65203 0.08823 0.66413 0.0
H396 H 0.78057 0.12716 0.62241 0.0
H397 H 0.71668 0.13638 0.68271 0.0
H398 H 0.84101 0.1802 0.71896 0.0
H399 H 0.77586 0.13388 0.69986 0.0
H400 H 0.82034 0.20032 0.63479 0.0
H401 H 0.88525 0.24632 0.65369 0.0
C402 C 0.71559 0.09161 0.62083 0.0
C403 C 0.67876 0.07974 0.63241 0.0
C404 C 0.75265 0.11922 0.63154 0.0
C405 C 0.75367 0.13531 0.65411 0.0
C406 C 0.71685 0.12404 0.66547 0.0
C407 C 0.67981 0.09671 0.6547 0.0
C408 C 0.83684 0.18489 0.70059 0.0
C409 C 0.86831 0.21692 0.68786 0.0
C410 C 0.79949 0.15853 0.6897 0.0
C411 C 0.79303 0.1635 0.66582 0.0
C412 C 0.82454 0.19548 0.65313 0.0
C413 C 0.86167 0.22196 0.66404 0.0
H414 H 0.32691 0.15804 0.06946 0.0
H415 H 0.41699 0.14 0.10477 0.0
H416 H 0.31648 0.18646 0.10552 0.0
H417 H 0.40672 0.1693 0.14105 0.0
H418 H 0.40246 0.26714 0.19115 0.0
H419 H 0.41591 0.24057 0.15497 0.0
H420 H 0.28751 0.15533 0.14656 0.0
H421 H 0.27397 0.18132 0.18288 0.0
C422 C 0.34479 0.16044 0.08487 0.0
C423 C 0.3728 0.14669 0.08424 0.0
C424 C 0.33858 0.17654 0.10555 0.0
C425 C 0.36065 0.17989 0.12604 0.0
C426 C 0.38943 0.16714 0.1254 0.0
C427 C 0.3952 0.1503 0.10472 0.0
C428 C 0.37708 0.24291 0.1815 0.0
C429 C 0.3371 0.22641 0.1898 0.0
C430 C 0.38486 0.22751 0.16094 0.0
C431 C 0.35277 0.19589 0.14806 0.0
C432 C 0.31279 0.17986 0.15614 0.0
C433 C 0.30506 0.19471 0.17691 0.0
H434 H 0.91141 0.24037 0.15977 0.0
H435 H 0.84045 0.1373 0.11331 0.0
H436 H 0.87617 0.19758 0.19369 0.0
H437 H 0.80596 0.09461 0.14708 0.0
H438 H 0.72443 0.042 0.21216 0.0
H439 H 0.75782 0.08476 0.17802 0.0
H440 H 0.87302 0.13977 0.21472 0.0
H441 H 0.83966 0.09759 0.24894 0.0
C442 C 0.88823 0.2087 0.15678 0.0
C443 C 0.87884 0.19228 0.13384 0.0
C444 C 0.86826 0.18408 0.17621 0.0
C445 C 0.83839 0.14259 0.1731 0.0
C446 C 0.8285 0.12649 0.15011 0.0
C447 C 0.84848 0.151 0.13074 0.0
C448 C 0.75693 0.06293 0.21287 0.0
C449 C 0.77933 0.06635 0.23331 0.0
C450 C 0.77609 0.08745 0.19329 0.0
C451 C 0.81805 0.11595 0.19372 0.0
C452 C 0.84054 0.11869 0.21397 0.0
C453 C 0.82144 0.09416 0.23351 0.0
H454 H 0.83002 0.61855 0.20707 0.0
H455 H 0.8456 0.73801 0.22059 0.0
H456 H 0.7798 0.60604 0.17675 0.0
H457 H 0.79675 0.7264 0.18952 0.0
H458 H 0.68177 0.68224 0.14734 0.0
H459 H 0.7272 0.6895 0.17963 0.0
H460 H 0.77198 0.62419 0.13856 0.0
H461 H 0.72536 0.6154 0.10687 0.0
C462 C 0.82312 0.64239 0.20333 0.0
C463 C 0.84185 0.67931 0.21622 0.0
C464 C 0.79434 0.63528 0.18587 0.0
C465 C 0.78395 0.66512 0.18062 0.0
C466 C 0.80321 0.70229 0.19335 0.0
C467 C 0.83159 0.70917 0.21103 0.0
C468 C 0.70092 0.66894 0.14538 0.0
C469 C 0.69992 0.64827 0.12453 0.0
C470 C 0.72733 0.67347 0.16381 0.0
C471 C 0.75376 0.65787 0.1617 0.0
C472 C 0.75183 0.6362 0.14105 0.0
C473 C 0.72509 0.63124 0.12277 0.0
H474 H 0.79929 0.98046 0.85933 0.0
H475 H 0.66956 0.90098 0.8513 0.0
H476 H 0.81059 0.94475 0.827 0.0
H477 H 0.681 0.86526 0.81885 0.0
H478 H 0.72051 0.78198 0.78252 0.0
H479 H 0.71053 0.81923 0.81456 0.0
H480 H 0.7991 0.93386 0.78344 0.0
H481 H 0.80921 0.89671 0.75137 0.0
C482 C 0.77315 0.95556 0.85054 0.0
C483 C 0.73351 0.94351 0.85791 0.0
C484 C 0.77967 0.9352 0.83198 0.0
C485 C 0.7467 0.90206 0.8205 0.0
C486 C 0.70701 0.8904 0.82758 0.0
C487 C 0.70046 0.91107 0.84602 0.0
C488 C 0.73819 0.81512 0.78262 0.0
C489 C 0.76569 0.83638 0.76438 0.0
C490 C 0.73215 0.83643 0.80085 0.0
C491 C 0.75377 0.87945 0.80139 0.0
C492 C 0.78211 0.9007 0.78353 0.0
C493 C 0.78786 0.8794 0.76516 0.0
H494 H 0.18985 0.77599 0.9278 0.0
H495 H 0.084 0.71684 0.88257 0.0
H496 H 0.22713 0.82509 0.89719 0.0
H497 H 0.1221 0.76537 0.8513 0.0
H498 H 0.1895 0.88523 0.80968 0.0
H499 H 0.15068 0.83568 0.84034 0.0
H500 H 0.25809 0.83211 0.86049 0.0
H501 H 0.29691 0.88249 0.83069 0.0
C502 C 0.17467 0.773 0.91114 0.0
C503 C 0.13392 0.74231 0.90764 0.0
C504 C 0.19619 0.8012 0.89347 0.0
C505 C 0.17778 0.7993 0.87165 0.0
C506 C 0.13712 0.76818 0.86798 0.0
C507 C 0.11538 0.74007 0.88582 0.0
C508 C 0.20482 0.87408 0.82083 0.0
C509 C 0.24638 0.88807 0.81783 0.0
C510 C 0.18248 0.84535 0.83826 0.0
C511 C 0.20116 0.82975 0.85296 0.0
C512 C 0.24274 0.84388 0.84987 0.0
C513 C 0.26507 0.87278 0.83266 0.0
H514 H 0.14035 0.35442 0.90928 0.0
H515 H 0.19721 0.31641 0.85711 0.0
H516 H 0.08679 0.34161 0.88121 0.0
H517 H 0.14408 0.3045 0.82885 0.0
H518 H 0.02296 0.24789 0.79127 0.0
H519 H 0.07232 0.25768 0.82166 0.0
H520 H 0.07516 0.36779 0.84517 0.0
H521 H 0.02516 0.35755 0.81515 0.0
C522 C 0.14168 0.34371 0.89174 0.0
C523 C 0.1731 0.33642 0.88545 0.0
C524 C 0.11096 0.33645 0.87562 0.0
C525 C 0.11093 0.32176 0.85281 0.0
C526 C 0.14273 0.31507 0.84642 0.0
C527 C 0.17344 0.32229 0.86255 0.0
C528 C 0.03361 0.27385 0.80315 0.0
C529 C 0.0202 0.30203 0.80068 0.0
C530 C 0.06226 0.27969 0.82042 0.0
C531 C 0.07818 0.31385 0.83564 0.0
C532 C 0.06341 0.34103 0.83384 0.0
C533 C 0.03472 0.33516 0.81658 0.0
H534 H 0.99286 0.47466 0.41391 0.0
H535 H 0.06696 0.43409 0.44868 0.0
H536 H 0.99034 0.50787 0.45019 0.0
H537 H 0.06453 0.46771 0.48512 0.0
H538 H 0.00649 0.48916 0.55115 0.0
H539 H 0.01179 0.45801 0.51466 0.0
H540 H 0.03604 0.56628 0.47643 0.0
H541 H 0.03058 0.59758 0.51299 0.0
C542 C 0.00877 0.47294 0.42928 0.0
C543 C 0.03004 0.45162 0.42843 0.0
C544 C 0.00751 0.49223 0.45003 0.0
C545 C 0.02722 0.49041 0.47049 0.0
C546 C 0.04874 0.46931 0.46965 0.0
C547 C 0.05031 0.45026 0.44878 0.0
C548 C 0.01284 0.50636 0.53497 0.0
C549 C 0.01801 0.54586 0.53498 0.0
C550 C 0.01622 0.48859 0.5141 0.0
C551 C 0.02452 0.50976 0.49271 0.0
C552 C 0.02937 0.54912 0.49264 0.0
C553 C 0.02631 0.56707 0.51358 0.0
H554 H 0.61772 0.59852 0.5185 0.0
H555 H 0.5124 0.53652 0.47309 0.0
H556 H 0.58106 0.54949 0.54958 0.0
H557 H 0.47629 0.48641 0.50371 0.0
H558 H 0.41007 0.42397 0.57159 0.0
H559 H 0.44464 0.47398 0.54065 0.0
H560 H 0.55774 0.48097 0.55965 0.0
H561 H 0.52338 0.43232 0.59124 0.0
C562 C 0.58669 0.57444 0.51517 0.0
C563 C 0.56802 0.57146 0.49332 0.0
C564 C 0.56575 0.54599 0.53291 0.0
C565 C 0.52576 0.51349 0.52915 0.0
C566 C 0.50682 0.51116 0.50743 0.0
C567 C 0.52761 0.53991 0.4898 0.0
C568 C 0.44225 0.43589 0.569 0.0
C569 C 0.464 0.42421 0.58391 0.0
C570 C 0.46213 0.4646 0.5512 0.0
C571 C 0.50419 0.48198 0.54768 0.0
C572 C 0.52558 0.46914 0.56215 0.0
C573 C 0.50579 0.44084 0.58013 0.0
H574 H 0.53011 0.96066 0.52372 0.0
H575 H 0.47838 0.01534 0.56828 0.0
H576 H 0.4817 0.95084 0.49264 0.0
H577 H 0.42952 0.00474 0.53743 0.0
H578 H 0.37875 0.01907 0.46667 0.0
H579 H 0.42542 0.0287 0.49866 0.0
H580 H 0.40929 0.90926 0.48414 0.0
H581 H 0.3632 0.89991 0.45178 0.0
C582 C 0.50851 0.97069 0.52687 0.0
C583 C 0.50816 0.98881 0.54849 0.0
C584 C 0.48049 0.9647 0.50914 0.0
C585 C 0.4515 0.97671 0.51261 0.0
C586 C 0.45163 0.99544 0.53409 0.0
C587 C 0.47962 0.00143 0.55181 0.0
C588 C 0.38478 0.99464 0.47044 0.0
C589 C 0.36734 0.95878 0.45657 0.0
C590 C 0.41151 0.00015 0.48884 0.0
C591 C 0.42142 0.96992 0.49383 0.0
C592 C 0.40292 0.93348 0.48047 0.0
C593 C 0.37617 0.92796 0.46206 0.0
H594 H 0.22005 0.00613 0.02171 0.0
H595 H 0.28905 0.94561 0.03241 0.0
H596 H 0.15964 0.94012 0.01294 0.0
H597 H 0.22936 0.88022 0.02302 0.0
H598 H 0.11346 0.7629 0.01565 0.0
H599 H 0.16266 0.82772 0.03408 0.0
H600 H 0.13878 0.89309 0.98017 0.0
H601 H 0.08876 0.82841 0.96226 0.0
C602 C 0.22224 0.97874 0.02242 0.0
C603 C 0.25943 0.98115 0.02752 0.0
C604 C 0.18769 0.94097 0.01729 0.0
C605 C 0.18971 0.90491 0.01711 0.0
C606 C 0.22649 0.90723 0.0233 0.0
C607 C 0.2609 0.94488 0.02851 0.0
C608 C 0.11827 0.79113 0.00798 0.0
C609 C 0.09764 0.7906 0.98734 0.0
C610 C 0.14656 0.82826 0.01847 0.0
C611 C 0.15505 0.86561 0.00843 0.0
C612 C 0.13274 0.86493 0.98852 0.0
C613 C 0.10422 0.8278 0.97814 0.0
H614 H 0.01549 0.18486 0.0549 0.0
H615 H 0.08862 0.30706 0.08365 0.0
H616 H 0.07374 0.19339 0.03266 0.0
H617 H 0.14705 0.31517 0.06173 0.0
H618 H 0.20185 0.33622 0.9865 0.0
H619 H 0.15596 0.32402 0.01897 0.0
H620 H 0.14415 0.20583 0.0305 0.0
H621 H 0.19027 0.21796 0.99755 0.0
C622 C 0.04429 0.21306 0.05706 0.0
C623 C 0.04719 0.24566 0.07058 0.0
C624 C 0.07776 0.21786 0.04438 0.0
C625 C 0.11471 0.25527 0.04508 0.0
C626 C 0.11866 0.28631 0.06046 0.0
C627 C 0.08521 0.28158 0.07308 0.0
C628 C 0.18986 0.30776 0.99607 0.0
C629 C 0.19933 0.27785 0.9893 0.0
C630 C 0.16388 0.30096 0.01489 0.0
C631 C 0.14656 0.26402 0.02737 0.0
C632 C 0.15698 0.23453 0.02112 0.0
C633 C 0.18337 0.2415 0.00232 0.0
H634 H 0.63343 0.74089 0.04913 0.0
H635 H 0.76218 0.79271 0.0376 0.0
H636 H 0.63685 0.80089 0.03105 0.0
H637 H 0.76536 0.8525 0.01945 0.0
H638 H 0.72917 0.90296 0.95401 0.0
H639 H 0.73346 0.85443 0.98008 0.0
H640 H 0.66919 0.87966 0.03398 0.0
H641 H 0.66517 0.92885 0.00786 0.0
C642 C 0.66258 0.76541 0.04316 0.0
C643 C 0.69743 0.76183 0.0445 0.0
C644 C 0.66454 0.79983 0.03294 0.0
C645 C 0.70129 0.83103 0.02367 0.0
C646 C 0.73659 0.8286 0.02627 0.0
C647 C 0.73474 0.79444 0.03673 0.0
C648 C 0.71627 0.89848 0.97149 0.0
C649 C 0.69665 0.9195 0.97887 0.0
C650 C 0.71905 0.87097 0.98648 0.0
C651 C 0.70178 0.86347 0.00905 0.0
C652 C 0.68271 0.88494 0.01663 0.0
C653 C 0.68052 0.91308 0.00174 0.0
H654 H 0.72142 0.12626 0.944 0.0
H655 H 0.80959 0.0898 0.92892 0.0
H656 H 0.77009 0.18034 0.96993 0.0
H657 H 0.85887 0.1449 0.9542 0.0
H658 H 0.87161 0.28474 0.01068 0.0
H659 H 0.83316 0.24334 0.97663 0.0
H660 H 0.8623 0.15098 0.99618 0.0
H661 H 0.90137 0.19257 0.02956 0.0
C662 C 0.75162 0.13059 0.94565 0.0
C663 C 0.76146 0.10332 0.93479 0.0
C664 C 0.77963 0.16174 0.96048 0.0
C665 C 0.81812 0.16643 0.96451 0.0
C666 C 0.82908 0.14138 0.95196 0.0
C667 C 0.80095 0.10999 0.93735 0.0
C668 C 0.87002 0.25573 0.00754 0.0
C669 C 0.88931 0.24181 0.02289 0.0
C670 C 0.84796 0.23201 0.98807 0.0
C671 C 0.84474 0.1939 0.98362 0.0
C672 C 0.86479 0.18053 0.99875 0.0
C673 C 0.88689 0.20423 0.01809 0.0
H674 H 0.71222 0.55494 0.99646 0.0
H675 H 0.77125 0.68223 0.0178 0.0
H676 H 0.77761 0.56543 0.98253 0.0
H677 H 0.83596 0.69218 0.00414 0.0
H678 H 0.94099 0.66689 0.01746 0.0
H679 H 0.87366 0.65707 0.02357 0.0
H680 H 0.84012 0.61259 0.95214 0.0
H681 H 0.90847 0.62305 0.9457 0.0
C682 C 0.73887 0.58521 0.9978 0.0
C683 C 0.73666 0.61757 0.00859 0.0
C684 C 0.77614 0.59119 0.98974 0.0
C685 C 0.81164 0.62946 0.99256 0.0
C686 C 0.80897 0.66229 0.00202 0.0
C687 C 0.77187 0.6565 0.00983 0.0
C688 C 0.9194 0.65497 0.00299 0.0
C689 C 0.93005 0.64582 0.98107 0.0
C690 C 0.88093 0.64958 0.00649 0.0
C691 C 0.85202 0.63443 0.98826 0.0
C692 C 0.86209 0.62439 0.96642 0.0
C693 C 0.90108 0.63047 0.96275 0.0
H694 H 0.26013 0.20951 0.91923 0.0
H695 H 0.38669 0.29884 0.90782 0.0
H696 H 0.27879 0.15952 0.93087 0.0
H697 H 0.40529 0.24844 0.91927 0.0
H698 H 0.414 0.17626 0.98418 0.0
H699 H 0.4028 0.22156 0.95924 0.0
H700 H 0.30936 0.11708 0.92103 0.0
H701 H 0.32035 0.07142 0.94625 0.0
C702 C 0.29186 0.21817 0.91863 0.0
C703 C 0.322 0.25837 0.91304 0.0
C704 C 0.30253 0.18938 0.92514 0.0
C705 C 0.34356 0.20023 0.92626 0.0
C706 C 0.37346 0.23944 0.91887 0.0
C707 C 0.36276 0.26822 0.91223 0.0
C708 C 0.39155 0.16291 0.9702 0.0
C709 C 0.36765 0.12025 0.9674 0.0
C710 C 0.38539 0.18893 0.95574 0.0
C711 C 0.35505 0.17286 0.93823 0.0
C712 C 0.33272 0.13027 0.93452 0.0
C713 C 0.33911 0.10418 0.94891 0.0
H714 H 0.91715 0.31194 0.3564 0.0
H715 H 0.93465 0.23299 0.40362 0.0
H716 H 0.85017 0.25546 0.34592 0.0
H717 H 0.86757 0.17597 0.39265 0.0
H718 H 0.73418 0.08512 0.37486 0.0
H719 H 0.79181 0.14692 0.3921 0.0
H720 H 0.83245 0.19456 0.32218 0.0
H721 H 0.77538 0.1337 0.30517 0.0
C722 C 0.90658 0.28256 0.36468 0.0
C723 C 0.93147 0.27669 0.38051 0.0
C724 C 0.86818 0.25023 0.35867 0.0
C725 C 0.85388 0.21119 0.36822 0.0
C726 C 0.87772 0.20581 0.38512 0.0
C727 C 0.91622 0.23836 0.39126 0.0
C728 C 0.75507 0.10925 0.36329 0.0
C729 C 0.75045 0.1046 0.33869 0.0
C730 C 0.78814 0.14439 0.37313 0.0
C731 C 0.8166 0.17555 0.35849 0.0
C732 C 0.8108 0.17141 0.33396 0.0
C733 C 0.77821 0.13636 0.32419 0.0
H734 H 0.84355 0.6693 0.32613 0.0
H735 H 0.81502 0.54351 0.32967 0.0
H736 H 0.79677 0.65723 0.35807 0.0
H737 H 0.76853 0.5316 0.36225 0.0
H738 H 0.64731 0.52043 0.39081 0.0
H739 H 0.70276 0.52651 0.3667 0.0
H740 H 0.78448 0.64328 0.39952 0.0
H741 H 0.7287 0.63777 0.42313 0.0
C742 C 0.82763 0.63914 0.33391 0.0
C743 C 0.83275 0.60726 0.3252 0.0
C744 C 0.80108 0.63231 0.35245 0.0
C745 C 0.77905 0.59348 0.36283 0.0
C746 C 0.78487 0.56178 0.35451 0.0
C747 C 0.81152 0.56863 0.33589 0.0
C748 C 0.67734 0.54688 0.39335 0.0
C749 C 0.68351 0.57898 0.40855 0.0
C750 C 0.7092 0.55033 0.37954 0.0
C751 C 0.74784 0.5858 0.38084 0.0
C752 C 0.75479 0.61606 0.39769 0.0
C753 C 0.72291 0.61277 0.41133 0.0
H754 H 0.31897 0.1735 0.29262 0.0
H755 H 0.44414 0.25323 0.31358 0.0
H756 H 0.31631 0.11879 0.31605 0.0
H757 H 0.44113 0.19842 0.33758 0.0
H758 H 0.42965 0.07167 0.35202 0.0
H759 H 0.43607 0.13184 0.33242 0.0
H760 H 0.31635 0.09996 0.35661 0.0
H761 H 0.30951 0.03942 0.37564 0.0
C762 C 0.34587 0.17947 0.30237 0.0
C763 C 0.38179 0.21771 0.30121 0.0
C764 C 0.34424 0.14816 0.31597 0.0
C765 C 0.37843 0.15434 0.32882 0.0
C766 C 0.41438 0.19263 0.32773 0.0
C767 C 0.41604 0.22404 0.31406 0.0
C768 C 0.40494 0.07782 0.35339 0.0
C769 C 0.36889 0.05057 0.36511 0.0
C770 C 0.40867 0.11238 0.34223 0.0
C771 C 0.37649 0.12036 0.34271 0.0
C772 C 0.34131 0.09415 0.35547 0.0
C773 C 0.33749 0.05958 0.36648 0.0
H774 H 0.60534 0.57422 0.3353 0.0
H775 H 0.49952 0.54876 0.37601 0.0
H776 H 0.56147 0.52663 0.30475 0.0
H777 H 0.45578 0.50114 0.34546 0.0
H778 H 0.387 0.44012 0.27835 0.0
H779 H 0.43452 0.49779 0.30302 0.0
H780 H 0.51609 0.45014 0.30396 0.0
H781 H 0.46881 0.3926 0.27931 0.0
C782 C 0.57273 0.55881 0.33763 0.0
C783 C 0.55587 0.56501 0.35814 0.0
C784 C 0.54768 0.5315 0.32017 0.0
C785 C 0.50528 0.51019 0.32277 0.0
C786 C 0.48837 0.51749 0.34288 0.0
C787 C 0.51342 0.54451 0.36045 0.0
C788 C 0.41539 0.44232 0.28348 0.0
C789 C 0.42405 0.41166 0.27704 0.0
C790 C 0.44243 0.4752 0.2977 0.0
C791 C 0.4788 0.47824 0.30551 0.0
C792 C 0.4884 0.44872 0.29806 0.0
C793 C 0.46122 0.41567 0.28404 0.0
H794 H 0.57945 0.00828 0.28449 0.0
H795 H 0.54013 0.87973 0.29012 0.0
H796 H 0.51128 0.99342 0.29443 0.0
H797 H 0.47175 0.86492 0.3 0.0
H798 H 0.38829 0.87867 0.35625 0.0
H799 H 0.44662 0.88251 0.33641 0.0
H800 H 0.43806 0.95718 0.28206 0.0
H801 H 0.37959 0.9535 0.30198 0.0
C802 C 0.55609 0.97676 0.28746 0.0
C803 C 0.5653 0.94525 0.28682 0.0
C804 C 0.51695 0.96821 0.29297 0.0
C805 C 0.48628 0.92803 0.29811 0.0
C806 C 0.49494 0.89622 0.29631 0.0
C807 C 0.53405 0.90472 0.29059 0.0
C808 C 0.39836 0.89529 0.33984 0.0
C809 C 0.37965 0.91617 0.33082 0.0
C810 C 0.43161 0.89724 0.32838 0.0
C811 C 0.44702 0.92036 0.30777 0.0
C812 C 0.42699 0.93945 0.29805 0.0
C813 C 0.39343 0.93717 0.3094 0.0
H814 H 0.00716 0.6278 0.31802 0.0
H815 H 0.94653 0.56512 0.25355 0.0
H816 H 0.02851 0.57837 0.32451 0.0
H817 H 0.96913 0.5159 0.25972 0.0
H818 H 0.08104 0.49924 0.32836 0.0
H819 H 0.07084 0.55259 0.31183 0.0
H820 H 0.95227 0.46036 0.28635 0.0
H821 H 0.96314 0.40707 0.30208 0.0
C822 C -0.00111 0.60378 0.30501 0.0
C823 C 0.9748 0.60015 0.28539 0.0
C824 C 0.01154 0.5756 0.30861 0.0
C825 C 0.00065 0.54316 0.2926 0.0
C826 C 0.97769 0.5403 0.27251 0.0
C827 C 0.96486 0.56854 0.26893 0.0
C828 C 0.05318 0.49036 0.31878 0.0
C829 C 0.02262 0.44903 0.31685 0.0
C830 C 0.04722 0.52092 0.30942 0.0
C831 C 0.01039 0.51081 0.29819 0.0
C832 C 0.98109 0.46928 0.29478 0.0
C833 C 0.98724 0.43868 0.30392 0.0
H834 H 0.43493 0.51718 0.65091 0.0
H835 H 0.45861 0.4402 0.69624 0.0
H836 H 0.4895 0.57777 0.6702 0.0
H837 H 0.5126 0.50086 0.71589 0.0
H838 H 0.64281 0.61426 0.71283 0.0
H839 H 0.57971 0.55229 0.70275 0.0
H840 H 0.51574 0.61915 0.7061 0.0
H841 H 0.57935 0.6817 0.71578 0.0
C842 C 0.4512 0.51316 0.66532 0.0
C843 C 0.44289 0.47394 0.6718 0.0
C844 C 0.48233 0.54792 0.67649 0.0
C845 C 0.50565 0.54411 0.69442 0.0
C846 C 0.49564 0.50478 0.70185 0.0
C847 C 0.46461 0.47005 0.69064 0.0
C848 C 0.61524 0.61571 0.71175 0.0
C849 C 0.61618 0.653 0.71485 0.0
C850 C 0.57894 0.58005 0.70614 0.0
C851 C 0.54272 0.58084 0.70352 0.0
C852 C 0.54327 0.61772 0.70771 0.0
C853 C 0.57966 0.65347 0.71338 0.0
H854 H 0.51606 0.98354 0.65062 0.0
H855 H 0.49634 0.86277 0.66473 0.0
H856 H 0.46932 0.9754 0.68181 0.0
H857 H 0.44922 0.85472 0.6964 0.0
H858 H 0.32487 0.8455 0.72074 0.0
H859 H 0.38021 0.848 0.69795 0.0
H860 H 0.46193 0.9696 0.72499 0.0
H861 H 0.40659 0.9675 0.74743 0.0
C862 C 0.50195 0.9553 0.66051 0.0
C863 C 0.50972 0.92368 0.65511 0.0
C864 C 0.47546 0.95082 0.67859 0.0
C865 C 0.45591 0.91457 0.69169 0.0
C866 C 0.46392 0.88299 0.68655 0.0
C867 C 0.49086 0.88762 0.66848 0.0
C868 C 0.35488 0.87234 0.7223 0.0
C869 C 0.36121 0.90665 0.73547 0.0
C870 C 0.38661 0.87369 0.70931 0.0
C871 C 0.42514 0.90931 0.70936 0.0
C872 C 0.43228 0.94208 0.72425 0.0
C873 C 0.40062 0.94081 0.73715 0.0
H874 H 0.95983 0.39098 0.72321 0.0
H875 H 0.08827 0.43649 0.71506 0.0
H876 H 0.96821 0.45306 0.70506 0.0
H877 H 0.09645 0.49844 0.69674 0.0
H878 H 0.06723 0.55325 0.62998 0.0
H879 H 0.06776 0.50311 0.65643 0.0
H880 H 0.00475 0.53246 0.7091 0.0
H881 H 0.00463 0.58336 0.68262 0.0
C882 C 0.98995 0.41455 0.71793 0.0
C883 C 0.02332 0.40872 0.72031 0.0
C884 C 0.99476 0.45016 0.70769 0.0
C885 C 0.03292 0.4803 0.6994 0.0
C886 C 0.06668 0.47545 0.70289 0.0
C887 C 0.06198 0.4401 0.71343 0.0
C888 C 0.0539 0.54938 0.6473 0.0
C889 C 0.03567 0.57199 0.65421 0.0
C890 C 0.05452 0.52094 0.6625 0.0
C891 C 0.0364 0.51408 0.68479 0.0
C892 C 0.01891 0.53727 0.69197 0.0
C893 C 0.01893 0.56635 0.67687 0.0
H894 H 0.18125 0.88627 0.6998 0.0
H895 H 0.29102 0.91426 0.6626 0.0
H896 H 0.14066 0.84219 0.66715 0.0
H897 H 0.25027 0.87001 0.63001 0.0
H898 H 0.15653 0.73478 0.60342 0.0
H899 H 0.20373 0.79268 0.62794 0.0
H900 H 0.12482 0.8432 0.62354 0.0
H901 H 0.07755 0.78537 0.59893 0.0
C902 C 0.19669 0.88338 0.68455 0.0
C903 C 0.23928 0.90346 0.68384 0.0
C904 C 0.17348 0.85843 0.66579 0.0
C905 C 0.19241 0.85277 0.64608 0.0
C906 C 0.23499 0.87378 0.64505 0.0
C907 C 0.25822 0.89913 0.66369 0.0
C908 C 0.14973 0.75874 0.6072 0.0
C909 C 0.11313 0.75528 0.59948 0.0
C910 C 0.17682 0.79195 0.62116 0.0
C911 C 0.1676 0.82209 0.62783 0.0
C912 C 0.13235 0.82008 0.61884 0.0
C913 C 0.10547 0.7871 0.60463 0.0
H914 H 0.0552 0.24078 0.7014 0.0
H915 H 0.08734 0.34865 0.66029 0.0
H916 H 0.11855 0.24468 0.69008 0.0
H917 H 0.15121 0.35304 0.6494 0.0
H918 H 0.25558 0.33647 0.62424 0.0
H919 H 0.18576 0.32189 0.62874 0.0
H920 H 0.1882 0.29233 0.70194 0.0
H921 H 0.25719 0.30611 0.69741 0.0
C922 C 0.07557 0.26506 0.68972 0.0
C923 C 0.06654 0.29476 0.68201 0.0
C924 C 0.11194 0.26739 0.68333 0.0
C925 C 0.14017 0.29957 0.66919 0.0
C926 C 0.13001 0.32778 0.66024 0.0
C927 C 0.09347 0.32535 0.66657 0.0
C928 C 0.24101 0.32654 0.64122 0.0
C929 C 0.26194 0.32257 0.66049 0.0
C930 C 0.20113 0.31833 0.64381 0.0
C931 C 0.18142 0.30579 0.66566 0.0
C932 C 0.20223 0.30122 0.68475 0.0
C933 C 0.24197 0.30949 0.6822 0.0
H934 H 0.66276 0.73253 0.63075 0.0
H935 H 0.75186 0.84292 0.66667 0.0
H936 H 0.64667 0.77345 0.60455 0.0
H937 H 0.73561 0.88352 0.6407 0.0
H938 H 0.71494 0.95166 0.58453 0.0
H939 H 0.73706 0.90576 0.59945 0.0
H940 H 0.61212 0.81325 0.6121 0.0
H941 H 0.58991 0.8588 0.59704 0.0
C942 C 0.67929 0.76552 0.63284 0.0
C943 C 0.70827 0.78449 0.65092 0.0
C944 C 0.67 0.78888 0.61788 0.0
C945 C 0.68984 0.83164 0.62059 0.0
C946 C 0.72016 0.85068 0.63796 0.0
C947 C 0.7292 0.82736 0.653 0.0
C948 C 0.69212 0.92119 0.58997 0.0
C949 C 0.65071 0.9091 0.58997 0.0
C950 C 0.70483 0.895 0.59861 0.0
C951 C 0.67636 0.85617 0.60722 0.0
C952 C 0.63478 0.84292 0.60548 0.0
C953 C 0.62208 0.86914 0.59697 0.0
loop_
_geom_bond_atom_site_label_1
_geom_bond_atom_site_label_2
_geom_bond_distance
_geom_bond_site_symmetry_2
_ccdc_geom_bond_type
C0 O1 1.160 . S
C0 O7 1.185 . S
O1 C0 1.160 . S
O2 Zn3 1.899 . S
O2 C10 1.284 . S
Zn3 O2 1.899 . S
Zn3 O4 2.032 1_545 S
Zn3 O7 2.086 . S
Zn3 O12 1.977 . S
O4 Zn3 2.032 1_565 S
O4 C8 1.278 . S
C5 O6 1.203 . S
C5 O12 1.267 . S
O6 C5 1.203 . S
O7 C0 1.185 . S
O7 Zn3 2.086 . S
C8 O4 1.278 . S
C8 O9 1.211 . S
O9 C8 1.211 . S
C10 O2 1.284 . S
C10 O11 1.273 . S
O11 C10 1.273 . S
O12 Zn3 1.977 . S
O12 C5 1.267 . S
C13 O14 1.160 . S
C13 O20 1.185 . S
O14 C13 1.160 . S
O15 Zn16 1.899 1_455 S
O15 C23 1.284 . S
Zn16 O15 1.899 1_655 S
Zn16 O17 2.032 . S
Zn16 O20 2.086 . S
Zn16 O25 1.977 . S
O17 Zn16 2.032 . S
O17 C21 1.278 . S
C18 O19 1.203 1_655 S
C18 O25 1.267 . S
O19 C18 1.203 1_455 S
O20 C13 1.185 . S
O20 Zn16 2.086 . S
C21 O17 1.278 . S
C21 O22 1.211 . S
O22 C21 1.211 . S
C23 O15 1.284 . S
C23 O24 1.273 . S
O24 C23 1.273 . S
O25 Zn16 1.977 . S
O25 C18 1.267 . S
C26 O27 1.160 . S
C26 O33 1.185 . S
O27 C26 1.160 . S
O28 Zn29 1.899 . S
O28 C36 1.284 . S
Zn29 O28 1.899 . S
Zn29 O30 2.032 . S
Zn29 O33 2.086 . S
Zn29 O38 1.977 . S
O30 Zn29 2.032 . S
O30 C34 1.278 . S
C31 O32 1.203 . S
C31 O38 1.267 . S
O32 C31 1.203 . S
O33 C26 1.185 . S
O33 Zn29 2.086 . S
C34 O30 1.278 . S
C34 O35 1.211 . S
O35 C34 1.211 . S
C36 O28 1.284 . S
C36 O37 1.273 . S
O37 C36 1.273 . S
O38 Zn29 1.977 . S
O38 C31 1.267 . S
C39 O40 1.160 . S
C39 O46 1.185 . S
O40 C39 1.160 . S
O41 Zn42 1.899 . S
O41 C49 1.284 . S
Zn42 O41 1.899 . S
Zn42 O43 2.032 . S
Zn42 O46 2.086 . S
Zn42 O51 1.977 1_565 S
O43 Zn42 2.032 . S
O43 C47 1.278 . S
C44 O45 1.203 . S
C44 O51 1.267 . S
O45 C44 1.203 . S
O46 C39 1.185 . S
O46 Zn42 2.086 . S
C47 O43 1.278 . S
C47 O48 1.211 . S
O48 C47 1.211 . S
C49 O41 1.284 . S
C49 O50 1.273 . S
O50 C49 1.273 . S
O51 Zn42 1.977 1_545 S
O51 C44 1.267 . S
C52 O53 1.160 . S
C52 O59 1.185 . S
O53 C52 1.160 . S
O54 Zn55 1.899 . S
O54 C62 1.284 . S
Zn55 O54 1.899 . S
Zn55 O56 2.032 . S
Zn55 O59 2.086 . S
Zn55 O64 1.977 1_455 S
O56 Zn55 2.032 . S
O56 C60 1.278 . S
C57 O58 1.203 . S
C57 O64 1.267 . S
O58 C57 1.203 . S
O59 C52 1.185 . S
O59 Zn55 2.086 . S
C60 O56 1.278 . S
C60 O61 1.211 . S
O61 C60 1.211 . S
C62 O54 1.284 . S
C62 O63 1.273 . S
O63 C62 1.273 . S
O64 Zn55 1.977 1_655 S
O64 C57 1.267 . S
C65 O66 1.160 . S
C65 O72 1.185 . S
O66 C65 1.160 . S
O67 Zn68 1.899 . S
O67 C75 1.284 . S
Zn68 O67 1.899 . S
Zn68 O69 2.032 . S
Zn68 O72 2.086 . S
Zn68 O77 1.977 . S
O69 Zn68 2.032 . S
O69 C73 1.278 . S
C70 O71 1.203 . S
C70 O77 1.267 . S
O71 C70 1.203 . S
O72 C65 1.185 . S
O72 Zn68 2.086 . S
C73 O69 1.278 . S
C73 O74 1.211 . S
O74 C73 1.211 . S
C75 O67 1.284 . S
C75 O76 1.273 . S
O76 C75 1.273 . S
O77 Zn68 1.977 . S
O77 C70 1.267 . S
C78 O79 1.160 . S
C78 O85 1.185 . S
O79 C78 1.160 . S
O80 Zn81 1.899 . S
O80 C88 1.284 1_455 S
Zn81 O80 1.899 . S
Zn81 O82 2.032 1_455 S
Zn81 O85 2.086 . S
Zn81 O90 1.977 . S
O82 Zn81 2.032 1_655 S
O82 C86 1.278 . S
C83 O84 1.203 . S
C83 O90 1.267 1_655 S
O84 C83 1.203 . S
O85 C78 1.185 . S
O85 Zn81 2.086 . S
C86 O82 1.278 . S
C86 O87 1.211 . S
O87 C86 1.211 . S
C88 O80 1.284 1_655 S
C88 O89 1.273 . S
O89 C88 1.273 . S
O90 Zn81 1.977 . S
O90 C83 1.267 1_455 S
C91 O92 1.160 . S
C91 O98 1.185 . S
O92 C91 1.160 . S
O93 Zn94 1.899 . S
O93 C101 1.284 . S
Zn94 O93 1.899 . S
Zn94 O95 2.032 . S
Zn94 O98 2.086 . S
Zn94 O103 1.977 . S
O95 Zn94 2.032 . S
O95 C99 1.278 . S
C96 O97 1.203 . S
C96 O103 1.267 . S
O97 C96 1.203 . S
O98 C91 1.185 . S
O98 Zn94 2.086 . S
C99 O95 1.278 . S
C99 O100 1.211 . S
O100 C99 1.211 . S
C101 O93 1.284 . S
C101 O102 1.273 . S
O102 C101 1.273 . S
O103 Zn94 1.977 . S
O103 C96 1.267 . S
C104 O105 1.160 . S
C104 O111 1.185 1_545 S
O105 C104 1.160 . S
O106 Zn107 1.899 1_545 S
O106 C114 1.284 . S
Zn107 O106 1.899 1_565 S
Zn107 O108 2.032 1_565 S
Zn107 O111 2.086 . S
Zn107 O116 1.977 . S
O108 Zn107 2.032 1_545 S
O108 C112 1.278 1_545 S
C109 O110 1.203 . S
C109 O116 1.267 . S
O110 C109 1.203 . S
O111 C104 1.185 1_565 S
O111 Zn107 2.086 . S
C112 O108 1.278 1_565 S
C112 O113 1.211 . S
O113 C112 1.211 . S
C114 O106 1.284 . S
C114 O115 1.273 . S
O115 C114 1.273 . S
O116 Zn107 1.977 . S
O116 C109 1.267 . S
C117 O118 1.160 . S
C117 O124 1.185 . S
O118 C117 1.160 . S
O119 Zn120 1.899 . S
O119 C127 1.284 . S
Zn120 O119 1.899 . S
Zn120 O121 2.032 . S
Zn120 O124 2.086 . S
Zn120 O129 1.977 . S
O121 Zn120 2.032 . S
O121 C125 1.278 . S
C122 O123 1.203 . S
C122 O129 1.267 . S
O123 C122 1.203 . S
O124 C117 1.185 . S
O124 Zn120 2.086 . S
C125 O121 1.278 . S
C125 O126 1.211 . S
O126 C125 1.211 . S
C127 O119 1.284 . S
C127 O128 1.273 . S
O128 C127 1.273 . S
O129 Zn120 1.977 . S
O129 C122 1.267 . S
C130 O131 1.160 . S
C130 O137 1.185 . S
O131 C130 1.160 . S
O132 Zn133 1.899 1_565 S
O132 C140 1.284 . S
Zn133 O132 1.899 1_545 S
Zn133 O134 2.032 . S
Zn133 O137 2.086 . S
Zn133 O142 1.977 . S
O134 Zn133 2.032 . S
O134 C138 1.278 . S
C135 O136 1.203 1_545 S
C135 O142 1.267 . S
O136 C135 1.203 1_565 S
O137 C130 1.185 . S
O137 Zn133 2.086 . S
C138 O134 1.278 . S
C138 O139 1.211 . S
O139 C138 1.211 . S
C140 O132 1.284 . S
C140 O141 1.273 . S
O141 C140 1.273 . S
O142 Zn133 1.977 . S
O142 C135 1.267 . S
C143 O144 1.160 . S
C143 O150 1.185 . S
O144 C143 1.160 . S
O145 Zn146 1.899 1_455 S
O145 C153 1.284 . S
Zn146 O145 1.899 1_655 S
Zn146 O147 2.032 . S
Zn146 O150 2.086 . S
Zn146 O155 1.977 . S
O147 Zn146 2.032 . S
O147 C151 1.278 . S
C148 O149 1.203 . S
C148 O155 1.267 . S
O149 C148 1.203 . S
O150 C143 1.185 . S
O150 Zn146 2.086 . S
C151 O147 1.278 . S
C151 O152 1.211 . S
O152 C151 1.211 . S
C153 O145 1.284 . S
C153 O154 1.273 . S
O154 C153 1.273 . S
O155 Zn146 1.977 . S
O155 C148 1.267 . S
C156 O157 1.160 . S
C156 O163 1.185 . S
O157 C156 1.160 . S
O158 Zn159 1.899 . S
O158 C166 1.284 . S
Zn159 O158 1.899 . S
Zn159 O160 2.032 . S
Zn159 O163 2.086 . S
Zn159 O168 1.977 . S
O160 Zn159 2.032 . S
O160 C164 1.278 . S
C161 O162 1.203 . S
C161 O168 1.267 . S
O162 C161 1.203 . S
O163 C156 1.185 . S
O163 Zn159 2.086 . S
C164 O160 1.278 . S
C164 O165 1.211 . S
O165 C164 1.211 . S
C166 O158 1.284 . S
C166 O167 1.273 . S
O167 C166 1.273 . S
O168 Zn159 1.977 . S
O168 C161 1.267 . S
C169 O170 1.160 . S
C169 O176 1.185 . S
O170 C169 1.160 . S
O171 Zn172 1.899 . S
O171 C179 1.284 . S
Zn172 O171 1.899 . S
Zn172 O173 2.032 . S
Zn172 O176 2.086 . S
Zn172 O181 1.977 1_565 S
O173 Zn172 2.032 . S
O173 C177 1.278 . S
C174 O175 1.203 . S
C174 O181 1.267 . S
O175 C174 1.203 . S
O176 C169 1.185 . S
O176 Zn172 2.086 . S
C177 O173 1.278 . S
C177 O178 1.211 . S
O178 C177 1.211 . S
C179 O171 1.284 . S
C179 O180 1.273 . S
O180 C179 1.273 . S
O181 Zn172 1.977 1_545 S
O181 C174 1.267 . S
C182 O183 1.160 . S
C182 O189 1.185 . S
O183 C182 1.160 . S
O184 Zn185 1.899 . S
O184 C192 1.284 . S
Zn185 O184 1.899 . S
Zn185 O186 2.032 . S
Zn185 O189 2.086 . S
Zn185 O194 1.977 1_455 S
O186 Zn185 2.032 . S
O186 C190 1.278 . S
C187 O188 1.203 . S
C187 O194 1.267 . S
O188 C187 1.203 . S
O189 C182 1.185 . S
O189 Zn185 2.086 . S
C190 O186 1.278 . S
C190 O191 1.211 . S
O191 C190 1.211 . S
C192 O184 1.284 . S
C192 O193 1.273 . S
O193 C192 1.273 . S
O194 Zn185 1.977 1_655 S
O194 C187 1.267 . S
C195 O196 1.160 . S
C195 O202 1.185 1_655 S
O196 C195 1.160 . S
O197 Zn198 1.899 1_655 S
O197 C205 1.284 . S
Zn198 O197 1.899 1_455 S
Zn198 O199 2.032 1_455 S
Zn198 O202 2.086 . S
Zn198 O207 1.977 . S
O199 Zn198 2.032 1_655 S
O199 C203 1.278 1_655 S
C200 O201 1.203 . S
C200 O207 1.267 . S
O201 C200 1.203 . S
O202 C195 1.185 1_455 S
O202 Zn198 2.086 . S
C203 O199 1.278 1_455 S
C203 O204 1.211 . S
O204 C203 1.211 . S
C205 O197 1.284 . S
C205 O206 1.273 . S
O206 C205 1.273 . S
O207 Zn198 1.977 . S
O207 C200 1.267 . S
C208 O209 1.160 . S
C208 O215 1.185 . S
O209 C208 1.160 . S
O210 Zn211 1.899 . S
O210 C218 1.284 . S
Zn211 O210 1.899 . S
Zn211 O212 2.032 . S
Zn211 O215 2.086 . S
Zn211 O220 1.977 . S
O212 Zn211 2.032 . S
O212 C216 1.278 . S
C213 O214 1.203 . S
C213 O220 1.267 . S
O214 C213 1.203 . S
O215 C208 1.185 . S
O215 Zn211 2.086 . S
C216 O212 1.278 . S
C216 O217 1.211 . S
O217 C216 1.211 . S
C218 O210 1.284 . S
C218 O219 1.273 . S
O219 C218 1.273 . S
O220 Zn211 1.977 . S
O220 C213 1.267 . S
C221 O222 1.160 . S
C221 O228 1.185 1_545 S
O222 C221 1.160 . S
O223 Zn224 1.899 1_545 S
O223 C231 1.284 . S
Zn224 O223 1.899 1_565 S
Zn224 O225 2.032 1_565 S
Zn224 O228 2.086 . S
Zn224 O233 1.977 . S
O225 Zn224 2.032 1_545 S
O225 C229 1.278 1_545 S
C226 O227 1.203 . S
C226 O233 1.267 . S
O227 C226 1.203 . S
O228 C221 1.185 1_565 S
O228 Zn224 2.086 . S
C229 O225 1.278 1_565 S
C229 O230 1.211 . S
O230 C229 1.211 . S
C231 O223 1.284 . S
C231 O232 1.273 . S
O232 C231 1.273 . S
O233 Zn224 1.977 . S
O233 C226 1.267 . S
H234 C242 0.963 . S
H235 C247 0.950 . S
H236 C244 0.950 . S
H237 C246 0.950 . S
H238 C248 0.950 1_545 S
H239 C250 0.946 1_544 S
H240 C252 0.950 . S
H241 C253 0.950 . S
C242 H234 0.963 . S
C242 C243 1.386 1_565 S
C242 C244 1.391 1_554 S
C243 C242 1.386 1_545 S
C243 C247 1.393 . S
C244 H236 0.950 . S
C244 C242 1.391 1_556 S
C244 C245 1.389 1_556 S
C245 C244 1.389 1_554 S
C245 C246 1.432 1_565 S
C245 C251 1.470 1_554 S
C246 H237 0.950 . S
C246 C245 1.432 1_545 S
C246 C247 1.391 . S
C247 H235 0.950 . S
C247 C243 1.393 . S
C247 C246 1.391 . S
C248 H238 0.950 1_565 S
C248 C249 1.386 . S
C248 C250 1.396 . S
C249 C248 1.386 . S
C249 C253 1.393 . S
C250 H239 0.946 1_566 S
C250 C248 1.396 . S
C250 C251 1.400 . S
C251 C245 1.470 1_556 S
C251 C250 1.400 . S
C251 C252 1.398 . S
C252 H240 0.950 . S
C252 C251 1.398 . S
C252 C253 1.391 . S
C253 H241 0.950 . S
C253 C249 1.393 . S
C253 C252 1.391 . S
H254 C262 0.950 . S
H255 C267 0.950 . S
H256 C264 0.950 . S
H257 C266 0.950 1_556 S
H258 C268 0.950 . S
H259 C270 0.950 . S
H260 C272 0.950 1_554 S
H261 C273 0.950 . S
C262 H254 0.950 . S
C262 C263 1.386 . S
C262 C264 1.391 . S
C263 C262 1.386 . S
C263 C267 1.393 1_655 S
C264 H256 0.950 . S
C264 C262 1.391 . S
C264 C265 1.400 . S
C265 C264 1.400 . S
C265 C266 1.398 1_655 S
C265 C271 1.491 1_654 S
C266 H257 0.950 1_554 S
C266 C265 1.398 1_455 S
C266 C267 1.391 . S
C267 H255 0.950 . S
C267 C263 1.393 1_455 S
C267 C266 1.391 . S
C268 H258 0.950 . S
C268 C269 1.386 . S
C268 C270 1.391 . S
C269 C268 1.386 . S
C269 C273 1.393 1_455 S
C270 H259 0.950 . S
C270 C268 1.391 . S
C270 C271 1.400 . S
C271 C265 1.491 1_456 S
C271 C270 1.400 . S
C271 C272 1.398 1_455 S
C272 H260 0.950 1_556 S
C272 C271 1.398 1_655 S
C272 C273 1.391 . S
C273 H261 0.950 . S
C273 C269 1.393 1_655 S
C273 C272 1.391 . S
H274 C282 0.966 . S
H275 C287 0.950 . S
H276 C284 0.950 . S
H277 C286 0.950 . S
H278 C288 0.971 . S
H279 C290 0.950 . S
H280 C292 0.950 . S
H281 C293 0.950 . S
C282 H274 0.966 . S
C282 C283 1.386 . S
C282 C284 1.391 1_556 S
C283 C282 1.386 . S
C283 C287 1.393 . S
C284 H276 0.950 . S
C284 C282 1.391 1_554 S
C284 C285 1.400 1_554 S
C285 C284 1.400 1_556 S
C285 C286 1.398 . S
C285 C291 1.491 1_556 S
C286 H277 0.950 . S
C286 C285 1.398 . S
C286 C287 1.391 . S
C287 H275 0.950 . S
C287 C283 1.393 . S
C287 C286 1.391 . S
C288 H278 0.971 . S
C288 C289 1.386 . S
C288 C290 1.391 1_554 S
C289 C288 1.386 . S
C289 C293 1.393 . S
C290 H279 0.950 . S
C290 C288 1.391 1_556 S
C290 C291 1.400 1_556 S
C291 C285 1.491 1_554 S
C291 C290 1.400 1_554 S
C291 C292 1.398 . S
C292 H280 0.950 . S
C292 C291 1.398 . S
C292 C293 1.391 . S
C293 H281 0.950 . S
C293 C289 1.393 . S
C293 C292 1.391 . S
H294 C302 0.950 . S
H295 C307 0.950 . S
H296 C304 0.950 . S
H297 C306 0.950 . S
H298 C308 0.950 . S
H299 C310 0.950 . S
H300 C312 0.950 . S
H301 C313 0.950 . S
C302 H294 0.950 . S
C302 C303 1.386 . S
C302 C304 1.391 . S
C303 C302 1.386 . S
C303 C307 1.393 . S
C304 H296 0.950 . S
C304 C302 1.391 . S
C304 C305 1.400 . S
C305 C304 1.400 . S
C305 C306 1.398 . S
C305 C311 1.491 . S
C306 H297 0.950 . S
C306 C305 1.398 . S
C306 C307 1.391 . S
C307 H295 0.950 . S
C307 C303 1.393 . S
C307 C306 1.391 . S
C308 H298 0.950 . S
C308 C309 1.386 . S
C308 C310 1.391 . S
C309 C308 1.386 . S
C309 C313 1.393 . S
C310 H299 0.950 . S
C310 C308 1.391 . S
C310 C311 1.400 . S
C311 C305 1.491 . S
C311 C310 1.400 . S
C311 C312 1.398 . S
C312 H300 0.950 . S
C312 C311 1.398 . S
C312 C313 1.391 . S
C313 H301 0.950 . S
C313 C309 1.393 . S
C313 C312 1.391 . S
H314 C322 0.950 . S
H315 C327 0.950 . S
H316 C324 0.950 . S
H317 C326 0.950 . S
H318 C328 0.950 . S
H319 C330 0.950 . S
H320 C332 0.950 . S
H321 C333 0.950 . S
C322 H314 0.950 . S
C322 C323 1.386 . S
C322 C324 1.391 . S
C323 C322 1.386 . S
C323 C327 1.393 . S
C324 H316 0.950 . S
C324 C322 1.391 . S
C324 C325 1.400 . S
C325 C324 1.400 . S
C325 C326 1.398 . S
C325 C331 1.491 . S
C326 H317 0.950 . S
C326 C325 1.398 . S
C326 C327 1.391 . S
C327 H315 0.950 . S
C327 C323 1.393 . S
C327 C326 1.391 . S
C328 H318 0.950 . S
C328 C329 1.386 . S
C328 C330 1.391 . S
C329 C328 1.386 . S
C329 C333 1.393 . S
C330 H319 0.950 . S
C330 C328 1.391 . S
C330 C331 1.400 . S
C331 C325 1.491 . S
C331 C330 1.400 . S
C331 C332 1.398 . S
C332 H320 0.950 . S
C332 C331 1.398 . S
C332 C333 1.391 . S
C333 H321 0.950 . S
C333 C329 1.393 . S
C333 C332 1.391 . S
H334 C342 0.950 . S
H335 C347 0.950 . S
H336 C344 0.950 . S
H337 C346 0.950 . S
H338 C348 0.950 . S
H339 C350 0.950 . S
H340 C352 0.950 . S
H341 C353 0.950 . S
C342 H334 0.950 . S
C342 C343 1.386 . S
C342 C344 1.391 . S
C343 C342 1.386 . S
C343 C347 1.393 . S
C344 H336 0.950 . S
C344 C342 1.391 . S
C344 C345 1.400 . S
C345 C344 1.400 . S
C345 C346 1.398 . S
C345 C351 1.491 . S
C346 H337 0.950 . S
C346 C345 1.398 . S
C346 C347 1.391 . S
C347 H335 0.950 . S
C347 C343 1.393 . S
C347 C346 1.391 . S
C348 H338 0.950 . S
C348 C349 1.386 . S
C348 C350 1.391 . S
C349 C348 1.386 . S
C349 C353 1.393 . S
C350 H339 0.950 . S
C350 C348 1.391 . S
C350 C351 1.400 . S
C351 C345 1.491 . S
C351 C350 1.400 . S
C351 C352 1.398 . S
C352 H340 0.950 . S
C352 C351 1.398 . S
C352 C353 1.391 . S
C353 H341 0.950 . S
C353 C349 1.393 . S
C353 C352 1.391 . S
H354 C362 0.950 . S
H355 C367 0.950 . S
H356 C364 0.950 . S
H357 C366 0.950 . S
H358 C368 0.950 . S
H359 C370 0.950 . S
H360 C372 0.950 . S
H361 C373 0.950 . S
C362 H354 0.950 . S
C362 C363 1.386 . S
C362 C364 1.391 . S
C363 C362 1.386 . S
C363 C367 1.393 . S
C364 H356 0.950 . S
C364 C362 1.391 . S
C364 C365 1.400 . S
C365 C364 1.400 . S
C365 C366 1.398 . S
C365 C371 1.491 . S
C366 H357 0.950 . S
C366 C365 1.398 . S
C366 C367 1.391 . S
C367 H355 0.950 . S
C367 C363 1.393 . S
C367 C366 1.391 . S
C368 H358 0.950 . S
C368 C369 1.386 . S
C368 C370 1.391 . S
C369 C368 1.386 . S
C369 C373 1.393 . S
C370 H359 0.950 . S
C370 C368 1.391 . S
C370 C371 1.400 . S
C371 C365 1.491 . S
C371 C370 1.400 . S
C371 C372 1.398 . S
C372 H360 0.950 . S
C372 C371 1.398 . S
C372 C373 1.391 . S
C373 H361 0.950 . S
C373 C369 1.393 . S
C373 C372 1.391 . S
H374 C382 0.950 . S
H375 C387 0.950 . S
H376 C384 0.950 . S
H377 C386 0.950 . S
H378 C388 0.950 . S
H379 C390 0.950 . S
H380 C392 0.950 . S
H381 C393 0.950 . S
C382 H374 0.950 . S
C382 C383 1.386 . S
C382 C384 1.391 . S
C383 C382 1.386 . S
C383 C387 1.393 . S
C384 H376 0.950 . S
C384 C382 1.391 . S
C384 C385 1.400 . S
C385 C384 1.400 . S
C385 C386 1.398 . S
C385 C391 1.491 . S
C386 H377 0.950 . S
C386 C385 1.398 . S
C386 C387 1.391 . S
C387 H375 0.950 . S
C387 C383 1.393 . S
C387 C386 1.391 . S
C388 H378 0.950 . S
C388 C389 1.386 . S
C388 C390 1.391 . S
C389 C388 1.386 . S
C389 C393 1.393 . S
C390 H379 0.950 . S
C390 C388 1.391 . S
C390 C391 1.400 . S
C391 C385 1.491 . S
C391 C390 1.400 . S
C391 C392 1.398 . S
C392 H380 0.950 . S
C392 C391 1.398 . S
C392 C393 1.391 . S
C393 H381 0.950 . S
C393 C389 1.393 . S
C393 C392 1.391 . S
H394 C402 0.950 . S
H395 C407 0.950 . S
H396 C404 0.950 . S
H397 C406 0.950 . S
H398 C408 0.950 . S
H399 C410 0.950 . S
H400 C412 0.950 . S
H401 C413 0.950 . S
C402 H394 0.950 . S
C402 C403 1.386 . S
C402 C404 1.391 . S
C403 C402 1.386 . S
C403 C407 1.393 . S
C404 H396 0.950 . S
C404 C402 1.391 . S
C404 C405 1.400 . S
C405 C404 1.400 . S
C405 C406 1.398 . S
C405 C411 1.491 . S
C406 H397 0.950 . S
C406 C405 1.398 . S
C406 C407 1.391 . S
C407 H395 0.950 . S
C407 C403 1.393 . S
C407 C406 1.391 . S
C408 H398 0.950 . S
C408 C409 1.386 . S
C408 C410 1.391 . S
C409 C408 1.386 . S
C409 C413 1.393 . S
C410 H399 0.950 . S
C410 C408 1.391 . S
C410 C411 1.400 . S
C411 C405 1.491 . S
C411 C410 1.400 . S
C411 C412 1.398 . S
C412 H400 0.950 . S
C412 C411 1.398 . S
C412 C413 1.391 . S
C413 H401 0.950 . S
C413 C409 1.393 . S
C413 C412 1.391 . S
H414 C422 0.950 . S
H415 C427 0.950 . S
H416 C424 0.950 . S
H417 C426 0.950 . S
H418 C428 0.950 . S
H419 C430 0.950 . S
H420 C432 0.950 . S
H421 C433 0.950 . S
C422 H414 0.950 . S
C422 C423 1.386 . S
C422 C424 1.391 . S
C423 C422 1.386 . S
C423 C427 1.393 . S
C424 H416 0.950 . S
C424 C422 1.391 . S
C424 C425 1.400 . S
C425 C424 1.400 . S
C425 C426 1.398 . S
C425 C431 1.491 . S
C426 H417 0.950 . S
C426 C425 1.398 . S
C426 C427 1.391 . S
C427 H415 0.950 . S
C427 C423 1.393 . S
C427 C426 1.391 . S
C428 H418 0.950 . S
C428 C429 1.386 . S
C428 C430 1.391 . S
C429 C428 1.386 . S
C429 C433 1.393 . S
C430 H419 0.950 . S
C430 C428 1.391 . S
C430 C431 1.400 . S
C431 C425 1.491 . S
C431 C430 1.400 . S
C431 C432 1.398 . S
C432 H420 0.950 . S
C432 C431 1.398 . S
C432 C433 1.391 . S
C433 H421 0.950 . S
C433 C429 1.393 . S
C433 C432 1.391 . S
H434 C442 0.950 . S
H435 C447 0.950 . S
H436 C444 0.950 . S
H437 C446 0.950 . S
H438 C448 0.950 . S
H439 C450 0.950 . S
H440 C452 0.950 . S
H441 C453 0.950 . S
C442 H434 0.950 . S
C442 C443 1.386 . S
C442 C444 1.391 . S
C443 C442 1.386 . S
C443 C447 1.393 . S
C444 H436 0.950 . S
C444 C442 1.391 . S
C444 C445 1.400 . S
C445 C444 1.400 . S
C445 C446 1.398 . S
C445 C451 1.491 . S
C446 H437 0.950 . S
C446 C445 1.398 . S
C446 C447 1.391 . S
C447 H435 0.950 . S
C447 C443 1.393 . S
C447 C446 1.391 . S
C448 H438 0.950 . S
C448 C449 1.386 . S
C448 C450 1.391 . S
C449 C448 1.386 . S
C449 C453 1.393 . S
C450 H439 0.950 . S
C450 C448 1.391 . S
C450 C451 1.400 . S
C451 C445 1.491 . S
C451 C450 1.400 . S
C451 C452 1.398 . S
C452 H440 0.950 . S
C452 C451 1.398 . S
C452 C453 1.391 . S
C453 H441 0.950 . S
C453 C449 1.393 . S
C453 C452 1.391 . S
H454 C462 0.950 . S
H455 C467 0.950 . S
H456 C464 0.950 . S
H457 C466 0.950 . S
H458 C468 0.950 . S
H459 C470 0.950 . S
H460 C472 0.950 . S
H461 C473 0.950 . S
C462 H454 0.950 . S
C462 C463 1.386 . S
C462 C464 1.391 . S
C463 C462 1.386 . S
C463 C467 1.393 . S
C464 H456 0.950 . S
C464 C462 1.391 . S
C464 C465 1.400 . S
C465 C464 1.400 . S
C465 C466 1.398 . S
C465 C471 1.491 . S
C466 H457 0.950 . S
C466 C465 1.398 . S
C466 C467 1.391 . S
C467 H455 0.950 . S
C467 C463 1.393 . S
C467 C466 1.391 . S
C468 H458 0.950 . S
C468 C469 1.386 . S
C468 C470 1.391 . S
C469 C468 1.386 . S
C469 C473 1.393 . S
C470 H459 0.950 . S
C470 C468 1.391 . S
C470 C471 1.400 . S
C471 C465 1.491 . S
C471 C470 1.400 . S
C471 C472 1.398 . S
C472 H460 0.950 . S
C472 C471 1.398 . S
C472 C473 1.391 . S
C473 H461 0.950 . S
C473 C469 1.393 . S
C473 C472 1.391 . S
H474 C482 0.950 . S
H475 C487 0.950 . S
H476 C484 0.950 . S
H477 C486 0.950 . S
H478 C488 0.950 . S
H479 C490 0.950 . S
H480 C492 0.950 . S
H481 C493 0.950 . S
C482 H474 0.950 . S
C482 C483 1.386 . S
C482 C484 1.391 . S
C483 C482 1.386 . S
C483 C487 1.393 . S
C484 H476 0.950 . S
C484 C482 1.391 . S
C484 C485 1.400 . S
C485 C484 1.400 . S
C485 C486 1.398 . S
C485 C491 1.491 . S
C486 H477 0.950 . S
C486 C485 1.398 . S
C486 C487 1.391 . S
C487 H475 0.950 . S
C487 C483 1.393 . S
C487 C486 1.391 . S
C488 H478 0.950 . S
C488 C489 1.386 . S
C488 C490 1.391 . S
C489 C488 1.386 . S
C489 C493 1.393 . S
C490 H479 0.950 . S
C490 C488 1.391 . S
C490 C491 1.400 . S
C491 C485 1.491 . S
C491 C490 1.400 . S
C491 C492 1.398 . S
C492 H480 0.950 . S
C492 C491 1.398 . S
C492 C493 1.391 . S
C493 H481 0.950 . S
C493 C489 1.393 . S
C493 C492 1.391 . S
H494 C502 0.950 . S
H495 C507 0.950 . S
H496 C504 0.950 . S
H497 C506 0.950 . S
H498 C508 0.950 . S
H499 C510 0.950 . S
H500 C512 0.950 . S
H501 C513 0.950 . S
C502 H494 0.950 . S
C502 C503 1.386 . S
C502 C504 1.391 . S
C503 C502 1.386 . S
C503 C507 1.393 . S
C504 H496 0.950 . S
C504 C502 1.391 . S
C504 C505 1.400 . S
C505 C504 1.400 . S
C505 C506 1.398 . S
C505 C511 1.491 . S
C506 H497 0.950 . S
C506 C505 1.398 . S
C506 C507 1.391 . S
C507 H495 0.950 . S
C507 C503 1.393 . S
C507 C506 1.391 . S
C508 H498 0.950 . S
C508 C509 1.386 . S
C508 C510 1.391 . S
C509 C508 1.386 . S
C509 C513 1.393 . S
C510 H499 0.950 . S
C510 C508 1.391 . S
C510 C511 1.400 . S
C511 C505 1.491 . S
C511 C510 1.400 . S
C511 C512 1.398 . S
C512 H500 0.950 . S
C512 C511 1.398 . S
C512 C513 1.391 . S
C513 H501 0.950 . S
C513 C509 1.393 . S
C513 C512 1.391 . S
H514 C522 0.950 . S
H515 C527 0.950 . S
H516 C524 0.950 . S
H517 C526 0.950 . S
H518 C528 0.950 . S
H519 C530 0.950 . S
H520 C532 0.950 . S
H521 C533 0.950 . S
C522 H514 0.950 . S
C522 C523 1.386 . S
C522 C524 1.391 . S
C523 C522 1.386 . S
C523 C527 1.393 . S
C524 H516 0.950 . S
C524 C522 1.391 . S
C524 C525 1.400 . S
C525 C524 1.400 . S
C525 C526 1.398 . S
C525 C531 1.491 . S
C526 H517 0.950 . S
C526 C525 1.398 . S
C526 C527 1.391 . S
C527 H515 0.950 . S
C527 C523 1.393 . S
C527 C526 1.391 . S
C528 H518 0.950 . S
C528 C529 1.386 . S
C528 C530 1.391 . S
C529 C528 1.386 . S
C529 C533 1.393 . S
C530 H519 0.950 . S
C530 C528 1.391 . S
C530 C531 1.400 . S
C531 C525 1.491 . S
C531 C530 1.400 . S
C531 C532 1.398 . S
C532 H520 0.950 . S
C532 C531 1.398 . S
C532 C533 1.391 . S
C533 H521 0.950 . S
C533 C529 1.393 . S
C533 C532 1.391 . S
H534 C542 0.950 . S
H535 C547 0.950 . S
H536 C544 0.950 . S
H537 C546 0.950 . S
H538 C548 0.950 . S
H539 C550 0.950 . S
H540 C552 0.950 . S
H541 C553 0.950 . S
C542 H534 0.950 . S
C542 C543 1.386 . S
C542 C544 1.391 . S
C543 C542 1.386 . S
C543 C547 1.393 1_655 S
C544 H536 0.950 . S
C544 C542 1.391 . S
C544 C545 1.400 . S
C545 C544 1.400 . S
C545 C546 1.398 1_655 S
C545 C551 1.491 . S
C546 H537 0.950 . S
C546 C545 1.398 1_455 S
C546 C547 1.391 . S
C547 H535 0.950 . S
C547 C543 1.393 1_455 S
C547 C546 1.391 . S
C548 H538 0.950 . S
C548 C549 1.386 1_455 S
C548 C550 1.391 . S
C549 C548 1.386 1_655 S
C549 C553 1.393 . S
C550 H539 0.950 . S
C550 C548 1.391 . S
C550 C551 1.400 1_455 S
C551 C545 1.491 . S
C551 C550 1.400 1_655 S
C551 C552 1.398 . S
C552 H540 0.950 . S
C552 C551 1.398 . S
C552 C553 1.391 . S
C553 H541 0.950 . S
C553 C549 1.393 . S
C553 C552 1.391 . S
H554 C562 0.950 . S
H555 C567 0.950 . S
H556 C564 0.950 . S
H557 C566 0.950 . S
H558 C568 0.950 . S
H559 C570 0.950 . S
H560 C572 0.950 . S
H561 C573 0.950 . S
C562 H554 0.950 . S
C562 C563 1.386 . S
C562 C564 1.391 . S
C563 C562 1.386 . S
C563 C567 1.393 . S
C564 H556 0.950 . S
C564 C562 1.391 . S
C564 C565 1.400 . S
C565 C564 1.400 . S
C565 C566 1.398 . S
C565 C571 1.491 . S
C566 H557 0.950 . S
C566 C565 1.398 . S
C566 C567 1.391 . S
C567 H555 0.950 . S
C567 C563 1.393 . S
C567 C566 1.391 . S
C568 H558 0.950 . S
C568 C569 1.386 . S
C568 C570 1.391 . S
C569 C568 1.386 . S
C569 C573 1.393 . S
C570 H559 0.950 . S
C570 C568 1.391 . S
C570 C571 1.400 . S
C571 C565 1.491 . S
C571 C570 1.400 . S
C571 C572 1.398 . S
C572 H560 0.950 . S
C572 C571 1.398 . S
C572 C573 1.391 . S
C573 H561 0.950 . S
C573 C569 1.393 . S
C573 C572 1.391 . S
H574 C582 0.950 . S
H575 C587 0.950 . S
H576 C584 0.950 . S
H577 C586 0.950 . S
H578 C588 0.950 . S
H579 C590 0.950 . S
H580 C592 0.950 . S
H581 C593 0.950 . S
C582 H574 0.950 . S
C582 C583 1.386 1_565 S
C582 C584 1.391 . S
C583 C582 1.386 1_545 S
C583 C587 1.393 . S
C584 H576 0.950 . S
C584 C582 1.391 . S
C584 C585 1.400 1_565 S
C585 C584 1.400 1_545 S
C585 C586 1.398 . S
C585 C591 1.491 . S
C586 H577 0.950 . S
C586 C585 1.398 . S
C586 C587 1.391 . S
C587 H575 0.950 . S
C587 C583 1.393 . S
C587 C586 1.391 . S
C588 H578 0.950 . S
C588 C589 1.386 . S
C588 C590 1.391 . S
C589 C588 1.386 . S
C589 C593 1.393 1_545 S
C590 H579 0.950 . S
C590 C588 1.391 . S
C590 C591 1.400 . S
C591 C585 1.491 . S
C591 C590 1.400 . S
C591 C592 1.398 1_545 S
C592 H580 0.950 . S
C592 C591 1.398 1_565 S
C592 C593 1.391 . S
C593 H581 0.950 . S
C593 C589 1.393 1_565 S
C593 C592 1.391 . S
H594 C602 0.950 . S
H595 C607 0.950 . S
H596 C604 0.950 . S
H597 C606 0.950 . S
H598 C608 0.950 . S
H599 C610 0.950 . S
H600 C612 0.950 1_554 S
H601 C613 0.950 . S
C602 H594 0.950 . S
C602 C603 1.386 . S
C602 C604 1.391 . S
C603 C602 1.386 . S
C603 C607 1.393 . S
C604 H596 0.950 . S
C604 C602 1.391 . S
C604 C605 1.400 . S
C605 C604 1.400 . S
C605 C606 1.398 . S
C605 C611 1.491 . S
C606 H597 0.950 . S
C606 C605 1.398 . S
C606 C607 1.391 . S
C607 H595 0.950 . S
C607 C603 1.393 . S
C607 C606 1.391 . S
C608 H598 0.950 . S
C608 C609 1.386 . S
C608 C610 1.391 . S
C609 C608 1.386 . S
C609 C613 1.393 . S
C610 H599 0.950 . S
C610 C608 1.391 . S
C610 C611 1.400 1_556 S
C611 C605 1.491 . S
C611 C610 1.400 1_554 S
C611 C612 1.398 1_554 S
C612 H600 0.950 1_556 S
C612 C611 1.398 1_556 S
C612 C613 1.391 . S
C613 H601 0.950 . S
C613 C609 1.393 . S
C613 C612 1.391 . S
H614 C622 0.950 . S
H615 C627 0.950 . S
H616 C624 0.950 . S
H617 C626 0.950 1_556 S
H618 C628 0.950 . S
H619 C630 0.950 . S
H620 C632 0.950 . S
H621 C633 0.950 . S
C622 H614 0.950 . S
C622 C623 1.386 . S
C622 C624 1.391 . S
C623 C622 1.386 . S
C623 C627 1.393 . S
C624 H616 0.950 . S
C624 C622 1.391 . S
C624 C625 1.400 . S
C625 C624 1.400 . S
C625 C626 1.398 . S
C625 C631 1.491 . S
C626 H617 0.950 1_554 S
C626 C625 1.398 . S
C626 C627 1.391 . S
C627 H615 0.950 . S
C627 C623 1.393 . S
C627 C626 1.391 . S
C628 H618 0.950 . S
C628 C629 1.386 . S
C628 C630 1.391 . S
C629 C628 1.386 . S
C629 C633 1.393 1_556 S
C630 H619 0.950 . S
C630 C628 1.391 . S
C630 C631 1.400 1_556 S
C631 C625 1.491 . S
C631 C630 1.400 1_554 S
C631 C632 1.398 . S
C632 H620 0.950 . S
C632 C631 1.398 . S
C632 C633 1.391 . S
C633 H621 0.950 . S
C633 C629 1.393 1_554 S
C633 C632 1.391 . S
H634 C642 0.950 . S
H635 C647 0.950 . S
H636 C644 0.950 . S
H637 C646 0.918 1_556 S
H638 C648 0.950 . S
H639 C650 0.950 . S
H640 C652 0.950 . S
H641 C653 0.950 . S
C642 H634 0.950 . S
C642 C643 1.386 . S
C642 C644 1.391 . S
C643 C642 1.386 . S
C643 C647 1.393 . S
C644 H636 0.950 . S
C644 C642 1.391 . S
C644 C645 1.400 . S
C645 C644 1.400 . S
C645 C646 1.398 . S
C645 C651 1.516 . S
C646 H637 0.918 1_554 S
C646 C645 1.398 . S
C646 C647 1.391 . S
C647 H635 0.950 . S
C647 C643 1.393 . S
C647 C646 1.391 . S
C648 H638 0.950 . S
C648 C649 1.386 . S
C648 C650 1.391 . S
C649 C648 1.386 . S
C649 C653 1.393 . S
C650 H639 0.950 . S
C650 C648 1.391 . S
C650 C651 1.367 1_556 S
C651 C645 1.516 . S
C651 C650 1.367 1_554 S
C651 C652 1.406 . S
C652 H640 0.950 . S
C652 C651 1.406 . S
C652 C653 1.391 1_554 S
C653 H641 0.950 . S
C653 C649 1.393 . S
C653 C652 1.391 1_556 S
H654 C662 0.950 . S
H655 C667 0.950 . S
H656 C664 0.950 1_554 S
H657 C666 0.950 . S
H658 C668 0.942 1_556 S
H659 C670 0.950 . S
H660 C672 0.950 . S
H661 C673 0.950 . S
C662 H654 0.950 . S
C662 C663 1.386 . S
C662 C664 1.391 . S
C663 C662 1.386 . S
C663 C667 1.393 . S
C664 H656 0.950 1_556 S
C664 C662 1.391 . S
C664 C665 1.400 . S
C665 C664 1.400 . S
C665 C666 1.398 . S
C665 C671 1.491 . S
C666 H657 0.950 . S
C666 C665 1.398 . S
C666 C667 1.391 . S
C667 H655 0.950 . S
C667 C663 1.393 . S
C667 C666 1.391 . S
C668 H658 0.942 1_554 S
C668 C669 1.386 . S
C668 C670 1.391 1_554 S
C669 C668 1.386 . S
C669 C673 1.393 . S
C670 H659 0.950 . S
C670 C668 1.391 1_556 S
C670 C671 1.400 . S
C671 C665 1.491 . S
C671 C670 1.400 . S
C671 C672 1.398 1_556 S
C672 H660 0.950 . S
C672 C671 1.398 1_554 S
C672 C673 1.391 . S
C673 H661 0.950 . S
C673 C669 1.393 . S
C673 C672 1.391 . S
H674 C682 0.950 . S
H675 C687 0.950 . S
H676 C684 0.950 . S
H677 C686 0.950 . S
H678 C688 0.950 . S
H679 C690 0.975 . S
H680 C692 0.950 . S
H681 C693 0.950 . S
C682 H674 0.950 . S
C682 C683 1.386 . S
C682 C684 1.391 1_554 S
C683 C682 1.386 . S
C683 C687 1.393 . S
C684 H676 0.950 . S
C684 C682 1.391 1_556 S
C684 C685 1.400 1_556 S
C685 C684 1.400 1_554 S
C685 C686 1.399 . S
C685 C691 1.490 1_554 S
C686 H677 0.950 . S
C686 C685 1.399 . S
C686 C687 1.391 . S
C687 H675 0.950 . S
C687 C683 1.393 . S
C687 C686 1.391 . S
C688 H678 0.950 . S
C688 C689 1.386 . S
C688 C690 1.391 . S
C689 C688 1.386 . S
C689 C693 1.393 . S
C690 H679 0.975 . S
C690 C688 1.391 . S
C690 C691 1.400 . S
C691 C685 1.490 1_556 S
C691 C690 1.400 . S
C691 C692 1.398 . S
C692 H680 0.950 . S
C692 C691 1.398 . S
C692 C693 1.391 . S
C693 H681 0.950 . S
C693 C689 1.393 . S
C693 C692 1.391 . S
H694 C702 0.950 . S
H695 C707 0.950 . S
H696 C704 0.950 . S
H697 C706 0.950 . S
H698 C708 0.950 . S
H699 C710 0.950 . S
H700 C712 0.938 1_556 S
H701 C713 0.950 . S
C702 H694 0.950 . S
C702 C703 1.386 . S
C702 C704 1.391 . S
C703 C702 1.386 . S
C703 C707 1.393 . S
C704 H696 0.950 . S
C704 C702 1.391 . S
C704 C705 1.400 . S
C705 C704 1.400 . S
C705 C706 1.398 . S
C705 C711 1.512 . S
C706 H697 0.950 . S
C706 C705 1.398 . S
C706 C707 1.391 . S
C707 H695 0.950 . S
C707 C703 1.393 . S
C707 C706 1.391 . S
C708 H698 0.950 . S
C708 C709 1.386 . S
C708 C710 1.391 . S
C709 C708 1.386 . S
C709 C713 1.393 . S
C710 H699 0.950 . S
C710 C708 1.391 . S
C710 C711 1.382 1_554 S
C711 C705 1.512 . S
C711 C710 1.382 1_556 S
C711 C712 1.395 1_556 S
C712 H700 0.938 1_554 S
C712 C711 1.395 1_554 S
C712 C713 1.405 . S
C713 H701 0.950 . S
C713 C709 1.393 . S
C713 C712 1.405 . S
H714 C722 0.950 . S
H715 C727 0.950 . S
H716 C724 0.950 . S
H717 C726 0.950 . S
H718 C728 0.950 . S
H719 C730 0.950 . S
H720 C732 0.950 . S
H721 C733 0.950 . S
C722 H714 0.950 . S
C722 C723 1.386 . S
C722 C724 1.391 . S
C723 C722 1.386 . S
C723 C727 1.393 . S
C724 H716 0.950 . S
C724 C722 1.391 . S
C724 C725 1.400 . S
C725 C724 1.400 . S
C725 C726 1.398 . S
C725 C731 1.491 . S
C726 H717 0.950 . S
C726 C725 1.398 . S
C726 C727 1.391 . S
C727 H715 0.950 . S
C727 C723 1.393 . S
C727 C726 1.391 . S
C728 H718 0.950 . S
C728 C729 1.386 . S
C728 C730 1.391 . S
C729 C728 1.386 . S
C729 C733 1.393 . S
C730 H719 0.950 . S
C730 C728 1.391 . S
C730 C731 1.400 . S
C731 C725 1.491 . S
C731 C730 1.400 . S
C731 C732 1.398 . S
C732 H720 0.950 . S
C732 C731 1.398 . S
C732 C733 1.391 . S
C733 H721 0.950 . S
C733 C729 1.393 . S
C733 C732 1.391 . S
H734 C742 0.950 . S
H735 C747 0.950 . S
H736 C744 0.950 . S
H737 C746 0.950 . S
H738 C748 0.950 . S
H739 C750 0.950 . S
H740 C752 0.950 . S
H741 C753 0.950 . S
C742 H734 0.950 . S
C742 C743 1.386 . S
C742 C744 1.391 . S
C743 C742 1.386 . S
C743 C747 1.393 . S
C744 H736 0.950 . S
C744 C742 1.391 . S
C744 C745 1.400 . S
C745 C744 1.400 . S
C745 C746 1.398 . S
C745 C751 1.491 . S
C746 H737 0.950 . S
C746 C745 1.398 . S
C746 C747 1.391 . S
C747 H735 0.950 . S
C747 C743 1.393 . S
C747 C746 1.391 . S
C748 H738 0.950 . S
C748 C749 1.386 . S
C748 C750 1.391 . S
C749 C748 1.386 . S
C749 C753 1.393 . S
C750 H739 0.950 . S
C750 C748 1.391 . S
C750 C751 1.400 . S
C751 C745 1.491 . S
C751 C750 1.400 . S
C751 C752 1.398 . S
C752 H740 0.950 . S
C752 C751 1.398 . S
C752 C753 1.391 . S
C753 H741 0.950 . S
C753 C749 1.393 . S
C753 C752 1.391 . S
H754 C762 0.950 . S
H755 C767 0.950 . S
H756 C764 0.950 . S
H757 C766 0.950 . S
H758 C768 0.950 . S
H759 C770 0.950 . S
H760 C772 0.950 . S
H761 C773 0.950 . S
C762 H754 0.950 . S
C762 C763 1.386 . S
C762 C764 1.391 . S
C763 C762 1.386 . S
C763 C767 1.393 . S
C764 H756 0.950 . S
C764 C762 1.391 . S
C764 C765 1.400 . S
C765 C764 1.400 . S
C765 C766 1.398 . S
C765 C771 1.491 . S
C766 H757 0.950 . S
C766 C765 1.398 . S
C766 C767 1.391 . S
C767 H755 0.950 . S
C767 C763 1.393 . S
C767 C766 1.391 . S
C768 H758 0.950 . S
C768 C769 1.386 . S
C768 C770 1.391 . S
C769 C768 1.386 . S
C769 C773 1.393 . S
C770 H759 0.950 . S
C770 C768 1.391 . S
C770 C771 1.400 . S
C771 C765 1.491 . S
C771 C770 1.400 . S
C771 C772 1.398 . S
C772 H760 0.950 . S
C772 C771 1.398 . S
C772 C773 1.391 . S
C773 H761 0.950 . S
C773 C769 1.393 . S
C773 C772 1.391 . S
H774 C782 0.950 . S
H775 C787 0.950 . S
H776 C784 0.950 . S
H777 C786 0.950 . S
H778 C788 0.950 . S
H779 C790 0.950 . S
H780 C792 0.950 . S
H781 C793 0.950 . S
C782 H774 0.950 . S
C782 C783 1.386 . S
C782 C784 1.391 . S
C783 C782 1.386 . S
C783 C787 1.393 . S
C784 H776 0.950 . S
C784 C782 1.391 . S
C784 C785 1.400 . S
C785 C784 1.400 . S
C785 C786 1.398 . S
C785 C791 1.491 . S
C786 H777 0.950 . S
C786 C785 1.398 . S
C786 C787 1.391 . S
C787 H775 0.950 . S
C787 C783 1.393 . S
C787 C786 1.391 . S
C788 H778 0.950 . S
C788 C789 1.386 . S
C788 C790 1.391 . S
C789 C788 1.386 . S
C789 C793 1.393 . S
C790 H779 0.950 . S
C790 C788 1.391 . S
C790 C791 1.400 . S
C791 C785 1.491 . S
C791 C790 1.400 . S
C791 C792 1.398 . S
C792 H780 0.950 . S
C792 C791 1.398 . S
C792 C793 1.391 . S
C793 H781 0.950 . S
C793 C789 1.393 . S
C793 C792 1.391 . S
H794 C802 0.950 . S
H795 C807 0.950 . S
H796 C804 0.950 . S
H797 C806 0.950 . S
H798 C808 0.950 . S
H799 C810 0.950 . S
H800 C812 0.950 . S
H801 C813 0.950 . S
C802 H794 0.950 . S
C802 C803 1.386 . S
C802 C804 1.391 . S
C803 C802 1.386 . S
C803 C807 1.393 1_545 S
C804 H796 0.950 . S
C804 C802 1.391 . S
C804 C805 1.400 . S
C805 C804 1.400 . S
C805 C806 1.398 1_545 S
C805 C811 1.491 . S
C806 H797 0.950 . S
C806 C805 1.398 1_565 S
C806 C807 1.391 . S
C807 H795 0.950 . S
C807 C803 1.393 1_565 S
C807 C806 1.391 . S
C808 H798 0.950 . S
C808 C809 1.414 . S
C808 C810 1.391 . S
C809 C808 1.414 . S
C809 C813 1.375 1_565 S
C810 H799 0.950 . S
C810 C808 1.391 . S
C810 C811 1.400 1_565 S
C811 C805 1.491 . S
C811 C810 1.400 1_545 S
C811 C812 1.398 . S
C812 H800 0.950 . S
C812 C811 1.398 . S
C812 C813 1.391 . S
C813 H801 0.950 . S
C813 C809 1.375 1_545 S
C813 C812 1.391 . S
H814 C822 0.950 . S
H815 C827 0.950 1_455 S
H816 C824 0.950 . S
H817 C826 0.950 1_455 S
H818 C828 0.950 . S
H819 C830 0.950 . S
H820 C832 0.950 . S
H821 C833 0.950 . S
C822 H814 0.950 . S
C822 C823 1.386 . S
C822 C824 1.391 . S
C823 C822 1.386 . S
C823 C827 1.393 . S
C824 H816 0.950 . S
C824 C822 1.391 . S
C824 C825 1.400 . S
C825 C824 1.400 . S
C825 C826 1.398 . S
C825 C831 1.491 . S
C826 H817 0.950 1_655 S
C826 C825 1.398 . S
C826 C827 1.391 . S
C827 H815 0.950 1_655 S
C827 C823 1.393 . S
C827 C826 1.391 . S
C828 H818 0.950 . S
C828 C829 1.386 1_455 S
C828 C830 1.391 . S
C829 C828 1.386 1_655 S
C829 C833 1.393 . S
C830 H819 0.950 . S
C830 C828 1.391 . S
C830 C831 1.400 1_455 S
C831 C825 1.491 . S
C831 C830 1.400 1_655 S
C831 C832 1.398 . S
C832 H820 0.950 . S
C832 C831 1.398 . S
C832 C833 1.391 . S
C833 H821 0.950 . S
C833 C829 1.393 . S
C833 C832 1.391 . S
H834 C842 0.950 . S
H835 C847 0.950 . S
H836 C844 0.950 . S
H837 C846 0.950 . S
H838 C848 0.950 . S
H839 C850 0.950 . S
H840 C852 0.950 . S
H841 C853 0.950 . S
C842 H834 0.950 . S
C842 C843 1.386 . S
C842 C844 1.391 . S
C843 C842 1.386 . S
C843 C847 1.393 . S
C844 H836 0.950 . S
C844 C842 1.391 . S
C844 C845 1.400 . S
C845 C844 1.400 . S
C845 C846 1.398 . S
C845 C851 1.491 . S
C846 H837 0.950 . S
C846 C845 1.398 . S
C846 C847 1.391 . S
C847 H835 0.950 . S
C847 C843 1.393 . S
C847 C846 1.391 . S
C848 H838 0.950 . S
C848 C849 1.386 . S
C848 C850 1.391 . S
C849 C848 1.386 . S
C849 C853 1.393 . S
C850 H839 0.950 . S
C850 C848 1.391 . S
C850 C851 1.400 . S
C851 C845 1.491 . S
C851 C850 1.400 . S
C851 C852 1.398 . S
C852 H840 0.950 . S
C852 C851 1.398 . S
C852 C853 1.391 . S
C853 H841 0.950 . S
C853 C849 1.393 . S
C853 C852 1.391 . S
H854 C862 0.950 . S
H855 C867 0.950 1_545 S
H856 C864 0.950 . S
H857 C866 0.950 . S
H858 C868 0.950 . S
H859 C870 0.950 . S
H860 C872 0.950 . S
H861 C873 0.950 . S
C862 H854 0.950 . S
C862 C863 1.386 . S
C862 C864 1.391 . S
C863 C862 1.386 . S
C863 C867 1.393 . S
C864 H856 0.950 . S
C864 C862 1.391 . S
C864 C865 1.400 . S
C865 C864 1.400 . S
C865 C866 1.398 . S
C865 C871 1.491 . S
C866 H857 0.950 . S
C866 C865 1.398 . S
C866 C867 1.391 . S
C867 H855 0.950 1_565 S
C867 C863 1.393 . S
C867 C866 1.391 . S
C868 H858 0.950 . S
C868 C869 1.386 . S
C868 C870 1.391 . S
C869 C868 1.386 . S
C869 C873 1.393 . S
C870 H859 0.950 . S
C870 C868 1.391 . S
C870 C871 1.400 . S
C871 C865 1.491 . S
C871 C870 1.400 . S
C871 C872 1.398 . S
C872 H860 0.950 . S
C872 C871 1.398 . S
C872 C873 1.391 . S
C873 H861 0.950 . S
C873 C869 1.393 . S
C873 C872 1.391 . S
H874 C882 0.950 1_655 S
H875 C887 0.950 . S
H876 C884 0.933 1_655 S
H877 C886 0.950 . S
H878 C888 0.950 . S
H879 C890 0.950 . S
H880 C892 0.950 . S
H881 C893 0.950 . S
C882 H874 0.950 1_455 S
C882 C883 1.386 . S
C882 C884 1.401 . S
C883 C882 1.386 . S
C883 C887 1.393 . S
C884 H876 0.933 1_455 S
C884 C882 1.401 . S
C884 C885 1.407 . S
C885 C884 1.407 . S
C885 C886 1.398 . S
C885 C891 1.491 . S
C886 H877 0.950 . S
C886 C885 1.398 . S
C886 C887 1.391 . S
C887 H875 0.950 . S
C887 C883 1.393 . S
C887 C886 1.391 . S
C888 H878 0.950 . S
C888 C889 1.386 . S
C888 C890 1.391 . S
C889 C888 1.386 . S
C889 C893 1.393 1_455 S
C890 H879 0.950 . S
C890 C888 1.391 . S
C890 C891 1.400 . S
C891 C885 1.491 . S
C891 C890 1.400 . S
C891 C892 1.398 1_455 S
C892 H880 0.950 . S
C892 C891 1.398 1_655 S
C892 C893 1.391 . S
C893 H881 0.950 . S
C893 C889 1.393 1_655 S
C893 C892 1.391 . S
H894 C902 0.950 . S
H895 C907 0.950 . S
H896 C904 0.950 . S
H897 C906 0.950 . S
H898 C908 0.950 . S
H899 C910 0.950 . S
H900 C912 0.950 . S
H901 C913 0.950 . S
C902 H894 0.950 . S
C902 C903 1.386 . S
C902 C904 1.391 . S
C903 C902 1.386 . S
C903 C907 1.393 . S
C904 H896 0.950 . S
C904 C902 1.391 . S
C904 C905 1.400 . S
C905 C904 1.400 . S
C905 C906 1.398 . S
C905 C911 1.491 . S
C906 H897 0.950 . S
C906 C905 1.398 . S
C906 C907 1.391 . S
C907 H895 0.950 . S
C907 C903 1.393 . S
C907 C906 1.391 . S
C908 H898 0.950 . S
C908 C909 1.386 . S
C908 C910 1.391 . S
C909 C908 1.386 . S
C909 C913 1.393 . S
C910 H899 0.950 . S
C910 C908 1.391 . S
C910 C911 1.400 . S
C911 C905 1.491 . S
C911 C910 1.400 . S
C911 C912 1.398 . S
C912 H900 0.950 . S
C912 C911 1.398 . S
C912 C913 1.391 . S
C913 H901 0.950 . S
C913 C909 1.393 . S
C913 C912 1.391 . S
H914 C922 0.950 . S
H915 C927 0.950 . S
H916 C924 0.950 . S
H917 C926 0.950 . S
H918 C928 0.950 . S
H919 C930 0.950 . S
H920 C932 0.950 . S
H921 C933 0.950 . S
C922 H914 0.950 . S
C922 C923 1.386 . S
C922 C924 1.391 . S
C923 C922 1.386 . S
C923 C927 1.393 . S
C924 H916 0.950 . S
C924 C922 1.391 . S
C924 C925 1.400 . S
C925 C924 1.400 . S
C925 C926 1.398 . S
C925 C931 1.491 . S
C926 H917 0.950 . S
C926 C925 1.398 . S
C926 C927 1.391 . S
C927 H915 0.950 . S
C927 C923 1.393 . S
C927 C926 1.391 . S
C928 H918 0.950 . S
C928 C929 1.386 . S
C928 C930 1.391 . S
C929 C928 1.386 . S
C929 C933 1.393 . S
C930 H919 0.950 . S
C930 C928 1.391 . S
C930 C931 1.400 . S
C931 C925 1.491 . S
C931 C930 1.400 . S
C931 C932 1.398 . S
C932 H920 0.950 . S
C932 C931 1.398 . S
C932 C933 1.391 . S
C933 H921 0.950 . S
C933 C929 1.393 . S
C933 C932 1.391 . S
H934 C942 0.950 . S
H935 C947 0.950 . S
H936 C944 0.950 . S
H937 C946 0.950 . S
H938 C948 0.950 . S
H939 C950 0.950 . S
H940 C952 0.950 . S
H941 C953 0.950 . S
C942 H934 0.950 . S
C942 C943 1.386 . S
C942 C944 1.391 . S
C943 C942 1.386 . S
C943 C947 1.393 . S
C944 H936 0.950 . S
C944 C942 1.391 . S
C944 C945 1.400 . S
C945 C944 1.400 . S
C945 C946 1.398 . S
C945 C951 1.491 . S
C946 H937 0.950 . S
C946 C945 1.398 . S
C946 C947 1.391 . S
C947 H935 0.950 . S
C947 C943 1.393 . S
C947 C946 1.391 . S
C948 H938 0.950 . S
C948 C949 1.386 . S
C948 C950 1.391 . S
C949 C948 1.386 . S
C949 C953 1.393 . S
C950 H939 0.950 . S
C950 C948 1.391 . S
C950 C951 1.400 . S
C951 C945 1.491 . S
C951 C950 1.400 . S
C951 C952 1.398 . S
C952 H940 0.950 . S
C952 C951 1.398 . S
C952 C953 1.391 . S
C953 H941 0.950 . S
C953 C949 1.393 . S
C953 C952 1.391 . S
C243 C0 1.592 . S
C249 C49 1.602 . S
C263 C18 1.602 . S
C269 C62 1.641 . S
C283 C75 1.591 . S
C289 C31 1.544 . S
C303 C78 1.593 . S
C309 C127 1.600 . S
C323 C96 1.610 . S
C329 C140 1.634 . S
C343 C153 1.576 . S
C349 C109 1.533 . S
C363 C205 1.609 . S
C369 C156 1.597 . S
C383 C218 1.634 . S
C389 C174 1.591 . S
C403 C231 1.591 . S
C409 C187 1.559 . S
C423 C5 1.648 . S
C429 C117 1.762 . S
C443 C13 1.775 . S
C449 C130 1.758 . S
C463 C143 1.730 . S
C469 C26 1.738 . S
C483 C39 1.771 . S
C489 C161 1.650 . S
C503 C52 1.767 . S
C509 C169 1.778 . S
C523 C65 1.739 . S
C529 C182 1.750 . S
C543 C83 1.646 . S
C549 C195 1.780 . S
C563 C91 1.784 . S
C569 C208 1.777 . S
C583 C221 1.730 . S
C589 C104 1.717 . S
C603 C8 0.593 . S
C609 C60 0.595 . S
C623 C23 0.613 . S
C629 C73 0.635 . S
C643 C36 0.643 . S
C649 C47 0.644 . S
C663 C44 0.680 . S
C669 C21 0.632 . S
C683 C34 0.625 . S
C689 C57 0.618 . S
C703 C70 0.685 . S
C709 C10 0.649 . S
C723 C86 0.616 . S
C729 C138 0.601 . S
C743 C151 0.605 . S
C749 C101 0.652 . S
C763 C125 0.615 . S
C769 C114 0.662 . S
C783 C99 0.635 . S
C789 C122 0.680 . S
C803 C135 0.679 . S
C809 C112 0.644 . S
C823 C148 0.690 . S
C829 C88 0.667 . S
C843 C216 0.596 . S
C849 C164 0.591 . S
C863 C229 0.597 . S
C869 C179 0.633 . S
C883 C192 0.635 . S
C889 C203 0.642 . S
C903 C177 0.633 . S
C909 C200 0.676 . S
C923 C190 0.618 . S
C929 C213 0.641 . S
C943 C166 0.651 . S
C949 C226 0.687 . S
