# Generated by pormake.
# Topology uki, (4)-cn, num edge types: 1
# Building blocks:
#     Node 0, Type 0, BuildingBlock: ICAMEG_clean_sbu_1, # of connection points: 4
#     Node 1, Type 0, BuildingBlock: ICAMEG_clean_sbu_1, # of connection points: 4
#     Node 2, Type 0, BuildingBlock: ICAMEG_clean_sbu_1, # of connection points: 4
#     Node 3, Type 0, BuildingBlock: ICAMEG_clean_sbu_1, # of connection points: 4
#     Node 4, Type 0, BuildingBlock: ICAMEG_clean_sbu_1, # of connection points: 4
#     Node 5, Type 0, BuildingBlock: ICAMEG_clean_sbu_1, # of connection points: 4
#     Node 6, Type 0, BuildingBlock: ICAMEG_clean_sbu_1, # of connection points: 4
#     Node 7, Type 0, BuildingBlock: ICAMEG_clean_sbu_1, # of connection points: 4
#     Node 8, Type 0, BuildingBlock: ICAMEG_clean_sbu_1, # of connection points: 4
#     Node 9, Type 0, BuildingBlock: ICAMEG_clean_sbu_1, # of connection points: 4
#     Node 10, Type 0, BuildingBlock: ICAMEG_clean_sbu_1, # of connection points: 4
#     Node 11, Type 0, BuildingBlock: ICAMEG_clean_sbu_1, # of connection points: 4
#     Node 12, Type 0, BuildingBlock: ICAMEG_clean_sbu_1, # of connection points: 4
#     Node 13, Type 0, BuildingBlock: ICAMEG_clean_sbu_1, # of connection points: 4
#     Node 14, Type 0, BuildingBlock: ICAMEG_clean_sbu_1, # of connection points: 4
#     Node 15, Type 0, BuildingBlock: ICAMEG_clean_sbu_1, # of connection points: 4
#     Edge 16, Type (0, 0), BuildingBlock: MIFKUJ_clean_linker_0, # of connection points: 2
#     Edge 17, Type (0, 0), BuildingBlock: MIFKUJ_clean_linker_0, # of connection points: 2
#     Edge 18, Type (0, 0), BuildingBlock: MIFKUJ_clean_linker_0, # of connection points: 2
#     Edge 19, Type (0, 0), BuildingBlock: MIFKUJ_clean_linker_0, # of connection points: 2
#     Edge 20, Type (0, 0), BuildingBlock: MIFKUJ_clean_linker_0, # of connection points: 2
#     Edge 21, Type (0, 0), BuildingBlock: MIFKUJ_clean_linker_0, # of connection points: 2
#     Edge 22, Type (0, 0), BuildingBlock: MIFKUJ_clean_linker_0, # of connection points: 2
#     Edge 23, Type (0, 0), BuildingBlock: MIFKUJ_clean_linker_0, # of connection points: 2
#     Edge 24, Type (0, 0), BuildingBlock: MIFKUJ_clean_linker_0, # of connection points: 2
#     Edge 25, Type (0, 0), BuildingBlock: MIFKUJ_clean_linker_0, # of connection points: 2
#     Edge 26, Type (0, 0), BuildingBlock: MIFKUJ_clean_linker_0, # of connection points: 2
#     Edge 27, Type (0, 0), BuildingBlock: MIFKUJ_clean_linker_0, # of connection points: 2
#     Edge 28, Type (0, 0), BuildingBlock: MIFKUJ_clean_linker_0, # of connection points: 2
#     Edge 29, Type (0, 0), BuildingBlock: MIFKUJ_clean_linker_0, # of connection points: 2
#     Edge 30, Type (0, 0), BuildingBlock: MIFKUJ_clean_linker_0, # of connection points: 2
#     Edge 31, Type (0, 0), BuildingBlock: MIFKUJ_clean_linker_0, # of connection points: 2
#     Edge 32, Type (0, 0), BuildingBlock: MIFKUJ_clean_linker_0, # of connection points: 2
#     Edge 33, Type (0, 0), BuildingBlock: MIFKUJ_clean_linker_0, # of connection points: 2
#     Edge 34, Type (0, 0), BuildingBlock: MIFKUJ_clean_linker_0, # of connection points: 2
#     Edge 35, Type (0, 0), BuildingBlock: MIFKUJ_clean_linker_0, # of connection points: 2
#     Edge 36, Type (0, 0), BuildingBlock: MIFKUJ_clean_linker_0, # of connection points: 2
#     Edge 37, Type (0, 0), BuildingBlock: MIFKUJ_clean_linker_0, # of connection points: 2
#     Edge 38, Type (0, 0), BuildingBlock: MIFKUJ_clean_linker_0, # of connection points: 2
#     Edge 39, Type (0, 0), BuildingBlock: MIFKUJ_clean_linker_0, # of connection points: 2
#     Edge 40, Type (0, 0), BuildingBlock: MIFKUJ_clean_linker_0, # of connection points: 2
#     Edge 41, Type (0, 0), BuildingBlock: MIFKUJ_clean_linker_0, # of connection points: 2
#     Edge 42, Type (0, 0), BuildingBlock: MIFKUJ_clean_linker_0, # of connection points: 2
#     Edge 43, Type (0, 0), BuildingBlock: MIFKUJ_clean_linker_0, # of connection points: 2
#     Edge 44, Type (0, 0), BuildingBlock: MIFKUJ_clean_linker_0, # of connection points: 2
#     Edge 45, Type (0, 0), BuildingBlock: MIFKUJ_clean_linker_0, # of connection points: 2
#     Edge 46, Type (0, 0), BuildingBlock: MIFKUJ_clean_linker_0, # of connection points: 2
#     Edge 47, Type (0, 0), BuildingBlock: MIFKUJ_clean_linker_0, # of connection points: 2
# Relax obj value: 0.016
# Max RMSD: 0.107
# Mean RMSD: 0.107
data_MOF--net-uki--node1-ICAMEG_clean_sbu_1--edge1-MIFKUJ_clean_linker_0
_symmetry_space_group_name_H-M    P1
_symmetry_Int_Tables_number       1
_symmetry_cell_setting            triclinic
loop_
_symmetry_equiv_pos_as_xyz
'x, y, z'
_cell_length_a     42.589052
_cell_length_b     42.602219
_cell_length_c     99.795878
_cell_angle_alpha  89.994398
_cell_angle_beta   89.996052
_cell_angle_gamma 89.992444
loop_
_atom_site_label
_atom_site_type_symbol
_atom_site_fract_x
_atom_site_fract_y
_atom_site_fract_z
_atom_type_partial_charge
Co0 Co 0.10111 0.20627 0.2814 0.0
Co1 Co 0.0765 0.25112 0.30834 0.0
O2 O 0.09419 0.21303 0.30052 0.0
C3 C 0.05745 0.15651 0.28964 0.0
O4 O 0.04249 0.1783 0.29639 0.0
C5 C 0.13922 0.24536 0.3204 0.0
O6 O 0.14956 0.23985 0.30823 0.0
O7 O 0.10333 0.27849 0.29687 0.0
O8 O 0.12004 0.24883 0.27962 0.0
H9 H 0.02811 0.35865 0.30729 0.0
H10 H 0.12419 0.15974 0.30118 0.0
O11 O 0.0819 0.16348 0.28291 0.0
H12 H 0.21844 0.19616 0.27705 0.0
H13 H 0.13174 0.14244 0.241 0.0
H14 H 0.09387 0.24524 0.25698 0.0
H15 H 0.16602 0.21641 0.27107 0.0
H16 H 0.12294 0.15178 0.26512 0.0
O17 O 0.11013 0.25059 0.32238 0.0
H18 H 0.05049 0.31048 0.29748 0.0
H19 H 0.06554 0.27279 0.33636 0.0
H20 H 0.10267 0.23703 0.23281 0.0
H21 H 0.17613 0.13865 0.30741 0.0
H22 H 0.12174 0.18531 0.22468 0.0
H23 H 0.22372 0.15697 0.29534 0.0
O24 O 0.05912 0.2238 0.27676 0.0
H25 H 0.05478 0.16053 0.33923 0.0
H26 H 0.00825 0.25008 0.31501 0.0
H27 H 0.97418 0.21566 0.32856 0.0
H28 H 0.99744 0.1705 0.34079 0.0
H29 H 0.08795 0.1954 0.32548 0.0
H30 H 0.04362 0.32074 0.34661 0.0
H31 H 0.02459 0.36402 0.33204 0.0
O32 O 0.04297 0.25222 0.29445 0.0
C33 C 0.11871 0.27473 0.28601 0.0
C34 C 0.03625 0.33993 0.31375 0.0
C35 C 0.04499 0.31866 0.33582 0.0
N36 N 0.05909 0.28877 0.31634 0.0
C37 C 0.04885 0.31255 0.30825 0.0
C38 C 0.05745 0.29161 0.32996 0.0
C39 C 0.0343 0.34293 0.32763 0.0
C40 C 0.14477 0.16761 0.2958 0.0
N41 N 0.14208 0.18921 0.28575 0.0
C42 C 0.17412 0.15567 0.29941 0.0
C43 C 0.20083 0.16599 0.29264 0.0
C44 C 0.19788 0.188 0.28238 0.0
C45 C 0.16815 0.19944 0.27906 0.0
C46 C 0.12348 0.16509 0.24442 0.0
C47 C 0.10237 0.22273 0.25353 0.0
C48 C 0.11838 0.17048 0.25806 0.0
N49 N 0.10813 0.19909 0.26245 0.0
C50 C 0.10722 0.2182 0.23982 0.0
C51 C 0.11788 0.18916 0.23527 0.0
C52 C 0.03912 0.24129 0.28266 0.0
C53 C 0.04438 0.18018 0.33398 0.0
C54 C 0.01854 0.23046 0.32029 0.0
C55 C 0.99913 0.21109 0.32797 0.0
C56 C 0.0122 0.18576 0.33483 0.0
N57 N 0.05008 0.22483 0.31951 0.0
C58 C 0.06307 0.20008 0.32622 0.0
Co59 Co 0.20653 0.89328 0.72205 0.0
Co60 Co 0.25401 0.91543 0.69564 0.0
O61 O 0.21427 0.90084 0.70306 0.0
C62 C 0.1584 0.93941 0.71443 0.0
O63 O 0.18146 0.95642 0.70959 0.0
C64 C 0.24068 0.85643 0.68163 0.0
O65 O 0.23283 0.84508 0.69338 0.0
O66 O 0.27785 0.88354 0.70597 0.0
O67 O 0.24888 0.87356 0.72432 0.0
H68 H 0.36701 0.94903 0.69748 0.0
H69 H 0.15995 0.87145 0.70198 0.0
O70 O 0.16409 0.91308 0.71999 0.0
H71 H 0.19524 0.77592 0.72548 0.0
H72 H 0.13931 0.86248 0.76138 0.0
H73 H 0.24368 0.89969 0.74704 0.0
H74 H 0.21598 0.82784 0.73188 0.0
H75 H 0.15067 0.87164 0.73745 0.0
O76 O 0.24975 0.8848 0.68053 0.0
H77 H 0.31656 0.93096 0.70688 0.0
H78 H 0.27608 0.92992 0.66799 0.0
H79 H 0.23343 0.89058 0.77106 0.0
H80 H 0.13835 0.82003 0.69536 0.0
H81 H 0.18091 0.87183 0.77836 0.0
H82 H 0.15612 0.77179 0.7071 0.0
O83 O 0.22465 0.93476 0.727 0.0
H84 H 0.16572 0.95374 0.6665 0.0
H85 H 0.26072 0.98446 0.69153 0.0
H86 H 0.22991 0.02498 0.67976 0.0
H87 H 0.18199 0.00969 0.66714 0.0
H88 H 0.19715 0.91398 0.6785 0.0
H89 H 0.32616 0.94773 0.65815 0.0
H90 H 0.37202 0.95754 0.67295 0.0
O91 O 0.25928 0.94589 0.71064 0.0
C92 C 0.27386 0.87055 0.71735 0.0
C93 C 0.34716 0.94497 0.69094 0.0
C94 C 0.32424 0.9442 0.66886 0.0
N95 N 0.29334 0.92975 0.68801 0.0
C96 C 0.31851 0.93484 0.6962 0.0
C97 C 0.29597 0.93408 0.67448 0.0
C98 C 0.34996 0.94971 0.67717 0.0
C99 C 0.1675 0.85061 0.70725 0.0
N100 N 0.18909 0.85267 0.71735 0.0
C101 C 0.15531 0.82154 0.70341 0.0
C102 C 0.16533 0.79448 0.70999 0.0
C103 C 0.1873 0.79677 0.7203 0.0
C104 C 0.19901 0.82624 0.72385 0.0
C105 C 0.1623 0.87058 0.75832 0.0
C106 C 0.22084 0.89134 0.75014 0.0
C107 C 0.16885 0.87586 0.74479 0.0
N108 N 0.19789 0.88591 0.74086 0.0
C109 C 0.21514 0.88631 0.76375 0.0
C110 C 0.18566 0.87583 0.76784 0.0
C111 C 0.24628 0.95168 0.72189 0.0
C112 C 0.18662 0.96066 0.67192 0.0
C113 C 0.23995 0.97761 0.68604 0.0
C114 C 0.22261 0.00066 0.67938 0.0
C115 C 0.19574 0.99207 0.6723 0.0
N116 N 0.23083 0.94686 0.68563 0.0
C117 C 0.20458 0.93824 0.67868 0.0
Co118 Co 0.89855 0.78934 0.28083 0.0
Co119 Co 0.91974 0.74485 0.30837 0.0
O120 O 0.90301 0.78277 0.30008 0.0
C121 C 0.93945 0.84039 0.29003 0.0
O122 O 0.95439 0.81897 0.297 0.0
C123 C 0.85628 0.75147 0.31965 0.0
O124 O 0.84654 0.75564 0.3073 0.0
O125 O 0.89313 0.71753 0.29681 0.0
O126 O 0.88166 0.74606 0.27847 0.0
H127 H 0.96582 0.63628 0.30887 0.0
H128 H 0.8709 0.83519 0.29982 0.0
O129 O 0.9159 0.83277 0.28286 0.0
H130 H 0.78163 0.79399 0.27372 0.0
H131 H 0.87106 0.85258 0.23988 0.0
H132 H 0.91163 0.75142 0.25654 0.0
H133 H 0.8356 0.77603 0.26906 0.0
H134 H 0.8764 0.84296 0.26416 0.0
O135 O 0.88527 0.74654 0.322 0.0
H136 H 0.94512 0.68444 0.29835 0.0
H137 H 0.92875 0.7245 0.33669 0.0
H138 H 0.90644 0.75993 0.23219 0.0
H139 H 0.81733 0.85397 0.30476 0.0
H140 H 0.88602 0.81082 0.22372 0.0
H141 H 0.77224 0.83325 0.29169 0.0
O142 O 0.94161 0.77335 0.27736 0.0
H143 H 0.94072 0.83632 0.33887 0.0
H144 H 0.98755 0.74521 0.31586 0.0
H145 H 0.02122 0.77969 0.32956 0.0
H146 H 0.9978 0.82563 0.34118 0.0
H147 H 0.90799 0.8014 0.32497 0.0
H148 H 0.94903 0.67667 0.34763 0.0
H149 H 0.96786 0.6322 0.33368 0.0
O150 O 0.95432 0.7426 0.29486 0.0
C151 C 0.8807 0.72068 0.28525 0.0
C152 C 0.95778 0.65554 0.31505 0.0
C153 C 0.94831 0.6782 0.33681 0.0
N154 N 0.936 0.70732 0.3169 0.0
C155 C 0.94612 0.6829 0.30915 0.0
C156 C 0.9368 0.70518 0.33056 0.0
C157 C 0.95889 0.65325 0.32897 0.0
C158 C 0.85142 0.82633 0.29399 0.0
N159 N 0.85638 0.80471 0.28411 0.0
C160 C 0.82113 0.83694 0.29687 0.0
C161 C 0.79584 0.82527 0.28955 0.0
C162 C 0.80109 0.80323 0.27947 0.0
C163 C 0.83169 0.79312 0.27689 0.0
C164 C 0.8799 0.83027 0.24345 0.0
C165 C 0.9025 0.77353 0.25293 0.0
C166 C 0.88302 0.82472 0.25718 0.0
N167 N 0.89401 0.79654 0.26175 0.0
C168 C 0.89972 0.77826 0.23913 0.0
C169 C 0.8883 0.80683 0.23439 0.0
C170 C 0.9602 0.75469 0.28343 0.0
C171 C 0.95119 0.81634 0.33388 0.0
C172 C 0.97722 0.76519 0.32086 0.0
C173 C 0.99638 0.7846 0.32863 0.0
C174 C 0.98322 0.81035 0.33516 0.0
N175 N 0.94583 0.77123 0.31964 0.0
C176 C 0.93275 0.7964 0.32604 0.0
Co177 Co 0.79411 0.09828 0.71866 0.0
Co178 Co 0.7448 0.08405 0.69198 0.0
O179 O 0.78544 0.09555 0.69952 0.0
C180 C 0.84175 0.05382 0.70878 0.0
O181 O 0.81859 0.03813 0.70326 0.0
C182 C 0.75877 0.14528 0.67981 0.0
O183 O 0.7648 0.15515 0.692 0.0
O184 O 0.72303 0.11511 0.7035 0.0
O185 O 0.75215 0.11786 0.72225 0.0
H186 H 0.6301 0.05685 0.69373 0.0
H187 H 0.83958 0.12475 0.6992 0.0
O188 O 0.83623 0.07878 0.71541 0.0
H189 H 0.80743 0.21381 0.72763 0.0
H190 H 0.86331 0.11727 0.75875 0.0
H191 H 0.75806 0.08502 0.74344 0.0
H192 H 0.78625 0.16078 0.73171 0.0
H193 H 0.8507 0.11559 0.73462 0.0
O194 O 0.75042 0.11693 0.67784 0.0
H195 H 0.68193 0.06997 0.70322 0.0
H196 H 0.72089 0.07575 0.66412 0.0
H197 H 0.76963 0.08638 0.76765 0.0
H198 H 0.86154 0.17734 0.69484 0.0
H199 H 0.82259 0.10264 0.77544 0.0
H200 H 0.84538 0.22234 0.70908 0.0
O201 O 0.77581 0.05601 0.72174 0.0
H202 H 0.8292 0.04726 0.66051 0.0
H203 H 0.73431 0.01646 0.68559 0.0
H204 H 0.76194 0.97706 0.67184 0.0
H205 H 0.80973 0.9924 0.65916 0.0
H206 H 0.80099 0.08585 0.67446 0.0
H207 H 0.66941 0.06285 0.65419 0.0
H208 H 0.6236 0.05321 0.66904 0.0
O209 O 0.73833 0.0511 0.70599 0.0
C210 C 0.72758 0.12444 0.71548 0.0
C211 C 0.64991 0.06085 0.68716 0.0
C212 C 0.67197 0.06426 0.66496 0.0
N213 N 0.70447 0.07322 0.68423 0.0
C214 C 0.67934 0.06816 0.69247 0.0
C215 C 0.70105 0.07156 0.67064 0.0
C216 C 0.64627 0.05885 0.6733 0.0
C217 C 0.83268 0.14416 0.70553 0.0
N218 N 0.81178 0.13967 0.71574 0.0
C219 C 0.84509 0.17391 0.70297 0.0
C220 C 0.83598 0.19915 0.71096 0.0
C221 C 0.81467 0.19438 0.72136 0.0
C222 C 0.80271 0.16432 0.72361 0.0
C223 C 0.84012 0.11026 0.75548 0.0
C224 C 0.78108 0.09234 0.74676 0.0
C225 C 0.83285 0.10926 0.74183 0.0
N226 N 0.80358 0.10055 0.73764 0.0
C227 C 0.78753 0.09297 0.76048 0.0
C228 C 0.81726 0.10205 0.76484 0.0
C229 C 0.75259 0.04167 0.71649 0.0
C230 C 0.80836 0.04032 0.66595 0.0
C231 C 0.75513 0.02329 0.68012 0.0
C232 C 0.77064 0.0009 0.67234 0.0
C233 C 0.79744 0.00953 0.66522 0.0
N234 N 0.76595 0.05346 0.68077 0.0
C235 C 0.79222 0.06209 0.67383 0.0
Co236 Co 0.09826 0.28847 0.96534 0.0
Co237 Co 0.07333 0.24194 0.93903 0.0
O238 O 0.09059 0.28063 0.9464 0.0
C239 C 0.05422 0.33799 0.95705 0.0
O240 O 0.0381 0.31573 0.95112 0.0
C241 C 0.13543 0.24825 0.9266 0.0
O242 O 0.14594 0.25337 0.93877 0.0
O243 O 0.10119 0.2155 0.95041 0.0
O244 O 0.11712 0.2459 0.96755 0.0
H245 H 0.02773 0.13325 0.94094 0.0
H246 H 0.1209 0.33333 0.94478 0.0
O247 O 0.07932 0.33128 0.96339 0.0
H248 H 0.21586 0.29795 0.96867 0.0
H249 H 0.13042 0.35477 0.00478 0.0
H250 H 0.09154 0.25118 0.99026 0.0
H251 H 0.1635 0.27889 0.97543 0.0
H252 H 0.12091 0.34387 0.98083 0.0
O253 O 0.10632 0.24289 0.92469 0.0
H254 H 0.0493 0.18221 0.95038 0.0
H255 H 0.06139 0.21944 0.91123 0.0
H256 H 0.10107 0.26094 0.01428 0.0
H257 H 0.17277 0.35311 0.93772 0.0
H258 H 0.12064 0.31307 0.02167 0.0
H259 H 0.22072 0.33528 0.94966 0.0
O260 O 0.05635 0.2713 0.97038 0.0
H261 H 0.04791 0.3308 0.90772 0.0
H262 H 0.0047 0.24151 0.93321 0.0
H263 H 0.96911 0.27464 0.91977 0.0
H264 H 0.9907 0.31964 0.90691 0.0
H265 H 0.08261 0.29721 0.92136 0.0
H266 H 0.04017 0.17076 0.90136 0.0
H267 H 0.02306 0.12729 0.91626 0.0
O268 O 0.04065 0.2405 0.95333 0.0
C269 C 0.11629 0.2198 0.9613 0.0
C270 C 0.03502 0.15205 0.93434 0.0
C271 C 0.04204 0.17309 0.91213 0.0
N272 N 0.05636 0.20373 0.93136 0.0
C273 C 0.04717 0.17987 0.93963 0.0
C274 C 0.0541 0.20057 0.91777 0.0
C275 C 0.03243 0.14872 0.92049 0.0
C276 C 0.14163 0.32572 0.95011 0.0
N277 N 0.13918 0.30504 0.96053 0.0
C278 C 0.17095 0.3369 0.94604 0.0
C279 C 0.19785 0.32686 0.95273 0.0
C280 C 0.19514 0.30589 0.96339 0.0
C281 C 0.16544 0.29513 0.96716 0.0
C282 C 0.12195 0.33195 0.00168 0.0
C283 C 0.10026 0.27385 0.99339 0.0
C284 C 0.11645 0.32567 0.98814 0.0
N285 N 0.10592 0.29685 0.98415 0.0
C286 C 0.10552 0.27927 0.00701 0.0
C287 C 0.11647 0.30854 0.01115 0.0
C288 C 0.03679 0.25251 0.96493 0.0
C289 C 0.03824 0.3112 0.91325 0.0
C290 C 0.01426 0.26107 0.92764 0.0
C291 C 0.994 0.27971 0.92004 0.0
C292 C 0.00613 0.30495 0.91281 0.0
N293 N 0.04572 0.26732 0.928 0.0
C294 C 0.05779 0.29202 0.92095 0.0
Co295 Co 0.2915 0.9028 0.03293 0.0
Co296 Co 0.24414 0.92342 0.05967 0.0
O297 O 0.28401 0.90986 0.05195 0.0
C298 C 0.33829 0.95086 0.04023 0.0
O299 O 0.31512 0.96704 0.04547 0.0
C300 C 0.25811 0.86331 0.07281 0.0
O301 O 0.26514 0.85269 0.06084 0.0
O302 O 0.22018 0.89224 0.0489 0.0
O303 O 0.25032 0.88087 0.03102 0.0
H304 H 0.13094 0.95664 0.05875 0.0
H305 H 0.339 0.88327 0.053 0.0
O306 O 0.333 0.92452 0.03462 0.0
H307 H 0.30981 0.78639 0.02901 0.0
H308 H 0.35804 0.87606 0.99281 0.0
H309 H 0.25274 0.90757 0.00835 0.0
H310 H 0.28623 0.83719 0.02273 0.0
H311 H 0.34758 0.88408 0.01689 0.0
O312 O 0.24913 0.89163 0.07431 0.0
H313 H 0.18134 0.93989 0.0489 0.0
H314 H 0.22241 0.93498 0.08761 0.0
H315 H 0.26215 0.89981 0.9842 0.0
H316 H 0.36336 0.83303 0.05953 0.0
H317 H 0.31509 0.88382 0.97629 0.0
H318 H 0.34868 0.7841 0.04754 0.0
O319 O 0.27111 0.94341 0.02815 0.0
H320 H 0.33215 0.95968 0.08941 0.0
H321 H 0.23689 0.99194 0.0649 0.0
H322 H 0.26711 0.0315 0.07753 0.0
H323 H 0.31511 0.01544 0.0899 0.0
H324 H 0.30131 0.92093 0.0766 0.0
H325 H 0.17238 0.95144 0.09791 0.0
H326 H 0.12623 0.96252 0.08344 0.0
O327 O 0.23829 0.95498 0.04512 0.0
C328 C 0.22501 0.87831 0.03777 0.0
C329 C 0.1509 0.952 0.06516 0.0
C330 C 0.17415 0.94903 0.08714 0.0
N331 N 0.20484 0.93674 0.06766 0.0
C332 C 0.17952 0.9426 0.05964 0.0
C333 C 0.2024 0.93967 0.08126 0.0
C334 C 0.14827 0.95525 0.07902 0.0
C335 C 0.33271 0.86213 0.04765 0.0
N336 N 0.31122 0.86316 0.03749 0.0
C337 C 0.34649 0.83373 0.05143 0.0
C338 C 0.33821 0.80628 0.04471 0.0
C339 C 0.31638 0.80754 0.03432 0.0
C340 C 0.30303 0.83635 0.03083 0.0
C341 C 0.33484 0.88291 0.99614 0.0
C342 C 0.27581 0.90047 0.005 0.0
C343 C 0.32881 0.88753 0.00975 0.0
N344 N 0.29952 0.89601 0.01403 0.0
C345 C 0.281 0.89616 0.99131 0.0
C346 C 0.31073 0.88726 0.98687 0.0
C347 C 0.25005 0.96049 0.0336 0.0
C348 C 0.31121 0.96695 0.0841 0.0
C349 C 0.25775 0.98478 0.07027 0.0
C350 C 0.27474 0.00727 0.07741 0.0
C351 C 0.30166 0.99824 0.08435 0.0
N352 N 0.26722 0.95413 0.07009 0.0
C353 C 0.29359 0.94509 0.07687 0.0
Co354 Co 0.90604 0.70831 0.96953 0.0
Co355 Co 0.92201 0.75501 0.94207 0.0
O356 O 0.90837 0.7156 0.95024 0.0
C357 C 0.94707 0.65789 0.95958 0.0
O358 O 0.96245 0.67977 0.95305 0.0
C359 C 0.85953 0.7428 0.9307 0.0
O360 O 0.85054 0.73525 0.94285 0.0
O361 O 0.89322 0.77956 0.95369 0.0
O362 O 0.88865 0.75131 0.97262 0.0
H363 H 0.95815 0.86727 0.94204 0.0
H364 H 0.87672 0.66241 0.95102 0.0
O365 O 0.92348 0.66516 0.9668 0.0
H366 H 0.79027 0.70158 0.97934 0.0
H367 H 0.88484 0.64347 0.01073 0.0
H368 H 0.92197 0.74556 0.99367 0.0
H369 H 0.84442 0.72042 0.98278 0.0
H370 H 0.88657 0.65393 0.98642 0.0
O371 O 0.88773 0.75125 0.92846 0.0
H372 H 0.94165 0.81728 0.95235 0.0
H373 H 0.92976 0.77653 0.91385 0.0
H374 H 0.9205 0.73617 0.01805 0.0
H375 H 0.82296 0.64268 0.94733 0.0
H376 H 0.90181 0.68481 0.02672 0.0
H377 H 0.77927 0.66239 0.96151 0.0
O378 O 0.94923 0.72463 0.97208 0.0
H379 H 0.95021 0.66639 0.91112 0.0
H380 H 0.98974 0.76011 0.93472 0.0
H381 H 0.02601 0.7288 0.92083 0.0
H382 H 0.00627 0.68157 0.90891 0.0
H383 H 0.9148 0.69824 0.92519 0.0
H384 H 0.94586 0.82615 0.90311 0.0
H385 H 0.96033 0.87192 0.91725 0.0
O386 O 0.9564 0.75987 0.95558 0.0
C387 C 0.88366 0.776 0.9657 0.0
C388 C 0.95204 0.84745 0.93578 0.0
C389 C 0.9451 0.82439 0.91393 0.0
N390 N 0.93512 0.79394 0.93371 0.0
C391 C 0.94279 0.81906 0.94156 0.0
C392 C 0.93597 0.79637 0.92006 0.0
C393 C 0.95322 0.85006 0.92186 0.0
C394 C 0.85789 0.67081 0.95734 0.0
N395 N 0.86373 0.69243 0.96714 0.0
C396 C 0.82748 0.65967 0.95516 0.0
C397 C 0.80297 0.67078 0.96311 0.0
C398 C 0.80912 0.69279 0.9731 0.0
C399 C 0.83982 0.70343 0.97498 0.0
C400 C 0.89293 0.66597 0.00707 0.0
C401 C 0.91359 0.72324 0.99737 0.0
C402 C 0.89399 0.67202 0.99332 0.0
N403 N 0.90404 0.70044 0.98865 0.0
C404 C 0.91291 0.71802 0.01119 0.0
C405 C 0.90246 0.68918 0.01604 0.0
C406 C 0.96512 0.74607 0.96631 0.0
C407 C 0.95906 0.68697 0.91623 0.0
C408 C 0.98099 0.73957 0.92957 0.0
C409 C 0.00162 0.72196 0.9217 0.0
C410 C 0.99053 0.69548 0.91501 0.0
N411 N 0.95015 0.73109 0.93071 0.0
C412 C 0.9391 0.70517 0.92416 0.0
Co413 Co 0.70879 0.0989 0.03246 0.0
Co414 Co 0.75632 0.07521 0.05869 0.0
O415 O 0.71733 0.09227 0.05145 0.0
C416 C 0.65872 0.05571 0.04121 0.0
O417 O 0.68085 0.03822 0.0465 0.0
C418 C 0.74987 0.13769 0.07076 0.0
O419 O 0.7412 0.14743 0.05885 0.0
O420 O 0.78222 0.10242 0.04686 0.0
O421 O 0.75159 0.11683 0.02959 0.0
H422 H 0.86468 0.029 0.05603 0.0
H423 H 0.66447 0.12377 0.0528 0.0
O424 O 0.66572 0.08099 0.03508 0.0
H425 H 0.70159 0.21633 0.0277 0.0
H426 H 0.64056 0.12918 0.99336 0.0
H427 H 0.74446 0.08969 0.00723 0.0
H428 H 0.71987 0.16324 0.02168 0.0
H429 H 0.65292 0.12152 0.01729 0.0
O430 O 0.75691 0.10897 0.07267 0.0
H431 H 0.8152 0.05027 0.04694 0.0
H432 H 0.78042 0.06452 0.08636 0.0
H433 H 0.7332 0.09728 0.9832 0.0
H434 H 0.64534 0.17641 0.05908 0.0
H435 H 0.68092 0.11714 0.97613 0.0
H436 H 0.66405 0.22316 0.04653 0.0
O437 O 0.72512 0.05643 0.02779 0.0
H438 H 0.66875 0.05254 0.09101 0.0
H439 H 0.75687 0.00705 0.06551 0.0
H440 H 0.72422 0.97266 0.07969 0.0
H441 H 0.67981 0.99541 0.09258 0.0
H442 H 0.70186 0.08602 0.07661 0.0
H443 H 0.82964 0.04364 0.09589 0.0
H444 H 0.87213 0.02559 0.08068 0.0
O445 O 0.75658 0.04163 0.04478 0.0
C446 C 0.7778 0.11665 0.03578 0.0
C447 C 0.84629 0.03668 0.06276 0.0
C448 C 0.82664 0.04495 0.08513 0.0
N449 N 0.79487 0.05836 0.06611 0.0
C450 C 0.81819 0.04865 0.05767 0.0
C451 C 0.79886 0.0568 0.07968 0.0
C452 C 0.85047 0.03481 0.07659 0.0
C453 C 0.67242 0.14396 0.04719 0.0
N454 N 0.69315 0.14042 0.03685 0.0
C455 C 0.66162 0.17372 0.05083 0.0
C456 C 0.67217 0.19995 0.0438 0.0
C457 C 0.69325 0.19614 0.03324 0.0
C458 C 0.70357 0.16602 0.02989 0.0
C459 C 0.66345 0.12058 0.99631 0.0
C460 C 0.72173 0.09856 0.00423 0.0
C461 C 0.67056 0.11614 0.00984 0.0
N462 N 0.69946 0.1054 0.01365 0.0
C463 C 0.71546 0.10271 0.99061 0.0
C464 C 0.68611 0.11383 0.98665 0.0
C465 C 0.74393 0.03706 0.03335 0.0
C466 C 0.68808 0.04237 0.08546 0.0
C467 C 0.73754 0.01709 0.07105 0.0
C468 C 0.71917 0.99753 0.07909 0.0
C469 C 0.69427 0.01031 0.08633 0.0
N470 N 0.73134 0.04852 0.07027 0.0
C471 C 0.70697 0.06122 0.07733 0.0
Co472 Co 0.60644 0.70657 0.78046 0.0
Co473 Co 0.58279 0.7511 0.80768 0.0
O474 O 0.59969 0.71285 0.79963 0.0
C475 C 0.56221 0.65694 0.7885 0.0
O476 O 0.54763 0.67847 0.79555 0.0
C477 C 0.64557 0.74277 0.81942 0.0
O478 O 0.65514 0.73494 0.80739 0.0
O479 O 0.6095 0.77835 0.79613 0.0
O480 O 0.62612 0.74878 0.77888 0.0
H481 H 0.53588 0.85931 0.80723 0.0
H482 H 0.62875 0.65876 0.79983 0.0
O483 O 0.58653 0.66407 0.78171 0.0
H484 H 0.72358 0.69462 0.77597 0.0
H485 H 0.6356 0.6436 0.73962 0.0
H486 H 0.59975 0.74651 0.75629 0.0
H487 H 0.67153 0.7161 0.77019 0.0
H488 H 0.62719 0.65227 0.7638 0.0
O489 O 0.61702 0.75035 0.82145 0.0
H490 H 0.55706 0.81087 0.79714 0.0
H491 H 0.57317 0.77253 0.83582 0.0
H492 H 0.60821 0.73899 0.73206 0.0
H493 H 0.68031 0.63648 0.80587 0.0
H494 H 0.62624 0.68721 0.72358 0.0
H495 H 0.7282 0.65451 0.79393 0.0
O496 O 0.56475 0.72503 0.77603 0.0
H497 H 0.56162 0.66042 0.83859 0.0
H498 H 0.51491 0.75082 0.81502 0.0
H499 H 0.48115 0.71668 0.82884 0.0
H500 H 0.50451 0.67111 0.84075 0.0
H501 H 0.59444 0.69499 0.82456 0.0
H502 H 0.55242 0.82068 0.84634 0.0
H503 H 0.53348 0.86443 0.83201 0.0
O504 O 0.54859 0.7525 0.79402 0.0
C505 C 0.62501 0.77461 0.78531 0.0
C506 C 0.54397 0.84037 0.81359 0.0
C507 C 0.5533 0.8187 0.83554 0.0
N508 N 0.56609 0.78883 0.81589 0.0
C509 C 0.55588 0.81285 0.80793 0.0
C510 C 0.56508 0.79153 0.82953 0.0
C511 C 0.54266 0.84324 0.82749 0.0
C512 C 0.64944 0.66647 0.79449 0.0
N513 N 0.64712 0.68859 0.78463 0.0
C514 C 0.67859 0.65388 0.79799 0.0
C515 C 0.70546 0.66404 0.79131 0.0
C516 C 0.70289 0.68656 0.78124 0.0
C517 C 0.67336 0.69868 0.77802 0.0
C518 C 0.62778 0.66628 0.74319 0.0
C519 C 0.6078 0.72397 0.75269 0.0
C520 C 0.6229 0.67129 0.75687 0.0
N521 N 0.6132 0.69992 0.76145 0.0
C522 C 0.61245 0.71983 0.73895 0.0
C523 C 0.62254 0.69076 0.7342 0.0
C524 C 0.54475 0.74213 0.78214 0.0
C525 C 0.55117 0.68024 0.83347 0.0
C526 C 0.52521 0.73098 0.82014 0.0
C527 C 0.506 0.71178 0.82798 0.0
C528 C 0.51912 0.68623 0.83466 0.0
N529 N 0.55662 0.72494 0.81901 0.0
C530 C 0.56967 0.69997 0.82555 0.0
Co531 Co 0.70844 0.39619 0.21731 0.0
Co532 Co 0.75665 0.42154 0.19158 0.0
O533 O 0.71746 0.40419 0.19845 0.0
C534 C 0.66005 0.44154 0.20895 0.0
O535 O 0.6829 0.45824 0.20375 0.0
C536 C 0.7506 0.3594 0.17914 0.0
O537 O 0.74141 0.34944 0.19094 0.0
O538 O 0.78222 0.39421 0.20349 0.0
O539 O 0.75065 0.37674 0.21995 0.0
H540 H 0.86442 0.46865 0.19535 0.0
H541 H 0.66383 0.37462 0.1964 0.0
O542 O 0.66599 0.41573 0.21489 0.0
H543 H 0.69737 0.27872 0.22009 0.0
H544 H 0.63873 0.36436 0.2557 0.0
H545 H 0.74403 0.40176 0.24275 0.0
H546 H 0.71715 0.33061 0.22707 0.0
H547 H 0.65165 0.37401 0.23196 0.0
O548 O 0.75792 0.38813 0.17742 0.0
H549 H 0.81475 0.44674 0.20393 0.0
H550 H 0.78202 0.43292 0.16416 0.0
H551 H 0.7322 0.39218 0.2666 0.0
H552 H 0.64323 0.32324 0.18917 0.0
H553 H 0.67922 0.37335 0.2732 0.0
H554 H 0.66013 0.27481 0.201 0.0
O555 O 0.72604 0.43769 0.22276 0.0
H556 H 0.67031 0.4448 0.15874 0.0
H557 H 0.75724 0.48985 0.1851 0.0
H558 H 0.72506 0.52453 0.17084 0.0
H559 H 0.68125 0.502 0.15752 0.0
H560 H 0.70294 0.41104 0.17322 0.0
H561 H 0.83147 0.45449 0.15514 0.0
H562 H 0.87303 0.47267 0.17079 0.0
O563 O 0.75616 0.4546 0.20567 0.0
C564 C 0.77729 0.37837 0.21413 0.0
C565 C 0.84645 0.46094 0.18843 0.0
C566 C 0.82797 0.45292 0.16587 0.0
N567 N 0.79543 0.43879 0.18455 0.0
C568 C 0.81823 0.44859 0.19323 0.0
C569 C 0.80006 0.44067 0.17103 0.0
C570 C 0.85127 0.46314 0.17465 0.0
C571 C 0.67101 0.35369 0.2017 0.0
N572 N 0.69157 0.35563 0.21218 0.0
C573 C 0.65938 0.32465 0.19752 0.0
C574 C 0.66891 0.29748 0.20415 0.0
C575 C 0.68982 0.29965 0.21485 0.0
C576 C 0.70099 0.32909 0.21874 0.0
C577 C 0.66192 0.37251 0.25295 0.0
C578 C 0.72099 0.39338 0.24554 0.0
C579 C 0.66935 0.37808 0.23952 0.0
N580 N 0.69863 0.38823 0.23597 0.0
C581 C 0.7144 0.38808 0.25906 0.0
C582 C 0.68465 0.37755 0.26276 0.0
C583 C 0.74429 0.4578 0.21734 0.0
C584 C 0.68938 0.45488 0.16447 0.0
C585 C 0.73817 0.47991 0.17936 0.0
C586 C 0.72007 0.49964 0.17129 0.0
C587 C 0.6955 0.48698 0.16381 0.0
N588 N 0.73204 0.44845 0.17995 0.0
C589 C 0.708 0.43586 0.17265 0.0
Co590 Co 0.39747 0.29262 0.77866 0.0
Co591 Co 0.41901 0.24839 0.80625 0.0
O592 O 0.40286 0.2865 0.7979 0.0
C593 C 0.44197 0.34156 0.7871 0.0
O594 O 0.45586 0.31976 0.79425 0.0
C595 C 0.35535 0.25566 0.81738 0.0
O596 O 0.34598 0.26091 0.80505 0.0
O597 O 0.39246 0.22124 0.79458 0.0
O598 O 0.37734 0.25058 0.77695 0.0
H599 H 0.46407 0.13939 0.8069 0.0
H600 H 0.37449 0.34065 0.79781 0.0
O601 O 0.41786 0.33486 0.7801 0.0
H602 H 0.28085 0.30615 0.77275 0.0
H603 H 0.37188 0.35608 0.73754 0.0
H604 H 0.40533 0.25267 0.75456 0.0
H605 H 0.33301 0.28406 0.76759 0.0
H606 H 0.37834 0.34713 0.76181 0.0
O607 O 0.38425 0.25025 0.81979 0.0
H608 H 0.44418 0.18779 0.79631 0.0
H609 H 0.42725 0.22792 0.83459 0.0
H610 H 0.39892 0.2605 0.73022 0.0
H611 H 0.32284 0.36359 0.80322 0.0
H612 H 0.38209 0.31252 0.72157 0.0
H613 H 0.27555 0.34625 0.79068 0.0
O614 O 0.43919 0.27357 0.77469 0.0
H615 H 0.4404 0.33984 0.83671 0.0
H616 H 0.48667 0.2481 0.81395 0.0
H617 H 0.52047 0.28237 0.82768 0.0
H618 H 0.49734 0.32863 0.83918 0.0
H619 H 0.40751 0.30509 0.82278 0.0
H620 H 0.44674 0.17986 0.8456 0.0
H621 H 0.46543 0.13521 0.83172 0.0
O622 O 0.45369 0.24586 0.79285 0.0
C623 C 0.37776 0.22491 0.78354 0.0
C624 C 0.45609 0.15872 0.81305 0.0
C625 C 0.44631 0.18142 0.83478 0.0
N626 N 0.43479 0.21072 0.81483 0.0
C627 C 0.44489 0.18621 0.80712 0.0
C628 C 0.43524 0.20854 0.82849 0.0
C629 C 0.45681 0.15638 0.82698 0.0
C630 C 0.35406 0.33319 0.79223 0.0
N631 N 0.35676 0.31111 0.78237 0.0
C632 C 0.32486 0.34618 0.79537 0.0
C633 C 0.29833 0.33641 0.78834 0.0
C634 C 0.30128 0.3139 0.77829 0.0
C635 C 0.33086 0.3014 0.77543 0.0
C636 C 0.37917 0.33329 0.74119 0.0
C637 C 0.39779 0.2753 0.75087 0.0
C638 C 0.38293 0.3281 0.75491 0.0
N639 N 0.39198 0.29934 0.75959 0.0
C640 C 0.3943 0.27963 0.73708 0.0
C641 C 0.38489 0.30884 0.73223 0.0
C642 C 0.45843 0.25596 0.78099 0.0
C643 C 0.45073 0.31971 0.83177 0.0
C644 C 0.47645 0.2682 0.8189 0.0
C645 C 0.49569 0.28749 0.82669 0.0
C646 C 0.48269 0.31343 0.83314 0.0
N647 N 0.44514 0.27453 0.8176 0.0
C648 C 0.43221 0.29988 0.82392 0.0
Co649 Co 0.29318 0.59606 0.22085 0.0
Co650 Co 0.24692 0.58226 0.1931 0.0
O651 O 0.28642 0.59425 0.20156 0.0
C652 C 0.342 0.55262 0.21137 0.0
O653 O 0.3194 0.53708 0.20538 0.0
C654 C 0.26122 0.64461 0.18209 0.0
O655 O 0.26719 0.65321 0.19446 0.0
O656 O 0.22293 0.6117 0.20467 0.0
O657 O 0.25074 0.61488 0.22378 0.0
H658 H 0.13328 0.55067 0.19209 0.0
H659 H 0.34048 0.62396 0.20255 0.0
O660 O 0.33578 0.57716 0.21817 0.0
H661 H 0.30382 0.71135 0.23094 0.0
H662 H 0.35787 0.6143 0.26235 0.0
H663 H 0.25478 0.58129 0.24481 0.0
H664 H 0.28305 0.65786 0.23421 0.0
H665 H 0.34788 0.61323 0.23799 0.0
O666 O 0.25277 0.61653 0.17959 0.0
H667 H 0.18344 0.56501 0.20284 0.0
H668 H 0.22639 0.57565 0.1647 0.0
H669 H 0.26371 0.58206 0.26923 0.0
H670 H 0.3621 0.67704 0.19904 0.0
H671 H 0.31557 0.5987 0.27814 0.0
H672 H 0.34367 0.7212 0.21325 0.0
O673 O 0.27501 0.55353 0.22326 0.0
H674 H 0.33615 0.55068 0.16304 0.0
H675 H 0.23942 0.51493 0.18552 0.0
H676 H 0.27008 0.47748 0.17195 0.0
H677 H 0.31884 0.49531 0.1606 0.0
H678 H 0.30486 0.58731 0.17677 0.0
H679 H 0.17663 0.5617 0.15353 0.0
H680 H 0.12967 0.54896 0.16725 0.0
O681 O 0.24012 0.54801 0.2065 0.0
C682 C 0.22637 0.62074 0.21677 0.0
C683 C 0.15362 0.55604 0.186 0.0
C684 C 0.17793 0.56227 0.16435 0.0
N685 N 0.20787 0.5708 0.1844 0.0
C686 C 0.1821 0.56406 0.19203 0.0
C687 C 0.20603 0.57019 0.17073 0.0
C688 C 0.1516 0.55512 0.17206 0.0
C689 C 0.33261 0.64299 0.20888 0.0
N690 N 0.31065 0.63778 0.21861 0.0
C691 C 0.34483 0.67302 0.2068 0.0
C692 C 0.33443 0.6978 0.21477 0.0
C693 C 0.31207 0.69229 0.22469 0.0
C694 C 0.30034 0.66196 0.22647 0.0
C695 C 0.33515 0.6071 0.25858 0.0
C696 C 0.27734 0.58876 0.24862 0.0
C697 C 0.32937 0.60644 0.24481 0.0
N698 N 0.30068 0.59754 0.24 0.0
C699 C 0.28228 0.58906 0.26245 0.0
C700 C 0.3114 0.59835 0.26744 0.0
C701 C 0.25304 0.53867 0.21733 0.0
C702 C 0.31489 0.54266 0.1679 0.0
C703 C 0.2606 0.52287 0.18061 0.0
C704 C 0.27784 0.50157 0.17292 0.0
C705 C 0.30519 0.51158 0.16655 0.0
N706 N 0.27025 0.55332 0.18187 0.0
C707 C 0.29701 0.56333 0.17564 0.0
Co708 Co 0.59914 0.79418 0.47006 0.0
Co709 Co 0.57936 0.74869 0.44268 0.0
O710 O 0.59377 0.78753 0.4509 0.0
C711 C 0.55281 0.84177 0.46213 0.0
O712 O 0.53727 0.81876 0.45643 0.0
C713 C 0.64148 0.75956 0.43065 0.0
O714 O 0.65188 0.76404 0.44288 0.0
O715 O 0.60864 0.7232 0.45384 0.0
O716 O 0.61925 0.75215 0.47216 0.0
H717 H 0.54175 0.63691 0.44223 0.0
H718 H 0.62205 0.84214 0.45085 0.0
O719 O 0.57862 0.83632 0.46816 0.0
H720 H 0.71579 0.80748 0.4758 0.0
H721 H 0.62475 0.85935 0.51067 0.0
H722 H 0.59065 0.75543 0.4945 0.0
H723 H 0.66366 0.78537 0.481 0.0
H724 H 0.61834 0.84932 0.48647 0.0
O725 O 0.61264 0.75315 0.42864 0.0
H726 H 0.55921 0.68634 0.45273 0.0
H727 H 0.57005 0.72831 0.4144 0.0
H728 H 0.59699 0.76434 0.51877 0.0
H729 H 0.67369 0.86507 0.44541 0.0
H730 H 0.61417 0.81663 0.527 0.0
H731 H 0.72103 0.84766 0.45791 0.0
O732 O 0.55767 0.77487 0.4741 0.0
H733 H 0.54936 0.83953 0.41322 0.0
H734 H 0.51131 0.744 0.43591 0.0
H735 H 0.47416 0.77637 0.42292 0.0
H736 H 0.49315 0.82453 0.41146 0.0
H737 H 0.58564 0.80658 0.42639 0.0
H738 H 0.553 0.67925 0.40347 0.0
H739 H 0.53858 0.63315 0.41742 0.0
O740 O 0.54603 0.74365 0.4566 0.0
C741 C 0.6215 0.72698 0.46528 0.0
C742 C 0.54786 0.65687 0.43604 0.0
C743 C 0.55421 0.68062 0.41429 0.0
N744 N 0.56537 0.71024 0.43419 0.0
C745 C 0.55766 0.68495 0.44194 0.0
C746 C 0.56391 0.70831 0.42053 0.0
C747 C 0.54612 0.65477 0.42212 0.0
C748 C 0.6425 0.83468 0.45642 0.0
N749 N 0.63983 0.81259 0.46628 0.0
C750 C 0.67169 0.84765 0.45326 0.0
C751 C 0.69825 0.83784 0.46026 0.0
C752 C 0.69533 0.81528 0.4703 0.0
C753 C 0.66577 0.80281 0.47318 0.0
C754 C 0.61734 0.83644 0.50721 0.0
C755 C 0.59836 0.77816 0.498 0.0
C756 C 0.61363 0.83064 0.49352 0.0
N757 N 0.60446 0.80172 0.48908 0.0
C758 C 0.6018 0.7831 0.51176 0.0
C759 C 0.61141 0.81246 0.51636 0.0
C760 C 0.54014 0.75491 0.46819 0.0
C761 C 0.54082 0.81856 0.41814 0.0
C762 C 0.51972 0.76494 0.43097 0.0
C763 C 0.4986 0.78314 0.42361 0.0
C764 C 0.50928 0.81015 0.41717 0.0
N765 N 0.55062 0.77334 0.43188 0.0
C766 C 0.56127 0.79974 0.42557 0.0
Co767 Co 0.79157 0.39858 0.53064 0.0
Co768 Co 0.74309 0.42204 0.55653 0.0
O769 O 0.78229 0.4053 0.54953 0.0
C770 C 0.84011 0.44263 0.5397 0.0
O771 O 0.81716 0.45925 0.54487 0.0
C772 C 0.74869 0.35967 0.56882 0.0
O773 O 0.7542 0.34916 0.55668 0.0
O774 O 0.71777 0.39413 0.54471 0.0
O775 O 0.74912 0.38028 0.52755 0.0
H776 H 0.63444 0.46735 0.55329 0.0
H777 H 0.83505 0.37464 0.55151 0.0
O778 O 0.83424 0.41715 0.53351 0.0
H779 H 0.79969 0.28104 0.52667 0.0
H780 H 0.8615 0.36757 0.49221 0.0
H781 H 0.75697 0.40719 0.5051 0.0
H782 H 0.78161 0.33385 0.52008 0.0
H783 H 0.84815 0.37594 0.51601 0.0
O784 O 0.74333 0.38876 0.57072 0.0
H785 H 0.68417 0.44607 0.54447 0.0
H786 H 0.71824 0.43287 0.58408 0.0
H787 H 0.76923 0.39896 0.4812 0.0
H788 H 0.85378 0.32229 0.55841 0.0
H789 H 0.82184 0.379 0.47463 0.0
H790 H 0.83598 0.27502 0.54599 0.0
O791 O 0.77486 0.44076 0.52568 0.0
H792 H 0.83027 0.44712 0.58872 0.0
H793 H 0.74107 0.49026 0.56317 0.0
H794 H 0.77311 0.52561 0.57717 0.0
H795 H 0.81808 0.50405 0.59008 0.0
H796 H 0.79774 0.41268 0.57451 0.0
H797 H 0.6687 0.45368 0.59334 0.0
H798 H 0.62645 0.47124 0.5779 0.0
O799 O 0.74252 0.45522 0.54244 0.0
C800 C 0.72274 0.3801 0.53361 0.0
C801 C 0.6527 0.45986 0.56013 0.0
C802 C 0.67192 0.45214 0.5826 0.0
N803 N 0.70416 0.43849 0.56376 0.0
C804 C 0.68095 0.44789 0.55519 0.0
C805 C 0.69987 0.4403 0.5773 0.0
C806 C 0.64823 0.46201 0.57393 0.0
C807 C 0.82748 0.35422 0.54595 0.0
N808 N 0.80742 0.35732 0.53535 0.0
C809 C 0.83806 0.32462 0.54995 0.0
C810 C 0.82803 0.29811 0.54299 0.0
C811 C 0.80765 0.30147 0.53215 0.0
C812 C 0.79748 0.33143 0.52847 0.0
C813 C 0.83848 0.37621 0.49495 0.0
C814 C 0.77984 0.39831 0.50232 0.0
C815 C 0.83081 0.38104 0.5084 0.0
N816 N 0.80172 0.39178 0.51193 0.0
C817 C 0.78668 0.39379 0.48877 0.0
C818 C 0.81621 0.38262 0.48509 0.0
C819 C 0.75549 0.45983 0.53107 0.0
C820 C 0.8107 0.45679 0.58316 0.0
C821 C 0.76065 0.48075 0.56872 0.0
C822 C 0.77866 0.50085 0.57666 0.0
C823 C 0.80387 0.48873 0.58391 0.0
N824 N 0.7675 0.44945 0.56804 0.0
C825 C 0.79213 0.43738 0.57514 0.0
Co826 Co 0.39592 0.20874 0.46828 0.0
Co827 Co 0.41992 0.25611 0.44209 0.0
O828 O 0.40223 0.21756 0.44931 0.0
C829 C 0.43841 0.15871 0.45915 0.0
O830 O 0.45549 0.18103 0.45377 0.0
C831 C 0.35684 0.2526 0.43035 0.0
O832 O 0.34675 0.24729 0.44257 0.0
O833 O 0.39336 0.28242 0.45408 0.0
O834 O 0.37902 0.25183 0.47143 0.0
H835 H 0.46799 0.36359 0.44476 0.0
H836 H 0.36993 0.1657 0.4477 0.0
O837 O 0.41318 0.16547 0.4654 0.0
H838 H 0.27833 0.20427 0.47304 0.0
H839 H 0.36464 0.13988 0.50701 0.0
H840 H 0.40647 0.24322 0.49372 0.0
H841 H 0.33191 0.22079 0.47924 0.0
H842 H 0.37224 0.15295 0.48314 0.0
O843 O 0.38601 0.25691 0.42819 0.0
H844 H 0.44609 0.31441 0.45385 0.0
H845 H 0.43052 0.28027 0.41442 0.0
H846 H 0.39897 0.23128 0.51769 0.0
H847 H 0.31677 0.14849 0.44119 0.0
H848 H 0.37792 0.17926 0.52447 0.0
H849 H 0.27051 0.16792 0.45387 0.0
O850 O 0.43871 0.22428 0.47292 0.0
H851 H 0.44073 0.16818 0.40973 0.0
H852 H 0.48787 0.25591 0.4349 0.0
H853 H 0.52154 0.22279 0.4206 0.0
H854 H 0.49796 0.17858 0.40787 0.0
H855 H 0.40801 0.20172 0.42426 0.0
H856 H 0.45223 0.32914 0.4049 0.0
H857 H 0.47129 0.37115 0.42013 0.0
O858 O 0.45375 0.25567 0.45591 0.0
C859 C 0.37957 0.2781 0.46528 0.0
C860 C 0.45996 0.34539 0.43803 0.0
C861 C 0.45102 0.32608 0.41565 0.0
N862 N 0.43729 0.29442 0.43466 0.0
C863 C 0.44757 0.31747 0.44311 0.0
C864 C 0.43869 0.2985 0.42109 0.0
C865 C 0.46173 0.34964 0.4242 0.0
C866 C 0.34994 0.17396 0.45336 0.0
N867 N 0.35403 0.19407 0.46389 0.0
C868 C 0.31989 0.16424 0.44959 0.0
C869 C 0.29394 0.1752 0.4567 0.0
C870 C 0.29831 0.19561 0.46745 0.0
C871 C 0.3287 0.20489 0.47091 0.0
C872 C 0.37374 0.16266 0.50419 0.0
C873 C 0.39707 0.22065 0.49659 0.0
C874 C 0.37814 0.17017 0.49069 0.0
N875 N 0.38951 0.19893 0.48705 0.0
C876 C 0.39297 0.21397 0.51018 0.0
C877 C 0.3812 0.18476 0.51398 0.0
C878 C 0.45824 0.24282 0.4673 0.0
C879 C 0.45128 0.1874 0.41521 0.0
C880 C 0.47749 0.23662 0.42945 0.0
C881 C 0.49664 0.21801 0.42133 0.0
C882 C 0.48339 0.19323 0.41418 0.0
N883 N 0.44602 0.23076 0.43041 0.0
C884 C 0.43285 0.20653 0.42342 0.0
Co885 Co 0.20296 0.602 0.53134 0.0
Co886 Co 0.2544 0.58321 0.55693 0.0
O887 O 0.2135 0.59654 0.55025 0.0
C888 C 0.15708 0.55548 0.54099 0.0
O889 O 0.18085 0.53943 0.5458 0.0
C890 C 0.2428 0.6444 0.56953 0.0
O891 O 0.23275 0.65382 0.55778 0.0
O892 O 0.27635 0.61327 0.545 0.0
O893 O 0.2441 0.6228 0.52762 0.0
H894 H 0.36659 0.54854 0.55224 0.0
H895 H 0.15866 0.62425 0.55224 0.0
O896 O 0.16168 0.58118 0.53477 0.0
H897 H 0.18682 0.71844 0.52616 0.0
H898 H 0.12909 0.62618 0.49335 0.0
H899 H 0.23663 0.59407 0.50552 0.0
H900 H 0.20854 0.66666 0.52014 0.0
H901 H 0.14432 0.62034 0.51707 0.0
O902 O 0.25259 0.61639 0.57113 0.0
H903 H 0.31438 0.56478 0.54412 0.0
H904 H 0.28197 0.57429 0.58417 0.0
H905 H 0.22253 0.59995 0.48168 0.0
H906 H 0.13619 0.67552 0.55854 0.0
H907 H 0.1684 0.6161 0.47547 0.0
H908 H 0.15036 0.7231 0.54549 0.0
O909 O 0.22189 0.56072 0.52659 0.0
H910 H 0.17163 0.55089 0.59003 0.0
H911 H 0.26283 0.51548 0.56362 0.0
H912 H 0.23488 0.47762 0.57803 0.0
H913 H 0.18894 0.4953 0.59138 0.0
H914 H 0.20013 0.58787 0.5754 0.0
H915 H 0.33398 0.55847 0.59274 0.0
H916 H 0.37668 0.54537 0.57672 0.0
O917 O 0.25695 0.55007 0.54284 0.0
C918 C 0.27018 0.62601 0.53375 0.0
C919 C 0.34816 0.5541 0.55933 0.0
C920 C 0.32985 0.55971 0.58206 0.0
N921 N 0.29508 0.57017 0.56367 0.0
C922 C 0.3185 0.56319 0.55479 0.0
C923 C 0.30048 0.5687 0.57715 0.0
C924 C 0.3538 0.55235 0.57306 0.0
C925 C 0.16466 0.64478 0.54642 0.0
N926 N 0.18478 0.64243 0.5358 0.0
C927 C 0.15197 0.67377 0.55007 0.0
C928 C 0.15998 0.70047 0.54276 0.0
C929 C 0.18045 0.69788 0.53192 0.0
C930 C 0.19273 0.6685 0.52857 0.0
C931 C 0.15279 0.61924 0.49593 0.0
C932 C 0.21313 0.6014 0.5029 0.0
C933 C 0.16153 0.61586 0.50934 0.0
N934 N 0.19144 0.60721 0.51267 0.0
C935 C 0.20524 0.60456 0.48938 0.0
C936 C 0.17485 0.61358 0.4859 0.0
C937 C 0.24333 0.54368 0.53178 0.0
C938 C 0.19164 0.54292 0.58428 0.0
C939 C 0.24278 0.52328 0.56935 0.0
C940 C 0.2271 0.50178 0.57752 0.0
C941 C 0.20134 0.51172 0.58502 0.0
N942 N 0.23313 0.55383 0.56868 0.0
C943 C 0.20792 0.56377 0.57601 0.0
H944 H 0.10814 0.33701 0.29098 0.0
H945 H 0.13213 0.38192 0.27965 0.0
H946 H 0.19153 0.31909 0.25711 0.0
H947 H 0.16694 0.27418 0.268 0.0
H948 H 0.18848 0.4065 0.2773 0.0
H949 H 0.20015 0.34476 0.22566 0.0
H950 H 0.17439 0.30196 0.21314 0.0
H951 H 0.08892 0.3176 0.23497 0.0
H952 H 0.11396 0.36084 0.24743 0.0
H953 H 0.28218 0.50215 0.23612 0.0
H954 H 0.26072 0.45643 0.2477 0.0
H955 H 0.175 0.46476 0.2249 0.0
H956 H 0.19681 0.50961 0.21288 0.0
H957 H 0.18815 0.4062 0.22755 0.0
H958 H 0.1824 0.49342 0.2575 0.0
H959 H 0.20338 0.53882 0.26994 0.0
H960 H 0.26574 0.47806 0.29163 0.0
H961 H 0.24556 0.43235 0.27913 0.0
C962 C 0.1265 0.33278 0.28369 0.0
C963 C 0.13537 0.30201 0.28026 0.0
C964 C 0.14024 0.35848 0.27725 0.0
C965 C 0.1632 0.35383 0.26735 0.0
C966 C 0.17332 0.3232 0.26448 0.0
C967 C 0.15929 0.29754 0.27075 0.0
C968 C 0.17552 0.38079 0.25955 0.0
C969 C 0.18845 0.40645 0.26643 0.0
C970 C 0.17471 0.38109 0.24536 0.0
C971 C 0.15906 0.35586 0.23756 0.0
C972 C 0.17579 0.33922 0.22771 0.0
C973 C 0.16132 0.31485 0.22064 0.0
C974 C 0.13007 0.30701 0.22328 0.0
C975 C 0.11315 0.32364 0.23295 0.0
C976 C 0.12747 0.34809 0.24002 0.0
C977 C 0.25885 0.49409 0.2335 0.0
C978 C 0.24108 0.50968 0.22367 0.0
C979 C 0.24655 0.46804 0.24017 0.0
C980 C 0.21596 0.45757 0.23738 0.0
C981 C 0.19861 0.47245 0.22725 0.0
C982 C 0.2111 0.49816 0.2204 0.0
C983 C 0.20168 0.43172 0.24528 0.0
C984 C 0.18828 0.40628 0.23842 0.0
C985 C 0.20108 0.43216 0.25948 0.0
C986 C 0.21265 0.45948 0.26729 0.0
C987 C 0.20069 0.48975 0.26488 0.0
C988 C 0.21245 0.51555 0.27193 0.0
C989 C 0.23592 0.51134 0.28155 0.0
C990 C 0.24759 0.48129 0.28416 0.0
C991 C 0.23599 0.45542 0.2771 0.0
H992 H 0.24504 0.53135 0.28698 0.0
H993 H 0.11896 0.28808 0.21783 0.0
H994 H 0.53491 0.74334 0.7551 0.0
H995 H 0.48764 0.76065 0.74327 0.0
H996 H 0.44142 0.77723 0.78105 0.0
H997 H 0.48874 0.76051 0.79299 0.0
H998 H 0.40406 0.7445 0.76005 0.0
H999 H 0.46794 0.83698 0.76783 0.0
H1000 H 0.51761 0.86662 0.76686 0.0
H1001 H 0.5187 0.85811 0.72399 0.0
H1002 H 0.4692 0.82797 0.72473 0.0
H1003 H 0.27854 0.84524 0.74252 0.0
H1004 H 0.32377 0.81894 0.75242 0.0
H1005 H 0.37407 0.8275 0.71506 0.0
H1006 H 0.32925 0.85461 0.70516 0.0
H1007 H 0.41036 0.84472 0.73482 0.0
H1008 H 0.34526 0.7562 0.72623 0.0
H1009 H 0.29687 0.72446 0.72652 0.0
H1010 H 0.29891 0.72252 0.76953 0.0
H1011 H 0.34708 0.75468 0.76951 0.0
C1012 C 0.5146 0.75038 0.7609 0.0
C1013 C 0.5156 0.75071 0.77499 0.0
C1014 C 0.48767 0.76026 0.75412 0.0
C1015 C 0.46118 0.77019 0.76132 0.0
C1016 C 0.46167 0.76953 0.77536 0.0
C1017 C 0.48877 0.76017 0.78215 0.0
C1018 C 0.43364 0.78306 0.7542 0.0
C1019 C 0.4052 0.76654 0.75463 0.0
C1020 C 0.43565 0.81131 0.74684 0.0
C1021 C 0.46504 0.82997 0.74634 0.0
C1022 C 0.47888 0.84124 0.7582 0.0
C1023 C 0.50698 0.85817 0.75769 0.0
C1024 C 0.52132 0.86422 0.74537 0.0
C1025 C 0.50755 0.8534 0.73352 0.0
C1026 C 0.47946 0.83642 0.73398 0.0
C1027 C 0.29907 0.8413 0.73634 0.0
C1028 C 0.30021 0.85213 0.72303 0.0
C1029 C 0.32491 0.8261 0.74201 0.0
C1030 C 0.35225 0.82097 0.73445 0.0
C1031 C 0.35325 0.83122 0.7211 0.0
C1032 C 0.32752 0.84663 0.71544 0.0
C1033 C 0.38031 0.80631 0.74069 0.0
C1034 C 0.409 0.82253 0.74013 0.0
C1035 C 0.37856 0.77757 0.7478 0.0
C1036 C 0.34965 0.75811 0.74787 0.0
C1037 C 0.33526 0.74922 0.73576 0.0
C1038 C 0.30789 0.73112 0.73587 0.0
C1039 C 0.29478 0.72154 0.74804 0.0
C1040 C 0.30907 0.72999 0.76011 0.0
C1041 C 0.33643 0.74813 0.76006 0.0
H1042 H 0.27359 0.70752 0.74811 0.0
H1043 H 0.54308 0.87732 0.74499 0.0
H1044 H 0.7685 0.51265 0.20775 0.0
H1045 H 0.78856 0.55684 0.22064 0.0
H1046 H 0.76175 0.5107 0.25739 0.0
H1047 H 0.74059 0.46662 0.2445 0.0
H1048 H 0.75162 0.57228 0.25927 0.0
H1049 H 0.83694 0.50717 0.246 0.0
H1050 H 0.86979 0.47661 0.23039 0.0
H1051 H 0.89198 0.56058 0.20857 0.0
H1052 H 0.85875 0.5916 0.22388 0.0
H1053 H 0.8601 0.66722 0.2978 0.0
H1054 H 0.83425 0.62182 0.28747 0.0
H1055 H 0.83963 0.6668 0.24883 0.0
H1056 H 0.86488 0.71231 0.259 0.0
H1057 H 0.86186 0.60291 0.24977 0.0
H1058 H 0.77304 0.66676 0.26316 0.0
H1059 H 0.74109 0.69598 0.27955 0.0
H1060 H 0.72779 0.61179 0.30252 0.0
H1061 H 0.76013 0.58215 0.28636 0.0
C1062 C 0.76653 0.51198 0.21857 0.0
C1063 C 0.75327 0.48594 0.22511 0.0
C1064 C 0.77813 0.53724 0.22593 0.0
C1065 C 0.77737 0.5367 0.23999 0.0
C1066 C 0.76276 0.51148 0.24655 0.0
C1067 C 0.75071 0.48631 0.23916 0.0
C1068 C 0.79314 0.56185 0.24774 0.0
C1069 C 0.77586 0.57866 0.25733 0.0
C1070 C 0.82479 0.57022 0.2452 0.0
C1071 C 0.84513 0.55169 0.23604 0.0
C1072 C 0.84864 0.51911 0.23782 0.0
C1073 C 0.86734 0.5017 0.22902 0.0
C1074 C 0.88294 0.51665 0.21849 0.0
C1075 C 0.87987 0.54904 0.21673 0.0
C1076 C 0.86111 0.56655 0.22547 0.0
C1077 C 0.85569 0.66747 0.28711 0.0
C1078 C 0.86455 0.69339 0.27922 0.0
C1079 C 0.84089 0.64159 0.28125 0.0
C1080 C 0.83508 0.6411 0.26742 0.0
C1081 C 0.84398 0.66681 0.25953 0.0
C1082 C 0.85831 0.69283 0.26538 0.0
C1083 C 0.82012 0.61365 0.26102 0.0
C1084 C 0.83768 0.59632 0.25173 0.0
C1085 C 0.78896 0.60457 0.26399 0.0
C1086 C 0.76931 0.62232 0.27364 0.0
C1087 C 0.76356 0.65453 0.27177 0.0
C1088 C 0.74533 0.67117 0.28101 0.0
C1089 C 0.7325 0.65578 0.2921 0.0
C1090 C 0.7378 0.62369 0.29394 0.0
C1091 C 0.75606 0.60696 0.28474 0.0
H1092 H 0.71839 0.66869 0.29924 0.0
H1093 H 0.89747 0.50315 0.21171 0.0
H1094 H 0.51079 0.22907 0.79203 0.0
H1095 H 0.55806 0.21122 0.78045 0.0
H1096 H 0.51946 0.24224 0.74276 0.0
H1097 H 0.47213 0.26049 0.75425 0.0
H1098 H 0.54345 0.18024 0.74242 0.0
H1099 H 0.57503 0.28379 0.75584 0.0
H1100 H 0.58291 0.32692 0.77195 0.0
H1101 H 0.64656 0.26958 0.79462 0.0
H1102 H 0.63862 0.22585 0.77877 0.0
H1103 H 0.67801 0.1539 0.70346 0.0
H1104 H 0.63442 0.18099 0.7143 0.0
H1105 H 0.67601 0.16346 0.75301 0.0
H1106 H 0.7203 0.13716 0.74221 0.0
H1107 H 0.6503 0.22031 0.7525 0.0
H1108 H 0.61778 0.11638 0.74042 0.0
H1109 H 0.6102 0.07185 0.72497 0.0
H1110 H 0.54809 0.12765 0.70086 0.0
H1111 H 0.55578 0.17274 0.71603 0.0
C1112 C 0.51237 0.23232 0.7813 0.0
C1113 C 0.48765 0.24629 0.77408 0.0
C1114 C 0.53945 0.22216 0.7747 0.0
C1115 C 0.54225 0.22556 0.76077 0.0
C1116 C 0.51771 0.23947 0.75353 0.0
C1117 C 0.49075 0.24999 0.76013 0.0
C1118 C 0.57046 0.21373 0.75374 0.0
C1119 C 0.56678 0.18931 0.74445 0.0
C1120 C 0.60089 0.22503 0.75672 0.0
C1121 C 0.60599 0.25142 0.76618 0.0
C1122 C 0.59051 0.28027 0.76432 0.0
C1123 C 0.59502 0.30486 0.7734 0.0
C1124 C 0.61517 0.30098 0.78432 0.0
C1125 C 0.63092 0.27253 0.78616 0.0
C1126 C 0.62644 0.24784 0.77713 0.0
C1127 C 0.67806 0.156 0.71428 0.0
C1128 C 0.70246 0.14301 0.72198 0.0
C1129 C 0.65306 0.17146 0.72046 0.0
C1130 C 0.65161 0.17367 0.73449 0.0
C1131 C 0.67658 0.16192 0.74218 0.0
C1132 C 0.70184 0.14679 0.73598 0.0
C1133 C 0.62334 0.1868 0.74114 0.0
C1134 C 0.62698 0.21134 0.7504 0.0
C1135 C 0.59284 0.17536 0.73826 0.0
C1136 C 0.58759 0.14804 0.72929 0.0
C1137 C 0.60264 0.11922 0.73178 0.0
C1138 C 0.59834 0.09387 0.72307 0.0
C1139 C 0.57873 0.09694 0.71192 0.0
C1140 C 0.56331 0.12533 0.70949 0.0
C1141 C 0.56762 0.15079 0.71814 0.0
H1142 H 0.57543 0.0773 0.70519 0.0
H1143 H 0.61862 0.32003 0.79134 0.0
H1144 H 0.1952 0.99216 0.03773 0.0
H1145 H 0.17381 0.03539 0.02464 0.0
H1146 H 0.25676 0.03532 0.99978 0.0
H1147 H 0.27765 0.99089 0.01246 0.0
H1148 H 0.18881 0.09183 0.02055 0.0
H1149 H 0.24076 0.05851 0.96867 0.0
H1150 H 0.2562 0.01087 0.95622 0.0
H1151 H 0.19097 0.95616 0.97925 0.0
H1152 H 0.17507 0.00341 0.99178 0.0
H1153 H 0.16561 0.22135 0.97876 0.0
H1154 H 0.19071 0.17699 0.98991 0.0
H1155 H 0.1294 0.1131 0.96889 0.0
H1156 H 0.10509 0.15735 0.95726 0.0
H1157 H 0.18459 0.08768 0.97088 0.0
H1158 H 0.11396 0.13714 0.00131 0.0
H1159 H 0.09087 0.18179 0.01358 0.0
H1160 H 0.1786 0.19748 0.03368 0.0
H1161 H 0.20241 0.15326 0.02135 0.0
C1162 C 0.20893 0.00128 0.02947 0.0
C1163 C 0.23803 0.98789 0.02607 0.0
C1164 C 0.19668 0.02612 0.02201 0.0
C1165 C 0.21341 0.03841 0.01108 0.0
C1166 C 0.243 0.02576 0.00794 0.0
C1167 C 0.25501 0.00047 0.01525 0.0
C1168 C 0.19972 0.06435 0.00301 0.0
C1169 C 0.18795 0.09087 0.00969 0.0
C1170 C 0.19781 0.06292 0.98884 0.0
C1171 C 0.20699 0.03444 0.98124 0.0
C1172 C 0.22968 0.03631 0.97105 0.0
C1173 C 0.23855 0.00936 0.964 0.0
C1174 C 0.22471 0.98045 0.96699 0.0
C1175 C 0.20186 0.97847 0.977 0.0
C1176 C 0.19294 0.00532 0.98409 0.0
C1177 C 0.15767 0.19785 0.97641 0.0
C1178 C 0.13317 0.19287 0.96722 0.0
C1179 C 0.17198 0.1725 0.98282 0.0
C1180 C 0.16148 0.14175 0.98046 0.0
C1181 C 0.13785 0.13662 0.9709 0.0
C1182 C 0.12392 0.16195 0.96428 0.0
C1183 C 0.17407 0.11518 0.98844 0.0
C1184 C 0.18559 0.0886 0.98174 0.0
C1185 C 0.17451 0.11594 0.00263 0.0
C1186 C 0.16005 0.14205 0.01032 0.0
C1187 C 0.12837 0.1502 0.0083 0.0
C1188 C 0.11516 0.17544 0.01526 0.0
C1189 C 0.13327 0.19249 0.02438 0.0
C1190 C 0.16461 0.18426 0.0266 0.0
C1191 C 0.17798 0.15911 0.01964 0.0
H1192 H 0.12301 0.21204 0.02975 0.0
H1193 H 0.23161 0.95961 0.96153 0.0
H1194 H 0.22968 0.82994 0.0199 0.0
H1195 H 0.18688 0.80271 0.00853 0.0
H1196 H 0.11944 0.85805 0.03054 0.0
H1197 H 0.16212 0.88416 0.04246 0.0
H1198 H 0.09692 0.80254 0.02747 0.0
H1199 H 0.14602 0.87732 0.99842 0.0
H1200 H 0.19061 0.90162 0.98659 0.0
H1201 H 0.20562 0.81649 0.96449 0.0
H1202 H 0.16175 0.79127 0.97653 0.0
H1203 H 0.99672 0.80119 0.96249 0.0
H1204 H 0.04236 0.82023 0.97484 0.0
H1205 H 0.04683 0.73273 0.99656 0.0
H1206 H 0.00037 0.71404 0.98465 0.0
H1207 H 0.10057 0.80453 0.97777 0.0
H1208 H 0.0699 0.74528 0.02837 0.0
H1209 H 0.02299 0.72567 0.04024 0.0
H1210 H 0.96514 0.79116 0.01878 0.0
H1211 H 0.01175 0.81155 0.00698 0.0
C1212 C 0.20573 0.83599 0.02246 0.0
C1213 C 0.19929 0.85945 0.03197 0.0
C1214 C 0.18127 0.82049 0.01591 0.0
C1215 C 0.14993 0.82889 0.01842 0.0
C1216 C 0.14342 0.85124 0.02838 0.0
C1217 C 0.16787 0.86623 0.03517 0.0
C1218 C 0.12404 0.81586 0.01015 0.0
C1219 C 0.0978 0.80288 0.01661 0.0
C1220 C 0.1248 0.81693 0.99595 0.0
C1221 C 0.15075 0.8323 0.98847 0.0
C1222 C 0.15893 0.86371 0.9911 0.0
C1223 C 0.1841 0.87765 0.98436 0.0
C1224 C 0.20089 0.86065 0.97477 0.0
C1225 C 0.19259 0.82963 0.97192 0.0
C1226 C 0.16762 0.81547 0.97872 0.0
C1227 C 0.00752 0.78591 0.96983 0.0
C1228 C 0.99466 0.75628 0.97273 0.0
C1229 C 0.03369 0.7968 0.97686 0.0
C1230 C 0.04768 0.77816 0.98682 0.0
C1231 C 0.03595 0.74785 0.98917 0.0
C1232 C 0.00946 0.73716 0.98232 0.0
C1233 C 0.07362 0.791 0.99509 0.0
C1234 C 0.09983 0.804 0.98863 0.0
C1235 C 0.07235 0.79095 0.00928 0.0
C1236 C 0.0443 0.7797 0.0167 0.0
C1237 C 0.0472 0.75564 0.02626 0.0
C1238 C 0.02066 0.74438 0.03297 0.0
C1239 C 0.99109 0.75709 0.03023 0.0
C1240 C 0.98804 0.78128 0.02087 0.0
C1241 C 0.01452 0.7927 0.01417 0.0
H1242 H 0.97056 0.74825 0.03539 0.0
H1243 H 0.22031 0.87152 0.96953 0.0
H1244 H 0.87253 0.7853 0.99236 0.0
H1245 H 0.84421 0.82858 0.00278 0.0
H1246 H 0.82535 0.86818 0.96379 0.0
H1247 H 0.8548 0.8255 0.95329 0.0
H1248 H 0.84184 0.91264 0.97995 0.0
H1249 H 0.76791 0.82889 0.98263 0.0
H1250 H 0.74938 0.77543 0.98783 0.0
H1251 H 0.76786 0.79074 0.02962 0.0
H1252 H 0.787 0.84413 0.02465 0.0
H1253 H 0.73366 0.02345 0.00687 0.0
H1254 H 0.75205 0.97747 0.99445 0.0
H1255 H 0.79169 0.93923 0.0307 0.0
H1256 H 0.77368 0.98505 0.0432 0.0
H1257 H 0.75997 0.89426 0.01447 0.0
H1258 H 0.83814 0.97666 0.01078 0.0
H1259 H 0.85571 0.03025 0.00521 0.0
H1260 H 0.8266 0.01709 0.9644 0.0
H1261 H 0.8084 0.96354 0.96979 0.0
C1262 C 0.86227 0.80314 0.98598 0.0
C1263 C 0.86585 0.8019 0.97198 0.0
C1264 C 0.8459 0.82781 0.99195 0.0
C1265 C 0.8321 0.85137 0.98406 0.0
C1266 C 0.8357 0.85024 0.97008 0.0
C1267 C 0.85251 0.8258 0.9641 0.0
C1268 C 0.81475 0.87764 0.99045 0.0
C1269 C 0.82352 0.90855 0.9873 0.0
C1270 C 0.79107 0.87241 0.00018 0.0
C1271 C 0.77911 0.84046 0.00325 0.0
C1272 C 0.76819 0.8208 0.99292 0.0
C1273 C 0.75757 0.79051 0.99583 0.0
C1274 C 0.75749 0.77968 0.00905 0.0
C1275 C 0.76795 0.79916 0.01939 0.0
C1276 C 0.77866 0.82945 0.01653 0.0
C1277 C 0.74594 0.0051 0.01225 0.0
C1278 C 0.75236 0.00805 0.02603 0.0
C1279 C 0.75646 0.97889 0.00512 0.0
C1280 C 0.77336 0.95513 0.01167 0.0
C1281 C 0.77863 0.95733 0.0255 0.0
C1282 C 0.76843 0.98363 0.0326 0.0
C1283 C 0.78736 0.92892 0.00401 0.0
C1284 C 0.77799 0.89815 0.00696 0.0
C1285 C 0.81024 0.93424 0.994 0.0
C1286 C 0.8216 0.96624 0.99072 0.0
C1287 C 0.83527 0.98528 0.00064 0.0
C1288 C 0.84537 0.01563 0.99752 0.0
C1289 C 0.84219 0.0271 0.98447 0.0
C1290 C 0.829 0.00819 0.97451 0.0
C1291 C 0.8188 0.97784 0.97759 0.0
H1292 H 0.85002 0.05061 0.98207 0.0
H1293 H 0.74927 0.75621 0.01128 0.0
H1294 H 0.83839 0.11989 0.04495 0.0
H1295 H 0.88277 0.14696 0.03463 0.0
H1296 H 0.82284 0.17845 0.00249 0.0
H1297 H 0.77823 0.15175 0.01275 0.0
H1298 H 0.91003 0.13773 0.01075 0.0
H1299 H 0.84687 0.25067 0.99222 0.0
H1300 H 0.80301 0.2848 0.99919 0.0
H1301 H 0.81581 0.25634 0.04011 0.0
H1302 H 0.86001 0.2224 0.03342 0.0
H1303 H 0.99298 0.20826 0.95823 0.0
H1304 H 0.94946 0.18928 0.97185 0.0
H1305 H 0.9729 0.25587 0.0028 0.0
H1306 H 0.01683 0.2751 0.98927 0.0
H1307 H 0.90742 0.25038 0.99803 0.0
H1308 H 0.99626 0.18591 0.00754 0.0
H1309 H 0.04202 0.15308 0.00182 0.0
H1310 H 0.98159 0.0867 0.98227 0.0
H1311 H 0.93548 0.11942 0.98767 0.0
C1312 C 0.83452 0.13273 0.03573 0.0
C1313 C 0.80463 0.13369 0.02972 0.0
C1314 C 0.85998 0.14811 0.02983 0.0
C1315 C 0.85605 0.16493 0.01787 0.0
C1316 C 0.82629 0.16599 0.01184 0.0
C1317 C 0.80082 0.15059 0.01771 0.0
C1318 C 0.88323 0.18062 0.01144 0.0
C1319 C 0.90948 0.16237 0.00802 0.0
C1320 C 0.8828 0.21294 0.00813 0.0
C1321 C 0.8566 0.23378 0.01229 0.0
C1322 C 0.84044 0.25182 0.00272 0.0
C1323 C 0.81549 0.27111 0.00662 0.0
C1324 C 0.80658 0.27267 0.02008 0.0
C1325 C 0.82267 0.25503 0.02968 0.0
C1326 C 0.84764 0.23573 0.02583 0.0
C1327 C 0.98883 0.21917 0.96787 0.0
C1328 C 0.00865 0.24307 0.97269 0.0
C1329 C 0.96392 0.20822 0.97565 0.0
C1330 C 0.95822 0.22099 0.98837 0.0
C1331 C 0.977 0.24573 0.993 0.0
C1332 C 0.00214 0.25658 0.98527 0.0
C1333 C 0.93361 0.20722 0.99703 0.0
C1334 C 0.90794 0.22579 0.00085 0.0
C1335 C 0.93483 0.17535 0.00098 0.0
C1336 C 0.96243 0.15526 0.99792 0.0
C1337 C 0.99274 0.16442 0.00194 0.0
C1338 C 0.01875 0.14583 0.99876 0.0
C1339 C 0.01472 0.11786 0.99166 0.0
C1340 C 0.98467 0.10839 0.98776 0.0
C1341 C 0.95858 0.12693 0.99089 0.0
H1342 H 0.03489 0.10351 0.9892 0.0
H1343 H 0.78724 0.28758 0.02307 0.0
H1344 H 0.61972 0.83646 0.79256 0.0
H1345 H 0.64329 0.88183 0.78142 0.0
H1346 H 0.69208 0.82008 0.75421 0.0
H1347 H 0.66813 0.77472 0.76501 0.0
H1348 H 0.70159 0.90305 0.77661 0.0
H1349 H 0.6904 0.85061 0.72326 0.0
H1350 H 0.6577 0.8116 0.71145 0.0
H1351 H 0.58193 0.8287 0.73887 0.0
H1352 H 0.6139 0.86827 0.75067 0.0
H1353 H 0.7855 0.00147 0.73253 0.0
H1354 H 0.7656 0.95513 0.74422 0.0
H1355 H 0.67345 0.97162 0.72762 0.0
H1356 H 0.6936 0.01695 0.71539 0.0
H1357 H 0.68335 0.91255 0.72765 0.0
H1358 H 0.69517 0.99377 0.76049 0.0
H1359 H 0.72419 0.03494 0.77269 0.0
H1360 H 0.78921 0.96599 0.78736 0.0
H1361 H 0.7609 0.92448 0.77506 0.0
C1362 C 0.63572 0.83249 0.78429 0.0
C1363 C 0.64174 0.80194 0.77958 0.0
C1364 C 0.64923 0.85846 0.77797 0.0
C1365 C 0.66902 0.85433 0.76686 0.0
C1366 C 0.67639 0.82382 0.76261 0.0
C1367 C 0.6627 0.79789 0.76882 0.0
C1368 C 0.6805 0.88185 0.75921 0.0
C1369 C 0.69766 0.90516 0.76591 0.0
C1370 C 0.67466 0.88494 0.74531 0.0
C1371 C 0.6547 0.8622 0.73791 0.0
C1372 C 0.66667 0.84624 0.72669 0.0
C1373 C 0.64827 0.82402 0.72001 0.0
C1374 C 0.61778 0.81764 0.72443 0.0
C1375 C 0.60554 0.83366 0.73547 0.0
C1376 C 0.6238 0.85599 0.74215 0.0
C1377 C 0.76104 0.99508 0.73133 0.0
C1378 C 0.74104 0.01295 0.72313 0.0
C1379 C 0.74964 0.96868 0.73806 0.0
C1380 C 0.71783 0.96024 0.73705 0.0
C1381 C 0.69805 0.97766 0.72859 0.0
C1382 C 0.70959 0.00363 0.72163 0.0
C1383 C 0.70493 0.9337 0.74498 0.0
C1384 C 0.68739 0.91053 0.73834 0.0
C1385 C 0.70957 0.9313 0.75902 0.0
C1386 C 0.72605 0.95606 0.76677 0.0
C1387 C 0.71572 0.98741 0.76629 0.0
C1388 C 0.73205 0.01081 0.77321 0.0
C1389 C 0.75855 0.00309 0.78077 0.0
C1390 C 0.76869 0.97193 0.78149 0.0
C1391 C 0.7525 0.94846 0.77455 0.0
H1392 H 0.77121 0.02125 0.7861 0.0
H1393 H 0.60363 0.80032 0.71928 0.0
H1394 H 0.02494 0.23069 0.25623 0.0
H1395 H 0.97973 0.25062 0.24375 0.0
H1396 H 0.94273 0.29176 0.27994 0.0
H1397 H 0.98792 0.27254 0.29246 0.0
H1398 H 0.91573 0.24437 0.24525 0.0
H1399 H 0.91515 0.36365 0.27276 0.0
H1400 H 0.95224 0.39714 0.28527 0.0
H1401 H 0.02914 0.35958 0.26252 0.0
H1402 H 0.99247 0.32625 0.24974 0.0
H1403 H 0.77583 0.33238 0.23332 0.0
H1404 H 0.8206 0.30607 0.2438 0.0
H1405 H 0.88419 0.3603 0.21941 0.0
H1406 H 0.8397 0.38654 0.20878 0.0
H1407 H 0.90032 0.35988 0.24646 0.0
H1408 H 0.87507 0.28785 0.21157 0.0
H1409 H 0.84037 0.25421 0.19804 0.0
H1410 H 0.81989 0.19797 0.23267 0.0
H1411 H 0.85415 0.23169 0.24648 0.0
C1412 C 0.00703 0.24368 0.26158 0.0
C1413 C 0.01029 0.25033 0.27533 0.0
C1414 C 0.98115 0.25494 0.25443 0.0
C1415 C 0.95817 0.27302 0.26089 0.0
C1416 C 0.9605 0.27825 0.27473 0.0
C1417 C 0.98638 0.26721 0.28187 0.0
C1418 C 0.9329 0.28828 0.25305 0.0
C1419 C 0.91229 0.26959 0.24553 0.0
C1420 C 0.92895 0.32128 0.25317 0.0
C1421 C 0.95106 0.34229 0.26037 0.0
C1422 C 0.93994 0.36274 0.27036 0.0
C1423 C 0.9609 0.38165 0.27751 0.0
C1424 C 0.99303 0.38041 0.27472 0.0
C1425 C 0.00426 0.36045 0.2647 0.0
C1426 C 0.98339 0.34155 0.2575 0.0
C1427 C 0.79931 0.33861 0.23012 0.0
C1428 C 0.80415 0.36152 0.22018 0.0
C1429 C 0.82484 0.32351 0.2361 0.0
C1430 C 0.85562 0.33122 0.23233 0.0
C1431 C 0.86057 0.35405 0.22244 0.0
C1432 C 0.83509 0.3689 0.21634 0.0
C1433 C 0.8827 0.3159 0.23891 0.0
C1434 C 0.90371 0.33464 0.2462 0.0
C1435 C 0.88733 0.28305 0.23835 0.0
C1436 C 0.86693 0.2625 0.23009 0.0
C1437 C 0.86296 0.26848 0.21633 0.0
C1438 C 0.8434 0.24936 0.2086 0.0
C1439 C 0.82785 0.22399 0.21449 0.0
C1440 C 0.83192 0.21766 0.22812 0.0
C1441 C 0.85143 0.23676 0.23591 0.0
H1442 H 0.8127 0.20921 0.20849 0.0
H1443 H 0.00923 0.39496 0.28031 0.0
H1444 H 0.21512 0.98366 0.74169 0.0
H1445 H 0.23184 0.03211 0.75285 0.0
H1446 H 0.31815 0.03091 0.73019 0.0
H1447 H 0.3012 0.9835 0.7187 0.0
H1448 H 0.27824 0.0481 0.76845 0.0
H1449 H 0.3415 0.10247 0.72204 0.0
H1450 H 0.33618 0.1017 0.69743 0.0
H1451 H 0.23817 0.07977 0.70117 0.0
H1452 H 0.24274 0.081 0.72579 0.0
H1453 H 0.38673 0.16272 0.78894 0.0
H1454 H 0.3592 0.11809 0.77911 0.0
H1455 H 0.30094 0.18139 0.75624 0.0
H1456 H 0.32935 0.22606 0.76557 0.0
H1457 H 0.31745 0.1369 0.74096 0.0
H1458 H 0.2744 0.14109 0.7845 0.0
H1459 H 0.27486 0.14436 0.80912 0.0
H1460 H 0.32001 0.05438 0.8114 0.0
H1461 H 0.32083 0.05105 0.78674 0.0
C1462 C 0.23766 0.99377 0.73911 0.0
C1463 C 0.25668 0.97997 0.72921 0.0
C1464 C 0.2472 0.02139 0.7455 0.0
C1465 C 0.27596 0.03547 0.74216 0.0
C1466 C 0.29547 0.02097 0.73267 0.0
C1467 C 0.28578 0.99376 0.72614 0.0
C1468 C 0.28574 0.06548 0.74844 0.0
C1469 C 0.28668 0.0676 0.76246 0.0
C1470 C 0.29574 0.09133 0.74061 0.0
C1471 C 0.29255 0.09161 0.72578 0.0
C1472 C 0.31876 0.09774 0.71762 0.0
C1473 C 0.31588 0.09718 0.70366 0.0
C1474 C 0.28688 0.09062 0.69774 0.0
C1475 C 0.26064 0.08479 0.70577 0.0
C1476 C 0.26336 0.08542 0.71972 0.0
C1477 C 0.36793 0.16715 0.78187 0.0
C1478 C 0.36017 0.19794 0.77805 0.0
C1479 C 0.35209 0.1416 0.7763 0.0
C1480 C 0.32762 0.14634 0.76707 0.0
C1481 C 0.31972 0.17711 0.76333 0.0
C1482 C 0.33594 0.20264 0.7687 0.0
C1483 C 0.31104 0.11917 0.76101 0.0
C1484 C 0.30874 0.11759 0.74699 0.0
C1485 C 0.29876 0.09434 0.76887 0.0
C1486 C 0.29785 0.09592 0.78374 0.0
C1487 C 0.28463 0.12208 0.79024 0.0
C1488 C 0.28466 0.12394 0.80422 0.0
C1489 C 0.29737 0.09954 0.81184 0.0
C1490 C 0.31015 0.07326 0.80548 0.0
C1491 C 0.31042 0.07139 0.7915 0.0
H1492 H 0.29732 0.10097 0.82266 0.0
H1493 H 0.28473 0.09009 0.68694 0.0
H1494 H 0.97558 0.76327 0.25707 0.0
H1495 H 0.02245 0.7446 0.24543 0.0
H1496 H 0.0586 0.70729 0.2825 0.0
H1497 H 0.01159 0.72544 0.29426 0.0
H1498 H 0.10399 0.74088 0.26573 0.0
H1499 H 0.0258 0.65851 0.26357 0.0
H1500 H 0.97307 0.63772 0.25855 0.0
H1501 H 0.98396 0.66354 0.21722 0.0
H1502 H 0.03659 0.68498 0.22205 0.0
H1503 H 0.21857 0.63356 0.2434 0.0
H1504 H 0.17463 0.66021 0.25408 0.0
H1505 H 0.13168 0.67514 0.21543 0.0
H1506 H 0.17514 0.64743 0.20466 0.0
H1507 H 0.08938 0.65598 0.23225 0.0
H1508 H 0.16797 0.73554 0.23339 0.0
H1509 H 0.22019 0.75823 0.23785 0.0
H1510 H 0.20861 0.74086 0.27994 0.0
H1511 H 0.1565 0.7176 0.27572 0.0
C1512 C 0.99359 0.75139 0.26281 0.0
C1513 C 0.98973 0.74571 0.27661 0.0
C1514 C 0.02033 0.74073 0.25612 0.0
C1515 C 0.0438 0.72449 0.26312 0.0
C1516 C 0.04069 0.71985 0.27696 0.0
C1517 C 0.01375 0.73012 0.28364 0.0
C1518 C 0.07072 0.71076 0.25585 0.0
C1519 C 0.10097 0.72212 0.25849 0.0
C1520 C 0.06643 0.68696 0.24616 0.0
C1521 C 0.03499 0.67366 0.2432 0.0
C1522 C 0.01685 0.65999 0.25343 0.0
C1523 C 0.98699 0.64805 0.25062 0.0
C1524 C 0.97513 0.64939 0.23758 0.0
C1525 C 0.99315 0.66257 0.22732 0.0
C1526 C 0.02301 0.67461 0.23009 0.0
C1527 C 0.19991 0.64266 0.23713 0.0
C1528 C 0.20043 0.63838 0.22315 0.0
C1529 C 0.17483 0.65807 0.24326 0.0
C1530 C 0.15004 0.67013 0.23555 0.0
C1531 C 0.15057 0.66608 0.22159 0.0
C1532 C 0.17548 0.6503 0.21544 0.0
C1533 C 0.12304 0.68591 0.24213 0.0
C1534 C 0.09263 0.67491 0.23938 0.0
C1535 C 0.1272 0.71032 0.25161 0.0
C1536 C 0.15841 0.72458 0.25422 0.0
C1537 C 0.17664 0.73636 0.24359 0.0
C1538 C 0.20621 0.74935 0.24607 0.0
C1539 C 0.21774 0.75092 0.25916 0.0
C1540 C 0.19966 0.73959 0.2698 0.0
C1541 C 0.17009 0.72654 0.26737 0.0
H1542 H 0.24065 0.76097 0.26107 0.0
H1543 H 0.95201 0.64013 0.23542 0.0
H1544 H 0.73046 0.51369 0.54128 0.0
H1545 H 0.71186 0.55938 0.52898 0.0
H1546 H 0.741 0.51674 0.49178 0.0
H1547 H 0.76088 0.47121 0.50413 0.0
H1548 H 0.75175 0.57814 0.49105 0.0
H1549 H 0.66452 0.51323 0.50217 0.0
H1550 H 0.63082 0.48159 0.51704 0.0
H1551 H 0.6091 0.56361 0.54025 0.0
H1552 H 0.64314 0.59567 0.52566 0.0
H1553 H 0.64383 0.67451 0.45251 0.0
H1554 H 0.67038 0.62934 0.46269 0.0
H1555 H 0.66478 0.67373 0.50144 0.0
H1556 H 0.63892 0.71912 0.4914 0.0
H1557 H 0.64133 0.60939 0.49977 0.0
H1558 H 0.73137 0.67324 0.48815 0.0
H1559 H 0.76466 0.70326 0.47252 0.0
H1560 H 0.77887 0.62051 0.44871 0.0
H1561 H 0.74522 0.59009 0.4641 0.0
C1562 C 0.73323 0.51408 0.5305 0.0
C1563 C 0.74683 0.48864 0.52367 0.0
C1564 C 0.72247 0.54021 0.52347 0.0
C1565 C 0.72431 0.54114 0.50943 0.0
C1566 C 0.73916 0.51643 0.50261 0.0
C1567 C 0.75045 0.49041 0.50968 0.0
C1568 C 0.7094 0.56727 0.50194 0.0
C1569 C 0.72748 0.58468 0.49281 0.0
C1570 C 0.67771 0.57587 0.50425 0.0
C1571 C 0.6566 0.55682 0.51287 0.0
C1572 C 0.65269 0.5245 0.51048 0.0
C1573 C 0.63353 0.50648 0.51887 0.0
C1574 C 0.61788 0.52057 0.5296 0.0
C1575 C 0.62127 0.55273 0.53194 0.0
C1576 C 0.64048 0.57084 0.52361 0.0
C1577 C 0.64847 0.67477 0.46318 0.0
C1578 C 0.63917 0.7004 0.47114 0.0
C1579 C 0.66366 0.649 0.46896 0.0
C1580 C 0.66942 0.64831 0.48279 0.0
C1581 C 0.66045 0.6739 0.49074 0.0
C1582 C 0.64576 0.69984 0.48496 0.0
C1583 C 0.68387 0.6205 0.48914 0.0
C1584 C 0.66556 0.60268 0.49798 0.0
C1585 C 0.71509 0.61127 0.48639 0.0
C1586 C 0.73547 0.62948 0.47719 0.0
C1587 C 0.74134 0.66151 0.47951 0.0
C1588 C 0.76032 0.67859 0.47071 0.0
C1589 C 0.77379 0.66383 0.4596 0.0
C1590 C 0.76837 0.63193 0.4573 0.0
C1591 C 0.74936 0.61476 0.46607 0.0
H1592 H 0.78849 0.67708 0.4528 0.0
H1593 H 0.60307 0.50658 0.53608 0.0
H1594 H 0.66655 0.36339 0.54495 0.0
H1595 H 0.62272 0.33608 0.53417 0.0
H1596 H 0.67542 0.33074 0.49735 0.0
H1597 H 0.71944 0.35762 0.508 0.0
H1598 H 0.61322 0.35455 0.49465 0.0
H1599 H 0.66863 0.26744 0.51458 0.0
H1600 H 0.69316 0.23875 0.53331 0.0
H1601 H 0.60471 0.236 0.55394 0.0
H1602 H 0.57974 0.26514 0.53541 0.0
H1603 H 0.51467 0.25929 0.45655 0.0
H1604 H 0.56111 0.27795 0.46842 0.0
H1605 H 0.51361 0.26467 0.50621 0.0
H1606 H 0.46754 0.24449 0.49437 0.0
H1607 H 0.57289 0.25059 0.50906 0.0
H1608 H 0.5168 0.33721 0.4901 0.0
H1609 H 0.49088 0.36738 0.47214 0.0
H1610 H 0.57829 0.37396 0.45088 0.0
H1611 H 0.60462 0.34331 0.4686 0.0
C1612 C 0.66889 0.35629 0.53458 0.0
C1613 C 0.6965 0.36274 0.52733 0.0
C1614 C 0.64388 0.34062 0.52846 0.0
C1615 C 0.64598 0.33139 0.515 0.0
C1616 C 0.67344 0.33772 0.50776 0.0
C1617 C 0.69858 0.35301 0.51389 0.0
C1618 C 0.61919 0.31592 0.50831 0.0
C1619 C 0.6046 0.33164 0.49766 0.0
C1620 C 0.60748 0.28655 0.51259 0.0
C1621 C 0.62239 0.26876 0.52367 0.0
C1622 C 0.65446 0.26096 0.52316 0.0
C1623 C 0.66844 0.24457 0.53373 0.0
C1624 C 0.65052 0.23563 0.54482 0.0
C1625 C 0.61857 0.24298 0.54535 0.0
C1626 C 0.60449 0.25941 0.53481 0.0
C1627 C 0.51425 0.26001 0.46739 0.0
C1628 C 0.48735 0.25083 0.47453 0.0
C1629 C 0.54075 0.27079 0.47417 0.0
C1630 C 0.54052 0.27357 0.48819 0.0
C1631 C 0.51425 0.26294 0.49538 0.0
C1632 C 0.48793 0.25147 0.48861 0.0
C1633 C 0.56699 0.28905 0.49524 0.0
C1634 C 0.58145 0.27348 0.50601 0.0
C1635 C 0.57833 0.31887 0.49121 0.0
C1636 C 0.56263 0.33773 0.48063 0.0
C1637 C 0.53046 0.34493 0.48156 0.0
C1638 C 0.51569 0.36211 0.47142 0.0
C1639 C 0.53293 0.37255 0.46037 0.0
C1640 C 0.56497 0.36584 0.45945 0.0
C1641 C 0.57983 0.34857 0.46953 0.0
H1642 H 0.52149 0.3859 0.45254 0.0
H1643 H 0.66138 0.22295 0.553 0.0
H1644 H 0.2751 0.49334 0.54187 0.0
H1645 H 0.29517 0.44811 0.52971 0.0
H1646 H 0.25616 0.48458 0.49297 0.0
H1647 H 0.23477 0.52953 0.50523 0.0
H1648 H 0.24972 0.42314 0.49344 0.0
H1649 H 0.33444 0.49364 0.50019 0.0
H1650 H 0.36853 0.52929 0.51306 0.0
H1651 H 0.39901 0.45234 0.53764 0.0
H1652 H 0.36475 0.41623 0.52498 0.0
H1653 H 0.35769 0.33121 0.45302 0.0
H1654 H 0.33203 0.37637 0.46363 0.0
H1655 H 0.34028 0.33163 0.50221 0.0
H1656 H 0.36516 0.28609 0.49172 0.0
H1657 H 0.36298 0.39901 0.49923 0.0
H1658 H 0.27435 0.32933 0.49117 0.0
H1659 H 0.24095 0.2965 0.47666 0.0
H1660 H 0.22007 0.37651 0.45205 0.0
H1661 H 0.25381 0.40973 0.4663 0.0
C1662 C 0.27051 0.49169 0.53123 0.0
C1663 C 0.25356 0.51521 0.52451 0.0
C1664 C 0.28214 0.46584 0.52427 0.0
C1665 C 0.27783 0.46332 0.51037 0.0
C1666 C 0.25992 0.48613 0.50368 0.0
C1667 C 0.24777 0.51183 0.5107 0.0
C1668 C 0.29303 0.4374 0.50284 0.0
C1669 C 0.27456 0.41815 0.49458 0.0
C1670 C 0.32549 0.43089 0.50427 0.0
C1671 C 0.34683 0.45227 0.5117 0.0
C1672 C 0.34832 0.48433 0.50838 0.0
C1673 C 0.36766 0.50463 0.51564 0.0
C1674 C 0.38585 0.49313 0.52621 0.0
C1675 C 0.38487 0.46123 0.52946 0.0
C1676 C 0.36553 0.44081 0.52223 0.0
C1677 C 0.35395 0.33095 0.46376 0.0
C1678 C 0.36346 0.30509 0.47154 0.0
C1679 C 0.33928 0.3567 0.46978 0.0
C1680 C 0.33439 0.35719 0.48366 0.0
C1681 C 0.34396 0.33157 0.49147 0.0
C1682 C 0.35803 0.30556 0.48544 0.0
C1683 C 0.31951 0.38457 0.49013 0.0
C1684 C 0.33816 0.40416 0.49811 0.0
C1685 C 0.28746 0.3918 0.48817 0.0
C1686 C 0.26689 0.37192 0.47971 0.0
C1687 C 0.26288 0.33986 0.48259 0.0
C1688 C 0.24384 0.32119 0.47443 0.0
C1689 C 0.22847 0.33439 0.46341 0.0
C1690 C 0.23204 0.36631 0.46057 0.0
C1691 C 0.2511 0.38507 0.46869 0.0
H1692 H 0.21374 0.3199 0.4571 0.0
H1693 H 0.40075 0.50891 0.53185 0.0
H1694 H 0.4902 0.72311 0.45751 0.0
H1695 H 0.44309 0.70496 0.46913 0.0
H1696 H 0.47796 0.74353 0.5062 0.0
H1697 H 0.52506 0.76222 0.49466 0.0
H1698 H 0.45526 0.67995 0.50777 0.0
H1699 H 0.42341 0.78177 0.49167 0.0
H1700 H 0.41623 0.82243 0.47435 0.0
H1701 H 0.35516 0.761 0.45236 0.0
H1702 H 0.36239 0.71975 0.46944 0.0
H1703 H 0.31914 0.65584 0.54587 0.0
H1704 H 0.36322 0.68233 0.53506 0.0
H1705 H 0.32268 0.66324 0.49626 0.0
H1706 H 0.27777 0.63804 0.50706 0.0
H1707 H 0.34884 0.71842 0.49586 0.0
H1708 H 0.38065 0.61618 0.51066 0.0
H1709 H 0.38745 0.57376 0.52723 0.0
H1710 H 0.44909 0.63232 0.55031 0.0
H1711 H 0.44208 0.6754 0.53405 0.0
C1712 C 0.48786 0.7279 0.46812 0.0
C1713 C 0.51137 0.74427 0.47514 0.0
C1714 C 0.4609 0.71753 0.47473 0.0
C1715 C 0.45709 0.72307 0.48848 0.0
C1716 C 0.48055 0.7391 0.49556 0.0
C1717 C 0.50735 0.74986 0.48893 0.0
C1718 C 0.42867 0.71184 0.49548 0.0
C1719 C 0.432 0.68863 0.50533 0.0
C1720 C 0.39838 0.72263 0.49197 0.0
C1721 C 0.39368 0.74756 0.48177 0.0
C1722 C 0.40864 0.77683 0.48309 0.0
C1723 C 0.40454 0.80001 0.47332 0.0
C1724 C 0.38531 0.79428 0.46225 0.0
C1725 C 0.37007 0.76539 0.46093 0.0
C1726 C 0.37415 0.74212 0.47066 0.0
C1727 C 0.31947 0.65759 0.53504 0.0
C1728 C 0.29523 0.64452 0.52729 0.0
C1729 C 0.34472 0.67262 0.52887 0.0
C1730 C 0.34667 0.67404 0.51484 0.0
C1731 C 0.32177 0.66227 0.50711 0.0
C1732 C 0.29615 0.6478 0.51328 0.0
C1733 C 0.37529 0.68641 0.50821 0.0
C1734 C 0.37206 0.70976 0.49838 0.0
C1735 C 0.40568 0.67535 0.51159 0.0
C1736 C 0.4106 0.64915 0.52119 0.0
C1737 C 0.39553 0.62008 0.5193 0.0
C1738 C 0.39941 0.59592 0.52864 0.0
C1739 C 0.41866 0.60035 0.53981 0.0
C1740 C 0.43415 0.62893 0.54165 0.0
C1741 C 0.43022 0.65325 0.53239 0.0
H1742 H 0.42161 0.58161 0.54703 0.0
H1743 H 0.38216 0.81224 0.45469 0.0
H1744 H 0.29283 0.25217 0.43165 0.0
H1745 H 0.25577 0.25159 0.41299 0.0
H1746 H 0.33292 0.25205 0.38495 0.0
H1747 H 0.37017 0.25359 0.40357 0.0
H1748 H 0.28826 0.2907 0.37682 0.0
H1749 H 0.29221 0.18439 0.39252 0.0
H1750 H 0.2895 0.14268 0.40962 0.0
H1751 H 0.19332 0.16631 0.41766 0.0
H1752 H 0.19562 0.20855 0.40077 0.0
H1753 H 0.20316 0.24065 0.31953 0.0
H1754 H 0.23976 0.24198 0.33838 0.0
H1755 H 0.16218 0.25157 0.36586 0.0
H1756 H 0.12532 0.25028 0.34706 0.0
H1757 H 0.20667 0.20774 0.37423 0.0
H1758 H 0.20345 0.31429 0.35836 0.0
H1759 H 0.20698 0.35615 0.34137 0.0
H1760 H 0.30281 0.331 0.33338 0.0
H1761 H 0.2997 0.28865 0.3502 0.0
C1762 C 0.30193 0.25222 0.42151 0.0
C1763 C 0.33442 0.25279 0.41907 0.0
C1764 C 0.28071 0.25176 0.41086 0.0
C1765 C 0.29159 0.25126 0.39758 0.0
C1766 C 0.32401 0.25236 0.39512 0.0
C1767 C 0.34526 0.25316 0.40577 0.0
C1768 C 0.26916 0.24939 0.38624 0.0
C1769 C 0.27071 0.27231 0.37616 0.0
C1770 C 0.24586 0.22572 0.38553 0.0
C1771 C 0.24418 0.19983 0.39546 0.0
C1772 C 0.27053 0.18081 0.39799 0.0
C1773 C 0.26907 0.15707 0.40764 0.0
C1774 C 0.24128 0.1519 0.41474 0.0
C1775 C 0.21485 0.17037 0.41216 0.0
C1776 C 0.2162 0.19421 0.40254 0.0
C1777 C 0.19385 0.24302 0.32957 0.0
C1778 C 0.16135 0.24557 0.3318 0.0
C1779 C 0.2148 0.24383 0.34033 0.0
C1780 C 0.20364 0.24715 0.35348 0.0
C1781 C 0.17121 0.24905 0.35577 0.0
C1782 C 0.15023 0.24843 0.34501 0.0
C1783 C 0.22588 0.24899 0.36484 0.0
C1784 C 0.22428 0.22607 0.37491 0.0
C1785 C 0.24926 0.27252 0.36551 0.0
C1786 C 0.25124 0.2981 0.35545 0.0
C1787 C 0.2252 0.31751 0.3529 0.0
C1788 C 0.22714 0.34136 0.34332 0.0
C1789 C 0.25508 0.34618 0.33627 0.0
C1790 C 0.28117 0.32721 0.33883 0.0
C1791 C 0.27934 0.3033 0.3484 0.0
H1792 H 0.25653 0.36465 0.32885 0.0
H1793 H 0.24021 0.13355 0.42223 0.0
H1794 H 0.20399 0.69429 0.5735 0.0
H1795 H 0.2036 0.73037 0.59254 0.0
H1796 H 0.28222 0.68089 0.60992 0.0
H1797 H 0.28131 0.64363 0.59129 0.0
H1798 H 0.24595 0.69436 0.62866 0.0
H1799 H 0.28869 0.75493 0.59297 0.0
H1800 H 0.29139 0.77832 0.5704 0.0
H1801 H 0.20643 0.82961 0.57799 0.0
H1802 H 0.20299 0.80618 0.60056 0.0
H1803 H 0.2762 0.86153 0.65905 0.0
H1804 H 0.27758 0.82555 0.63998 0.0
H1805 H 0.20376 0.77035 0.65803 0.0
H1806 H 0.20373 0.80524 0.67747 0.0
H1807 H 0.24105 0.80949 0.62154 0.0
H1808 H 0.2089 0.69477 0.65007 0.0
H1809 H 0.2155 0.67188 0.67261 0.0
H1810 H 0.29665 0.72964 0.67922 0.0
H1811 H 0.29079 0.75255 0.65666 0.0
C1812 C 0.22116 0.69118 0.58141 0.0
C1813 C 0.24277 0.66633 0.58094 0.0
C1814 C 0.22107 0.71191 0.59225 0.0
C1815 C 0.2433 0.70882 0.60258 0.0
C1816 C 0.26481 0.68382 0.6021 0.0
C1817 C 0.26436 0.66259 0.59145 0.0
C1818 C 0.24396 0.73138 0.61395 0.0
C1819 C 0.24496 0.71954 0.62707 0.0
C1820 C 0.24341 0.76431 0.61195 0.0
C1821 C 0.24544 0.77857 0.59841 0.0
C1822 C 0.27047 0.77104 0.5898 0.0
C1823 C 0.27215 0.78432 0.57701 0.0
C1824 C 0.24905 0.80538 0.57275 0.0
C1825 C 0.22428 0.81326 0.5813 0.0
C1826 C 0.22247 0.80001 0.59409 0.0
C1827 C 0.2603 0.84168 0.65892 0.0
C1828 C 0.24009 0.83591 0.66976 0.0
C1829 C 0.26103 0.82117 0.64801 0.0
C1830 C 0.24118 0.79483 0.64764 0.0
C1831 C 0.21999 0.7899 0.65824 0.0
C1832 C 0.21984 0.80994 0.66931 0.0
C1833 C 0.24287 0.77245 0.63623 0.0
C1834 C 0.24217 0.78432 0.62311 0.0
C1835 C 0.24519 0.7396 0.63821 0.0
C1836 C 0.24919 0.72558 0.65173 0.0
C1837 C 0.22822 0.70247 0.65632 0.0
C1838 C 0.23183 0.68952 0.6691 0.0
C1839 C 0.25642 0.69937 0.67736 0.0
C1840 C 0.27755 0.72211 0.67283 0.0
C1841 C 0.27408 0.7351 0.66005 0.0
H1842 H 0.25914 0.68935 0.68726 0.0
H1843 H 0.25039 0.81564 0.56285 0.0
H1844 H 0.62671 0.76143 0.40405 0.0
H1845 H 0.66282 0.76211 0.38505 0.0
H1846 H 0.74165 0.76098 0.41223 0.0
H1847 H 0.70562 0.76133 0.4313 0.0
H1848 H 0.75289 0.79989 0.39233 0.0
H1849 H 0.71598 0.69379 0.39584 0.0
H1850 H 0.67609 0.65198 0.39729 0.0
H1851 H 0.63991 0.67843 0.35874 0.0
H1852 H 0.67932 0.72071 0.35715 0.0
H1853 H 0.86908 0.74795 0.34644 0.0
H1854 H 0.83187 0.75098 0.36502 0.0
H1855 H 0.75548 0.7617 0.33701 0.0
H1856 H 0.79252 0.75858 0.31831 0.0
H1857 H 0.74262 0.71864 0.35697 0.0
H1858 H 0.78166 0.82416 0.35351 0.0
H1859 H 0.82276 0.86481 0.35232 0.0
H1860 H 0.85652 0.83772 0.39118 0.0
H1861 H 0.81589 0.79656 0.39252 0.0
C1862 C 0.65174 0.76141 0.40599 0.0
C1863 C 0.66333 0.76106 0.41917 0.0
C1864 C 0.67236 0.76168 0.39512 0.0
C1865 C 0.70495 0.76099 0.39721 0.0
C1866 C 0.71659 0.76142 0.41037 0.0
C1867 C 0.69597 0.76153 0.42126 0.0
C1868 C 0.7269 0.75938 0.38568 0.0
C1869 C 0.75086 0.78189 0.38469 0.0
C1870 C 0.72392 0.73624 0.37556 0.0
C1871 C 0.70041 0.71061 0.37643 0.0
C1872 C 0.69939 0.69082 0.38771 0.0
C1873 C 0.67688 0.66702 0.38855 0.0
C1874 C 0.65542 0.6626 0.37813 0.0
C1875 C 0.65651 0.68191 0.36682 0.0
C1876 C 0.67895 0.70578 0.36593 0.0
C1877 C 0.84436 0.75093 0.34421 0.0
C1878 C 0.83375 0.75306 0.33089 0.0
C1879 C 0.82316 0.75278 0.35485 0.0
C1880 C 0.79099 0.75685 0.35238 0.0
C1881 C 0.78024 0.7586 0.33911 0.0
C1882 C 0.80145 0.75688 0.32845 0.0
C1883 C 0.76855 0.75907 0.36367 0.0
C1884 C 0.74454 0.73666 0.36461 0.0
C1885 C 0.77166 0.78212 0.37379 0.0
C1886 C 0.7959 0.80709 0.37306 0.0
C1887 C 0.79799 0.82671 0.36176 0.0
C1888 C 0.82118 0.84987 0.36106 0.0
C1889 C 0.84229 0.8538 0.37165 0.0
C1890 C 0.84018 0.83463 0.38298 0.0
C1891 C 0.81705 0.8114 0.38372 0.0
H1892 H 0.86023 0.87174 0.37109 0.0
H1893 H 0.638 0.64418 0.37881 0.0
H1894 H 0.76694 0.20888 0.68065 0.0
H1895 H 0.76688 0.2455 0.66177 0.0
H1896 H 0.7546 0.16829 0.63432 0.0
H1897 H 0.7545 0.13145 0.65313 0.0
H1898 H 0.79941 0.21278 0.62575 0.0
H1899 H 0.69307 0.20928 0.64223 0.0
H1900 H 0.65199 0.21283 0.65958 0.0
H1901 H 0.67761 0.30859 0.66736 0.0
H1902 H 0.71919 0.30545 0.65019 0.0
H1903 H 0.7508 0.29566 0.56814 0.0
H1904 H 0.75341 0.25966 0.58714 0.0
H1905 H 0.7524 0.33823 0.61443 0.0
H1906 H 0.74878 0.3744 0.59547 0.0
H1907 H 0.71547 0.29343 0.62341 0.0
H1908 H 0.82073 0.29826 0.60669 0.0
H1909 H 0.86172 0.29554 0.58928 0.0
H1910 H 0.83955 0.19863 0.58222 0.0
H1911 H 0.79801 0.20092 0.59943 0.0
C1912 C 0.7644 0.19965 0.6706 0.0
C1913 C 0.76048 0.16729 0.66839 0.0
C1914 C 0.76433 0.22061 0.65984 0.0
C1915 C 0.76048 0.20956 0.64669 0.0
C1916 C 0.75758 0.17722 0.64441 0.0
C1917 C 0.75738 0.15626 0.65517 0.0
C1918 C 0.75837 0.23185 0.63536 0.0
C1919 C 0.78091 0.23023 0.62514 0.0
C1920 C 0.73461 0.255 0.63477 0.0
C1921 C 0.70946 0.25702 0.64503 0.0
C1922 C 0.69012 0.23101 0.64772 0.0
C1923 C 0.66672 0.23296 0.65751 0.0
C1924 C 0.66225 0.26089 0.6646 0.0
C1925 C 0.68113 0.28696 0.66188 0.0
C1926 C 0.70461 0.28511 0.65211 0.0
C1927 C 0.75107 0.30529 0.57819 0.0
C1928 C 0.74969 0.33787 0.58031 0.0
C1929 C 0.75272 0.28468 0.58903 0.0
C1930 C 0.75365 0.29627 0.6022 0.0
C1931 C 0.75179 0.32878 0.60435 0.0
C1932 C 0.74978 0.34941 0.59351 0.0
C1933 C 0.75655 0.27448 0.61373 0.0
C1934 C 0.73412 0.27613 0.62401 0.0
C1935 C 0.78057 0.25151 0.6144 0.0
C1936 C 0.80606 0.24984 0.60428 0.0
C1937 C 0.82447 0.27641 0.60138 0.0
C1938 C 0.84781 0.27495 0.59154 0.0
C1939 C 0.85319 0.24695 0.58463 0.0
C1940 C 0.83533 0.22031 0.58757 0.0
C1941 C 0.8119 0.22167 0.59737 0.0
H1942 H 0.87123 0.24588 0.577 0.0
H1943 H 0.64412 0.26236 0.67217 0.0
H1944 H 0.19935 0.25133 0.92746 0.0
H1945 H 0.23572 0.25327 0.9086 0.0
H1946 H 0.15775 0.25034 0.88101 0.0
H1947 H 0.12115 0.24741 0.89987 0.0
H1948 H 0.20291 0.21251 0.87287 0.0
H1949 H 0.19791 0.31916 0.88785 0.0
H1950 H 0.20029 0.36167 0.90459 0.0
H1951 H 0.29688 0.33966 0.91259 0.0
H1952 H 0.29493 0.29666 0.89606 0.0
H1953 H 0.29138 0.25891 0.81558 0.0
H1954 H 0.25337 0.25815 0.83395 0.0
H1955 H 0.32903 0.25194 0.86256 0.0
H1956 H 0.36725 0.25263 0.84427 0.0
H1957 H 0.28413 0.29569 0.86975 0.0
H1958 H 0.28829 0.18815 0.85533 0.0
H1959 H 0.28491 0.14363 0.83964 0.0
H1960 H 0.18915 0.16733 0.83076 0.0
H1961 H 0.1921 0.21233 0.84627 0.0
C1962 C 0.1899 0.25108 0.91738 0.0
C1963 C 0.15737 0.24929 0.91515 0.0
C1964 C 0.21074 0.25237 0.90661 0.0
C1965 C 0.19944 0.25249 0.89339 0.0
C1966 C 0.16697 0.25037 0.89113 0.0
C1967 C 0.1461 0.24875 0.90191 0.0
C1968 C 0.22157 0.25441 0.88194 0.0
C1969 C 0.2203 0.23102 0.87206 0.0
C1970 C 0.24474 0.27818 0.88106 0.0
C1971 C 0.24619 0.30451 0.89079 0.0
C1972 C 0.21961 0.32328 0.89323 0.0
C1973 C 0.22088 0.34746 0.90268 0.0
C1974 C 0.2487 0.35332 0.90967 0.0
C1975 C 0.27534 0.33508 0.90718 0.0
C1976 C 0.27417 0.31081 0.89776 0.0
C1977 C 0.29996 0.25741 0.82578 0.0
C1978 C 0.33233 0.25571 0.82847 0.0
C1979 C 0.2782 0.25688 0.83625 0.0
C1980 C 0.28841 0.25475 0.84959 0.0
C1981 C 0.3207 0.25356 0.85232 0.0
C1982 C 0.34248 0.25385 0.84186 0.0
C1983 C 0.26541 0.25376 0.86072 0.0
C1984 C 0.26655 0.27734 0.87052 0.0
C1985 C 0.24203 0.23026 0.86151 0.0
C1986 C 0.24052 0.20381 0.85186 0.0
C1987 C 0.26663 0.18412 0.84991 0.0
C1988 C 0.26476 0.15872 0.84107 0.0
C1989 C 0.23682 0.15264 0.8342 0.0
C1990 C 0.21077 0.17207 0.83609 0.0
C1991 C 0.21252 0.19751 0.8449 0.0
H1992 H 0.23531 0.13281 0.82746 0.0
H1993 H 0.24962 0.37202 0.917 0.0
H1994 H 0.2865 0.70358 0.18297 0.0
H1995 H 0.2879 0.7425 0.1649 0.0
H1996 H 0.24229 0.67688 0.13838 0.0
H1997 H 0.24081 0.63784 0.15631 0.0
H1998 H 0.31453 0.74061 0.13906 0.0
H1999 H 0.18817 0.71923 0.12029 0.0
H2000 H 0.13728 0.7007 0.12908 0.0
H2001 H 0.16248 0.73236 0.16848 0.0
H2002 H 0.21329 0.7515 0.1599 0.0
H2003 H 0.28652 0.80592 0.07427 0.0
H2004 H 0.28902 0.77078 0.09365 0.0
H2005 H 0.23687 0.83784 0.11717 0.0
H2006 H 0.23434 0.8732 0.09788 0.0
H2007 H 0.21387 0.77688 0.11932 0.0
H2008 H 0.31202 0.83155 0.12264 0.0
H2009 H 0.36274 0.85145 0.11428 0.0
H2010 H 0.39388 0.75708 0.10708 0.0
H2011 H 0.34313 0.73663 0.1152 0.0
C2012 C 0.27685 0.6974 0.17327 0.0
C2013 C 0.26335 0.66772 0.17109 0.0
C2014 C 0.27783 0.7196 0.16296 0.0
C2015 C 0.26498 0.7126 0.15038 0.0
C2016 C 0.25208 0.68278 0.14808 0.0
C2017 C 0.25132 0.66051 0.15833 0.0
C2018 C 0.26413 0.73674 0.13972 0.0
C2019 C 0.29256 0.74857 0.13473 0.0
C2020 C 0.23541 0.74737 0.13424 0.0
C2021 C 0.20465 0.73651 0.13947 0.0
C2022 C 0.18278 0.72237 0.13082 0.0
C2023 C 0.15396 0.71174 0.13577 0.0
C2024 C 0.14669 0.71526 0.14934 0.0
C2025 C 0.16818 0.72954 0.15798 0.0
C2026 C 0.19701 0.74025 0.15308 0.0
C2027 C 0.27561 0.81321 0.08357 0.0
C2028 C 0.26019 0.8423 0.08455 0.0
C2029 C 0.27718 0.79317 0.09463 0.0
C2030 C 0.26323 0.80182 0.10683 0.0
C2031 C 0.24776 0.83079 0.10783 0.0
C2032 C 0.24645 0.85098 0.09682 0.0
C2033 C 0.26429 0.78036 0.11848 0.0
C2034 C 0.23586 0.76897 0.12364 0.0
C2035 C 0.293 0.77037 0.12418 0.0
C2036 C 0.32366 0.78258 0.11942 0.0
C2037 C 0.32959 0.81505 0.11917 0.0
C2038 C 0.35836 0.82643 0.1145 0.0
C2039 C 0.38149 0.80555 0.11012 0.0
C2040 C 0.37593 0.77323 0.11046 0.0
C2041 C 0.34717 0.76173 0.11511 0.0
H2042 H 0.40375 0.81441 0.1065 0.0
H2043 H 0.12439 0.70698 0.15315 0.0
H2044 H 0.80877 0.70431 0.92819 0.0
H2045 H 0.77271 0.70075 0.90914 0.0
H2046 H 0.82236 0.7763 0.88953 0.0
H2047 H 0.85952 0.77841 0.90812 0.0
H2048 H 0.73224 0.73543 0.89869 0.0
H2049 H 0.81986 0.77197 0.85652 0.0
H2050 H 0.87629 0.76676 0.85138 0.0
H2051 H 0.88181 0.68501 0.87645 0.0
H2052 H 0.82535 0.68945 0.88158 0.0
H2053 H 0.64458 0.77839 0.84205 0.0
H2054 H 0.68119 0.77629 0.86088 0.0
H2055 H 0.73154 0.70083 0.84152 0.0
H2056 H 0.69618 0.70444 0.82228 0.0
H2057 H 0.77159 0.73534 0.85191 0.0
H2058 H 0.6781 0.69 0.86902 0.0
H2059 H 0.62159 0.68605 0.87413 0.0
H2060 H 0.62773 0.76781 0.89915 0.0
H2061 H 0.68421 0.77253 0.89404 0.0
C2062 C 0.81197 0.72001 0.91976 0.0
C2063 C 0.83703 0.74141 0.91952 0.0
C2064 C 0.79134 0.71804 0.9089 0.0
C2065 C 0.79509 0.73784 0.89774 0.0
C2066 C 0.81951 0.76004 0.89778 0.0
C2067 C 0.84063 0.7614 0.90845 0.0
C2068 C 0.77338 0.73554 0.88611 0.0
C2069 C 0.74088 0.73527 0.88846 0.0
C2070 C 0.78451 0.73438 0.87273 0.0
C2071 C 0.81841 0.73123 0.86952 0.0
C2072 C 0.83308 0.75279 0.86088 0.0
C2073 C 0.86508 0.74998 0.85798 0.0
C2074 C 0.88264 0.72562 0.86362 0.0
C2075 C 0.86821 0.70393 0.87212 0.0
C2076 C 0.83621 0.70659 0.87503 0.0
C2077 C 0.66355 0.76144 0.84183 0.0
C2078 C 0.66762 0.74155 0.83076 0.0
C2079 C 0.68432 0.76005 0.85264 0.0
C2080 C 0.70881 0.73791 0.8528 0.0
C2081 C 0.71289 0.71813 0.84167 0.0
C2082 C 0.69267 0.72015 0.83069 0.0
C2083 C 0.73042 0.7357 0.86448 0.0
C2084 C 0.76293 0.73522 0.86213 0.0
C2085 C 0.71927 0.73463 0.87785 0.0
C2086 C 0.68535 0.73175 0.88106 0.0
C2087 C 0.66736 0.70725 0.87555 0.0
C2088 C 0.63534 0.70486 0.87845 0.0
C2089 C 0.62107 0.7267 0.88694 0.0
C2090 C 0.63881 0.75093 0.89257 0.0
C2091 C 0.67084 0.75345 0.88968 0.0
H2092 H 0.59627 0.72483 0.88917 0.0
H2093 H 0.90742 0.72353 0.86138 0.0
H2094 H 0.71455 0.19015 0.07432 0.0
H2095 H 0.7172 0.22748 0.09286 0.0
H2096 H 0.79293 0.1741 0.11048 0.0
H2097 H 0.78878 0.13559 0.09238 0.0
H2098 H 0.7589 0.19163 0.12922 0.0
H2099 H 0.80382 0.2464 0.09262 0.0
H2100 H 0.80753 0.26728 0.06963 0.0
H2101 H 0.72598 0.32436 0.07643 0.0
H2102 H 0.72148 0.30347 0.09941 0.0
H2103 H 0.78903 0.36217 0.15732 0.0
H2104 H 0.79294 0.32398 0.13907 0.0
H2105 H 0.71799 0.26987 0.15688 0.0
H2106 H 0.71552 0.30687 0.17552 0.0
H2107 H 0.75851 0.30621 0.12037 0.0
H2108 H 0.72258 0.19438 0.15051 0.0
H2109 H 0.72854 0.1731 0.17336 0.0
H2110 H 0.81065 0.22983 0.17933 0.0
H2111 H 0.80536 0.25127 0.15649 0.0
C2112 C 0.73171 0.18643 0.08217 0.0
C2113 C 0.75156 0.16015 0.08193 0.0
C2114 C 0.73339 0.20789 0.09272 0.0
C2115 C 0.75577 0.2041 0.10295 0.0
C2116 C 0.77548 0.17763 0.10273 0.0
C2117 C 0.77318 0.15568 0.09238 0.0
C2118 C 0.75829 0.22747 0.11397 0.0
C2119 C 0.75896 0.21667 0.12726 0.0
C2120 C 0.75937 0.26021 0.11148 0.0
C2121 C 0.76218 0.27317 0.09771 0.0
C2122 C 0.78657 0.26328 0.08919 0.0
C2123 C 0.78882 0.27512 0.07616 0.0
C2124 C 0.76697 0.29708 0.07156 0.0
C2125 C 0.74287 0.30733 0.08001 0.0
C2126 C 0.74048 0.29551 0.09304 0.0
C2127 C 0.77354 0.34199 0.15733 0.0
C2128 C 0.75222 0.33721 0.16786 0.0
C2129 C 0.77572 0.32022 0.14689 0.0
C2130 C 0.75619 0.29362 0.14668 0.0
C2131 C 0.73407 0.28956 0.157 0.0
C2132 C 0.7325 0.31083 0.16761 0.0
C2133 C 0.75858 0.27035 0.13562 0.0
C2134 C 0.75875 0.28116 0.12232 0.0
C2135 C 0.75988 0.23762 0.1381 0.0
C2136 C 0.76339 0.22462 0.15182 0.0
C2137 C 0.74197 0.20223 0.15668 0.0
C2138 C 0.74521 0.19018 0.16964 0.0
C2139 C 0.76989 0.20021 0.17782 0.0
C2140 C 0.79145 0.22223 0.17302 0.0
C2141 C 0.78832 0.23436 0.16008 0.0
H2142 H 0.77236 0.19086 0.18785 0.0
H2143 H 0.76874 0.3062 0.06147 0.0
H2144 H 0.92404 0.88738 0.27263 0.0
H2145 H 0.94432 0.94102 0.27234 0.0
H2146 H 0.99897 0.92156 0.3078 0.0
H2147 H 0.9796 0.86758 0.30789 0.0
H2148 H 0.94057 0.9885 0.28837 0.0
H2149 H 0.06667 0.96222 0.30734 0.0
H2150 H 0.10527 0.91904 0.3068 0.0
H2151 H 0.06334 0.88339 0.27075 0.0
H2152 H 0.02478 0.92658 0.27098 0.0
H2153 H 0.01371 0.13101 0.3064 0.0
H2154 H 0.99382 0.07723 0.30638 0.0
H2155 H 0.05423 0.05479 0.273 0.0
H2156 H 0.07491 0.10828 0.27322 0.0
H2157 H 0.05523 0.00878 0.29005 0.0
H2158 H 0.97469 0.06872 0.2688 0.0
H2159 H 0.93637 0.11176 0.26643 0.0
H2160 H 0.88769 0.07978 0.30155 0.0
H2161 H 0.926 0.03678 0.30424 0.0
C2162 C 0.94036 0.89455 0.28038 0.0
C2163 C 0.95048 0.87322 0.29021 0.0
C2164 C 0.95188 0.92523 0.28021 0.0
C2165 C 0.97353 0.9352 0.28993 0.0
C2166 C 0.98285 0.9142 0.30002 0.0
C2167 C 0.97168 0.88339 0.30009 0.0
C2168 C 0.98653 0.96749 0.28941 0.0
C2169 C 0.96564 0.99292 0.28875 0.0
C2170 C 0.01927 0.97329 0.2896 0.0
C2171 C 0.04265 0.94746 0.28927 0.0
C2172 C 0.06578 0.94524 0.29927 0.0
C2173 C 0.08763 0.92075 0.29902 0.0
C2174 C 0.08669 0.89843 0.28877 0.0
C2175 C 0.06397 0.90062 0.27871 0.0
C2176 C 0.0421 0.92509 0.27891 0.0
C2177 C 0.02275 0.11462 0.29905 0.0
C2178 C 0.04573 0.12391 0.28975 0.0
C2179 C 0.01129 0.08392 0.29903 0.0
C2180 C 0.02218 0.0621 0.28955 0.0
C2181 C 0.04547 0.07122 0.28039 0.0
C2182 C 0.05721 0.10182 0.28051 0.0
C2183 C 0.00925 0.02978 0.28917 0.0
C2184 C 0.03016 0.00435 0.28969 0.0
C2185 C 0.97657 0.02397 0.28841 0.0
C2186 C 0.95339 0.0497 0.28679 0.0
C2187 C 0.95594 0.071 0.27608 0.0
C2188 C 0.93421 0.09537 0.27466 0.0
C2189 C 0.90966 0.09855 0.28385 0.0
C2190 C 0.90674 0.07731 0.29445 0.0
C2191 C 0.92844 0.05292 0.29592 0.0
H2192 H 0.89285 0.11743 0.28274 0.0
H2193 H 0.10361 0.87947 0.2886 0.0
H2194 H 0.86093 0.99425 0.70286 0.0
H2195 H 0.91488 0.97417 0.70261 0.0
H2196 H 0.94981 0.06666 0.71184 0.0
H2197 H 0.89595 0.08682 0.71241 0.0
H2198 H 0.98308 0.03059 0.69018 0.0
H2199 H 0.94631 0.02315 0.73621 0.0
H2200 H 0.90859 0.00659 0.75357 0.0
H2201 H 0.92171 0.9102 0.74231 0.0
H2202 H 0.95915 0.92627 0.72472 0.0
H2203 H 0.13841 0.9995 0.71056 0.0
H2204 H 0.08437 0.0181 0.7087 0.0
H2205 H 0.05067 0.92308 0.71315 0.0
H2206 H 0.10471 0.9046 0.7157 0.0
H2207 H 0.01535 0.95896 0.72691 0.0
H2208 H 0.05341 0.96327 0.68204 0.0
H2209 H 0.09013 0.97732 0.6639 0.0
H2210 H 0.07327 0.0752 0.6712 0.0
H2211 H 0.03686 0.06176 0.68955 0.0
C2212 C 0.88012 0.01035 0.70473 0.0
C2213 C 0.87426 0.04205 0.70774 0.0
C2214 C 0.91085 0.99885 0.70458 0.0
C2215 C 0.93617 0.01898 0.70722 0.0
C2216 C 0.9305 0.05084 0.70975 0.0
C2217 C 0.89976 0.06224 0.71014 0.0
C2218 C 0.96847 0.00647 0.70806 0.0
C2219 C 0.99036 0.01515 0.69825 0.0
C2220 C 0.97745 0.98563 0.71838 0.0
C2221 C 0.95525 0.97594 0.72905 0.0
C2222 C 0.94094 0.99845 0.73736 0.0
C2223 C 0.91965 0.98915 0.74725 0.0
C2224 C 0.91269 0.95737 0.74902 0.0
C2225 C 0.92708 0.93481 0.74092 0.0
C2226 C 0.94835 0.944 0.73099 0.0
C2227 C 0.11946 0.98259 0.71113 0.0
C2228 C 0.12574 0.95061 0.71324 0.0
C2229 C 0.08856 0.99321 0.70998 0.0
C2230 C 0.06337 0.97194 0.71051 0.0
C2231 C 0.06966 0.93997 0.71269 0.0
C2232 C 0.10054 0.92942 0.71412 0.0
C2233 C 0.03047 0.9831 0.70903 0.0
C2234 C 0.0083 0.9742 0.71874 0.0
C2235 C 0.02113 0.0033 0.69845 0.0
C2236 C 0.04259 0.01149 0.68726 0.0
C2237 C 0.05766 0.9878 0.67983 0.0
C2238 C 0.07842 0.99565 0.66951 0.0
C2239 C 0.08408 0.02713 0.66642 0.0
C2240 C 0.06889 0.05083 0.67362 0.0
C2241 C 0.04817 0.0431 0.68398 0.0
H2242 H 0.10018 0.03316 0.65844 0.0
H2243 H 0.8962 0.95021 0.75668 0.0
H2244 H 0.08198 0.38979 0.96805 0.0
H2245 H 0.06287 0.44382 0.96765 0.0
H2246 H 0.98233 0.41473 0.94457 0.0
H2247 H 0.00153 0.36063 0.94471 0.0
H2248 H 0.00573 0.46899 0.93516 0.0
H2249 H 0.97553 0.42738 0.97786 0.0
H2250 H 0.98394 0.40098 0.99956 0.0
H2251 H 0.04824 0.47351 0.01135 0.0
H2252 H 0.04055 0.50012 0.98964 0.0
H2253 H 0.91989 0.60691 0.97145 0.0
H2254 H 0.93675 0.55223 0.97017 0.0
H2255 H 0.01411 0.57909 0.94472 0.0
H2256 H 0.99708 0.63385 0.94574 0.0
H2257 H 0.98911 0.52475 0.97824 0.0
H2258 H 0.02963 0.51944 0.92286 0.0
H2259 H 0.01698 0.54448 0.90123 0.0
H2260 H 0.92323 0.5632 0.91491 0.0
H2261 H 0.93518 0.53787 0.93654 0.0
C2262 C 0.06024 0.39485 0.96285 0.0
C2263 C 0.04313 0.37085 0.95651 0.0
C2264 C 0.04932 0.42575 0.96266 0.0
C2265 C 0.02098 0.43321 0.95622 0.0
C2266 C 0.00423 0.40946 0.94961 0.0
C2267 C 0.01518 0.37853 0.94976 0.0
C2268 C 0.00847 0.46566 0.95667 0.0
C2269 C 0.00212 0.48121 0.94457 0.0
C2270 C 0.00321 0.48138 0.96896 0.0
C2271 C 0.00767 0.46559 0.98208 0.0
C2272 C 0.99163 0.43758 0.98505 0.0
C2273 C 0.99624 0.4226 0.99735 0.0
C2274 C 0.01667 0.43552 0.00682 0.0
C2275 C 0.03246 0.46351 0.00401 0.0
C2276 C 0.02796 0.47857 0.99171 0.0
C2277 C 0.94044 0.60121 0.96554 0.0
C2278 C 0.95715 0.62474 0.95869 0.0
C2279 C 0.95009 0.56994 0.96485 0.0
C2280 C 0.97655 0.56154 0.95728 0.0
C2281 C 0.99335 0.58498 0.95046 0.0
C2282 C 0.98366 0.61629 0.95111 0.0
C2283 C 0.98679 0.5283 0.95673 0.0
C2284 C 0.99276 0.51259 0.96882 0.0
C2285 C 0.99106 0.51226 0.94444 0.0
C2286 C 0.98343 0.52703 0.93137 0.0
C2287 C 0.00628 0.52877 0.92123 0.0
C2288 C 0.99923 0.54304 0.90897 0.0
C2289 C 0.96935 0.55552 0.90672 0.0
C2290 C 0.94641 0.55363 0.91669 0.0
C2291 C 0.95332 0.53935 0.92896 0.0
H2292 H 0.96396 0.5666 0.89723 0.0
H2293 H 0.02022 0.42388 0.01634 0.0
H2294 H 0.39252 0.91753 0.03742 0.0
H2295 H 0.44639 0.93727 0.03869 0.0
H2296 H 0.4115 0.03085 0.04568 0.0
H2297 H 0.35739 0.01121 0.04471 0.0
H2298 H 0.46063 0.02291 0.02457 0.0
H2299 H 0.43798 0.99872 0.07085 0.0
H2300 H 0.41982 0.96431 0.08913 0.0
H2301 H 0.49219 0.89771 0.07968 0.0
H2302 H 0.51046 0.9315 0.06117 0.0
H2303 H 0.60676 0.09269 0.03901 0.0
H2304 H 0.55183 0.07644 0.04006 0.0
H2305 H 0.58082 0.98034 0.04607 0.0
H2306 H 0.63583 0.9968 0.04572 0.0
H2307 H 0.53316 0.99082 0.06101 0.0
H2308 H 0.55515 0.0104 0.01473 0.0
H2309 H 0.5735 0.04092 0.99524 0.0
H2310 H 0.50338 0.11106 0.00295 0.0
H2311 H 0.48489 0.08117 0.02261 0.0
C2312 C 0.39629 0.94232 0.03923 0.0
C2313 C 0.37076 0.96286 0.04096 0.0
C2314 C 0.42704 0.9535 0.03998 0.0
C2315 C 0.43278 0.98545 0.0423 0.0
C2316 C 0.40742 0.00611 0.04388 0.0
C2317 C 0.3766 0.99484 0.04337 0.0
C2318 C 0.4654 0.99717 0.043 0.0
C2319 C 0.47645 0.01638 0.03263 0.0
C2320 C 0.48608 0.98766 0.0533 0.0
C2321 C 0.4754 0.96752 0.06454 0.0
C2322 C 0.44986 0.97662 0.07259 0.0
C2323 C 0.43958 0.95725 0.08301 0.0
C2324 C 0.4548 0.9288 0.08555 0.0
C2325 C 0.4804 0.91973 0.0777 0.0
C2326 C 0.49075 0.939 0.06725 0.0
C2327 C 0.60139 0.06811 0.04059 0.0
C2328 C 0.62554 0.04595 0.04217 0.0
C2329 C 0.56998 0.05881 0.04112 0.0
C2330 C 0.5621 0.02703 0.04284 0.0
C2331 C 0.58625 0.00498 0.0447 0.0
C2332 C 0.61769 0.01438 0.04446 0.0
C2333 C 0.52875 0.01671 0.04253 0.0
C2334 C 0.51747 0.99762 0.05295 0.0
C2335 C 0.50799 0.02582 0.03211 0.0
C2336 C 0.51885 0.0437 0.02022 0.0
C2337 C 0.54378 0.03244 0.01232 0.0
C2338 C 0.55419 0.04961 0.00124 0.0
C2339 C 0.53967 0.07795 0.99788 0.0
C2340 C 0.51463 0.08913 0.00557 0.0
C2341 C 0.50416 0.07207 0.01668 0.0
H2342 H 0.54778 0.09122 0.9893 0.0
H2343 H 0.4468 0.91383 0.09362 0.0
H2344 H 0.42798 0.3889 0.76967 0.0
H2345 H 0.44919 0.44217 0.76952 0.0
H2346 H 0.50381 0.42107 0.80483 0.0
H2347 H 0.48349 0.36743 0.80476 0.0
H2348 H 0.44547 0.48889 0.78585 0.0
H2349 H 0.57134 0.46141 0.80484 0.0
H2350 H 0.60994 0.41825 0.80387 0.0
H2351 H 0.56846 0.38505 0.7673 0.0
H2352 H 0.52985 0.42813 0.768 0.0
H2353 H 0.51821 0.63085 0.80501 0.0
H2354 H 0.49842 0.57703 0.80463 0.0
H2355 H 0.55919 0.55579 0.77123 0.0
H2356 H 0.57974 0.60929 0.77179 0.0
H2357 H 0.56009 0.50912 0.78796 0.0
H2358 H 0.47984 0.5698 0.76694 0.0
H2359 H 0.44151 0.61287 0.76472 0.0
H2360 H 0.39227 0.5796 0.79948 0.0
H2361 H 0.4306 0.53656 0.80202 0.0
C2362 C 0.44456 0.3956 0.77739 0.0
C2363 C 0.45427 0.37394 0.78717 0.0
C2364 C 0.4566 0.42608 0.77731 0.0
C2365 C 0.4784 0.43554 0.78706 0.0
C2366 C 0.48756 0.41412 0.79702 0.0
C2367 C 0.47585 0.3835 0.797 0.0
C2368 C 0.49143 0.46784 0.78681 0.0
C2369 C 0.47053 0.4933 0.78632 0.0
C2370 C 0.52416 0.47364 0.78713 0.0
C2371 C 0.54753 0.44783 0.78655 0.0
C2372 C 0.57054 0.44495 0.79658 0.0
C2373 C 0.59239 0.42047 0.79608 0.0
C2374 C 0.59158 0.39885 0.78556 0.0
C2375 C 0.56898 0.4017 0.77549 0.0
C2376 C 0.54707 0.42612 0.77594 0.0
C2377 C 0.52735 0.61472 0.79758 0.0
C2378 C 0.55039 0.62436 0.78838 0.0
C2379 C 0.51595 0.58398 0.79735 0.0
C2380 C 0.52699 0.56248 0.78778 0.0
C2381 C 0.55032 0.57196 0.77871 0.0
C2382 C 0.56197 0.60258 0.77902 0.0
C2383 C 0.51411 0.53016 0.78715 0.0
C2384 C 0.53503 0.5047 0.78751 0.0
C2385 C 0.48144 0.52436 0.78625 0.0
C2386 C 0.45827 0.55014 0.78474 0.0
C2387 C 0.46098 0.57181 0.77417 0.0
C2388 C 0.43923 0.59619 0.77284 0.0
C2389 C 0.41452 0.59902 0.78197 0.0
C2390 C 0.41146 0.57741 0.79243 0.0
C2391 C 0.43317 0.553 0.79381 0.0
H2392 H 0.3977 0.61792 0.78093 0.0
H2393 H 0.60853 0.37994 0.78519 0.0
H2394 H 0.64006 0.50158 0.20483 0.0
H2395 H 0.58575 0.5206 0.20434 0.0
H2396 H 0.5521 0.42616 0.21021 0.0
H2397 H 0.60635 0.40699 0.21107 0.0
H2398 H 0.52155 0.46707 0.18831 0.0
H2399 H 0.54967 0.46302 0.23559 0.0
H2400 H 0.58395 0.47538 0.25479 0.0
H2401 H 0.57207 0.57395 0.24736 0.0
H2402 H 0.5381 0.56213 0.22796 0.0
H2403 H 0.3625 0.49397 0.2048 0.0
H2404 H 0.41672 0.47553 0.20359 0.0
H2405 H 0.44966 0.56842 0.21369 0.0
H2406 H 0.39539 0.58654 0.21556 0.0
H2407 H 0.48196 0.52903 0.22689 0.0
H2408 H 0.45303 0.53644 0.18088 0.0
H2409 H 0.42046 0.52747 0.16082 0.0
H2410 H 0.43582 0.42815 0.1641 0.0
H2411 H 0.46808 0.43648 0.18432 0.0
C2412 C 0.62109 0.48485 0.20595 0.0
C2413 C 0.62738 0.45284 0.20807 0.0
C2414 C 0.59016 0.49574 0.20567 0.0
C2415 C 0.56511 0.47472 0.20724 0.0
C2416 C 0.57124 0.44265 0.20895 0.0
C2417 C 0.60217 0.43181 0.20952 0.0
C2418 C 0.53251 0.48645 0.20765 0.0
C2419 C 0.51263 0.48032 0.19678 0.0
C2420 C 0.5215 0.50458 0.21852 0.0
C2421 C 0.54165 0.51168 0.23024 0.0
C2422 C 0.55462 0.48732 0.23797 0.0
C2423 C 0.57394 0.49423 0.24891 0.0
C2424 C 0.58026 0.52543 0.25227 0.0
C2425 C 0.5672 0.54979 0.24473 0.0
C2426 C 0.54789 0.543 0.23377 0.0
C2427 C 0.38132 0.51046 0.20672 0.0
C2428 C 0.37476 0.54168 0.21026 0.0
C2429 C 0.41234 0.49995 0.20595 0.0
C2430 C 0.43739 0.52069 0.20832 0.0
C2431 C 0.43079 0.55195 0.21182 0.0
C2432 C 0.39977 0.5623 0.21286 0.0
C2433 C 0.47044 0.50963 0.20752 0.0
C2434 C 0.49061 0.51588 0.21834 0.0
C2435 C 0.48186 0.49217 0.19645 0.0
C2436 C 0.46275 0.48707 0.18419 0.0
C2437 C 0.4493 0.51266 0.17738 0.0
C2438 C 0.4309 0.5077 0.16597 0.0
C2439 C 0.42602 0.47726 0.1612 0.0
C2440 C 0.4396 0.45172 0.16781 0.0
C2441 C 0.45796 0.45655 0.17924 0.0
H2442 H 0.41176 0.47346 0.15238 0.0
H2443 H 0.59522 0.53073 0.26074 0.0
H2444 H 0.40305 0.10572 0.46197 0.0
H2445 H 0.42119 0.0513 0.46149 0.0
H2446 H 0.51618 0.08319 0.45489 0.0
H2447 H 0.49785 0.13752 0.45467 0.0
H2448 H 0.50738 0.03449 0.44055 0.0
H2449 H 0.48716 0.05855 0.48662 0.0
H2450 H 0.45596 0.07688 0.50592 0.0
H2451 H 0.38864 0.0036 0.49907 0.0
H2452 H 0.41921 0.9851 0.4796 0.0
H2453 H 0.58502 0.89661 0.46539 0.0
H2454 H 0.56408 0.95014 0.46409 0.0
H2455 H 0.47149 0.91323 0.45655 0.0
H2456 H 0.49231 0.85965 0.45751 0.0
H2457 H 0.47837 0.96304 0.47783 0.0
H2458 H 0.50269 0.93907 0.43159 0.0
H2459 H 0.53762 0.92114 0.41343 0.0
H2460 H 0.60221 0.99565 0.42236 0.0
H2461 H 0.5679 0.01369 0.44074 0.0
C2462 C 0.42777 0.10107 0.46037 0.0
C2463 C 0.44909 0.12582 0.45845 0.0
C2464 C 0.43816 0.06997 0.46016 0.0
C2465 C 0.4702 0.06309 0.45846 0.0
C2466 C 0.49137 0.08784 0.45626 0.0
C2467 C 0.48089 0.1189 0.45617 0.0
C2468 C 0.48177 0.0302 0.45912 0.0
C2469 C 0.50125 0.01906 0.4488 0.0
C2470 C 0.47358 0.00978 0.46979 0.0
C2471 C 0.45531 0.02064 0.48158 0.0
C2472 C 0.46559 0.04647 0.48918 0.0
C2473 C 0.44804 0.05688 0.50015 0.0
C2474 C 0.42029 0.04146 0.5037 0.0
C2475 C 0.41011 0.01554 0.4963 0.0
C2476 C 0.42755 0.00507 0.4853 0.0
C2477 C 0.56021 0.89992 0.46347 0.0
C2478 C 0.54028 0.87401 0.46153 0.0
C2479 C 0.54833 0.93043 0.46271 0.0
C2480 C 0.51632 0.93546 0.46022 0.0
C2481 C 0.49627 0.90969 0.45849 0.0
C2482 C 0.50823 0.87918 0.45898 0.0
C2483 C 0.50382 0.96772 0.45933 0.0
C2484 C 0.48428 0.97863 0.46961 0.0
C2485 C 0.51244 0.9881 0.44879 0.0
C2486 C 0.53289 0.97752 0.43763 0.0
C2487 C 0.52448 0.95146 0.42976 0.0
C2488 C 0.54414 0.9413 0.41942 0.0
C2489 C 0.57215 0.9572 0.41676 0.0
C2490 C 0.58052 0.98334 0.42443 0.0
C2491 C 0.56097 0.99354 0.43482 0.0
H2492 H 0.58734 0.94931 0.40875 0.0
H2493 H 0.40672 0.04957 0.51219 0.0
H2494 H 0.89384 0.40839 0.53676 0.0
H2495 H 0.94806 0.42733 0.53834 0.0
H2496 H 0.9143 0.52081 0.54653 0.0
H2497 H 0.86004 0.50201 0.54526 0.0
H2498 H 0.96187 0.51367 0.52498 0.0
H2499 H 0.941 0.48639 0.57118 0.0
H2500 H 0.92418 0.45058 0.58921 0.0
H2501 H 0.99738 0.38591 0.57855 0.0
H2502 H 0.01432 0.42113 0.56029 0.0
H2503 H 0.10302 0.58933 0.54035 0.0
H2504 H 0.04932 0.5696 0.54161 0.0
H2505 H 0.08444 0.475 0.54564 0.0
H2506 H 0.13837 0.4949 0.54505 0.0
H2507 H 0.03575 0.48144 0.56091 0.0
H2508 H 0.05727 0.50533 0.51507 0.0
H2509 H 0.07471 0.538 0.49608 0.0
H2510 H 0.00137 0.60441 0.50434 0.0
H2511 H 0.98378 0.57237 0.52352 0.0
C2512 C 0.89798 0.43296 0.53894 0.0
C2513 C 0.87276 0.45377 0.54088 0.0
C2514 C 0.9289 0.44367 0.53987 0.0
C2515 C 0.93499 0.47539 0.54256 0.0
C2516 C 0.90992 0.49623 0.54445 0.0
C2517 C 0.87901 0.48544 0.54376 0.0
C2518 C 0.96761 0.48699 0.54312 0.0
C2519 C 0.97799 0.50703 0.53291 0.0
C2520 C 0.98869 0.47729 0.55323 0.0
C2521 C 0.97871 0.45624 0.56428 0.0
C2522 C 0.95333 0.4644 0.5726 0.0
C2523 C 0.94381 0.44424 0.58288 0.0
C2524 C 0.95965 0.41595 0.585 0.0
C2525 C 0.9851 0.40781 0.57688 0.0
C2526 C 0.99468 0.42787 0.56657 0.0
C2527 C 0.09928 0.56434 0.54158 0.0
C2528 C 0.1248 0.54357 0.54245 0.0
C2529 C 0.06859 0.55307 0.54224 0.0
C2530 C 0.06281 0.52072 0.54336 0.0
C2531 C 0.08831 0.50003 0.54469 0.0
C2532 C 0.11909 0.5114 0.54432 0.0
C2533 C 0.0302 0.50851 0.54279 0.0
C2534 C 0.01977 0.48821 0.55295 0.0
C2535 C 0.00917 0.51747 0.53247 0.0
C2536 C 0.01939 0.53658 0.52081 0.0
C2537 C 0.04497 0.52699 0.51289 0.0
C2538 C 0.05488 0.54539 0.50209 0.0
C2539 C 0.03921 0.5733 0.49903 0.0
C2540 C 0.01351 0.5828 0.50673 0.0
C2541 C 0.00355 0.56452 0.51756 0.0
H2542 H 0.04693 0.58753 0.49067 0.0
H2543 H 0.95225 0.40037 0.59297 0.0
loop_
_geom_bond_atom_site_label_1
_geom_bond_atom_site_label_2
_geom_bond_distance
_geom_bond_site_symmetry_2
_ccdc_geom_bond_type
Co0 O2 2.143 . S
Co0 O8 2.074 . S
Co0 O11 2.093 . S
Co0 O24 2.097 . S
Co0 N41 2.151 . S
Co0 N49 2.214 . S
Co1 O2 2.160 . S
Co1 O7 2.058 . S
Co1 O17 2.057 . S
Co1 O32 2.037 . S
Co1 N36 2.145 . S
Co1 N57 2.257 . S
O2 Co0 2.143 . S
O2 Co1 2.160 . S
C3 O4 1.278 . S
C3 O11 1.224 . S
O4 C3 1.278 . S
C5 O6 1.245 . S
C5 O17 1.232 . S
O6 C5 1.245 . S
O7 Co1 2.058 . S
O7 C33 1.269 . S
O8 Co0 2.074 . S
O8 C33 1.257 . S
H9 C34 0.930 . S
H10 C40 0.930 . S
O11 Co0 2.093 . S
O11 C3 1.224 . S
H12 C44 0.929 . S
H13 C46 0.930 . S
H14 C47 0.930 . S
H15 C45 0.929 . S
H16 C48 0.928 . S
O17 Co1 2.057 . S
O17 C5 1.232 . S
H18 C37 0.929 . S
H19 C38 0.929 . S
H20 C50 0.931 . S
H21 C42 0.929 . S
H22 C51 0.930 . S
H23 C43 0.931 . S
O24 Co0 2.097 . S
O24 C52 1.214 . S
H25 C53 0.929 . S
H26 C54 0.929 . S
H27 C55 0.930 . S
H28 C56 0.929 1_655 S
H29 C58 0.930 . S
H30 C35 0.930 . S
H31 C39 0.930 . S
O32 Co1 2.037 . S
O32 C52 1.234 . S
C33 O7 1.269 . S
C33 O8 1.257 . S
C34 H9 0.930 . S
C34 C37 1.388 . S
C34 C39 1.418 . S
C35 H30 0.930 . S
C35 C38 1.404 . S
C35 C39 1.353 . S
N36 Co1 2.145 . S
N36 C37 1.397 . S
N36 C38 1.334 . S
C37 H18 0.929 . S
C37 C34 1.388 . S
C37 N36 1.397 . S
C38 H19 0.929 . S
C38 C35 1.404 . S
C38 N36 1.334 . S
C39 H31 0.930 . S
C39 C34 1.418 . S
C39 C35 1.353 . S
C40 H10 0.930 . S
C40 N41 1.330 . S
C40 C42 1.446 . S
N41 Co0 2.151 . S
N41 C40 1.330 . S
N41 C45 1.418 . S
C42 H21 0.929 . S
C42 C40 1.446 . S
C42 C43 1.332 . S
C43 H23 0.931 . S
C43 C42 1.332 . S
C43 C44 1.267 . S
C44 H12 0.929 . S
C44 C43 1.267 . S
C44 C45 1.251 . S
C45 H15 0.929 . S
C45 N41 1.418 . S
C45 C44 1.251 . S
C46 H13 0.930 . S
C46 C48 1.406 . S
C46 C51 1.261 . S
C47 H14 0.930 . S
C47 N49 1.325 . S
C47 C50 1.357 . S
C48 H16 0.928 . S
C48 C46 1.406 . S
C48 N49 1.261 . S
N49 Co0 2.214 . S
N49 C47 1.325 . S
N49 C48 1.261 . S
C50 H20 0.931 . S
C50 C47 1.357 . S
C50 C51 1.312 . S
C51 H22 0.930 . S
C51 C46 1.261 . S
C51 C50 1.312 . S
C52 O24 1.214 . S
C52 O32 1.234 . S
C53 H25 0.929 . S
C53 C56 1.391 . S
C53 C58 1.391 . S
C54 H26 0.929 . S
C54 C55 1.390 1_455 S
C54 N57 1.391 . S
C55 H27 0.930 . S
C55 C54 1.390 1_655 S
C55 C56 1.392 1_655 S
C56 H28 0.929 1_455 S
C56 C53 1.391 . S
C56 C55 1.392 1_455 S
N57 Co1 2.257 . S
N57 C54 1.391 . S
N57 C58 1.388 . S
C58 H29 0.930 . S
C58 C53 1.391 . S
C58 N57 1.388 . S
Co59 O61 2.143 . S
Co59 O67 2.074 . S
Co59 O70 2.093 . S
Co59 O83 2.097 . S
Co59 N100 2.151 . S
Co59 N108 2.214 . S
Co60 O61 2.160 . S
Co60 O66 2.058 . S
Co60 O76 2.057 . S
Co60 O91 2.037 . S
Co60 N95 2.145 . S
Co60 N116 2.257 . S
O61 Co59 2.143 . S
O61 Co60 2.160 . S
C62 O63 1.278 . S
C62 O70 1.224 . S
O63 C62 1.278 . S
C64 O65 1.245 . S
C64 O76 1.232 . S
O65 C64 1.245 . S
O66 Co60 2.058 . S
O66 C92 1.269 . S
O67 Co59 2.074 . S
O67 C92 1.257 . S
H68 C93 0.930 . S
H69 C99 0.930 . S
O70 Co59 2.093 . S
O70 C62 1.224 . S
H71 C103 0.929 . S
H72 C105 0.930 . S
H73 C106 0.930 . S
H74 C104 0.929 . S
H75 C107 0.928 . S
O76 Co60 2.057 . S
O76 C64 1.232 . S
H77 C96 0.929 . S
H78 C97 0.929 . S
H79 C109 0.931 . S
H80 C101 0.929 . S
H81 C110 0.930 . S
H82 C102 0.931 . S
O83 Co59 2.097 . S
O83 C111 1.214 . S
H84 C112 0.929 . S
H85 C113 0.929 . S
H86 C114 0.930 . S
H87 C115 0.929 1_545 S
H88 C117 0.930 . S
H89 C94 0.930 . S
H90 C98 0.930 . S
O91 Co60 2.037 . S
O91 C111 1.234 . S
C92 O66 1.269 . S
C92 O67 1.257 . S
C93 H68 0.930 . S
C93 C96 1.388 . S
C93 C98 1.418 . S
C94 H89 0.930 . S
C94 C97 1.404 . S
C94 C98 1.353 . S
N95 Co60 2.145 . S
N95 C96 1.397 . S
N95 C97 1.334 . S
C96 H77 0.929 . S
C96 C93 1.388 . S
C96 N95 1.397 . S
C97 H78 0.929 . S
C97 C94 1.404 . S
C97 N95 1.334 . S
C98 H90 0.930 . S
C98 C93 1.418 . S
C98 C94 1.353 . S
C99 H69 0.930 . S
C99 N100 1.330 . S
C99 C101 1.446 . S
N100 Co59 2.151 . S
N100 C99 1.330 . S
N100 C104 1.418 . S
C101 H80 0.929 . S
C101 C99 1.446 . S
C101 C102 1.332 . S
C102 H82 0.931 . S
C102 C101 1.332 . S
C102 C103 1.267 . S
C103 H71 0.929 . S
C103 C102 1.267 . S
C103 C104 1.251 . S
C104 H74 0.929 . S
C104 N100 1.418 . S
C104 C103 1.251 . S
C105 H72 0.930 . S
C105 C107 1.406 . S
C105 C110 1.261 . S
C106 H73 0.930 . S
C106 N108 1.325 . S
C106 C109 1.357 . S
C107 H75 0.928 . S
C107 C105 1.406 . S
C107 N108 1.261 . S
N108 Co59 2.214 . S
N108 C106 1.325 . S
N108 C107 1.261 . S
C109 H79 0.931 . S
C109 C106 1.357 . S
C109 C110 1.312 . S
C110 H81 0.930 . S
C110 C105 1.261 . S
C110 C109 1.312 . S
C111 O83 1.214 . S
C111 O91 1.234 . S
C112 H84 0.929 . S
C112 C115 1.391 . S
C112 C117 1.391 . S
C113 H85 0.929 . S
C113 C114 1.390 1_565 S
C113 N116 1.391 . S
C114 H86 0.930 . S
C114 C113 1.390 1_545 S
C114 C115 1.392 1_545 S
C115 H87 0.929 1_565 S
C115 C112 1.391 . S
C115 C114 1.392 1_565 S
N116 Co60 2.257 . S
N116 C113 1.391 . S
N116 C117 1.388 . S
C117 H88 0.930 . S
C117 C112 1.391 . S
C117 N116 1.388 . S
Co118 O120 2.143 . S
Co118 O126 2.074 . S
Co118 O129 2.093 . S
Co118 O142 2.097 . S
Co118 N159 2.151 . S
Co118 N167 2.214 . S
Co119 O120 2.160 . S
Co119 O125 2.058 . S
Co119 O135 2.057 . S
Co119 O150 2.037 . S
Co119 N154 2.145 . S
Co119 N175 2.257 . S
O120 Co118 2.143 . S
O120 Co119 2.160 . S
C121 O122 1.278 . S
C121 O129 1.224 . S
O122 C121 1.278 . S
C123 O124 1.245 . S
C123 O135 1.232 . S
O124 C123 1.245 . S
O125 Co119 2.058 . S
O125 C151 1.269 . S
O126 Co118 2.074 . S
O126 C151 1.257 . S
H127 C152 0.930 . S
H128 C158 0.930 . S
O129 Co118 2.093 . S
O129 C121 1.224 . S
H130 C162 0.929 . S
H131 C164 0.930 . S
H132 C165 0.930 . S
H133 C163 0.929 . S
H134 C166 0.928 . S
O135 Co119 2.057 . S
O135 C123 1.232 . S
H136 C155 0.929 . S
H137 C156 0.929 . S
H138 C168 0.931 . S
H139 C160 0.929 . S
H140 C169 0.930 . S
H141 C161 0.931 . S
O142 Co118 2.097 . S
O142 C170 1.214 . S
H143 C171 0.929 . S
H144 C172 0.929 . S
H145 C173 0.930 . S
H146 C174 0.929 1_455 S
H147 C176 0.930 . S
H148 C153 0.930 . S
H149 C157 0.930 . S
O150 Co119 2.037 . S
O150 C170 1.234 . S
C151 O125 1.269 . S
C151 O126 1.257 . S
C152 H127 0.930 . S
C152 C155 1.388 . S
C152 C157 1.418 . S
C153 H148 0.930 . S
C153 C156 1.404 . S
C153 C157 1.353 . S
N154 Co119 2.145 . S
N154 C155 1.397 . S
N154 C156 1.334 . S
C155 H136 0.929 . S
C155 C152 1.388 . S
C155 N154 1.397 . S
C156 H137 0.929 . S
C156 C153 1.404 . S
C156 N154 1.334 . S
C157 H149 0.930 . S
C157 C152 1.418 . S
C157 C153 1.353 . S
C158 H128 0.930 . S
C158 N159 1.330 . S
C158 C160 1.446 . S
N159 Co118 2.151 . S
N159 C158 1.330 . S
N159 C163 1.418 . S
C160 H139 0.929 . S
C160 C158 1.446 . S
C160 C161 1.332 . S
C161 H141 0.931 . S
C161 C160 1.332 . S
C161 C162 1.267 . S
C162 H130 0.929 . S
C162 C161 1.267 . S
C162 C163 1.251 . S
C163 H133 0.929 . S
C163 N159 1.418 . S
C163 C162 1.251 . S
C164 H131 0.930 . S
C164 C166 1.406 . S
C164 C169 1.261 . S
C165 H132 0.930 . S
C165 N167 1.325 . S
C165 C168 1.357 . S
C166 H134 0.928 . S
C166 C164 1.406 . S
C166 N167 1.261 . S
N167 Co118 2.214 . S
N167 C165 1.325 . S
N167 C166 1.261 . S
C168 H138 0.931 . S
C168 C165 1.357 . S
C168 C169 1.312 . S
C169 H140 0.930 . S
C169 C164 1.261 . S
C169 C168 1.312 . S
C170 O142 1.214 . S
C170 O150 1.234 . S
C171 H143 0.929 . S
C171 C174 1.391 . S
C171 C176 1.391 . S
C172 H144 0.929 . S
C172 C173 1.390 1_655 S
C172 N175 1.391 . S
C173 H145 0.930 . S
C173 C172 1.390 1_455 S
C173 C174 1.392 1_455 S
C174 H146 0.929 1_655 S
C174 C171 1.391 . S
C174 C173 1.392 1_655 S
N175 Co119 2.257 . S
N175 C172 1.391 . S
N175 C176 1.388 . S
C176 H147 0.930 . S
C176 C171 1.391 . S
C176 N175 1.388 . S
Co177 O179 2.143 . S
Co177 O185 2.074 . S
Co177 O188 2.093 . S
Co177 O201 2.097 . S
Co177 N218 2.151 . S
Co177 N226 2.214 . S
Co178 O179 2.160 . S
Co178 O184 2.058 . S
Co178 O194 2.057 . S
Co178 O209 2.037 . S
Co178 N213 2.145 . S
Co178 N234 2.257 . S
O179 Co177 2.143 . S
O179 Co178 2.160 . S
C180 O181 1.278 . S
C180 O188 1.224 . S
O181 C180 1.278 . S
C182 O183 1.245 . S
C182 O194 1.232 . S
O183 C182 1.245 . S
O184 Co178 2.058 . S
O184 C210 1.269 . S
O185 Co177 2.074 . S
O185 C210 1.257 . S
H186 C211 0.930 . S
H187 C217 0.930 . S
O188 Co177 2.093 . S
O188 C180 1.224 . S
H189 C221 0.929 . S
H190 C223 0.930 . S
H191 C224 0.930 . S
H192 C222 0.929 . S
H193 C225 0.928 . S
O194 Co178 2.057 . S
O194 C182 1.232 . S
H195 C214 0.929 . S
H196 C215 0.929 . S
H197 C227 0.931 . S
H198 C219 0.929 . S
H199 C228 0.930 . S
H200 C220 0.931 . S
O201 Co177 2.097 . S
O201 C229 1.214 . S
H202 C230 0.929 . S
H203 C231 0.929 . S
H204 C232 0.930 . S
H205 C233 0.929 1_565 S
H206 C235 0.930 . S
H207 C212 0.930 . S
H208 C216 0.930 . S
O209 Co178 2.037 . S
O209 C229 1.234 . S
C210 O184 1.269 . S
C210 O185 1.257 . S
C211 H186 0.930 . S
C211 C214 1.388 . S
C211 C216 1.418 . S
C212 H207 0.930 . S
C212 C215 1.404 . S
C212 C216 1.353 . S
N213 Co178 2.145 . S
N213 C214 1.397 . S
N213 C215 1.334 . S
C214 H195 0.929 . S
C214 C211 1.388 . S
C214 N213 1.397 . S
C215 H196 0.929 . S
C215 C212 1.404 . S
C215 N213 1.334 . S
C216 H208 0.930 . S
C216 C211 1.418 . S
C216 C212 1.353 . S
C217 H187 0.930 . S
C217 N218 1.330 . S
C217 C219 1.446 . S
N218 Co177 2.151 . S
N218 C217 1.330 . S
N218 C222 1.418 . S
C219 H198 0.929 . S
C219 C217 1.446 . S
C219 C220 1.332 . S
C220 H200 0.931 . S
C220 C219 1.332 . S
C220 C221 1.267 . S
C221 H189 0.929 . S
C221 C220 1.267 . S
C221 C222 1.251 . S
C222 H192 0.929 . S
C222 N218 1.418 . S
C222 C221 1.251 . S
C223 H190 0.930 . S
C223 C225 1.406 . S
C223 C228 1.261 . S
C224 H191 0.930 . S
C224 N226 1.325 . S
C224 C227 1.357 . S
C225 H193 0.928 . S
C225 C223 1.406 . S
C225 N226 1.261 . S
N226 Co177 2.214 . S
N226 C224 1.325 . S
N226 C225 1.261 . S
C227 H197 0.931 . S
C227 C224 1.357 . S
C227 C228 1.312 . S
C228 H199 0.930 . S
C228 C223 1.261 . S
C228 C227 1.312 . S
C229 O201 1.214 . S
C229 O209 1.234 . S
C230 H202 0.929 . S
C230 C233 1.391 . S
C230 C235 1.391 . S
C231 H203 0.929 . S
C231 C232 1.390 1_545 S
C231 N234 1.391 . S
C232 H204 0.930 . S
C232 C231 1.390 1_565 S
C232 C233 1.392 1_565 S
C233 H205 0.929 1_545 S
C233 C230 1.391 . S
C233 C232 1.392 1_545 S
N234 Co178 2.257 . S
N234 C231 1.391 . S
N234 C235 1.388 . S
C235 H206 0.930 . S
C235 C230 1.391 . S
C235 N234 1.388 . S
Co236 O238 2.143 . S
Co236 O244 2.074 . S
Co236 O247 2.093 . S
Co236 O260 2.097 . S
Co236 N277 2.151 . S
Co236 N285 2.214 . S
Co237 O238 2.160 . S
Co237 O243 2.058 . S
Co237 O253 2.057 . S
Co237 O268 2.037 . S
Co237 N272 2.145 . S
Co237 N293 2.257 . S
O238 Co236 2.143 . S
O238 Co237 2.160 . S
C239 O240 1.278 . S
C239 O247 1.224 . S
O240 C239 1.278 . S
C241 O242 1.245 . S
C241 O253 1.232 . S
O242 C241 1.245 . S
O243 Co237 2.058 . S
O243 C269 1.269 . S
O244 Co236 2.074 . S
O244 C269 1.257 . S
H245 C270 0.930 . S
H246 C276 0.930 . S
O247 Co236 2.093 . S
O247 C239 1.224 . S
H248 C280 0.995 . S
H249 C282 0.930 . S
H250 C283 0.930 1_556 S
H251 C281 0.929 . S
H252 C284 0.914 1_556 S
O253 Co237 2.057 . S
O253 C241 1.232 . S
H254 C273 0.929 . S
H255 C274 0.929 . S
H256 C286 0.931 . S
H257 C278 0.929 . S
H258 C287 0.930 . S
H259 C279 0.931 . S
O260 Co236 2.097 . S
O260 C288 1.214 . S
H261 C289 0.929 . S
H262 C290 0.929 . S
H263 C291 0.930 . S
H264 C292 0.929 1_655 S
H265 C294 0.930 . S
H266 C271 0.930 . S
H267 C275 0.930 . S
O268 Co237 2.037 . S
O268 C288 1.234 . S
C269 O243 1.269 . S
C269 O244 1.257 . S
C270 H245 0.930 . S
C270 C273 1.388 . S
C270 C275 1.418 . S
C271 H266 0.930 . S
C271 C274 1.404 . S
C271 C275 1.353 . S
N272 Co237 2.145 . S
N272 C273 1.397 . S
N272 C274 1.334 . S
C273 H254 0.929 . S
C273 C270 1.388 . S
C273 N272 1.397 . S
C274 H255 0.929 . S
C274 C271 1.404 . S
C274 N272 1.334 . S
C275 H267 0.930 . S
C275 C270 1.418 . S
C275 C271 1.353 . S
C276 H246 0.930 . S
C276 N277 1.330 . S
C276 C278 1.446 . S
N277 Co236 2.151 . S
N277 C276 1.330 . S
N277 C281 1.418 . S
C278 H257 0.929 . S
C278 C276 1.446 . S
C278 C279 1.332 . S
C279 H259 0.931 . S
C279 C278 1.332 . S
C279 C280 1.267 . S
C280 H248 0.995 . S
C280 C279 1.267 . S
C280 C281 1.251 . S
C281 H251 0.929 . S
C281 N277 1.418 . S
C281 C280 1.251 . S
C282 H249 0.930 . S
C282 C284 1.406 . S
C282 C287 1.261 . S
C283 H250 0.930 1_554 S
C283 N285 1.325 1_554 S
C283 C286 1.357 . S
C284 H252 0.914 1_554 S
C284 C282 1.406 . S
C284 N285 1.261 1_554 S
N285 Co236 2.214 . S
N285 C283 1.325 1_556 S
N285 C284 1.261 1_556 S
C286 H256 0.931 . S
C286 C283 1.357 . S
C286 C287 1.312 . S
C287 H258 0.930 . S
C287 C282 1.261 . S
C287 C286 1.312 . S
C288 O260 1.214 . S
C288 O268 1.234 . S
C289 H261 0.929 . S
C289 C292 1.391 . S
C289 C294 1.391 . S
C290 H262 0.929 . S
C290 C291 1.390 1_455 S
C290 N293 1.391 . S
C291 H263 0.930 . S
C291 C290 1.390 1_655 S
C291 C292 1.392 1_655 S
C292 H264 0.929 1_455 S
C292 C289 1.391 . S
C292 C291 1.392 1_455 S
N293 Co237 2.257 . S
N293 C290 1.391 . S
N293 C294 1.388 . S
C294 H265 0.930 . S
C294 C289 1.391 . S
C294 N293 1.388 . S
Co295 O297 2.143 . S
Co295 O303 2.074 . S
Co295 O306 2.093 . S
Co295 O319 2.097 . S
Co295 N336 2.151 . S
Co295 N344 2.214 . S
Co296 O297 2.160 . S
Co296 O302 2.058 . S
Co296 O312 2.057 . S
Co296 O327 2.037 . S
Co296 N331 2.145 . S
Co296 N352 2.257 . S
O297 Co295 2.143 . S
O297 Co296 2.160 . S
C298 O299 1.278 . S
C298 O306 1.224 . S
O299 C298 1.278 . S
C300 O301 1.245 . S
C300 O312 1.232 . S
O301 C300 1.245 . S
O302 Co296 2.058 . S
O302 C328 1.269 . S
O303 Co295 2.074 . S
O303 C328 1.257 . S
H304 C329 0.930 . S
H305 C335 0.930 . S
O306 Co295 2.093 . S
O306 C298 1.224 . S
H307 C339 0.995 . S
H308 C341 0.930 . S
H309 C342 0.930 1_554 S
H310 C340 0.929 . S
H311 C343 0.914 1_554 S
O312 Co296 2.057 . S
O312 C300 1.232 . S
H313 C332 0.929 . S
H314 C333 0.929 . S
H315 C345 0.931 . S
H316 C337 0.929 . S
H317 C346 0.930 . S
H318 C338 0.931 . S
O319 Co295 2.097 . S
O319 C347 1.214 . S
H320 C348 0.929 . S
H321 C349 0.929 . S
H322 C350 0.930 . S
H323 C351 0.929 1_545 S
H324 C353 0.930 . S
H325 C330 0.930 . S
H326 C334 0.930 . S
O327 Co296 2.037 . S
O327 C347 1.234 . S
C328 O302 1.269 . S
C328 O303 1.257 . S
C329 H304 0.930 . S
C329 C332 1.388 . S
C329 C334 1.418 . S
C330 H325 0.930 . S
C330 C333 1.404 . S
C330 C334 1.353 . S
N331 Co296 2.145 . S
N331 C332 1.397 . S
N331 C333 1.334 . S
C332 H313 0.929 . S
C332 C329 1.388 . S
C332 N331 1.397 . S
C333 H314 0.929 . S
C333 C330 1.404 . S
C333 N331 1.334 . S
C334 H326 0.930 . S
C334 C329 1.418 . S
C334 C330 1.353 . S
C335 H305 0.930 . S
C335 N336 1.330 . S
C335 C337 1.446 . S
N336 Co295 2.151 . S
N336 C335 1.330 . S
N336 C340 1.418 . S
C337 H316 0.929 . S
C337 C335 1.446 . S
C337 C338 1.332 . S
C338 H318 0.931 . S
C338 C337 1.332 . S
C338 C339 1.267 . S
C339 H307 0.995 . S
C339 C338 1.267 . S
C339 C340 1.251 . S
C340 H310 0.929 . S
C340 N336 1.418 . S
C340 C339 1.251 . S
C341 H308 0.930 . S
C341 C343 1.406 . S
C341 C346 1.261 . S
C342 H309 0.930 1_556 S
C342 N344 1.325 1_556 S
C342 C345 1.357 . S
C343 H311 0.914 1_556 S
C343 C341 1.406 . S
C343 N344 1.261 1_556 S
N344 Co295 2.214 . S
N344 C342 1.325 1_554 S
N344 C343 1.261 1_554 S
C345 H315 0.931 . S
C345 C342 1.357 . S
C345 C346 1.312 . S
C346 H317 0.930 . S
C346 C341 1.261 . S
C346 C345 1.312 . S
C347 O319 1.214 . S
C347 O327 1.234 . S
C348 H320 0.929 . S
C348 C351 1.391 . S
C348 C353 1.391 . S
C349 H321 0.929 . S
C349 C350 1.390 1_565 S
C349 N352 1.391 . S
C350 H322 0.930 . S
C350 C349 1.390 1_545 S
C350 C351 1.392 1_545 S
C351 H323 0.929 1_565 S
C351 C348 1.391 . S
C351 C350 1.392 1_565 S
N352 Co296 2.257 . S
N352 C349 1.391 . S
N352 C353 1.388 . S
C353 H324 0.930 . S
C353 C348 1.391 . S
C353 N352 1.388 . S
Co354 O356 2.143 . S
Co354 O362 2.074 . S
Co354 O365 2.093 . S
Co354 O378 2.097 . S
Co354 N395 2.151 . S
Co354 N403 2.214 . S
Co355 O356 2.160 . S
Co355 O361 2.058 . S
Co355 O371 2.057 . S
Co355 O386 2.037 . S
Co355 N390 2.145 . S
Co355 N411 2.257 . S
O356 Co354 2.143 . S
O356 Co355 2.160 . S
C357 O358 1.278 . S
C357 O365 1.224 . S
O358 C357 1.278 . S
C359 O360 1.245 . S
C359 O371 1.232 . S
O360 C359 1.245 . S
O361 Co355 2.058 . S
O361 C387 1.269 . S
O362 Co354 2.074 . S
O362 C387 1.257 . S
H363 C388 0.930 . S
H364 C394 0.930 . S
O365 Co354 2.093 . S
O365 C357 1.224 . S
H366 C398 0.995 . S
H367 C400 0.930 . S
H368 C401 0.930 1_556 S
H369 C399 0.929 . S
H370 C402 0.914 1_556 S
O371 Co355 2.057 . S
O371 C359 1.232 . S
H372 C391 0.929 . S
H373 C392 0.929 . S
H374 C404 0.931 . S
H375 C396 0.929 . S
H376 C405 0.930 . S
H377 C397 0.931 . S
O378 Co354 2.097 . S
O378 C406 1.214 . S
H379 C407 0.929 . S
H380 C408 0.929 . S
H381 C409 0.930 . S
H382 C410 0.929 1_455 S
H383 C412 0.930 . S
H384 C389 0.930 . S
H385 C393 0.930 . S
O386 Co355 2.037 . S
O386 C406 1.234 . S
C387 O361 1.269 . S
C387 O362 1.257 . S
C388 H363 0.930 . S
C388 C391 1.388 . S
C388 C393 1.418 . S
C389 H384 0.930 . S
C389 C392 1.404 . S
C389 C393 1.353 . S
N390 Co355 2.145 . S
N390 C391 1.397 . S
N390 C392 1.334 . S
C391 H372 0.929 . S
C391 C388 1.388 . S
C391 N390 1.397 . S
C392 H373 0.929 . S
C392 C389 1.404 . S
C392 N390 1.334 . S
C393 H385 0.930 . S
C393 C388 1.418 . S
C393 C389 1.353 . S
C394 H364 0.930 . S
C394 N395 1.330 . S
C394 C396 1.446 . S
N395 Co354 2.151 . S
N395 C394 1.330 . S
N395 C399 1.418 . S
C396 H375 0.929 . S
C396 C394 1.446 . S
C396 C397 1.332 . S
C397 H377 0.931 . S
C397 C396 1.332 . S
C397 C398 1.267 . S
C398 H366 0.995 . S
C398 C397 1.267 . S
C398 C399 1.251 . S
C399 H369 0.929 . S
C399 N395 1.418 . S
C399 C398 1.251 . S
C400 H367 0.930 . S
C400 C402 1.406 . S
C400 C405 1.261 . S
C401 H368 0.930 1_554 S
C401 N403 1.325 1_554 S
C401 C404 1.357 . S
C402 H370 0.914 1_554 S
C402 C400 1.406 . S
C402 N403 1.261 1_554 S
N403 Co354 2.214 . S
N403 C401 1.325 1_556 S
N403 C402 1.261 1_556 S
C404 H374 0.931 . S
C404 C401 1.357 . S
C404 C405 1.312 . S
C405 H376 0.930 . S
C405 C400 1.261 . S
C405 C404 1.312 . S
C406 O378 1.214 . S
C406 O386 1.234 . S
C407 H379 0.929 . S
C407 C410 1.391 . S
C407 C412 1.391 . S
C408 H380 0.929 . S
C408 C409 1.390 1_655 S
C408 N411 1.391 . S
C409 H381 0.930 . S
C409 C408 1.390 1_455 S
C409 C410 1.392 1_455 S
C410 H382 0.929 1_655 S
C410 C407 1.391 . S
C410 C409 1.392 1_655 S
N411 Co355 2.257 . S
N411 C408 1.391 . S
N411 C412 1.388 . S
C412 H383 0.930 . S
C412 C407 1.391 . S
C412 N411 1.388 . S
Co413 O415 2.143 . S
Co413 O421 2.074 . S
Co413 O424 2.093 . S
Co413 O437 2.097 . S
Co413 N454 2.151 . S
Co413 N462 2.214 . S
Co414 O415 2.160 . S
Co414 O420 2.058 . S
Co414 O430 2.057 . S
Co414 O445 2.037 . S
Co414 N449 2.145 . S
Co414 N470 2.257 . S
O415 Co413 2.143 . S
O415 Co414 2.160 . S
C416 O417 1.278 . S
C416 O424 1.224 . S
O417 C416 1.278 . S
C418 O419 1.245 . S
C418 O430 1.232 . S
O419 C418 1.245 . S
O420 Co414 2.058 . S
O420 C446 1.269 . S
O421 Co413 2.074 . S
O421 C446 1.257 . S
H422 C447 0.930 . S
H423 C453 0.930 . S
O424 Co413 2.093 . S
O424 C416 1.224 . S
H425 C457 0.995 . S
H426 C459 0.930 . S
H427 C460 0.930 1_554 S
H428 C458 0.929 . S
H429 C461 0.914 1_554 S
O430 Co414 2.057 . S
O430 C418 1.232 . S
H431 C450 0.929 . S
H432 C451 0.929 . S
H433 C463 0.931 . S
H434 C455 0.929 . S
H435 C464 0.930 . S
H436 C456 0.931 . S
O437 Co413 2.097 . S
O437 C465 1.214 . S
H438 C466 0.929 . S
H439 C467 0.929 . S
H440 C468 0.930 . S
H441 C469 0.929 1_565 S
H442 C471 0.930 . S
H443 C448 0.930 . S
H444 C452 0.930 . S
O445 Co414 2.037 . S
O445 C465 1.234 . S
C446 O420 1.269 . S
C446 O421 1.257 . S
C447 H422 0.930 . S
C447 C450 1.388 . S
C447 C452 1.418 . S
C448 H443 0.930 . S
C448 C451 1.404 . S
C448 C452 1.353 . S
N449 Co414 2.145 . S
N449 C450 1.397 . S
N449 C451 1.334 . S
C450 H431 0.929 . S
C450 C447 1.388 . S
C450 N449 1.397 . S
C451 H432 0.929 . S
C451 C448 1.404 . S
C451 N449 1.334 . S
C452 H444 0.930 . S
C452 C447 1.418 . S
C452 C448 1.353 . S
C453 H423 0.930 . S
C453 N454 1.330 . S
C453 C455 1.446 . S
N454 Co413 2.151 . S
N454 C453 1.330 . S
N454 C458 1.418 . S
C455 H434 0.929 . S
C455 C453 1.446 . S
C455 C456 1.332 . S
C456 H436 0.931 . S
C456 C455 1.332 . S
C456 C457 1.267 . S
C457 H425 0.995 . S
C457 C456 1.267 . S
C457 C458 1.251 . S
C458 H428 0.929 . S
C458 N454 1.418 . S
C458 C457 1.251 . S
C459 H426 0.930 . S
C459 C461 1.406 . S
C459 C464 1.261 . S
C460 H427 0.930 1_556 S
C460 N462 1.325 1_556 S
C460 C463 1.357 . S
C461 H429 0.914 1_556 S
C461 C459 1.406 . S
C461 N462 1.261 1_556 S
N462 Co413 2.214 . S
N462 C460 1.325 1_554 S
N462 C461 1.261 1_554 S
C463 H433 0.931 . S
C463 C460 1.357 . S
C463 C464 1.312 . S
C464 H435 0.930 . S
C464 C459 1.261 . S
C464 C463 1.312 . S
C465 O437 1.214 . S
C465 O445 1.234 . S
C466 H438 0.929 . S
C466 C469 1.391 . S
C466 C471 1.391 . S
C467 H439 0.929 . S
C467 C468 1.390 1_545 S
C467 N470 1.391 . S
C468 H440 0.930 . S
C468 C467 1.390 1_565 S
C468 C469 1.392 1_565 S
C469 H441 0.929 1_545 S
C469 C466 1.391 . S
C469 C468 1.392 1_545 S
N470 Co414 2.257 . S
N470 C467 1.391 . S
N470 C471 1.388 . S
C471 H442 0.930 . S
C471 C466 1.391 . S
C471 N470 1.388 . S
Co472 O474 2.143 . S
Co472 O480 2.074 . S
Co472 O483 2.093 . S
Co472 O496 2.097 . S
Co472 N513 2.151 . S
Co472 N521 2.214 . S
Co473 O474 2.160 . S
Co473 O479 2.058 . S
Co473 O489 2.057 . S
Co473 O504 2.037 . S
Co473 N508 2.145 . S
Co473 N529 2.257 . S
O474 Co472 2.143 . S
O474 Co473 2.160 . S
C475 O476 1.278 . S
C475 O483 1.224 . S
O476 C475 1.278 . S
C477 O478 1.245 . S
C477 O489 1.232 . S
O478 C477 1.245 . S
O479 Co473 2.058 . S
O479 C505 1.269 . S
O480 Co472 2.074 . S
O480 C505 1.257 . S
H481 C506 0.930 . S
H482 C512 0.930 . S
O483 Co472 2.093 . S
O483 C475 1.224 . S
H484 C516 0.929 . S
H485 C518 0.930 . S
H486 C519 0.930 . S
H487 C517 0.929 . S
H488 C520 0.928 . S
O489 Co473 2.057 . S
O489 C477 1.232 . S
H490 C509 0.929 . S
H491 C510 0.929 . S
H492 C522 0.931 . S
H493 C514 0.929 . S
H494 C523 0.930 . S
H495 C515 0.931 . S
O496 Co472 2.097 . S
O496 C524 1.214 . S
H497 C525 0.929 . S
H498 C526 0.929 . S
H499 C527 0.930 . S
H500 C528 0.929 . S
H501 C530 0.930 . S
H502 C507 0.930 . S
H503 C511 0.930 . S
O504 Co473 2.037 . S
O504 C524 1.234 . S
C505 O479 1.269 . S
C505 O480 1.257 . S
C506 H481 0.930 . S
C506 C509 1.388 . S
C506 C511 1.418 . S
C507 H502 0.930 . S
C507 C510 1.404 . S
C507 C511 1.353 . S
N508 Co473 2.145 . S
N508 C509 1.397 . S
N508 C510 1.334 . S
C509 H490 0.929 . S
C509 C506 1.388 . S
C509 N508 1.397 . S
C510 H491 0.929 . S
C510 C507 1.404 . S
C510 N508 1.334 . S
C511 H503 0.930 . S
C511 C506 1.418 . S
C511 C507 1.353 . S
C512 H482 0.930 . S
C512 N513 1.330 . S
C512 C514 1.446 . S
N513 Co472 2.151 . S
N513 C512 1.330 . S
N513 C517 1.418 . S
C514 H493 0.929 . S
C514 C512 1.446 . S
C514 C515 1.332 . S
C515 H495 0.931 . S
C515 C514 1.332 . S
C515 C516 1.267 . S
C516 H484 0.929 . S
C516 C515 1.267 . S
C516 C517 1.251 . S
C517 H487 0.929 . S
C517 N513 1.418 . S
C517 C516 1.251 . S
C518 H485 0.930 . S
C518 C520 1.406 . S
C518 C523 1.261 . S
C519 H486 0.930 . S
C519 N521 1.325 . S
C519 C522 1.357 . S
C520 H488 0.928 . S
C520 C518 1.406 . S
C520 N521 1.261 . S
N521 Co472 2.214 . S
N521 C519 1.325 . S
N521 C520 1.261 . S
C522 H492 0.931 . S
C522 C519 1.357 . S
C522 C523 1.312 . S
C523 H494 0.930 . S
C523 C518 1.261 . S
C523 C522 1.312 . S
C524 O496 1.214 . S
C524 O504 1.234 . S
C525 H497 0.929 . S
C525 C528 1.391 . S
C525 C530 1.391 . S
C526 H498 0.929 . S
C526 C527 1.390 . S
C526 N529 1.391 . S
C527 H499 0.930 . S
C527 C526 1.390 . S
C527 C528 1.392 . S
C528 H500 0.929 . S
C528 C525 1.391 . S
C528 C527 1.392 . S
N529 Co473 2.257 . S
N529 C526 1.391 . S
N529 C530 1.388 . S
C530 H501 0.930 . S
C530 C525 1.391 . S
C530 N529 1.388 . S
Co531 O533 2.143 . S
Co531 O539 2.074 . S
Co531 O542 2.093 . S
Co531 O555 2.097 . S
Co531 N572 2.151 . S
Co531 N580 2.214 . S
Co532 O533 2.160 . S
Co532 O538 2.058 . S
Co532 O548 2.057 . S
Co532 O563 2.037 . S
Co532 N567 2.145 . S
Co532 N588 2.257 . S
O533 Co531 2.143 . S
O533 Co532 2.160 . S
C534 O535 1.278 . S
C534 O542 1.224 . S
O535 C534 1.278 . S
C536 O537 1.245 . S
C536 O548 1.232 . S
O537 C536 1.245 . S
O538 Co532 2.058 . S
O538 C564 1.269 . S
O539 Co531 2.074 . S
O539 C564 1.257 . S
H540 C565 0.930 . S
H541 C571 0.930 . S
O542 Co531 2.093 . S
O542 C534 1.224 . S
H543 C575 0.929 . S
H544 C577 0.930 . S
H545 C578 0.930 . S
H546 C576 0.929 . S
H547 C579 0.928 . S
O548 Co532 2.057 . S
O548 C536 1.232 . S
H549 C568 0.929 . S
H550 C569 0.929 . S
H551 C581 0.931 . S
H552 C573 0.929 . S
H553 C582 0.930 . S
H554 C574 0.931 . S
O555 Co531 2.097 . S
O555 C583 1.214 . S
H556 C584 0.929 . S
H557 C585 0.929 . S
H558 C586 0.930 . S
H559 C587 0.929 . S
H560 C589 0.930 . S
H561 C566 0.930 . S
H562 C570 0.930 . S
O563 Co532 2.037 . S
O563 C583 1.234 . S
C564 O538 1.269 . S
C564 O539 1.257 . S
C565 H540 0.930 . S
C565 C568 1.388 . S
C565 C570 1.418 . S
C566 H561 0.930 . S
C566 C569 1.404 . S
C566 C570 1.353 . S
N567 Co532 2.145 . S
N567 C568 1.397 . S
N567 C569 1.334 . S
C568 H549 0.929 . S
C568 C565 1.388 . S
C568 N567 1.397 . S
C569 H550 0.929 . S
C569 C566 1.404 . S
C569 N567 1.334 . S
C570 H562 0.930 . S
C570 C565 1.418 . S
C570 C566 1.353 . S
C571 H541 0.930 . S
C571 N572 1.330 . S
C571 C573 1.446 . S
N572 Co531 2.151 . S
N572 C571 1.330 . S
N572 C576 1.418 . S
C573 H552 0.929 . S
C573 C571 1.446 . S
C573 C574 1.332 . S
C574 H554 0.931 . S
C574 C573 1.332 . S
C574 C575 1.267 . S
C575 H543 0.929 . S
C575 C574 1.267 . S
C575 C576 1.251 . S
C576 H546 0.929 . S
C576 N572 1.418 . S
C576 C575 1.251 . S
C577 H544 0.930 . S
C577 C579 1.406 . S
C577 C582 1.261 . S
C578 H545 0.930 . S
C578 N580 1.325 . S
C578 C581 1.357 . S
C579 H547 0.928 . S
C579 C577 1.406 . S
C579 N580 1.261 . S
N580 Co531 2.214 . S
N580 C578 1.325 . S
N580 C579 1.261 . S
C581 H551 0.931 . S
C581 C578 1.357 . S
C581 C582 1.312 . S
C582 H553 0.930 . S
C582 C577 1.261 . S
C582 C581 1.312 . S
C583 O555 1.214 . S
C583 O563 1.234 . S
C584 H556 0.929 . S
C584 C587 1.391 . S
C584 C589 1.391 . S
C585 H557 0.929 . S
C585 C586 1.390 . S
C585 N588 1.391 . S
C586 H558 0.930 . S
C586 C585 1.390 . S
C586 C587 1.392 . S
C587 H559 0.929 . S
C587 C584 1.391 . S
C587 C586 1.392 . S
N588 Co532 2.257 . S
N588 C585 1.391 . S
N588 C589 1.388 . S
C589 H560 0.930 . S
C589 C584 1.391 . S
C589 N588 1.388 . S
Co590 O592 2.143 . S
Co590 O598 2.074 . S
Co590 O601 2.093 . S
Co590 O614 2.097 . S
Co590 N631 2.151 . S
Co590 N639 2.214 . S
Co591 O592 2.160 . S
Co591 O597 2.058 . S
Co591 O607 2.057 . S
Co591 O622 2.037 . S
Co591 N626 2.145 . S
Co591 N647 2.257 . S
O592 Co590 2.143 . S
O592 Co591 2.160 . S
C593 O594 1.278 . S
C593 O601 1.224 . S
O594 C593 1.278 . S
C595 O596 1.245 . S
C595 O607 1.232 . S
O596 C595 1.245 . S
O597 Co591 2.058 . S
O597 C623 1.269 . S
O598 Co590 2.074 . S
O598 C623 1.257 . S
H599 C624 0.930 . S
H600 C630 0.930 . S
O601 Co590 2.093 . S
O601 C593 1.224 . S
H602 C634 0.929 . S
H603 C636 0.930 . S
H604 C637 0.930 . S
H605 C635 0.929 . S
H606 C638 0.928 . S
O607 Co591 2.057 . S
O607 C595 1.232 . S
H608 C627 0.929 . S
H609 C628 0.929 . S
H610 C640 0.931 . S
H611 C632 0.929 . S
H612 C641 0.930 . S
H613 C633 0.931 . S
O614 Co590 2.097 . S
O614 C642 1.214 . S
H615 C643 0.929 . S
H616 C644 0.929 . S
H617 C645 0.930 . S
H618 C646 0.929 . S
H619 C648 0.930 . S
H620 C625 0.930 . S
H621 C629 0.930 . S
O622 Co591 2.037 . S
O622 C642 1.234 . S
C623 O597 1.269 . S
C623 O598 1.257 . S
C624 H599 0.930 . S
C624 C627 1.388 . S
C624 C629 1.418 . S
C625 H620 0.930 . S
C625 C628 1.404 . S
C625 C629 1.353 . S
N626 Co591 2.145 . S
N626 C627 1.397 . S
N626 C628 1.334 . S
C627 H608 0.929 . S
C627 C624 1.388 . S
C627 N626 1.397 . S
C628 H609 0.929 . S
C628 C625 1.404 . S
C628 N626 1.334 . S
C629 H621 0.930 . S
C629 C624 1.418 . S
C629 C625 1.353 . S
C630 H600 0.930 . S
C630 N631 1.330 . S
C630 C632 1.446 . S
N631 Co590 2.151 . S
N631 C630 1.330 . S
N631 C635 1.418 . S
C632 H611 0.929 . S
C632 C630 1.446 . S
C632 C633 1.332 . S
C633 H613 0.931 . S
C633 C632 1.332 . S
C633 C634 1.267 . S
C634 H602 0.929 . S
C634 C633 1.267 . S
C634 C635 1.251 . S
C635 H605 0.929 . S
C635 N631 1.418 . S
C635 C634 1.251 . S
C636 H603 0.930 . S
C636 C638 1.406 . S
C636 C641 1.261 . S
C637 H604 0.930 . S
C637 N639 1.325 . S
C637 C640 1.357 . S
C638 H606 0.928 . S
C638 C636 1.406 . S
C638 N639 1.261 . S
N639 Co590 2.214 . S
N639 C637 1.325 . S
N639 C638 1.261 . S
C640 H610 0.931 . S
C640 C637 1.357 . S
C640 C641 1.312 . S
C641 H612 0.930 . S
C641 C636 1.261 . S
C641 C640 1.312 . S
C642 O614 1.214 . S
C642 O622 1.234 . S
C643 H615 0.929 . S
C643 C646 1.391 . S
C643 C648 1.391 . S
C644 H616 0.929 . S
C644 C645 1.390 . S
C644 N647 1.391 . S
C645 H617 0.930 . S
C645 C644 1.390 . S
C645 C646 1.392 . S
C646 H618 0.929 . S
C646 C643 1.391 . S
C646 C645 1.392 . S
N647 Co591 2.257 . S
N647 C644 1.391 . S
N647 C648 1.388 . S
C648 H619 0.930 . S
C648 C643 1.391 . S
C648 N647 1.388 . S
Co649 O651 2.143 . S
Co649 O657 2.074 . S
Co649 O660 2.093 . S
Co649 O673 2.097 . S
Co649 N690 2.151 . S
Co649 N698 2.214 . S
Co650 O651 2.160 . S
Co650 O656 2.058 . S
Co650 O666 2.057 . S
Co650 O681 2.037 . S
Co650 N685 2.145 . S
Co650 N706 2.257 . S
O651 Co649 2.143 . S
O651 Co650 2.160 . S
C652 O653 1.278 . S
C652 O660 1.224 . S
O653 C652 1.278 . S
C654 O655 1.245 . S
C654 O666 1.232 . S
O655 C654 1.245 . S
O656 Co650 2.058 . S
O656 C682 1.269 . S
O657 Co649 2.074 . S
O657 C682 1.257 . S
H658 C683 0.930 . S
H659 C689 0.930 . S
O660 Co649 2.093 . S
O660 C652 1.224 . S
H661 C693 0.929 . S
H662 C695 0.930 . S
H663 C696 0.930 . S
H664 C694 0.929 . S
H665 C697 0.928 . S
O666 Co650 2.057 . S
O666 C654 1.232 . S
H667 C686 0.929 . S
H668 C687 0.929 . S
H669 C699 0.931 . S
H670 C691 0.929 . S
H671 C700 0.930 . S
H672 C692 0.931 . S
O673 Co649 2.097 . S
O673 C701 1.214 . S
H674 C702 0.929 . S
H675 C703 0.929 . S
H676 C704 0.930 . S
H677 C705 0.929 . S
H678 C707 0.930 . S
H679 C684 0.930 . S
H680 C688 0.930 . S
O681 Co650 2.037 . S
O681 C701 1.234 . S
C682 O656 1.269 . S
C682 O657 1.257 . S
C683 H658 0.930 . S
C683 C686 1.388 . S
C683 C688 1.418 . S
C684 H679 0.930 . S
C684 C687 1.404 . S
C684 C688 1.353 . S
N685 Co650 2.145 . S
N685 C686 1.397 . S
N685 C687 1.334 . S
C686 H667 0.929 . S
C686 C683 1.388 . S
C686 N685 1.397 . S
C687 H668 0.929 . S
C687 C684 1.404 . S
C687 N685 1.334 . S
C688 H680 0.930 . S
C688 C683 1.418 . S
C688 C684 1.353 . S
C689 H659 0.930 . S
C689 N690 1.330 . S
C689 C691 1.446 . S
N690 Co649 2.151 . S
N690 C689 1.330 . S
N690 C694 1.418 . S
C691 H670 0.929 . S
C691 C689 1.446 . S
C691 C692 1.332 . S
C692 H672 0.931 . S
C692 C691 1.332 . S
C692 C693 1.267 . S
C693 H661 0.929 . S
C693 C692 1.267 . S
C693 C694 1.251 . S
C694 H664 0.929 . S
C694 N690 1.418 . S
C694 C693 1.251 . S
C695 H662 0.930 . S
C695 C697 1.406 . S
C695 C700 1.261 . S
C696 H663 0.930 . S
C696 N698 1.325 . S
C696 C699 1.357 . S
C697 H665 0.928 . S
C697 C695 1.406 . S
C697 N698 1.261 . S
N698 Co649 2.214 . S
N698 C696 1.325 . S
N698 C697 1.261 . S
C699 H669 0.931 . S
C699 C696 1.357 . S
C699 C700 1.312 . S
C700 H671 0.930 . S
C700 C695 1.261 . S
C700 C699 1.312 . S
C701 O673 1.214 . S
C701 O681 1.234 . S
C702 H674 0.929 . S
C702 C705 1.391 . S
C702 C707 1.391 . S
C703 H675 0.929 . S
C703 C704 1.390 . S
C703 N706 1.391 . S
C704 H676 0.930 . S
C704 C703 1.390 . S
C704 C705 1.392 . S
C705 H677 0.929 . S
C705 C702 1.391 . S
C705 C704 1.392 . S
N706 Co650 2.257 . S
N706 C703 1.391 . S
N706 C707 1.388 . S
C707 H678 0.930 . S
C707 C702 1.391 . S
C707 N706 1.388 . S
Co708 O710 2.143 . S
Co708 O716 2.074 . S
Co708 O719 2.093 . S
Co708 O732 2.097 . S
Co708 N749 2.151 . S
Co708 N757 2.214 . S
Co709 O710 2.160 . S
Co709 O715 2.058 . S
Co709 O725 2.057 . S
Co709 O740 2.037 . S
Co709 N744 2.145 . S
Co709 N765 2.257 . S
O710 Co708 2.143 . S
O710 Co709 2.160 . S
C711 O712 1.278 . S
C711 O719 1.224 . S
O712 C711 1.278 . S
C713 O714 1.245 . S
C713 O725 1.232 . S
O714 C713 1.245 . S
O715 Co709 2.058 . S
O715 C741 1.269 . S
O716 Co708 2.074 . S
O716 C741 1.257 . S
H717 C742 0.930 . S
H718 C748 0.930 . S
O719 Co708 2.093 . S
O719 C711 1.224 . S
H720 C752 0.929 . S
H721 C754 0.930 . S
H722 C755 0.930 . S
H723 C753 0.929 . S
H724 C756 0.928 . S
O725 Co709 2.057 . S
O725 C713 1.232 . S
H726 C745 0.929 . S
H727 C746 0.929 . S
H728 C758 0.931 . S
H729 C750 0.929 . S
H730 C759 0.930 . S
H731 C751 0.931 . S
O732 Co708 2.097 . S
O732 C760 1.214 . S
H733 C761 0.929 . S
H734 C762 0.929 . S
H735 C763 0.930 . S
H736 C764 0.929 . S
H737 C766 0.930 . S
H738 C743 0.930 . S
H739 C747 0.930 . S
O740 Co709 2.037 . S
O740 C760 1.234 . S
C741 O715 1.269 . S
C741 O716 1.257 . S
C742 H717 0.930 . S
C742 C745 1.388 . S
C742 C747 1.418 . S
C743 H738 0.930 . S
C743 C746 1.404 . S
C743 C747 1.353 . S
N744 Co709 2.145 . S
N744 C745 1.397 . S
N744 C746 1.334 . S
C745 H726 0.929 . S
C745 C742 1.388 . S
C745 N744 1.397 . S
C746 H727 0.929 . S
C746 C743 1.404 . S
C746 N744 1.334 . S
C747 H739 0.930 . S
C747 C742 1.418 . S
C747 C743 1.353 . S
C748 H718 0.930 . S
C748 N749 1.330 . S
C748 C750 1.446 . S
N749 Co708 2.151 . S
N749 C748 1.330 . S
N749 C753 1.418 . S
C750 H729 0.929 . S
C750 C748 1.446 . S
C750 C751 1.332 . S
C751 H731 0.931 . S
C751 C750 1.332 . S
C751 C752 1.267 . S
C752 H720 0.929 . S
C752 C751 1.267 . S
C752 C753 1.251 . S
C753 H723 0.929 . S
C753 N749 1.418 . S
C753 C752 1.251 . S
C754 H721 0.930 . S
C754 C756 1.406 . S
C754 C759 1.261 . S
C755 H722 0.930 . S
C755 N757 1.325 . S
C755 C758 1.357 . S
C756 H724 0.928 . S
C756 C754 1.406 . S
C756 N757 1.261 . S
N757 Co708 2.214 . S
N757 C755 1.325 . S
N757 C756 1.261 . S
C758 H728 0.931 . S
C758 C755 1.357 . S
C758 C759 1.312 . S
C759 H730 0.930 . S
C759 C754 1.261 . S
C759 C758 1.312 . S
C760 O732 1.214 . S
C760 O740 1.234 . S
C761 H733 0.929 . S
C761 C764 1.391 . S
C761 C766 1.391 . S
C762 H734 0.929 . S
C762 C763 1.390 . S
C762 N765 1.391 . S
C763 H735 0.930 . S
C763 C762 1.390 . S
C763 C764 1.392 . S
C764 H736 0.929 . S
C764 C761 1.391 . S
C764 C763 1.392 . S
N765 Co709 2.257 . S
N765 C762 1.391 . S
N765 C766 1.388 . S
C766 H737 0.930 . S
C766 C761 1.391 . S
C766 N765 1.388 . S
Co767 O769 2.143 . S
Co767 O775 2.074 . S
Co767 O778 2.093 . S
Co767 O791 2.097 . S
Co767 N808 2.151 . S
Co767 N816 2.214 . S
Co768 O769 2.160 . S
Co768 O774 2.058 . S
Co768 O784 2.057 . S
Co768 O799 2.037 . S
Co768 N803 2.145 . S
Co768 N824 2.257 . S
O769 Co767 2.143 . S
O769 Co768 2.160 . S
C770 O771 1.278 . S
C770 O778 1.224 . S
O771 C770 1.278 . S
C772 O773 1.245 . S
C772 O784 1.232 . S
O773 C772 1.245 . S
O774 Co768 2.058 . S
O774 C800 1.269 . S
O775 Co767 2.074 . S
O775 C800 1.257 . S
H776 C801 0.930 . S
H777 C807 0.930 . S
O778 Co767 2.093 . S
O778 C770 1.224 . S
H779 C811 0.929 . S
H780 C813 0.930 . S
H781 C814 0.930 . S
H782 C812 0.929 . S
H783 C815 0.928 . S
O784 Co768 2.057 . S
O784 C772 1.232 . S
H785 C804 0.929 . S
H786 C805 0.929 . S
H787 C817 0.931 . S
H788 C809 0.929 . S
H789 C818 0.930 . S
H790 C810 0.931 . S
O791 Co767 2.097 . S
O791 C819 1.214 . S
H792 C820 0.929 . S
H793 C821 0.929 . S
H794 C822 0.930 . S
H795 C823 0.929 . S
H796 C825 0.930 . S
H797 C802 0.930 . S
H798 C806 0.930 . S
O799 Co768 2.037 . S
O799 C819 1.234 . S
C800 O774 1.269 . S
C800 O775 1.257 . S
C801 H776 0.930 . S
C801 C804 1.388 . S
C801 C806 1.418 . S
C802 H797 0.930 . S
C802 C805 1.404 . S
C802 C806 1.353 . S
N803 Co768 2.145 . S
N803 C804 1.397 . S
N803 C805 1.334 . S
C804 H785 0.929 . S
C804 C801 1.388 . S
C804 N803 1.397 . S
C805 H786 0.929 . S
C805 C802 1.404 . S
C805 N803 1.334 . S
C806 H798 0.930 . S
C806 C801 1.418 . S
C806 C802 1.353 . S
C807 H777 0.930 . S
C807 N808 1.330 . S
C807 C809 1.446 . S
N808 Co767 2.151 . S
N808 C807 1.330 . S
N808 C812 1.418 . S
C809 H788 0.929 . S
C809 C807 1.446 . S
C809 C810 1.332 . S
C810 H790 0.931 . S
C810 C809 1.332 . S
C810 C811 1.267 . S
C811 H779 0.929 . S
C811 C810 1.267 . S
C811 C812 1.251 . S
C812 H782 0.929 . S
C812 N808 1.418 . S
C812 C811 1.251 . S
C813 H780 0.930 . S
C813 C815 1.406 . S
C813 C818 1.261 . S
C814 H781 0.930 . S
C814 N816 1.325 . S
C814 C817 1.357 . S
C815 H783 0.928 . S
C815 C813 1.406 . S
C815 N816 1.261 . S
N816 Co767 2.214 . S
N816 C814 1.325 . S
N816 C815 1.261 . S
C817 H787 0.931 . S
C817 C814 1.357 . S
C817 C818 1.312 . S
C818 H789 0.930 . S
C818 C813 1.261 . S
C818 C817 1.312 . S
C819 O791 1.214 . S
C819 O799 1.234 . S
C820 H792 0.929 . S
C820 C823 1.391 . S
C820 C825 1.391 . S
C821 H793 0.929 . S
C821 C822 1.390 . S
C821 N824 1.391 . S
C822 H794 0.930 . S
C822 C821 1.390 . S
C822 C823 1.392 . S
C823 H795 0.929 . S
C823 C820 1.391 . S
C823 C822 1.392 . S
N824 Co768 2.257 . S
N824 C821 1.391 . S
N824 C825 1.388 . S
C825 H796 0.930 . S
C825 C820 1.391 . S
C825 N824 1.388 . S
Co826 O828 2.143 . S
Co826 O834 2.074 . S
Co826 O837 2.093 . S
Co826 O850 2.097 . S
Co826 N867 2.151 . S
Co826 N875 2.214 . S
Co827 O828 2.160 . S
Co827 O833 2.058 . S
Co827 O843 2.057 . S
Co827 O858 2.037 . S
Co827 N862 2.145 . S
Co827 N883 2.257 . S
O828 Co826 2.143 . S
O828 Co827 2.160 . S
C829 O830 1.278 . S
C829 O837 1.224 . S
O830 C829 1.278 . S
C831 O832 1.245 . S
C831 O843 1.232 . S
O832 C831 1.245 . S
O833 Co827 2.058 . S
O833 C859 1.269 . S
O834 Co826 2.074 . S
O834 C859 1.257 . S
H835 C860 0.930 . S
H836 C866 0.930 . S
O837 Co826 2.093 . S
O837 C829 1.224 . S
H838 C870 0.929 . S
H839 C872 0.930 . S
H840 C873 0.930 . S
H841 C871 0.929 . S
H842 C874 0.928 . S
O843 Co827 2.057 . S
O843 C831 1.232 . S
H844 C863 0.929 . S
H845 C864 0.929 . S
H846 C876 0.931 . S
H847 C868 0.929 . S
H848 C877 0.930 . S
H849 C869 0.931 . S
O850 Co826 2.097 . S
O850 C878 1.214 . S
H851 C879 0.929 . S
H852 C880 0.929 . S
H853 C881 0.930 . S
H854 C882 0.929 . S
H855 C884 0.930 . S
H856 C861 0.930 . S
H857 C865 0.930 . S
O858 Co827 2.037 . S
O858 C878 1.234 . S
C859 O833 1.269 . S
C859 O834 1.257 . S
C860 H835 0.930 . S
C860 C863 1.388 . S
C860 C865 1.418 . S
C861 H856 0.930 . S
C861 C864 1.404 . S
C861 C865 1.353 . S
N862 Co827 2.145 . S
N862 C863 1.397 . S
N862 C864 1.334 . S
C863 H844 0.929 . S
C863 C860 1.388 . S
C863 N862 1.397 . S
C864 H845 0.929 . S
C864 C861 1.404 . S
C864 N862 1.334 . S
C865 H857 0.930 . S
C865 C860 1.418 . S
C865 C861 1.353 . S
C866 H836 0.930 . S
C866 N867 1.330 . S
C866 C868 1.446 . S
N867 Co826 2.151 . S
N867 C866 1.330 . S
N867 C871 1.418 . S
C868 H847 0.929 . S
C868 C866 1.446 . S
C868 C869 1.332 . S
C869 H849 0.931 . S
C869 C868 1.332 . S
C869 C870 1.267 . S
C870 H838 0.929 . S
C870 C869 1.267 . S
C870 C871 1.251 . S
C871 H841 0.929 . S
C871 N867 1.418 . S
C871 C870 1.251 . S
C872 H839 0.930 . S
C872 C874 1.406 . S
C872 C877 1.261 . S
C873 H840 0.930 . S
C873 N875 1.325 . S
C873 C876 1.357 . S
C874 H842 0.928 . S
C874 C872 1.406 . S
C874 N875 1.261 . S
N875 Co826 2.214 . S
N875 C873 1.325 . S
N875 C874 1.261 . S
C876 H846 0.931 . S
C876 C873 1.357 . S
C876 C877 1.312 . S
C877 H848 0.930 . S
C877 C872 1.261 . S
C877 C876 1.312 . S
C878 O850 1.214 . S
C878 O858 1.234 . S
C879 H851 0.929 . S
C879 C882 1.391 . S
C879 C884 1.391 . S
C880 H852 0.929 . S
C880 C881 1.390 . S
C880 N883 1.391 . S
C881 H853 0.930 . S
C881 C880 1.390 . S
C881 C882 1.392 . S
C882 H854 0.929 . S
C882 C879 1.391 . S
C882 C881 1.392 . S
N883 Co827 2.257 . S
N883 C880 1.391 . S
N883 C884 1.388 . S
C884 H855 0.930 . S
C884 C879 1.391 . S
C884 N883 1.388 . S
Co885 O887 2.143 . S
Co885 O893 2.074 . S
Co885 O896 2.093 . S
Co885 O909 2.097 . S
Co885 N926 2.151 . S
Co885 N934 2.214 . S
Co886 O887 2.160 . S
Co886 O892 2.058 . S
Co886 O902 2.057 . S
Co886 O917 2.037 . S
Co886 N921 2.145 . S
Co886 N942 2.257 . S
O887 Co885 2.143 . S
O887 Co886 2.160 . S
C888 O889 1.278 . S
C888 O896 1.224 . S
O889 C888 1.278 . S
C890 O891 1.245 . S
C890 O902 1.232 . S
O891 C890 1.245 . S
O892 Co886 2.058 . S
O892 C918 1.269 . S
O893 Co885 2.074 . S
O893 C918 1.257 . S
H894 C919 0.930 . S
H895 C925 0.930 . S
O896 Co885 2.093 . S
O896 C888 1.224 . S
H897 C929 0.929 . S
H898 C931 0.930 . S
H899 C932 0.930 . S
H900 C930 0.929 . S
H901 C933 0.928 . S
O902 Co886 2.057 . S
O902 C890 1.232 . S
H903 C922 0.929 . S
H904 C923 0.929 . S
H905 C935 0.931 . S
H906 C927 0.929 . S
H907 C936 0.930 . S
H908 C928 0.931 . S
O909 Co885 2.097 . S
O909 C937 1.214 . S
H910 C938 0.929 . S
H911 C939 0.929 . S
H912 C940 0.930 . S
H913 C941 0.929 . S
H914 C943 0.930 . S
H915 C920 0.930 . S
H916 C924 0.930 . S
O917 Co886 2.037 . S
O917 C937 1.234 . S
C918 O892 1.269 . S
C918 O893 1.257 . S
C919 H894 0.930 . S
C919 C922 1.388 . S
C919 C924 1.418 . S
C920 H915 0.930 . S
C920 C923 1.404 . S
C920 C924 1.353 . S
N921 Co886 2.145 . S
N921 C922 1.397 . S
N921 C923 1.334 . S
C922 H903 0.929 . S
C922 C919 1.388 . S
C922 N921 1.397 . S
C923 H904 0.929 . S
C923 C920 1.404 . S
C923 N921 1.334 . S
C924 H916 0.930 . S
C924 C919 1.418 . S
C924 C920 1.353 . S
C925 H895 0.930 . S
C925 N926 1.330 . S
C925 C927 1.446 . S
N926 Co885 2.151 . S
N926 C925 1.330 . S
N926 C930 1.418 . S
C927 H906 0.929 . S
C927 C925 1.446 . S
C927 C928 1.332 . S
C928 H908 0.931 . S
C928 C927 1.332 . S
C928 C929 1.267 . S
C929 H897 0.929 . S
C929 C928 1.267 . S
C929 C930 1.251 . S
C930 H900 0.929 . S
C930 N926 1.418 . S
C930 C929 1.251 . S
C931 H898 0.930 . S
C931 C933 1.406 . S
C931 C936 1.261 . S
C932 H899 0.930 . S
C932 N934 1.325 . S
C932 C935 1.357 . S
C933 H901 0.928 . S
C933 C931 1.406 . S
C933 N934 1.261 . S
N934 Co885 2.214 . S
N934 C932 1.325 . S
N934 C933 1.261 . S
C935 H905 0.931 . S
C935 C932 1.357 . S
C935 C936 1.312 . S
C936 H907 0.930 . S
C936 C931 1.261 . S
C936 C935 1.312 . S
C937 O909 1.214 . S
C937 O917 1.234 . S
C938 H910 0.929 . S
C938 C941 1.391 . S
C938 C943 1.391 . S
C939 H911 0.929 . S
C939 C940 1.390 . S
C939 N942 1.391 . S
C940 H912 0.930 . S
C940 C939 1.390 . S
C940 C941 1.392 . S
C941 H913 0.929 . S
C941 C938 1.391 . S
C941 C940 1.392 . S
N942 Co886 2.257 . S
N942 C939 1.391 . S
N942 C943 1.388 . S
C943 H914 0.930 . S
C943 C938 1.391 . S
C943 N942 1.388 . S
H944 C962 0.951 . S
H945 C964 0.951 . S
H946 C966 0.950 . S
H947 C967 0.950 . S
H948 C969 0.950 . S
H949 C972 0.950 . S
H950 C973 0.950 . S
H951 C975 0.950 . S
H952 C976 0.950 . S
H953 C977 0.951 . S
H954 C979 0.951 . S
H955 C981 0.950 . S
H956 C982 0.950 . S
H957 C984 0.950 . S
H958 C987 0.950 . S
H959 C988 0.950 . S
H960 C990 0.950 . S
H961 C991 0.950 . S
C962 H944 0.951 . S
C962 C963 1.366 . S
C962 C964 1.388 . S
C963 C962 1.366 . S
C963 C967 1.385 . S
C964 H945 0.951 . S
C964 C962 1.388 . S
C964 C965 1.366 . S
C965 C964 1.366 . S
C965 C966 1.414 . S
C965 C968 1.499 . S
C966 H946 0.950 . S
C966 C965 1.414 . S
C966 C967 1.374 . S
C967 H947 0.950 . S
C967 C963 1.385 . S
C967 C966 1.374 . S
C968 C965 1.499 . S
C968 C969 1.373 . S
C968 C970 1.389 . S
C969 H948 0.950 . S
C969 C968 1.373 . S
C969 C985 1.377 . S
C970 C968 1.389 . S
C970 C971 1.524 . S
C970 C984 1.377 . S
C971 C970 1.524 . S
C971 C972 1.397 . S
C971 C976 1.363 . S
C972 H949 0.950 . S
C972 C971 1.397 . S
C972 C973 1.334 . S
C973 H950 0.950 . S
C973 C972 1.334 . S
C973 C974 1.287 . S
C974 C973 1.287 . S
C974 C975 1.524 . S
C974 H993 0.913 . S
C975 H951 0.950 . S
C975 C974 1.524 . S
C975 C976 1.415 . S
C976 H952 0.950 . S
C976 C971 1.363 . S
C976 C975 1.415 . S
C977 H953 0.951 . S
C977 C978 1.366 . S
C977 C979 1.388 . S
C978 C977 1.366 . S
C978 C982 1.385 . S
C979 H954 0.951 . S
C979 C977 1.388 . S
C979 C980 1.366 . S
C980 C979 1.366 . S
C980 C981 1.414 . S
C980 C983 1.499 . S
C981 H955 0.950 . S
C981 C980 1.414 . S
C981 C982 1.374 . S
C982 H956 0.950 . S
C982 C978 1.385 . S
C982 C981 1.374 . S
C983 C980 1.499 . S
C983 C984 1.373 . S
C983 C985 1.389 . S
C984 H957 0.950 . S
C984 C970 1.377 . S
C984 C983 1.373 . S
C985 C969 1.377 . S
C985 C983 1.389 . S
C985 C986 1.524 . S
C986 C985 1.524 . S
C986 C987 1.397 . S
C986 C991 1.363 . S
C987 H958 0.950 . S
C987 C986 1.397 . S
C987 C988 1.334 . S
C988 H959 0.950 . S
C988 C987 1.334 . S
C988 C989 1.287 . S
C989 C988 1.287 . S
C989 C990 1.524 . S
C989 H992 0.999 . S
C990 H960 0.950 . S
C990 C989 1.524 . S
C990 C991 1.415 . S
C991 H961 0.950 . S
C991 C986 1.363 . S
C991 C990 1.415 . S
H992 C989 0.999 . S
H993 C974 0.913 . S
H994 C1012 0.951 . S
H995 C1014 0.951 . S
H996 C1016 0.950 . S
H997 C1017 0.950 . S
H998 C1019 0.950 . S
H999 C1022 0.950 . S
H1000 C1023 0.950 . S
H1001 C1025 0.950 . S
H1002 C1026 0.950 . S
H1003 C1027 0.951 . S
H1004 C1029 0.951 . S
H1005 C1031 0.950 . S
H1006 C1032 0.950 . S
H1007 C1034 0.950 . S
H1008 C1037 0.950 . S
H1009 C1038 0.950 . S
H1010 C1040 0.950 . S
H1011 C1041 0.950 . S
C1012 H994 0.951 . S
C1012 C1013 1.366 . S
C1012 C1014 1.388 . S
C1013 C1012 1.366 . S
C1013 C1017 1.385 . S
C1014 H995 0.951 . S
C1014 C1012 1.388 . S
C1014 C1015 1.366 . S
C1015 C1014 1.366 . S
C1015 C1016 1.414 . S
C1015 C1018 1.499 . S
C1016 H996 0.950 . S
C1016 C1015 1.414 . S
C1016 C1017 1.374 . S
C1017 H997 0.950 . S
C1017 C1013 1.385 . S
C1017 C1016 1.374 . S
C1018 C1015 1.499 . S
C1018 C1019 1.373 . S
C1018 C1020 1.389 . S
C1019 H998 0.950 . S
C1019 C1018 1.373 . S
C1019 C1035 1.377 . S
C1020 C1018 1.389 . S
C1020 C1021 1.524 . S
C1020 C1034 1.377 . S
C1021 C1020 1.524 . S
C1021 C1022 1.397 . S
C1021 C1026 1.363 . S
C1022 H999 0.950 . S
C1022 C1021 1.397 . S
C1022 C1023 1.334 . S
C1023 H1000 0.950 . S
C1023 C1022 1.334 . S
C1023 C1024 1.287 . S
C1024 C1023 1.287 . S
C1024 C1025 1.524 . S
C1024 H1043 0.913 . S
C1025 H1001 0.950 . S
C1025 C1024 1.524 . S
C1025 C1026 1.415 . S
C1026 H1002 0.950 . S
C1026 C1021 1.363 . S
C1026 C1025 1.415 . S
C1027 H1003 0.951 . S
C1027 C1028 1.366 . S
C1027 C1029 1.388 . S
C1028 C1027 1.366 . S
C1028 C1032 1.385 . S
C1029 H1004 0.951 . S
C1029 C1027 1.388 . S
C1029 C1030 1.366 . S
C1030 C1029 1.366 . S
C1030 C1031 1.414 . S
C1030 C1033 1.499 . S
C1031 H1005 0.950 . S
C1031 C1030 1.414 . S
C1031 C1032 1.374 . S
C1032 H1006 0.950 . S
C1032 C1028 1.385 . S
C1032 C1031 1.374 . S
C1033 C1030 1.499 . S
C1033 C1034 1.373 . S
C1033 C1035 1.389 . S
C1034 H1007 0.950 . S
C1034 C1020 1.377 . S
C1034 C1033 1.373 . S
C1035 C1019 1.377 . S
C1035 C1033 1.389 . S
C1035 C1036 1.524 . S
C1036 C1035 1.524 . S
C1036 C1037 1.397 . S
C1036 C1041 1.363 . S
C1037 H1008 0.950 . S
C1037 C1036 1.397 . S
C1037 C1038 1.334 . S
C1038 H1009 0.950 . S
C1038 C1037 1.334 . S
C1038 C1039 1.287 . S
C1039 C1038 1.287 . S
C1039 C1040 1.524 . S
C1039 H1042 0.999 . S
C1040 H1010 0.950 . S
C1040 C1039 1.524 . S
C1040 C1041 1.415 . S
C1041 H1011 0.950 . S
C1041 C1036 1.363 . S
C1041 C1040 1.415 . S
H1042 C1039 0.999 . S
H1043 C1024 0.913 . S
H1044 C1062 0.951 . S
H1045 C1064 0.951 . S
H1046 C1066 0.950 . S
H1047 C1067 0.950 . S
H1048 C1069 0.950 . S
H1049 C1072 0.950 . S
H1050 C1073 0.950 . S
H1051 C1075 0.950 . S
H1052 C1076 0.950 . S
H1053 C1077 0.951 . S
H1054 C1079 0.951 . S
H1055 C1081 0.950 . S
H1056 C1082 0.950 . S
H1057 C1084 0.950 . S
H1058 C1087 0.950 . S
H1059 C1088 0.950 . S
H1060 C1090 0.950 . S
H1061 C1091 0.950 . S
C1062 H1044 0.951 . S
C1062 C1063 1.366 . S
C1062 C1064 1.388 . S
C1063 C1062 1.366 . S
C1063 C1067 1.385 . S
C1064 H1045 0.951 . S
C1064 C1062 1.388 . S
C1064 C1065 1.366 . S
C1065 C1064 1.366 . S
C1065 C1066 1.414 . S
C1065 C1068 1.499 . S
C1066 H1046 0.950 . S
C1066 C1065 1.414 . S
C1066 C1067 1.374 . S
C1067 H1047 0.950 . S
C1067 C1063 1.385 . S
C1067 C1066 1.374 . S
C1068 C1065 1.499 . S
C1068 C1069 1.373 . S
C1068 C1070 1.389 . S
C1069 H1048 0.950 . S
C1069 C1068 1.373 . S
C1069 C1085 1.377 . S
C1070 C1068 1.389 . S
C1070 C1071 1.524 . S
C1070 C1084 1.377 . S
C1071 C1070 1.524 . S
C1071 C1072 1.397 . S
C1071 C1076 1.363 . S
C1072 H1049 0.950 . S
C1072 C1071 1.397 . S
C1072 C1073 1.334 . S
C1073 H1050 0.950 . S
C1073 C1072 1.334 . S
C1073 C1074 1.287 . S
C1074 C1073 1.287 . S
C1074 C1075 1.524 . S
C1074 H1093 0.913 . S
C1075 H1051 0.950 . S
C1075 C1074 1.524 . S
C1075 C1076 1.415 . S
C1076 H1052 0.950 . S
C1076 C1071 1.363 . S
C1076 C1075 1.415 . S
C1077 H1053 0.951 . S
C1077 C1078 1.366 . S
C1077 C1079 1.388 . S
C1078 C1077 1.366 . S
C1078 C1082 1.385 . S
C1079 H1054 0.951 . S
C1079 C1077 1.388 . S
C1079 C1080 1.366 . S
C1080 C1079 1.366 . S
C1080 C1081 1.414 . S
C1080 C1083 1.499 . S
C1081 H1055 0.950 . S
C1081 C1080 1.414 . S
C1081 C1082 1.374 . S
C1082 H1056 0.950 . S
C1082 C1078 1.385 . S
C1082 C1081 1.374 . S
C1083 C1080 1.499 . S
C1083 C1084 1.373 . S
C1083 C1085 1.389 . S
C1084 H1057 0.950 . S
C1084 C1070 1.377 . S
C1084 C1083 1.373 . S
C1085 C1069 1.377 . S
C1085 C1083 1.389 . S
C1085 C1086 1.524 . S
C1086 C1085 1.524 . S
C1086 C1087 1.397 . S
C1086 C1091 1.363 . S
C1087 H1058 0.950 . S
C1087 C1086 1.397 . S
C1087 C1088 1.334 . S
C1088 H1059 0.950 . S
C1088 C1087 1.334 . S
C1088 C1089 1.287 . S
C1089 C1088 1.287 . S
C1089 C1090 1.524 . S
C1089 H1092 0.999 . S
C1090 H1060 0.950 . S
C1090 C1089 1.524 . S
C1090 C1091 1.415 . S
C1091 H1061 0.950 . S
C1091 C1086 1.363 . S
C1091 C1090 1.415 . S
H1092 C1089 0.999 . S
H1093 C1074 0.913 . S
H1094 C1112 0.951 . S
H1095 C1114 0.951 . S
H1096 C1116 0.950 . S
H1097 C1117 0.950 . S
H1098 C1119 0.950 . S
H1099 C1122 0.950 . S
H1100 C1123 0.950 . S
H1101 C1125 0.950 . S
H1102 C1126 0.950 . S
H1103 C1127 0.951 . S
H1104 C1129 0.951 . S
H1105 C1131 0.950 . S
H1106 C1132 0.950 . S
H1107 C1134 0.950 . S
H1108 C1137 0.950 . S
H1109 C1138 0.950 . S
H1110 C1140 0.950 . S
H1111 C1141 0.950 . S
C1112 H1094 0.951 . S
C1112 C1113 1.366 . S
C1112 C1114 1.388 . S
C1113 C1112 1.366 . S
C1113 C1117 1.385 . S
C1114 H1095 0.951 . S
C1114 C1112 1.388 . S
C1114 C1115 1.366 . S
C1115 C1114 1.366 . S
C1115 C1116 1.414 . S
C1115 C1118 1.499 . S
C1116 H1096 0.950 . S
C1116 C1115 1.414 . S
C1116 C1117 1.374 . S
C1117 H1097 0.950 . S
C1117 C1113 1.385 . S
C1117 C1116 1.374 . S
C1118 C1115 1.499 . S
C1118 C1119 1.373 . S
C1118 C1120 1.389 . S
C1119 H1098 0.950 . S
C1119 C1118 1.373 . S
C1119 C1135 1.377 . S
C1120 C1118 1.389 . S
C1120 C1121 1.524 . S
C1120 C1134 1.377 . S
C1121 C1120 1.524 . S
C1121 C1122 1.397 . S
C1121 C1126 1.363 . S
C1122 H1099 0.950 . S
C1122 C1121 1.397 . S
C1122 C1123 1.334 . S
C1123 H1100 0.950 . S
C1123 C1122 1.334 . S
C1123 C1124 1.287 . S
C1124 C1123 1.287 . S
C1124 C1125 1.524 . S
C1124 H1143 0.913 . S
C1125 H1101 0.950 . S
C1125 C1124 1.524 . S
C1125 C1126 1.415 . S
C1126 H1102 0.950 . S
C1126 C1121 1.363 . S
C1126 C1125 1.415 . S
C1127 H1103 0.951 . S
C1127 C1128 1.366 . S
C1127 C1129 1.388 . S
C1128 C1127 1.366 . S
C1128 C1132 1.385 . S
C1129 H1104 0.951 . S
C1129 C1127 1.388 . S
C1129 C1130 1.366 . S
C1130 C1129 1.366 . S
C1130 C1131 1.414 . S
C1130 C1133 1.499 . S
C1131 H1105 0.950 . S
C1131 C1130 1.414 . S
C1131 C1132 1.374 . S
C1132 H1106 0.950 . S
C1132 C1128 1.385 . S
C1132 C1131 1.374 . S
C1133 C1130 1.499 . S
C1133 C1134 1.373 . S
C1133 C1135 1.389 . S
C1134 H1107 0.950 . S
C1134 C1120 1.377 . S
C1134 C1133 1.373 . S
C1135 C1119 1.377 . S
C1135 C1133 1.389 . S
C1135 C1136 1.524 . S
C1136 C1135 1.524 . S
C1136 C1137 1.397 . S
C1136 C1141 1.363 . S
C1137 H1108 0.950 . S
C1137 C1136 1.397 . S
C1137 C1138 1.334 . S
C1138 H1109 0.950 . S
C1138 C1137 1.334 . S
C1138 C1139 1.287 . S
C1139 C1138 1.287 . S
C1139 C1140 1.524 . S
C1139 H1142 0.999 . S
C1140 H1110 0.950 . S
C1140 C1139 1.524 . S
C1140 C1141 1.415 . S
C1141 H1111 0.950 . S
C1141 C1136 1.363 . S
C1141 C1140 1.415 . S
H1142 C1139 0.999 . S
H1143 C1124 0.913 . S
H1144 C1162 0.951 . S
H1145 C1164 0.951 . S
H1146 C1166 0.950 . S
H1147 C1167 0.950 . S
H1148 C1169 0.950 . S
H1149 C1172 0.950 . S
H1150 C1173 0.950 1_565 S
H1151 C1175 0.950 1_565 S
H1152 C1176 0.950 . S
H1153 C1177 0.951 . S
H1154 C1179 0.951 . S
H1155 C1181 0.950 . S
H1156 C1182 0.950 . S
H1157 C1184 0.950 . S
H1158 C1187 0.950 . S
H1159 C1188 0.950 . S
H1160 C1190 0.950 . S
H1161 C1191 0.950 . S
C1162 H1144 0.951 . S
C1162 C1163 1.366 . S
C1162 C1164 1.388 1_565 S
C1163 C1162 1.366 . S
C1163 C1167 1.385 1_565 S
C1164 H1145 0.951 . S
C1164 C1162 1.388 1_545 S
C1164 C1165 1.366 . S
C1165 C1164 1.366 . S
C1165 C1166 1.414 . S
C1165 C1168 1.499 . S
C1166 H1146 0.950 . S
C1166 C1165 1.414 . S
C1166 C1167 1.374 . S
C1167 H1147 0.950 . S
C1167 C1163 1.385 1_545 S
C1167 C1166 1.374 . S
C1168 C1165 1.499 . S
C1168 C1169 1.373 . S
C1168 C1170 1.389 1_554 S
C1169 H1148 0.950 . S
C1169 C1168 1.373 . S
C1169 C1185 1.377 . S
C1170 C1168 1.389 1_556 S
C1170 C1171 1.524 . S
C1170 C1184 1.377 . S
C1171 C1170 1.524 . S
C1171 C1172 1.397 . S
C1171 C1176 1.363 . S
C1172 H1149 0.950 . S
C1172 C1171 1.397 . S
C1172 C1173 1.334 . S
C1173 H1150 0.950 1_545 S
C1173 C1172 1.334 . S
C1173 C1174 1.287 1_545 S
C1174 C1173 1.287 1_565 S
C1174 C1175 1.524 1_565 S
C1174 H1193 0.913 . S
C1175 H1151 0.950 1_545 S
C1175 C1174 1.524 1_545 S
C1175 C1176 1.415 . S
C1176 H1152 0.950 . S
C1176 C1171 1.363 . S
C1176 C1175 1.415 . S
C1177 H1153 0.951 . S
C1177 C1178 1.366 . S
C1177 C1179 1.388 . S
C1178 C1177 1.366 . S
C1178 C1182 1.385 . S
C1179 H1154 0.951 . S
C1179 C1177 1.388 . S
C1179 C1180 1.366 . S
C1180 C1179 1.366 . S
C1180 C1181 1.414 . S
C1180 C1183 1.499 . S
C1181 H1155 0.950 . S
C1181 C1180 1.414 . S
C1181 C1182 1.374 . S
C1182 H1156 0.950 . S
C1182 C1178 1.385 . S
C1182 C1181 1.374 . S
C1183 C1180 1.499 . S
C1183 C1184 1.373 . S
C1183 C1185 1.389 1_556 S
C1184 H1157 0.950 . S
C1184 C1170 1.377 . S
C1184 C1183 1.373 . S
C1185 C1169 1.377 . S
C1185 C1183 1.389 1_554 S
C1185 C1186 1.524 . S
C1186 C1185 1.524 . S
C1186 C1187 1.397 . S
C1186 C1191 1.363 . S
C1187 H1158 0.950 . S
C1187 C1186 1.397 . S
C1187 C1188 1.334 . S
C1188 H1159 0.950 . S
C1188 C1187 1.334 . S
C1188 C1189 1.287 . S
C1189 C1188 1.287 . S
C1189 C1190 1.524 . S
C1189 H1192 0.999 . S
C1190 H1160 0.950 . S
C1190 C1189 1.524 . S
C1190 C1191 1.415 . S
C1191 H1161 0.950 . S
C1191 C1186 1.363 . S
C1191 C1190 1.415 . S
H1192 C1189 0.999 . S
H1193 C1174 0.913 . S
H1194 C1212 0.951 . S
H1195 C1214 0.933 1_556 S
H1196 C1216 0.950 . S
H1197 C1217 0.950 . S
H1198 C1219 0.950 . S
H1199 C1222 0.950 . S
H1200 C1223 0.950 . S
H1201 C1225 0.950 . S
H1202 C1226 0.950 . S
H1203 C1227 0.951 . S
H1204 C1229 0.951 . S
H1205 C1231 0.950 . S
H1206 C1232 0.950 . S
H1207 C1234 0.950 . S
H1208 C1237 0.950 . S
H1209 C1238 0.950 . S
H1210 C1240 0.950 . S
H1211 C1241 0.950 . S
C1212 H1194 0.951 . S
C1212 C1213 1.366 . S
C1212 C1214 1.388 . S
C1213 C1212 1.366 . S
C1213 C1217 1.385 . S
C1214 H1195 0.933 1_554 S
C1214 C1212 1.388 . S
C1214 C1215 1.366 . S
C1215 C1214 1.366 . S
C1215 C1216 1.414 . S
C1215 C1218 1.499 . S
C1216 H1196 0.950 . S
C1216 C1215 1.414 . S
C1216 C1217 1.374 . S
C1217 H1197 0.950 . S
C1217 C1213 1.385 . S
C1217 C1216 1.374 . S
C1218 C1215 1.499 . S
C1218 C1219 1.373 . S
C1218 C1220 1.389 1_554 S
C1219 H1198 0.950 . S
C1219 C1218 1.373 . S
C1219 C1235 1.377 . S
C1220 C1218 1.389 1_556 S
C1220 C1221 1.524 . S
C1220 C1234 1.377 . S
C1221 C1220 1.524 . S
C1221 C1222 1.397 . S
C1221 C1226 1.363 . S
C1222 H1199 0.950 . S
C1222 C1221 1.397 . S
C1222 C1223 1.334 . S
C1223 H1200 0.950 . S
C1223 C1222 1.334 . S
C1223 C1224 1.287 . S
C1224 C1223 1.287 . S
C1224 C1225 1.524 . S
C1224 H1243 0.913 . S
C1225 H1201 0.950 . S
C1225 C1224 1.524 . S
C1225 C1226 1.415 . S
C1226 H1202 0.950 . S
C1226 C1221 1.363 . S
C1226 C1225 1.415 . S
C1227 H1203 0.951 . S
C1227 C1228 1.366 . S
C1227 C1229 1.388 1_655 S
C1228 C1227 1.366 . S
C1228 C1232 1.385 1_655 S
C1229 H1204 0.951 . S
C1229 C1227 1.388 1_455 S
C1229 C1230 1.366 . S
C1230 C1229 1.366 . S
C1230 C1231 1.414 . S
C1230 C1233 1.499 . S
C1231 H1205 0.950 . S
C1231 C1230 1.414 . S
C1231 C1232 1.374 . S
C1232 H1206 0.950 . S
C1232 C1228 1.385 1_455 S
C1232 C1231 1.374 . S
C1233 C1230 1.499 . S
C1233 C1234 1.373 . S
C1233 C1235 1.389 1_556 S
C1234 H1207 0.950 . S
C1234 C1220 1.377 . S
C1234 C1233 1.373 . S
C1235 C1219 1.377 . S
C1235 C1233 1.389 1_554 S
C1235 C1236 1.524 . S
C1236 C1235 1.524 . S
C1236 C1237 1.397 . S
C1236 C1241 1.363 . S
C1237 H1208 0.950 . S
C1237 C1236 1.397 . S
C1237 C1238 1.334 . S
C1238 H1209 0.950 . S
C1238 C1237 1.334 . S
C1238 C1239 1.287 . S
C1239 C1238 1.287 . S
C1239 C1240 1.524 . S
C1239 H1242 0.999 1_455 S
C1240 H1210 0.950 . S
C1240 C1239 1.524 . S
C1240 C1241 1.415 . S
C1241 H1211 0.950 . S
C1241 C1236 1.363 . S
C1241 C1240 1.415 . S
H1242 C1239 0.999 1_655 S
H1243 C1224 0.913 . S
H1244 C1262 0.951 . S
H1245 C1264 0.951 1_554 S
H1246 C1266 0.950 . S
H1247 C1267 0.950 . S
H1248 C1269 0.950 . S
H1249 C1272 0.950 . S
H1250 C1273 0.950 . S
H1251 C1275 0.950 . S
H1252 C1276 0.950 . S
H1253 C1277 0.951 1_545 S
H1254 C1279 0.951 . S
H1255 C1281 0.950 . S
H1256 C1282 0.950 1_545 S
H1257 C1284 0.950 . S
H1258 C1287 0.950 . S
H1259 C1288 0.950 . S
H1260 C1290 0.950 . S
H1261 C1291 0.950 . S
C1262 H1244 0.951 . S
C1262 C1263 1.366 . S
C1262 C1264 1.388 . S
C1263 C1262 1.366 . S
C1263 C1267 1.385 . S
C1264 H1245 0.951 1_556 S
C1264 C1262 1.388 . S
C1264 C1265 1.366 . S
C1265 C1264 1.366 . S
C1265 C1266 1.414 . S
C1265 C1268 1.499 . S
C1266 H1246 0.950 . S
C1266 C1265 1.414 . S
C1266 C1267 1.374 . S
C1267 H1247 0.950 . S
C1267 C1263 1.385 . S
C1267 C1266 1.374 . S
C1268 C1265 1.499 . S
C1268 C1269 1.373 . S
C1268 C1270 1.389 1_556 S
C1269 H1248 0.950 . S
C1269 C1268 1.373 . S
C1269 C1285 1.377 . S
C1270 C1268 1.389 1_554 S
C1270 C1271 1.524 . S
C1270 C1284 1.377 . S
C1271 C1270 1.524 . S
C1271 C1272 1.397 . S
C1271 C1276 1.363 . S
C1272 H1249 0.950 . S
C1272 C1271 1.397 . S
C1272 C1273 1.334 . S
C1273 H1250 0.950 . S
C1273 C1272 1.334 . S
C1273 C1274 1.287 . S
C1274 C1273 1.287 . S
C1274 C1275 1.524 . S
C1274 H1293 0.913 . S
C1275 H1251 0.950 . S
C1275 C1274 1.524 . S
C1275 C1276 1.415 . S
C1276 H1252 0.950 . S
C1276 C1271 1.363 . S
C1276 C1275 1.415 . S
C1277 H1253 0.951 1_565 S
C1277 C1278 1.366 1_565 S
C1277 C1279 1.388 . S
C1278 C1277 1.366 1_545 S
C1278 C1282 1.385 1_545 S
C1279 H1254 0.951 . S
C1279 C1277 1.388 . S
C1279 C1280 1.366 . S
C1280 C1279 1.366 . S
C1280 C1281 1.414 . S
C1280 C1283 1.499 . S
C1281 H1255 0.950 . S
C1281 C1280 1.414 . S
C1281 C1282 1.374 . S
C1282 H1256 0.950 1_565 S
C1282 C1278 1.385 1_565 S
C1282 C1281 1.374 . S
C1283 C1280 1.499 . S
C1283 C1284 1.373 . S
C1283 C1285 1.389 1_554 S
C1284 H1257 0.950 . S
C1284 C1270 1.377 . S
C1284 C1283 1.373 . S
C1285 C1269 1.377 . S
C1285 C1283 1.389 1_556 S
C1285 C1286 1.524 . S
C1286 C1285 1.524 . S
C1286 C1287 1.397 . S
C1286 C1291 1.363 . S
C1287 H1258 0.950 . S
C1287 C1286 1.397 . S
C1287 C1288 1.334 1_565 S
C1288 H1259 0.950 . S
C1288 C1287 1.334 1_545 S
C1288 C1289 1.287 . S
C1289 C1288 1.287 . S
C1289 C1290 1.524 1_545 S
C1289 H1292 0.999 . S
C1290 H1260 0.950 . S
C1290 C1289 1.524 1_565 S
C1290 C1291 1.415 . S
C1291 H1261 0.950 . S
C1291 C1286 1.363 . S
C1291 C1290 1.415 . S
H1292 C1289 0.999 . S
H1293 C1274 0.913 . S
H1294 C1312 0.951 . S
H1295 C1314 0.951 . S
H1296 C1316 0.950 . S
H1297 C1317 0.950 . S
H1298 C1319 0.950 . S
H1299 C1322 0.950 . S
H1300 C1323 0.950 . S
H1301 C1325 0.950 . S
H1302 C1326 0.950 . S
H1303 C1327 0.951 . S
H1304 C1329 0.951 . S
H1305 C1331 0.950 . S
H1306 C1332 0.950 . S
H1307 C1334 0.950 . S
H1308 C1337 0.950 . S
H1309 C1338 0.950 . S
H1310 C1340 0.947 1_455 S
H1311 C1341 0.964 . S
C1312 H1294 0.951 . S
C1312 C1313 1.366 . S
C1312 C1314 1.388 . S
C1313 C1312 1.366 . S
C1313 C1317 1.385 . S
C1314 H1295 0.951 . S
C1314 C1312 1.388 . S
C1314 C1315 1.366 . S
C1315 C1314 1.366 . S
C1315 C1316 1.414 . S
C1315 C1318 1.499 . S
C1316 H1296 0.950 . S
C1316 C1315 1.414 . S
C1316 C1317 1.374 . S
C1317 H1297 0.950 . S
C1317 C1313 1.385 . S
C1317 C1316 1.374 . S
C1318 C1315 1.499 . S
C1318 C1319 1.373 . S
C1318 C1320 1.389 1_554 S
C1319 H1298 0.950 . S
C1319 C1318 1.373 . S
C1319 C1335 1.373 1_554 S
C1320 C1318 1.389 1_556 S
C1320 C1321 1.524 . S
C1320 C1334 1.377 . S
C1321 C1320 1.524 . S
C1321 C1322 1.397 . S
C1321 C1326 1.363 . S
C1322 H1299 0.950 . S
C1322 C1321 1.397 . S
C1322 C1323 1.334 . S
C1323 H1300 0.950 . S
C1323 C1322 1.334 . S
C1323 C1324 1.287 . S
C1324 C1323 1.287 . S
C1324 C1325 1.524 . S
C1324 H1343 0.913 . S
C1325 H1301 0.950 . S
C1325 C1324 1.524 . S
C1325 C1326 1.415 . S
C1326 H1302 0.950 . S
C1326 C1321 1.363 . S
C1326 C1325 1.415 . S
C1327 H1303 0.951 . S
C1327 C1328 1.366 . S
C1327 C1329 1.388 1_455 S
C1328 C1327 1.366 . S
C1328 C1332 1.385 1_455 S
C1329 H1304 0.951 . S
C1329 C1327 1.388 1_655 S
C1329 C1330 1.366 . S
C1330 C1329 1.366 . S
C1330 C1331 1.414 . S
C1330 C1333 1.499 . S
C1331 H1305 0.950 . S
C1331 C1330 1.414 . S
C1331 C1332 1.374 . S
C1332 H1306 0.950 . S
C1332 C1328 1.385 1_655 S
C1332 C1331 1.374 . S
C1333 C1330 1.499 . S
C1333 C1334 1.373 . S
C1333 C1335 1.395 . S
C1334 H1307 0.950 . S
C1334 C1320 1.377 . S
C1334 C1333 1.373 . S
C1335 C1319 1.373 1_556 S
C1335 C1333 1.395 . S
C1335 C1336 1.522 1_556 S
C1336 C1335 1.522 1_554 S
C1336 C1337 1.397 . S
C1336 C1341 1.363 . S
C1337 H1308 0.950 . S
C1337 C1336 1.397 . S
C1337 C1338 1.334 1_655 S
C1338 H1309 0.950 . S
C1338 C1337 1.334 1_455 S
C1338 C1339 1.287 . S
C1339 C1338 1.287 . S
C1339 C1340 1.524 1_455 S
C1339 H1342 0.999 . S
C1340 H1310 0.947 1_655 S
C1340 C1339 1.524 1_655 S
C1340 C1341 1.415 . S
C1341 H1311 0.964 . S
C1341 C1336 1.363 . S
C1341 C1340 1.415 . S
H1342 C1339 0.999 . S
H1343 C1324 0.913 . S
H1344 C1362 0.951 . S
H1345 C1364 0.951 . S
H1346 C1366 0.950 . S
H1347 C1367 0.950 . S
H1348 C1369 0.950 . S
H1349 C1372 0.950 . S
H1350 C1373 0.950 . S
H1351 C1375 0.950 . S
H1352 C1376 0.950 . S
H1353 C1377 0.951 . S
H1354 C1379 0.951 . S
H1355 C1381 0.950 . S
H1356 C1382 0.950 . S
H1357 C1384 0.950 . S
H1358 C1387 0.950 . S
H1359 C1388 0.950 . S
H1360 C1390 0.950 . S
H1361 C1391 0.950 . S
C1362 H1344 0.951 . S
C1362 C1363 1.366 . S
C1362 C1364 1.388 . S
C1363 C1362 1.366 . S
C1363 C1367 1.385 . S
C1364 H1345 0.951 . S
C1364 C1362 1.388 . S
C1364 C1365 1.366 . S
C1365 C1364 1.366 . S
C1365 C1366 1.414 . S
C1365 C1368 1.499 . S
C1366 H1346 0.950 . S
C1366 C1365 1.414 . S
C1366 C1367 1.374 . S
C1367 H1347 0.950 . S
C1367 C1363 1.385 . S
C1367 C1366 1.374 . S
C1368 C1365 1.499 . S
C1368 C1369 1.373 . S
C1368 C1370 1.389 . S
C1369 H1348 0.950 . S
C1369 C1368 1.373 . S
C1369 C1385 1.377 . S
C1370 C1368 1.389 . S
C1370 C1371 1.524 . S
C1370 C1384 1.377 . S
C1371 C1370 1.524 . S
C1371 C1372 1.397 . S
C1371 C1376 1.363 . S
C1372 H1349 0.950 . S
C1372 C1371 1.397 . S
C1372 C1373 1.334 . S
C1373 H1350 0.950 . S
C1373 C1372 1.334 . S
C1373 C1374 1.287 . S
C1374 C1373 1.287 . S
C1374 C1375 1.524 . S
C1374 H1393 0.913 . S
C1375 H1351 0.950 . S
C1375 C1374 1.524 . S
C1375 C1376 1.415 . S
C1376 H1352 0.950 . S
C1376 C1371 1.363 . S
C1376 C1375 1.415 . S
C1377 H1353 0.951 . S
C1377 C1378 1.366 1_565 S
C1377 C1379 1.388 . S
C1378 C1377 1.366 1_545 S
C1378 C1382 1.385 . S
C1379 H1354 0.951 . S
C1379 C1377 1.388 . S
C1379 C1380 1.366 . S
C1380 C1379 1.366 . S
C1380 C1381 1.414 . S
C1380 C1383 1.499 . S
C1381 H1355 0.950 . S
C1381 C1380 1.414 . S
C1381 C1382 1.374 1_565 S
C1382 H1356 0.950 . S
C1382 C1378 1.385 . S
C1382 C1381 1.374 1_545 S
C1383 C1380 1.499 . S
C1383 C1384 1.373 . S
C1383 C1385 1.389 . S
C1384 H1357 0.950 . S
C1384 C1370 1.377 . S
C1384 C1383 1.373 . S
C1385 C1369 1.377 . S
C1385 C1383 1.389 . S
C1385 C1386 1.524 . S
C1386 C1385 1.524 . S
C1386 C1387 1.397 . S
C1386 C1391 1.363 . S
C1387 H1358 0.950 . S
C1387 C1386 1.397 . S
C1387 C1388 1.334 . S
C1388 H1359 0.950 . S
C1388 C1387 1.334 . S
C1388 C1389 1.287 . S
C1389 C1388 1.287 . S
C1389 C1390 1.524 . S
C1389 H1392 0.999 . S
C1390 H1360 0.950 . S
C1390 C1389 1.524 . S
C1390 C1391 1.415 . S
C1391 H1361 0.950 . S
C1391 C1386 1.363 . S
C1391 C1390 1.415 . S
H1392 C1389 0.999 . S
H1393 C1374 0.913 . S
H1394 C1412 0.951 . S
H1395 C1414 0.951 . S
H1396 C1416 0.950 . S
H1397 C1417 0.950 . S
H1398 C1419 0.950 . S
H1399 C1422 0.950 . S
H1400 C1423 0.950 . S
H1401 C1425 0.950 . S
H1402 C1426 0.950 . S
H1403 C1427 0.951 . S
H1404 C1429 0.951 . S
H1405 C1431 0.950 . S
H1406 C1432 0.950 . S
H1407 C1434 0.950 . S
H1408 C1437 0.950 . S
H1409 C1438 0.950 . S
H1410 C1440 0.950 . S
H1411 C1441 0.950 . S
C1412 H1394 0.951 . S
C1412 C1413 1.366 . S
C1412 C1414 1.388 1_455 S
C1413 C1412 1.366 . S
C1413 C1417 1.385 1_455 S
C1414 H1395 0.951 . S
C1414 C1412 1.388 1_655 S
C1414 C1415 1.366 . S
C1415 C1414 1.366 . S
C1415 C1416 1.414 . S
C1415 C1418 1.499 . S
C1416 H1396 0.950 . S
C1416 C1415 1.414 . S
C1416 C1417 1.374 . S
C1417 H1397 0.950 . S
C1417 C1413 1.385 1_655 S
C1417 C1416 1.374 . S
C1418 C1415 1.499 . S
C1418 C1419 1.373 . S
C1418 C1420 1.389 . S
C1419 H1398 0.950 . S
C1419 C1418 1.373 . S
C1419 C1435 1.377 . S
C1420 C1418 1.389 . S
C1420 C1421 1.524 . S
C1420 C1434 1.377 . S
C1421 C1420 1.524 . S
C1421 C1422 1.397 . S
C1421 C1426 1.363 . S
C1422 H1399 0.950 . S
C1422 C1421 1.397 . S
C1422 C1423 1.334 . S
C1423 H1400 0.950 . S
C1423 C1422 1.334 . S
C1423 C1424 1.287 . S
C1424 C1423 1.287 . S
C1424 C1425 1.524 . S
C1424 H1443 0.913 . S
C1425 H1401 0.950 . S
C1425 C1424 1.524 . S
C1425 C1426 1.415 . S
C1426 H1402 0.950 . S
C1426 C1421 1.363 . S
C1426 C1425 1.415 . S
C1427 H1403 0.951 . S
C1427 C1428 1.366 . S
C1427 C1429 1.388 . S
C1428 C1427 1.366 . S
C1428 C1432 1.385 . S
C1429 H1404 0.951 . S
C1429 C1427 1.388 . S
C1429 C1430 1.366 . S
C1430 C1429 1.366 . S
C1430 C1431 1.414 . S
C1430 C1433 1.499 . S
C1431 H1405 0.950 . S
C1431 C1430 1.414 . S
C1431 C1432 1.374 . S
C1432 H1406 0.950 . S
C1432 C1428 1.385 . S
C1432 C1431 1.374 . S
C1433 C1430 1.499 . S
C1433 C1434 1.373 . S
C1433 C1435 1.389 . S
C1434 H1407 0.950 . S
C1434 C1420 1.377 . S
C1434 C1433 1.373 . S
C1435 C1419 1.377 . S
C1435 C1433 1.389 . S
C1435 C1436 1.524 . S
C1436 C1435 1.524 . S
C1436 C1437 1.397 . S
C1436 C1441 1.363 . S
C1437 H1408 0.950 . S
C1437 C1436 1.397 . S
C1437 C1438 1.334 . S
C1438 H1409 0.950 . S
C1438 C1437 1.334 . S
C1438 C1439 1.287 . S
C1439 C1438 1.287 . S
C1439 C1440 1.524 . S
C1439 H1442 0.999 . S
C1440 H1410 0.950 . S
C1440 C1439 1.524 . S
C1440 C1441 1.415 . S
C1441 H1411 0.950 . S
C1441 C1436 1.363 . S
C1441 C1440 1.415 . S
H1442 C1439 0.999 . S
H1443 C1424 0.913 . S
H1444 C1462 0.951 . S
H1445 C1464 0.951 . S
H1446 C1466 0.950 . S
H1447 C1467 0.950 . S
H1448 C1469 0.950 . S
H1449 C1472 0.950 . S
H1450 C1473 0.950 . S
H1451 C1475 0.950 . S
H1452 C1476 0.950 . S
H1453 C1477 0.951 . S
H1454 C1479 0.951 . S
H1455 C1481 0.950 . S
H1456 C1482 0.950 . S
H1457 C1484 0.950 . S
H1458 C1487 0.950 . S
H1459 C1488 0.950 . S
H1460 C1490 0.950 . S
H1461 C1491 0.950 . S
C1462 H1444 0.951 . S
C1462 C1463 1.366 1_545 S
C1462 C1464 1.388 . S
C1463 C1462 1.366 1_565 S
C1463 C1467 1.385 . S
C1464 H1445 0.951 . S
C1464 C1462 1.388 . S
C1464 C1465 1.366 . S
C1465 C1464 1.366 . S
C1465 C1466 1.414 . S
C1465 C1468 1.499 . S
C1466 H1446 0.950 . S
C1466 C1465 1.414 . S
C1466 C1467 1.374 1_545 S
C1467 H1447 0.950 . S
C1467 C1463 1.385 . S
C1467 C1466 1.374 1_565 S
C1468 C1465 1.499 . S
C1468 C1469 1.373 . S
C1468 C1470 1.389 . S
C1469 H1448 0.950 . S
C1469 C1468 1.373 . S
C1469 C1485 1.377 . S
C1470 C1468 1.389 . S
C1470 C1471 1.524 . S
C1470 C1484 1.377 . S
C1471 C1470 1.524 . S
C1471 C1472 1.397 . S
C1471 C1476 1.363 . S
C1472 H1449 0.950 . S
C1472 C1471 1.397 . S
C1472 C1473 1.334 . S
C1473 H1450 0.950 . S
C1473 C1472 1.334 . S
C1473 C1474 1.287 . S
C1474 C1473 1.287 . S
C1474 C1475 1.524 . S
C1474 H1493 0.913 . S
C1475 H1451 0.950 . S
C1475 C1474 1.524 . S
C1475 C1476 1.415 . S
C1476 H1452 0.950 . S
C1476 C1471 1.363 . S
C1476 C1475 1.415 . S
C1477 H1453 0.951 . S
C1477 C1478 1.366 . S
C1477 C1479 1.388 . S
C1478 C1477 1.366 . S
C1478 C1482 1.385 . S
C1479 H1454 0.951 . S
C1479 C1477 1.388 . S
C1479 C1480 1.366 . S
C1480 C1479 1.366 . S
C1480 C1481 1.414 . S
C1480 C1483 1.499 . S
C1481 H1455 0.950 . S
C1481 C1480 1.414 . S
C1481 C1482 1.374 . S
C1482 H1456 0.950 . S
C1482 C1478 1.385 . S
C1482 C1481 1.374 . S
C1483 C1480 1.499 . S
C1483 C1484 1.373 . S
C1483 C1485 1.389 . S
C1484 H1457 0.950 . S
C1484 C1470 1.377 . S
C1484 C1483 1.373 . S
C1485 C1469 1.377 . S
C1485 C1483 1.389 . S
C1485 C1486 1.524 . S
C1486 C1485 1.524 . S
C1486 C1487 1.397 . S
C1486 C1491 1.363 . S
C1487 H1458 0.950 . S
C1487 C1486 1.397 . S
C1487 C1488 1.334 . S
C1488 H1459 0.950 . S
C1488 C1487 1.334 . S
C1488 C1489 1.287 . S
C1489 C1488 1.287 . S
C1489 C1490 1.524 . S
C1489 H1492 0.999 . S
C1490 H1460 0.950 . S
C1490 C1489 1.524 . S
C1490 C1491 1.415 . S
C1491 H1461 0.950 . S
C1491 C1486 1.363 . S
C1491 C1490 1.415 . S
H1492 C1489 0.999 . S
H1493 C1474 0.913 . S
H1494 C1512 0.951 . S
H1495 C1514 0.951 . S
H1496 C1516 0.950 . S
H1497 C1517 0.950 . S
H1498 C1519 0.950 . S
H1499 C1522 0.950 . S
H1500 C1523 0.956 . S
H1501 C1525 0.950 1_655 S
H1502 C1526 0.950 . S
H1503 C1527 0.951 . S
H1504 C1529 0.951 . S
H1505 C1531 0.950 . S
H1506 C1532 0.950 . S
H1507 C1534 0.950 . S
H1508 C1537 0.950 . S
H1509 C1538 0.950 . S
H1510 C1540 0.950 . S
H1511 C1541 0.950 . S
C1512 H1494 0.951 . S
C1512 C1513 1.366 . S
C1512 C1514 1.388 1_655 S
C1513 C1512 1.366 . S
C1513 C1517 1.385 1_655 S
C1514 H1495 0.951 . S
C1514 C1512 1.388 1_455 S
C1514 C1515 1.366 . S
C1515 C1514 1.366 . S
C1515 C1516 1.414 . S
C1515 C1518 1.499 . S
C1516 H1496 0.950 . S
C1516 C1515 1.414 . S
C1516 C1517 1.374 . S
C1517 H1497 0.950 . S
C1517 C1513 1.385 1_455 S
C1517 C1516 1.374 . S
C1518 C1515 1.499 . S
C1518 C1519 1.373 . S
C1518 C1520 1.389 . S
C1519 H1498 0.950 . S
C1519 C1518 1.373 . S
C1519 C1535 1.377 . S
C1520 C1518 1.389 . S
C1520 C1521 1.524 . S
C1520 C1534 1.377 . S
C1521 C1520 1.524 . S
C1521 C1522 1.397 . S
C1521 C1526 1.363 . S
C1522 H1499 0.950 . S
C1522 C1521 1.397 . S
C1522 C1523 1.334 . S
C1523 H1500 0.956 . S
C1523 C1522 1.334 . S
C1523 C1524 1.287 1_455 S
C1524 C1523 1.287 1_655 S
C1524 C1525 1.524 1_655 S
C1524 H1543 0.913 . S
C1525 H1501 0.950 1_455 S
C1525 C1524 1.524 1_455 S
C1525 C1526 1.415 . S
C1526 H1502 0.950 . S
C1526 C1521 1.363 . S
C1526 C1525 1.415 . S
C1527 H1503 0.951 . S
C1527 C1528 1.366 . S
C1527 C1529 1.388 . S
C1528 C1527 1.366 . S
C1528 C1532 1.385 . S
C1529 H1504 0.951 . S
C1529 C1527 1.388 . S
C1529 C1530 1.366 . S
C1530 C1529 1.366 . S
C1530 C1531 1.414 . S
C1530 C1533 1.499 . S
C1531 H1505 0.950 . S
C1531 C1530 1.414 . S
C1531 C1532 1.374 . S
C1532 H1506 0.950 . S
C1532 C1528 1.385 . S
C1532 C1531 1.374 . S
C1533 C1530 1.499 . S
C1533 C1534 1.373 . S
C1533 C1535 1.389 . S
C1534 H1507 0.950 . S
C1534 C1520 1.377 . S
C1534 C1533 1.373 . S
C1535 C1519 1.377 . S
C1535 C1533 1.389 . S
C1535 C1536 1.524 . S
C1536 C1535 1.524 . S
C1536 C1537 1.397 . S
C1536 C1541 1.363 . S
C1537 H1508 0.950 . S
C1537 C1536 1.397 . S
C1537 C1538 1.334 . S
C1538 H1509 0.950 . S
C1538 C1537 1.334 . S
C1538 C1539 1.287 . S
C1539 C1538 1.287 . S
C1539 C1540 1.524 . S
C1539 H1542 0.999 . S
C1540 H1510 0.950 . S
C1540 C1539 1.524 . S
C1540 C1541 1.415 . S
C1541 H1511 0.950 . S
C1541 C1536 1.363 . S
C1541 C1540 1.415 . S
H1542 C1539 0.999 . S
H1543 C1524 0.913 . S
H1544 C1562 0.951 . S
H1545 C1564 0.951 . S
H1546 C1566 0.950 . S
H1547 C1567 0.950 . S
H1548 C1569 0.950 . S
H1549 C1572 0.950 . S
H1550 C1573 0.950 . S
H1551 C1575 0.950 . S
H1552 C1576 0.950 . S
H1553 C1577 0.951 . S
H1554 C1579 0.951 . S
H1555 C1581 0.950 . S
H1556 C1582 0.950 . S
H1557 C1584 0.950 . S
H1558 C1587 0.950 . S
H1559 C1588 0.950 . S
H1560 C1590 0.950 . S
H1561 C1591 0.950 . S
C1562 H1544 0.951 . S
C1562 C1563 1.366 . S
C1562 C1564 1.388 . S
C1563 C1562 1.366 . S
C1563 C1567 1.385 . S
C1564 H1545 0.951 . S
C1564 C1562 1.388 . S
C1564 C1565 1.366 . S
C1565 C1564 1.366 . S
C1565 C1566 1.414 . S
C1565 C1568 1.499 . S
C1566 H1546 0.950 . S
C1566 C1565 1.414 . S
C1566 C1567 1.374 . S
C1567 H1547 0.950 . S
C1567 C1563 1.385 . S
C1567 C1566 1.374 . S
C1568 C1565 1.499 . S
C1568 C1569 1.373 . S
C1568 C1570 1.389 . S
C1569 H1548 0.950 . S
C1569 C1568 1.373 . S
C1569 C1585 1.377 . S
C1570 C1568 1.389 . S
C1570 C1571 1.524 . S
C1570 C1584 1.377 . S
C1571 C1570 1.524 . S
C1571 C1572 1.397 . S
C1571 C1576 1.363 . S
C1572 H1549 0.950 . S
C1572 C1571 1.397 . S
C1572 C1573 1.334 . S
C1573 H1550 0.950 . S
C1573 C1572 1.334 . S
C1573 C1574 1.287 . S
C1574 C1573 1.287 . S
C1574 C1575 1.524 . S
C1574 H1593 0.913 . S
C1575 H1551 0.950 . S
C1575 C1574 1.524 . S
C1575 C1576 1.415 . S
C1576 H1552 0.950 . S
C1576 C1571 1.363 . S
C1576 C1575 1.415 . S
C1577 H1553 0.951 . S
C1577 C1578 1.366 . S
C1577 C1579 1.388 . S
C1578 C1577 1.366 . S
C1578 C1582 1.385 . S
C1579 H1554 0.951 . S
C1579 C1577 1.388 . S
C1579 C1580 1.366 . S
C1580 C1579 1.366 . S
C1580 C1581 1.414 . S
C1580 C1583 1.499 . S
C1581 H1555 0.950 . S
C1581 C1580 1.414 . S
C1581 C1582 1.374 . S
C1582 H1556 0.950 . S
C1582 C1578 1.385 . S
C1582 C1581 1.374 . S
C1583 C1580 1.499 . S
C1583 C1584 1.373 . S
C1583 C1585 1.389 . S
C1584 H1557 0.950 . S
C1584 C1570 1.377 . S
C1584 C1583 1.373 . S
C1585 C1569 1.377 . S
C1585 C1583 1.389 . S
C1585 C1586 1.524 . S
C1586 C1585 1.524 . S
C1586 C1587 1.397 . S
C1586 C1591 1.363 . S
C1587 H1558 0.950 . S
C1587 C1586 1.397 . S
C1587 C1588 1.334 . S
C1588 H1559 0.950 . S
C1588 C1587 1.334 . S
C1588 C1589 1.287 . S
C1589 C1588 1.287 . S
C1589 C1590 1.524 . S
C1589 H1592 0.999 . S
C1590 H1560 0.950 . S
C1590 C1589 1.524 . S
C1590 C1591 1.415 . S
C1591 H1561 0.950 . S
C1591 C1586 1.363 . S
C1591 C1590 1.415 . S
H1592 C1589 0.999 . S
H1593 C1574 0.913 . S
H1594 C1612 0.951 . S
H1595 C1614 0.951 . S
H1596 C1616 0.950 . S
H1597 C1617 0.950 . S
H1598 C1619 0.950 . S
H1599 C1622 0.950 . S
H1600 C1623 0.950 . S
H1601 C1625 0.950 . S
H1602 C1626 0.950 . S
H1603 C1627 0.951 . S
H1604 C1629 0.951 . S
H1605 C1631 0.950 . S
H1606 C1632 0.950 . S
H1607 C1634 0.950 . S
H1608 C1637 0.950 . S
H1609 C1638 0.950 . S
H1610 C1640 0.950 . S
H1611 C1641 0.950 . S
C1612 H1594 0.951 . S
C1612 C1613 1.366 . S
C1612 C1614 1.388 . S
C1613 C1612 1.366 . S
C1613 C1617 1.385 . S
C1614 H1595 0.951 . S
C1614 C1612 1.388 . S
C1614 C1615 1.366 . S
C1615 C1614 1.366 . S
C1615 C1616 1.414 . S
C1615 C1618 1.499 . S
C1616 H1596 0.950 . S
C1616 C1615 1.414 . S
C1616 C1617 1.374 . S
C1617 H1597 0.950 . S
C1617 C1613 1.385 . S
C1617 C1616 1.374 . S
C1618 C1615 1.499 . S
C1618 C1619 1.373 . S
C1618 C1620 1.389 . S
C1619 H1598 0.950 . S
C1619 C1618 1.373 . S
C1619 C1635 1.377 . S
C1620 C1618 1.389 . S
C1620 C1621 1.524 . S
C1620 C1634 1.377 . S
C1621 C1620 1.524 . S
C1621 C1622 1.397 . S
C1621 C1626 1.363 . S
C1622 H1599 0.950 . S
C1622 C1621 1.397 . S
C1622 C1623 1.334 . S
C1623 H1600 0.950 . S
C1623 C1622 1.334 . S
C1623 C1624 1.287 . S
C1624 C1623 1.287 . S
C1624 C1625 1.524 . S
C1624 H1643 0.913 . S
C1625 H1601 0.950 . S
C1625 C1624 1.524 . S
C1625 C1626 1.415 . S
C1626 H1602 0.950 . S
C1626 C1621 1.363 . S
C1626 C1625 1.415 . S
C1627 H1603 0.951 . S
C1627 C1628 1.366 . S
C1627 C1629 1.388 . S
C1628 C1627 1.366 . S
C1628 C1632 1.385 . S
C1629 H1604 0.951 . S
C1629 C1627 1.388 . S
C1629 C1630 1.366 . S
C1630 C1629 1.366 . S
C1630 C1631 1.414 . S
C1630 C1633 1.499 . S
C1631 H1605 0.950 . S
C1631 C1630 1.414 . S
C1631 C1632 1.374 . S
C1632 H1606 0.950 . S
C1632 C1628 1.385 . S
C1632 C1631 1.374 . S
C1633 C1630 1.499 . S
C1633 C1634 1.373 . S
C1633 C1635 1.389 . S
C1634 H1607 0.950 . S
C1634 C1620 1.377 . S
C1634 C1633 1.373 . S
C1635 C1619 1.377 . S
C1635 C1633 1.389 . S
C1635 C1636 1.524 . S
C1636 C1635 1.524 . S
C1636 C1637 1.397 . S
C1636 C1641 1.363 . S
C1637 H1608 0.950 . S
C1637 C1636 1.397 . S
C1637 C1638 1.334 . S
C1638 H1609 0.950 . S
C1638 C1637 1.334 . S
C1638 C1639 1.287 . S
C1639 C1638 1.287 . S
C1639 C1640 1.524 . S
C1639 H1642 0.999 . S
C1640 H1610 0.950 . S
C1640 C1639 1.524 . S
C1640 C1641 1.415 . S
C1641 H1611 0.950 . S
C1641 C1636 1.363 . S
C1641 C1640 1.415 . S
H1642 C1639 0.999 . S
H1643 C1624 0.913 . S
H1644 C1662 0.951 . S
H1645 C1664 0.951 . S
H1646 C1666 0.950 . S
H1647 C1667 0.950 . S
H1648 C1669 0.950 . S
H1649 C1672 0.950 . S
H1650 C1673 0.950 . S
H1651 C1675 0.950 . S
H1652 C1676 0.950 . S
H1653 C1677 0.951 . S
H1654 C1679 0.951 . S
H1655 C1681 0.950 . S
H1656 C1682 0.950 . S
H1657 C1684 0.950 . S
H1658 C1687 0.950 . S
H1659 C1688 0.950 . S
H1660 C1690 0.950 . S
H1661 C1691 0.950 . S
C1662 H1644 0.951 . S
C1662 C1663 1.366 . S
C1662 C1664 1.388 . S
C1663 C1662 1.366 . S
C1663 C1667 1.385 . S
C1664 H1645 0.951 . S
C1664 C1662 1.388 . S
C1664 C1665 1.366 . S
C1665 C1664 1.366 . S
C1665 C1666 1.414 . S
C1665 C1668 1.499 . S
C1666 H1646 0.950 . S
C1666 C1665 1.414 . S
C1666 C1667 1.374 . S
C1667 H1647 0.950 . S
C1667 C1663 1.385 . S
C1667 C1666 1.374 . S
C1668 C1665 1.499 . S
C1668 C1669 1.373 . S
C1668 C1670 1.389 . S
C1669 H1648 0.950 . S
C1669 C1668 1.373 . S
C1669 C1685 1.377 . S
C1670 C1668 1.389 . S
C1670 C1671 1.524 . S
C1670 C1684 1.377 . S
C1671 C1670 1.524 . S
C1671 C1672 1.397 . S
C1671 C1676 1.363 . S
C1672 H1649 0.950 . S
C1672 C1671 1.397 . S
C1672 C1673 1.334 . S
C1673 H1650 0.950 . S
C1673 C1672 1.334 . S
C1673 C1674 1.287 . S
C1674 C1673 1.287 . S
C1674 C1675 1.524 . S
C1674 H1693 0.913 . S
C1675 H1651 0.950 . S
C1675 C1674 1.524 . S
C1675 C1676 1.415 . S
C1676 H1652 0.950 . S
C1676 C1671 1.363 . S
C1676 C1675 1.415 . S
C1677 H1653 0.951 . S
C1677 C1678 1.366 . S
C1677 C1679 1.388 . S
C1678 C1677 1.366 . S
C1678 C1682 1.385 . S
C1679 H1654 0.951 . S
C1679 C1677 1.388 . S
C1679 C1680 1.366 . S
C1680 C1679 1.366 . S
C1680 C1681 1.414 . S
C1680 C1683 1.499 . S
C1681 H1655 0.950 . S
C1681 C1680 1.414 . S
C1681 C1682 1.374 . S
C1682 H1656 0.950 . S
C1682 C1678 1.385 . S
C1682 C1681 1.374 . S
C1683 C1680 1.499 . S
C1683 C1684 1.373 . S
C1683 C1685 1.389 . S
C1684 H1657 0.950 . S
C1684 C1670 1.377 . S
C1684 C1683 1.373 . S
C1685 C1669 1.377 . S
C1685 C1683 1.389 . S
C1685 C1686 1.524 . S
C1686 C1685 1.524 . S
C1686 C1687 1.397 . S
C1686 C1691 1.363 . S
C1687 H1658 0.950 . S
C1687 C1686 1.397 . S
C1687 C1688 1.334 . S
C1688 H1659 0.950 . S
C1688 C1687 1.334 . S
C1688 C1689 1.287 . S
C1689 C1688 1.287 . S
C1689 C1690 1.524 . S
C1689 H1692 0.999 . S
C1690 H1660 0.950 . S
C1690 C1689 1.524 . S
C1690 C1691 1.415 . S
C1691 H1661 0.950 . S
C1691 C1686 1.363 . S
C1691 C1690 1.415 . S
H1692 C1689 0.999 . S
H1693 C1674 0.913 . S
H1694 C1712 0.951 . S
H1695 C1714 0.951 . S
H1696 C1716 0.950 . S
H1697 C1717 0.950 . S
H1698 C1719 0.950 . S
H1699 C1722 0.950 . S
H1700 C1723 0.950 . S
H1701 C1725 0.950 . S
H1702 C1726 0.950 . S
H1703 C1727 0.951 . S
H1704 C1729 0.951 . S
H1705 C1731 0.950 . S
H1706 C1732 0.950 . S
H1707 C1734 0.950 . S
H1708 C1737 0.950 . S
H1709 C1738 0.950 . S
H1710 C1740 0.950 . S
H1711 C1741 0.950 . S
C1712 H1694 0.951 . S
C1712 C1713 1.366 . S
C1712 C1714 1.388 . S
C1713 C1712 1.366 . S
C1713 C1717 1.385 . S
C1714 H1695 0.951 . S
C1714 C1712 1.388 . S
C1714 C1715 1.366 . S
C1715 C1714 1.366 . S
C1715 C1716 1.414 . S
C1715 C1718 1.499 . S
C1716 H1696 0.950 . S
C1716 C1715 1.414 . S
C1716 C1717 1.374 . S
C1717 H1697 0.950 . S
C1717 C1713 1.385 . S
C1717 C1716 1.374 . S
C1718 C1715 1.499 . S
C1718 C1719 1.373 . S
C1718 C1720 1.389 . S
C1719 H1698 0.950 . S
C1719 C1718 1.373 . S
C1719 C1735 1.377 . S
C1720 C1718 1.389 . S
C1720 C1721 1.524 . S
C1720 C1734 1.377 . S
C1721 C1720 1.524 . S
C1721 C1722 1.397 . S
C1721 C1726 1.363 . S
C1722 H1699 0.950 . S
C1722 C1721 1.397 . S
C1722 C1723 1.334 . S
C1723 H1700 0.950 . S
C1723 C1722 1.334 . S
C1723 C1724 1.287 . S
C1724 C1723 1.287 . S
C1724 C1725 1.524 . S
C1724 H1743 0.913 . S
C1725 H1701 0.950 . S
C1725 C1724 1.524 . S
C1725 C1726 1.415 . S
C1726 H1702 0.950 . S
C1726 C1721 1.363 . S
C1726 C1725 1.415 . S
C1727 H1703 0.951 . S
C1727 C1728 1.366 . S
C1727 C1729 1.388 . S
C1728 C1727 1.366 . S
C1728 C1732 1.385 . S
C1729 H1704 0.951 . S
C1729 C1727 1.388 . S
C1729 C1730 1.366 . S
C1730 C1729 1.366 . S
C1730 C1731 1.414 . S
C1730 C1733 1.499 . S
C1731 H1705 0.950 . S
C1731 C1730 1.414 . S
C1731 C1732 1.374 . S
C1732 H1706 0.950 . S
C1732 C1728 1.385 . S
C1732 C1731 1.374 . S
C1733 C1730 1.499 . S
C1733 C1734 1.373 . S
C1733 C1735 1.389 . S
C1734 H1707 0.950 . S
C1734 C1720 1.377 . S
C1734 C1733 1.373 . S
C1735 C1719 1.377 . S
C1735 C1733 1.389 . S
C1735 C1736 1.524 . S
C1736 C1735 1.524 . S
C1736 C1737 1.397 . S
C1736 C1741 1.363 . S
C1737 H1708 0.950 . S
C1737 C1736 1.397 . S
C1737 C1738 1.334 . S
C1738 H1709 0.950 . S
C1738 C1737 1.334 . S
C1738 C1739 1.287 . S
C1739 C1738 1.287 . S
C1739 C1740 1.524 . S
C1739 H1742 0.999 . S
C1740 H1710 0.950 . S
C1740 C1739 1.524 . S
C1740 C1741 1.415 . S
C1741 H1711 0.950 . S
C1741 C1736 1.363 . S
C1741 C1740 1.415 . S
H1742 C1739 0.999 . S
H1743 C1724 0.913 . S
H1744 C1762 0.951 . S
H1745 C1764 0.951 . S
H1746 C1766 0.950 . S
H1747 C1767 0.950 . S
H1748 C1769 0.950 . S
H1749 C1772 0.950 . S
H1750 C1773 0.950 . S
H1751 C1775 0.950 . S
H1752 C1776 0.950 . S
H1753 C1777 0.951 . S
H1754 C1779 0.951 . S
H1755 C1781 0.950 . S
H1756 C1782 0.950 . S
H1757 C1784 0.950 . S
H1758 C1787 0.950 . S
H1759 C1788 0.950 . S
H1760 C1790 0.950 . S
H1761 C1791 0.950 . S
C1762 H1744 0.951 . S
C1762 C1763 1.366 . S
C1762 C1764 1.388 . S
C1763 C1762 1.366 . S
C1763 C1767 1.385 . S
C1764 H1745 0.951 . S
C1764 C1762 1.388 . S
C1764 C1765 1.366 . S
C1765 C1764 1.366 . S
C1765 C1766 1.414 . S
C1765 C1768 1.499 . S
C1766 H1746 0.950 . S
C1766 C1765 1.414 . S
C1766 C1767 1.374 . S
C1767 H1747 0.950 . S
C1767 C1763 1.385 . S
C1767 C1766 1.374 . S
C1768 C1765 1.499 . S
C1768 C1769 1.373 . S
C1768 C1770 1.389 . S
C1769 H1748 0.950 . S
C1769 C1768 1.373 . S
C1769 C1785 1.377 . S
C1770 C1768 1.389 . S
C1770 C1771 1.524 . S
C1770 C1784 1.377 . S
C1771 C1770 1.524 . S
C1771 C1772 1.397 . S
C1771 C1776 1.363 . S
C1772 H1749 0.950 . S
C1772 C1771 1.397 . S
C1772 C1773 1.334 . S
C1773 H1750 0.950 . S
C1773 C1772 1.334 . S
C1773 C1774 1.287 . S
C1774 C1773 1.287 . S
C1774 C1775 1.524 . S
C1774 H1793 0.913 . S
C1775 H1751 0.950 . S
C1775 C1774 1.524 . S
C1775 C1776 1.415 . S
C1776 H1752 0.950 . S
C1776 C1771 1.363 . S
C1776 C1775 1.415 . S
C1777 H1753 0.951 . S
C1777 C1778 1.366 . S
C1777 C1779 1.388 . S
C1778 C1777 1.366 . S
C1778 C1782 1.385 . S
C1779 H1754 0.951 . S
C1779 C1777 1.388 . S
C1779 C1780 1.366 . S
C1780 C1779 1.366 . S
C1780 C1781 1.414 . S
C1780 C1783 1.499 . S
C1781 H1755 0.950 . S
C1781 C1780 1.414 . S
C1781 C1782 1.374 . S
C1782 H1756 0.950 . S
C1782 C1778 1.385 . S
C1782 C1781 1.374 . S
C1783 C1780 1.499 . S
C1783 C1784 1.373 . S
C1783 C1785 1.389 . S
C1784 H1757 0.950 . S
C1784 C1770 1.377 . S
C1784 C1783 1.373 . S
C1785 C1769 1.377 . S
C1785 C1783 1.389 . S
C1785 C1786 1.524 . S
C1786 C1785 1.524 . S
C1786 C1787 1.397 . S
C1786 C1791 1.363 . S
C1787 H1758 0.950 . S
C1787 C1786 1.397 . S
C1787 C1788 1.334 . S
C1788 H1759 0.950 . S
C1788 C1787 1.334 . S
C1788 C1789 1.287 . S
C1789 C1788 1.287 . S
C1789 C1790 1.524 . S
C1789 H1792 0.999 . S
C1790 H1760 0.950 . S
C1790 C1789 1.524 . S
C1790 C1791 1.415 . S
C1791 H1761 0.950 . S
C1791 C1786 1.363 . S
C1791 C1790 1.415 . S
H1792 C1789 0.999 . S
H1793 C1774 0.913 . S
H1794 C1812 0.951 . S
H1795 C1814 0.951 . S
H1796 C1816 0.950 . S
H1797 C1817 0.950 . S
H1798 C1819 0.950 . S
H1799 C1822 0.950 . S
H1800 C1823 0.950 . S
H1801 C1825 0.950 . S
H1802 C1826 0.950 . S
H1803 C1827 0.951 . S
H1804 C1829 0.951 . S
H1805 C1831 0.950 . S
H1806 C1832 0.950 . S
H1807 C1834 0.950 . S
H1808 C1837 0.950 . S
H1809 C1838 0.950 . S
H1810 C1840 0.950 . S
H1811 C1841 0.950 . S
C1812 H1794 0.951 . S
C1812 C1813 1.366 . S
C1812 C1814 1.388 . S
C1813 C1812 1.366 . S
C1813 C1817 1.385 . S
C1814 H1795 0.951 . S
C1814 C1812 1.388 . S
C1814 C1815 1.366 . S
C1815 C1814 1.366 . S
C1815 C1816 1.414 . S
C1815 C1818 1.499 . S
C1816 H1796 0.950 . S
C1816 C1815 1.414 . S
C1816 C1817 1.374 . S
C1817 H1797 0.950 . S
C1817 C1813 1.385 . S
C1817 C1816 1.374 . S
C1818 C1815 1.499 . S
C1818 C1819 1.373 . S
C1818 C1820 1.389 . S
C1819 H1798 0.950 . S
C1819 C1818 1.373 . S
C1819 C1835 1.377 . S
C1820 C1818 1.389 . S
C1820 C1821 1.524 . S
C1820 C1834 1.377 . S
C1821 C1820 1.524 . S
C1821 C1822 1.397 . S
C1821 C1826 1.363 . S
C1822 H1799 0.950 . S
C1822 C1821 1.397 . S
C1822 C1823 1.334 . S
C1823 H1800 0.950 . S
C1823 C1822 1.334 . S
C1823 C1824 1.287 . S
C1824 C1823 1.287 . S
C1824 C1825 1.524 . S
C1824 H1843 0.913 . S
C1825 H1801 0.950 . S
C1825 C1824 1.524 . S
C1825 C1826 1.415 . S
C1826 H1802 0.950 . S
C1826 C1821 1.363 . S
C1826 C1825 1.415 . S
C1827 H1803 0.951 . S
C1827 C1828 1.366 . S
C1827 C1829 1.388 . S
C1828 C1827 1.366 . S
C1828 C1832 1.385 . S
C1829 H1804 0.951 . S
C1829 C1827 1.388 . S
C1829 C1830 1.366 . S
C1830 C1829 1.366 . S
C1830 C1831 1.414 . S
C1830 C1833 1.499 . S
C1831 H1805 0.950 . S
C1831 C1830 1.414 . S
C1831 C1832 1.374 . S
C1832 H1806 0.950 . S
C1832 C1828 1.385 . S
C1832 C1831 1.374 . S
C1833 C1830 1.499 . S
C1833 C1834 1.373 . S
C1833 C1835 1.389 . S
C1834 H1807 0.950 . S
C1834 C1820 1.377 . S
C1834 C1833 1.373 . S
C1835 C1819 1.377 . S
C1835 C1833 1.389 . S
C1835 C1836 1.524 . S
C1836 C1835 1.524 . S
C1836 C1837 1.397 . S
C1836 C1841 1.363 . S
C1837 H1808 0.950 . S
C1837 C1836 1.397 . S
C1837 C1838 1.334 . S
C1838 H1809 0.950 . S
C1838 C1837 1.334 . S
C1838 C1839 1.287 . S
C1839 C1838 1.287 . S
C1839 C1840 1.524 . S
C1839 H1842 0.999 . S
C1840 H1810 0.950 . S
C1840 C1839 1.524 . S
C1840 C1841 1.415 . S
C1841 H1811 0.950 . S
C1841 C1836 1.363 . S
C1841 C1840 1.415 . S
H1842 C1839 0.999 . S
H1843 C1824 0.913 . S
H1844 C1862 0.951 . S
H1845 C1864 0.951 . S
H1846 C1866 0.950 . S
H1847 C1867 0.950 . S
H1848 C1869 0.950 . S
H1849 C1872 0.950 . S
H1850 C1873 0.950 . S
H1851 C1875 0.950 . S
H1852 C1876 0.950 . S
H1853 C1877 0.951 . S
H1854 C1879 0.951 . S
H1855 C1881 0.950 . S
H1856 C1882 0.950 . S
H1857 C1884 0.950 . S
H1858 C1887 0.950 . S
H1859 C1888 0.950 . S
H1860 C1890 0.950 . S
H1861 C1891 0.950 . S
C1862 H1844 0.951 . S
C1862 C1863 1.366 . S
C1862 C1864 1.388 . S
C1863 C1862 1.366 . S
C1863 C1867 1.385 . S
C1864 H1845 0.951 . S
C1864 C1862 1.388 . S
C1864 C1865 1.366 . S
C1865 C1864 1.366 . S
C1865 C1866 1.414 . S
C1865 C1868 1.499 . S
C1866 H1846 0.950 . S
C1866 C1865 1.414 . S
C1866 C1867 1.374 . S
C1867 H1847 0.950 . S
C1867 C1863 1.385 . S
C1867 C1866 1.374 . S
C1868 C1865 1.499 . S
C1868 C1869 1.373 . S
C1868 C1870 1.389 . S
C1869 H1848 0.950 . S
C1869 C1868 1.373 . S
C1869 C1885 1.377 . S
C1870 C1868 1.389 . S
C1870 C1871 1.524 . S
C1870 C1884 1.377 . S
C1871 C1870 1.524 . S
C1871 C1872 1.397 . S
C1871 C1876 1.363 . S
C1872 H1849 0.950 . S
C1872 C1871 1.397 . S
C1872 C1873 1.334 . S
C1873 H1850 0.950 . S
C1873 C1872 1.334 . S
C1873 C1874 1.287 . S
C1874 C1873 1.287 . S
C1874 C1875 1.524 . S
C1874 H1893 0.913 . S
C1875 H1851 0.950 . S
C1875 C1874 1.524 . S
C1875 C1876 1.415 . S
C1876 H1852 0.950 . S
C1876 C1871 1.363 . S
C1876 C1875 1.415 . S
C1877 H1853 0.951 . S
C1877 C1878 1.366 . S
C1877 C1879 1.388 . S
C1878 C1877 1.366 . S
C1878 C1882 1.385 . S
C1879 H1854 0.951 . S
C1879 C1877 1.388 . S
C1879 C1880 1.366 . S
C1880 C1879 1.366 . S
C1880 C1881 1.414 . S
C1880 C1883 1.499 . S
C1881 H1855 0.950 . S
C1881 C1880 1.414 . S
C1881 C1882 1.374 . S
C1882 H1856 0.950 . S
C1882 C1878 1.385 . S
C1882 C1881 1.374 . S
C1883 C1880 1.499 . S
C1883 C1884 1.373 . S
C1883 C1885 1.389 . S
C1884 H1857 0.950 . S
C1884 C1870 1.377 . S
C1884 C1883 1.373 . S
C1885 C1869 1.377 . S
C1885 C1883 1.389 . S
C1885 C1886 1.524 . S
C1886 C1885 1.524 . S
C1886 C1887 1.397 . S
C1886 C1891 1.363 . S
C1887 H1858 0.950 . S
C1887 C1886 1.397 . S
C1887 C1888 1.334 . S
C1888 H1859 0.950 . S
C1888 C1887 1.334 . S
C1888 C1889 1.287 . S
C1889 C1888 1.287 . S
C1889 C1890 1.524 . S
C1889 H1892 0.999 . S
C1890 H1860 0.950 . S
C1890 C1889 1.524 . S
C1890 C1891 1.415 . S
C1891 H1861 0.950 . S
C1891 C1886 1.363 . S
C1891 C1890 1.415 . S
H1892 C1889 0.999 . S
H1893 C1874 0.913 . S
H1894 C1912 0.951 . S
H1895 C1914 0.951 . S
H1896 C1916 0.950 . S
H1897 C1917 0.950 . S
H1898 C1919 0.950 . S
H1899 C1922 0.950 . S
H1900 C1923 0.950 . S
H1901 C1925 0.950 . S
H1902 C1926 0.950 . S
H1903 C1927 0.951 . S
H1904 C1929 0.951 . S
H1905 C1931 0.950 . S
H1906 C1932 0.950 . S
H1907 C1934 0.950 . S
H1908 C1937 0.950 . S
H1909 C1938 0.950 . S
H1910 C1940 0.950 . S
H1911 C1941 0.950 . S
C1912 H1894 0.951 . S
C1912 C1913 1.366 . S
C1912 C1914 1.388 . S
C1913 C1912 1.366 . S
C1913 C1917 1.385 . S
C1914 H1895 0.951 . S
C1914 C1912 1.388 . S
C1914 C1915 1.366 . S
C1915 C1914 1.366 . S
C1915 C1916 1.414 . S
C1915 C1918 1.499 . S
C1916 H1896 0.950 . S
C1916 C1915 1.414 . S
C1916 C1917 1.374 . S
C1917 H1897 0.950 . S
C1917 C1913 1.385 . S
C1917 C1916 1.374 . S
C1918 C1915 1.499 . S
C1918 C1919 1.373 . S
C1918 C1920 1.389 . S
C1919 H1898 0.950 . S
C1919 C1918 1.373 . S
C1919 C1935 1.377 . S
C1920 C1918 1.389 . S
C1920 C1921 1.524 . S
C1920 C1934 1.377 . S
C1921 C1920 1.524 . S
C1921 C1922 1.397 . S
C1921 C1926 1.363 . S
C1922 H1899 0.950 . S
C1922 C1921 1.397 . S
C1922 C1923 1.334 . S
C1923 H1900 0.950 . S
C1923 C1922 1.334 . S
C1923 C1924 1.287 . S
C1924 C1923 1.287 . S
C1924 C1925 1.524 . S
C1924 H1943 0.913 . S
C1925 H1901 0.950 . S
C1925 C1924 1.524 . S
C1925 C1926 1.415 . S
C1926 H1902 0.950 . S
C1926 C1921 1.363 . S
C1926 C1925 1.415 . S
C1927 H1903 0.951 . S
C1927 C1928 1.366 . S
C1927 C1929 1.388 . S
C1928 C1927 1.366 . S
C1928 C1932 1.385 . S
C1929 H1904 0.951 . S
C1929 C1927 1.388 . S
C1929 C1930 1.366 . S
C1930 C1929 1.366 . S
C1930 C1931 1.414 . S
C1930 C1933 1.499 . S
C1931 H1905 0.950 . S
C1931 C1930 1.414 . S
C1931 C1932 1.374 . S
C1932 H1906 0.950 . S
C1932 C1928 1.385 . S
C1932 C1931 1.374 . S
C1933 C1930 1.499 . S
C1933 C1934 1.373 . S
C1933 C1935 1.389 . S
C1934 H1907 0.950 . S
C1934 C1920 1.377 . S
C1934 C1933 1.373 . S
C1935 C1919 1.377 . S
C1935 C1933 1.389 . S
C1935 C1936 1.524 . S
C1936 C1935 1.524 . S
C1936 C1937 1.397 . S
C1936 C1941 1.363 . S
C1937 H1908 0.950 . S
C1937 C1936 1.397 . S
C1937 C1938 1.334 . S
C1938 H1909 0.950 . S
C1938 C1937 1.334 . S
C1938 C1939 1.287 . S
C1939 C1938 1.287 . S
C1939 C1940 1.524 . S
C1939 H1942 0.999 . S
C1940 H1910 0.950 . S
C1940 C1939 1.524 . S
C1940 C1941 1.415 . S
C1941 H1911 0.950 . S
C1941 C1936 1.363 . S
C1941 C1940 1.415 . S
H1942 C1939 0.999 . S
H1943 C1924 0.913 . S
H1944 C1962 0.951 . S
H1945 C1964 0.951 . S
H1946 C1966 0.950 . S
H1947 C1967 0.950 . S
H1948 C1969 0.950 . S
H1949 C1972 0.950 . S
H1950 C1973 0.950 . S
H1951 C1975 0.950 . S
H1952 C1976 0.950 . S
H1953 C1977 0.951 . S
H1954 C1979 0.951 . S
H1955 C1981 0.950 . S
H1956 C1982 0.950 . S
H1957 C1984 0.950 . S
H1958 C1987 0.950 . S
H1959 C1988 0.950 . S
H1960 C1990 0.950 . S
H1961 C1991 0.950 . S
C1962 H1944 0.951 . S
C1962 C1963 1.366 . S
C1962 C1964 1.388 . S
C1963 C1962 1.366 . S
C1963 C1967 1.385 . S
C1964 H1945 0.951 . S
C1964 C1962 1.388 . S
C1964 C1965 1.366 . S
C1965 C1964 1.366 . S
C1965 C1966 1.414 . S
C1965 C1968 1.499 . S
C1966 H1946 0.950 . S
C1966 C1965 1.414 . S
C1966 C1967 1.374 . S
C1967 H1947 0.950 . S
C1967 C1963 1.385 . S
C1967 C1966 1.374 . S
C1968 C1965 1.499 . S
C1968 C1969 1.373 . S
C1968 C1970 1.389 . S
C1969 H1948 0.950 . S
C1969 C1968 1.373 . S
C1969 C1985 1.377 . S
C1970 C1968 1.389 . S
C1970 C1971 1.524 . S
C1970 C1984 1.377 . S
C1971 C1970 1.524 . S
C1971 C1972 1.397 . S
C1971 C1976 1.363 . S
C1972 H1949 0.950 . S
C1972 C1971 1.397 . S
C1972 C1973 1.334 . S
C1973 H1950 0.950 . S
C1973 C1972 1.334 . S
C1973 C1974 1.287 . S
C1974 C1973 1.287 . S
C1974 C1975 1.524 . S
C1974 H1993 0.913 . S
C1975 H1951 0.950 . S
C1975 C1974 1.524 . S
C1975 C1976 1.415 . S
C1976 H1952 0.950 . S
C1976 C1971 1.363 . S
C1976 C1975 1.415 . S
C1977 H1953 0.951 . S
C1977 C1978 1.366 . S
C1977 C1979 1.388 . S
C1978 C1977 1.366 . S
C1978 C1982 1.385 . S
C1979 H1954 0.951 . S
C1979 C1977 1.388 . S
C1979 C1980 1.366 . S
C1980 C1979 1.366 . S
C1980 C1981 1.414 . S
C1980 C1983 1.499 . S
C1981 H1955 0.950 . S
C1981 C1980 1.414 . S
C1981 C1982 1.374 . S
C1982 H1956 0.950 . S
C1982 C1978 1.385 . S
C1982 C1981 1.374 . S
C1983 C1980 1.499 . S
C1983 C1984 1.373 . S
C1983 C1985 1.389 . S
C1984 H1957 0.950 . S
C1984 C1970 1.377 . S
C1984 C1983 1.373 . S
C1985 C1969 1.377 . S
C1985 C1983 1.389 . S
C1985 C1986 1.524 . S
C1986 C1985 1.524 . S
C1986 C1987 1.397 . S
C1986 C1991 1.363 . S
C1987 H1958 0.950 . S
C1987 C1986 1.397 . S
C1987 C1988 1.334 . S
C1988 H1959 0.950 . S
C1988 C1987 1.334 . S
C1988 C1989 1.287 . S
C1989 C1988 1.287 . S
C1989 C1990 1.524 . S
C1989 H1992 0.999 . S
C1990 H1960 0.950 . S
C1990 C1989 1.524 . S
C1990 C1991 1.415 . S
C1991 H1961 0.950 . S
C1991 C1986 1.363 . S
C1991 C1990 1.415 . S
H1992 C1989 0.999 . S
H1993 C1974 0.913 . S
H1994 C2012 0.951 . S
H1995 C2014 0.951 . S
H1996 C2016 0.950 . S
H1997 C2017 0.950 . S
H1998 C2019 0.950 . S
H1999 C2022 0.950 . S
H2000 C2023 0.950 . S
H2001 C2025 0.950 . S
H2002 C2026 0.950 . S
H2003 C2027 0.951 . S
H2004 C2029 0.951 . S
H2005 C2031 0.950 . S
H2006 C2032 0.950 . S
H2007 C2034 0.950 . S
H2008 C2037 0.950 . S
H2009 C2038 0.950 . S
H2010 C2040 0.950 . S
H2011 C2041 0.950 . S
C2012 H1994 0.951 . S
C2012 C2013 1.366 . S
C2012 C2014 1.388 . S
C2013 C2012 1.366 . S
C2013 C2017 1.385 . S
C2014 H1995 0.951 . S
C2014 C2012 1.388 . S
C2014 C2015 1.366 . S
C2015 C2014 1.366 . S
C2015 C2016 1.414 . S
C2015 C2018 1.499 . S
C2016 H1996 0.950 . S
C2016 C2015 1.414 . S
C2016 C2017 1.374 . S
C2017 H1997 0.950 . S
C2017 C2013 1.385 . S
C2017 C2016 1.374 . S
C2018 C2015 1.499 . S
C2018 C2019 1.373 . S
C2018 C2020 1.389 . S
C2019 H1998 0.950 . S
C2019 C2018 1.373 . S
C2019 C2035 1.377 . S
C2020 C2018 1.389 . S
C2020 C2021 1.524 . S
C2020 C2034 1.377 . S
C2021 C2020 1.524 . S
C2021 C2022 1.397 . S
C2021 C2026 1.363 . S
C2022 H1999 0.950 . S
C2022 C2021 1.397 . S
C2022 C2023 1.334 . S
C2023 H2000 0.950 . S
C2023 C2022 1.334 . S
C2023 C2024 1.287 . S
C2024 C2023 1.287 . S
C2024 C2025 1.524 . S
C2024 H2043 0.913 . S
C2025 H2001 0.950 . S
C2025 C2024 1.524 . S
C2025 C2026 1.415 . S
C2026 H2002 0.950 . S
C2026 C2021 1.363 . S
C2026 C2025 1.415 . S
C2027 H2003 0.951 . S
C2027 C2028 1.366 . S
C2027 C2029 1.388 . S
C2028 C2027 1.366 . S
C2028 C2032 1.385 . S
C2029 H2004 0.951 . S
C2029 C2027 1.388 . S
C2029 C2030 1.366 . S
C2030 C2029 1.366 . S
C2030 C2031 1.414 . S
C2030 C2033 1.499 . S
C2031 H2005 0.950 . S
C2031 C2030 1.414 . S
C2031 C2032 1.374 . S
C2032 H2006 0.950 . S
C2032 C2028 1.385 . S
C2032 C2031 1.374 . S
C2033 C2030 1.499 . S
C2033 C2034 1.373 . S
C2033 C2035 1.389 . S
C2034 H2007 0.950 . S
C2034 C2020 1.377 . S
C2034 C2033 1.373 . S
C2035 C2019 1.377 . S
C2035 C2033 1.389 . S
C2035 C2036 1.524 . S
C2036 C2035 1.524 . S
C2036 C2037 1.397 . S
C2036 C2041 1.363 . S
C2037 H2008 0.950 . S
C2037 C2036 1.397 . S
C2037 C2038 1.334 . S
C2038 H2009 0.950 . S
C2038 C2037 1.334 . S
C2038 C2039 1.287 . S
C2039 C2038 1.287 . S
C2039 C2040 1.524 . S
C2039 H2042 0.999 . S
C2040 H2010 0.950 . S
C2040 C2039 1.524 . S
C2040 C2041 1.415 . S
C2041 H2011 0.950 . S
C2041 C2036 1.363 . S
C2041 C2040 1.415 . S
H2042 C2039 0.999 . S
H2043 C2024 0.913 . S
H2044 C2062 0.951 . S
H2045 C2064 0.951 . S
H2046 C2066 0.950 . S
H2047 C2067 0.950 . S
H2048 C2069 0.950 . S
H2049 C2072 0.950 . S
H2050 C2073 0.950 . S
H2051 C2075 0.950 . S
H2052 C2076 0.950 . S
H2053 C2077 0.951 . S
H2054 C2079 0.951 . S
H2055 C2081 0.950 . S
H2056 C2082 0.950 . S
H2057 C2084 0.950 . S
H2058 C2087 0.950 . S
H2059 C2088 0.950 . S
H2060 C2090 0.950 . S
H2061 C2091 0.950 . S
C2062 H2044 0.951 . S
C2062 C2063 1.366 . S
C2062 C2064 1.388 . S
C2063 C2062 1.366 . S
C2063 C2067 1.385 . S
C2064 H2045 0.951 . S
C2064 C2062 1.388 . S
C2064 C2065 1.366 . S
C2065 C2064 1.366 . S
C2065 C2066 1.414 . S
C2065 C2068 1.499 . S
C2066 H2046 0.950 . S
C2066 C2065 1.414 . S
C2066 C2067 1.374 . S
C2067 H2047 0.950 . S
C2067 C2063 1.385 . S
C2067 C2066 1.374 . S
C2068 C2065 1.499 . S
C2068 C2069 1.373 . S
C2068 C2070 1.389 . S
C2069 H2048 0.950 . S
C2069 C2068 1.373 . S
C2069 C2085 1.377 . S
C2070 C2068 1.389 . S
C2070 C2071 1.524 . S
C2070 C2084 1.377 . S
C2071 C2070 1.524 . S
C2071 C2072 1.397 . S
C2071 C2076 1.363 . S
C2072 H2049 0.950 . S
C2072 C2071 1.397 . S
C2072 C2073 1.334 . S
C2073 H2050 0.950 . S
C2073 C2072 1.334 . S
C2073 C2074 1.287 . S
C2074 C2073 1.287 . S
C2074 C2075 1.524 . S
C2074 H2093 0.913 . S
C2075 H2051 0.950 . S
C2075 C2074 1.524 . S
C2075 C2076 1.415 . S
C2076 H2052 0.950 . S
C2076 C2071 1.363 . S
C2076 C2075 1.415 . S
C2077 H2053 0.951 . S
C2077 C2078 1.366 . S
C2077 C2079 1.388 . S
C2078 C2077 1.366 . S
C2078 C2082 1.385 . S
C2079 H2054 0.951 . S
C2079 C2077 1.388 . S
C2079 C2080 1.366 . S
C2080 C2079 1.366 . S
C2080 C2081 1.414 . S
C2080 C2083 1.499 . S
C2081 H2055 0.950 . S
C2081 C2080 1.414 . S
C2081 C2082 1.374 . S
C2082 H2056 0.950 . S
C2082 C2078 1.385 . S
C2082 C2081 1.374 . S
C2083 C2080 1.499 . S
C2083 C2084 1.373 . S
C2083 C2085 1.389 . S
C2084 H2057 0.950 . S
C2084 C2070 1.377 . S
C2084 C2083 1.373 . S
C2085 C2069 1.377 . S
C2085 C2083 1.389 . S
C2085 C2086 1.524 . S
C2086 C2085 1.524 . S
C2086 C2087 1.397 . S
C2086 C2091 1.363 . S
C2087 H2058 0.950 . S
C2087 C2086 1.397 . S
C2087 C2088 1.334 . S
C2088 H2059 0.950 . S
C2088 C2087 1.334 . S
C2088 C2089 1.287 . S
C2089 C2088 1.287 . S
C2089 C2090 1.524 . S
C2089 H2092 0.999 . S
C2090 H2060 0.950 . S
C2090 C2089 1.524 . S
C2090 C2091 1.415 . S
C2091 H2061 0.950 . S
C2091 C2086 1.363 . S
C2091 C2090 1.415 . S
H2092 C2089 0.999 . S
H2093 C2074 0.913 . S
H2094 C2112 0.951 . S
H2095 C2114 0.951 . S
H2096 C2116 0.950 . S
H2097 C2117 0.950 . S
H2098 C2119 0.950 . S
H2099 C2122 0.950 . S
H2100 C2123 0.950 . S
H2101 C2125 0.950 . S
H2102 C2126 0.950 . S
H2103 C2127 0.951 . S
H2104 C2129 0.951 . S
H2105 C2131 0.950 . S
H2106 C2132 0.950 . S
H2107 C2134 0.950 . S
H2108 C2137 0.950 . S
H2109 C2138 0.950 . S
H2110 C2140 0.950 . S
H2111 C2141 0.950 . S
C2112 H2094 0.951 . S
C2112 C2113 1.366 . S
C2112 C2114 1.388 . S
C2113 C2112 1.366 . S
C2113 C2117 1.385 . S
C2114 H2095 0.951 . S
C2114 C2112 1.388 . S
C2114 C2115 1.366 . S
C2115 C2114 1.366 . S
C2115 C2116 1.414 . S
C2115 C2118 1.499 . S
C2116 H2096 0.950 . S
C2116 C2115 1.414 . S
C2116 C2117 1.374 . S
C2117 H2097 0.950 . S
C2117 C2113 1.385 . S
C2117 C2116 1.374 . S
C2118 C2115 1.499 . S
C2118 C2119 1.373 . S
C2118 C2120 1.389 . S
C2119 H2098 0.950 . S
C2119 C2118 1.373 . S
C2119 C2135 1.377 . S
C2120 C2118 1.389 . S
C2120 C2121 1.524 . S
C2120 C2134 1.377 . S
C2121 C2120 1.524 . S
C2121 C2122 1.397 . S
C2121 C2126 1.363 . S
C2122 H2099 0.950 . S
C2122 C2121 1.397 . S
C2122 C2123 1.334 . S
C2123 H2100 0.950 . S
C2123 C2122 1.334 . S
C2123 C2124 1.287 . S
C2124 C2123 1.287 . S
C2124 C2125 1.524 . S
C2124 H2143 0.913 . S
C2125 H2101 0.950 . S
C2125 C2124 1.524 . S
C2125 C2126 1.415 . S
C2126 H2102 0.950 . S
C2126 C2121 1.363 . S
C2126 C2125 1.415 . S
C2127 H2103 0.951 . S
C2127 C2128 1.366 . S
C2127 C2129 1.388 . S
C2128 C2127 1.366 . S
C2128 C2132 1.385 . S
C2129 H2104 0.951 . S
C2129 C2127 1.388 . S
C2129 C2130 1.366 . S
C2130 C2129 1.366 . S
C2130 C2131 1.414 . S
C2130 C2133 1.499 . S
C2131 H2105 0.950 . S
C2131 C2130 1.414 . S
C2131 C2132 1.374 . S
C2132 H2106 0.950 . S
C2132 C2128 1.385 . S
C2132 C2131 1.374 . S
C2133 C2130 1.499 . S
C2133 C2134 1.373 . S
C2133 C2135 1.389 . S
C2134 H2107 0.950 . S
C2134 C2120 1.377 . S
C2134 C2133 1.373 . S
C2135 C2119 1.377 . S
C2135 C2133 1.389 . S
C2135 C2136 1.524 . S
C2136 C2135 1.524 . S
C2136 C2137 1.397 . S
C2136 C2141 1.363 . S
C2137 H2108 0.950 . S
C2137 C2136 1.397 . S
C2137 C2138 1.334 . S
C2138 H2109 0.950 . S
C2138 C2137 1.334 . S
C2138 C2139 1.287 . S
C2139 C2138 1.287 . S
C2139 C2140 1.524 . S
C2139 H2142 0.999 . S
C2140 H2110 0.950 . S
C2140 C2139 1.524 . S
C2140 C2141 1.415 . S
C2141 H2111 0.950 . S
C2141 C2136 1.363 . S
C2141 C2140 1.415 . S
H2142 C2139 0.999 . S
H2143 C2124 0.913 . S
H2144 C2162 0.951 . S
H2145 C2164 0.951 1_455 S
H2146 C2166 0.950 . S
H2147 C2167 0.950 . S
H2148 C2169 0.950 . S
H2149 C2172 0.950 . S
H2150 C2173 0.950 . S
H2151 C2175 0.950 . S
H2152 C2176 0.950 . S
H2153 C2177 0.951 . S
H2154 C2179 0.951 1_655 S
H2155 C2181 0.950 . S
H2156 C2182 0.950 . S
H2157 C2184 0.950 . S
H2158 C2187 0.950 . S
H2159 C2188 0.950 . S
H2160 C2190 0.950 . S
H2161 C2191 0.950 . S
C2162 H2144 0.951 . S
C2162 C2163 1.366 . S
C2162 C2164 1.388 . S
C2163 C2162 1.366 . S
C2163 C2167 1.385 . S
C2164 H2145 0.951 1_655 S
C2164 C2162 1.388 . S
C2164 C2165 1.366 . S
C2165 C2164 1.366 . S
C2165 C2166 1.414 . S
C2165 C2168 1.499 . S
C2166 H2146 0.950 . S
C2166 C2165 1.414 . S
C2166 C2167 1.374 . S
C2167 H2147 0.950 . S
C2167 C2163 1.385 . S
C2167 C2166 1.374 . S
C2168 C2165 1.499 . S
C2168 C2169 1.373 . S
C2168 C2170 1.389 1_655 S
C2169 H2148 0.950 . S
C2169 C2168 1.373 . S
C2169 C2185 1.377 1_565 S
C2170 C2168 1.389 1_455 S
C2170 C2171 1.524 . S
C2170 C2184 1.377 1_565 S
C2171 C2170 1.524 . S
C2171 C2172 1.397 . S
C2171 C2176 1.363 . S
C2172 H2149 0.950 . S
C2172 C2171 1.397 . S
C2172 C2173 1.334 . S
C2173 H2150 0.950 . S
C2173 C2172 1.334 . S
C2173 C2174 1.287 . S
C2174 C2173 1.287 . S
C2174 C2175 1.524 . S
C2174 H2193 0.913 . S
C2175 H2151 0.950 . S
C2175 C2174 1.524 . S
C2175 C2176 1.415 . S
C2176 H2152 0.950 . S
C2176 C2171 1.363 . S
C2176 C2175 1.415 . S
C2177 H2153 0.951 . S
C2177 C2178 1.366 . S
C2177 C2179 1.388 . S
C2178 C2177 1.366 . S
C2178 C2182 1.385 . S
C2179 H2154 0.951 1_455 S
C2179 C2177 1.388 . S
C2179 C2180 1.366 . S
C2180 C2179 1.366 . S
C2180 C2181 1.414 . S
C2180 C2183 1.499 . S
C2181 H2155 0.950 . S
C2181 C2180 1.414 . S
C2181 C2182 1.374 . S
C2182 H2156 0.950 . S
C2182 C2178 1.385 . S
C2182 C2181 1.374 . S
C2183 C2180 1.499 . S
C2183 C2184 1.373 . S
C2183 C2185 1.389 1_455 S
C2184 H2157 0.950 . S
C2184 C2170 1.377 1_545 S
C2184 C2183 1.373 . S
C2185 C2169 1.377 1_545 S
C2185 C2183 1.389 1_655 S
C2185 C2186 1.524 . S
C2186 C2185 1.524 . S
C2186 C2187 1.397 . S
C2186 C2191 1.363 . S
C2187 H2158 0.950 . S
C2187 C2186 1.397 . S
C2187 C2188 1.334 . S
C2188 H2159 0.950 . S
C2188 C2187 1.334 . S
C2188 C2189 1.287 . S
C2189 C2188 1.287 . S
C2189 C2190 1.524 . S
C2189 H2192 0.999 . S
C2190 H2160 0.950 . S
C2190 C2189 1.524 . S
C2190 C2191 1.415 . S
C2191 H2161 0.950 . S
C2191 C2186 1.363 . S
C2191 C2190 1.415 . S
H2192 C2189 0.999 . S
H2193 C2174 0.913 . S
H2194 C2212 0.951 . S
H2195 C2214 0.951 1_565 S
H2196 C2216 0.950 . S
H2197 C2217 0.950 . S
H2198 C2219 0.950 . S
H2199 C2222 0.950 1_545 S
H2200 C2223 0.950 . S
H2201 C2225 0.950 . S
H2202 C2226 0.950 . S
H2203 C2227 0.951 . S
H2204 C2229 0.951 1_545 S
H2205 C2231 0.950 . S
H2206 C2232 0.950 . S
H2207 C2234 0.950 . S
H2208 C2237 0.950 1_565 S
H2209 C2238 0.950 . S
H2210 C2240 0.950 . S
H2211 C2241 0.950 . S
C2212 H2194 0.951 . S
C2212 C2213 1.366 . S
C2212 C2214 1.388 . S
C2213 C2212 1.366 . S
C2213 C2217 1.385 . S
C2214 H2195 0.951 1_545 S
C2214 C2212 1.388 . S
C2214 C2215 1.366 . S
C2215 C2214 1.366 . S
C2215 C2216 1.414 . S
C2215 C2218 1.499 . S
C2216 H2196 0.950 . S
C2216 C2215 1.414 . S
C2216 C2217 1.374 . S
C2217 H2197 0.950 . S
C2217 C2213 1.385 . S
C2217 C2216 1.374 . S
C2218 C2215 1.499 . S
C2218 C2219 1.373 . S
C2218 C2220 1.389 1_545 S
C2219 H2198 0.950 . S
C2219 C2218 1.373 . S
C2219 C2235 1.377 1_655 S
C2220 C2218 1.389 1_565 S
C2220 C2221 1.524 . S
C2220 C2234 1.377 1_655 S
C2221 C2220 1.524 . S
C2221 C2222 1.397 . S
C2221 C2226 1.363 . S
C2222 H2199 0.950 1_565 S
C2222 C2221 1.397 . S
C2222 C2223 1.334 . S
C2223 H2200 0.950 . S
C2223 C2222 1.334 . S
C2223 C2224 1.287 . S
C2224 C2223 1.287 . S
C2224 C2225 1.524 . S
C2224 H2243 0.913 . S
C2225 H2201 0.950 . S
C2225 C2224 1.524 . S
C2225 C2226 1.415 . S
C2226 H2202 0.950 . S
C2226 C2221 1.363 . S
C2226 C2225 1.415 . S
C2227 H2203 0.951 . S
C2227 C2228 1.366 . S
C2227 C2229 1.388 . S
C2228 C2227 1.366 . S
C2228 C2232 1.385 . S
C2229 H2204 0.951 1_565 S
C2229 C2227 1.388 . S
C2229 C2230 1.366 . S
C2230 C2229 1.366 . S
C2230 C2231 1.414 . S
C2230 C2233 1.499 . S
C2231 H2205 0.950 . S
C2231 C2230 1.414 . S
C2231 C2232 1.374 . S
C2232 H2206 0.950 . S
C2232 C2228 1.385 . S
C2232 C2231 1.374 . S
C2233 C2230 1.499 . S
C2233 C2234 1.373 . S
C2233 C2235 1.389 1_565 S
C2234 H2207 0.950 . S
C2234 C2220 1.377 1_455 S
C2234 C2233 1.373 . S
C2235 C2219 1.377 1_455 S
C2235 C2233 1.389 1_545 S
C2235 C2236 1.524 . S
C2236 C2235 1.524 . S
C2236 C2237 1.397 . S
C2236 C2241 1.363 . S
C2237 H2208 0.950 1_545 S
C2237 C2236 1.397 . S
C2237 C2238 1.334 . S
C2238 H2209 0.950 . S
C2238 C2237 1.334 . S
C2238 C2239 1.287 . S
C2239 C2238 1.287 . S
C2239 C2240 1.524 . S
C2239 H2242 0.999 . S
C2240 H2210 0.950 . S
C2240 C2239 1.524 . S
C2240 C2241 1.415 . S
C2241 H2211 0.950 . S
C2241 C2236 1.363 . S
C2241 C2240 1.415 . S
H2242 C2239 0.999 . S
H2243 C2224 0.913 . S
H2244 C2262 0.951 . S
H2245 C2264 0.951 . S
H2246 C2266 0.950 1_655 S
H2247 C2267 0.950 . S
H2248 C2269 0.950 . S
H2249 C2272 0.950 1_655 S
H2250 C2273 0.950 . S
H2251 C2275 0.950 . S
H2252 C2276 0.950 . S
H2253 C2277 0.951 . S
H2254 C2279 0.951 . S
H2255 C2281 0.950 1_455 S
H2256 C2282 0.950 . S
H2257 C2284 0.950 . S
H2258 C2287 0.950 1_455 S
H2259 C2288 0.950 . S
H2260 C2290 0.950 . S
H2261 C2291 0.950 . S
C2262 H2244 0.951 . S
C2262 C2263 1.366 . S
C2262 C2264 1.388 . S
C2263 C2262 1.366 . S
C2263 C2267 1.385 . S
C2264 H2245 0.951 . S
C2264 C2262 1.388 . S
C2264 C2265 1.366 . S
C2265 C2264 1.366 . S
C2265 C2266 1.414 . S
C2265 C2268 1.499 . S
C2266 H2246 0.950 1_455 S
C2266 C2265 1.414 . S
C2266 C2267 1.374 . S
C2267 H2247 0.950 . S
C2267 C2263 1.385 . S
C2267 C2266 1.374 . S
C2268 C2265 1.499 . S
C2268 C2269 1.381 . S
C2268 C2270 1.389 . S
C2269 H2248 0.950 . S
C2269 C2268 1.381 . S
C2269 C2285 1.369 1_455 S
C2270 C2268 1.389 . S
C2270 C2271 1.524 . S
C2270 C2284 1.369 1_455 S
C2271 C2270 1.524 . S
C2271 C2272 1.397 . S
C2271 C2276 1.363 . S
C2272 H2249 0.950 1_455 S
C2272 C2271 1.397 . S
C2272 C2273 1.334 1_556 S
C2273 H2250 0.950 . S
C2273 C2272 1.334 1_554 S
C2273 C2274 1.287 . S
C2274 C2273 1.287 . S
C2274 C2275 1.524 . S
C2274 H2293 0.913 . S
C2275 H2251 0.950 . S
C2275 C2274 1.524 . S
C2275 C2276 1.415 1_554 S
C2276 H2252 0.950 . S
C2276 C2271 1.363 . S
C2276 C2275 1.415 1_556 S
C2277 H2253 0.951 . S
C2277 C2278 1.366 . S
C2277 C2279 1.388 . S
C2278 C2277 1.366 . S
C2278 C2282 1.385 . S
C2279 H2254 0.951 . S
C2279 C2277 1.388 . S
C2279 C2280 1.366 . S
C2280 C2279 1.366 . S
C2280 C2281 1.414 . S
C2280 C2283 1.499 . S
C2281 H2255 0.950 1_655 S
C2281 C2280 1.414 . S
C2281 C2282 1.374 . S
C2282 H2256 0.950 . S
C2282 C2278 1.385 . S
C2282 C2281 1.374 . S
C2283 C2280 1.499 . S
C2283 C2284 1.381 . S
C2283 C2285 1.389 . S
C2284 H2257 0.950 . S
C2284 C2270 1.369 1_655 S
C2284 C2283 1.381 . S
C2285 C2269 1.369 1_655 S
C2285 C2283 1.389 . S
C2285 C2286 1.524 . S
C2286 C2285 1.524 . S
C2286 C2287 1.397 . S
C2286 C2291 1.363 . S
C2287 H2258 0.950 1_655 S
C2287 C2286 1.397 . S
C2287 C2288 1.334 . S
C2288 H2259 0.950 . S
C2288 C2287 1.334 . S
C2288 C2289 1.287 . S
C2289 C2288 1.287 . S
C2289 C2290 1.524 . S
C2289 H2292 0.999 . S
C2290 H2260 0.950 . S
C2290 C2289 1.524 . S
C2290 C2291 1.415 . S
C2291 H2261 0.950 . S
C2291 C2286 1.363 . S
C2291 C2290 1.415 . S
H2292 C2289 0.999 . S
H2293 C2274 0.913 . S
H2294 C2312 0.951 . S
H2295 C2314 0.951 . S
H2296 C2316 0.950 1_545 S
H2297 C2317 0.950 . S
H2298 C2319 0.950 . S
H2299 C2322 0.950 . S
H2300 C2323 0.950 . S
H2301 C2325 0.950 . S
H2302 C2326 0.950 . S
H2303 C2327 0.951 . S
H2304 C2329 0.951 . S
H2305 C2331 0.950 1_565 S
H2306 C2332 0.950 . S
H2307 C2334 0.950 . S
H2308 C2337 0.950 . S
H2309 C2338 0.950 1_556 S
H2310 C2340 0.950 . S
H2311 C2341 0.950 . S
C2312 H2294 0.951 . S
C2312 C2313 1.366 . S
C2312 C2314 1.388 . S
C2313 C2312 1.366 . S
C2313 C2317 1.385 . S
C2314 H2295 0.951 . S
C2314 C2312 1.388 . S
C2314 C2315 1.366 . S
C2315 C2314 1.366 . S
C2315 C2316 1.414 . S
C2315 C2318 1.499 . S
C2316 H2296 0.950 1_565 S
C2316 C2315 1.414 . S
C2316 C2317 1.374 . S
C2317 H2297 0.950 . S
C2317 C2313 1.385 . S
C2317 C2316 1.374 . S
C2318 C2315 1.499 . S
C2318 C2319 1.373 1_565 S
C2318 C2320 1.389 . S
C2319 H2298 0.950 . S
C2319 C2318 1.373 1_545 S
C2319 C2335 1.377 . S
C2320 C2318 1.389 . S
C2320 C2321 1.524 . S
C2320 C2334 1.377 . S
C2321 C2320 1.524 . S
C2321 C2322 1.397 . S
C2321 C2326 1.363 . S
C2322 H2299 0.950 . S
C2322 C2321 1.397 . S
C2322 C2323 1.334 . S
C2323 H2300 0.950 . S
C2323 C2322 1.334 . S
C2323 C2324 1.287 . S
C2324 C2323 1.287 . S
C2324 C2325 1.524 . S
C2324 H2343 0.913 . S
C2325 H2301 0.950 . S
C2325 C2324 1.524 . S
C2325 C2326 1.415 . S
C2326 H2302 0.950 . S
C2326 C2321 1.363 . S
C2326 C2325 1.415 . S
C2327 H2303 0.951 . S
C2327 C2328 1.366 . S
C2327 C2329 1.388 . S
C2328 C2327 1.366 . S
C2328 C2332 1.385 . S
C2329 H2304 0.951 . S
C2329 C2327 1.388 . S
C2329 C2330 1.366 . S
C2330 C2329 1.366 . S
C2330 C2331 1.414 . S
C2330 C2333 1.499 . S
C2331 H2305 0.950 1_545 S
C2331 C2330 1.414 . S
C2331 C2332 1.374 . S
C2332 H2306 0.950 . S
C2332 C2328 1.385 . S
C2332 C2331 1.374 . S
C2333 C2330 1.499 . S
C2333 C2334 1.373 1_545 S
C2333 C2335 1.389 . S
C2334 H2307 0.950 . S
C2334 C2320 1.377 . S
C2334 C2333 1.373 1_565 S
C2335 C2319 1.377 . S
C2335 C2333 1.389 . S
C2335 C2336 1.524 . S
C2336 C2335 1.524 . S
C2336 C2337 1.397 . S
C2336 C2341 1.363 . S
C2337 H2308 0.950 . S
C2337 C2336 1.397 . S
C2337 C2338 1.334 . S
C2338 H2309 0.950 1_554 S
C2338 C2337 1.334 . S
C2338 C2339 1.287 . S
C2339 C2338 1.287 . S
C2339 C2340 1.524 . S
C2339 H2342 0.999 1_554 S
C2340 H2310 0.950 . S
C2340 C2339 1.524 . S
C2340 C2341 1.415 . S
C2341 H2311 0.950 . S
C2341 C2336 1.363 . S
C2341 C2340 1.415 . S
H2342 C2339 0.999 1_556 S
H2343 C2324 0.913 . S
H2344 C2362 0.951 . S
H2345 C2364 0.951 . S
H2346 C2366 0.950 . S
H2347 C2367 0.950 . S
H2348 C2369 0.950 . S
H2349 C2372 0.950 . S
H2350 C2373 0.950 . S
H2351 C2375 0.950 . S
H2352 C2376 0.950 . S
H2353 C2377 0.951 . S
H2354 C2379 0.951 . S
H2355 C2381 0.950 . S
H2356 C2382 0.950 . S
H2357 C2384 0.950 . S
H2358 C2387 0.950 . S
H2359 C2388 0.950 . S
H2360 C2390 0.950 . S
H2361 C2391 0.950 . S
C2362 H2344 0.951 . S
C2362 C2363 1.366 . S
C2362 C2364 1.388 . S
C2363 C2362 1.366 . S
C2363 C2367 1.385 . S
C2364 H2345 0.951 . S
C2364 C2362 1.388 . S
C2364 C2365 1.366 . S
C2365 C2364 1.366 . S
C2365 C2366 1.414 . S
C2365 C2368 1.499 . S
C2366 H2346 0.950 . S
C2366 C2365 1.414 . S
C2366 C2367 1.374 . S
C2367 H2347 0.950 . S
C2367 C2363 1.385 . S
C2367 C2366 1.374 . S
C2368 C2365 1.499 . S
C2368 C2369 1.373 . S
C2368 C2370 1.389 . S
C2369 H2348 0.950 . S
C2369 C2368 1.373 . S
C2369 C2385 1.377 . S
C2370 C2368 1.389 . S
C2370 C2371 1.524 . S
C2370 C2384 1.377 . S
C2371 C2370 1.524 . S
C2371 C2372 1.397 . S
C2371 C2376 1.363 . S
C2372 H2349 0.950 . S
C2372 C2371 1.397 . S
C2372 C2373 1.334 . S
C2373 H2350 0.950 . S
C2373 C2372 1.334 . S
C2373 C2374 1.287 . S
C2374 C2373 1.287 . S
C2374 C2375 1.524 . S
C2374 H2393 0.913 . S
C2375 H2351 0.950 . S
C2375 C2374 1.524 . S
C2375 C2376 1.415 . S
C2376 H2352 0.950 . S
C2376 C2371 1.363 . S
C2376 C2375 1.415 . S
C2377 H2353 0.951 . S
C2377 C2378 1.366 . S
C2377 C2379 1.388 . S
C2378 C2377 1.366 . S
C2378 C2382 1.385 . S
C2379 H2354 0.951 . S
C2379 C2377 1.388 . S
C2379 C2380 1.366 . S
C2380 C2379 1.366 . S
C2380 C2381 1.414 . S
C2380 C2383 1.499 . S
C2381 H2355 0.950 . S
C2381 C2380 1.414 . S
C2381 C2382 1.374 . S
C2382 H2356 0.950 . S
C2382 C2378 1.385 . S
C2382 C2381 1.374 . S
C2383 C2380 1.499 . S
C2383 C2384 1.373 . S
C2383 C2385 1.389 . S
C2384 H2357 0.950 . S
C2384 C2370 1.377 . S
C2384 C2383 1.373 . S
C2385 C2369 1.377 . S
C2385 C2383 1.389 . S
C2385 C2386 1.524 . S
C2386 C2385 1.524 . S
C2386 C2387 1.397 . S
C2386 C2391 1.363 . S
C2387 H2358 0.950 . S
C2387 C2386 1.397 . S
C2387 C2388 1.334 . S
C2388 H2359 0.950 . S
C2388 C2387 1.334 . S
C2388 C2389 1.287 . S
C2389 C2388 1.287 . S
C2389 C2390 1.524 . S
C2389 H2392 0.999 . S
C2390 H2360 0.950 . S
C2390 C2389 1.524 . S
C2390 C2391 1.415 . S
C2391 H2361 0.950 . S
C2391 C2386 1.363 . S
C2391 C2390 1.415 . S
H2392 C2389 0.999 . S
H2393 C2374 0.913 . S
H2394 C2412 0.951 . S
H2395 C2414 0.951 . S
H2396 C2416 0.950 . S
H2397 C2417 0.950 . S
H2398 C2419 0.950 . S
H2399 C2422 0.950 . S
H2400 C2423 0.950 . S
H2401 C2425 0.950 . S
H2402 C2426 0.950 . S
H2403 C2427 0.951 . S
H2404 C2429 0.951 . S
H2405 C2431 0.950 . S
H2406 C2432 0.950 . S
H2407 C2434 0.950 . S
H2408 C2437 0.950 . S
H2409 C2438 0.950 . S
H2410 C2440 0.950 . S
H2411 C2441 0.950 . S
C2412 H2394 0.951 . S
C2412 C2413 1.366 . S
C2412 C2414 1.388 . S
C2413 C2412 1.366 . S
C2413 C2417 1.385 . S
C2414 H2395 0.951 . S
C2414 C2412 1.388 . S
C2414 C2415 1.366 . S
C2415 C2414 1.366 . S
C2415 C2416 1.414 . S
C2415 C2418 1.499 . S
C2416 H2396 0.950 . S
C2416 C2415 1.414 . S
C2416 C2417 1.374 . S
C2417 H2397 0.950 . S
C2417 C2413 1.385 . S
C2417 C2416 1.374 . S
C2418 C2415 1.499 . S
C2418 C2419 1.373 . S
C2418 C2420 1.389 . S
C2419 H2398 0.950 . S
C2419 C2418 1.373 . S
C2419 C2435 1.377 . S
C2420 C2418 1.389 . S
C2420 C2421 1.524 . S
C2420 C2434 1.377 . S
C2421 C2420 1.524 . S
C2421 C2422 1.397 . S
C2421 C2426 1.363 . S
C2422 H2399 0.950 . S
C2422 C2421 1.397 . S
C2422 C2423 1.334 . S
C2423 H2400 0.950 . S
C2423 C2422 1.334 . S
C2423 C2424 1.287 . S
C2424 C2423 1.287 . S
C2424 C2425 1.524 . S
C2424 H2443 0.913 . S
C2425 H2401 0.950 . S
C2425 C2424 1.524 . S
C2425 C2426 1.415 . S
C2426 H2402 0.950 . S
C2426 C2421 1.363 . S
C2426 C2425 1.415 . S
C2427 H2403 0.951 . S
C2427 C2428 1.366 . S
C2427 C2429 1.388 . S
C2428 C2427 1.366 . S
C2428 C2432 1.385 . S
C2429 H2404 0.951 . S
C2429 C2427 1.388 . S
C2429 C2430 1.366 . S
C2430 C2429 1.366 . S
C2430 C2431 1.414 . S
C2430 C2433 1.499 . S
C2431 H2405 0.950 . S
C2431 C2430 1.414 . S
C2431 C2432 1.374 . S
C2432 H2406 0.950 . S
C2432 C2428 1.385 . S
C2432 C2431 1.374 . S
C2433 C2430 1.499 . S
C2433 C2434 1.373 . S
C2433 C2435 1.389 . S
C2434 H2407 0.950 . S
C2434 C2420 1.377 . S
C2434 C2433 1.373 . S
C2435 C2419 1.377 . S
C2435 C2433 1.389 . S
C2435 C2436 1.524 . S
C2436 C2435 1.524 . S
C2436 C2437 1.397 . S
C2436 C2441 1.363 . S
C2437 H2408 0.950 . S
C2437 C2436 1.397 . S
C2437 C2438 1.334 . S
C2438 H2409 0.950 . S
C2438 C2437 1.334 . S
C2438 C2439 1.287 . S
C2439 C2438 1.287 . S
C2439 C2440 1.524 . S
C2439 H2442 0.999 . S
C2440 H2410 0.950 . S
C2440 C2439 1.524 . S
C2440 C2441 1.415 . S
C2441 H2411 0.950 . S
C2441 C2436 1.363 . S
C2441 C2440 1.415 . S
H2442 C2439 0.999 . S
H2443 C2424 0.913 . S
H2444 C2462 0.951 . S
H2445 C2464 0.951 . S
H2446 C2466 0.950 . S
H2447 C2467 0.950 . S
H2448 C2469 0.950 . S
H2449 C2472 0.950 . S
H2450 C2473 0.950 . S
H2451 C2475 0.950 . S
H2452 C2476 0.950 . S
H2453 C2477 0.951 . S
H2454 C2479 0.951 . S
H2455 C2481 0.950 . S
H2456 C2482 0.950 . S
H2457 C2484 0.950 . S
H2458 C2487 0.950 . S
H2459 C2488 0.950 . S
H2460 C2490 0.950 . S
H2461 C2491 0.950 . S
C2462 H2444 0.951 . S
C2462 C2463 1.366 . S
C2462 C2464 1.388 . S
C2463 C2462 1.366 . S
C2463 C2467 1.385 . S
C2464 H2445 0.951 . S
C2464 C2462 1.388 . S
C2464 C2465 1.366 . S
C2465 C2464 1.366 . S
C2465 C2466 1.414 . S
C2465 C2468 1.499 . S
C2466 H2446 0.950 . S
C2466 C2465 1.414 . S
C2466 C2467 1.374 . S
C2467 H2447 0.950 . S
C2467 C2463 1.385 . S
C2467 C2466 1.374 . S
C2468 C2465 1.499 . S
C2468 C2469 1.373 . S
C2468 C2470 1.389 . S
C2469 H2448 0.950 . S
C2469 C2468 1.373 . S
C2469 C2485 1.377 1_545 S
C2470 C2468 1.389 . S
C2470 C2471 1.524 . S
C2470 C2484 1.377 1_545 S
C2471 C2470 1.524 . S
C2471 C2472 1.397 . S
C2471 C2476 1.363 1_545 S
C2472 H2449 0.950 . S
C2472 C2471 1.397 . S
C2472 C2473 1.334 . S
C2473 H2450 0.950 . S
C2473 C2472 1.334 . S
C2473 C2474 1.287 . S
C2474 C2473 1.287 . S
C2474 C2475 1.524 1_545 S
C2474 H2493 0.913 . S
C2475 H2451 0.950 . S
C2475 C2474 1.524 1_565 S
C2475 C2476 1.415 . S
C2476 H2452 0.950 . S
C2476 C2471 1.363 1_565 S
C2476 C2475 1.415 . S
C2477 H2453 0.951 . S
C2477 C2478 1.366 . S
C2477 C2479 1.388 . S
C2478 C2477 1.366 . S
C2478 C2482 1.385 . S
C2479 H2454 0.951 . S
C2479 C2477 1.388 . S
C2479 C2480 1.366 . S
C2480 C2479 1.366 . S
C2480 C2481 1.414 . S
C2480 C2483 1.499 . S
C2481 H2455 0.950 . S
C2481 C2480 1.414 . S
C2481 C2482 1.374 . S
C2482 H2456 0.950 . S
C2482 C2478 1.385 . S
C2482 C2481 1.374 . S
C2483 C2480 1.499 . S
C2483 C2484 1.373 . S
C2483 C2485 1.389 . S
C2484 H2457 0.950 . S
C2484 C2470 1.377 1_565 S
C2484 C2483 1.373 . S
C2485 C2469 1.377 1_565 S
C2485 C2483 1.389 . S
C2485 C2486 1.524 . S
C2486 C2485 1.524 . S
C2486 C2487 1.397 . S
C2486 C2491 1.363 1_565 S
C2487 H2458 0.950 . S
C2487 C2486 1.397 . S
C2487 C2488 1.334 . S
C2488 H2459 0.950 . S
C2488 C2487 1.334 . S
C2488 C2489 1.287 . S
C2489 C2488 1.287 . S
C2489 C2490 1.524 1_565 S
C2489 H2492 0.999 . S
C2490 H2460 0.950 . S
C2490 C2489 1.524 1_545 S
C2490 C2491 1.415 . S
C2491 H2461 0.950 . S
C2491 C2486 1.363 1_545 S
C2491 C2490 1.415 . S
H2492 C2489 0.999 . S
H2493 C2474 0.913 . S
H2494 C2512 0.951 . S
H2495 C2514 0.951 . S
H2496 C2516 0.950 . S
H2497 C2517 0.950 . S
H2498 C2519 0.950 . S
H2499 C2522 0.950 . S
H2500 C2523 0.950 . S
H2501 C2525 0.950 . S
H2502 C2526 0.950 . S
H2503 C2527 0.951 . S
H2504 C2529 0.951 . S
H2505 C2531 0.950 . S
H2506 C2532 0.950 . S
H2507 C2534 0.950 . S
H2508 C2537 0.950 . S
H2509 C2538 0.950 . S
H2510 C2540 0.950 . S
H2511 C2541 0.950 . S
C2512 H2494 0.951 . S
C2512 C2513 1.366 . S
C2512 C2514 1.388 . S
C2513 C2512 1.366 . S
C2513 C2517 1.385 . S
C2514 H2495 0.951 . S
C2514 C2512 1.388 . S
C2514 C2515 1.366 . S
C2515 C2514 1.366 . S
C2515 C2516 1.414 . S
C2515 C2518 1.499 . S
C2516 H2496 0.950 . S
C2516 C2515 1.414 . S
C2516 C2517 1.374 . S
C2517 H2497 0.950 . S
C2517 C2513 1.385 . S
C2517 C2516 1.374 . S
C2518 C2515 1.499 . S
C2518 C2519 1.373 . S
C2518 C2520 1.389 . S
C2519 H2498 0.950 . S
C2519 C2518 1.373 . S
C2519 C2535 1.377 1_655 S
C2520 C2518 1.389 . S
C2520 C2521 1.524 . S
C2520 C2534 1.377 1_655 S
C2521 C2520 1.524 . S
C2521 C2522 1.397 . S
C2521 C2526 1.363 1_655 S
C2522 H2499 0.950 . S
C2522 C2521 1.397 . S
C2522 C2523 1.334 . S
C2523 H2500 0.950 . S
C2523 C2522 1.334 . S
C2523 C2524 1.287 . S
C2524 C2523 1.287 . S
C2524 C2525 1.524 1_655 S
C2524 H2543 0.913 . S
C2525 H2501 0.950 . S
C2525 C2524 1.524 1_455 S
C2525 C2526 1.415 . S
C2526 H2502 0.950 . S
C2526 C2521 1.363 1_455 S
C2526 C2525 1.415 . S
C2527 H2503 0.951 . S
C2527 C2528 1.366 . S
C2527 C2529 1.388 . S
C2528 C2527 1.366 . S
C2528 C2532 1.385 . S
C2529 H2504 0.951 . S
C2529 C2527 1.388 . S
C2529 C2530 1.366 . S
C2530 C2529 1.366 . S
C2530 C2531 1.414 . S
C2530 C2533 1.499 . S
C2531 H2505 0.950 . S
C2531 C2530 1.414 . S
C2531 C2532 1.374 . S
C2532 H2506 0.950 . S
C2532 C2528 1.385 . S
C2532 C2531 1.374 . S
C2533 C2530 1.499 . S
C2533 C2534 1.373 . S
C2533 C2535 1.389 . S
C2534 H2507 0.950 . S
C2534 C2520 1.377 1_455 S
C2534 C2533 1.373 . S
C2535 C2519 1.377 1_455 S
C2535 C2533 1.389 . S
C2535 C2536 1.524 . S
C2536 C2535 1.524 . S
C2536 C2537 1.397 . S
C2536 C2541 1.363 1_455 S
C2537 H2508 0.950 . S
C2537 C2536 1.397 . S
C2537 C2538 1.334 . S
C2538 H2509 0.950 . S
C2538 C2537 1.334 . S
C2538 C2539 1.287 . S
C2539 C2538 1.287 . S
C2539 C2540 1.524 1_455 S
C2539 H2542 0.999 . S
C2540 H2510 0.950 . S
C2540 C2539 1.524 1_655 S
C2540 C2541 1.415 . S
C2541 H2511 0.950 . S
C2541 C2536 1.363 1_655 S
C2541 C2540 1.415 . S
H2542 C2539 0.999 . S
H2543 C2524 0.913 . S
C963 C33 1.251 . S
C978 C701 1.257 . S
C1013 C524 1.257 . S
C1028 C92 1.251 . S
C1063 C583 1.257 . S
C1078 C151 1.251 . S
C1113 C642 1.257 . S
C1128 C210 1.252 . S
C1163 C347 1.257 . S
C1178 C269 1.251 . S
C1213 C328 1.251 . S
C1228 C406 1.257 . S
C1263 C387 1.251 . S
C1278 C465 1.257 . S
C1313 C446 1.251 . S
C1328 C288 1.257 . S
C1363 C505 1.251 . S
C1378 C229 1.257 . S
C1413 C52 1.257 . S
C1428 C564 1.251 . S
C1463 C111 1.257 . S
C1478 C623 1.252 . S
C1513 C170 1.257 . S
C1528 C682 1.251 . S
C1563 C819 1.257 . S
C1578 C741 1.251 . S
C1613 C800 1.251 . S
C1628 C878 1.257 . S
C1663 C937 1.257 . S
C1678 C859 1.251 . S
C1713 C760 1.257 . S
C1728 C918 1.252 . S
C1763 C831 1.510 . S
C1778 C5 1.510 . S
C1813 C890 1.511 . S
C1828 C64 1.511 . S
C1863 C713 1.510 . S
C1878 C123 1.510 . S
C1913 C182 1.511 . S
C1928 C772 1.510 . S
C1963 C241 1.511 . S
C1978 C595 1.511 . S
C2013 C654 1.510 . S
C2028 C300 1.510 . S
C2063 C359 1.510 . S
C2078 C477 1.510 . S
C2113 C418 1.511 . S
C2128 C536 1.511 . S
C2163 C121 1.323 . S
C2178 C3 1.324 . S
C2213 C180 1.323 . S
C2228 C62 1.323 . S
C2263 C239 1.323 . S
C2278 C357 1.323 . S
C2313 C298 1.323 . S
C2328 C416 1.323 . S
C2363 C593 1.324 . S
C2378 C475 1.324 . S
C2413 C534 1.323 . S
C2428 C652 1.323 . S
C2463 C829 1.323 . S
C2478 C711 1.323 . S
C2513 C770 1.323 . S
C2528 C888 1.323 . S
