# Generated by pormake.
# Topology qtz-x, (6)-cn, num edge types: 1
# Building blocks:
#     Node 0, Type 0, BuildingBlock: KUMBOL_clean_sbu_1, # of connection points: 6
#     Node 1, Type 0, BuildingBlock: KUMBOL_clean_sbu_1, # of connection points: 6
#     Node 2, Type 0, BuildingBlock: KUMBOL_clean_sbu_1, # of connection points: 6
#     Edge 3, Type (0, 0), BuildingBlock: OJICUG_clean_linker_0, # of connection points: 2
#     Edge 4, Type (0, 0), BuildingBlock: OJICUG_clean_linker_0, # of connection points: 2
#     Edge 5, Type (0, 0), BuildingBlock: OJICUG_clean_linker_0, # of connection points: 2
#     Edge 6, Type (0, 0), BuildingBlock: OJICUG_clean_linker_0, # of connection points: 2
#     Edge 7, Type (0, 0), BuildingBlock: OJICUG_clean_linker_0, # of connection points: 2
#     Edge 8, Type (0, 0), BuildingBlock: OJICUG_clean_linker_0, # of connection points: 2
#     Edge 9, Type (0, 0), BuildingBlock: OJICUG_clean_linker_0, # of connection points: 2
#     Edge 10, Type (0, 0), BuildingBlock: OJICUG_clean_linker_0, # of connection points: 2
#     Edge 11, Type (0, 0), BuildingBlock: OJICUG_clean_linker_0, # of connection points: 2
# Relax obj value: 0.202
# Max RMSD: 0.284
# Mean RMSD: 0.284
data_MOF--net-qtz-x--node1-KUMBOL_clean_sbu_1--edge1-OJICUG_clean_linker_0
_symmetry_space_group_name_H-M    P1
_symmetry_Int_Tables_number       1
_symmetry_cell_setting            triclinic
loop_
_symmetry_equiv_pos_as_xyz
'x, y, z'
_cell_length_a     11.497596
_cell_length_b     11.514519
_cell_length_c     42.208836
_cell_angle_alpha  89.956513
_cell_angle_beta   89.914267
_cell_angle_gamma 119.91415
loop_
_atom_site_label
_atom_site_type_symbol
_atom_site_fract_x
_atom_site_fract_y
_atom_site_fract_z
_atom_type_partial_charge
C0 C 0.50183 0.52898 0.19655 0.0
C1 C 0.63121 0.71785 0.16149 0.0
C2 C 0.51295 0.63506 0.17833 0.0
C3 C 0.7379 0.69359 0.16348 0.0
C4 C 0.6104 0.50652 0.19916 0.0
C5 C 0.72861 0.58995 0.18251 0.0
N6 N 0.38308 0.44443 0.21055 0.0
C7 C 0.36576 0.33678 0.22789 0.0
C8 C 0.5937 0.39669 0.21708 0.0
C9 C 0.47203 0.31307 0.23202 0.0
Gd10 Gd 0.91496 0.35477 0.13727 0.0
Gd11 Gd 0.21205 0.49021 0.2012 0.0
N12 N 0.40459 0.6514 0.17542 0.0
C13 C 0.63644 0.8183 0.14188 0.0
C14 C 0.41018 0.75256 0.15749 0.0
C15 C 0.52498 0.83535 0.13996 0.0
H16 H 0.32505 0.7668 0.15545 0.0
H17 H 0.52655 0.91203 0.12514 0.0
H18 H 0.80991 0.09074 0.18753 0.0
H19 H 0.26971 0.26905 0.23854 0.0
H20 H 0.60751 0.94589 0.21807 0.0
H21 H 0.72566 0.88302 0.12823 0.0
H22 H 0.82436 0.75003 0.14888 0.0
H23 H 0.84936 0.56593 0.09771 0.0
H24 H 0.67074 0.37068 0.21857 0.0
H25 H 0.45855 0.22731 0.24555 0.0
H26 H 0.29306 0.07249 0.18408 0.0
H27 H 0.81135 0.57223 0.18297 0.0
H28 H 0.4376 0.43854 0.11235 0.0
H29 H 0.65329 0.59306 0.08721 0.0
N30 N 0.73847 0.38929 0.12551 0.0
C31 C 0.61903 0.30035 0.13849 0.0
C32 C 0.75263 0.49372 0.10731 0.0
C33 C 0.51962 0.42086 0.11509 0.0
C34 C 0.64242 0.50964 0.10131 0.0
C35 C 0.50635 0.31502 0.13384 0.0
H36 H 0.30082 0.24247 0.14682 0.0
N37 N 0.72359 0.19171 0.16336 0.0
C38 C 0.61153 0.1999 0.15824 0.0
C39 C 0.49109 0.0243 0.19673 0.0
C40 C 0.49234 0.11571 0.17467 0.0
C41 C 0.72185 0.09858 0.1837 0.0
C42 C 0.60683 0.01619 0.20129 0.0
O43 O 0.27397 0.46438 0.15104 0.0
O44 O 0.12354 0.51163 0.13399 0.0
O45 O 0.87251 0.1988 0.10296 0.0
O46 O 0.91442 0.39444 0.08688 0.0
O47 O 0.13171 0.63821 0.19081 0.0
O48 O 0.0082 0.58399 0.14367 0.0
O49 O 0.85767 0.39238 0.18614 0.0
O50 O 0.00138 0.33676 0.20384 0.0
O51 O 0.23222 0.64129 0.23509 0.0
O52 O 0.24256 0.46956 0.25134 0.0
O53 O 0.00127 0.21181 0.14694 0.0
O54 O 0.10625 0.25895 0.19628 0.0
C55 C 0.21046 0.47733 0.12698 0.0
C56 C 0.06851 0.66649 0.16806 0.0
C57 C 0.75421 0.20845 0.0582 0.0
C58 C 0.65934 0.18572 0.00523 0.0
C59 C 0.52012 0.04748 0.04902 0.0
C60 C 0.62847 0.11147 0.06959 0.0
C61 C 0.53577 0.08177 0.01695 0.0
C62 C 0.76825 0.24823 0.02646 0.0
C63 C 0.87156 0.27061 0.07916 0.0
C64 C 0.38075 0.1311 0.17012 0.0
C65 C 0.38665 0.22913 0.14951 0.0
H66 H 0.40153 0.95967 0.21029 0.0
C67 C 0.91695 0.37517 0.21037 0.0
C68 C 0.05624 0.18007 0.17087 0.0
C69 C 0.3793 0.67371 0.27718 0.0
C70 C 0.48855 0.77673 0.3271 0.0
C71 C 0.62122 0.8168 0.27922 0.0
C72 C 0.5049 0.73511 0.26222 0.0
C73 C 0.61343 0.83755 0.31146 0.0
C74 C 0.37095 0.69534 0.30969 0.0
C75 C 0.25815 0.58567 0.25886 0.0
H76 H 0.42374 0.97087 0.05795 0.0
H77 H 0.61473 0.08603 0.09438 0.0
H78 H 0.45029 0.0264 0.00162 0.0
H79 H 0.86434 0.32999 0.0189 0.0
H80 H 0.71765 0.86421 0.26735 0.0
H81 H 0.51293 0.72072 0.23731 0.0
H82 H 0.70523 0.90211 0.32416 0.0
H83 H 0.27409 0.64716 0.32144 0.0
C84 C 0.2879 0.62778 0.52851 0.0
C85 C 0.34795 0.49867 0.49352 0.0
C86 C 0.38276 0.61722 0.51002 0.0
C87 C 0.21765 0.39151 0.49598 0.0
C88 C 0.15804 0.51826 0.53187 0.0
C89 C 0.1237 0.40009 0.51541 0.0
N90 N 0.32143 0.74621 0.54245 0.0
C91 C 0.23159 0.76237 0.56038 0.0
C92 C 0.06551 0.53364 0.55045 0.0
C93 C 0.10298 0.65511 0.56527 0.0
Gd94 Gd 0.69953 0.22072 0.47 0.0
Gd95 Gd 0.53759 0.91747 0.53296 0.0
N96 N 0.50712 0.72553 0.50692 0.0
C97 C 0.44341 0.49295 0.47401 0.0
C98 C 0.60314 0.71942 0.48912 0.0
C99 C 0.57185 0.60397 0.47191 0.0
H100 H 0.70244 0.80439 0.48703 0.0
H101 H 0.64698 0.60081 0.45716 0.0
H102 H 0.53926 0.32138 0.52101 0.0
H103 H 0.25926 0.85818 0.57096 0.0
H104 H 0.59578 0.52242 0.55194 0.0
H105 H 0.41928 0.40329 0.46069 0.0
H106 H 0.18814 0.3047 0.48166 0.0
H107 H 0.97379 0.28656 0.42951 0.0
H108 H 0.96327 0.45555 0.55258 0.0
H109 H 0.03115 0.66761 0.57932 0.0
H110 H 0.03904 0.83678 0.51899 0.0
H111 H 0.02384 0.31669 0.51649 0.0
H112 H 0.26144 0.69459 0.44667 0.0
H113 H 0.19847 0.48199 0.41977 0.0
N114 N 0.91164 0.39474 0.45934 0.0
C115 C 0.94242 0.51292 0.47297 0.0
C116 C 0.00016 0.3819 0.44016 0.0
C117 C 0.16162 0.61297 0.44919 0.0
C118 C 0.12665 0.49179 0.43449 0.0
C119 C 0.06942 0.62537 0.46838 0.0
H120 H 0.202 0.8295 0.48169 0.0
N121 N 0.72805 0.40837 0.4975 0.0
C122 C 0.84884 0.51997 0.49274 0.0
C123 C 0.7917 0.63915 0.53109 0.0
C124 C 0.88313 0.63836 0.50928 0.0
C125 C 0.63562 0.40938 0.51762 0.0
C126 C 0.6675 0.52364 0.53532 0.0
O127 O 0.45276 0.85819 0.48272 0.0
O128 O 0.64844 0.01217 0.46483 0.0
O129 O 0.60906 0.29593 0.43668 0.0
O130 O 0.73132 0.21527 0.41934 0.0
O131 O 0.76478 -0.00331 0.52212 0.0
O132 O 0.83784 0.12928 0.47615 0.0
O133 O 0.79648 0.27479 0.51868 0.0
O134 O 0.59676 0.12808 0.53472 0.0
O135 O 0.66585 0.89254 0.56687 0.0
O136 O 0.48832 0.89161 0.58328 0.0
O137 O 0.46958 0.13045 0.479 0.0
O138 O 0.4108 0.02265 0.52814 0.0
C139 C 0.52725 0.92318 0.45841 0.0
C140 C 0.85727 0.06321 0.49978 0.0
C141 C 0.74577 0.39922 0.39164 0.0
C142 C 0.84717 0.48828 0.34001 0.0
C143 C 0.87727 0.63972 0.38339 0.0
C144 C 0.80002 0.53051 0.40314 0.0
C145 C 0.9014 0.61911 0.35203 0.0
C146 C 0.76846 0.37893 0.36008 0.0
C147 C 0.67095 0.2819 0.41237 0.0
C148 C 0.01023 0.74967 0.50491 0.0
C149 C 0.10285 0.74413 0.48429 0.0
H150 H 0.81589 0.72813 0.54471 0.0
C151 C 0.71834 0.21102 0.54232 0.0
C152 C 0.3827 0.07453 0.50288 0.0
C153 C 0.54728 0.74801 0.60919 0.0
C154 C 0.52889 0.63406 0.6593 0.0
C155 C 0.44398 0.50578 0.61072 0.0
C156 C 0.48401 0.62368 0.59388 0.0
C157 C 0.46624 0.51062 0.6432 0.0
C158 C 0.57058 0.75342 0.64203 0.0
C159 C 0.58558 0.8705 0.59077 0.0
H160 H 0.9197 0.74061 0.39251 0.0
H161 H 0.78428 0.54879 0.42741 0.0
H162 H 0.96398 0.70544 0.33738 0.0
H163 H 0.72426 0.27728 0.35123 0.0
H164 H 0.39595 0.41043 0.59852 0.0
H165 H 0.46686 0.61791 0.56877 0.0
H166 H 0.4353 0.41751 0.65573 0.0
H167 H 0.61839 0.84927 0.65408 0.0
C168 C 0.55855 0.80663 0.86284 0.0
C169 C 0.37152 0.75118 0.82766 0.0
C170 C 0.4555 0.71474 0.84359 0.0
C171 C 0.39086 0.87957 0.83188 0.0
C172 C 0.57532 0.93432 0.86775 0.0
C173 C 0.49013 0.97016 0.85241 0.0
N174 N 0.64405 0.77226 0.87622 0.0
C175 C 0.74858 0.85998 0.89467 0.0
C176 C 0.68073 0.02389 0.88696 0.0
C177 C 0.76706 0.98676 0.90082 0.0
Gd178 Gd 0.74039 0.39987 0.80267 0.0
Gd179 Gd 0.60013 0.55723 0.8657 0.0
N180 N 0.44144 0.59174 0.83938 0.0
C181 C 0.27337 0.65915 0.80715 0.0
C182 C 0.3412 0.49832 0.82086 0.0
C183 C 0.25809 0.5319 0.80381 0.0
H184 H 0.32809 0.3997 0.8181 0.0
H185 H 0.18171 0.45923 0.78837 0.0
H186 H 0.00864 0.56137 0.85117 0.0
H187 H 0.81716 0.83171 0.90485 0.0
H188 H 0.1558 0.50546 0.88145 0.0
H189 H 0.20804 0.68474 0.79413 0.0
H190 H 0.33213 0.90963 0.81828 0.0
H191 H 0.53018 0.12603 0.76263 0.0
H192 H 0.6996 0.12333 0.89018 0.0
H193 H 0.8499 0.05703 0.91536 0.0
H194 H 0.00999 0.05366 0.85313 0.0
H195 H 0.50313 0.06871 0.85563 0.0
H196 H 0.64 0.83189 0.78232 0.0
H197 H 0.49496 0.89842 0.75447 0.0
N198 N 0.69886 0.1858 0.79284 0.0
C199 C 0.7843 0.15294 0.80686 0.0
C200 C 0.59705 0.0979 0.77382 0.0
C201 C 0.66119 0.93283 0.78416 0.0
C202 C 0.57723 0.9698 0.76897 0.0
C203 C 0.76702 0.02459 0.80296 0.0
H204 H 0.83646 0.89027 0.81687 0.0
N205 N 0.89917 0.36913 0.82989 0.0
C206 C 0.88674 0.24655 0.82602 0.0
C207 C 0.06777 0.30518 0.86299 0.0
C208 C 0.97073 0.21163 0.84251 0.0
C209 C -0.00279 0.46339 0.84865 0.0
C210 C 0.08106 0.43183 0.86597 0.0
O211 O 0.62928 0.64474 0.81557 0.0
O212 O 0.58166 0.44905 0.79589 0.0
O213 O 0.90882 0.49162 0.77003 0.0
O214 O 0.70809 0.36702 0.75196 0.0
O215 O 0.45398 0.33066 0.85485 0.0
O216 O 0.51051 0.26162 0.80809 0.0
O217 O 0.70097 0.30697 0.85174 0.0
O218 O 0.75726 0.50482 0.87212 0.0
O219 O 0.43872 0.43244 0.89823 0.0
O220 O 0.61856 0.6009 0.91628 0.0
O221 O 0.87844 0.62938 0.81146 0.0
O222 O 0.8316 0.68473 0.86107 0.0
C223 C 0.61513 0.57153 0.79066 0.0
C224 C 0.42604 0.24008 0.83207 0.0
C225 C 0.88193 0.35668 0.72518 0.0
C226 C 0.88022 0.26278 0.67328 0.0
C227 C -0.00779 0.22557 0.71771 0.0
C228 C 0.95597 0.29993 0.73734 0.0
C229 C 0.95433 0.2065 0.68586 0.0
C230 C 0.84571 0.33891 0.69319 0.0
C231 C 0.83557 0.42933 0.74551 0.0
C232 C 0.95167 0.0829 0.83905 0.0
C233 C 0.85153 -0.01 0.81903 0.0
H234 H 0.13325 0.28102 0.87641 0.0
C235 C 0.71925 0.38061 0.87665 0.0
C236 C 0.91086 0.71435 0.83566 0.0
C237 C 0.41637 0.54548 0.94234 0.0
C238 C 0.32608 0.55983 0.99367 0.0
C239 C 0.27957 0.65101 0.94646 0.0
C240 C 0.35555 0.61208 0.92835 0.0
C241 C 0.26493 0.62538 0.97891 0.0
C242 C 0.40085 0.51846 0.97509 0.0
C243 C 0.49768 0.50657 0.92288 0.0
H244 H 0.04858 0.18138 0.7273 0.0
H245 H -0.01546 0.31175 0.76199 0.0
H246 H 0.98113 0.14605 0.67126 0.0
H247 H 0.79029 0.3848 0.68388 0.0
H248 H 0.2323 0.70162 0.93533 0.0
H249 H 0.36625 0.63331 0.90336 0.0
H250 H 0.20537 0.65666 0.99252 0.0
H251 H 0.44907 0.46842 0.98613 0.0
C252 C 0.07571 0.87053 0.14091 0.0
C253 C 0.06971 0.80035 0.16901 0.0
H254 H 0.07114 0.03843 0.11924 0.0
C255 C 0.05588 0.85598 0.19773 0.0
H256 H 0.08587 0.83245 0.11825 0.0
C257 C 0.0461 0.97459 0.1983 0.0
C258 C 0.05263 0.04499 0.17019 0.0
H259 H 0.05205 0.80759 0.21997 0.0
H260 H 0.03679 0.01313 0.22097 0.0
C261 C 0.06519 -0.01137 0.14146 0.0
C262 C 0.18721 0.08511 0.5301 0.0
C263 C 0.25083 0.07742 0.50208 0.0
H264 H 0.01405 0.07948 0.55165 0.0
C265 C 0.18176 0.06369 0.47332 0.0
H266 H 0.23521 0.09518 0.55278 0.0
C267 C 0.05339 0.054 0.47267 0.0
C268 C -0.0105 0.06116 0.5007 0.0
H269 H 0.22556 0.05676 0.45117 0.0
H270 H 0.00509 0.04343 0.45001 0.0
C271 C 0.05875 0.07525 0.52945 0.0
C272 C 0.09953 0.91737 0.80591 0.0
C273 C 0.04506 0.84717 0.83468 0.0
H274 H 0.25576 0.094 0.78245 0.0
C275 C 0.11739 0.91012 0.86258 0.0
H276 H 0.04819 0.87443 0.78384 0.0
C277 C 0.23613 0.0383 0.86182 0.0
C278 C 0.29089 0.10839 0.83306 0.0
H279 H 0.08066 0.86134 0.88527 0.0
H280 H 0.28694 0.08107 0.88391 0.0
C281 C 0.21866 0.04534 0.80514 0.0
C282 C 0.33395 0.64631 0.04816 0.0
C283 C 0.31336 0.53948 0.02851 0.0
H284 H 0.31573 0.70909 0.0945 0.0
C285 C 0.27002 0.41282 0.04217 0.0
H286 H 0.36709 0.74473 0.03827 0.0
C287 C 0.24204 0.39269 0.07476 0.0
C288 C 0.26095 0.49987 0.09416 0.0
H289 H 0.25154 0.32832 0.02744 0.0
H290 H 0.20216 0.29311 0.08466 0.0
C291 C 0.30661 0.62638 0.08048 0.0
C292 C 0.89138 0.35641 0.29927 0.0
C293 C 0.87211 0.4647 0.30674 0.0
H294 H 0.91867 0.24323 0.26277 0.0
C295 C 0.8737 0.54776 0.28209 0.0
H296 H 0.89473 0.29261 0.31769 0.0
C297 C 0.89061 0.52075 0.2507 0.0
C298 C 0.90284 0.40875 0.24327 0.0
H299 H 0.85904 0.63194 0.28692 0.0
H300 H 0.8924 0.58644 0.23232 0.0
C301 C 0.90623 0.32866 0.26787 0.0
C302 C 0.69517 0.70311 0.74015 0.0
C303 C 0.59029 0.60552 0.7587 0.0
H304 H 0.75704 0.7916 0.6939 0.0
C305 C 0.46457 0.52419 0.74477 0.0
H306 H 0.79416 0.76405 0.75023 0.0
C307 C 0.44317 0.53983 0.71301 0.0
C308 C 0.54829 0.63466 0.69406 0.0
H309 H 0.38376 0.44435 0.75811 0.0
H310 H 0.34524 0.47386 0.70293 0.0
C311 C 0.67384 0.71882 0.70808 0.0
C312 C 0.81616 0.35141 0.92628 0.0
C313 C 0.70343 0.32917 0.90895 0.0
H314 H 0.89097 0.31346 0.96856 0.0
C315 C 0.57608 0.25696 0.92261 0.0
H316 H 0.91543 0.40658 0.91605 0.0
C317 C 0.56156 0.21149 0.95378 0.0
C318 C 0.67409 0.23137 0.97149 0.0
H319 H 0.48788 0.2378 0.90944 0.0
H320 H 0.46182 0.16313 0.96387 0.0
C321 C 0.80147 0.29952 0.95681 0.0
C322 C 0.39786 0.84005 0.37433 0.0
C323 C 0.48412 0.79819 0.3616 0.0
H324 H 0.34503 0.91456 0.41547 0.0
C325 C 0.57586 0.78794 0.38166 0.0
H326 H 0.32765 0.85073 0.35923 0.0
C327 C 0.58503 0.82352 0.41344 0.0
C328 C 0.50053 0.86692 0.4262 0.0
H329 H 0.64374 0.75625 0.37252 0.0
H330 H 0.66234 0.82208 0.42773 0.0
C331 C 0.40762 0.87637 0.40635 0.0
C332 C 0.92374 0.24538 0.61552 0.0
C333 C 0.83757 0.24228 0.63961 0.0
H334 H 0.95274 0.23564 0.5658 0.0
C335 C 0.71084 0.22312 0.63123 0.0
H336 H 0.02212 0.26013 0.6211 0.0
C337 C 0.67353 0.21301 0.59953 0.0
C338 C 0.76145 0.22087 0.5755 0.0
H339 H 0.64028 0.21633 0.64918 0.0
H340 H 0.57609 0.20051 0.59377 0.0
C341 C 0.88514 0.2333 0.58378 0.0
loop_
_geom_bond_atom_site_label_1
_geom_bond_atom_site_label_2
_geom_bond_distance
_geom_bond_site_symmetry_2
_ccdc_geom_bond_type
C0 C2 1.422 . S
C0 C4 1.415 . S
C0 N6 1.369 . S
C1 C2 1.421 . S
C1 C3 1.417 . S
C1 C13 1.422 . S
C2 C0 1.422 . S
C2 C1 1.421 . S
C2 N12 1.359 . S
C3 C1 1.417 . S
C3 C5 1.329 . S
C3 H22 0.930 . S
C4 C0 1.415 . S
C4 C5 1.437 . S
C4 C8 1.413 . S
C5 C3 1.329 . S
C5 C4 1.437 . S
C5 H27 0.929 . S
N6 C0 1.369 . S
N6 C7 1.338 . S
N6 Gd11 2.622 . S
C7 N6 1.338 . S
C7 C9 1.378 . S
C7 H19 0.929 . S
C8 C4 1.413 . S
C8 C9 1.348 . S
C8 H24 0.931 . S
C9 C7 1.378 . S
C9 C8 1.348 . S
C9 H25 0.930 . S
Gd10 N30 2.622 . S
Gd10 N37 2.570 . S
Gd10 O44 2.353 1_655 S
Gd10 O45 2.468 . S
Gd10 O46 2.427 . S
Gd10 O48 2.388 . S
Gd10 O49 2.386 . S
Gd10 O53 2.307 . S
Gd10 C63 2.805 . S
Gd11 N6 2.622 . S
Gd11 N12 2.570 . S
Gd11 O43 2.386 . S
Gd11 O47 2.307 . S
Gd11 O50 2.353 1_455 S
Gd11 O51 2.468 . S
Gd11 O52 2.427 . S
Gd11 O54 2.388 . S
Gd11 C75 2.805 . S
N12 C2 1.359 . S
N12 Gd11 2.570 . S
N12 C14 1.343 . S
C13 C1 1.422 . S
C13 C15 1.321 . S
C13 H21 0.931 . S
C14 N12 1.343 . S
C14 C15 1.390 . S
C14 H16 0.931 . S
C15 C13 1.321 . S
C15 C14 1.390 . S
C15 H17 0.930 1_565 S
H16 C14 0.931 . S
H17 C15 0.930 1_545 S
H18 C41 0.931 . S
H19 C7 0.929 . S
H20 C42 0.930 . S
H21 C13 0.931 . S
H22 C3 0.930 . S
H23 C32 0.929 . S
H24 C8 0.931 . S
H25 C9 0.930 . S
H26 C64 0.930 . S
H27 C5 0.929 . S
H28 C33 0.931 . S
H29 C34 0.930 . S
N30 Gd10 2.622 . S
N30 C31 1.369 . S
N30 C32 1.338 . S
C31 N30 1.369 . S
C31 C35 1.415 . S
C31 C38 1.422 . S
C32 H23 0.929 . S
C32 N30 1.338 . S
C32 C34 1.378 . S
C33 H28 0.931 . S
C33 C34 1.348 . S
C33 C35 1.413 . S
C34 H29 0.930 . S
C34 C32 1.378 . S
C34 C33 1.348 . S
C35 C31 1.415 . S
C35 C33 1.413 . S
C35 C65 1.437 . S
H36 C65 0.929 . S
N37 Gd10 2.570 . S
N37 C38 1.359 . S
N37 C41 1.343 . S
C38 C31 1.422 . S
C38 N37 1.359 . S
C38 C40 1.421 . S
C39 C40 1.422 1_565 S
C39 C42 1.321 . S
C39 H66 0.931 . S
C40 C38 1.421 . S
C40 C39 1.422 1_545 S
C40 C64 1.417 . S
C41 H18 0.931 . S
C41 N37 1.343 . S
C41 C42 1.390 1_545 S
C42 H20 0.930 . S
C42 C39 1.321 . S
C42 C41 1.390 1_565 S
O43 Gd11 2.386 . S
O43 C55 1.265 . S
O44 Gd10 2.353 1_455 S
O44 C55 1.242 . S
O45 Gd10 2.468 . S
O45 C63 1.263 . S
O46 Gd10 2.427 . S
O46 C63 1.252 . S
O47 Gd11 2.307 . S
O47 C56 1.261 . S
O48 Gd10 2.388 . S
O48 C56 1.252 1_655 S
O49 Gd10 2.386 . S
O49 C67 1.265 . S
O50 Gd11 2.353 1_655 S
O50 C67 1.242 . S
O51 Gd11 2.468 . S
O51 C75 1.263 . S
O52 Gd11 2.427 . S
O52 C75 1.252 . S
O53 Gd10 2.307 . S
O53 C68 1.261 . S
O54 Gd11 2.388 . S
O54 C68 1.252 1_455 S
C55 O43 1.265 . S
C55 O44 1.242 . S
C56 O47 1.261 . S
C56 O48 1.252 1_455 S
C57 C60 1.394 . S
C57 C62 1.370 . S
C57 C63 1.500 . S
C58 C61 1.383 1_554 S
C58 C62 1.395 . S
C59 C60 1.396 . S
C59 C61 1.365 1_554 S
C59 H76 0.929 1_554 S
C60 C57 1.394 . S
C60 C59 1.396 . S
C60 H77 0.930 . S
C61 C58 1.383 1_556 S
C61 C59 1.365 1_556 S
C61 H78 0.931 . S
C62 C57 1.370 . S
C62 C58 1.395 . S
C62 H79 0.930 . S
C63 Gd10 2.805 . S
C63 O45 1.263 . S
C63 O46 1.252 . S
C63 C57 1.500 . S
C64 H26 0.930 . S
C64 C40 1.417 . S
C64 C65 1.329 . S
C65 C35 1.437 . S
C65 H36 0.929 . S
C65 C64 1.329 . S
H66 C39 0.931 . S
C67 O49 1.265 . S
C67 O50 1.242 . S
C68 O53 1.261 . S
C68 O54 1.252 1_655 S
C69 C72 1.394 . S
C69 C74 1.370 . S
C69 C75 1.500 . S
C70 C73 1.383 . S
C70 C74 1.395 . S
C71 C72 1.396 . S
C71 C73 1.365 . S
C71 H80 0.929 . S
C72 C69 1.394 . S
C72 C71 1.396 . S
C72 H81 0.930 . S
C73 C70 1.383 . S
C73 C71 1.365 . S
C73 H82 0.931 . S
C74 C69 1.370 . S
C74 C70 1.395 . S
C74 H83 0.930 . S
C75 Gd11 2.805 . S
C75 O51 1.263 . S
C75 O52 1.252 . S
C75 C69 1.500 . S
H76 C59 0.929 1_556 S
H77 C60 0.930 . S
H78 C61 0.931 . S
H79 C62 0.930 . S
H80 C71 0.929 . S
H81 C72 0.930 . S
H82 C73 0.931 . S
H83 C74 0.930 . S
C84 C86 1.422 . S
C84 C88 1.415 . S
C84 N90 1.369 . S
C85 C86 1.421 . S
C85 C87 1.417 . S
C85 C97 1.422 . S
C86 C84 1.422 . S
C86 C85 1.421 . S
C86 N96 1.359 . S
C87 C85 1.417 . S
C87 C89 1.329 . S
C87 H106 0.930 . S
C88 C84 1.415 . S
C88 C89 1.437 . S
C88 C92 1.413 . S
C89 C87 1.329 . S
C89 C88 1.437 . S
C89 H111 0.929 . S
N90 C84 1.369 . S
N90 C91 1.338 . S
N90 Gd95 2.622 . S
C91 N90 1.338 . S
C91 C93 1.378 . S
C91 H103 0.929 . S
C92 C88 1.413 . S
C92 C93 1.348 . S
C92 H108 0.931 1_455 S
C93 C91 1.378 . S
C93 C92 1.348 . S
C93 H109 0.930 . S
Gd94 N114 2.622 1_655 S
Gd94 N121 2.570 . S
Gd94 O128 2.353 . S
Gd94 O129 2.468 . S
Gd94 O130 2.427 . S
Gd94 O132 2.388 . S
Gd94 O133 2.386 . S
Gd94 O137 2.307 . S
Gd94 C147 2.805 . S
Gd95 N90 2.622 . S
Gd95 N96 2.570 . S
Gd95 O127 2.386 . S
Gd95 O131 2.307 1_565 S
Gd95 O134 2.353 1_565 S
Gd95 O135 2.468 . S
Gd95 O136 2.427 . S
Gd95 O138 2.388 1_565 S
Gd95 C159 2.805 . S
N96 C86 1.359 . S
N96 Gd95 2.570 . S
N96 C98 1.343 . S
C97 C85 1.422 . S
C97 C99 1.321 . S
C97 H105 0.931 . S
C98 N96 1.343 . S
C98 C99 1.390 . S
C98 H100 0.931 . S
C99 C97 1.321 . S
C99 C98 1.390 . S
C99 H101 0.930 . S
H100 C98 0.931 . S
H101 C99 0.930 . S
H102 C125 0.931 . S
H103 C91 0.929 . S
H104 C126 0.930 . S
H105 C97 0.931 . S
H106 C87 0.930 . S
H107 C116 0.929 . S
H108 C92 0.931 1_655 S
H109 C93 0.930 . S
H110 C148 0.930 . S
H111 C89 0.929 . S
H112 C117 0.931 . S
H113 C118 0.930 . S
N114 Gd94 2.622 1_455 S
N114 C115 1.369 . S
N114 C116 1.338 . S
C115 N114 1.369 . S
C115 C119 1.415 . S
C115 C122 1.422 1_455 S
C116 H107 0.929 . S
C116 N114 1.338 . S
C116 C118 1.378 . S
C117 H112 0.931 . S
C117 C118 1.348 . S
C117 C119 1.413 . S
C118 H113 0.930 . S
C118 C116 1.378 . S
C118 C117 1.348 . S
C119 C115 1.415 . S
C119 C117 1.413 . S
C119 C149 1.437 . S
H120 C149 0.929 . S
N121 Gd94 2.570 . S
N121 C122 1.359 . S
N121 C125 1.343 . S
C122 C115 1.422 1_655 S
C122 N121 1.359 . S
C122 C124 1.421 . S
C123 C124 1.422 . S
C123 C126 1.321 . S
C123 H150 0.931 . S
C124 C122 1.421 . S
C124 C123 1.422 . S
C124 C148 1.417 1_655 S
C125 H102 0.931 . S
C125 N121 1.343 . S
C125 C126 1.390 . S
C126 H104 0.930 . S
C126 C123 1.321 . S
C126 C125 1.390 . S
O127 Gd95 2.386 . S
O127 C139 1.265 . S
O128 Gd94 2.353 . S
O128 C139 1.242 1_545 S
O129 Gd94 2.468 . S
O129 C147 1.263 . S
O130 Gd94 2.427 . S
O130 C147 1.252 . S
O131 Gd95 2.307 1_545 S
O131 C140 1.261 . S
O132 Gd94 2.388 . S
O132 C140 1.252 . S
O133 Gd94 2.386 . S
O133 C151 1.265 . S
O134 Gd95 2.353 1_545 S
O134 C151 1.242 . S
O135 Gd95 2.468 . S
O135 C159 1.263 . S
O136 Gd95 2.427 . S
O136 C159 1.252 . S
O137 Gd94 2.307 . S
O137 C152 1.261 . S
O138 Gd95 2.388 1_545 S
O138 C152 1.252 . S
C139 O127 1.265 . S
C139 O128 1.242 1_565 S
C140 O131 1.261 . S
C140 O132 1.252 . S
C141 C144 1.394 . S
C141 C146 1.370 . S
C141 C147 1.500 . S
C142 C145 1.383 . S
C142 C146 1.395 . S
C143 C144 1.396 . S
C143 C145 1.365 . S
C143 H160 0.929 1_655 S
C144 C141 1.394 . S
C144 C143 1.396 . S
C144 H161 0.930 1_655 S
C145 C142 1.383 . S
C145 C143 1.365 . S
C145 H162 0.931 . S
C146 C141 1.370 . S
C146 C142 1.395 . S
C146 H163 0.930 . S
C147 Gd94 2.805 . S
C147 O129 1.263 . S
C147 O130 1.252 . S
C147 C141 1.500 . S
C148 H110 0.930 . S
C148 C124 1.417 1_455 S
C148 C149 1.329 . S
C149 C119 1.437 . S
C149 H120 0.929 . S
C149 C148 1.329 . S
H150 C123 0.931 . S
C151 O133 1.265 . S
C151 O134 1.242 . S
C152 O137 1.261 . S
C152 O138 1.252 . S
C153 C156 1.394 . S
C153 C158 1.370 . S
C153 C159 1.500 . S
C154 C157 1.383 . S
C154 C158 1.395 . S
C155 C156 1.396 . S
C155 C157 1.365 . S
C155 H164 0.929 . S
C156 C153 1.394 . S
C156 C155 1.396 . S
C156 H165 0.930 . S
C157 C154 1.383 . S
C157 C155 1.365 . S
C157 H166 0.931 . S
C158 C153 1.370 . S
C158 C154 1.395 . S
C158 H167 0.930 . S
C159 Gd95 2.805 . S
C159 O135 1.263 . S
C159 O136 1.252 . S
C159 C153 1.500 . S
H160 C143 0.929 1_455 S
H161 C144 0.930 1_455 S
H162 C145 0.931 . S
H163 C146 0.930 . S
H164 C155 0.929 . S
H165 C156 0.930 . S
H166 C157 0.931 . S
H167 C158 0.930 . S
C168 C170 1.422 . S
C168 C172 1.415 . S
C168 N174 1.369 . S
C169 C170 1.421 . S
C169 C171 1.417 . S
C169 C181 1.422 . S
C170 C168 1.422 . S
C170 C169 1.421 . S
C170 N180 1.359 . S
C171 C169 1.417 . S
C171 C173 1.329 . S
C171 H190 0.930 . S
C172 C168 1.415 . S
C172 C173 1.437 . S
C172 C176 1.413 1_565 S
C173 C171 1.329 . S
C173 C172 1.437 . S
C173 H195 0.929 1_565 S
N174 C168 1.369 . S
N174 C175 1.338 . S
N174 Gd179 2.622 . S
C175 N174 1.338 . S
C175 C177 1.378 1_565 S
C175 H187 0.929 . S
C176 C172 1.413 1_545 S
C176 C177 1.348 . S
C176 H192 0.931 . S
C177 C175 1.378 1_545 S
C177 C176 1.348 . S
C177 H193 0.930 . S
Gd178 N198 2.622 . S
Gd178 N205 2.570 . S
Gd178 O212 2.353 . S
Gd178 O213 2.468 . S
Gd178 O214 2.427 . S
Gd178 O216 2.388 . S
Gd178 O217 2.386 . S
Gd178 O221 2.307 . S
Gd178 C231 2.805 . S
Gd179 N174 2.622 . S
Gd179 N180 2.570 . S
Gd179 O211 2.386 . S
Gd179 O215 2.307 . S
Gd179 O218 2.353 . S
Gd179 O219 2.468 . S
Gd179 O220 2.427 . S
Gd179 O222 2.388 . S
Gd179 C243 2.805 . S
N180 C170 1.359 . S
N180 Gd179 2.570 . S
N180 C182 1.343 . S
C181 C169 1.422 . S
C181 C183 1.321 . S
C181 H189 0.931 . S
C182 N180 1.343 . S
C182 C183 1.390 . S
C182 H184 0.931 . S
C183 C181 1.321 . S
C183 C182 1.390 . S
C183 H185 0.930 . S
H184 C182 0.931 . S
H185 C183 0.930 . S
H186 C209 0.931 . S
H187 C175 0.929 . S
H188 C210 0.930 . S
H189 C181 0.931 . S
H190 C171 0.930 . S
H191 C200 0.929 . S
H192 C176 0.931 . S
H193 C177 0.930 . S
H194 C232 0.930 1_565 S
H195 C173 0.929 1_545 S
H196 C201 0.931 . S
H197 C202 0.930 . S
N198 Gd178 2.622 . S
N198 C199 1.369 . S
N198 C200 1.338 1_545 S
C199 N198 1.369 . S
C199 C203 1.415 1_545 S
C199 C206 1.422 . S
C200 H191 0.929 . S
C200 N198 1.338 1_565 S
C200 C202 1.378 . S
C201 H196 0.931 . S
C201 C202 1.348 . S
C201 C203 1.413 . S
C202 H197 0.930 . S
C202 C200 1.378 . S
C202 C201 1.348 . S
C203 C199 1.415 1_565 S
C203 C201 1.413 . S
C203 C233 1.437 . S
H204 C233 0.929 . S
N205 Gd178 2.570 . S
N205 C206 1.359 . S
N205 C209 1.343 1_655 S
C206 C199 1.422 . S
C206 N205 1.359 . S
C206 C208 1.421 1_655 S
C207 C208 1.422 . S
C207 C210 1.321 . S
C207 H234 0.931 . S
C208 C206 1.421 1_455 S
C208 C207 1.422 . S
C208 C232 1.417 . S
C209 H186 0.931 . S
C209 N205 1.343 1_455 S
C209 C210 1.390 . S
C210 H188 0.930 . S
C210 C207 1.321 . S
C210 C209 1.390 . S
O211 Gd179 2.386 . S
O211 C223 1.265 . S
O212 Gd178 2.353 . S
O212 C223 1.242 . S
O213 Gd178 2.468 . S
O213 C231 1.263 . S
O214 Gd178 2.427 . S
O214 C231 1.252 . S
O215 Gd179 2.307 . S
O215 C224 1.261 . S
O216 Gd178 2.388 . S
O216 C224 1.252 . S
O217 Gd178 2.386 . S
O217 C235 1.265 . S
O218 Gd179 2.353 . S
O218 C235 1.242 . S
O219 Gd179 2.468 . S
O219 C243 1.263 . S
O220 Gd179 2.427 . S
O220 C243 1.252 . S
O221 Gd178 2.307 . S
O221 C236 1.261 . S
O222 Gd179 2.388 . S
O222 C236 1.252 . S
C223 O211 1.265 . S
C223 O212 1.242 . S
C224 O215 1.261 . S
C224 O216 1.252 . S
C225 C228 1.394 . S
C225 C230 1.370 1_655 S
C225 C231 1.500 . S
C226 C229 1.383 1_455 S
C226 C230 1.395 . S
C227 C228 1.396 . S
C227 C229 1.365 . S
C227 H244 0.929 . S
C228 C225 1.394 . S
C228 C227 1.396 . S
C228 H245 0.930 . S
C229 C226 1.383 1_655 S
C229 C227 1.365 . S
C229 H246 0.931 1_655 S
C230 C225 1.370 1_455 S
C230 C226 1.395 . S
C230 H247 0.930 . S
C231 Gd178 2.805 . S
C231 O213 1.263 . S
C231 O214 1.252 . S
C231 C225 1.500 . S
C232 H194 0.930 1_545 S
C232 C208 1.417 . S
C232 C233 1.329 1_445 S
C233 C203 1.437 . S
C233 H204 0.929 . S
C233 C232 1.329 1_665 S
H234 C207 0.931 . S
C235 O217 1.265 . S
C235 O218 1.242 . S
C236 O221 1.261 . S
C236 O222 1.252 . S
C237 C240 1.394 . S
C237 C242 1.370 . S
C237 C243 1.500 . S
C238 C241 1.383 1_556 S
C238 C242 1.395 . S
C239 C240 1.396 . S
C239 C241 1.365 1_556 S
C239 H248 0.929 1_556 S
C240 C237 1.394 . S
C240 C239 1.396 . S
C240 H249 0.930 . S
C241 C238 1.383 1_554 S
C241 C239 1.365 1_554 S
C241 H250 0.931 . S
C242 C237 1.370 . S
C242 C238 1.395 . S
C242 H251 0.930 . S
C243 Gd179 2.805 . S
C243 O219 1.263 . S
C243 O220 1.252 . S
C243 C237 1.500 . S
H244 C227 0.929 . S
H245 C228 0.930 . S
H246 C229 0.931 1_455 S
H247 C230 0.930 . S
H248 C239 0.929 1_554 S
H249 C240 0.930 . S
H250 C241 0.931 . S
H251 C242 0.930 . S
C252 C253 1.387 1_655 S
C252 H256 0.950 . S
C252 C261 1.390 . S
C253 C252 1.387 1_455 S
C253 C255 1.387 . S
H254 C261 0.950 . S
C255 C253 1.387 . S
C255 C257 1.390 1_565 S
C255 H259 0.950 . S
H256 C252 0.950 . S
C257 C255 1.390 1_545 S
C257 C258 1.387 1_455 S
C257 H260 0.950 . S
C258 C257 1.387 1_655 S
C258 C261 1.387 1_545 S
H259 C255 0.950 . S
H260 C257 0.950 . S
C261 C252 1.390 . S
C261 H254 0.950 . S
C261 C258 1.387 1_565 S
C262 C263 1.387 . S
C262 H266 0.950 . S
C262 C271 1.390 . S
C263 C262 1.387 . S
C263 C265 1.387 . S
H264 C271 0.950 . S
C265 C263 1.387 . S
C265 C267 1.390 . S
C265 H269 0.950 1_545 S
H266 C262 0.950 . S
C267 C265 1.390 . S
C267 C268 1.387 . S
C267 H270 0.950 1_545 S
C268 C267 1.387 . S
C268 C271 1.387 . S
H269 C265 0.950 1_565 S
H270 C267 0.950 1_565 S
C271 C262 1.390 . S
C271 H264 0.950 . S
C271 C268 1.387 . S
C272 C273 1.387 . S
C272 H276 0.950 . S
C272 C281 1.390 1_565 S
C273 C272 1.387 . S
C273 C275 1.387 . S
H274 C281 0.950 . S
C275 C273 1.387 . S
C275 C277 1.390 . S
C275 H279 0.950 . S
H276 C272 0.950 . S
C277 C275 1.390 . S
C277 C278 1.387 1_565 S
C277 H280 0.950 1_565 S
C278 C277 1.387 1_545 S
C278 C281 1.387 . S
H279 C275 0.950 . S
H280 C277 0.950 1_545 S
C281 C272 1.390 1_545 S
C281 H274 0.950 . S
C281 C278 1.387 . S
C282 C283 1.387 . S
C282 H286 0.950 . S
C282 C291 1.390 . S
C283 C282 1.387 . S
C283 C285 1.387 . S
H284 C291 0.950 . S
C285 C283 1.387 . S
C285 C287 1.390 . S
C285 H289 0.950 . S
H286 C282 0.950 . S
C287 C285 1.390 . S
C287 C288 1.387 . S
C287 H290 0.950 . S
C288 C287 1.387 . S
C288 C291 1.387 . S
H289 C285 0.950 . S
H290 C287 0.950 . S
C291 C282 1.390 . S
C291 H284 0.950 . S
C291 C288 1.387 . S
C292 C293 1.387 . S
C292 H296 0.950 . S
C292 C301 1.390 . S
C293 C292 1.387 . S
C293 C295 1.387 . S
H294 C301 0.950 . S
C295 C293 1.387 . S
C295 C297 1.390 . S
C295 H299 0.950 . S
H296 C292 0.950 . S
C297 C295 1.390 . S
C297 C298 1.387 . S
C297 H300 0.950 . S
C298 C297 1.387 . S
C298 C301 1.387 . S
H299 C295 0.950 . S
H300 C297 0.950 . S
C301 C292 1.390 . S
C301 H294 0.950 . S
C301 C298 1.387 . S
C302 C303 1.387 . S
C302 H306 0.950 . S
C302 C311 1.390 . S
C303 C302 1.387 . S
C303 C305 1.387 . S
H304 C311 0.950 . S
C305 C303 1.387 . S
C305 C307 1.390 . S
C305 H309 0.950 . S
H306 C302 0.950 . S
C307 C305 1.390 . S
C307 C308 1.387 . S
C307 H310 0.950 . S
C308 C307 1.387 . S
C308 C311 1.387 . S
H309 C305 0.950 . S
H310 C307 0.950 . S
C311 C302 1.390 . S
C311 H304 0.950 . S
C311 C308 1.387 . S
C312 C313 1.387 . S
C312 H316 0.950 . S
C312 C321 1.390 . S
C313 C312 1.387 . S
C313 C315 1.387 . S
H314 C321 0.950 . S
C315 C313 1.387 . S
C315 C317 1.390 . S
C315 H319 0.950 . S
H316 C312 0.950 . S
C317 C315 1.390 . S
C317 C318 1.387 . S
C317 H320 0.950 . S
C318 C317 1.387 . S
C318 C321 1.387 . S
H319 C315 0.950 . S
H320 C317 0.950 . S
C321 C312 1.390 . S
C321 H314 0.950 . S
C321 C318 1.387 . S
C322 C323 1.387 1_545 S
C322 H326 0.950 . S
C322 C331 1.390 . S
C323 C322 1.387 1_565 S
C323 C325 1.387 . S
H324 C331 0.950 . S
C325 C323 1.387 . S
C325 C327 1.390 . S
C325 H329 0.950 . S
H326 C322 0.950 . S
C327 C325 1.390 . S
C327 C328 1.387 . S
C327 H330 0.950 . S
C328 C327 1.387 . S
C328 C331 1.387 1_565 S
H329 C325 0.950 . S
H330 C327 0.950 . S
C331 C322 1.390 . S
C331 H324 0.950 . S
C331 C328 1.387 1_545 S
C332 C333 1.387 . S
C332 H336 0.950 . S
C332 C341 1.390 . S
C333 C332 1.387 . S
C333 C335 1.387 1_455 S
H334 C341 0.950 . S
C335 C333 1.387 1_655 S
C335 C337 1.390 . S
C335 H339 0.950 . S
H336 C332 0.950 . S
C337 C335 1.390 . S
C337 C338 1.387 . S
C337 H340 0.950 . S
C338 C337 1.387 . S
C338 C341 1.387 1_655 S
H339 C335 0.950 . S
H340 C337 0.950 . S
C341 C332 1.390 . S
C341 H334 0.950 . S
C341 C338 1.387 1_455 S
C253 C56 1.659 . S
C258 C68 1.659 . S
C263 C152 1.657 . S
C268 C140 1.657 1_455 S
C273 C236 1.659 1_455 S
C278 C224 1.659 . S
C283 C238 1.331 1_554 S
C288 C55 1.506 . S
C293 C142 1.359 . S
C298 C67 1.855 . S
C303 C223 1.505 . S
C308 C154 1.331 . S
C313 C235 1.853 . S
C318 C58 1.360 1_556 S
C323 C70 1.328 . S
C328 C139 1.504 . S
C333 C226 1.363 . S
C338 C151 1.852 . S
