# Generated by pormake.
# Topology upc, (4)-cn, num edge types: 1
# Building blocks:
#     Node 0, Type 0, BuildingBlock: GALJAG_clean_sbu_0, # of connection points: 4
#     Node 1, Type 0, BuildingBlock: GALJAG_clean_sbu_0, # of connection points: 4
#     Node 2, Type 0, BuildingBlock: GALJAG_clean_sbu_0, # of connection points: 4
#     Node 3, Type 0, BuildingBlock: GALJAG_clean_sbu_0, # of connection points: 4
#     Node 4, Type 0, BuildingBlock: GALJAG_clean_sbu_0, # of connection points: 4
#     Node 5, Type 0, BuildingBlock: GALJAG_clean_sbu_0, # of connection points: 4
#     Node 6, Type 0, BuildingBlock: GALJAG_clean_sbu_0, # of connection points: 4
#     Node 7, Type 0, BuildingBlock: GALJAG_clean_sbu_0, # of connection points: 4
#     Node 8, Type 0, BuildingBlock: GALJAG_clean_sbu_0, # of connection points: 4
#     Node 9, Type 0, BuildingBlock: GALJAG_clean_sbu_0, # of connection points: 4
#     Node 10, Type 0, BuildingBlock: GALJAG_clean_sbu_0, # of connection points: 4
#     Node 11, Type 0, BuildingBlock: GALJAG_clean_sbu_0, # of connection points: 4
#     Node 12, Type 0, BuildingBlock: GALJAG_clean_sbu_0, # of connection points: 4
#     Node 13, Type 0, BuildingBlock: GALJAG_clean_sbu_0, # of connection points: 4
#     Node 14, Type 0, BuildingBlock: GALJAG_clean_sbu_0, # of connection points: 4
#     Node 15, Type 0, BuildingBlock: GALJAG_clean_sbu_0, # of connection points: 4
#     Edge 16, Type (0, 0), BuildingBlock: AJUNOK_clean_linker_0, # of connection points: 2
#     Edge 17, Type (0, 0), BuildingBlock: AJUNOK_clean_linker_0, # of connection points: 2
#     Edge 18, Type (0, 0), BuildingBlock: AJUNOK_clean_linker_0, # of connection points: 2
#     Edge 19, Type (0, 0), BuildingBlock: AJUNOK_clean_linker_0, # of connection points: 2
#     Edge 20, Type (0, 0), BuildingBlock: AJUNOK_clean_linker_0, # of connection points: 2
#     Edge 21, Type (0, 0), BuildingBlock: AJUNOK_clean_linker_0, # of connection points: 2
#     Edge 22, Type (0, 0), BuildingBlock: AJUNOK_clean_linker_0, # of connection points: 2
#     Edge 23, Type (0, 0), BuildingBlock: AJUNOK_clean_linker_0, # of connection points: 2
#     Edge 24, Type (0, 0), BuildingBlock: AJUNOK_clean_linker_0, # of connection points: 2
#     Edge 25, Type (0, 0), BuildingBlock: AJUNOK_clean_linker_0, # of connection points: 2
#     Edge 26, Type (0, 0), BuildingBlock: AJUNOK_clean_linker_0, # of connection points: 2
#     Edge 27, Type (0, 0), BuildingBlock: AJUNOK_clean_linker_0, # of connection points: 2
#     Edge 28, Type (0, 0), BuildingBlock: AJUNOK_clean_linker_0, # of connection points: 2
#     Edge 29, Type (0, 0), BuildingBlock: AJUNOK_clean_linker_0, # of connection points: 2
#     Edge 30, Type (0, 0), BuildingBlock: AJUNOK_clean_linker_0, # of connection points: 2
#     Edge 31, Type (0, 0), BuildingBlock: AJUNOK_clean_linker_0, # of connection points: 2
#     Edge 32, Type (0, 0), BuildingBlock: AJUNOK_clean_linker_0, # of connection points: 2
#     Edge 33, Type (0, 0), BuildingBlock: AJUNOK_clean_linker_0, # of connection points: 2
#     Edge 34, Type (0, 0), BuildingBlock: AJUNOK_clean_linker_0, # of connection points: 2
#     Edge 35, Type (0, 0), BuildingBlock: AJUNOK_clean_linker_0, # of connection points: 2
#     Edge 36, Type (0, 0), BuildingBlock: AJUNOK_clean_linker_0, # of connection points: 2
#     Edge 37, Type (0, 0), BuildingBlock: AJUNOK_clean_linker_0, # of connection points: 2
#     Edge 38, Type (0, 0), BuildingBlock: AJUNOK_clean_linker_0, # of connection points: 2
#     Edge 39, Type (0, 0), BuildingBlock: AJUNOK_clean_linker_0, # of connection points: 2
#     Edge 40, Type (0, 0), BuildingBlock: AJUNOK_clean_linker_0, # of connection points: 2
#     Edge 41, Type (0, 0), BuildingBlock: AJUNOK_clean_linker_0, # of connection points: 2
#     Edge 42, Type (0, 0), BuildingBlock: AJUNOK_clean_linker_0, # of connection points: 2
#     Edge 43, Type (0, 0), BuildingBlock: AJUNOK_clean_linker_0, # of connection points: 2
#     Edge 44, Type (0, 0), BuildingBlock: AJUNOK_clean_linker_0, # of connection points: 2
#     Edge 45, Type (0, 0), BuildingBlock: AJUNOK_clean_linker_0, # of connection points: 2
#     Edge 46, Type (0, 0), BuildingBlock: AJUNOK_clean_linker_0, # of connection points: 2
#     Edge 47, Type (0, 0), BuildingBlock: AJUNOK_clean_linker_0, # of connection points: 2
# Relax obj value: 0.220
# Max RMSD: 0.228
# Mean RMSD: 0.228
data_MOF--net-upc--node1-GALJAG_clean_sbu_0--edge1-AJUNOK_clean_linker_0
_symmetry_space_group_name_H-M    P1
_symmetry_Int_Tables_number       1
_symmetry_cell_setting            triclinic
loop_
_symmetry_equiv_pos_as_xyz
'x, y, z'
_cell_length_a     25.780042
_cell_length_b     25.680649
_cell_length_c     30.816271
_cell_angle_alpha  89.887528
_cell_angle_beta   89.933284
_cell_angle_gamma 89.731444
loop_
_atom_site_label
_atom_site_type_symbol
_atom_site_fract_x
_atom_site_fract_y
_atom_site_fract_z
_atom_type_partial_charge
In0 In 0.116 0.62014 0.11881 0.0
O1 O 0.13076 0.58742 0.18608 0.0
O2 O 0.12042 0.53315 0.13515 0.0
C3 C 0.2039 0.67669 0.10616 0.0
C4 C 0.06941 0.57391 0.051 0.0
C5 C 0.05043 0.68839 0.15722 0.0
O6 O 0.19941 0.6431 0.13577 0.0
O7 O 0.16573 0.67867 0.08072 0.0
O8 O 0.07393 0.69853 0.12232 0.0
O9 O 0.05793 0.6429 0.17112 0.0
C10 C 0.12596 0.54028 0.17539 0.0
O11 O 0.0453 0.60208 0.07785 0.0
O12 O 0.11783 0.571 0.05722 0.0
In13 In 0.88894 0.09809 0.11322 0.0
O14 O 0.90171 0.03619 0.0624 0.0
O15 O 0.93994 0.1091 0.0539 0.0
C16 C 0.82696 0.02759 0.15254 0.0
C17 C 0.97468 0.1088 0.1634 0.0
C18 C 0.82296 0.1802 0.10323 0.0
O19 O 0.81696 0.04641 0.11565 0.0
O20 O 0.87007 0.04141 0.16763 0.0
O21 O 0.83741 0.16303 0.13957 0.0
O22 O 0.8451 0.15882 0.07131 0.0
C23 C 0.93369 0.06288 0.04066 0.0
O24 O 0.9352 0.13758 0.16827 0.0
O25 O 0.97124 0.07741 0.13237 0.0
In26 In 0.44136 0.90337 0.1162 0.0
O27 O 0.40327 0.96827 0.15745 0.0
O28 O 0.48414 0.97168 0.14354 0.0
C29 C 0.35526 0.84437 0.10893 0.0
C30 C 0.4779 0.9471 0.04366 0.0
C31 C 0.49561 0.82892 0.15811 0.0
O32 O 0.36863 0.86593 0.14388 0.0
O33 O 0.38213 0.85693 0.07629 0.0
O34 O 0.48639 0.82653 0.11795 0.0
O35 O 0.48167 0.87096 0.17566 0.0
C36 C 0.44548 0.99289 0.16127 0.0
O37 O 0.50389 0.91458 0.06565 0.0
O38 O 0.43155 0.9537 0.05619 0.0
In39 In 0.59239 0.40934 0.11978 0.0
O40 O 0.51871 0.3779 0.15329 0.0
O41 O 0.53209 0.45993 0.15097 0.0
C42 C 0.64974 0.32599 0.09572 0.0
C43 C 0.55679 0.4579 0.04919 0.0
C44 C 0.66176 0.43676 0.1799 0.0
O45 O 0.61024 0.32205 0.11995 0.0
O46 O 0.65716 0.37099 0.08049 0.0
O47 O 0.66036 0.45929 0.14339 0.0
O48 O 0.6263 0.40412 0.1864 0.0
C49 C 0.50265 0.42333 0.16237 0.0
O50 O 0.58892 0.47876 0.07475 0.0
O51 O 0.54598 0.41087 0.05754 0.0
In52 In 0.08188 0.91051 0.33862 0.0
O53 O 0.01715 0.91998 0.3876 0.0
O54 O 0.08963 0.95598 0.40134 0.0
C55 C 0.03566 0.85085 0.27863 0.0
C56 C 0.07602 1.00113 0.29491 0.0
C57 C 0.16042 0.84399 0.35834 0.0
O58 O 0.02301 0.84868 0.31824 0.0
O59 O 0.07001 0.88394 0.26975 0.0
O60 O 0.16874 0.88912 0.3432 0.0
O61 O 0.11333 0.83448 0.36573 0.0
C62 C 0.04274 0.94957 0.41224 0.0
O63 O 0.11754 0.9744 0.2954 0.0
O64 O 0.03926 0.98234 0.31681 0.0
In65 In 0.62651 0.09758 0.33701 0.0
O66 O 0.60861 0.03347 0.38555 0.0
O67 O 0.58269 0.11038 0.39994 0.0
C68 C 0.67481 0.03587 0.27894 0.0
C69 C 0.53907 0.10835 0.28968 0.0
C70 C 0.70055 0.169 0.35603 0.0
O71 O 0.67921 0.02827 0.31934 0.0
O72 O 0.64635 0.07383 0.26861 0.0
O73 O 0.65431 0.18207 0.34732 0.0
O74 O 0.70835 0.1206 0.35657 0.0
C75 C 0.58288 0.06281 0.41057 0.0
O76 O 0.57703 0.13911 0.28527 0.0
O77 O 0.5446 0.07531 0.31959 0.0
In78 In 0.39812 0.61468 0.33315 0.0
O79 O 0.36131 0.57055 0.27649 0.0
O80 O 0.40993 0.52843 0.31937 0.0
C81 C 0.32137 0.68375 0.35383 0.0
C82 C 0.44608 0.57565 0.40388 0.0
C83 C 0.45936 0.66626 0.27661 0.0
O84 O 0.31247 0.63601 0.34754 0.0
O85 O 0.36852 0.69563 0.35125 0.0
O86 O 0.46409 0.67117 0.31719 0.0
O87 O 0.42439 0.6352 0.26508 0.0
C88 C 0.3841 0.52799 0.28471 0.0
O89 O 0.4698 0.59919 0.37392 0.0
O90 O 0.39735 0.57409 0.39924 0.0
In91 In 0.91961 0.40888 0.34076 0.0
O92 O 0.98953 0.38196 0.29955 0.0
O93 O 0.97614 0.46327 0.31002 0.0
C94 C 0.86258 0.32585 0.36481 0.0
C95 C 0.96115 0.44949 0.41253 0.0
C96 C 0.84701 0.43922 0.28444 0.0
O97 O 0.90545 0.32078 0.34496 0.0
O98 O 0.85159 0.37201 0.37558 0.0
O99 O 0.852 0.46171 0.3207 0.0
O100 O 0.88033 0.40451 0.27622 0.0
C101 C 1.00456 0.4284 0.29361 0.0
O102 O 0.92644 0.47301 0.39093 0.0
O103 O 0.9714 0.40379 0.39975 0.0
In104 In 0.93185 0.40878 0.84448 0.0
O105 O 0.99575 0.4206 0.8938 0.0
O106 O 0.92198 0.45463 0.90714 0.0
C107 C 0.98566 0.34532 0.79133 0.0
C108 C 0.93521 0.49615 0.79569 0.0
C109 C 0.85065 0.34505 0.8622 0.0
O110 O 0.99068 0.34332 0.83205 0.0
O111 O 0.95542 0.38043 0.77792 0.0
O112 O 0.84398 0.39123 0.84875 0.0
O113 O 0.89735 0.33296 0.8687 0.0
C114 C 0.9688 0.44907 0.91857 0.0
O115 O 0.89826 0.46402 0.79249 0.0
O116 O 0.96854 0.48461 0.82401 0.0
In117 In 0.11997 0.93965 0.84127 0.0
O118 O 0.10543 1.00031 0.89341 0.0
O119 O 0.07206 0.92521 0.90166 0.0
C120 C 0.17839 0.99509 0.78584 0.0
C121 C 0.0311 0.94347 0.79573 0.0
C122 C 0.18687 0.86036 0.85846 0.0
O123 O 0.18092 1.00194 0.8264 0.0
O124 O 0.1462 0.9613 0.77391 0.0
O125 O 0.14204 0.8526 0.84308 0.0
O126 O 0.19635 0.90732 0.86694 0.0
C127 C 0.07554 0.97145 0.91528 0.0
O128 O 0.06123 0.90436 0.79346 0.0
O129 O 0.0461 0.97917 0.82066 0.0
In130 In 0.60012 0.13177 0.84224 0.0
O131 O 0.53943 0.11728 0.89421 0.0
O132 O 0.61409 0.08301 0.90268 0.0
C133 C 0.54445 0.19595 0.79109 0.0
C134 C 0.59329 0.04579 0.79247 0.0
C135 C 0.68236 0.19409 0.85947 0.0
O136 O 0.5398 0.1965 0.83193 0.0
O137 O 0.57585 0.16248 0.77665 0.0
O138 O 0.68799 0.1479 0.84588 0.0
O139 O 0.63591 0.20757 0.86561 0.0
C140 C 0.56804 0.08728 0.91637 0.0
O141 O 0.63172 0.07626 0.78972 0.0
O142 O 0.56017 0.05837 0.82069 0.0
In143 In 0.40617 0.61233 0.84269 0.0
O144 O 0.46031 0.6465 0.79055 0.0
O145 O 0.48573 0.58054 0.82636 0.0
C146 C 0.3417 0.69397 0.85953 0.0
C147 C 0.44123 0.57015 0.91687 0.0
C148 C 0.34889 0.55613 0.78705 0.0
O149 O 0.38937 0.70036 0.85133 0.0
O150 O 0.32791 0.64708 0.86083 0.0
O151 O 0.34395 0.55173 0.82766 0.0
O152 O 0.38301 0.58796 0.77502 0.0
C153 C 0.49513 0.6122 0.79616 0.0
O154 O 0.41446 0.54522 0.88972 0.0
O155 O 0.44767 0.61775 0.9078 0.0
In156 In 0.91442 0.12734 0.61598 0.0
O157 O 0.97652 0.1126 0.5654 0.0
O158 O 0.90195 0.07952 0.55499 0.0
C159 C 0.97293 0.18435 0.67009 0.0
C160 C 0.91546 0.04063 0.66543 0.0
C161 C 0.8362 0.1953 0.59792 0.0
O162 O 0.97865 0.18681 0.6294 0.0
O163 O 0.93842 0.15334 0.68276 0.0
O164 O 0.8276 0.14939 0.61107 0.0
O165 O 0.88346 0.20536 0.59222 0.0
C166 C 0.94847 0.0834 0.54236 0.0
O167 O 0.87981 0.07454 0.66888 0.0
O168 O 0.94799 0.04968 0.63588 0.0
In169 In 0.40085 0.93716 0.61231 0.0
O170 O 0.41484 1.00124 0.56335 0.0
O171 O 0.44765 0.92668 0.55016 0.0
C172 C 0.33973 0.99457 0.66461 0.0
C173 C 0.48769 0.93836 0.66124 0.0
C174 C 0.33545 0.85727 0.59438 0.0
O175 O 0.33825 0.99913 0.62382 0.0
O176 O 0.373 0.96263 0.67852 0.0
O177 O 0.38165 0.84944 0.60683 0.0
O178 O 0.32399 0.90451 0.58902 0.0
C179 C 0.44368 0.97402 0.53912 0.0
O180 O 0.45358 0.90341 0.66597 0.0
O181 O 0.47825 0.97058 0.63143 0.0
In182 In 0.59117 0.41755 0.61303 0.0
O183 O 0.52409 0.43036 0.56643 0.0
O184 O 0.59781 0.46029 0.54836 0.0
C185 C 0.53703 0.35867 0.66949 0.0
C186 C 0.59453 0.50522 0.66118 0.0
C187 C 0.67164 0.35211 0.59514 0.0
O188 O 0.53208 0.35376 0.62892 0.0
O189 O 0.56781 0.39391 0.68096 0.0
O190 O 0.67851 0.39954 0.60449 0.0
O191 O 0.62474 0.33903 0.59293 0.0
C192 C 0.55012 0.45651 0.53942 0.0
O193 O 0.62941 0.47048 0.66375 0.0
O194 O 0.56024 0.49648 0.63305 0.0
In195 In 0.12465 0.60439 0.61098 0.0
O196 O 0.0717 0.63769 0.66451 0.0
O197 O 0.04796 0.56942 0.63146 0.0
C198 C 0.18466 0.68842 0.59203 0.0
C199 C 0.08636 0.56008 0.53893 0.0
C200 C 0.18864 0.55129 0.66425 0.0
O201 O 0.13776 0.69315 0.60361 0.0
O202 O 0.19954 0.64198 0.58789 0.0
O203 O 0.19164 0.54751 0.62351 0.0
O204 O 0.15256 0.58029 0.67766 0.0
C205 C 0.03851 0.60173 0.66115 0.0
O206 O 0.11675 0.53688 0.56464 0.0
O207 O 0.07781 0.60737 0.54809 0.0
C208 C 0.24897 0.75258 0.07119 0.0
C209 C 0.2461 0.71604 0.10535 0.0
C210 C 0.28452 0.79398 0.07222 0.0
C211 C 0.31746 0.80114 0.10799 0.0
H212 H 0.22304 0.74967 0.04368 0.0
H213 H 0.28543 0.82117 0.04532 0.0
S214 S 0.32935 0.71395 0.20375 0.0
N215 N 0.28268 0.68786 0.1744 0.0
N216 N 0.34816 0.76613 0.17671 0.0
C217 C 0.31607 0.76421 0.14175 0.0
C218 C 0.28078 0.72153 0.14032 0.0
C219 C 0.74282 0.22114 0.13343 0.0
C220 C 0.77866 0.21707 0.09905 0.0
C221 C 0.69943 0.25405 0.13071 0.0
C222 C 0.6906 0.28523 0.09389 0.0
H223 H 0.74812 0.19848 0.16281 0.0
H224 H 0.67378 0.25663 0.15852 0.0
S225 S 0.77132 0.28783 -0.00588 0.0
N226 N 0.8009 0.24527 0.02601 0.0
N227 N 0.72041 0.30902 0.02168 0.0
C228 C 0.72566 0.28121 0.05899 0.0
C229 C 0.76935 0.24663 0.06134 0.0
C230 C 0.25372 0.81574 0.35477 0.0
C231 C 0.20145 0.80323 0.36238 0.0
C232 C 0.2923 0.77696 0.3537 0.0
C233 C 0.28019 0.72393 0.35965 0.0
H234 H 0.26486 0.85569 0.34859 0.0
H235 H 0.33177 0.78862 0.3467 0.0
S236 S 0.14978 0.6706 0.38354 0.0
N237 N 0.14009 0.7339 0.37848 0.0
N238 N 0.21251 0.66129 0.37572 0.0
C239 C 0.22838 0.71097 0.3686 0.0
C240 C 0.1891 0.75051 0.37019 0.0
C241 C 0.77118 0.29638 0.37626 0.0
C242 C 0.82359 0.2835 0.36824 0.0
C243 C 0.73174 0.25907 0.37297 0.0
C244 C 0.74314 0.20707 0.3624 0.0
H245 H 0.76005 0.33621 0.38327 0.0
H246 H 0.69193 0.27129 0.3781 0.0
S247 S 0.87432 0.15219 0.34085 0.0
N248 N 0.8848 0.21443 0.35076 0.0
N249 N 0.81108 0.14401 0.34567 0.0
C250 C 0.79559 0.1931 0.35607 0.0
C251 C 0.83568 0.23134 0.35872 0.0
C252 C 0.75599 0.32208 0.86332 0.0
C253 C 0.80816 0.3062 0.86589 0.0
C254 C 0.71561 0.2855 0.86288 0.0
C255 C 0.7258 0.23152 0.86419 0.0
H256 H 0.74622 0.36306 0.86091 0.0
H257 H 0.67613 0.29972 0.86001 0.0
S258 S 0.85542 0.16945 0.87365 0.0
N259 N 0.86757 0.23248 0.87215 0.0
N260 N 0.79175 0.16414 0.87033 0.0
C261 C 0.77763 0.21511 0.86787 0.0
C262 C 0.81874 0.25232 0.86902 0.0
C263 C 0.24995 0.72618 0.8594 0.0
C264 C 0.30331 0.73715 0.86323 0.0
C265 C 0.21253 0.76606 0.85887 0.0
C266 C 0.22676 0.81859 0.86281 0.0
H267 H 0.2369 0.68643 0.85545 0.0
H268 H 0.17219 0.75559 0.85469 0.0
S269 S 0.36106 0.86816 0.8763 0.0
N270 N 0.36824 0.80438 0.87267 0.0
N271 N 0.2981 0.87936 0.87249 0.0
C272 C 0.27987 0.83007 0.86818 0.0
C273 C 0.31806 0.7894 0.86814 0.0
C274 C 0.70287 0.25957 0.59409 0.0
C275 C 0.71435 0.31315 0.59152 0.0
C276 C 0.74232 0.22166 0.59513 0.0
C277 C 0.79492 0.23565 0.59302 0.0
H278 H 0.66303 0.24671 0.59672 0.0
H279 H 0.73145 0.18114 0.59832 0.0
S280 S 0.84578 0.37045 0.58322 0.0
N281 N 0.78218 0.37802 0.58512 0.0
N282 N 0.8563 0.30709 0.58628 0.0
C283 C 0.80691 0.28902 0.58887 0.0
C284 C 0.76669 0.32765 0.58835 0.0
C285 C 0.27541 0.72242 0.58667 0.0
C286 C 0.2216 0.73264 0.58835 0.0
C287 C 0.31195 0.76281 0.58777 0.0
C288 C 0.29627 0.81522 0.5899 0.0
H289 H 0.28967 0.68268 0.58586 0.0
H290 H 0.35282 0.7528 0.58752 0.0
S291 S 0.16004 0.86336 0.59316 0.0
N292 N 0.15459 0.79937 0.59113 0.0
N293 N 0.22291 0.8753 0.59241 0.0
C294 C 0.24254 0.82615 0.59021 0.0
C295 C 0.20534 0.78492 0.58966 0.0
C296 C 0.0536 0.4275 0.22396 0.0
C297 C 0.04986 0.44321 0.26744 0.0
C298 C 0.08435 0.45558 0.19447 0.0
C299 C 0.11201 0.50005 0.20781 0.0
H300 H 0.0287 0.39699 0.21176 0.0
H301 H 0.08213 0.44551 0.1604 0.0
S302 S 0.12473 0.54777 0.32079 0.0
N303 N 0.0833 0.4991 0.32417 0.0
N304 N 0.14175 0.5513 0.2692 0.0
C305 C 0.11384 0.51134 0.2524 0.0
C306 C 0.08234 0.48312 0.28214 0.0
C307 C 0.99966 0.10718 0.24114 0.0
C308 C 0.01406 0.10037 0.19753 0.0
C309 C 0.02491 0.07931 0.27415 0.0
C310 C 0.06577 0.04456 0.26461 0.0
H311 H 0.965 0.12906 0.2494 0.0
H312 H 1.009 0.08111 0.30669 0.0
S313 S 0.12675 0.02433 0.15705 0.0
N314 N 0.07818 0.06495 0.1476 0.0
N315 N 0.12602 0.01312 0.20985 0.0
C316 C 0.08547 0.04371 0.22216 0.0
C317 C 0.05941 0.07161 0.18846 0.0
C318 C 0.45777 0.06652 0.26486 0.0
C319 C 0.50028 0.09899 0.25531 0.0
C320 C 0.43417 0.03667 0.23238 0.0
C321 C 0.4528 0.0383 0.18962 0.0
H322 H 0.44652 0.05967 0.29827 0.0
H323 H 0.40572 1.00784 0.2418 0.0
S324 S 0.5526 0.12752 0.14576 0.0
N325 N 0.55174 0.13949 0.1984 0.0
N326 N 0.50808 0.08256 0.1376 0.0
C327 C 0.48983 0.07609 0.17866 0.0
C328 C 0.51332 0.10698 0.21153 0.0
C329 C 0.45395 0.41696 0.23153 0.0
C330 C 0.45629 0.43472 0.18851 0.0
C331 C 0.4238 0.44355 0.2624 0.0
C332 C 0.39507 0.48841 0.25096 0.0
H333 H 0.47993 0.38636 0.24246 0.0
H334 H 0.42742 0.43219 0.29615 0.0
S335 S 0.37843 0.5412 0.13967 0.0
N336 N 0.4205 0.49296 0.13411 0.0
N337 N 0.36261 0.5421 0.19161 0.0
C338 C 0.39128 0.50138 0.2067 0.0
C339 C 0.42256 0.47483 0.17555 0.0
C340 C 0.96053 0.55291 0.68565 0.0
C341 C 0.99923 0.58987 0.6948 0.0
C342 C 0.93432 0.52683 0.71909 0.0
C343 C 0.94655 0.53641 0.76275 0.0
H344 H 0.95358 0.5408 0.6525 0.0
H345 H 0.90849 0.49531 0.71057 0.0
S346 S 0.03609 0.63746 0.80396 0.0
N347 N 0.04146 0.64124 0.75064 0.0
N348 N 0.99287 0.59154 0.81348 0.0
C349 C 0.98045 0.57759 0.77227 0.0
C350 C 1.00664 0.60462 0.73823 0.0
C351 C 0.99197 0.93685 0.72227 0.0
C352 C 0.98765 0.95301 0.76561 0.0
C353 C 0.96273 0.96129 0.68966 0.0
C354 C 0.92792 1.00207 0.69954 0.0
H355 H 0.02194 0.9094 0.71281 0.0
H356 H 0.97112 0.95165 0.65615 0.0
S357 S 0.89392 0.04939 0.80954 0.0
N358 N 0.93958 1.00518 0.8178 0.0
N359 N 0.88412 0.0506 0.7566 0.0
C360 C 0.91817 0.01329 0.74338 0.0
C361 C 0.94837 0.98889 0.77648 0.0
C362 C 0.54335 0.96757 0.77051 0.0
C363 C 0.58112 1.00511 0.76019 0.0
C364 C 0.51736 0.94007 0.73791 0.0
C365 C 0.52786 0.94988 0.69393 0.0
H366 H 0.53062 0.96259 0.80378 0.0
H367 H 0.48522 0.91536 0.74715 0.0
S368 S 0.63113 0.03543 0.65026 0.0
N369 N 0.6341 0.04355 0.70336 0.0
N370 N 0.58471 0.99247 0.64198 0.0
C371 C 0.56987 0.98243 0.68349 0.0
C372 C 0.59675 1.00995 0.71672 0.0
C373 C 0.5508 0.58635 0.68602 0.0
C374 C 0.58569 0.54531 0.6948 0.0
C375 C 0.52621 0.61353 0.71972 0.0
C376 C 0.53521 0.59998 0.76329 0.0
H377 H 0.53885 0.59437 0.65296 0.0
H378 H 0.49598 0.64123 0.7114 0.0
S379 S 0.63163 0.5037 0.80348 0.0
N380 N 0.63493 0.49905 0.75011 0.0
N381 N 0.58828 0.54969 0.81349 0.0
C382 C 0.57487 0.56374 0.77243 0.0
C383 C 0.60032 0.53645 0.7381 0.0
C384 C 0.03273 0.7819 0.17181 0.0
C385 C 0.02774 0.72966 0.1848 0.0
C386 C 0.02933 0.82221 0.20211 0.0
C387 C 0.02035 0.81165 0.24627 0.0
H388 H 0.04415 0.79153 0.13892 0.0
H389 H 0.03813 0.86145 0.19148 0.0
S390 S 0.99186 0.68269 0.29478 0.0
N391 N 1.00357 0.67035 0.24311 0.0
N392 N 0.99714 0.74642 0.30009 0.0
C393 C 1.00828 0.76043 0.25857 0.0
C394 C 0.01198 0.71923 0.22772 0.0
C395 C 0.79849 0.99668 0.22517 0.0
C396 C 0.78629 1.0062 0.18127 0.0
C397 C 0.7601 0.99912 0.25732 0.0
C398 C 0.70859 1.01115 0.24634 0.0
H399 H 0.83856 0.99318 0.23539 0.0
H400 H 0.77196 0.99771 0.29102 0.0
S401 S 0.65411 0.02134 0.13538 0.0
N402 N 0.7172 0.01432 0.12785 0.0
N403 N 0.64516 0.01951 0.18844 0.0
C404 C 0.69472 1.01212 0.20227 0.0
C405 C 0.73367 1.00927 0.16954 0.0
C406 C 0.50557 0.7486 0.25916 0.0
C407 C 0.48528 0.70085 0.24509 0.0
C408 C 0.51552 0.78875 0.22954 0.0
C409 C 0.50586 0.78227 0.18494 0.0
H410 H 0.50924 0.75682 0.29349 0.0
H411 H 0.52629 0.82655 0.24214 0.0
S412 S 0.46555 0.65998 0.13092 0.0
N413 N 0.4655 0.64578 0.18319 0.0
N414 N 0.48452 0.72116 0.12744 0.0
C415 C 0.49242 0.73241 0.17001 0.0
C416 C 0.48187 0.69166 0.2002 0.0
C417 C 0.73539 0.4857 0.21395 0.0
C418 C 0.70673 0.43954 0.20912 0.0
C419 C 0.78042 0.48658 0.23972 0.0
C420 C 0.79848 0.44088 0.25987 0.0
H421 H 0.72304 0.52106 0.19767 0.0
H422 H 0.80195 0.5225 0.24283 0.0
S423 S 0.73828 0.31016 0.2566 0.0
N424 N 0.69982 0.34735 0.2269 0.0
N425 N 0.78478 0.34888 0.27379 0.0
C426 C 0.77012 0.3948 0.25531 0.0
C427 C 0.72407 0.39413 0.23025 0.0
C428 C 1.00323 0.27356 0.68681 0.0
C429 C 0.99593 0.22189 0.70039 0.0
C430 C 1.00612 0.31384 0.71725 0.0
C431 C 1.00277 0.30342 0.76201 0.0
H432 H 1.00106 0.28365 0.6527 0.0
H433 H 1.00635 0.35368 0.70559 0.0
S434 S 0.99587 0.17312 0.81368 0.0
N435 N 0.9945 0.16128 0.76104 0.0
N436 N 1.001 0.23695 0.81836 0.0
C437 C 1.00263 0.25129 0.77589 0.0
C438 C 0.99886 0.21039 0.74492 0.0
C439 C 0.30944 0.01858 0.73833 0.0
C440 C 0.29904 0.01487 0.69363 0.0
C441 C 0.26906 0.01928 0.76874 0.0
C442 C 0.21724 0.01522 0.75522 0.0
H443 H 0.34902 0.01637 0.75004 0.0
H444 H 0.2788 0.01719 0.8029 0.0
S445 S 0.16929 0.01569 0.6419 0.0
N446 N 0.23312 0.01633 0.63722 0.0
N447 N 0.15718 0.01641 0.69453 0.0
C448 C 0.20622 0.01782 0.71064 0.0
C449 C 0.24728 0.018 0.67967 0.0
C450 C 0.51871 0.22645 0.7178 0.0
C451 C 0.52358 0.2369 0.7624 0.0
C452 C 0.5161 0.26698 0.68743 0.0
C453 C 0.51936 0.31912 0.70079 0.0
H454 H 0.52119 0.18677 0.70602 0.0
H455 H 0.51707 0.25718 0.65325 0.0
S456 S 0.52153 0.36706 0.81418 0.0
N457 N 0.5226 0.30297 0.81883 0.0
N458 N 0.5188 0.37929 0.76159 0.0
C459 C 0.51808 0.33006 0.74547 0.0
C460 C 0.51991 0.28878 0.77643 0.0
C461 C 0.25874 0.53089 0.76929 0.0
C462 C 0.31066 0.53574 0.75611 0.0
C463 C 0.21879 0.53017 0.73861 0.0
C464 C 0.22971 0.53331 0.69395 0.0
H465 H 0.24845 0.53313 0.80334 0.0
H466 H 0.17903 0.53154 0.75004 0.0
S467 S 0.36018 0.53358 0.64316 0.0
N468 N 0.37159 0.53432 0.69588 0.0
N469 N 0.29644 0.53185 0.63804 0.0
C470 C 0.28172 0.53101 0.6804 0.0
C471 C 0.32236 0.53257 0.71166 0.0
C472 C 0.07091 0.50746 -0.00803 0.0
C473 C 0.04253 0.54299 0.01738 0.0
C474 C 0.04635 0.47606 0.96118 0.0
C475 C 0.99242 0.479 0.95444 0.0
H476 H 0.11251 0.50366 -0.0041 0.0
H477 H 0.07012 0.44985 0.94204 0.0
S478 S 0.90011 0.5651 0.01311 0.0
N479 N 0.95725 0.57878 0.03425 0.0
N480 N 0.91118 0.51987 0.97622 0.0
C481 C 0.96342 0.51399 -0.02009 0.0
C482 C 0.98844 0.546 0.01136 0.0
C483 C 0.04495 0.04523 0.96149 0.0
C484 C 0.04058 0.99276 0.94904 0.0
C485 C 1.00916 0.06806 -0.01001 0.0
C486 C 0.96748 0.03937 0.00708 0.0
H487 H 0.07606 0.06911 0.94887 0.0
H488 H 0.01468 0.10838 -0.00092 0.0
S489 S 0.93766 0.90089 -0.01619 0.0
N490 N 0.99066 0.91288 0.95549 0.0
N491 N 0.92336 0.95583 0.0089 0.0
C492 C 0.96239 0.98694 -0.00533 0.0
C493 C 0.999 0.9636 0.96581 0.0
C494 C 0.47083 0.01607 -0.01322 0.0
C495 C 0.50188 0.98075 0.01023 0.0
C496 C 0.49283 0.05163 0.95768 0.0
C497 C 0.54679 0.05336 0.95089 0.0
H498 H 0.42911 0.01649 -0.00897 0.0
H499 H 0.46713 0.07739 0.93987 0.0
S500 S 0.64561 0.9709 0.00578 0.0
N501 N 0.58971 0.95084 0.02574 0.0
N502 N 0.63098 0.01763 0.97098 0.0
C503 C 0.57842 0.01871 0.9745 0.0
C504 C 0.55599 0.98236 0.0041 0.0
C505 C 0.467 0.48877 0.95546 0.0
C506 C 0.46891 0.54343 0.95261 0.0
C507 C 0.49644 0.4615 -0.01384 0.0
C508 C 0.5291 0.48774 0.01522 0.0
H509 H 0.44311 0.46657 0.93336 0.0
H510 H 0.4935 0.41944 -0.01293 0.0
S511 S 0.54623 0.63099 0.02275 0.0
N512 N 0.5049 0.62308 -0.01756 0.0
N513 N 0.56026 0.57182 0.04034 0.0
C514 C 0.53099 0.5425 0.01316 0.0
C515 C 0.50082 0.57034 -0.01813 0.0
C516 C 0.04765 0.01697 0.47025 0.0
C517 C 0.0179 0.9809 0.44684 0.0
C518 C 0.02452 0.05098 0.50006 0.0
C519 C 0.9707 0.05031 0.50769 0.0
H520 H 0.08916 0.01949 0.46521 0.0
H521 H 0.04927 0.07766 0.51755 0.0
S522 S 0.87525 0.96337 0.45471 0.0
N523 N 0.93157 0.94656 0.43326 0.0
N524 N 0.88816 1.01048 0.48936 0.0
C525 C 0.94041 0.01442 0.48455 0.0
C526 C 0.964 0.97965 0.4542 0.0
C527 C 0.54732 0.98769 0.45252 0.0
C528 C 0.54892 0.04175 0.44511 0.0
C529 C 0.51205 0.96598 0.48197 0.0
C530 C 0.47684 0.99744 0.50509 0.0
H531 H 0.5732 0.96171 0.43513 0.0
H532 H 0.51277 0.9242 0.48689 0.0
S533 S 0.46514 0.14143 0.49759 0.0
N534 N 0.51221 0.12637 0.46345 0.0
N535 N 0.44583 0.08564 0.51863 0.0
C536 C 0.47794 0.05161 0.49797 0.0
C537 C 0.51406 0.07374 0.46812 0.0
C538 C 0.47079 0.48522 0.49927 0.0
C539 C 0.52518 0.4856 0.50339 0.0
C540 C 0.44554 0.51537 0.46769 0.0
C541 C 0.47363 0.54708 0.43887 0.0
H542 H 0.44729 0.46184 0.52093 0.0
H543 H 0.40364 0.51341 0.46571 0.0
S544 S 0.61686 0.562 0.43588 0.0
N545 N 0.6064 0.52043 0.47583 0.0
N546 N 0.55905 0.57698 0.41643 0.0
C547 C 0.52808 0.54781 0.44254 0.0
C548 C 0.55381 0.51708 0.47475 0.0
C549 C 0.98412 0.52939 0.45445 0.0
C550 C 0.99238 0.47611 0.44608 0.0
C551 C 0.01585 0.55672 0.48336 0.0
C552 C 0.05707 0.53185 0.50508 0.0
H553 H 0.95313 0.5504 0.43828 0.0
H554 H 1.00745 0.59749 0.48917 0.0
S555 S 0.09588 0.39303 0.49393 0.0
N556 N 0.0454 0.39965 0.46149 0.0
N557 N 0.10497 0.45093 0.51569 0.0
C558 C 0.06605 0.47868 0.49675 0.0
C559 C 0.03369 0.45083 0.46738 0.0
loop_
_geom_bond_atom_site_label_1
_geom_bond_atom_site_label_2
_geom_bond_distance
_geom_bond_site_symmetry_2
_ccdc_geom_bond_type
In0 O1 2.294 . S
In0 O2 2.326 . S
In0 O6 2.266 . S
In0 O7 2.326 . S
In0 O8 2.266 . S
In0 O9 2.326 . S
In0 O11 2.294 . S
In0 O12 2.326 . S
O1 In0 2.294 . S
O1 C10 1.240 . S
O2 In0 2.326 . S
O2 C10 1.252 . S
C3 O6 1.252 . S
C3 O7 1.260 . S
C4 O11 1.240 . S
C4 O12 1.252 . S
C5 O8 1.252 . S
C5 O9 1.260 . S
O6 In0 2.266 . S
O6 C3 1.252 . S
O7 In0 2.326 . S
O7 C3 1.260 . S
O8 In0 2.266 . S
O8 C5 1.252 . S
O9 In0 2.326 . S
O9 C5 1.260 . S
C10 O1 1.240 . S
C10 O2 1.252 . S
O11 In0 2.294 . S
O11 C4 1.240 . S
O12 In0 2.326 . S
O12 C4 1.252 . S
In13 O14 2.294 . S
In13 O15 2.326 . S
In13 O19 2.266 . S
In13 O20 2.326 . S
In13 O21 2.266 . S
In13 O22 2.326 . S
In13 O24 2.294 . S
In13 O25 2.326 . S
O14 In13 2.294 . S
O14 C23 1.240 . S
O15 In13 2.326 . S
O15 C23 1.252 . S
C16 O19 1.252 . S
C16 O20 1.260 . S
C17 O24 1.240 . S
C17 O25 1.252 . S
C18 O21 1.252 . S
C18 O22 1.260 . S
O19 In13 2.266 . S
O19 C16 1.252 . S
O20 In13 2.326 . S
O20 C16 1.260 . S
O21 In13 2.266 . S
O21 C18 1.252 . S
O22 In13 2.326 . S
O22 C18 1.260 . S
C23 O14 1.240 . S
C23 O15 1.252 . S
O24 In13 2.294 . S
O24 C17 1.240 . S
O25 In13 2.326 . S
O25 C17 1.252 . S
In26 O27 2.294 . S
In26 O28 2.326 . S
In26 O32 2.266 . S
In26 O33 2.326 . S
In26 O34 2.266 . S
In26 O35 2.326 . S
In26 O37 2.294 . S
In26 O38 2.326 . S
O27 In26 2.294 . S
O27 C36 1.240 . S
O28 In26 2.326 . S
O28 C36 1.252 . S
C29 O32 1.252 . S
C29 O33 1.260 . S
C30 O37 1.240 . S
C30 O38 1.252 . S
C31 O34 1.252 . S
C31 O35 1.260 . S
O32 In26 2.266 . S
O32 C29 1.252 . S
O33 In26 2.326 . S
O33 C29 1.260 . S
O34 In26 2.266 . S
O34 C31 1.252 . S
O35 In26 2.326 . S
O35 C31 1.260 . S
C36 O27 1.240 . S
C36 O28 1.252 . S
O37 In26 2.294 . S
O37 C30 1.240 . S
O38 In26 2.326 . S
O38 C30 1.252 . S
In39 O40 2.294 . S
In39 O41 2.326 . S
In39 O45 2.266 . S
In39 O46 2.326 . S
In39 O47 2.266 . S
In39 O48 2.326 . S
In39 O50 2.294 . S
In39 O51 2.326 . S
O40 In39 2.294 . S
O40 C49 1.240 . S
O41 In39 2.326 . S
O41 C49 1.252 . S
C42 O45 1.252 . S
C42 O46 1.260 . S
C43 O50 1.240 . S
C43 O51 1.252 . S
C44 O47 1.252 . S
C44 O48 1.260 . S
O45 In39 2.266 . S
O45 C42 1.252 . S
O46 In39 2.326 . S
O46 C42 1.260 . S
O47 In39 2.266 . S
O47 C44 1.252 . S
O48 In39 2.326 . S
O48 C44 1.260 . S
C49 O40 1.240 . S
C49 O41 1.252 . S
O50 In39 2.294 . S
O50 C43 1.240 . S
O51 In39 2.326 . S
O51 C43 1.252 . S
In52 O53 2.294 . S
In52 O54 2.326 . S
In52 O58 2.266 . S
In52 O59 2.326 . S
In52 O60 2.266 . S
In52 O61 2.326 . S
In52 O63 2.294 . S
In52 O64 2.326 . S
O53 In52 2.294 . S
O53 C62 1.240 . S
O54 In52 2.326 . S
O54 C62 1.252 . S
C55 O58 1.252 . S
C55 O59 1.260 . S
C56 O63 1.240 . S
C56 O64 1.252 . S
C57 O60 1.252 . S
C57 O61 1.260 . S
O58 In52 2.266 . S
O58 C55 1.252 . S
O59 In52 2.326 . S
O59 C55 1.260 . S
O60 In52 2.266 . S
O60 C57 1.252 . S
O61 In52 2.326 . S
O61 C57 1.260 . S
C62 O53 1.240 . S
C62 O54 1.252 . S
O63 In52 2.294 . S
O63 C56 1.240 . S
O64 In52 2.326 . S
O64 C56 1.252 . S
In65 O66 2.294 . S
In65 O67 2.326 . S
In65 O71 2.266 . S
In65 O72 2.326 . S
In65 O73 2.266 . S
In65 O74 2.326 . S
In65 O76 2.294 . S
In65 O77 2.326 . S
O66 In65 2.294 . S
O66 C75 1.240 . S
O67 In65 2.326 . S
O67 C75 1.252 . S
C68 O71 1.252 . S
C68 O72 1.260 . S
C69 O76 1.240 . S
C69 O77 1.252 . S
C70 O73 1.252 . S
C70 O74 1.260 . S
O71 In65 2.266 . S
O71 C68 1.252 . S
O72 In65 2.326 . S
O72 C68 1.260 . S
O73 In65 2.266 . S
O73 C70 1.252 . S
O74 In65 2.326 . S
O74 C70 1.260 . S
C75 O66 1.240 . S
C75 O67 1.252 . S
O76 In65 2.294 . S
O76 C69 1.240 . S
O77 In65 2.326 . S
O77 C69 1.252 . S
In78 O79 2.294 . S
In78 O80 2.326 . S
In78 O84 2.266 . S
In78 O85 2.326 . S
In78 O86 2.266 . S
In78 O87 2.326 . S
In78 O89 2.294 . S
In78 O90 2.326 . S
O79 In78 2.294 . S
O79 C88 1.240 . S
O80 In78 2.326 . S
O80 C88 1.252 . S
C81 O84 1.252 . S
C81 O85 1.260 . S
C82 O89 1.240 . S
C82 O90 1.252 . S
C83 O86 1.252 . S
C83 O87 1.260 . S
O84 In78 2.266 . S
O84 C81 1.252 . S
O85 In78 2.326 . S
O85 C81 1.260 . S
O86 In78 2.266 . S
O86 C83 1.252 . S
O87 In78 2.326 . S
O87 C83 1.260 . S
C88 O79 1.240 . S
C88 O80 1.252 . S
O89 In78 2.294 . S
O89 C82 1.240 . S
O90 In78 2.326 . S
O90 C82 1.252 . S
In91 O92 2.294 . S
In91 O93 2.326 . S
In91 O97 2.266 . S
In91 O98 2.326 . S
In91 O99 2.266 . S
In91 O100 2.326 . S
In91 O102 2.294 . S
In91 O103 2.326 . S
O92 In91 2.294 . S
O92 C101 1.240 . S
O93 In91 2.326 . S
O93 C101 1.252 . S
C94 O97 1.252 . S
C94 O98 1.260 . S
C95 O102 1.240 . S
C95 O103 1.252 . S
C96 O99 1.252 . S
C96 O100 1.260 . S
O97 In91 2.266 . S
O97 C94 1.252 . S
O98 In91 2.326 . S
O98 C94 1.260 . S
O99 In91 2.266 . S
O99 C96 1.252 . S
O100 In91 2.326 . S
O100 C96 1.260 . S
C101 O92 1.240 . S
C101 O93 1.252 . S
O102 In91 2.294 . S
O102 C95 1.240 . S
O103 In91 2.326 . S
O103 C95 1.252 . S
In104 O105 2.294 . S
In104 O106 2.326 . S
In104 O110 2.266 . S
In104 O111 2.326 . S
In104 O112 2.266 . S
In104 O113 2.326 . S
In104 O115 2.294 . S
In104 O116 2.326 . S
O105 In104 2.294 . S
O105 C114 1.240 . S
O106 In104 2.326 . S
O106 C114 1.252 . S
C107 O110 1.252 . S
C107 O111 1.260 . S
C108 O115 1.240 . S
C108 O116 1.252 . S
C109 O112 1.252 . S
C109 O113 1.260 . S
O110 In104 2.266 . S
O110 C107 1.252 . S
O111 In104 2.326 . S
O111 C107 1.260 . S
O112 In104 2.266 . S
O112 C109 1.252 . S
O113 In104 2.326 . S
O113 C109 1.260 . S
C114 O105 1.240 . S
C114 O106 1.252 . S
O115 In104 2.294 . S
O115 C108 1.240 . S
O116 In104 2.326 . S
O116 C108 1.252 . S
In117 O118 2.294 . S
In117 O119 2.326 . S
In117 O123 2.266 . S
In117 O124 2.326 . S
In117 O125 2.266 . S
In117 O126 2.326 . S
In117 O128 2.294 . S
In117 O129 2.326 . S
O118 In117 2.294 . S
O118 C127 1.240 . S
O119 In117 2.326 . S
O119 C127 1.252 . S
C120 O123 1.252 . S
C120 O124 1.260 . S
C121 O128 1.240 . S
C121 O129 1.252 . S
C122 O125 1.252 . S
C122 O126 1.260 . S
O123 In117 2.266 . S
O123 C120 1.252 . S
O124 In117 2.326 . S
O124 C120 1.260 . S
O125 In117 2.266 . S
O125 C122 1.252 . S
O126 In117 2.326 . S
O126 C122 1.260 . S
C127 O118 1.240 . S
C127 O119 1.252 . S
O128 In117 2.294 . S
O128 C121 1.240 . S
O129 In117 2.326 . S
O129 C121 1.252 . S
In130 O131 2.294 . S
In130 O132 2.326 . S
In130 O136 2.266 . S
In130 O137 2.326 . S
In130 O138 2.266 . S
In130 O139 2.326 . S
In130 O141 2.294 . S
In130 O142 2.326 . S
O131 In130 2.294 . S
O131 C140 1.240 . S
O132 In130 2.326 . S
O132 C140 1.252 . S
C133 O136 1.252 . S
C133 O137 1.260 . S
C134 O141 1.240 . S
C134 O142 1.252 . S
C135 O138 1.252 . S
C135 O139 1.260 . S
O136 In130 2.266 . S
O136 C133 1.252 . S
O137 In130 2.326 . S
O137 C133 1.260 . S
O138 In130 2.266 . S
O138 C135 1.252 . S
O139 In130 2.326 . S
O139 C135 1.260 . S
C140 O131 1.240 . S
C140 O132 1.252 . S
O141 In130 2.294 . S
O141 C134 1.240 . S
O142 In130 2.326 . S
O142 C134 1.252 . S
In143 O144 2.294 . S
In143 O145 2.326 . S
In143 O149 2.266 . S
In143 O150 2.326 . S
In143 O151 2.266 . S
In143 O152 2.326 . S
In143 O154 2.294 . S
In143 O155 2.326 . S
O144 In143 2.294 . S
O144 C153 1.240 . S
O145 In143 2.326 . S
O145 C153 1.252 . S
C146 O149 1.252 . S
C146 O150 1.260 . S
C147 O154 1.240 . S
C147 O155 1.252 . S
C148 O151 1.252 . S
C148 O152 1.260 . S
O149 In143 2.266 . S
O149 C146 1.252 . S
O150 In143 2.326 . S
O150 C146 1.260 . S
O151 In143 2.266 . S
O151 C148 1.252 . S
O152 In143 2.326 . S
O152 C148 1.260 . S
C153 O144 1.240 . S
C153 O145 1.252 . S
O154 In143 2.294 . S
O154 C147 1.240 . S
O155 In143 2.326 . S
O155 C147 1.252 . S
In156 O157 2.294 . S
In156 O158 2.326 . S
In156 O162 2.266 . S
In156 O163 2.326 . S
In156 O164 2.266 . S
In156 O165 2.326 . S
In156 O167 2.294 . S
In156 O168 2.326 . S
O157 In156 2.294 . S
O157 C166 1.240 . S
O158 In156 2.326 . S
O158 C166 1.252 . S
C159 O162 1.252 . S
C159 O163 1.260 . S
C160 O167 1.240 . S
C160 O168 1.252 . S
C161 O164 1.252 . S
C161 O165 1.260 . S
O162 In156 2.266 . S
O162 C159 1.252 . S
O163 In156 2.326 . S
O163 C159 1.260 . S
O164 In156 2.266 . S
O164 C161 1.252 . S
O165 In156 2.326 . S
O165 C161 1.260 . S
C166 O157 1.240 . S
C166 O158 1.252 . S
O167 In156 2.294 . S
O167 C160 1.240 . S
O168 In156 2.326 . S
O168 C160 1.252 . S
In169 O170 2.294 . S
In169 O171 2.326 . S
In169 O175 2.266 . S
In169 O176 2.326 . S
In169 O177 2.266 . S
In169 O178 2.326 . S
In169 O180 2.294 . S
In169 O181 2.326 . S
O170 In169 2.294 . S
O170 C179 1.240 . S
O171 In169 2.326 . S
O171 C179 1.252 . S
C172 O175 1.252 . S
C172 O176 1.260 . S
C173 O180 1.240 . S
C173 O181 1.252 . S
C174 O177 1.252 . S
C174 O178 1.260 . S
O175 In169 2.266 . S
O175 C172 1.252 . S
O176 In169 2.326 . S
O176 C172 1.260 . S
O177 In169 2.266 . S
O177 C174 1.252 . S
O178 In169 2.326 . S
O178 C174 1.260 . S
C179 O170 1.240 . S
C179 O171 1.252 . S
O180 In169 2.294 . S
O180 C173 1.240 . S
O181 In169 2.326 . S
O181 C173 1.252 . S
In182 O183 2.294 . S
In182 O184 2.326 . S
In182 O188 2.266 . S
In182 O189 2.326 . S
In182 O190 2.266 . S
In182 O191 2.326 . S
In182 O193 2.294 . S
In182 O194 2.326 . S
O183 In182 2.294 . S
O183 C192 1.240 . S
O184 In182 2.326 . S
O184 C192 1.252 . S
C185 O188 1.252 . S
C185 O189 1.260 . S
C186 O193 1.240 . S
C186 O194 1.252 . S
C187 O190 1.252 . S
C187 O191 1.260 . S
O188 In182 2.266 . S
O188 C185 1.252 . S
O189 In182 2.326 . S
O189 C185 1.260 . S
O190 In182 2.266 . S
O190 C187 1.252 . S
O191 In182 2.326 . S
O191 C187 1.260 . S
C192 O183 1.240 . S
C192 O184 1.252 . S
O193 In182 2.294 . S
O193 C186 1.240 . S
O194 In182 2.326 . S
O194 C186 1.252 . S
In195 O196 2.294 . S
In195 O197 2.326 . S
In195 O201 2.266 . S
In195 O202 2.326 . S
In195 O203 2.266 . S
In195 O204 2.326 . S
In195 O206 2.294 . S
In195 O207 2.326 . S
O196 In195 2.294 . S
O196 C205 1.240 . S
O197 In195 2.326 . S
O197 C205 1.252 . S
C198 O201 1.252 . S
C198 O202 1.260 . S
C199 O206 1.240 . S
C199 O207 1.252 . S
C200 O203 1.252 . S
C200 O204 1.260 . S
O201 In195 2.266 . S
O201 C198 1.252 . S
O202 In195 2.326 . S
O202 C198 1.260 . S
O203 In195 2.266 . S
O203 C200 1.252 . S
O204 In195 2.326 . S
O204 C200 1.260 . S
C205 O196 1.240 . S
C205 O197 1.252 . S
O206 In195 2.294 . S
O206 C199 1.240 . S
O207 In195 2.326 . S
O207 C199 1.252 . S
C208 C209 1.369 . S
C208 C210 1.419 . S
C208 H212 0.930 . S
C209 C208 1.369 . S
C209 C218 1.429 . S
C210 C208 1.419 . S
C210 C211 1.363 . S
C210 H213 0.929 . S
C211 C210 1.363 . S
C211 C217 1.428 . S
H212 C208 0.930 . S
H213 C210 0.929 . S
S214 N215 1.613 . S
S214 N216 1.610 . S
N215 S214 1.613 . S
N215 C218 1.350 . S
N216 S214 1.610 . S
N216 C217 1.351 . S
C217 C211 1.428 . S
C217 N216 1.351 . S
C217 C218 1.434 . S
C218 C209 1.429 . S
C218 N215 1.350 . S
C218 C217 1.434 . S
C219 C220 1.369 . S
C219 C221 1.419 . S
C219 H223 0.930 . S
C220 C219 1.369 . S
C220 C229 1.429 . S
C221 C219 1.419 . S
C221 C222 1.363 . S
C221 H224 0.929 . S
C222 C221 1.363 . S
C222 C228 1.428 . S
H223 C219 0.930 . S
H224 C221 0.929 . S
S225 N226 1.613 1_556 S
S225 N227 1.610 1_556 S
N226 S225 1.613 1_554 S
N226 C229 1.350 . S
N227 S225 1.610 1_554 S
N227 C228 1.351 . S
C228 C222 1.428 . S
C228 N227 1.351 . S
C228 C229 1.434 . S
C229 C220 1.429 . S
C229 N226 1.350 . S
C229 C228 1.434 . S
C230 C231 1.369 . S
C230 C232 1.419 . S
C230 H234 0.930 . S
C231 C230 1.369 . S
C231 C240 1.429 . S
C232 C230 1.419 . S
C232 C233 1.363 . S
C232 H235 0.929 . S
C233 C232 1.363 . S
C233 C239 1.428 . S
H234 C230 0.930 . S
H235 C232 0.929 . S
S236 N237 1.613 . S
S236 N238 1.610 . S
N237 S236 1.613 . S
N237 C240 1.350 . S
N238 S236 1.610 . S
N238 C239 1.351 . S
C239 C233 1.428 . S
C239 N238 1.351 . S
C239 C240 1.434 . S
C240 C231 1.429 . S
C240 N237 1.350 . S
C240 C239 1.434 . S
C241 C242 1.369 . S
C241 C243 1.419 . S
C241 H245 0.930 . S
C242 C241 1.369 . S
C242 C251 1.429 . S
C243 C241 1.419 . S
C243 C244 1.363 . S
C243 H246 0.929 . S
C244 C243 1.363 . S
C244 C250 1.428 . S
H245 C241 0.930 . S
H246 C243 0.929 . S
S247 N248 1.613 . S
S247 N249 1.610 . S
N248 S247 1.613 . S
N248 C251 1.350 . S
N249 S247 1.610 . S
N249 C250 1.351 . S
C250 C244 1.428 . S
C250 N249 1.351 . S
C250 C251 1.434 . S
C251 C242 1.429 . S
C251 N248 1.350 . S
C251 C250 1.434 . S
C252 C253 1.369 . S
C252 C254 1.419 . S
C252 H256 0.930 . S
C253 C252 1.369 . S
C253 C262 1.429 . S
C254 C252 1.419 . S
C254 C255 1.363 . S
C254 H257 0.929 . S
C255 C254 1.363 . S
C255 C261 1.428 . S
H256 C252 0.930 . S
H257 C254 0.929 . S
S258 N259 1.613 . S
S258 N260 1.610 . S
N259 S258 1.613 . S
N259 C262 1.350 . S
N260 S258 1.610 . S
N260 C261 1.351 . S
C261 C255 1.428 . S
C261 N260 1.351 . S
C261 C262 1.434 . S
C262 C253 1.429 . S
C262 N259 1.350 . S
C262 C261 1.434 . S
C263 C264 1.369 . S
C263 C265 1.419 . S
C263 H267 0.930 . S
C264 C263 1.369 . S
C264 C273 1.429 . S
C265 C263 1.419 . S
C265 C266 1.363 . S
C265 H268 0.929 . S
C266 C265 1.363 . S
C266 C272 1.428 . S
H267 C263 0.930 . S
H268 C265 0.929 . S
S269 N270 1.613 . S
S269 N271 1.610 . S
N270 S269 1.613 . S
N270 C273 1.350 . S
N271 S269 1.610 . S
N271 C272 1.351 . S
C272 C266 1.428 . S
C272 N271 1.351 . S
C272 C273 1.434 . S
C273 C264 1.429 . S
C273 N270 1.350 . S
C273 C272 1.434 . S
C274 C275 1.369 . S
C274 C276 1.419 . S
C274 H278 0.930 . S
C275 C274 1.369 . S
C275 C284 1.429 . S
C276 C274 1.419 . S
C276 C277 1.363 . S
C276 H279 0.929 . S
C277 C276 1.363 . S
C277 C283 1.428 . S
H278 C274 0.930 . S
H279 C276 0.929 . S
S280 N281 1.613 . S
S280 N282 1.610 . S
N281 S280 1.613 . S
N281 C284 1.350 . S
N282 S280 1.610 . S
N282 C283 1.351 . S
C283 C277 1.428 . S
C283 N282 1.351 . S
C283 C284 1.434 . S
C284 C275 1.429 . S
C284 N281 1.350 . S
C284 C283 1.434 . S
C285 C286 1.369 . S
C285 C287 1.419 . S
C285 H289 0.930 . S
C286 C285 1.369 . S
C286 C295 1.429 . S
C287 C285 1.419 . S
C287 C288 1.363 . S
C287 H290 0.929 . S
C288 C287 1.363 . S
C288 C294 1.428 . S
H289 C285 0.930 . S
H290 C287 0.929 . S
S291 N292 1.613 . S
S291 N293 1.610 . S
N292 S291 1.613 . S
N292 C295 1.350 . S
N293 S291 1.610 . S
N293 C294 1.351 . S
C294 C288 1.428 . S
C294 N293 1.351 . S
C294 C295 1.434 . S
C295 C286 1.429 . S
C295 N292 1.350 . S
C295 C294 1.434 . S
C296 C297 1.369 . S
C296 C298 1.411 1_655 S
C296 H300 0.930 . S
C297 C296 1.369 . S
C297 C306 1.429 1_655 S
C298 C296 1.411 1_455 S
C298 C299 1.374 . S
C298 H301 0.926 1_455 S
C299 C298 1.374 . S
C299 C305 1.428 . S
H300 C296 0.930 . S
H301 C298 0.926 1_655 S
S302 N303 1.613 . S
S302 N304 1.610 . S
N303 S302 1.613 . S
N303 C306 1.350 . S
N304 S302 1.610 . S
N304 C305 1.351 . S
C305 C299 1.428 . S
C305 N304 1.351 . S
C305 C306 1.434 . S
C306 C297 1.429 1_455 S
C306 N303 1.350 . S
C306 C305 1.434 . S
C307 C308 1.369 . S
C307 C309 1.419 1_545 S
C307 H311 0.930 . S
C308 C307 1.369 . S
C308 C317 1.429 1_655 S
C309 C307 1.419 1_565 S
C309 C310 1.363 1_655 S
C309 H312 0.929 . S
C310 C309 1.363 1_455 S
C310 C316 1.428 1_565 S
H311 C307 0.930 . S
H312 C309 0.929 . S
S313 N314 1.613 . S
S313 N315 1.610 . S
N314 S313 1.613 . S
N314 C317 1.350 . S
N315 S313 1.610 . S
N315 C316 1.351 . S
C316 C310 1.428 1_545 S
C316 N315 1.351 . S
C316 C317 1.434 . S
C317 C308 1.429 1_455 S
C317 N314 1.350 . S
C317 C316 1.434 . S
C318 C319 1.369 . S
C318 C320 1.419 . S
C318 H322 0.930 . S
C319 C318 1.369 . S
C319 C328 1.429 1_545 S
C320 C318 1.419 . S
C320 C321 1.363 1_545 S
C320 H323 0.929 . S
C321 C320 1.363 1_565 S
C321 C327 1.428 . S
H322 C318 0.930 . S
H323 C320 0.929 . S
S324 N325 1.613 . S
S324 N326 1.610 . S
N325 S324 1.613 . S
N325 C328 1.350 . S
N326 S324 1.610 . S
N326 C327 1.351 . S
C327 C321 1.428 . S
C327 N326 1.351 . S
C327 C328 1.434 . S
C328 C319 1.429 1_565 S
C328 N325 1.350 . S
C328 C327 1.434 . S
C329 C330 1.369 . S
C329 C331 1.419 . S
C329 H333 0.930 . S
C330 C329 1.369 . S
C330 C339 1.429 . S
C331 C329 1.419 . S
C331 C332 1.363 . S
C331 H334 0.929 . S
C332 C331 1.363 . S
C332 C338 1.428 . S
H333 C329 0.930 . S
H334 C331 0.929 . S
S335 N336 1.613 . S
S335 N337 1.610 . S
N336 S335 1.613 . S
N336 C339 1.350 . S
N337 S335 1.610 . S
N337 C338 1.351 . S
C338 C332 1.428 . S
C338 N337 1.351 . S
C338 C339 1.434 . S
C339 C330 1.429 . S
C339 N336 1.350 . S
C339 C338 1.434 . S
C340 C341 1.369 . S
C340 C342 1.419 . S
C340 H344 0.930 . S
C341 C340 1.369 . S
C341 C350 1.429 1_455 S
C342 C340 1.419 . S
C342 C343 1.363 1_455 S
C342 H345 0.929 . S
C343 C342 1.363 1_655 S
C343 C349 1.428 . S
H344 C340 0.930 . S
H345 C342 0.929 . S
S346 N347 1.613 . S
S346 N348 1.610 . S
N347 S346 1.613 . S
N347 C350 1.350 . S
N348 S346 1.610 . S
N348 C349 1.351 . S
C349 C343 1.428 . S
C349 N348 1.351 . S
C349 C350 1.434 . S
C350 C341 1.429 1_655 S
C350 N347 1.350 . S
C350 C349 1.434 . S
C351 C352 1.369 . S
C351 C353 1.419 . S
C351 H355 0.930 . S
C352 C351 1.369 . S
C352 C361 1.429 1_465 S
C353 C351 1.419 . S
C353 C354 1.363 1_465 S
C353 H356 0.929 . S
C354 C353 1.363 1_645 S
C354 C360 1.428 . S
H355 C351 0.930 . S
H356 C353 0.929 . S
S357 N358 1.613 . S
S357 N359 1.610 . S
N358 S357 1.613 . S
N358 C361 1.350 . S
N359 S357 1.610 . S
N359 C360 1.351 . S
C360 C354 1.428 . S
C360 N359 1.351 . S
C360 C361 1.434 . S
C361 C352 1.429 1_645 S
C361 N358 1.350 . S
C361 C360 1.434 . S
C362 C363 1.369 1_565 S
C362 C364 1.419 . S
C362 H366 0.930 . S
C363 C362 1.369 1_545 S
C363 C372 1.429 . S
C364 C362 1.419 . S
C364 C365 1.363 . S
C364 H367 0.929 . S
C365 C364 1.363 . S
C365 C371 1.419 1_565 S
H366 C362 0.930 . S
H367 C364 0.929 . S
S368 N369 1.613 . S
S368 N370 1.610 . S
N369 S368 1.613 . S
N369 C372 1.350 . S
N370 S368 1.610 . S
N370 C371 1.356 . S
C371 C365 1.419 1_545 S
C371 N370 1.356 . S
C371 C372 1.441 . S
C372 C363 1.429 . S
C372 N369 1.350 . S
C372 C371 1.441 . S
C373 C374 1.369 . S
C373 C375 1.419 . S
C373 H377 0.930 . S
C374 C373 1.369 . S
C374 C383 1.429 . S
C375 C373 1.419 . S
C375 C376 1.363 . S
C375 H378 0.929 . S
C376 C375 1.363 . S
C376 C382 1.428 . S
H377 C373 0.930 . S
H378 C375 0.929 . S
S379 N380 1.613 . S
S379 N381 1.610 . S
N380 S379 1.613 . S
N380 C383 1.350 . S
N381 S379 1.610 . S
N381 C382 1.351 . S
C382 C376 1.428 . S
C382 N381 1.351 . S
C382 C383 1.434 . S
C383 C374 1.429 . S
C383 N380 1.350 . S
C383 C382 1.434 . S
C384 C385 1.369 . S
C384 C386 1.419 . S
C384 H388 0.930 . S
C385 C384 1.369 . S
C385 C394 1.429 . S
C386 C384 1.419 . S
C386 C387 1.363 . S
C386 H389 0.929 . S
C387 C386 1.363 . S
C387 C393 1.428 . S
H388 C384 0.930 . S
H389 C386 0.929 . S
S390 N391 1.613 . S
S390 N392 1.610 . S
N391 S390 1.613 . S
N391 C394 1.350 1_655 S
N392 S390 1.610 . S
N392 C393 1.351 1_655 S
C393 C387 1.428 . S
C393 N392 1.351 1_455 S
C393 C394 1.434 . S
C394 C385 1.429 . S
C394 N391 1.350 1_455 S
C394 C393 1.434 . S
C395 C396 1.369 . S
C395 C397 1.419 . S
C395 H399 0.929 . S
C396 C395 1.369 . S
C396 C405 1.429 . S
C397 C395 1.419 . S
C397 C398 1.363 . S
C397 H400 0.937 . S
C398 C397 1.363 . S
C398 C404 1.428 . S
H399 C395 0.929 . S
H400 C397 0.937 . S
S401 N402 1.613 . S
S401 N403 1.610 . S
N402 S401 1.613 . S
N402 C405 1.350 . S
N403 S401 1.610 . S
N403 C404 1.351 . S
C404 C398 1.428 . S
C404 N403 1.351 . S
C404 C405 1.434 . S
C405 C396 1.429 . S
C405 N402 1.350 . S
C405 C404 1.434 . S
C406 C407 1.369 . S
C406 C408 1.419 . S
C406 H410 0.930 . S
C407 C406 1.369 . S
C407 C416 1.429 . S
C408 C406 1.419 . S
C408 C409 1.363 . S
C408 H411 0.929 . S
C409 C408 1.363 . S
C409 C415 1.428 . S
H410 C406 0.930 . S
H411 C408 0.929 . S
S412 N413 1.613 . S
S412 N414 1.610 . S
N413 S412 1.613 . S
N413 C416 1.350 . S
N414 S412 1.610 . S
N414 C415 1.351 . S
C415 C409 1.428 . S
C415 N414 1.351 . S
C415 C416 1.434 . S
C416 C407 1.429 . S
C416 N413 1.350 . S
C416 C415 1.434 . S
C417 C418 1.369 . S
C417 C419 1.419 . S
C417 H421 0.930 . S
C418 C417 1.369 . S
C418 C427 1.429 . S
C419 C417 1.419 . S
C419 C420 1.363 . S
C419 H422 0.929 . S
C420 C419 1.363 . S
C420 C426 1.428 . S
H421 C417 0.930 . S
H422 C419 0.929 . S
S423 N424 1.613 . S
S423 N425 1.610 . S
N424 S423 1.613 . S
N424 C427 1.350 . S
N425 S423 1.610 . S
N425 C426 1.351 . S
C426 C420 1.428 . S
C426 N425 1.351 . S
C426 C427 1.434 . S
C427 C418 1.429 . S
C427 N424 1.350 . S
C427 C426 1.434 . S
C428 C429 1.369 . S
C428 C430 1.419 . S
C428 H432 0.930 . S
C429 C428 1.369 . S
C429 C438 1.429 . S
C430 C428 1.419 . S
C430 C431 1.363 . S
C430 H433 0.929 . S
C431 C430 1.363 . S
C431 C437 1.428 . S
H432 C428 0.930 . S
H433 C430 0.929 . S
S434 N435 1.613 1_455 S
S434 N436 1.610 1_455 S
N435 S434 1.613 1_655 S
N435 C438 1.350 . S
N436 S434 1.610 1_655 S
N436 C437 1.351 . S
C437 C431 1.428 . S
C437 N436 1.351 . S
C437 C438 1.434 . S
C438 C429 1.429 . S
C438 N435 1.350 . S
C438 C437 1.434 . S
C439 C440 1.369 . S
C439 C441 1.419 . S
C439 H443 0.930 . S
C440 C439 1.369 . S
C440 C449 1.429 . S
C441 C439 1.419 . S
C441 C442 1.363 . S
C441 H444 0.929 . S
C442 C441 1.363 . S
C442 C448 1.428 . S
H443 C439 0.930 . S
H444 C441 0.929 . S
S445 N446 1.608 1_545 S
S445 N447 1.600 1_545 S
N446 S445 1.608 1_565 S
N446 C449 1.357 . S
N447 S445 1.600 1_565 S
N447 C448 1.365 . S
C448 C442 1.428 . S
C448 N447 1.365 . S
C448 C449 1.434 . S
C449 C440 1.429 . S
C449 N446 1.357 . S
C449 C448 1.434 . S
C450 C451 1.369 . S
C450 C452 1.419 . S
C450 H454 0.930 . S
C451 C450 1.369 . S
C451 C460 1.429 . S
C452 C450 1.419 . S
C452 C453 1.363 . S
C452 H455 0.929 . S
C453 C452 1.363 . S
C453 C459 1.428 . S
H454 C450 0.930 . S
H455 C452 0.929 . S
S456 N457 1.613 . S
S456 N458 1.610 . S
N457 S456 1.613 . S
N457 C460 1.350 . S
N458 S456 1.610 . S
N458 C459 1.351 . S
C459 C453 1.428 . S
C459 N458 1.351 . S
C459 C460 1.434 . S
C460 C451 1.429 . S
C460 N457 1.350 . S
C460 C459 1.434 . S
C461 C462 1.369 . S
C461 C463 1.419 . S
C461 H465 0.930 . S
C462 C461 1.369 . S
C462 C471 1.429 . S
C463 C461 1.419 . S
C463 C464 1.363 . S
C463 H466 0.929 . S
C464 C463 1.363 . S
C464 C470 1.428 . S
H465 C461 0.930 . S
H466 C463 0.929 . S
S467 N468 1.613 . S
S467 N469 1.610 . S
N468 S467 1.613 . S
N468 C471 1.350 . S
N469 S467 1.610 . S
N469 C470 1.351 . S
C470 C464 1.428 . S
C470 N469 1.351 . S
C470 C471 1.434 . S
C471 C462 1.429 . S
C471 N468 1.350 . S
C471 C470 1.434 . S
C472 C473 1.369 . S
C472 C474 1.419 1_554 S
C472 H476 0.930 . S
C473 C472 1.369 . S
C473 C482 1.429 1_455 S
C474 C472 1.419 1_556 S
C474 C475 1.363 1_455 S
C474 H477 0.929 . S
C475 C474 1.363 1_655 S
C475 C481 1.428 . S
H476 C472 0.930 . S
H477 C474 0.929 . S
S478 N479 1.613 . S
S478 N480 1.610 . S
N479 S478 1.613 . S
N479 C482 1.350 . S
N480 S478 1.610 . S
N480 C481 1.351 1_554 S
C481 C475 1.428 . S
C481 N480 1.351 1_556 S
C481 C482 1.434 1_556 S
C482 C473 1.429 1_655 S
C482 N479 1.350 . S
C482 C481 1.434 1_554 S
C483 C484 1.369 1_544 S
C483 C485 1.419 . S
C483 H487 0.930 . S
C484 C483 1.369 1_566 S
C484 C493 1.429 1_455 S
C485 C483 1.419 . S
C485 C486 1.363 1_455 S
C485 H488 0.929 . S
C486 C485 1.363 1_655 S
C486 C492 1.428 1_544 S
H487 C483 0.930 . S
H488 C485 0.929 . S
S489 N490 1.613 . S
S489 N491 1.610 . S
N490 S489 1.613 . S
N490 C493 1.350 . S
N491 S489 1.610 . S
N491 C492 1.351 . S
C492 C486 1.428 1_566 S
C492 N491 1.351 . S
C492 C493 1.434 . S
C493 C484 1.429 1_655 S
C493 N490 1.350 . S
C493 C492 1.434 . S
C494 C495 1.369 1_545 S
C494 C496 1.419 1_554 S
C494 H498 0.930 . S
C495 C494 1.369 1_565 S
C495 C504 1.429 . S
C496 C494 1.419 1_556 S
C496 C497 1.363 . S
C496 H499 0.929 . S
C497 C496 1.363 . S
C497 C503 1.428 1_545 S
H498 C494 0.930 . S
H499 C496 0.929 . S
S500 N501 1.613 1_556 S
S500 N502 1.610 . S
N501 S500 1.613 1_554 S
N501 C504 1.350 . S
N502 S500 1.610 . S
N502 C503 1.351 . S
C503 C497 1.428 1_565 S
C503 N502 1.351 . S
C503 C504 1.434 1_556 S
C504 C495 1.429 . S
C504 N501 1.350 . S
C504 C503 1.434 1_554 S
C505 C506 1.369 . S
C505 C507 1.419 . S
C505 H509 0.930 . S
C506 C505 1.369 . S
C506 C515 1.429 1_556 S
C507 C505 1.419 . S
C507 C508 1.363 1_556 S
C507 H510 0.929 . S
C508 C507 1.363 1_554 S
C508 C514 1.428 . S
H509 C505 0.930 . S
H510 C507 0.929 . S
S511 N512 1.613 . S
S511 N513 1.610 . S
N512 S511 1.613 . S
N512 C515 1.350 . S
N513 S511 1.610 . S
N513 C514 1.351 . S
C514 C508 1.428 . S
C514 N513 1.351 . S
C514 C515 1.434 . S
C515 C506 1.429 1_554 S
C515 N512 1.350 . S
C515 C514 1.434 . S
C516 C517 1.369 . S
C516 C518 1.419 1_565 S
C516 H520 0.930 . S
C517 C516 1.369 . S
C517 C526 1.429 1_455 S
C518 C516 1.419 1_545 S
C518 C519 1.363 1_455 S
C518 H521 0.929 . S
C519 C518 1.363 1_655 S
C519 C525 1.428 . S
H520 C516 0.930 . S
H521 C518 0.929 . S
S522 N523 1.613 . S
S522 N524 1.610 1_565 S
N523 S522 1.613 . S
N523 C526 1.350 . S
N524 S522 1.610 1_545 S
N524 C525 1.351 . S
C525 C519 1.428 . S
C525 N524 1.351 . S
C525 C526 1.434 1_545 S
C526 C517 1.429 1_655 S
C526 N523 1.350 . S
C526 C525 1.434 1_565 S
C527 C528 1.369 1_565 S
C527 C529 1.419 . S
C527 H531 0.930 . S
C528 C527 1.369 1_545 S
C528 C537 1.429 . S
C529 C527 1.419 . S
C529 C530 1.363 . S
C529 H532 0.929 . S
C530 C529 1.363 . S
C530 C536 1.428 1_565 S
H531 C527 0.930 . S
H532 C529 0.929 . S
S533 N534 1.613 . S
S533 N535 1.610 . S
N534 S533 1.613 . S
N534 C537 1.350 . S
N535 S533 1.610 . S
N535 C536 1.351 . S
C536 C530 1.428 1_545 S
C536 N535 1.351 . S
C536 C537 1.434 . S
C537 C528 1.429 . S
C537 N534 1.350 . S
C537 C536 1.434 . S
C538 C539 1.369 . S
C538 C540 1.419 . S
C538 H542 0.930 . S
C539 C538 1.369 . S
C539 C548 1.429 . S
C540 C538 1.419 . S
C540 C541 1.363 . S
C540 H543 0.929 . S
C541 C540 1.363 . S
C541 C547 1.428 . S
H542 C538 0.930 . S
H543 C540 0.929 . S
S544 N545 1.613 . S
S544 N546 1.610 . S
N545 S544 1.613 . S
N545 C548 1.350 . S
N546 S544 1.610 . S
N546 C547 1.351 . S
C547 C541 1.428 . S
C547 N546 1.351 . S
C547 C548 1.434 . S
C548 C539 1.429 . S
C548 N545 1.350 . S
C548 C547 1.434 . S
C549 C550 1.369 . S
C549 C551 1.419 1_655 S
C549 H553 0.930 . S
C550 C549 1.369 . S
C550 C559 1.429 . S
C551 C549 1.419 1_455 S
C551 C552 1.363 . S
C551 H554 0.929 . S
C552 C551 1.363 . S
C552 C558 1.428 . S
H553 C549 0.930 . S
H554 C551 0.929 . S
S555 N556 1.613 1_455 S
S555 N557 1.610 . S
N556 S555 1.613 1_655 S
N556 C559 1.350 . S
N557 S555 1.610 . S
N557 C558 1.351 . S
C558 C552 1.428 . S
C558 N557 1.351 . S
C558 C559 1.434 1_455 S
C559 C550 1.429 . S
C559 N556 1.350 . S
C559 C558 1.434 1_655 S
C209 C3 1.628 . S
C211 C29 1.627 . S
C220 C18 1.634 . S
C222 C42 1.628 . S
C231 C57 1.624 . S
C233 C81 1.634 . S
C242 C94 1.631 . S
C244 C70 1.625 . S
C253 C109 1.624 . S
C255 C135 1.634 . S
C264 C146 1.635 . S
C266 C122 1.626 . S
C275 C187 1.633 . S
C277 C161 1.629 . S
C286 C198 1.634 . S
C288 C174 1.627 . S
C297 C101 1.289 . S
C299 C10 1.285 . S
C308 C17 1.292 . S
C310 C56 1.287 . S
C319 C69 1.284 . S
C321 C36 1.288 . S
C330 C49 1.289 . S
C332 C88 1.285 . S
C341 C205 1.289 . S
C343 C108 1.291 . S
C352 C121 1.291 . S
C354 C160 1.286 . S
C363 C134 1.284 . S
C365 C173 1.290 . S
C374 C186 1.284 . S
C376 C153 1.288 . S
C385 C5 0.996 . S
C387 C55 0.990 . S
C396 C16 0.986 . S
C398 C68 0.989 . S
C407 C83 0.981 . S
C409 C31 0.997 . S
C418 C44 0.986 . S
C420 C96 0.989 . S
C429 C159 0.984 . S
C431 C107 0.997 . S
C440 C172 0.996 . S
C442 C120 0.989 . S
C451 C133 0.996 . S
C453 C185 0.989 . S
C462 C148 0.985 . S
C464 C200 0.992 . S
C473 C4 1.590 . S
C475 C114 1.593 . S
C484 C127 1.588 . S
C486 C23 1.595 . S
C495 C30 1.592 . S
C497 C140 1.592 . S
C506 C147 1.594 . S
C508 C43 1.590 . S
C517 C62 1.589 . S
C519 C166 1.594 . S
C528 C75 1.594 . S
C530 C179 1.591 . S
C539 C192 1.588 . S
C541 C82 1.595 . S
C550 C95 1.595 . S
C552 C199 1.590 . S
