# Generated by pormake.
# Topology msp, (4)-cn, num edge types: 1
# Building blocks:
#     Node 0, Type 0, BuildingBlock: GALJAG_clean_sbu_0, # of connection points: 4
#     Node 1, Type 0, BuildingBlock: GALJAG_clean_sbu_0, # of connection points: 4
#     Node 2, Type 0, BuildingBlock: GALJAG_clean_sbu_0, # of connection points: 4
#     Node 3, Type 0, BuildingBlock: GALJAG_clean_sbu_0, # of connection points: 4
#     Node 4, Type 0, BuildingBlock: GALJAG_clean_sbu_0, # of connection points: 4
#     Node 5, Type 0, BuildingBlock: GALJAG_clean_sbu_0, # of connection points: 4
#     Node 6, Type 0, BuildingBlock: GALJAG_clean_sbu_0, # of connection points: 4
#     Node 7, Type 0, BuildingBlock: GALJAG_clean_sbu_0, # of connection points: 4
#     Edge 8, Type (0, 0), BuildingBlock: FUNLAD_clean_linker_0, # of connection points: 2
#     Edge 9, Type (0, 0), BuildingBlock: FUNLAD_clean_linker_0, # of connection points: 2
#     Edge 10, Type (0, 0), BuildingBlock: FUNLAD_clean_linker_0, # of connection points: 2
#     Edge 11, Type (0, 0), BuildingBlock: FUNLAD_clean_linker_0, # of connection points: 2
#     Edge 12, Type (0, 0), BuildingBlock: FUNLAD_clean_linker_0, # of connection points: 2
#     Edge 13, Type (0, 0), BuildingBlock: FUNLAD_clean_linker_0, # of connection points: 2
#     Edge 14, Type (0, 0), BuildingBlock: FUNLAD_clean_linker_0, # of connection points: 2
#     Edge 15, Type (0, 0), BuildingBlock: FUNLAD_clean_linker_0, # of connection points: 2
#     Edge 16, Type (0, 0), BuildingBlock: FUNLAD_clean_linker_0, # of connection points: 2
#     Edge 17, Type (0, 0), BuildingBlock: FUNLAD_clean_linker_0, # of connection points: 2
#     Edge 18, Type (0, 0), BuildingBlock: FUNLAD_clean_linker_0, # of connection points: 2
#     Edge 19, Type (0, 0), BuildingBlock: FUNLAD_clean_linker_0, # of connection points: 2
#     Edge 20, Type (0, 0), BuildingBlock: FUNLAD_clean_linker_0, # of connection points: 2
#     Edge 21, Type (0, 0), BuildingBlock: FUNLAD_clean_linker_0, # of connection points: 2
#     Edge 22, Type (0, 0), BuildingBlock: FUNLAD_clean_linker_0, # of connection points: 2
#     Edge 23, Type (0, 0), BuildingBlock: FUNLAD_clean_linker_0, # of connection points: 2
# Relax obj value: 0.108
# Max RMSD: 0.183
# Mean RMSD: 0.183
data_MOF--net-msp--node1-GALJAG_clean_sbu_0--edge1-FUNLAD_clean_linker_0
_symmetry_space_group_name_H-M    P1
_symmetry_Int_Tables_number       1
_symmetry_cell_setting            triclinic
loop_
_symmetry_equiv_pos_as_xyz
'x, y, z'
_cell_length_a     25.075219
_cell_length_b     24.773903
_cell_length_c     50.506273
_cell_angle_alpha  89.941587
_cell_angle_beta   99.933657
_cell_angle_gamma 90.025965
loop_
_atom_site_label
_atom_site_type_symbol
_atom_site_fract_x
_atom_site_fract_y
_atom_site_fract_z
_atom_type_partial_charge
In0 In 0.03608 0.24699 0.37805 0.0
O1 O 0.95711 0.20675 0.35801 0.0
O2 O 0.96688 0.29136 0.3527 0.0
C3 C 0.09628 0.17141 0.40756 0.0
C4 C 0.09221 0.24886 0.33747 0.0
C5 C 0.02652 0.31765 0.41742 0.0
O6 O 0.04514 0.16764 0.40232 0.0
O7 O 0.11568 0.21264 0.39809 0.0
O8 O 0.05359 0.32841 0.39912 0.0
O9 O 0.00445 0.27168 0.41564 0.0
C10 C 0.93747 0.25017 0.34719 0.0
O11 O 0.09446 0.28747 0.35407 0.0
O12 O 0.06117 0.21055 0.34126 0.0
In13 In 0.45496 0.25664 0.62478 0.0
O14 O 0.53344 0.21191 0.64156 0.0
O15 O 0.52605 0.29458 0.65198 0.0
C16 C 0.39102 0.18475 0.59447 0.0
C17 C 0.40136 0.2558 0.66638 0.0
C18 C 0.46488 0.33268 0.58764 0.0
O19 O 0.44196 0.17899 0.59933 0.0
O20 O 0.37363 0.22635 0.60451 0.0
O21 O 0.43953 0.34115 0.60682 0.0
O22 O 0.48536 0.28618 0.5874 0.0
C23 C 0.55441 0.25224 0.65485 0.0
O24 O 0.39867 0.2955 0.65037 0.0
O25 O 0.4314 0.21755 0.66145 0.0
In26 In 0.96416 0.73531 0.62791 0.0
O27 O 0.90226 0.69254 0.64886 0.0
O28 O 0.92749 0.77208 0.66153 0.0
C29 C 0.97975 0.66278 0.59023 0.0
C30 C 0.05869 0.73504 0.6626 0.0
C31 C 0.91139 0.81022 0.59463 0.0
O32 O 0.94878 0.65342 0.607 0.0
O33 O 0.00292 0.70816 0.59277 0.0
O34 O 0.96216 0.81253 0.60227 0.0
O35 O 0.88842 0.77109 0.60397 0.0
C36 C 0.89794 0.7319 0.66433 0.0
O37 O 0.03895 0.77792 0.65128 0.0
O38 O 0.03138 0.69299 0.65589 0.0
In39 In 0.54164 0.73213 0.37065 0.0
O40 O 0.46339 0.77729 0.35381 0.0
O41 O 0.46988 0.6945 0.3436 0.0
C42 C 0.60121 0.80264 0.40394 0.0
C43 C 0.59679 0.7352 0.32951 0.0
C44 C 0.53246 0.65453 0.40715 0.0
O45 O 0.55047 0.80794 0.39724 0.0
O46 O 0.62099 0.76244 0.39378 0.0
O47 O 0.56037 0.64798 0.38879 0.0
O48 O 0.50911 0.69969 0.40679 0.0
C49 C 0.44168 0.73692 0.34089 0.0
O50 O 0.59412 0.69279 0.34323 0.0
O51 O 0.5717 0.77535 0.33661 0.0
In52 In 0.54926 0.76047 0.87858 0.0
O53 O 0.60561 0.80522 0.85509 0.0
O54 O 0.57628 0.72763 0.84124 0.0
C55 C 0.54211 0.83463 0.91688 0.0
C56 C 0.4494 0.7586 0.84847 0.0
C57 C 0.60894 0.68402 0.90813 0.0
O58 O 0.56826 0.84306 0.89801 0.0
O59 O 0.5198 0.78888 0.9164 0.0
O60 O 0.55776 0.6834 0.90475 0.0
O61 O 0.62885 0.7226 0.89684 0.0
C62 C 0.60539 0.76788 0.83798 0.0
O63 O 0.47238 0.71608 0.85859 0.0
O64 O 0.47617 0.80132 0.85421 0.0
In65 In 0.95142 0.75785 0.12259 0.0
O66 O 0.01649 0.70268 0.14653 0.0
O67 O 0.02439 0.78736 0.15187 0.0
C68 C 0.91892 0.66923 0.09313 0.0
C69 C 0.87699 0.78409 0.15341 0.0
C70 C 0.95771 0.83413 0.08481 0.0
O71 O 0.94965 0.70442 0.08567 0.0
O72 O 0.90821 0.67672 0.11635 0.0
O73 O 0.9142 0.8239 0.09318 0.0
O74 O 0.99781 0.80667 0.09574 0.0
C75 C 0.04341 0.74133 0.15843 0.0
O76 O 0.86708 0.7529 0.13352 0.0
O77 O 0.92386 0.8042 0.15715 0.0
In78 In 0.45347 0.24016 0.12787 0.0
O79 O 0.3932 0.20346 0.15184 0.0
O80 O 0.42752 0.2804 0.1637 0.0
C81 C 0.46181 0.1628 0.09137 0.0
C82 C 0.55188 0.23847 0.1591 0.0
C83 C 0.39692 0.31393 0.09532 0.0
O84 O 0.43455 0.15613 0.10999 0.0
O85 O 0.4846 0.20824 0.09131 0.0
O86 O 0.44813 0.3156 0.10075 0.0
O87 O 0.37554 0.27578 0.10626 0.0
C88 C 0.39554 0.24313 0.16779 0.0
O89 O 0.53217 0.28139 0.14778 0.0
O90 O 0.52263 0.19711 0.15397 0.0
In91 In 0.0379 0.23871 0.87254 0.0
O92 O 0.09296 0.19585 0.84752 0.0
O93 O 0.0602 0.27283 0.83455 0.0
C94 C 0.02624 0.16686 0.91123 0.0
C95 C 0.93698 0.24837 0.84445 0.0
C96 C 0.10729 0.30763 0.90165 0.0
O97 O 0.04113 0.15273 0.88957 0.0
O98 O 0.01691 0.21662 0.91309 0.0
O99 O 0.05677 0.31664 0.8971 0.0
O100 O 0.12171 0.26463 0.89156 0.0
C101 C 0.08979 0.23363 0.83039 0.0
O102 O 0.96197 0.28824 0.85641 0.0
O103 O 0.96208 0.20411 0.84778 0.0
C104 C 0.04604 0.40635 0.44104 0.0
C105 C 0.02092 0.3555 0.43939 0.0
C106 C 0.0406 0.4418 0.46198 0.0
C107 C 0.00956 0.42712 0.48164 0.0
C108 C 0.98509 0.37598 0.48004 0.0
C109 C 0.99051 0.34067 0.45914 0.0
C110 C 0.00259 0.46296 0.50446 0.0
C111 C 0.00957 0.51691 0.50441 0.0
C112 C 0.00192 0.55258 0.52716 0.0
C113 C 0.02777 0.60303 0.52956 0.0
C114 C 0.02099 0.63843 0.55023 0.0
C115 C 0.9877 0.6244 0.56886 0.0
H116 H 0.94621 0.5009 0.54421 0.0
C117 C 0.96142 0.57414 0.56645 0.0
C118 C 0.96831 0.53858 0.54579 0.0
H119 H 0.9351 0.56246 0.58037 0.0
H120 H 0.07017 0.41866 0.42624 0.0
H121 H 0.06163 0.48001 0.46283 0.0
H122 H 0.96133 0.36335 0.49495 0.0
H123 H 0.97083 0.30164 0.4585 0.0
H124 H 0.99038 0.44371 0.52177 0.0
H125 H 0.02199 0.53633 0.4872 0.0
H126 H 0.0535 0.61511 0.51542 0.0
H127 H 0.0416 0.67702 0.55146 0.0
C128 C 0.49838 0.62438 0.44844 0.0
C129 C 0.52791 0.61324 0.42784 0.0
C130 C 0.49453 0.58612 0.46838 0.0
C131 C 0.51981 0.53541 0.46804 0.0
C132 C 0.54965 0.52456 0.4475 0.0
C133 C 0.55358 0.56295 0.42757 0.0
C134 C 0.5176 0.49353 0.48908 0.0
C135 C 0.48005 0.49257 0.5053 0.0
C136 C 0.47798 0.45093 0.52643 0.0
C137 C 0.44956 0.4627 0.5474 0.0
C138 C 0.44563 0.42457 0.56742 0.0
C139 C 0.46974 0.37356 0.5668 0.0
H140 H 0.52265 0.38797 0.50959 0.0
C141 C 0.49787 0.36149 0.54577 0.0
C142 C 0.50185 0.3996 0.52575 0.0
H143 H 0.51647 0.3223 0.5446 0.0
H144 H 0.4786 0.66303 0.44936 0.0
H145 H 0.47263 0.59726 0.48419 0.0
H146 H 0.56995 0.48611 0.4468 0.0
H147 H 0.57685 0.55328 0.41202 0.0
H148 H 0.54827 0.46224 0.49097 0.0
H149 H 0.44936 0.52381 0.50346 0.0
H150 H 0.43039 0.50167 0.54836 0.0
H151 H 0.42348 0.435 0.58331 0.0
C152 C 0.49693 0.13144 0.05064 0.0
C153 C 0.46713 0.12085 0.0712 0.0
C154 C 0.5024 0.09205 0.03151 0.0
C155 C 0.4785 0.04084 0.03266 0.0
C156 C 0.44807 0.03063 0.05304 0.0
C157 C 0.44257 0.07011 0.07218 0.0
C158 C 0.48284 0.99779 0.01258 0.0
C159 C 0.52275 0.99572 0.99777 0.0
C160 C 0.52683 0.95334 0.97733 0.0
C161 C 0.55748 0.96431 0.95714 0.0
C162 C 0.56253 0.92582 0.9375 0.0
C163 C 0.53735 0.87525 0.93777 0.0
H164 H 0.47981 0.89131 0.99345 0.0
C165 C 0.50738 0.8638 0.95817 0.0
C166 C 0.50227 0.90229 0.9778 0.0
H167 H 0.48792 0.82494 0.95905 0.0
H168 H 0.51586 0.17039 0.04918 0.0
H169 H 0.52452 0.10255 0.01566 0.0
H170 H 0.42874 0.9918 0.05428 0.0
H171 H 0.41915 0.06086 0.08773 0.0
H172 H 0.45194 0.96668 0.01024 0.0
H173 H 0.55372 0.02676 0.00022 0.0
H174 H 0.57726 0.00305 0.95639 0.0
H175 H 0.58609 0.93575 0.92209 0.0
C176 C 0.01202 0.89223 0.05897 0.0
C177 C 0.9613 0.87317 0.06307 0.0
C178 C 0.01596 0.92746 0.03777 0.0
C179 C 0.96923 0.94376 0.02002 0.0
C180 C 0.91859 0.9243 0.02395 0.0
C181 C 0.91455 0.88987 0.0455 0.0
C182 C 0.97268 0.97955 0.9968 0.0
C183 C 0.00835 0.02049 0.99837 0.0
C184 C 0.01148 0.05722 0.97552 0.0
C185 C 0.02157 0.11221 0.98064 0.0
C186 C 0.02553 0.14781 0.95962 0.0
C187 C 0.02118 0.12878 0.93315 0.0
H188 H -0.0 0.99558 0.94457 0.0
C189 C 0.01214 0.07353 0.92801 0.0
C190 C 0.00674 0.03805 0.949 0.0
H191 H 0.00873 0.05788 0.90777 0.0
H192 H 0.04876 0.87974 0.07211 0.0
H193 H 0.0557 0.94084 0.03493 0.0
H194 H 0.88208 0.93602 0.01041 0.0
H195 H 0.87498 0.87536 0.04805 0.0
H196 H 0.94325 0.97394 0.97852 0.0
H197 H 0.03383 0.02962 0.01751 0.0
H198 H 0.02582 0.12778 0.00094 0.0
H199 H 0.03289 0.19018 0.96416 0.0
C200 C 0.62776 0.28432 0.18971 0.0
C201 C 0.60286 0.23671 0.1787 0.0
C202 C 0.67256 0.28183 0.21048 0.0
C203 C 0.69325 0.23156 0.22054 0.0
C204 C 0.66982 0.18419 0.20858 0.0
C205 C 0.62487 0.18667 0.18805 0.0
C206 C 0.73919 0.22663 0.2433 0.0
C207 C 0.75057 0.26394 0.26283 0.0
C208 C 0.79635 0.25869 0.28565 0.0
C209 C 0.82028 0.30583 0.29764 0.0
C210 C 0.86512 0.30287 0.31823 0.0
C211 C 0.88651 0.25259 0.32759 0.0
H212 H 0.79775 0.17096 0.28771 0.0
C213 C 0.86107 0.20526 0.31656 0.0
C214 C 0.81637 0.20822 0.29575 0.0
H215 H 0.87653 0.16597 0.32349 0.0
H216 H 0.61177 0.32344 0.18278 0.0
H217 H 0.69075 0.31928 0.21853 0.0
H218 H 0.68538 0.14499 0.21567 0.0
H219 H 0.60674 0.14925 0.17982 0.0
H220 H 0.76325 0.19003 0.24428 0.0
H221 H 0.7266 0.3006 0.26186 0.0
H222 H 0.80522 0.34517 0.29053 0.0
H223 H 0.8837 0.3401 0.32647 0.0
C224 C 0.62514 0.2955 0.68905 0.0
C225 C 0.60529 0.24926 0.67452 0.0
C226 C 0.66957 0.29212 0.70987 0.0
C227 C 0.69495 0.24218 0.71674 0.0
C228 C 0.67661 0.19647 0.70136 0.0
C229 C 0.63207 0.19986 0.68051 0.0
C230 C 0.74065 0.23616 0.73961 0.0
C231 C 0.74971 0.27012 0.76081 0.0
C232 C 0.79533 0.26325 0.78361 0.0
C233 C 0.81715 0.30894 0.79804 0.0
C234 C 0.86203 0.30417 0.81865 0.0
C235 C 0.88547 0.25344 0.82537 0.0
H236 H 0.80016 0.17577 0.78149 0.0
C237 C 0.86184 0.20743 0.8119 0.0
C238 C 0.81721 0.2122 0.7913 0.0
H239 H 0.87862 0.16766 0.81683 0.0
H240 H 0.60568 0.33431 0.68471 0.0
H241 H 0.68368 0.32878 0.72041 0.0
H242 H 0.69588 0.15763 0.70595 0.0
H243 H 0.61774 0.16356 0.66961 0.0
H244 H 0.767 0.20157 0.73906 0.0
H245 H 0.72381 0.30498 0.76146 0.0
H246 H 0.80049 0.34865 0.79279 0.0
H247 H 0.87931 0.34032 0.82872 0.0
C248 C 0.13241 0.78179 0.69421 0.0
C249 C 0.10811 0.73384 0.6833 0.0
C250 C 0.17688 0.77999 0.71518 0.0
C251 C 0.19784 0.73007 0.7256 0.0
C252 C 0.17457 0.68231 0.714 0.0
C253 C 0.12997 0.68411 0.69323 0.0
C254 C 0.24453 0.72598 0.74805 0.0
C255 C 0.25674 0.76417 0.7671 0.0
C256 C 0.3042 0.76075 0.78919 0.0
C257 C 0.32676 0.80888 0.8007 0.0
C258 C 0.37303 0.80793 0.82052 0.0
C259 C 0.39741 0.75868 0.82956 0.0
H260 H 0.31002 0.67314 0.79137 0.0
C261 C 0.37355 0.71027 0.819 0.0
C262 C 0.32734 0.71122 0.799 0.0
H263 H 0.39129 0.67172 0.82573 0.0
H264 H 0.11658 0.82069 0.68684 0.0
H265 H 0.19487 0.81772 0.72294 0.0
H266 H 0.19029 0.64336 0.72138 0.0
H267 H 0.11229 0.64643 0.68513 0.0
H268 H 0.26889 0.68959 0.74899 0.0
H269 H 0.23224 0.80047 0.76613 0.0
H270 H 0.30941 0.84753 0.79381 0.0
H271 H 0.39029 0.84595 0.82839 0.0
C272 C 0.36709 0.69259 0.30922 0.0
C273 C 0.38911 0.73943 0.32248 0.0
C274 C 0.31968 0.69512 0.29014 0.0
C275 C 0.29344 0.74484 0.2837 0.0
C276 C 0.31448 0.79129 0.29773 0.0
C277 C 0.3619 0.7887 0.31689 0.0
C278 C 0.24439 0.75025 0.26257 0.0
C279 C 0.22965 0.71408 0.24266 0.0
C280 C 0.18213 0.72183 0.22092 0.0
C281 C 0.1562 0.6764 0.20789 0.0
C282 C 0.11135 0.6824 0.18735 0.0
C283 C 0.09203 0.73407 0.17927 0.0
H284 H 0.18351 0.80963 0.22103 0.0
C285 C 0.11883 0.77951 0.19181 0.0
C286 C 0.16344 0.77354 0.21232 0.0
H287 H 0.10525 0.81992 0.18583 0.0
H288 H 0.38687 0.65387 0.31334 0.0
H289 H 0.30402 0.65794 0.28065 0.0
H290 H 0.29485 0.83004 0.29343 0.0
H291 H 0.37785 0.82546 0.32684 0.0
H292 H 0.22043 0.78658 0.26315 0.0
H293 H 0.25271 0.67725 0.24199 0.0
H294 H 0.17024 0.63612 0.21387 0.0
H295 H 0.09161 0.64665 0.17797 0.0
C296 C 0.32238 0.2081 0.19119 0.0
C297 C 0.36158 0.2474 0.18881 0.0
C298 C 0.2884 0.21393 0.21022 0.0
C299 C 0.29339 0.25907 0.22745 0.0
C300 C 0.33274 0.29817 0.22501 0.0
C301 C 0.36659 0.29238 0.20598 0.0
C302 C 0.25732 0.26801 0.24751 0.0
C303 C 0.23024 0.22807 0.25751 0.0
C304 C 0.19384 0.23663 0.27742 0.0
C305 C 0.15493 0.19699 0.27967 0.0
C306 C 0.12109 0.20185 0.29873 0.0
C307 C 0.12566 0.24638 0.31616 0.0
H308 H 0.22855 0.31238 0.29425 0.0
C309 C 0.16419 0.28645 0.31388 0.0
C310 C 0.19815 0.28161 0.29474 0.0
H311 H 0.16894 0.32093 0.32726 0.0
H312 H 0.31722 0.17334 0.178 0.0
H313 H 0.25754 0.18365 0.21073 0.0
H314 H 0.3373 0.33347 0.23786 0.0
H315 H 0.39633 0.32349 0.20454 0.0
H316 H 0.25365 0.30916 0.25431 0.0
H317 H 0.23412 0.18692 0.25077 0.0
H318 H 0.15083 0.16186 0.26671 0.0
H319 H 0.09187 0.17018 0.30005 0.0
C320 C 0.32977 0.29082 0.69083 0.0
C321 C 0.36972 0.25239 0.68838 0.0
C322 C 0.29746 0.28503 0.71063 0.0
C323 C 0.3046 0.24058 0.72831 0.0
C324 C 0.34589 0.20339 0.72642 0.0
C325 C 0.37787 0.20896 0.70655 0.0
C326 C 0.27052 0.23211 0.74922 0.0
C327 C 0.21899 0.24942 0.74652 0.0
C328 C 0.18497 0.24218 0.76757 0.0
C329 C 0.14305 0.27914 0.76856 0.0
C330 C 0.11145 0.2755 0.78867 0.0
C331 C 0.12064 0.23428 0.80804 0.0
H332 H 0.22367 0.16926 0.78573 0.0
C333 C 0.16108 0.19583 0.80648 0.0
C334 C 0.19302 0.19969 0.78641 0.0
H335 H 0.16872 0.16341 0.82104 0.0
H336 H 0.32292 0.32491 0.67722 0.0
H337 H 0.26735 0.31564 0.7121 0.0
H338 H 0.35269 0.16922 0.74 0.0
H339 H 0.40864 0.17886 0.70526 0.0
H340 H 0.28846 0.2099 0.76709 0.0
H341 H 0.20117 0.27143 0.72856 0.0
H342 H 0.13553 0.31182 0.75412 0.0
H343 H 0.08028 0.30552 0.78924 0.0
C344 C 0.64001 0.72471 0.79968 0.0
C345 C 0.63914 0.76925 0.81677 0.0
C346 C 0.67443 0.72403 0.78071 0.0
C347 C 0.70852 0.76828 0.77824 0.0
C348 C 0.70711 0.81302 0.7952 0.0
C349 C 0.67272 0.81361 0.81423 0.0
C350 C 0.74783 0.76854 0.75929 0.0
C351 C 0.74478 0.73539 0.73789 0.0
C352 C 0.78511 0.7353 0.71948 0.0
C353 C 0.79006 0.68895 0.70407 0.0
C354 C 0.82713 0.68737 0.68633 0.0
C355 C 0.85978 0.73234 0.68355 0.0
H356 H 0.81386 0.81775 0.7271 0.0
C357 C 0.85462 0.77886 0.69878 0.0
C358 C 0.81755 0.78051 0.71643 0.0
H359 H 0.87876 0.81444 0.69681 0.0
H360 H 0.6149 0.68969 0.80133 0.0
H361 H 0.67505 0.68801 0.76872 0.0
H362 H 0.73307 0.84755 0.79389 0.0
H363 H 0.67306 0.84843 0.82721 0.0
H364 H 0.78081 0.79733 0.76349 0.0
H365 H 0.71214 0.70628 0.73367 0.0
H366 H 0.76528 0.65371 0.70582 0.0
H367 H 0.83 0.65108 0.67471 0.0
C368 C 0.79136 0.76035 0.16957 0.0
C369 C 0.83914 0.79104 0.17253 0.0
C370 C 0.75883 0.76125 0.18938 0.0
C371 C 0.77346 0.79298 0.21257 0.0
C372 C 0.8196 0.8259 0.21482 0.0
C373 C 0.85245 0.82464 0.19509 0.0
C374 C 0.74155 0.79227 0.23472 0.0
C375 C 0.71569 0.74772 0.24121 0.0
C376 C 0.6854 0.74555 0.26399 0.0
C377 C 0.67942 0.69572 0.27645 0.0
C378 C 0.65091 0.69217 0.29788 0.0
C379 C 0.62718 0.73835 0.30697 0.0
H380 H 0.66345 0.83047 0.26336 0.0
C381 C 0.63242 0.78806 0.29424 0.0
C382 C 0.66118 0.79168 0.27297 0.0
H383 H 0.61422 0.82433 0.30069 0.0
H384 H 0.77984 0.73433 0.1523 0.0
H385 H 0.72249 0.73682 0.18656 0.0
H386 H 0.83131 0.85125 0.23233 0.0
H387 H 0.88897 0.84885 0.19785 0.0
H388 H 0.74287 0.82814 0.24716 0.0
H389 H 0.7193 0.71035 0.23041 0.0
H390 H 0.69727 0.65948 0.26975 0.0
H391 H 0.64728 0.65327 0.30722 0.0
C392 C 0.37171 0.11349 0.55869 0.0
C393 C 0.35363 0.14809 0.57728 0.0
C394 C 0.33421 0.08626 0.53947 0.0
C395 C 0.2781 0.09339 0.53866 0.0
C396 C 0.26074 0.1239 0.55895 0.0
C397 C 0.29797 0.15126 0.57789 0.0
C398 C 0.23631 0.07664 0.51549 0.0
C399 C 0.24695 0.07168 0.49035 0.0
C400 C 0.20564 0.08375 0.46619 0.0
C401 C 0.22371 0.10785 0.4442 0.0
C402 C 0.18724 0.1331 0.42408 0.0
C403 C 0.13172 0.13396 0.42523 0.0
H404 H 0.13371 0.05946 0.48193 0.0
C405 C 0.11265 0.10459 0.44546 0.0
C406 C 0.14939 0.07959 0.46587 0.0
H407 H 0.0699 0.10409 0.44657 0.0
H408 H 0.41451 0.10973 0.55808 0.0
H409 H 0.34938 0.06148 0.52479 0.0
H410 H 0.21796 0.12968 0.55913 0.0
H411 H 0.28289 0.17684 0.59235 0.0
H412 H 0.19453 0.08019 0.51832 0.0
H413 H 0.28875 0.07089 0.48734 0.0
H414 H 0.26661 0.11105 0.44363 0.0
H415 H 0.20293 0.15465 0.40838 0.0
C416 C 0.82426 0.84777 0.57116 0.0
C417 C 0.88088 0.84596 0.57404 0.0
C418 C 0.79324 0.87055 0.54834 0.0
C419 C 0.81828 0.89205 0.52773 0.0
C420 C 0.87521 0.89436 0.53179 0.0
C421 C 0.90634 0.87175 0.55484 0.0
C422 C 0.78725 0.90216 0.50025 0.0
C423 C 0.73267 0.90346 0.49449 0.0
C424 C 0.701 0.88811 0.46783 0.0
C425 C 0.64454 0.89565 0.4631 0.0
C426 C 0.61181 0.87073 0.44123 0.0
C427 C 0.63505 0.83735 0.42388 0.0
H428 H 0.76723 0.84973 0.45205 0.0
C429 C 0.69162 0.83279 0.42749 0.0
C430 C 0.72427 0.85777 0.44917 0.0
H431 H 0.71071 0.80758 0.4143 0.0
H432 H 0.80361 0.82852 0.58581 0.0
H433 H 0.74978 0.86703 0.54625 0.0
H434 H 0.8957 0.91047 0.5163 0.0
H435 H 0.95 0.87086 0.5566 0.0
H436 H 0.81031 0.90169 0.48393 0.0
H437 H 0.70966 0.9098 0.51054 0.0
H438 H 0.62539 0.91844 0.47718 0.0
H439 H 0.56826 0.87501 0.43888 0.0
C440 C 0.89702 0.62852 0.04739 0.0
C441 C 0.8875 0.63121 0.07393 0.0
C442 C 0.85808 0.60657 0.02712 0.0
C443 C 0.80873 0.58675 0.03307 0.0
C444 C 0.80189 0.58454 0.06006 0.0
C445 C 0.84104 0.6062 0.08035 0.0
C446 C 0.76039 0.57914 0.0117 0.0
C447 C 0.7635 0.57234 0.98556 0.0
C448 C 0.71966 0.58987 0.96353 0.0
C449 C 0.73505 0.61101 0.9402 0.0
C450 C 0.69792 0.63904 0.92145 0.0
C451 C 0.64419 0.64556 0.9253 0.0
H452 H 0.65093 0.57515 0.98362 0.0
C453 C 0.62716 0.62001 0.94722 0.0
C454 C 0.6647 0.59248 0.96632 0.0
H455 H 0.58577 0.62408 0.95047 0.0
H456 H 0.9325 0.64739 0.04184 0.0
H457 H 0.86507 0.61 0.00666 0.0
H458 H 0.76439 0.56961 0.06526 0.0
H459 H 0.83258 0.60753 0.10066 0.0
H460 H 0.72146 0.58754 0.01745 0.0
H461 H 0.80241 0.56296 0.98002 0.0
H462 H 0.77688 0.60921 0.93735 0.0
H463 H 0.71193 0.65772 0.90448 0.0
C464 C 0.38517 0.37583 0.05536 0.0
C465 C 0.36356 0.34993 0.07587 0.0
C466 C 0.3506 0.39985 0.03378 0.0
C467 C 0.29397 0.39822 0.03254 0.0
C468 C 0.27335 0.37732 0.05454 0.0
C469 C 0.30767 0.35304 0.07585 0.0
C470 C 0.25462 0.41052 0.00768 0.0
C471 C 0.2666 0.40354 0.9829 0.0
C472 C 0.2249 0.38986 0.95912 0.0
C473 C 0.24095 0.35742 0.93914 0.0
C474 C 0.20249 0.33323 0.91954 0.0
C475 C 0.147 0.34153 0.91921 0.0
H476 H 0.15549 0.42861 0.97174 0.0
C477 C 0.13079 0.37806 0.93751 0.0
C478 C 0.16946 0.40216 0.95735 0.0
H479 H 0.08824 0.38574 0.93744 0.0
H480 H 0.42825 0.37454 0.0551 0.0
H481 H 0.36825 0.41745 0.01769 0.0
H482 H 0.23009 0.37611 0.05438 0.0
H483 H 0.29 0.33416 0.09167 0.0
H484 H 0.21255 0.41419 0.01 0.0
H485 H 0.30842 0.39671 0.9808 0.0
H486 H 0.28328 0.34772 0.93971 0.0
H487 H 0.21625 0.30597 0.90536 0.0
loop_
_geom_bond_atom_site_label_1
_geom_bond_atom_site_label_2
_geom_bond_distance
_geom_bond_site_symmetry_2
_ccdc_geom_bond_type
In0 O1 2.294 1_455 S
In0 O2 2.326 1_455 S
In0 O6 2.266 . S
In0 O7 2.326 . S
In0 O8 2.266 . S
In0 O9 2.326 . S
In0 O11 2.294 . S
In0 O12 2.326 . S
O1 In0 2.294 1_655 S
O1 C10 1.240 . S
O2 In0 2.326 1_655 S
O2 C10 1.252 . S
C3 O6 1.252 . S
C3 O7 1.260 . S
C4 O11 1.240 . S
C4 O12 1.252 . S
C5 O8 1.252 . S
C5 O9 1.260 . S
O6 In0 2.266 . S
O6 C3 1.252 . S
O7 In0 2.326 . S
O7 C3 1.260 . S
O8 In0 2.266 . S
O8 C5 1.252 . S
O9 In0 2.326 . S
O9 C5 1.260 . S
C10 O1 1.240 . S
C10 O2 1.252 . S
O11 In0 2.294 . S
O11 C4 1.240 . S
O12 In0 2.326 . S
O12 C4 1.252 . S
In13 O14 2.294 . S
In13 O15 2.326 . S
In13 O19 2.266 . S
In13 O20 2.326 . S
In13 O21 2.266 . S
In13 O22 2.326 . S
In13 O24 2.294 . S
In13 O25 2.326 . S
O14 In13 2.294 . S
O14 C23 1.240 . S
O15 In13 2.326 . S
O15 C23 1.252 . S
C16 O19 1.252 . S
C16 O20 1.260 . S
C17 O24 1.240 . S
C17 O25 1.252 . S
C18 O21 1.252 . S
C18 O22 1.260 . S
O19 In13 2.266 . S
O19 C16 1.252 . S
O20 In13 2.326 . S
O20 C16 1.260 . S
O21 In13 2.266 . S
O21 C18 1.252 . S
O22 In13 2.326 . S
O22 C18 1.260 . S
C23 O14 1.240 . S
C23 O15 1.252 . S
O24 In13 2.294 . S
O24 C17 1.240 . S
O25 In13 2.326 . S
O25 C17 1.252 . S
In26 O27 2.294 . S
In26 O28 2.326 . S
In26 O32 2.266 . S
In26 O33 2.326 . S
In26 O34 2.266 . S
In26 O35 2.326 . S
In26 O37 2.294 1_655 S
In26 O38 2.326 1_655 S
O27 In26 2.294 . S
O27 C36 1.240 . S
O28 In26 2.326 . S
O28 C36 1.252 . S
C29 O32 1.252 . S
C29 O33 1.260 . S
C30 O37 1.240 . S
C30 O38 1.252 . S
C31 O34 1.252 . S
C31 O35 1.260 . S
O32 In26 2.266 . S
O32 C29 1.252 . S
O33 In26 2.326 . S
O33 C29 1.260 . S
O34 In26 2.266 . S
O34 C31 1.252 . S
O35 In26 2.326 . S
O35 C31 1.260 . S
C36 O27 1.240 . S
C36 O28 1.252 . S
O37 In26 2.294 1_455 S
O37 C30 1.240 . S
O38 In26 2.326 1_455 S
O38 C30 1.252 . S
In39 O40 2.294 . S
In39 O41 2.326 . S
In39 O45 2.266 . S
In39 O46 2.326 . S
In39 O47 2.266 . S
In39 O48 2.326 . S
In39 O50 2.294 . S
In39 O51 2.326 . S
O40 In39 2.294 . S
O40 C49 1.240 . S
O41 In39 2.326 . S
O41 C49 1.252 . S
C42 O45 1.252 . S
C42 O46 1.260 . S
C43 O50 1.240 . S
C43 O51 1.252 . S
C44 O47 1.252 . S
C44 O48 1.260 . S
O45 In39 2.266 . S
O45 C42 1.252 . S
O46 In39 2.326 . S
O46 C42 1.260 . S
O47 In39 2.266 . S
O47 C44 1.252 . S
O48 In39 2.326 . S
O48 C44 1.260 . S
C49 O40 1.240 . S
C49 O41 1.252 . S
O50 In39 2.294 . S
O50 C43 1.240 . S
O51 In39 2.326 . S
O51 C43 1.252 . S
In52 O53 2.294 . S
In52 O54 2.326 . S
In52 O58 2.266 . S
In52 O59 2.326 . S
In52 O60 2.266 . S
In52 O61 2.326 . S
In52 O63 2.294 . S
In52 O64 2.326 . S
O53 In52 2.294 . S
O53 C62 1.240 . S
O54 In52 2.326 . S
O54 C62 1.252 . S
C55 O58 1.252 . S
C55 O59 1.260 . S
C56 O63 1.240 . S
C56 O64 1.252 . S
C57 O60 1.252 . S
C57 O61 1.260 . S
O58 In52 2.266 . S
O58 C55 1.252 . S
O59 In52 2.326 . S
O59 C55 1.260 . S
O60 In52 2.266 . S
O60 C57 1.252 . S
O61 In52 2.326 . S
O61 C57 1.260 . S
C62 O53 1.240 . S
C62 O54 1.252 . S
O63 In52 2.294 . S
O63 C56 1.240 . S
O64 In52 2.326 . S
O64 C56 1.252 . S
In65 O66 2.294 1_655 S
In65 O67 2.326 1_655 S
In65 O71 2.266 . S
In65 O72 2.326 . S
In65 O73 2.266 . S
In65 O74 2.326 . S
In65 O76 2.294 . S
In65 O77 2.326 . S
O66 In65 2.294 1_455 S
O66 C75 1.240 . S
O67 In65 2.326 1_455 S
O67 C75 1.252 . S
C68 O71 1.252 . S
C68 O72 1.260 . S
C69 O76 1.240 . S
C69 O77 1.252 . S
C70 O73 1.252 . S
C70 O74 1.260 . S
O71 In65 2.266 . S
O71 C68 1.252 . S
O72 In65 2.326 . S
O72 C68 1.260 . S
O73 In65 2.266 . S
O73 C70 1.252 . S
O74 In65 2.326 . S
O74 C70 1.260 . S
C75 O66 1.240 . S
C75 O67 1.252 . S
O76 In65 2.294 . S
O76 C69 1.240 . S
O77 In65 2.326 . S
O77 C69 1.252 . S
In78 O79 2.294 . S
In78 O80 2.326 . S
In78 O84 2.266 . S
In78 O85 2.326 . S
In78 O86 2.266 . S
In78 O87 2.326 . S
In78 O89 2.294 . S
In78 O90 2.326 . S
O79 In78 2.294 . S
O79 C88 1.240 . S
O80 In78 2.326 . S
O80 C88 1.252 . S
C81 O84 1.252 . S
C81 O85 1.260 . S
C82 O89 1.240 . S
C82 O90 1.252 . S
C83 O86 1.252 . S
C83 O87 1.260 . S
O84 In78 2.266 . S
O84 C81 1.252 . S
O85 In78 2.326 . S
O85 C81 1.260 . S
O86 In78 2.266 . S
O86 C83 1.252 . S
O87 In78 2.326 . S
O87 C83 1.260 . S
C88 O79 1.240 . S
C88 O80 1.252 . S
O89 In78 2.294 . S
O89 C82 1.240 . S
O90 In78 2.326 . S
O90 C82 1.252 . S
In91 O92 2.294 . S
In91 O93 2.326 . S
In91 O97 2.266 . S
In91 O98 2.326 . S
In91 O99 2.266 . S
In91 O100 2.326 . S
In91 O102 2.294 1_455 S
In91 O103 2.326 1_455 S
O92 In91 2.294 . S
O92 C101 1.240 . S
O93 In91 2.326 . S
O93 C101 1.252 . S
C94 O97 1.252 . S
C94 O98 1.260 . S
C95 O102 1.240 . S
C95 O103 1.252 . S
C96 O99 1.252 . S
C96 O100 1.260 . S
O97 In91 2.266 . S
O97 C94 1.252 . S
O98 In91 2.326 . S
O98 C94 1.260 . S
O99 In91 2.266 . S
O99 C96 1.252 . S
O100 In91 2.326 . S
O100 C96 1.260 . S
C101 O92 1.240 . S
C101 O93 1.252 . S
O102 In91 2.294 1_655 S
O102 C95 1.240 . S
O103 In91 2.326 1_655 S
O103 C95 1.252 . S
C104 C105 1.386 1_655 S
C104 C106 1.383 . S
C104 H120 0.951 . S
C105 C104 1.386 1_455 S
C105 C109 1.383 . S
C106 C104 1.383 . S
C106 C107 1.405 . S
C106 H121 0.951 . S
C107 C106 1.405 . S
C107 C108 1.367 1_655 S
C107 C110 1.485 . S
C108 C107 1.367 1_455 S
C108 C109 1.367 . S
C108 H122 0.951 . S
C109 C105 1.383 . S
C109 C108 1.367 . S
C109 H123 0.950 . S
C110 C107 1.485 . S
C110 C111 1.297 . S
C110 H124 0.950 1_655 S
C111 C110 1.297 . S
C111 C112 1.479 . S
C111 H125 0.950 . S
C112 C111 1.479 . S
C112 C113 1.375 . S
C112 C118 1.404 . S
C113 C112 1.375 . S
C113 C114 1.369 . S
C113 H126 0.950 . S
C114 C113 1.369 . S
C114 C115 1.392 . S
C114 H127 0.951 . S
C115 C114 1.392 . S
C115 C117 1.384 . S
H116 C118 0.949 . S
C117 C115 1.384 . S
C117 C118 1.385 . S
C117 H119 0.950 1_655 S
C118 C112 1.404 . S
C118 H116 0.949 . S
C118 C117 1.385 . S
H119 C117 0.950 1_455 S
H120 C104 0.951 . S
H121 C106 0.951 . S
H122 C108 0.951 . S
H123 C109 0.950 . S
H124 C110 0.950 1_455 S
H125 C111 0.950 . S
H126 C113 0.950 . S
H127 C114 0.951 . S
C128 C129 1.386 . S
C128 C130 1.383 . S
C128 H144 0.951 . S
C129 C128 1.386 . S
C129 C133 1.383 . S
C130 C128 1.383 . S
C130 C131 1.402 . S
C130 H145 0.951 . S
C131 C130 1.402 . S
C131 C132 1.375 . S
C131 C134 1.481 . S
C132 C131 1.375 . S
C132 C133 1.367 . S
C132 H146 0.951 . S
C133 C129 1.383 . S
C133 C132 1.367 . S
C133 H147 0.950 . S
C134 C131 1.481 . S
C134 C135 1.297 . S
C134 H148 0.950 . S
C135 C134 1.297 . S
C135 C136 1.479 . S
C135 H149 0.950 . S
C136 C135 1.479 . S
C136 C137 1.375 . S
C136 C142 1.404 . S
C137 C136 1.375 . S
C137 C138 1.369 . S
C137 H150 0.950 . S
C138 C137 1.369 . S
C138 C139 1.392 . S
C138 H151 0.951 . S
C139 C138 1.392 . S
C139 C141 1.384 . S
H140 C142 0.949 . S
C141 C139 1.384 . S
C141 C142 1.385 . S
C141 H143 0.950 . S
C142 C136 1.404 . S
C142 H140 0.949 . S
C142 C141 1.385 . S
H143 C141 0.950 . S
H144 C128 0.951 . S
H145 C130 0.951 . S
H146 C132 0.951 . S
H147 C133 0.950 . S
H148 C134 0.950 . S
H149 C135 0.950 . S
H150 C137 0.950 . S
H151 C138 0.951 . S
C152 C153 1.386 . S
C152 C154 1.383 . S
C152 H168 0.951 . S
C153 C152 1.386 . S
C153 C157 1.383 . S
C154 C152 1.383 . S
C154 C155 1.402 . S
C154 H169 0.951 . S
C155 C154 1.402 . S
C155 C156 1.375 . S
C155 C158 1.481 1_545 S
C156 C155 1.375 . S
C156 C157 1.367 . S
C156 H170 0.951 1_545 S
C157 C153 1.383 . S
C157 C156 1.367 . S
C157 H171 0.950 . S
C158 C155 1.481 1_565 S
C158 C159 1.297 1_564 S
C158 H172 0.950 . S
C159 C158 1.297 1_546 S
C159 C160 1.479 1_545 S
C159 H173 0.950 . S
C160 C159 1.479 1_565 S
C160 C161 1.375 . S
C160 C166 1.404 . S
C161 C160 1.375 . S
C161 C162 1.369 . S
C161 H174 0.950 1_565 S
C162 C161 1.369 . S
C162 C163 1.392 . S
C162 H175 0.951 . S
C163 C162 1.392 . S
C163 C165 1.384 . S
H164 C166 0.949 . S
C165 C163 1.384 . S
C165 C166 1.385 . S
C165 H167 0.950 . S
C166 C160 1.404 . S
C166 H164 0.949 . S
C166 C165 1.385 . S
H167 C165 0.950 . S
H168 C152 0.951 . S
H169 C154 0.951 . S
H170 C156 0.951 1_565 S
H171 C157 0.950 . S
H172 C158 0.950 . S
H173 C159 0.950 . S
H174 C161 0.950 1_545 S
H175 C162 0.951 . S
C176 C177 1.386 1_455 S
C176 C178 1.383 . S
C176 H192 0.951 . S
C177 C176 1.386 1_655 S
C177 C181 1.383 . S
C178 C176 1.383 . S
C178 C179 1.402 1_455 S
C178 H193 0.951 . S
C179 C178 1.402 1_655 S
C179 C180 1.375 . S
C179 C182 1.481 1_554 S
C180 C179 1.375 . S
C180 C181 1.367 . S
C180 H194 0.951 . S
C181 C177 1.383 . S
C181 C180 1.367 . S
C181 H195 0.950 . S
C182 C179 1.481 1_556 S
C182 C183 1.297 1_665 S
C182 H196 0.950 . S
C183 C182 1.297 1_445 S
C183 C184 1.479 . S
C183 H197 0.950 1_556 S
C184 C183 1.479 . S
C184 C185 1.375 . S
C184 C190 1.404 1_455 S
C185 C184 1.375 . S
C185 C186 1.369 . S
C185 H198 0.950 . S
C186 C185 1.369 . S
C186 C187 1.392 . S
C186 H199 0.951 . S
C187 C186 1.392 . S
C187 C189 1.384 1_455 S
H188 C190 0.949 1_565 S
C189 C187 1.384 1_655 S
C189 C190 1.385 . S
C189 H191 0.950 . S
C190 C184 1.404 1_655 S
C190 H188 0.949 1_545 S
C190 C189 1.385 . S
H191 C189 0.950 . S
H192 C176 0.951 . S
H193 C178 0.951 . S
H194 C180 0.951 . S
H195 C181 0.950 . S
H196 C182 0.950 . S
H197 C183 0.950 1_554 S
H198 C185 0.950 . S
H199 C186 0.951 . S
C200 C201 1.386 . S
C200 C202 1.383 . S
C200 H216 0.951 . S
C201 C200 1.386 . S
C201 C205 1.383 . S
C202 C200 1.383 . S
C202 C203 1.402 . S
C202 H217 0.951 . S
C203 C202 1.402 . S
C203 C204 1.375 . S
C203 C206 1.481 . S
C204 C203 1.375 . S
C204 C205 1.367 . S
C204 H218 0.951 . S
C205 C201 1.383 . S
C205 C204 1.367 . S
C205 H219 0.950 . S
C206 C203 1.481 . S
C206 C207 1.297 . S
C206 H220 0.950 . S
C207 C206 1.297 . S
C207 C208 1.479 . S
C207 H221 0.950 . S
C208 C207 1.479 . S
C208 C209 1.375 . S
C208 C214 1.404 . S
C209 C208 1.375 . S
C209 C210 1.369 . S
C209 H222 0.950 . S
C210 C209 1.369 . S
C210 C211 1.392 . S
C210 H223 0.951 . S
C211 C210 1.392 . S
C211 C213 1.384 . S
H212 C214 0.949 . S
C213 C211 1.384 . S
C213 C214 1.385 . S
C213 H215 0.950 . S
C214 C208 1.404 . S
C214 H212 0.949 . S
C214 C213 1.385 . S
H215 C213 0.950 . S
H216 C200 0.951 . S
H217 C202 0.951 . S
H218 C204 0.951 . S
H219 C205 0.950 . S
H220 C206 0.950 . S
H221 C207 0.950 . S
H222 C209 0.950 . S
H223 C210 0.951 . S
C224 C225 1.386 . S
C224 C226 1.383 . S
C224 H240 0.951 . S
C225 C224 1.386 . S
C225 C229 1.383 . S
C226 C224 1.383 . S
C226 C227 1.402 . S
C226 H241 0.951 . S
C227 C226 1.402 . S
C227 C228 1.375 . S
C227 C230 1.481 . S
C228 C227 1.375 . S
C228 C229 1.367 . S
C228 H242 0.951 . S
C229 C225 1.383 . S
C229 C228 1.367 . S
C229 H243 0.950 . S
C230 C227 1.481 . S
C230 C231 1.297 . S
C230 H244 0.950 . S
C231 C230 1.297 . S
C231 C232 1.479 . S
C231 H245 0.950 . S
C232 C231 1.479 . S
C232 C233 1.375 . S
C232 C238 1.404 . S
C233 C232 1.375 . S
C233 C234 1.369 . S
C233 H246 0.950 . S
C234 C233 1.369 . S
C234 C235 1.392 . S
C234 H247 0.951 . S
C235 C234 1.392 . S
C235 C237 1.384 . S
H236 C238 0.949 . S
C237 C235 1.384 . S
C237 C238 1.385 . S
C237 H239 0.950 . S
C238 C232 1.404 . S
C238 H236 0.949 . S
C238 C237 1.385 . S
H239 C237 0.950 . S
H240 C224 0.951 . S
H241 C226 0.951 . S
H242 C228 0.951 . S
H243 C229 0.950 . S
H244 C230 0.950 . S
H245 C231 0.950 . S
H246 C233 0.950 . S
H247 C234 0.951 . S
C248 C249 1.386 . S
C248 C250 1.383 . S
C248 H264 0.951 . S
C249 C248 1.386 . S
C249 C253 1.383 . S
C250 C248 1.383 . S
C250 C251 1.402 . S
C250 H265 0.951 . S
C251 C250 1.402 . S
C251 C252 1.375 . S
C251 C254 1.481 . S
C252 C251 1.375 . S
C252 C253 1.367 . S
C252 H266 0.951 . S
C253 C249 1.383 . S
C253 C252 1.367 . S
C253 H267 0.950 . S
C254 C251 1.481 . S
C254 C255 1.297 . S
C254 H268 0.950 . S
C255 C254 1.297 . S
C255 C256 1.479 . S
C255 H269 0.950 . S
C256 C255 1.479 . S
C256 C257 1.375 . S
C256 C262 1.404 . S
C257 C256 1.375 . S
C257 C258 1.369 . S
C257 H270 0.950 . S
C258 C257 1.369 . S
C258 C259 1.392 . S
C258 H271 0.951 . S
C259 C258 1.392 . S
C259 C261 1.384 . S
H260 C262 0.949 . S
C261 C259 1.384 . S
C261 C262 1.385 . S
C261 H263 0.950 . S
C262 C256 1.404 . S
C262 H260 0.949 . S
C262 C261 1.385 . S
H263 C261 0.950 . S
H264 C248 0.951 . S
H265 C250 0.951 . S
H266 C252 0.951 . S
H267 C253 0.950 . S
H268 C254 0.950 . S
H269 C255 0.950 . S
H270 C257 0.950 . S
H271 C258 0.951 . S
C272 C273 1.386 . S
C272 C274 1.383 . S
C272 H288 0.951 . S
C273 C272 1.386 . S
C273 C277 1.383 . S
C274 C272 1.383 . S
C274 C275 1.402 . S
C274 H289 0.951 . S
C275 C274 1.402 . S
C275 C276 1.375 . S
C275 C278 1.481 . S
C276 C275 1.375 . S
C276 C277 1.367 . S
C276 H290 0.951 . S
C277 C273 1.383 . S
C277 C276 1.367 . S
C277 H291 0.950 . S
C278 C275 1.481 . S
C278 C279 1.297 . S
C278 H292 0.950 . S
C279 C278 1.297 . S
C279 C280 1.479 . S
C279 H293 0.950 . S
C280 C279 1.479 . S
C280 C281 1.375 . S
C280 C286 1.404 . S
C281 C280 1.375 . S
C281 C282 1.369 . S
C281 H294 0.950 . S
C282 C281 1.369 . S
C282 C283 1.392 . S
C282 H295 0.951 . S
C283 C282 1.392 . S
C283 C285 1.384 . S
H284 C286 0.949 . S
C285 C283 1.384 . S
C285 C286 1.385 . S
C285 H287 0.950 . S
C286 C280 1.404 . S
C286 H284 0.949 . S
C286 C285 1.385 . S
H287 C285 0.950 . S
H288 C272 0.951 . S
H289 C274 0.951 . S
H290 C276 0.951 . S
H291 C277 0.950 . S
H292 C278 0.950 . S
H293 C279 0.950 . S
H294 C281 0.950 . S
H295 C282 0.951 . S
C296 C297 1.386 . S
C296 C298 1.383 . S
C296 H312 0.951 . S
C297 C296 1.386 . S
C297 C301 1.383 . S
C298 C296 1.383 . S
C298 C299 1.402 . S
C298 H313 0.951 . S
C299 C298 1.402 . S
C299 C300 1.375 . S
C299 C302 1.481 . S
C300 C299 1.375 . S
C300 C301 1.367 . S
C300 H314 0.951 . S
C301 C297 1.383 . S
C301 C300 1.367 . S
C301 H315 0.950 . S
C302 C299 1.481 . S
C302 C303 1.297 . S
C302 H316 0.950 . S
C303 C302 1.297 . S
C303 C304 1.479 . S
C303 H317 0.950 . S
C304 C303 1.479 . S
C304 C305 1.375 . S
C304 C310 1.404 . S
C305 C304 1.375 . S
C305 C306 1.369 . S
C305 H318 0.950 . S
C306 C305 1.369 . S
C306 C307 1.392 . S
C306 H319 0.951 . S
C307 C306 1.392 . S
C307 C309 1.384 . S
H308 C310 0.949 . S
C309 C307 1.384 . S
C309 C310 1.385 . S
C309 H311 0.950 . S
C310 C304 1.404 . S
C310 H308 0.949 . S
C310 C309 1.385 . S
H311 C309 0.950 . S
H312 C296 0.951 . S
H313 C298 0.951 . S
H314 C300 0.951 . S
H315 C301 0.950 . S
H316 C302 0.950 . S
H317 C303 0.950 . S
H318 C305 0.950 . S
H319 C306 0.951 . S
C320 C321 1.386 . S
C320 C322 1.383 . S
C320 H336 0.951 . S
C321 C320 1.386 . S
C321 C325 1.383 . S
C322 C320 1.383 . S
C322 C323 1.402 . S
C322 H337 0.951 . S
C323 C322 1.402 . S
C323 C324 1.375 . S
C323 C326 1.481 . S
C324 C323 1.375 . S
C324 C325 1.367 . S
C324 H338 0.951 . S
C325 C321 1.383 . S
C325 C324 1.367 . S
C325 H339 0.950 . S
C326 C323 1.481 . S
C326 C327 1.297 . S
C326 H340 0.950 . S
C327 C326 1.297 . S
C327 C328 1.479 . S
C327 H341 0.950 . S
C328 C327 1.479 . S
C328 C329 1.375 . S
C328 C334 1.404 . S
C329 C328 1.375 . S
C329 C330 1.369 . S
C329 H342 0.950 . S
C330 C329 1.369 . S
C330 C331 1.392 . S
C330 H343 0.951 . S
C331 C330 1.392 . S
C331 C333 1.384 . S
H332 C334 0.949 . S
C333 C331 1.384 . S
C333 C334 1.385 . S
C333 H335 0.950 . S
C334 C328 1.404 . S
C334 H332 0.949 . S
C334 C333 1.385 . S
H335 C333 0.950 . S
H336 C320 0.951 . S
H337 C322 0.951 . S
H338 C324 0.951 . S
H339 C325 0.950 . S
H340 C326 0.950 . S
H341 C327 0.950 . S
H342 C329 0.950 . S
H343 C330 0.951 . S
C344 C345 1.386 . S
C344 C346 1.383 . S
C344 H360 0.951 . S
C345 C344 1.386 . S
C345 C349 1.383 . S
C346 C344 1.383 . S
C346 C347 1.402 . S
C346 H361 0.951 . S
C347 C346 1.402 . S
C347 C348 1.375 . S
C347 C350 1.481 . S
C348 C347 1.375 . S
C348 C349 1.367 . S
C348 H362 0.951 . S
C349 C345 1.383 . S
C349 C348 1.367 . S
C349 H363 0.950 . S
C350 C347 1.481 . S
C350 C351 1.297 . S
C350 H364 0.950 . S
C351 C350 1.297 . S
C351 C352 1.479 . S
C351 H365 0.950 . S
C352 C351 1.479 . S
C352 C353 1.375 . S
C352 C358 1.404 . S
C353 C352 1.375 . S
C353 C354 1.369 . S
C353 H366 0.950 . S
C354 C353 1.369 . S
C354 C355 1.392 . S
C354 H367 0.951 . S
C355 C354 1.392 . S
C355 C357 1.384 . S
H356 C358 0.949 . S
C357 C355 1.384 . S
C357 C358 1.385 . S
C357 H359 0.950 . S
C358 C352 1.404 . S
C358 H356 0.949 . S
C358 C357 1.385 . S
H359 C357 0.950 . S
H360 C344 0.951 . S
H361 C346 0.951 . S
H362 C348 0.951 . S
H363 C349 0.950 . S
H364 C350 0.950 . S
H365 C351 0.950 . S
H366 C353 0.950 . S
H367 C354 0.951 . S
C368 C369 1.386 . S
C368 C370 1.383 . S
C368 H384 0.951 . S
C369 C368 1.386 . S
C369 C373 1.383 . S
C370 C368 1.383 . S
C370 C371 1.402 . S
C370 H385 0.951 . S
C371 C370 1.402 . S
C371 C372 1.375 . S
C371 C374 1.481 . S
C372 C371 1.375 . S
C372 C373 1.367 . S
C372 H386 0.951 . S
C373 C369 1.383 . S
C373 C372 1.367 . S
C373 H387 0.950 . S
C374 C371 1.481 . S
C374 C375 1.297 . S
C374 H388 0.950 . S
C375 C374 1.297 . S
C375 C376 1.479 . S
C375 H389 0.950 . S
C376 C375 1.479 . S
C376 C377 1.375 . S
C376 C382 1.404 . S
C377 C376 1.375 . S
C377 C378 1.369 . S
C377 H390 0.950 . S
C378 C377 1.369 . S
C378 C379 1.392 . S
C378 H391 0.951 . S
C379 C378 1.392 . S
C379 C381 1.384 . S
H380 C382 0.949 . S
C381 C379 1.384 . S
C381 C382 1.385 . S
C381 H383 0.950 . S
C382 C376 1.404 . S
C382 H380 0.949 . S
C382 C381 1.385 . S
H383 C381 0.950 . S
H384 C368 0.951 . S
H385 C370 0.951 . S
H386 C372 0.951 . S
H387 C373 0.950 . S
H388 C374 0.950 . S
H389 C375 0.950 . S
H390 C377 0.950 . S
H391 C378 0.951 . S
C392 C393 1.386 . S
C392 C394 1.383 . S
C392 H408 0.951 . S
C393 C392 1.386 . S
C393 C397 1.383 . S
C394 C392 1.383 . S
C394 C395 1.402 . S
C394 H409 0.951 . S
C395 C394 1.402 . S
C395 C396 1.375 . S
C395 C398 1.481 . S
C396 C395 1.375 . S
C396 C397 1.367 . S
C396 H410 0.951 . S
C397 C393 1.383 . S
C397 C396 1.367 . S
C397 H411 0.950 . S
C398 C395 1.481 . S
C398 C399 1.297 . S
C398 H412 0.950 . S
C399 C398 1.297 . S
C399 C400 1.479 . S
C399 H413 0.950 . S
C400 C399 1.479 . S
C400 C401 1.375 . S
C400 C406 1.404 . S
C401 C400 1.375 . S
C401 C402 1.369 . S
C401 H414 0.950 . S
C402 C401 1.369 . S
C402 C403 1.392 . S
C402 H415 0.951 . S
C403 C402 1.392 . S
C403 C405 1.384 . S
H404 C406 0.949 . S
C405 C403 1.384 . S
C405 C406 1.385 . S
C405 H407 0.950 . S
C406 C400 1.404 . S
C406 H404 0.949 . S
C406 C405 1.385 . S
H407 C405 0.950 . S
H408 C392 0.951 . S
H409 C394 0.951 . S
H410 C396 0.951 . S
H411 C397 0.950 . S
H412 C398 0.950 . S
H413 C399 0.950 . S
H414 C401 0.950 . S
H415 C402 0.951 . S
C416 C417 1.386 . S
C416 C418 1.383 . S
C416 H432 0.951 . S
C417 C416 1.386 . S
C417 C421 1.383 . S
C418 C416 1.383 . S
C418 C419 1.402 . S
C418 H433 0.951 . S
C419 C418 1.402 . S
C419 C420 1.375 . S
C419 C422 1.481 . S
C420 C419 1.375 . S
C420 C421 1.367 . S
C420 H434 0.951 . S
C421 C417 1.383 . S
C421 C420 1.367 . S
C421 H435 0.950 . S
C422 C419 1.481 . S
C422 C423 1.297 . S
C422 H436 0.950 . S
C423 C422 1.297 . S
C423 C424 1.479 . S
C423 H437 0.950 . S
C424 C423 1.479 . S
C424 C425 1.375 . S
C424 C430 1.404 . S
C425 C424 1.375 . S
C425 C426 1.369 . S
C425 H438 0.950 . S
C426 C425 1.369 . S
C426 C427 1.392 . S
C426 H439 0.951 . S
C427 C426 1.392 . S
C427 C429 1.384 . S
H428 C430 0.949 . S
C429 C427 1.384 . S
C429 C430 1.385 . S
C429 H431 0.950 . S
C430 C424 1.404 . S
C430 H428 0.949 . S
C430 C429 1.385 . S
H431 C429 0.950 . S
H432 C416 0.951 . S
H433 C418 0.951 . S
H434 C420 0.951 . S
H435 C421 0.950 . S
H436 C422 0.950 . S
H437 C423 0.950 . S
H438 C425 0.950 . S
H439 C426 0.951 . S
C440 C441 1.386 . S
C440 C442 1.383 . S
C440 H456 0.951 . S
C441 C440 1.386 . S
C441 C445 1.383 . S
C442 C440 1.383 . S
C442 C443 1.402 . S
C442 H457 0.951 . S
C443 C442 1.402 . S
C443 C444 1.375 . S
C443 C446 1.481 . S
C444 C443 1.375 . S
C444 C445 1.367 . S
C444 H458 0.951 . S
C445 C441 1.383 . S
C445 C444 1.367 . S
C445 H459 0.950 . S
C446 C443 1.481 . S
C446 C447 1.297 1_554 S
C446 H460 0.950 . S
C447 C446 1.297 1_556 S
C447 C448 1.479 . S
C447 H461 0.950 . S
C448 C447 1.479 . S
C448 C449 1.375 . S
C448 C454 1.404 . S
C449 C448 1.375 . S
C449 C450 1.369 . S
C449 H462 0.950 . S
C450 C449 1.369 . S
C450 C451 1.392 . S
C450 H463 0.951 . S
C451 C450 1.392 . S
C451 C453 1.384 . S
H452 C454 0.949 . S
C453 C451 1.384 . S
C453 C454 1.385 . S
C453 H455 0.950 . S
C454 C448 1.404 . S
C454 H452 0.949 . S
C454 C453 1.385 . S
H455 C453 0.950 . S
H456 C440 0.951 . S
H457 C442 0.951 . S
H458 C444 0.951 . S
H459 C445 0.950 . S
H460 C446 0.950 . S
H461 C447 0.950 . S
H462 C449 0.950 . S
H463 C450 0.951 . S
C464 C465 1.386 . S
C464 C466 1.383 . S
C464 H480 0.951 . S
C465 C464 1.386 . S
C465 C469 1.383 . S
C466 C464 1.383 . S
C466 C467 1.402 . S
C466 H481 0.951 . S
C467 C466 1.402 . S
C467 C468 1.375 . S
C467 C470 1.481 . S
C468 C467 1.375 . S
C468 C469 1.367 . S
C468 H482 0.951 . S
C469 C465 1.383 . S
C469 C468 1.367 . S
C469 H483 0.950 . S
C470 C467 1.481 . S
C470 C471 1.297 1_554 S
C470 H484 0.950 . S
C471 C470 1.297 1_556 S
C471 C472 1.479 . S
C471 H485 0.950 . S
C472 C471 1.479 . S
C472 C473 1.375 . S
C472 C478 1.404 . S
C473 C472 1.375 . S
C473 C474 1.369 . S
C473 H486 0.950 . S
C474 C473 1.369 . S
C474 C475 1.392 . S
C474 H487 0.951 . S
C475 C474 1.392 . S
C475 C477 1.384 . S
H476 C478 0.949 . S
C477 C475 1.384 . S
C477 C478 1.385 . S
C477 H479 0.950 . S
C478 C472 1.404 . S
C478 H476 0.949 . S
C478 C477 1.385 . S
H479 C477 0.950 . S
H480 C464 0.951 . S
H481 C466 0.951 . S
H482 C468 0.951 . S
H483 C469 0.950 . S
H484 C470 0.950 . S
H485 C471 0.950 . S
H486 C473 0.950 . S
H487 C474 0.951 . S
C105 C5 1.534 . S
C115 C29 1.523 . S
C129 C44 1.543 . S
C139 C18 1.512 . S
C153 C81 1.555 . S
C163 C55 1.524 . S
C177 C70 1.529 . S
C187 C94 1.534 . S
C201 C82 1.732 . S
C211 C10 1.728 . S
C225 C23 1.764 . S
C235 C95 1.713 . S
C249 C30 1.728 . S
C259 C56 1.737 . S
C273 C49 1.761 . S
C283 C75 1.706 . S
C297 C88 1.578 . S
C307 C4 1.570 . S
C321 C17 1.577 . S
C331 C101 1.571 . S
C345 C62 1.576 . S
C355 C36 1.560 . S
C369 C69 1.579 . S
C379 C43 1.564 . S
C393 C16 0.427 . S
C403 C3 0.572 . S
C417 C31 0.421 . S
C427 C42 0.486 . S
C441 C68 0.485 . S
C451 C57 0.540 . S
C465 C83 0.383 . S
C475 C96 0.315 . S
