# Generated by pormake.
# Topology afw, (4)-cn, num edge types: 1
# Building blocks:
#     Node 0, Type 0, BuildingBlock: KUFVIS_clean_sbu_0, # of connection points: 4
#     Node 1, Type 0, BuildingBlock: KUFVIS_clean_sbu_0, # of connection points: 4
#     Node 2, Type 0, BuildingBlock: KUFVIS_clean_sbu_0, # of connection points: 4
#     Node 3, Type 0, BuildingBlock: KUFVIS_clean_sbu_0, # of connection points: 4
#     Node 4, Type 0, BuildingBlock: KUFVIS_clean_sbu_0, # of connection points: 4
#     Node 5, Type 0, BuildingBlock: KUFVIS_clean_sbu_0, # of connection points: 4
#     Node 6, Type 0, BuildingBlock: KUFVIS_clean_sbu_0, # of connection points: 4
#     Node 7, Type 0, BuildingBlock: KUFVIS_clean_sbu_0, # of connection points: 4
#     Node 8, Type 0, BuildingBlock: KUFVIS_clean_sbu_0, # of connection points: 4
#     Edge 9, Type (0, 0), BuildingBlock: XIVTED_clean_linker_0, # of connection points: 2
#     Edge 10, Type (0, 0), BuildingBlock: XIVTED_clean_linker_0, # of connection points: 2
#     Edge 11, Type (0, 0), BuildingBlock: XIVTED_clean_linker_0, # of connection points: 2
#     Edge 12, Type (0, 0), BuildingBlock: XIVTED_clean_linker_0, # of connection points: 2
#     Edge 13, Type (0, 0), BuildingBlock: XIVTED_clean_linker_0, # of connection points: 2
#     Edge 14, Type (0, 0), BuildingBlock: XIVTED_clean_linker_0, # of connection points: 2
#     Edge 15, Type (0, 0), BuildingBlock: XIVTED_clean_linker_0, # of connection points: 2
#     Edge 16, Type (0, 0), BuildingBlock: XIVTED_clean_linker_0, # of connection points: 2
#     Edge 17, Type (0, 0), BuildingBlock: XIVTED_clean_linker_0, # of connection points: 2
#     Edge 18, Type (0, 0), BuildingBlock: XIVTED_clean_linker_0, # of connection points: 2
#     Edge 19, Type (0, 0), BuildingBlock: XIVTED_clean_linker_0, # of connection points: 2
#     Edge 20, Type (0, 0), BuildingBlock: XIVTED_clean_linker_0, # of connection points: 2
#     Edge 21, Type (0, 0), BuildingBlock: XIVTED_clean_linker_0, # of connection points: 2
#     Edge 22, Type (0, 0), BuildingBlock: XIVTED_clean_linker_0, # of connection points: 2
#     Edge 23, Type (0, 0), BuildingBlock: XIVTED_clean_linker_0, # of connection points: 2
#     Edge 24, Type (0, 0), BuildingBlock: XIVTED_clean_linker_0, # of connection points: 2
#     Edge 25, Type (0, 0), BuildingBlock: XIVTED_clean_linker_0, # of connection points: 2
#     Edge 26, Type (0, 0), BuildingBlock: XIVTED_clean_linker_0, # of connection points: 2
# Relax obj value: 0.208
# Max RMSD: 0.226
# Mean RMSD: 0.211
data_MOF--net-afw--node1-KUFVIS_clean_sbu_0--edge1-XIVTED_clean_linker_0
_symmetry_space_group_name_H-M    P1
_symmetry_Int_Tables_number       1
_symmetry_cell_setting            triclinic
loop_
_symmetry_equiv_pos_as_xyz
'x, y, z'
_cell_length_a     41.990348
_cell_length_b     43.231923
_cell_length_c     32.70689
_cell_angle_alpha  91.111465
_cell_angle_beta   90.225975
_cell_angle_gamma 119.48358
loop_
_atom_site_label
_atom_site_type_symbol
_atom_site_fract_x
_atom_site_fract_y
_atom_site_fract_z
_atom_type_partial_charge
Mn0 Mn 0.02065 0.1989 0.01851 0.0
Mn1 Mn 0.10365 0.2638 0.05192 0.0
C2 C 0.07183 0.19272 0.01072 0.0
C3 C 0.96537 0.14675 0.02785 0.0
C4 C 0.06651 0.26889 0.97485 0.0
O5 O 0.00785 0.2282 0.05763 0.0
O6 O 0.0646 0.26871 0.08003 0.0
C7 C 0.1006 0.24161 0.13752 0.0
N8 N 0.11733 0.2492 0.1006 0.0
C9 C 0.16422 0.2373 0.12524 0.0
C10 C 0.14761 0.22956 0.1636 0.0
C11 C 0.11564 0.23168 0.16974 0.0
C12 C 0.14815 0.24733 0.09439 0.0
H13 H 0.07592 0.24305 0.14231 0.0
C14 C 0.0297 0.25501 0.08001 0.0
O15 O 0.96894 0.16892 -0.00032 0.0
O16 O -0.00659 0.15568 0.05187 0.0
N17 N 0.1437 0.26156 0.02713 0.0
C18 C 0.1551 0.2679 0.98771 0.0
C19 C 0.18614 0.26575 0.97611 0.0
C20 C 0.20517 0.25725 0.00517 0.0
C21 C 0.19309 0.25114 0.04564 0.0
C22 C 0.16219 0.25399 0.0555 0.0
H23 H 0.14048 0.2743 0.96522 0.0
O24 O 0.04326 0.17461 0.98731 0.0
O25 O 0.06959 0.21387 0.03779 0.0
O26 O 0.03839 0.23817 0.97666 0.0
O27 O 0.09243 0.28124 0.00147 0.0
C28 C 0.21006 0.24165 0.07639 0.0
C29 C 0.19563 0.23473 0.11615 0.0
H30 H 0.15897 0.22164 0.18844 0.0
H31 H 0.10256 0.22558 0.1992 0.0
H32 H 0.19526 0.27046 0.94481 0.0
H33 H 0.22887 0.25526 -0.00399 0.0
H34 H 0.23393 0.23914 0.06964 0.0
H35 H 0.20863 0.22699 0.13938 0.0
Mn36 Mn 0.81264 0.83433 0.01947 0.0
Mn37 Mn 0.82775 0.77002 0.97949 0.0
C38 C 0.86933 0.83848 0.02525 0.0
C39 C 0.814 0.8887 0.01463 0.0
C40 C 0.78687 0.7619 0.058 0.0
O41 O 0.76952 0.80819 0.97968 0.0
O42 O 0.7833 0.76702 0.95485 0.0
C43 C 0.84486 0.79618 0.89506 0.0
N44 N 0.85467 0.78641 0.93018 0.0
C45 C 0.9122 0.79798 0.90186 0.0
C46 C 0.90262 0.80795 0.86528 0.0
C47 C 0.86882 0.8071 0.8619 0.0
C48 C 0.8871 0.78709 0.93375 0.0
H49 H 0.81898 0.79572 0.89242 0.0
C50 C 0.76302 0.78145 0.9566 0.0
O51 O 0.79418 0.86585 0.04179 0.0
O52 O 0.83098 0.879 0.98887 0.0
N53 N 0.87035 0.77023 0.00087 0.0
C54 C 0.87627 0.76172 0.03898 0.0
C55 C 0.90932 0.76229 0.04785 0.0
C56 C 0.93577 0.77138 0.01741 0.0
C57 C 0.92889 0.7797 0.97831 0.0
C58 C 0.89532 0.77834 0.97114 0.0
H59 H 0.85603 0.75479 0.06249 0.0
O60 O 0.85993 0.85574 0.0508 0.0
O61 O 0.8453 0.81919 -0.00263 0.0
O62 O 0.78953 0.79264 0.0587 0.0
O63 O 0.80049 0.75105 0.03013 0.0
C64 C 0.95432 0.78996 0.94641 0.0
C65 C 0.946 0.79914 0.90823 0.0
H66 H 0.92113 0.81662 0.83973 0.0
H67 H 0.86132 0.81494 0.83384 0.0
H68 H 0.91445 0.75587 0.07811 0.0
H69 H 0.96131 0.77204 0.02442 0.0
H70 H 0.98056 0.7914 0.9511 0.0
H71 H 0.96598 0.80749 0.88414 0.0
Mn72 Mn 0.19458 -0.00085 0.00711 0.0
Mn73 Mn 0.17739 0.91846 0.03809 0.0
C74 C 0.13714 0.9507 -0.00099 0.0
C75 C 0.19671 0.05315 0.01904 0.0
C76 C 0.21762 0.95176 0.96043 0.0
O77 O 0.23698 0.01129 0.04565 0.0
O78 O 0.22265 0.9563 0.06575 0.0
C79 C 0.16128 0.92469 0.12498 0.0
N80 N 0.1507 0.90751 0.08791 0.0
C81 C 0.09223 0.86461 0.11402 0.0
C82 C 0.10261 0.88172 0.15253 0.0
C83 C 0.13728 0.9119 0.15801 0.0
C84 C 0.11746 0.87833 0.08234 0.0
H85 H 0.1878 0.94803 0.12933 0.0
C86 C 0.24294 0.99026 0.06706 0.0
O87 O 0.2155 0.04925 0.98994 0.0
O88 O 0.17811 0.02619 0.04214 0.0
N89 N 0.13381 0.87996 0.01418 0.0
C90 C 0.12692 0.86818 0.97446 0.0
C91 C 0.09284 0.83894 0.96349 0.0
C92 C 0.06623 0.8221 0.99343 0.0
C93 C 0.07396 0.83467 0.0341 0.0
C94 C 0.10853 0.86371 0.04331 0.0
H95 H 0.14709 0.88126 0.95123 0.0
O96 O 0.14744 0.97802 0.97598 0.0
O97 O 0.16093 0.95245 0.02575 0.0
O98 O 0.21633 0.98046 0.96431 0.0
O99 O 0.20399 0.92678 0.98614 0.0
C100 C 0.04842 0.82001 0.06569 0.0
C101 C 0.05753 0.83498 0.10561 0.0
H102 H 0.08405 0.87213 0.178 0.0
H103 H 0.14541 0.92537 0.18759 0.0
H104 H 0.087 0.82953 0.93198 0.0
H105 H 0.03987 0.79975 0.9848 0.0
H106 H 0.02152 0.79752 0.05953 0.0
H107 H 0.03746 0.82379 0.1295 0.0
Mn108 Mn 0.65775 0.52128 0.32302 0.0
Mn109 Mn 0.73597 0.58799 0.36436 0.0
C110 C 0.71243 0.52186 0.31441 0.0
C111 C 0.60628 0.46514 0.32825 0.0
C112 C 0.69936 0.59577 0.28827 0.0
O113 O 0.63944 0.54364 0.36533 0.0
O114 O 0.69334 0.58537 0.39337 0.0
C115 C 0.73281 0.55874 0.44625 0.0
N116 N 0.75064 0.57125 0.41048 0.0
C117 C 0.80025 0.5623 0.43239 0.0
C118 C 0.78253 0.54956 0.46958 0.0
C119 C 0.74866 0.54776 0.47652 0.0
C120 C 0.78336 0.57331 0.40358 0.0
H121 H 0.70664 0.55704 0.45158 0.0
C122 C 0.65828 0.56858 0.39137 0.0
O123 O 0.60722 0.48767 0.30187 0.0
O124 O 0.63445 0.47581 0.35243 0.0
N125 N 0.77909 0.59267 0.33894 0.0
C126 C 0.79133 0.60324 0.30041 0.0
C127 C 0.82423 0.60517 0.28799 0.0
C128 C 0.84421 0.59629 0.31528 0.0
C129 C 0.8312 0.58572 0.35486 0.0
C130 C 0.79846 0.5847 0.3657 0.0
H131 H 0.77593 0.60983 0.2792 0.0
O132 O 0.68531 0.5037 0.28917 0.0
O133 O 0.70666 0.53909 0.34371 0.0
O134 O 0.67326 0.5637 0.28554 0.0
O135 O 0.72358 0.60751 0.31682 0.0
C136 C 0.84895 0.5753 0.38363 0.0
C137 C 0.8335 0.56361 0.42236 0.0
H138 H 0.79447 0.5407 0.49284 0.0
H139 H 0.73472 0.53775 0.50505 0.0
H140 H 0.83403 0.61324 0.25734 0.0
H141 H 0.86932 0.59734 0.3054 0.0
H142 H 0.87421 0.57566 0.37605 0.0
H143 H 0.84712 0.55515 0.44397 0.0
Mn144 Mn 0.49502 0.15516 0.33557 0.0
Mn145 Mn 0.5119 0.09051 0.30103 0.0
C146 C 0.5529 0.16203 0.34107 0.0
C147 C 0.49195 0.20681 0.32473 0.0
C148 C 0.47277 0.08614 0.38019 0.0
O149 O 0.45105 0.12488 0.29846 0.0
O150 O 0.46688 0.085 0.27452 0.0
C151 C 0.52833 0.11217 0.21496 0.0
N152 N 0.53873 0.10496 0.25143 0.0
C153 C 0.5972 0.11774 0.22483 0.0
C154 C 0.58703 0.12507 0.1869 0.0
C155 C 0.55246 0.1223 0.18197 0.0
C156 C 0.57189 0.10747 0.25649 0.0
H157 H 0.50188 0.11028 0.21111 0.0
C158 C 0.44548 0.09825 0.27572 0.0
O159 O 0.47449 0.18588 0.35444 0.0
O160 O 0.50984 0.19696 0.30049 0.0
N161 N 0.55521 0.09333 0.32423 0.0
C162 C 0.56147 0.08705 0.3633 0.0
C163 C 0.5952 0.08961 0.37364 0.0
C164 C 0.62204 0.09847 0.34371 0.0
C165 C 0.61483 0.10449 0.30362 0.0
C166 C 0.58056 0.10114 0.295 0.0
H167 H 0.54099 0.08038 0.38646 0.0
O168 O 0.54345 0.18053 0.36463 0.0
O169 O 0.52831 0.14028 0.31504 0.0
O170 O 0.47532 0.11675 0.37884 0.0
O171 O 0.48493 0.07363 0.35246 0.0
C172 C 0.64053 0.1143 0.27206 0.0
C173 C 0.63174 0.12095 0.23271 0.0
H174 H 0.60566 0.13316 0.16147 0.0
H175 H 0.54448 0.1281 0.15285 0.0
H176 H 0.60057 0.08496 0.40465 0.0
H177 H 0.64816 0.1008 0.35191 0.0
H178 H 0.66731 0.11723 0.27786 0.0
H179 H 0.65189 0.12891 0.20884 0.0
Mn180 Mn 0.86999 0.35788 0.33145 0.0
Mn181 Mn 0.93631 0.43776 0.30067 0.0
C182 C 0.86266 0.40691 0.33785 0.0
C183 C 0.81759 0.3038 0.31965 0.0
C184 C 0.94024 0.40511 0.3801 0.0
O185 O 0.90032 0.34472 0.29517 0.0
O186 O 0.94315 0.39908 0.27521 0.0
C187 C 0.91539 0.43029 0.21295 0.0
N188 N 0.92187 0.44816 0.24951 0.0
C189 C 0.90746 0.4907 0.22071 0.0
C190 C 0.9009 0.47289 0.18269 0.0
C191 C 0.90487 0.44255 0.17882 0.0
C192 C 0.91829 0.47749 0.25353 0.0
H193 H 0.91811 0.40679 0.20986 0.0
C194 C 0.9284 0.36505 0.27465 0.0
O195 O 0.84005 0.30828 0.34949 0.0
O196 O 0.8264 0.33034 0.2957 0.0
N197 N 0.93228 0.47716 0.32239 0.0
C198 C 0.93755 0.49008 0.36165 0.0
C199 C 0.93357 0.51984 0.37095 0.0
C200 C 0.92424 0.53602 0.33984 0.0
C201 C 0.91916 0.52239 0.29964 0.0
C202 C 0.92397 0.49295 0.29209 0.0
H203 H 0.94424 0.4775 0.38579 0.0
O204 O 0.84426 0.37965 0.36064 0.0
O205 O 0.88477 0.40463 0.31181 0.0
O206 O 0.90975 0.37668 0.37538 0.0
O207 O 0.9531 0.42993 0.35414 0.0
C208 C 0.90871 0.53639 0.26694 0.0
C209 C 0.90289 0.52057 0.22751 0.0
H210 H 0.89245 0.48207 0.15637 0.0
H211 H 0.89965 0.42855 0.14963 0.0
H212 H 0.93737 0.53009 0.40209 0.0
H213 H 0.92078 0.5587 0.34721 0.0
H214 H 0.90461 0.55903 0.27191 0.0
H215 H 0.89443 0.53131 0.20272 0.0
Mn216 Mn 0.3488 0.86155 0.66448 0.0
Mn217 Mn 0.42457 0.93076 0.70627 0.0
C218 C 0.40397 0.86228 0.6621 0.0
C219 C 0.29639 0.80661 0.67205 0.0
C220 C 0.39138 0.93373 0.62487 0.0
O221 O 0.32859 0.88604 0.70083 0.0
O222 O 0.38047 0.92862 0.73138 0.0
C223 C 0.41858 0.90571 0.79097 0.0
N224 N 0.43772 0.91662 0.75568 0.0
C225 C 0.4867 0.90937 0.78357 0.0
C226 C 0.46763 0.89831 0.82031 0.0
C227 C 0.43341 0.89646 0.82399 0.0
C228 C 0.47073 0.91864 0.75186 0.0
H229 H 0.39213 0.90397 0.79384 0.0
C230 C 0.34556 0.91145 0.72686 0.0
O231 O 0.29906 0.8272 0.64228 0.0
O232 O 0.32383 0.81818 0.69751 0.0
N233 N 0.46891 0.93502 0.68489 0.0
C234 C 0.48272 0.9441 0.64662 0.0
C235 C 0.51627 0.94602 0.63744 0.0
C236 C 0.53529 0.93864 0.66766 0.0
C237 C 0.52064 0.92956 0.70688 0.0
C238 C 0.48729 0.92846 0.71439 0.0
H239 H 0.46813 0.94958 0.62318 0.0
O240 O 0.3777 0.84225 0.63665 0.0
O241 O 0.39686 0.88085 0.68844 0.0
O242 O 0.36603 0.90133 0.62319 0.0
O243 O 0.41374 0.94758 0.65508 0.0
C244 C 0.53746 0.92084 0.73855 0.0
C245 C 0.52051 0.91077 0.77687 0.0
H246 H 0.47882 0.89084 0.84573 0.0
H247 H 0.41843 0.88774 0.85216 0.0
H248 H 0.52735 0.95296 0.60707 0.0
H249 H 0.56097 0.93976 0.66032 0.0
H250 H 0.56321 0.92137 0.7336 0.0
H251 H 0.53348 0.90369 0.80081 0.0
Mn252 Mn 0.14533 0.49273 0.6924 0.0
Mn253 Mn 0.15107 0.42304 0.65262 0.0
C254 C 0.19958 0.49196 0.69595 0.0
C255 C 0.15005 0.54815 0.68351 0.0
C256 C 0.11507 0.42122 0.73346 0.0
O257 O 0.1004 0.468 0.65554 0.0
O258 O 0.10937 0.4251 0.62652 0.0
C259 C 0.17053 0.44667 0.56752 0.0
N260 N 0.17854 0.43628 0.60335 0.0
C261 C 0.23466 0.44262 0.57643 0.0
C262 C 0.22686 0.45314 0.53914 0.0
C263 C 0.19466 0.45519 0.53469 0.0
C264 C 0.20934 0.434 0.60789 0.0
H265 H 0.14596 0.44856 0.56404 0.0
C266 C 0.09191 0.44238 0.62992 0.0
O267 O 0.13131 0.52809 0.71334 0.0
O268 O 0.16483 0.5355 0.65843 0.0
N269 N 0.19106 0.41903 0.67509 0.0
C270 C 0.19586 0.41096 0.71389 0.0
C271 C 0.22755 0.40935 0.72394 0.0
C272 C 0.25392 0.41598 0.69403 0.0
C273 C 0.24828 0.424 0.65424 0.0
C274 C 0.21598 0.42487 0.64589 0.0
H275 H 0.17586 0.40613 0.73713 0.0
O276 O 0.19359 0.51221 0.72084 0.0
O277 O 0.17375 0.47308 0.6695 0.0
O278 O 0.12224 0.45355 0.73454 0.0
O279 O 0.12329 0.40709 0.70363 0.0
C280 C 0.27386 0.43203 0.62283 0.0
C281 C 0.26703 0.44128 0.58394 0.0
H282 H 0.2456 0.4601 0.51389 0.0
H283 H 0.18857 0.46349 0.50609 0.0
H284 H 0.23176 0.40325 0.75475 0.0
H285 H 0.27854 0.41515 0.70204 0.0
H286 H 0.29913 0.43169 0.62844 0.0
H287 H 0.28715 0.4479 0.56022 0.0
Mn288 Mn 0.52233 0.66755 0.67533 0.0
Mn289 Mn 0.50802 0.58989 0.71393 0.0
C290 C 0.46554 0.61773 0.66996 0.0
C291 C 0.52416 0.72181 0.68332 0.0
C292 C 0.54683 0.61908 0.63421 0.0
O293 O 0.56571 0.68296 0.71351 0.0
O294 O 0.55195 0.63027 0.7405 0.0
C295 C 0.49017 0.59961 0.79906 0.0
N296 N 0.48075 0.58041 0.76322 0.0
C297 C 0.42323 0.5366 0.79048 0.0
C298 C 0.43247 0.55579 0.82776 0.0
C299 C 0.46606 0.58745 0.83204 0.0
C300 C 0.44854 0.54982 0.75882 0.0
H301 H 0.51586 0.62407 0.80246 0.0
C302 C 0.57176 0.66418 0.73857 0.0
O303 O 0.54219 0.71647 0.65446 0.0
O304 O 0.50587 0.69596 0.70795 0.0
N305 N 0.4657 0.54899 0.69141 0.0
C306 C 0.45965 0.53514 0.65254 0.0
C307 C 0.42659 0.50419 0.64269 0.0
C308 C 0.40012 0.48778 0.67286 0.0
C309 C 0.40699 0.50243 0.71267 0.0
C310 C 0.4406 0.53313 0.72081 0.0
H311 H 0.47964 0.54785 0.62907 0.0
O312 O 0.47454 0.64377 0.64522 0.0
O313 O 0.48991 0.62174 0.69722 0.0
O314 O 0.5438 0.64697 0.63453 0.0
O315 O 0.53524 0.59649 0.66272 0.0
C316 C 0.38141 0.48831 0.7443 0.0
C317 C 0.38954 0.50537 0.78319 0.0
H318 H 0.4138 0.54667 0.85316 0.0
H319 H 0.47328 0.60251 0.86064 0.0
H320 H 0.42141 0.49316 0.61182 0.0
H321 H 0.37446 0.46417 0.665 0.0
H322 H 0.35515 0.46468 0.73886 0.0
H323 H 0.36942 0.49457 0.80708 0.0
H324 H 0.21089 0.10307 0.96121 0.0
H325 H 0.09171 0.17277 0.07939 0.0
H326 H 0.17046 0.07399 0.08355 0.0
H327 H 0.11178 0.18443 0.95004 0.0
H328 H 0.1333 0.14875 0.0854 0.0
H329 H 0.18858 0.14586 0.96133 0.0
C330 C 0.19819 0.10636 0.98847 0.0
C331 C 0.1919 0.0846 0.02219 0.0
C332 C 0.12909 0.15698 0.05574 0.0
C333 C 0.16611 0.13297 0.02232 0.0
C334 C 0.10557 0.17086 0.05239 0.0
C335 C 0.09924 0.18128 0.01436 0.0
C336 C 0.14572 0.1527 0.02057 0.0
C337 C 0.11656 0.17707 0.97995 0.0
C338 C 0.18523 0.13056 0.98838 0.0
C339 C 0.17533 0.08989 0.05669 0.0
N340 N 0.1391 0.16301 0.98383 0.0
N341 N 0.16261 0.11324 0.05568 0.0
H342 H 0.81542 0.92725 0.08245 0.0
H343 H 0.91374 0.11229 0.96774 0.0
H344 H 0.83388 0.9356 0.95254 0.0
H345 H 0.94332 0.09939 0.09017 0.0
H346 H 0.86667 0.04941 0.96537 0.0
H347 H 0.84433 0.9923 0.0882 0.0
C348 C 0.82445 0.94268 0.05497 0.0
C349 C 0.82248 0.92614 0.01697 0.0
C350 C 0.88304 0.0606 0.993 0.0
C351 C 0.85535 0.00016 0.02337 0.0
C352 C 0.90978 0.09647 0.99449 0.0
C353 C 0.93274 0.11096 0.02907 0.0
C354 C 0.87883 0.03926 0.02656 0.0
C355 C 0.92643 0.08916 0.06278 0.0
C356 C 0.84121 0.97973 0.05836 0.0
C357 C 0.83507 0.94739 0.98242 0.0
N358 N 0.90018 0.0543 0.06061 0.0
N359 N 0.85117 0.98335 0.98645 0.0
H360 H 0.90893 0.8604 0.95675 0.0
H361 H 0.0993 0.93313 0.06917 0.0
H362 H 0.91739 0.84319 0.08469 0.0
H363 H 0.08639 0.91598 0.93854 0.0
H364 H 0.03299 0.89893 0.07615 0.0
H365 H 0.97407 0.88075 0.94949 0.0
C366 C 0.92458 0.86033 0.98313 0.0
C367 C 0.90795 0.84905 0.02101 0.0
C368 C 0.04459 0.90195 0.04601 0.0
C369 C 0.98241 0.87344 0.01348 0.0
C370 C 0.08238 0.92114 0.04208 0.0
C371 C 0.09802 0.9262 0.00335 0.0
C372 C 0.02239 0.88902 0.01076 0.0
C373 C 0.07511 0.91198 0.96893 0.0
C374 C 0.96168 0.872 0.97905 0.0
C375 C 0.92941 0.85105 0.05483 0.0
N376 N 0.03826 0.89413 0.97339 0.0
N377 N 0.96575 0.86306 0.05029 0.0
H378 H 0.85236 0.44391 0.39941 0.0
H379 H 0.75685 0.52191 0.25356 0.0
H380 H 0.8427 0.42665 0.26869 0.0
H381 H 0.73228 0.49954 0.38094 0.0
H382 H 0.80247 0.50195 0.25912 0.0
H383 H 0.82299 0.48069 0.39351 0.0
C384 C 0.8447 0.44859 0.36945 0.0
C385 C 0.85057 0.43319 0.33437 0.0
C386 C 0.78747 0.50206 0.28594 0.0
C387 C 0.81637 0.47395 0.32741 0.0
C388 C 0.76162 0.51336 0.28275 0.0
C389 C 0.74195 0.51329 0.3172 0.0
C390 C 0.79294 0.49024 0.32367 0.0
C391 C 0.74803 0.50112 0.35413 0.0
C392 C 0.82797 0.46938 0.36606 0.0
C393 C 0.83954 0.43912 0.29623 0.0
N394 N 0.77311 0.49016 0.35647 0.0
N395 N 0.82279 0.45902 0.2937 0.0
H396 H 0.51069 0.24855 0.2577 0.0
H397 H 0.55901 0.4266 0.26542 0.0
H398 H 0.48293 0.2466 0.3848 0.0
H399 H 0.58768 0.418 0.38983 0.0
H400 H 0.51992 0.36174 0.26129 0.0
H401 H 0.52813 0.31142 0.25638 0.0
C402 C 0.50741 0.26118 0.28506 0.0
C403 C 0.49547 0.24241 0.32145 0.0
C404 C 0.53453 0.37415 0.28957 0.0
C405 C 0.51556 0.31441 0.32029 0.0
C406 C 0.55648 0.41115 0.29211 0.0
C407 C 0.577 0.42756 0.32782 0.0
C408 C 0.533 0.35364 0.32313 0.0
C409 C 0.57271 0.40631 0.36152 0.0
C410 C 0.51713 0.29704 0.28422 0.0
C411 C 0.4919 0.26008 0.35608 0.0
N412 N 0.55137 0.37042 0.35827 0.0
N413 N 0.50277 0.29535 0.35492 0.0
H414 H 0.60269 0.16957 0.39978 0.0
H415 H 0.76906 0.28219 0.25558 0.0
H416 H 0.59092 0.18264 0.27136 0.0
H417 H 0.78276 0.25408 0.37772 0.0
H418 H 0.70412 0.23849 0.25772 0.0
H419 H 0.66882 0.1945 0.39071 0.0
C420 C 0.61414 0.17724 0.36962 0.0
C421 C 0.59169 0.17348 0.33606 0.0
C422 C 0.72139 0.24138 0.28383 0.0
C423 C 0.6667 0.20259 0.32548 0.0
C424 C 0.75849 0.26628 0.28254 0.0
C425 C 0.78106 0.27215 0.3168 0.0
C426 C 0.70674 0.22283 0.31995 0.0
C427 C 0.76614 0.25059 0.35079 0.0
C428 C 0.65169 0.19127 0.36434 0.0
C429 C 0.60748 0.18439 0.29771 0.0
N430 N 0.72967 0.22736 0.35188 0.0
N431 N 0.6441 0.19864 0.29347 0.0
H432 H 0.45078 0.86148 0.60515 0.0
H433 H 0.50217 0.74676 0.74805 0.0
H434 H 0.42281 0.84329 0.73229 0.0
H435 H 0.53798 0.76995 0.6234 0.0
H436 H 0.48438 0.79255 0.74672 0.0
H437 H 0.49303 0.83811 0.6142 0.0
C438 C 0.45435 0.85336 0.63516 0.0
C439 C 0.43409 0.85485 0.66825 0.0
C440 C 0.49668 0.78812 0.71981 0.0
C441 C 0.4811 0.82723 0.67869 0.0
C442 C 0.50685 0.76197 0.7206 0.0
C443 C 0.52086 0.75416 0.68552 0.0
C444 C 0.49979 0.80602 0.68337 0.0
C445 C 0.52689 0.77495 0.65097 0.0
C446 C 0.47838 0.84008 0.64039 0.0
C447 C 0.43879 0.84337 0.70635 0.0
N448 N 0.51556 0.79947 0.65043 0.0
N449 N 0.46159 0.82976 0.71047 0.0
H450 H 0.2738 0.76619 0.73996 0.0
H451 H 0.16756 0.58791 0.61522 0.0
H452 H 0.24795 0.76461 0.61191 0.0
H453 H 0.15313 0.5933 0.74512 0.0
H454 H 0.1942 0.65243 0.61277 0.0
H455 H 0.22768 0.70333 0.74307 0.0
C456 C 0.25801 0.75269 0.71262 0.0
C457 C 0.26491 0.77045 0.67551 0.0
C458 C 0.18448 0.63947 0.64167 0.0
C459 C 0.21255 0.69847 0.6787 0.0
C460 C 0.16931 0.60266 0.64309 0.0
C461 C 0.15843 0.58539 0.68049 0.0
C462 C 0.18968 0.6592 0.6781 0.0
C463 C 0.1612 0.60566 0.71568 0.0
C464 C 0.23159 0.71687 0.71446 0.0
C465 C 0.24353 0.75182 0.64109 0.0
N466 N 0.17734 0.64167 0.71381 0.0
N467 N 0.21878 0.7166 0.6433 0.0
H468 H 0.23714 0.50827 0.62565 0.0
H469 H 0.42635 0.60113 0.73895 0.0
H470 H 0.24755 0.49584 0.75454 0.0
H471 H 0.41734 0.57686 0.60963 0.0
H472 H 0.36088 0.56055 0.74543 0.0
H473 H 0.30257 0.53019 0.61815 0.0
C474 C 0.25317 0.50909 0.6521 0.0
C475 C 0.23713 0.49934 0.69051 0.0
C476 C 0.37324 0.56343 0.71574 0.0
C477 C 0.31198 0.52625 0.68278 0.0
C478 C 0.41053 0.58643 0.71211 0.0
C479 C 0.42705 0.59114 0.67398 0.0
C480 C 0.35218 0.54617 0.68063 0.0
C481 C 0.40538 0.57318 0.63964 0.0
C482 C 0.29048 0.52183 0.64791 0.0
C483 C 0.25911 0.50263 0.72434 0.0
N484 N 0.36881 0.55148 0.64371 0.0
N485 N 0.29566 0.51617 0.71978 0.0
H486 H 0.02848 0.24823 0.90206 0.0
H487 H 0.12183 0.44415 0.81329 0.0
H488 H 0.11041 0.34091 0.96856 0.0
H489 H 0.07505 0.34897 0.73696 0.0
H490 H 0.10578 0.4072 0.87391 0.0
H491 H 0.03435 0.28578 0.84443 0.0
C492 C 0.04756 0.27648 0.90466 0.0
C493 C 0.06922 0.2914 0.94009 0.0
C494 C 0.09866 0.39448 0.84385 0.0
C495 C 0.07568 0.33446 0.87444 0.0
C496 C 0.10747 0.41549 0.80931 0.0
C497 C 0.09994 0.39956 0.77007 0.0
C498 C 0.08179 0.35737 0.83902 0.0
C499 C 0.08162 0.36232 0.76666 0.0
C500 C 0.05089 0.29785 0.87174 0.0
C501 C 0.09346 0.32821 0.94169 0.0
N502 N 0.07329 0.34247 0.80069 0.0
N503 N 0.09603 0.34851 0.90931 0.0
H504 H 0.71797 0.71146 0.9437 0.0
H505 H 0.61507 0.73616 0.75225 0.0
H506 H 0.73494 0.81404 0.90851 0.0
H507 H 0.59422 0.6346 0.7972 0.0
H508 H 0.65867 0.76573 0.80873 0.0
H509 H 0.67043 0.68325 0.89135 0.0
C510 C 0.71121 0.72798 0.92512 0.0
C511 C 0.73033 0.76504 0.93009 0.0
C512 C 0.64453 0.73699 0.80611 0.0
C513 C 0.67648 0.73306 0.86939 0.0
C514 C 0.61986 0.72005 0.77369 0.0
C515 C 0.60096 0.68275 0.76983 0.0
C516 C 0.65036 0.71648 0.83474 0.0
C517 C 0.60813 0.66335 0.79875 0.0
C518 C 0.68417 0.71191 0.89512 0.0
C519 C 0.72054 0.78533 0.90557 0.0
N520 N 0.6322 0.68045 0.82993 0.0
N521 N 0.69446 0.76904 0.87572 0.0
H522 H 0.27496 0.86761 0.74928 0.0
H523 H 0.26803 0.00335 0.91206 0.0
H524 H 0.36674 0.97272 0.77185 0.0
H525 H 0.2077 0.88951 0.92554 0.0
H526 H 0.29721 0.99493 0.85146 0.0
H527 H 0.242 0.87823 0.80433 0.0
C528 C 0.28794 0.89315 0.76532 0.0
C529 C 0.32372 0.91931 0.75613 0.0
C530 C 0.2775 0.97187 0.86772 0.0
C531 C 0.2862 0.93143 0.81896 0.0
C532 C 0.26079 0.9766 0.90219 0.0
C533 C 0.23547 0.94706 0.92393 0.0
C534 C 0.26828 0.93739 0.85453 0.0
C535 C 0.22721 0.91301 0.90984 0.0
C536 C 0.26924 0.89901 0.7969 0.0
C537 C 0.3393 0.95177 0.77816 0.0
N538 N 0.24346 0.90909 0.87586 0.0
N539 N 0.32042 0.95694 0.80864 0.0
H540 H 0.40453 0.12742 0.2478 0.0
H541 H 0.27215 0.95639 0.11037 0.0
H542 H 0.41371 0.03226 0.2398 0.0
H543 H 0.28266 0.05984 0.09308 0.0
H544 H 0.31985 0.98227 0.16323 0.0
H545 H 0.35457 0.10105 0.19696 0.0
C546 C 0.39582 0.10091 0.23568 0.0
C547 C 0.4134 0.08208 0.24785 0.0
C548 C 0.31181 -0.00069 0.14772 0.0
C549 C 0.35665 0.05198 0.18987 0.0
C550 C 0.2846 0.98457 0.1175 0.0
C551 C 0.27348 0.00599 0.0971 0.0
C552 C 0.32777 0.03566 0.15794 0.0
C553 C 0.29056 0.04236 0.10776 0.0
C554 C 0.36755 0.08601 0.2065 0.0
C555 C 0.40116 0.04788 0.23103 0.0
N556 N 0.31677 0.05603 0.13761 0.0
N557 N 0.37356 0.03395 0.20291 0.0
H558 H 0.06604 0.32045 0.11746 0.0
H559 H 0.89743 0.2948 0.25172 0.0
H560 H 0.95897 0.22731 0.10644 0.0
H561 H -0.00638 0.39685 0.23435 0.0
H562 H 0.92158 0.26782 0.20382 0.0
H563 H 0.04163 0.34705 0.16524 0.0
C564 C 0.03734 0.30554 0.12506 0.0
C565 C 0.01449 0.27152 0.10792 0.0
C566 C 0.93735 0.2961 0.21053 0.0
C567 C 0.98647 0.30193 0.16286 0.0
C568 C 0.92374 0.31154 0.23807 0.0
C569 C 0.94358 0.34821 0.24715 0.0
C570 C 0.97119 0.31737 0.19222 0.0
C571 C 0.97737 0.36852 0.22825 0.0
C572 C 0.02343 0.32085 0.15227 0.0
C573 C 0.97752 0.25364 0.11879 0.0
N574 N -0.00984 0.35279 0.20175 0.0
N575 N 0.96466 0.26901 0.14581 0.0
H576 H 0.73392 0.66819 0.29327 0.0
H577 H 0.75341 0.68961 0.05479 0.0
H578 H 0.67564 0.57971 0.20849 0.0
H579 H 0.77542 0.77781 0.13638 0.0
H580 H 0.72475 0.64894 0.11073 0.0
H581 H 0.74889 0.70899 0.23679 0.0
C582 C 0.72389 0.65737 0.2628 0.0
C583 C 0.7038 0.62049 0.25545 0.0
C584 C 0.73547 0.67714 0.11632 0.0
C585 C 0.72128 0.66702 0.19069 0.0
C586 C 0.75207 0.70041 0.08449 0.0
C587 C 0.76718 0.73719 0.0911 0.0
C588 C 0.73453 0.69073 0.15531 0.0
C589 C 0.76422 0.74966 0.13003 0.0
C590 C 0.73236 0.68069 0.23063 0.0
C591 C 0.69123 0.60794 0.21548 0.0
N592 N 0.74869 0.72648 0.1609 0.0
N593 N 0.70071 0.63117 0.18443 0.0
H594 H 0.06935 0.48775 0.60224 0.0
H595 H 0.93417 0.35334 0.43106 0.0
H596 H 0.05059 0.38065 0.58611 0.0
H597 H -0.00699 0.46712 0.41655 0.0
H598 H 0.96681 0.36122 0.49578 0.0
H599 H 0.02992 0.47823 0.54258 0.0
C600 C 0.05631 0.46199 0.58671 0.0
C601 C 0.06332 0.43495 0.59896 0.0
C602 C 0.97248 0.3844 0.47838 0.0
C603 C 0.01862 0.42414 0.53087 0.0
C604 C 0.95392 0.38 0.4415 0.0
C605 C 0.96096 0.40966 0.41834 0.0
C606 C -0.0022 0.41872 0.49254 0.0
C607 C 0.98689 0.44353 0.43331 0.0
C608 C 0.03419 0.45676 0.55248 0.0
C609 C 0.04605 0.40224 0.57747 0.0
N610 N 0.00428 0.44718 0.46967 0.0
N611 N 0.02451 0.39775 0.54435 0.0
H612 H 0.68087 0.63286 0.429 0.0
H613 H 0.54033 0.5554 0.60895 0.0
H614 H 0.59277 0.52423 0.42629 0.0
H615 H 0.58998 0.66582 0.57661 0.0
H616 H 0.56477 0.54331 0.5467 0.0
H617 H 0.65249 0.64563 0.48728 0.0
C618 C 0.65534 0.61181 0.44048 0.0
C619 C 0.63906 0.57745 0.42295 0.0
C620 C 0.57013 0.57012 0.55327 0.0
C621 C 0.60706 0.59167 0.48986 0.0
C622 C 0.55646 0.57713 0.5889 0.0
C623 C 0.56304 0.61168 0.59794 0.0
C624 C 0.59113 0.59797 0.52701 0.0
C625 C 0.58411 0.63877 0.57076 0.0
C626 C 0.6392 0.61912 0.47361 0.0
C627 C 0.60601 0.55112 0.43884 0.0
N628 N 0.59765 0.63138 0.53662 0.0
N629 N 0.59129 0.55865 0.47188 0.0
H630 H 0.36707 0.9119 0.54611 0.0
H631 H 0.4647 0.10778 0.45698 0.0
H632 H 0.42879 0.00637 0.62172 0.0
H633 H 0.44191 0.01408 0.38514 0.0
H634 H 0.43976 0.07062 0.51699 0.0
H635 H 0.38226 0.94916 0.48602 0.0
C636 C 0.38338 0.94048 0.55019 0.0
C637 C 0.39693 0.95603 0.58898 0.0
C638 C 0.44006 0.05827 0.48796 0.0
C639 C 0.41428 -0.00133 0.52041 0.0
C640 C 0.45413 0.07939 0.45372 0.0
C641 C 0.45564 0.06402 0.4161 0.0
C642 C 0.42691 0.02153 0.48432 0.0
C643 C 0.44164 0.02709 0.41365 0.0
C644 C 0.39218 0.96167 0.51585 0.0
C645 C 0.41806 0.99323 0.59235 0.0
N646 N 0.42785 0.0071 0.4473 0.0
N647 N 0.42615 0.0133 0.55848 0.0
loop_
_geom_bond_atom_site_label_1
_geom_bond_atom_site_label_2
_geom_bond_distance
_geom_bond_site_symmetry_2
_ccdc_geom_bond_type
Mn0 O5 2.095 1_455 S
Mn0 O15 2.162 1_454 S
Mn0 O16 2.297 1_455 S
Mn0 O24 2.385 1_554 S
Mn0 O25 2.209 . S
Mn0 O26 2.094 1_554 S
Mn1 O6 2.121 . S
Mn1 N8 2.257 . S
Mn1 N17 2.282 . S
Mn1 O25 2.215 . S
Mn1 O27 2.117 1_554 S
C2 O24 1.234 1_554 S
C2 O25 1.283 . S
C3 O15 1.281 1_554 S
C3 O16 1.236 . S
C4 O26 1.240 . S
C4 O27 1.264 . S
O5 Mn0 2.095 1_655 S
O5 C14 1.250 1_655 S
O6 Mn1 2.121 . S
O6 C14 1.258 . S
C7 N8 1.326 . S
C7 C11 1.460 . S
C7 H13 0.929 . S
N8 Mn1 2.257 . S
N8 C7 1.326 . S
N8 C12 1.362 . S
C9 C10 1.258 . S
C9 C12 1.431 . S
C9 C29 1.449 . S
C10 C9 1.258 . S
C10 C11 1.477 . S
C10 H30 0.931 . S
C11 C7 1.460 . S
C11 C10 1.477 . S
C11 H31 0.930 . S
C12 N8 1.362 . S
C12 C9 1.431 . S
C12 C22 1.476 . S
H13 C7 0.929 . S
C14 O5 1.250 1_455 S
C14 O6 1.258 . S
O15 Mn0 2.162 1_656 S
O15 C3 1.281 1_556 S
O16 Mn0 2.297 1_655 S
O16 C3 1.236 . S
N17 Mn1 2.282 . S
N17 C18 1.328 1_554 S
N17 C22 1.318 . S
C18 N17 1.328 1_556 S
C18 C19 1.457 . S
C18 H23 0.929 . S
C19 C18 1.457 . S
C19 C20 1.291 . S
C19 H32 0.931 . S
C20 C19 1.291 . S
C20 C21 1.373 1_556 S
C20 H33 0.929 . S
C21 C20 1.373 1_554 S
C21 C22 1.396 . S
C21 C28 1.403 . S
C22 C12 1.476 . S
C22 N17 1.318 . S
C22 C21 1.396 . S
H23 C18 0.929 . S
O24 Mn0 2.385 1_556 S
O24 C2 1.234 1_556 S
O25 Mn0 2.209 . S
O25 Mn1 2.215 . S
O25 C2 1.283 . S
O26 Mn0 2.094 1_556 S
O26 C4 1.240 . S
O27 Mn1 2.117 1_556 S
O27 C4 1.264 . S
C28 C21 1.403 . S
C28 C29 1.399 . S
C28 H34 0.929 . S
C29 C9 1.449 . S
C29 C28 1.399 . S
C29 H35 0.930 . S
H30 C10 0.931 . S
H31 C11 0.930 . S
H32 C19 0.931 . S
H33 C20 0.929 . S
H34 C28 0.929 . S
H35 C29 0.930 . S
Mn36 O41 2.095 1_554 S
Mn36 O51 2.162 . S
Mn36 O52 2.297 1_554 S
Mn36 O60 2.385 . S
Mn36 O61 2.209 1_554 S
Mn36 O62 2.094 . S
Mn37 O42 2.121 . S
Mn37 N44 2.257 . S
Mn37 N53 2.282 1_556 S
Mn37 O61 2.215 . S
Mn37 O63 2.117 1_556 S
C38 O60 1.234 . S
C38 O61 1.283 1_554 S
C39 O51 1.281 . S
C39 O52 1.236 1_554 S
C40 O62 1.240 . S
C40 O63 1.264 . S
O41 Mn36 2.095 1_556 S
O41 C50 1.250 . S
O42 Mn37 2.121 . S
O42 C50 1.258 . S
C43 N44 1.326 . S
C43 C47 1.460 . S
C43 H49 0.929 . S
N44 Mn37 2.257 . S
N44 C43 1.326 . S
N44 C48 1.362 . S
C45 C46 1.258 . S
C45 C48 1.431 . S
C45 C65 1.449 . S
C46 C45 1.258 . S
C46 C47 1.477 . S
C46 H66 0.931 . S
C47 C43 1.460 . S
C47 C46 1.477 . S
C47 H67 0.930 . S
C48 N44 1.362 . S
C48 C45 1.431 . S
C48 C58 1.476 . S
H49 C43 0.929 . S
C50 O41 1.250 . S
C50 O42 1.258 . S
O51 Mn36 2.162 . S
O51 C39 1.281 . S
O52 Mn36 2.297 1_556 S
O52 C39 1.236 1_556 S
N53 Mn37 2.282 1_554 S
N53 C54 1.328 . S
N53 C58 1.318 1_554 S
C54 N53 1.328 . S
C54 C55 1.457 . S
C54 H59 0.929 . S
C55 C54 1.457 . S
C55 C56 1.291 . S
C55 H68 0.931 . S
C56 C55 1.291 . S
C56 C57 1.373 1_554 S
C56 H69 0.929 . S
C57 C56 1.373 1_556 S
C57 C58 1.396 . S
C57 C64 1.403 . S
C58 C48 1.476 . S
C58 N53 1.318 1_556 S
C58 C57 1.396 . S
H59 C54 0.929 . S
O60 Mn36 2.385 . S
O60 C38 1.234 . S
O61 Mn36 2.209 1_556 S
O61 Mn37 2.215 . S
O61 C38 1.283 1_556 S
O62 Mn36 2.094 . S
O62 C40 1.240 . S
O63 Mn37 2.117 1_554 S
O63 C40 1.264 . S
C64 C57 1.403 . S
C64 C65 1.399 . S
C64 H70 0.929 . S
C65 C45 1.449 . S
C65 C64 1.399 . S
C65 H71 0.930 . S
H66 C46 0.931 . S
H67 C47 0.930 . S
H68 C55 0.931 . S
H69 C56 0.929 . S
H70 C64 0.929 . S
H71 C65 0.930 . S
Mn72 O77 2.103 . S
Mn72 O87 2.157 1_554 S
Mn72 O88 2.304 . S
Mn72 O96 2.382 1_544 S
Mn72 O97 2.216 1_545 S
Mn72 O98 2.083 1_554 S
Mn73 O78 2.121 . S
Mn73 N80 2.257 . S
Mn73 N89 2.282 . S
Mn73 O97 2.215 . S
Mn73 O99 2.117 1_554 S
C74 O96 1.234 1_554 S
C74 O97 1.283 . S
C75 O87 1.281 1_554 S
C75 O88 1.236 . S
C76 O98 1.240 1_565 S
C76 O99 1.264 . S
O77 Mn72 2.103 . S
O77 C86 1.250 . S
O78 Mn73 2.121 . S
O78 C86 1.258 1_565 S
C79 N80 1.326 . S
C79 C83 1.460 . S
C79 H85 0.929 . S
N80 Mn73 2.257 . S
N80 C79 1.326 . S
N80 C84 1.362 . S
C81 C82 1.258 . S
C81 C84 1.431 . S
C81 C101 1.449 . S
C82 C81 1.258 . S
C82 C83 1.477 . S
C82 H102 0.931 . S
C83 C79 1.460 . S
C83 C82 1.477 . S
C83 H103 0.930 . S
C84 N80 1.362 . S
C84 C81 1.431 . S
C84 C94 1.476 . S
H85 C79 0.929 . S
C86 O77 1.250 . S
C86 O78 1.258 1_545 S
O87 Mn72 2.157 1_556 S
O87 C75 1.281 1_556 S
O88 Mn72 2.304 . S
O88 C75 1.236 . S
N89 Mn73 2.282 . S
N89 C90 1.328 1_554 S
N89 C94 1.318 . S
C90 N89 1.328 1_556 S
C90 C91 1.457 . S
C90 H95 0.929 . S
C91 C90 1.457 . S
C91 C92 1.291 . S
C91 H104 0.931 . S
C92 C91 1.291 . S
C92 C93 1.373 1_556 S
C92 H105 0.929 . S
C93 C92 1.373 1_554 S
C93 C94 1.396 . S
C93 C100 1.403 . S
C94 C84 1.476 . S
C94 N89 1.318 . S
C94 C93 1.396 . S
H95 C90 0.929 . S
O96 Mn72 2.382 1_566 S
O96 C74 1.234 1_556 S
O97 Mn72 2.216 1_565 S
O97 Mn73 2.215 . S
O97 C74 1.283 . S
O98 Mn72 2.083 1_556 S
O98 C76 1.240 1_545 S
O99 Mn73 2.117 1_556 S
O99 C76 1.264 . S
C100 C93 1.403 . S
C100 C101 1.399 . S
C100 H106 0.929 . S
C101 C81 1.449 . S
C101 C100 1.399 . S
C101 H107 0.930 . S
H102 C82 0.931 . S
H103 C83 0.930 . S
H104 C91 0.931 . S
H105 C92 0.929 . S
H106 C100 0.929 . S
H107 C101 0.930 . S
Mn108 O113 2.095 . S
Mn108 O123 2.162 . S
Mn108 O124 2.297 . S
Mn108 O132 2.385 . S
Mn108 O133 2.209 . S
Mn108 O134 2.094 . S
Mn109 O114 2.121 . S
Mn109 N116 2.257 . S
Mn109 N125 2.282 . S
Mn109 O133 2.215 . S
Mn109 O135 2.117 . S
C110 O132 1.234 . S
C110 O133 1.283 . S
C111 O123 1.281 . S
C111 O124 1.236 . S
C112 O134 1.240 . S
C112 O135 1.264 . S
O113 Mn108 2.095 . S
O113 C122 1.250 . S
O114 Mn109 2.121 . S
O114 C122 1.258 . S
C115 N116 1.326 . S
C115 C119 1.460 . S
C115 H121 0.929 . S
N116 Mn109 2.257 . S
N116 C115 1.326 . S
N116 C120 1.362 . S
C117 C118 1.258 . S
C117 C120 1.431 . S
C117 C137 1.449 . S
C118 C117 1.258 . S
C118 C119 1.477 . S
C118 H138 0.931 . S
C119 C115 1.460 . S
C119 C118 1.477 . S
C119 H139 0.930 . S
C120 N116 1.362 . S
C120 C117 1.431 . S
C120 C130 1.476 . S
H121 C115 0.929 . S
C122 O113 1.250 . S
C122 O114 1.258 . S
O123 Mn108 2.162 . S
O123 C111 1.281 . S
O124 Mn108 2.297 . S
O124 C111 1.236 . S
N125 Mn109 2.282 . S
N125 C126 1.328 . S
N125 C130 1.318 . S
C126 N125 1.328 . S
C126 C127 1.457 . S
C126 H131 0.929 . S
C127 C126 1.457 . S
C127 C128 1.291 . S
C127 H140 0.931 . S
C128 C127 1.291 . S
C128 C129 1.373 . S
C128 H141 0.929 . S
C129 C128 1.373 . S
C129 C130 1.396 . S
C129 C136 1.403 . S
C130 C120 1.476 . S
C130 N125 1.318 . S
C130 C129 1.396 . S
H131 C126 0.929 . S
O132 Mn108 2.385 . S
O132 C110 1.234 . S
O133 Mn108 2.209 . S
O133 Mn109 2.215 . S
O133 C110 1.283 . S
O134 Mn108 2.094 . S
O134 C112 1.240 . S
O135 Mn109 2.117 . S
O135 C112 1.264 . S
C136 C129 1.403 . S
C136 C137 1.399 . S
C136 H142 0.929 . S
C137 C117 1.449 . S
C137 C136 1.399 . S
C137 H143 0.930 . S
H138 C118 0.931 . S
H139 C119 0.930 . S
H140 C127 0.931 . S
H141 C128 0.929 . S
H142 C136 0.929 . S
H143 C137 0.930 . S
Mn144 O149 2.095 . S
Mn144 O159 2.162 . S
Mn144 O160 2.297 . S
Mn144 O168 2.385 . S
Mn144 O169 2.209 . S
Mn144 O170 2.094 . S
Mn145 O150 2.121 . S
Mn145 N152 2.257 . S
Mn145 N161 2.282 . S
Mn145 O169 2.215 . S
Mn145 O171 2.117 . S
C146 O168 1.234 . S
C146 O169 1.283 . S
C147 O159 1.281 . S
C147 O160 1.236 . S
C148 O170 1.240 . S
C148 O171 1.264 . S
O149 Mn144 2.095 . S
O149 C158 1.250 . S
O150 Mn145 2.121 . S
O150 C158 1.258 . S
C151 N152 1.326 . S
C151 C155 1.460 . S
C151 H157 0.929 . S
N152 Mn145 2.257 . S
N152 C151 1.326 . S
N152 C156 1.362 . S
C153 C154 1.258 . S
C153 C156 1.431 . S
C153 C173 1.449 . S
C154 C153 1.258 . S
C154 C155 1.477 . S
C154 H174 0.931 . S
C155 C151 1.460 . S
C155 C154 1.477 . S
C155 H175 0.930 . S
C156 N152 1.362 . S
C156 C153 1.431 . S
C156 C166 1.476 . S
H157 C151 0.929 . S
C158 O149 1.250 . S
C158 O150 1.258 . S
O159 Mn144 2.162 . S
O159 C147 1.281 . S
O160 Mn144 2.297 . S
O160 C147 1.236 . S
N161 Mn145 2.282 . S
N161 C162 1.328 . S
N161 C166 1.318 . S
C162 N161 1.328 . S
C162 C163 1.457 . S
C162 H167 0.929 . S
C163 C162 1.457 . S
C163 C164 1.291 . S
C163 H176 0.931 . S
C164 C163 1.291 . S
C164 C165 1.373 . S
C164 H177 0.929 . S
C165 C164 1.373 . S
C165 C166 1.396 . S
C165 C172 1.403 . S
C166 C156 1.476 . S
C166 N161 1.318 . S
C166 C165 1.396 . S
H167 C162 0.929 . S
O168 Mn144 2.385 . S
O168 C146 1.234 . S
O169 Mn144 2.209 . S
O169 Mn145 2.215 . S
O169 C146 1.283 . S
O170 Mn144 2.094 . S
O170 C148 1.240 . S
O171 Mn145 2.117 . S
O171 C148 1.264 . S
C172 C165 1.403 . S
C172 C173 1.399 . S
C172 H178 0.929 . S
C173 C153 1.449 . S
C173 C172 1.399 . S
C173 H179 0.930 . S
H174 C154 0.931 . S
H175 C155 0.930 . S
H176 C163 0.931 . S
H177 C164 0.929 . S
H178 C172 0.929 . S
H179 C173 0.930 . S
Mn180 O185 2.095 . S
Mn180 O195 2.162 . S
Mn180 O196 2.297 . S
Mn180 O204 2.385 . S
Mn180 O205 2.209 . S
Mn180 O206 2.094 . S
Mn181 O186 2.121 . S
Mn181 N188 2.257 . S
Mn181 N197 2.282 . S
Mn181 O205 2.215 . S
Mn181 O207 2.117 . S
C182 O204 1.234 . S
C182 O205 1.283 . S
C183 O195 1.281 . S
C183 O196 1.236 . S
C184 O206 1.240 . S
C184 O207 1.264 . S
O185 Mn180 2.095 . S
O185 C194 1.250 . S
O186 Mn181 2.121 . S
O186 C194 1.258 . S
C187 N188 1.326 . S
C187 C191 1.460 . S
C187 H193 0.929 . S
N188 Mn181 2.257 . S
N188 C187 1.326 . S
N188 C192 1.362 . S
C189 C190 1.258 . S
C189 C192 1.431 . S
C189 C209 1.449 . S
C190 C189 1.258 . S
C190 C191 1.477 . S
C190 H210 0.931 . S
C191 C187 1.460 . S
C191 C190 1.477 . S
C191 H211 0.930 . S
C192 N188 1.362 . S
C192 C189 1.431 . S
C192 C202 1.476 . S
H193 C187 0.929 . S
C194 O185 1.250 . S
C194 O186 1.258 . S
O195 Mn180 2.162 . S
O195 C183 1.281 . S
O196 Mn180 2.297 . S
O196 C183 1.236 . S
N197 Mn181 2.282 . S
N197 C198 1.328 . S
N197 C202 1.318 . S
C198 N197 1.328 . S
C198 C199 1.457 . S
C198 H203 0.929 . S
C199 C198 1.457 . S
C199 C200 1.291 . S
C199 H212 0.931 . S
C200 C199 1.291 . S
C200 C201 1.373 . S
C200 H213 0.929 . S
C201 C200 1.373 . S
C201 C202 1.396 . S
C201 C208 1.403 . S
C202 C192 1.476 . S
C202 N197 1.318 . S
C202 C201 1.396 . S
H203 C198 0.929 . S
O204 Mn180 2.385 . S
O204 C182 1.234 . S
O205 Mn180 2.209 . S
O205 Mn181 2.215 . S
O205 C182 1.283 . S
O206 Mn180 2.094 . S
O206 C184 1.240 . S
O207 Mn181 2.117 . S
O207 C184 1.264 . S
C208 C201 1.403 . S
C208 C209 1.399 . S
C208 H214 0.929 . S
C209 C189 1.449 . S
C209 C208 1.399 . S
C209 H215 0.930 . S
H210 C190 0.931 . S
H211 C191 0.930 . S
H212 C199 0.931 . S
H213 C200 0.929 . S
H214 C208 0.929 . S
H215 C209 0.930 . S
Mn216 O221 2.095 . S
Mn216 O231 2.162 . S
Mn216 O232 2.297 . S
Mn216 O240 2.385 . S
Mn216 O241 2.209 . S
Mn216 O242 2.094 . S
Mn217 O222 2.121 . S
Mn217 N224 2.257 . S
Mn217 N233 2.282 . S
Mn217 O241 2.215 . S
Mn217 O243 2.117 . S
C218 O240 1.234 . S
C218 O241 1.283 . S
C219 O231 1.281 . S
C219 O232 1.236 . S
C220 O242 1.240 . S
C220 O243 1.264 . S
O221 Mn216 2.095 . S
O221 C230 1.250 . S
O222 Mn217 2.121 . S
O222 C230 1.258 . S
C223 N224 1.326 . S
C223 C227 1.460 . S
C223 H229 0.929 . S
N224 Mn217 2.257 . S
N224 C223 1.326 . S
N224 C228 1.362 . S
C225 C226 1.258 . S
C225 C228 1.431 . S
C225 C245 1.449 . S
C226 C225 1.258 . S
C226 C227 1.477 . S
C226 H246 0.931 . S
C227 C223 1.460 . S
C227 C226 1.477 . S
C227 H247 0.930 . S
C228 N224 1.362 . S
C228 C225 1.431 . S
C228 C238 1.476 . S
H229 C223 0.929 . S
C230 O221 1.250 . S
C230 O222 1.258 . S
O231 Mn216 2.162 . S
O231 C219 1.281 . S
O232 Mn216 2.297 . S
O232 C219 1.236 . S
N233 Mn217 2.282 . S
N233 C234 1.328 . S
N233 C238 1.318 . S
C234 N233 1.328 . S
C234 C235 1.457 . S
C234 H239 0.929 . S
C235 C234 1.457 . S
C235 C236 1.291 . S
C235 H248 0.931 . S
C236 C235 1.291 . S
C236 C237 1.373 . S
C236 H249 0.929 . S
C237 C236 1.373 . S
C237 C238 1.396 . S
C237 C244 1.403 . S
C238 C228 1.476 . S
C238 N233 1.318 . S
C238 C237 1.396 . S
H239 C234 0.929 . S
O240 Mn216 2.385 . S
O240 C218 1.234 . S
O241 Mn216 2.209 . S
O241 Mn217 2.215 . S
O241 C218 1.283 . S
O242 Mn216 2.094 . S
O242 C220 1.240 . S
O243 Mn217 2.117 . S
O243 C220 1.264 . S
C244 C237 1.403 . S
C244 C245 1.399 . S
C244 H250 0.929 . S
C245 C225 1.449 . S
C245 C244 1.399 . S
C245 H251 0.930 . S
H246 C226 0.931 . S
H247 C227 0.930 . S
H248 C235 0.931 . S
H249 C236 0.929 . S
H250 C244 0.929 . S
H251 C245 0.930 . S
Mn252 O257 2.095 . S
Mn252 O267 2.162 . S
Mn252 O268 2.297 . S
Mn252 O276 2.385 . S
Mn252 O277 2.209 . S
Mn252 O278 2.094 . S
Mn253 O258 2.121 . S
Mn253 N260 2.257 . S
Mn253 N269 2.282 . S
Mn253 O277 2.215 . S
Mn253 O279 2.117 . S
C254 O276 1.234 . S
C254 O277 1.283 . S
C255 O267 1.281 . S
C255 O268 1.236 . S
C256 O278 1.240 . S
C256 O279 1.264 . S
O257 Mn252 2.095 . S
O257 C266 1.250 . S
O258 Mn253 2.121 . S
O258 C266 1.258 . S
C259 N260 1.326 . S
C259 C263 1.460 . S
C259 H265 0.929 . S
N260 Mn253 2.257 . S
N260 C259 1.326 . S
N260 C264 1.362 . S
C261 C262 1.258 . S
C261 C264 1.431 . S
C261 C281 1.449 . S
C262 C261 1.258 . S
C262 C263 1.477 . S
C262 H282 0.931 . S
C263 C259 1.460 . S
C263 C262 1.477 . S
C263 H283 0.930 . S
C264 N260 1.362 . S
C264 C261 1.431 . S
C264 C274 1.476 . S
H265 C259 0.929 . S
C266 O257 1.250 . S
C266 O258 1.258 . S
O267 Mn252 2.162 . S
O267 C255 1.281 . S
O268 Mn252 2.297 . S
O268 C255 1.236 . S
N269 Mn253 2.282 . S
N269 C270 1.328 . S
N269 C274 1.318 . S
C270 N269 1.328 . S
C270 C271 1.457 . S
C270 H275 0.929 . S
C271 C270 1.457 . S
C271 C272 1.291 . S
C271 H284 0.931 . S
C272 C271 1.291 . S
C272 C273 1.373 . S
C272 H285 0.929 . S
C273 C272 1.373 . S
C273 C274 1.396 . S
C273 C280 1.403 . S
C274 C264 1.476 . S
C274 N269 1.318 . S
C274 C273 1.396 . S
H275 C270 0.929 . S
O276 Mn252 2.385 . S
O276 C254 1.234 . S
O277 Mn252 2.209 . S
O277 Mn253 2.215 . S
O277 C254 1.283 . S
O278 Mn252 2.094 . S
O278 C256 1.240 . S
O279 Mn253 2.117 . S
O279 C256 1.264 . S
C280 C273 1.403 . S
C280 C281 1.399 . S
C280 H286 0.929 . S
C281 C261 1.449 . S
C281 C280 1.399 . S
C281 H287 0.930 . S
H282 C262 0.931 . S
H283 C263 0.930 . S
H284 C271 0.931 . S
H285 C272 0.929 . S
H286 C280 0.929 . S
H287 C281 0.930 . S
Mn288 O293 2.095 . S
Mn288 O303 2.162 . S
Mn288 O304 2.297 . S
Mn288 O312 2.385 . S
Mn288 O313 2.209 . S
Mn288 O314 2.094 . S
Mn289 O294 2.121 . S
Mn289 N296 2.257 . S
Mn289 N305 2.282 . S
Mn289 O313 2.215 . S
Mn289 O315 2.117 . S
C290 O312 1.234 . S
C290 O313 1.283 . S
C291 O303 1.281 . S
C291 O304 1.236 . S
C292 O314 1.240 . S
C292 O315 1.264 . S
O293 Mn288 2.095 . S
O293 C302 1.250 . S
O294 Mn289 2.121 . S
O294 C302 1.258 . S
C295 N296 1.326 . S
C295 C299 1.460 . S
C295 H301 0.929 . S
N296 Mn289 2.257 . S
N296 C295 1.326 . S
N296 C300 1.362 . S
C297 C298 1.258 . S
C297 C300 1.431 . S
C297 C317 1.449 . S
C298 C297 1.258 . S
C298 C299 1.477 . S
C298 H318 0.931 . S
C299 C295 1.460 . S
C299 C298 1.477 . S
C299 H319 0.930 . S
C300 N296 1.362 . S
C300 C297 1.431 . S
C300 C310 1.476 . S
H301 C295 0.929 . S
C302 O293 1.250 . S
C302 O294 1.258 . S
O303 Mn288 2.162 . S
O303 C291 1.281 . S
O304 Mn288 2.297 . S
O304 C291 1.236 . S
N305 Mn289 2.282 . S
N305 C306 1.328 . S
N305 C310 1.318 . S
C306 N305 1.328 . S
C306 C307 1.457 . S
C306 H311 0.929 . S
C307 C306 1.457 . S
C307 C308 1.291 . S
C307 H320 0.931 . S
C308 C307 1.291 . S
C308 C309 1.373 . S
C308 H321 0.929 . S
C309 C308 1.373 . S
C309 C310 1.396 . S
C309 C316 1.403 . S
C310 C300 1.476 . S
C310 N305 1.318 . S
C310 C309 1.396 . S
H311 C306 0.929 . S
O312 Mn288 2.385 . S
O312 C290 1.234 . S
O313 Mn288 2.209 . S
O313 Mn289 2.215 . S
O313 C290 1.283 . S
O314 Mn288 2.094 . S
O314 C292 1.240 . S
O315 Mn289 2.117 . S
O315 C292 1.264 . S
C316 C309 1.403 . S
C316 C317 1.399 . S
C316 H322 0.929 . S
C317 C297 1.449 . S
C317 C316 1.399 . S
C317 H323 0.930 . S
H318 C298 0.931 . S
H319 C299 0.930 . S
H320 C307 0.931 . S
H321 C308 0.929 . S
H322 C316 0.929 . S
H323 C317 0.930 . S
H324 C330 0.930 . S
H325 C334 0.930 . S
H326 C339 0.929 . S
H327 C337 0.929 . S
H328 C332 0.929 . S
H329 C338 0.929 . S
C330 H324 0.930 . S
C330 C331 1.367 1_556 S
C330 C338 1.378 . S
C331 C330 1.367 1_554 S
C331 C339 1.433 . S
C332 H328 0.929 . S
C332 C334 1.378 . S
C332 C336 1.350 . S
C333 C336 1.463 . S
C333 C338 1.350 1_554 S
C333 N341 1.427 . S
C334 H325 0.930 . S
C334 C332 1.378 . S
C334 C335 1.367 . S
C335 C334 1.367 . S
C335 C337 1.433 1_554 S
C336 C332 1.350 . S
C336 C333 1.463 . S
C336 N340 1.427 1_554 S
C337 H327 0.929 . S
C337 C335 1.433 1_556 S
C337 N340 1.384 . S
C338 H329 0.929 . S
C338 C330 1.378 . S
C338 C333 1.350 1_556 S
C339 H326 0.929 . S
C339 C331 1.433 . S
C339 N341 1.384 . S
N340 C336 1.427 1_556 S
N340 C337 1.384 . S
N341 C333 1.427 . S
N341 C339 1.384 . S
H342 C348 0.930 . S
H343 C352 0.930 . S
H344 C357 0.929 . S
H345 C355 0.929 . S
H346 C350 0.929 . S
H347 C356 0.929 . S
C348 H342 0.930 . S
C348 C349 1.367 . S
C348 C356 1.378 . S
C349 C348 1.367 . S
C349 C357 1.433 1_554 S
C350 H346 0.929 . S
C350 C352 1.378 . S
C350 C354 1.350 1_556 S
C351 C354 1.463 1_565 S
C351 C356 1.350 . S
C351 N359 1.427 1_554 S
C352 H343 0.930 . S
C352 C350 1.378 . S
C352 C353 1.367 1_556 S
C353 C352 1.367 1_554 S
C353 C355 1.433 . S
C354 C350 1.350 1_554 S
C354 C351 1.463 1_545 S
C354 N358 1.427 . S
C355 H345 0.929 . S
C355 C353 1.433 . S
C355 N358 1.384 . S
C356 H347 0.929 . S
C356 C348 1.378 . S
C356 C351 1.350 . S
C357 H344 0.929 . S
C357 C349 1.433 1_556 S
C357 N359 1.384 . S
N358 C354 1.427 . S
N358 C355 1.384 . S
N359 C351 1.427 1_556 S
N359 C357 1.384 . S
H360 C366 0.930 . S
H361 C370 0.930 . S
H362 C375 0.929 . S
H363 C373 0.929 . S
H364 C368 0.929 . S
H365 C374 0.929 . S
C366 H360 0.930 . S
C366 C367 1.367 1_556 S
C366 C374 1.378 . S
C367 C366 1.367 1_554 S
C367 C375 1.433 . S
C368 H364 0.929 . S
C368 C370 1.378 . S
C368 C372 1.350 . S
C369 C372 1.463 1_655 S
C369 C374 1.350 1_554 S
C369 N377 1.427 . S
C370 H361 0.930 . S
C370 C368 1.378 . S
C370 C371 1.367 . S
C371 C370 1.367 . S
C371 C373 1.433 1_554 S
C372 C368 1.350 . S
C372 C369 1.463 1_455 S
C372 N376 1.427 1_554 S
C373 H363 0.929 . S
C373 C371 1.433 1_556 S
C373 N376 1.384 . S
C374 H365 0.929 . S
C374 C366 1.378 . S
C374 C369 1.350 1_556 S
C375 H362 0.929 . S
C375 C367 1.433 . S
C375 N377 1.384 . S
N376 C372 1.427 1_556 S
N376 C373 1.384 . S
N377 C369 1.427 . S
N377 C375 1.384 . S
H378 C384 0.930 . S
H379 C388 0.930 . S
H380 C393 0.929 . S
H381 C391 0.929 . S
H382 C386 0.929 . S
H383 C392 0.929 . S
C384 H378 0.930 . S
C384 C385 1.367 . S
C384 C392 1.378 . S
C385 C384 1.367 . S
C385 C393 1.433 . S
C386 H382 0.929 . S
C386 C388 1.378 . S
C386 C390 1.350 . S
C387 C390 1.463 . S
C387 C392 1.350 . S
C387 N395 1.427 . S
C388 H379 0.930 . S
C388 C386 1.378 . S
C388 C389 1.367 . S
C389 C388 1.367 . S
C389 C391 1.433 . S
C390 C386 1.350 . S
C390 C387 1.463 . S
C390 N394 1.427 . S
C391 H381 0.929 . S
C391 C389 1.433 . S
C391 N394 1.384 . S
C392 H383 0.929 . S
C392 C384 1.378 . S
C392 C387 1.350 . S
C393 H380 0.929 . S
C393 C385 1.433 . S
C393 N395 1.384 . S
N394 C390 1.427 . S
N394 C391 1.384 . S
N395 C387 1.427 . S
N395 C393 1.384 . S
H396 C402 0.930 . S
H397 C406 0.930 . S
H398 C411 0.929 . S
H399 C409 0.929 . S
H400 C404 0.929 . S
H401 C410 0.929 . S
C402 H396 0.930 . S
C402 C403 1.367 . S
C402 C410 1.378 . S
C403 C402 1.367 . S
C403 C411 1.433 . S
C404 H400 0.929 . S
C404 C406 1.378 . S
C404 C408 1.350 . S
C405 C408 1.463 . S
C405 C410 1.350 . S
C405 N413 1.427 . S
C406 H397 0.930 . S
C406 C404 1.378 . S
C406 C407 1.367 . S
C407 C406 1.367 . S
C407 C409 1.433 . S
C408 C404 1.350 . S
C408 C405 1.463 . S
C408 N412 1.427 . S
C409 H399 0.929 . S
C409 C407 1.433 . S
C409 N412 1.384 . S
C410 H401 0.929 . S
C410 C402 1.378 . S
C410 C405 1.350 . S
C411 H398 0.929 . S
C411 C403 1.433 . S
C411 N413 1.384 . S
N412 C408 1.427 . S
N412 C409 1.384 . S
N413 C405 1.427 . S
N413 C411 1.384 . S
H414 C420 0.930 . S
H415 C424 0.930 . S
H416 C429 0.929 . S
H417 C427 0.929 . S
H418 C422 0.929 . S
H419 C428 0.929 . S
C420 H414 0.930 . S
C420 C421 1.367 . S
C420 C428 1.378 . S
C421 C420 1.367 . S
C421 C429 1.433 . S
C422 H418 0.929 . S
C422 C424 1.378 . S
C422 C426 1.350 . S
C423 C426 1.463 . S
C423 C428 1.350 . S
C423 N431 1.427 . S
C424 H415 0.930 . S
C424 C422 1.378 . S
C424 C425 1.367 . S
C425 C424 1.367 . S
C425 C427 1.433 . S
C426 C422 1.350 . S
C426 C423 1.463 . S
C426 N430 1.427 . S
C427 H417 0.929 . S
C427 C425 1.433 . S
C427 N430 1.384 . S
C428 H419 0.929 . S
C428 C420 1.378 . S
C428 C423 1.350 . S
C429 H416 0.929 . S
C429 C421 1.433 . S
C429 N431 1.384 . S
N430 C426 1.427 . S
N430 C427 1.384 . S
N431 C423 1.427 . S
N431 C429 1.384 . S
H432 C438 0.930 . S
H433 C442 0.930 . S
H434 C447 0.929 . S
H435 C445 0.929 . S
H436 C440 0.929 . S
H437 C446 0.929 . S
C438 H432 0.930 . S
C438 C439 1.367 . S
C438 C446 1.378 . S
C439 C438 1.367 . S
C439 C447 1.433 . S
C440 H436 0.929 . S
C440 C442 1.378 . S
C440 C444 1.350 . S
C441 C444 1.463 . S
C441 C446 1.350 . S
C441 N449 1.427 . S
C442 H433 0.930 . S
C442 C440 1.378 . S
C442 C443 1.367 . S
C443 C442 1.367 . S
C443 C445 1.433 . S
C444 C440 1.350 . S
C444 C441 1.463 . S
C444 N448 1.427 . S
C445 H435 0.929 . S
C445 C443 1.433 . S
C445 N448 1.384 . S
C446 H437 0.929 . S
C446 C438 1.378 . S
C446 C441 1.350 . S
C447 H434 0.929 . S
C447 C439 1.433 . S
C447 N449 1.384 . S
N448 C444 1.427 . S
N448 C445 1.384 . S
N449 C441 1.427 . S
N449 C447 1.384 . S
H450 C456 0.930 . S
H451 C460 0.930 . S
H452 C465 0.929 . S
H453 C463 0.929 . S
H454 C458 0.929 . S
H455 C464 0.929 . S
C456 H450 0.930 . S
C456 C457 1.367 . S
C456 C464 1.378 . S
C457 C456 1.367 . S
C457 C465 1.433 . S
C458 H454 0.929 . S
C458 C460 1.378 . S
C458 C462 1.350 . S
C459 C462 1.463 . S
C459 C464 1.350 . S
C459 N467 1.427 . S
C460 H451 0.930 . S
C460 C458 1.378 . S
C460 C461 1.367 . S
C461 C460 1.367 . S
C461 C463 1.433 . S
C462 C458 1.350 . S
C462 C459 1.463 . S
C462 N466 1.427 . S
C463 H453 0.929 . S
C463 C461 1.433 . S
C463 N466 1.384 . S
C464 H455 0.929 . S
C464 C456 1.378 . S
C464 C459 1.350 . S
C465 H452 0.929 . S
C465 C457 1.433 . S
C465 N467 1.384 . S
N466 C462 1.427 . S
N466 C463 1.384 . S
N467 C459 1.427 . S
N467 C465 1.384 . S
H468 C474 0.930 . S
H469 C478 0.930 . S
H470 C483 0.929 . S
H471 C481 0.929 . S
H472 C476 0.929 . S
H473 C482 0.929 . S
C474 H468 0.930 . S
C474 C475 1.367 . S
C474 C482 1.378 . S
C475 C474 1.367 . S
C475 C483 1.433 . S
C476 H472 0.929 . S
C476 C478 1.378 . S
C476 C480 1.350 . S
C477 C480 1.463 . S
C477 C482 1.350 . S
C477 N485 1.427 . S
C478 H469 0.930 . S
C478 C476 1.378 . S
C478 C479 1.367 . S
C479 C478 1.367 . S
C479 C481 1.433 . S
C480 C476 1.350 . S
C480 C477 1.463 . S
C480 N484 1.427 . S
C481 H471 0.929 . S
C481 C479 1.433 . S
C481 N484 1.384 . S
C482 H473 0.929 . S
C482 C474 1.378 . S
C482 C477 1.350 . S
C483 H470 0.929 . S
C483 C475 1.433 . S
C483 N485 1.384 . S
N484 C480 1.427 . S
N484 C481 1.384 . S
N485 C477 1.427 . S
N485 C483 1.384 . S
H486 C492 0.930 . S
H487 C496 0.930 . S
H488 C501 0.929 . S
H489 C499 0.929 . S
H490 C494 0.929 . S
H491 C500 0.929 . S
C492 H486 0.930 . S
C492 C493 1.367 . S
C492 C500 1.378 . S
C493 C492 1.367 . S
C493 C501 1.433 . S
C494 H490 0.929 . S
C494 C496 1.378 . S
C494 C498 1.350 . S
C495 C498 1.463 . S
C495 C500 1.350 . S
C495 N503 1.427 . S
C496 H487 0.930 . S
C496 C494 1.378 . S
C496 C497 1.367 . S
C497 C496 1.367 . S
C497 C499 1.433 . S
C498 C494 1.350 . S
C498 C495 1.463 . S
C498 N502 1.427 . S
C499 H489 0.929 . S
C499 C497 1.433 . S
C499 N502 1.384 . S
C500 H491 0.929 . S
C500 C492 1.378 . S
C500 C495 1.350 . S
C501 H488 0.929 . S
C501 C493 1.433 . S
C501 N503 1.384 . S
N502 C498 1.427 . S
N502 C499 1.384 . S
N503 C495 1.427 . S
N503 C501 1.384 . S
H504 C510 0.930 . S
H505 C514 0.930 . S
H506 C519 0.929 . S
H507 C517 0.929 . S
H508 C512 0.929 . S
H509 C518 0.929 . S
C510 H504 0.930 . S
C510 C511 1.367 . S
C510 C518 1.378 . S
C511 C510 1.367 . S
C511 C519 1.433 . S
C512 H508 0.929 . S
C512 C514 1.378 . S
C512 C516 1.350 . S
C513 C516 1.463 . S
C513 C518 1.350 . S
C513 N521 1.427 . S
C514 H505 0.930 . S
C514 C512 1.378 . S
C514 C515 1.367 . S
C515 C514 1.367 . S
C515 C517 1.433 . S
C516 C512 1.350 . S
C516 C513 1.463 . S
C516 N520 1.427 . S
C517 H507 0.929 . S
C517 C515 1.433 . S
C517 N520 1.384 . S
C518 H509 0.929 . S
C518 C510 1.378 . S
C518 C513 1.350 . S
C519 H506 0.929 . S
C519 C511 1.433 . S
C519 N521 1.384 . S
N520 C516 1.427 . S
N520 C517 1.384 . S
N521 C513 1.427 . S
N521 C519 1.384 . S
H522 C528 0.930 . S
H523 C532 0.930 1_545 S
H524 C537 0.929 . S
H525 C535 0.929 . S
H526 C530 0.929 . S
H527 C536 0.929 . S
C528 H522 0.930 . S
C528 C529 1.367 . S
C528 C536 1.378 . S
C529 C528 1.367 . S
C529 C537 1.433 . S
C530 H526 0.929 . S
C530 C532 1.378 . S
C530 C534 1.350 . S
C531 C534 1.463 . S
C531 C536 1.350 . S
C531 N539 1.427 . S
C532 H523 0.930 1_565 S
C532 C530 1.378 . S
C532 C533 1.367 . S
C533 C532 1.367 . S
C533 C535 1.433 . S
C534 C530 1.350 . S
C534 C531 1.463 . S
C534 N538 1.427 . S
C535 H525 0.929 . S
C535 C533 1.433 . S
C535 N538 1.384 . S
C536 H527 0.929 . S
C536 C528 1.378 . S
C536 C531 1.350 . S
C537 H524 0.929 . S
C537 C529 1.433 . S
C537 N539 1.384 . S
N538 C534 1.427 . S
N538 C535 1.384 . S
N539 C531 1.427 . S
N539 C537 1.384 . S
H540 C546 0.930 . S
H541 C550 0.930 1_565 S
H542 C555 0.929 . S
H543 C553 0.929 . S
H544 C548 0.929 . S
H545 C554 0.929 . S
C546 H540 0.930 . S
C546 C547 1.367 . S
C546 C554 1.378 . S
C547 C546 1.367 . S
C547 C555 1.433 . S
C548 H544 0.929 . S
C548 C550 1.378 . S
C548 C552 1.350 . S
C549 C552 1.463 . S
C549 C554 1.350 . S
C549 N557 1.427 . S
C550 H541 0.930 1_545 S
C550 C548 1.378 . S
C550 C551 1.367 . S
C551 C550 1.367 . S
C551 C553 1.433 . S
C552 C548 1.350 . S
C552 C549 1.463 . S
C552 N556 1.427 . S
C553 H543 0.929 . S
C553 C551 1.433 . S
C553 N556 1.384 . S
C554 H545 0.929 . S
C554 C546 1.378 . S
C554 C549 1.350 . S
C555 H542 0.929 . S
C555 C547 1.433 . S
C555 N557 1.384 . S
N556 C552 1.427 . S
N556 C553 1.384 . S
N557 C549 1.427 . S
N557 C555 1.384 . S
H558 C564 0.919 1_455 S
H559 C568 0.930 . S
H560 C573 0.929 . S
H561 C571 0.929 . S
H562 C566 0.929 . S
H563 C572 0.929 . S
C564 H558 0.919 1_655 S
C564 C565 1.366 . S
C564 C572 1.391 . S
C565 C564 1.366 . S
C565 C573 1.433 . S
C566 H562 0.929 . S
C566 C568 1.378 . S
C566 C570 1.350 . S
C567 C570 1.463 . S
C567 C572 1.350 . S
C567 N575 1.427 . S
C568 H559 0.930 . S
C568 C566 1.378 . S
C568 C569 1.367 . S
C569 C568 1.367 . S
C569 C571 1.433 . S
C570 C566 1.350 . S
C570 C567 1.463 . S
C570 N574 1.427 . S
C571 H561 0.929 . S
C571 C569 1.433 . S
C571 N574 1.384 . S
C572 H563 0.929 . S
C572 C564 1.391 . S
C572 C567 1.350 . S
C573 H560 0.929 . S
C573 C565 1.433 . S
C573 N575 1.384 . S
N574 C570 1.427 . S
N574 C571 1.384 . S
N575 C567 1.427 . S
N575 C573 1.384 . S
H576 C582 0.930 . S
H577 C586 0.930 . S
H578 C591 0.929 . S
H579 C589 0.929 . S
H580 C584 0.929 . S
H581 C590 0.929 . S
C582 H576 0.930 . S
C582 C583 1.367 . S
C582 C590 1.378 . S
C583 C582 1.367 . S
C583 C591 1.433 . S
C584 H580 0.929 . S
C584 C586 1.378 . S
C584 C588 1.350 . S
C585 C588 1.463 . S
C585 C590 1.350 . S
C585 N593 1.427 . S
C586 H577 0.930 . S
C586 C584 1.378 . S
C586 C587 1.367 . S
C587 C586 1.367 . S
C587 C589 1.433 . S
C588 C584 1.350 . S
C588 C585 1.463 . S
C588 N592 1.427 . S
C589 H579 0.929 . S
C589 C587 1.433 . S
C589 N592 1.384 . S
C590 H581 0.929 . S
C590 C582 1.378 . S
C590 C585 1.350 . S
C591 H578 0.929 . S
C591 C583 1.433 . S
C591 N593 1.384 . S
N592 C588 1.427 . S
N592 C589 1.384 . S
N593 C585 1.427 . S
N593 C591 1.384 . S
H594 C600 0.930 . S
H595 C604 0.930 . S
H596 C609 0.929 . S
H597 C607 0.929 . S
H598 C602 0.929 . S
H599 C608 0.929 . S
C600 H594 0.930 . S
C600 C601 1.367 . S
C600 C608 1.378 . S
C601 C600 1.367 . S
C601 C609 1.433 . S
C602 H598 0.929 . S
C602 C604 1.378 1_455 S
C602 C606 1.350 . S
C603 C606 1.463 . S
C603 C608 1.350 . S
C603 N611 1.427 . S
C604 H595 0.930 . S
C604 C602 1.378 1_655 S
C604 C605 1.367 . S
C605 C604 1.367 . S
C605 C607 1.433 . S
C606 C602 1.350 . S
C606 C603 1.463 . S
C606 N610 1.427 1_455 S
C607 H597 0.929 . S
C607 C605 1.433 . S
C607 N610 1.384 . S
C608 H599 0.929 . S
C608 C600 1.378 . S
C608 C603 1.350 . S
C609 H596 0.929 . S
C609 C601 1.433 . S
C609 N611 1.384 . S
N610 C606 1.427 1_655 S
N610 C607 1.384 . S
N611 C603 1.427 . S
N611 C609 1.384 . S
H612 C618 0.930 . S
H613 C622 0.930 . S
H614 C627 0.929 . S
H615 C625 0.929 . S
H616 C620 0.929 . S
H617 C626 0.929 . S
C618 H612 0.930 . S
C618 C619 1.367 . S
C618 C626 1.378 . S
C619 C618 1.367 . S
C619 C627 1.433 . S
C620 H616 0.929 . S
C620 C622 1.378 . S
C620 C624 1.350 . S
C621 C624 1.463 . S
C621 C626 1.350 . S
C621 N629 1.427 . S
C622 H613 0.930 . S
C622 C620 1.378 . S
C622 C623 1.367 . S
C623 C622 1.367 . S
C623 C625 1.433 . S
C624 C620 1.350 . S
C624 C621 1.463 . S
C624 N628 1.427 . S
C625 H615 0.929 . S
C625 C623 1.433 . S
C625 N628 1.384 . S
C626 H617 0.929 . S
C626 C618 1.378 . S
C626 C621 1.350 . S
C627 H614 0.929 . S
C627 C619 1.433 . S
C627 N629 1.384 . S
N628 C624 1.427 . S
N628 C625 1.384 . S
N629 C621 1.427 . S
N629 C627 1.384 . S
H630 C636 0.930 . S
H631 C640 0.930 . S
H632 C645 0.929 . S
H633 C643 0.929 . S
H634 C638 0.929 . S
H635 C644 0.929 . S
C636 H630 0.930 . S
C636 C637 1.367 . S
C636 C644 1.378 . S
C637 C636 1.367 . S
C637 C645 1.433 . S
C638 H634 0.929 . S
C638 C640 1.378 . S
C638 C642 1.350 . S
C639 C642 1.463 1_565 S
C639 C644 1.350 . S
C639 N647 1.427 . S
C640 H631 0.930 . S
C640 C638 1.378 . S
C640 C641 1.367 . S
C641 C640 1.367 . S
C641 C643 1.433 . S
C642 C638 1.350 . S
C642 C639 1.463 1_545 S
C642 N646 1.427 . S
C643 H633 0.929 . S
C643 C641 1.433 . S
C643 N646 1.384 . S
C644 H635 0.929 . S
C644 C636 1.378 . S
C644 C639 1.350 . S
C645 H632 0.929 . S
C645 C637 1.433 . S
C645 N647 1.384 . S
N646 C642 1.427 . S
N646 C643 1.384 . S
N647 C639 1.427 . S
N647 C645 1.384 . S
C331 C75 0.998 . S
C335 C2 0.981 . S
C349 C39 1.014 . S
C353 C3 1.014 . S
C367 C38 1.032 . S
C371 C74 1.050 . S
C385 C182 1.047 . S
C389 C110 1.053 . S
C403 C147 0.958 . S
C407 C111 0.973 . S
C421 C146 0.975 . S
C425 C183 1.000 . S
C439 C218 0.988 . S
C443 C291 1.018 . S
C457 C219 0.920 . S
C461 C255 0.914 . S
C475 C254 1.065 . S
C479 C290 1.057 . S
C493 C4 1.387 . S
C497 C256 1.388 . S
C511 C50 1.372 . S
C515 C302 1.365 . S
C529 C230 1.333 . S
C533 C76 1.352 . S
C547 C158 1.319 . S
C551 C86 1.306 . S
C565 C14 1.333 1_655 S
C569 C194 1.344 . S
C583 C112 1.397 . S
C587 C40 1.396 . S
C601 C266 1.365 . S
C605 C184 1.384 . S
C619 C122 1.379 . S
C623 C292 1.405 . S
C637 C220 1.373 . S
C641 C148 1.366 . S
