# Generated by pormake.
# Topology yfa, (5)-cn, num edge types: 1
# Building blocks:
#     Node 0, Type 0, BuildingBlock: BEQFEK_clean_sbu_0, # of connection points: 5
#     Node 1, Type 0, BuildingBlock: BEQFEK_clean_sbu_0, # of connection points: 5
#     Node 2, Type 0, BuildingBlock: BEQFEK_clean_sbu_0, # of connection points: 5
#     Node 3, Type 0, BuildingBlock: BEQFEK_clean_sbu_0, # of connection points: 5
#     Node 4, Type 0, BuildingBlock: BEQFEK_clean_sbu_0, # of connection points: 5
#     Node 5, Type 0, BuildingBlock: BEQFEK_clean_sbu_0, # of connection points: 5
#     Node 6, Type 0, BuildingBlock: BEQFEK_clean_sbu_0, # of connection points: 5
#     Node 7, Type 0, BuildingBlock: BEQFEK_clean_sbu_0, # of connection points: 5
#     Node 8, Type 0, BuildingBlock: BEQFEK_clean_sbu_0, # of connection points: 5
#     Node 9, Type 0, BuildingBlock: BEQFEK_clean_sbu_0, # of connection points: 5
#     Node 10, Type 0, BuildingBlock: BEQFEK_clean_sbu_0, # of connection points: 5
#     Node 11, Type 0, BuildingBlock: BEQFEK_clean_sbu_0, # of connection points: 5
#     Node 12, Type 0, BuildingBlock: BEQFEK_clean_sbu_0, # of connection points: 5
#     Node 13, Type 0, BuildingBlock: BEQFEK_clean_sbu_0, # of connection points: 5
#     Node 14, Type 0, BuildingBlock: BEQFEK_clean_sbu_0, # of connection points: 5
#     Node 15, Type 0, BuildingBlock: BEQFEK_clean_sbu_0, # of connection points: 5
#     Edge 16, Type (0, 0), BuildingBlock: MIFKUJ_clean_linker_0, # of connection points: 2
#     Edge 17, Type (0, 0), BuildingBlock: MIFKUJ_clean_linker_0, # of connection points: 2
#     Edge 18, Type (0, 0), BuildingBlock: MIFKUJ_clean_linker_0, # of connection points: 2
#     Edge 19, Type (0, 0), BuildingBlock: MIFKUJ_clean_linker_0, # of connection points: 2
#     Edge 20, Type (0, 0), BuildingBlock: MIFKUJ_clean_linker_0, # of connection points: 2
#     Edge 21, Type (0, 0), BuildingBlock: MIFKUJ_clean_linker_0, # of connection points: 2
#     Edge 22, Type (0, 0), BuildingBlock: MIFKUJ_clean_linker_0, # of connection points: 2
#     Edge 23, Type (0, 0), BuildingBlock: MIFKUJ_clean_linker_0, # of connection points: 2
#     Edge 24, Type (0, 0), BuildingBlock: MIFKUJ_clean_linker_0, # of connection points: 2
#     Edge 25, Type (0, 0), BuildingBlock: MIFKUJ_clean_linker_0, # of connection points: 2
#     Edge 26, Type (0, 0), BuildingBlock: MIFKUJ_clean_linker_0, # of connection points: 2
#     Edge 27, Type (0, 0), BuildingBlock: MIFKUJ_clean_linker_0, # of connection points: 2
#     Edge 28, Type (0, 0), BuildingBlock: MIFKUJ_clean_linker_0, # of connection points: 2
#     Edge 29, Type (0, 0), BuildingBlock: MIFKUJ_clean_linker_0, # of connection points: 2
#     Edge 30, Type (0, 0), BuildingBlock: MIFKUJ_clean_linker_0, # of connection points: 2
#     Edge 31, Type (0, 0), BuildingBlock: MIFKUJ_clean_linker_0, # of connection points: 2
#     Edge 32, Type (0, 0), BuildingBlock: MIFKUJ_clean_linker_0, # of connection points: 2
#     Edge 33, Type (0, 0), BuildingBlock: MIFKUJ_clean_linker_0, # of connection points: 2
#     Edge 34, Type (0, 0), BuildingBlock: MIFKUJ_clean_linker_0, # of connection points: 2
#     Edge 35, Type (0, 0), BuildingBlock: MIFKUJ_clean_linker_0, # of connection points: 2
#     Edge 36, Type (0, 0), BuildingBlock: MIFKUJ_clean_linker_0, # of connection points: 2
#     Edge 37, Type (0, 0), BuildingBlock: MIFKUJ_clean_linker_0, # of connection points: 2
#     Edge 38, Type (0, 0), BuildingBlock: MIFKUJ_clean_linker_0, # of connection points: 2
#     Edge 39, Type (0, 0), BuildingBlock: MIFKUJ_clean_linker_0, # of connection points: 2
#     Edge 40, Type (0, 0), BuildingBlock: MIFKUJ_clean_linker_0, # of connection points: 2
#     Edge 41, Type (0, 0), BuildingBlock: MIFKUJ_clean_linker_0, # of connection points: 2
#     Edge 42, Type (0, 0), BuildingBlock: MIFKUJ_clean_linker_0, # of connection points: 2
#     Edge 43, Type (0, 0), BuildingBlock: MIFKUJ_clean_linker_0, # of connection points: 2
#     Edge 44, Type (0, 0), BuildingBlock: MIFKUJ_clean_linker_0, # of connection points: 2
#     Edge 45, Type (0, 0), BuildingBlock: MIFKUJ_clean_linker_0, # of connection points: 2
#     Edge 46, Type (0, 0), BuildingBlock: MIFKUJ_clean_linker_0, # of connection points: 2
#     Edge 47, Type (0, 0), BuildingBlock: MIFKUJ_clean_linker_0, # of connection points: 2
#     Edge 48, Type (0, 0), BuildingBlock: MIFKUJ_clean_linker_0, # of connection points: 2
#     Edge 49, Type (0, 0), BuildingBlock: MIFKUJ_clean_linker_0, # of connection points: 2
#     Edge 50, Type (0, 0), BuildingBlock: MIFKUJ_clean_linker_0, # of connection points: 2
#     Edge 51, Type (0, 0), BuildingBlock: MIFKUJ_clean_linker_0, # of connection points: 2
#     Edge 52, Type (0, 0), BuildingBlock: MIFKUJ_clean_linker_0, # of connection points: 2
#     Edge 53, Type (0, 0), BuildingBlock: MIFKUJ_clean_linker_0, # of connection points: 2
#     Edge 54, Type (0, 0), BuildingBlock: MIFKUJ_clean_linker_0, # of connection points: 2
#     Edge 55, Type (0, 0), BuildingBlock: MIFKUJ_clean_linker_0, # of connection points: 2
# Relax obj value: 0.768
# Max RMSD: 0.298
# Mean RMSD: 0.298
data_MOF--net-yfa--node1-BEQFEK_clean_sbu_0--edge1-MIFKUJ_clean_linker_0
_symmetry_space_group_name_H-M    P1
_symmetry_Int_Tables_number       1
_symmetry_cell_setting            triclinic
loop_
_symmetry_equiv_pos_as_xyz
'x, y, z'
_cell_length_a     63.4393
_cell_length_b     63.434228
_cell_length_c     37.566741
_cell_angle_alpha  90.036176
_cell_angle_beta   90.02709
_cell_angle_gamma 89.99777
loop_
_atom_site_label
_atom_site_type_symbol
_atom_site_fract_x
_atom_site_fract_y
_atom_site_fract_z
_atom_type_partial_charge
Co0 Co 0.64671 0.02543 0.11122 0.0
Co1 Co 0.65352 0.06775 0.07113 0.0
C2 C 0.68935 0.04142 0.10181 0.0
O3 O 0.67742 0.02621 0.11072 0.0
O4 O 0.68193 0.0578 0.0867 0.0
C5 C 0.64475 0.99035 0.16012 0.0
O6 O 0.66187 0.99828 0.17457 0.0
C7 C 0.66551 0.08797 0.00534 0.0
C8 C 0.65428 0.12065 0.01241 0.0
C9 C 0.66343 0.10712 0.98781 0.0
N10 N 0.65755 0.09001 0.03822 0.0
N11 N 0.65117 0.10965 0.0426 0.0
C12 C 0.67495 0.0679 0.99167 0.0
H13 H 0.68236 0.05904 0.01383 0.0
H14 H 0.66234 0.05781 0.98035 0.0
H15 H 0.68684 0.07116 0.97071 0.0
C16 C 0.61939 0.01693 0.05049 0.0
N17 N 0.63483 0.02832 0.06572 0.0
N18 N 0.6361 0.04676 0.05003 0.0
C19 C 0.62074 0.04805 0.02525 0.0
C20 C 0.60972 0.02908 0.02453 0.0
C21 C 0.61095 0.99688 0.06593 0.0
H22 H 0.60221 0.00057 0.09075 0.0
H23 H 0.62417 0.98612 0.07248 0.0
H24 H 0.60009 0.98877 0.04725 0.0
O25 O 0.63675 0.04832 0.14339 0.0
O26 O 0.63978 0.07864 0.11429 0.0
H27 H 0.61507 0.0814 0.02675 0.0
H28 H 0.59819 0.06711 0.9961 0.0
C29 C 0.6143 0.06817 0.00745 0.0
H30 H 0.62538 0.07161 0.98542 0.0
H31 H 0.64402 0.11534 0.06571 0.0
O32 O 0.63679 0.99915 0.13295 0.0
C33 C 0.63459 0.06828 0.14197 0.0
Co34 Co 0.47023 0.64639 0.12674 0.0
Co35 Co 0.43368 0.6552 0.07311 0.0
C36 C 0.45598 0.68984 0.11301 0.0
O37 O 0.46924 0.67703 0.12604 0.0
O38 O 0.44122 0.68355 0.09262 0.0
C39 C 0.51322 0.64403 0.15092 0.0
O40 O 0.51771 0.65505 0.12232 0.0
C41 C 0.4191 0.66942 0.0036 0.0
C42 C 0.38913 0.65211 0.99765 0.0
C43 C 0.40314 0.66491 0.97924 0.0
N44 N 0.41498 0.65912 0.03405 0.0
N45 N 0.39678 0.64923 0.03068 0.0
C46 C 0.43819 0.68297 -0.00142 0.0
H47 H 0.44284 0.69026 0.02422 0.0
H48 H 0.45158 0.6731 0.98946 0.0
H49 H 0.43512 0.69555 0.97873 0.0
C50 C 0.4847 0.61876 0.06908 0.0
N51 N 0.47237 0.63451 0.08109 0.0
N52 N 0.45703 0.63796 0.05822 0.0
C53 C 0.45919 0.62431 0.03077 0.0
C54 C 0.47694 0.61194 0.03659 0.0
C55 C 0.50058 0.60738 0.09161 0.0
H56 H 0.49478 0.60601 0.11932 0.0
H57 H 0.51557 0.61634 0.09157 0.0
H58 H 0.50386 0.59132 0.08147 0.0
O59 O 0.44449 0.63573 0.15027 0.0
O60 O 0.41828 0.64057 0.11181 0.0
H61 H 0.42731 0.61902 0.01419 0.0
H62 H 0.44682 0.60726 0.9852 0.0
C63 C 0.4431 0.62111 0.00209 0.0
H64 H 0.44272 0.63518 0.98471 0.0
H65 H 0.39016 0.63962 0.05025 0.0
O66 O 0.49427 0.63873 0.15714 0.0
C67 C 0.42509 0.63411 0.14182 0.0
Co68 Co 0.8535 0.47027 0.12082 0.0
Co69 Co 0.84804 0.42932 0.07574 0.0
C70 C 0.81142 0.45263 0.10919 0.0
O71 O 0.82296 0.46784 0.11935 0.0
O72 O 0.81922 0.43684 0.09291 0.0
C73 C 0.85167 0.51415 0.14194 0.0
O74 O 0.83718 0.51617 0.11718 0.0
C75 C 0.83581 0.41095 0.00843 0.0
C76 C 0.85291 0.38066 0.00829 0.0
C77 C 0.84088 0.39384 0.98684 0.0
N78 N 0.84506 0.40825 0.04024 0.0
N79 N 0.8548 0.38987 0.0404 0.0
C80 C 0.82283 0.42993 -0.00051 0.0
H81 H 0.81447 0.43565 0.02353 0.0
H82 H 0.8333 0.44284 0.99032 0.0
H83 H 0.81114 0.42623 0.9784 0.0
C84 C 0.88005 0.48242 0.06039 0.0
N85 N 0.8655 0.46974 0.07517 0.0
N86 N 0.86405 0.45223 0.05656 0.0
C87 C 0.87818 0.45306 0.0297 0.0
C88 C 0.88858 0.47232 0.03102 0.0
C89 C 0.88852 0.50183 0.07809 0.0
H90 H 0.87585 0.51381 0.07967 0.0
H91 H 0.90203 0.50869 0.06341 0.0
H92 H 0.89363 0.49795 0.10556 0.0
O93 O 0.8647 0.44667 0.15002 0.0
O94 O 0.86303 0.4175 0.1173 0.0
H95 H 0.89924 0.43725 0.99278 0.0
H96 H 0.87174 0.43224 0.98629 0.0
C97 C 0.88407 0.43464 0.00677 0.0
H98 H 0.88521 0.42018 0.02321 0.0
H99 H 0.86377 0.3842 0.06166 0.0
O100 O 0.86047 0.49638 0.14677 0.0
C101 C 0.86793 0.42696 0.14608 0.0
Co102 Co 0.02916 0.84622 0.11198 0.0
Co103 Co 0.06843 0.83658 0.06539 0.0
C104 C 0.03976 0.80283 0.09853 0.0
O105 O 0.0259 0.81594 0.10879 0.0
O106 O 0.05648 0.80895 0.08266 0.0
C107 C 0.9893 0.85123 0.15094 0.0
O108 O 0.98482 0.83146 0.14372 0.0
C109 C 0.08226 0.82477 0.9949 0.0
C110 C 0.11613 0.83275 0.99554 0.0
C111 C 0.09998 0.82607 0.97327 0.0
N112 N 0.08763 0.8309 0.02787 0.0
N113 N 0.10797 0.83526 0.02835 0.0
C114 C 0.06046 0.81792 0.98496 0.0
H115 H 0.05082 0.83191 0.97803 0.0
H116 H 0.06082 0.80702 0.96183 0.0
H117 H 0.05279 0.81008 0.00796 0.0
C118 C 0.01927 0.87475 0.05374 0.0
N119 N 0.03064 0.85876 0.06717 0.0
N120 N 0.04805 0.85646 0.04871 0.0
C121 C 0.04881 0.87181 0.02382 0.0
C122 C 0.0304 0.88368 0.02585 0.0
C123 C 0.00028 0.88388 0.07171 0.0
H124 H 0.00533 0.89235 0.09611 0.0
H125 H 0.98939 0.87101 0.07952 0.0
H126 H 0.99177 0.8951 0.05422 0.0
O127 O 0.05498 0.85212 0.13997 0.0
O128 O 0.08361 0.8487 0.10646 0.0
H129 H 0.06806 0.89377 0.99399 0.0
H130 H 0.06817 0.86714 0.97799 0.0
C131 C 0.06801 0.877 0.00236 0.0
H132 H 0.08247 0.87354 0.01792 0.0
H133 H 0.11605 0.84092 0.05061 0.0
O134 O 0.00642 0.8592 0.13985 0.0
C135 C 0.0749 0.85315 0.13606 0.0
Co136 Co 0.63566 0.45849 0.3884 0.0
Co137 Co 0.64562 0.41815 0.43262 0.0
C138 C 0.67941 0.44515 0.39837 0.0
O139 O 0.66614 0.45871 0.38768 0.0
O140 O 0.6736 0.42887 0.41565 0.0
C141 C 0.63313 0.49081 0.33577 0.0
O142 O 0.64806 0.4799 0.32003 0.0
C143 C 0.66033 0.39956 0.49859 0.0
C144 C 0.64963 0.36654 0.49415 0.0
C145 C 0.6596 0.38057 0.517 0.0
N146 N 0.65115 0.39681 0.46673 0.0
N147 N 0.64512 0.37696 0.4639 0.0
C148 C 0.66763 0.42059 0.5119 0.0
H149 H 0.66227 0.4334 0.494 0.0
H150 H 0.66168 0.42345 0.53926 0.0
H151 H 0.68511 0.42083 0.5126 0.0
C152 C 0.61077 0.46902 0.45071 0.0
N153 N 0.6253 0.45687 0.43482 0.0
N154 N 0.62758 0.43922 0.45264 0.0
C155 C 0.61362 0.43916 0.47978 0.0
C156 C 0.60263 0.45818 0.47964 0.0
C157 C 0.60218 0.48874 0.43431 0.0
H158 H 0.6154 0.49912 0.4262 0.0
H159 H 0.59185 0.49758 0.45276 0.0
H160 H 0.59301 0.48452 0.41019 0.0
O161 O 0.62555 0.43435 0.35937 0.0
O162 O 0.63176 0.40537 0.3909 0.0
H163 H 0.60946 0.40579 0.48599 0.0
H164 H 0.59356 0.42168 0.51594 0.0
C165 C 0.60905 0.42031 0.50246 0.0
H166 H 0.6214 0.41895 0.52322 0.0
H167 H 0.63723 0.37074 0.44187 0.0
O168 O 0.62572 0.4844 0.36522 0.0
C169 C 0.62482 0.41437 0.36295 0.0
Co170 Co 0.01869 0.64138 0.3797 0.0
Co171 Co 0.06355 0.64505 0.41282 0.0
C172 C 0.03587 0.68287 0.39659 0.0
O173 O 0.01997 0.67156 0.38891 0.0
O174 O 0.05319 0.67449 0.40632 0.0
C175 C 0.98083 0.64614 0.33925 0.0
O176 O 0.98959 0.6639 0.32898 0.0
C177 C 0.08994 0.65115 0.47476 0.0
C178 C 0.12058 0.63837 0.45704 0.0
C179 C 0.1101 0.64625 0.4866 0.0
N180 N 0.08859 0.6461 0.44019 0.0
N181 N 0.10709 0.63899 0.42942 0.0
C182 C 0.07133 0.65787 0.49657 0.0
H183 H 0.05653 0.65642 0.48103 0.0
H184 H 0.0702 0.64828 0.52118 0.0
H185 H 0.0733 0.67461 0.50443 0.0
C186 C 0.01415 0.60897 0.43447 0.0
N187 N 0.02477 0.62527 0.42031 0.0
N188 N 0.04397 0.62577 0.43341 0.0
C189 C 0.04642 0.60918 0.45556 0.0
C190 C 0.02751 0.59814 0.45725 0.0
C191 C 0.99305 0.60177 0.42136 0.0
H192 H 0.99463 0.59606 0.39356 0.0
H193 H 0.98193 0.61527 0.42138 0.0
H194 H 0.9865 0.58891 0.43797 0.0
O195 O 0.03893 0.6352 0.34049 0.0
O196 O 0.07085 0.63545 0.36486 0.0
H197 H 0.07982 0.60438 0.45088 0.0
H198 H 0.06673 0.58571 0.47989 0.0
C199 C 0.06713 0.60234 0.47088 0.0
H200 H 0.07089 0.61226 0.4943 0.0
H201 H 0.11012 0.63339 0.40379 0.0
O202 O 0.99046 0.63445 0.36136 0.0
C203 C 0.05887 0.63313 0.33797 0.0
Co204 Co 0.86748 0.04267 0.37982 0.0
Co205 Co 0.85398 0.07595 0.43666 0.0
C206 C 0.82263 0.05233 0.39135 0.0
O207 O 0.83702 0.04141 0.37697 0.0
O208 O 0.82688 0.06634 0.41454 0.0
C209 C 0.86878 0.00333 0.34284 0.0
O210 O 0.8503 0.00044 0.35784 0.0
C211 C 0.83904 0.08343 0.50825 0.0
C212 C 0.84331 0.11773 0.51528 0.0
C213 C 0.83695 0.09958 0.53281 0.0
N214 N 0.84655 0.09156 0.47783 0.0
N215 N 0.8488 0.11213 0.48194 0.0
C216 C 0.83342 0.06068 0.51298 0.0
H217 H 0.82884 0.05365 0.48704 0.0
H218 H 0.84726 0.05187 0.52309 0.0
H219 H 0.82038 0.05895 0.53247 0.0
C220 C 0.8931 0.02684 0.43802 0.0
N221 N 0.87724 0.03907 0.42637 0.0
N222 N 0.87354 0.05413 0.44957 0.0
C223 C 0.88789 0.05257 0.47609 0.0
C224 C 0.90047 0.03494 0.46993 0.0
C225 C 0.90373 0.0105 0.41545 0.0
H226 H 0.91084 0.01821 0.39183 0.0
H227 H 0.89186 0.99892 0.40615 0.0
H228 H 0.91628 0.00197 0.43004 0.0
O229 O 0.8769 0.07046 0.36124 0.0
O230 O 0.86722 0.09457 0.40122 0.0
H231 H 0.88797 0.08514 0.49204 0.0
H232 H 0.90838 0.06928 0.5126 0.0
C233 C 0.8918 0.06943 0.50325 0.0
H234 H 0.88158 0.06665 0.52668 0.0
H235 H 0.85457 0.12224 0.46232 0.0
O236 O 0.87872 0.02041 0.34845 0.0
C237 C 0.87578 0.08957 0.37172 0.0
Co238 Co 0.44982 0.87307 0.38162 0.0
Co239 Co 0.41556 0.85984 0.43686 0.0
C240 C 0.44141 0.8281 0.39665 0.0
O241 O 0.45178 0.8426 0.38149 0.0
O242 O 0.42677 0.83231 0.41872 0.0
C243 C 0.49118 0.87475 0.35356 0.0
O244 O 0.49433 0.85957 0.37674 0.0
C245 C 0.40499 0.8467 0.50836 0.0
C246 C 0.37092 0.85354 0.51195 0.0
C247 C 0.38804 0.8466 0.53168 0.0
N248 N 0.39828 0.85377 0.47669 0.0
N249 N 0.37783 0.85752 0.47873 0.0
C250 C 0.4272 0.83986 0.51544 0.0
H251 H 0.43683 0.85369 0.52326 0.0
H252 H 0.42775 0.82805 0.53722 0.0
H253 H 0.43425 0.83315 0.49091 0.0
C254 C 0.46327 0.90058 0.43947 0.0
N255 N 0.45179 0.88421 0.42767 0.0
N256 N 0.43647 0.88026 0.45028 0.0
C257 C 0.43722 0.89485 0.47657 0.0
C258 C 0.45449 0.9079 0.47082 0.0
C259 C 0.48017 0.91123 0.41821 0.0
H260 H 0.493 0.89981 0.41283 0.0
H261 H 0.487 0.92495 0.43246 0.0
H262 H 0.47358 0.91659 0.3924 0.0
O263 O 0.42256 0.88151 0.3597 0.0
O264 O 0.39795 0.87158 0.39852 0.0
H265 H 0.41972 0.91544 0.51168 0.0
H266 H 0.42199 0.88861 0.5262 0.0
C267 C 0.41976 0.89879 0.50255 0.0
H268 H 0.40432 0.89499 0.49027 0.0
H269 H 0.36876 0.86346 0.45783 0.0
O270 O 0.47305 0.88318 0.3513 0.0
C271 C 0.40328 0.87981 0.36894 0.0
Co272 Co 0.36572 0.96366 0.887 0.0
Co273 Co 0.34951 0.92926 0.93936 0.0
C274 C 0.32052 0.95543 0.89284 0.0
O275 O 0.33552 0.96668 0.88118 0.0
O276 O 0.32378 0.94066 0.91517 0.0
C277 C 0.37325 0.98981 0.827 0.0
O278 O 0.35734 0.97925 0.81341 0.0
C279 C 0.33302 0.92013 0.00939 0.0
C280 C 0.33576 0.8855 0.01311 0.0
C281 C 0.33014 0.90329 0.03237 0.0
N282 N 0.34031 0.9127 0.97833 0.0
N283 N 0.34161 0.89195 0.98042 0.0
C284 C 0.32852 0.94295 0.01622 0.0
H285 H 0.34296 0.95086 0.02612 0.0
H286 H 0.31592 0.94475 0.03649 0.0
H287 H 0.32381 0.95085 0.99108 0.0
C288 C 0.38973 0.97697 0.94864 0.0
N289 N 0.37385 0.96568 0.93467 0.0
N290 N 0.36936 0.94981 0.95576 0.0
C291 C 0.38336 0.94974 0.98288 0.0
C292 C 0.39653 0.9672 0.97953 0.0
C293 C 0.40112 0.99399 0.92888 0.0
H294 H 0.38958 0.00472 0.91609 0.0
H295 H 0.41139 0.00327 0.94695 0.0
H296 H 0.41103 0.98674 0.90783 0.0
O297 O 0.37432 0.93599 0.86675 0.0
O298 O 0.36306 0.91109 0.9039 0.0
H299 H 0.38207 0.91649 0.9939 0.0
H300 H 0.40339 0.93031 0.01601 0.0
C301 C 0.38671 0.93137 0.00727 0.0
H302 H 0.37683 0.93339 0.03134 0.0
H303 H 0.34714 0.88228 0.95997 0.0
O304 O 0.37942 0.98563 0.85836 0.0
C305 C 0.37235 0.91664 0.87539 0.0
Co306 Co 0.54239 0.3673 0.86507 0.0
Co307 Co 0.57619 0.3525 0.92037 0.0
C308 C 0.54852 0.32195 0.88129 0.0
O309 O 0.5392 0.33708 0.86592 0.0
O310 O 0.56348 0.32524 0.90327 0.0
C311 C 0.50322 0.36836 0.82736 0.0
O312 O 0.50034 0.34977 0.84192 0.0
C313 C 0.58818 0.33905 0.99166 0.0
C314 C 0.62158 0.34872 0.99433 0.0
C315 C 0.60529 0.34053 0.01468 0.0
N316 N 0.594 0.34657 0.95975 0.0
N317 N 0.6141 0.35192 0.96126 0.0
C318 C 0.56663 0.33053 -0.00074 0.0
H319 H 0.56021 0.32268 0.97519 0.0
H320 H 0.55583 0.34365 0.00611 0.0
H321 H 0.56707 0.31916 0.02171 0.0
C322 C 0.53009 0.39522 0.92272 0.0
N323 N 0.54116 0.37861 0.91085 0.0
N324 N 0.55614 0.37388 0.93369 0.0
C325 C 0.55559 0.38817 0.96042 0.0
C326 C 0.53884 0.40193 0.95455 0.0
C327 C 0.514 0.40657 0.90069 0.0
H328 H 0.50174 0.39526 0.89186 0.0
H329 H 0.50635 0.41958 0.91551 0.0
H330 H 0.52172 0.41314 0.87662 0.0
O331 O 0.56971 0.37407 0.84264 0.0
O332 O 0.594 0.36325 0.88118 0.0
H333 H 0.58812 0.38804 0.97619 0.0
H334 H 0.57179 0.40614 0.00128 0.0
C335 C 0.57235 0.39046 0.98825 0.0
H336 H 0.56998 0.3784 0.00914 0.0
H337 H 0.62244 0.35864 0.94018 0.0
O338 O 0.51993 0.37866 0.83422 0.0
C339 C 0.58893 0.37149 0.85146 0.0
Co340 Co 0.13904 0.53468 0.88369 0.0
Co341 Co 0.14063 0.58049 0.91369 0.0
C342 C 0.17943 0.55563 0.88991 0.0
O343 O 0.16942 0.5384 0.88642 0.0
O344 O 0.17013 0.57236 0.90035 0.0
C345 C 0.13661 0.50238 0.83412 0.0
O346 O 0.14555 0.51721 0.81506 0.0
C347 C 0.14629 0.6081 0.97484 0.0
C348 C 0.13099 0.63738 0.95639 0.0
C349 C 0.13968 0.62787 0.98621 0.0
N350 N 0.14128 0.60597 0.94031 0.0
N351 N 0.13275 0.62376 0.92911 0.0
C352 C 0.15448 0.59039 0.99728 0.0
H353 H 0.15513 0.5755 0.9818 0.0
H354 H 0.14443 0.58824 0.02118 0.0
H355 H 0.17063 0.59429 0.00649 0.0
C356 C 0.10986 0.52875 0.9423 0.0
N357 N 0.12512 0.54014 0.92667 0.0
N358 N 0.12424 0.55972 0.93799 0.0
C359 C 0.10765 0.5616 0.96028 0.0
C360 C 0.09804 0.54198 0.96389 0.0
C361 C 0.10392 0.50697 0.93051 0.0
H362 H 0.09648 0.50783 0.9038 0.0
H363 H 0.11828 0.49707 0.92853 0.0
H364 H 0.09271 0.49938 0.94913 0.0
O365 O 0.12884 0.55412 0.84568 0.0
O366 O 0.12716 0.58648 0.86804 0.0
H367 H 0.08261 0.58092 0.98262 0.0
H368 H 0.10874 0.58802 0.99554 0.0
C369 C 0.09907 0.5823 0.97299 0.0
H370 H 0.09987 0.59413 0.95131 0.0
H371 H 0.12672 0.62603 0.90353 0.0
O372 O 0.1329 0.50592 0.86674 0.0
C373 C 0.12462 0.57367 0.84235 0.0
Co374 Co 0.95571 0.12591 0.88417 0.0
Co375 Co 0.92127 0.14068 0.93796 0.0
C376 C 0.94792 0.17119 0.89616 0.0
O377 O 0.9583 0.1563 0.88204 0.0
O378 O 0.93305 0.16754 0.91807 0.0
C379 C 0.99666 0.1227 0.85419 0.0
O380 O 0.00037 0.13913 0.87456 0.0
C381 C 0.91107 0.15581 0.00853 0.0
C382 C 0.8768 0.15017 0.01253 0.0
C383 C 0.89413 0.15712 0.03176 0.0
N384 N 0.90415 0.14809 0.97741 0.0
N385 N 0.8836 0.14503 0.97969 0.0
C386 C 0.93347 0.16216 0.01516 0.0
H387 H 0.94079 0.16779 0.9901 0.0
H388 H 0.94263 0.14832 0.02439 0.0
H389 H 0.93434 0.17466 0.03579 0.0
C390 C 0.96909 0.10022 0.94433 0.0
N391 N 0.9575 0.11608 0.93102 0.0
N392 N 0.9419 0.12039 0.95286 0.0
C393 C 0.94245 0.1064 0.98 0.0
C394 C 0.95999 0.09346 0.97579 0.0
C395 C 0.98615 0.08917 0.92404 0.0
H396 H 0.97949 0.0824 0.89923 0.0
H397 H 0.99855 0.10068 0.91679 0.0
H398 H 0.99351 0.07639 0.93983 0.0
O399 O 0.92831 0.11749 0.86258 0.0
O400 O 0.90349 0.12833 0.90028 0.0
H401 H 0.92461 0.08667 0.01601 0.0
H402 H 0.92684 0.1138 0.02883 0.0
C403 C 0.92477 0.10308 0.0058 0.0
H404 H 0.90945 0.10666 0.99294 0.0
H405 H 0.87434 0.13885 0.95921 0.0
O406 O 0.97849 0.11427 0.85449 0.0
C407 C 0.90896 0.11952 0.87124 0.0
Co408 Co 0.36245 0.54395 0.61509 0.0
Co409 Co 0.35431 0.5834 0.56766 0.0
C410 C 0.3195 0.55753 0.60264 0.0
O411 O 0.33209 0.54343 0.61365 0.0
O412 O 0.32612 0.5735 0.58533 0.0
C413 C 0.36353 0.50169 0.64481 0.0
O414 O 0.34463 0.49909 0.63119 0.0
C415 C 0.34211 0.59822 0.4976 0.0
C416 C 0.35119 0.6318 0.49893 0.0
C417 C 0.34336 0.61623 0.47647 0.0
N418 N 0.34917 0.60299 0.53035 0.0
N419 N 0.35417 0.62317 0.53125 0.0
C420 C 0.3362 0.57629 0.48667 0.0
H421 H 0.33991 0.56483 0.50801 0.0
H422 H 0.34455 0.57178 0.46186 0.0
H423 H 0.31897 0.57559 0.48173 0.0
C424 C 0.38913 0.53177 0.55557 0.0
N425 N 0.37423 0.54431 0.56955 0.0
N426 N 0.37278 0.5617 0.55078 0.0
C427 C 0.38765 0.5612 0.52505 0.0
C428 C 0.39834 0.54205 0.527 0.0
C429 C 0.39702 0.51217 0.5734 0.0
H430 H 0.38351 0.50172 0.5795 0.0
H431 H 0.4083 0.5033 0.55667 0.0
H432 H 0.40495 0.5165 0.59867 0.0
O433 O 0.37131 0.56919 0.64249 0.0
O434 O 0.36763 0.59768 0.60858 0.0
H435 H 0.40974 0.57856 0.49227 0.0
H436 H 0.3827 0.58003 0.47873 0.0
C437 C 0.39331 0.57967 0.50217 0.0
H438 H 0.3912 0.59457 0.51725 0.0
H439 H 0.3605 0.63081 0.55345 0.0
O440 O 0.37284 0.51929 0.64142 0.0
C441 C 0.37292 0.58905 0.63789 0.0
Co442 Co 0.96907 0.34902 0.62085 0.0
Co443 Co 0.92909 0.3407 0.57509 0.0
C444 C 0.95603 0.30597 0.60831 0.0
O445 O 0.97046 0.31859 0.618 0.0
O446 O 0.93948 0.31261 0.59258 0.0
C447 C 0.01167 0.35255 0.65018 0.0
O448 O 0.01744 0.33717 0.62889 0.0
C449 C 0.91422 0.32902 0.5053 0.0
C450 C 0.88198 0.34201 0.50441 0.0
C451 C 0.89729 0.33309 0.48259 0.0
N452 N 0.90931 0.33602 0.53798 0.0
N453 N 0.88981 0.34324 0.5376 0.0
C454 C 0.93511 0.31924 0.49694 0.0
H455 H 0.94182 0.31179 0.52112 0.0
H456 H 0.94631 0.33165 0.48824 0.0
H457 H 0.93349 0.30718 0.4757 0.0
C458 C 0.97941 0.37744 0.56214 0.0
N459 N 0.96789 0.36165 0.57596 0.0
N460 N 0.95043 0.3594 0.5575 0.0
C461 C 0.94999 0.37437 0.53193 0.0
C462 C 0.96848 0.38607 0.53374 0.0
C463 C 0.99843 0.38663 0.57994 0.0
H464 H 0.99384 0.39321 0.60619 0.0
H465 H 0.01021 0.374 0.58445 0.0
H466 H 0.00572 0.39928 0.56371 0.0
O467 O 0.94388 0.35683 0.64907 0.0
O468 O 0.91492 0.35395 0.61624 0.0
H469 H 0.91645 0.37758 0.52622 0.0
H470 H 0.93161 0.39616 0.50021 0.0
C471 C 0.93095 0.37972 0.51017 0.0
H472 H 0.93022 0.36909 0.48677 0.0
H473 H 0.88241 0.35032 0.55937 0.0
O474 O 0.99287 0.35939 0.64929 0.0
C475 C 0.924 0.35867 0.64543 0.0
Co476 Co 0.14221 0.95959 0.61376 0.0
Co477 Co 0.15239 0.92065 0.56625 0.0
C478 C 0.18606 0.94735 0.60227 0.0
O479 O 0.17282 0.96075 0.61374 0.0
O480 O 0.1802 0.93131 0.5843 0.0
C481 C 0.1406 0.99773 0.65735 0.0
O482 O 0.16124 0.9967 0.65962 0.0
C483 C 0.16579 0.90522 0.49749 0.0
C484 C 0.15268 0.873 0.49652 0.0
C485 C 0.16252 0.88796 0.47526 0.0
N486 N 0.15761 0.90081 0.52957 0.0
N487 N 0.15027 0.88135 0.52918 0.0
C488 C 0.17617 0.9258 0.48899 0.0
H489 H 0.18439 0.93197 0.51289 0.0
H490 H 0.16403 0.93755 0.48138 0.0
H491 H 0.18764 0.92397 0.4669 0.0
C492 C 0.1163 0.97127 0.55281 0.0
N493 N 0.13122 0.95903 0.56754 0.0
N494 N 0.13386 0.94198 0.5482 0.0
C495 C 0.11985 0.94244 0.52104 0.0
C496 C 0.10845 0.96117 0.52286 0.0
C497 C 0.10712 0.99022 0.57093 0.0
H498 H 0.09797 0.985 0.59448 0.0
H499 H 0.12003 0.00067 0.58016 0.0
H500 H 0.09655 0.99932 0.55323 0.0
O501 O 0.13327 0.93425 0.64075 0.0
O502 O 0.13896 0.90615 0.60682 0.0
H503 H 0.11652 0.90921 0.51151 0.0
H504 H 0.09989 0.92558 0.48375 0.0
C505 C 0.11557 0.92426 0.4966 0.0
H506 H 0.12758 0.92403 0.47522 0.0
H507 H 0.14249 0.87424 0.55052 0.0
O508 O 0.1306 0.98386 0.63976 0.0
C509 C 0.13254 0.91439 0.63577 0.0
Co510 Co 0.5445 0.14337 0.62074 0.0
Co511 Co 0.58294 0.15515 0.57292 0.0
C512 C 0.5521 0.18765 0.6004 0.0
O513 O 0.54095 0.17345 0.61494 0.0
O514 O 0.56884 0.18302 0.58323 0.0
C515 C 0.5013 0.13781 0.64235 0.0
O516 O 0.49674 0.15101 0.61654 0.0
C517 C 0.60187 0.16284 0.50327 0.0
C518 C 0.63506 0.15425 0.51351 0.0
C519 C 0.62107 0.15939 0.4865 0.0
N520 N 0.60437 0.15938 0.53829 0.0
N521 N 0.62438 0.15493 0.5444 0.0
C522 C 0.58092 0.16671 0.48605 0.0
H523 H 0.56791 0.16441 0.50538 0.0
H524 H 0.57871 0.1562 0.46273 0.0
H525 H 0.5804 0.18321 0.47629 0.0
C526 C 0.53654 0.11303 0.56369 0.0
N527 N 0.54713 0.12965 0.57681 0.0
N528 N 0.56414 0.13302 0.55757 0.0
C529 C 0.56532 0.11776 0.53239 0.0
C530 C 0.54755 0.10509 0.53497 0.0
C531 C 0.51791 0.10297 0.58141 0.0
H532 H 0.5045 0.11414 0.58107 0.0
H533 H 0.5129 0.08827 0.56781 0.0
H534 H 0.52184 0.09922 0.60946 0.0
O535 O 0.56959 0.13815 0.65059 0.0
O536 O 0.59722 0.14644 0.61726 0.0
H537 H 0.58579 0.09592 0.5051 0.0
H538 H 0.58278 0.12098 0.48403 0.0
C539 C 0.58437 0.1131 0.5102 0.0
H540 H 0.59885 0.11874 0.52363 0.0
H541 H 0.63043 0.15081 0.56929 0.0
O542 O 0.52035 0.1327 0.64799 0.0
C543 C 0.58943 0.14004 0.64651 0.0
H544 H 0.60651 0.97453 0.14096 0.0
H545 H 0.58402 0.95114 0.17534 0.0
H546 H 0.63288 0.94427 0.25428 0.0
H547 H 0.65565 0.96817 0.22015 0.0
H548 H 0.60634 0.90491 0.2318 0.0
H549 H 0.60239 0.97602 0.2779 0.0
H550 H 0.59894 0.01458 0.27217 0.0
H551 H 0.5383 0.00692 0.22306 0.0
H552 H 0.54163 0.96826 0.22767 0.0
H553 H 0.53334 0.86854 0.36435 0.0
H554 H 0.56252 0.88489 0.332 0.0
H555 H 0.51807 0.91604 0.26267 0.0
H556 H 0.48891 0.90034 0.29559 0.0
H557 H 0.54568 0.94296 0.28505 0.0
H558 H 0.54903 0.87293 0.23592 0.0
H559 H 0.5519 0.83417 0.23771 0.0
H560 H 0.61222 0.83913 0.28895 0.0
H561 H 0.60958 0.87794 0.28789 0.0
C562 C 0.61272 0.96783 0.16528 0.0
C563 C 0.63279 0.97346 0.1781 0.0
C564 C 0.59983 0.95441 0.18483 0.0
C565 C 0.60681 0.94621 0.21733 0.0
C566 C 0.62733 0.95053 0.22914 0.0
C567 C 0.64024 0.96421 0.20971 0.0
C568 C 0.59169 0.93507 0.24034 0.0
C569 C 0.59325 0.91316 0.24408 0.0
C570 C 0.57447 0.94596 0.25548 0.0
C571 C 0.57237 0.96922 0.25281 0.0
C572 C 0.58843 0.98254 0.26551 0.0
C573 C 0.58648 0.00442 0.2625 0.0
C574 C 0.56844 0.01319 0.24714 0.0
C575 C 0.55229 0.0001 0.23486 0.0
C576 C 0.5542 0.9782 0.23766 0.0
C577 C 0.52982 0.87873 0.342 0.0
C578 C 0.50886 0.88325 0.33255 0.0
C579 C 0.54651 0.88799 0.32345 0.0
C580 C 0.54248 0.90158 0.29477 0.0
C581 C 0.52154 0.90567 0.28482 0.0
C582 C 0.50489 0.89667 0.30361 0.0
C583 C 0.5599 0.91252 0.27613 0.0
C584 C 0.55882 0.93455 0.2732 0.0
C585 C 0.57739 0.90165 0.2615 0.0
C586 C 0.57899 0.87833 0.2622 0.0
C587 C 0.56282 0.86575 0.24785 0.0
C588 C 0.56442 0.84378 0.24868 0.0
C589 C 0.5822 0.83419 0.26354 0.0
C590 C 0.59844 0.84657 0.27751 0.0
C591 C 0.5969 0.86856 0.27678 0.0
H592 H 0.58341 0.81718 0.26414 0.0
H593 H 0.56696 0.03014 0.24486 0.0
H594 H 0.64307 0.50766 0.27081 0.0
H595 H 0.62617 0.53764 0.24137 0.0
H596 H 0.5862 0.54681 0.33298 0.0
H597 H 0.60275 0.51682 0.36236 0.0
H598 H 0.56387 0.54535 0.2729 0.0
H599 H 0.62605 0.58108 0.31397 0.0
H600 H 0.66428 0.58671 0.32106 0.0
H601 H 0.67123 0.59179 0.2077 0.0
H602 H 0.63306 0.5859 0.19989 0.0
H603 H 0.5123 0.63639 0.22173 0.0
H604 H 0.53693 0.61466 0.25571 0.0
H605 H 0.57572 0.60716 0.16218 0.0
H606 H 0.55153 0.62979 0.12848 0.0
H607 H 0.59958 0.60817 0.22235 0.0
H608 H 0.53738 0.57209 0.18156 0.0
H609 H 0.499 0.56692 0.17475 0.0
H610 H 0.49232 0.56183 0.28809 0.0
H611 H 0.53053 0.56745 0.29567 0.0
C612 C 0.63083 0.5162 0.28481 0.0
C613 C 0.62416 0.50979 0.31881 0.0
C614 C 0.62127 0.53338 0.26803 0.0
C615 C 0.60502 0.54449 0.2851 0.0
C616 C 0.59871 0.53842 0.31937 0.0
C617 C 0.6082 0.52127 0.3361 0.0
C618 C 0.5935 0.56148 0.26643 0.0
C619 C 0.57165 0.55924 0.26234 0.0
C620 C 0.60378 0.57925 0.25171 0.0
C621 C 0.62672 0.58283 0.25634 0.0
C622 C 0.63575 0.58322 0.29053 0.0
C623 C 0.65741 0.58649 0.29469 0.0
C624 C 0.67018 0.58955 0.26485 0.0
C625 C 0.66132 0.58939 0.23079 0.0
C626 C 0.63967 0.5861 0.22649 0.0
C627 C 0.52639 0.63055 0.20874 0.0
C628 C 0.53001 0.63454 0.17253 0.0
C629 C 0.54039 0.61811 0.22808 0.0
C630 C 0.55783 0.60888 0.21118 0.0
C631 C 0.5623 0.61409 0.17565 0.0
C632 C 0.5485 0.62698 0.15645 0.0
C633 C 0.56995 0.59215 0.22945 0.0
C634 C 0.59185 0.59432 0.23312 0.0
C635 C 0.55975 0.57419 0.24379 0.0
C636 C 0.53681 0.57036 0.23917 0.0
C637 C 0.5277 0.56997 0.20502 0.0
C638 C 0.50599 0.56697 0.20103 0.0
C639 C 0.49325 0.56406 0.23094 0.0
C640 C 0.5022 0.5641 0.26494 0.0
C641 C 0.52388 0.56721 0.2691 0.0
H642 H 0.47645 0.56174 0.22779 0.0
H643 H 0.68694 0.59208 0.26812 0.0
H644 H 0.87287 0.51341 0.20467 0.0
H645 H 0.88651 0.54327 0.23835 0.0
H646 H 0.86044 0.58619 0.16096 0.0
H647 H 0.84645 0.55615 0.12696 0.0
H648 H 0.90391 0.59262 0.17715 0.0
H649 H 0.83866 0.58673 0.23885 0.0
H650 H 0.80966 0.56814 0.26922 0.0
H651 H 0.85256 0.54669 0.34986 0.0
H652 H 0.88189 0.56487 0.31972 0.0
H653 H 0.95682 0.66591 0.28852 0.0
H654 H 0.92675 0.65114 0.2561 0.0
H655 H 0.93083 0.59441 0.31908 0.0
H656 H 0.96033 0.60919 0.35207 0.0
H657 H 0.89086 0.60344 0.30611 0.0
H658 H 0.95568 0.5987 0.23707 0.0
H659 H 0.98687 0.61381 0.2073 0.0
H660 H 0.94675 0.652 0.14159 0.0
H661 H 0.9153 0.63719 0.17124 0.0
C662 C 0.86984 0.52919 0.19491 0.0
C663 C 0.85864 0.53246 0.16314 0.0
C664 C 0.87753 0.54624 0.21432 0.0
C665 C 0.87428 0.5669 0.2023 0.0
C666 C 0.86294 0.57032 0.17074 0.0
C667 C 0.85496 0.55319 0.15145 0.0
C668 C 0.88422 0.58455 0.22179 0.0
C669 C 0.90064 0.59552 0.20508 0.0
C670 C 0.88017 0.58792 0.25837 0.0
C671 C 0.86251 0.57716 0.27692 0.0
C672 C 0.84194 0.57796 0.26296 0.0
C673 C 0.82544 0.5675 0.28015 0.0
C674 C 0.82927 0.55623 0.31144 0.0
C675 C 0.84961 0.55544 0.32564 0.0
C676 C 0.86618 0.56586 0.30854 0.0
C677 C 0.95107 0.65044 0.29584 0.0
C678 C 0.96115 0.63859 0.32252 0.0
C679 C 0.93391 0.64202 0.27726 0.0
C680 C 0.92676 0.62154 0.28481 0.0
C681 C 0.93606 0.61024 0.31279 0.0
C682 C 0.95305 0.61867 0.3315 0.0
C683 C 0.91106 0.61087 0.2618 0.0
C684 C 0.8936 0.60117 0.27787 0.0
C685 C 0.91438 0.60833 0.22476 0.0
C686 C 0.93319 0.61703 0.2066 0.0
C687 C 0.95353 0.61039 0.21638 0.0
C688 C 0.97124 0.61888 0.19953 0.0
C689 C 0.96879 0.63388 0.17263 0.0
C690 C 0.94861 0.64039 0.16246 0.0
C691 C 0.93084 0.63194 0.17925 0.0
H692 H 0.98252 0.64041 0.15961 0.0
H693 H 0.81648 0.54814 0.32471 0.0
H694 H 0.99499 0.89222 0.16994 0.0
H695 H 0.97184 0.91432 0.20548 0.0
H696 H 0.92757 0.86305 0.21523 0.0
H697 H 0.95084 0.84051 0.17937 0.0
H698 H 0.90888 0.90199 0.19783 0.0
H699 H 0.95608 0.87417 0.28424 0.0
H700 H 0.99019 0.86455 0.31114 0.0
H701 H 0.0083 0.92974 0.3138 0.0
H702 H 0.97448 0.93974 0.28616 0.0
H703 H 0.85288 0.96417 0.32785 0.0
H704 H 0.87074 0.93526 0.29696 0.0
H705 H 0.92514 0.97492 0.28074 0.0
H706 H 0.9076 0.00372 0.31184 0.0
H707 H 0.93592 0.9369 0.30691 0.0
H708 H 0.89101 0.96404 0.21341 0.0
H709 H 0.85712 0.97395 0.1859 0.0
H710 H 0.83497 0.91033 0.19691 0.0
H711 H 0.86862 0.90011 0.22498 0.0
C712 C 0.98038 0.8855 0.17966 0.0
C713 C 0.97482 0.86451 0.17205 0.0
C714 C 0.9672 0.89819 0.20008 0.0
C715 C 0.9482 0.89018 0.21339 0.0
C716 C 0.94229 0.8694 0.20533 0.0
C717 C 0.95558 0.85658 0.18493 0.0
C718 C 0.93456 0.90392 0.23523 0.0
C719 C 0.91456 0.90931 0.22212 0.0
C720 C 0.94222 0.91365 0.26656 0.0
C721 C 0.96276 0.90769 0.2828 0.0
C722 C 0.96741 0.88645 0.29016 0.0
C723 C 0.9867 0.88093 0.3056 0.0
C724 C 0.00142 0.89652 0.31407 0.0
C725 C 0.99689 0.91768 0.30714 0.0
C726 C 0.97766 0.92328 0.29159 0.0
C727 C 0.86859 0.96677 0.3175 0.0
C728 C 0.87884 0.98623 0.32232 0.0
C729 C 0.87874 0.95025 0.29979 0.0
C730 C 0.89923 0.953 0.28653 0.0
C731 C 0.90935 0.97248 0.29092 0.0
C732 C 0.89926 0.98895 0.30857 0.0
C733 C 0.91055 0.93551 0.26888 0.0
C734 C 0.9301 0.92936 0.2829 0.0
C735 C 0.90251 0.92517 0.23837 0.0
C736 C 0.88224 0.93137 0.2217 0.0
C737 C 0.87883 0.95221 0.2103 0.0
C738 C 0.85968 0.95788 0.19454 0.0
C739 C 0.84388 0.94279 0.18976 0.0
C740 C 0.8472 0.92201 0.2007 0.0
C741 C 0.86631 0.91627 0.21652 0.0
H742 H 0.8291 0.94718 0.17744 0.0
H743 H 0.01633 0.89222 0.32607 0.0
H744 H 0.40823 0.0121 0.84588 0.0
H745 H 0.42605 0.03947 0.81188 0.0
H746 H 0.3803 0.03287 0.72754 0.0
H747 H 0.36258 0.00495 0.76116 0.0
H748 H 0.41947 0.03571 0.70124 0.0
H749 H 0.37799 0.07498 0.78382 0.0
H750 H 0.36368 0.08455 0.84266 0.0
H751 H 0.426 0.09915 0.87987 0.0
H752 H 0.44073 0.0894 0.82138 0.0
H753 H 0.46131 0.12922 0.61942 0.0
H754 H 0.4354 0.10623 0.6486 0.0
H755 H 0.47793 0.0977 0.73705 0.0
H756 H 0.50387 0.12036 0.708 0.0
H757 H 0.43561 0.1048 0.75705 0.0
H758 H 0.47693 0.06222 0.67543 0.0
H759 H 0.49095 0.05256 0.61639 0.0
H760 H 0.428 0.04411 0.57696 0.0
H761 H 0.41356 0.05413 0.63558 0.0
C762 C 0.40192 0.01644 0.82011 0.0
C763 C 0.38394 0.00641 0.80625 0.0
C764 C 0.41206 0.03219 0.80078 0.0
C765 C 0.40427 0.03846 0.76746 0.0
C766 C 0.38649 0.02832 0.7533 0.0
C767 C 0.37637 0.01242 0.77256 0.0
C768 C 0.41501 0.05542 0.74739 0.0
C769 C 0.42262 0.05099 0.71312 0.0
C770 C 0.41929 0.07525 0.7631 0.0
C771 C 0.41048 0.08134 0.79825 0.0
C772 C 0.38866 0.08012 0.80461 0.0
C773 C 0.38047 0.08559 0.8379 0.0
C774 C 0.39393 0.09243 0.865 0.0
C775 C 0.4156 0.09386 0.85885 0.0
C776 C 0.42387 0.08839 0.82561 0.0
C777 C 0.46493 0.12271 0.64536 0.0
C778 C 0.48457 0.12645 0.66148 0.0
C779 C 0.45021 0.10952 0.66183 0.0
C780 C 0.4549 0.10019 0.69476 0.0
C781 C 0.47408 0.10476 0.7116 0.0
C782 C 0.48887 0.11764 0.69497 0.0
C783 C 0.44037 0.08491 0.71131 0.0
C784 C 0.43208 0.08966 0.74495 0.0
C785 C 0.43542 0.06543 0.69493 0.0
C786 C 0.44415 0.05931 0.65973 0.0
C787 C 0.46606 0.05856 0.65406 0.0
C788 C 0.47409 0.05299 0.62069 0.0
C789 C 0.46036 0.04792 0.59288 0.0
C790 C 0.4386 0.04821 0.59847 0.0
C791 C 0.43049 0.05383 0.63175 0.0
H792 H 0.46658 0.0437 0.56703 0.0
H793 H 0.38755 0.09665 0.89076 0.0
H794 H 0.34954 0.46124 0.65644 0.0
H795 H 0.37002 0.43157 0.6803 0.0
H796 H 0.42423 0.47212 0.69128 0.0
H797 H 0.40415 0.50156 0.66771 0.0
H798 H 0.434 0.43394 0.66042 0.0
H799 H 0.39348 0.46095 0.76197 0.0
H800 H 0.36026 0.46913 0.79318 0.0
H801 H 0.34102 0.40443 0.78424 0.0
H802 H 0.37405 0.39594 0.75257 0.0
H803 H 0.50451 0.40625 0.79336 0.0
H804 H 0.4777 0.42161 0.75489 0.0
H805 H 0.43878 0.36642 0.76834 0.0
H806 H 0.4656 0.35087 0.80727 0.0
H807 H 0.41662 0.40259 0.7777 0.0
H808 H 0.46225 0.37451 0.69086 0.0
H809 H 0.4958 0.36649 0.66077 0.0
H810 H 0.5055 0.43235 0.64022 0.0
H811 H 0.47228 0.44087 0.67098 0.0
C812 C 0.3658 0.4638 0.66407 0.0
C813 C 0.37519 0.48377 0.66035 0.0
C814 C 0.37746 0.44686 0.67759 0.0
C815 C 0.39861 0.44971 0.68745 0.0
C816 C 0.40795 0.46959 0.68363 0.0
C817 C 0.39637 0.48644 0.67036 0.0
C818 C 0.41126 0.43241 0.70282 0.0
C819 C 0.43024 0.42701 0.68602 0.0
C820 C 0.40584 0.42276 0.73544 0.0
C821 C 0.38606 0.42788 0.75452 0.0
C822 C 0.38207 0.44852 0.76641 0.0
C823 C 0.36331 0.4532 0.78423 0.0
C824 C 0.3485 0.43733 0.79057 0.0
C825 C 0.35247 0.41672 0.77922 0.0
C826 C 0.37121 0.41197 0.76135 0.0
C827 C 0.49032 0.39728 0.78801 0.0
C828 C 0.48715 0.37736 0.80339 0.0
C829 C 0.47507 0.40603 0.76583 0.0
C830 C 0.4564 0.395 0.75839 0.0
C831 C 0.45315 0.37509 0.77363 0.0
C832 C 0.46847 0.36627 0.79584 0.0
C833 C 0.43997 0.40504 0.73623 0.0
C834 C 0.42021 0.40898 0.75162 0.0
C835 C 0.4447 0.41335 0.70222 0.0
C836 C 0.46475 0.40834 0.68351 0.0
C837 C 0.47161 0.38732 0.68024 0.0
C838 C 0.49058 0.38268 0.66302 0.0
C839 C 0.50278 0.3989 0.64863 0.0
C840 C 0.49603 0.4198 0.65141 0.0
C841 C 0.47712 0.42455 0.66874 0.0
H842 H 0.51746 0.39527 0.63528 0.0
H843 H 0.33398 0.44098 0.80438 0.0
H844 H 0.05482 0.35333 0.64491 0.0
H845 H 0.07914 0.37482 0.68057 0.0
H846 H 0.02702 0.39644 0.74474 0.0
H847 H 0.00278 0.37556 0.70897 0.0
H848 H 0.0483 0.42842 0.72005 0.0
H849 H 0.06482 0.36325 0.77824 0.0
H850 H 0.07593 0.32606 0.78183 0.0
H851 H 0.13578 0.34199 0.73582 0.0
H852 H 0.12492 0.37925 0.7315 0.0
H853 H 0.12386 0.46563 0.86559 0.0
H854 H 0.10583 0.43596 0.83673 0.0
H855 H 0.11239 0.46666 0.73491 0.0
H856 H 0.12942 0.49659 0.76359 0.0
H857 H 0.11434 0.40744 0.7814 0.0
H858 H 0.06559 0.46368 0.6928 0.0
H859 H 0.05301 0.5005 0.69297 0.0
H860 H 0.05427 0.50113 0.80726 0.0
H861 H 0.06651 0.46423 0.80777 0.0
C862 C 0.04867 0.36242 0.667 0.0
C863 C 0.02691 0.36303 0.6739 0.0
C864 C 0.06256 0.37462 0.6874 0.0
C865 C 0.05484 0.38727 0.71522 0.0
C866 C 0.03327 0.38693 0.72322 0.0
C867 C 0.01944 0.37501 0.70271 0.0
C868 C 0.06866 0.40247 0.73391 0.0
C869 C 0.06273 0.42377 0.73347 0.0
C870 C 0.08739 0.39639 0.75161 0.0
C871 C 0.09397 0.37401 0.75422 0.0
C872 C 0.08028 0.3588 0.7686 0.0
C873 C 0.08655 0.33771 0.77083 0.0
C874 C 0.10653 0.33166 0.75897 0.0
C875 C 0.1203 0.3467 0.74495 0.0
C876 C 0.11411 0.3678 0.74264 0.0
C877 C 0.12172 0.46586 0.83698 0.0
C878 C 0.12824 0.48331 0.81674 0.0
C879 C 0.11158 0.44887 0.82054 0.0
C880 C 0.10773 0.44923 0.78377 0.0
C881 C 0.1152 0.46614 0.76335 0.0
C882 C 0.12515 0.48313 0.77974 0.0
C883 C 0.09392 0.43323 0.76722 0.0
C884 C 0.0999 0.41194 0.76793 0.0
C885 C 0.07493 0.43917 0.75026 0.0
C886 C 0.06719 0.46127 0.75028 0.0
C887 C 0.0631 0.47166 0.71796 0.0
C888 C 0.05603 0.49254 0.71794 0.0
C889 C 0.05292 0.50317 0.7501 0.0
C890 C 0.05677 0.49291 0.78236 0.0
C891 C 0.06378 0.47202 0.78253 0.0
H892 H 0.04749 0.51934 0.75002 0.0
H893 H 0.11135 0.31532 0.76072 0.0
H894 H 0.09819 0.00386 0.65629 0.0
H895 H 0.07796 0.03041 0.68783 0.0
H896 H 0.13527 0.05653 0.73128 0.0
H897 H 0.15586 0.02951 0.69995 0.0
H898 H 0.10533 0.05134 0.78183 0.0
H899 H 0.10827 0.08356 0.66743 0.0
H900 H 0.10583 0.08527 0.60198 0.0
H901 H 0.04019 0.06907 0.60709 0.0
H902 H 0.04226 0.06705 0.6725 0.0
H903 H 0.03874 0.13212 0.85587 0.0
H904 H 0.06691 0.11563 0.82098 0.0
H905 H 0.02116 0.07575 0.76914 0.0
H906 H 0.993 0.09197 0.80388 0.0
H907 H 0.05021 0.09416 0.72216 0.0
H908 H 0.04894 0.05581 0.83386 0.0
H909 H 0.05086 0.05252 0.89922 0.0
H910 H 0.11289 0.07957 0.89859 0.0
H911 H 0.11127 0.08319 0.83322 0.0
C912 C 0.10661 0.01529 0.6723 0.0
C913 C 0.12867 0.01457 0.67558 0.0
C914 C 0.09499 0.03059 0.69016 0.0
C915 C 0.10514 0.04567 0.7114 0.0
C916 C 0.12717 0.0451 0.71477 0.0
C917 C 0.13889 0.0297 0.69685 0.0
C918 C 0.09233 0.06113 0.73145 0.0
C919 C 0.09365 0.06114 0.76875 0.0
C920 C 0.07686 0.07362 0.71434 0.0
C921 C 0.07546 0.07508 0.67493 0.0
C922 C 0.09333 0.08027 0.6546 0.0
C923 C 0.09201 0.08132 0.61748 0.0
C924 C 0.07286 0.07728 0.60037 0.0
C925 C 0.05499 0.07224 0.62035 0.0
C926 C 0.05623 0.07119 0.65746 0.0
C927 C 0.03468 0.11991 0.83692 0.0
C928 C 0.01367 0.11332 0.83262 0.0
C929 C 0.05078 0.1105 0.81711 0.0
C930 C 0.04604 0.0945 0.79261 0.0
C931 C 0.02507 0.08815 0.78785 0.0
C932 C 0.00903 0.09738 0.80783 0.0
C933 C 0.06289 0.08385 0.77235 0.0
C934 C 0.06228 0.08477 0.73509 0.0
C935 C 0.07894 0.07217 0.78946 0.0
C936 C 0.07988 0.07003 0.82873 0.0
C937 C 0.06291 0.06124 0.84769 0.0
C938 C 0.06395 0.05928 0.88472 0.0
C939 C 0.08193 0.06593 0.90304 0.0
C940 C 0.09894 0.07448 0.88436 0.0
C941 C 0.09799 0.07647 0.84733 0.0
H942 H 0.08271 0.06439 0.93171 0.0
H943 H 0.07187 0.07807 0.57164 0.0
H944 H 0.79978 0.08608 0.36995 0.0
H945 H 0.77611 0.08588 0.31874 0.0
H946 H 0.77622 0.01782 0.31936 0.0
H947 H 0.80059 0.01807 0.36966 0.0
H948 H 0.79089 0.03142 0.25941 0.0
H949 H 0.73036 0.04923 0.33069 0.0
H950 H 0.70843 0.06954 0.37268 0.0
H951 H 0.7137 0.12428 0.30611 0.0
H952 H 0.73598 0.10443 0.26406 0.0
H953 H 0.71197 0.00913 0.1311 0.0
H954 H 0.73808 0.01321 0.17814 0.0
H955 H 0.74005 0.08021 0.15901 0.0
H956 H 0.71392 0.07631 0.11184 0.0
H957 H 0.72644 0.07064 0.22558 0.0
H958 H 0.78448 0.05168 0.15208 0.0
H959 H 0.80481 0.03066 0.10884 0.0
H960 H 0.80299 0.9774 0.17922 0.0
H961 H 0.7824 0.99796 0.22267 0.0
C962 C 0.79383 0.0711 0.36036 0.0
C963 C 0.80202 0.05207 0.37355 0.0
C964 C 0.7804 0.07099 0.33083 0.0
C965 C 0.77468 0.05182 0.31476 0.0
C966 C 0.78067 0.03281 0.33102 0.0
C967 C 0.79438 0.03292 0.36003 0.0
C968 C 0.76574 0.05144 0.27826 0.0
C969 C 0.77656 0.03973 0.25221 0.0
C970 C 0.74773 0.06319 0.26833 0.0
C971 C 0.73507 0.07539 0.29442 0.0
C972 C 0.72711 0.06569 0.32526 0.0
C973 C 0.71455 0.0771 0.34903 0.0
C974 C 0.70973 0.09821 0.34213 0.0
C975 C 0.71751 0.10796 0.31151 0.0
C976 C 0.73012 0.09663 0.28771 0.0
C977 C 0.71864 0.02461 0.13577 0.0
C978 C 0.71049 0.04245 0.11829 0.0
C979 C 0.73359 0.02693 0.16273 0.0
C980 C 0.74071 0.04707 0.17243 0.0
C981 C 0.73458 0.06455 0.15207 0.0
C982 C 0.71974 0.06224 0.12489 0.0
C983 C 0.75122 0.05013 0.20723 0.0
C984 C 0.74082 0.06245 0.23286 0.0
C985 C 0.76954 0.03887 0.21686 0.0
C986 C 0.78174 0.02635 0.19055 0.0
C987 C 0.78824 0.03542 0.15821 0.0
C988 C 0.79986 0.02359 0.13368 0.0
C989 C 0.80518 0.00269 0.14125 0.0
C990 C 0.79888 0.99358 0.17338 0.0
C991 C 0.78725 0.00533 0.19799 0.0
H992 H 0.8142 0.99357 0.12226 0.0
H993 H 0.69991 0.10698 0.36046 0.0
H994 H 0.42049 0.71182 0.12914 0.0
H995 H 0.4175 0.73651 0.17856 0.0
H996 H 0.48532 0.73919 0.18668 0.0
H997 H 0.48832 0.71379 0.13807 0.0
H998 H 0.46963 0.72619 0.24636 0.0
H999 H 0.45364 0.7834 0.1679 0.0
H1000 H 0.43529 0.80235 0.11971 0.0
H1001 H 0.37664 0.79635 0.17579 0.0
H1002 H 0.39457 0.7771 0.22408 0.0
H1003 H 0.47715 0.80899 0.37383 0.0
H1004 H 0.47855 0.78246 0.32685 0.0
H1005 H 0.41121 0.77414 0.33428 0.0
H1006 H 0.40978 0.8006 0.3817 0.0
H1007 H 0.42475 0.78879 0.26838 0.0
H1008 H 0.44195 0.73286 0.34827 0.0
H1009 H 0.46122 0.7151 0.39672 0.0
H1010 H 0.51889 0.72021 0.33759 0.0
H1011 H 0.50004 0.73828 0.28896 0.0
C1012 C 0.43478 0.71846 0.14025 0.0
C1013 C 0.45464 0.71071 0.13009 0.0
C1014 C 0.43305 0.73254 0.16874 0.0
C1015 C 0.45119 0.73945 0.18678 0.0
C1016 C 0.4711 0.73381 0.17351 0.0
C1017 C 0.47282 0.71949 0.14546 0.0
C1018 C 0.44944 0.74958 0.22228 0.0
C1019 C 0.4601 0.74013 0.25099 0.0
C1020 C 0.43631 0.7672 0.22869 0.0
C1021 C 0.42543 0.77859 0.19945 0.0
C1022 C 0.4368 0.78592 0.1698 0.0
C1023 C 0.42647 0.79677 0.14249 0.0
C1024 C 0.40481 0.80051 0.14462 0.0
C1025 C 0.39342 0.79343 0.17412 0.0
C1026 C 0.40366 0.78256 0.20148 0.0
C1027 C 0.46282 0.80069 0.36674 0.0
C1028 C 0.44336 0.80688 0.38119 0.0
C1029 C 0.46361 0.78561 0.33976 0.0
C1030 C 0.44494 0.77659 0.32679 0.0
C1031 C 0.42577 0.78104 0.34389 0.0
C1032 C 0.42501 0.79595 0.37128 0.0
C1033 C 0.44516 0.76555 0.29209 0.0
C1034 C 0.4342 0.77481 0.2636 0.0
C1035 C 0.45816 0.74789 0.28578 0.0
C1036 C 0.46959 0.73709 0.31506 0.0
C1037 C 0.45878 0.73038 0.34572 0.0
C1038 C 0.46962 0.72021 0.37319 0.0
C1039 C 0.49127 0.71657 0.37027 0.0
C1040 C 0.50212 0.72305 0.33983 0.0
C1041 C 0.49136 0.73323 0.31228 0.0
H1042 H 0.49963 0.70869 0.39157 0.0
H1043 H 0.39687 0.80891 0.12345 0.0
H1044 H 0.79086 0.41672 0.12823 0.0
H1045 H 0.76648 0.41442 0.17806 0.0
H1046 H 0.76056 0.48219 0.17905 0.0
H1047 H 0.78552 0.48461 0.12983 0.0
H1048 H 0.77688 0.46877 0.23898 0.0
H1049 H 0.71772 0.44886 0.16794 0.0
H1050 H 0.69661 0.42883 0.12444 0.0
H1051 H 0.70531 0.37233 0.18554 0.0
H1052 H 0.72684 0.39191 0.22909 0.0
H1053 H 0.70017 0.47975 0.37409 0.0
H1054 H 0.72557 0.47939 0.32568 0.0
H1055 H 0.73122 0.41183 0.33514 0.0
H1056 H 0.70545 0.41206 0.38342 0.0
H1057 H 0.71668 0.42299 0.27137 0.0
H1058 H 0.77447 0.44437 0.3441 0.0
H1059 H 0.79363 0.46561 0.38855 0.0
H1060 H 0.78549 0.52091 0.32414 0.0
H1061 H 0.76603 0.50008 0.27952 0.0
C1062 C 0.78355 0.43108 0.1378 0.0
C1063 C 0.79044 0.45089 0.12572 0.0
C1064 C 0.76962 0.42974 0.16649 0.0
C1065 C 0.76208 0.44817 0.18279 0.0
C1066 C 0.7665 0.46779 0.16721 0.0
C1067 C 0.78062 0.46915 0.13888 0.0
C1068 C 0.75321 0.44731 0.21923 0.0
C1069 C 0.76342 0.45906 0.24592 0.0
C1070 C 0.73635 0.43386 0.22857 0.0
C1071 C 0.72418 0.42183 0.20156 0.0
C1072 C 0.71547 0.43209 0.1718 0.0
C1073 C 0.70336 0.42082 0.14718 0.0
C1074 C 0.69971 0.3993 0.15212 0.0
C1075 C 0.70823 0.38898 0.18165 0.0
C1076 C 0.72041 0.40015 0.20629 0.0
C1077 C 0.70756 0.46493 0.36702 0.0
C1078 C 0.70052 0.4459 0.38204 0.0
C1079 C 0.72212 0.46473 0.33927 0.0
C1080 C 0.73005 0.44553 0.32645 0.0
C1081 C 0.72513 0.4268 0.3445 0.0
C1082 C 0.71055 0.42698 0.37238 0.0
C1083 C 0.74002 0.44479 0.29085 0.0
C1084 C 0.73014 0.43265 0.26435 0.0
C1085 C 0.75705 0.45802 0.28158 0.0
C1086 C 0.76865 0.47065 0.30854 0.0
C1087 C 0.7766 0.46109 0.33954 0.0
C1088 C 0.78756 0.47306 0.36475 0.0
C1089 C 0.79076 0.4946 0.3592 0.0
C1090 C 0.78302 0.50422 0.32841 0.0
C1091 C 0.77205 0.49233 0.30313 0.0
H1092 H 0.79926 0.50384 0.37873 0.0
H1093 H 0.69019 0.39065 0.13318 0.0
H1094 H 0.07038 0.70659 0.37937 0.0
H1095 H 0.07113 0.72956 0.32768 0.0
H1096 H 0.00316 0.73064 0.32579 0.0
H1097 H 0.00225 0.70734 0.3773 0.0
H1098 H 0.01907 0.71124 0.26821 0.0
H1099 H 0.03202 0.7758 0.32997 0.0
H1100 H 0.0495 0.80056 0.37107 0.0
H1101 H 0.1074 0.79411 0.31296 0.0
H1102 H 0.0904 0.76899 0.27188 0.0
H1103 H 0.00526 0.7813 0.122 0.0
H1104 H 0.00584 0.75755 0.17291 0.0
H1105 H 0.07359 0.75377 0.16607 0.0
H1106 H 0.07315 0.77749 0.11498 0.0
H1107 H 0.05929 0.77359 0.22719 0.0
H1108 H 0.04648 0.70971 0.16533 0.0
H1109 H 0.02918 0.68549 0.12306 0.0
H1110 H 0.97123 0.69068 0.1814 0.0
H1111 H 0.98807 0.71535 0.22351 0.0
C1112 C 0.05555 0.7126 0.3693 0.0
C1113 C 0.03623 0.70441 0.38152 0.0
C1114 C 0.05602 0.72572 0.33946 0.0
C1115 C 0.03719 0.73123 0.32221 0.0
C1116 C 0.01789 0.72617 0.33831 0.0
C1117 C 0.0174 0.713 0.36803 0.0
C1118 C 0.03763 0.73808 0.28452 0.0
C1119 C 0.02751 0.72515 0.25931 0.0
C1120 C 0.04954 0.75556 0.2728 0.0
C1121 C 0.05997 0.77028 0.29805 0.0
C1122 C 0.04856 0.77942 0.32621 0.0
C1123 C 0.05837 0.79358 0.34946 0.0
C1124 C 0.07956 0.79885 0.3447 0.0
C1125 C 0.091 0.78998 0.31667 0.0
C1126 C 0.08128 0.77577 0.2934 0.0
C1127 C 0.02019 0.77454 0.13011 0.0
C1128 C 0.03919 0.78175 0.11517 0.0
C1129 C 0.02051 0.76098 0.15934 0.0
C1130 C 0.03981 0.75439 0.17378 0.0
C1131 C 0.05856 0.75897 0.15555 0.0
C1132 C 0.05824 0.77239 0.12607 0.0
C1133 C 0.04052 0.74691 0.21106 0.0
C1134 C 0.05088 0.75968 0.23617 0.0
C1135 C 0.02884 0.72929 0.22272 0.0
C1136 C 0.0185 0.71463 0.19727 0.0
C1137 C 0.02998 0.70592 0.16883 0.0
C1138 C 0.02027 0.69207 0.14497 0.0
C1139 C 0.99909 0.68664 0.14944 0.0
C1140 C 0.98761 0.69498 0.17789 0.0
C1141 C 0.99724 0.70891 0.20176 0.0
H1142 H 0.99159 0.67594 0.1309 0.0
H1143 H 0.08711 0.80986 0.36267 0.0
H1144 H 0.20832 0.9818 0.62373 0.0
H1145 H 0.23511 0.98166 0.67047 0.0
H1146 H 0.23714 0.91376 0.66679 0.0
H1147 H 0.21068 0.91377 0.61949 0.0
H1148 H 0.22211 0.93198 0.73199 0.0
H1149 H 0.28074 0.93689 0.65296 0.0
H1150 H 0.30181 0.9511 0.60335 0.0
H1151 H 0.30542 0.01111 0.65593 0.0
H1152 H 0.2841 0.99736 0.70565 0.0
H1153 H 0.29479 0.92244 0.87713 0.0
H1154 H 0.2718 0.92055 0.82526 0.0
H1155 H 0.27914 0.98749 0.80888 0.0
H1156 H 0.30277 0.9893 0.86012 0.0
H1157 H 0.29086 0.96714 0.75198 0.0
H1158 H 0.2308 0.96381 0.82901 0.0
H1159 H 0.20849 0.95079 0.87801 0.0
H1160 H 0.2059 0.88965 0.82907 0.0
H1161 H 0.22851 0.90218 0.78014 0.0
C1162 C 0.21526 0.9669 0.63161 0.0
C1163 C 0.20726 0.94779 0.6183 0.0
C1164 C 0.23051 0.96684 0.6584 0.0
C1165 C 0.2378 0.94768 0.67234 0.0
C1166 C 0.2316 0.92868 0.65636 0.0
C1167 C 0.21661 0.92874 0.6291 0.0
C1168 C 0.2485 0.94751 0.70726 0.0
C1169 C 0.23737 0.93928 0.7364 0.0
C1170 C 0.26795 0.95774 0.71289 0.0
C1171 C 0.28064 0.96613 0.68289 0.0
C1172 C 0.28583 0.95318 0.65379 0.0
C1173 C 0.29787 0.96114 0.62568 0.0
C1174 C 0.3049 0.98201 0.62644 0.0
C1175 C 0.29994 0.99495 0.65535 0.0
C1176 C 0.2879 0.98708 0.68352 0.0
C1177 C 0.29071 0.93694 0.86353 0.0
C1178 C 0.30068 0.95601 0.87248 0.0
C1179 C 0.27764 0.93581 0.83366 0.0
C1180 C 0.27398 0.95384 0.81286 0.0
C1181 C 0.28199 0.97333 0.82427 0.0
C1182 C 0.29528 0.97441 0.85379 0.0
C1183 C 0.26429 0.95197 0.77707 0.0
C1184 C 0.27564 0.95977 0.74773 0.0
C1185 C 0.24488 0.94155 0.77131 0.0
C1186 C 0.23157 0.93388 0.80109 0.0
C1187 C 0.22568 0.94752 0.82891 0.0
C1188 C 0.21294 0.94024 0.85665 0.0
C1189 C 0.20583 0.91939 0.85675 0.0
C1190 C 0.21144 0.90578 0.82907 0.0
C1191 C 0.22423 0.91296 0.80131 0.0
H1192 H 0.19594 0.91382 0.87822 0.0
H1193 H 0.31423 0.98813 0.60466 0.0
H1194 H 0.58073 0.21937 0.61009 0.0
H1195 H 0.57695 0.24637 0.6561 0.0
H1196 H 0.51103 0.23126 0.66624 0.0
H1197 H 0.51452 0.2046 0.61993 0.0
H1198 H 0.54274 0.28131 0.6845 0.0
H1199 H 0.5135 0.20661 0.74844 0.0
H1200 H 0.51463 0.16799 0.73982 0.0
H1201 H 0.57688 0.17312 0.69573 0.0
H1202 H 0.57601 0.21153 0.70397 0.0
H1203 H 0.5117 0.30643 0.85593 0.0
H1204 H 0.5096 0.28234 0.80545 0.0
H1205 H 0.5752 0.26657 0.81888 0.0
H1206 H 0.57756 0.29107 0.86911 0.0
H1207 H 0.54362 0.23269 0.78838 0.0
H1208 H 0.5724 0.30441 0.7721 0.0
H1209 H 0.5699 0.34269 0.78307 0.0
H1210 H 0.5088 0.34394 0.73383 0.0
H1211 H 0.5109 0.30557 0.72291 0.0
C1212 C 0.56514 0.22273 0.62037 0.0
C1213 C 0.54804 0.20949 0.61217 0.0
C1214 C 0.56302 0.23815 0.64682 0.0
C1215 C 0.54383 0.24036 0.66501 0.0
C1216 C 0.52599 0.22963 0.65261 0.0
C1217 C 0.52804 0.21439 0.62609 0.0
C1218 C 0.54369 0.24892 0.70157 0.0
C1219 C 0.54299 0.27073 0.70717 0.0
C1220 C 0.54391 0.23506 0.73113 0.0
C1221 C 0.5446 0.2119 0.72648 0.0
C1222 C 0.5274 0.19941 0.73691 0.0
C1223 C 0.52798 0.17756 0.73201 0.0
C1224 C 0.54576 0.16805 0.71704 0.0
C1225 C 0.56301 0.18039 0.70698 0.0
C1226 C 0.56245 0.20222 0.71162 0.0
C1227 C 0.5254 0.297 0.84935 0.0
C1228 C 0.54491 0.30093 0.86586 0.0
C1229 C 0.52418 0.28334 0.82038 0.0
C1230 C 0.54237 0.27321 0.80808 0.0
C1231 C 0.56104 0.27445 0.82802 0.0
C1232 C 0.56232 0.2883 0.85695 0.0
C1233 C 0.54292 0.26503 0.77135 0.0
C1234 C 0.54351 0.24328 0.76572 0.0
C1235 C 0.54262 0.27897 0.74186 0.0
C1236 C 0.54177 0.30215 0.74685 0.0
C1237 C 0.55843 0.31285 0.76369 0.0
C1238 C 0.55708 0.33455 0.76991 0.0
C1239 C 0.53919 0.34573 0.75919 0.0
C1240 C 0.52266 0.33525 0.74208 0.0
C1241 C 0.52394 0.31354 0.7358 0.0
H1242 H 0.53815 0.36252 0.76411 0.0
H1243 H 0.54619 0.15114 0.71335 0.0
H1244 H 0.19787 0.59149 0.86428 0.0
H1245 H 0.22173 0.5929 0.81356 0.0
H1246 H 0.23033 0.52555 0.81925 0.0
H1247 H 0.20604 0.52389 0.86955 0.0
H1248 H 0.26089 0.58228 0.79345 0.0
H1249 H 0.23103 0.5046 0.74299 0.0
H1250 H 0.20045 0.4806 0.7408 0.0
H1251 H 0.15857 0.53328 0.75288 0.0
H1252 H 0.18894 0.55742 0.75709 0.0
H1253 H 0.2972 0.52415 0.62767 0.0
H1254 H 0.27191 0.52601 0.67616 0.0
H1255 H 0.26911 0.59367 0.66517 0.0
H1256 H 0.295 0.59195 0.61704 0.0
H1257 H 0.2348 0.53882 0.69277 0.0
H1258 H 0.27104 0.6156 0.74976 0.0
H1259 H 0.30406 0.63603 0.74514 0.0
H1260 H 0.33792 0.57973 0.71756 0.0
H1261 H 0.30525 0.55896 0.72266 0.0
C1262 C 0.20542 0.57704 0.85571 0.0
C1263 C 0.19968 0.55749 0.87056 0.0
C1264 C 0.21893 0.57786 0.82637 0.0
C1265 C 0.22707 0.55922 0.81168 0.0
C1266 C 0.22358 0.54005 0.82936 0.0
C1267 C 0.20994 0.53917 0.85849 0.0
C1268 C 0.23762 0.55966 0.77647 0.0
C1269 C 0.25507 0.57294 0.77133 0.0
C1270 C 0.2304 0.54716 0.74772 0.0
C1271 C 0.2122 0.53274 0.75043 0.0
C1272 C 0.21528 0.51097 0.74591 0.0
C1273 C 0.19802 0.49735 0.74447 0.0
C1274 C 0.1776 0.50541 0.74689 0.0
C1275 C 0.17441 0.52705 0.75153 0.0
C1276 C 0.19165 0.54069 0.75379 0.0
C1277 C 0.2906 0.53936 0.63461 0.0
C1278 C 0.29843 0.55793 0.61912 0.0
C1279 C 0.2762 0.54043 0.66251 0.0
C1280 C 0.26928 0.56006 0.67514 0.0
C1281 C 0.27478 0.57842 0.65645 0.0
C1282 C 0.28931 0.57736 0.62852 0.0
C1283 C 0.2582 0.56116 0.70979 0.0
C1284 C 0.24059 0.54827 0.7148 0.0
C1285 C 0.2658 0.57345 0.73861 0.0
C1286 C 0.28562 0.5858 0.73611 0.0
C1287 C 0.28555 0.60759 0.74283 0.0
C1288 C 0.30422 0.61923 0.74014 0.0
C1289 C 0.32308 0.60921 0.73091 0.0
C1290 C 0.32332 0.58751 0.72457 0.0
C1291 C 0.30473 0.5758 0.72736 0.0
H1292 H 0.3375 0.61825 0.72876 0.0
H1293 H 0.16432 0.49484 0.7448 0.0
H1294 H 0.9839 0.18934 0.87199 0.0
H1295 H 0.98546 0.21504 0.82371 0.0
H1296 H 0.9183 0.22448 0.83168 0.0
H1297 H 0.9167 0.19896 0.88042 0.0
H1298 H 0.93218 0.20718 0.76649 0.0
H1299 H 0.94868 0.26532 0.84291 0.0
H1300 H 0.96807 0.28439 0.88981 0.0
H1301 H 0.02528 0.27903 0.82946 0.0
H1302 H 0.0063 0.25964 0.7824 0.0
H1303 H 0.92191 0.28251 0.62727 0.0
H1304 H 0.92144 0.2579 0.67687 0.0
H1305 H 0.98946 0.25776 0.67899 0.0
H1306 H 0.99 0.28297 0.62994 0.0
H1307 H 0.97494 0.27064 0.7401 0.0
H1308 H 0.95985 0.21239 0.66432 0.0
H1309 H 0.94166 0.19224 0.61733 0.0
H1310 H 0.88372 0.19594 0.67604 0.0
H1311 H 0.90142 0.21643 0.723 0.0
C1312 C 0.96966 0.19773 0.8647 0.0
C1313 C 0.95016 0.19208 0.87967 0.0
C1314 C 0.97054 0.21233 0.837 0.0
C1315 C 0.95194 0.22136 0.82386 0.0
C1316 C 0.9328 0.21755 0.84146 0.0
C1317 C 0.93195 0.20316 0.86957 0.0
C1318 C 0.95203 0.23148 0.78844 0.0
C1319 C 0.94118 0.22132 0.76073 0.0
C1320 C 0.96459 0.24928 0.78089 0.0
C1321 C 0.97609 0.26083 0.80926 0.0
C1322 C 0.96544 0.26801 0.83979 0.0
C1323 C 0.97634 0.27893 0.86637 0.0
C1324 C 0.9979 0.28288 0.86266 0.0
C1325 C 0.00858 0.27594 0.83232 0.0
C1326 C 0.99775 0.26501 0.80566 0.0
C1327 C 0.9368 0.27646 0.63706 0.0
C1328 C 0.956 0.28497 0.62517 0.0
C1329 C 0.9365 0.26241 0.66567 0.0
C1330 C 0.95542 0.25629 0.68213 0.0
C1331 C 0.97466 0.26256 0.66705 0.0
C1332 C 0.97496 0.27679 0.63876 0.0
C1333 C 0.95506 0.24635 0.71785 0.0
C1334 C 0.9659 0.25651 0.74569 0.0
C1335 C 0.9427 0.22837 0.72545 0.0
C1336 C 0.93194 0.21616 0.69703 0.0
C1337 C 0.94317 0.2091 0.66703 0.0
C1338 C 0.93295 0.19757 0.6404 0.0
C1339 C 0.91152 0.19287 0.64359 0.0
C1340 C 0.90029 0.19962 0.67348 0.0
C1341 C 0.91041 0.21119 0.70013 0.0
H1342 H 0.90367 0.18397 0.62291 0.0
H1343 H 0.00631 0.29134 0.88326 0.0
H1344 H 0.65609 0.08089 0.93118 0.0
H1345 H 0.65503 0.09023 0.86873 0.0
H1346 H 0.67322 0.15395 0.89462 0.0
H1347 H 0.67483 0.14446 0.95784 0.0
H1348 H 0.63773 0.15313 0.85814 0.0
H1349 H 0.70529 0.12427 0.84167 0.0
H1350 H 0.73444 0.09879 0.84732 0.0
H1351 H 0.69816 0.05233 0.79111 0.0
H1352 H 0.66865 0.07739 0.78556 0.0
H1353 H 0.63211 0.1469 0.65148 0.0
H1354 H 0.65384 0.14519 0.70544 0.0
H1355 H 0.59988 0.12418 0.76549 0.0
H1356 H 0.57818 0.12565 0.71215 0.0
H1357 H 0.6628 0.11211 0.75389 0.0
H1358 H 0.59782 0.15097 0.8403 0.0
H1359 H 0.57044 0.17843 0.8351 0.0
H1360 H 0.60556 0.20836 0.75156 0.0
H1361 H 0.63308 0.18104 0.75613 0.0
C1362 C 0.66097 0.09659 0.92371 0.0
C1363 C 0.66607 0.1118 0.94952 0.0
C1364 C 0.66021 0.10198 0.88778 0.0
C1365 C 0.66434 0.12271 0.87691 0.0
C1366 C 0.67018 0.13779 0.90244 0.0
C1367 C 0.67104 0.13237 0.93848 0.0
C1368 C 0.65919 0.12907 0.84 0.0
C1369 C 0.64351 0.1444 0.8353 0.0
C1370 C 0.66701 0.11797 0.81008 0.0
C1371 C 0.6847 0.10274 0.81331 0.0
C1372 C 0.70345 0.10857 0.83072 0.0
C1373 C 0.72006 0.09421 0.83387 0.0
C1374 C 0.71814 0.07395 0.8196 0.0
C1375 C 0.69962 0.06803 0.80212 0.0
C1376 C 0.68296 0.08234 0.7989 0.0
C1377 C 0.62494 0.14165 0.67609 0.0
C1378 C 0.60335 0.1366 0.67757 0.0
C1379 C 0.63738 0.14074 0.70684 0.0
C1380 C 0.62832 0.13496 0.73943 0.0
C1381 C 0.60704 0.12905 0.74063 0.0
C1382 C 0.59468 0.12982 0.71005 0.0
C1383 C 0.6407 0.13529 0.77274 0.0
C1384 C 0.65756 0.1212 0.77668 0.0
C1385 C 0.63423 0.14772 0.80198 0.0
C1386 C 0.61749 0.16394 0.79855 0.0
C1387 C 0.5997 0.16343 0.82085 0.0
C1388 C 0.58413 0.17893 0.81794 0.0
C1389 C 0.58627 0.19513 0.79305 0.0
C1390 C 0.60389 0.19577 0.77078 0.0
C1391 C 0.61943 0.18022 0.77339 0.0
H1392 H 0.5743 0.2072 0.79106 0.0
H1393 H 0.73102 0.06285 0.82207 0.0
H1394 H 0.43643 0.67022 0.93222 0.0
H1395 H 0.43513 0.66899 0.86805 0.0
H1396 H 0.36757 0.66139 0.87223 0.0
H1397 H 0.36854 0.66481 0.93668 0.0
H1398 H 0.4268 0.63697 0.8345 0.0
H1399 H 0.34329 0.66967 0.79574 0.0
H1400 H 0.32097 0.70041 0.80958 0.0
H1401 H 0.37564 0.73562 0.84132 0.0
H1402 H 0.39835 0.70522 0.82719 0.0
H1403 H 0.37972 0.57626 0.706 0.0
H1404 H 0.38885 0.59768 0.75715 0.0
H1405 H 0.39127 0.65308 0.69067 0.0
H1406 H 0.38122 0.63166 0.63894 0.0
H1407 H 0.37182 0.66196 0.75066 0.0
H1408 H 0.43718 0.63074 0.72234 0.0
H1409 H 0.4619 0.60245 0.70554 0.0
H1410 H 0.44863 0.56999 0.80325 0.0
H1411 H 0.42359 0.59792 0.82043 0.0
C1412 C 0.42111 0.66967 0.91984 0.0
C1413 C 0.40251 0.6681 0.94006 0.0
C1414 C 0.42044 0.66853 0.88275 0.0
C1415 C 0.40127 0.66514 0.86498 0.0
C1416 C 0.38257 0.66452 0.88496 0.0
C1417 C 0.38317 0.66622 0.92202 0.0
C1418 C 0.40115 0.65886 0.82681 0.0
C1419 C 0.41497 0.64276 0.81609 0.0
C1420 C 0.38612 0.66667 0.80219 0.0
C1421 C 0.37253 0.68508 0.81056 0.0
C1422 C 0.35059 0.68401 0.80546 0.0
C1423 C 0.33785 0.70137 0.81341 0.0
C1424 C 0.34687 0.71994 0.82638 0.0
C1425 C 0.36866 0.7212 0.83137 0.0
C1426 C 0.38147 0.70389 0.82345 0.0
C1427 C 0.38235 0.59296 0.70197 0.0
C1428 C 0.37987 0.60221 0.66824 0.0
C1429 C 0.38768 0.6052 0.73134 0.0
C1430 C 0.3912 0.62692 0.72765 0.0
C1431 C 0.38876 0.63631 0.69405 0.0
C1432 C 0.38312 0.62404 0.66453 0.0
C1433 C 0.39679 0.63957 0.75947 0.0
C1434 C 0.384 0.65673 0.76892 0.0
C1435 C 0.41321 0.63323 0.7826 0.0
C1436 C 0.42845 0.61644 0.77263 0.0
C1437 C 0.43946 0.61752 0.74018 0.0
C1438 C 0.45353 0.60155 0.73059 0.0
C1439 C 0.45683 0.58443 0.7533 0.0
C1440 C 0.44608 0.58327 0.7857 0.0
C1441 C 0.43197 0.5992 0.79541 0.0
H1442 H 0.46772 0.57207 0.74582 0.0
H1443 H 0.33699 0.73336 0.83253 0.0
H1444 H 0.84147 0.35757 0.94834 0.0
H1445 H 0.84853 0.35407 0.88472 0.0
H1446 H 0.84383 0.42149 0.87253 0.0
H1447 H 0.83878 0.42531 0.93582 0.0
H1448 H 0.83354 0.36314 0.82027 0.0
H1449 H 0.8839 0.43885 0.82318 0.0
H1450 H 0.90166 0.46163 0.8673 0.0
H1451 H 0.90928 0.40872 0.93735 0.0
H1452 H 0.89187 0.38559 0.89345 0.0
H1453 H 0.88221 0.37048 0.64819 0.0
H1454 H 0.86184 0.37974 0.70151 0.0
H1455 H 0.91706 0.36966 0.7665 0.0
H1456 H 0.93747 0.36129 0.71387 0.0
H1457 H 0.8985 0.40257 0.78894 0.0
H1458 H 0.87621 0.33221 0.75682 0.0
H1459 H 0.86109 0.3051 0.71722 0.0
H1460 H 0.80302 0.33976 0.71191 0.0
H1461 H 0.81791 0.3672 0.75118 0.0
C1462 C 0.84148 0.37163 0.93199 0.0
C1463 C 0.83941 0.3917 0.94757 0.0
C1464 C 0.84535 0.36958 0.89554 0.0
C1465 C 0.84708 0.38756 0.87403 0.0
C1466 C 0.84282 0.40741 0.88877 0.0
C1467 C 0.83949 0.40953 0.92528 0.0
C1468 C 0.85649 0.38584 0.83805 0.0
C1469 C 0.84761 0.3719 0.8132 0.0
C1470 C 0.87513 0.39696 0.82916 0.0
C1471 C 0.88634 0.41057 0.8552 0.0
C1472 C 0.88947 0.43207 0.84792 0.0
C1473 C 0.89946 0.44504 0.8729 0.0
C1474 C 0.90648 0.43665 0.9052 0.0
C1475 C 0.90374 0.41522 0.91241 0.0
C1476 C 0.89383 0.40218 0.88748 0.0
C1477 C 0.88999 0.37043 0.67387 0.0
C1478 C 0.91146 0.36517 0.67676 0.0
C1479 C 0.87832 0.37562 0.70431 0.0
C1480 C 0.88787 0.37524 0.73809 0.0
C1481 C 0.90934 0.37023 0.74078 0.0
C1482 C 0.92101 0.36538 0.71054 0.0
C1483 C 0.87578 0.37956 0.77112 0.0
C1484 C 0.88417 0.39409 0.79554 0.0
C1485 C 0.85722 0.36834 0.78007 0.0
C1486 C 0.84825 0.35186 0.75654 0.0
C1487 C 0.86027 0.33411 0.74698 0.0
C1488 C 0.85174 0.31868 0.72464 0.0
C1489 C 0.83113 0.32074 0.71196 0.0
C1490 C 0.81899 0.33821 0.72168 0.0
C1491 C 0.82747 0.3537 0.74399 0.0
H1492 H 0.82454 0.30878 0.69467 0.0
H1493 H 0.9141 0.44674 0.92457 0.0
H1494 H 0.13367 0.8711 0.63983 0.0
H1495 H 0.1271 0.84939 0.69267 0.0
H1496 H 0.1102 0.9051 0.75202 0.0
H1497 H 0.1167 0.92682 0.69982 0.0
H1498 H 0.14018 0.88168 0.78573 0.0
H1499 H 0.0731 0.871 0.72693 0.0
H1500 H 0.05013 0.86008 0.67725 0.0
H1501 H 0.07473 0.79712 0.68346 0.0
H1502 H 0.09806 0.80776 0.73291 0.0
H1503 H 0.0701 0.83897 0.92503 0.0
H1504 H 0.07508 0.84516 0.86193 0.0
H1505 H 0.13846 0.821 0.86901 0.0
H1506 H 0.13342 0.81421 0.93265 0.0
H1507 H 0.08781 0.8241 0.7992 0.0
H1508 H 0.16906 0.85732 0.83034 0.0
H1509 H 0.18963 0.86978 0.88209 0.0
H1510 H 0.13283 0.89142 0.93235 0.0
H1511 H 0.11197 0.87907 0.88095 0.0
C1512 C 0.12823 0.87868 0.66398 0.0
C1513 C 0.12589 0.90073 0.66567 0.0
C1514 C 0.12451 0.86625 0.69411 0.0
C1515 C 0.11834 0.8757 0.72625 0.0
C1516 C 0.11515 0.89755 0.72752 0.0
C1517 C 0.11881 0.90993 0.69757 0.0
C1518 C 0.11626 0.86324 0.75935 0.0
C1519 C 0.12888 0.86893 0.78848 0.0
C1520 C 0.10154 0.84662 0.76295 0.0
C1521 C 0.0875 0.84023 0.73331 0.0
C1522 C 0.07375 0.85488 0.71748 0.0
C1523 C 0.06063 0.84873 0.68942 0.0
C1524 C 0.06102 0.82794 0.67713 0.0
C1525 C 0.07448 0.81323 0.69296 0.0
C1526 C 0.08764 0.81931 0.72102 0.0
C1527 C 0.08472 0.83386 0.91311 0.0
C1528 C 0.10127 0.82576 0.93394 0.0
C1529 C 0.08759 0.83758 0.87685 0.0
C1530 C 0.10713 0.83361 0.86086 0.0
C1531 C 0.12324 0.82417 0.88093 0.0
C1532 C 0.12036 0.82038 0.91725 0.0
C1533 C 0.11159 0.84272 0.82543 0.0
C1534 C 0.09947 0.83646 0.796 0.0
C1535 C 0.12654 0.85909 0.82152 0.0
C1536 C 0.13899 0.86712 0.85201 0.0
C1537 C 0.16101 0.8648 0.8524 0.0
C1538 C 0.1727 0.8718 0.88168 0.0
C1539 C 0.16255 0.88138 0.91047 0.0
C1540 C 0.14067 0.88398 0.91006 0.0
C1541 C 0.12891 0.87693 0.88092 0.0
H1542 H 0.17164 0.88681 0.93308 0.0
H1543 H 0.05085 0.82321 0.6554 0.0
H1544 H 0.63085 0.36091 0.85378 0.0
H1545 H 0.65667 0.36464 0.8057 0.0
H1546 H 0.61003 0.39635 0.74149 0.0
H1547 H 0.58436 0.39287 0.78909 0.0
H1548 H 0.65297 0.34655 0.74199 0.0
H1549 H 0.63099 0.4299 0.68586 0.0
H1550 H 0.62314 0.46529 0.70946 0.0
H1551 H 0.65706 0.45087 0.80532 0.0
H1552 H 0.66541 0.41549 0.78212 0.0
H1553 H 0.63739 0.35531 0.56133 0.0
H1554 H 0.63972 0.35347 0.62582 0.0
H1555 H 0.69318 0.39551 0.62434 0.0
H1556 H 0.69123 0.39702 0.55932 0.0
H1557 H 0.66315 0.41007 0.66701 0.0
H1558 H 0.69957 0.34606 0.65733 0.0
H1559 H 0.70849 0.31069 0.6347 0.0
H1560 H 0.64926 0.28684 0.67251 0.0
H1561 H 0.63981 0.32212 0.69489 0.0
C1562 C 0.62627 0.36912 0.82972 0.0
C1563 C 0.60551 0.37648 0.82515 0.0
C1564 C 0.64103 0.3712 0.8023 0.0
C1565 C 0.63534 0.38092 0.77018 0.0
C1566 C 0.61493 0.38915 0.7663 0.0
C1567 C 0.60019 0.387 0.7935 0.0
C1568 C 0.64944 0.38027 0.73882 0.0
C1569 C 0.65558 0.36046 0.72581 0.0
C1570 C 0.65351 0.39853 0.71836 0.0
C1571 C 0.64882 0.41998 0.73221 0.0
C1572 C 0.63695 0.43432 0.71184 0.0
C1573 C 0.63236 0.45438 0.72519 0.0
C1574 C 0.63958 0.46032 0.75887 0.0
C1575 C 0.65144 0.44623 0.77926 0.0
C1576 C 0.65608 0.42616 0.76603 0.0
C1577 C 0.65 0.36375 0.57455 0.0
C1578 C 0.66368 0.37688 0.55529 0.0
C1579 C 0.65139 0.36261 0.61151 0.0
C1580 C 0.66663 0.37437 0.62994 0.0
C1581 C 0.68122 0.38641 0.61063 0.0
C1582 C 0.67989 0.38748 0.57351 0.0
C1583 C 0.66511 0.37619 0.66915 0.0
C1584 C 0.66131 0.39623 0.68365 0.0
C1585 C 0.66344 0.35817 0.69112 0.0
C1586 C 0.66899 0.33681 0.67782 0.0
C1587 C 0.68839 0.33331 0.66066 0.0
C1588 C 0.69355 0.31326 0.64789 0.0
C1589 C 0.67946 0.29653 0.65218 0.0
C1590 C 0.66018 0.29981 0.66927 0.0
C1591 C 0.65494 0.31983 0.68209 0.0
H1592 H 0.68348 0.28102 0.64226 0.0
H1593 H 0.63599 0.47585 0.76917 0.0
H1594 H 0.12955 0.55367 0.77872 0.0
H1595 H 0.12879 0.56964 0.71966 0.0
H1596 H 0.10854 0.6286 0.76544 0.0
H1597 H 0.1099 0.61294 0.82504 0.0
H1598 H 0.08657 0.61359 0.6995 0.0
H1599 H 0.15523 0.62729 0.74895 0.0
H1600 H 0.18968 0.61927 0.77612 0.0
H1601 H 0.20533 0.57946 0.68755 0.0
H1602 H 0.17072 0.58677 0.66025 0.0
H1603 H 0.10291 0.67244 0.54353 0.0
H1604 H 0.10718 0.66333 0.60644 0.0
H1605 H 0.13735 0.605 0.57656 0.0
H1606 H 0.13272 0.61377 0.51381 0.0
H1607 H 0.15489 0.62258 0.63682 0.0
H1608 H 0.08673 0.604 0.59095 0.0
H1609 H 0.05311 0.6109 0.56014 0.0
H1610 H 0.03687 0.65709 0.63913 0.0
H1611 H 0.07058 0.65064 0.67017 0.0
C1612 C 0.12465 0.56994 0.77628 0.0
C1613 C 0.12 0.58211 0.80659 0.0
C1614 C 0.12433 0.57905 0.74254 0.0
C1615 C 0.11895 0.60032 0.7385 0.0
C1616 C 0.1129 0.61217 0.76829 0.0
C1617 C 0.11362 0.60319 0.80221 0.0
C1618 C 0.12028 0.61026 0.70317 0.0
C1619 C 0.10151 0.61594 0.68601 0.0
C1620 C 0.13981 0.61268 0.68544 0.0
C1621 C 0.16024 0.60745 0.70269 0.0
C1622 C 0.16584 0.61654 0.73552 0.0
C1623 C 0.18545 0.61219 0.75088 0.0
C1624 C 0.19971 0.59896 0.73347 0.0
C1625 C 0.1943 0.5898 0.70091 0.0
C1626 C 0.17466 0.59399 0.68554 0.0
C1627 C 0.11055 0.65775 0.55041 0.0
C1628 C 0.11684 0.64348 0.52388 0.0
C1629 C 0.11313 0.65265 0.58628 0.0
C1630 C 0.12216 0.6333 0.59597 0.0
C1631 C 0.13025 0.61997 0.56954 0.0
C1632 C 0.12761 0.62502 0.53371 0.0
C1633 C 0.1212 0.62588 0.63316 0.0
C1634 C 0.13999 0.62051 0.65055 0.0
C1635 C 0.10169 0.62334 0.6509 0.0
C1636 C 0.08127 0.62702 0.63265 0.0
C1637 C 0.07606 0.61573 0.60161 0.0
C1638 C 0.05698 0.61954 0.58413 0.0
C1639 C 0.0429 0.63448 0.5976 0.0
C1640 C 0.04782 0.64556 0.62869 0.0
C1641 C 0.0669 0.64182 0.64626 0.0
H1642 H 0.02814 0.63743 0.58401 0.0
H1643 H 0.21497 0.59582 0.74517 0.0
H1644 H 0.81282 0.125 0.5747 0.0
H1645 H 0.81211 0.12574 0.64001 0.0
H1646 H 0.85409 0.07218 0.6427 0.0
H1647 H 0.85412 0.07096 0.57805 0.0
H1648 H 0.82927 0.07053 0.69818 0.0
H1649 H 0.87199 0.12469 0.64074 0.0
H1650 H 0.87639 0.15499 0.6003 0.0
H1651 H 0.83222 0.19086 0.66225 0.0
H1652 H 0.82727 0.16057 0.7027 0.0
H1653 H 0.91196 0.08975 0.81924 0.0
H1654 H 0.88734 0.08379 0.77019 0.0
H1655 H 0.84504 0.1302 0.81416 0.0
H1656 H 0.86942 0.13594 0.86389 0.0
H1657 H 0.85931 0.13779 0.7427 0.0
H1658 H 0.82626 0.08394 0.81023 0.0
H1659 H 0.8245 0.05259 0.84884 0.0
H1660 H 0.85412 0.01533 0.76757 0.0
H1661 H 0.85636 0.04652 0.72863 0.0
C1662 C 0.82135 0.11305 0.58942 0.0
C1663 C 0.83341 0.09786 0.57145 0.0
C1664 C 0.82099 0.11349 0.62664 0.0
C1665 C 0.83336 0.09925 0.64628 0.0
C1666 C 0.84432 0.08327 0.62823 0.0
C1667 C 0.84432 0.08256 0.59115 0.0
C1668 C 0.83749 0.10251 0.68478 0.0
C1669 C 0.83572 0.08526 0.70802 0.0
C1670 C 0.8455 0.12188 0.69785 0.0
C1671 C 0.84905 0.14032 0.6744 0.0
C1672 C 0.86316 0.13903 0.64563 0.0
C1673 C 0.86571 0.15616 0.62267 0.0
C1674 C 0.85447 0.17479 0.62855 0.0
C1675 C 0.8408 0.17637 0.65759 0.0
C1676 C 0.83811 0.15923 0.68054 0.0
C1677 C 0.89718 0.09831 0.81893 0.0
C1678 C 0.89264 0.11338 0.84523 0.0
C1679 C 0.88309 0.09481 0.79103 0.0
C1680 C 0.86438 0.10652 0.78871 0.0
C1681 C 0.85935 0.12093 0.81571 0.0
C1682 C 0.87327 0.12414 0.84407 0.0
C1683 C 0.85181 0.10558 0.75563 0.0
C1684 C 0.85212 0.12328 0.73332 0.0
C1685 C 0.84292 0.08651 0.74331 0.0
C1686 C 0.84155 0.06763 0.76654 0.0
C1687 C 0.83254 0.0691 0.80067 0.0
C1688 C 0.83143 0.05135 0.82261 0.0
C1689 C 0.83921 0.03199 0.81068 0.0
C1690 C 0.84808 0.03034 0.77676 0.0
C1691 C 0.84924 0.04805 0.75472 0.0
H1692 H 0.83834 0.01826 0.82771 0.0
H1693 H 0.85651 0.18806 0.61079 0.0
H1694 H 0.41804 0.86032 0.57822 0.0
H1695 H 0.41613 0.8608 0.64264 0.0
H1696 H 0.35591 0.82923 0.63857 0.0
H1697 H 0.35775 0.82884 0.57331 0.0
H1698 H 0.35326 0.86276 0.67783 0.0
H1699 H 0.40011 0.80491 0.6766 0.0
H1700 H 0.43087 0.78367 0.65869 0.0
H1701 H 0.47251 0.83124 0.69956 0.0
H1702 H 0.44202 0.85293 0.71726 0.0
H1703 H 0.35381 0.87845 0.86498 0.0
H1704 H 0.35766 0.85587 0.81248 0.0
H1705 H 0.40752 0.89591 0.77367 0.0
H1706 H 0.40337 0.91891 0.82553 0.0
H1707 H 0.41209 0.84892 0.76178 0.0
H1708 H 0.36436 0.90931 0.74697 0.0
H1709 H 0.33355 0.93087 0.7638 0.0
H1710 H 0.29328 0.87686 0.75268 0.0
H1711 H 0.32396 0.85491 0.73635 0.0
C1712 C 0.4048 0.85266 0.5909 0.0
C1713 C 0.38827 0.84406 0.57072 0.0
C1714 C 0.40369 0.853 0.62791 0.0
C1715 C 0.38607 0.84467 0.64558 0.0
C1716 C 0.36975 0.83556 0.62551 0.0
C1717 C 0.37081 0.83534 0.58833 0.0
C1718 C 0.38371 0.8481 0.68442 0.0
C1719 C 0.36586 0.8591 0.69636 0.0
C1720 C 0.40026 0.8436 0.70861 0.0
C1721 C 0.41872 0.83059 0.69817 0.0
C1722 C 0.41582 0.81091 0.68158 0.0
C1723 C 0.43322 0.79878 0.67149 0.0
C1724 C 0.45363 0.80611 0.67796 0.0
C1725 C 0.45669 0.82557 0.69459 0.0
C1726 C 0.43934 0.83778 0.70473 0.0
C1727 C 0.36605 0.88205 0.84583 0.0
C1728 C 0.3782 0.90049 0.84906 0.0
C1729 C 0.36818 0.86917 0.8159 0.0
C1730 C 0.38278 0.87437 0.78933 0.0
C1731 C 0.39623 0.89167 0.79409 0.0
C1732 C 0.3938 0.90481 0.82357 0.0
C1733 C 0.38201 0.8639 0.75436 0.0
C1734 C 0.39926 0.85178 0.7433 0.0
C1735 C 0.36489 0.86723 0.73096 0.0
C1736 C 0.34648 0.8804 0.741 0.0
C1737 C 0.34898 0.90198 0.74855 0.0
C1738 C 0.33153 0.91428 0.75789 0.0
C1739 C 0.31148 0.90522 0.75942 0.0
C1740 C 0.30883 0.88384 0.75158 0.0
C1741 C 0.32624 0.87146 0.7423 0.0
H1742 H 0.29799 0.91478 0.76652 0.0
H1743 H 0.46708 0.79669 0.67011 0.0
H1744 H 0.40587 0.90918 0.31636 0.0
H1745 H 0.38066 0.91506 0.26814 0.0
H1746 H 0.33875 0.86895 0.31396 0.0
H1747 H 0.36371 0.86334 0.36293 0.0
H1748 H 0.3529 0.86138 0.24142 0.0
H1749 H 0.31942 0.91425 0.31055 0.0
H1750 H 0.31755 0.94528 0.34995 0.0
H1751 H 0.34622 0.9835 0.26907 0.0
H1752 H 0.34858 0.95264 0.22934 0.0
H1753 H 0.30663 0.87635 0.07254 0.0
H1754 H 0.30615 0.87387 0.13775 0.0
H1755 H 0.34737 0.92789 0.14423 0.0
H1756 H 0.34745 0.93065 0.07986 0.0
H1757 H 0.32186 0.92852 0.19861 0.0
H1758 H 0.36601 0.8756 0.14054 0.0
H1759 H 0.37239 0.84527 0.10081 0.0
H1760 H 0.32827 0.80811 0.16055 0.0
H1761 H 0.32148 0.83833 0.20042 0.0
C1762 C 0.39107 0.90067 0.31662 0.0
C1763 C 0.38677 0.88575 0.34321 0.0
C1764 C 0.37665 0.90412 0.28922 0.0
C1765 C 0.35786 0.89248 0.28771 0.0
C1766 C 0.35311 0.87817 0.31496 0.0
C1767 C 0.36736 0.87503 0.34284 0.0
C1768 C 0.34494 0.89336 0.25509 0.0
C1769 C 0.34546 0.87583 0.23239 0.0
C1770 C 0.33572 0.91237 0.24331 0.0
C1771 C 0.33423 0.93107 0.26698 0.0
C1772 C 0.32546 0.92924 0.30123 0.0
C1773 C 0.32429 0.94681 0.32362 0.0
C1774 C 0.33177 0.96635 0.31203 0.0
C1775 C 0.34041 0.96836 0.278 0.0
C1776 C 0.34163 0.95083 0.2555 0.0
C1777 C 0.31508 0.88799 0.0881 0.0
C1778 C 0.32685 0.90384 0.0712 0.0
C1779 C 0.31485 0.88655 0.12525 0.0
C1780 C 0.32694 0.90054 0.14588 0.0
C1781 C 0.33775 0.91703 0.12897 0.0
C1782 C 0.33772 0.91865 0.09202 0.0
C1783 C 0.33069 0.89682 0.18432 0.0
C1784 C 0.32851 0.9138 0.20807 0.0
C1785 C 0.3389 0.87743 0.19692 0.0
C1786 C 0.34299 0.85928 0.17305 0.0
C1787 C 0.35756 0.861 0.14501 0.0
C1788 C 0.36125 0.84384 0.12249 0.0
C1789 C 0.35062 0.82483 0.128 0.0
C1790 C 0.33639 0.82289 0.15619 0.0
C1791 C 0.33261 0.84002 0.17875 0.0
H1792 H 0.35353 0.81155 0.11058 0.0
H1793 H 0.33086 0.97993 0.32941 0.0
H1794 H 0.62681 0.37135 0.35571 0.0
H1795 H 0.62213 0.35114 0.30069 0.0
H1796 H 0.60315 0.40773 0.24588 0.0
H1797 H 0.60783 0.42807 0.30036 0.0
H1798 H 0.589 0.34533 0.24805 0.0
H1799 H 0.63357 0.41047 0.17197 0.0
H1800 H 0.65822 0.43936 0.18615 0.0
H1801 H 0.68254 0.40392 0.27442 0.0
H1802 H 0.65847 0.37463 0.26021 0.0
H1803 H 0.57376 0.34986 0.06221 0.0
H1804 H 0.57685 0.35307 0.12634 0.0
H1805 H 0.64172 0.33302 0.12073 0.0
H1806 H 0.63858 0.32924 0.05604 0.0
H1807 H 0.63768 0.3703 0.15357 0.0
H1808 H 0.60632 0.30269 0.16438 0.0
H1809 H 0.58054 0.27444 0.15269 0.0
H1810 H 0.53104 0.31287 0.19587 0.0
H1811 H 0.55645 0.34149 0.20734 0.0
C1812 C 0.62117 0.37942 0.33216 0.0
C1813 C 0.61805 0.4014 0.33226 0.0
C1814 C 0.61846 0.36782 0.30082 0.0
C1815 C 0.61266 0.37806 0.26925 0.0
C1816 C 0.60789 0.39964 0.26998 0.0
C1817 C 0.6106 0.41123 0.30116 0.0
C1818 C 0.61387 0.36699 0.23471 0.0
C1819 C 0.59968 0.35062 0.22736 0.0
C1820 C 0.62828 0.3736 0.20824 0.0
C1821 C 0.64403 0.39045 0.21524 0.0
C1822 C 0.64434 0.40875 0.19416 0.0
C1823 C 0.65817 0.42523 0.20227 0.0
C1824 C 0.6718 0.42357 0.23136 0.0
C1825 C 0.6719 0.40527 0.25202 0.0
C1826 C 0.65819 0.3887 0.2439 0.0
C1827 C 0.58838 0.34507 0.07453 0.0
C1828 C 0.6058 0.33881 0.05395 0.0
C1829 C 0.59018 0.34711 0.11138 0.0
C1830 C 0.60946 0.34309 0.12837 0.0
C1831 C 0.62666 0.33606 0.10813 0.0
C1832 C 0.62484 0.33391 0.07124 0.0
C1833 C 0.61224 0.34902 0.16621 0.0
C1834 C 0.62723 0.36458 0.17429 0.0
C1835 C 0.59868 0.34149 0.1933 0.0
C1836 C 0.58331 0.3243 0.18656 0.0
C1837 C 0.58991 0.30519 0.17115 0.0
C1838 C 0.57537 0.28909 0.1646 0.0
C1839 C 0.55416 0.29187 0.17349 0.0
C1840 C 0.54747 0.31074 0.189 0.0
C1841 C 0.56195 0.32689 0.19559 0.0
H1842 H 0.54293 0.27938 0.1684 0.0
H1843 H 0.68236 0.43643 0.23775 0.0
H1844 H 0.10369 0.64484 0.01206 0.0
H1845 H 0.09381 0.64915 0.07417 0.0
H1846 H 0.15612 0.62965 0.10661 0.0
H1847 H 0.16601 0.62502 0.044 0.0
H1848 H 0.12803 0.60723 0.13945 0.0
H1849 H 0.13705 0.68092 0.12227 0.0
H1850 H 0.13348 0.71577 0.09386 0.0
H1851 H 0.06633 0.71318 0.10713 0.0
H1852 H 0.06946 0.67819 0.13536 0.0
H1853 H 0.10018 0.62495 0.32233 0.0
H1854 H 0.11688 0.62592 0.26374 0.0
H1855 H 0.0564 0.63719 0.21479 0.0
H1856 H 0.03953 0.63628 0.27318 0.0
H1857 H 0.08726 0.66571 0.1937 0.0
H1858 H 0.07889 0.59039 0.20606 0.0
H1859 H 0.08305 0.55611 0.23618 0.0
H1860 H 0.15037 0.56285 0.23289 0.0
H1861 H 0.14659 0.59733 0.20315 0.0
C1862 C 0.11549 0.64203 0.03236 0.0
C1863 C 0.13553 0.6343 0.0233 0.0
C1864 C 0.10983 0.64456 0.06794 0.0
C1865 C 0.12424 0.6398 0.09514 0.0
C1866 C 0.14472 0.63332 0.08604 0.0
C1867 C 0.15034 0.63061 0.05035 0.0
C1868 C 0.117 0.63916 0.13264 0.0
C1869 C 0.11956 0.62024 0.15159 0.0
C1870 C 0.10549 0.65592 0.14821 0.0
C1871 C 0.10349 0.67685 0.13076 0.0
C1872 C 0.1215 0.68769 0.11889 0.0
C1873 C 0.11956 0.7075 0.1029 0.0
C1874 C 0.09969 0.71668 0.09873 0.0
C1875 C 0.08171 0.70606 0.11049 0.0
C1876 C 0.08356 0.68626 0.12653 0.0
C1877 C 0.09037 0.62731 0.29906 0.0
C1878 C 0.06852 0.63057 0.30243 0.0
C1879 C 0.09995 0.62788 0.26564 0.0
C1880 C 0.08785 0.6317 0.23506 0.0
C1881 C 0.06599 0.63431 0.23817 0.0
C1882 C 0.05636 0.63361 0.27154 0.0
C1883 C 0.09807 0.63375 0.19991 0.0
C1884 C 0.09602 0.65289 0.18155 0.0
C1885 C 0.11017 0.61729 0.18496 0.0
C1886 C 0.11245 0.59654 0.20275 0.0
C1887 C 0.09457 0.58465 0.21204 0.0
C1888 C 0.09686 0.56517 0.22898 0.0
C1889 C 0.11696 0.55734 0.23654 0.0
C1890 C 0.13481 0.56895 0.22707 0.0
C1891 C 0.13261 0.58846 0.21015 0.0
H1892 H 0.1187 0.54225 0.24966 0.0
H1893 H 0.09822 0.73203 0.0864 0.0
H1894 H 0.85831 0.12854 0.36425 0.0
H1895 H 0.86295 0.15239 0.31353 0.0
H1896 H 0.91178 0.11199 0.27201 0.0
H1897 H 0.90685 0.08782 0.32201 0.0
H1898 H 0.91777 0.15844 0.26173 0.0
H1899 H 0.86702 0.10025 0.24622 0.0
H1900 H 0.83528 0.08028 0.26362 0.0
H1901 H 0.79793 0.13652 0.2553 0.0
H1902 H 0.82958 0.15689 0.23841 0.0
H1903 H 0.92354 0.14377 0.07958 0.0
H1904 H 0.9215 0.14522 0.14392 0.0
H1905 H 0.86257 0.17898 0.13684 0.0
H1906 H 0.86452 0.17734 0.07165 0.0
H1907 H 0.85821 0.14699 0.1782 0.0
H1908 H 0.90768 0.20225 0.17501 0.0
H1909 H 0.93935 0.22193 0.15659 0.0
H1910 H 0.97886 0.17329 0.19974 0.0
H1911 H 0.94746 0.15314 0.21795 0.0
C1912 C 0.87051 0.12513 0.34491 0.0
C1913 C 0.88211 0.10627 0.34673 0.0
C1914 C 0.87312 0.13874 0.31602 0.0
C1915 C 0.88762 0.13382 0.28912 0.0
C1916 C 0.90058 0.11605 0.29269 0.0
C1917 C 0.89768 0.10222 0.32109 0.0
C1918 C 0.887 0.14486 0.25462 0.0
C1919 C 0.90476 0.15616 0.24337 0.0
C1920 C 0.86967 0.14236 0.23136 0.0
C1921 C 0.85069 0.13014 0.24158 0.0
C1922 C 0.85208 0.10839 0.24849 0.0
C1923 C 0.83411 0.097 0.25818 0.0
C1924 C 0.81461 0.10714 0.26067 0.0
C1925 C 0.81305 0.1287 0.25346 0.0
C1926 C 0.831 0.14018 0.24385 0.0
C1927 C 0.9106 0.15231 0.09152 0.0
C1928 C 0.89442 0.16088 0.07053 0.0
C1929 C 0.90941 0.15311 0.12851 0.0
C1930 C 0.89209 0.16259 0.14538 0.0
C1931 C 0.87619 0.17176 0.12444 0.0
C1932 C 0.8773 0.17082 0.08728 0.0
C1933 C 0.8894 0.16011 0.18438 0.0
C1934 C 0.87099 0.1502 0.19663 0.0
C1935 C 0.90611 0.16407 0.20853 0.0
C1936 C 0.92515 0.17614 0.1978 0.0
C1937 C 0.92312 0.19568 0.1804 0.0
C1938 C 0.94103 0.20693 0.17001 0.0
C1939 C 0.9611 0.19886 0.17698 0.0
C1940 C 0.9633 0.17953 0.1944 0.0
C1941 C 0.94544 0.16821 0.20484 0.0
H1942 H 0.97495 0.20759 0.1689 0.0
H1943 H 0.8007 0.09827 0.268 0.0
H1944 H 0.43446 0.61692 0.20636 0.0
H1945 H 0.41029 0.6091 0.25464 0.0
H1946 H 0.3575 0.62553 0.18771 0.0
H1947 H 0.3818 0.63391 0.13904 0.0
H1948 H 0.35542 0.64573 0.24914 0.0
H1949 H 0.36419 0.57414 0.21642 0.0
H1950 H 0.38367 0.54226 0.19829 0.0
H1951 H 0.41745 0.54272 0.29735 0.0
H1952 H 0.39841 0.57475 0.3159 0.0
H1953 H 0.31817 0.59374 0.42908 0.0
H1954 H 0.32161 0.59289 0.36436 0.0
H1955 H 0.36706 0.64331 0.36941 0.0
H1956 H 0.36475 0.64345 0.43403 0.0
H1957 H 0.36045 0.58409 0.32991 0.0
H1958 H 0.36019 0.67396 0.29629 0.0
H1959 H 0.34066 0.70587 0.31407 0.0
H1960 H 0.28799 0.66784 0.34604 0.0
H1961 H 0.30705 0.63572 0.32795 0.0
C1962 C 0.4177 0.61855 0.20155 0.0
C1963 C 0.41009 0.62622 0.16888 0.0
C1964 C 0.40385 0.61388 0.22919 0.0
C1965 C 0.38205 0.61652 0.22472 0.0
C1966 C 0.37427 0.62331 0.19166 0.0
C1967 C 0.38818 0.62803 0.16387 0.0
C1968 C 0.36794 0.61441 0.25597 0.0
C1969 C 0.35621 0.63211 0.26652 0.0
C1970 C 0.36857 0.59644 0.27827 0.0
C1971 C 0.37983 0.57689 0.26754 0.0
C1972 C 0.37582 0.56749 0.2343 0.0
C1973 C 0.38679 0.54939 0.22395 0.0
C1974 C 0.40179 0.54047 0.24665 0.0
C1975 C 0.4058 0.54962 0.27981 0.0
C1976 C 0.39487 0.56772 0.2903 0.0
C1977 C 0.32918 0.60441 0.41666 0.0
C1978 C 0.34193 0.61797 0.43709 0.0
C1979 C 0.33082 0.60414 0.37953 0.0
C1980 C 0.34466 0.61794 0.36221 0.0
C1981 C 0.35618 0.63258 0.38229 0.0
C1982 C 0.35483 0.63261 0.41933 0.0
C1983 C 0.34905 0.61584 0.32372 0.0
C1984 C 0.35905 0.5974 0.31193 0.0
C1985 C 0.34674 0.63306 0.30023 0.0
C1986 C 0.33512 0.65239 0.31087 0.0
C1987 C 0.34439 0.67239 0.30689 0.0
C1988 C 0.33341 0.69053 0.31708 0.0
C1989 C 0.31311 0.68888 0.33122 0.0
C1990 C 0.30373 0.66909 0.33517 0.0
C1991 C 0.31464 0.65091 0.32501 0.0
H1992 H 0.30464 0.70294 0.3391 0.0
H1993 H 0.41029 0.52647 0.23856 0.0
H1994 H 0.88119 0.38571 0.14741 0.0
H1995 H 0.89052 0.36482 0.19992 0.0
H1996 H 0.88058 0.4193 0.26673 0.0
H1997 H 0.87211 0.44033 0.21464 0.0
H1998 H 0.91216 0.39903 0.29116 0.0
H1999 H 0.84206 0.38006 0.25349 0.0
H2000 H 0.81515 0.3672 0.21133 0.0
H2001 H 0.84772 0.30808 0.20252 0.0
H2002 H 0.87498 0.32071 0.24434 0.0
H2003 H 0.86226 0.33557 0.44105 0.0
H2004 H 0.8605 0.34595 0.37869 0.0
H2005 H 0.92816 0.34177 0.37104 0.0
H2006 H 0.93032 0.33358 0.43335 0.0
H2007 H 0.87046 0.33424 0.31424 0.0
H2008 H 0.9475 0.38159 0.32686 0.0
H2009 H 0.96976 0.39651 0.37464 0.0
H2010 H 0.91512 0.4048 0.44058 0.0
H2011 H 0.8926 0.38999 0.39326 0.0
C2012 C 0.88129 0.39328 0.17326 0.0
C2013 C 0.87576 0.41465 0.17684 0.0
C2014 C 0.88653 0.3813 0.20327 0.0
C2015 C 0.8859 0.39039 0.23739 0.0
C2016 C 0.88121 0.41191 0.24074 0.0
C2017 C 0.87629 0.42393 0.21083 0.0
C2018 C 0.88902 0.3775 0.26996 0.0
C2019 C 0.90318 0.38475 0.29597 0.0
C2020 C 0.87706 0.35905 0.2767 0.0
C2021 C 0.86067 0.35141 0.25168 0.0
C2022 C 0.84355 0.36437 0.24236 0.0
C2023 C 0.82823 0.35712 0.21856 0.0
C2024 C 0.82976 0.33686 0.20417 0.0
C2025 C 0.84658 0.32379 0.21363 0.0
C2026 C 0.86197 0.33097 0.23739 0.0
C2027 C 0.8768 0.33653 0.42604 0.0
C2028 C 0.89642 0.33373 0.44297 0.0
C2029 C 0.87573 0.34232 0.39021 0.0
C2030 C 0.89425 0.34515 0.37041 0.0
C2031 C 0.91367 0.34013 0.38604 0.0
C2032 C 0.91482 0.33497 0.42207 0.0
C2033 C 0.89342 0.35591 0.33537 0.0
C2034 C 0.87973 0.34828 0.30901 0.0
C2035 C 0.90514 0.37454 0.32884 0.0
C2036 C 0.91844 0.38447 0.35669 0.0
C2037 C 0.94026 0.3867 0.35151 0.0
C2038 C 0.95293 0.39502 0.37859 0.0
C2039 C 0.9439 0.40135 0.4108 0.0
C2040 C 0.92215 0.39967 0.41581 0.0
C2041 C 0.90943 0.39132 0.38888 0.0
H2042 H 0.95374 0.40772 0.43177 0.0
H2043 H 0.81788 0.33127 0.18575 0.0
H2044 H 0.11548 0.86851 0.13817 0.0
H2045 H 0.13613 0.87722 0.19155 0.0
H2046 H 0.08432 0.85703 0.25779 0.0
H2047 H 0.06355 0.84927 0.20517 0.0
H2048 H 0.09838 0.89136 0.2827 0.0
H2049 H 0.13018 0.8264 0.24276 0.0
H2050 H 0.14824 0.80309 0.19993 0.0
H2051 H 0.20036 0.84618 0.19495 0.0
H2052 H 0.18248 0.86987 0.23746 0.0
H2053 H 0.16633 0.85272 0.43469 0.0
H2054 H 0.15791 0.8493 0.37151 0.0
H2055 H 0.1519 0.91683 0.36325 0.0
H2056 H 0.15857 0.92028 0.42628 0.0
H2057 H 0.16944 0.86186 0.30655 0.0
H2058 H 0.10716 0.92825 0.31799 0.0
H2059 H 0.08657 0.94665 0.36434 0.0
H2060 H 0.09086 0.89232 0.43205 0.0
H2061 H 0.11107 0.87346 0.38586 0.0
C2062 C 0.10856 0.86603 0.16419 0.0
C2063 C 0.08785 0.85839 0.16751 0.0
C2064 C 0.12038 0.8709 0.19463 0.0
C2065 C 0.11181 0.86772 0.22874 0.0
C2066 C 0.09123 0.85986 0.23185 0.0
C2067 C 0.07935 0.8554 0.20166 0.0
C2068 C 0.12385 0.87264 0.26159 0.0
C2069 C 0.114 0.88504 0.2877 0.0
C2070 C 0.14413 0.86423 0.26841 0.0
C2071 C 0.15489 0.85001 0.24292 0.0
C2072 C 0.14542 0.83097 0.23231 0.0
C2073 C 0.15564 0.81769 0.20814 0.0
C2074 C 0.1754 0.82319 0.19464 0.0
C2075 C 0.18503 0.84196 0.20537 0.0
C2076 C 0.17487 0.85532 0.22951 0.0
C2077 C 0.16372 0.86689 0.41923 0.0
C2078 C 0.16326 0.88676 0.43586 0.0
C2079 C 0.15905 0.86492 0.38304 0.0
C2080 C 0.15391 0.88279 0.36287 0.0
C2081 C 0.15559 0.9028 0.37848 0.0
C2082 C 0.15982 0.90476 0.41476 0.0
C2083 C 0.14378 0.88028 0.32759 0.0
C2084 C 0.15398 0.86846 0.30113 0.0
C2085 C 0.12339 0.8885 0.32088 0.0
C2086 C 0.1109 0.89957 0.34864 0.0
C2087 C 0.10364 0.92022 0.34272 0.0
C2088 C 0.09203 0.93071 0.36896 0.0
C2089 C 0.08749 0.92069 0.40117 0.0
C2090 C 0.09444 0.90009 0.40713 0.0
C2091 C 0.10597 0.88949 0.38093 0.0
H2092 H 0.07854 0.92887 0.42147 0.0
H2093 H 0.18329 0.81288 0.17593 0.0
H2094 H 0.63125 0.11099 0.15147 0.0
H2095 H 0.62664 0.12974 0.20775 0.0
H2096 H 0.61975 0.07044 0.26272 0.0
H2097 H 0.62394 0.05158 0.20662 0.0
H2098 H 0.59449 0.09861 0.29152 0.0
H2099 H 0.66657 0.09445 0.25957 0.0
H2100 H 0.69799 0.09818 0.22156 0.0
H2101 H 0.69036 0.16542 0.22137 0.0
H2102 H 0.65848 0.16207 0.25857 0.0
H2103 H 0.6413 0.12552 0.45932 0.0
H2104 H 0.64231 0.11409 0.39724 0.0
H2105 H 0.60926 0.17045 0.36574 0.0
H2106 H 0.60796 0.18199 0.42825 0.0
H2107 H 0.65357 0.14608 0.32477 0.0
H2108 H 0.57701 0.14479 0.35952 0.0
H2109 H 0.55072 0.1359 0.40553 0.0
H2110 H 0.57354 0.07221 0.40834 0.0
H2111 H 0.60021 0.08084 0.36274 0.0
C2112 C 0.62835 0.10193 0.1754 0.0
C2113 C 0.62827 0.07976 0.17458 0.0
C2114 C 0.62581 0.11268 0.20757 0.0
C2115 C 0.62329 0.10147 0.23949 0.0
C2116 C 0.62178 0.07941 0.23842 0.0
C2117 C 0.62425 0.06865 0.20628 0.0
C2118 C 0.62378 0.11255 0.27422 0.0
C2119 C 0.60732 0.10914 0.29852 0.0
C2120 C 0.6408 0.12587 0.28389 0.0
C2121 C 0.65993 0.12799 0.2614 0.0
C2122 C 0.67142 0.11002 0.25105 0.0
C2123 C 0.68933 0.11206 0.22967 0.0
C2124 C 0.69615 0.13201 0.219 0.0
C2125 C 0.68503 0.14997 0.22961 0.0
C2126 C 0.667 0.14801 0.25076 0.0
C2127 C 0.63464 0.13572 0.43912 0.0
C2128 C 0.62436 0.15454 0.44852 0.0
C2129 C 0.63519 0.12914 0.40376 0.0
C2130 C 0.62572 0.14138 0.37725 0.0
C2131 C 0.61655 0.16081 0.3861 0.0
C2132 C 0.61574 0.1673 0.42166 0.0
C2133 C 0.62393 0.13277 0.34098 0.0
C2134 C 0.6404 0.1362 0.31691 0.0
C2135 C 0.60734 0.11893 0.33195 0.0
C2136 C 0.59066 0.1135 0.35796 0.0
C2137 C 0.57647 0.12892 0.37008 0.0
C2138 C 0.5615 0.12392 0.39605 0.0
C2139 C 0.56048 0.1035 0.40985 0.0
C2140 C 0.57434 0.088 0.39758 0.0
C2141 C 0.58937 0.09294 0.37166 0.0
H2142 H 0.54893 0.09968 0.42999 0.0
H2143 H 0.71008 0.13356 0.20259 0.0
H2144 H 0.57525 0.04815 0.05153 0.0
H2145 H 0.53854 0.03701 0.04399 0.0
H2146 H 0.55813 0.99053 0.96691 0.0
H2147 H 0.595 0.00169 0.97463 0.0
H2148 H 0.51964 0.011 0.94943 0.0
H2149 H 0.5516 0.97398 0.04597 0.0
H2150 H 0.57205 0.9704 0.10144 0.0
H2151 H 0.5261 0.0075 0.15726 0.0
H2152 H 0.50543 0.01146 0.10199 0.0
H2153 H 0.43075 0.94492 0.95986 0.0
H2154 H 0.46765 0.95509 0.96901 0.0
H2155 H 0.44773 0.00616 0.03697 0.0
H2156 H 0.41068 0.99615 0.02729 0.0
H2157 H 0.4866 0.98247 0.05919 0.0
H2158 H 0.45619 0.02097 0.9594 0.0
H2159 H 0.43699 0.02432 0.90251 0.0
H2160 H 0.48093 0.98223 0.85248 0.0
H2161 H 0.50049 0.97877 0.90903 0.0
C2162 C 0.57157 0.03606 0.03211 0.0
C2163 C 0.58772 0.0259 0.01326 0.0
C2164 C 0.5507 0.02957 0.0281 0.0
C2165 C 0.54573 0.01279 0.00525 0.0
C2166 C 0.5617 0.00352 0.98466 0.0
C2167 C 0.58265 0.00993 0.98888 0.0
C2168 C 0.52415 0.00398 0.00498 0.0
C2169 C 0.51251 0.00454 0.9733 0.0
C2170 C 0.51484 0.99571 0.03628 0.0
C2171 C 0.52707 0.9932 0.06973 0.0
C2172 C 0.54592 0.98151 0.07001 0.0
C2173 C 0.55755 0.97939 0.10143 0.0
C2174 C 0.55045 0.9888 0.13283 0.0
C2175 C 0.53162 0.00025 0.13291 0.0
C2176 C 0.51991 0.00241 0.10155 0.0
C2177 C 0.43436 0.9578 0.97783 0.0
C2178 C 0.4181 0.96959 0.99342 0.0
C2179 C 0.45535 0.9637 0.98275 0.0
C2180 C 0.46031 0.98144 0.00343 0.0
C2181 C 0.44414 0.99237 0.02105 0.0
C2182 C 0.42309 0.9866 0.01575 0.0
C2183 C 0.48209 0.98969 0.00372 0.0
C2184 C 0.49377 0.98895 0.03538 0.0
C2185 C 0.49154 0.99761 0.97234 0.0
C2186 C 0.47967 0.99946 0.93848 0.0
C2187 C 0.46166 0.01232 0.93632 0.0
C2188 C 0.45078 0.01431 0.90411 0.0
C2189 C 0.45767 0.00341 0.87396 0.0
C2190 C 0.47558 0.99063 0.87588 0.0
C2191 C 0.48662 0.98871 0.90794 0.0
H2192 H 0.4492 0.00493 0.84908 0.0
H2193 H 0.55952 0.98718 0.15708 0.0
H2194 H 0.50349 0.415 0.98834 0.0
H2195 H 0.49396 0.45152 0.00271 0.0
H2196 H 0.55565 0.47222 0.96939 0.0
H2197 H 0.56511 0.43571 0.95482 0.0
H2198 H 0.54043 0.49394 0.02954 0.0
H2199 H 0.51793 0.47544 0.91136 0.0
H2200 H 0.50007 0.4535 0.8663 0.0
H2201 H 0.44085 0.46298 0.91925 0.0
H2202 H 0.45841 0.48487 0.96482 0.0
H2203 H 0.51422 0.6011 0.00647 0.0
H2204 H 0.52588 0.56541 0.99061 0.0
H2205 H 0.46407 0.54134 0.01606 0.0
H2206 H 0.45243 0.577 0.03157 0.0
H2207 H 0.48051 0.52159 0.95841 0.0
H2208 H 0.50316 0.53999 0.07691 0.0
H2209 H 0.52108 0.56194 0.12177 0.0
H2210 H 0.58022 0.55248 0.06869 0.0
H2211 H 0.56258 0.5307 0.02307 0.0
C2212 C 0.51516 0.42732 0.98518 0.0
C2213 C 0.53503 0.4227 0.97084 0.0
C2214 C 0.50969 0.44812 0.99308 0.0
C2215 C 0.52403 0.46454 0.98661 0.0
C2216 C 0.5444 0.45975 0.97456 0.0
C2217 C 0.54983 0.43894 0.96647 0.0
C2218 C 0.51717 0.48676 0.9896 0.0
C2219 C 0.52751 0.50009 0.01371 0.0
C2220 C 0.50015 0.49464 0.96917 0.0
C2221 C 0.48951 0.48163 0.94167 0.0
C2222 C 0.50112 0.47275 0.91352 0.0
C2223 C 0.49104 0.46037 0.88783 0.0
C2224 C 0.46935 0.4568 0.88997 0.0
C2225 C 0.45766 0.46573 0.91767 0.0
C2226 C 0.46765 0.47816 0.94339 0.0
C2227 C 0.50303 0.58822 0.00755 0.0
C2228 C 0.48242 0.59167 0.01972 0.0
C2229 C 0.50971 0.56788 -0.00112 0.0
C2230 C 0.49592 0.5507 0.00274 0.0
C2231 C 0.47495 0.55437 0.01289 0.0
C2232 C 0.46826 0.57471 0.0215 0.0
C2233 C 0.50364 0.52879 -0.00141 0.0
C2234 C 0.49347 0.5155 0.9742 0.0
C2235 C 0.52083 0.52097 0.01878 0.0
C2236 C 0.53151 0.53389 0.04636 0.0
C2237 C 0.51996 0.54269 0.07466 0.0
C2238 C 0.53009 0.55506 0.10029 0.0
C2239 C 0.55177 0.55863 0.09811 0.0
C2240 C 0.56341 0.54973 0.07033 0.0
C2241 C 0.55337 0.53736 0.04458 0.0
H2242 H 0.55955 0.56827 0.11797 0.0
H2243 H 0.46159 0.44716 0.87011 0.0
H2244 H 0.06264 0.55932 0.93607 0.0
H2245 H 0.02618 0.54812 0.94621 0.0
H2246 H 0.04773 0.50246 0.02313 0.0
H2247 H 0.08428 0.51402 0.01349 0.0
H2248 H 0.02155 0.48575 0.96891 0.0
H2249 H 0.02213 0.54358 0.05223 0.0
H2250 H 0.02776 0.58043 0.07082 0.0
H2251 H 0.98225 0.60133 0.99392 0.0
H2252 H 0.97657 0.5646 0.9745 0.0
H2253 H 0.92542 0.45293 0.0454 0.0
H2254 H 0.96076 0.46509 0.02974 0.0
H2255 H 0.93371 0.51571 0.96791 0.0
H2256 H 0.89821 0.50375 0.98465 0.0
H2257 H 0.96247 0.53058 0.0108 0.0
H2258 H 0.96044 0.47377 0.92804 0.0
H2259 H 0.95459 0.43735 0.90729 0.0
H2260 H 0.00222 0.41497 0.97915 0.0
H2261 H 0.00826 0.45123 0.00058 0.0
C2262 C 0.05947 0.5474 0.956 0.0
C2263 C 0.07608 0.53773 0.97455 0.0
C2264 C 0.03872 0.5409 0.96155 0.0
C2265 C 0.03432 0.52449 0.98542 0.0
C2266 C 0.05086 0.51516 0.00461 0.0
C2267 C 0.07162 0.52184 -0.00066 0.0
C2268 C 0.0126 0.51631 0.98879 0.0
C2269 C 0.00863 0.49541 0.97851 0.0
C2270 C 0.99573 0.52926 -7e-05 0.0
C2271 C 0.99908 0.55135 0.01166 0.0
C2272 C 0.01346 0.55604 0.03906 0.0
C2273 C 0.01663 0.57691 0.0498 0.0
C2274 C 0.00541 0.59322 0.0335 0.0
C2275 C 0.99095 0.58869 0.00649 0.0
C2276 C 0.98774 0.56785 0.99563 0.0
C2277 C 0.92711 0.46627 0.02762 0.0
C2278 C 0.90931 0.47728 0.01567 0.0
C2279 C 0.94725 0.47323 0.01868 0.0
C2280 C 0.94991 0.4912 0.99732 0.0
C2281 C 0.93203 0.50178 0.98433 0.0
C2282 C 0.91182 0.49489 0.99357 0.0
C2283 C 0.97132 0.49985 0.99125 0.0
C2284 C 0.97529 0.52087 0.00096 0.0
C2285 C 0.98816 0.48707 0.97914 0.0
C2286 C 0.9847 0.46523 0.96611 0.0
C2287 C 0.96958 0.46107 0.9396 0.0
C2288 C 0.96624 0.44045 0.92769 0.0
C2289 C 0.97796 0.42385 0.94199 0.0
C2290 C 0.99313 0.42784 0.96812 0.0
C2291 C 0.99656 0.44844 0.9801 0.0
H2292 H 0.97533 0.4079 0.93277 0.0
H2293 H 0.00788 0.60937 0.04186 0.0
H2294 H 0.05115 0.91889 0.04617 0.0
H2295 H 0.03931 0.95533 0.03759 0.0
H2296 H 0.9886 0.9333 0.97061 0.0
H2297 H 0.00053 0.89681 0.9792 0.0
H2298 H 0.00614 0.97112 0.94682 0.0
H2299 H 0.97799 0.94158 0.05414 0.0
H2300 H 0.97942 0.9234 0.11212 0.0
H2301 H 0.01917 0.97233 0.15377 0.0
H2302 H 0.01806 0.99077 0.09594 0.0
H2303 H 0.93812 0.05799 0.96153 0.0
H2304 H 0.95035 0.02178 0.97132 0.0
H2305 H 0.00346 0.04538 0.03099 0.0
H2306 H 0.99128 0.08167 0.02084 0.0
H2307 H 0.98465 0.00686 0.05877 0.0
H2308 H 0.01339 0.03542 0.94889 0.0
H2309 H 0.01129 0.05275 0.89014 0.0
H2310 H 0.96867 0.00487 0.85348 0.0
H2311 H 0.97058 0.98721 0.91194 0.0
C2312 C 0.03797 0.92198 0.02856 0.0
C2313 C 0.02684 0.90527 0.01291 0.0
C2314 C 0.03108 0.9427 0.02401 0.0
C2315 C 0.0129 0.94692 0.00393 0.0
C2316 C 0.00265 0.93033 0.98623 0.0
C2317 C 0.00951 0.90958 0.99091 0.0
C2318 C 0.00364 0.96833 0.00378 0.0
C2319 C 0.00125 0.97884 0.97123 0.0
C2320 C 0.99745 0.97845 0.03574 0.0
C2321 C 0.99811 0.96745 0.0706 0.0
C2322 C 0.98717 0.94839 0.07558 0.0
C2323 C 0.98789 0.93805 0.10843 0.0
C2324 C 0.99946 0.94665 0.13655 0.0
C2325 C 0.01025 0.96567 0.13193 0.0
C2326 C 0.00954 0.9761 0.09915 0.0
C2327 C 0.9519 0.05532 0.97796 0.0
C2328 C 0.96363 0.07241 0.991 0.0
C2329 C 0.95901 0.03473 0.98316 0.0
C2330 C 0.97793 0.031 0.00148 0.0
C2331 C 0.98882 0.04799 0.01682 0.0
C2332 C 0.98179 0.06863 0.01132 0.0
C2333 C 0.98725 0.00963 0.00183 0.0
C2334 C 0.98961 0.99913 0.0344 0.0
C2335 C 0.99326 0.99943 0.96988 0.0
C2336 C 0.99197 0.01012 0.93485 0.0
C2337 C 0.00347 0.02867 0.92836 0.0
C2338 C 0.00238 0.0385 0.89509 0.0
C2339 C 0.98979 0.02997 0.86818 0.0
C2340 C 0.97838 0.01149 0.87438 0.0
C2341 C 0.97952 0.00152 0.90751 0.0
H2342 H 0.98893 0.03766 0.8425 0.0
H2343 H 2e-05 0.93861 0.16194 0.0
H2344 H 0.40887 0.50855 0.4859 0.0
H2345 H 0.44441 0.49379 0.47914 0.0
H2346 H 0.47054 0.54823 0.53198 0.0
H2347 H 0.43498 0.56271 0.53957 0.0
H2348 H 0.49483 0.53253 0.47221 0.0
H2349 H 0.46391 0.50912 0.58258 0.0
H2350 H 0.43638 0.49345 0.6206 0.0
H2351 H 0.43951 0.43595 0.56051 0.0
H2352 H 0.46717 0.45127 0.5222 0.0
H2353 H 0.59282 0.49093 0.52294 0.0
H2354 H 0.55733 0.50515 0.53278 0.0
H2355 H 0.53049 0.45105 0.47995 0.0
H2356 H 0.56599 0.43704 0.4695 0.0
H2357 H 0.50659 0.46661 0.54076 0.0
H2358 H 0.53528 0.49086 0.42785 0.0
H2359 H 0.56197 0.50683 0.38839 0.0
H2360 H 0.563 0.56242 0.45363 0.0
H2361 H 0.53599 0.54691 0.49307 0.0
C2362 C 0.42232 0.51766 0.49482 0.0
C2363 C 0.41936 0.53677 0.51294 0.0
C2364 C 0.44251 0.50914 0.49136 0.0
C2365 C 0.45996 0.5198 0.50561 0.0
C2366 C 0.45721 0.53978 0.52094 0.0
C2367 C 0.43698 0.54814 0.52487 0.0
C2368 C 0.4808 0.50944 0.50685 0.0
C2369 C 0.49747 0.51827 0.48752 0.0
C2370 C 0.4841 0.49067 0.52646 0.0
C2371 C 0.4674 0.48144 0.54925 0.0
C2372 C 0.45861 0.49319 0.5773 0.0
C2373 C 0.44306 0.48434 0.59901 0.0
C2374 C 0.43607 0.46379 0.59279 0.0
C2375 C 0.44486 0.45192 0.56518 0.0
C2376 C 0.46053 0.46064 0.54355 0.0
C2377 C 0.57926 0.48173 0.51475 0.0
C2378 C 0.58198 0.46291 0.4957 0.0
C2379 C 0.55908 0.48993 0.52002 0.0
C2380 C 0.5414 0.47927 0.50657 0.0
C2381 C 0.54398 0.45949 0.49045 0.0
C2382 C 0.5642 0.45141 0.48482 0.0
C2383 C 0.52058 0.48971 0.50609 0.0
C2384 C 0.50393 0.48089 0.52553 0.0
C2385 C 0.51726 0.5085 0.48659 0.0
C2386 C 0.53382 0.51767 0.46354 0.0
C2387 C 0.5413 0.50644 0.43386 0.0
C2388 C 0.55638 0.51545 0.41139 0.0
C2389 C 0.56427 0.53557 0.41863 0.0
C2390 C 0.55692 0.54681 0.44812 0.0
C2391 C 0.54164 0.53798 0.47041 0.0
H2392 H 0.57604 0.54246 0.40134 0.0
H2393 H 0.42386 0.45705 0.60935 0.0
H2394 H 0.00057 0.58433 0.50828 0.0
H2395 H 0.99127 0.54757 0.52146 0.0
H2396 H 0.03724 0.5263 0.44474 0.0
H2397 H 0.04629 0.56303 0.43134 0.0
H2398 H 0.99944 0.5081 0.43394 0.0
H2399 H 0.04558 0.51959 0.53273 0.0
H2400 H 0.05953 0.53749 0.58602 0.0
H2401 H 0.00084 0.52738 0.64025 0.0
H2402 H 0.98638 0.50974 0.58704 0.0
H2403 H 0.99658 0.39853 0.48337 0.0
H2404 H 0.00626 0.43501 0.4684 0.0
H2405 H 0.95852 0.458 0.54045 0.0
H2406 H 0.94884 0.42159 0.55516 0.0
H2407 H 0.99787 0.47494 0.55344 0.0
H2408 H 0.95099 0.46603 0.45393 0.0
H2409 H 0.93647 0.4487 0.4005 0.0
H2410 H 0.99662 0.45345 0.34877 0.0
H2411 H 0.01147 0.47096 0.40187 0.0
C2412 C 0.00895 0.57171 0.49495 0.0
C2413 C 0.02429 0.57629 0.46926 0.0
C2414 C 0.00366 0.55079 0.5024 0.0
C2415 C 0.01365 0.53421 0.48419 0.0
C2416 C 0.02938 0.53885 0.45912 0.0
C2417 C 0.03467 0.55975 0.45173 0.0
C2418 C 0.00676 0.51213 0.4896 0.0
C2419 C 0.99942 0.50073 0.46001 0.0
C2420 C 0.00622 0.50274 0.52373 0.0
C2421 C 0.01482 0.51352 0.55571 0.0
C2422 C 0.03556 0.52137 0.55587 0.0
C2423 C 0.04358 0.53144 0.5861 0.0
C2424 C 0.03106 0.53361 0.61648 0.0
C2425 C 0.01051 0.52571 0.61669 0.0
C2426 C 0.00239 0.51567 0.5865 0.0
C2427 C 0.98787 0.41145 0.49515 0.0
C2428 C 0.97187 0.40751 0.51997 0.0
C2429 C 0.99338 0.4322 0.48672 0.0
C2430 C 0.98308 0.44916 0.50335 0.0
C2431 C 0.96663 0.44512 0.52735 0.0
C2432 C 0.96102 0.42442 0.53552 0.0
C2433 C 0.99049 0.47103 0.49785 0.0
C2434 C 0.99795 0.48235 0.52741 0.0
C2435 C 0.99114 0.48036 0.46375 0.0
C2436 C 0.98238 0.46962 0.43197 0.0
C2437 C 0.96115 0.46325 0.43125 0.0
C2438 C 0.95284 0.4535 0.40096 0.0
C2439 C 0.96563 0.44991 0.37131 0.0
C2440 C 0.98673 0.45621 0.37178 0.0
C2441 C 0.99509 0.46614 0.4019 0.0
H2442 H 0.95918 0.44226 0.34796 0.0
H2443 H 0.03731 0.54137 0.63988 0.0
H2444 H 0.07217 0.93883 0.5283 0.0
H2445 H 0.03663 0.95152 0.51466 0.0
H2446 H 0.06295 0.00823 0.46946 0.0
H2447 H 0.09859 0.99532 0.48269 0.0
H2448 H 0.03484 0.01613 0.52327 0.0
H2449 H 0.03706 0.97539 0.417 0.0
H2450 H 0.04258 0.94389 0.3797 0.0
H2451 H 0.99386 0.91124 0.43661 0.0
H2452 H 0.98822 0.94245 0.47465 0.0
H2453 H 0.93599 0.05837 0.46381 0.0
H2454 H 0.97218 0.04599 0.47285 0.0
H2455 H 0.9484 0.98734 0.51492 0.0
H2456 H 0.91217 -0.00021 0.50576 0.0
H2457 H 0.97567 0.98105 0.46051 0.0
H2458 H 0.97453 0.0219 0.56807 0.0
H2459 H 0.96958 0.05354 0.60528 0.0
H2460 H 0.01685 0.08625 0.54501 0.0
H2461 H 0.02189 0.05488 0.50711 0.0
C2462 C 0.07035 0.95357 0.51406 0.0
C2463 C 0.08798 0.96608 0.5062 0.0
C2464 C 0.05007 0.96087 0.50648 0.0
C2465 C 0.04717 0.98085 0.49118 0.0
C2466 C 0.06487 0.99278 0.48131 0.0
C2467 C 0.08516 0.98537 0.48858 0.0
C2468 C 0.02581 0.99021 0.48945 0.0
C2469 C 0.02195 0.00869 0.50899 0.0
C2470 C 0.00896 0.98011 0.47167 0.0
C2471 C 0.01235 0.96123 0.44895 0.0
C2472 C 0.02765 0.96143 0.42183 0.0
C2473 C 0.03078 0.94364 0.40049 0.0
C2474 C 0.01863 0.92555 0.40587 0.0
C2475 C 0.00328 0.92525 0.43252 0.0
C2476 C 9e-05 0.943 0.45396 0.0
C2477 C 0.93857 0.04322 0.47641 0.0
C2478 C 0.92145 0.03012 0.48473 0.0
C2479 C 0.95921 0.03608 0.4813 0.0
C2480 C 0.96299 0.01571 0.49451 0.0
C2481 C 0.94583 0.00309 0.50467 0.0
C2482 C 0.9252 0.01027 0.49987 0.0
C2483 C 0.98465 0.00691 0.49457 0.0
C2484 C 0.98856 0.98852 0.47469 0.0
C2485 C 0.00159 0.01713 0.51195 0.0
C2486 C 0.99841 0.0361 0.53447 0.0
C2487 C 0.98371 0.03591 0.56249 0.0
C2488 C 0.98093 0.05378 0.58377 0.0
C2489 C 0.99284 0.07192 0.57743 0.0
C2490 C 0.00758 0.07221 0.54981 0.0
C2491 C 0.01043 0.05438 0.52847 0.0
H2492 H 0.99069 0.08573 0.59398 0.0
H2493 H 0.02109 0.91179 0.38934 0.0
H2494 H 0.47919 0.91812 0.52731 0.0
H2495 H 0.49399 0.95319 0.53968 0.0
H2496 H 0.45511 0.97974 0.45678 0.0
H2497 H 0.44015 0.9448 0.44492 0.0
H2498 H 0.4978 0.98621 0.44622 0.0
H2499 H 0.44677 0.99558 0.53632 0.0
H2500 H 0.42531 0.98946 0.58994 0.0
H2501 H 0.48106 0.99046 0.65472 0.0
H2502 H 0.50295 0.99618 0.60138 0.0
H2503 H 0.52119 0.09595 0.4806 0.0
H2504 H 0.50622 0.06112 0.46755 0.0
H2505 H 0.54818 0.03308 0.54452 0.0
H2506 H 0.56346 0.06787 0.55689 0.0
H2507 H 0.504 0.02765 0.55766 0.0
H2508 H 0.55456 0.0189 0.46376 0.0
H2509 H 0.57376 0.02923 0.40947 0.0
H2510 H 0.51564 0.03072 0.35092 0.0
H2511 H 0.49604 0.02063 0.40501 0.0
C2512 C 0.4732 0.93167 0.51296 0.0
C2513 C 0.45845 0.92902 0.48554 0.0
C2514 C 0.4817 0.95161 0.51982 0.0
C2515 C 0.47571 0.96899 0.49896 0.0
C2516 C 0.45993 0.96652 0.47313 0.0
C2517 C 0.45127 0.94667 0.4666 0.0
C2518 C 0.48776 0.98894 0.5009 0.0
C2519 C 0.49891 0.99544 0.47048 0.0
C2520 C 0.48951 0.0007 0.53273 0.0
C2521 C 0.47657 0.99592 0.56467 0.0
C2522 C 0.45453 0.99404 0.56187 0.0
C2523 C 0.44226 0.99076 0.59227 0.0
C2524 C 0.45182 0.98947 0.6257 0.0
C2525 C 0.47368 0.99139 0.62879 0.0
C2526 C 0.48603 0.99462 0.59846 0.0
C2527 C 0.52788 0.08215 0.49327 0.0
C2528 C 0.54369 0.0843 0.51908 0.0
C2529 C 0.51924 0.06235 0.4861 0.0
C2530 C 0.5261 0.04462 0.50519 0.0
C2531 C 0.54278 0.04661 0.52947 0.0
C2532 C 0.55163 0.06635 0.53622 0.0
C2533 C 0.51407 0.02472 0.50319 0.0
C2534 C 0.50291 0.01828 0.53355 0.0
C2535 C 0.51204 0.01323 0.4712 0.0
C2536 C 0.5238 0.0192 0.43856 0.0
C2537 C 0.54584 0.02161 0.4394 0.0
C2538 C 0.5568 0.02737 0.40863 0.0
C2539 C 0.54592 0.0307 0.37679 0.0
C2540 C 0.52405 0.02817 0.37562 0.0
C2541 C 0.51301 0.02239 0.40632 0.0
H2542 H 0.55444 0.03519 0.35301 0.0
H2543 H 0.44228 0.98708 0.64923 0.0
loop_
_geom_bond_atom_site_label_1
_geom_bond_atom_site_label_2
_geom_bond_distance
_geom_bond_site_symmetry_2
_ccdc_geom_bond_type
Co0 O3 1.970 . S
Co0 N17 1.989 . S
Co0 O25 1.967 . S
Co0 O32 1.920 . S
Co1 O4 1.966 . S
Co1 N10 2.022 . S
Co1 N18 1.993 . S
Co1 O26 1.941 . S
C2 O3 1.258 . S
C2 O4 1.263 . S
O3 Co0 1.970 . S
O3 C2 1.258 . S
O4 Co1 1.966 . S
O4 C2 1.263 . S
C5 O6 1.235 . S
C5 O32 1.289 1_565 S
O6 C5 1.235 . S
C7 C9 1.400 1_554 S
C7 N10 1.351 . S
C7 C12 1.501 . S
C8 C9 1.387 1_554 S
C8 N11 1.341 . S
C9 C7 1.400 1_556 S
C9 C8 1.387 1_556 S
N10 Co1 2.022 . S
N10 C7 1.351 . S
N10 N11 1.365 . S
N11 C8 1.341 . S
N11 N10 1.365 . S
N11 H31 0.862 . S
C12 C7 1.501 . S
C12 H13 0.961 . S
C12 H14 0.961 . S
C12 H15 0.960 . S
H13 C12 0.961 . S
H14 C12 0.961 . S
H15 C12 0.960 . S
C16 N17 1.342 . S
C16 C20 1.401 . S
C16 C21 1.499 . S
N17 Co0 1.989 . S
N17 C16 1.342 . S
N17 N18 1.388 . S
N18 Co1 1.993 . S
N18 N17 1.388 . S
N18 C19 1.346 . S
C19 N18 1.346 . S
C19 C20 1.396 . S
C19 C29 1.510 . S
C20 C16 1.401 . S
C20 C19 1.396 . S
C21 C16 1.499 . S
C21 H22 0.959 . S
C21 H23 0.960 1_545 S
C21 H24 0.961 . S
H22 C21 0.959 . S
H23 C21 0.960 1_565 S
H24 C21 0.961 . S
O25 Co0 1.967 . S
O25 C33 1.258 . S
O26 Co1 1.941 . S
O26 C33 1.266 . S
H27 C29 0.959 . S
H28 C29 0.961 1_556 S
C29 C19 1.510 . S
C29 H27 0.959 . S
C29 H28 0.961 1_554 S
C29 H30 0.960 . S
H30 C29 0.960 . S
H31 N11 0.862 . S
O32 Co0 1.920 . S
O32 C5 1.289 1_545 S
C33 O25 1.258 . S
C33 O26 1.266 . S
Co34 O37 1.970 . S
Co34 N51 1.989 . S
Co34 O59 1.967 . S
Co34 O66 1.920 . S
Co35 O38 1.966 . S
Co35 N44 2.022 . S
Co35 N52 1.993 . S
Co35 O60 1.941 . S
C36 O37 1.258 . S
C36 O38 1.263 . S
O37 Co34 1.970 . S
O37 C36 1.258 . S
O38 Co35 1.966 . S
O38 C36 1.263 . S
C39 O40 1.235 . S
C39 O66 1.289 . S
O40 C39 1.235 . S
C41 C43 1.400 1_554 S
C41 N44 1.351 . S
C41 C46 1.501 . S
C42 C43 1.387 1_554 S
C42 N45 1.341 . S
C43 C41 1.400 1_556 S
C43 C42 1.387 1_556 S
N44 Co35 2.022 . S
N44 C41 1.351 . S
N44 N45 1.365 . S
N45 C42 1.341 . S
N45 N44 1.365 . S
N45 H65 0.862 . S
C46 C41 1.501 . S
C46 H47 0.961 . S
C46 H48 0.961 . S
C46 H49 0.960 . S
H47 C46 0.961 . S
H48 C46 0.961 . S
H49 C46 0.960 . S
C50 N51 1.342 . S
C50 C54 1.401 . S
C50 C55 1.499 . S
N51 Co34 1.989 . S
N51 C50 1.342 . S
N51 N52 1.388 . S
N52 Co35 1.993 . S
N52 N51 1.388 . S
N52 C53 1.346 . S
C53 N52 1.346 . S
C53 C54 1.396 . S
C53 C63 1.510 . S
C54 C50 1.401 . S
C54 C53 1.396 . S
C55 C50 1.499 . S
C55 H56 0.959 . S
C55 H57 0.960 . S
C55 H58 0.961 . S
H56 C55 0.959 . S
H57 C55 0.960 . S
H58 C55 0.961 . S
O59 Co34 1.967 . S
O59 C67 1.258 . S
O60 Co35 1.941 . S
O60 C67 1.266 . S
H61 C63 0.959 . S
H62 C63 0.961 1_556 S
C63 C53 1.510 . S
C63 H61 0.959 . S
C63 H62 0.961 1_554 S
C63 H64 0.960 . S
H64 C63 0.960 . S
H65 N45 0.862 . S
O66 Co34 1.920 . S
O66 C39 1.289 . S
C67 O59 1.258 . S
C67 O60 1.266 . S
Co68 O71 1.970 . S
Co68 N85 1.989 . S
Co68 O93 1.967 . S
Co68 O100 1.920 . S
Co69 O72 1.966 . S
Co69 N78 2.022 . S
Co69 N86 1.993 . S
Co69 O94 1.941 . S
C70 O71 1.258 . S
C70 O72 1.263 . S
O71 Co68 1.970 . S
O71 C70 1.258 . S
O72 Co69 1.966 . S
O72 C70 1.263 . S
C73 O74 1.235 . S
C73 O100 1.289 . S
O74 C73 1.235 . S
C75 C77 1.400 1_554 S
C75 N78 1.351 . S
C75 C80 1.501 . S
C76 C77 1.387 1_554 S
C76 N79 1.341 . S
C77 C75 1.400 1_556 S
C77 C76 1.387 1_556 S
N78 Co69 2.022 . S
N78 C75 1.351 . S
N78 N79 1.365 . S
N79 C76 1.341 . S
N79 N78 1.365 . S
N79 H99 0.862 . S
C80 C75 1.501 . S
C80 H81 0.961 . S
C80 H82 0.961 . S
C80 H83 0.960 . S
H81 C80 0.961 . S
H82 C80 0.961 . S
H83 C80 0.960 . S
C84 N85 1.342 . S
C84 C88 1.401 . S
C84 C89 1.499 . S
N85 Co68 1.989 . S
N85 C84 1.342 . S
N85 N86 1.388 . S
N86 Co69 1.993 . S
N86 N85 1.388 . S
N86 C87 1.346 . S
C87 N86 1.346 . S
C87 C88 1.396 . S
C87 C97 1.510 . S
C88 C84 1.401 . S
C88 C87 1.396 . S
C89 C84 1.499 . S
C89 H90 0.959 . S
C89 H91 0.960 . S
C89 H92 0.961 . S
H90 C89 0.959 . S
H91 C89 0.960 . S
H92 C89 0.961 . S
O93 Co68 1.967 . S
O93 C101 1.258 . S
O94 Co69 1.941 . S
O94 C101 1.266 . S
H95 C97 0.959 . S
H96 C97 0.961 1_556 S
C97 C87 1.510 . S
C97 H95 0.959 . S
C97 H96 0.961 1_554 S
C97 H98 0.960 . S
H98 C97 0.960 . S
H99 N79 0.862 . S
O100 Co68 1.920 . S
O100 C73 1.289 . S
C101 O93 1.258 . S
C101 O94 1.266 . S
Co102 O105 1.970 . S
Co102 N119 1.989 . S
Co102 O127 1.967 . S
Co102 O134 1.920 . S
Co103 O106 1.966 . S
Co103 N112 2.022 . S
Co103 N120 1.993 . S
Co103 O128 1.941 . S
C104 O105 1.258 . S
C104 O106 1.263 . S
O105 Co102 1.970 . S
O105 C104 1.258 . S
O106 Co103 1.966 . S
O106 C104 1.263 . S
C107 O108 1.235 . S
C107 O134 1.289 1_655 S
O108 C107 1.235 . S
C109 C111 1.400 1_554 S
C109 N112 1.351 . S
C109 C114 1.501 . S
C110 C111 1.387 1_554 S
C110 N113 1.341 . S
C111 C109 1.400 1_556 S
C111 C110 1.387 1_556 S
N112 Co103 2.022 . S
N112 C109 1.351 . S
N112 N113 1.365 . S
N113 C110 1.341 . S
N113 N112 1.365 . S
N113 H133 0.862 . S
C114 C109 1.501 . S
C114 H115 0.961 . S
C114 H116 0.961 . S
C114 H117 0.960 . S
H115 C114 0.961 . S
H116 C114 0.961 . S
H117 C114 0.960 . S
C118 N119 1.342 . S
C118 C122 1.401 . S
C118 C123 1.499 . S
N119 Co102 1.989 . S
N119 C118 1.342 . S
N119 N120 1.388 . S
N120 Co103 1.993 . S
N120 N119 1.388 . S
N120 C121 1.346 . S
C121 N120 1.346 . S
C121 C122 1.396 . S
C121 C131 1.510 . S
C122 C118 1.401 . S
C122 C121 1.396 . S
C123 C118 1.499 . S
C123 H124 0.959 . S
C123 H125 0.960 1_455 S
C123 H126 0.961 . S
H124 C123 0.959 . S
H125 C123 0.960 1_655 S
H126 C123 0.961 . S
O127 Co102 1.967 . S
O127 C135 1.258 . S
O128 Co103 1.941 . S
O128 C135 1.266 . S
H129 C131 0.959 . S
H130 C131 0.961 1_556 S
C131 C121 1.510 . S
C131 H129 0.959 . S
C131 H130 0.961 1_554 S
C131 H132 0.960 . S
H132 C131 0.960 . S
H133 N113 0.862 . S
O134 Co102 1.920 . S
O134 C107 1.289 1_455 S
C135 O127 1.258 . S
C135 O128 1.266 . S
Co136 O139 1.970 . S
Co136 N153 1.989 . S
Co136 O161 1.967 . S
Co136 O168 1.920 . S
Co137 O140 1.966 . S
Co137 N146 2.022 . S
Co137 N154 1.993 . S
Co137 O162 1.941 . S
C138 O139 1.258 . S
C138 O140 1.263 . S
O139 Co136 1.970 . S
O139 C138 1.258 . S
O140 Co137 1.966 . S
O140 C138 1.263 . S
C141 O142 1.235 . S
C141 O168 1.289 . S
O142 C141 1.235 . S
C143 C145 1.400 . S
C143 N146 1.351 . S
C143 C148 1.501 . S
C144 C145 1.387 . S
C144 N147 1.341 . S
C145 C143 1.400 . S
C145 C144 1.387 . S
N146 Co137 2.022 . S
N146 C143 1.351 . S
N146 N147 1.365 . S
N147 C144 1.341 . S
N147 N146 1.365 . S
N147 H167 0.862 . S
C148 C143 1.501 . S
C148 H149 0.961 . S
C148 H150 0.961 . S
C148 H151 0.960 . S
H149 C148 0.961 . S
H150 C148 0.961 . S
H151 C148 0.960 . S
C152 N153 1.342 . S
C152 C156 1.401 . S
C152 C157 1.499 . S
N153 Co136 1.989 . S
N153 C152 1.342 . S
N153 N154 1.388 . S
N154 Co137 1.993 . S
N154 N153 1.388 . S
N154 C155 1.346 . S
C155 N154 1.346 . S
C155 C156 1.396 . S
C155 C165 1.510 . S
C156 C152 1.401 . S
C156 C155 1.396 . S
C157 C152 1.499 . S
C157 H158 0.959 . S
C157 H159 0.960 . S
C157 H160 0.961 . S
H158 C157 0.959 . S
H159 C157 0.960 . S
H160 C157 0.961 . S
O161 Co136 1.967 . S
O161 C169 1.258 . S
O162 Co137 1.941 . S
O162 C169 1.266 . S
H163 C165 0.959 . S
H164 C165 0.961 . S
C165 C155 1.510 . S
C165 H163 0.959 . S
C165 H164 0.961 . S
C165 H166 0.960 . S
H166 C165 0.960 . S
H167 N147 0.862 . S
O168 Co136 1.920 . S
O168 C141 1.289 . S
C169 O161 1.258 . S
C169 O162 1.266 . S
Co170 O173 1.970 . S
Co170 N187 1.989 . S
Co170 O195 1.967 . S
Co170 O202 1.920 . S
Co171 O174 1.966 . S
Co171 N180 2.022 . S
Co171 N188 1.993 . S
Co171 O196 1.941 . S
C172 O173 1.258 . S
C172 O174 1.263 . S
O173 Co170 1.970 . S
O173 C172 1.258 . S
O174 Co171 1.966 . S
O174 C172 1.263 . S
C175 O176 1.235 . S
C175 O202 1.289 1_655 S
O176 C175 1.235 . S
C177 C179 1.400 . S
C177 N180 1.351 . S
C177 C182 1.501 . S
C178 C179 1.387 . S
C178 N181 1.341 . S
C179 C177 1.400 . S
C179 C178 1.387 . S
N180 Co171 2.022 . S
N180 C177 1.351 . S
N180 N181 1.365 . S
N181 C178 1.341 . S
N181 N180 1.365 . S
N181 H201 0.862 . S
C182 C177 1.501 . S
C182 H183 0.961 . S
C182 H184 0.961 . S
C182 H185 0.960 . S
H183 C182 0.961 . S
H184 C182 0.961 . S
H185 C182 0.960 . S
C186 N187 1.342 . S
C186 C190 1.401 . S
C186 C191 1.499 . S
N187 Co170 1.989 . S
N187 C186 1.342 . S
N187 N188 1.388 . S
N188 Co171 1.993 . S
N188 N187 1.388 . S
N188 C189 1.346 . S
C189 N188 1.346 . S
C189 C190 1.396 . S
C189 C199 1.510 . S
C190 C186 1.401 . S
C190 C189 1.396 . S
C191 C186 1.499 . S
C191 H192 0.959 . S
C191 H193 0.960 1_455 S
C191 H194 0.961 . S
H192 C191 0.959 . S
H193 C191 0.960 1_655 S
H194 C191 0.961 . S
O195 Co170 1.967 . S
O195 C203 1.258 . S
O196 Co171 1.941 . S
O196 C203 1.266 . S
H197 C199 0.959 . S
H198 C199 0.961 . S
C199 C189 1.510 . S
C199 H197 0.959 . S
C199 H198 0.961 . S
C199 H200 0.960 . S
H200 C199 0.960 . S
H201 N181 0.862 . S
O202 Co170 1.920 . S
O202 C175 1.289 1_455 S
C203 O195 1.258 . S
C203 O196 1.266 . S
Co204 O207 1.970 . S
Co204 N221 1.989 . S
Co204 O229 1.967 . S
Co204 O236 1.920 . S
Co205 O208 1.966 . S
Co205 N214 2.022 . S
Co205 N222 1.993 . S
Co205 O230 1.941 . S
C206 O207 1.258 . S
C206 O208 1.263 . S
O207 Co204 1.970 . S
O207 C206 1.258 . S
O208 Co205 1.966 . S
O208 C206 1.263 . S
C209 O210 1.235 . S
C209 O236 1.289 1_565 S
O210 C209 1.235 . S
C211 C213 1.400 . S
C211 N214 1.351 . S
C211 C216 1.501 . S
C212 C213 1.387 . S
C212 N215 1.341 . S
C213 C211 1.400 . S
C213 C212 1.387 . S
N214 Co205 2.022 . S
N214 C211 1.351 . S
N214 N215 1.365 . S
N215 C212 1.341 . S
N215 N214 1.365 . S
N215 H235 0.862 . S
C216 C211 1.501 . S
C216 H217 0.961 . S
C216 H218 0.961 . S
C216 H219 0.960 . S
H217 C216 0.961 . S
H218 C216 0.961 . S
H219 C216 0.960 . S
C220 N221 1.342 . S
C220 C224 1.401 . S
C220 C225 1.499 . S
N221 Co204 1.989 . S
N221 C220 1.342 . S
N221 N222 1.388 . S
N222 Co205 1.993 . S
N222 N221 1.388 . S
N222 C223 1.346 . S
C223 N222 1.346 . S
C223 C224 1.396 . S
C223 C233 1.510 . S
C224 C220 1.401 . S
C224 C223 1.396 . S
C225 C220 1.499 . S
C225 H226 0.959 . S
C225 H227 0.960 1_545 S
C225 H228 0.961 . S
H226 C225 0.959 . S
H227 C225 0.960 1_565 S
H228 C225 0.961 . S
O229 Co204 1.967 . S
O229 C237 1.258 . S
O230 Co205 1.941 . S
O230 C237 1.266 . S
H231 C233 0.959 . S
H232 C233 0.961 . S
C233 C223 1.510 . S
C233 H231 0.959 . S
C233 H232 0.961 . S
C233 H234 0.960 . S
H234 C233 0.960 . S
H235 N215 0.862 . S
O236 Co204 1.920 . S
O236 C209 1.289 1_545 S
C237 O229 1.258 . S
C237 O230 1.266 . S
Co238 O241 1.970 . S
Co238 N255 1.989 . S
Co238 O263 1.967 . S
Co238 O270 1.920 . S
Co239 O242 1.966 . S
Co239 N248 2.022 . S
Co239 N256 1.993 . S
Co239 O264 1.941 . S
C240 O241 1.258 . S
C240 O242 1.263 . S
O241 Co238 1.970 . S
O241 C240 1.258 . S
O242 Co239 1.966 . S
O242 C240 1.263 . S
C243 O244 1.235 . S
C243 O270 1.289 . S
O244 C243 1.235 . S
C245 C247 1.400 . S
C245 N248 1.351 . S
C245 C250 1.501 . S
C246 C247 1.387 . S
C246 N249 1.341 . S
C247 C245 1.400 . S
C247 C246 1.387 . S
N248 Co239 2.022 . S
N248 C245 1.351 . S
N248 N249 1.365 . S
N249 C246 1.341 . S
N249 N248 1.365 . S
N249 H269 0.862 . S
C250 C245 1.501 . S
C250 H251 0.961 . S
C250 H252 0.961 . S
C250 H253 0.960 . S
H251 C250 0.961 . S
H252 C250 0.961 . S
H253 C250 0.960 . S
C254 N255 1.342 . S
C254 C258 1.401 . S
C254 C259 1.499 . S
N255 Co238 1.989 . S
N255 C254 1.342 . S
N255 N256 1.388 . S
N256 Co239 1.993 . S
N256 N255 1.388 . S
N256 C257 1.346 . S
C257 N256 1.346 . S
C257 C258 1.396 . S
C257 C267 1.510 . S
C258 C254 1.401 . S
C258 C257 1.396 . S
C259 C254 1.499 . S
C259 H260 0.959 . S
C259 H261 0.960 . S
C259 H262 0.961 . S
H260 C259 0.959 . S
H261 C259 0.960 . S
H262 C259 0.961 . S
O263 Co238 1.967 . S
O263 C271 1.258 . S
O264 Co239 1.941 . S
O264 C271 1.266 . S
H265 C267 0.959 . S
H266 C267 0.961 . S
C267 C257 1.510 . S
C267 H265 0.959 . S
C267 H266 0.961 . S
C267 H268 0.960 . S
H268 C267 0.960 . S
H269 N249 0.862 . S
O270 Co238 1.920 . S
O270 C243 1.289 . S
C271 O263 1.258 . S
C271 O264 1.266 . S
Co272 O275 1.970 . S
Co272 N289 1.989 . S
Co272 O297 1.967 . S
Co272 O304 1.920 . S
Co273 O276 1.966 . S
Co273 N282 2.022 . S
Co273 N290 1.993 . S
Co273 O298 1.941 . S
C274 O275 1.258 . S
C274 O276 1.263 . S
O275 Co272 1.970 . S
O275 C274 1.258 . S
O276 Co273 1.966 . S
O276 C274 1.263 . S
C277 O278 1.235 . S
C277 O304 1.289 1_545 S
O278 C277 1.235 . S
C279 C281 1.400 1_556 S
C279 N282 1.351 . S
C279 C284 1.501 . S
C280 C281 1.387 1_556 S
C280 N283 1.341 . S
C281 C279 1.400 1_554 S
C281 C280 1.387 1_554 S
N282 Co273 2.022 . S
N282 C279 1.351 . S
N282 N283 1.365 . S
N283 C280 1.341 . S
N283 N282 1.365 . S
N283 H303 0.862 . S
C284 C279 1.501 . S
C284 H285 0.961 . S
C284 H286 0.961 . S
C284 H287 0.960 . S
H285 C284 0.961 . S
H286 C284 0.961 . S
H287 C284 0.960 . S
C288 N289 1.342 . S
C288 C292 1.401 . S
C288 C293 1.499 . S
N289 Co272 1.989 . S
N289 C288 1.342 . S
N289 N290 1.388 . S
N290 Co273 1.993 . S
N290 N289 1.388 . S
N290 C291 1.346 . S
C291 N290 1.346 . S
C291 C292 1.396 . S
C291 C301 1.510 . S
C292 C288 1.401 . S
C292 C291 1.396 . S
C293 C288 1.499 . S
C293 H294 0.959 . S
C293 H295 0.960 1_565 S
C293 H296 0.961 . S
H294 C293 0.959 . S
H295 C293 0.960 1_545 S
H296 C293 0.961 . S
O297 Co272 1.967 . S
O297 C305 1.258 . S
O298 Co273 1.941 . S
O298 C305 1.266 . S
H299 C301 0.959 . S
H300 C301 0.961 1_554 S
C301 C291 1.510 . S
C301 H299 0.959 . S
C301 H300 0.961 1_556 S
C301 H302 0.960 . S
H302 C301 0.960 . S
H303 N283 0.862 . S
O304 Co272 1.920 . S
O304 C277 1.289 1_565 S
C305 O297 1.258 . S
C305 O298 1.266 . S
Co306 O309 1.970 . S
Co306 N323 1.989 . S
Co306 O331 1.967 . S
Co306 O338 1.920 . S
Co307 O310 1.966 . S
Co307 N316 2.022 . S
Co307 N324 1.993 . S
Co307 O332 1.941 . S
C308 O309 1.258 . S
C308 O310 1.263 . S
O309 Co306 1.970 . S
O309 C308 1.258 . S
O310 Co307 1.966 . S
O310 C308 1.263 . S
C311 O312 1.235 . S
C311 O338 1.289 . S
O312 C311 1.235 . S
C313 C315 1.400 1_556 S
C313 N316 1.351 . S
C313 C318 1.501 . S
C314 C315 1.387 1_556 S
C314 N317 1.341 . S
C315 C313 1.400 1_554 S
C315 C314 1.387 1_554 S
N316 Co307 2.022 . S
N316 C313 1.351 . S
N316 N317 1.365 . S
N317 C314 1.341 . S
N317 N316 1.365 . S
N317 H337 0.862 . S
C318 C313 1.501 . S
C318 H319 0.961 . S
C318 H320 0.961 . S
C318 H321 0.960 . S
H319 C318 0.961 . S
H320 C318 0.961 . S
H321 C318 0.960 . S
C322 N323 1.342 . S
C322 C326 1.401 . S
C322 C327 1.499 . S
N323 Co306 1.989 . S
N323 C322 1.342 . S
N323 N324 1.388 . S
N324 Co307 1.993 . S
N324 N323 1.388 . S
N324 C325 1.346 . S
C325 N324 1.346 . S
C325 C326 1.396 . S
C325 C335 1.510 . S
C326 C322 1.401 . S
C326 C325 1.396 . S
C327 C322 1.499 . S
C327 H328 0.959 . S
C327 H329 0.960 . S
C327 H330 0.961 . S
H328 C327 0.959 . S
H329 C327 0.960 . S
H330 C327 0.961 . S
O331 Co306 1.967 . S
O331 C339 1.258 . S
O332 Co307 1.941 . S
O332 C339 1.266 . S
H333 C335 0.959 . S
H334 C335 0.961 1_554 S
C335 C325 1.510 . S
C335 H333 0.959 . S
C335 H334 0.961 1_556 S
C335 H336 0.960 . S
H336 C335 0.960 . S
H337 N317 0.862 . S
O338 Co306 1.920 . S
O338 C311 1.289 . S
C339 O331 1.258 . S
C339 O332 1.266 . S
Co340 O343 1.970 . S
Co340 N357 1.989 . S
Co340 O365 1.967 . S
Co340 O372 1.920 . S
Co341 O344 1.966 . S
Co341 N350 2.022 . S
Co341 N358 1.993 . S
Co341 O366 1.941 . S
C342 O343 1.258 . S
C342 O344 1.263 . S
O343 Co340 1.970 . S
O343 C342 1.258 . S
O344 Co341 1.966 . S
O344 C342 1.263 . S
C345 O346 1.235 . S
C345 O372 1.289 . S
O346 C345 1.235 . S
C347 C349 1.400 1_556 S
C347 N350 1.351 . S
C347 C352 1.501 . S
C348 C349 1.387 1_556 S
C348 N351 1.341 . S
C349 C347 1.400 1_554 S
C349 C348 1.387 1_554 S
N350 Co341 2.022 . S
N350 C347 1.351 . S
N350 N351 1.365 . S
N351 C348 1.341 . S
N351 N350 1.365 . S
N351 H371 0.862 . S
C352 C347 1.501 . S
C352 H353 0.961 . S
C352 H354 0.961 . S
C352 H355 0.960 . S
H353 C352 0.961 . S
H354 C352 0.961 . S
H355 C352 0.960 . S
C356 N357 1.342 . S
C356 C360 1.401 . S
C356 C361 1.499 . S
N357 Co340 1.989 . S
N357 C356 1.342 . S
N357 N358 1.388 . S
N358 Co341 1.993 . S
N358 N357 1.388 . S
N358 C359 1.346 . S
C359 N358 1.346 . S
C359 C360 1.396 . S
C359 C369 1.510 . S
C360 C356 1.401 . S
C360 C359 1.396 . S
C361 C356 1.499 . S
C361 H362 0.959 . S
C361 H363 0.960 . S
C361 H364 0.961 . S
H362 C361 0.959 . S
H363 C361 0.960 . S
H364 C361 0.961 . S
O365 Co340 1.967 . S
O365 C373 1.258 . S
O366 Co341 1.941 . S
O366 C373 1.266 . S
H367 C369 0.959 . S
H368 C369 0.961 1_554 S
C369 C359 1.510 . S
C369 H367 0.959 . S
C369 H368 0.961 1_556 S
C369 H370 0.960 . S
H370 C369 0.960 . S
H371 N351 0.862 . S
O372 Co340 1.920 . S
O372 C345 1.289 . S
C373 O365 1.258 . S
C373 O366 1.266 . S
Co374 O377 1.970 . S
Co374 N391 1.989 . S
Co374 O399 1.967 . S
Co374 O406 1.920 . S
Co375 O378 1.966 . S
Co375 N384 2.022 . S
Co375 N392 1.993 . S
Co375 O400 1.941 . S
C376 O377 1.258 . S
C376 O378 1.263 . S
O377 Co374 1.970 . S
O377 C376 1.258 . S
O378 Co375 1.966 . S
O378 C376 1.263 . S
C379 O380 1.235 . S
C379 O406 1.289 1_455 S
O380 C379 1.235 . S
C381 C383 1.400 1_556 S
C381 N384 1.351 . S
C381 C386 1.501 . S
C382 C383 1.387 1_556 S
C382 N385 1.341 . S
C383 C381 1.400 1_554 S
C383 C382 1.387 1_554 S
N384 Co375 2.022 . S
N384 C381 1.351 . S
N384 N385 1.365 . S
N385 C382 1.341 . S
N385 N384 1.365 . S
N385 H405 0.862 . S
C386 C381 1.501 . S
C386 H387 0.961 . S
C386 H388 0.961 . S
C386 H389 0.960 . S
H387 C386 0.961 . S
H388 C386 0.961 . S
H389 C386 0.960 . S
C390 N391 1.342 . S
C390 C394 1.401 . S
C390 C395 1.499 . S
N391 Co374 1.989 . S
N391 C390 1.342 . S
N391 N392 1.388 . S
N392 Co375 1.993 . S
N392 N391 1.388 . S
N392 C393 1.346 . S
C393 N392 1.346 . S
C393 C394 1.396 . S
C393 C403 1.510 . S
C394 C390 1.401 . S
C394 C393 1.396 . S
C395 C390 1.499 . S
C395 H396 0.959 . S
C395 H397 0.960 1_655 S
C395 H398 0.961 . S
H396 C395 0.959 . S
H397 C395 0.960 1_455 S
H398 C395 0.961 . S
O399 Co374 1.967 . S
O399 C407 1.258 . S
O400 Co375 1.941 . S
O400 C407 1.266 . S
H401 C403 0.959 . S
H402 C403 0.961 1_554 S
C403 C393 1.510 . S
C403 H401 0.959 . S
C403 H402 0.961 1_556 S
C403 H404 0.960 . S
H404 C403 0.960 . S
H405 N385 0.862 . S
O406 Co374 1.920 . S
O406 C379 1.289 1_655 S
C407 O399 1.258 . S
C407 O400 1.266 . S
Co408 O411 1.970 . S
Co408 N425 1.989 . S
Co408 O433 1.967 . S
Co408 O440 1.920 . S
Co409 O412 1.966 . S
Co409 N418 2.022 . S
Co409 N426 1.993 . S
Co409 O434 1.941 . S
C410 O411 1.258 . S
C410 O412 1.263 . S
O411 Co408 1.970 . S
O411 C410 1.258 . S
O412 Co409 1.966 . S
O412 C410 1.263 . S
C413 O414 1.235 . S
C413 O440 1.289 . S
O414 C413 1.235 . S
C415 C417 1.400 . S
C415 N418 1.351 . S
C415 C420 1.501 . S
C416 C417 1.387 . S
C416 N419 1.341 . S
C417 C415 1.400 . S
C417 C416 1.387 . S
N418 Co409 2.022 . S
N418 C415 1.351 . S
N418 N419 1.365 . S
N419 C416 1.341 . S
N419 N418 1.365 . S
N419 H439 0.862 . S
C420 C415 1.501 . S
C420 H421 0.961 . S
C420 H422 0.961 . S
C420 H423 0.960 . S
H421 C420 0.961 . S
H422 C420 0.961 . S
H423 C420 0.960 . S
C424 N425 1.342 . S
C424 C428 1.401 . S
C424 C429 1.499 . S
N425 Co408 1.989 . S
N425 C424 1.342 . S
N425 N426 1.388 . S
N426 Co409 1.993 . S
N426 N425 1.388 . S
N426 C427 1.346 . S
C427 N426 1.346 . S
C427 C428 1.396 . S
C427 C437 1.510 . S
C428 C424 1.401 . S
C428 C427 1.396 . S
C429 C424 1.499 . S
C429 H430 0.959 . S
C429 H431 0.960 . S
C429 H432 0.961 . S
H430 C429 0.959 . S
H431 C429 0.960 . S
H432 C429 0.961 . S
O433 Co408 1.967 . S
O433 C441 1.258 . S
O434 Co409 1.941 . S
O434 C441 1.266 . S
H435 C437 0.959 . S
H436 C437 0.961 . S
C437 C427 1.510 . S
C437 H435 0.959 . S
C437 H436 0.961 . S
C437 H438 0.960 . S
H438 C437 0.960 . S
H439 N419 0.862 . S
O440 Co408 1.920 . S
O440 C413 1.289 . S
C441 O433 1.258 . S
C441 O434 1.266 . S
Co442 O445 1.970 . S
Co442 N459 1.989 . S
Co442 O467 1.967 . S
Co442 O474 1.920 . S
Co443 O446 1.966 . S
Co443 N452 2.022 . S
Co443 N460 1.993 . S
Co443 O468 1.941 . S
C444 O445 1.258 . S
C444 O446 1.263 . S
O445 Co442 1.970 . S
O445 C444 1.258 . S
O446 Co443 1.966 . S
O446 C444 1.263 . S
C447 O448 1.235 . S
C447 O474 1.289 1_455 S
O448 C447 1.235 . S
C449 C451 1.400 . S
C449 N452 1.351 . S
C449 C454 1.501 . S
C450 C451 1.387 . S
C450 N453 1.341 . S
C451 C449 1.400 . S
C451 C450 1.387 . S
N452 Co443 2.022 . S
N452 C449 1.351 . S
N452 N453 1.365 . S
N453 C450 1.341 . S
N453 N452 1.365 . S
N453 H473 0.862 . S
C454 C449 1.501 . S
C454 H455 0.961 . S
C454 H456 0.961 . S
C454 H457 0.960 . S
H455 C454 0.961 . S
H456 C454 0.961 . S
H457 C454 0.960 . S
C458 N459 1.342 . S
C458 C462 1.401 . S
C458 C463 1.499 . S
N459 Co442 1.989 . S
N459 C458 1.342 . S
N459 N460 1.388 . S
N460 Co443 1.993 . S
N460 N459 1.388 . S
N460 C461 1.346 . S
C461 N460 1.346 . S
C461 C462 1.396 . S
C461 C471 1.510 . S
C462 C458 1.401 . S
C462 C461 1.396 . S
C463 C458 1.499 . S
C463 H464 0.959 . S
C463 H465 0.960 1_655 S
C463 H466 0.961 . S
H464 C463 0.959 . S
H465 C463 0.960 1_455 S
H466 C463 0.961 . S
O467 Co442 1.967 . S
O467 C475 1.258 . S
O468 Co443 1.941 . S
O468 C475 1.266 . S
H469 C471 0.959 . S
H470 C471 0.961 . S
C471 C461 1.510 . S
C471 H469 0.959 . S
C471 H470 0.961 . S
C471 H472 0.960 . S
H472 C471 0.960 . S
H473 N453 0.862 . S
O474 Co442 1.920 . S
O474 C447 1.289 1_655 S
C475 O467 1.258 . S
C475 O468 1.266 . S
Co476 O479 1.970 . S
Co476 N493 1.989 . S
Co476 O501 1.967 . S
Co476 O508 1.920 . S
Co477 O480 1.966 . S
Co477 N486 2.022 . S
Co477 N494 1.993 . S
Co477 O502 1.941 . S
C478 O479 1.258 . S
C478 O480 1.263 . S
O479 Co476 1.970 . S
O479 C478 1.258 . S
O480 Co477 1.966 . S
O480 C478 1.263 . S
C481 O482 1.235 . S
C481 O508 1.289 1_545 S
O482 C481 1.235 . S
C483 C485 1.400 . S
C483 N486 1.351 . S
C483 C488 1.501 . S
C484 C485 1.387 . S
C484 N487 1.341 . S
C485 C483 1.400 . S
C485 C484 1.387 . S
N486 Co477 2.022 . S
N486 C483 1.351 . S
N486 N487 1.365 . S
N487 C484 1.341 . S
N487 N486 1.365 . S
N487 H507 0.862 . S
C488 C483 1.501 . S
C488 H489 0.961 . S
C488 H490 0.961 . S
C488 H491 0.960 . S
H489 C488 0.961 . S
H490 C488 0.961 . S
H491 C488 0.960 . S
C492 N493 1.342 . S
C492 C496 1.401 . S
C492 C497 1.499 . S
N493 Co476 1.989 . S
N493 C492 1.342 . S
N493 N494 1.388 . S
N494 Co477 1.993 . S
N494 N493 1.388 . S
N494 C495 1.346 . S
C495 N494 1.346 . S
C495 C496 1.396 . S
C495 C505 1.510 . S
C496 C492 1.401 . S
C496 C495 1.396 . S
C497 C492 1.499 . S
C497 H498 0.959 . S
C497 H499 0.960 1_565 S
C497 H500 0.961 . S
H498 C497 0.959 . S
H499 C497 0.960 1_545 S
H500 C497 0.961 . S
O501 Co476 1.967 . S
O501 C509 1.258 . S
O502 Co477 1.941 . S
O502 C509 1.266 . S
H503 C505 0.959 . S
H504 C505 0.961 . S
C505 C495 1.510 . S
C505 H503 0.959 . S
C505 H504 0.961 . S
C505 H506 0.960 . S
H506 C505 0.960 . S
H507 N487 0.862 . S
O508 Co476 1.920 . S
O508 C481 1.289 1_565 S
C509 O501 1.258 . S
C509 O502 1.266 . S
Co510 O513 1.970 . S
Co510 N527 1.989 . S
Co510 O535 1.967 . S
Co510 O542 1.920 . S
Co511 O514 1.966 . S
Co511 N520 2.022 . S
Co511 N528 1.993 . S
Co511 O536 1.941 . S
C512 O513 1.258 . S
C512 O514 1.263 . S
O513 Co510 1.970 . S
O513 C512 1.258 . S
O514 Co511 1.966 . S
O514 C512 1.263 . S
C515 O516 1.235 . S
C515 O542 1.289 . S
O516 C515 1.235 . S
C517 C519 1.400 . S
C517 N520 1.351 . S
C517 C522 1.501 . S
C518 C519 1.387 . S
C518 N521 1.341 . S
C519 C517 1.400 . S
C519 C518 1.387 . S
N520 Co511 2.022 . S
N520 C517 1.351 . S
N520 N521 1.365 . S
N521 C518 1.341 . S
N521 N520 1.365 . S
N521 H541 0.862 . S
C522 C517 1.501 . S
C522 H523 0.961 . S
C522 H524 0.961 . S
C522 H525 0.960 . S
H523 C522 0.961 . S
H524 C522 0.961 . S
H525 C522 0.960 . S
C526 N527 1.342 . S
C526 C530 1.401 . S
C526 C531 1.499 . S
N527 Co510 1.989 . S
N527 C526 1.342 . S
N527 N528 1.388 . S
N528 Co511 1.993 . S
N528 N527 1.388 . S
N528 C529 1.346 . S
C529 N528 1.346 . S
C529 C530 1.396 . S
C529 C539 1.510 . S
C530 C526 1.401 . S
C530 C529 1.396 . S
C531 C526 1.499 . S
C531 H532 0.959 . S
C531 H533 0.960 . S
C531 H534 0.961 . S
H532 C531 0.959 . S
H533 C531 0.960 . S
H534 C531 0.961 . S
O535 Co510 1.967 . S
O535 C543 1.258 . S
O536 Co511 1.941 . S
O536 C543 1.266 . S
H537 C539 0.959 . S
H538 C539 0.961 . S
C539 C529 1.510 . S
C539 H537 0.959 . S
C539 H538 0.961 . S
C539 H540 0.960 . S
H540 C539 0.960 . S
H541 N521 0.862 . S
O542 Co510 1.920 . S
O542 C515 1.289 . S
C543 O535 1.258 . S
C543 O536 1.266 . S
H544 C562 0.951 . S
H545 C564 0.951 . S
H546 C566 0.950 . S
H547 C567 0.950 . S
H548 C569 0.950 . S
H549 C572 0.950 . S
H550 C573 0.950 . S
H551 C575 0.950 . S
H552 C576 0.950 . S
H553 C577 0.951 . S
H554 C579 0.951 . S
H555 C581 0.950 . S
H556 C582 0.950 . S
H557 C584 0.950 . S
H558 C587 0.950 . S
H559 C588 0.950 . S
H560 C590 0.950 . S
H561 C591 0.950 . S
C562 H544 0.951 . S
C562 C563 1.366 . S
C562 C564 1.388 . S
C563 C562 1.366 . S
C563 C567 1.385 . S
C564 H545 0.951 . S
C564 C562 1.388 . S
C564 C565 1.366 . S
C565 C564 1.366 . S
C565 C566 1.414 . S
C565 C568 1.499 . S
C566 H546 0.950 . S
C566 C565 1.414 . S
C566 C567 1.374 . S
C567 H547 0.950 . S
C567 C563 1.385 . S
C567 C566 1.374 . S
C568 C565 1.499 . S
C568 C569 1.373 . S
C568 C570 1.389 . S
C569 H548 0.950 . S
C569 C568 1.373 . S
C569 C585 1.377 . S
C570 C568 1.389 . S
C570 C571 1.524 . S
C570 C584 1.377 . S
C571 C570 1.524 . S
C571 C572 1.397 . S
C571 C576 1.363 . S
C572 H549 0.950 . S
C572 C571 1.397 . S
C572 C573 1.334 1_565 S
C573 H550 0.950 . S
C573 C572 1.334 1_545 S
C573 C574 1.287 . S
C574 C573 1.287 . S
C574 C575 1.524 . S
C574 H593 0.913 . S
C575 H551 0.950 . S
C575 C574 1.524 . S
C575 C576 1.415 1_545 S
C576 H552 0.950 . S
C576 C571 1.363 . S
C576 C575 1.415 1_565 S
C577 H553 0.951 . S
C577 C578 1.366 . S
C577 C579 1.388 . S
C578 C577 1.366 . S
C578 C582 1.385 . S
C579 H554 0.951 . S
C579 C577 1.388 . S
C579 C580 1.366 . S
C580 C579 1.366 . S
C580 C581 1.414 . S
C580 C583 1.499 . S
C581 H555 0.950 . S
C581 C580 1.414 . S
C581 C582 1.374 . S
C582 H556 0.950 . S
C582 C578 1.385 . S
C582 C581 1.374 . S
C583 C580 1.499 . S
C583 C584 1.373 . S
C583 C585 1.389 . S
C584 H557 0.950 . S
C584 C570 1.377 . S
C584 C583 1.373 . S
C585 C569 1.377 . S
C585 C583 1.389 . S
C585 C586 1.524 . S
C586 C585 1.524 . S
C586 C587 1.397 . S
C586 C591 1.363 . S
C587 H558 0.950 . S
C587 C586 1.397 . S
C587 C588 1.334 . S
C588 H559 0.950 . S
C588 C587 1.334 . S
C588 C589 1.287 . S
C589 C588 1.287 . S
C589 C590 1.524 . S
C589 H592 0.999 . S
C590 H560 0.950 . S
C590 C589 1.524 . S
C590 C591 1.415 . S
C591 H561 0.950 . S
C591 C586 1.363 . S
C591 C590 1.415 . S
H592 C589 0.999 . S
H593 C574 0.913 . S
H594 C612 0.951 . S
H595 C614 0.951 . S
H596 C616 0.950 . S
H597 C617 0.950 . S
H598 C619 0.950 . S
H599 C622 0.950 . S
H600 C623 0.950 . S
H601 C625 0.950 . S
H602 C626 0.950 . S
H603 C627 0.951 . S
H604 C629 0.951 . S
H605 C631 0.950 . S
H606 C632 0.950 . S
H607 C634 0.950 . S
H608 C637 0.950 . S
H609 C638 0.950 . S
H610 C640 0.950 . S
H611 C641 0.950 . S
C612 H594 0.951 . S
C612 C613 1.366 . S
C612 C614 1.388 . S
C613 C612 1.366 . S
C613 C617 1.385 . S
C614 H595 0.951 . S
C614 C612 1.388 . S
C614 C615 1.366 . S
C615 C614 1.366 . S
C615 C616 1.414 . S
C615 C618 1.499 . S
C616 H596 0.950 . S
C616 C615 1.414 . S
C616 C617 1.374 . S
C617 H597 0.950 . S
C617 C613 1.385 . S
C617 C616 1.374 . S
C618 C615 1.499 . S
C618 C619 1.373 . S
C618 C620 1.389 . S
C619 H598 0.950 . S
C619 C618 1.373 . S
C619 C635 1.377 . S
C620 C618 1.389 . S
C620 C621 1.524 . S
C620 C634 1.377 . S
C621 C620 1.524 . S
C621 C622 1.397 . S
C621 C626 1.363 . S
C622 H599 0.950 . S
C622 C621 1.397 . S
C622 C623 1.334 . S
C623 H600 0.950 . S
C623 C622 1.334 . S
C623 C624 1.287 . S
C624 C623 1.287 . S
C624 C625 1.524 . S
C624 H643 0.913 . S
C625 H601 0.950 . S
C625 C624 1.524 . S
C625 C626 1.415 . S
C626 H602 0.950 . S
C626 C621 1.363 . S
C626 C625 1.415 . S
C627 H603 0.951 . S
C627 C628 1.366 . S
C627 C629 1.388 . S
C628 C627 1.366 . S
C628 C632 1.385 . S
C629 H604 0.951 . S
C629 C627 1.388 . S
C629 C630 1.366 . S
C630 C629 1.366 . S
C630 C631 1.414 . S
C630 C633 1.499 . S
C631 H605 0.950 . S
C631 C630 1.414 . S
C631 C632 1.374 . S
C632 H606 0.950 . S
C632 C628 1.385 . S
C632 C631 1.374 . S
C633 C630 1.499 . S
C633 C634 1.373 . S
C633 C635 1.389 . S
C634 H607 0.950 . S
C634 C620 1.377 . S
C634 C633 1.373 . S
C635 C619 1.377 . S
C635 C633 1.389 . S
C635 C636 1.524 . S
C636 C635 1.524 . S
C636 C637 1.397 . S
C636 C641 1.363 . S
C637 H608 0.950 . S
C637 C636 1.397 . S
C637 C638 1.334 . S
C638 H609 0.950 . S
C638 C637 1.334 . S
C638 C639 1.287 . S
C639 C638 1.287 . S
C639 C640 1.524 . S
C639 H642 0.999 . S
C640 H610 0.950 . S
C640 C639 1.524 . S
C640 C641 1.415 . S
C641 H611 0.950 . S
C641 C636 1.363 . S
C641 C640 1.415 . S
H642 C639 0.999 . S
H643 C624 0.913 . S
H644 C662 0.951 . S
H645 C664 0.951 . S
H646 C666 0.950 . S
H647 C667 0.950 . S
H648 C669 0.950 . S
H649 C672 0.950 . S
H650 C673 0.950 . S
H651 C675 0.950 . S
H652 C676 0.950 . S
H653 C677 0.951 . S
H654 C679 0.951 . S
H655 C681 0.950 . S
H656 C682 0.950 . S
H657 C684 0.950 . S
H658 C687 0.950 . S
H659 C688 0.950 . S
H660 C690 0.950 . S
H661 C691 0.950 . S
C662 H644 0.951 . S
C662 C663 1.366 . S
C662 C664 1.388 . S
C663 C662 1.366 . S
C663 C667 1.385 . S
C664 H645 0.951 . S
C664 C662 1.388 . S
C664 C665 1.366 . S
C665 C664 1.366 . S
C665 C666 1.414 . S
C665 C668 1.499 . S
C666 H646 0.950 . S
C666 C665 1.414 . S
C666 C667 1.374 . S
C667 H647 0.950 . S
C667 C663 1.385 . S
C667 C666 1.374 . S
C668 C665 1.499 . S
C668 C669 1.373 . S
C668 C670 1.389 . S
C669 H648 0.950 . S
C669 C668 1.373 . S
C669 C685 1.377 . S
C670 C668 1.389 . S
C670 C671 1.524 . S
C670 C684 1.377 . S
C671 C670 1.524 . S
C671 C672 1.397 . S
C671 C676 1.363 . S
C672 H649 0.950 . S
C672 C671 1.397 . S
C672 C673 1.334 . S
C673 H650 0.950 . S
C673 C672 1.334 . S
C673 C674 1.287 . S
C674 C673 1.287 . S
C674 C675 1.524 . S
C674 H693 0.913 . S
C675 H651 0.950 . S
C675 C674 1.524 . S
C675 C676 1.415 . S
C676 H652 0.950 . S
C676 C671 1.363 . S
C676 C675 1.415 . S
C677 H653 0.951 . S
C677 C678 1.366 . S
C677 C679 1.388 . S
C678 C677 1.366 . S
C678 C682 1.385 . S
C679 H654 0.951 . S
C679 C677 1.388 . S
C679 C680 1.366 . S
C680 C679 1.366 . S
C680 C681 1.414 . S
C680 C683 1.499 . S
C681 H655 0.950 . S
C681 C680 1.414 . S
C681 C682 1.374 . S
C682 H656 0.950 . S
C682 C678 1.385 . S
C682 C681 1.374 . S
C683 C680 1.499 . S
C683 C684 1.373 . S
C683 C685 1.389 . S
C684 H657 0.950 . S
C684 C670 1.377 . S
C684 C683 1.373 . S
C685 C669 1.377 . S
C685 C683 1.389 . S
C685 C686 1.524 . S
C686 C685 1.524 . S
C686 C687 1.397 . S
C686 C691 1.363 . S
C687 H658 0.950 . S
C687 C686 1.397 . S
C687 C688 1.334 1_655 S
C688 H659 0.950 . S
C688 C687 1.334 1_455 S
C688 C689 1.287 . S
C689 C688 1.287 . S
C689 C690 1.524 1_455 S
C689 H692 0.999 . S
C690 H660 0.950 . S
C690 C689 1.524 1_655 S
C690 C691 1.415 . S
C691 H661 0.950 . S
C691 C686 1.363 . S
C691 C690 1.415 . S
H692 C689 0.999 . S
H693 C674 0.913 . S
H694 C712 0.951 1_455 S
H695 C714 0.951 . S
H696 C716 0.950 . S
H697 C717 0.950 . S
H698 C719 0.950 . S
H699 C722 0.950 . S
H700 C723 0.968 . S
H701 C725 0.950 . S
H702 C726 0.950 . S
H703 C727 0.951 . S
H704 C729 0.951 . S
H705 C731 0.950 . S
H706 C732 0.950 1_545 S
H707 C734 0.950 . S
H708 C737 0.950 . S
H709 C738 0.950 . S
H710 C740 0.950 . S
H711 C741 0.950 . S
C712 H694 0.951 1_655 S
C712 C713 1.366 . S
C712 C714 1.388 . S
C713 C712 1.366 . S
C713 C717 1.385 . S
C714 H695 0.951 . S
C714 C712 1.388 . S
C714 C715 1.366 . S
C715 C714 1.366 . S
C715 C716 1.414 . S
C715 C718 1.499 . S
C716 H696 0.950 . S
C716 C715 1.414 . S
C716 C717 1.374 . S
C717 H697 0.950 . S
C717 C713 1.385 . S
C717 C716 1.374 . S
C718 C715 1.499 . S
C718 C719 1.373 . S
C718 C720 1.389 . S
C719 H698 0.950 . S
C719 C718 1.373 . S
C719 C735 1.377 . S
C720 C718 1.389 . S
C720 C721 1.524 . S
C720 C734 1.377 . S
C721 C720 1.524 . S
C721 C722 1.397 . S
C721 C726 1.363 . S
C722 H699 0.950 . S
C722 C721 1.397 . S
C722 C723 1.291 1_655 S
C723 H700 0.968 . S
C723 C722 1.291 1_455 S
C723 C724 1.314 . S
C724 C723 1.314 . S
C724 C725 1.524 . S
C724 H743 0.913 . S
C725 H701 0.950 . S
C725 C724 1.524 . S
C725 C726 1.415 1_455 S
C726 H702 0.950 . S
C726 C721 1.363 . S
C726 C725 1.415 1_655 S
C727 H703 0.951 . S
C727 C728 1.366 . S
C727 C729 1.388 . S
C728 C727 1.366 . S
C728 C732 1.385 . S
C729 H704 0.951 . S
C729 C727 1.388 . S
C729 C730 1.366 . S
C730 C729 1.366 . S
C730 C731 1.414 . S
C730 C733 1.499 . S
C731 H705 0.950 . S
C731 C730 1.414 . S
C731 C732 1.374 . S
C732 H706 0.950 1_565 S
C732 C728 1.385 . S
C732 C731 1.374 . S
C733 C730 1.499 . S
C733 C734 1.373 . S
C733 C735 1.389 . S
C734 H707 0.950 . S
C734 C720 1.377 . S
C734 C733 1.373 . S
C735 C719 1.377 . S
C735 C733 1.389 . S
C735 C736 1.524 . S
C736 C735 1.524 . S
C736 C737 1.397 . S
C736 C741 1.363 . S
C737 H708 0.950 . S
C737 C736 1.397 . S
C737 C738 1.334 . S
C738 H709 0.950 . S
C738 C737 1.334 . S
C738 C739 1.287 . S
C739 C738 1.287 . S
C739 C740 1.524 . S
C739 H742 0.999 . S
C740 H710 0.950 . S
C740 C739 1.524 . S
C740 C741 1.415 . S
C741 H711 0.950 . S
C741 C736 1.363 . S
C741 C740 1.415 . S
H742 C739 0.999 . S
H743 C724 0.913 . S
H744 C762 0.951 1_565 S
H745 C764 0.951 . S
H746 C766 0.950 . S
H747 C767 0.950 . S
H748 C769 0.950 . S
H749 C772 0.950 . S
H750 C773 0.950 . S
H751 C775 0.950 . S
H752 C776 0.950 . S
H753 C777 0.951 . S
H754 C779 0.951 . S
H755 C781 0.950 . S
H756 C782 0.950 . S
H757 C784 0.950 . S
H758 C787 0.950 . S
H759 C788 0.950 . S
H760 C790 0.950 . S
H761 C791 0.950 . S
C762 H744 0.951 1_545 S
C762 C763 1.366 . S
C762 C764 1.388 . S
C763 C762 1.366 . S
C763 C767 1.385 . S
C764 H745 0.951 . S
C764 C762 1.388 . S
C764 C765 1.366 . S
C765 C764 1.366 . S
C765 C766 1.414 . S
C765 C768 1.499 . S
C766 H746 0.950 . S
C766 C765 1.414 . S
C766 C767 1.374 . S
C767 H747 0.950 . S
C767 C763 1.385 . S
C767 C766 1.374 . S
C768 C765 1.499 . S
C768 C769 1.373 . S
C768 C770 1.389 . S
C769 H748 0.950 . S
C769 C768 1.373 . S
C769 C785 1.377 . S
C770 C768 1.389 . S
C770 C771 1.524 . S
C770 C784 1.377 . S
C771 C770 1.524 . S
C771 C772 1.397 . S
C771 C776 1.363 . S
C772 H749 0.950 . S
C772 C771 1.397 . S
C772 C773 1.334 . S
C773 H750 0.950 . S
C773 C772 1.334 . S
C773 C774 1.287 . S
C774 C773 1.287 . S
C774 C775 1.524 . S
C774 H793 0.913 . S
C775 H751 0.950 . S
C775 C774 1.524 . S
C775 C776 1.415 . S
C776 H752 0.950 . S
C776 C771 1.363 . S
C776 C775 1.415 . S
C777 H753 0.951 . S
C777 C778 1.366 . S
C777 C779 1.388 . S
C778 C777 1.366 . S
C778 C782 1.385 . S
C779 H754 0.951 . S
C779 C777 1.388 . S
C779 C780 1.366 . S
C780 C779 1.366 . S
C780 C781 1.414 . S
C780 C783 1.499 . S
C781 H755 0.950 . S
C781 C780 1.414 . S
C781 C782 1.374 . S
C782 H756 0.950 . S
C782 C778 1.385 . S
C782 C781 1.374 . S
C783 C780 1.499 . S
C783 C784 1.373 . S
C783 C785 1.389 . S
C784 H757 0.950 . S
C784 C770 1.377 . S
C784 C783 1.373 . S
C785 C769 1.377 . S
C785 C783 1.389 . S
C785 C786 1.524 . S
C786 C785 1.524 . S
C786 C787 1.397 . S
C786 C791 1.363 . S
C787 H758 0.950 . S
C787 C786 1.397 . S
C787 C788 1.334 . S
C788 H759 0.950 . S
C788 C787 1.334 . S
C788 C789 1.287 . S
C789 C788 1.287 . S
C789 C790 1.524 . S
C789 H792 0.999 . S
C790 H760 0.950 . S
C790 C789 1.524 . S
C790 C791 1.415 . S
C791 H761 0.950 . S
C791 C786 1.363 . S
C791 C790 1.415 . S
H792 C789 0.999 . S
H793 C774 0.913 . S
H794 C812 0.951 . S
H795 C814 0.951 . S
H796 C816 0.950 . S
H797 C817 0.950 . S
H798 C819 0.950 . S
H799 C822 0.950 . S
H800 C823 0.950 . S
H801 C825 0.950 . S
H802 C826 0.950 . S
H803 C827 0.951 . S
H804 C829 0.951 . S
H805 C831 0.950 . S
H806 C832 0.950 . S
H807 C834 0.950 . S
H808 C837 0.950 . S
H809 C838 0.950 . S
H810 C840 0.950 . S
H811 C841 0.950 . S
C812 H794 0.951 . S
C812 C813 1.366 . S
C812 C814 1.388 . S
C813 C812 1.366 . S
C813 C817 1.385 . S
C814 H795 0.951 . S
C814 C812 1.388 . S
C814 C815 1.366 . S
C815 C814 1.366 . S
C815 C816 1.414 . S
C815 C818 1.499 . S
C816 H796 0.950 . S
C816 C815 1.414 . S
C816 C817 1.374 . S
C817 H797 0.950 . S
C817 C813 1.385 . S
C817 C816 1.374 . S
C818 C815 1.499 . S
C818 C819 1.373 . S
C818 C820 1.389 . S
C819 H798 0.950 . S
C819 C818 1.373 . S
C819 C835 1.377 . S
C820 C818 1.389 . S
C820 C821 1.524 . S
C820 C834 1.377 . S
C821 C820 1.524 . S
C821 C822 1.397 . S
C821 C826 1.363 . S
C822 H799 0.950 . S
C822 C821 1.397 . S
C822 C823 1.334 . S
C823 H800 0.950 . S
C823 C822 1.334 . S
C823 C824 1.287 . S
C824 C823 1.287 . S
C824 C825 1.524 . S
C824 H843 0.913 . S
C825 H801 0.950 . S
C825 C824 1.524 . S
C825 C826 1.415 . S
C826 H802 0.950 . S
C826 C821 1.363 . S
C826 C825 1.415 . S
C827 H803 0.951 . S
C827 C828 1.366 . S
C827 C829 1.388 . S
C828 C827 1.366 . S
C828 C832 1.385 . S
C829 H804 0.951 . S
C829 C827 1.388 . S
C829 C830 1.366 . S
C830 C829 1.366 . S
C830 C831 1.414 . S
C830 C833 1.499 . S
C831 H805 0.950 . S
C831 C830 1.414 . S
C831 C832 1.374 . S
C832 H806 0.950 . S
C832 C828 1.385 . S
C832 C831 1.374 . S
C833 C830 1.499 . S
C833 C834 1.373 . S
C833 C835 1.389 . S
C834 H807 0.950 . S
C834 C820 1.377 . S
C834 C833 1.373 . S
C835 C819 1.377 . S
C835 C833 1.389 . S
C835 C836 1.524 . S
C836 C835 1.524 . S
C836 C837 1.397 . S
C836 C841 1.363 . S
C837 H808 0.950 . S
C837 C836 1.397 . S
C837 C838 1.334 . S
C838 H809 0.950 . S
C838 C837 1.334 . S
C838 C839 1.287 . S
C839 C838 1.287 . S
C839 C840 1.524 . S
C839 H842 0.999 . S
C840 H810 0.950 . S
C840 C839 1.524 . S
C840 C841 1.415 . S
C841 H811 0.950 . S
C841 C836 1.363 . S
C841 C840 1.415 . S
H842 C839 0.999 . S
H843 C824 0.913 . S
H844 C862 0.951 . S
H845 C864 0.951 . S
H846 C866 0.950 . S
H847 C867 0.950 1_655 S
H848 C869 0.950 . S
H849 C872 0.950 . S
H850 C873 0.950 . S
H851 C875 0.950 . S
H852 C876 0.950 . S
H853 C877 0.951 . S
H854 C879 0.951 . S
H855 C881 0.950 . S
H856 C882 0.950 . S
H857 C884 0.950 . S
H858 C887 0.950 . S
H859 C888 0.950 . S
H860 C890 0.950 . S
H861 C891 0.950 . S
C862 H844 0.951 . S
C862 C863 1.366 . S
C862 C864 1.388 . S
C863 C862 1.366 . S
C863 C867 1.385 . S
C864 H845 0.951 . S
C864 C862 1.388 . S
C864 C865 1.366 . S
C865 C864 1.366 . S
C865 C866 1.414 . S
C865 C868 1.499 . S
C866 H846 0.950 . S
C866 C865 1.414 . S
C866 C867 1.374 . S
C867 H847 0.950 1_455 S
C867 C863 1.385 . S
C867 C866 1.374 . S
C868 C865 1.499 . S
C868 C869 1.373 . S
C868 C870 1.389 . S
C869 H848 0.950 . S
C869 C868 1.373 . S
C869 C885 1.377 . S
C870 C868 1.389 . S
C870 C871 1.524 . S
C870 C884 1.377 . S
C871 C870 1.524 . S
C871 C872 1.397 . S
C871 C876 1.363 . S
C872 H849 0.950 . S
C872 C871 1.397 . S
C872 C873 1.334 . S
C873 H850 0.950 . S
C873 C872 1.334 . S
C873 C874 1.287 . S
C874 C873 1.287 . S
C874 C875 1.524 . S
C874 H893 0.913 . S
C875 H851 0.950 . S
C875 C874 1.524 . S
C875 C876 1.415 . S
C876 H852 0.950 . S
C876 C871 1.363 . S
C876 C875 1.415 . S
C877 H853 0.951 . S
C877 C878 1.366 . S
C877 C879 1.388 . S
C878 C877 1.366 . S
C878 C882 1.385 . S
C879 H854 0.951 . S
C879 C877 1.388 . S
C879 C880 1.366 . S
C880 C879 1.366 . S
C880 C881 1.414 . S
C880 C883 1.499 . S
C881 H855 0.950 . S
C881 C880 1.414 . S
C881 C882 1.374 . S
C882 H856 0.950 . S
C882 C878 1.385 . S
C882 C881 1.374 . S
C883 C880 1.499 . S
C883 C884 1.373 . S
C883 C885 1.389 . S
C884 H857 0.950 . S
C884 C870 1.377 . S
C884 C883 1.373 . S
C885 C869 1.377 . S
C885 C883 1.389 . S
C885 C886 1.524 . S
C886 C885 1.524 . S
C886 C887 1.397 . S
C886 C891 1.363 . S
C887 H858 0.950 . S
C887 C886 1.397 . S
C887 C888 1.334 . S
C888 H859 0.950 . S
C888 C887 1.334 . S
C888 C889 1.287 . S
C889 C888 1.287 . S
C889 C890 1.524 . S
C889 H892 0.999 . S
C890 H860 0.950 . S
C890 C889 1.524 . S
C890 C891 1.415 . S
C891 H861 0.950 . S
C891 C886 1.363 . S
C891 C890 1.415 . S
H892 C889 0.999 . S
H893 C874 0.913 . S
H894 C912 0.951 . S
H895 C914 0.951 . S
H896 C916 0.950 . S
H897 C917 0.950 . S
H898 C919 0.950 . S
H899 C922 0.950 . S
H900 C923 0.950 . S
H901 C925 0.950 . S
H902 C926 0.950 . S
H903 C927 0.951 . S
H904 C929 0.951 . S
H905 C931 0.950 . S
H906 C932 0.950 1_655 S
H907 C934 0.950 . S
H908 C937 0.950 . S
H909 C938 0.950 . S
H910 C940 0.950 . S
H911 C941 0.950 . S
C912 H894 0.951 . S
C912 C913 1.366 . S
C912 C914 1.388 . S
C913 C912 1.366 . S
C913 C917 1.385 . S
C914 H895 0.951 . S
C914 C912 1.388 . S
C914 C915 1.366 . S
C915 C914 1.366 . S
C915 C916 1.414 . S
C915 C918 1.499 . S
C916 H896 0.950 . S
C916 C915 1.414 . S
C916 C917 1.374 . S
C917 H897 0.950 . S
C917 C913 1.385 . S
C917 C916 1.374 . S
C918 C915 1.499 . S
C918 C919 1.373 . S
C918 C920 1.389 . S
C919 H898 0.950 . S
C919 C918 1.373 . S
C919 C935 1.377 . S
C920 C918 1.389 . S
C920 C921 1.524 . S
C920 C934 1.377 . S
C921 C920 1.524 . S
C921 C922 1.397 . S
C921 C926 1.363 . S
C922 H899 0.950 . S
C922 C921 1.397 . S
C922 C923 1.334 . S
C923 H900 0.950 . S
C923 C922 1.334 . S
C923 C924 1.287 . S
C924 C923 1.287 . S
C924 C925 1.524 . S
C924 H943 0.913 . S
C925 H901 0.950 . S
C925 C924 1.524 . S
C925 C926 1.415 . S
C926 H902 0.950 . S
C926 C921 1.363 . S
C926 C925 1.415 . S
C927 H903 0.951 . S
C927 C928 1.366 . S
C927 C929 1.388 . S
C928 C927 1.366 . S
C928 C932 1.385 . S
C929 H904 0.951 . S
C929 C927 1.388 . S
C929 C930 1.366 . S
C930 C929 1.366 . S
C930 C931 1.414 . S
C930 C933 1.499 . S
C931 H905 0.950 . S
C931 C930 1.414 . S
C931 C932 1.374 . S
C932 H906 0.950 1_455 S
C932 C928 1.385 . S
C932 C931 1.374 . S
C933 C930 1.499 . S
C933 C934 1.373 . S
C933 C935 1.389 . S
C934 H907 0.950 . S
C934 C920 1.377 . S
C934 C933 1.373 . S
C935 C919 1.377 . S
C935 C933 1.389 . S
C935 C936 1.524 . S
C936 C935 1.524 . S
C936 C937 1.397 . S
C936 C941 1.363 . S
C937 H908 0.950 . S
C937 C936 1.397 . S
C937 C938 1.334 . S
C938 H909 0.950 . S
C938 C937 1.334 . S
C938 C939 1.287 . S
C939 C938 1.287 . S
C939 C940 1.524 . S
C939 H942 0.999 . S
C940 H910 0.950 . S
C940 C939 1.524 . S
C940 C941 1.415 . S
C941 H911 0.950 . S
C941 C936 1.363 . S
C941 C940 1.415 . S
H942 C939 0.999 . S
H943 C924 0.913 . S
H944 C962 0.951 . S
H945 C964 0.951 . S
H946 C966 0.950 . S
H947 C967 0.950 . S
H948 C969 0.950 . S
H949 C972 0.950 . S
H950 C973 0.950 . S
H951 C975 0.950 . S
H952 C976 0.950 . S
H953 C977 0.951 . S
H954 C979 0.951 . S
H955 C981 0.950 . S
H956 C982 0.950 . S
H957 C984 0.950 . S
H958 C987 0.950 . S
H959 C988 0.950 . S
H960 C990 0.950 . S
H961 C991 0.950 . S
C962 H944 0.951 . S
C962 C963 1.366 . S
C962 C964 1.388 . S
C963 C962 1.366 . S
C963 C967 1.385 . S
C964 H945 0.951 . S
C964 C962 1.388 . S
C964 C965 1.366 . S
C965 C964 1.366 . S
C965 C966 1.414 . S
C965 C968 1.499 . S
C966 H946 0.950 . S
C966 C965 1.414 . S
C966 C967 1.374 . S
C967 H947 0.950 . S
C967 C963 1.385 . S
C967 C966 1.374 . S
C968 C965 1.499 . S
C968 C969 1.373 . S
C968 C970 1.389 . S
C969 H948 0.950 . S
C969 C968 1.373 . S
C969 C985 1.377 . S
C970 C968 1.389 . S
C970 C971 1.524 . S
C970 C984 1.377 . S
C971 C970 1.524 . S
C971 C972 1.397 . S
C971 C976 1.363 . S
C972 H949 0.950 . S
C972 C971 1.397 . S
C972 C973 1.334 . S
C973 H950 0.950 . S
C973 C972 1.334 . S
C973 C974 1.287 . S
C974 C973 1.287 . S
C974 C975 1.524 . S
C974 H993 0.913 . S
C975 H951 0.950 . S
C975 C974 1.524 . S
C975 C976 1.415 . S
C976 H952 0.950 . S
C976 C971 1.363 . S
C976 C975 1.415 . S
C977 H953 0.951 . S
C977 C978 1.366 . S
C977 C979 1.388 . S
C978 C977 1.366 . S
C978 C982 1.385 . S
C979 H954 0.951 . S
C979 C977 1.388 . S
C979 C980 1.366 . S
C980 C979 1.366 . S
C980 C981 1.414 . S
C980 C983 1.499 . S
C981 H955 0.950 . S
C981 C980 1.414 . S
C981 C982 1.374 . S
C982 H956 0.950 . S
C982 C978 1.385 . S
C982 C981 1.374 . S
C983 C980 1.499 . S
C983 C984 1.373 . S
C983 C985 1.389 . S
C984 H957 0.950 . S
C984 C970 1.377 . S
C984 C983 1.373 . S
C985 C969 1.377 . S
C985 C983 1.389 . S
C985 C986 1.524 . S
C986 C985 1.524 . S
C986 C987 1.397 . S
C986 C991 1.363 1_545 S
C987 H958 0.950 . S
C987 C986 1.397 . S
C987 C988 1.334 . S
C988 H959 0.950 . S
C988 C987 1.334 . S
C988 C989 1.254 1_545 S
C989 C988 1.254 1_565 S
C989 C990 1.544 . S
C989 H992 1.018 . S
C990 H960 0.950 . S
C990 C989 1.544 . S
C990 C991 1.415 . S
C991 H961 0.950 . S
C991 C986 1.363 1_565 S
C991 C990 1.415 . S
H992 C989 1.018 . S
H993 C974 0.913 . S
H994 C1012 0.951 . S
H995 C1014 0.951 . S
H996 C1016 0.950 . S
H997 C1017 0.950 . S
H998 C1019 0.950 . S
H999 C1022 0.950 . S
H1000 C1023 0.950 . S
H1001 C1025 0.950 . S
H1002 C1026 0.950 . S
H1003 C1027 0.951 . S
H1004 C1029 0.951 . S
H1005 C1031 0.950 . S
H1006 C1032 0.950 . S
H1007 C1034 0.950 . S
H1008 C1037 0.950 . S
H1009 C1038 0.950 . S
H1010 C1040 0.950 . S
H1011 C1041 0.950 . S
C1012 H994 0.951 . S
C1012 C1013 1.366 . S
C1012 C1014 1.388 . S
C1013 C1012 1.366 . S
C1013 C1017 1.385 . S
C1014 H995 0.951 . S
C1014 C1012 1.388 . S
C1014 C1015 1.366 . S
C1015 C1014 1.366 . S
C1015 C1016 1.414 . S
C1015 C1018 1.499 . S
C1016 H996 0.950 . S
C1016 C1015 1.414 . S
C1016 C1017 1.374 . S
C1017 H997 0.950 . S
C1017 C1013 1.385 . S
C1017 C1016 1.374 . S
C1018 C1015 1.499 . S
C1018 C1019 1.373 . S
C1018 C1020 1.389 . S
C1019 H998 0.950 . S
C1019 C1018 1.373 . S
C1019 C1035 1.377 . S
C1020 C1018 1.389 . S
C1020 C1021 1.524 . S
C1020 C1034 1.377 . S
C1021 C1020 1.524 . S
C1021 C1022 1.397 . S
C1021 C1026 1.363 . S
C1022 H999 0.950 . S
C1022 C1021 1.397 . S
C1022 C1023 1.334 . S
C1023 H1000 0.950 . S
C1023 C1022 1.334 . S
C1023 C1024 1.287 . S
C1024 C1023 1.287 . S
C1024 C1025 1.524 . S
C1024 H1043 0.913 . S
C1025 H1001 0.950 . S
C1025 C1024 1.524 . S
C1025 C1026 1.415 . S
C1026 H1002 0.950 . S
C1026 C1021 1.363 . S
C1026 C1025 1.415 . S
C1027 H1003 0.951 . S
C1027 C1028 1.366 . S
C1027 C1029 1.388 . S
C1028 C1027 1.366 . S
C1028 C1032 1.385 . S
C1029 H1004 0.951 . S
C1029 C1027 1.388 . S
C1029 C1030 1.366 . S
C1030 C1029 1.366 . S
C1030 C1031 1.414 . S
C1030 C1033 1.499 . S
C1031 H1005 0.950 . S
C1031 C1030 1.414 . S
C1031 C1032 1.374 . S
C1032 H1006 0.950 . S
C1032 C1028 1.385 . S
C1032 C1031 1.374 . S
C1033 C1030 1.499 . S
C1033 C1034 1.373 . S
C1033 C1035 1.389 . S
C1034 H1007 0.950 . S
C1034 C1020 1.377 . S
C1034 C1033 1.373 . S
C1035 C1019 1.377 . S
C1035 C1033 1.389 . S
C1035 C1036 1.524 . S
C1036 C1035 1.524 . S
C1036 C1037 1.397 . S
C1036 C1041 1.363 . S
C1037 H1008 0.950 . S
C1037 C1036 1.397 . S
C1037 C1038 1.334 . S
C1038 H1009 0.950 . S
C1038 C1037 1.334 . S
C1038 C1039 1.287 . S
C1039 C1038 1.287 . S
C1039 C1040 1.524 . S
C1039 H1042 0.999 . S
C1040 H1010 0.950 . S
C1040 C1039 1.524 . S
C1040 C1041 1.415 . S
C1041 H1011 0.950 . S
C1041 C1036 1.363 . S
C1041 C1040 1.415 . S
H1042 C1039 0.999 . S
H1043 C1024 0.913 . S
H1044 C1062 0.951 . S
H1045 C1064 0.951 . S
H1046 C1066 0.950 . S
H1047 C1067 0.950 . S
H1048 C1069 0.950 . S
H1049 C1072 0.950 . S
H1050 C1073 0.950 . S
H1051 C1075 0.950 . S
H1052 C1076 0.950 . S
H1053 C1077 0.951 . S
H1054 C1079 0.951 . S
H1055 C1081 0.950 . S
H1056 C1082 0.950 . S
H1057 C1084 0.950 . S
H1058 C1087 0.950 . S
H1059 C1088 0.950 . S
H1060 C1090 0.950 . S
H1061 C1091 0.950 . S
C1062 H1044 0.951 . S
C1062 C1063 1.366 . S
C1062 C1064 1.388 . S
C1063 C1062 1.366 . S
C1063 C1067 1.385 . S
C1064 H1045 0.951 . S
C1064 C1062 1.388 . S
C1064 C1065 1.366 . S
C1065 C1064 1.366 . S
C1065 C1066 1.414 . S
C1065 C1068 1.499 . S
C1066 H1046 0.950 . S
C1066 C1065 1.414 . S
C1066 C1067 1.374 . S
C1067 H1047 0.950 . S
C1067 C1063 1.385 . S
C1067 C1066 1.374 . S
C1068 C1065 1.499 . S
C1068 C1069 1.373 . S
C1068 C1070 1.389 . S
C1069 H1048 0.950 . S
C1069 C1068 1.373 . S
C1069 C1085 1.377 . S
C1070 C1068 1.389 . S
C1070 C1071 1.524 . S
C1070 C1084 1.377 . S
C1071 C1070 1.524 . S
C1071 C1072 1.397 . S
C1071 C1076 1.363 . S
C1072 H1049 0.950 . S
C1072 C1071 1.397 . S
C1072 C1073 1.334 . S
C1073 H1050 0.950 . S
C1073 C1072 1.334 . S
C1073 C1074 1.287 . S
C1074 C1073 1.287 . S
C1074 C1075 1.524 . S
C1074 H1093 0.913 . S
C1075 H1051 0.950 . S
C1075 C1074 1.524 . S
C1075 C1076 1.415 . S
C1076 H1052 0.950 . S
C1076 C1071 1.363 . S
C1076 C1075 1.415 . S
C1077 H1053 0.951 . S
C1077 C1078 1.366 . S
C1077 C1079 1.388 . S
C1078 C1077 1.366 . S
C1078 C1082 1.385 . S
C1079 H1054 0.951 . S
C1079 C1077 1.388 . S
C1079 C1080 1.366 . S
C1080 C1079 1.366 . S
C1080 C1081 1.414 . S
C1080 C1083 1.499 . S
C1081 H1055 0.950 . S
C1081 C1080 1.414 . S
C1081 C1082 1.374 . S
C1082 H1056 0.950 . S
C1082 C1078 1.385 . S
C1082 C1081 1.374 . S
C1083 C1080 1.499 . S
C1083 C1084 1.373 . S
C1083 C1085 1.389 . S
C1084 H1057 0.950 . S
C1084 C1070 1.377 . S
C1084 C1083 1.373 . S
C1085 C1069 1.377 . S
C1085 C1083 1.389 . S
C1085 C1086 1.524 . S
C1086 C1085 1.524 . S
C1086 C1087 1.397 . S
C1086 C1091 1.363 . S
C1087 H1058 0.950 . S
C1087 C1086 1.397 . S
C1087 C1088 1.334 . S
C1088 H1059 0.950 . S
C1088 C1087 1.334 . S
C1088 C1089 1.287 . S
C1089 C1088 1.287 . S
C1089 C1090 1.524 . S
C1089 H1092 0.999 . S
C1090 H1060 0.950 . S
C1090 C1089 1.524 . S
C1090 C1091 1.415 . S
C1091 H1061 0.950 . S
C1091 C1086 1.363 . S
C1091 C1090 1.415 . S
H1092 C1089 0.999 . S
H1093 C1074 0.913 . S
H1094 C1112 0.951 . S
H1095 C1114 0.951 . S
H1096 C1116 0.950 . S
H1097 C1117 0.950 . S
H1098 C1119 0.950 . S
H1099 C1122 0.950 . S
H1100 C1123 0.950 . S
H1101 C1125 0.950 . S
H1102 C1126 0.950 . S
H1103 C1127 0.951 . S
H1104 C1129 0.951 . S
H1105 C1131 0.950 . S
H1106 C1132 0.950 . S
H1107 C1134 0.950 . S
H1108 C1137 0.950 . S
H1109 C1138 0.954 . S
H1110 C1140 0.950 . S
H1111 C1141 0.950 . S
C1112 H1094 0.951 . S
C1112 C1113 1.366 . S
C1112 C1114 1.388 . S
C1113 C1112 1.366 . S
C1113 C1117 1.385 . S
C1114 H1095 0.951 . S
C1114 C1112 1.388 . S
C1114 C1115 1.366 . S
C1115 C1114 1.366 . S
C1115 C1116 1.414 . S
C1115 C1118 1.499 . S
C1116 H1096 0.950 . S
C1116 C1115 1.414 . S
C1116 C1117 1.374 . S
C1117 H1097 0.950 . S
C1117 C1113 1.385 . S
C1117 C1116 1.374 . S
C1118 C1115 1.499 . S
C1118 C1119 1.373 . S
C1118 C1120 1.389 . S
C1119 H1098 0.950 . S
C1119 C1118 1.373 . S
C1119 C1135 1.377 . S
C1120 C1118 1.389 . S
C1120 C1121 1.524 . S
C1120 C1134 1.377 . S
C1121 C1120 1.524 . S
C1121 C1122 1.397 . S
C1121 C1126 1.363 . S
C1122 H1099 0.950 . S
C1122 C1121 1.397 . S
C1122 C1123 1.334 . S
C1123 H1100 0.950 . S
C1123 C1122 1.334 . S
C1123 C1124 1.287 . S
C1124 C1123 1.287 . S
C1124 C1125 1.524 . S
C1124 H1143 0.913 . S
C1125 H1101 0.950 . S
C1125 C1124 1.524 . S
C1125 C1126 1.415 . S
C1126 H1102 0.950 . S
C1126 C1121 1.363 . S
C1126 C1125 1.415 . S
C1127 H1103 0.951 . S
C1127 C1128 1.366 . S
C1127 C1129 1.388 . S
C1128 C1127 1.366 . S
C1128 C1132 1.385 . S
C1129 H1104 0.951 . S
C1129 C1127 1.388 . S
C1129 C1130 1.366 . S
C1130 C1129 1.366 . S
C1130 C1131 1.414 . S
C1130 C1133 1.499 . S
C1131 H1105 0.950 . S
C1131 C1130 1.414 . S
C1131 C1132 1.374 . S
C1132 H1106 0.950 . S
C1132 C1128 1.385 . S
C1132 C1131 1.374 . S
C1133 C1130 1.499 . S
C1133 C1134 1.373 . S
C1133 C1135 1.389 . S
C1134 H1107 0.950 . S
C1134 C1120 1.377 . S
C1134 C1133 1.373 . S
C1135 C1119 1.377 . S
C1135 C1133 1.389 . S
C1135 C1136 1.524 . S
C1136 C1135 1.524 . S
C1136 C1137 1.397 . S
C1136 C1141 1.363 1_455 S
C1137 H1108 0.950 . S
C1137 C1136 1.397 . S
C1137 C1138 1.334 1_455 S
C1138 H1109 0.954 . S
C1138 C1137 1.334 1_655 S
C1138 C1139 1.287 . S
C1139 C1138 1.287 . S
C1139 C1140 1.524 . S
C1139 H1142 0.999 . S
C1140 H1110 0.950 . S
C1140 C1139 1.524 . S
C1140 C1141 1.415 . S
C1141 H1111 0.950 . S
C1141 C1136 1.363 1_655 S
C1141 C1140 1.415 . S
H1142 C1139 0.999 . S
H1143 C1124 0.913 . S
H1144 C1162 0.951 . S
H1145 C1164 0.951 . S
H1146 C1166 0.950 . S
H1147 C1167 0.950 . S
H1148 C1169 0.950 . S
H1149 C1172 0.950 . S
H1150 C1173 0.950 . S
H1151 C1175 0.950 . S
H1152 C1176 0.950 . S
H1153 C1177 0.951 . S
H1154 C1179 0.951 . S
H1155 C1181 0.950 . S
H1156 C1182 0.950 . S
H1157 C1184 0.950 . S
H1158 C1187 0.950 . S
H1159 C1188 0.950 . S
H1160 C1190 0.950 . S
H1161 C1191 0.950 . S
C1162 H1144 0.951 . S
C1162 C1163 1.366 . S
C1162 C1164 1.388 . S
C1163 C1162 1.366 . S
C1163 C1167 1.385 . S
C1164 H1145 0.951 . S
C1164 C1162 1.388 . S
C1164 C1165 1.366 . S
C1165 C1164 1.366 . S
C1165 C1166 1.414 . S
C1165 C1168 1.499 . S
C1166 H1146 0.950 . S
C1166 C1165 1.414 . S
C1166 C1167 1.374 . S
C1167 H1147 0.950 . S
C1167 C1163 1.385 . S
C1167 C1166 1.374 . S
C1168 C1165 1.499 . S
C1168 C1169 1.373 . S
C1168 C1170 1.389 . S
C1169 H1148 0.950 . S
C1169 C1168 1.373 . S
C1169 C1185 1.377 . S
C1170 C1168 1.389 . S
C1170 C1171 1.524 . S
C1170 C1184 1.377 . S
C1171 C1170 1.524 . S
C1171 C1172 1.397 . S
C1171 C1176 1.363 . S
C1172 H1149 0.950 . S
C1172 C1171 1.397 . S
C1172 C1173 1.334 . S
C1173 H1150 0.950 . S
C1173 C1172 1.334 . S
C1173 C1174 1.287 . S
C1174 C1173 1.287 . S
C1174 C1175 1.524 . S
C1174 H1193 0.913 . S
C1175 H1151 0.950 . S
C1175 C1174 1.524 . S
C1175 C1176 1.415 . S
C1176 H1152 0.950 . S
C1176 C1171 1.363 . S
C1176 C1175 1.415 . S
C1177 H1153 0.951 . S
C1177 C1178 1.366 . S
C1177 C1179 1.388 . S
C1178 C1177 1.366 . S
C1178 C1182 1.385 . S
C1179 H1154 0.951 . S
C1179 C1177 1.388 . S
C1179 C1180 1.366 . S
C1180 C1179 1.366 . S
C1180 C1181 1.414 . S
C1180 C1183 1.499 . S
C1181 H1155 0.950 . S
C1181 C1180 1.414 . S
C1181 C1182 1.374 . S
C1182 H1156 0.950 . S
C1182 C1178 1.385 . S
C1182 C1181 1.374 . S
C1183 C1180 1.499 . S
C1183 C1184 1.373 . S
C1183 C1185 1.389 . S
C1184 H1157 0.950 . S
C1184 C1170 1.377 . S
C1184 C1183 1.373 . S
C1185 C1169 1.377 . S
C1185 C1183 1.389 . S
C1185 C1186 1.524 . S
C1186 C1185 1.524 . S
C1186 C1187 1.397 . S
C1186 C1191 1.363 . S
C1187 H1158 0.950 . S
C1187 C1186 1.397 . S
C1187 C1188 1.334 . S
C1188 H1159 0.950 . S
C1188 C1187 1.334 . S
C1188 C1189 1.287 . S
C1189 C1188 1.287 . S
C1189 C1190 1.524 . S
C1189 H1192 0.999 . S
C1190 H1160 0.950 . S
C1190 C1189 1.524 . S
C1190 C1191 1.415 . S
C1191 H1161 0.950 . S
C1191 C1186 1.363 . S
C1191 C1190 1.415 . S
H1192 C1189 0.999 . S
H1193 C1174 0.913 . S
H1194 C1212 0.951 . S
H1195 C1214 0.951 . S
H1196 C1216 0.950 . S
H1197 C1217 0.950 . S
H1198 C1219 0.950 . S
H1199 C1222 0.950 . S
H1200 C1223 0.950 . S
H1201 C1225 0.950 . S
H1202 C1226 0.950 . S
H1203 C1227 0.951 . S
H1204 C1229 0.951 . S
H1205 C1231 0.950 . S
H1206 C1232 0.950 . S
H1207 C1234 0.950 . S
H1208 C1237 0.950 . S
H1209 C1238 0.950 . S
H1210 C1240 0.950 . S
H1211 C1241 0.950 . S
C1212 H1194 0.951 . S
C1212 C1213 1.366 . S
C1212 C1214 1.388 . S
C1213 C1212 1.366 . S
C1213 C1217 1.385 . S
C1214 H1195 0.951 . S
C1214 C1212 1.388 . S
C1214 C1215 1.366 . S
C1215 C1214 1.366 . S
C1215 C1216 1.414 . S
C1215 C1218 1.499 . S
C1216 H1196 0.950 . S
C1216 C1215 1.414 . S
C1216 C1217 1.374 . S
C1217 H1197 0.950 . S
C1217 C1213 1.385 . S
C1217 C1216 1.374 . S
C1218 C1215 1.499 . S
C1218 C1219 1.373 . S
C1218 C1220 1.389 . S
C1219 H1198 0.950 . S
C1219 C1218 1.373 . S
C1219 C1235 1.377 . S
C1220 C1218 1.389 . S
C1220 C1221 1.524 . S
C1220 C1234 1.377 . S
C1221 C1220 1.524 . S
C1221 C1222 1.397 . S
C1221 C1226 1.363 . S
C1222 H1199 0.950 . S
C1222 C1221 1.397 . S
C1222 C1223 1.334 . S
C1223 H1200 0.950 . S
C1223 C1222 1.334 . S
C1223 C1224 1.287 . S
C1224 C1223 1.287 . S
C1224 C1225 1.524 . S
C1224 H1243 0.913 . S
C1225 H1201 0.950 . S
C1225 C1224 1.524 . S
C1225 C1226 1.415 . S
C1226 H1202 0.950 . S
C1226 C1221 1.363 . S
C1226 C1225 1.415 . S
C1227 H1203 0.951 . S
C1227 C1228 1.366 . S
C1227 C1229 1.388 . S
C1228 C1227 1.366 . S
C1228 C1232 1.385 . S
C1229 H1204 0.951 . S
C1229 C1227 1.388 . S
C1229 C1230 1.366 . S
C1230 C1229 1.366 . S
C1230 C1231 1.414 . S
C1230 C1233 1.499 . S
C1231 H1205 0.950 . S
C1231 C1230 1.414 . S
C1231 C1232 1.374 . S
C1232 H1206 0.950 . S
C1232 C1228 1.385 . S
C1232 C1231 1.374 . S
C1233 C1230 1.499 . S
C1233 C1234 1.373 . S
C1233 C1235 1.389 . S
C1234 H1207 0.950 . S
C1234 C1220 1.377 . S
C1234 C1233 1.373 . S
C1235 C1219 1.377 . S
C1235 C1233 1.389 . S
C1235 C1236 1.524 . S
C1236 C1235 1.524 . S
C1236 C1237 1.397 . S
C1236 C1241 1.363 . S
C1237 H1208 0.950 . S
C1237 C1236 1.397 . S
C1237 C1238 1.334 . S
C1238 H1209 0.950 . S
C1238 C1237 1.334 . S
C1238 C1239 1.287 . S
C1239 C1238 1.287 . S
C1239 C1240 1.524 . S
C1239 H1242 0.999 . S
C1240 H1210 0.950 . S
C1240 C1239 1.524 . S
C1240 C1241 1.415 . S
C1241 H1211 0.950 . S
C1241 C1236 1.363 . S
C1241 C1240 1.415 . S
H1242 C1239 0.999 . S
H1243 C1224 0.913 . S
H1244 C1262 0.951 . S
H1245 C1264 0.951 . S
H1246 C1266 0.950 . S
H1247 C1267 0.950 . S
H1248 C1269 0.950 . S
H1249 C1272 0.950 . S
H1250 C1273 0.950 . S
H1251 C1275 0.950 . S
H1252 C1276 0.950 . S
H1253 C1277 0.951 . S
H1254 C1279 0.951 . S
H1255 C1281 0.950 . S
H1256 C1282 0.950 . S
H1257 C1284 0.950 . S
H1258 C1287 0.950 . S
H1259 C1288 0.950 . S
H1260 C1290 0.950 . S
H1261 C1291 0.950 . S
C1262 H1244 0.951 . S
C1262 C1263 1.366 . S
C1262 C1264 1.388 . S
C1263 C1262 1.366 . S
C1263 C1267 1.385 . S
C1264 H1245 0.951 . S
C1264 C1262 1.388 . S
C1264 C1265 1.366 . S
C1265 C1264 1.366 . S
C1265 C1266 1.414 . S
C1265 C1268 1.499 . S
C1266 H1246 0.950 . S
C1266 C1265 1.414 . S
C1266 C1267 1.374 . S
C1267 H1247 0.950 . S
C1267 C1263 1.385 . S
C1267 C1266 1.374 . S
C1268 C1265 1.499 . S
C1268 C1269 1.373 . S
C1268 C1270 1.389 . S
C1269 H1248 0.950 . S
C1269 C1268 1.373 . S
C1269 C1285 1.377 . S
C1270 C1268 1.389 . S
C1270 C1271 1.524 . S
C1270 C1284 1.377 . S
C1271 C1270 1.524 . S
C1271 C1272 1.397 . S
C1271 C1276 1.363 . S
C1272 H1249 0.950 . S
C1272 C1271 1.397 . S
C1272 C1273 1.334 . S
C1273 H1250 0.950 . S
C1273 C1272 1.334 . S
C1273 C1274 1.287 . S
C1274 C1273 1.287 . S
C1274 C1275 1.524 . S
C1274 H1293 0.913 . S
C1275 H1251 0.950 . S
C1275 C1274 1.524 . S
C1275 C1276 1.415 . S
C1276 H1252 0.950 . S
C1276 C1271 1.363 . S
C1276 C1275 1.415 . S
C1277 H1253 0.951 . S
C1277 C1278 1.366 . S
C1277 C1279 1.388 . S
C1278 C1277 1.366 . S
C1278 C1282 1.385 . S
C1279 H1254 0.951 . S
C1279 C1277 1.388 . S
C1279 C1280 1.366 . S
C1280 C1279 1.366 . S
C1280 C1281 1.414 . S
C1280 C1283 1.499 . S
C1281 H1255 0.950 . S
C1281 C1280 1.414 . S
C1281 C1282 1.374 . S
C1282 H1256 0.950 . S
C1282 C1278 1.385 . S
C1282 C1281 1.374 . S
C1283 C1280 1.499 . S
C1283 C1284 1.373 . S
C1283 C1285 1.389 . S
C1284 H1257 0.950 . S
C1284 C1270 1.377 . S
C1284 C1283 1.373 . S
C1285 C1269 1.377 . S
C1285 C1283 1.389 . S
C1285 C1286 1.524 . S
C1286 C1285 1.524 . S
C1286 C1287 1.397 . S
C1286 C1291 1.363 . S
C1287 H1258 0.950 . S
C1287 C1286 1.397 . S
C1287 C1288 1.334 . S
C1288 H1259 0.950 . S
C1288 C1287 1.334 . S
C1288 C1289 1.287 . S
C1289 C1288 1.287 . S
C1289 C1290 1.524 . S
C1289 H1292 0.999 . S
C1290 H1260 0.950 . S
C1290 C1289 1.524 . S
C1290 C1291 1.415 . S
C1291 H1261 0.950 . S
C1291 C1286 1.363 . S
C1291 C1290 1.415 . S
H1292 C1289 0.999 . S
H1293 C1274 0.913 . S
H1294 C1312 0.951 . S
H1295 C1314 0.951 . S
H1296 C1316 0.950 . S
H1297 C1317 0.950 . S
H1298 C1319 0.950 . S
H1299 C1322 0.950 . S
H1300 C1323 0.950 . S
H1301 C1325 0.950 . S
H1302 C1326 0.950 . S
H1303 C1327 0.951 . S
H1304 C1329 0.951 . S
H1305 C1331 0.950 . S
H1306 C1332 0.950 . S
H1307 C1334 0.950 . S
H1308 C1337 0.950 . S
H1309 C1338 0.950 1_455 S
H1310 C1340 0.950 . S
H1311 C1341 0.950 . S
C1312 H1294 0.951 . S
C1312 C1313 1.366 . S
C1312 C1314 1.388 . S
C1313 C1312 1.366 . S
C1313 C1317 1.385 . S
C1314 H1295 0.951 . S
C1314 C1312 1.388 . S
C1314 C1315 1.366 . S
C1315 C1314 1.366 . S
C1315 C1316 1.414 . S
C1315 C1318 1.499 . S
C1316 H1296 0.950 . S
C1316 C1315 1.414 . S
C1316 C1317 1.374 . S
C1317 H1297 0.950 . S
C1317 C1313 1.385 . S
C1317 C1316 1.374 . S
C1318 C1315 1.499 . S
C1318 C1319 1.373 . S
C1318 C1320 1.389 . S
C1319 H1298 0.950 . S
C1319 C1318 1.373 . S
C1319 C1335 1.377 . S
C1320 C1318 1.389 . S
C1320 C1321 1.524 . S
C1320 C1334 1.377 . S
C1321 C1320 1.524 . S
C1321 C1322 1.397 . S
C1321 C1326 1.363 . S
C1322 H1299 0.950 . S
C1322 C1321 1.397 . S
C1322 C1323 1.334 . S
C1323 H1300 0.950 . S
C1323 C1322 1.334 . S
C1323 C1324 1.287 . S
C1324 C1323 1.287 . S
C1324 C1325 1.524 . S
C1324 H1343 0.913 . S
C1325 H1301 0.950 . S
C1325 C1324 1.524 . S
C1325 C1326 1.415 . S
C1326 H1302 0.950 . S
C1326 C1321 1.363 . S
C1326 C1325 1.415 . S
C1327 H1303 0.951 . S
C1327 C1328 1.366 . S
C1327 C1329 1.388 . S
C1328 C1327 1.366 . S
C1328 C1332 1.385 . S
C1329 H1304 0.951 . S
C1329 C1327 1.388 . S
C1329 C1330 1.366 . S
C1330 C1329 1.366 . S
C1330 C1331 1.414 . S
C1330 C1333 1.499 . S
C1331 H1305 0.950 . S
C1331 C1330 1.414 . S
C1331 C1332 1.374 . S
C1332 H1306 0.950 . S
C1332 C1328 1.385 . S
C1332 C1331 1.374 . S
C1333 C1330 1.499 . S
C1333 C1334 1.373 . S
C1333 C1335 1.389 . S
C1334 H1307 0.950 . S
C1334 C1320 1.377 . S
C1334 C1333 1.373 . S
C1335 C1319 1.377 . S
C1335 C1333 1.389 . S
C1335 C1336 1.524 . S
C1336 C1335 1.524 . S
C1336 C1337 1.397 . S
C1336 C1341 1.363 . S
C1337 H1308 0.950 . S
C1337 C1336 1.397 . S
C1337 C1338 1.334 . S
C1338 H1309 0.950 1_655 S
C1338 C1337 1.334 . S
C1338 C1339 1.287 . S
C1339 C1338 1.287 . S
C1339 C1340 1.524 . S
C1339 H1342 0.999 . S
C1340 H1310 0.950 . S
C1340 C1339 1.524 . S
C1340 C1341 1.415 . S
C1341 H1311 0.950 . S
C1341 C1336 1.363 . S
C1341 C1340 1.415 . S
H1342 C1339 0.999 . S
H1343 C1324 0.913 . S
H1344 C1362 0.951 . S
H1345 C1364 0.951 . S
H1346 C1366 0.950 . S
H1347 C1367 0.950 . S
H1348 C1369 0.950 . S
H1349 C1372 0.950 . S
H1350 C1373 0.950 . S
H1351 C1375 0.950 . S
H1352 C1376 0.950 . S
H1353 C1377 0.951 . S
H1354 C1379 0.951 . S
H1355 C1381 0.950 . S
H1356 C1382 0.950 . S
H1357 C1384 0.950 . S
H1358 C1387 0.950 . S
H1359 C1388 0.950 . S
H1360 C1390 0.950 . S
H1361 C1391 0.950 . S
C1362 H1344 0.951 . S
C1362 C1363 1.366 . S
C1362 C1364 1.388 . S
C1363 C1362 1.366 . S
C1363 C1367 1.385 . S
C1364 H1345 0.951 . S
C1364 C1362 1.388 . S
C1364 C1365 1.366 . S
C1365 C1364 1.366 . S
C1365 C1366 1.414 . S
C1365 C1368 1.499 . S
C1366 H1346 0.950 . S
C1366 C1365 1.414 . S
C1366 C1367 1.374 . S
C1367 H1347 0.950 . S
C1367 C1363 1.385 . S
C1367 C1366 1.374 . S
C1368 C1365 1.499 . S
C1368 C1369 1.373 . S
C1368 C1370 1.389 . S
C1369 H1348 0.950 . S
C1369 C1368 1.373 . S
C1369 C1385 1.377 . S
C1370 C1368 1.389 . S
C1370 C1371 1.524 . S
C1370 C1384 1.377 . S
C1371 C1370 1.524 . S
C1371 C1372 1.397 . S
C1371 C1376 1.363 . S
C1372 H1349 0.950 . S
C1372 C1371 1.397 . S
C1372 C1373 1.334 . S
C1373 H1350 0.950 . S
C1373 C1372 1.334 . S
C1373 C1374 1.287 . S
C1374 C1373 1.287 . S
C1374 C1375 1.524 . S
C1374 H1393 0.913 . S
C1375 H1351 0.950 . S
C1375 C1374 1.524 . S
C1375 C1376 1.415 . S
C1376 H1352 0.950 . S
C1376 C1371 1.363 . S
C1376 C1375 1.415 . S
C1377 H1353 0.951 . S
C1377 C1378 1.366 . S
C1377 C1379 1.388 . S
C1378 C1377 1.366 . S
C1378 C1382 1.385 . S
C1379 H1354 0.951 . S
C1379 C1377 1.388 . S
C1379 C1380 1.366 . S
C1380 C1379 1.366 . S
C1380 C1381 1.414 . S
C1380 C1383 1.499 . S
C1381 H1355 0.950 . S
C1381 C1380 1.414 . S
C1381 C1382 1.374 . S
C1382 H1356 0.950 . S
C1382 C1378 1.385 . S
C1382 C1381 1.374 . S
C1383 C1380 1.499 . S
C1383 C1384 1.373 . S
C1383 C1385 1.389 . S
C1384 H1357 0.950 . S
C1384 C1370 1.377 . S
C1384 C1383 1.373 . S
C1385 C1369 1.377 . S
C1385 C1383 1.389 . S
C1385 C1386 1.524 . S
C1386 C1385 1.524 . S
C1386 C1387 1.397 . S
C1386 C1391 1.363 . S
C1387 H1358 0.950 . S
C1387 C1386 1.397 . S
C1387 C1388 1.334 . S
C1388 H1359 0.950 . S
C1388 C1387 1.334 . S
C1388 C1389 1.287 . S
C1389 C1388 1.287 . S
C1389 C1390 1.524 . S
C1389 H1392 0.999 . S
C1390 H1360 0.950 . S
C1390 C1389 1.524 . S
C1390 C1391 1.415 . S
C1391 H1361 0.950 . S
C1391 C1386 1.363 . S
C1391 C1390 1.415 . S
H1392 C1389 0.999 . S
H1393 C1374 0.913 . S
H1394 C1412 0.951 . S
H1395 C1414 0.951 . S
H1396 C1416 0.950 . S
H1397 C1417 0.950 . S
H1398 C1419 0.950 . S
H1399 C1422 0.950 . S
H1400 C1423 0.950 . S
H1401 C1425 0.950 . S
H1402 C1426 0.950 . S
H1403 C1427 0.951 . S
H1404 C1429 0.951 . S
H1405 C1431 0.950 . S
H1406 C1432 0.950 . S
H1407 C1434 0.950 . S
H1408 C1437 0.950 . S
H1409 C1438 0.950 . S
H1410 C1440 0.950 . S
H1411 C1441 0.950 . S
C1412 H1394 0.951 . S
C1412 C1413 1.366 . S
C1412 C1414 1.388 . S
C1413 C1412 1.366 . S
C1413 C1417 1.385 . S
C1414 H1395 0.951 . S
C1414 C1412 1.388 . S
C1414 C1415 1.366 . S
C1415 C1414 1.366 . S
C1415 C1416 1.414 . S
C1415 C1418 1.499 . S
C1416 H1396 0.950 . S
C1416 C1415 1.414 . S
C1416 C1417 1.374 . S
C1417 H1397 0.950 . S
C1417 C1413 1.385 . S
C1417 C1416 1.374 . S
C1418 C1415 1.499 . S
C1418 C1419 1.373 . S
C1418 C1420 1.389 . S
C1419 H1398 0.950 . S
C1419 C1418 1.373 . S
C1419 C1435 1.377 . S
C1420 C1418 1.389 . S
C1420 C1421 1.524 . S
C1420 C1434 1.377 . S
C1421 C1420 1.524 . S
C1421 C1422 1.397 . S
C1421 C1426 1.363 . S
C1422 H1399 0.950 . S
C1422 C1421 1.397 . S
C1422 C1423 1.334 . S
C1423 H1400 0.950 . S
C1423 C1422 1.334 . S
C1423 C1424 1.287 . S
C1424 C1423 1.287 . S
C1424 C1425 1.524 . S
C1424 H1443 0.913 . S
C1425 H1401 0.950 . S
C1425 C1424 1.524 . S
C1425 C1426 1.415 . S
C1426 H1402 0.950 . S
C1426 C1421 1.363 . S
C1426 C1425 1.415 . S
C1427 H1403 0.951 . S
C1427 C1428 1.366 . S
C1427 C1429 1.388 . S
C1428 C1427 1.366 . S
C1428 C1432 1.385 . S
C1429 H1404 0.951 . S
C1429 C1427 1.388 . S
C1429 C1430 1.366 . S
C1430 C1429 1.366 . S
C1430 C1431 1.414 . S
C1430 C1433 1.499 . S
C1431 H1405 0.950 . S
C1431 C1430 1.414 . S
C1431 C1432 1.374 . S
C1432 H1406 0.950 . S
C1432 C1428 1.385 . S
C1432 C1431 1.374 . S
C1433 C1430 1.499 . S
C1433 C1434 1.373 . S
C1433 C1435 1.389 . S
C1434 H1407 0.950 . S
C1434 C1420 1.377 . S
C1434 C1433 1.373 . S
C1435 C1419 1.377 . S
C1435 C1433 1.389 . S
C1435 C1436 1.524 . S
C1436 C1435 1.524 . S
C1436 C1437 1.397 . S
C1436 C1441 1.363 . S
C1437 H1408 0.950 . S
C1437 C1436 1.397 . S
C1437 C1438 1.334 . S
C1438 H1409 0.950 . S
C1438 C1437 1.334 . S
C1438 C1439 1.287 . S
C1439 C1438 1.287 . S
C1439 C1440 1.524 . S
C1439 H1442 0.999 . S
C1440 H1410 0.950 . S
C1440 C1439 1.524 . S
C1440 C1441 1.415 . S
C1441 H1411 0.950 . S
C1441 C1436 1.363 . S
C1441 C1440 1.415 . S
H1442 C1439 0.999 . S
H1443 C1424 0.913 . S
H1444 C1462 0.951 . S
H1445 C1464 0.951 . S
H1446 C1466 0.950 . S
H1447 C1467 0.950 . S
H1448 C1469 0.950 . S
H1449 C1472 0.950 . S
H1450 C1473 0.950 . S
H1451 C1475 0.950 . S
H1452 C1476 0.950 . S
H1453 C1477 0.951 . S
H1454 C1479 0.951 . S
H1455 C1481 0.950 . S
H1456 C1482 0.950 . S
H1457 C1484 0.950 . S
H1458 C1487 0.950 . S
H1459 C1488 0.950 . S
H1460 C1490 0.950 . S
H1461 C1491 0.950 . S
C1462 H1444 0.951 . S
C1462 C1463 1.366 . S
C1462 C1464 1.388 . S
C1463 C1462 1.366 . S
C1463 C1467 1.385 . S
C1464 H1445 0.951 . S
C1464 C1462 1.388 . S
C1464 C1465 1.366 . S
C1465 C1464 1.366 . S
C1465 C1466 1.414 . S
C1465 C1468 1.499 . S
C1466 H1446 0.950 . S
C1466 C1465 1.414 . S
C1466 C1467 1.374 . S
C1467 H1447 0.950 . S
C1467 C1463 1.385 . S
C1467 C1466 1.374 . S
C1468 C1465 1.499 . S
C1468 C1469 1.373 . S
C1468 C1470 1.389 . S
C1469 H1448 0.950 . S
C1469 C1468 1.373 . S
C1469 C1485 1.377 . S
C1470 C1468 1.389 . S
C1470 C1471 1.524 . S
C1470 C1484 1.377 . S
C1471 C1470 1.524 . S
C1471 C1472 1.397 . S
C1471 C1476 1.363 . S
C1472 H1449 0.950 . S
C1472 C1471 1.397 . S
C1472 C1473 1.334 . S
C1473 H1450 0.950 . S
C1473 C1472 1.334 . S
C1473 C1474 1.287 . S
C1474 C1473 1.287 . S
C1474 C1475 1.524 . S
C1474 H1493 0.913 . S
C1475 H1451 0.950 . S
C1475 C1474 1.524 . S
C1475 C1476 1.415 . S
C1476 H1452 0.950 . S
C1476 C1471 1.363 . S
C1476 C1475 1.415 . S
C1477 H1453 0.951 . S
C1477 C1478 1.366 . S
C1477 C1479 1.388 . S
C1478 C1477 1.366 . S
C1478 C1482 1.385 . S
C1479 H1454 0.951 . S
C1479 C1477 1.388 . S
C1479 C1480 1.366 . S
C1480 C1479 1.366 . S
C1480 C1481 1.414 . S
C1480 C1483 1.499 . S
C1481 H1455 0.950 . S
C1481 C1480 1.414 . S
C1481 C1482 1.374 . S
C1482 H1456 0.950 . S
C1482 C1478 1.385 . S
C1482 C1481 1.374 . S
C1483 C1480 1.499 . S
C1483 C1484 1.373 . S
C1483 C1485 1.389 . S
C1484 H1457 0.950 . S
C1484 C1470 1.377 . S
C1484 C1483 1.373 . S
C1485 C1469 1.377 . S
C1485 C1483 1.389 . S
C1485 C1486 1.524 . S
C1486 C1485 1.524 . S
C1486 C1487 1.397 . S
C1486 C1491 1.363 . S
C1487 H1458 0.950 . S
C1487 C1486 1.397 . S
C1487 C1488 1.334 . S
C1488 H1459 0.950 . S
C1488 C1487 1.334 . S
C1488 C1489 1.287 . S
C1489 C1488 1.287 . S
C1489 C1490 1.524 . S
C1489 H1492 0.999 . S
C1490 H1460 0.950 . S
C1490 C1489 1.524 . S
C1490 C1491 1.415 . S
C1491 H1461 0.950 . S
C1491 C1486 1.363 . S
C1491 C1490 1.415 . S
H1492 C1489 0.999 . S
H1493 C1474 0.913 . S
H1494 C1512 0.951 . S
H1495 C1514 0.951 . S
H1496 C1516 0.950 . S
H1497 C1517 0.950 . S
H1498 C1519 0.950 . S
H1499 C1522 0.950 . S
H1500 C1523 0.950 . S
H1501 C1525 0.950 . S
H1502 C1526 0.950 . S
H1503 C1527 0.951 . S
H1504 C1529 0.951 . S
H1505 C1531 0.950 . S
H1506 C1532 0.950 . S
H1507 C1534 0.950 . S
H1508 C1537 0.950 . S
H1509 C1538 0.950 . S
H1510 C1540 0.950 . S
H1511 C1541 0.950 . S
C1512 H1494 0.951 . S
C1512 C1513 1.366 . S
C1512 C1514 1.388 . S
C1513 C1512 1.366 . S
C1513 C1517 1.385 . S
C1514 H1495 0.951 . S
C1514 C1512 1.388 . S
C1514 C1515 1.366 . S
C1515 C1514 1.366 . S
C1515 C1516 1.414 . S
C1515 C1518 1.499 . S
C1516 H1496 0.950 . S
C1516 C1515 1.414 . S
C1516 C1517 1.374 . S
C1517 H1497 0.950 . S
C1517 C1513 1.385 . S
C1517 C1516 1.374 . S
C1518 C1515 1.499 . S
C1518 C1519 1.373 . S
C1518 C1520 1.389 . S
C1519 H1498 0.950 . S
C1519 C1518 1.373 . S
C1519 C1535 1.377 . S
C1520 C1518 1.389 . S
C1520 C1521 1.524 . S
C1520 C1534 1.377 . S
C1521 C1520 1.524 . S
C1521 C1522 1.397 . S
C1521 C1526 1.363 . S
C1522 H1499 0.950 . S
C1522 C1521 1.397 . S
C1522 C1523 1.334 . S
C1523 H1500 0.950 . S
C1523 C1522 1.334 . S
C1523 C1524 1.287 . S
C1524 C1523 1.287 . S
C1524 C1525 1.524 . S
C1524 H1543 0.913 . S
C1525 H1501 0.950 . S
C1525 C1524 1.524 . S
C1525 C1526 1.415 . S
C1526 H1502 0.950 . S
C1526 C1521 1.363 . S
C1526 C1525 1.415 . S
C1527 H1503 0.951 . S
C1527 C1528 1.366 . S
C1527 C1529 1.388 . S
C1528 C1527 1.366 . S
C1528 C1532 1.385 . S
C1529 H1504 0.951 . S
C1529 C1527 1.388 . S
C1529 C1530 1.366 . S
C1530 C1529 1.366 . S
C1530 C1531 1.414 . S
C1530 C1533 1.499 . S
C1531 H1505 0.950 . S
C1531 C1530 1.414 . S
C1531 C1532 1.374 . S
C1532 H1506 0.950 . S
C1532 C1528 1.385 . S
C1532 C1531 1.374 . S
C1533 C1530 1.499 . S
C1533 C1534 1.373 . S
C1533 C1535 1.389 . S
C1534 H1507 0.950 . S
C1534 C1520 1.377 . S
C1534 C1533 1.373 . S
C1535 C1519 1.377 . S
C1535 C1533 1.389 . S
C1535 C1536 1.524 . S
C1536 C1535 1.524 . S
C1536 C1537 1.397 . S
C1536 C1541 1.363 . S
C1537 H1508 0.950 . S
C1537 C1536 1.397 . S
C1537 C1538 1.334 . S
C1538 H1509 0.950 . S
C1538 C1537 1.334 . S
C1538 C1539 1.287 . S
C1539 C1538 1.287 . S
C1539 C1540 1.524 . S
C1539 H1542 0.999 . S
C1540 H1510 0.950 . S
C1540 C1539 1.524 . S
C1540 C1541 1.415 . S
C1541 H1511 0.950 . S
C1541 C1536 1.363 . S
C1541 C1540 1.415 . S
H1542 C1539 0.999 . S
H1543 C1524 0.913 . S
H1544 C1562 0.951 . S
H1545 C1564 0.951 . S
H1546 C1566 0.950 . S
H1547 C1567 0.950 . S
H1548 C1569 0.950 . S
H1549 C1572 0.950 . S
H1550 C1573 0.950 . S
H1551 C1575 0.950 . S
H1552 C1576 0.950 . S
H1553 C1577 0.951 . S
H1554 C1579 0.951 . S
H1555 C1581 0.950 . S
H1556 C1582 0.950 . S
H1557 C1584 0.950 . S
H1558 C1587 0.950 . S
H1559 C1588 0.950 . S
H1560 C1590 0.950 . S
H1561 C1591 0.950 . S
C1562 H1544 0.951 . S
C1562 C1563 1.366 . S
C1562 C1564 1.388 . S
C1563 C1562 1.366 . S
C1563 C1567 1.385 . S
C1564 H1545 0.951 . S
C1564 C1562 1.388 . S
C1564 C1565 1.366 . S
C1565 C1564 1.366 . S
C1565 C1566 1.414 . S
C1565 C1568 1.499 . S
C1566 H1546 0.950 . S
C1566 C1565 1.414 . S
C1566 C1567 1.374 . S
C1567 H1547 0.950 . S
C1567 C1563 1.385 . S
C1567 C1566 1.374 . S
C1568 C1565 1.499 . S
C1568 C1569 1.373 . S
C1568 C1570 1.389 . S
C1569 H1548 0.950 . S
C1569 C1568 1.373 . S
C1569 C1585 1.377 . S
C1570 C1568 1.389 . S
C1570 C1571 1.524 . S
C1570 C1584 1.377 . S
C1571 C1570 1.524 . S
C1571 C1572 1.397 . S
C1571 C1576 1.363 . S
C1572 H1549 0.950 . S
C1572 C1571 1.397 . S
C1572 C1573 1.334 . S
C1573 H1550 0.950 . S
C1573 C1572 1.334 . S
C1573 C1574 1.287 . S
C1574 C1573 1.287 . S
C1574 C1575 1.524 . S
C1574 H1593 0.913 . S
C1575 H1551 0.950 . S
C1575 C1574 1.524 . S
C1575 C1576 1.415 . S
C1576 H1552 0.950 . S
C1576 C1571 1.363 . S
C1576 C1575 1.415 . S
C1577 H1553 0.951 . S
C1577 C1578 1.366 . S
C1577 C1579 1.388 . S
C1578 C1577 1.366 . S
C1578 C1582 1.385 . S
C1579 H1554 0.951 . S
C1579 C1577 1.388 . S
C1579 C1580 1.366 . S
C1580 C1579 1.366 . S
C1580 C1581 1.414 . S
C1580 C1583 1.499 . S
C1581 H1555 0.950 . S
C1581 C1580 1.414 . S
C1581 C1582 1.374 . S
C1582 H1556 0.950 . S
C1582 C1578 1.385 . S
C1582 C1581 1.374 . S
C1583 C1580 1.499 . S
C1583 C1584 1.373 . S
C1583 C1585 1.389 . S
C1584 H1557 0.950 . S
C1584 C1570 1.377 . S
C1584 C1583 1.373 . S
C1585 C1569 1.377 . S
C1585 C1583 1.389 . S
C1585 C1586 1.524 . S
C1586 C1585 1.524 . S
C1586 C1587 1.397 . S
C1586 C1591 1.363 . S
C1587 H1558 0.950 . S
C1587 C1586 1.397 . S
C1587 C1588 1.334 . S
C1588 H1559 0.950 . S
C1588 C1587 1.334 . S
C1588 C1589 1.287 . S
C1589 C1588 1.287 . S
C1589 C1590 1.524 . S
C1589 H1592 0.999 . S
C1590 H1560 0.950 . S
C1590 C1589 1.524 . S
C1590 C1591 1.415 . S
C1591 H1561 0.950 . S
C1591 C1586 1.363 . S
C1591 C1590 1.415 . S
H1592 C1589 0.999 . S
H1593 C1574 0.913 . S
H1594 C1612 0.951 . S
H1595 C1614 0.951 . S
H1596 C1616 0.950 . S
H1597 C1617 0.950 . S
H1598 C1619 0.950 . S
H1599 C1622 0.950 . S
H1600 C1623 0.950 . S
H1601 C1625 0.950 . S
H1602 C1626 0.950 . S
H1603 C1627 0.951 . S
H1604 C1629 0.951 . S
H1605 C1631 0.950 . S
H1606 C1632 0.950 . S
H1607 C1634 0.950 . S
H1608 C1637 0.950 . S
H1609 C1638 0.950 . S
H1610 C1640 0.950 . S
H1611 C1641 0.950 . S
C1612 H1594 0.951 . S
C1612 C1613 1.366 . S
C1612 C1614 1.388 . S
C1613 C1612 1.366 . S
C1613 C1617 1.385 . S
C1614 H1595 0.951 . S
C1614 C1612 1.388 . S
C1614 C1615 1.366 . S
C1615 C1614 1.366 . S
C1615 C1616 1.414 . S
C1615 C1618 1.499 . S
C1616 H1596 0.950 . S
C1616 C1615 1.414 . S
C1616 C1617 1.374 . S
C1617 H1597 0.950 . S
C1617 C1613 1.385 . S
C1617 C1616 1.374 . S
C1618 C1615 1.499 . S
C1618 C1619 1.373 . S
C1618 C1620 1.389 . S
C1619 H1598 0.950 . S
C1619 C1618 1.373 . S
C1619 C1635 1.377 . S
C1620 C1618 1.389 . S
C1620 C1621 1.524 . S
C1620 C1634 1.377 . S
C1621 C1620 1.524 . S
C1621 C1622 1.397 . S
C1621 C1626 1.363 . S
C1622 H1599 0.950 . S
C1622 C1621 1.397 . S
C1622 C1623 1.334 . S
C1623 H1600 0.950 . S
C1623 C1622 1.334 . S
C1623 C1624 1.287 . S
C1624 C1623 1.287 . S
C1624 C1625 1.524 . S
C1624 H1643 0.913 . S
C1625 H1601 0.950 . S
C1625 C1624 1.524 . S
C1625 C1626 1.415 . S
C1626 H1602 0.950 . S
C1626 C1621 1.363 . S
C1626 C1625 1.415 . S
C1627 H1603 0.951 . S
C1627 C1628 1.366 . S
C1627 C1629 1.388 . S
C1628 C1627 1.366 . S
C1628 C1632 1.385 . S
C1629 H1604 0.951 . S
C1629 C1627 1.388 . S
C1629 C1630 1.366 . S
C1630 C1629 1.366 . S
C1630 C1631 1.414 . S
C1630 C1633 1.499 . S
C1631 H1605 0.950 . S
C1631 C1630 1.414 . S
C1631 C1632 1.374 . S
C1632 H1606 0.950 . S
C1632 C1628 1.385 . S
C1632 C1631 1.374 . S
C1633 C1630 1.499 . S
C1633 C1634 1.373 . S
C1633 C1635 1.389 . S
C1634 H1607 0.950 . S
C1634 C1620 1.377 . S
C1634 C1633 1.373 . S
C1635 C1619 1.377 . S
C1635 C1633 1.389 . S
C1635 C1636 1.524 . S
C1636 C1635 1.524 . S
C1636 C1637 1.397 . S
C1636 C1641 1.363 . S
C1637 H1608 0.950 . S
C1637 C1636 1.397 . S
C1637 C1638 1.334 . S
C1638 H1609 0.950 . S
C1638 C1637 1.334 . S
C1638 C1639 1.287 . S
C1639 C1638 1.287 . S
C1639 C1640 1.524 . S
C1639 H1642 0.999 . S
C1640 H1610 0.950 . S
C1640 C1639 1.524 . S
C1640 C1641 1.415 . S
C1641 H1611 0.950 . S
C1641 C1636 1.363 . S
C1641 C1640 1.415 . S
H1642 C1639 0.999 . S
H1643 C1624 0.913 . S
H1644 C1662 0.951 . S
H1645 C1664 0.951 . S
H1646 C1666 0.950 . S
H1647 C1667 0.950 . S
H1648 C1669 0.950 . S
H1649 C1672 0.950 . S
H1650 C1673 0.950 . S
H1651 C1675 0.950 . S
H1652 C1676 0.950 . S
H1653 C1677 0.951 . S
H1654 C1679 0.951 . S
H1655 C1681 0.950 . S
H1656 C1682 0.950 . S
H1657 C1684 0.950 . S
H1658 C1687 0.950 . S
H1659 C1688 0.950 . S
H1660 C1690 0.950 . S
H1661 C1691 0.950 . S
C1662 H1644 0.951 . S
C1662 C1663 1.366 . S
C1662 C1664 1.388 . S
C1663 C1662 1.366 . S
C1663 C1667 1.385 . S
C1664 H1645 0.951 . S
C1664 C1662 1.388 . S
C1664 C1665 1.366 . S
C1665 C1664 1.366 . S
C1665 C1666 1.414 . S
C1665 C1668 1.499 . S
C1666 H1646 0.950 . S
C1666 C1665 1.414 . S
C1666 C1667 1.374 . S
C1667 H1647 0.950 . S
C1667 C1663 1.385 . S
C1667 C1666 1.374 . S
C1668 C1665 1.499 . S
C1668 C1669 1.373 . S
C1668 C1670 1.389 . S
C1669 H1648 0.950 . S
C1669 C1668 1.373 . S
C1669 C1685 1.377 . S
C1670 C1668 1.389 . S
C1670 C1671 1.524 . S
C1670 C1684 1.377 . S
C1671 C1670 1.524 . S
C1671 C1672 1.397 . S
C1671 C1676 1.363 . S
C1672 H1649 0.950 . S
C1672 C1671 1.397 . S
C1672 C1673 1.334 . S
C1673 H1650 0.950 . S
C1673 C1672 1.334 . S
C1673 C1674 1.287 . S
C1674 C1673 1.287 . S
C1674 C1675 1.524 . S
C1674 H1693 0.913 . S
C1675 H1651 0.950 . S
C1675 C1674 1.524 . S
C1675 C1676 1.415 . S
C1676 H1652 0.950 . S
C1676 C1671 1.363 . S
C1676 C1675 1.415 . S
C1677 H1653 0.951 . S
C1677 C1678 1.366 . S
C1677 C1679 1.388 . S
C1678 C1677 1.366 . S
C1678 C1682 1.385 . S
C1679 H1654 0.951 . S
C1679 C1677 1.388 . S
C1679 C1680 1.366 . S
C1680 C1679 1.366 . S
C1680 C1681 1.414 . S
C1680 C1683 1.499 . S
C1681 H1655 0.950 . S
C1681 C1680 1.414 . S
C1681 C1682 1.374 . S
C1682 H1656 0.950 . S
C1682 C1678 1.385 . S
C1682 C1681 1.374 . S
C1683 C1680 1.499 . S
C1683 C1684 1.373 . S
C1683 C1685 1.389 . S
C1684 H1657 0.950 . S
C1684 C1670 1.377 . S
C1684 C1683 1.373 . S
C1685 C1669 1.377 . S
C1685 C1683 1.389 . S
C1685 C1686 1.524 . S
C1686 C1685 1.524 . S
C1686 C1687 1.397 . S
C1686 C1691 1.363 . S
C1687 H1658 0.950 . S
C1687 C1686 1.397 . S
C1687 C1688 1.334 . S
C1688 H1659 0.950 . S
C1688 C1687 1.334 . S
C1688 C1689 1.287 . S
C1689 C1688 1.287 . S
C1689 C1690 1.524 . S
C1689 H1692 0.999 . S
C1690 H1660 0.950 . S
C1690 C1689 1.524 . S
C1690 C1691 1.415 . S
C1691 H1661 0.950 . S
C1691 C1686 1.363 . S
C1691 C1690 1.415 . S
H1692 C1689 0.999 . S
H1693 C1674 0.913 . S
H1694 C1712 0.951 . S
H1695 C1714 0.951 . S
H1696 C1716 0.950 . S
H1697 C1717 0.950 . S
H1698 C1719 0.950 . S
H1699 C1722 0.950 . S
H1700 C1723 0.950 . S
H1701 C1725 0.950 . S
H1702 C1726 0.950 . S
H1703 C1727 0.951 . S
H1704 C1729 0.951 . S
H1705 C1731 0.950 . S
H1706 C1732 0.950 . S
H1707 C1734 0.950 . S
H1708 C1737 0.950 . S
H1709 C1738 0.950 . S
H1710 C1740 0.950 . S
H1711 C1741 0.950 . S
C1712 H1694 0.951 . S
C1712 C1713 1.366 . S
C1712 C1714 1.388 . S
C1713 C1712 1.366 . S
C1713 C1717 1.385 . S
C1714 H1695 0.951 . S
C1714 C1712 1.388 . S
C1714 C1715 1.366 . S
C1715 C1714 1.366 . S
C1715 C1716 1.414 . S
C1715 C1718 1.499 . S
C1716 H1696 0.950 . S
C1716 C1715 1.414 . S
C1716 C1717 1.374 . S
C1717 H1697 0.950 . S
C1717 C1713 1.385 . S
C1717 C1716 1.374 . S
C1718 C1715 1.499 . S
C1718 C1719 1.373 . S
C1718 C1720 1.389 . S
C1719 H1698 0.950 . S
C1719 C1718 1.373 . S
C1719 C1735 1.377 . S
C1720 C1718 1.389 . S
C1720 C1721 1.524 . S
C1720 C1734 1.377 . S
C1721 C1720 1.524 . S
C1721 C1722 1.397 . S
C1721 C1726 1.363 . S
C1722 H1699 0.950 . S
C1722 C1721 1.397 . S
C1722 C1723 1.334 . S
C1723 H1700 0.950 . S
C1723 C1722 1.334 . S
C1723 C1724 1.287 . S
C1724 C1723 1.287 . S
C1724 C1725 1.524 . S
C1724 H1743 0.913 . S
C1725 H1701 0.950 . S
C1725 C1724 1.524 . S
C1725 C1726 1.415 . S
C1726 H1702 0.950 . S
C1726 C1721 1.363 . S
C1726 C1725 1.415 . S
C1727 H1703 0.951 . S
C1727 C1728 1.366 . S
C1727 C1729 1.388 . S
C1728 C1727 1.366 . S
C1728 C1732 1.385 . S
C1729 H1704 0.951 . S
C1729 C1727 1.388 . S
C1729 C1730 1.366 . S
C1730 C1729 1.366 . S
C1730 C1731 1.414 . S
C1730 C1733 1.499 . S
C1731 H1705 0.950 . S
C1731 C1730 1.414 . S
C1731 C1732 1.374 . S
C1732 H1706 0.950 . S
C1732 C1728 1.385 . S
C1732 C1731 1.374 . S
C1733 C1730 1.499 . S
C1733 C1734 1.373 . S
C1733 C1735 1.389 . S
C1734 H1707 0.950 . S
C1734 C1720 1.377 . S
C1734 C1733 1.373 . S
C1735 C1719 1.377 . S
C1735 C1733 1.389 . S
C1735 C1736 1.524 . S
C1736 C1735 1.524 . S
C1736 C1737 1.397 . S
C1736 C1741 1.363 . S
C1737 H1708 0.950 . S
C1737 C1736 1.397 . S
C1737 C1738 1.334 . S
C1738 H1709 0.950 . S
C1738 C1737 1.334 . S
C1738 C1739 1.287 . S
C1739 C1738 1.287 . S
C1739 C1740 1.524 . S
C1739 H1742 0.999 . S
C1740 H1710 0.950 . S
C1740 C1739 1.524 . S
C1740 C1741 1.415 . S
C1741 H1711 0.950 . S
C1741 C1736 1.363 . S
C1741 C1740 1.415 . S
H1742 C1739 0.999 . S
H1743 C1724 0.913 . S
H1744 C1762 0.951 . S
H1745 C1764 0.951 . S
H1746 C1766 0.950 . S
H1747 C1767 0.950 . S
H1748 C1769 0.950 . S
H1749 C1772 0.950 . S
H1750 C1773 0.950 . S
H1751 C1775 0.950 . S
H1752 C1776 0.950 . S
H1753 C1777 0.951 . S
H1754 C1779 0.951 . S
H1755 C1781 0.950 . S
H1756 C1782 0.950 . S
H1757 C1784 0.950 . S
H1758 C1787 0.950 . S
H1759 C1788 0.950 . S
H1760 C1790 0.950 . S
H1761 C1791 0.950 . S
C1762 H1744 0.951 . S
C1762 C1763 1.366 . S
C1762 C1764 1.388 . S
C1763 C1762 1.366 . S
C1763 C1767 1.385 . S
C1764 H1745 0.951 . S
C1764 C1762 1.388 . S
C1764 C1765 1.366 . S
C1765 C1764 1.366 . S
C1765 C1766 1.414 . S
C1765 C1768 1.499 . S
C1766 H1746 0.950 . S
C1766 C1765 1.414 . S
C1766 C1767 1.374 . S
C1767 H1747 0.950 . S
C1767 C1763 1.385 . S
C1767 C1766 1.374 . S
C1768 C1765 1.499 . S
C1768 C1769 1.373 . S
C1768 C1770 1.389 . S
C1769 H1748 0.950 . S
C1769 C1768 1.373 . S
C1769 C1785 1.377 . S
C1770 C1768 1.389 . S
C1770 C1771 1.524 . S
C1770 C1784 1.377 . S
C1771 C1770 1.524 . S
C1771 C1772 1.397 . S
C1771 C1776 1.363 . S
C1772 H1749 0.950 . S
C1772 C1771 1.397 . S
C1772 C1773 1.334 . S
C1773 H1750 0.950 . S
C1773 C1772 1.334 . S
C1773 C1774 1.287 . S
C1774 C1773 1.287 . S
C1774 C1775 1.524 . S
C1774 H1793 0.913 . S
C1775 H1751 0.950 . S
C1775 C1774 1.524 . S
C1775 C1776 1.415 . S
C1776 H1752 0.950 . S
C1776 C1771 1.363 . S
C1776 C1775 1.415 . S
C1777 H1753 0.951 . S
C1777 C1778 1.366 . S
C1777 C1779 1.388 . S
C1778 C1777 1.366 . S
C1778 C1782 1.385 . S
C1779 H1754 0.951 . S
C1779 C1777 1.388 . S
C1779 C1780 1.366 . S
C1780 C1779 1.366 . S
C1780 C1781 1.414 . S
C1780 C1783 1.499 . S
C1781 H1755 0.950 . S
C1781 C1780 1.414 . S
C1781 C1782 1.374 . S
C1782 H1756 0.950 . S
C1782 C1778 1.385 . S
C1782 C1781 1.374 . S
C1783 C1780 1.499 . S
C1783 C1784 1.373 . S
C1783 C1785 1.389 . S
C1784 H1757 0.950 . S
C1784 C1770 1.377 . S
C1784 C1783 1.373 . S
C1785 C1769 1.377 . S
C1785 C1783 1.389 . S
C1785 C1786 1.524 . S
C1786 C1785 1.524 . S
C1786 C1787 1.397 . S
C1786 C1791 1.363 . S
C1787 H1758 0.950 . S
C1787 C1786 1.397 . S
C1787 C1788 1.334 . S
C1788 H1759 0.950 . S
C1788 C1787 1.334 . S
C1788 C1789 1.287 . S
C1789 C1788 1.287 . S
C1789 C1790 1.524 . S
C1789 H1792 0.999 . S
C1790 H1760 0.950 . S
C1790 C1789 1.524 . S
C1790 C1791 1.415 . S
C1791 H1761 0.950 . S
C1791 C1786 1.363 . S
C1791 C1790 1.415 . S
H1792 C1789 0.999 . S
H1793 C1774 0.913 . S
H1794 C1812 0.951 . S
H1795 C1814 0.951 . S
H1796 C1816 0.950 . S
H1797 C1817 0.950 . S
H1798 C1819 0.950 . S
H1799 C1822 0.950 . S
H1800 C1823 0.950 . S
H1801 C1825 0.950 . S
H1802 C1826 0.950 . S
H1803 C1827 0.951 . S
H1804 C1829 0.951 . S
H1805 C1831 0.950 . S
H1806 C1832 0.950 . S
H1807 C1834 0.950 . S
H1808 C1837 0.950 . S
H1809 C1838 0.950 . S
H1810 C1840 0.950 . S
H1811 C1841 0.950 . S
C1812 H1794 0.951 . S
C1812 C1813 1.366 . S
C1812 C1814 1.388 . S
C1813 C1812 1.366 . S
C1813 C1817 1.385 . S
C1814 H1795 0.951 . S
C1814 C1812 1.388 . S
C1814 C1815 1.366 . S
C1815 C1814 1.366 . S
C1815 C1816 1.414 . S
C1815 C1818 1.499 . S
C1816 H1796 0.950 . S
C1816 C1815 1.414 . S
C1816 C1817 1.374 . S
C1817 H1797 0.950 . S
C1817 C1813 1.385 . S
C1817 C1816 1.374 . S
C1818 C1815 1.499 . S
C1818 C1819 1.373 . S
C1818 C1820 1.389 . S
C1819 H1798 0.950 . S
C1819 C1818 1.373 . S
C1819 C1835 1.377 . S
C1820 C1818 1.389 . S
C1820 C1821 1.524 . S
C1820 C1834 1.377 . S
C1821 C1820 1.524 . S
C1821 C1822 1.397 . S
C1821 C1826 1.363 . S
C1822 H1799 0.950 . S
C1822 C1821 1.397 . S
C1822 C1823 1.334 . S
C1823 H1800 0.950 . S
C1823 C1822 1.334 . S
C1823 C1824 1.287 . S
C1824 C1823 1.287 . S
C1824 C1825 1.524 . S
C1824 H1843 0.913 . S
C1825 H1801 0.950 . S
C1825 C1824 1.524 . S
C1825 C1826 1.415 . S
C1826 H1802 0.950 . S
C1826 C1821 1.363 . S
C1826 C1825 1.415 . S
C1827 H1803 0.951 . S
C1827 C1828 1.366 . S
C1827 C1829 1.388 . S
C1828 C1827 1.366 . S
C1828 C1832 1.385 . S
C1829 H1804 0.951 . S
C1829 C1827 1.388 . S
C1829 C1830 1.366 . S
C1830 C1829 1.366 . S
C1830 C1831 1.414 . S
C1830 C1833 1.499 . S
C1831 H1805 0.950 . S
C1831 C1830 1.414 . S
C1831 C1832 1.374 . S
C1832 H1806 0.950 . S
C1832 C1828 1.385 . S
C1832 C1831 1.374 . S
C1833 C1830 1.499 . S
C1833 C1834 1.373 . S
C1833 C1835 1.389 . S
C1834 H1807 0.950 . S
C1834 C1820 1.377 . S
C1834 C1833 1.373 . S
C1835 C1819 1.377 . S
C1835 C1833 1.389 . S
C1835 C1836 1.524 . S
C1836 C1835 1.524 . S
C1836 C1837 1.397 . S
C1836 C1841 1.363 . S
C1837 H1808 0.950 . S
C1837 C1836 1.397 . S
C1837 C1838 1.334 . S
C1838 H1809 0.950 . S
C1838 C1837 1.334 . S
C1838 C1839 1.287 . S
C1839 C1838 1.287 . S
C1839 C1840 1.524 . S
C1839 H1842 0.999 . S
C1840 H1810 0.950 . S
C1840 C1839 1.524 . S
C1840 C1841 1.415 . S
C1841 H1811 0.950 . S
C1841 C1836 1.363 . S
C1841 C1840 1.415 . S
H1842 C1839 0.999 . S
H1843 C1824 0.913 . S
H1844 C1862 0.951 . S
H1845 C1864 0.951 . S
H1846 C1866 0.950 . S
H1847 C1867 0.950 . S
H1848 C1869 0.950 . S
H1849 C1872 0.950 . S
H1850 C1873 0.950 . S
H1851 C1875 0.950 . S
H1852 C1876 0.950 . S
H1853 C1877 0.951 . S
H1854 C1879 0.951 . S
H1855 C1881 0.950 . S
H1856 C1882 0.950 . S
H1857 C1884 0.950 . S
H1858 C1887 0.950 . S
H1859 C1888 0.950 . S
H1860 C1890 0.950 . S
H1861 C1891 0.950 . S
C1862 H1844 0.951 . S
C1862 C1863 1.366 . S
C1862 C1864 1.388 . S
C1863 C1862 1.366 . S
C1863 C1867 1.385 . S
C1864 H1845 0.951 . S
C1864 C1862 1.388 . S
C1864 C1865 1.366 . S
C1865 C1864 1.366 . S
C1865 C1866 1.414 . S
C1865 C1868 1.499 . S
C1866 H1846 0.950 . S
C1866 C1865 1.414 . S
C1866 C1867 1.374 . S
C1867 H1847 0.950 . S
C1867 C1863 1.385 . S
C1867 C1866 1.374 . S
C1868 C1865 1.499 . S
C1868 C1869 1.373 . S
C1868 C1870 1.389 . S
C1869 H1848 0.950 . S
C1869 C1868 1.373 . S
C1869 C1885 1.377 . S
C1870 C1868 1.389 . S
C1870 C1871 1.524 . S
C1870 C1884 1.377 . S
C1871 C1870 1.524 . S
C1871 C1872 1.397 . S
C1871 C1876 1.363 . S
C1872 H1849 0.950 . S
C1872 C1871 1.397 . S
C1872 C1873 1.334 . S
C1873 H1850 0.950 . S
C1873 C1872 1.334 . S
C1873 C1874 1.287 . S
C1874 C1873 1.287 . S
C1874 C1875 1.524 . S
C1874 H1893 0.913 . S
C1875 H1851 0.950 . S
C1875 C1874 1.524 . S
C1875 C1876 1.415 . S
C1876 H1852 0.950 . S
C1876 C1871 1.363 . S
C1876 C1875 1.415 . S
C1877 H1853 0.951 . S
C1877 C1878 1.366 . S
C1877 C1879 1.388 . S
C1878 C1877 1.366 . S
C1878 C1882 1.385 . S
C1879 H1854 0.951 . S
C1879 C1877 1.388 . S
C1879 C1880 1.366 . S
C1880 C1879 1.366 . S
C1880 C1881 1.414 . S
C1880 C1883 1.499 . S
C1881 H1855 0.950 . S
C1881 C1880 1.414 . S
C1881 C1882 1.374 . S
C1882 H1856 0.950 . S
C1882 C1878 1.385 . S
C1882 C1881 1.374 . S
C1883 C1880 1.499 . S
C1883 C1884 1.373 . S
C1883 C1885 1.389 . S
C1884 H1857 0.950 . S
C1884 C1870 1.377 . S
C1884 C1883 1.373 . S
C1885 C1869 1.377 . S
C1885 C1883 1.389 . S
C1885 C1886 1.524 . S
C1886 C1885 1.524 . S
C1886 C1887 1.397 . S
C1886 C1891 1.363 . S
C1887 H1858 0.950 . S
C1887 C1886 1.397 . S
C1887 C1888 1.334 . S
C1888 H1859 0.950 . S
C1888 C1887 1.334 . S
C1888 C1889 1.287 . S
C1889 C1888 1.287 . S
C1889 C1890 1.524 . S
C1889 H1892 0.999 . S
C1890 H1860 0.950 . S
C1890 C1889 1.524 . S
C1890 C1891 1.415 . S
C1891 H1861 0.950 . S
C1891 C1886 1.363 . S
C1891 C1890 1.415 . S
H1892 C1889 0.999 . S
H1893 C1874 0.913 . S
H1894 C1912 0.951 . S
H1895 C1914 0.951 . S
H1896 C1916 0.950 . S
H1897 C1917 0.950 . S
H1898 C1919 0.950 . S
H1899 C1922 0.950 . S
H1900 C1923 0.950 . S
H1901 C1925 0.950 . S
H1902 C1926 0.950 . S
H1903 C1927 0.951 . S
H1904 C1929 0.951 . S
H1905 C1931 0.950 . S
H1906 C1932 0.950 . S
H1907 C1934 0.950 . S
H1908 C1937 0.950 . S
H1909 C1938 0.950 . S
H1910 C1940 0.950 . S
H1911 C1941 0.950 . S
C1912 H1894 0.951 . S
C1912 C1913 1.366 . S
C1912 C1914 1.388 . S
C1913 C1912 1.366 . S
C1913 C1917 1.385 . S
C1914 H1895 0.951 . S
C1914 C1912 1.388 . S
C1914 C1915 1.366 . S
C1915 C1914 1.366 . S
C1915 C1916 1.414 . S
C1915 C1918 1.499 . S
C1916 H1896 0.950 . S
C1916 C1915 1.414 . S
C1916 C1917 1.374 . S
C1917 H1897 0.950 . S
C1917 C1913 1.385 . S
C1917 C1916 1.374 . S
C1918 C1915 1.499 . S
C1918 C1919 1.373 . S
C1918 C1920 1.389 . S
C1919 H1898 0.950 . S
C1919 C1918 1.373 . S
C1919 C1935 1.377 . S
C1920 C1918 1.389 . S
C1920 C1921 1.524 . S
C1920 C1934 1.377 . S
C1921 C1920 1.524 . S
C1921 C1922 1.397 . S
C1921 C1926 1.363 . S
C1922 H1899 0.950 . S
C1922 C1921 1.397 . S
C1922 C1923 1.334 . S
C1923 H1900 0.950 . S
C1923 C1922 1.334 . S
C1923 C1924 1.287 . S
C1924 C1923 1.287 . S
C1924 C1925 1.524 . S
C1924 H1943 0.913 . S
C1925 H1901 0.950 . S
C1925 C1924 1.524 . S
C1925 C1926 1.415 . S
C1926 H1902 0.950 . S
C1926 C1921 1.363 . S
C1926 C1925 1.415 . S
C1927 H1903 0.951 . S
C1927 C1928 1.366 . S
C1927 C1929 1.388 . S
C1928 C1927 1.366 . S
C1928 C1932 1.385 . S
C1929 H1904 0.951 . S
C1929 C1927 1.388 . S
C1929 C1930 1.366 . S
C1930 C1929 1.366 . S
C1930 C1931 1.414 . S
C1930 C1933 1.499 . S
C1931 H1905 0.950 . S
C1931 C1930 1.414 . S
C1931 C1932 1.374 . S
C1932 H1906 0.950 . S
C1932 C1928 1.385 . S
C1932 C1931 1.374 . S
C1933 C1930 1.499 . S
C1933 C1934 1.373 . S
C1933 C1935 1.389 . S
C1934 H1907 0.950 . S
C1934 C1920 1.377 . S
C1934 C1933 1.373 . S
C1935 C1919 1.377 . S
C1935 C1933 1.389 . S
C1935 C1936 1.524 . S
C1936 C1935 1.524 . S
C1936 C1937 1.397 . S
C1936 C1941 1.363 . S
C1937 H1908 0.950 . S
C1937 C1936 1.397 . S
C1937 C1938 1.334 . S
C1938 H1909 0.950 . S
C1938 C1937 1.334 . S
C1938 C1939 1.287 . S
C1939 C1938 1.287 . S
C1939 C1940 1.524 . S
C1939 H1942 0.999 . S
C1940 H1910 0.950 . S
C1940 C1939 1.524 . S
C1940 C1941 1.415 . S
C1941 H1911 0.950 . S
C1941 C1936 1.363 . S
C1941 C1940 1.415 . S
H1942 C1939 0.999 . S
H1943 C1924 0.913 . S
H1944 C1962 0.951 . S
H1945 C1964 0.951 . S
H1946 C1966 0.950 . S
H1947 C1967 0.950 . S
H1948 C1969 0.950 . S
H1949 C1972 0.950 . S
H1950 C1973 0.950 . S
H1951 C1975 0.950 . S
H1952 C1976 0.950 . S
H1953 C1977 0.951 . S
H1954 C1979 0.951 . S
H1955 C1981 0.950 . S
H1956 C1982 0.950 . S
H1957 C1984 0.950 . S
H1958 C1987 0.950 . S
H1959 C1988 0.950 . S
H1960 C1990 0.950 . S
H1961 C1991 0.950 . S
C1962 H1944 0.951 . S
C1962 C1963 1.366 . S
C1962 C1964 1.388 . S
C1963 C1962 1.366 . S
C1963 C1967 1.385 . S
C1964 H1945 0.951 . S
C1964 C1962 1.388 . S
C1964 C1965 1.366 . S
C1965 C1964 1.366 . S
C1965 C1966 1.414 . S
C1965 C1968 1.499 . S
C1966 H1946 0.950 . S
C1966 C1965 1.414 . S
C1966 C1967 1.374 . S
C1967 H1947 0.950 . S
C1967 C1963 1.385 . S
C1967 C1966 1.374 . S
C1968 C1965 1.499 . S
C1968 C1969 1.373 . S
C1968 C1970 1.389 . S
C1969 H1948 0.950 . S
C1969 C1968 1.373 . S
C1969 C1985 1.377 . S
C1970 C1968 1.389 . S
C1970 C1971 1.524 . S
C1970 C1984 1.377 . S
C1971 C1970 1.524 . S
C1971 C1972 1.397 . S
C1971 C1976 1.363 . S
C1972 H1949 0.950 . S
C1972 C1971 1.397 . S
C1972 C1973 1.334 . S
C1973 H1950 0.950 . S
C1973 C1972 1.334 . S
C1973 C1974 1.287 . S
C1974 C1973 1.287 . S
C1974 C1975 1.524 . S
C1974 H1993 0.913 . S
C1975 H1951 0.950 . S
C1975 C1974 1.524 . S
C1975 C1976 1.415 . S
C1976 H1952 0.950 . S
C1976 C1971 1.363 . S
C1976 C1975 1.415 . S
C1977 H1953 0.951 . S
C1977 C1978 1.366 . S
C1977 C1979 1.388 . S
C1978 C1977 1.366 . S
C1978 C1982 1.385 . S
C1979 H1954 0.951 . S
C1979 C1977 1.388 . S
C1979 C1980 1.366 . S
C1980 C1979 1.366 . S
C1980 C1981 1.414 . S
C1980 C1983 1.499 . S
C1981 H1955 0.950 . S
C1981 C1980 1.414 . S
C1981 C1982 1.374 . S
C1982 H1956 0.950 . S
C1982 C1978 1.385 . S
C1982 C1981 1.374 . S
C1983 C1980 1.499 . S
C1983 C1984 1.373 . S
C1983 C1985 1.389 . S
C1984 H1957 0.950 . S
C1984 C1970 1.377 . S
C1984 C1983 1.373 . S
C1985 C1969 1.377 . S
C1985 C1983 1.389 . S
C1985 C1986 1.524 . S
C1986 C1985 1.524 . S
C1986 C1987 1.397 . S
C1986 C1991 1.363 . S
C1987 H1958 0.950 . S
C1987 C1986 1.397 . S
C1987 C1988 1.334 . S
C1988 H1959 0.950 . S
C1988 C1987 1.334 . S
C1988 C1989 1.287 . S
C1989 C1988 1.287 . S
C1989 C1990 1.524 . S
C1989 H1992 0.999 . S
C1990 H1960 0.950 . S
C1990 C1989 1.524 . S
C1990 C1991 1.415 . S
C1991 H1961 0.950 . S
C1991 C1986 1.363 . S
C1991 C1990 1.415 . S
H1992 C1989 0.999 . S
H1993 C1974 0.913 . S
H1994 C2012 0.951 . S
H1995 C2014 0.951 . S
H1996 C2016 0.950 . S
H1997 C2017 0.950 . S
H1998 C2019 0.950 . S
H1999 C2022 0.950 . S
H2000 C2023 0.950 . S
H2001 C2025 0.950 . S
H2002 C2026 0.950 . S
H2003 C2027 0.951 . S
H2004 C2029 0.951 . S
H2005 C2031 0.950 . S
H2006 C2032 0.950 . S
H2007 C2034 0.950 . S
H2008 C2037 0.950 . S
H2009 C2038 0.950 . S
H2010 C2040 0.950 . S
H2011 C2041 0.950 . S
C2012 H1994 0.951 . S
C2012 C2013 1.366 . S
C2012 C2014 1.388 . S
C2013 C2012 1.366 . S
C2013 C2017 1.385 . S
C2014 H1995 0.951 . S
C2014 C2012 1.388 . S
C2014 C2015 1.366 . S
C2015 C2014 1.366 . S
C2015 C2016 1.414 . S
C2015 C2018 1.499 . S
C2016 H1996 0.950 . S
C2016 C2015 1.414 . S
C2016 C2017 1.374 . S
C2017 H1997 0.950 . S
C2017 C2013 1.385 . S
C2017 C2016 1.374 . S
C2018 C2015 1.499 . S
C2018 C2019 1.373 . S
C2018 C2020 1.389 . S
C2019 H1998 0.950 . S
C2019 C2018 1.373 . S
C2019 C2035 1.377 . S
C2020 C2018 1.389 . S
C2020 C2021 1.524 . S
C2020 C2034 1.377 . S
C2021 C2020 1.524 . S
C2021 C2022 1.397 . S
C2021 C2026 1.363 . S
C2022 H1999 0.950 . S
C2022 C2021 1.397 . S
C2022 C2023 1.334 . S
C2023 H2000 0.950 . S
C2023 C2022 1.334 . S
C2023 C2024 1.287 . S
C2024 C2023 1.287 . S
C2024 C2025 1.524 . S
C2024 H2043 0.913 . S
C2025 H2001 0.950 . S
C2025 C2024 1.524 . S
C2025 C2026 1.415 . S
C2026 H2002 0.950 . S
C2026 C2021 1.363 . S
C2026 C2025 1.415 . S
C2027 H2003 0.951 . S
C2027 C2028 1.366 . S
C2027 C2029 1.388 . S
C2028 C2027 1.366 . S
C2028 C2032 1.385 . S
C2029 H2004 0.951 . S
C2029 C2027 1.388 . S
C2029 C2030 1.366 . S
C2030 C2029 1.366 . S
C2030 C2031 1.414 . S
C2030 C2033 1.499 . S
C2031 H2005 0.950 . S
C2031 C2030 1.414 . S
C2031 C2032 1.374 . S
C2032 H2006 0.950 . S
C2032 C2028 1.385 . S
C2032 C2031 1.374 . S
C2033 C2030 1.499 . S
C2033 C2034 1.373 . S
C2033 C2035 1.389 . S
C2034 H2007 0.950 . S
C2034 C2020 1.377 . S
C2034 C2033 1.373 . S
C2035 C2019 1.377 . S
C2035 C2033 1.389 . S
C2035 C2036 1.524 . S
C2036 C2035 1.524 . S
C2036 C2037 1.397 . S
C2036 C2041 1.363 . S
C2037 H2008 0.950 . S
C2037 C2036 1.397 . S
C2037 C2038 1.334 . S
C2038 H2009 0.950 . S
C2038 C2037 1.334 . S
C2038 C2039 1.287 . S
C2039 C2038 1.287 . S
C2039 C2040 1.524 . S
C2039 H2042 0.999 . S
C2040 H2010 0.950 . S
C2040 C2039 1.524 . S
C2040 C2041 1.415 . S
C2041 H2011 0.950 . S
C2041 C2036 1.363 . S
C2041 C2040 1.415 . S
H2042 C2039 0.999 . S
H2043 C2024 0.913 . S
H2044 C2062 0.951 . S
H2045 C2064 0.951 . S
H2046 C2066 0.950 . S
H2047 C2067 0.950 . S
H2048 C2069 0.950 . S
H2049 C2072 0.950 . S
H2050 C2073 0.950 . S
H2051 C2075 0.950 . S
H2052 C2076 0.950 . S
H2053 C2077 0.951 . S
H2054 C2079 0.951 . S
H2055 C2081 0.950 . S
H2056 C2082 0.950 . S
H2057 C2084 0.950 . S
H2058 C2087 0.950 . S
H2059 C2088 0.950 . S
H2060 C2090 0.950 . S
H2061 C2091 0.950 . S
C2062 H2044 0.951 . S
C2062 C2063 1.366 . S
C2062 C2064 1.388 . S
C2063 C2062 1.366 . S
C2063 C2067 1.385 . S
C2064 H2045 0.951 . S
C2064 C2062 1.388 . S
C2064 C2065 1.366 . S
C2065 C2064 1.366 . S
C2065 C2066 1.414 . S
C2065 C2068 1.499 . S
C2066 H2046 0.950 . S
C2066 C2065 1.414 . S
C2066 C2067 1.374 . S
C2067 H2047 0.950 . S
C2067 C2063 1.385 . S
C2067 C2066 1.374 . S
C2068 C2065 1.499 . S
C2068 C2069 1.373 . S
C2068 C2070 1.389 . S
C2069 H2048 0.950 . S
C2069 C2068 1.373 . S
C2069 C2085 1.377 . S
C2070 C2068 1.389 . S
C2070 C2071 1.524 . S
C2070 C2084 1.377 . S
C2071 C2070 1.524 . S
C2071 C2072 1.397 . S
C2071 C2076 1.363 . S
C2072 H2049 0.950 . S
C2072 C2071 1.397 . S
C2072 C2073 1.334 . S
C2073 H2050 0.950 . S
C2073 C2072 1.334 . S
C2073 C2074 1.287 . S
C2074 C2073 1.287 . S
C2074 C2075 1.524 . S
C2074 H2093 0.913 . S
C2075 H2051 0.950 . S
C2075 C2074 1.524 . S
C2075 C2076 1.415 . S
C2076 H2052 0.950 . S
C2076 C2071 1.363 . S
C2076 C2075 1.415 . S
C2077 H2053 0.951 . S
C2077 C2078 1.366 . S
C2077 C2079 1.388 . S
C2078 C2077 1.366 . S
C2078 C2082 1.385 . S
C2079 H2054 0.951 . S
C2079 C2077 1.388 . S
C2079 C2080 1.366 . S
C2080 C2079 1.366 . S
C2080 C2081 1.414 . S
C2080 C2083 1.499 . S
C2081 H2055 0.950 . S
C2081 C2080 1.414 . S
C2081 C2082 1.374 . S
C2082 H2056 0.950 . S
C2082 C2078 1.385 . S
C2082 C2081 1.374 . S
C2083 C2080 1.499 . S
C2083 C2084 1.373 . S
C2083 C2085 1.389 . S
C2084 H2057 0.950 . S
C2084 C2070 1.377 . S
C2084 C2083 1.373 . S
C2085 C2069 1.377 . S
C2085 C2083 1.389 . S
C2085 C2086 1.524 . S
C2086 C2085 1.524 . S
C2086 C2087 1.397 . S
C2086 C2091 1.363 . S
C2087 H2058 0.950 . S
C2087 C2086 1.397 . S
C2087 C2088 1.334 . S
C2088 H2059 0.950 . S
C2088 C2087 1.334 . S
C2088 C2089 1.287 . S
C2089 C2088 1.287 . S
C2089 C2090 1.524 . S
C2089 H2092 0.999 . S
C2090 H2060 0.950 . S
C2090 C2089 1.524 . S
C2090 C2091 1.415 . S
C2091 H2061 0.950 . S
C2091 C2086 1.363 . S
C2091 C2090 1.415 . S
H2092 C2089 0.999 . S
H2093 C2074 0.913 . S
H2094 C2112 0.951 . S
H2095 C2114 0.951 . S
H2096 C2116 0.950 . S
H2097 C2117 0.950 . S
H2098 C2119 0.950 . S
H2099 C2122 0.950 . S
H2100 C2123 0.950 . S
H2101 C2125 0.950 . S
H2102 C2126 0.950 . S
H2103 C2127 0.951 . S
H2104 C2129 0.951 . S
H2105 C2131 0.950 . S
H2106 C2132 0.950 . S
H2107 C2134 0.950 . S
H2108 C2137 0.950 . S
H2109 C2138 0.950 . S
H2110 C2140 0.950 . S
H2111 C2141 0.950 . S
C2112 H2094 0.951 . S
C2112 C2113 1.366 . S
C2112 C2114 1.388 . S
C2113 C2112 1.366 . S
C2113 C2117 1.385 . S
C2114 H2095 0.951 . S
C2114 C2112 1.388 . S
C2114 C2115 1.366 . S
C2115 C2114 1.366 . S
C2115 C2116 1.414 . S
C2115 C2118 1.499 . S
C2116 H2096 0.950 . S
C2116 C2115 1.414 . S
C2116 C2117 1.374 . S
C2117 H2097 0.950 . S
C2117 C2113 1.385 . S
C2117 C2116 1.374 . S
C2118 C2115 1.499 . S
C2118 C2119 1.373 . S
C2118 C2120 1.389 . S
C2119 H2098 0.950 . S
C2119 C2118 1.373 . S
C2119 C2135 1.377 . S
C2120 C2118 1.389 . S
C2120 C2121 1.524 . S
C2120 C2134 1.377 . S
C2121 C2120 1.524 . S
C2121 C2122 1.397 . S
C2121 C2126 1.363 . S
C2122 H2099 0.950 . S
C2122 C2121 1.397 . S
C2122 C2123 1.334 . S
C2123 H2100 0.950 . S
C2123 C2122 1.334 . S
C2123 C2124 1.287 . S
C2124 C2123 1.287 . S
C2124 C2125 1.524 . S
C2124 H2143 0.913 . S
C2125 H2101 0.950 . S
C2125 C2124 1.524 . S
C2125 C2126 1.415 . S
C2126 H2102 0.950 . S
C2126 C2121 1.363 . S
C2126 C2125 1.415 . S
C2127 H2103 0.951 . S
C2127 C2128 1.366 . S
C2127 C2129 1.388 . S
C2128 C2127 1.366 . S
C2128 C2132 1.385 . S
C2129 H2104 0.951 . S
C2129 C2127 1.388 . S
C2129 C2130 1.366 . S
C2130 C2129 1.366 . S
C2130 C2131 1.414 . S
C2130 C2133 1.499 . S
C2131 H2105 0.950 . S
C2131 C2130 1.414 . S
C2131 C2132 1.374 . S
C2132 H2106 0.950 . S
C2132 C2128 1.385 . S
C2132 C2131 1.374 . S
C2133 C2130 1.499 . S
C2133 C2134 1.373 . S
C2133 C2135 1.389 . S
C2134 H2107 0.950 . S
C2134 C2120 1.377 . S
C2134 C2133 1.373 . S
C2135 C2119 1.377 . S
C2135 C2133 1.389 . S
C2135 C2136 1.524 . S
C2136 C2135 1.524 . S
C2136 C2137 1.397 . S
C2136 C2141 1.363 . S
C2137 H2108 0.950 . S
C2137 C2136 1.397 . S
C2137 C2138 1.334 . S
C2138 H2109 0.950 . S
C2138 C2137 1.334 . S
C2138 C2139 1.287 . S
C2139 C2138 1.287 . S
C2139 C2140 1.524 . S
C2139 H2142 0.999 . S
C2140 H2110 0.950 . S
C2140 C2139 1.524 . S
C2140 C2141 1.415 . S
C2141 H2111 0.950 . S
C2141 C2136 1.363 . S
C2141 C2140 1.415 . S
H2142 C2139 0.999 . S
H2143 C2124 0.913 . S
H2144 C2162 0.951 . S
H2145 C2164 0.951 . S
H2146 C2166 0.906 1_565 S
H2147 C2167 0.917 1_565 S
H2148 C2169 0.950 . S
H2149 C2172 0.950 1_565 S
H2150 C2173 0.950 . S
H2151 C2175 0.950 . S
H2152 C2176 0.950 . S
H2153 C2177 0.951 . S
H2154 C2179 0.951 . S
H2155 C2181 0.906 1_545 S
H2156 C2182 0.917 1_545 S
H2157 C2184 0.950 . S
H2158 C2187 0.950 1_545 S
H2159 C2188 0.950 . S
H2160 C2190 0.950 . S
H2161 C2191 0.950 . S
C2162 H2144 0.951 . S
C2162 C2163 1.366 . S
C2162 C2164 1.388 . S
C2163 C2162 1.366 . S
C2163 C2167 1.385 . S
C2164 H2145 0.951 . S
C2164 C2162 1.388 . S
C2164 C2165 1.366 . S
C2165 C2164 1.366 . S
C2165 C2166 1.443 . S
C2165 C2168 1.499 . S
C2166 H2146 0.906 1_545 S
C2166 C2165 1.443 . S
C2166 C2167 1.391 . S
C2167 H2147 0.917 1_545 S
C2167 C2163 1.385 . S
C2167 C2166 1.391 . S
C2168 C2165 1.499 . S
C2168 C2169 1.373 1_544 S
C2168 C2170 1.389 . S
C2169 H2148 0.950 . S
C2169 C2168 1.373 1_566 S
C2169 C2185 1.377 . S
C2170 C2168 1.389 . S
C2170 C2171 1.524 . S
C2170 C2184 1.377 . S
C2171 C2170 1.524 . S
C2171 C2172 1.397 . S
C2171 C2176 1.363 . S
C2172 H2149 0.950 1_545 S
C2172 C2171 1.397 . S
C2172 C2173 1.334 . S
C2173 H2150 0.950 . S
C2173 C2172 1.334 . S
C2173 C2174 1.287 . S
C2174 C2173 1.287 . S
C2174 C2175 1.524 . S
C2174 H2193 0.913 . S
C2175 H2151 0.950 . S
C2175 C2174 1.524 . S
C2175 C2176 1.415 . S
C2176 H2152 0.950 . S
C2176 C2171 1.363 . S
C2176 C2175 1.415 . S
C2177 H2153 0.951 . S
C2177 C2178 1.366 . S
C2177 C2179 1.388 . S
C2178 C2177 1.366 . S
C2178 C2182 1.385 . S
C2179 H2154 0.951 . S
C2179 C2177 1.388 . S
C2179 C2180 1.366 . S
C2180 C2179 1.366 . S
C2180 C2181 1.443 . S
C2180 C2183 1.499 . S
C2181 H2155 0.906 1_565 S
C2181 C2180 1.443 . S
C2181 C2182 1.391 . S
C2182 H2156 0.917 1_565 S
C2182 C2178 1.385 . S
C2182 C2181 1.391 . S
C2183 C2180 1.499 . S
C2183 C2184 1.373 1_566 S
C2183 C2185 1.389 . S
C2184 H2157 0.950 . S
C2184 C2170 1.377 . S
C2184 C2183 1.373 1_544 S
C2185 C2169 1.377 . S
C2185 C2183 1.389 . S
C2185 C2186 1.524 . S
C2186 C2185 1.524 . S
C2186 C2187 1.397 . S
C2186 C2191 1.363 . S
C2187 H2158 0.950 1_565 S
C2187 C2186 1.397 . S
C2187 C2188 1.334 . S
C2188 H2159 0.950 . S
C2188 C2187 1.334 . S
C2188 C2189 1.287 . S
C2189 C2188 1.287 . S
C2189 C2190 1.524 . S
C2189 H2192 0.999 . S
C2190 H2160 0.950 . S
C2190 C2189 1.524 . S
C2190 C2191 1.415 . S
C2191 H2161 0.950 . S
C2191 C2186 1.363 . S
C2191 C2190 1.415 . S
H2192 C2189 0.999 . S
H2193 C2174 0.913 . S
H2194 C2212 0.951 . S
H2195 C2214 0.951 . S
H2196 C2216 0.950 . S
H2197 C2217 0.950 . S
H2198 C2219 0.950 . S
H2199 C2222 0.950 . S
H2200 C2223 0.950 . S
H2201 C2225 0.950 . S
H2202 C2226 0.950 . S
H2203 C2227 0.951 . S
H2204 C2229 0.951 . S
H2205 C2231 0.950 . S
H2206 C2232 0.950 . S
H2207 C2234 0.950 . S
H2208 C2237 0.950 . S
H2209 C2238 0.950 . S
H2210 C2240 0.950 . S
H2211 C2241 0.950 . S
C2212 H2194 0.951 . S
C2212 C2213 1.366 . S
C2212 C2214 1.388 . S
C2213 C2212 1.366 . S
C2213 C2217 1.385 . S
C2214 H2195 0.951 . S
C2214 C2212 1.388 . S
C2214 C2215 1.366 . S
C2215 C2214 1.366 . S
C2215 C2216 1.414 . S
C2215 C2218 1.499 . S
C2216 H2196 0.950 . S
C2216 C2215 1.414 . S
C2216 C2217 1.374 . S
C2217 H2197 0.950 . S
C2217 C2213 1.385 . S
C2217 C2216 1.374 . S
C2218 C2215 1.499 . S
C2218 C2219 1.373 1_556 S
C2218 C2220 1.389 . S
C2219 H2198 0.950 . S
C2219 C2218 1.373 1_554 S
C2219 C2235 1.377 . S
C2220 C2218 1.389 . S
C2220 C2221 1.524 . S
C2220 C2234 1.377 . S
C2221 C2220 1.524 . S
C2221 C2222 1.397 . S
C2221 C2226 1.363 . S
C2222 H2199 0.950 . S
C2222 C2221 1.397 . S
C2222 C2223 1.334 . S
C2223 H2200 0.950 . S
C2223 C2222 1.334 . S
C2223 C2224 1.287 . S
C2224 C2223 1.287 . S
C2224 C2225 1.524 . S
C2224 H2243 0.913 . S
C2225 H2201 0.950 . S
C2225 C2224 1.524 . S
C2225 C2226 1.415 . S
C2226 H2202 0.950 . S
C2226 C2221 1.363 . S
C2226 C2225 1.415 . S
C2227 H2203 0.951 . S
C2227 C2228 1.366 . S
C2227 C2229 1.388 . S
C2228 C2227 1.366 . S
C2228 C2232 1.385 . S
C2229 H2204 0.951 . S
C2229 C2227 1.388 . S
C2229 C2230 1.366 . S
C2230 C2229 1.366 . S
C2230 C2231 1.414 . S
C2230 C2233 1.499 . S
C2231 H2205 0.950 . S
C2231 C2230 1.414 . S
C2231 C2232 1.374 . S
C2232 H2206 0.950 . S
C2232 C2228 1.385 . S
C2232 C2231 1.374 . S
C2233 C2230 1.499 . S
C2233 C2234 1.373 1_554 S
C2233 C2235 1.389 . S
C2234 H2207 0.950 . S
C2234 C2220 1.377 . S
C2234 C2233 1.373 1_556 S
C2235 C2219 1.377 . S
C2235 C2233 1.389 . S
C2235 C2236 1.524 . S
C2236 C2235 1.524 . S
C2236 C2237 1.397 . S
C2236 C2241 1.363 . S
C2237 H2208 0.950 . S
C2237 C2236 1.397 . S
C2237 C2238 1.334 . S
C2238 H2209 0.950 . S
C2238 C2237 1.334 . S
C2238 C2239 1.287 . S
C2239 C2238 1.287 . S
C2239 C2240 1.524 . S
C2239 H2242 0.999 . S
C2240 H2210 0.950 . S
C2240 C2239 1.524 . S
C2240 C2241 1.415 . S
C2241 H2211 0.950 . S
C2241 C2236 1.363 . S
C2241 C2240 1.415 . S
H2242 C2239 0.999 . S
H2243 C2224 0.913 . S
H2244 C2262 0.951 . S
H2245 C2264 0.951 . S
H2246 C2266 0.950 . S
H2247 C2267 0.950 1_554 S
H2248 C2269 0.950 . S
H2249 C2272 0.950 . S
H2250 C2273 0.950 . S
H2251 C2275 0.950 . S
H2252 C2276 0.950 . S
H2253 C2277 0.951 . S
H2254 C2279 0.951 . S
H2255 C2281 0.950 . S
H2256 C2282 0.950 1_556 S
H2257 C2284 0.950 . S
H2258 C2287 0.950 . S
H2259 C2288 0.950 . S
H2260 C2290 0.950 . S
H2261 C2291 0.950 . S
C2262 H2244 0.951 . S
C2262 C2263 1.366 . S
C2262 C2264 1.388 . S
C2263 C2262 1.366 . S
C2263 C2267 1.385 . S
C2264 H2245 0.951 . S
C2264 C2262 1.388 . S
C2264 C2265 1.366 . S
C2265 C2264 1.366 . S
C2265 C2266 1.414 1_556 S
C2265 C2268 1.499 . S
C2266 H2246 0.950 . S
C2266 C2265 1.414 1_554 S
C2266 C2267 1.374 1_554 S
C2267 H2247 0.950 1_556 S
C2267 C2263 1.385 . S
C2267 C2266 1.374 1_556 S
C2268 C2265 1.499 . S
C2268 C2269 1.373 1_556 S
C2268 C2270 1.389 . S
C2269 H2248 0.950 . S
C2269 C2268 1.373 1_554 S
C2269 C2285 1.377 1_455 S
C2270 C2268 1.389 . S
C2270 C2271 1.524 . S
C2270 C2284 1.377 1_455 S
C2271 C2270 1.524 . S
C2271 C2272 1.397 . S
C2271 C2276 1.363 1_455 S
C2272 H2249 0.950 . S
C2272 C2271 1.397 . S
C2272 C2273 1.334 . S
C2273 H2250 0.950 . S
C2273 C2272 1.334 . S
C2273 C2274 1.307 . S
C2274 C2273 1.307 . S
C2274 C2275 1.507 1_455 S
C2274 H2293 0.916 . S
C2275 H2251 0.950 . S
C2275 C2274 1.507 1_655 S
C2275 C2276 1.415 . S
C2276 H2252 0.950 . S
C2276 C2271 1.363 1_655 S
C2276 C2275 1.415 . S
C2277 H2253 0.951 . S
C2277 C2278 1.366 . S
C2277 C2279 1.388 . S
C2278 C2277 1.366 . S
C2278 C2282 1.385 . S
C2279 H2254 0.951 . S
C2279 C2277 1.388 . S
C2279 C2280 1.366 . S
C2280 C2279 1.366 . S
C2280 C2281 1.414 1_554 S
C2280 C2283 1.499 . S
C2281 H2255 0.950 . S
C2281 C2280 1.414 1_556 S
C2281 C2282 1.374 1_556 S
C2282 H2256 0.950 1_554 S
C2282 C2278 1.385 . S
C2282 C2281 1.374 1_554 S
C2283 C2280 1.499 . S
C2283 C2284 1.373 1_554 S
C2283 C2285 1.389 . S
C2284 H2257 0.950 . S
C2284 C2270 1.377 1_655 S
C2284 C2283 1.373 1_556 S
C2285 C2269 1.377 1_655 S
C2285 C2283 1.389 . S
C2285 C2286 1.524 . S
C2286 C2285 1.524 . S
C2286 C2287 1.397 . S
C2286 C2291 1.363 1_655 S
C2287 H2258 0.950 . S
C2287 C2286 1.397 . S
C2287 C2288 1.334 . S
C2288 H2259 0.950 . S
C2288 C2287 1.334 . S
C2288 C2289 1.307 . S
C2289 C2288 1.307 . S
C2289 C2290 1.507 1_655 S
C2289 H2292 0.999 . S
C2290 H2260 0.950 . S
C2290 C2289 1.507 1_455 S
C2290 C2291 1.415 . S
C2291 H2261 0.950 . S
C2291 C2286 1.363 1_455 S
C2291 C2290 1.415 . S
H2292 C2289 0.999 . S
H2293 C2274 0.916 . S
H2294 C2312 0.951 . S
H2295 C2314 0.951 . S
H2296 C2316 0.909 1_655 S
H2297 C2317 0.950 1_655 S
H2298 C2319 0.950 . S
H2299 C2322 0.950 1_655 S
H2300 C2323 0.950 . S
H2301 C2325 0.950 . S
H2302 C2326 0.950 . S
H2303 C2327 0.951 . S
H2304 C2329 0.951 . S
H2305 C2331 0.909 1_455 S
H2306 C2332 0.950 1_455 S
H2307 C2334 0.950 . S
H2308 C2337 0.950 1_455 S
H2309 C2338 0.950 . S
H2310 C2340 0.950 . S
H2311 C2341 0.950 . S
C2312 H2294 0.951 . S
C2312 C2313 1.366 . S
C2312 C2314 1.388 . S
C2313 C2312 1.366 . S
C2313 C2317 1.385 . S
C2314 H2295 0.951 . S
C2314 C2312 1.388 . S
C2314 C2315 1.366 . S
C2315 C2314 1.366 . S
C2315 C2316 1.441 . S
C2315 C2318 1.499 . S
C2316 H2296 0.909 1_455 S
C2316 C2315 1.441 . S
C2316 C2317 1.389 . S
C2317 H2297 0.950 1_455 S
C2317 C2313 1.385 . S
C2317 C2316 1.389 . S
C2318 C2315 1.499 . S
C2318 C2319 1.373 1_454 S
C2318 C2320 1.389 . S
C2319 H2298 0.950 . S
C2319 C2318 1.373 1_656 S
C2319 C2335 1.377 1_565 S
C2320 C2318 1.389 . S
C2320 C2321 1.524 . S
C2320 C2334 1.377 1_565 S
C2321 C2320 1.524 . S
C2321 C2322 1.397 . S
C2321 C2326 1.363 1_565 S
C2322 H2299 0.950 1_455 S
C2322 C2321 1.397 . S
C2322 C2323 1.334 . S
C2323 H2300 0.950 . S
C2323 C2322 1.334 . S
C2323 C2324 1.287 . S
C2324 C2323 1.287 . S
C2324 C2325 1.524 1_565 S
C2324 H2343 0.913 . S
C2325 H2301 0.950 . S
C2325 C2324 1.524 1_545 S
C2325 C2326 1.415 . S
C2326 H2302 0.950 . S
C2326 C2321 1.363 1_545 S
C2326 C2325 1.415 . S
C2327 H2303 0.951 . S
C2327 C2328 1.366 . S
C2327 C2329 1.388 . S
C2328 C2327 1.366 . S
C2328 C2332 1.385 . S
C2329 H2304 0.951 . S
C2329 C2327 1.388 . S
C2329 C2330 1.366 . S
C2330 C2329 1.366 . S
C2330 C2331 1.441 . S
C2330 C2333 1.499 . S
C2331 H2305 0.909 1_655 S
C2331 C2330 1.441 . S
C2331 C2332 1.389 . S
C2332 H2306 0.950 1_655 S
C2332 C2328 1.385 . S
C2332 C2331 1.389 . S
C2333 C2330 1.499 . S
C2333 C2334 1.373 1_656 S
C2333 C2335 1.389 . S
C2334 H2307 0.950 . S
C2334 C2320 1.377 1_545 S
C2334 C2333 1.373 1_454 S
C2335 C2319 1.377 1_545 S
C2335 C2333 1.389 . S
C2335 C2336 1.524 . S
C2336 C2335 1.524 . S
C2336 C2337 1.397 . S
C2336 C2341 1.363 1_545 S
C2337 H2308 0.950 1_655 S
C2337 C2336 1.397 . S
C2337 C2338 1.334 . S
C2338 H2309 0.950 . S
C2338 C2337 1.334 . S
C2338 C2339 1.287 . S
C2339 C2338 1.287 . S
C2339 C2340 1.524 1_545 S
C2339 H2342 0.999 . S
C2340 H2310 0.950 . S
C2340 C2339 1.524 1_565 S
C2340 C2341 1.415 . S
C2341 H2311 0.950 . S
C2341 C2336 1.363 1_565 S
C2341 C2340 1.415 . S
H2342 C2339 0.999 . S
H2343 C2324 0.913 . S
H2344 C2362 0.951 . S
H2345 C2364 0.951 . S
H2346 C2366 0.950 . S
H2347 C2367 0.950 . S
H2348 C2369 0.950 . S
H2349 C2372 0.950 . S
H2350 C2373 0.950 . S
H2351 C2375 0.950 . S
H2352 C2376 0.950 . S
H2353 C2377 0.951 . S
H2354 C2379 0.951 . S
H2355 C2381 0.950 . S
H2356 C2382 0.950 . S
H2357 C2384 0.950 . S
H2358 C2387 0.950 . S
H2359 C2388 0.950 . S
H2360 C2390 0.950 . S
H2361 C2391 0.950 . S
C2362 H2344 0.951 . S
C2362 C2363 1.366 . S
C2362 C2364 1.388 . S
C2363 C2362 1.366 . S
C2363 C2367 1.385 . S
C2364 H2345 0.951 . S
C2364 C2362 1.388 . S
C2364 C2365 1.366 . S
C2365 C2364 1.366 . S
C2365 C2366 1.414 . S
C2365 C2368 1.499 . S
C2366 H2346 0.950 . S
C2366 C2365 1.414 . S
C2366 C2367 1.374 . S
C2367 H2347 0.950 . S
C2367 C2363 1.385 . S
C2367 C2366 1.374 . S
C2368 C2365 1.499 . S
C2368 C2369 1.373 . S
C2368 C2370 1.389 . S
C2369 H2348 0.950 . S
C2369 C2368 1.373 . S
C2369 C2385 1.377 . S
C2370 C2368 1.389 . S
C2370 C2371 1.524 . S
C2370 C2384 1.377 . S
C2371 C2370 1.524 . S
C2371 C2372 1.397 . S
C2371 C2376 1.363 . S
C2372 H2349 0.950 . S
C2372 C2371 1.397 . S
C2372 C2373 1.334 . S
C2373 H2350 0.950 . S
C2373 C2372 1.334 . S
C2373 C2374 1.287 . S
C2374 C2373 1.287 . S
C2374 C2375 1.524 . S
C2374 H2393 0.913 . S
C2375 H2351 0.950 . S
C2375 C2374 1.524 . S
C2375 C2376 1.415 . S
C2376 H2352 0.950 . S
C2376 C2371 1.363 . S
C2376 C2375 1.415 . S
C2377 H2353 0.951 . S
C2377 C2378 1.366 . S
C2377 C2379 1.388 . S
C2378 C2377 1.366 . S
C2378 C2382 1.385 . S
C2379 H2354 0.951 . S
C2379 C2377 1.388 . S
C2379 C2380 1.366 . S
C2380 C2379 1.366 . S
C2380 C2381 1.414 . S
C2380 C2383 1.499 . S
C2381 H2355 0.950 . S
C2381 C2380 1.414 . S
C2381 C2382 1.374 . S
C2382 H2356 0.950 . S
C2382 C2378 1.385 . S
C2382 C2381 1.374 . S
C2383 C2380 1.499 . S
C2383 C2384 1.373 . S
C2383 C2385 1.389 . S
C2384 H2357 0.950 . S
C2384 C2370 1.377 . S
C2384 C2383 1.373 . S
C2385 C2369 1.377 . S
C2385 C2383 1.389 . S
C2385 C2386 1.524 . S
C2386 C2385 1.524 . S
C2386 C2387 1.397 . S
C2386 C2391 1.363 . S
C2387 H2358 0.950 . S
C2387 C2386 1.397 . S
C2387 C2388 1.334 . S
C2388 H2359 0.950 . S
C2388 C2387 1.334 . S
C2388 C2389 1.287 . S
C2389 C2388 1.287 . S
C2389 C2390 1.524 . S
C2389 H2392 0.999 . S
C2390 H2360 0.950 . S
C2390 C2389 1.524 . S
C2390 C2391 1.415 . S
C2391 H2361 0.950 . S
C2391 C2386 1.363 . S
C2391 C2390 1.415 . S
H2392 C2389 0.999 . S
H2393 C2374 0.913 . S
H2394 C2412 0.951 1_655 S
H2395 C2414 0.897 1_655 S
H2396 C2416 0.950 . S
H2397 C2417 0.950 . S
H2398 C2419 0.950 . S
H2399 C2422 0.950 . S
H2400 C2423 0.950 . S
H2401 C2425 0.950 . S
H2402 C2426 0.950 . S
H2403 C2427 0.951 1_455 S
H2404 C2429 0.897 1_455 S
H2405 C2431 0.950 . S
H2406 C2432 0.950 . S
H2407 C2434 0.950 . S
H2408 C2437 0.950 . S
H2409 C2438 0.950 . S
H2410 C2440 0.950 . S
H2411 C2441 0.950 . S
C2412 H2394 0.951 1_455 S
C2412 C2413 1.366 . S
C2412 C2414 1.406 . S
C2413 C2412 1.366 . S
C2413 C2417 1.385 . S
C2414 H2395 0.897 1_455 S
C2414 C2412 1.406 . S
C2414 C2415 1.402 . S
C2415 C2414 1.402 . S
C2415 C2416 1.414 . S
C2415 C2418 1.499 . S
C2416 H2396 0.950 . S
C2416 C2415 1.414 . S
C2416 C2417 1.374 . S
C2417 H2397 0.950 . S
C2417 C2413 1.385 . S
C2417 C2416 1.374 . S
C2418 C2415 1.499 . S
C2418 C2419 1.373 . S
C2418 C2420 1.389 1_455 S
C2419 H2398 0.950 . S
C2419 C2418 1.373 . S
C2419 C2435 1.377 . S
C2420 C2418 1.389 1_655 S
C2420 C2421 1.524 . S
C2420 C2434 1.377 . S
C2421 C2420 1.524 . S
C2421 C2422 1.397 1_655 S
C2421 C2426 1.363 . S
C2422 H2399 0.950 . S
C2422 C2421 1.397 1_455 S
C2422 C2423 1.334 . S
C2423 H2400 0.950 . S
C2423 C2422 1.334 . S
C2423 C2424 1.287 1_455 S
C2424 C2423 1.287 1_655 S
C2424 C2425 1.524 . S
C2424 H2443 0.913 . S
C2425 H2401 0.950 . S
C2425 C2424 1.524 . S
C2425 C2426 1.415 . S
C2426 H2402 0.950 . S
C2426 C2421 1.363 . S
C2426 C2425 1.415 . S
C2427 H2403 0.951 1_655 S
C2427 C2428 1.366 . S
C2427 C2429 1.406 . S
C2428 C2427 1.366 . S
C2428 C2432 1.385 . S
C2429 H2404 0.897 1_655 S
C2429 C2427 1.406 . S
C2429 C2430 1.402 . S
C2430 C2429 1.402 . S
C2430 C2431 1.414 . S
C2430 C2433 1.499 . S
C2431 H2405 0.950 . S
C2431 C2430 1.414 . S
C2431 C2432 1.374 . S
C2432 H2406 0.950 . S
C2432 C2428 1.385 . S
C2432 C2431 1.374 . S
C2433 C2430 1.499 . S
C2433 C2434 1.373 . S
C2433 C2435 1.389 1_655 S
C2434 H2407 0.950 . S
C2434 C2420 1.377 . S
C2434 C2433 1.373 . S
C2435 C2419 1.377 . S
C2435 C2433 1.389 1_455 S
C2435 C2436 1.524 . S
C2436 C2435 1.524 . S
C2436 C2437 1.397 1_455 S
C2436 C2441 1.363 . S
C2437 H2408 0.950 . S
C2437 C2436 1.397 1_655 S
C2437 C2438 1.334 . S
C2438 H2409 0.950 . S
C2438 C2437 1.334 . S
C2438 C2439 1.287 1_655 S
C2439 C2438 1.287 1_455 S
C2439 C2440 1.524 . S
C2439 H2442 0.999 . S
C2440 H2410 0.950 . S
C2440 C2439 1.524 . S
C2440 C2441 1.415 . S
C2441 H2411 0.950 . S
C2441 C2436 1.363 . S
C2441 C2440 1.415 . S
H2442 C2439 0.999 . S
H2443 C2424 0.913 . S
H2444 C2462 0.951 . S
H2445 C2464 0.951 . S
H2446 C2466 0.916 1_545 S
H2447 C2467 0.950 1_545 S
H2448 C2469 0.950 . S
H2449 C2472 0.950 . S
H2450 C2473 0.950 . S
H2451 C2475 0.950 . S
H2452 C2476 0.950 1_655 S
H2453 C2477 0.951 . S
H2454 C2479 0.951 . S
H2455 C2481 0.916 1_565 S
H2456 C2482 0.950 1_565 S
H2457 C2484 0.950 . S
H2458 C2487 0.950 . S
H2459 C2488 0.950 . S
H2460 C2490 0.950 . S
H2461 C2491 0.950 1_455 S
C2462 H2444 0.951 . S
C2462 C2463 1.366 . S
C2462 C2464 1.388 . S
C2463 C2462 1.366 . S
C2463 C2467 1.385 . S
C2464 H2445 0.951 . S
C2464 C2462 1.388 . S
C2464 C2465 1.366 . S
C2465 C2464 1.366 . S
C2465 C2466 1.437 . S
C2465 C2468 1.499 . S
C2466 H2446 0.916 1_565 S
C2466 C2465 1.437 . S
C2466 C2467 1.386 . S
C2467 H2447 0.950 1_565 S
C2467 C2463 1.385 . S
C2467 C2466 1.386 . S
C2468 C2465 1.499 . S
C2468 C2469 1.373 1_565 S
C2468 C2470 1.389 . S
C2469 H2448 0.950 . S
C2469 C2468 1.373 1_545 S
C2469 C2485 1.377 1_455 S
C2470 C2468 1.389 . S
C2470 C2471 1.524 . S
C2470 C2484 1.377 1_455 S
C2471 C2470 1.524 . S
C2471 C2472 1.397 . S
C2471 C2476 1.363 . S
C2472 H2449 0.950 . S
C2472 C2471 1.397 . S
C2472 C2473 1.334 . S
C2473 H2450 0.950 . S
C2473 C2472 1.334 . S
C2473 C2474 1.287 . S
C2474 C2473 1.287 . S
C2474 C2475 1.524 . S
C2474 H2493 0.913 . S
C2475 H2451 0.950 . S
C2475 C2474 1.524 . S
C2475 C2476 1.415 . S
C2476 H2452 0.950 1_455 S
C2476 C2471 1.363 . S
C2476 C2475 1.415 . S
C2477 H2453 0.951 . S
C2477 C2478 1.366 . S
C2477 C2479 1.388 . S
C2478 C2477 1.366 . S
C2478 C2482 1.385 . S
C2479 H2454 0.951 . S
C2479 C2477 1.388 . S
C2479 C2480 1.366 . S
C2480 C2479 1.366 . S
C2480 C2481 1.437 . S
C2480 C2483 1.499 . S
C2481 H2455 0.916 1_545 S
C2481 C2480 1.437 . S
C2481 C2482 1.386 . S
C2482 H2456 0.950 1_545 S
C2482 C2478 1.385 . S
C2482 C2481 1.386 . S
C2483 C2480 1.499 . S
C2483 C2484 1.373 1_545 S
C2483 C2485 1.389 . S
C2484 H2457 0.950 . S
C2484 C2470 1.377 1_655 S
C2484 C2483 1.373 1_565 S
C2485 C2469 1.377 1_655 S
C2485 C2483 1.389 . S
C2485 C2486 1.524 . S
C2486 C2485 1.524 . S
C2486 C2487 1.397 . S
C2486 C2491 1.363 . S
C2487 H2458 0.950 . S
C2487 C2486 1.397 . S
C2487 C2488 1.334 . S
C2488 H2459 0.950 . S
C2488 C2487 1.334 . S
C2488 C2489 1.287 . S
C2489 C2488 1.287 . S
C2489 C2490 1.524 . S
C2489 H2492 0.999 . S
C2490 H2460 0.950 . S
C2490 C2489 1.524 . S
C2490 C2491 1.415 . S
C2491 H2461 0.950 1_655 S
C2491 C2486 1.363 . S
C2491 C2490 1.415 . S
H2492 C2489 0.999 . S
H2493 C2474 0.913 . S
H2494 C2512 0.951 . S
H2495 C2514 0.951 . S
H2496 C2516 0.950 . S
H2497 C2517 0.950 . S
H2498 C2519 0.950 . S
H2499 C2522 0.950 . S
H2500 C2523 0.950 . S
H2501 C2525 0.950 . S
H2502 C2526 0.950 . S
H2503 C2527 0.951 . S
H2504 C2529 0.951 . S
H2505 C2531 0.950 . S
H2506 C2532 0.950 . S
H2507 C2534 0.950 . S
H2508 C2537 0.950 . S
H2509 C2538 0.950 . S
H2510 C2540 0.950 . S
H2511 C2541 0.950 . S
C2512 H2494 0.951 . S
C2512 C2513 1.366 . S
C2512 C2514 1.388 . S
C2513 C2512 1.366 . S
C2513 C2517 1.385 . S
C2514 H2495 0.951 . S
C2514 C2512 1.388 . S
C2514 C2515 1.366 . S
C2515 C2514 1.366 . S
C2515 C2516 1.414 . S
C2515 C2518 1.499 . S
C2516 H2496 0.950 . S
C2516 C2515 1.414 . S
C2516 C2517 1.374 . S
C2517 H2497 0.950 . S
C2517 C2513 1.385 . S
C2517 C2516 1.374 . S
C2518 C2515 1.499 . S
C2518 C2519 1.373 . S
C2518 C2520 1.389 . S
C2519 H2498 0.950 . S
C2519 C2518 1.373 . S
C2519 C2535 1.377 1_565 S
C2520 C2518 1.389 . S
C2520 C2521 1.524 . S
C2520 C2534 1.377 1_565 S
C2521 C2520 1.524 . S
C2521 C2522 1.397 . S
C2521 C2526 1.363 . S
C2522 H2499 0.950 . S
C2522 C2521 1.397 . S
C2522 C2523 1.334 . S
C2523 H2500 0.950 . S
C2523 C2522 1.334 . S
C2523 C2524 1.287 . S
C2524 C2523 1.287 . S
C2524 C2525 1.524 . S
C2524 H2543 0.913 . S
C2525 H2501 0.950 . S
C2525 C2524 1.524 . S
C2525 C2526 1.415 . S
C2526 H2502 0.950 . S
C2526 C2521 1.363 . S
C2526 C2525 1.415 . S
C2527 H2503 0.951 . S
C2527 C2528 1.366 . S
C2527 C2529 1.388 . S
C2528 C2527 1.366 . S
C2528 C2532 1.385 . S
C2529 H2504 0.951 . S
C2529 C2527 1.388 . S
C2529 C2530 1.366 . S
C2530 C2529 1.366 . S
C2530 C2531 1.414 . S
C2530 C2533 1.499 . S
C2531 H2505 0.950 . S
C2531 C2530 1.414 . S
C2531 C2532 1.374 . S
C2532 H2506 0.950 . S
C2532 C2528 1.385 . S
C2532 C2531 1.374 . S
C2533 C2530 1.499 . S
C2533 C2534 1.373 . S
C2533 C2535 1.389 . S
C2534 H2507 0.950 . S
C2534 C2520 1.377 1_545 S
C2534 C2533 1.373 . S
C2535 C2519 1.377 1_545 S
C2535 C2533 1.389 . S
C2535 C2536 1.524 . S
C2536 C2535 1.524 . S
C2536 C2537 1.397 . S
C2536 C2541 1.363 . S
C2537 H2508 0.950 . S
C2537 C2536 1.397 . S
C2537 C2538 1.334 . S
C2538 H2509 0.950 . S
C2538 C2537 1.334 . S
C2538 C2539 1.287 . S
C2539 C2538 1.287 . S
C2539 C2540 1.524 . S
C2539 H2542 0.999 . S
C2540 H2510 0.950 . S
C2540 C2539 1.524 . S
C2540 C2541 1.415 . S
C2541 H2511 0.950 . S
C2541 C2536 1.363 . S
C2541 C2540 1.415 . S
H2542 C2539 0.999 . S
H2543 C2524 0.913 . S
C563 C5 0.506 . S
C578 C243 0.505 . S
C613 C141 0.507 . S
C628 C39 0.508 . S
C663 C73 0.505 . S
C678 C175 0.506 . S
C713 C107 0.506 . S
C728 C209 0.505 . S
C763 C277 0.508 . S
C778 C515 0.508 . S
C813 C413 0.505 . S
C828 C311 0.506 . S
C863 C447 0.505 . S
C878 C345 0.507 . S
C913 C481 0.508 . S
C928 C379 0.508 . S
C963 C206 1.111 . S
C978 C2 1.111 . S
C1013 C36 1.111 . S
C1028 C240 1.111 . S
C1063 C70 1.112 . S
C1078 C138 1.111 . S
C1113 C172 1.111 . S
C1128 C104 1.111 . S
C1163 C478 1.111 . S
C1178 C274 1.111 . S
C1213 C512 1.113 . S
C1228 C308 1.113 . S
C1263 C342 1.112 . S
C1278 C410 1.112 . S
C1313 C376 1.111 . S
C1328 C444 1.111 . S
C1363 C9 1.086 . S
C1378 C543 1.198 . S
C1413 C43 1.086 . S
C1428 C441 1.198 . S
C1463 C77 1.088 . S
C1478 C475 1.198 . S
C1513 C509 1.197 . S
C1528 C111 1.088 . S
C1563 C339 1.198 . S
C1578 C145 1.087 . S
C1613 C373 1.198 . S
C1628 C179 1.088 . S
C1663 C213 1.088 . S
C1678 C407 1.197 . S
C1713 C247 1.086 . S
C1728 C305 1.198 . S
C1763 C271 1.198 . S
C1778 C281 1.088 . S
C1813 C169 1.198 . S
C1828 C315 1.086 . S
C1863 C349 1.087 . S
C1878 C203 1.198 . S
C1913 C237 1.198 . S
C1928 C383 1.087 . S
C1963 C67 1.198 . S
C1978 C417 1.086 . S
C2013 C101 1.198 . S
C2028 C451 1.088 . S
C2063 C135 1.198 . S
C2078 C485 1.088 . S
C2113 C33 1.198 . S
C2128 C519 1.088 . S
C2163 C20 0.939 . S
C2178 C292 0.939 . S
C2213 C326 0.939 . S
C2228 C54 0.939 . S
C2263 C360 0.939 . S
C2278 C88 0.939 . S
C2313 C122 0.939 . S
C2328 C394 0.939 . S
C2363 C428 0.939 . S
C2378 C156 0.939 . S
C2413 C190 0.938 . S
C2428 C462 0.938 . S
C2463 C496 0.938 . S
C2478 C224 0.938 . S
C2513 C258 0.938 . S
C2528 C530 0.938 . S
