# Generated by pormake.
# Topology uon, (4)-cn, num edge types: 1
# Building blocks:
#     Node 0, Type 0, BuildingBlock: KOZSID_clean_sbu_0, # of connection points: 4
#     Node 1, Type 0, BuildingBlock: KOZSID_clean_sbu_0, # of connection points: 4
#     Node 2, Type 0, BuildingBlock: KOZSID_clean_sbu_0, # of connection points: 4
#     Node 3, Type 0, BuildingBlock: KOZSID_clean_sbu_0, # of connection points: 4
#     Node 4, Type 0, BuildingBlock: KOZSID_clean_sbu_0, # of connection points: 4
#     Node 5, Type 0, BuildingBlock: KOZSID_clean_sbu_0, # of connection points: 4
#     Edge 6, Type (0, 0), BuildingBlock: EYOCIG_clean_linker_4, # of connection points: 2
#     Edge 7, Type (0, 0), BuildingBlock: EYOCIG_clean_linker_4, # of connection points: 2
#     Edge 8, Type (0, 0), BuildingBlock: EYOCIG_clean_linker_4, # of connection points: 2
#     Edge 9, Type (0, 0), BuildingBlock: EYOCIG_clean_linker_4, # of connection points: 2
#     Edge 10, Type (0, 0), BuildingBlock: EYOCIG_clean_linker_4, # of connection points: 2
#     Edge 11, Type (0, 0), BuildingBlock: EYOCIG_clean_linker_4, # of connection points: 2
#     Edge 12, Type (0, 0), BuildingBlock: EYOCIG_clean_linker_4, # of connection points: 2
#     Edge 13, Type (0, 0), BuildingBlock: EYOCIG_clean_linker_4, # of connection points: 2
#     Edge 14, Type (0, 0), BuildingBlock: EYOCIG_clean_linker_4, # of connection points: 2
#     Edge 15, Type (0, 0), BuildingBlock: EYOCIG_clean_linker_4, # of connection points: 2
#     Edge 16, Type (0, 0), BuildingBlock: EYOCIG_clean_linker_4, # of connection points: 2
#     Edge 17, Type (0, 0), BuildingBlock: EYOCIG_clean_linker_4, # of connection points: 2
# Relax obj value: 0.068
# Max RMSD: 0.128
# Mean RMSD: 0.128
data_MOF--net-uon--node1-KOZSID_clean_sbu_0--edge1-EYOCIG_clean_linker_4
_symmetry_space_group_name_H-M    P1
_symmetry_Int_Tables_number       1
_symmetry_cell_setting            triclinic
loop_
_symmetry_equiv_pos_as_xyz
'x, y, z'
_cell_length_a     31.386151
_cell_length_b     31.375502
_cell_length_c     27.697481
_cell_angle_alpha  89.977518
_cell_angle_beta   89.983521
_cell_angle_gamma 120.02566
loop_
_atom_site_label
_atom_site_type_symbol
_atom_site_fract_x
_atom_site_fract_y
_atom_site_fract_z
_atom_type_partial_charge
C0 C 0.10852 0.34951 0.03603 0.0
C1 C 0.06111 0.33241 0.01894 0.0
C2 C 0.06552 0.35733 0.97716 0.0
C3 C 0.11512 0.38794 0.97108 0.0
N4 N 0.14278 0.38369 1.00612 0.0
Co5 Co 0.21637 0.42186 0.01184 0.0
N6 N 0.22235 0.46297 0.95391 0.0
C7 C 0.18513 0.46096 0.9275 0.0
C8 C 0.20053 0.49353 0.88973 0.0
C9 C 0.25064 0.51753 0.89177 0.0
C10 C 0.26292 0.49794 0.93077 0.0
N11 N 0.29013 0.45909 0.01662 0.0
C12 C 0.32427 0.49325 0.98649 0.0
C13 C 0.37181 0.50776 1.00148 0.0
C14 C 0.36761 0.48137 0.04218 0.0
C15 C 0.31797 0.45233 0.04966 0.0
N16 N 0.21011 0.38173 0.07075 0.0
C17 C 0.24716 0.38508 0.09849 0.0
C18 C 0.23139 0.35503 0.13827 0.0
C19 C 0.18123 0.33173 0.13639 0.0
C20 C 0.16933 0.34895 0.09535 0.0
N21 N 0.22118 0.37315 0.96946 0.0
C22 C 0.24118 0.31647 0.90456 0.0
C23 C 0.25928 0.32431 0.95145 0.0
C24 C 0.24864 0.35227 0.98323 0.0
C25 C 0.21055 0.3347 0.89114 0.0
C26 C 0.20072 0.36252 0.92416 0.0
N27 N 0.2121 0.47077 0.0542 0.0
C28 C 0.2381 0.52179 0.1258 0.0
C29 C 0.20352 0.53625 0.11734 0.0
C30 C 0.17369 0.51837 0.07658 0.0
C31 C 0.17861 0.48585 0.04553 0.0
C32 C 0.24184 0.48933 0.09398 0.0
H33 H 0.15472 0.47307 0.01501 0.0
H34 H 0.26881 0.47952 0.10263 0.0
H35 H 0.26429 0.35756 0.01824 0.0
H36 H 0.17763 0.37613 0.91177 0.0
C37 C 0.13637 0.42492 0.93625 0.0
C38 C 0.11893 0.33457 0.08225 0.0
C39 C 0.31343 0.51188 0.94273 0.0
C40 C 0.29636 0.41797 0.08695 0.0
H41 H 0.02684 0.30581 0.03579 0.0
H42 H 0.036 0.35495 0.955 0.0
H43 H 0.17803 0.49807 0.86291 0.0
H44 H 0.27538 0.54536 0.86661 0.0
H45 H 0.40595 0.53419 0.98432 0.0
H46 H 0.3972 0.48266 0.06336 0.0
H47 H 0.2537 0.35137 0.16593 0.0
H48 H 0.15619 0.30569 0.16267 0.0
H49 H 0.28275 0.31013 0.96323 0.0
H50 H 0.19535 0.32872 0.85502 0.0
H51 H 0.26206 0.53525 0.15703 0.0
H52 H 0.14658 0.52919 0.06882 0.0
C53 C 0.76413 0.10584 0.36905 0.0
C54 C 0.73372 0.05844 0.35194 0.0
C55 C 0.71328 0.06294 0.31017 0.0
C56 C 0.73241 0.11258 0.30412 0.0
N57 N 0.76434 0.14018 0.33917 0.0
Co58 Co 0.79996 0.2138 0.34494 0.0
N59 N 0.76501 0.21991 0.28697 0.0
C60 C 0.72979 0.18273 0.2605 0.0
C61 C 0.71277 0.19822 0.2227 0.0
C62 C 0.73899 0.24835 0.2248 0.0
C63 C 0.77075 0.26054 0.26386 0.0
N64 N 0.83665 0.28758 0.34979 0.0
C65 C 0.83675 0.3218 0.3197 0.0
C66 C 0.86982 0.36932 0.33476 0.0
C67 C 0.8919 0.36503 0.37547 0.0
C68 C 0.87122 0.31536 0.38288 0.0
N69 N 0.83368 0.20742 0.40387 0.0
C70 C 0.86741 0.24442 0.43164 0.0
C71 C 0.8816 0.22857 0.47138 0.0
C72 C 0.85467 0.1784 0.46945 0.0
C73 C 0.82558 0.16657 0.42841 0.0
N74 N 0.85348 0.21852 0.30262 0.0
C75 C 0.93019 0.2383 0.2378 0.0
C76 C 0.94044 0.25653 0.28466 0.0
C77 C 0.90182 0.24599 0.31639 0.0
C78 C 0.88132 0.20767 0.22439 0.0
C79 C 0.84366 0.19796 0.25736 0.0
N80 N 0.74677 0.2096 0.38724 0.0
C81 C 0.72174 0.23557 0.45887 0.0
C82 C 0.67267 0.20112 0.45029 0.0
C83 C 0.6607 0.17138 0.40946 0.0
C84 C 0.69817 0.17625 0.37846 0.0
C85 C 0.75795 0.23925 0.42709 0.0
H86 H 0.68704 0.15243 0.34788 0.0
H87 H 0.79476 0.26612 0.43583 0.0
H88 H 0.91217 0.26173 0.35137 0.0
H89 H 0.80694 0.17486 0.24498 0.0
C90 C 0.71688 0.13392 0.26925 0.0
C91 C 0.78952 0.11618 0.41524 0.0
C92 C 0.80734 0.31104 0.27593 0.0
C93 C 0.88385 0.29366 0.42015 0.0
H94 H 0.72596 0.02414 0.36874 0.0
H95 H 0.68611 0.03345 0.28798 0.0
H96 H 0.68575 0.17577 0.19584 0.0
H97 H 0.736 0.27314 0.19966 0.0
H98 H 0.87761 0.4035 0.31766 0.0
H99 H 0.92021 0.39459 0.39671 0.0
H100 H 0.90759 0.25084 0.49906 0.0
H101 H 0.85559 0.1533 0.49569 0.0
H102 H 0.9781 0.28001 0.29643 0.0
H103 H 0.87211 0.19238 0.1883 0.0
H104 H 0.73226 0.25946 0.49016 0.0
H105 H 0.62274 0.14437 0.40161 0.0
C106 C 0.66388 0.76122 0.70212 0.0
C107 C 0.68093 0.73087 0.68503 0.0
C108 C 0.65611 0.71047 0.64321 0.0
C109 C 0.6256 0.72955 0.63711 0.0
N110 N 0.62983 0.76143 0.67217 0.0
Co111 Co 0.59172 0.79691 0.67792 0.0
N112 N 0.55069 0.76186 0.61996 0.0
C113 C 0.55277 0.72671 0.59348 0.0
C114 C 0.52025 0.7096 0.5557 0.0
C115 C 0.49622 0.73566 0.55783 0.0
C116 C 0.51572 0.76744 0.59689 0.0
N117 N 0.55453 0.83345 0.68277 0.0
C118 C 0.52033 0.83339 0.65273 0.0
C119 C 0.50579 0.86638 0.66779 0.0
C120 C 0.5322 0.88858 0.70845 0.0
C121 C 0.56128 0.86804 0.71583 0.0
N122 N 0.6318 0.83072 0.73683 0.0
C123 C 0.62849 0.86446 0.76457 0.0
C124 C 0.65849 0.87868 0.80434 0.0
C125 C 0.68171 0.85176 0.80247 0.0
C126 C 0.66448 0.82263 0.76144 0.0
N127 N 0.64049 0.8505 0.63557 0.0
C128 C 0.6973 0.92727 0.57068 0.0
C129 C 0.68932 0.9375 0.61755 0.0
C130 C 0.6613 0.89885 0.64931 0.0
C131 C 0.67916 0.8784 0.5573 0.0
C132 C 0.65126 0.84071 0.5903 0.0
N133 N 0.54277 0.74366 0.72024 0.0
C134 C 0.49185 0.71856 0.79195 0.0
C135 C 0.47731 0.6695 0.7834 0.0
C136 C 0.49506 0.65756 0.74253 0.0
C137 C 0.52759 0.69506 0.71147 0.0
C138 C 0.5243 0.7548 0.76012 0.0
H139 H 0.54028 0.68397 0.68087 0.0
H140 H 0.53419 0.7916 0.76885 0.0
H141 H 0.6559 0.90919 0.68429 0.0
H142 H 0.63772 0.804 0.57793 0.0
C143 C 0.58873 0.71393 0.60223 0.0
C144 C 0.67876 0.78653 0.74836 0.0
C145 C 0.50165 0.80389 0.609 0.0
C146 C 0.59563 0.88078 0.75308 0.0
H147 H 0.70743 0.72312 0.70189 0.0
H148 H 0.65848 0.68332 0.62103 0.0
H149 H 0.51575 0.68259 0.52884 0.0
H150 H 0.46839 0.73256 0.53272 0.0
H151 H 0.47932 0.87405 0.65073 0.0
H152 H 0.5309 0.91687 0.72968 0.0
H153 H 0.66216 0.90466 0.83201 0.0
H154 H 0.70767 0.85268 0.82876 0.0
H155 H 0.70343 0.97517 0.6293 0.0
H156 H 0.68524 0.8692 0.52121 0.0
H157 H 0.47847 0.72904 0.82328 0.0
H158 H 0.48417 0.61961 0.73469 0.0
C159 C 0.90824 0.66175 0.03571 0.0
C160 C 0.95568 0.67897 0.01862 0.0
C161 C 0.95135 0.65422 0.97676 0.0
C162 C 0.90176 0.62359 0.97065 0.0
N163 N 0.87403 0.62768 1.00573 0.0
Co164 Co 0.80044 0.58938 0.01146 0.0
N165 N 0.79459 0.54841 0.95349 0.0
C166 C 0.83188 0.55058 0.92704 0.0
C167 C 0.81656 0.5181 0.88923 0.0
C168 C 0.76644 0.49398 0.8913 0.0
C169 C 0.75407 0.51341 0.93035 0.0
N170 N 0.72668 0.552 0.01627 0.0
C171 C 0.69259 0.51783 0.98616 0.0
C172 C 0.64503 0.50318 1.00119 0.0
C173 C 0.64915 0.52949 0.04189 0.0
C174 C 0.69876 0.55864 0.04934 0.0
N175 N 0.80657 0.62937 0.0704 0.0
C176 C 0.76946 0.62592 0.09814 0.0
C177 C 0.78516 0.65585 0.13797 0.0
C178 C 0.83532 0.67917 0.13613 0.0
C179 C 0.84731 0.66207 0.09507 0.0
N180 N 0.79554 0.63809 0.96913 0.0
C181 C 0.77533 0.69464 0.90421 0.0
C182 C 0.75717 0.68669 0.95111 0.0
C183 C 0.76793 0.6588 0.98289 0.0
C184 C 0.80613 0.67661 0.89081 0.0
C185 C 0.81605 0.64885 0.92382 0.0
N186 N 0.8048 0.54048 0.05376 0.0
C187 C 0.77893 0.48942 0.1254 0.0
C188 C 0.8136 0.47509 0.1169 0.0
C189 C 0.8434 0.49303 0.0761 0.0
C190 C 0.83837 0.5255 0.04504 0.0
C191 C 0.77509 0.52183 0.09358 0.0
H192 H 0.86224 0.53833 0.01449 0.0
H193 H 0.74806 0.53156 0.10227 0.0
H194 H 0.75224 0.65342 0.01791 0.0
H195 H 0.83927 0.63539 0.91144 0.0
C196 C 0.88059 0.58668 0.93578 0.0
C197 C 0.89773 0.67647 0.08201 0.0
C198 C 0.70352 0.49931 0.94237 0.0
C199 C 0.7203 0.59297 0.08662 0.0
H200 H 0.9899 0.70552 0.03551 0.0
H201 H 0.98091 0.6567 0.95459 0.0
H202 H 0.83912 0.51368 0.86238 0.0
H203 H 0.74176 0.46617 0.86614 0.0
H204 H 0.61092 0.4767 0.98406 0.0
H205 H 0.6195 0.5281 0.06311 0.0
H206 H 0.76279 0.6594 0.16566 0.0
H207 H 0.86031 0.70511 0.16247 0.0
H208 H 0.73358 0.70073 0.96288 0.0
H209 H 0.82138 0.68268 0.85469 0.0
H210 H 0.75498 0.4759 0.15667 0.0
H211 H 0.87057 0.4823 0.0683 0.0
C212 C 0.25235 0.90541 0.36918 0.0
C213 C 0.2827 0.95283 0.35205 0.0
C214 C 0.30302 0.94841 0.31016 0.0
C215 C 0.28389 0.89878 0.30406 0.0
N216 N 0.25205 0.87112 0.33919 0.0
Co217 Co 0.2165 0.7975 0.34494 0.0
N218 N 0.25157 0.79151 0.28699 0.0
C219 C 0.28677 0.82875 0.26051 0.0
C220 C 0.30394 0.81335 0.22277 0.0
C221 C 0.27785 0.76322 0.22492 0.0
C222 C 0.246 0.75092 0.26395 0.0
N223 N 0.17985 0.72371 0.34977 0.0
C224 C 0.17988 0.68955 0.31973 0.0
C225 C 0.14676 0.642 0.33474 0.0
C226 C 0.12451 0.64622 0.37536 0.0
C227 C 0.14515 0.69587 0.38278 0.0
N228 N 0.18274 0.80378 0.40391 0.0
C229 C 0.14899 0.76672 0.43167 0.0
C230 C 0.13487 0.7825 0.47152 0.0
C231 C 0.16191 0.83267 0.46969 0.0
C232 C 0.19098 0.84458 0.4286 0.0
N233 N 0.16299 0.79277 0.30262 0.0
C234 C 0.08624 0.77271 0.23778 0.0
C235 C 0.07601 0.75476 0.28476 0.0
C236 C 0.11464 0.76544 0.3165 0.0
C237 C 0.13512 0.80324 0.22425 0.0
C238 C 0.17279 0.81309 0.25723 0.0
N239 N 0.26966 0.80169 0.38723 0.0
C240 C 0.29465 0.77556 0.45878 0.0
C241 C 0.34371 0.81017 0.4503 0.0
C242 C 0.35569 0.84007 0.40956 0.0
C243 C 0.31825 0.8352 0.37854 0.0
C244 C 0.25846 0.77188 0.42699 0.0
H245 H 0.32938 0.85914 0.34802 0.0
H246 H 0.22165 0.74489 0.43565 0.0
H247 H 0.10429 0.74991 0.35158 0.0
H248 H 0.2095 0.83611 0.24476 0.0
C249 C 0.29953 0.87752 0.26921 0.0
C250 C 0.22715 0.89498 0.41551 0.0
C251 C 0.2095 0.70038 0.27606 0.0
C252 C 0.13251 0.7175 0.42009 0.0
H253 H 0.29052 0.98711 0.36894 0.0
H254 H 0.33017 0.97793 0.28795 0.0
H255 H 0.33099 0.83586 0.19592 0.0
H256 H 0.28099 0.73848 0.19984 0.0
H257 H 0.13905 0.60785 0.31766 0.0
H258 H 0.09615 0.61662 0.39657 0.0
H259 H 0.10889 0.76018 0.49922 0.0
H260 H 0.16109 0.85772 0.49604 0.0
H261 H 0.03835 0.73139 0.29663 0.0
H262 H 0.14432 0.81832 0.18807 0.0
H263 H 0.28412 0.75154 0.49001 0.0
H264 H 0.39363 0.86721 0.40178 0.0
C265 C 0.35235 0.24958 0.70255 0.0
C266 C 0.33516 0.27981 0.68544 0.0
C267 C 0.35994 0.30026 0.64358 0.0
C268 C 0.39057 0.28131 0.63748 0.0
N269 N 0.38645 0.24948 0.67257 0.0
Co270 Co 0.42469 0.21414 0.67829 0.0
N271 N 0.46569 0.24929 0.6203 0.0
C272 C 0.46356 0.28444 0.59384 0.0
C273 C 0.49609 0.30166 0.55605 0.0
C274 C 0.52019 0.27566 0.55813 0.0
C275 C 0.50071 0.24381 0.59718 0.0
N276 N 0.462 0.17771 0.68308 0.0
C277 C 0.49619 0.17782 0.65297 0.0
C278 C 0.51077 0.14484 0.66798 0.0
C279 C 0.4844 0.12259 0.70867 0.0
C280 C 0.45529 0.14309 0.71613 0.0
N281 N 0.38469 0.18028 0.73728 0.0
C282 C 0.38811 0.1466 0.76503 0.0
C283 C 0.35817 0.13236 0.80488 0.0
C284 C 0.33487 0.15921 0.80304 0.0
C285 C 0.35198 0.18831 0.76195 0.0
N286 N 0.37598 0.16051 0.636 0.0
C287 C 0.31943 0.08367 0.57117 0.0
C288 C 0.32726 0.07348 0.61811 0.0
C289 C 0.35515 0.11216 0.64985 0.0
C290 C 0.33758 0.13254 0.55768 0.0
C291 C 0.36534 0.17026 0.59066 0.0
N292 N 0.47361 0.26743 0.72055 0.0
C293 C 0.52481 0.29258 0.79202 0.0
C294 C 0.53923 0.34163 0.78349 0.0
C295 C 0.52123 0.35353 0.74278 0.0
C296 C 0.48862 0.316 0.71183 0.0
C297 C 0.49228 0.25632 0.7603 0.0
H298 H 0.47575 0.32706 0.68134 0.0
H299 H 0.48251 0.21954 0.76899 0.0
H300 H 0.36043 0.10185 0.68489 0.0
H301 H 0.37889 0.20696 0.57821 0.0
C302 C 0.42749 0.29707 0.6026 0.0
C303 C 0.33757 0.22431 0.74885 0.0
C304 C 0.51481 0.20736 0.60922 0.0
C305 C 0.42099 0.13032 0.75346 0.0
H306 H 0.3086 0.28747 0.70232 0.0
H307 H 0.35749 0.32736 0.62139 0.0
H308 H 0.50055 0.32867 0.52919 0.0
H309 H 0.54804 0.27883 0.53298 0.0
H310 H 0.53725 0.13722 0.65085 0.0
H311 H 0.48575 0.09431 0.72988 0.0
H312 H 0.35459 0.10641 0.83258 0.0
H313 H 0.30891 0.15824 0.82938 0.0
H314 H 0.31312 0.03583 0.62996 0.0
H315 H 0.3316 0.14171 0.52153 0.0
H316 H 0.53837 0.28213 0.82322 0.0
H317 H 0.532 0.39145 0.73498 0.0
C318 C 0.27067 0.27212 0.8426 0.0
C319 C 0.25656 0.29243 0.86997 0.0
C320 C 0.29107 0.25185 0.8107 0.0
C321 C 0.311 0.23758 0.78305 0.0
C322 C 1.00408 0.26761 0.17591 0.0
C323 C 0.96964 0.25358 0.20324 0.0
C324 C 0.04479 0.28797 0.14404 0.0
C325 C 0.07904 0.30792 0.11641 0.0
C326 C 0.76201 0.04193 0.4769 0.0
C327 C 0.77627 0.07622 0.44932 0.0
C328 C 0.74173 1.00119 0.50875 0.0
C329 C 0.72139 0.96673 0.5361 0.0
C330 C 0.74569 0.7388 0.84218 0.0
C331 C 0.75985 0.71858 0.8696 0.0
C332 C 0.72526 0.75898 0.81021 0.0
C333 C 0.70532 0.77323 0.78253 0.0
C334 C 0.97173 0.72282 0.14393 0.0
C335 C 0.93755 0.70295 0.11625 0.0
C336 C 0.01238 0.74318 0.17586 0.0
C337 C 0.04678 0.75728 0.20323 0.0
C338 C 0.27519 0.00976 0.50927 0.0
C339 C 0.29544 0.04419 0.53663 0.0
C340 C 0.25492 0.96908 0.47736 0.0
C341 C 0.24058 0.93486 0.44971 0.0
C342 C 0.19884 0.63051 0.21474 0.0
C343 C 0.20234 0.66096 0.24357 0.0
C344 C 0.19767 0.59693 0.17996 0.0
C345 C 0.19913 0.56927 0.15058 0.0
C346 C 0.57382 0.19662 0.5477 0.0
C347 C 0.54696 0.20017 0.57661 0.0
C348 C 0.60615 0.19537 0.51288 0.0
C349 C 0.63525 0.19677 0.48349 0.0
C350 C 0.41671 0.60297 0.84614 0.0
C351 C 0.44433 0.63205 0.81667 0.0
C352 C 0.38319 0.57069 0.88107 0.0
C353 C 0.35279 0.54391 0.91005 0.0
C354 C 0.81958 0.41451 0.17958 0.0
C355 C 0.81809 0.44213 0.15014 0.0
C356 C 0.81835 0.38096 0.21445 0.0
C357 C 0.81472 0.3505 0.24335 0.0
C358 C 0.4102 0.81592 0.51288 0.0
C359 C 0.3811 0.81451 0.48351 0.0
C360 C 0.44256 0.81467 0.54765 0.0
C361 C 0.46946 0.8111 0.57649 0.0
C362 C 0.6001 0.40818 0.84599 0.0
C363 C 0.57235 0.3791 0.81663 0.0
C364 C 0.63374 0.44046 0.8808 0.0
C365 C 0.66418 0.46725 0.90972 0.0
loop_
_geom_bond_atom_site_label_1
_geom_bond_atom_site_label_2
_geom_bond_distance
_geom_bond_site_symmetry_2
_ccdc_geom_bond_type
C0 C1 1.443 . S
C0 N4 1.376 . S
C0 C38 1.389 . S
C1 C0 1.443 . S
C1 C2 1.340 1_554 S
C1 H41 0.951 . S
C2 C1 1.340 1_556 S
C2 C3 1.439 . S
C2 H42 0.950 . S
C3 C2 1.439 . S
C3 N4 1.374 1_556 S
C3 C37 1.395 . S
N4 C0 1.376 . S
N4 C3 1.374 1_554 S
N4 Co5 2.008 . S
Co5 N4 2.008 . S
Co5 N6 1.995 1_554 S
Co5 N11 2.008 . S
Co5 N16 1.995 . S
Co5 N21 2.282 1_554 S
Co5 N27 2.282 . S
N6 Co5 1.995 1_556 S
N6 C7 1.376 . S
N6 C10 1.383 . S
C7 N6 1.376 . S
C7 C8 1.446 . S
C7 C37 1.391 . S
C8 C7 1.446 . S
C8 C9 1.339 . S
C8 H43 0.949 . S
C9 C8 1.339 . S
C9 C10 1.439 . S
C9 H44 0.950 . S
C10 N6 1.383 . S
C10 C9 1.439 . S
C10 C39 1.392 . S
N11 Co5 2.008 . S
N11 C12 1.376 1_554 S
N11 C15 1.374 . S
C12 N11 1.376 1_556 S
C12 C13 1.443 . S
C12 C39 1.389 . S
C13 C12 1.443 . S
C13 C14 1.340 1_556 S
C13 H45 0.951 . S
C14 C13 1.340 1_554 S
C14 C15 1.439 . S
C14 H46 0.950 . S
C15 N11 1.374 . S
C15 C14 1.439 . S
C15 C40 1.395 . S
N16 Co5 1.995 . S
N16 C17 1.376 . S
N16 C20 1.383 . S
C17 N16 1.376 . S
C17 C18 1.446 . S
C17 C40 1.391 . S
C18 C17 1.446 . S
C18 C19 1.339 . S
C18 H47 0.949 . S
C19 C18 1.339 . S
C19 C20 1.439 . S
C19 H48 0.950 . S
C20 N16 1.383 . S
C20 C19 1.439 . S
C20 C38 1.392 . S
N21 Co5 2.282 1_556 S
N21 C24 1.332 . S
N21 C26 1.332 . S
C22 C23 1.386 . S
C22 C25 1.388 . S
C23 C22 1.386 . S
C23 C24 1.382 . S
C23 H49 0.950 . S
C24 N21 1.332 . S
C24 C23 1.382 . S
C24 H35 0.952 1_556 S
C25 C22 1.388 . S
C25 C26 1.382 . S
C25 H50 0.950 . S
C26 N21 1.332 . S
C26 C25 1.382 . S
C26 H36 0.948 . S
N27 Co5 2.282 . S
N27 C31 1.332 . S
N27 C32 1.332 . S
C28 C29 1.388 . S
C28 C32 1.382 . S
C28 H51 0.950 . S
C29 C28 1.388 . S
C29 C30 1.386 . S
C30 C29 1.386 . S
C30 C31 1.382 . S
C30 H52 0.950 . S
C31 N27 1.332 . S
C31 C30 1.382 . S
C31 H33 0.952 . S
C32 N27 1.332 . S
C32 C28 1.382 . S
C32 H34 0.948 . S
H33 C31 0.952 . S
H34 C32 0.948 . S
H35 C24 0.952 1_554 S
H36 C26 0.948 . S
C37 C3 1.395 . S
C37 C7 1.391 . S
C38 C0 1.389 . S
C38 C20 1.392 . S
C39 C10 1.392 . S
C39 C12 1.389 . S
C40 C15 1.395 . S
C40 C17 1.391 . S
H41 C1 0.951 . S
H42 C2 0.950 . S
H43 C8 0.949 . S
H44 C9 0.950 . S
H45 C13 0.951 . S
H46 C14 0.950 . S
H47 C18 0.949 . S
H48 C19 0.950 . S
H49 C23 0.950 . S
H50 C25 0.950 . S
H51 C28 0.950 . S
H52 C30 0.950 . S
C53 C54 1.443 . S
C53 N57 1.376 . S
C53 C91 1.389 . S
C54 C53 1.443 . S
C54 C55 1.340 . S
C54 H94 0.951 . S
C55 C54 1.340 . S
C55 C56 1.439 . S
C55 H95 0.950 . S
C56 C55 1.439 . S
C56 N57 1.374 . S
C56 C90 1.395 . S
N57 C53 1.376 . S
N57 C56 1.374 . S
N57 Co58 2.008 . S
Co58 N57 2.008 . S
Co58 N59 1.995 . S
Co58 N64 2.008 . S
Co58 N69 1.995 . S
Co58 N74 2.282 . S
Co58 N80 2.282 . S
N59 Co58 1.995 . S
N59 C60 1.376 . S
N59 C63 1.383 . S
C60 N59 1.376 . S
C60 C61 1.446 . S
C60 C90 1.391 . S
C61 C60 1.446 . S
C61 C62 1.339 . S
C61 H96 0.949 . S
C62 C61 1.339 . S
C62 C63 1.439 . S
C62 H97 0.950 . S
C63 N59 1.383 . S
C63 C62 1.439 . S
C63 C92 1.392 . S
N64 Co58 2.008 . S
N64 C65 1.376 . S
N64 C68 1.374 . S
C65 N64 1.376 . S
C65 C66 1.443 . S
C65 C92 1.389 . S
C66 C65 1.443 . S
C66 C67 1.340 . S
C66 H98 0.951 . S
C67 C66 1.340 . S
C67 C68 1.439 . S
C67 H99 0.950 . S
C68 N64 1.374 . S
C68 C67 1.439 . S
C68 C93 1.395 . S
N69 Co58 1.995 . S
N69 C70 1.376 . S
N69 C73 1.383 . S
C70 N69 1.376 . S
C70 C71 1.446 . S
C70 C93 1.391 . S
C71 C70 1.446 . S
C71 C72 1.339 . S
C71 H100 0.949 . S
C72 C71 1.339 . S
C72 C73 1.439 . S
C72 H101 0.950 . S
C73 N69 1.383 . S
C73 C72 1.439 . S
C73 C91 1.392 . S
N74 Co58 2.282 . S
N74 C77 1.332 . S
N74 C79 1.332 . S
C75 C76 1.386 . S
C75 C78 1.388 . S
C76 C75 1.386 . S
C76 C77 1.382 . S
C76 H102 0.950 . S
C77 N74 1.332 . S
C77 C76 1.382 . S
C77 H88 0.952 . S
C78 C75 1.388 . S
C78 C79 1.382 . S
C78 H103 0.950 . S
C79 N74 1.332 . S
C79 C78 1.382 . S
C79 H89 0.948 . S
N80 Co58 2.282 . S
N80 C84 1.332 . S
N80 C85 1.332 . S
C81 C82 1.388 . S
C81 C85 1.382 . S
C81 H104 0.950 . S
C82 C81 1.388 . S
C82 C83 1.386 . S
C83 C82 1.386 . S
C83 C84 1.382 . S
C83 H105 0.950 . S
C84 N80 1.332 . S
C84 C83 1.382 . S
C84 H86 0.952 . S
C85 N80 1.332 . S
C85 C81 1.382 . S
C85 H87 0.948 . S
H86 C84 0.952 . S
H87 C85 0.948 . S
H88 C77 0.952 . S
H89 C79 0.948 . S
C90 C56 1.395 . S
C90 C60 1.391 . S
C91 C53 1.389 . S
C91 C73 1.392 . S
C92 C63 1.392 . S
C92 C65 1.389 . S
C93 C68 1.395 . S
C93 C70 1.391 . S
H94 C54 0.951 . S
H95 C55 0.950 . S
H96 C61 0.949 . S
H97 C62 0.950 . S
H98 C66 0.951 . S
H99 C67 0.950 . S
H100 C71 0.949 . S
H101 C72 0.950 . S
H102 C76 0.950 . S
H103 C78 0.950 . S
H104 C81 0.950 . S
H105 C83 0.950 . S
C106 C107 1.443 . S
C106 N110 1.376 . S
C106 C144 1.389 . S
C107 C106 1.443 . S
C107 C108 1.340 . S
C107 H147 0.951 . S
C108 C107 1.340 . S
C108 C109 1.439 . S
C108 H148 0.950 . S
C109 C108 1.439 . S
C109 N110 1.374 . S
C109 C143 1.395 . S
N110 C106 1.376 . S
N110 C109 1.374 . S
N110 Co111 2.008 . S
Co111 N110 2.008 . S
Co111 N112 1.995 . S
Co111 N117 2.008 . S
Co111 N122 1.995 . S
Co111 N127 2.282 . S
Co111 N133 2.282 . S
N112 Co111 1.995 . S
N112 C113 1.376 . S
N112 C116 1.383 . S
C113 N112 1.376 . S
C113 C114 1.446 . S
C113 C143 1.391 . S
C114 C113 1.446 . S
C114 C115 1.339 . S
C114 H149 0.949 . S
C115 C114 1.339 . S
C115 C116 1.439 . S
C115 H150 0.950 . S
C116 N112 1.383 . S
C116 C115 1.439 . S
C116 C145 1.392 . S
N117 Co111 2.008 . S
N117 C118 1.376 . S
N117 C121 1.374 . S
C118 N117 1.376 . S
C118 C119 1.443 . S
C118 C145 1.389 . S
C119 C118 1.443 . S
C119 C120 1.340 . S
C119 H151 0.951 . S
C120 C119 1.340 . S
C120 C121 1.439 . S
C120 H152 0.950 . S
C121 N117 1.374 . S
C121 C120 1.439 . S
C121 C146 1.395 . S
N122 Co111 1.995 . S
N122 C123 1.376 . S
N122 C126 1.383 . S
C123 N122 1.376 . S
C123 C124 1.446 . S
C123 C146 1.391 . S
C124 C123 1.446 . S
C124 C125 1.339 . S
C124 H153 0.949 . S
C125 C124 1.339 . S
C125 C126 1.439 . S
C125 H154 0.950 . S
C126 N122 1.383 . S
C126 C125 1.439 . S
C126 C144 1.392 . S
N127 Co111 2.282 . S
N127 C130 1.332 . S
N127 C132 1.332 . S
C128 C129 1.386 . S
C128 C131 1.388 . S
C129 C128 1.386 . S
C129 C130 1.382 . S
C129 H155 0.950 . S
C130 N127 1.332 . S
C130 C129 1.382 . S
C130 H141 0.952 . S
C131 C128 1.388 . S
C131 C132 1.382 . S
C131 H156 0.950 . S
C132 N127 1.332 . S
C132 C131 1.382 . S
C132 H142 0.948 . S
N133 Co111 2.282 . S
N133 C137 1.332 . S
N133 C138 1.332 . S
C134 C135 1.388 . S
C134 C138 1.382 . S
C134 H157 0.950 . S
C135 C134 1.388 . S
C135 C136 1.386 . S
C136 C135 1.386 . S
C136 C137 1.382 . S
C136 H158 0.950 . S
C137 N133 1.332 . S
C137 C136 1.382 . S
C137 H139 0.952 . S
C138 N133 1.332 . S
C138 C134 1.382 . S
C138 H140 0.948 . S
H139 C137 0.952 . S
H140 C138 0.948 . S
H141 C130 0.952 . S
H142 C132 0.948 . S
C143 C109 1.395 . S
C143 C113 1.391 . S
C144 C106 1.389 . S
C144 C126 1.392 . S
C145 C116 1.392 . S
C145 C118 1.389 . S
C146 C121 1.395 . S
C146 C123 1.391 . S
H147 C107 0.951 . S
H148 C108 0.950 . S
H149 C114 0.949 . S
H150 C115 0.950 . S
H151 C119 0.951 . S
H152 C120 0.950 . S
H153 C124 0.949 . S
H154 C125 0.950 . S
H155 C129 0.950 . S
H156 C131 0.950 . S
H157 C134 0.950 . S
H158 C136 0.950 . S
C159 C160 1.443 . S
C159 N163 1.376 . S
C159 C197 1.389 . S
C160 C159 1.443 . S
C160 C161 1.340 1_554 S
C160 H200 0.951 . S
C161 C160 1.340 1_556 S
C161 C162 1.439 . S
C161 H201 0.950 . S
C162 C161 1.439 . S
C162 N163 1.374 1_556 S
C162 C196 1.395 . S
N163 C159 1.376 . S
N163 C162 1.374 1_554 S
N163 Co164 2.008 . S
Co164 N163 2.008 . S
Co164 N165 1.995 1_554 S
Co164 N170 2.008 . S
Co164 N175 1.995 . S
Co164 N180 2.282 1_554 S
Co164 N186 2.282 . S
N165 Co164 1.995 1_556 S
N165 C166 1.376 . S
N165 C169 1.383 . S
C166 N165 1.376 . S
C166 C167 1.446 . S
C166 C196 1.391 . S
C167 C166 1.446 . S
C167 C168 1.339 . S
C167 H202 0.949 . S
C168 C167 1.339 . S
C168 C169 1.439 . S
C168 H203 0.950 . S
C169 N165 1.383 . S
C169 C168 1.439 . S
C169 C198 1.392 . S
N170 Co164 2.008 . S
N170 C171 1.376 1_554 S
N170 C174 1.374 . S
C171 N170 1.376 1_556 S
C171 C172 1.443 . S
C171 C198 1.389 . S
C172 C171 1.443 . S
C172 C173 1.340 1_556 S
C172 H204 0.951 . S
C173 C172 1.340 1_554 S
C173 C174 1.439 . S
C173 H205 0.950 . S
C174 N170 1.374 . S
C174 C173 1.439 . S
C174 C199 1.395 . S
N175 Co164 1.995 . S
N175 C176 1.376 . S
N175 C179 1.383 . S
C176 N175 1.376 . S
C176 C177 1.446 . S
C176 C199 1.391 . S
C177 C176 1.446 . S
C177 C178 1.339 . S
C177 H206 0.949 . S
C178 C177 1.339 . S
C178 C179 1.439 . S
C178 H207 0.950 . S
C179 N175 1.383 . S
C179 C178 1.439 . S
C179 C197 1.392 . S
N180 Co164 2.282 1_556 S
N180 C183 1.332 . S
N180 C185 1.332 . S
C181 C182 1.386 . S
C181 C184 1.388 . S
C182 C181 1.386 . S
C182 C183 1.382 . S
C182 H208 0.950 . S
C183 N180 1.332 . S
C183 C182 1.382 . S
C183 H194 0.952 1_556 S
C184 C181 1.388 . S
C184 C185 1.382 . S
C184 H209 0.950 . S
C185 N180 1.332 . S
C185 C184 1.382 . S
C185 H195 0.948 . S
N186 Co164 2.282 . S
N186 C190 1.332 . S
N186 C191 1.332 . S
C187 C188 1.388 . S
C187 C191 1.382 . S
C187 H210 0.950 . S
C188 C187 1.388 . S
C188 C189 1.386 . S
C189 C188 1.386 . S
C189 C190 1.382 . S
C189 H211 0.950 . S
C190 N186 1.332 . S
C190 C189 1.382 . S
C190 H192 0.952 . S
C191 N186 1.332 . S
C191 C187 1.382 . S
C191 H193 0.948 . S
H192 C190 0.952 . S
H193 C191 0.948 . S
H194 C183 0.952 1_554 S
H195 C185 0.948 . S
C196 C162 1.395 . S
C196 C166 1.391 . S
C197 C159 1.389 . S
C197 C179 1.392 . S
C198 C169 1.392 . S
C198 C171 1.389 . S
C199 C174 1.395 . S
C199 C176 1.391 . S
H200 C160 0.951 . S
H201 C161 0.950 . S
H202 C167 0.949 . S
H203 C168 0.950 . S
H204 C172 0.951 . S
H205 C173 0.950 . S
H206 C177 0.949 . S
H207 C178 0.950 . S
H208 C182 0.950 . S
H209 C184 0.950 . S
H210 C187 0.950 . S
H211 C189 0.950 . S
C212 C213 1.443 . S
C212 N216 1.376 . S
C212 C250 1.389 . S
C213 C212 1.443 . S
C213 C214 1.340 . S
C213 H253 0.951 . S
C214 C213 1.340 . S
C214 C215 1.439 . S
C214 H254 0.950 . S
C215 C214 1.439 . S
C215 N216 1.374 . S
C215 C249 1.395 . S
N216 C212 1.376 . S
N216 C215 1.374 . S
N216 Co217 2.008 . S
Co217 N216 2.008 . S
Co217 N218 1.995 . S
Co217 N223 2.008 . S
Co217 N228 1.995 . S
Co217 N233 2.282 . S
Co217 N239 2.282 . S
N218 Co217 1.995 . S
N218 C219 1.376 . S
N218 C222 1.383 . S
C219 N218 1.376 . S
C219 C220 1.446 . S
C219 C249 1.391 . S
C220 C219 1.446 . S
C220 C221 1.339 . S
C220 H255 0.949 . S
C221 C220 1.339 . S
C221 C222 1.439 . S
C221 H256 0.950 . S
C222 N218 1.383 . S
C222 C221 1.439 . S
C222 C251 1.392 . S
N223 Co217 2.008 . S
N223 C224 1.376 . S
N223 C227 1.374 . S
C224 N223 1.376 . S
C224 C225 1.443 . S
C224 C251 1.389 . S
C225 C224 1.443 . S
C225 C226 1.340 . S
C225 H257 0.951 . S
C226 C225 1.340 . S
C226 C227 1.439 . S
C226 H258 0.950 . S
C227 N223 1.374 . S
C227 C226 1.439 . S
C227 C252 1.395 . S
N228 Co217 1.995 . S
N228 C229 1.376 . S
N228 C232 1.383 . S
C229 N228 1.376 . S
C229 C230 1.446 . S
C229 C252 1.391 . S
C230 C229 1.446 . S
C230 C231 1.339 . S
C230 H259 0.949 . S
C231 C230 1.339 . S
C231 C232 1.439 . S
C231 H260 0.950 . S
C232 N228 1.383 . S
C232 C231 1.439 . S
C232 C250 1.392 . S
N233 Co217 2.282 . S
N233 C236 1.332 . S
N233 C238 1.332 . S
C234 C235 1.386 . S
C234 C237 1.388 . S
C235 C234 1.386 . S
C235 C236 1.382 . S
C235 H261 0.950 . S
C236 N233 1.332 . S
C236 C235 1.382 . S
C236 H247 0.952 . S
C237 C234 1.388 . S
C237 C238 1.382 . S
C237 H262 0.950 . S
C238 N233 1.332 . S
C238 C237 1.382 . S
C238 H248 0.948 . S
N239 Co217 2.282 . S
N239 C243 1.332 . S
N239 C244 1.332 . S
C240 C241 1.388 . S
C240 C244 1.382 . S
C240 H263 0.950 . S
C241 C240 1.388 . S
C241 C242 1.386 . S
C242 C241 1.386 . S
C242 C243 1.382 . S
C242 H264 0.950 . S
C243 N239 1.332 . S
C243 C242 1.382 . S
C243 H245 0.952 . S
C244 N239 1.332 . S
C244 C240 1.382 . S
C244 H246 0.948 . S
H245 C243 0.952 . S
H246 C244 0.948 . S
H247 C236 0.952 . S
H248 C238 0.948 . S
C249 C215 1.395 . S
C249 C219 1.391 . S
C250 C212 1.389 . S
C250 C232 1.392 . S
C251 C222 1.392 . S
C251 C224 1.389 . S
C252 C227 1.395 . S
C252 C229 1.391 . S
H253 C213 0.951 . S
H254 C214 0.950 . S
H255 C220 0.949 . S
H256 C221 0.950 . S
H257 C225 0.951 . S
H258 C226 0.950 . S
H259 C230 0.949 . S
H260 C231 0.950 . S
H261 C235 0.950 . S
H262 C237 0.950 . S
H263 C240 0.950 . S
H264 C242 0.950 . S
C265 C266 1.443 . S
C265 N269 1.376 . S
C265 C303 1.389 . S
C266 C265 1.443 . S
C266 C267 1.340 . S
C266 H306 0.951 . S
C267 C266 1.340 . S
C267 C268 1.439 . S
C267 H307 0.950 . S
C268 C267 1.439 . S
C268 N269 1.374 . S
C268 C302 1.395 . S
N269 C265 1.376 . S
N269 C268 1.374 . S
N269 Co270 2.008 . S
Co270 N269 2.008 . S
Co270 N271 1.995 . S
Co270 N276 2.008 . S
Co270 N281 1.995 . S
Co270 N286 2.282 . S
Co270 N292 2.282 . S
N271 Co270 1.995 . S
N271 C272 1.376 . S
N271 C275 1.383 . S
C272 N271 1.376 . S
C272 C273 1.446 . S
C272 C302 1.391 . S
C273 C272 1.446 . S
C273 C274 1.339 . S
C273 H308 0.949 . S
C274 C273 1.339 . S
C274 C275 1.439 . S
C274 H309 0.950 . S
C275 N271 1.383 . S
C275 C274 1.439 . S
C275 C304 1.392 . S
N276 Co270 2.008 . S
N276 C277 1.376 . S
N276 C280 1.374 . S
C277 N276 1.376 . S
C277 C278 1.443 . S
C277 C304 1.389 . S
C278 C277 1.443 . S
C278 C279 1.340 . S
C278 H310 0.951 . S
C279 C278 1.340 . S
C279 C280 1.439 . S
C279 H311 0.950 . S
C280 N276 1.374 . S
C280 C279 1.439 . S
C280 C305 1.395 . S
N281 Co270 1.995 . S
N281 C282 1.376 . S
N281 C285 1.383 . S
C282 N281 1.376 . S
C282 C283 1.446 . S
C282 C305 1.391 . S
C283 C282 1.446 . S
C283 C284 1.339 . S
C283 H312 0.949 . S
C284 C283 1.339 . S
C284 C285 1.439 . S
C284 H313 0.950 . S
C285 N281 1.383 . S
C285 C284 1.439 . S
C285 C303 1.392 . S
N286 Co270 2.282 . S
N286 C289 1.332 . S
N286 C291 1.332 . S
C287 C288 1.386 . S
C287 C290 1.388 . S
C288 C287 1.386 . S
C288 C289 1.382 . S
C288 H314 0.950 . S
C289 N286 1.332 . S
C289 C288 1.382 . S
C289 H300 0.952 . S
C290 C287 1.388 . S
C290 C291 1.382 . S
C290 H315 0.950 . S
C291 N286 1.332 . S
C291 C290 1.382 . S
C291 H301 0.948 . S
N292 Co270 2.282 . S
N292 C296 1.332 . S
N292 C297 1.332 . S
C293 C294 1.388 . S
C293 C297 1.382 . S
C293 H316 0.950 . S
C294 C293 1.388 . S
C294 C295 1.386 . S
C295 C294 1.386 . S
C295 C296 1.382 . S
C295 H317 0.950 . S
C296 N292 1.332 . S
C296 C295 1.382 . S
C296 H298 0.952 . S
C297 N292 1.332 . S
C297 C293 1.382 . S
C297 H299 0.948 . S
H298 C296 0.952 . S
H299 C297 0.948 . S
H300 C289 0.952 . S
H301 C291 0.948 . S
C302 C268 1.395 . S
C302 C272 1.391 . S
C303 C265 1.389 . S
C303 C285 1.392 . S
C304 C275 1.392 . S
C304 C277 1.389 . S
C305 C280 1.395 . S
C305 C282 1.391 . S
H306 C266 0.951 . S
H307 C267 0.950 . S
H308 C273 0.949 . S
H309 C274 0.950 . S
H310 C278 0.951 . S
H311 C279 0.950 . S
H312 C283 0.949 . S
H313 C284 0.950 . S
H314 C288 0.950 . S
H315 C290 0.950 . S
H316 C293 0.950 . S
H317 C295 0.950 . S
C318 C319 1.170 . S
C318 C320 1.380 . S
C319 C318 1.170 . S
C320 C318 1.380 . S
C320 C321 1.170 . S
C321 C320 1.170 . S
C322 C323 1.170 1_455 S
C322 C324 1.380 . S
C323 C322 1.170 1_655 S
C324 C322 1.380 . S
C324 C325 1.170 . S
C325 C324 1.170 . S
C326 C327 1.170 . S
C326 C328 1.387 . S
C327 C326 1.170 . S
C328 C326 1.387 . S
C328 C329 1.164 1_545 S
C329 C328 1.164 1_565 S
C330 C331 1.170 . S
C330 C332 1.380 . S
C331 C330 1.170 . S
C332 C330 1.380 . S
C332 C333 1.170 . S
C333 C332 1.170 . S
C334 C335 1.170 . S
C334 C336 1.380 . S
C335 C334 1.170 . S
C336 C334 1.380 . S
C336 C337 1.170 1_655 S
C337 C336 1.170 1_455 S
C338 C339 1.170 1_565 S
C338 C340 1.380 . S
C339 C338 1.170 1_545 S
C340 C338 1.380 . S
C340 C341 1.170 . S
C341 C340 1.170 . S
C342 C343 1.170 . S
C342 C344 1.380 . S
C343 C342 1.170 . S
C344 C342 1.380 . S
C344 C345 1.170 . S
C345 C344 1.170 . S
C346 C347 1.170 . S
C346 C348 1.380 . S
C347 C346 1.170 . S
C348 C346 1.380 . S
C348 C349 1.170 . S
C349 C348 1.170 . S
C350 C351 1.170 . S
C350 C352 1.380 . S
C351 C350 1.170 . S
C352 C350 1.380 . S
C352 C353 1.170 . S
C353 C352 1.170 . S
C354 C355 1.170 . S
C354 C356 1.380 . S
C355 C354 1.170 . S
C356 C354 1.380 . S
C356 C357 1.170 . S
C357 C356 1.170 . S
C358 C359 1.170 . S
C358 C360 1.380 . S
C359 C358 1.170 . S
C360 C358 1.380 . S
C360 C361 1.170 . S
C361 C360 1.170 . S
C362 C363 1.170 . S
C362 C364 1.380 . S
C363 C362 1.170 . S
C364 C362 1.380 . S
C364 C365 1.170 . S
C365 C364 1.170 . S
C319 C22 1.493 . S
C321 C303 1.501 . S
C323 C75 1.493 . S
C325 C38 1.501 . S
C327 C91 1.498 . S
C329 C128 1.487 . S
C331 C181 1.473 . S
C333 C144 1.491 . S
C335 C197 1.500 . S
C337 C234 1.491 . S
C339 C287 1.475 . S
C341 C250 1.491 . S
C343 C251 1.513 . S
C345 C29 1.504 . S
C347 C304 1.511 . S
C349 C82 1.502 . S
C351 C135 1.516 . S
C353 C39 1.520 . S
C355 C188 1.517 . S
C357 C92 1.521 . S
C359 C241 1.500 . S
C361 C145 1.510 . S
C363 C294 1.506 . S
C365 C198 1.514 . S
