# Generated by pormake.
# Topology vbm, (6)-cn, num edge types: 1
# Building blocks:
#     Node 0, Type 0, BuildingBlock: KUMBUR_clean_sbu_1, # of connection points: 6
#     Node 1, Type 0, BuildingBlock: KUMBUR_clean_sbu_1, # of connection points: 6
#     Node 2, Type 0, BuildingBlock: KUMBUR_clean_sbu_1, # of connection points: 6
#     Node 3, Type 0, BuildingBlock: KUMBUR_clean_sbu_1, # of connection points: 6
#     Node 4, Type 0, BuildingBlock: KUMBUR_clean_sbu_1, # of connection points: 6
#     Node 5, Type 0, BuildingBlock: KUMBUR_clean_sbu_1, # of connection points: 6
#     Node 6, Type 0, BuildingBlock: KUMBUR_clean_sbu_1, # of connection points: 6
#     Node 7, Type 0, BuildingBlock: KUMBUR_clean_sbu_1, # of connection points: 6
#     Node 8, Type 0, BuildingBlock: KUMBUR_clean_sbu_1, # of connection points: 6
#     Node 9, Type 0, BuildingBlock: KUMBUR_clean_sbu_1, # of connection points: 6
#     Node 10, Type 0, BuildingBlock: KUMBUR_clean_sbu_1, # of connection points: 6
#     Node 11, Type 0, BuildingBlock: KUMBUR_clean_sbu_1, # of connection points: 6
#     Node 12, Type 0, BuildingBlock: KUMBUR_clean_sbu_1, # of connection points: 6
#     Node 13, Type 0, BuildingBlock: KUMBUR_clean_sbu_1, # of connection points: 6
#     Node 14, Type 0, BuildingBlock: KUMBUR_clean_sbu_1, # of connection points: 6
#     Node 15, Type 0, BuildingBlock: KUMBUR_clean_sbu_1, # of connection points: 6
#     Edge 16, Type (0, 0), BuildingBlock: AJUNOK_clean_linker_0, # of connection points: 2
#     Edge 17, Type (0, 0), BuildingBlock: AJUNOK_clean_linker_0, # of connection points: 2
#     Edge 18, Type (0, 0), BuildingBlock: AJUNOK_clean_linker_0, # of connection points: 2
#     Edge 19, Type (0, 0), BuildingBlock: AJUNOK_clean_linker_0, # of connection points: 2
#     Edge 20, Type (0, 0), BuildingBlock: AJUNOK_clean_linker_0, # of connection points: 2
#     Edge 21, Type (0, 0), BuildingBlock: AJUNOK_clean_linker_0, # of connection points: 2
#     Edge 22, Type (0, 0), BuildingBlock: AJUNOK_clean_linker_0, # of connection points: 2
#     Edge 23, Type (0, 0), BuildingBlock: AJUNOK_clean_linker_0, # of connection points: 2
#     Edge 24, Type (0, 0), BuildingBlock: AJUNOK_clean_linker_0, # of connection points: 2
#     Edge 25, Type (0, 0), BuildingBlock: AJUNOK_clean_linker_0, # of connection points: 2
#     Edge 26, Type (0, 0), BuildingBlock: AJUNOK_clean_linker_0, # of connection points: 2
#     Edge 27, Type (0, 0), BuildingBlock: AJUNOK_clean_linker_0, # of connection points: 2
#     Edge 28, Type (0, 0), BuildingBlock: AJUNOK_clean_linker_0, # of connection points: 2
#     Edge 29, Type (0, 0), BuildingBlock: AJUNOK_clean_linker_0, # of connection points: 2
#     Edge 30, Type (0, 0), BuildingBlock: AJUNOK_clean_linker_0, # of connection points: 2
#     Edge 31, Type (0, 0), BuildingBlock: AJUNOK_clean_linker_0, # of connection points: 2
#     Edge 32, Type (0, 0), BuildingBlock: AJUNOK_clean_linker_0, # of connection points: 2
#     Edge 33, Type (0, 0), BuildingBlock: AJUNOK_clean_linker_0, # of connection points: 2
#     Edge 34, Type (0, 0), BuildingBlock: AJUNOK_clean_linker_0, # of connection points: 2
#     Edge 35, Type (0, 0), BuildingBlock: AJUNOK_clean_linker_0, # of connection points: 2
#     Edge 36, Type (0, 0), BuildingBlock: AJUNOK_clean_linker_0, # of connection points: 2
#     Edge 37, Type (0, 0), BuildingBlock: AJUNOK_clean_linker_0, # of connection points: 2
#     Edge 38, Type (0, 0), BuildingBlock: AJUNOK_clean_linker_0, # of connection points: 2
#     Edge 39, Type (0, 0), BuildingBlock: AJUNOK_clean_linker_0, # of connection points: 2
#     Edge 40, Type (0, 0), BuildingBlock: AJUNOK_clean_linker_0, # of connection points: 2
#     Edge 41, Type (0, 0), BuildingBlock: AJUNOK_clean_linker_0, # of connection points: 2
#     Edge 42, Type (0, 0), BuildingBlock: AJUNOK_clean_linker_0, # of connection points: 2
#     Edge 43, Type (0, 0), BuildingBlock: AJUNOK_clean_linker_0, # of connection points: 2
#     Edge 44, Type (0, 0), BuildingBlock: AJUNOK_clean_linker_0, # of connection points: 2
#     Edge 45, Type (0, 0), BuildingBlock: AJUNOK_clean_linker_0, # of connection points: 2
#     Edge 46, Type (0, 0), BuildingBlock: AJUNOK_clean_linker_0, # of connection points: 2
#     Edge 47, Type (0, 0), BuildingBlock: AJUNOK_clean_linker_0, # of connection points: 2
#     Edge 48, Type (0, 0), BuildingBlock: AJUNOK_clean_linker_0, # of connection points: 2
#     Edge 49, Type (0, 0), BuildingBlock: AJUNOK_clean_linker_0, # of connection points: 2
#     Edge 50, Type (0, 0), BuildingBlock: AJUNOK_clean_linker_0, # of connection points: 2
#     Edge 51, Type (0, 0), BuildingBlock: AJUNOK_clean_linker_0, # of connection points: 2
#     Edge 52, Type (0, 0), BuildingBlock: AJUNOK_clean_linker_0, # of connection points: 2
#     Edge 53, Type (0, 0), BuildingBlock: AJUNOK_clean_linker_0, # of connection points: 2
#     Edge 54, Type (0, 0), BuildingBlock: AJUNOK_clean_linker_0, # of connection points: 2
#     Edge 55, Type (0, 0), BuildingBlock: AJUNOK_clean_linker_0, # of connection points: 2
#     Edge 56, Type (0, 0), BuildingBlock: AJUNOK_clean_linker_0, # of connection points: 2
#     Edge 57, Type (0, 0), BuildingBlock: AJUNOK_clean_linker_0, # of connection points: 2
#     Edge 58, Type (0, 0), BuildingBlock: AJUNOK_clean_linker_0, # of connection points: 2
#     Edge 59, Type (0, 0), BuildingBlock: AJUNOK_clean_linker_0, # of connection points: 2
#     Edge 60, Type (0, 0), BuildingBlock: AJUNOK_clean_linker_0, # of connection points: 2
#     Edge 61, Type (0, 0), BuildingBlock: AJUNOK_clean_linker_0, # of connection points: 2
#     Edge 62, Type (0, 0), BuildingBlock: AJUNOK_clean_linker_0, # of connection points: 2
#     Edge 63, Type (0, 0), BuildingBlock: AJUNOK_clean_linker_0, # of connection points: 2
# Relax obj value: 0.076
# Max RMSD: 0.148
# Mean RMSD: 0.148
data_MOF--net-vbm--node1-KUMBUR_clean_sbu_1--edge1-AJUNOK_clean_linker_0
_symmetry_space_group_name_H-M    P1
_symmetry_Int_Tables_number       1
_symmetry_cell_setting            triclinic
loop_
_symmetry_equiv_pos_as_xyz
'x, y, z'
_cell_length_a     38.320602
_cell_length_b     20.521215
_cell_length_c     41.731244
_cell_angle_alpha  90.398519
_cell_angle_beta   89.898695
_cell_angle_gamma 90.102742
loop_
_atom_site_label
_atom_site_type_symbol
_atom_site_fract_x
_atom_site_fract_y
_atom_site_fract_z
_atom_type_partial_charge
Tb0 Tb 0.12483 0.2144 0.15048 0.0
C1 C 0.24159 0.04073 0.1012 0.0
N2 N 0.20886 0.03703 0.08908 0.0
C3 C 0.23175 1.00581 0.03794 0.0
C4 C 0.2709 0.03446 0.08111 0.0
C5 C 0.20344 1.02065 0.05775 0.0
C6 C 0.2657 1.01537 0.04922 0.0
C7 C 0.27905 0.06097 0.14678 0.0
C8 C 0.24568 0.04998 0.13399 0.0
C9 C 0.30807 0.06138 0.12623 0.0
C10 C 0.30424 0.04601 0.09369 0.0
Tb11 Tb 0.1654 0.04728 0.12537 0.0
N12 N 0.21687 0.04911 0.15315 0.0
C13 C 0.2822 0.07039 0.17985 0.0
C14 C 0.22065 0.04952 0.18566 0.0
C15 C 0.25314 0.06195 0.19951 0.0
H16 H 0.17733 1.01659 0.0482 0.0
H17 H 0.25576 0.06481 0.22531 0.0
H18 H 0.10524 0.1791 0.22869 0.0
H19 H 0.04895 0.3355 0.0605 0.0
H20 H 0.1994 0.039 0.20128 0.0
H21 H 0.3071 0.0813 0.19053 0.0
H22 H 0.10189 0.28676 0.08289 0.0
H23 H 0.22732 0.98841 0.01376 0.0
H24 H 0.33369 0.07146 0.13534 0.0
H25 H 0.32716 0.04332 0.07851 0.0
H26 H 0.05247 0.16105 0.25961 0.0
H27 H 0.28764 1.00703 0.03331 0.0
H28 H 0.99421 0.33565 0.09185 0.0
N29 N 0.07864 0.20314 0.18519 0.0
C30 C 0.04774 0.22579 0.17351 0.0
C31 C 0.05068 0.17816 0.23518 0.0
C32 C 0.0172 0.22504 0.19233 0.0
C33 C 0.08074 0.18532 0.21672 0.0
C34 C 0.01864 0.19667 0.22261 0.0
N35 N 0.07674 0.25292 0.12532 0.0
C36 C 0.07788 0.28309 0.09624 0.0
C37 C 0.01658 0.28399 0.13184 0.0
C38 C 0.04716 0.254 0.1433 0.0
C39 C 0.01725 0.31278 0.10157 0.0
C40 C 0.04802 0.31228 0.08369 0.0
H41 H 0.99553 0.19165 0.23711 0.0
H42 H 0.96359 0.25792 0.19566 0.0
H43 H 0.96276 0.30774 0.14262 0.0
O44 O 0.14807 0.30519 0.13805 0.0
O45 O 0.08883 0.14648 0.12631 0.0
O46 O 0.11059 0.04804 0.14189 0.0
O47 O 0.11345 0.29551 0.17864 0.0
O48 O 0.14199 0.20555 0.09899 0.0
O49 O 0.13853 0.09532 0.08677 0.0
O50 O 0.17829 0.94793 0.13445 0.0
O51 O 0.19598 0.1406 0.11856 0.0
O52 O 0.17907 0.19493 0.16319 0.0
O53 O 0.14478 0.97732 0.09452 0.0
O54 O 0.14219 0.04479 0.1727 0.0
O55 O 0.1453 0.1516 0.19012 0.0
C56 C 0.08432 0.08446 0.13248 0.0
C57 C 0.14678 0.3912 0.17774 0.0
C58 C 0.14964 0.50971 0.18144 0.0
C59 C 0.16174 0.50453 0.2131 0.0
C60 C 0.15935 0.38658 0.20919 0.0
C61 C 0.16684 0.44318 0.22674 0.0
C62 C 0.14238 0.45256 0.16391 0.0
C63 C 0.13806 0.15664 0.07815 0.0
C64 C 0.13145 0.33511 0.16111 0.0
C65 C 0.98672 0.25489 0.18095 0.0
C66 C 0.98641 0.28439 0.15087 0.0
C67 C 0.20233 0.18576 0.14065 0.0
C68 C 0.15639 0.86282 0.09777 0.0
C69 C 0.14891 0.74678 0.10721 0.0
C70 C 0.14396 0.7369 0.07418 0.0
C71 C 0.15129 0.852 0.06485 0.0
C72 C 0.15567 0.80994 0.11895 0.0
C73 C 0.1453 0.78927 0.05315 0.0
C74 C 0.14052 0.08835 0.19568 0.0
C75 C 0.1598 0.9299 0.10968 0.0
H76 H 0.16775 0.5478 0.22703 0.0
H77 H 0.16225 0.3395 0.22046 0.0
H78 H 0.17629 0.43952 0.25108 0.0
H79 H 0.133 0.45567 0.13945 0.0
H80 H 0.13923 0.68846 0.06463 0.0
H81 H 0.15171 0.89218 0.04814 0.0
H82 H 0.15905 0.8181 0.14447 0.0
H83 H 0.14143 0.7813 0.02773 0.0
Tb84 Tb 0.90033 0.83115 0.15404 0.0
C85 C 0.78013 0.9909 0.10884 0.0
N86 N 0.81088 0.98035 0.09336 0.0
C87 C 0.78039 0.9463 0.04609 0.0
C88 C 0.74813 0.98009 0.09318 0.0
C89 C 0.81154 0.9601 0.06214 0.0
C90 C 0.74854 0.95758 0.06142 0.0
C91 C 0.74963 1.0174 0.15812 0.0
C92 C 0.78105 1.00791 0.14118 0.0
C93 C 0.71768 1.00819 0.1424 0.0
C94 C 0.71687 0.98982 0.11001 0.0
Tb95 Tb 0.8596 0.99945 0.12287 0.0
N96 N 0.81256 1.01526 0.15592 0.0
C97 C 0.75118 0.03653 0.19031 0.0
C98 C 0.81398 0.03987 0.18642 0.0
C99 C 0.78352 0.04881 0.20436 0.0
H100 H 0.83612 0.95361 0.04992 0.0
H101 H 0.78498 0.06689 0.22875 0.0
H102 H 0.9172 0.86289 0.23106 0.0
H103 H 0.9824 0.73615 0.05879 0.0
H104 H 0.8381 0.056 0.19677 0.0
H105 H 0.72759 0.04391 0.20419 0.0
H106 H 0.92677 0.76529 0.08405 0.0
H107 H 0.78096 0.92771 0.02176 0.0
H108 H 0.69354 1.01487 0.15528 0.0
H109 H 0.692 0.98256 0.09824 0.0
H110 H 0.96944 0.89419 0.26155 0.0
H111 H 0.72445 0.94783 0.0487 0.0
H112 H 0.03741 0.74553 0.08932 0.0
N113 N 0.94554 0.83404 0.18955 0.0
C114 C 0.97717 0.81533 0.17803 0.0
C115 C 0.97201 0.87177 0.2381 0.0
C116 C 1.00781 0.8259 0.19598 0.0
C117 C 0.94239 0.85602 0.22033 0.0
C118 C 1.00494 0.85866 0.22532 0.0
N119 N 0.94967 0.79439 0.12854 0.0
C120 C 0.95037 0.77117 0.09775 0.0
C121 C 1.01186 0.77813 0.13287 0.0
C122 C 0.97926 0.79412 0.1465 0.0
C123 C 1.01292 0.7578 0.10082 0.0
C124 C 0.98196 0.75323 0.08339 0.0
H125 H 0.02793 0.87484 0.23805 0.0
H126 H 0.06421 0.81819 0.19597 0.0
H127 H 0.06771 0.77475 0.14102 0.0
O128 O 0.88816 0.7336 0.14022 0.0
O129 O 0.94045 0.9075 0.14633 0.0
O130 O 0.91675 1.00126 0.12387 0.0
O131 O 0.89107 0.76266 0.18965 0.0
O132 O 0.88368 0.83872 0.10258 0.0
O133 O 0.89219 0.94679 0.0888 0.0
O134 O 0.85671 0.1005 0.13297 0.0
O135 O 0.83026 0.90568 0.11854 0.0
O136 O 0.84647 0.85856 0.16449 0.0
O137 O 0.86193 0.06456 0.08397 0.0
O138 O 0.88503 1.00226 0.16972 0.0
O139 O 0.87856 0.8994 0.19046 0.0
C140 C 0.94342 0.96656 0.13412 0.0
C141 C 0.90327 0.65148 0.17908 0.0
C142 C 0.90636 0.53284 0.17261 0.0
C143 C 0.92115 0.52808 0.20317 0.0
C144 C 0.9191 0.64527 0.20936 0.0
C145 C 0.92799 0.58408 0.22117 0.0
C146 C 0.898 0.5949 0.16035 0.0
C147 C 0.89072 0.88468 0.08116 0.0
C148 C 0.88696 0.71426 0.16987 0.0
C149 C 0.04037 0.80991 0.18261 0.0
C150 C 0.04235 0.7854 0.15124 0.0
C151 C 0.82379 0.86431 0.14156 0.0
C152 C 0.86057 0.1827 0.09116 0.0
C153 C 0.87271 0.29906 0.09886 0.0
C154 C 0.8644 0.30927 0.06647 0.0
C155 C 0.85326 0.19436 0.05879 0.0
C156 C 0.87017 0.2354 0.11132 0.0
C157 C 0.85496 0.2573 0.04664 0.0
C158 C 0.88556 0.96215 0.19409 0.0
C159 C 0.86022 0.11501 0.1029 0.0
H160 H 0.9276 0.4809 0.21301 0.0
H161 H 0.92352 0.68744 0.22458 0.0
H162 H 0.9395 0.57994 0.24474 0.0
H163 H 0.88584 0.59879 0.13701 0.0
H164 H 0.8651 0.35777 0.05641 0.0
H165 H 0.84624 0.15474 0.04278 0.0
H166 H 0.87668 0.22671 0.1362 0.0
H167 H 0.84905 0.26583 0.02167 0.0
Tb168 Tb 0.12001 0.8425 0.36988 0.0
C169 C 0.2351 0.99132 0.43453 0.0
N170 N 0.20093 1.00517 0.44019 0.0
C171 C 0.21358 0.02658 0.49539 0.0
C172 C 0.25907 0.98788 0.45981 0.0
C173 C 0.18967 1.02184 0.47023 0.0
C174 C 0.24845 1.00933 0.49014 0.0
C175 C 0.28041 0.96043 0.39679 0.0
C176 C 0.24627 0.9816 0.40312 0.0
C177 C 0.30279 0.94714 0.4225 0.0
C178 C 0.29264 0.96325 0.45389 0.0
Tb179 Tb 0.1665 1.00045 0.39606 0.0
N180 N 0.22259 0.98714 0.379 0.0
C181 C 0.29059 0.95147 0.3649 0.0
C182 C 0.23294 0.98288 0.34771 0.0
C183 C 0.26723 0.96526 0.3402 0.0
H184 H 0.16268 0.03464 0.47436 0.0
H185 H 0.27516 0.95946 0.31544 0.0
H186 H 0.10631 0.81043 0.29332 0.0
H187 H 0.03339 0.81744 0.47228 0.0
H188 H 0.21471 0.98932 0.32848 0.0
H189 H 0.31631 0.93373 0.35924 0.0
H190 H 0.08927 0.80915 0.44462 0.0
H191 H 0.20509 0.04332 0.51876 0.0
H192 H 0.32858 0.92729 0.41823 0.0
H193 H 0.31099 0.95687 0.47334 0.0
H194 H 0.05558 0.78188 0.2599 0.0
H195 H 0.26708 1.01307 0.50951 0.0
H196 H 0.97978 0.83453 0.44106 0.0
N197 N 0.07562 0.83078 0.33469 0.0
C198 C 0.04313 0.83376 0.34793 0.0
C199 C 0.05164 0.79883 0.28424 0.0
C200 C 1.01336 0.82204 0.32911 0.0
C201 C 0.0803 0.81541 0.30309 0.0
C202 C 0.01803 0.80263 0.29722 0.0
N203 N 0.0696 0.84024 0.39934 0.0
C204 C 0.06717 0.82563 0.43119 0.0
C205 C 1.00679 0.83869 0.39561 0.0
C206 C 0.04005 0.84015 0.38115 0.0
C207 C 1.00467 0.83561 0.42901 0.0
C208 C 0.03495 0.82659 0.44679 0.0
H209 H 0.9959 0.78768 0.28289 0.0
H210 H 0.95685 0.81789 0.32897 0.0
H211 H 0.95121 0.83567 0.38699 0.0
O212 O 0.14595 0.75655 0.38446 0.0
O213 O 0.09123 0.93444 0.36458 0.0
O214 O 0.10916 0.99991 0.406 0.0
O215 O 0.09947 0.75219 0.35633 0.0
O216 O 0.139 0.85337 0.4202 0.0
O217 O 0.13321 0.9616 0.43282 0.0
O218 O 0.15332 0.08695 0.37193 0.0
O219 O 0.19391 0.90259 0.3953 0.0
O220 O 0.17353 0.84693 0.35197 0.0
O221 O 0.18478 0.08959 0.41424 0.0
O222 O 0.15348 0.9979 0.34571 0.0
O223 O 0.13819 0.89551 0.32598 0.0
C224 C 0.08464 0.97995 0.38588 0.0
C225 C 0.13571 0.66334 0.35204 0.0
C226 C 0.13851 0.54586 0.34701 0.0
C227 C 0.15324 0.55268 0.31632 0.0
C228 C 0.15093 0.67016 0.32168 0.0
C229 C 0.15935 0.61467 0.30375 0.0
C230 C 0.12892 0.60154 0.36436 0.0
C231 C 0.13559 0.90081 0.44148 0.0
C232 C 0.12333 0.71904 0.37027 0.0
C233 C 0.98014 0.82529 0.34323 0.0
C234 C 0.9769 0.83509 0.37633 0.0
C235 C 0.19875 0.85854 0.37235 0.0
C236 C 0.14727 0.17733 0.40665 0.0
C237 C 0.13134 0.29178 0.40585 0.0
C238 C 0.11394 0.28427 0.43523 0.0
C239 C 0.12887 0.16981 0.43553 0.0
C240 C 0.14803 0.23809 0.39163 0.0
C241 C 0.11266 0.22338 0.44991 0.0
C242 C 0.14576 0.95858 0.32191 0.0
C243 C 0.16812 0.12383 0.39341 0.0
H244 H 0.16133 0.51029 0.30263 0.0
H245 H 0.15576 0.71804 0.31182 0.0
H246 H 0.17117 0.61961 0.28032 0.0
H247 H 0.11696 0.59676 0.38784 0.0
H248 H 0.10108 0.32534 0.4466 0.0
H249 H 0.12776 0.123 0.44732 0.0
H250 H 0.1624 0.24405 0.36942 0.0
H251 H 0.09903 0.21769 0.47246 0.0
Tb252 Tb 0.90176 0.21746 0.36983 0.0
C253 C 0.77883 0.06474 0.41619 0.0
N254 N 0.81123 0.07108 0.42913 0.0
C255 C 0.78624 0.1026 0.47953 0.0
C256 C 0.74877 0.07451 0.43514 0.0
C257 C 0.81525 0.08711 0.46071 0.0
C258 C 0.75281 0.09407 0.46708 0.0
C259 C 0.74272 0.05404 0.36889 0.0
C260 C 0.77602 0.0565 0.38309 0.0
C261 C 0.71292 0.0573 0.38822 0.0
C262 C 0.71575 0.06841 0.42116 0.0
Tb263 Tb 0.85639 0.054 0.39456 0.0
N264 N 0.80565 0.05578 0.3648 0.0
C265 C 0.74012 0.05042 0.33557 0.0
C266 C 0.80284 0.05109 0.33212 0.0
C267 C 0.77032 0.04898 0.31716 0.0
H268 H 0.84066 0.08791 0.47143 0.0
H269 H 0.76862 0.04599 0.29129 0.0
H270 H 0.91441 0.26099 0.29503 0.0
H271 H 0.9903 0.23914 0.4715 0.0
H272 H 0.82483 0.04838 0.31669 0.0
H273 H 0.71496 0.04992 0.3238 0.0
H274 H 0.93371 0.25266 0.44514 0.0
H275 H 0.78968 0.11981 0.50388 0.0
H276 H 0.6876 0.05323 0.37762 0.0
H277 H 0.69227 0.07415 0.43539 0.0
H278 H 0.96491 0.28504 0.25992 0.0
H279 H 0.73034 0.10427 0.48209 0.0
H280 H 0.0431 0.21917 0.43885 0.0
N281 N 0.94571 0.24016 0.33538 0.0
C282 C 0.97834 0.23551 0.34747 0.0
C283 C 0.96907 0.26959 0.28435 0.0
C284 C 1.00776 0.24062 0.32765 0.0
C285 C 0.94053 0.25746 0.30436 0.0
C286 C 1.0029 0.25969 0.29588 0.0
N287 N 0.95278 0.22863 0.39846 0.0
C288 C 0.95577 0.23871 0.43075 0.0
C289 C 0.01543 0.22306 0.39381 0.0
C290 C 0.98205 0.22796 0.38012 0.0
C291 C 0.0181 0.22327 0.42721 0.0
C292 C 0.98826 0.23381 0.44575 0.0
H293 H 0.02507 0.26862 0.28044 0.0
H294 H 0.06344 0.22551 0.32498 0.0
H295 H 0.07057 0.21254 0.38348 0.0
O296 O 0.90757 0.31685 0.38381 0.0
O297 O 0.93539 0.13131 0.36419 0.0
O298 O 0.91469 0.05514 0.40043 0.0
O299 O 0.87385 0.28877 0.3453 0.0
O300 O 0.88409 0.20372 0.4207 0.0
O301 O 0.89182 0.0945 0.42959 0.0
O302 O 0.85711 0.95606 0.37816 0.0
O303 O 0.82807 0.1484 0.40109 0.0
O304 O 0.84787 0.19565 0.35694 0.0
O305 O 0.84642 0.97944 0.42723 0.0
O306 O 0.87613 0.05169 0.34539 0.0
O307 O 0.8946 0.15339 0.32652 0.0
C308 C 0.9402 0.08056 0.38275 0.0
C309 C 0.89346 0.39848 0.34479 0.0
C310 C 0.89693 0.51741 0.34595 0.0
C311 C 0.89696 0.51819 0.31241 0.0
C312 C 0.89282 0.40075 0.31108 0.0
C313 C 0.89519 0.46004 0.2951 0.0
C314 C 0.89567 0.45747 0.36216 0.0
C315 C 0.8907 0.15453 0.44026 0.0
C316 C 0.88609 0.33707 0.362 0.0
C317 C 0.04084 0.228 0.34048 0.0
C318 C 0.04477 0.21962 0.37365 0.0
C319 C 0.82406 0.1929 0.37911 0.0
C320 C 0.87546 0.88018 0.41755 0.0
C321 C 0.89531 0.7672 0.41268 0.0
C322 C 0.91208 0.77379 0.44248 0.0
C323 C 0.89415 0.88634 0.44638 0.0
C324 C 0.87659 0.8208 0.40052 0.0
C325 C 0.91188 0.83316 0.45888 0.0
C326 C 0.88702 0.09024 0.3222 0.0
C327 C 0.85227 0.93306 0.40676 0.0
H328 H 0.89791 0.56396 0.29964 0.0
H329 H 0.88901 0.35729 0.29685 0.0
H330 H 0.89459 0.46103 0.26918 0.0
H331 H 0.8948 0.45701 0.38814 0.0
H332 H 0.92527 0.73295 0.45335 0.0
H333 H 0.89422 0.93165 0.45985 0.0
H334 H 0.86274 0.81644 0.37798 0.0
H335 H 0.92543 0.83786 0.48151 0.0
Tb336 Tb 0.86458 0.9966 0.8995 0.0
C337 C 0.97869 0.80657 0.84301 0.0
N338 N 0.94614 0.81681 0.83136 0.0
C339 C 0.96728 0.80175 0.77768 0.0
C340 C 1.00711 0.79486 0.82231 0.0
C341 C 0.94014 0.81505 0.79911 0.0
C342 C 1.0009 0.79137 0.78935 0.0
C343 C 0.01664 0.79491 0.88892 0.0
C344 C 0.98319 0.80588 0.87588 0.0
C345 C 0.04536 0.78603 0.86841 0.0
C346 C 0.04054 0.78541 0.83515 0.0
Tb347 Tb 0.90267 0.83099 0.86816 0.0
N348 N 0.95453 0.81285 0.89494 0.0
C349 C 0.02003 0.79057 0.92215 0.0
C350 C 0.95753 0.80075 0.92704 0.0
C351 C 0.9902 0.79221 0.94123 0.0
H352 H 0.91393 0.81886 0.78999 0.0
H353 H 0.99218 0.78444 0.9668 0.0
H354 H 0.86321 1.01355 0.97832 0.0
H355 H 0.76102 0.97624 0.81104 0.0
H356 H 0.93518 0.79356 0.94201 0.0
H357 H 0.04524 0.78241 0.93313 0.0
H358 H 0.82142 0.97475 0.82911 0.0
H359 H 0.96207 0.79802 0.75225 0.0
H360 H 0.07121 0.77764 0.87802 0.0
H361 H 0.06275 0.7768 0.81959 0.0
H362 H 0.82061 0.05372 0.01808 0.0
H363 H 0.02175 0.77937 0.77282 0.0
H364 H 0.71356 0.99912 0.84952 0.0
N365 N 0.8263 1.01101 0.94032 0.0
C366 C 0.79252 1.01926 0.93135 0.0
C367 C 0.81209 0.04152 0.99413 0.0
C368 C 0.76674 0.03606 0.95401 0.0
C369 C 0.83619 1.01921 0.97148 0.0
C370 C 0.77709 0.04895 0.98556 0.0
N371 N 0.80954 0.99622 0.87794 0.0
C372 C 0.80166 0.98553 0.8464 0.0
C373 C 0.74848 1.01292 0.88972 0.0
C374 C 0.7837 1.01042 0.89932 0.0
C375 C 0.74033 0.99958 0.85769 0.0
C376 C 0.76706 0.98622 0.83593 0.0
H377 H 0.75834 0.0647 1.00344 0.0
H378 H 0.71152 0.05306 0.9615 0.0
H379 H 0.69537 0.02998 0.90557 0.0
O380 O 0.86246 0.08964 0.87866 0.0
O381 O 0.8293 0.90845 0.90437 0.0
O382 O 0.84831 0.85709 0.86009 0.0
O383 O 0.87805 0.07775 0.92766 0.0
O384 O 0.883 1.00009 0.85021 0.0
O385 O 0.88581 0.89617 0.82807 0.0
O386 O 0.89732 0.73499 0.88564 0.0
O387 O 0.93903 0.91305 0.86336 0.0
O388 O 0.92168 0.97953 0.90493 0.0
O389 O 0.88697 0.75693 0.83649 0.0
O390 O 0.88474 0.83871 0.91976 0.0
O391 O 0.89629 0.94486 0.93328 0.0
C392 C 0.82551 0.86033 0.88332 0.0
C393 C 0.85643 0.18092 0.9134 0.0
C394 C 0.85884 0.29844 0.90919 0.0
C395 C 0.83565 0.30438 0.93504 0.0
C396 C 0.83271 0.187 0.93891 0.0
C397 C 0.82233 0.2486 0.94962 0.0
C398 C 0.86892 0.23681 0.89822 0.0
C399 C 0.88544 0.96093 0.82537 0.0
C400 C 0.87251 0.11869 0.90479 0.0
C401 C 0.73174 0.04053 0.94437 0.0
C402 C 0.72256 0.02782 0.91244 0.0
C403 C 0.94499 0.96129 0.88334 0.0
C404 C 0.90686 0.65057 0.84747 0.0
C405 C 0.91043 0.53272 0.85103 0.0
C406 C 0.93308 0.53121 0.82469 0.0
C407 C 0.92995 0.6484 0.82127 0.0
C408 C 0.89746 0.59232 0.86252 0.0
C409 C 0.94306 0.58911 0.81007 0.0
C410 C 0.89025 0.88491 0.94169 0.0
C411 C 0.88958 0.71133 0.8576 0.0
H412 H 0.82792 0.35202 0.94384 0.0
H413 H 0.82293 0.14468 0.95109 0.0
H414 H 0.80446 0.2531 0.96962 0.0
H415 H 0.88768 0.23253 0.87878 0.0
H416 H 0.9429 0.48527 0.81548 0.0
H417 H 0.93729 0.69179 0.80878 0.0
H418 H 0.87915 0.59303 0.88239 0.0
H419 H 0.96051 0.588 0.78965 0.0
Tb420 Tb 0.17051 0.04661 0.89552 0.0
C421 C 0.05241 0.23924 0.84019 0.0
N422 N 0.08515 0.22756 0.8291 0.0
C423 C 0.06615 0.24786 0.7754 0.0
C424 C 0.02486 0.25357 0.81911 0.0
C425 C 0.09225 0.23085 0.79707 0.0
C426 C 0.03229 0.25924 0.78647 0.0
C427 C 1.01336 0.25227 0.88548 0.0
C428 C 0.04696 0.24005 0.87292 0.0
C429 C 0.98534 0.26275 0.86451 0.0
C430 C 0.99117 0.26418 0.83138 0.0
Tb431 Tb 0.1272 0.21087 0.86674 0.0
N432 N 0.07498 0.23162 0.89239 0.0
C433 C 1.00919 0.2561 0.91871 0.0
C434 C 0.07139 0.24269 0.92461 0.0
C435 C 0.0385 0.25252 0.93833 0.0
H436 H 0.11869 0.22557 0.78841 0.0
H437 H 0.03597 0.25957 0.96396 0.0
H438 H 0.1871 0.08896 0.97119 0.0
H439 H 0.25744 0.02776 0.79197 0.0
H440 H 0.09356 0.24774 0.93997 0.0
H441 H 0.98381 0.26518 0.92934 0.0
H442 H 0.20174 0.04521 0.81765 0.0
H443 H 0.07242 0.25379 0.75029 0.0
H444 H 0.95934 0.27205 0.87372 0.0
H445 H 0.96958 0.27451 0.81548 0.0
H446 H 0.23926 0.11557 1.00312 0.0
H447 H 1.01228 0.27403 0.76978 0.0
H448 H 0.31087 1.01855 0.82454 0.0
N449 N 0.21592 0.06431 0.92937 0.0
C450 C 0.24796 0.0525 0.91656 0.0
C451 C 0.24203 0.09611 0.97911 0.0
C452 C 0.27831 0.05885 0.93534 0.0
C453 C 0.21247 0.0834 0.96058 0.0
C454 C 0.27504 0.08141 0.96691 0.0
N455 N 0.22098 0.0436 0.86552 0.0
C456 C 0.22364 0.04025 0.83286 0.0
C457 C 0.2835 0.03174 0.86954 0.0
C458 C 0.25047 0.04085 0.88372 0.0
C459 C 0.28588 0.0254 0.83627 0.0
C460 C 0.25585 0.03073 0.81785 0.0
H461 H 0.29784 0.08908 0.98179 0.0
H462 H 0.3346 0.04894 0.93569 0.0
H463 H 0.33843 1.02295 0.87816 0.0
O464 O 0.17612 0.94714 0.88201 0.0
O465 O 0.19965 0.14034 0.8993 0.0
O466 O 0.181 0.18637 0.85394 0.0
O467 O 0.17154 0.9771 0.93212 0.0
O468 O 0.14765 0.03874 0.84807 0.0
O469 O 0.13851 0.14163 0.82633 0.0
O470 O 0.13147 0.30648 0.88608 0.0
O471 O 0.089 0.1313 0.86794 0.0
O472 O 0.11228 0.04436 0.89693 0.0
O473 O 0.14522 0.28639 0.83731 0.0
O474 O 0.14465 0.19977 0.91789 0.0
O475 O 0.13551 0.09197 0.92928 0.0
C476 C 0.20488 0.18154 0.87595 0.0
C477 C 0.17855 0.86173 0.92251 0.0
C478 C 0.16679 0.74564 0.91607 0.0
C479 C 0.18449 0.73405 0.94495 0.0
C480 C 0.19537 0.84919 0.95164 0.0
C481 C 0.19855 0.78556 0.96262 0.0
C482 C 0.16451 0.80975 0.90449 0.0
C483 C 0.14003 0.07687 0.82391 0.0
C484 C 0.17509 0.92938 0.91183 0.0
C485 C 0.31096 0.04596 0.92154 0.0
C486 C 0.31333 0.03157 0.88881 0.0
C487 C 0.08607 0.07481 0.88251 0.0
C488 C 0.12395 0.39265 0.84843 0.0
C489 C 0.11912 0.51117 0.85214 0.0
C490 C 0.09831 0.51141 0.82461 0.0
C491 C 0.10278 0.39439 0.82096 0.0
C492 C 0.13176 0.45165 0.86418 0.0
C493 C 0.08991 0.45308 0.80931 0.0
C494 C 0.13677 0.15285 0.93844 0.0
C495 C 0.14091 0.33144 0.85886 0.0
H496 H 0.18744 0.68492 0.9539 0.0
H497 H 0.2063 0.88865 0.96582 0.0
H498 H 0.21184 0.77615 0.98497 0.0
H499 H 0.15096 0.81929 0.88221 0.0
H500 H 0.08852 0.55678 0.81504 0.0
H501 H 0.09687 0.35111 0.80771 0.0
H502 H 0.14855 0.45152 0.88508 0.0
H503 H 0.07388 0.45338 0.78799 0.0
Tb504 Tb 0.86146 0.04406 0.62687 0.0
C505 C 0.98656 0.19963 0.67023 0.0
N506 N 0.95502 0.19511 0.68503 0.0
C507 C 0.98293 0.17192 0.73494 0.0
C508 C 0.01768 0.18943 0.68734 0.0
C509 C 0.95288 0.18453 0.71728 0.0
C510 C 0.01542 0.17314 0.71977 0.0
C511 C 0.01955 0.2153 0.62133 0.0
C512 C 0.98733 0.21028 0.63734 0.0
C513 C 0.05065 0.20478 0.63828 0.0
C514 C 0.04976 0.19194 0.67118 0.0
Tb515 Tb 0.90787 0.20477 0.65233 0.0
N516 N 0.95662 0.21667 0.62122 0.0
C517 C 0.01953 0.23194 0.58891 0.0
C518 C 0.95685 0.24031 0.59065 0.0
C519 C 0.98813 0.24623 0.57374 0.0
H520 H 0.92813 0.18565 0.72954 0.0
H521 H 0.98806 0.26307 0.54921 0.0
H522 H 0.85836 1.01707 0.54827 0.0
H523 H 0.76145 0.07851 0.71759 0.0
H524 H 0.93337 0.25708 0.57924 0.0
H525 H 0.04356 0.23674 0.5757 0.0
H526 H 0.82113 0.06153 0.69894 0.0
H527 H 0.98096 0.16134 0.76023 0.0
H528 H 0.07553 0.20645 0.62618 0.0
H529 H 0.07399 0.18354 0.68384 0.0
H530 H 0.81233 0.98928 0.50928 0.0
H531 H 0.03854 0.16052 0.73316 0.0
H532 H 0.71268 0.07605 0.67904 0.0
N533 N 0.8225 0.03514 0.58631 0.0
C534 C 0.7885 0.03813 0.59575 0.0
C535 C 0.80528 1.00507 0.53321 0.0
C536 C 0.76144 0.0275 0.57358 0.0
C537 C 0.83128 1.02133 0.55522 0.0
C538 C 0.77019 1.00951 0.54218 0.0
N539 N 0.80753 0.05467 0.64951 0.0
C540 C 0.80075 0.06191 0.68149 0.0
C541 C 0.7459 0.05559 0.63814 0.0
C542 C 0.7808 0.04917 0.6281 0.0
C543 C 0.7391 0.06891 0.6705 0.0
C544 C 0.76658 0.07076 0.69234 0.0
H545 H 0.75008 0.99841 0.52475 0.0
H546 H 0.7054 0.02506 0.56696 0.0
H547 H 0.69211 0.0512 0.62298 0.0
O548 O 0.87571 0.95709 0.65055 0.0
O549 O 0.83246 0.13873 0.62491 0.0
O550 O 0.85339 0.19847 0.66696 0.0
O551 O 0.84532 0.95496 0.60758 0.0
O552 O 0.88104 0.0456 0.67556 0.0
O553 O 0.88309 0.15252 0.69309 0.0
O554 O 0.89255 0.29975 0.63783 0.0
O555 O 0.93709 0.11253 0.65511 0.0
O556 O 0.91745 0.04731 0.61424 0.0
O557 O 0.9242 0.28486 0.67944 0.0
O558 O 0.88865 0.19502 0.60147 0.0
O559 O 0.89237 0.08567 0.58875 0.0
C560 C 0.82885 0.18658 0.64601 0.0
C561 C 0.88365 0.86892 0.61413 0.0
C562 C 0.89701 0.75313 0.6141 0.0
C563 C 0.91066 0.75888 0.58293 0.0
C564 C 0.89849 0.87463 0.58348 0.0
C565 C 0.91214 0.81971 0.56807 0.0
C566 C 0.8846 0.80933 0.62981 0.0
C567 C 0.88457 0.0888 0.69851 0.0
C568 C 0.86225 0.92084 0.62805 0.0
C569 C 0.72663 0.0328 0.58368 0.0
C570 C 0.71899 0.04775 0.6157 0.0
C571 C 0.94252 0.06638 0.63382 0.0
C572 C 0.89489 0.38492 0.67747 0.0
C573 C 0.89113 0.50368 0.67998 0.0
C574 C 0.88067 0.49916 0.71223 0.0
C575 C 0.88253 0.38138 0.70908 0.0
C576 C 0.89887 0.44601 0.66296 0.0
C577 C 0.87573 0.43839 0.72639 0.0
C578 C 0.89195 0.14702 0.58012 0.0
C579 C 0.9095 0.3274 0.66125 0.0
H580 H 0.92024 0.71656 0.57005 0.0
H581 H 0.89836 0.92081 0.57105 0.0
H582 H 0.92313 0.82395 0.54427 0.0
H583 H 0.87504 0.80712 0.65422 0.0
H584 H 0.87586 0.54257 0.72643 0.0
H585 H 0.87957 0.33474 0.7208 0.0
H586 H 0.90807 0.44849 0.6384 0.0
H587 H 0.86711 0.43553 0.75106 0.0
Tb588 Tb 0.16705 0.99591 0.62582 0.0
C589 C 0.04512 0.84753 0.67554 0.0
N590 N 0.07812 0.85002 0.68742 0.0
C591 C 0.05539 0.87906 0.73916 0.0
C592 C 0.01612 0.86457 0.69458 0.0
C593 C 0.08294 0.8584 0.71961 0.0
C594 C 0.02193 0.88433 0.72625 0.0
C595 C 1.00672 0.81767 0.63172 0.0
C596 C 0.04033 0.82522 0.64446 0.0
C597 C 0.97779 0.83612 0.6503 0.0
C598 C 0.98242 0.86004 0.68157 0.0
Tb599 Tb 0.12127 0.8297 0.65038 0.0
N600 N 0.06905 0.81227 0.62642 0.0
C601 C 1.00341 0.79213 0.60066 0.0
C602 C 0.06609 0.78495 0.59664 0.0
C603 C 0.03317 0.77495 0.58318 0.0
H604 H 0.10781 0.84888 0.73044 0.0
H605 H 0.03075 0.75435 0.55934 0.0
H606 H 0.19298 0.94451 0.55367 0.0
H607 H 0.23873 0.07957 0.72991 0.0
H608 H 0.08908 0.77108 0.58325 0.0
H609 H 0.97815 0.78512 0.58996 0.0
H610 H 0.18606 0.06044 0.69783 0.0
H611 H 0.0598 0.88927 0.76432 0.0
H612 H 0.95183 0.83213 0.64071 0.0
H613 H 0.95976 0.87338 0.69571 0.0
H614 H 0.2475 0.90299 0.52992 0.0
H615 H 1.00056 0.90031 0.74135 0.0
H616 H 0.29676 0.05268 0.70736 0.0
N617 N 0.21629 0.96889 0.59839 0.0
C618 C 0.24658 0.97947 0.61438 0.0
C619 C 0.24767 0.92509 0.55354 0.0
C620 C 0.27874 0.96211 0.60052 0.0
C621 C 0.21663 0.94694 0.56739 0.0
C622 C 0.27901 0.93351 0.56998 0.0
N623 N 0.21307 1.01486 0.65908 0.0
C624 C 0.21074 0.04406 0.68855 0.0
C625 C 0.27571 1.01579 0.66264 0.0
C626 C 0.24485 1.00343 0.64559 0.0
C627 C 0.27346 0.04246 0.69352 0.0
C628 C 0.24078 0.05708 0.70644 0.0
H629 H 0.30322 0.9182 0.55881 0.0
H630 H 0.33418 0.95665 0.60819 0.0
H631 H 0.33129 1.00891 0.66146 0.0
O632 O 0.17902 0.09611 0.631 0.0
O633 O 0.19436 0.8987 0.62361 0.0
O634 O 0.1757 0.83901 0.66595 0.0
O635 O 0.16061 0.05751 0.58636 0.0
O636 O 0.14079 0.99646 0.67214 0.0
O637 O 0.14472 0.89013 0.68966 0.0
O638 O 0.14046 0.73761 0.63502 0.0
O639 O 0.09091 0.90333 0.62448 0.0
O640 O 0.11145 1.00307 0.64068 0.0
O641 O 0.10384 0.74603 0.6738 0.0
O642 O 0.14063 0.83825 0.59978 0.0
O643 O 0.13788 0.94895 0.58787 0.0
C644 C 0.20074 0.8556 0.64619 0.0
C645 C 0.14838 0.16953 0.59687 0.0
C646 C 0.13358 0.28311 0.60996 0.0
C647 C 0.11415 0.28629 0.58151 0.0
C648 C 0.1281 0.17427 0.56894 0.0
C649 C 0.11153 0.23234 0.56123 0.0
C650 C 0.15126 0.22468 0.61733 0.0
C651 C 0.1415 0.95365 0.69533 0.0
C652 C 0.16953 0.10991 0.60203 0.0
C653 C 0.30936 0.97183 0.61799 0.0
C654 C 0.30779 1.00025 0.64853 0.0
C655 C 0.08532 0.96382 0.63313 0.0
C656 C 0.13739 0.65042 0.67278 0.0
C657 C 0.14395 0.53224 0.67655 0.0
C658 C 0.15776 0.53998 0.70744 0.0
C659 C 0.15211 0.65744 0.70338 0.0
C660 C 0.1332 0.58769 0.65954 0.0
C661 C 0.16188 0.60233 0.72072 0.0
C662 C 0.13776 0.88724 0.57917 0.0
C663 C 0.12194 0.70636 0.65614 0.0
H664 H 0.10111 0.33093 0.57477 0.0
H665 H 0.12578 0.13355 0.55242 0.0
H666 H 0.09653 0.23558 0.53935 0.0
H667 H 0.16722 0.22239 0.63871 0.0
H668 H 0.16591 0.49788 0.72102 0.0
H669 H 0.15513 0.70529 0.71417 0.0
H670 H 0.12161 0.58195 0.63599 0.0
H671 H 0.1729 0.60794 0.74444 0.0
Tb672 Tb 0.62445 0.7161 0.15098 0.0
C673 C 0.74757 0.55865 0.10598 0.0
N674 N 0.71626 0.56911 0.09165 0.0
C675 C 0.74508 0.60224 0.04347 0.0
C676 C 0.77902 0.56819 0.08907 0.0
C677 C 0.71457 0.58833 0.06048 0.0
C678 C 0.77747 0.59036 0.05746 0.0
C679 C 0.78005 0.53562 0.15431 0.0
C680 C 0.74793 0.54419 0.13853 0.0
C681 C 0.81127 0.542 0.13714 0.0
C682 C 0.81091 0.55856 0.10469 0.0
Tb683 Tb 0.66863 0.54927 0.1227 0.0
N684 N 0.71706 0.53988 0.15474 0.0
C685 C 0.78001 0.52093 0.18694 0.0
C686 C 0.71712 0.52235 0.18631 0.0
C687 C 0.74837 0.51389 0.20294 0.0
H688 H 0.68975 0.59329 0.04887 0.0
H689 H 0.74796 0.5006 0.22801 0.0
H690 H 0.61926 0.73259 0.2298 0.0
H691 H 0.52853 0.75192 0.05709 0.0
H692 H 0.69367 0.51203 0.19896 0.0
H693 H 0.80422 0.51402 0.19986 0.0
H694 H 0.58695 0.73656 0.07846 0.0
H695 H 0.74359 0.62062 0.01926 0.0
H696 H 0.83579 0.53516 0.14905 0.0
H697 H 0.83541 0.56502 0.0921 0.0
H698 H 0.5755 0.7665 0.26945 0.0
H699 H 0.80107 0.59973 0.04391 0.0
H700 H 0.47891 0.77057 0.09395 0.0
N701 N 0.58429 0.73565 0.19032 0.0
C702 C 0.5516 0.75072 0.18036 0.0
C703 C 0.56809 0.76035 0.24459 0.0
C704 C 0.52548 0.76949 0.20233 0.0
C705 C 0.59269 0.73935 0.2221 0.0
C706 C 0.53435 0.77569 0.23465 0.0
N707 N 0.57116 0.73496 0.12744 0.0
C708 C 0.56582 0.73903 0.09511 0.0
C709 C 0.51064 0.76232 0.13661 0.0
C710 C 0.54456 0.74901 0.14791 0.0
C711 C 0.50462 0.76098 0.10359 0.0
C712 C 0.53249 0.7501 0.08275 0.0
H713 H 0.5155 0.79326 0.252 0.0
H714 H 0.47108 0.79619 0.20791 0.0
H715 H 0.45781 0.78767 0.15036 0.0
O716 O 0.62857 0.81054 0.13064 0.0
O717 O 0.58561 0.63849 0.14631 0.0
O718 O 0.61073 0.54368 0.12477 0.0
O719 O 0.64255 0.79311 0.17943 0.0
O720 O 0.64286 0.70423 0.10008 0.0
O721 O 0.63449 0.59544 0.08859 0.0
O722 O 0.67443 0.44956 0.13395 0.0
O723 O 0.6976 0.64337 0.11907 0.0
O724 O 0.67757 0.68963 0.16385 0.0
O725 O 0.66853 0.48166 0.08448 0.0
O726 O 0.64441 0.54514 0.16981 0.0
O727 O 0.63691 0.64907 0.19136 0.0
C728 C 0.58371 0.5781 0.13549 0.0
C729 C 0.62111 0.89823 0.16834 0.0
C730 C 0.61745 1.01657 0.16479 0.0
C731 C 0.59863 1.01862 0.19359 0.0
C732 C 0.60238 0.90178 0.19732 0.0
C733 C 0.59079 0.96122 0.20956 0.0
C734 C 0.62778 0.9561 0.15174 0.0
C735 C 0.63669 0.65606 0.0794 0.0
C736 C 0.63804 0.83692 0.1577 0.0
C737 C 0.49161 0.78256 0.1913 0.0
C738 C 0.48407 0.77789 0.15854 0.0
C739 C 0.70159 0.68691 0.14185 0.0
C740 C 0.67487 0.36539 0.09265 0.0
C741 C 0.66398 0.2493 0.09972 0.0
C742 C 0.68023 0.23706 0.07008 0.0
C743 C 0.69077 0.35209 0.06306 0.0
C744 C 0.66166 0.31383 0.11117 0.0
C745 C 0.69385 0.2881 0.05212 0.0
C746 C 0.63755 0.58452 0.19399 0.0
C747 C 0.67246 0.43306 0.10391 0.0
H748 H 0.59037 0.06472 0.20386 0.0
H749 H 0.59775 0.85946 0.21141 0.0
H750 H 0.57666 0.96292 0.23203 0.0
H751 H 0.64265 0.95442 0.12968 0.0
H752 H 0.68285 0.18771 0.06101 0.0
H753 H 0.70138 0.39111 0.04865 0.0
H754 H 0.64902 0.32397 0.13394 0.0
H755 H 0.70699 0.27792 0.02969 0.0
Tb756 Tb 0.40828 0.33424 0.15017 0.0
C757 C 0.2904 0.52289 0.09556 0.0
N758 N 0.32413 0.5221 0.08587 0.0
C759 C 0.3084 0.57146 0.03631 0.0
C760 C 0.26374 0.54277 0.07464 0.0
C761 C 0.33345 0.54401 0.05633 0.0
C762 C 0.2732 0.56917 0.04506 0.0
C763 C 0.2476 0.49928 0.13649 0.0
C764 C 0.28262 0.50551 0.12683 0.0
C765 C 0.22073 0.51367 0.1148 0.0
C766 C 0.22878 0.53726 0.08427 0.0
Tb767 Tb 0.36336 0.49674 0.1239 0.0
N768 N 0.30929 0.49335 0.14747 0.0
C769 C 0.24067 0.47816 0.16754 0.0
C770 C 0.30219 0.47633 0.17848 0.0
C771 C 0.26791 0.46789 0.18882 0.0
H772 H 0.36037 0.54265 0.04868 0.0
H773 H 0.26255 0.45221 0.21306 0.0
H774 H 0.42317 0.33885 0.23035 0.0
H775 H 0.49874 0.25812 0.05818 0.0
H776 H 0.32218 0.4658 0.19535 0.0
H777 H 0.21449 0.46914 0.17527 0.0
H778 H 0.44066 0.27383 0.08252 0.0
H779 H 0.31608 0.59199 0.0136 0.0
H780 H 0.19367 0.50827 0.12159 0.0
H781 H 0.20782 0.55081 0.06827 0.0
H782 H 0.47134 0.37557 0.26516 0.0
H783 H 0.25362 0.58774 0.02883 0.0
H784 H 0.55191 0.2881 0.08859 0.0
N785 N 0.45207 0.35014 0.18713 0.0
C786 C 0.48496 0.34892 0.17484 0.0
C787 C 0.47548 0.36981 0.23963 0.0
C788 C 0.5142 0.36246 0.19419 0.0
C789 C 0.44779 0.35199 0.21968 0.0
C790 C 0.5088 0.37723 0.22657 0.0
N791 N 0.4606 0.31609 0.12553 0.0
C792 C 0.46358 0.28834 0.09578 0.0
C793 C 0.5232 0.32016 0.13055 0.0
C794 C 0.4895 0.32858 0.1434 0.0
C795 C 0.52644 0.29553 0.09931 0.0
C796 C 0.49649 0.27872 0.08203 0.0
H797 H 0.53045 0.38994 0.24205 0.0
H798 H 0.57045 0.36855 0.19549 0.0
H799 H 0.57856 0.33066 0.13984 0.0
O800 O 0.38579 0.24317 0.13733 0.0
O801 O 0.43793 0.40506 0.12182 0.0
O802 O 0.41621 0.49592 0.14405 0.0
O803 O 0.42565 0.25012 0.17309 0.0
O804 O 0.38949 0.33643 0.09909 0.0
O805 O 0.38701 0.44546 0.08365 0.0
O806 O 0.35072 0.59649 0.13244 0.0
O807 O 0.33277 0.40352 0.11848 0.0
O808 O 0.35317 0.35029 0.16224 0.0
O809 O 0.39256 0.56631 0.09985 0.0
O810 O 0.37835 0.49967 0.17347 0.0
O811 O 0.39046 0.39639 0.19248 0.0
C812 C 0.44265 0.46469 0.13168 0.0
C813 C 0.39071 0.15657 0.17495 0.0
C814 C 0.38383 0.03867 0.17892 0.0
C815 C 0.37134 0.04669 0.21039 0.0
C816 C 0.37721 0.16411 0.206 0.0
C817 C 0.36788 0.10915 0.22372 0.0
C818 C 0.39425 0.09407 0.16171 0.0
C819 C 0.38864 0.38288 0.07689 0.0
C820 C 0.40544 0.21139 0.15714 0.0
C821 C 0.54783 0.35781 0.181 0.0
C822 C 0.55239 0.33602 0.14936 0.0
C823 C 0.32917 0.35653 0.13995 0.0
C824 C 0.37817 0.67919 0.09893 0.0
C825 C 0.38508 0.79645 0.10612 0.0
C826 C 0.3933 0.80216 0.07346 0.0
C827 C 0.38636 0.68587 0.06628 0.0
C828 C 0.37737 0.73476 0.11872 0.0
C829 C 0.39364 0.74716 0.05365 0.0
C830 C 0.38588 0.46044 0.19701 0.0
C831 C 0.37642 0.61467 0.11387 0.0
H832 H 0.36384 1.00488 0.22452 0.0
H833 H 0.37475 0.21211 0.21673 0.0
H834 H 0.35783 0.1149 0.24783 0.0
H835 H 0.4044 0.08875 0.13754 0.0
H836 H 0.39934 0.84926 0.06327 0.0
H837 H 0.38834 0.64376 0.05069 0.0
H838 H 0.37233 0.72967 0.14418 0.0
H839 H 0.40019 0.75188 0.02853 0.0
Tb840 Tb 0.62641 0.33403 0.37105 0.0
C841 C 0.73717 0.53004 0.42514 0.0
N842 N 0.70321 0.52526 0.43408 0.0
C843 C 0.71784 0.55785 0.48748 0.0
C844 C 0.76331 0.54325 0.44795 0.0
C845 C 0.69327 0.53704 0.46492 0.0
C846 C 0.75319 0.55876 0.47932 0.0
C847 C 0.78109 0.51927 0.3836 0.0
C848 C 0.74576 0.52123 0.39301 0.0
C849 C 0.80734 0.52761 0.40674 0.0
C850 C 0.79849 0.54129 0.43865 0.0
Tb851 Tb 0.66477 0.50754 0.39403 0.0
N852 N 0.71954 0.51209 0.37135 0.0
C853 C 0.78898 0.50843 0.35129 0.0
C854 C 0.72736 0.50482 0.33946 0.0
C855 C 0.76204 0.50307 0.32908 0.0
H856 H 0.66613 0.53394 0.47178 0.0
H857 H 0.76795 0.49595 0.30392 0.0
H858 H 0.61623 0.30283 0.29379 0.0
H859 H 0.54046 0.27308 0.4693 0.0
H860 H 0.70765 0.49881 0.32146 0.0
H861 H 0.81573 0.50441 0.34314 0.0
H862 H 0.59723 0.29095 0.44348 0.0
H863 H 0.70958 0.57145 0.51141 0.0
H864 H 0.8346 0.52435 0.40019 0.0
H865 H 0.81903 0.54973 0.456 0.0
H866 H 0.56794 0.28195 0.25602 0.0
H867 H 0.77237 0.57163 0.49734 0.0
H868 H 0.48686 0.273 0.43689 0.0
N869 N 0.58342 0.31519 0.33411 0.0
C870 C 0.55078 0.30698 0.34592 0.0
C871 C 0.56254 0.29071 0.28116 0.0
C872 C 0.52218 0.29521 0.32554 0.0
C873 C 0.58981 0.30386 0.3024 0.0
C874 C 0.52842 0.28733 0.29274 0.0
N875 N 0.57579 0.30712 0.39707 0.0
C876 C 0.57401 0.29349 0.42911 0.0
C877 C 0.51379 0.29128 0.39224 0.0
C878 C 0.54677 0.303 0.37865 0.0
C879 C 0.51152 0.28234 0.42538 0.0
C880 C 0.54184 0.28223 0.44381 0.0
H881 H 0.50741 0.27497 0.27652 0.0
H882 H 0.46627 0.28036 0.32348 0.0
H883 H 0.45896 0.27887 0.3821 0.0
O884 O 0.62935 0.23709 0.38792 0.0
O885 O 0.59031 0.40426 0.39315 0.0
O886 O 0.61108 0.50137 0.37478 0.0
O887 O 0.65312 0.26417 0.34366 0.0
O888 O 0.64717 0.34748 0.42082 0.0
O889 O 0.63695 0.45632 0.4318 0.0
O890 O 0.67435 0.60634 0.38298 0.0
O891 O 0.69877 0.4208 0.40266 0.0
O892 O 0.67888 0.36838 0.35943 0.0
O893 O 0.63764 0.57859 0.42005 0.0
O894 O 0.65283 0.50029 0.3432 0.0
O895 O 0.62824 0.40009 0.3283 0.0
C896 C 0.58512 0.46461 0.38458 0.0
C897 C 0.63031 0.15735 0.34633 0.0
C898 C 0.62077 0.04028 0.34847 0.0
C899 C 0.61332 0.03932 0.31558 0.0
C900 C 0.62447 0.15485 0.31303 0.0
C901 C 0.61475 0.0967 0.29804 0.0
C902 C 0.62696 0.10005 0.3641 0.0
C903 C 0.64087 0.39595 0.44132 0.0
C904 C 0.64458 0.21628 0.36209 0.0
C905 C 0.48876 0.28761 0.33879 0.0
C906 C 0.48457 0.28641 0.37215 0.0
C907 C 0.70259 0.37337 0.38165 0.0
C908 C 0.65745 0.68813 0.42109 0.0
C909 C 0.65311 0.80621 0.41902 0.0
C910 C 0.65825 0.80949 0.45229 0.0
C911 C 0.66151 0.69202 0.45448 0.0
C912 C 0.65321 0.74535 0.40356 0.0
C913 C 0.66256 0.75253 0.46987 0.0
C914 C 0.63973 0.4599 0.32164 0.0
C915 C 0.65169 0.62626 0.40419 0.0
H916 H 0.60804 0.99375 0.30324 0.0
H917 H 0.62884 0.19667 0.29814 0.0
H918 H 0.61025 0.09546 0.27244 0.0
H919 H 0.63285 0.1009 0.38953 0.0
H920 H 0.65838 0.856 0.46472 0.0
H921 H 0.66245 0.64897 0.46898 0.0
H922 H 0.64786 0.74215 0.37806 0.0
H923 H 0.6657 0.75518 0.49562 0.0
Tb924 Tb 0.40848 0.71676 0.36841 0.0
C925 C 0.28272 0.5837 0.41387 0.0
N926 N 0.31458 0.58457 0.42814 0.0
C927 C 0.28917 0.62451 0.47686 0.0
C928 C 0.25276 0.60394 0.43076 0.0
C929 C 0.318 0.60176 0.45958 0.0
C930 C 0.25627 0.62428 0.46266 0.0
C931 C 0.24908 0.57329 0.36506 0.0
C932 C 0.28109 0.56989 0.38115 0.0
C933 C 0.21937 0.59335 0.38188 0.0
C934 C 0.2209 0.60804 0.41461 0.0
Tb935 Tb 0.36008 0.55839 0.39559 0.0
N936 N 0.31107 0.55629 0.36487 0.0
C937 C 0.24802 0.55747 0.33241 0.0
C938 C 0.30959 0.53494 0.33384 0.0
C939 C 0.27826 0.53666 0.31692 0.0
H940 H 0.34283 0.59783 0.47136 0.0
H941 H 0.27737 0.52108 0.29209 0.0
H942 H 0.42727 0.70303 0.2913 0.0
H943 H 0.49109 0.77464 0.47061 0.0
H944 H 0.33186 0.51383 0.3223 0.0
H945 H 0.22396 0.55932 0.3191 0.0
H946 H 0.43578 0.76856 0.4416 0.0
H947 H 0.29225 0.64161 0.50127 0.0
H948 H 0.19541 0.59945 0.36945 0.0
H949 H 0.19756 0.62454 0.42689 0.0
H950 H 0.47924 0.67982 0.25874 0.0
H951 H 0.23394 0.64135 0.47625 0.0
H952 H 0.54661 0.75176 0.44238 0.0
N953 N 0.45527 0.7109 0.33486 0.0
C954 C 0.4872 0.71553 0.34886 0.0
C955 C 0.48189 0.68919 0.28408 0.0
C956 C 0.5179 0.70558 0.33094 0.0
C957 C 0.45233 0.70132 0.30264 0.0
C958 C 0.51475 0.68937 0.29849 0.0
N959 N 0.45832 0.73064 0.39845 0.0
C960 C 0.45914 0.75298 0.42941 0.0
C961 C 0.52139 0.7314 0.39702 0.0
C962 C 0.48877 0.72567 0.3817 0.0
C963 C 0.52208 0.74671 0.4297 0.0
C964 C 0.49081 0.75904 0.44578 0.0
H965 H 0.53745 0.67647 0.28446 0.0
H966 H 0.57435 0.7015 0.33286 0.0
H967 H 0.57746 0.72639 0.39061 0.0
O968 O 0.39378 0.80964 0.38643 0.0
O969 O 0.44031 0.62747 0.36709 0.0
O970 O 0.41746 0.55183 0.40224 0.0
O971 O 0.42047 0.79938 0.34139 0.0
O972 O 0.39035 0.70639 0.41908 0.0
O973 O 0.39462 0.59779 0.43167 0.0
O974 O 0.35519 0.46115 0.37972 0.0
O975 O 0.33479 0.65757 0.39714 0.0
O976 O 0.35398 0.70975 0.35289 0.0
O977 O 0.35062 0.48574 0.42965 0.0
O978 O 0.38458 0.55366 0.34843 0.0
O979 O 0.38419 0.65863 0.32863 0.0
C980 C 0.44365 0.57582 0.38526 0.0
C981 C 0.38855 0.8966 0.34893 0.0
C982 C 0.37925 1.01456 0.34997 0.0
C983 C 0.3632 1.00985 0.31979 0.0
C984 C 0.37171 0.89287 0.31912 0.0
C985 C 0.35918 0.94935 0.30467 0.0
C986 C 0.39179 0.95745 0.36453 0.0
C987 C 0.39636 0.65933 0.43986 0.0
C988 C 0.40711 0.83989 0.36197 0.0
C989 C 0.55044 0.7091 0.34626 0.0
C990 C 0.55219 0.72275 0.37917 0.0
C991 C 0.32888 0.69857 0.37349 0.0
C992 C 0.37623 0.38424 0.41646 0.0
C993 C 0.393 0.271 0.40843 0.0
C994 C 0.41539 0.27577 0.43487 0.0
C995 C 0.40013 0.38907 0.44192 0.0
C996 C 0.3734 0.32535 0.39921 0.0
C997 C 0.41954 0.33492 0.45104 0.0
C998 C 0.38557 0.59424 0.32427 0.0
C999 C 0.35292 0.43883 0.40868 0.0
H1000 H 0.35336 0.05301 0.30808 0.0
H1001 H 0.36901 0.84663 0.30668 0.0
H1002 H 0.34652 0.94632 0.28155 0.0
H1003 H 0.40527 0.96071 0.38732 0.0
H1004 H 0.42973 0.23347 0.44289 0.0
H1005 H 0.40325 0.43414 0.45527 0.0
H1006 H 0.35506 0.32104 0.37954 0.0
H1007 H 0.43735 0.33844 0.47108 0.0
Tb1008 Tb 0.36124 0.50195 0.89572 0.0
C1009 C 0.47999 0.32706 0.84034 0.0
N1010 N 0.44707 0.33358 0.829 0.0
C1011 C 0.46973 0.34376 0.77562 0.0
C1012 C 0.50926 0.33378 0.8202 0.0
C1013 C 0.44174 0.33457 0.79664 0.0
C1014 C 0.50362 0.34655 0.78775 0.0
C1015 C 0.5175 0.29852 0.88462 0.0
C1016 C 0.4841 0.31017 0.87191 0.0
C1017 C 0.54701 0.30724 0.86506 0.0
C1018 C 0.54289 0.32568 0.83296 0.0
Tb1019 Tb 0.40309 0.33334 0.8666 0.0
N1020 N 0.45498 0.30613 0.89034 0.0
C1021 C 0.52012 0.27954 0.91667 0.0
C1022 C 0.45722 0.28481 0.92122 0.0
C1023 C 0.48978 0.27188 0.93493 0.0
H1024 H 0.4159 0.32788 0.78701 0.0
H1025 H 0.49146 0.25631 0.9596 0.0
H1026 H 0.34663 0.47299 0.9724 0.0
H1027 H 0.27192 0.53705 0.79568 0.0
H1028 H 0.43401 0.27805 0.93545 0.0
H1029 H 0.54531 0.27039 0.92745 0.0
H1030 H 0.32827 0.51762 0.81962 0.0
H1031 H 0.46514 0.34802 0.75015 0.0
H1032 H 0.57302 0.29963 0.87445 0.0
H1033 H 0.5658 0.33183 0.81806 0.0
H1034 H 0.29508 0.45731 1.0068 0.0
H1035 H 0.52521 0.35546 0.77169 0.0
H1036 H 0.21953 0.54821 0.82979 0.0
N1037 N 0.31692 0.49898 0.93157 0.0
C1038 C 0.28495 0.51425 0.91989 0.0
C1039 C 0.29205 0.47594 0.98279 0.0
C1040 C 0.2554 0.5149 0.94008 0.0
C1041 C 0.32109 0.48222 0.96284 0.0
C1042 C 0.2593 0.49534 0.9719 0.0
N1043 N 0.30995 0.51556 0.86797 0.0
C1044 C 0.30658 0.52113 0.83544 0.0
C1045 C 0.24802 0.53411 0.87395 0.0
C1046 C 0.28132 0.5226 0.88707 0.0
C1047 C 0.2447 0.53949 0.84075 0.0
C1048 C 0.27413 0.53287 0.82144 0.0
H1049 H 0.23697 0.49214 0.98777 0.0
H1050 H 0.19948 0.52973 0.9423 0.0
H1051 H 0.19339 0.54647 0.88459 0.0
O1052 O 0.35527 0.60069 0.88446 0.0
O1053 O 0.32798 0.41273 0.89884 0.0
O1054 O 0.34925 0.36083 0.85538 0.0
O1055 O 0.37593 0.5718 0.9305 0.0
O1056 O 0.38154 0.5036 0.84724 0.0
O1057 O 0.38954 0.40002 0.82599 0.0
O1058 O 0.39095 0.24028 0.88546 0.0
O1059 O 0.43914 0.40369 0.88949 0.0
O1060 O 0.41567 0.50375 0.87841 0.0
O1061 O 0.39439 0.25574 0.83492 0.0
O1062 O 0.38203 0.34119 0.91646 0.0
O1063 O 0.39178 0.44854 0.93108 0.0
C1064 C 0.32497 0.36572 0.87738 0.0
C1065 C 0.35809 0.68309 0.9243 0.0
C1066 C 0.36243 0.80143 0.92083 0.0
C1067 C 0.34383 0.80669 0.9498 0.0
C1068 C 0.33926 0.68896 0.95291 0.0
C1069 C 0.33219 0.75075 0.96561 0.0
C1070 C 0.36939 0.73924 0.90823 0.0
C1071 C 0.38762 0.46437 0.82294 0.0
C1072 C 0.36898 0.61995 0.91133 0.0
C1073 C 0.22252 0.52891 0.92722 0.0
C1074 C 0.21895 0.53834 0.89427 0.0
C1075 C 0.44282 0.466 0.88342 0.0
C1076 C 0.41199 0.15278 0.85306 0.0
C1077 C 0.41645 0.03553 0.86076 0.0
C1078 C 0.44317 0.03274 0.83782 0.0
C1079 C 0.43951 0.14948 0.83073 0.0
C1080 C 0.40147 0.09595 0.86884 0.0
C1081 C 0.45503 0.08973 0.82331 0.0
C1082 C 0.3888 0.38652 0.93839 0.0
C1083 C 0.39144 0.21289 0.85733 0.0
H1084 H 0.33826 0.85409 0.96017 0.0
H1085 H 0.3305 0.64602 0.96549 0.0
H1086 H 0.31794 0.75533 0.98792 0.0
H1087 H 0.38472 0.73435 0.88645 0.0
H1088 H 0.45488 0.9865 0.83126 0.0
H1089 H 0.44842 0.19259 0.81833 0.0
H1090 H 0.38078 0.09864 0.88649 0.0
H1091 H 0.4758 0.08742 0.80573 0.0
Tb1092 Tb 0.66477 0.5442 0.89323 0.0
C1093 C 0.55765 0.76905 0.83881 0.0
N1094 N 0.58868 0.74376 0.82912 0.0
C1095 C 0.57406 0.76627 0.77432 0.0
C1096 C 0.53304 0.79199 0.81646 0.0
C1097 C 0.59736 0.7431 0.79728 0.0
C1098 C 0.54163 0.79029 0.78391 0.0
C1099 C 0.51836 0.79744 0.88235 0.0
C1100 C 0.55065 0.7729 0.87133 0.0
C1101 C 0.49345 0.81882 0.86016 0.0
C1102 C 0.50089 0.8166 0.8273 0.0
Tb1103 Tb 0.62618 0.71567 0.86938 0.0
N1104 N 0.57557 0.75307 0.89216 0.0
C1105 C 0.51219 0.80041 0.91537 0.0
C1106 C 0.57016 0.75879 0.92449 0.0
C1107 C 0.5383 0.78126 0.93651 0.0
H1108 H 0.62288 0.72687 0.78954 0.0
H1109 H 0.53409 0.78457 0.96213 0.0
H1110 H 0.65525 0.52584 0.97156 0.0
H1111 H 0.77599 0.49449 0.81652 0.0
H1112 H 0.59017 0.74669 0.94133 0.0
H1113 H 0.48763 0.81844 0.92477 0.0
H1114 H 0.71313 0.49585 0.83048 0.0
H1115 H 0.58129 0.76612 0.74923 0.0
H1116 H 0.46851 0.83779 0.86818 0.0
H1117 H 0.4816 0.83399 0.81047 0.0
H1118 H 0.69217 0.4937 0.01664 0.0
H1119 H 0.52361 0.80815 0.76604 0.0
H1120 H 0.81961 0.50766 0.8594 0.0
N1121 N 0.69735 0.53141 0.9384 0.0
C1122 C 0.73222 0.52358 0.93381 0.0
C1123 C 0.70402 0.50456 0.99377 0.0
C1124 C 0.75475 0.51017 0.95951 0.0
C1125 C 0.68312 0.52334 0.96807 0.0
C1126 C 0.74004 0.49843 0.98956 0.0
N1127 N 0.72148 0.52494 0.8785 0.0
C1128 C 0.73204 0.50908 0.84825 0.0
C1129 C 0.78089 0.51598 0.89687 0.0
C1130 C 0.74489 0.52338 0.90282 0.0
C1131 C 0.7922 0.51111 0.86512 0.0
C1132 C 0.76757 0.50486 0.84076 0.0
H1133 H 0.75618 0.48374 1.00953 0.0
H1134 H 0.80868 0.49619 0.97358 0.0
H1135 H 0.83179 0.50411 0.9186 0.0
O1136 O 0.67206 0.44634 0.87854 0.0
O1137 O 0.69897 0.63033 0.90356 0.0
O1138 O 0.68006 0.68444 0.86064 0.0
O1139 O 0.63613 0.47203 0.91645 0.0
O1140 O 0.6651 0.56565 0.84143 0.0
O1141 O 0.6222 0.64187 0.82995 0.0
O1142 O 0.63158 0.81266 0.88575 0.0
O1143 O 0.58645 0.6463 0.88639 0.0
O1144 O 0.611 0.54659 0.8736 0.0
O1145 O 0.65657 0.77963 0.84224 0.0
O1146 O 0.64416 0.70429 0.91989 0.0
O1147 O 0.63304 0.59599 0.92844 0.0
C1148 C 0.70275 0.67957 0.88385 0.0
C1149 C 0.65729 0.3643 0.91622 0.0
C1150 C 0.65484 0.24642 0.91461 0.0
C1151 C 0.65928 0.24451 0.94791 0.0
C1152 C 0.66105 0.36196 0.94967 0.0
C1153 C 0.66243 0.3023 0.9653 0.0
C1154 C 0.65463 0.3062 0.89874 0.0
C1155 C 0.64292 0.59312 0.82141 0.0
C1156 C 0.64977 0.42514 0.89957 0.0
C1157 C 0.79086 0.50516 0.95398 0.0
C1158 C 0.80401 0.50962 0.92271 0.0
C1159 C 0.58368 0.58317 0.88079 0.0
C1160 C 0.63876 0.88973 0.8442 0.0
C1161 C 0.63133 1.00701 0.84592 0.0
C1162 C 0.6228 1.00695 0.81338 0.0
C1163 C 0.63182 0.8908 0.81111 0.0
C1164 C 0.63843 0.94835 0.86155 0.0
C1165 C 0.62284 0.94878 0.79607 0.0
C1166 C 0.63815 0.6551 0.93946 0.0
C1167 C 0.64931 0.82951 0.86046 0.0
H1168 H 0.65941 0.19845 0.96045 0.0
H1169 H 0.66112 0.40555 0.96403 0.0
H1170 H 0.66436 0.30105 0.99106 0.0
H1171 H 0.65008 0.30756 0.87308 0.0
H1172 H 0.61678 0.05215 0.80146 0.0
H1173 H 0.63433 0.84766 0.79649 0.0
H1174 H 0.64528 0.94879 0.88677 0.0
H1175 H 0.61686 0.94873 0.7708 0.0
Tb1176 Tb 0.36322 0.55288 0.62437 0.0
C1177 C 0.48894 0.7027 0.67332 0.0
N1178 N 0.45607 0.69923 0.68562 0.0
C1179 C 0.47988 0.68705 0.73843 0.0
C1180 C 0.51847 0.69412 0.69292 0.0
C1181 C 0.45168 0.6986 0.71811 0.0
C1182 C 0.51338 0.68215 0.72554 0.0
C1183 C 0.52645 0.73111 0.62862 0.0
C1184 C 0.493 0.72067 0.64153 0.0
C1185 C 0.55593 0.7201 0.64773 0.0
C1186 C 0.55199 0.70113 0.67973 0.0
Tb1187 Tb 0.41216 0.71362 0.64896 0.0
N1188 N 0.46391 0.72837 0.62329 0.0
C1189 C 0.52912 0.75225 0.59688 0.0
C1190 C 0.46629 0.75245 0.59293 0.0
C1191 C 0.49894 0.76361 0.57908 0.0
H1192 H 0.42689 0.71025 0.72848 0.0
H1193 H 0.50082 0.78154 0.5548 0.0
H1194 H 0.35496 0.5441 0.54457 0.0
H1195 H 0.26835 0.5737 0.72036 0.0
H1196 H 0.44313 0.76367 0.57942 0.0
H1197 H 0.55421 0.76103 0.58604 0.0
H1198 H 0.32694 0.56118 0.6985 0.0
H1199 H 0.4759 0.68417 0.76405 0.0
H1200 H 0.58185 0.72681 0.63813 0.0
H1201 H 0.575 0.69435 0.69438 0.0
H1202 H 0.30756 0.51364 0.50802 0.0
H1203 H 0.53525 0.67322 0.74125 0.0
H1204 H 0.21785 0.57402 0.68397 0.0
N1205 N 0.32169 0.55133 0.58556 0.0
C1206 C 0.28844 0.54876 0.59672 0.0
C1207 C 0.30162 0.52695 0.53251 0.0
C1208 C 0.26016 0.54087 0.57551 0.0
C1209 C 0.32849 0.54337 0.55356 0.0
C1210 C 0.26714 0.5281 0.54318 0.0
N1211 N 0.31058 0.5577 0.64972 0.0
C1212 C 0.30564 0.56224 0.68207 0.0
C1213 C 0.2484 0.55907 0.64135 0.0
C1214 C 0.28266 0.55432 0.62956 0.0
C1215 C 0.24353 0.56795 0.67422 0.0
C1216 C 0.27212 0.56851 0.69475 0.0
H1217 H 0.24621 0.51843 0.52638 0.0
H1218 H 0.20385 0.53973 0.57132 0.0
H1219 H 0.19372 0.55992 0.6285 0.0
O1220 O 0.35201 0.45563 0.63825 0.0
O1221 O 0.33408 0.64756 0.62171 0.0
O1222 O 0.35689 0.7063 0.66334 0.0
O1223 O 0.37126 0.47894 0.59132 0.0
O1224 O 0.3847 0.54972 0.67239 0.0
O1225 O 0.39117 0.65622 0.69037 0.0
O1226 O 0.39367 0.80627 0.63449 0.0
O1227 O 0.44252 0.63802 0.62374 0.0
O1228 O 0.41795 0.54301 0.6402 0.0
O1229 O 0.43165 0.79646 0.6718 0.0
O1230 O 0.3907 0.70767 0.59929 0.0
O1231 O 0.39381 0.59795 0.58691 0.0
C1232 C 0.33118 0.69541 0.64302 0.0
C1233 C 0.3904 0.38091 0.61196 0.0
C1234 C 0.40432 0.26741 0.62032 0.0
C1235 C 0.43397 0.27436 0.60111 0.0
C1236 C 0.42217 0.3884 0.59514 0.0
C1237 C 0.44358 0.33497 0.58945 0.0
C1238 C 0.38223 0.32063 0.62567 0.0
C1239 C 0.38988 0.59231 0.69551 0.0
C1240 C 0.36409 0.43278 0.6112 0.0
C1241 C 0.22597 0.5446 0.5873 0.0
C1242 C 0.22018 0.5555 0.61999 0.0
C1243 C 0.44569 0.57719 0.63239 0.0
C1244 C 0.39997 0.89263 0.67247 0.0
C1245 C 0.39476 1.0107 0.67623 0.0
C1246 C 0.38016 1.00346 0.7071 0.0
C1247 C 0.386 0.88637 0.70333 0.0
C1248 C 0.40541 0.95446 0.65955 0.0
C1249 C 0.37621 0.94182 0.72058 0.0
C1250 C 0.39278 0.65916 0.57822 0.0
C1251 C 0.41365 0.83659 0.65492 0.0
H1252 H 0.44943 0.23233 0.59527 0.0
H1253 H 0.42974 0.43472 0.58494 0.0
H1254 H 0.46711 0.34018 0.5753 0.0
H1255 H 0.35824 0.31439 0.63913 0.0
H1256 H 0.37064 0.0451 0.72052 0.0
H1257 H 0.38308 0.83883 0.71416 0.0
H1258 H 0.41877 0.95822 0.63675 0.0
H1259 H 0.36508 0.93699 0.7443 0.0
Tb1260 Tb 0.67294 0.49449 0.62455 0.0
C1261 C 0.56026 0.27247 0.67944 0.0
N1262 N 0.59053 0.29924 0.69007 0.0
C1263 C 0.57469 0.27482 0.74428 0.0
C1264 C 0.53541 0.24728 0.70103 0.0
C1265 C 0.59822 0.30028 0.72202 0.0
C1266 C 0.543 0.24868 0.73378 0.0
C1267 C 0.52497 0.23552 0.63471 0.0
C1268 C 0.55503 0.26692 0.64669 0.0
C1269 C 0.49949 0.21275 0.65611 0.0
C1270 C 0.50458 0.21898 0.68921 0.0
Tb1271 Tb 0.62932 0.32826 0.6514 0.0
N1272 N 0.58057 0.28803 0.62667 0.0
C1273 C 0.52233 0.22489 0.60167 0.0
C1274 C 0.57774 0.27773 0.59433 0.0
C1275 C 0.54845 0.24721 0.58139 0.0
H1276 H 0.62316 0.31849 0.7303 0.0
H1277 H 0.54687 0.23808 0.55585 0.0
H1278 H 0.67831 0.47441 0.54482 0.0
H1279 H 0.77551 0.53888 0.71113 0.0
H1280 H 0.59862 0.28828 0.57819 0.0
H1281 H 0.50141 0.19626 0.59155 0.0
H1282 H 0.71602 0.554 0.68852 0.0
H1283 H 0.58122 0.2745 0.76946 0.0
H1284 H 0.47624 0.18856 0.64731 0.0
H1285 H 0.48502 0.19993 0.70544 0.0
H1286 H 0.72199 0.42996 0.50699 0.0
H1287 H 0.52492 0.22852 0.75108 0.0
H1288 H 0.8202 0.48181 0.67935 0.0
N1289 N 0.71282 0.47509 0.58441 0.0
C1290 C 0.74684 0.47281 0.59365 0.0
C1291 C 0.72936 0.44215 0.53131 0.0
C1292 C 0.77331 0.45292 0.57228 0.0
C1293 C 0.70426 0.46448 0.55313 0.0
C1294 C 0.76414 0.43727 0.54076 0.0
N1295 N 0.72786 0.50212 0.64564 0.0
C1296 C 0.73556 0.52793 0.67494 0.0
C1297 C 0.78854 0.47741 0.63692 0.0
C1298 C 0.75436 0.48497 0.62553 0.0
C1299 C 0.7949 0.49066 0.66913 0.0
C1300 C 0.76909 0.52054 0.68759 0.0
H1301 H 0.78357 0.42072 0.52368 0.0
H1302 H 0.82826 0.42987 0.56756 0.0
H1303 H 0.84151 0.45124 0.62425 0.0
O1304 O 0.66822 0.59118 0.64222 0.0
O1305 O 0.70003 0.39928 0.62009 0.0
O1306 O 0.68185 0.35641 0.66583 0.0
O1307 O 0.68271 0.5715 0.59342 0.0
O1308 O 0.66762 0.48241 0.6767 0.0
O1309 O 0.62467 0.40572 0.689 0.0
O1310 O 0.63555 0.2313 0.63479 0.0
O1311 O 0.58843 0.39903 0.64229 0.0
O1312 O 0.61459 0.49926 0.62956 0.0
O1313 O 0.65752 0.26341 0.67974 0.0
O1314 O 0.64621 0.34394 0.6007 0.0
O1315 O 0.63613 0.45227 0.59085 0.0
C1316 C 0.70579 0.35978 0.64387 0.0
C1317 C 0.6531 0.67012 0.60295 0.0
C1318 C 0.63801 0.7858 0.60634 0.0
C1319 C 0.62268 0.78074 0.5758 0.0
C1320 C 0.63598 0.66579 0.57327 0.0
C1321 C 0.62095 0.72092 0.55984 0.0
C1322 C 0.65299 0.72953 0.61987 0.0
C1323 C 0.6438 0.4578 0.69614 0.0
C1324 C 0.67505 0.61616 0.61434 0.0
C1325 C 0.80757 0.44569 0.58352 0.0
C1326 C 0.81509 0.45736 0.61587 0.0
C1327 C 0.58687 0.46195 0.63621 0.0
C1328 C 0.63977 0.1528 0.6766 0.0
C1329 C 0.6326 0.03474 0.67388 0.0
C1330 C 0.62912 0.03293 0.70723 0.0
C1331 C 0.63639 0.14966 0.71014 0.0
C1332 C 0.6366 0.09504 0.65845 0.0
C1333 C 0.63042 0.0903 0.72517 0.0
C1334 C 0.63703 0.39143 0.58105 0.0
C1335 C 0.65121 0.21377 0.66103 0.0
H1336 H 0.61163 0.823 0.56425 0.0
H1337 H 0.63524 0.6204 0.55988 0.0
H1338 H 0.60847 0.71759 0.53663 0.0
H1339 H 0.66472 0.73144 0.64344 0.0
H1340 H 0.62604 0.98679 0.71929 0.0
H1341 H 0.63955 0.19251 0.72505 0.0
H1342 H 0.63915 0.09663 0.63261 0.0
H1343 H 0.62817 0.08867 0.75091 0.0
C1344 C 0.24836 0.25576 0.11182 0.0
C1345 C 0.23529 0.22747 0.14026 0.0
C1346 C 0.27791 0.29819 0.11191 0.0
C1347 C 0.2968 0.31282 0.14025 0.0
H1348 H 0.23513 0.24633 0.08935 0.0
H1349 H 0.28634 0.31901 0.0894 0.0
S1350 S 0.27416 0.24993 0.22109 0.0
N1351 N 0.2438 0.21838 0.1976 0.0
N1352 N 0.29972 0.29347 0.19756 0.0
C1353 C 0.28424 0.2837 0.16866 0.0
C1354 C 0.25357 0.24252 0.16871 0.0
C1355 C 0.78624 0.77574 0.1163 0.0
C1356 C 0.79186 0.82176 0.14097 0.0
C1357 C 0.75705 0.73323 0.1166 0.0
C1358 C 0.7321 0.73432 0.14165 0.0
H1359 H 0.80487 0.77167 0.09688 0.0
H1360 H 0.75408 0.69934 0.09691 0.0
S1361 S 0.73339 0.85107 0.21033 0.0
N1362 N 0.76893 0.86923 0.18983 0.0
N1363 N 0.71486 0.78975 0.19095 0.0
C1364 C 0.73725 0.78165 0.16601 0.0
C1365 C 0.76687 0.82493 0.16557 0.0
C1366 C 0.27686 0.75421 0.40113 0.0
C1367 C 0.29564 0.73932 0.37277 0.0
C1368 C 0.24602 0.79269 0.40087 0.0
C1369 C 0.23161 0.81694 0.37213 0.0
H1370 H 0.28642 0.73699 0.42394 0.0
H1371 H 0.23313 0.803 0.42345 0.0
S1372 S 0.27095 0.79535 0.29141 0.0
N1373 N 0.29781 0.75569 0.31524 0.0
N1374 N 0.23956 0.82424 0.31464 0.0
C1375 C 0.25 0.80223 0.34368 0.0
C1376 C 0.28196 0.76483 0.34405 0.0
C1377 C 0.77224 0.24774 0.4073 0.0
C1378 C 0.7933 0.23971 0.37962 0.0
C1379 C 0.74372 0.29198 0.40824 0.0
C1380 C 0.7342 0.32921 0.3813 0.0
H1381 H 0.77799 0.22001 0.42862 0.0
H1382 H 0.72854 0.29597 0.43005 0.0
S1383 S 0.78003 0.32742 0.30287 0.0
N1384 N 0.80212 0.2749 0.32466 0.0
N1385 N 0.74822 0.35435 0.32613 0.0
C1386 C 0.75467 0.3211 0.3535 0.0
C1387 C 0.78418 0.27757 0.35274 0.0
C1388 C 0.73922 0.77257 0.90836 0.0
C1389 C 0.73468 0.72352 0.88471 0.0
C1390 C 0.76812 0.81658 0.90783 0.0
C1391 C 0.79413 0.81377 0.88365 0.0
H1392 H 0.71994 0.77773 0.92721 0.0
H1393 H 0.76999 0.85327 0.92653 0.0
S1394 S 0.79445 0.69304 0.81634 0.0
N1395 N 0.75888 0.67472 0.83674 0.0
N1396 N 0.81225 0.75565 0.83529 0.0
C1397 C 0.78956 0.76445 0.85996 0.0
C1398 C 0.76024 0.7201 0.86057 0.0
C1399 C 0.29225 0.26572 0.85573 0.0
C1400 C 0.29416 0.31842 0.87781 0.0
C1401 C 0.26358 0.22172 0.85517 0.0
C1402 C 0.23538 0.22792 0.87671 0.0
H1403 H 0.31312 0.2582 0.8386 0.0
H1404 H 0.2636 0.1823 0.83778 0.0
S1405 S 0.22669 0.35422 0.93983 0.0
N1406 N 0.26445 0.37107 0.92258 0.0
N1407 N 0.21116 0.28982 0.92081 0.0
C1408 C 0.23695 0.27921 0.89904 0.0
C1409 C 0.26605 0.3239 0.89977 0.0
C1410 C 0.75065 0.29103 0.67295 0.0
C1411 C 0.73663 0.31414 0.64389 0.0
C1412 C 0.78046 0.25033 0.67356 0.0
C1413 C 0.79699 0.2292 0.64511 0.0
H1414 H 0.7389 0.30555 0.69551 0.0
H1415 H 0.79041 0.23465 0.69653 0.0
S1416 S 0.77002 0.27235 0.56271 0.0
N1417 N 0.74165 0.3108 0.58586 0.0
N1418 N 0.79648 0.23338 0.5871 0.0
C1419 C 0.78276 0.25053 0.61597 0.0
C1420 C 0.75301 0.29316 0.61533 0.0
C1421 C 0.23922 0.76502 0.62255 0.0
C1422 C 0.23403 0.81556 0.64522 0.0
C1423 C 0.27027 0.72688 0.62198 0.0
C1424 C 0.29798 0.7372 0.644 0.0
H1425 H 0.21898 0.75442 0.60518 0.0
H1426 H 0.27247 0.68899 0.60394 0.0
S1427 S 0.29731 0.86498 0.70776 0.0
N1428 N 0.25925 0.8739 0.68996 0.0
N1429 N 0.31715 0.8045 0.68885 0.0
C1430 C 0.29292 0.78838 0.66649 0.0
C1431 C 0.26123 0.82664 0.66713 0.0
C1432 C 0.12751 0.96364 0.26307 0.0
C1433 C 0.14497 0.99148 0.28945 0.0
C1434 C 0.12485 0.99684 0.23357 0.0
C1435 C 0.13934 0.05976 0.22886 0.0
H1436 H 0.11556 0.91609 0.26515 0.0
H1437 H 0.11151 0.97237 0.21402 0.0
S1438 S 0.18842 0.15519 0.28939 0.0
N1439 N 0.17757 0.08746 0.30797 0.0
N1440 N 0.17205 0.14798 0.25304 0.0
C1441 C 0.15646 0.08856 0.25492 0.0
C1442 C 0.15946 0.05495 0.28488 0.0
C1443 C 0.87843 0.99208 0.28518 0.0
C1444 C 0.88978 0.05758 0.28941 0.0
C1445 C 0.87744 0.96116 0.25485 0.0
C1446 C 0.88925 0.99275 0.22704 0.0
H1447 H 0.86889 0.96445 0.3054 0.0
H1448 H 0.86658 0.91251 0.2532 0.0
S1449 S 0.924 0.16148 0.22428 0.0
N1450 N 0.91398 0.15117 0.26231 0.0
N1451 N 0.91479 0.09217 0.20613 0.0
C1452 C 0.90234 0.05674 0.23104 0.0
C1453 C 0.90213 0.08905 0.26181 0.0
C1454 C 0.89756 0.99458 0.73514 0.0
C1455 C 0.88676 0.06015 0.73151 0.0
C1456 C 0.89679 0.96272 0.76497 0.0
C1457 C 0.88549 0.99461 0.79303 0.0
H1458 H 0.90655 0.96687 0.71455 0.0
H1459 H 0.90529 0.91285 0.76575 0.0
S1460 S 0.85409 0.16708 0.79659 0.0
N1461 N 0.86429 0.15574 0.75857 0.0
N1462 N 0.8628 0.09748 0.81436 0.0
C1463 C 0.87499 0.06084 0.78961 0.0
C1464 C 0.87573 0.09312 0.75912 0.0
C1465 C 0.12497 0.07441 0.76429 0.0
C1466 C 0.13785 0.04269 0.79158 0.0
C1467 C 0.12504 0.04411 0.73386 0.0
C1468 C 0.13888 0.98093 0.72881 0.0
H1469 H 0.11472 0.12307 0.76617 0.0
H1470 H 0.1147 0.07141 0.71388 0.0
S1471 S 0.17512 0.87437 0.79185 0.0
N1472 N 0.16255 0.94053 0.81126 0.0
N1473 N 0.16593 0.88773 0.75389 0.0
C1474 C 0.15142 0.94805 0.75576 0.0
C1475 C 0.15002 0.97768 0.78702 0.0
C1476 C 0.63386 0.55758 0.28534 0.0
C1477 C 0.63571 0.48899 0.28868 0.0
C1478 C 0.63341 0.58806 0.25513 0.0
C1479 C 0.63384 0.55179 0.22638 0.0
H1480 H 0.63362 0.58872 0.30642 0.0
H1481 H 0.6339 0.64053 0.25459 0.0
S1482 S 0.63976 0.3704 0.22134 0.0
N1483 N 0.64041 0.38656 0.26006 0.0
N1484 N 0.63506 0.44153 0.20377 0.0
C1485 C 0.63415 0.48274 0.22944 0.0
C1486 C 0.63624 0.45209 0.26027 0.0
C1487 C 0.39208 0.49416 0.2884 0.0
C1488 C 0.38699 0.56257 0.29135 0.0
C1489 C 0.39102 0.46106 0.25858 0.0
C1490 C 0.38666 0.49462 0.22962 0.0
H1491 H 0.39593 0.46491 0.3096 0.0
H1492 H 0.39295 0.40871 0.25865 0.0
S1493 S 0.37161 0.67473 0.22362 0.0
N1494 N 0.3749 0.66169 0.2624 0.0
N1495 N 0.37726 0.60291 0.20652 0.0
C1496 C 0.38216 0.56371 0.23228 0.0
C1497 C 0.38147 0.59666 0.26285 0.0
C1498 C 0.39369 0.4631 0.76177 0.0
C1499 C 0.39022 0.49814 0.79064 0.0
C1500 C 0.39491 0.49456 0.73186 0.0
C1501 C 0.39087 0.56294 0.72869 0.0
H1502 H 0.39462 0.41077 0.7618 0.0
H1503 H 0.3982 0.46399 0.71082 0.0
S1504 S 0.37645 0.67832 0.79626 0.0
N1505 N 0.38256 0.60738 0.81361 0.0
N1506 N 0.37886 0.66344 0.75746 0.0
C1507 C 0.38578 0.59858 0.75715 0.0
C1508 C 0.38686 0.56715 0.78787 0.0
C1509 C 0.6103 0.54676 0.77243 0.0
C1510 C 0.64174 0.56482 0.78794 0.0
C1511 C 0.61046 0.50994 0.74328 0.0
C1512 C 0.64201 0.48785 0.72924 0.0
H1513 H 0.58551 0.56023 0.78307 0.0
H1514 H 0.58587 0.49928 0.73158 0.0
S1515 S 0.73045 0.51988 0.76125 0.0
N1516 N 0.70464 0.56321 0.78461 0.0
N1517 N 0.70463 0.48127 0.73588 0.0
C1518 C 0.673 0.5037 0.74548 0.0
C1519 C 0.67294 0.54547 0.77308 0.0
C1520 C 0.15131 0.21216 0.99104 0.0
C1521 C 0.1319 0.16494 0.9738 0.0
C1522 C 0.1516 0.21326 0.02512 0.0
C1523 C 0.13237 0.16737 0.04303 0.0
H1524 H 0.16803 0.24568 0.97822 0.0
H1525 H 0.16856 0.24749 0.03738 0.0
S1526 S 0.07356 0.03987 1.00952 0.0
N1527 N 0.09026 0.07587 0.97778 0.0
N1528 N 0.09049 0.07835 0.04064 0.0
C1529 C 0.11106 0.12331 0.0259 0.0
C1530 C 0.1109 0.122 0.99169 0.0
C1531 C 0.91882 0.90459 0.99463 0.0
C1532 C 0.89312 0.87105 0.97683 0.0
C1533 C 0.91915 0.90415 0.02828 0.0
C1534 C 0.89392 0.86987 0.04605 0.0
H1535 H 0.93818 0.93394 0.9824 0.0
H1536 H 0.93855 0.93351 0.04058 0.0
S1537 S 0.82084 0.77379 0.01142 0.0
N1538 N 0.84186 0.80169 0.97969 0.0
N1539 N 0.84266 0.80034 0.04309 0.0
C1540 C 0.86894 0.83352 0.02867 0.0
C1541 C 0.86849 0.83426 0.99409 0.0
C1542 C 0.10958 0.9224 0.49494 0.0
C1543 C 0.13323 0.88653 0.47617 0.0
C1544 C 0.10927 0.91716 0.52828 0.0
C1545 C 0.13259 0.87586 0.54442 0.0
H1546 H 0.0919 0.95662 0.48381 0.0
H1547 H 0.09193 0.94881 0.54169 0.0
S1548 S 0.19981 0.77147 0.5063 0.0
N1549 N 0.1802 0.80716 0.47585 0.0
N1550 N 0.17977 0.79778 0.53902 0.0
C1551 C 0.15535 0.83734 0.52592 0.0
C1552 C 0.15567 0.84266 0.49166 0.0
C1553 C 0.91323 0.11227 0.52614 0.0
C1554 C 0.89557 0.15918 0.54486 0.0
C1555 C 0.91315 0.11426 0.49263 0.0
C1556 C 0.89528 0.16317 0.47577 0.0
H1557 H 0.92649 0.07193 0.53747 0.0
H1558 H 0.92627 0.07527 0.47979 0.0
S1559 S 0.84806 0.30212 0.51294 0.0
N1560 N 0.86233 0.25991 0.54387 0.0
N1561 N 0.86169 0.26305 0.4805 0.0
C1562 C 0.87927 0.21291 0.49399 0.0
C1563 C 0.87953 0.21106 0.52854 0.0
C1564 C 0.65678 0.70634 0.02669 0.0
C1565 C 0.633 0.66748 0.04407 0.0
C1566 C 0.65744 0.70521 0.99267 0.0
C1567 C 0.63424 0.66552 0.97491 0.0
H1568 H 0.67641 0.73434 0.0394 0.0
H1569 H 0.6774 0.7328 0.9803 0.0
S1570 S 0.56359 0.56285 1.00894 0.0
N1571 N 0.58344 0.59394 0.04062 0.0
N1572 N 0.58437 0.59248 0.97757 0.0
C1573 C 0.60901 0.63009 0.99214 0.0
C1574 C 0.60846 0.63095 0.02641 0.0
C1575 C 0.36324 0.34462 0.99039 0.0
C1576 C 0.39192 0.36964 0.97309 0.0
C1577 C 0.36314 0.3438 0.02435 0.0
C1578 C 0.39201 0.36659 0.04213 0.0
H1579 H 0.33973 0.33045 0.97774 0.0
H1580 H 0.33955 0.32922 0.03673 0.0
S1581 S 0.47481 0.42995 1.00827 0.0
N1582 N 0.4507 0.41317 0.97647 0.0
N1583 N 0.45079 0.41024 0.03966 0.0
C1584 C 0.42145 0.3879 0.02497 0.0
C1585 C 0.42138 0.38959 0.99066 0.0
C1586 C 0.61437 0.4257 0.49427 0.0
C1587 C 0.63666 0.38442 0.47653 0.0
C1588 C 0.61285 0.42366 0.52785 0.0
C1589 C 0.63368 0.38046 0.54557 0.0
H1590 H 0.59858 0.46164 0.48214 0.0
H1591 H 0.59631 0.45858 0.54016 0.0
S1592 S 0.69526 0.25957 0.51079 0.0
N1593 N 0.6788 0.29658 0.47922 0.0
N1594 N 0.67621 0.29283 0.54248 0.0
C1595 C 0.65475 0.33631 0.52815 0.0
C1596 C 0.65623 0.33839 0.49367 0.0
C1597 C 0.42142 0.63309 0.52624 0.0
C1598 C 0.3975 0.6718 0.54347 0.0
C1599 C 0.42248 0.63348 0.49269 0.0
C1600 C 0.39977 0.67277 0.47481 0.0
H1601 H 0.43855 0.59996 0.53879 0.0
H1602 H 0.44022 0.60038 0.48056 0.0
S1603 S 0.33215 0.78314 0.50825 0.0
N1604 N 0.35074 0.75111 0.54019 0.0
N1605 N 0.35297 0.75247 0.47687 0.0
C1606 C 0.37683 0.71424 0.49167 0.0
C1607 C 0.3756 0.71351 0.52608 0.0
C1608 C 1.00863 0.96556 0.14459 0.0
C1609 C 0.9792 0.99743 0.1322 0.0
C1610 C 0.04214 0.99347 0.14435 0.0
C1611 C 0.04832 0.05525 0.13108 0.0
H1612 H 1.00596 0.91858 0.15482 0.0
H1613 H 0.0633 0.96614 0.15493 0.0
S1614 S 0.98148 0.15695 0.09069 0.0
N1615 N 0.95932 0.09384 0.10407 0.0
N1616 N 0.02236 0.14446 0.10143 0.0
C1617 C 0.0195 0.08699 0.11707 0.0
C1618 C 0.98509 0.05882 0.11811 0.0
C1619 C 0.99314 0.03694 0.413 0.0
C1620 C 0.9766 0.0528 0.38382 0.0
C1621 C 0.02851 1.01621 0.41396 0.0
C1622 C 0.04858 1.00917 0.38572 0.0
H1623 H 0.97887 0.0418 0.43531 0.0
H1624 H 0.03992 1.00396 0.43687 0.0
S1625 S 0.0175 0.04269 0.30319 0.0
N1626 N 0.98353 0.05982 0.32612 0.0
N1627 N 0.04862 1.01888 0.32777 0.0
C1628 C 0.03208 0.02409 0.35651 0.0
C1629 C 0.9966 0.04647 0.35561 0.0
C1630 C 0.03608 1.01666 0.91047 0.0
C1631 C 0.05051 0.04406 0.88249 0.0
C1632 C 1.00163 0.99158 0.91099 0.0
C1633 C 0.98068 0.99096 0.88325 0.0
H1634 H 0.05123 1.01564 0.93229 0.0
H1635 H 0.99158 0.97137 0.93308 0.0
S1636 S 1.00673 0.05245 0.80332 0.0
N1637 N 0.04102 0.06735 0.82617 0.0
N1638 N 0.97752 1.01743 0.82677 0.0
C1639 C 0.99517 1.01637 0.85497 0.0
C1640 C 0.02968 0.04366 0.85469 0.0
C1641 C 1.00039 0.04327 0.65974 0.0
C1642 C 0.97789 0.03511 0.63325 0.0
C1643 C 0.03534 1.0226 0.65898 0.0
C1644 C 0.04886 0.98897 0.63238 0.0
H1645 H 0.99084 0.06565 0.68153 0.0
H1646 H 0.05158 0.03122 0.67983 0.0
S1647 S 0.99961 0.94372 0.5589 0.0
N1648 N 0.97121 0.98542 0.58062 0.0
N1649 N 0.03594 0.94176 0.58015 0.0
C1650 C 0.02604 0.97588 0.60661 0.0
C1651 C 0.99077 0.99947 0.60689 0.0
C1652 C 0.50463 0.4741 0.11093 0.0
C1653 C 0.47869 0.49291 0.13317 0.0
C1654 C 0.53871 0.5004 0.11213 0.0
C1655 C 0.54822 0.54705 0.13551 0.0
H1656 H 0.49847 0.43919 0.09221 0.0
H1657 H 0.55749 0.48504 0.0942 0.0
S1658 S 0.49132 0.60614 0.20171 0.0
N1659 N 0.46587 0.55718 0.18071 0.0
N1660 N 0.52947 0.60559 0.18334 0.0
C1661 C 0.52276 0.56452 0.15845 0.0
C1662 C 0.48817 0.53794 0.15714 0.0
C1663 C 0.50215 0.55347 0.35965 0.0
C1664 C 0.47878 0.54316 0.38535 0.0
C1665 C 0.53653 0.52938 0.3599 0.0
C1666 C 0.54879 0.4911 0.38526 0.0
H1667 H 0.49368 0.58001 0.33882 0.0
H1668 H 0.55339 0.53968 0.33967 0.0
S1669 S 0.49834 0.44624 0.45788 0.0
N1670 N 0.47083 0.49064 0.43686 0.0
N1671 N 0.53466 0.44246 0.43656 0.0
C1672 C 0.52547 0.47804 0.41061 0.0
C1673 C 0.49069 0.5043 0.41077 0.0
C1674 C 0.50753 0.46589 0.89739 0.0
C1675 C 0.47878 0.49578 0.88235 0.0
C1676 C 0.54143 0.49328 0.89615 0.0
C1677 C 0.54795 0.55284 0.88055 0.0
H1678 H 0.50374 0.42169 0.91089 0.0
H1679 H 0.56249 0.46844 0.90826 0.0
S1680 S 0.48252 0.64907 0.83574 0.0
N1681 N 0.45999 0.58726 0.85006 0.0
N1682 N 0.52293 0.63856 0.84829 0.0
C1683 C 0.51954 0.58289 0.86533 0.0
C1684 C 0.48524 0.55467 0.86618 0.0
C1685 C 0.50946 0.5732 0.61552 0.0
C1686 C 0.48123 0.54605 0.63272 0.0
C1687 C 0.54357 0.54733 0.61732 0.0
C1688 C 0.55084 0.49134 0.63549 0.0
H1689 H 0.50512 0.61443 0.60008 0.0
H1690 H 0.56419 0.57061 0.60375 0.0
S1691 S 0.48571 0.39855 0.68345 0.0
N1692 N 0.46296 0.45839 0.66771 0.0
N1693 N 0.52605 0.40883 0.67055 0.0
C1694 C 0.52252 0.46263 0.65207 0.0
C1695 C 0.48805 0.48975 0.65065 0.0
C1696 C 0.17539 0.67496 0.1487 0.0
C1697 C 0.1469 0.69057 0.12907 0.0
C1698 C 0.17548 0.61751 0.16668 0.0
C1699 C 0.14701 0.57403 0.16569 0.0
H1700 H 0.19833 0.70592 0.14908 0.0
H1701 H 0.19863 0.60562 0.18029 0.0
S1702 S 0.06426 0.59767 0.12128 0.0
N1703 N 0.08842 0.66139 0.11178 0.0
N1704 N 0.08825 0.55398 0.14594 0.0
C1705 C 0.11769 0.59095 0.14738 0.0
C1706 C 0.11771 0.64912 0.12899 0.0
C1707 C 0.86768 0.36848 0.14872 0.0
C1708 C 0.88383 0.35564 0.11901 0.0
C1709 C 0.87529 0.42571 0.16612 0.0
C1710 C 0.89892 0.47235 0.15418 0.0
H1711 H 0.84831 0.33513 0.1581 0.0
H1712 H 0.86192 0.43447 0.18863 0.0
S1713 S 0.95146 0.4581 0.08005 0.0
N1714 N 0.92741 0.39123 0.0804 0.0
N1715 N 0.94044 0.49957 0.11256 0.0
C1716 C 0.91601 0.45913 0.12521 0.0
C1717 C 0.90882 0.40057 0.1078 0.0
C1718 C 0.14769 0.40925 0.40699 0.0
C1719 C 0.13286 0.35619 0.39051 0.0
C1720 C 0.14916 0.4709 0.39291 0.0
C1721 C 0.13557 0.4813 0.36202 0.0
H1722 H 0.15859 0.4028 0.4307 0.0
H1723 H 0.16134 0.51038 0.40614 0.0
S1724 S 0.09173 0.35956 0.31023 0.0
N1725 N 0.10377 0.31841 0.34225 0.0
N1726 N 0.10479 0.43518 0.31653 0.0
C1727 C 0.12001 0.42909 0.34575 0.0
C1728 C 0.11915 0.36621 0.35979 0.0
C1729 C 0.86699 0.61932 0.36369 0.0
C1730 C 0.89692 0.57992 0.36362 0.0
C1731 C 0.86658 0.67954 0.37966 0.0
C1732 C 0.89666 0.70397 0.39493 0.0
H1733 H 0.84361 0.60342 0.35149 0.0
H1734 H 0.84239 0.70675 0.3802 0.0
S1735 S 0.98369 0.62416 0.39577 0.0
N1736 N 0.95808 0.57111 0.37733 0.0
N1737 N 0.95863 0.68692 0.40502 0.0
C1738 C 0.92742 0.66632 0.39328 0.0
C1739 C 0.92729 0.60382 0.37808 0.0
C1740 C 0.8627 0.3743 0.86333 0.0
C1741 C 0.87348 0.35667 0.89418 0.0
C1742 C 0.87551 0.43101 0.8491 0.0
C1743 C 0.89896 0.47167 0.86562 0.0
H1744 H 0.84389 0.34466 0.85043 0.0
H1745 H 0.86629 0.44423 0.82549 0.0
S1746 S 0.93871 0.44143 0.94484 0.0
N1747 N 0.91164 0.3796 0.93927 0.0
N1748 N 0.93494 0.48786 0.91283 0.0
C1749 C 0.91084 0.45329 0.89594 0.0
C1750 C 0.89822 0.39517 0.91021 0.0
C1751 C 0.14735 0.62097 0.85087 0.0
C1752 C 0.1282 0.57358 0.8677 0.0
C1753 C 0.15868 0.67829 0.86621 0.0
C1754 C 0.15072 0.6901 0.89865 0.0
H1755 H 0.15492 0.61223 0.82618 0.0
H1756 H 0.1749 0.71214 0.85302 0.0
S1757 S 0.09588 0.5865 0.95108 0.0
N1758 N 0.09864 0.54513 0.91708 0.0
N1759 N 0.11852 0.65404 0.94557 0.0
C1760 C 0.12955 0.64501 0.91489 0.0
C1761 C 0.11865 0.58636 0.89951 0.0
C1762 C 0.92221 0.6435 0.62741 0.0
C1763 C 0.8948 0.68884 0.63013 0.0
C1764 C 0.9209 0.58369 0.64349 0.0
C1765 C 0.89272 0.56801 0.66376 0.0
H1766 H 0.94508 0.65454 0.61314 0.0
H1767 H 0.94246 0.55012 0.64054 0.0
S1768 S 0.81372 0.66904 0.67801 0.0
N1769 N 0.83707 0.71079 0.65211 0.0
N1770 N 0.83713 0.60382 0.68584 0.0
C1771 C 0.86549 0.61353 0.66695 0.0
C1772 C 0.86586 0.67244 0.64925 0.0
C1773 C 0.16849 0.36884 0.63914 0.0
C1774 C 0.13584 0.34229 0.63075 0.0
C1775 C 0.17094 0.42967 0.65475 0.0
C1776 C 0.14089 0.46634 0.66201 0.0
H1777 H 0.19229 0.34362 0.63259 0.0
H1778 H 0.19654 0.44889 0.66039 0.0
S1779 S 0.04932 0.41447 0.64949 0.0
N1780 N 0.07281 0.35425 0.63435 0.0
N1781 N 0.07766 0.46915 0.66265 0.0
C1782 C 0.10819 0.43918 0.65503 0.0
C1783 C 0.10562 0.37701 0.63967 0.0
C1784 C 0.61803 0.0903 0.1177 0.0
C1785 C 0.62794 0.07796 0.14938 0.0
C1786 C 0.62854 0.14751 0.1024 0.0
C1787 C 0.64977 0.19377 0.1181 0.0
H1788 H 0.60213 0.0554 0.10467 0.0
H1789 H 0.62049 0.15513 0.07783 0.0
S1790 S 0.68381 0.1823 0.20102 0.0
N1791 N 0.66028 0.11548 0.19607 0.0
N1792 N 0.68069 0.22277 0.16705 0.0
C1793 C 0.65952 0.18224 0.15001 0.0
C1794 C 0.64853 0.12422 0.16569 0.0
C1795 C 0.41435 0.89677 0.12719 0.0
C1796 C 0.38521 0.85506 0.12694 0.0
C1797 C 0.41414 0.9549 0.14497 0.0
C1798 C 0.38477 0.9735 0.16314 0.0
H1799 H 0.43738 0.88461 0.11329 0.0
H1800 H 0.43703 0.98592 0.14416 0.0
S1801 S 0.30148 0.88162 0.16954 0.0
N1802 N 0.32615 0.83621 0.14587 0.0
N1803 N 0.32571 0.94516 0.17951 0.0
C1804 C 0.35571 0.93138 0.16352 0.0
C1805 C 0.35594 0.87226 0.14535 0.0
C1806 C 0.61142 0.96559 0.39472 0.0
C1807 C 0.62777 0.97879 0.36535 0.0
C1808 C 0.61979 0.9095 0.41196 0.0
C1809 C 0.64527 0.86565 0.40067 0.0
H1810 H 0.59203 0.99875 0.40434 0.0
H1811 H 0.60605 0.90015 0.43417 0.0
S1812 S 0.69804 0.88204 0.32657 0.0
N1813 N 0.67174 0.94563 0.32644 0.0
N1814 N 0.68819 0.84119 0.35932 0.0
C1815 C 0.66224 0.87901 0.37159 0.0
C1816 C 0.65334 0.93544 0.35384 0.0
C1817 C 0.39875 0.13133 0.34846 0.0
C1818 C 0.38337 0.07959 0.3655 0.0
C1819 C 0.40101 0.1942 0.36188 0.0
C1820 C 0.38805 0.20706 0.39278 0.0
H1821 H 0.40921 0.12302 0.32464 0.0
H1822 H 0.41319 0.23261 0.34818 0.0
S1823 S 0.34402 0.09122 0.44663 0.0
N1824 N 0.35459 0.0472 0.41477 0.0
N1825 N 0.35805 0.16553 0.43931 0.0
C1826 C 0.37229 0.15657 0.40976 0.0
C1827 C 0.3703 0.0927 0.39637 0.0
C1828 C 0.39473 0.90749 0.92257 0.0
C1829 C 0.37612 0.86055 0.90469 0.0
C1830 C 0.40787 0.96394 0.90816 0.0
C1831 C 0.40328 0.97493 0.87531 0.0
H1832 H 0.39935 0.90031 0.9479 0.0
H1833 H 0.42186 0.99914 0.92276 0.0
S1834 S 0.35445 0.87028 0.81817 0.0
N1835 N 0.3523 0.83086 0.85252 0.0
N1836 N 0.37763 0.9367 0.82544 0.0
C1837 C 0.38475 0.92873 0.85706 0.0
C1838 C 0.37104 0.87154 0.87176 0.0
C1839 C 0.66999 0.16757 0.8715 0.0
C1840 C 0.64781 0.18632 0.89668 0.0
C1841 C 0.66394 0.10968 0.85463 0.0
C1842 C 0.63585 0.06899 0.86284 0.0
H1843 H 0.6923 0.19735 0.86515 0.0
H1844 H 0.68162 0.09608 0.83545 0.0
S1845 S 0.56767 0.10159 0.92363 0.0
N1846 N 0.5947 0.16414 0.92662 0.0
N1847 N 0.58404 0.05361 0.89543 0.0
C1848 C 0.6129 0.08824 0.88719 0.0
C1849 C 0.61874 0.14754 0.90404 0.0
C1850 C 0.40245 0.13189 0.68024 0.0
C1851 C 0.39635 0.07628 0.66099 0.0
C1852 C 0.40262 0.19445 0.66722 0.0
C1853 C 0.39722 0.20362 0.6344 0.0
H1854 H 0.408 0.12722 0.70554 0.0
H1855 H 0.40863 0.23566 0.68264 0.0
S1856 S 0.3797 0.07733 0.57288 0.0
N1857 N 0.38411 0.03672 0.60662 0.0
N1858 N 0.3852 0.15465 0.58267 0.0
C1859 C 0.39086 0.14957 0.61473 0.0
C1860 C 0.39044 0.08577 0.62784 0.0
C1861 C 0.60805 0.89042 0.62165 0.0
C1862 C 0.63762 0.8496 0.62376 0.0
C1863 C 0.60698 0.95132 0.63704 0.0
C1864 C 0.63493 0.97272 0.65595 0.0
H1865 H 0.58526 0.87502 0.60829 0.0
H1866 H 0.58381 0.98112 0.63481 0.0
S1867 S 0.71834 0.88644 0.66982 0.0
N1868 N 0.69636 0.83791 0.64541 0.0
N1869 N 0.69246 0.94908 0.67693 0.0
C1870 C 0.66428 0.93246 0.65893 0.0
C1871 C 0.66607 0.87164 0.64229 0.0
loop_
_geom_bond_atom_site_label_1
_geom_bond_atom_site_label_2
_geom_bond_distance
_geom_bond_site_symmetry_2
_ccdc_geom_bond_type
Tb0 N29 2.617 . S
Tb0 N35 2.572 . S
Tb0 O44 2.465 . S
Tb0 O45 2.387 . S
Tb0 O47 2.428 . S
Tb0 O48 2.308 . S
Tb0 O52 2.349 . S
Tb0 O55 2.393 . S
Tb0 C64 2.802 . S
C1 N2 1.379 . S
C1 C4 1.416 . S
C1 C8 1.424 . S
N2 C1 1.379 . S
N2 C5 1.334 . S
N2 Tb11 2.617 . S
C3 C5 1.390 . S
C3 C6 1.339 . S
C3 H23 0.930 1_554 S
C4 C1 1.416 . S
C4 C6 1.416 . S
C4 C10 1.451 . S
C5 N2 1.334 . S
C5 C3 1.390 . S
C5 H16 0.930 . S
C6 C3 1.339 . S
C6 C4 1.416 . S
C6 H27 0.930 . S
C7 C8 1.413 1_565 S
C7 C9 1.427 . S
C7 C13 1.416 . S
C8 C1 1.424 . S
C8 C7 1.413 1_545 S
C8 N12 1.361 . S
C9 C7 1.427 . S
C9 C10 1.326 1_565 S
C9 H24 0.929 . S
C10 C4 1.451 . S
C10 C9 1.326 1_545 S
C10 H25 0.930 . S
Tb11 N2 2.617 . S
Tb11 N12 2.572 . S
Tb11 O46 2.349 . S
Tb11 O49 2.393 . S
Tb11 O50 2.465 1_545 S
Tb11 O51 2.387 . S
Tb11 O53 2.428 1_545 S
Tb11 O54 2.308 . S
Tb11 C75 2.802 1_545 S
N12 C8 1.361 . S
N12 Tb11 2.572 . S
N12 C14 1.340 1_545 S
C13 C7 1.416 . S
C13 C15 1.332 . S
C13 H21 0.931 . S
C14 N12 1.340 1_565 S
C14 C15 1.407 . S
C14 H20 0.930 . S
C15 C13 1.332 . S
C15 C14 1.407 . S
C15 H17 0.929 . S
H16 C5 0.930 . S
H17 C15 0.929 . S
H18 C33 0.930 . S
H19 C40 0.929 . S
H20 C14 0.930 . S
H21 C13 0.931 . S
H22 C36 0.930 . S
H23 C3 0.930 1_556 S
H24 C9 0.929 . S
H25 C10 0.930 . S
H26 C31 0.930 . S
H27 C6 0.930 . S
H28 C39 0.931 . S
N29 Tb0 2.617 . S
N29 C30 1.379 . S
N29 C33 1.334 . S
C30 N29 1.379 . S
C30 C32 1.416 1_455 S
C30 C38 1.424 . S
C31 H26 0.930 . S
C31 C33 1.390 . S
C31 C34 1.339 . S
C32 C30 1.416 1_655 S
C32 C34 1.416 1_655 S
C32 C65 1.448 . S
C33 H18 0.930 . S
C33 N29 1.334 . S
C33 C31 1.390 . S
C34 C31 1.339 . S
C34 C32 1.416 1_455 S
C34 H41 0.930 1_455 S
N35 Tb0 2.572 . S
N35 C36 1.340 . S
N35 C38 1.361 . S
C36 H22 0.930 . S
C36 N35 1.340 . S
C36 C40 1.407 . S
C37 C38 1.413 1_655 S
C37 C39 1.416 . S
C37 C66 1.427 . S
C38 C30 1.424 . S
C38 N35 1.361 . S
C38 C37 1.413 1_455 S
C39 H28 0.931 . S
C39 C37 1.416 . S
C39 C40 1.332 1_655 S
C40 H19 0.929 . S
C40 C36 1.407 . S
C40 C39 1.332 1_455 S
H41 C34 0.930 1_655 S
H42 C65 0.930 . S
H43 C66 0.929 . S
O44 Tb0 2.465 . S
O44 C64 1.264 . S
O45 Tb0 2.387 . S
O45 C56 1.264 . S
O46 Tb11 2.349 . S
O46 C56 1.243 . S
O47 Tb0 2.428 . S
O47 C64 1.256 . S
O48 Tb0 2.308 . S
O48 C63 1.266 . S
O49 Tb11 2.393 . S
O49 C63 1.248 . S
O50 Tb11 2.465 1_565 S
O50 C75 1.264 . S
O51 Tb11 2.387 . S
O51 C67 1.264 . S
O52 Tb0 2.349 . S
O52 C67 1.243 . S
O53 Tb11 2.428 1_565 S
O53 C75 1.256 . S
O54 Tb11 2.308 . S
O54 C74 1.266 . S
O55 Tb0 2.393 . S
O55 C74 1.248 . S
C56 O45 1.264 . S
C56 O46 1.243 . S
C57 C60 1.399 . S
C57 C62 1.383 . S
C57 C64 1.496 . S
C58 C59 1.399 . S
C58 C62 1.389 . S
C59 C58 1.399 . S
C59 C61 1.380 . S
C59 H76 0.929 . S
C60 C57 1.399 . S
C60 C61 1.392 . S
C60 H77 0.929 . S
C61 C59 1.380 . S
C61 C60 1.392 . S
C61 H78 0.929 . S
C62 C57 1.383 . S
C62 C58 1.389 . S
C62 H79 0.931 . S
C63 O48 1.266 . S
C63 O49 1.248 . S
C64 Tb0 2.802 . S
C64 O44 1.264 . S
C64 O47 1.256 . S
C64 C57 1.496 . S
C65 C32 1.448 . S
C65 H42 0.930 . S
C65 C66 1.328 . S
C66 C37 1.427 . S
C66 H43 0.929 . S
C66 C65 1.328 . S
C67 O51 1.264 . S
C67 O52 1.243 . S
C68 C71 1.399 . S
C68 C72 1.383 . S
C68 C75 1.496 . S
C69 C70 1.399 . S
C69 C72 1.389 . S
C70 C69 1.399 . S
C70 C73 1.380 . S
C70 H80 0.929 . S
C71 C68 1.399 . S
C71 C73 1.392 . S
C71 H81 0.929 . S
C72 C68 1.383 . S
C72 C69 1.389 . S
C72 H82 0.931 . S
C73 C70 1.380 . S
C73 C71 1.392 . S
C73 H83 0.929 . S
C74 O54 1.266 . S
C74 O55 1.248 . S
C75 Tb11 2.802 1_565 S
C75 O50 1.264 . S
C75 O53 1.256 . S
C75 C68 1.496 . S
H76 C59 0.929 . S
H77 C60 0.929 . S
H78 C61 0.929 . S
H79 C62 0.931 . S
H80 C70 0.929 . S
H81 C71 0.929 . S
H82 C72 0.931 . S
H83 C73 0.929 . S
Tb84 N113 2.617 . S
Tb84 N119 2.572 . S
Tb84 O128 2.465 . S
Tb84 O129 2.387 . S
Tb84 O131 2.428 . S
Tb84 O132 2.308 . S
Tb84 O136 2.349 . S
Tb84 O139 2.393 . S
Tb84 C148 2.802 . S
C85 N86 1.379 . S
C85 C88 1.416 . S
C85 C92 1.424 . S
N86 C85 1.379 . S
N86 C89 1.334 . S
N86 Tb95 2.617 . S
C87 C89 1.390 . S
C87 C90 1.339 . S
C87 H107 0.930 1_554 S
C88 C85 1.416 . S
C88 C90 1.416 . S
C88 C94 1.451 . S
C89 N86 1.334 . S
C89 C87 1.390 . S
C89 H100 0.930 . S
C90 C87 1.339 . S
C90 C88 1.416 . S
C90 H111 0.930 . S
C91 C92 1.413 1_545 S
C91 C93 1.427 . S
C91 C97 1.416 . S
C92 C85 1.424 . S
C92 C91 1.413 1_565 S
C92 N96 1.361 . S
C93 C91 1.427 . S
C93 C94 1.326 1_545 S
C93 H108 0.929 . S
C94 C88 1.451 . S
C94 C93 1.326 1_565 S
C94 H109 0.930 . S
Tb95 N86 2.617 . S
Tb95 N96 2.572 . S
Tb95 O130 2.349 . S
Tb95 O133 2.393 . S
Tb95 O134 2.465 1_565 S
Tb95 O135 2.387 . S
Tb95 O137 2.428 1_565 S
Tb95 O138 2.308 . S
Tb95 C159 2.802 1_565 S
N96 C92 1.361 . S
N96 Tb95 2.572 . S
N96 C98 1.340 1_565 S
C97 C91 1.416 . S
C97 C99 1.332 . S
C97 H105 0.931 . S
C98 N96 1.340 1_545 S
C98 C99 1.407 . S
C98 H104 0.930 . S
C99 C97 1.332 . S
C99 C98 1.407 . S
C99 H101 0.929 . S
H100 C89 0.930 . S
H101 C99 0.929 . S
H102 C117 0.930 . S
H103 C124 0.929 . S
H104 C98 0.930 . S
H105 C97 0.931 . S
H106 C120 0.930 . S
H107 C87 0.930 1_556 S
H108 C93 0.929 . S
H109 C94 0.930 . S
H110 C115 0.930 . S
H111 C90 0.930 . S
H112 C123 0.931 . S
N113 Tb84 2.617 . S
N113 C114 1.379 . S
N113 C117 1.334 . S
C114 N113 1.379 . S
C114 C116 1.416 1_655 S
C114 C122 1.424 . S
C115 H110 0.930 . S
C115 C117 1.390 . S
C115 C118 1.339 . S
C116 C114 1.416 1_455 S
C116 C118 1.416 1_455 S
C116 C149 1.448 . S
C117 H102 0.930 . S
C117 N113 1.334 . S
C117 C115 1.390 . S
C118 C115 1.339 . S
C118 C116 1.416 1_655 S
C118 H125 0.930 1_655 S
N119 Tb84 2.572 . S
N119 C120 1.340 . S
N119 C122 1.361 . S
C120 H106 0.930 . S
C120 N119 1.340 . S
C120 C124 1.407 . S
C121 C122 1.413 1_455 S
C121 C123 1.416 . S
C121 C150 1.427 . S
C122 C114 1.424 . S
C122 N119 1.361 . S
C122 C121 1.413 1_655 S
C123 H112 0.931 . S
C123 C121 1.416 . S
C123 C124 1.332 1_455 S
C124 H103 0.929 . S
C124 C120 1.407 . S
C124 C123 1.332 1_655 S
H125 C118 0.930 1_455 S
H126 C149 0.930 . S
H127 C150 0.929 . S
O128 Tb84 2.465 . S
O128 C148 1.264 . S
O129 Tb84 2.387 . S
O129 C140 1.264 . S
O130 Tb95 2.349 . S
O130 C140 1.243 . S
O131 Tb84 2.428 . S
O131 C148 1.256 . S
O132 Tb84 2.308 . S
O132 C147 1.266 . S
O133 Tb95 2.393 . S
O133 C147 1.248 . S
O134 Tb95 2.465 1_545 S
O134 C159 1.264 . S
O135 Tb95 2.387 . S
O135 C151 1.264 . S
O136 Tb84 2.349 . S
O136 C151 1.243 . S
O137 Tb95 2.428 1_545 S
O137 C159 1.256 . S
O138 Tb95 2.308 . S
O138 C158 1.266 . S
O139 Tb84 2.393 . S
O139 C158 1.248 . S
C140 O129 1.264 . S
C140 O130 1.243 . S
C141 C144 1.399 . S
C141 C146 1.383 . S
C141 C148 1.496 . S
C142 C143 1.399 . S
C142 C146 1.389 . S
C143 C142 1.399 . S
C143 C145 1.380 . S
C143 H160 0.929 . S
C144 C141 1.399 . S
C144 C145 1.392 . S
C144 H161 0.929 . S
C145 C143 1.380 . S
C145 C144 1.392 . S
C145 H162 0.929 . S
C146 C141 1.383 . S
C146 C142 1.389 . S
C146 H163 0.931 . S
C147 O132 1.266 . S
C147 O133 1.248 . S
C148 Tb84 2.802 . S
C148 O128 1.264 . S
C148 O131 1.256 . S
C148 C141 1.496 . S
C149 C116 1.448 . S
C149 H126 0.930 . S
C149 C150 1.328 . S
C150 C121 1.427 . S
C150 H127 0.929 . S
C150 C149 1.328 . S
C151 O135 1.264 . S
C151 O136 1.243 . S
C152 C155 1.399 . S
C152 C156 1.383 . S
C152 C159 1.496 . S
C153 C154 1.399 . S
C153 C156 1.389 . S
C154 C153 1.399 . S
C154 C157 1.380 . S
C154 H164 0.929 . S
C155 C152 1.399 . S
C155 C157 1.392 . S
C155 H165 0.929 . S
C156 C152 1.383 . S
C156 C153 1.389 . S
C156 H166 0.931 . S
C157 C154 1.380 . S
C157 C155 1.392 . S
C157 H167 0.929 . S
C158 O138 1.266 . S
C158 O139 1.248 . S
C159 Tb95 2.802 1_545 S
C159 O134 1.264 . S
C159 O137 1.256 . S
C159 C152 1.496 . S
H160 C143 0.929 . S
H161 C144 0.929 . S
H162 C145 0.929 . S
H163 C146 0.931 . S
H164 C154 0.929 . S
H165 C155 0.929 . S
H166 C156 0.931 . S
H167 C157 0.929 . S
Tb168 N197 2.617 . S
Tb168 N203 2.572 . S
Tb168 O212 2.465 . S
Tb168 O213 2.387 . S
Tb168 O215 2.428 . S
Tb168 O216 2.308 . S
Tb168 O220 2.349 . S
Tb168 O223 2.393 . S
Tb168 C232 2.802 . S
C169 N170 1.379 . S
C169 C172 1.416 . S
C169 C176 1.424 . S
N170 C169 1.379 . S
N170 C173 1.334 . S
N170 Tb179 2.617 . S
C171 C173 1.390 . S
C171 C174 1.339 . S
C171 H191 0.930 . S
C172 C169 1.416 . S
C172 C174 1.416 . S
C172 C178 1.451 . S
C173 N170 1.334 . S
C173 C171 1.390 . S
C173 H184 0.930 . S
C174 C171 1.339 . S
C174 C172 1.416 . S
C174 H195 0.930 . S
C175 C176 1.413 1_545 S
C175 C177 1.427 . S
C175 C181 1.416 . S
C176 C169 1.424 . S
C176 C175 1.413 1_565 S
C176 N180 1.361 . S
C177 C175 1.427 . S
C177 C178 1.326 1_545 S
C177 H192 0.929 . S
C178 C172 1.451 . S
C178 C177 1.326 1_565 S
C178 H193 0.930 . S
Tb179 N170 2.617 . S
Tb179 N180 2.572 . S
Tb179 O214 2.349 . S
Tb179 O217 2.393 . S
Tb179 O218 2.465 1_565 S
Tb179 O219 2.387 . S
Tb179 O221 2.428 1_565 S
Tb179 O222 2.308 . S
Tb179 C243 2.802 1_565 S
N180 C176 1.361 . S
N180 Tb179 2.572 . S
N180 C182 1.340 1_565 S
C181 C175 1.416 . S
C181 C183 1.332 . S
C181 H189 0.931 . S
C182 N180 1.340 1_545 S
C182 C183 1.407 . S
C182 H188 0.930 . S
C183 C181 1.332 . S
C183 C182 1.407 . S
C183 H185 0.929 . S
H184 C173 0.930 . S
H185 C183 0.929 . S
H186 C201 0.930 . S
H187 C208 0.929 . S
H188 C182 0.930 . S
H189 C181 0.931 . S
H190 C204 0.930 . S
H191 C171 0.930 . S
H192 C177 0.929 . S
H193 C178 0.930 . S
H194 C199 0.930 . S
H195 C174 0.930 . S
H196 C207 0.931 . S
N197 Tb168 2.617 . S
N197 C198 1.379 . S
N197 C201 1.334 . S
C198 N197 1.379 . S
C198 C200 1.416 1_455 S
C198 C206 1.424 . S
C199 H194 0.930 . S
C199 C201 1.390 . S
C199 C202 1.339 . S
C200 C198 1.416 1_655 S
C200 C202 1.416 1_655 S
C200 C233 1.448 . S
C201 H186 0.930 . S
C201 N197 1.334 . S
C201 C199 1.390 . S
C202 C199 1.339 . S
C202 C200 1.416 1_455 S
C202 H209 0.930 1_455 S
N203 Tb168 2.572 . S
N203 C204 1.340 . S
N203 C206 1.361 . S
C204 H190 0.930 . S
C204 N203 1.340 . S
C204 C208 1.407 . S
C205 C206 1.413 1_655 S
C205 C207 1.416 . S
C205 C234 1.427 . S
C206 C198 1.424 . S
C206 N203 1.361 . S
C206 C205 1.413 1_455 S
C207 H196 0.931 . S
C207 C205 1.416 . S
C207 C208 1.332 1_655 S
C208 H187 0.929 . S
C208 C204 1.407 . S
C208 C207 1.332 1_455 S
H209 C202 0.930 1_655 S
H210 C233 0.930 . S
H211 C234 0.929 . S
O212 Tb168 2.465 . S
O212 C232 1.264 . S
O213 Tb168 2.387 . S
O213 C224 1.264 . S
O214 Tb179 2.349 . S
O214 C224 1.243 . S
O215 Tb168 2.428 . S
O215 C232 1.256 . S
O216 Tb168 2.308 . S
O216 C231 1.266 . S
O217 Tb179 2.393 . S
O217 C231 1.248 . S
O218 Tb179 2.465 1_545 S
O218 C243 1.264 . S
O219 Tb179 2.387 . S
O219 C235 1.264 . S
O220 Tb168 2.349 . S
O220 C235 1.243 . S
O221 Tb179 2.428 1_545 S
O221 C243 1.256 . S
O222 Tb179 2.308 . S
O222 C242 1.266 . S
O223 Tb168 2.393 . S
O223 C242 1.248 . S
C224 O213 1.264 . S
C224 O214 1.243 . S
C225 C228 1.399 . S
C225 C230 1.383 . S
C225 C232 1.496 . S
C226 C227 1.399 . S
C226 C230 1.389 . S
C227 C226 1.399 . S
C227 C229 1.380 . S
C227 H244 0.929 . S
C228 C225 1.399 . S
C228 C229 1.392 . S
C228 H245 0.929 . S
C229 C227 1.380 . S
C229 C228 1.392 . S
C229 H246 0.929 . S
C230 C225 1.383 . S
C230 C226 1.389 . S
C230 H247 0.931 . S
C231 O216 1.266 . S
C231 O217 1.248 . S
C232 Tb168 2.802 . S
C232 O212 1.264 . S
C232 O215 1.256 . S
C232 C225 1.496 . S
C233 C200 1.448 . S
C233 H210 0.930 . S
C233 C234 1.328 . S
C234 C205 1.427 . S
C234 H211 0.929 . S
C234 C233 1.328 . S
C235 O219 1.264 . S
C235 O220 1.243 . S
C236 C239 1.399 . S
C236 C240 1.383 . S
C236 C243 1.496 . S
C237 C238 1.399 . S
C237 C240 1.389 . S
C238 C237 1.399 . S
C238 C241 1.380 . S
C238 H248 0.929 . S
C239 C236 1.399 . S
C239 C241 1.392 . S
C239 H249 0.929 . S
C240 C236 1.383 . S
C240 C237 1.389 . S
C240 H250 0.931 . S
C241 C238 1.380 . S
C241 C239 1.392 . S
C241 H251 0.929 . S
C242 O222 1.266 . S
C242 O223 1.248 . S
C243 Tb179 2.802 1_545 S
C243 O218 1.264 . S
C243 O221 1.256 . S
C243 C236 1.496 . S
H244 C227 0.929 . S
H245 C228 0.929 . S
H246 C229 0.929 . S
H247 C230 0.931 . S
H248 C238 0.929 . S
H249 C239 0.929 . S
H250 C240 0.931 . S
H251 C241 0.929 . S
Tb252 N281 2.617 . S
Tb252 N287 2.572 . S
Tb252 O296 2.465 . S
Tb252 O297 2.387 . S
Tb252 O299 2.428 . S
Tb252 O300 2.308 . S
Tb252 O304 2.349 . S
Tb252 O307 2.393 . S
Tb252 C316 2.802 . S
C253 N254 1.379 . S
C253 C256 1.416 . S
C253 C260 1.424 . S
N254 C253 1.379 . S
N254 C257 1.334 . S
N254 Tb263 2.617 . S
C255 C257 1.390 . S
C255 C258 1.339 . S
C255 H275 0.930 . S
C256 C253 1.416 . S
C256 C258 1.416 . S
C256 C262 1.451 . S
C257 N254 1.334 . S
C257 C255 1.390 . S
C257 H268 0.930 . S
C258 C255 1.339 . S
C258 C256 1.416 . S
C258 H279 0.930 . S
C259 C260 1.413 1_565 S
C259 C261 1.427 . S
C259 C265 1.416 . S
C260 C253 1.424 . S
C260 C259 1.413 1_545 S
C260 N264 1.361 . S
C261 C259 1.427 . S
C261 C262 1.326 1_565 S
C261 H276 0.929 . S
C262 C256 1.451 . S
C262 C261 1.326 1_545 S
C262 H277 0.930 . S
Tb263 N254 2.617 . S
Tb263 N264 2.572 . S
Tb263 O298 2.349 . S
Tb263 O301 2.393 . S
Tb263 O302 2.465 1_545 S
Tb263 O303 2.387 . S
Tb263 O305 2.428 1_545 S
Tb263 O306 2.308 . S
Tb263 C327 2.802 1_545 S
N264 C260 1.361 . S
N264 Tb263 2.572 . S
N264 C266 1.340 1_545 S
C265 C259 1.416 . S
C265 C267 1.332 . S
C265 H273 0.931 . S
C266 N264 1.340 1_565 S
C266 C267 1.407 . S
C266 H272 0.930 . S
C267 C265 1.332 . S
C267 C266 1.407 . S
C267 H269 0.929 . S
H268 C257 0.930 . S
H269 C267 0.929 . S
H270 C285 0.930 . S
H271 C292 0.929 . S
H272 C266 0.930 . S
H273 C265 0.931 . S
H274 C288 0.930 . S
H275 C255 0.930 . S
H276 C261 0.929 . S
H277 C262 0.930 . S
H278 C283 0.930 . S
H279 C258 0.930 . S
H280 C291 0.931 . S
N281 Tb252 2.617 . S
N281 C282 1.379 . S
N281 C285 1.334 . S
C282 N281 1.379 . S
C282 C284 1.416 1_655 S
C282 C290 1.424 . S
C283 H278 0.930 . S
C283 C285 1.390 . S
C283 C286 1.339 . S
C284 C282 1.416 1_455 S
C284 C286 1.416 1_455 S
C284 C317 1.448 . S
C285 H270 0.930 . S
C285 N281 1.334 . S
C285 C283 1.390 . S
C286 C283 1.339 . S
C286 C284 1.416 1_655 S
C286 H293 0.930 1_655 S
N287 Tb252 2.572 . S
N287 C288 1.340 . S
N287 C290 1.361 . S
C288 H274 0.930 . S
C288 N287 1.340 . S
C288 C292 1.407 . S
C289 C290 1.413 1_455 S
C289 C291 1.416 . S
C289 C318 1.427 . S
C290 C282 1.424 . S
C290 N287 1.361 . S
C290 C289 1.413 1_655 S
C291 H280 0.931 . S
C291 C289 1.416 . S
C291 C292 1.332 1_455 S
C292 H271 0.929 . S
C292 C288 1.407 . S
C292 C291 1.332 1_655 S
H293 C286 0.930 1_455 S
H294 C317 0.930 . S
H295 C318 0.929 . S
O296 Tb252 2.465 . S
O296 C316 1.264 . S
O297 Tb252 2.387 . S
O297 C308 1.264 . S
O298 Tb263 2.349 . S
O298 C308 1.243 . S
O299 Tb252 2.428 . S
O299 C316 1.256 . S
O300 Tb252 2.308 . S
O300 C315 1.266 . S
O301 Tb263 2.393 . S
O301 C315 1.248 . S
O302 Tb263 2.465 1_565 S
O302 C327 1.264 . S
O303 Tb263 2.387 . S
O303 C319 1.264 . S
O304 Tb252 2.349 . S
O304 C319 1.243 . S
O305 Tb263 2.428 1_565 S
O305 C327 1.256 . S
O306 Tb263 2.308 . S
O306 C326 1.266 . S
O307 Tb252 2.393 . S
O307 C326 1.248 . S
C308 O297 1.264 . S
C308 O298 1.243 . S
C309 C312 1.399 . S
C309 C314 1.383 . S
C309 C316 1.496 . S
C310 C311 1.399 . S
C310 C314 1.389 . S
C311 C310 1.399 . S
C311 C313 1.380 . S
C311 H328 0.929 . S
C312 C309 1.399 . S
C312 C313 1.392 . S
C312 H329 0.929 . S
C313 C311 1.380 . S
C313 C312 1.392 . S
C313 H330 0.929 . S
C314 C309 1.383 . S
C314 C310 1.389 . S
C314 H331 0.931 . S
C315 O300 1.266 . S
C315 O301 1.248 . S
C316 Tb252 2.802 . S
C316 O296 1.264 . S
C316 O299 1.256 . S
C316 C309 1.496 . S
C317 C284 1.448 . S
C317 H294 0.930 . S
C317 C318 1.328 . S
C318 C289 1.427 . S
C318 H295 0.929 . S
C318 C317 1.328 . S
C319 O303 1.264 . S
C319 O304 1.243 . S
C320 C323 1.399 . S
C320 C324 1.383 . S
C320 C327 1.496 . S
C321 C322 1.399 . S
C321 C324 1.389 . S
C322 C321 1.399 . S
C322 C325 1.380 . S
C322 H332 0.929 . S
C323 C320 1.399 . S
C323 C325 1.392 . S
C323 H333 0.929 . S
C324 C320 1.383 . S
C324 C321 1.389 . S
C324 H334 0.931 . S
C325 C322 1.380 . S
C325 C323 1.392 . S
C325 H335 0.929 . S
C326 O306 1.266 . S
C326 O307 1.248 . S
C327 Tb263 2.802 1_565 S
C327 O302 1.264 . S
C327 O305 1.256 . S
C327 C320 1.496 . S
H328 C311 0.929 . S
H329 C312 0.929 . S
H330 C313 0.929 . S
H331 C314 0.931 . S
H332 C322 0.929 . S
H333 C323 0.929 . S
H334 C324 0.931 . S
H335 C325 0.929 . S
Tb336 N365 2.617 . S
Tb336 N371 2.572 . S
Tb336 O380 2.465 1_565 S
Tb336 O381 2.387 . S
Tb336 O383 2.428 1_565 S
Tb336 O384 2.308 . S
Tb336 O388 2.349 . S
Tb336 O391 2.393 . S
Tb336 C400 2.802 1_565 S
C337 N338 1.379 . S
C337 C340 1.416 1_655 S
C337 C344 1.424 . S
N338 C337 1.379 . S
N338 C341 1.334 . S
N338 Tb347 2.617 . S
C339 C341 1.390 . S
C339 C342 1.339 . S
C339 H359 0.930 . S
C340 C337 1.416 1_455 S
C340 C342 1.416 1_455 S
C340 C346 1.448 . S
C341 N338 1.334 . S
C341 C339 1.390 . S
C341 H352 0.930 . S
C342 C339 1.339 . S
C342 C340 1.416 1_655 S
C342 H363 0.930 1_655 S
C343 C344 1.413 1_455 S
C343 C345 1.427 . S
C343 C349 1.416 . S
C344 C337 1.424 . S
C344 C343 1.413 1_655 S
C344 N348 1.361 . S
C345 C343 1.427 . S
C345 C346 1.328 . S
C345 H360 0.929 . S
C346 C340 1.448 . S
C346 C345 1.328 . S
C346 H361 0.930 . S
Tb347 N338 2.617 . S
Tb347 N348 2.572 . S
Tb347 O382 2.349 . S
Tb347 O385 2.393 . S
Tb347 O386 2.465 . S
Tb347 O387 2.387 . S
Tb347 O389 2.428 . S
Tb347 O390 2.308 . S
Tb347 C411 2.802 . S
N348 C344 1.361 . S
N348 Tb347 2.572 . S
N348 C350 1.340 . S
C349 C343 1.416 . S
C349 C351 1.332 1_455 S
C349 H357 0.931 . S
C350 N348 1.340 . S
C350 C351 1.407 . S
C350 H356 0.930 . S
C351 C349 1.332 1_655 S
C351 C350 1.407 . S
C351 H353 0.929 . S
H352 C341 0.930 . S
H353 C351 0.929 . S
H354 C369 0.930 . S
H355 C376 0.929 . S
H356 C350 0.930 . S
H357 C349 0.931 . S
H358 C372 0.930 . S
H359 C339 0.930 . S
H360 C345 0.929 . S
H361 C346 0.930 . S
H362 C367 0.930 1_554 S
H363 C342 0.930 1_455 S
H364 C375 0.931 . S
N365 Tb336 2.617 . S
N365 C366 1.379 . S
N365 C369 1.334 . S
C366 N365 1.379 . S
C366 C368 1.416 . S
C366 C374 1.424 . S
C367 H362 0.930 1_556 S
C367 C369 1.390 . S
C367 C370 1.339 . S
C368 C366 1.416 . S
C368 C370 1.416 . S
C368 C401 1.451 . S
C369 H354 0.930 . S
C369 N365 1.334 . S
C369 C367 1.390 . S
C370 C367 1.339 . S
C370 C368 1.416 . S
C370 H377 0.930 . S
N371 Tb336 2.572 . S
N371 C372 1.340 1_565 S
N371 C374 1.361 . S
C372 H358 0.930 . S
C372 N371 1.340 1_545 S
C372 C376 1.407 . S
C373 C374 1.413 1_545 S
C373 C375 1.416 . S
C373 C402 1.427 . S
C374 C366 1.424 . S
C374 N371 1.361 . S
C374 C373 1.413 1_565 S
C375 H364 0.931 . S
C375 C373 1.416 . S
C375 C376 1.332 . S
C376 H355 0.929 . S
C376 C372 1.407 . S
C376 C375 1.332 . S
H377 C370 0.930 . S
H378 C401 0.930 . S
H379 C402 0.929 . S
O380 Tb336 2.465 1_545 S
O380 C400 1.264 . S
O381 Tb336 2.387 . S
O381 C392 1.264 . S
O382 Tb347 2.349 . S
O382 C392 1.243 . S
O383 Tb336 2.428 1_545 S
O383 C400 1.256 . S
O384 Tb336 2.308 . S
O384 C399 1.266 . S
O385 Tb347 2.393 . S
O385 C399 1.248 . S
O386 Tb347 2.465 . S
O386 C411 1.264 . S
O387 Tb347 2.387 . S
O387 C403 1.264 . S
O388 Tb336 2.349 . S
O388 C403 1.243 . S
O389 Tb347 2.428 . S
O389 C411 1.256 . S
O390 Tb347 2.308 . S
O390 C410 1.266 . S
O391 Tb336 2.393 . S
O391 C410 1.248 . S
C392 O381 1.264 . S
C392 O382 1.243 . S
C393 C396 1.399 . S
C393 C398 1.383 . S
C393 C400 1.496 . S
C394 C395 1.399 . S
C394 C398 1.389 . S
C395 C394 1.399 . S
C395 C397 1.380 . S
C395 H412 0.929 . S
C396 C393 1.399 . S
C396 C397 1.392 . S
C396 H413 0.929 . S
C397 C395 1.380 . S
C397 C396 1.392 . S
C397 H414 0.929 . S
C398 C393 1.383 . S
C398 C394 1.389 . S
C398 H415 0.931 . S
C399 O384 1.266 . S
C399 O385 1.248 . S
C400 Tb336 2.802 1_545 S
C400 O380 1.264 . S
C400 O383 1.256 . S
C400 C393 1.496 . S
C401 C368 1.451 . S
C401 H378 0.930 . S
C401 C402 1.326 1_565 S
C402 C373 1.427 . S
C402 H379 0.929 . S
C402 C401 1.326 1_545 S
C403 O387 1.264 . S
C403 O388 1.243 . S
C404 C407 1.399 . S
C404 C408 1.383 . S
C404 C411 1.496 . S
C405 C406 1.399 . S
C405 C408 1.389 . S
C406 C405 1.399 . S
C406 C409 1.380 . S
C406 H416 0.929 . S
C407 C404 1.399 . S
C407 C409 1.392 . S
C407 H417 0.929 . S
C408 C404 1.383 . S
C408 C405 1.389 . S
C408 H418 0.931 . S
C409 C406 1.380 . S
C409 C407 1.392 . S
C409 H419 0.929 . S
C410 O390 1.266 . S
C410 O391 1.248 . S
C411 Tb347 2.802 . S
C411 O386 1.264 . S
C411 O389 1.256 . S
C411 C404 1.496 . S
H412 C395 0.929 . S
H413 C396 0.929 . S
H414 C397 0.929 . S
H415 C398 0.931 . S
H416 C406 0.929 . S
H417 C407 0.929 . S
H418 C408 0.931 . S
H419 C409 0.929 . S
Tb420 N449 2.617 . S
Tb420 N455 2.572 . S
Tb420 O464 2.465 1_545 S
Tb420 O465 2.387 . S
Tb420 O467 2.428 1_545 S
Tb420 O468 2.308 . S
Tb420 O472 2.349 . S
Tb420 O475 2.393 . S
Tb420 C484 2.802 1_545 S
C421 N422 1.379 . S
C421 C424 1.416 1_455 S
C421 C428 1.424 . S
N422 C421 1.379 . S
N422 C425 1.334 . S
N422 Tb431 2.617 . S
C423 C425 1.390 . S
C423 C426 1.339 . S
C423 H443 0.930 . S
C424 C421 1.416 1_655 S
C424 C426 1.416 1_655 S
C424 C430 1.448 . S
C425 N422 1.334 . S
C425 C423 1.390 . S
C425 H436 0.930 . S
C426 C423 1.339 . S
C426 C424 1.416 1_455 S
C426 H447 0.930 1_455 S
C427 C428 1.413 1_655 S
C427 C429 1.427 . S
C427 C433 1.416 . S
C428 C421 1.424 . S
C428 C427 1.413 1_455 S
C428 N432 1.361 . S
C429 C427 1.427 . S
C429 C430 1.328 . S
C429 H444 0.929 . S
C430 C424 1.448 . S
C430 C429 1.328 . S
C430 H445 0.930 . S
Tb431 N422 2.617 . S
Tb431 N432 2.572 . S
Tb431 O466 2.349 . S
Tb431 O469 2.393 . S
Tb431 O470 2.465 . S
Tb431 O471 2.387 . S
Tb431 O473 2.428 . S
Tb431 O474 2.308 . S
Tb431 C495 2.802 . S
N432 C428 1.361 . S
N432 Tb431 2.572 . S
N432 C434 1.340 . S
C433 C427 1.416 . S
C433 C435 1.332 1_655 S
C433 H441 0.931 . S
C434 N432 1.340 . S
C434 C435 1.407 . S
C434 H440 0.930 . S
C435 C433 1.332 1_455 S
C435 C434 1.407 . S
C435 H437 0.929 . S
H436 C425 0.930 . S
H437 C435 0.929 . S
H438 C453 0.930 . S
H439 C460 0.929 . S
H440 C434 0.930 . S
H441 C433 0.931 . S
H442 C456 0.930 . S
H443 C423 0.930 . S
H444 C429 0.929 . S
H445 C430 0.930 . S
H446 C451 0.930 1_554 S
H447 C426 0.930 1_655 S
H448 C459 0.931 . S
N449 Tb420 2.617 . S
N449 C450 1.379 . S
N449 C453 1.334 . S
C450 N449 1.379 . S
C450 C452 1.416 . S
C450 C458 1.424 . S
C451 H446 0.930 1_556 S
C451 C453 1.390 . S
C451 C454 1.339 . S
C452 C450 1.416 . S
C452 C454 1.416 . S
C452 C485 1.451 . S
C453 H438 0.930 . S
C453 N449 1.334 . S
C453 C451 1.390 . S
C454 C451 1.339 . S
C454 C452 1.416 . S
C454 H461 0.930 . S
N455 Tb420 2.572 . S
N455 C456 1.340 1_545 S
N455 C458 1.361 . S
C456 H442 0.930 . S
C456 N455 1.340 1_565 S
C456 C460 1.407 . S
C457 C458 1.413 1_565 S
C457 C459 1.416 . S
C457 C486 1.427 . S
C458 C450 1.424 . S
C458 N455 1.361 . S
C458 C457 1.413 1_545 S
C459 H448 0.931 . S
C459 C457 1.416 . S
C459 C460 1.332 . S
C460 H439 0.929 . S
C460 C456 1.407 . S
C460 C459 1.332 . S
H461 C454 0.930 . S
H462 C485 0.930 . S
H463 C486 0.929 . S
O464 Tb420 2.465 1_565 S
O464 C484 1.264 . S
O465 Tb420 2.387 . S
O465 C476 1.264 . S
O466 Tb431 2.349 . S
O466 C476 1.243 . S
O467 Tb420 2.428 1_565 S
O467 C484 1.256 . S
O468 Tb420 2.308 . S
O468 C483 1.266 . S
O469 Tb431 2.393 . S
O469 C483 1.248 . S
O470 Tb431 2.465 . S
O470 C495 1.264 . S
O471 Tb431 2.387 . S
O471 C487 1.264 . S
O472 Tb420 2.349 . S
O472 C487 1.243 . S
O473 Tb431 2.428 . S
O473 C495 1.256 . S
O474 Tb431 2.308 . S
O474 C494 1.266 . S
O475 Tb420 2.393 . S
O475 C494 1.248 . S
C476 O465 1.264 . S
C476 O466 1.243 . S
C477 C480 1.399 . S
C477 C482 1.383 . S
C477 C484 1.496 . S
C478 C479 1.399 . S
C478 C482 1.389 . S
C479 C478 1.399 . S
C479 C481 1.380 . S
C479 H496 0.929 . S
C480 C477 1.399 . S
C480 C481 1.392 . S
C480 H497 0.929 . S
C481 C479 1.380 . S
C481 C480 1.392 . S
C481 H498 0.929 . S
C482 C477 1.383 . S
C482 C478 1.389 . S
C482 H499 0.931 . S
C483 O468 1.266 . S
C483 O469 1.248 . S
C484 Tb420 2.802 1_565 S
C484 O464 1.264 . S
C484 O467 1.256 . S
C484 C477 1.496 . S
C485 C452 1.451 . S
C485 H462 0.930 . S
C485 C486 1.326 1_545 S
C486 C457 1.427 . S
C486 H463 0.929 . S
C486 C485 1.326 1_565 S
C487 O471 1.264 . S
C487 O472 1.243 . S
C488 C491 1.399 . S
C488 C492 1.383 . S
C488 C495 1.496 . S
C489 C490 1.399 . S
C489 C492 1.389 . S
C490 C489 1.399 . S
C490 C493 1.380 . S
C490 H500 0.929 . S
C491 C488 1.399 . S
C491 C493 1.392 . S
C491 H501 0.929 . S
C492 C488 1.383 . S
C492 C489 1.389 . S
C492 H502 0.931 . S
C493 C490 1.380 . S
C493 C491 1.392 . S
C493 H503 0.929 . S
C494 O474 1.266 . S
C494 O475 1.248 . S
C495 Tb431 2.802 . S
C495 O470 1.264 . S
C495 O473 1.256 . S
C495 C488 1.496 . S
H496 C479 0.929 . S
H497 C480 0.929 . S
H498 C481 0.929 . S
H499 C482 0.931 . S
H500 C490 0.929 . S
H501 C491 0.929 . S
H502 C492 0.931 . S
H503 C493 0.929 . S
Tb504 N533 2.617 . S
Tb504 N539 2.572 . S
Tb504 O548 2.465 1_545 S
Tb504 O549 2.387 . S
Tb504 O551 2.428 1_545 S
Tb504 O552 2.308 . S
Tb504 O556 2.349 . S
Tb504 O559 2.393 . S
Tb504 C568 2.802 1_545 S
C505 N506 1.379 . S
C505 C508 1.416 1_655 S
C505 C512 1.424 . S
N506 C505 1.379 . S
N506 C509 1.334 . S
N506 Tb515 2.617 . S
C507 C509 1.390 . S
C507 C510 1.339 . S
C507 H527 0.930 . S
C508 C505 1.416 1_455 S
C508 C510 1.416 1_455 S
C508 C514 1.448 . S
C509 N506 1.334 . S
C509 C507 1.390 . S
C509 H520 0.930 . S
C510 C507 1.339 . S
C510 C508 1.416 1_655 S
C510 H531 0.930 1_655 S
C511 C512 1.413 1_455 S
C511 C513 1.427 . S
C511 C517 1.416 . S
C512 C505 1.424 . S
C512 C511 1.413 1_655 S
C512 N516 1.361 . S
C513 C511 1.427 . S
C513 C514 1.328 . S
C513 H528 0.929 . S
C514 C508 1.448 . S
C514 C513 1.328 . S
C514 H529 0.930 . S
Tb515 N506 2.617 . S
Tb515 N516 2.572 . S
Tb515 O550 2.349 . S
Tb515 O553 2.393 . S
Tb515 O554 2.465 . S
Tb515 O555 2.387 . S
Tb515 O557 2.428 . S
Tb515 O558 2.308 . S
Tb515 C579 2.802 . S
N516 C512 1.361 . S
N516 Tb515 2.572 . S
N516 C518 1.340 . S
C517 C511 1.416 . S
C517 C519 1.332 1_455 S
C517 H525 0.931 . S
C518 N516 1.340 . S
C518 C519 1.407 . S
C518 H524 0.930 . S
C519 C517 1.332 1_655 S
C519 C518 1.407 . S
C519 H521 0.929 . S
H520 C509 0.930 . S
H521 C519 0.929 . S
H522 C537 0.930 . S
H523 C544 0.929 . S
H524 C518 0.930 . S
H525 C517 0.931 . S
H526 C540 0.930 . S
H527 C507 0.930 . S
H528 C513 0.929 . S
H529 C514 0.930 . S
H530 C535 0.930 . S
H531 C510 0.930 1_455 S
H532 C543 0.931 . S
N533 Tb504 2.617 . S
N533 C534 1.379 . S
N533 C537 1.334 . S
C534 N533 1.379 . S
C534 C536 1.416 . S
C534 C542 1.424 . S
C535 H530 0.930 . S
C535 C537 1.390 . S
C535 C538 1.339 . S
C536 C534 1.416 . S
C536 C538 1.416 . S
C536 C569 1.451 . S
C537 H522 0.930 . S
C537 N533 1.334 . S
C537 C535 1.390 . S
C538 C535 1.339 . S
C538 C536 1.416 . S
C538 H545 0.930 . S
N539 Tb504 2.572 . S
N539 C540 1.340 1_545 S
N539 C542 1.361 . S
C540 H526 0.930 . S
C540 N539 1.340 1_565 S
C540 C544 1.407 . S
C541 C542 1.413 1_565 S
C541 C543 1.416 . S
C541 C570 1.427 . S
C542 C534 1.424 . S
C542 N539 1.361 . S
C542 C541 1.413 1_545 S
C543 H532 0.931 . S
C543 C541 1.416 . S
C543 C544 1.332 . S
C544 H523 0.929 . S
C544 C540 1.407 . S
C544 C543 1.332 . S
H545 C538 0.930 . S
H546 C569 0.930 . S
H547 C570 0.929 . S
O548 Tb504 2.465 1_565 S
O548 C568 1.264 . S
O549 Tb504 2.387 . S
O549 C560 1.264 . S
O550 Tb515 2.349 . S
O550 C560 1.243 . S
O551 Tb504 2.428 1_565 S
O551 C568 1.256 . S
O552 Tb504 2.308 . S
O552 C567 1.266 . S
O553 Tb515 2.393 . S
O553 C567 1.248 . S
O554 Tb515 2.465 . S
O554 C579 1.264 . S
O555 Tb515 2.387 . S
O555 C571 1.264 . S
O556 Tb504 2.349 . S
O556 C571 1.243 . S
O557 Tb515 2.428 . S
O557 C579 1.256 . S
O558 Tb515 2.308 . S
O558 C578 1.266 . S
O559 Tb504 2.393 . S
O559 C578 1.248 . S
C560 O549 1.264 . S
C560 O550 1.243 . S
C561 C564 1.399 . S
C561 C566 1.383 . S
C561 C568 1.496 . S
C562 C563 1.399 . S
C562 C566 1.389 . S
C563 C562 1.399 . S
C563 C565 1.380 . S
C563 H580 0.929 . S
C564 C561 1.399 . S
C564 C565 1.392 . S
C564 H581 0.929 . S
C565 C563 1.380 . S
C565 C564 1.392 . S
C565 H582 0.929 . S
C566 C561 1.383 . S
C566 C562 1.389 . S
C566 H583 0.931 . S
C567 O552 1.266 . S
C567 O553 1.248 . S
C568 Tb504 2.802 1_565 S
C568 O548 1.264 . S
C568 O551 1.256 . S
C568 C561 1.496 . S
C569 C536 1.451 . S
C569 H546 0.930 . S
C569 C570 1.326 1_545 S
C570 C541 1.427 . S
C570 H547 0.929 . S
C570 C569 1.326 1_565 S
C571 O555 1.264 . S
C571 O556 1.243 . S
C572 C575 1.399 . S
C572 C576 1.383 . S
C572 C579 1.496 . S
C573 C574 1.399 . S
C573 C576 1.389 . S
C574 C573 1.399 . S
C574 C577 1.380 . S
C574 H584 0.929 . S
C575 C572 1.399 . S
C575 C577 1.392 . S
C575 H585 0.929 . S
C576 C572 1.383 . S
C576 C573 1.389 . S
C576 H586 0.931 . S
C577 C574 1.380 . S
C577 C575 1.392 . S
C577 H587 0.929 . S
C578 O558 1.266 . S
C578 O559 1.248 . S
C579 Tb515 2.802 . S
C579 O554 1.264 . S
C579 O557 1.256 . S
C579 C572 1.496 . S
H580 C563 0.929 . S
H581 C564 0.929 . S
H582 C565 0.929 . S
H583 C566 0.931 . S
H584 C574 0.929 . S
H585 C575 0.929 . S
H586 C576 0.931 . S
H587 C577 0.929 . S
Tb588 N617 2.617 . S
Tb588 N623 2.572 . S
Tb588 O632 2.465 1_565 S
Tb588 O633 2.387 . S
Tb588 O635 2.428 1_565 S
Tb588 O636 2.308 . S
Tb588 O640 2.349 . S
Tb588 O643 2.393 . S
Tb588 C652 2.802 1_565 S
C589 N590 1.379 . S
C589 C592 1.416 1_455 S
C589 C596 1.424 . S
N590 C589 1.379 . S
N590 C593 1.334 . S
N590 Tb599 2.617 . S
C591 C593 1.390 . S
C591 C594 1.339 . S
C591 H611 0.930 . S
C592 C589 1.416 1_655 S
C592 C594 1.416 1_655 S
C592 C598 1.448 . S
C593 N590 1.334 . S
C593 C591 1.390 . S
C593 H604 0.930 . S
C594 C591 1.339 . S
C594 C592 1.416 1_455 S
C594 H615 0.930 1_455 S
C595 C596 1.413 1_655 S
C595 C597 1.427 . S
C595 C601 1.416 . S
C596 C589 1.424 . S
C596 C595 1.413 1_455 S
C596 N600 1.361 . S
C597 C595 1.427 . S
C597 C598 1.328 . S
C597 H612 0.929 . S
C598 C592 1.448 . S
C598 C597 1.328 . S
C598 H613 0.930 . S
Tb599 N590 2.617 . S
Tb599 N600 2.572 . S
Tb599 O634 2.349 . S
Tb599 O637 2.393 . S
Tb599 O638 2.465 . S
Tb599 O639 2.387 . S
Tb599 O641 2.428 . S
Tb599 O642 2.308 . S
Tb599 C663 2.802 . S
N600 C596 1.361 . S
N600 Tb599 2.572 . S
N600 C602 1.340 . S
C601 C595 1.416 . S
C601 C603 1.332 1_655 S
C601 H609 0.931 . S
C602 N600 1.340 . S
C602 C603 1.407 . S
C602 H608 0.930 . S
C603 C601 1.332 1_455 S
C603 C602 1.407 . S
C603 H605 0.929 . S
H604 C593 0.930 . S
H605 C603 0.929 . S
H606 C621 0.930 . S
H607 C628 0.929 . S
H608 C602 0.930 . S
H609 C601 0.931 . S
H610 C624 0.930 . S
H611 C591 0.930 . S
H612 C597 0.929 . S
H613 C598 0.930 . S
H614 C619 0.930 . S
H615 C594 0.930 1_655 S
H616 C627 0.931 . S
N617 Tb588 2.617 . S
N617 C618 1.379 . S
N617 C621 1.334 . S
C618 N617 1.379 . S
C618 C620 1.416 . S
C618 C626 1.424 . S
C619 H614 0.930 . S
C619 C621 1.390 . S
C619 C622 1.339 . S
C620 C618 1.416 . S
C620 C622 1.416 . S
C620 C653 1.451 . S
C621 H606 0.930 . S
C621 N617 1.334 . S
C621 C619 1.390 . S
C622 C619 1.339 . S
C622 C620 1.416 . S
C622 H629 0.930 . S
N623 Tb588 2.572 . S
N623 C624 1.340 1_565 S
N623 C626 1.361 . S
C624 H610 0.930 . S
C624 N623 1.340 1_545 S
C624 C628 1.407 . S
C625 C626 1.413 1_545 S
C625 C627 1.416 . S
C625 C654 1.427 . S
C626 C618 1.424 . S
C626 N623 1.361 . S
C626 C625 1.413 1_565 S
C627 H616 0.931 . S
C627 C625 1.416 . S
C627 C628 1.332 . S
C628 H607 0.929 . S
C628 C624 1.407 . S
C628 C627 1.332 . S
H629 C622 0.930 . S
H630 C653 0.930 . S
H631 C654 0.929 . S
O632 Tb588 2.465 1_545 S
O632 C652 1.264 . S
O633 Tb588 2.387 . S
O633 C644 1.264 . S
O634 Tb599 2.349 . S
O634 C644 1.243 . S
O635 Tb588 2.428 1_545 S
O635 C652 1.256 . S
O636 Tb588 2.308 . S
O636 C651 1.266 . S
O637 Tb599 2.393 . S
O637 C651 1.248 . S
O638 Tb599 2.465 . S
O638 C663 1.264 . S
O639 Tb599 2.387 . S
O639 C655 1.264 . S
O640 Tb588 2.349 . S
O640 C655 1.243 . S
O641 Tb599 2.428 . S
O641 C663 1.256 . S
O642 Tb599 2.308 . S
O642 C662 1.266 . S
O643 Tb588 2.393 . S
O643 C662 1.248 . S
C644 O633 1.264 . S
C644 O634 1.243 . S
C645 C648 1.399 . S
C645 C650 1.383 . S
C645 C652 1.496 . S
C646 C647 1.399 . S
C646 C650 1.389 . S
C647 C646 1.399 . S
C647 C649 1.380 . S
C647 H664 0.929 . S
C648 C645 1.399 . S
C648 C649 1.392 . S
C648 H665 0.929 . S
C649 C647 1.380 . S
C649 C648 1.392 . S
C649 H666 0.929 . S
C650 C645 1.383 . S
C650 C646 1.389 . S
C650 H667 0.931 . S
C651 O636 1.266 . S
C651 O637 1.248 . S
C652 Tb588 2.802 1_545 S
C652 O632 1.264 . S
C652 O635 1.256 . S
C652 C645 1.496 . S
C653 C620 1.451 . S
C653 H630 0.930 . S
C653 C654 1.326 1_565 S
C654 C625 1.427 . S
C654 H631 0.929 . S
C654 C653 1.326 1_545 S
C655 O639 1.264 . S
C655 O640 1.243 . S
C656 C659 1.399 . S
C656 C660 1.383 . S
C656 C663 1.496 . S
C657 C658 1.399 . S
C657 C660 1.389 . S
C658 C657 1.399 . S
C658 C661 1.380 . S
C658 H668 0.929 . S
C659 C656 1.399 . S
C659 C661 1.392 . S
C659 H669 0.929 . S
C660 C656 1.383 . S
C660 C657 1.389 . S
C660 H670 0.931 . S
C661 C658 1.380 . S
C661 C659 1.392 . S
C661 H671 0.929 . S
C662 O642 1.266 . S
C662 O643 1.248 . S
C663 Tb599 2.802 . S
C663 O638 1.264 . S
C663 O641 1.256 . S
C663 C656 1.496 . S
H664 C647 0.929 . S
H665 C648 0.929 . S
H666 C649 0.929 . S
H667 C650 0.931 . S
H668 C658 0.929 . S
H669 C659 0.929 . S
H670 C660 0.931 . S
H671 C661 0.929 . S
Tb672 N701 2.617 . S
Tb672 N707 2.572 . S
Tb672 O716 2.465 . S
Tb672 O717 2.387 . S
Tb672 O719 2.428 . S
Tb672 O720 2.308 . S
Tb672 O724 2.349 . S
Tb672 O727 2.393 . S
Tb672 C736 2.802 . S
C673 N674 1.379 . S
C673 C676 1.416 . S
C673 C680 1.424 . S
N674 C673 1.379 . S
N674 C677 1.334 . S
N674 Tb683 2.617 . S
C675 C677 1.390 . S
C675 C678 1.339 . S
C675 H695 0.930 1_554 S
C676 C673 1.416 . S
C676 C678 1.416 . S
C676 C682 1.448 . S
C677 N674 1.334 . S
C677 C675 1.390 . S
C677 H688 0.930 . S
C678 C675 1.339 . S
C678 C676 1.416 . S
C678 H699 0.930 . S
C679 C680 1.413 . S
C679 C681 1.427 . S
C679 C685 1.416 . S
C680 C673 1.424 . S
C680 C679 1.413 . S
C680 N684 1.361 . S
C681 C679 1.427 . S
C681 C682 1.328 . S
C681 H696 0.929 . S
C682 C676 1.448 . S
C682 C681 1.328 . S
C682 H697 0.930 . S
Tb683 N674 2.617 . S
Tb683 N684 2.572 . S
Tb683 O718 2.349 . S
Tb683 O721 2.393 . S
Tb683 O722 2.465 . S
Tb683 O723 2.387 . S
Tb683 O725 2.428 . S
Tb683 O726 2.308 . S
Tb683 C747 2.802 . S
N684 C680 1.361 . S
N684 Tb683 2.572 . S
N684 C686 1.340 . S
C685 C679 1.416 . S
C685 C687 1.332 . S
C685 H693 0.931 . S
C686 N684 1.340 . S
C686 C687 1.407 . S
C686 H692 0.930 . S
C687 C685 1.332 . S
C687 C686 1.407 . S
C687 H689 0.929 . S
H688 C677 0.930 . S
H689 C687 0.929 . S
H690 C705 0.930 . S
H691 C712 0.929 . S
H692 C686 0.930 . S
H693 C685 0.931 . S
H694 C708 0.930 . S
H695 C675 0.930 1_556 S
H696 C681 0.929 . S
H697 C682 0.930 . S
H698 C703 0.930 . S
H699 C678 0.930 . S
H700 C711 0.931 . S
N701 Tb672 2.617 . S
N701 C702 1.379 . S
N701 C705 1.334 . S
C702 N701 1.379 . S
C702 C704 1.416 . S
C702 C710 1.424 . S
C703 H698 0.930 . S
C703 C705 1.390 . S
C703 C706 1.339 . S
C704 C702 1.416 . S
C704 C706 1.416 . S
C704 C737 1.448 . S
C705 H690 0.930 . S
C705 N701 1.334 . S
C705 C703 1.390 . S
C706 C703 1.339 . S
C706 C704 1.416 . S
C706 H713 0.930 . S
N707 Tb672 2.572 . S
N707 C708 1.340 . S
N707 C710 1.361 . S
C708 H694 0.930 . S
C708 N707 1.340 . S
C708 C712 1.407 . S
C709 C710 1.413 . S
C709 C711 1.416 . S
C709 C738 1.427 . S
C710 C702 1.424 . S
C710 N707 1.361 . S
C710 C709 1.413 . S
C711 H700 0.931 . S
C711 C709 1.416 . S
C711 C712 1.332 . S
C712 H691 0.929 . S
C712 C708 1.407 . S
C712 C711 1.332 . S
H713 C706 0.930 . S
H714 C737 0.930 . S
H715 C738 0.929 . S
O716 Tb672 2.465 . S
O716 C736 1.264 . S
O717 Tb672 2.387 . S
O717 C728 1.264 . S
O718 Tb683 2.349 . S
O718 C728 1.243 . S
O719 Tb672 2.428 . S
O719 C736 1.256 . S
O720 Tb672 2.308 . S
O720 C735 1.266 . S
O721 Tb683 2.393 . S
O721 C735 1.248 . S
O722 Tb683 2.465 . S
O722 C747 1.264 . S
O723 Tb683 2.387 . S
O723 C739 1.264 . S
O724 Tb672 2.349 . S
O724 C739 1.243 . S
O725 Tb683 2.428 . S
O725 C747 1.256 . S
O726 Tb683 2.308 . S
O726 C746 1.266 . S
O727 Tb672 2.393 . S
O727 C746 1.248 . S
C728 O717 1.264 . S
C728 O718 1.243 . S
C729 C732 1.399 . S
C729 C734 1.383 . S
C729 C736 1.496 . S
C730 C731 1.399 1_565 S
C730 C734 1.389 . S
C731 C730 1.399 1_545 S
C731 C733 1.380 1_545 S
C731 H748 0.929 . S
C732 C729 1.399 . S
C732 C733 1.392 . S
C732 H749 0.929 . S
C733 C731 1.380 1_565 S
C733 C732 1.392 . S
C733 H750 0.929 1_565 S
C734 C729 1.383 . S
C734 C730 1.389 . S
C734 H751 0.931 . S
C735 O720 1.266 . S
C735 O721 1.248 . S
C736 Tb672 2.802 . S
C736 O716 1.264 . S
C736 O719 1.256 . S
C736 C729 1.496 . S
C737 C704 1.448 . S
C737 H714 0.930 . S
C737 C738 1.328 . S
C738 C709 1.427 . S
C738 H715 0.929 . S
C738 C737 1.328 . S
C739 O723 1.264 . S
C739 O724 1.243 . S
C740 C743 1.399 . S
C740 C744 1.383 . S
C740 C747 1.496 . S
C741 C742 1.399 . S
C741 C744 1.389 . S
C742 C741 1.399 . S
C742 C745 1.380 . S
C742 H752 0.929 . S
C743 C740 1.399 . S
C743 C745 1.392 . S
C743 H753 0.929 . S
C744 C740 1.383 . S
C744 C741 1.389 . S
C744 H754 0.931 . S
C745 C742 1.380 . S
C745 C743 1.392 . S
C745 H755 0.929 . S
C746 O726 1.266 . S
C746 O727 1.248 . S
C747 Tb683 2.802 . S
C747 O722 1.264 . S
C747 O725 1.256 . S
C747 C740 1.496 . S
H748 C731 0.929 . S
H749 C732 0.929 . S
H750 C733 0.929 1_545 S
H751 C734 0.931 . S
H752 C742 0.929 . S
H753 C743 0.929 . S
H754 C744 0.931 . S
H755 C745 0.929 . S
Tb756 N785 2.617 . S
Tb756 N791 2.572 . S
Tb756 O800 2.465 . S
Tb756 O801 2.387 . S
Tb756 O803 2.428 . S
Tb756 O804 2.308 . S
Tb756 O808 2.349 . S
Tb756 O811 2.393 . S
Tb756 C820 2.802 . S
C757 N758 1.379 . S
C757 C760 1.416 . S
C757 C764 1.424 . S
N758 C757 1.379 . S
N758 C761 1.334 . S
N758 Tb767 2.617 . S
C759 C761 1.390 . S
C759 C762 1.339 . S
C759 H779 0.930 1_554 S
C760 C757 1.416 . S
C760 C762 1.416 . S
C760 C766 1.448 . S
C761 N758 1.334 . S
C761 C759 1.390 . S
C761 H772 0.930 . S
C762 C759 1.339 . S
C762 C760 1.416 . S
C762 H783 0.930 . S
C763 C764 1.413 . S
C763 C765 1.427 . S
C763 C769 1.416 . S
C764 C757 1.424 . S
C764 C763 1.413 . S
C764 N768 1.361 . S
C765 C763 1.427 . S
C765 C766 1.328 . S
C765 H780 0.929 . S
C766 C760 1.448 . S
C766 C765 1.328 . S
C766 H781 0.930 . S
Tb767 N758 2.617 . S
Tb767 N768 2.572 . S
Tb767 O802 2.349 . S
Tb767 O805 2.393 . S
Tb767 O806 2.465 . S
Tb767 O807 2.387 . S
Tb767 O809 2.428 . S
Tb767 O810 2.308 . S
Tb767 C831 2.802 . S
N768 C764 1.361 . S
N768 Tb767 2.572 . S
N768 C770 1.340 . S
C769 C763 1.416 . S
C769 C771 1.332 . S
C769 H777 0.931 . S
C770 N768 1.340 . S
C770 C771 1.407 . S
C770 H776 0.930 . S
C771 C769 1.332 . S
C771 C770 1.407 . S
C771 H773 0.929 . S
H772 C761 0.930 . S
H773 C771 0.929 . S
H774 C789 0.930 . S
H775 C796 0.929 . S
H776 C770 0.930 . S
H777 C769 0.931 . S
H778 C792 0.930 . S
H779 C759 0.930 1_556 S
H780 C765 0.929 . S
H781 C766 0.930 . S
H782 C787 0.930 . S
H783 C762 0.930 . S
H784 C795 0.931 . S
N785 Tb756 2.617 . S
N785 C786 1.379 . S
N785 C789 1.334 . S
C786 N785 1.379 . S
C786 C788 1.416 . S
C786 C794 1.424 . S
C787 H782 0.930 . S
C787 C789 1.390 . S
C787 C790 1.339 . S
C788 C786 1.416 . S
C788 C790 1.416 . S
C788 C821 1.448 . S
C789 H774 0.930 . S
C789 N785 1.334 . S
C789 C787 1.390 . S
C790 C787 1.339 . S
C790 C788 1.416 . S
C790 H797 0.930 . S
N791 Tb756 2.572 . S
N791 C792 1.340 . S
N791 C794 1.361 . S
C792 H778 0.930 . S
C792 N791 1.340 . S
C792 C796 1.407 . S
C793 C794 1.413 . S
C793 C795 1.416 . S
C793 C822 1.427 . S
C794 C786 1.424 . S
C794 N791 1.361 . S
C794 C793 1.413 . S
C795 H784 0.931 . S
C795 C793 1.416 . S
C795 C796 1.332 . S
C796 H775 0.929 . S
C796 C792 1.407 . S
C796 C795 1.332 . S
H797 C790 0.930 . S
H798 C821 0.930 . S
H799 C822 0.929 . S
O800 Tb756 2.465 . S
O800 C820 1.264 . S
O801 Tb756 2.387 . S
O801 C812 1.264 . S
O802 Tb767 2.349 . S
O802 C812 1.243 . S
O803 Tb756 2.428 . S
O803 C820 1.256 . S
O804 Tb756 2.308 . S
O804 C819 1.266 . S
O805 Tb767 2.393 . S
O805 C819 1.248 . S
O806 Tb767 2.465 . S
O806 C831 1.264 . S
O807 Tb767 2.387 . S
O807 C823 1.264 . S
O808 Tb756 2.349 . S
O808 C823 1.243 . S
O809 Tb767 2.428 . S
O809 C831 1.256 . S
O810 Tb767 2.308 . S
O810 C830 1.266 . S
O811 Tb756 2.393 . S
O811 C830 1.248 . S
C812 O801 1.264 . S
C812 O802 1.243 . S
C813 C816 1.399 . S
C813 C818 1.383 . S
C813 C820 1.496 . S
C814 C815 1.399 1_545 S
C814 C818 1.389 . S
C815 C814 1.399 1_565 S
C815 C817 1.380 1_565 S
C815 H832 0.929 . S
C816 C813 1.399 . S
C816 C817 1.392 . S
C816 H833 0.929 . S
C817 C815 1.380 1_545 S
C817 C816 1.392 . S
C817 H834 0.929 1_545 S
C818 C813 1.383 . S
C818 C814 1.389 . S
C818 H835 0.931 . S
C819 O804 1.266 . S
C819 O805 1.248 . S
C820 Tb756 2.802 . S
C820 O800 1.264 . S
C820 O803 1.256 . S
C820 C813 1.496 . S
C821 C788 1.448 . S
C821 H798 0.930 . S
C821 C822 1.328 . S
C822 C793 1.427 . S
C822 H799 0.929 . S
C822 C821 1.328 . S
C823 O807 1.264 . S
C823 O808 1.243 . S
C824 C827 1.399 . S
C824 C828 1.383 . S
C824 C831 1.496 . S
C825 C826 1.399 . S
C825 C828 1.389 . S
C826 C825 1.399 . S
C826 C829 1.380 . S
C826 H836 0.929 . S
C827 C824 1.399 . S
C827 C829 1.392 . S
C827 H837 0.929 . S
C828 C824 1.383 . S
C828 C825 1.389 . S
C828 H838 0.931 . S
C829 C826 1.380 . S
C829 C827 1.392 . S
C829 H839 0.929 . S
C830 O810 1.266 . S
C830 O811 1.248 . S
C831 Tb767 2.802 . S
C831 O806 1.264 . S
C831 O809 1.256 . S
C831 C824 1.496 . S
H832 C815 0.929 . S
H833 C816 0.929 . S
H834 C817 0.929 1_565 S
H835 C818 0.931 . S
H836 C826 0.929 . S
H837 C827 0.929 . S
H838 C828 0.931 . S
H839 C829 0.929 . S
Tb840 N869 2.617 . S
Tb840 N875 2.572 . S
Tb840 O884 2.465 . S
Tb840 O885 2.387 . S
Tb840 O887 2.428 . S
Tb840 O888 2.308 . S
Tb840 O892 2.349 . S
Tb840 O895 2.393 . S
Tb840 C904 2.802 . S
C841 N842 1.379 . S
C841 C844 1.416 . S
C841 C848 1.424 . S
N842 C841 1.379 . S
N842 C845 1.334 . S
N842 Tb851 2.617 . S
C843 C845 1.390 . S
C843 C846 1.339 . S
C843 H863 0.930 . S
C844 C841 1.416 . S
C844 C846 1.416 . S
C844 C850 1.448 . S
C845 N842 1.334 . S
C845 C843 1.390 . S
C845 H856 0.930 . S
C846 C843 1.339 . S
C846 C844 1.416 . S
C846 H867 0.930 . S
C847 C848 1.413 . S
C847 C849 1.427 . S
C847 C853 1.416 . S
C848 C841 1.424 . S
C848 C847 1.413 . S
C848 N852 1.361 . S
C849 C847 1.427 . S
C849 C850 1.328 . S
C849 H864 0.929 . S
C850 C844 1.448 . S
C850 C849 1.328 . S
C850 H865 0.930 . S
Tb851 N842 2.617 . S
Tb851 N852 2.572 . S
Tb851 O886 2.349 . S
Tb851 O889 2.393 . S
Tb851 O890 2.465 . S
Tb851 O891 2.387 . S
Tb851 O893 2.428 . S
Tb851 O894 2.308 . S
Tb851 C915 2.802 . S
N852 C848 1.361 . S
N852 Tb851 2.572 . S
N852 C854 1.340 . S
C853 C847 1.416 . S
C853 C855 1.332 . S
C853 H861 0.931 . S
C854 N852 1.340 . S
C854 C855 1.407 . S
C854 H860 0.930 . S
C855 C853 1.332 . S
C855 C854 1.407 . S
C855 H857 0.929 . S
H856 C845 0.930 . S
H857 C855 0.929 . S
H858 C873 0.930 . S
H859 C880 0.929 . S
H860 C854 0.930 . S
H861 C853 0.931 . S
H862 C876 0.930 . S
H863 C843 0.930 . S
H864 C849 0.929 . S
H865 C850 0.930 . S
H866 C871 0.930 . S
H867 C846 0.930 . S
H868 C879 0.931 . S
N869 Tb840 2.617 . S
N869 C870 1.379 . S
N869 C873 1.334 . S
C870 N869 1.379 . S
C870 C872 1.416 . S
C870 C878 1.424 . S
C871 H866 0.930 . S
C871 C873 1.390 . S
C871 C874 1.339 . S
C872 C870 1.416 . S
C872 C874 1.416 . S
C872 C905 1.448 . S
C873 H858 0.930 . S
C873 N869 1.334 . S
C873 C871 1.390 . S
C874 C871 1.339 . S
C874 C872 1.416 . S
C874 H881 0.930 . S
N875 Tb840 2.572 . S
N875 C876 1.340 . S
N875 C878 1.361 . S
C876 H862 0.930 . S
C876 N875 1.340 . S
C876 C880 1.407 . S
C877 C878 1.413 . S
C877 C879 1.416 . S
C877 C906 1.427 . S
C878 C870 1.424 . S
C878 N875 1.361 . S
C878 C877 1.413 . S
C879 H868 0.931 . S
C879 C877 1.416 . S
C879 C880 1.332 . S
C880 H859 0.929 . S
C880 C876 1.407 . S
C880 C879 1.332 . S
H881 C874 0.930 . S
H882 C905 0.930 . S
H883 C906 0.929 . S
O884 Tb840 2.465 . S
O884 C904 1.264 . S
O885 Tb840 2.387 . S
O885 C896 1.264 . S
O886 Tb851 2.349 . S
O886 C896 1.243 . S
O887 Tb840 2.428 . S
O887 C904 1.256 . S
O888 Tb840 2.308 . S
O888 C903 1.266 . S
O889 Tb851 2.393 . S
O889 C903 1.248 . S
O890 Tb851 2.465 . S
O890 C915 1.264 . S
O891 Tb851 2.387 . S
O891 C907 1.264 . S
O892 Tb840 2.349 . S
O892 C907 1.243 . S
O893 Tb851 2.428 . S
O893 C915 1.256 . S
O894 Tb851 2.308 . S
O894 C914 1.266 . S
O895 Tb840 2.393 . S
O895 C914 1.248 . S
C896 O885 1.264 . S
C896 O886 1.243 . S
C897 C900 1.399 . S
C897 C902 1.383 . S
C897 C904 1.496 . S
C898 C899 1.399 1_545 S
C898 C902 1.389 . S
C899 C898 1.399 1_565 S
C899 C901 1.380 1_565 S
C899 H916 0.929 . S
C900 C897 1.399 . S
C900 C901 1.392 . S
C900 H917 0.929 . S
C901 C899 1.380 1_545 S
C901 C900 1.392 . S
C901 H918 0.929 1_545 S
C902 C897 1.383 . S
C902 C898 1.389 . S
C902 H919 0.931 . S
C903 O888 1.266 . S
C903 O889 1.248 . S
C904 Tb840 2.802 . S
C904 O884 1.264 . S
C904 O887 1.256 . S
C904 C897 1.496 . S
C905 C872 1.448 . S
C905 H882 0.930 . S
C905 C906 1.328 . S
C906 C877 1.427 . S
C906 H883 0.929 . S
C906 C905 1.328 . S
C907 O891 1.264 . S
C907 O892 1.243 . S
C908 C911 1.399 . S
C908 C912 1.383 . S
C908 C915 1.496 . S
C909 C910 1.399 . S
C909 C912 1.389 . S
C910 C909 1.399 . S
C910 C913 1.380 . S
C910 H920 0.929 . S
C911 C908 1.399 . S
C911 C913 1.392 . S
C911 H921 0.929 . S
C912 C908 1.383 . S
C912 C909 1.389 . S
C912 H922 0.931 . S
C913 C910 1.380 . S
C913 C911 1.392 . S
C913 H923 0.929 . S
C914 O894 1.266 . S
C914 O895 1.248 . S
C915 Tb851 2.802 . S
C915 O890 1.264 . S
C915 O893 1.256 . S
C915 C908 1.496 . S
H916 C899 0.929 . S
H917 C900 0.929 . S
H918 C901 0.929 1_565 S
H919 C902 0.931 . S
H920 C910 0.929 . S
H921 C911 0.929 . S
H922 C912 0.931 . S
H923 C913 0.929 . S
Tb924 N953 2.617 . S
Tb924 N959 2.572 . S
Tb924 O968 2.465 . S
Tb924 O969 2.387 . S
Tb924 O971 2.428 . S
Tb924 O972 2.308 . S
Tb924 O976 2.349 . S
Tb924 O979 2.393 . S
Tb924 C988 2.802 . S
C925 N926 1.379 . S
C925 C928 1.416 . S
C925 C932 1.424 . S
N926 C925 1.379 . S
N926 C929 1.334 . S
N926 Tb935 2.617 . S
C927 C929 1.390 . S
C927 C930 1.339 . S
C927 H947 0.930 . S
C928 C925 1.416 . S
C928 C930 1.416 . S
C928 C934 1.448 . S
C929 N926 1.334 . S
C929 C927 1.390 . S
C929 H940 0.930 . S
C930 C927 1.339 . S
C930 C928 1.416 . S
C930 H951 0.930 . S
C931 C932 1.413 . S
C931 C933 1.427 . S
C931 C937 1.416 . S
C932 C925 1.424 . S
C932 C931 1.413 . S
C932 N936 1.361 . S
C933 C931 1.427 . S
C933 C934 1.328 . S
C933 H948 0.929 . S
C934 C928 1.448 . S
C934 C933 1.328 . S
C934 H949 0.930 . S
Tb935 N926 2.617 . S
Tb935 N936 2.572 . S
Tb935 O970 2.349 . S
Tb935 O973 2.393 . S
Tb935 O974 2.465 . S
Tb935 O975 2.387 . S
Tb935 O977 2.428 . S
Tb935 O978 2.308 . S
Tb935 C999 2.802 . S
N936 C932 1.361 . S
N936 Tb935 2.572 . S
N936 C938 1.340 . S
C937 C931 1.416 . S
C937 C939 1.332 . S
C937 H945 0.931 . S
C938 N936 1.340 . S
C938 C939 1.407 . S
C938 H944 0.930 . S
C939 C937 1.332 . S
C939 C938 1.407 . S
C939 H941 0.929 . S
H940 C929 0.930 . S
H941 C939 0.929 . S
H942 C957 0.930 . S
H943 C964 0.929 . S
H944 C938 0.930 . S
H945 C937 0.931 . S
H946 C960 0.930 . S
H947 C927 0.930 . S
H948 C933 0.929 . S
H949 C934 0.930 . S
H950 C955 0.930 . S
H951 C930 0.930 . S
H952 C963 0.931 . S
N953 Tb924 2.617 . S
N953 C954 1.379 . S
N953 C957 1.334 . S
C954 N953 1.379 . S
C954 C956 1.416 . S
C954 C962 1.424 . S
C955 H950 0.930 . S
C955 C957 1.390 . S
C955 C958 1.339 . S
C956 C954 1.416 . S
C956 C958 1.416 . S
C956 C989 1.448 . S
C957 H942 0.930 . S
C957 N953 1.334 . S
C957 C955 1.390 . S
C958 C955 1.339 . S
C958 C956 1.416 . S
C958 H965 0.930 . S
N959 Tb924 2.572 . S
N959 C960 1.340 . S
N959 C962 1.361 . S
C960 H946 0.930 . S
C960 N959 1.340 . S
C960 C964 1.407 . S
C961 C962 1.413 . S
C961 C963 1.416 . S
C961 C990 1.427 . S
C962 C954 1.424 . S
C962 N959 1.361 . S
C962 C961 1.413 . S
C963 H952 0.931 . S
C963 C961 1.416 . S
C963 C964 1.332 . S
C964 H943 0.929 . S
C964 C960 1.407 . S
C964 C963 1.332 . S
H965 C958 0.930 . S
H966 C989 0.930 . S
H967 C990 0.929 . S
O968 Tb924 2.465 . S
O968 C988 1.264 . S
O969 Tb924 2.387 . S
O969 C980 1.264 . S
O970 Tb935 2.349 . S
O970 C980 1.243 . S
O971 Tb924 2.428 . S
O971 C988 1.256 . S
O972 Tb924 2.308 . S
O972 C987 1.266 . S
O973 Tb935 2.393 . S
O973 C987 1.248 . S
O974 Tb935 2.465 . S
O974 C999 1.264 . S
O975 Tb935 2.387 . S
O975 C991 1.264 . S
O976 Tb924 2.349 . S
O976 C991 1.243 . S
O977 Tb935 2.428 . S
O977 C999 1.256 . S
O978 Tb935 2.308 . S
O978 C998 1.266 . S
O979 Tb924 2.393 . S
O979 C998 1.248 . S
C980 O969 1.264 . S
C980 O970 1.243 . S
C981 C984 1.399 . S
C981 C986 1.383 . S
C981 C988 1.496 . S
C982 C983 1.399 1_565 S
C982 C986 1.389 . S
C983 C982 1.399 1_545 S
C983 C985 1.380 1_545 S
C983 H1000 0.929 . S
C984 C981 1.399 . S
C984 C985 1.392 . S
C984 H1001 0.929 . S
C985 C983 1.380 1_565 S
C985 C984 1.392 . S
C985 H1002 0.929 1_565 S
C986 C981 1.383 . S
C986 C982 1.389 . S
C986 H1003 0.931 . S
C987 O972 1.266 . S
C987 O973 1.248 . S
C988 Tb924 2.802 . S
C988 O968 1.264 . S
C988 O971 1.256 . S
C988 C981 1.496 . S
C989 C956 1.448 . S
C989 H966 0.930 . S
C989 C990 1.328 . S
C990 C961 1.427 . S
C990 H967 0.929 . S
C990 C989 1.328 . S
C991 O975 1.264 . S
C991 O976 1.243 . S
C992 C995 1.399 . S
C992 C996 1.383 . S
C992 C999 1.496 . S
C993 C994 1.399 . S
C993 C996 1.389 . S
C994 C993 1.399 . S
C994 C997 1.380 . S
C994 H1004 0.929 . S
C995 C992 1.399 . S
C995 C997 1.392 . S
C995 H1005 0.929 . S
C996 C992 1.383 . S
C996 C993 1.389 . S
C996 H1006 0.931 . S
C997 C994 1.380 . S
C997 C995 1.392 . S
C997 H1007 0.929 . S
C998 O978 1.266 . S
C998 O979 1.248 . S
C999 Tb935 2.802 . S
C999 O974 1.264 . S
C999 O977 1.256 . S
C999 C992 1.496 . S
H1000 C983 0.929 . S
H1001 C984 0.929 . S
H1002 C985 0.929 1_545 S
H1003 C986 0.931 . S
H1004 C994 0.929 . S
H1005 C995 0.929 . S
H1006 C996 0.931 . S
H1007 C997 0.929 . S
Tb1008 N1037 2.617 . S
Tb1008 N1043 2.572 . S
Tb1008 O1052 2.465 . S
Tb1008 O1053 2.387 . S
Tb1008 O1055 2.428 . S
Tb1008 O1056 2.308 . S
Tb1008 O1060 2.349 . S
Tb1008 O1063 2.393 . S
Tb1008 C1072 2.802 . S
C1009 N1010 1.379 . S
C1009 C1012 1.416 . S
C1009 C1016 1.424 . S
N1010 C1009 1.379 . S
N1010 C1013 1.334 . S
N1010 Tb1019 2.617 . S
C1011 C1013 1.390 . S
C1011 C1014 1.339 . S
C1011 H1031 0.930 . S
C1012 C1009 1.416 . S
C1012 C1014 1.416 . S
C1012 C1018 1.448 . S
C1013 N1010 1.334 . S
C1013 C1011 1.390 . S
C1013 H1024 0.930 . S
C1014 C1011 1.339 . S
C1014 C1012 1.416 . S
C1014 H1035 0.930 . S
C1015 C1016 1.413 . S
C1015 C1017 1.427 . S
C1015 C1021 1.416 . S
C1016 C1009 1.424 . S
C1016 C1015 1.413 . S
C1016 N1020 1.361 . S
C1017 C1015 1.427 . S
C1017 C1018 1.328 . S
C1017 H1032 0.929 . S
C1018 C1012 1.448 . S
C1018 C1017 1.328 . S
C1018 H1033 0.930 . S
Tb1019 N1010 2.617 . S
Tb1019 N1020 2.572 . S
Tb1019 O1054 2.349 . S
Tb1019 O1057 2.393 . S
Tb1019 O1058 2.465 . S
Tb1019 O1059 2.387 . S
Tb1019 O1061 2.428 . S
Tb1019 O1062 2.308 . S
Tb1019 C1083 2.802 . S
N1020 C1016 1.361 . S
N1020 Tb1019 2.572 . S
N1020 C1022 1.340 . S
C1021 C1015 1.416 . S
C1021 C1023 1.332 . S
C1021 H1029 0.931 . S
C1022 N1020 1.340 . S
C1022 C1023 1.407 . S
C1022 H1028 0.930 . S
C1023 C1021 1.332 . S
C1023 C1022 1.407 . S
C1023 H1025 0.929 . S
H1024 C1013 0.930 . S
H1025 C1023 0.929 . S
H1026 C1041 0.930 . S
H1027 C1048 0.929 . S
H1028 C1022 0.930 . S
H1029 C1021 0.931 . S
H1030 C1044 0.930 . S
H1031 C1011 0.930 . S
H1032 C1017 0.929 . S
H1033 C1018 0.930 . S
H1034 C1039 0.930 1_554 S
H1035 C1014 0.930 . S
H1036 C1047 0.931 . S
N1037 Tb1008 2.617 . S
N1037 C1038 1.379 . S
N1037 C1041 1.334 . S
C1038 N1037 1.379 . S
C1038 C1040 1.416 . S
C1038 C1046 1.424 . S
C1039 H1034 0.930 1_556 S
C1039 C1041 1.390 . S
C1039 C1042 1.339 . S
C1040 C1038 1.416 . S
C1040 C1042 1.416 . S
C1040 C1073 1.448 . S
C1041 H1026 0.930 . S
C1041 N1037 1.334 . S
C1041 C1039 1.390 . S
C1042 C1039 1.339 . S
C1042 C1040 1.416 . S
C1042 H1049 0.930 . S
N1043 Tb1008 2.572 . S
N1043 C1044 1.340 . S
N1043 C1046 1.361 . S
C1044 H1030 0.930 . S
C1044 N1043 1.340 . S
C1044 C1048 1.407 . S
C1045 C1046 1.413 . S
C1045 C1047 1.416 . S
C1045 C1074 1.427 . S
C1046 C1038 1.424 . S
C1046 N1043 1.361 . S
C1046 C1045 1.413 . S
C1047 H1036 0.931 . S
C1047 C1045 1.416 . S
C1047 C1048 1.332 . S
C1048 H1027 0.929 . S
C1048 C1044 1.407 . S
C1048 C1047 1.332 . S
H1049 C1042 0.930 . S
H1050 C1073 0.930 . S
H1051 C1074 0.929 . S
O1052 Tb1008 2.465 . S
O1052 C1072 1.264 . S
O1053 Tb1008 2.387 . S
O1053 C1064 1.264 . S
O1054 Tb1019 2.349 . S
O1054 C1064 1.243 . S
O1055 Tb1008 2.428 . S
O1055 C1072 1.256 . S
O1056 Tb1008 2.308 . S
O1056 C1071 1.266 . S
O1057 Tb1019 2.393 . S
O1057 C1071 1.248 . S
O1058 Tb1019 2.465 . S
O1058 C1083 1.264 . S
O1059 Tb1019 2.387 . S
O1059 C1075 1.264 . S
O1060 Tb1008 2.349 . S
O1060 C1075 1.243 . S
O1061 Tb1019 2.428 . S
O1061 C1083 1.256 . S
O1062 Tb1019 2.308 . S
O1062 C1082 1.266 . S
O1063 Tb1008 2.393 . S
O1063 C1082 1.248 . S
C1064 O1053 1.264 . S
C1064 O1054 1.243 . S
C1065 C1068 1.399 . S
C1065 C1070 1.383 . S
C1065 C1072 1.496 . S
C1066 C1067 1.399 . S
C1066 C1070 1.389 . S
C1067 C1066 1.399 . S
C1067 C1069 1.380 . S
C1067 H1084 0.929 . S
C1068 C1065 1.399 . S
C1068 C1069 1.392 . S
C1068 H1085 0.929 . S
C1069 C1067 1.380 . S
C1069 C1068 1.392 . S
C1069 H1086 0.929 . S
C1070 C1065 1.383 . S
C1070 C1066 1.389 . S
C1070 H1087 0.931 . S
C1071 O1056 1.266 . S
C1071 O1057 1.248 . S
C1072 Tb1008 2.802 . S
C1072 O1052 1.264 . S
C1072 O1055 1.256 . S
C1072 C1065 1.496 . S
C1073 C1040 1.448 . S
C1073 H1050 0.930 . S
C1073 C1074 1.328 . S
C1074 C1045 1.427 . S
C1074 H1051 0.929 . S
C1074 C1073 1.328 . S
C1075 O1059 1.264 . S
C1075 O1060 1.243 . S
C1076 C1079 1.399 . S
C1076 C1080 1.383 . S
C1076 C1083 1.496 . S
C1077 C1078 1.399 1_545 S
C1077 C1080 1.389 . S
C1078 C1077 1.399 1_565 S
C1078 C1081 1.380 1_565 S
C1078 H1088 0.929 . S
C1079 C1076 1.399 . S
C1079 C1081 1.392 . S
C1079 H1089 0.929 . S
C1080 C1076 1.383 . S
C1080 C1077 1.389 . S
C1080 H1090 0.931 . S
C1081 C1078 1.380 1_545 S
C1081 C1079 1.392 . S
C1081 H1091 0.929 1_545 S
C1082 O1062 1.266 . S
C1082 O1063 1.248 . S
C1083 Tb1019 2.802 . S
C1083 O1058 1.264 . S
C1083 O1061 1.256 . S
C1083 C1076 1.496 . S
H1084 C1067 0.929 . S
H1085 C1068 0.929 . S
H1086 C1069 0.929 . S
H1087 C1070 0.931 . S
H1088 C1078 0.929 . S
H1089 C1079 0.929 . S
H1090 C1080 0.931 . S
H1091 C1081 0.929 1_565 S
Tb1092 N1121 2.617 . S
Tb1092 N1127 2.572 . S
Tb1092 O1136 2.465 . S
Tb1092 O1137 2.387 . S
Tb1092 O1139 2.428 . S
Tb1092 O1140 2.308 . S
Tb1092 O1144 2.349 . S
Tb1092 O1147 2.393 . S
Tb1092 C1156 2.802 . S
C1093 N1094 1.379 . S
C1093 C1096 1.416 . S
C1093 C1100 1.424 . S
N1094 C1093 1.379 . S
N1094 C1097 1.334 . S
N1094 Tb1103 2.617 . S
C1095 C1097 1.390 . S
C1095 C1098 1.339 . S
C1095 H1115 0.930 . S
C1096 C1093 1.416 . S
C1096 C1098 1.416 . S
C1096 C1102 1.448 . S
C1097 N1094 1.334 . S
C1097 C1095 1.390 . S
C1097 H1108 0.930 . S
C1098 C1095 1.339 . S
C1098 C1096 1.416 . S
C1098 H1119 0.930 . S
C1099 C1100 1.413 . S
C1099 C1101 1.427 . S
C1099 C1105 1.416 . S
C1100 C1093 1.424 . S
C1100 C1099 1.413 . S
C1100 N1104 1.361 . S
C1101 C1099 1.427 . S
C1101 C1102 1.328 . S
C1101 H1116 0.929 . S
C1102 C1096 1.448 . S
C1102 C1101 1.328 . S
C1102 H1117 0.930 . S
Tb1103 N1094 2.617 . S
Tb1103 N1104 2.572 . S
Tb1103 O1138 2.349 . S
Tb1103 O1141 2.393 . S
Tb1103 O1142 2.465 . S
Tb1103 O1143 2.387 . S
Tb1103 O1145 2.428 . S
Tb1103 O1146 2.308 . S
Tb1103 C1167 2.802 . S
N1104 C1100 1.361 . S
N1104 Tb1103 2.572 . S
N1104 C1106 1.340 . S
C1105 C1099 1.416 . S
C1105 C1107 1.332 . S
C1105 H1113 0.931 . S
C1106 N1104 1.340 . S
C1106 C1107 1.407 . S
C1106 H1112 0.930 . S
C1107 C1105 1.332 . S
C1107 C1106 1.407 . S
C1107 H1109 0.929 . S
H1108 C1097 0.930 . S
H1109 C1107 0.929 . S
H1110 C1125 0.930 . S
H1111 C1132 0.929 . S
H1112 C1106 0.930 . S
H1113 C1105 0.931 . S
H1114 C1128 0.930 . S
H1115 C1095 0.930 . S
H1116 C1101 0.929 . S
H1117 C1102 0.930 . S
H1118 C1123 0.930 1_554 S
H1119 C1098 0.930 . S
H1120 C1131 0.931 . S
N1121 Tb1092 2.617 . S
N1121 C1122 1.379 . S
N1121 C1125 1.334 . S
C1122 N1121 1.379 . S
C1122 C1124 1.416 . S
C1122 C1130 1.424 . S
C1123 H1118 0.930 1_556 S
C1123 C1125 1.390 . S
C1123 C1126 1.339 . S
C1124 C1122 1.416 . S
C1124 C1126 1.416 . S
C1124 C1157 1.448 . S
C1125 H1110 0.930 . S
C1125 N1121 1.334 . S
C1125 C1123 1.390 . S
C1126 C1123 1.339 . S
C1126 C1124 1.416 . S
C1126 H1133 0.930 . S
N1127 Tb1092 2.572 . S
N1127 C1128 1.340 . S
N1127 C1130 1.361 . S
C1128 H1114 0.930 . S
C1128 N1127 1.340 . S
C1128 C1132 1.407 . S
C1129 C1130 1.413 . S
C1129 C1131 1.416 . S
C1129 C1158 1.427 . S
C1130 C1122 1.424 . S
C1130 N1127 1.361 . S
C1130 C1129 1.413 . S
C1131 H1120 0.931 . S
C1131 C1129 1.416 . S
C1131 C1132 1.332 . S
C1132 H1111 0.929 . S
C1132 C1128 1.407 . S
C1132 C1131 1.332 . S
H1133 C1126 0.930 . S
H1134 C1157 0.930 . S
H1135 C1158 0.929 . S
O1136 Tb1092 2.465 . S
O1136 C1156 1.264 . S
O1137 Tb1092 2.387 . S
O1137 C1148 1.264 . S
O1138 Tb1103 2.349 . S
O1138 C1148 1.243 . S
O1139 Tb1092 2.428 . S
O1139 C1156 1.256 . S
O1140 Tb1092 2.308 . S
O1140 C1155 1.266 . S
O1141 Tb1103 2.393 . S
O1141 C1155 1.248 . S
O1142 Tb1103 2.465 . S
O1142 C1167 1.264 . S
O1143 Tb1103 2.387 . S
O1143 C1159 1.264 . S
O1144 Tb1092 2.349 . S
O1144 C1159 1.243 . S
O1145 Tb1103 2.428 . S
O1145 C1167 1.256 . S
O1146 Tb1103 2.308 . S
O1146 C1166 1.266 . S
O1147 Tb1092 2.393 . S
O1147 C1166 1.248 . S
C1148 O1137 1.264 . S
C1148 O1138 1.243 . S
C1149 C1152 1.399 . S
C1149 C1154 1.383 . S
C1149 C1156 1.496 . S
C1150 C1151 1.399 . S
C1150 C1154 1.389 . S
C1151 C1150 1.399 . S
C1151 C1153 1.380 . S
C1151 H1168 0.929 . S
C1152 C1149 1.399 . S
C1152 C1153 1.392 . S
C1152 H1169 0.929 . S
C1153 C1151 1.380 . S
C1153 C1152 1.392 . S
C1153 H1170 0.929 . S
C1154 C1149 1.383 . S
C1154 C1150 1.389 . S
C1154 H1171 0.931 . S
C1155 O1140 1.266 . S
C1155 O1141 1.248 . S
C1156 Tb1092 2.802 . S
C1156 O1136 1.264 . S
C1156 O1139 1.256 . S
C1156 C1149 1.496 . S
C1157 C1124 1.448 . S
C1157 H1134 0.930 . S
C1157 C1158 1.328 . S
C1158 C1129 1.427 . S
C1158 H1135 0.929 . S
C1158 C1157 1.328 . S
C1159 O1143 1.264 . S
C1159 O1144 1.243 . S
C1160 C1163 1.399 . S
C1160 C1164 1.383 . S
C1160 C1167 1.496 . S
C1161 C1162 1.399 1_565 S
C1161 C1164 1.389 . S
C1162 C1161 1.399 1_545 S
C1162 C1165 1.380 1_545 S
C1162 H1172 0.929 . S
C1163 C1160 1.399 . S
C1163 C1165 1.392 . S
C1163 H1173 0.929 . S
C1164 C1160 1.383 . S
C1164 C1161 1.389 . S
C1164 H1174 0.931 . S
C1165 C1162 1.380 1_565 S
C1165 C1163 1.392 . S
C1165 H1175 0.929 1_565 S
C1166 O1146 1.266 . S
C1166 O1147 1.248 . S
C1167 Tb1103 2.802 . S
C1167 O1142 1.264 . S
C1167 O1145 1.256 . S
C1167 C1160 1.496 . S
H1168 C1151 0.929 . S
H1169 C1152 0.929 . S
H1170 C1153 0.929 . S
H1171 C1154 0.931 . S
H1172 C1162 0.929 . S
H1173 C1163 0.929 . S
H1174 C1164 0.931 . S
H1175 C1165 0.929 1_545 S
Tb1176 N1205 2.617 . S
Tb1176 N1211 2.572 . S
Tb1176 O1220 2.465 . S
Tb1176 O1221 2.387 . S
Tb1176 O1223 2.428 . S
Tb1176 O1224 2.308 . S
Tb1176 O1228 2.349 . S
Tb1176 O1231 2.393 . S
Tb1176 C1240 2.802 . S
C1177 N1178 1.379 . S
C1177 C1180 1.416 . S
C1177 C1184 1.424 . S
N1178 C1177 1.379 . S
N1178 C1181 1.334 . S
N1178 Tb1187 2.617 . S
C1179 C1181 1.390 . S
C1179 C1182 1.339 . S
C1179 H1199 0.930 . S
C1180 C1177 1.416 . S
C1180 C1182 1.416 . S
C1180 C1186 1.448 . S
C1181 N1178 1.334 . S
C1181 C1179 1.390 . S
C1181 H1192 0.930 . S
C1182 C1179 1.339 . S
C1182 C1180 1.416 . S
C1182 H1203 0.930 . S
C1183 C1184 1.413 . S
C1183 C1185 1.427 . S
C1183 C1189 1.416 . S
C1184 C1177 1.424 . S
C1184 C1183 1.413 . S
C1184 N1188 1.361 . S
C1185 C1183 1.427 . S
C1185 C1186 1.328 . S
C1185 H1200 0.929 . S
C1186 C1180 1.448 . S
C1186 C1185 1.328 . S
C1186 H1201 0.930 . S
Tb1187 N1178 2.617 . S
Tb1187 N1188 2.572 . S
Tb1187 O1222 2.349 . S
Tb1187 O1225 2.393 . S
Tb1187 O1226 2.465 . S
Tb1187 O1227 2.387 . S
Tb1187 O1229 2.428 . S
Tb1187 O1230 2.308 . S
Tb1187 C1251 2.802 . S
N1188 C1184 1.361 . S
N1188 Tb1187 2.572 . S
N1188 C1190 1.340 . S
C1189 C1183 1.416 . S
C1189 C1191 1.332 . S
C1189 H1197 0.931 . S
C1190 N1188 1.340 . S
C1190 C1191 1.407 . S
C1190 H1196 0.930 . S
C1191 C1189 1.332 . S
C1191 C1190 1.407 . S
C1191 H1193 0.929 . S
H1192 C1181 0.930 . S
H1193 C1191 0.929 . S
H1194 C1209 0.930 . S
H1195 C1216 0.929 . S
H1196 C1190 0.930 . S
H1197 C1189 0.931 . S
H1198 C1212 0.930 . S
H1199 C1179 0.930 . S
H1200 C1185 0.929 . S
H1201 C1186 0.930 . S
H1202 C1207 0.930 . S
H1203 C1182 0.930 . S
H1204 C1215 0.931 . S
N1205 Tb1176 2.617 . S
N1205 C1206 1.379 . S
N1205 C1209 1.334 . S
C1206 N1205 1.379 . S
C1206 C1208 1.416 . S
C1206 C1214 1.424 . S
C1207 H1202 0.930 . S
C1207 C1209 1.390 . S
C1207 C1210 1.339 . S
C1208 C1206 1.416 . S
C1208 C1210 1.416 . S
C1208 C1241 1.448 . S
C1209 H1194 0.930 . S
C1209 N1205 1.334 . S
C1209 C1207 1.390 . S
C1210 C1207 1.339 . S
C1210 C1208 1.416 . S
C1210 H1217 0.930 . S
N1211 Tb1176 2.572 . S
N1211 C1212 1.340 . S
N1211 C1214 1.361 . S
C1212 H1198 0.930 . S
C1212 N1211 1.340 . S
C1212 C1216 1.407 . S
C1213 C1214 1.413 . S
C1213 C1215 1.416 . S
C1213 C1242 1.427 . S
C1214 C1206 1.424 . S
C1214 N1211 1.361 . S
C1214 C1213 1.413 . S
C1215 H1204 0.931 . S
C1215 C1213 1.416 . S
C1215 C1216 1.332 . S
C1216 H1195 0.929 . S
C1216 C1212 1.407 . S
C1216 C1215 1.332 . S
H1217 C1210 0.930 . S
H1218 C1241 0.930 . S
H1219 C1242 0.929 . S
O1220 Tb1176 2.465 . S
O1220 C1240 1.264 . S
O1221 Tb1176 2.387 . S
O1221 C1232 1.264 . S
O1222 Tb1187 2.349 . S
O1222 C1232 1.243 . S
O1223 Tb1176 2.428 . S
O1223 C1240 1.256 . S
O1224 Tb1176 2.308 . S
O1224 C1239 1.266 . S
O1225 Tb1187 2.393 . S
O1225 C1239 1.248 . S
O1226 Tb1187 2.465 . S
O1226 C1251 1.264 . S
O1227 Tb1187 2.387 . S
O1227 C1243 1.264 . S
O1228 Tb1176 2.349 . S
O1228 C1243 1.243 . S
O1229 Tb1187 2.428 . S
O1229 C1251 1.256 . S
O1230 Tb1187 2.308 . S
O1230 C1250 1.266 . S
O1231 Tb1176 2.393 . S
O1231 C1250 1.248 . S
C1232 O1221 1.264 . S
C1232 O1222 1.243 . S
C1233 C1236 1.399 . S
C1233 C1238 1.383 . S
C1233 C1240 1.496 . S
C1234 C1235 1.399 . S
C1234 C1238 1.389 . S
C1235 C1234 1.399 . S
C1235 C1237 1.380 . S
C1235 H1252 0.929 . S
C1236 C1233 1.399 . S
C1236 C1237 1.392 . S
C1236 H1253 0.929 . S
C1237 C1235 1.380 . S
C1237 C1236 1.392 . S
C1237 H1254 0.929 . S
C1238 C1233 1.383 . S
C1238 C1234 1.389 . S
C1238 H1255 0.931 . S
C1239 O1224 1.266 . S
C1239 O1225 1.248 . S
C1240 Tb1176 2.802 . S
C1240 O1220 1.264 . S
C1240 O1223 1.256 . S
C1240 C1233 1.496 . S
C1241 C1208 1.448 . S
C1241 H1218 0.930 . S
C1241 C1242 1.328 . S
C1242 C1213 1.427 . S
C1242 H1219 0.929 . S
C1242 C1241 1.328 . S
C1243 O1227 1.264 . S
C1243 O1228 1.243 . S
C1244 C1247 1.399 . S
C1244 C1248 1.383 . S
C1244 C1251 1.496 . S
C1245 C1246 1.399 1_565 S
C1245 C1248 1.389 . S
C1246 C1245 1.399 1_545 S
C1246 C1249 1.380 1_545 S
C1246 H1256 0.929 . S
C1247 C1244 1.399 . S
C1247 C1249 1.392 . S
C1247 H1257 0.929 . S
C1248 C1244 1.383 . S
C1248 C1245 1.389 . S
C1248 H1258 0.931 . S
C1249 C1246 1.380 1_565 S
C1249 C1247 1.392 . S
C1249 H1259 0.929 1_565 S
C1250 O1230 1.266 . S
C1250 O1231 1.248 . S
C1251 Tb1187 2.802 . S
C1251 O1226 1.264 . S
C1251 O1229 1.256 . S
C1251 C1244 1.496 . S
H1252 C1235 0.929 . S
H1253 C1236 0.929 . S
H1254 C1237 0.929 . S
H1255 C1238 0.931 . S
H1256 C1246 0.929 . S
H1257 C1247 0.929 . S
H1258 C1248 0.931 . S
H1259 C1249 0.929 1_545 S
Tb1260 N1289 2.617 . S
Tb1260 N1295 2.572 . S
Tb1260 O1304 2.465 . S
Tb1260 O1305 2.387 . S
Tb1260 O1307 2.428 . S
Tb1260 O1308 2.308 . S
Tb1260 O1312 2.349 . S
Tb1260 O1315 2.393 . S
Tb1260 C1324 2.802 . S
C1261 N1262 1.379 . S
C1261 C1264 1.416 . S
C1261 C1268 1.424 . S
N1262 C1261 1.379 . S
N1262 C1265 1.334 . S
N1262 Tb1271 2.617 . S
C1263 C1265 1.390 . S
C1263 C1266 1.339 . S
C1263 H1283 0.930 . S
C1264 C1261 1.416 . S
C1264 C1266 1.416 . S
C1264 C1270 1.448 . S
C1265 N1262 1.334 . S
C1265 C1263 1.390 . S
C1265 H1276 0.930 . S
C1266 C1263 1.339 . S
C1266 C1264 1.416 . S
C1266 H1287 0.930 . S
C1267 C1268 1.413 . S
C1267 C1269 1.427 . S
C1267 C1273 1.416 . S
C1268 C1261 1.424 . S
C1268 C1267 1.413 . S
C1268 N1272 1.361 . S
C1269 C1267 1.427 . S
C1269 C1270 1.328 . S
C1269 H1284 0.929 . S
C1270 C1264 1.448 . S
C1270 C1269 1.328 . S
C1270 H1285 0.930 . S
Tb1271 N1262 2.617 . S
Tb1271 N1272 2.572 . S
Tb1271 O1306 2.349 . S
Tb1271 O1309 2.393 . S
Tb1271 O1310 2.465 . S
Tb1271 O1311 2.387 . S
Tb1271 O1313 2.428 . S
Tb1271 O1314 2.308 . S
Tb1271 C1335 2.802 . S
N1272 C1268 1.361 . S
N1272 Tb1271 2.572 . S
N1272 C1274 1.340 . S
C1273 C1267 1.416 . S
C1273 C1275 1.332 . S
C1273 H1281 0.931 . S
C1274 N1272 1.340 . S
C1274 C1275 1.407 . S
C1274 H1280 0.930 . S
C1275 C1273 1.332 . S
C1275 C1274 1.407 . S
C1275 H1277 0.929 . S
H1276 C1265 0.930 . S
H1277 C1275 0.929 . S
H1278 C1293 0.930 . S
H1279 C1300 0.929 . S
H1280 C1274 0.930 . S
H1281 C1273 0.931 . S
H1282 C1296 0.930 . S
H1283 C1263 0.930 . S
H1284 C1269 0.929 . S
H1285 C1270 0.930 . S
H1286 C1291 0.930 . S
H1287 C1266 0.930 . S
H1288 C1299 0.931 . S
N1289 Tb1260 2.617 . S
N1289 C1290 1.379 . S
N1289 C1293 1.334 . S
C1290 N1289 1.379 . S
C1290 C1292 1.416 . S
C1290 C1298 1.424 . S
C1291 H1286 0.930 . S
C1291 C1293 1.390 . S
C1291 C1294 1.339 . S
C1292 C1290 1.416 . S
C1292 C1294 1.416 . S
C1292 C1325 1.448 . S
C1293 H1278 0.930 . S
C1293 N1289 1.334 . S
C1293 C1291 1.390 . S
C1294 C1291 1.339 . S
C1294 C1292 1.416 . S
C1294 H1301 0.930 . S
N1295 Tb1260 2.572 . S
N1295 C1296 1.340 . S
N1295 C1298 1.361 . S
C1296 H1282 0.930 . S
C1296 N1295 1.340 . S
C1296 C1300 1.407 . S
C1297 C1298 1.413 . S
C1297 C1299 1.416 . S
C1297 C1326 1.427 . S
C1298 C1290 1.424 . S
C1298 N1295 1.361 . S
C1298 C1297 1.413 . S
C1299 H1288 0.931 . S
C1299 C1297 1.416 . S
C1299 C1300 1.332 . S
C1300 H1279 0.929 . S
C1300 C1296 1.407 . S
C1300 C1299 1.332 . S
H1301 C1294 0.930 . S
H1302 C1325 0.930 . S
H1303 C1326 0.929 . S
O1304 Tb1260 2.465 . S
O1304 C1324 1.264 . S
O1305 Tb1260 2.387 . S
O1305 C1316 1.264 . S
O1306 Tb1271 2.349 . S
O1306 C1316 1.243 . S
O1307 Tb1260 2.428 . S
O1307 C1324 1.256 . S
O1308 Tb1260 2.308 . S
O1308 C1323 1.266 . S
O1309 Tb1271 2.393 . S
O1309 C1323 1.248 . S
O1310 Tb1271 2.465 . S
O1310 C1335 1.264 . S
O1311 Tb1271 2.387 . S
O1311 C1327 1.264 . S
O1312 Tb1260 2.349 . S
O1312 C1327 1.243 . S
O1313 Tb1271 2.428 . S
O1313 C1335 1.256 . S
O1314 Tb1271 2.308 . S
O1314 C1334 1.266 . S
O1315 Tb1260 2.393 . S
O1315 C1334 1.248 . S
C1316 O1305 1.264 . S
C1316 O1306 1.243 . S
C1317 C1320 1.399 . S
C1317 C1322 1.383 . S
C1317 C1324 1.496 . S
C1318 C1319 1.399 . S
C1318 C1322 1.389 . S
C1319 C1318 1.399 . S
C1319 C1321 1.380 . S
C1319 H1336 0.929 . S
C1320 C1317 1.399 . S
C1320 C1321 1.392 . S
C1320 H1337 0.929 . S
C1321 C1319 1.380 . S
C1321 C1320 1.392 . S
C1321 H1338 0.929 . S
C1322 C1317 1.383 . S
C1322 C1318 1.389 . S
C1322 H1339 0.931 . S
C1323 O1308 1.266 . S
C1323 O1309 1.248 . S
C1324 Tb1260 2.802 . S
C1324 O1304 1.264 . S
C1324 O1307 1.256 . S
C1324 C1317 1.496 . S
C1325 C1292 1.448 . S
C1325 H1302 0.930 . S
C1325 C1326 1.328 . S
C1326 C1297 1.427 . S
C1326 H1303 0.929 . S
C1326 C1325 1.328 . S
C1327 O1311 1.264 . S
C1327 O1312 1.243 . S
C1328 C1331 1.399 . S
C1328 C1332 1.383 . S
C1328 C1335 1.496 . S
C1329 C1330 1.399 1_545 S
C1329 C1332 1.389 . S
C1330 C1329 1.399 1_565 S
C1330 C1333 1.380 1_565 S
C1330 H1340 0.929 . S
C1331 C1328 1.399 . S
C1331 C1333 1.392 . S
C1331 H1341 0.929 . S
C1332 C1328 1.383 . S
C1332 C1329 1.389 . S
C1332 H1342 0.931 . S
C1333 C1330 1.380 1_545 S
C1333 C1331 1.392 . S
C1333 H1343 0.929 1_545 S
C1334 O1314 1.266 . S
C1334 O1315 1.248 . S
C1335 Tb1271 2.802 . S
C1335 O1310 1.264 . S
C1335 O1313 1.256 . S
C1335 C1328 1.496 . S
H1336 C1319 0.929 . S
H1337 C1320 0.929 . S
H1338 C1321 0.929 . S
H1339 C1322 0.931 . S
H1340 C1330 0.929 . S
H1341 C1331 0.929 . S
H1342 C1332 0.931 . S
H1343 C1333 0.929 1_565 S
C1344 C1345 1.369 . S
C1344 C1346 1.419 . S
C1344 H1348 0.930 . S
C1345 C1344 1.369 . S
C1345 C1354 1.429 . S
C1346 C1344 1.419 . S
C1346 C1347 1.363 . S
C1346 H1349 0.929 . S
C1347 C1346 1.363 . S
C1347 C1353 1.428 . S
H1348 C1344 0.930 . S
H1349 C1346 0.929 . S
S1350 N1351 1.613 . S
S1350 N1352 1.610 . S
N1351 S1350 1.613 . S
N1351 C1354 1.350 . S
N1352 S1350 1.610 . S
N1352 C1353 1.351 . S
C1353 C1347 1.428 . S
C1353 N1352 1.351 . S
C1353 C1354 1.434 . S
C1354 C1345 1.429 . S
C1354 N1351 1.350 . S
C1354 C1353 1.434 . S
C1355 C1356 1.369 . S
C1355 C1357 1.419 . S
C1355 H1359 0.930 . S
C1356 C1355 1.369 . S
C1356 C1365 1.429 . S
C1357 C1355 1.419 . S
C1357 C1358 1.363 . S
C1357 H1360 0.929 . S
C1358 C1357 1.363 . S
C1358 C1364 1.428 . S
H1359 C1355 0.930 . S
H1360 C1357 0.929 . S
S1361 N1362 1.613 . S
S1361 N1363 1.610 . S
N1362 S1361 1.613 . S
N1362 C1365 1.350 . S
N1363 S1361 1.610 . S
N1363 C1364 1.351 . S
C1364 C1358 1.428 . S
C1364 N1363 1.351 . S
C1364 C1365 1.434 . S
C1365 C1356 1.429 . S
C1365 N1362 1.350 . S
C1365 C1364 1.434 . S
C1366 C1367 1.369 . S
C1366 C1368 1.419 . S
C1366 H1370 0.930 . S
C1367 C1366 1.369 . S
C1367 C1376 1.429 . S
C1368 C1366 1.419 . S
C1368 C1369 1.363 . S
C1368 H1371 0.929 . S
C1369 C1368 1.363 . S
C1369 C1375 1.428 . S
H1370 C1366 0.930 . S
H1371 C1368 0.929 . S
S1372 N1373 1.613 . S
S1372 N1374 1.610 . S
N1373 S1372 1.613 . S
N1373 C1376 1.350 . S
N1374 S1372 1.610 . S
N1374 C1375 1.351 . S
C1375 C1369 1.428 . S
C1375 N1374 1.351 . S
C1375 C1376 1.434 . S
C1376 C1367 1.429 . S
C1376 N1373 1.350 . S
C1376 C1375 1.434 . S
C1377 C1378 1.369 . S
C1377 C1379 1.419 . S
C1377 H1381 0.930 . S
C1378 C1377 1.369 . S
C1378 C1387 1.429 . S
C1379 C1377 1.419 . S
C1379 C1380 1.363 . S
C1379 H1382 0.929 . S
C1380 C1379 1.363 . S
C1380 C1386 1.428 . S
H1381 C1377 0.930 . S
H1382 C1379 0.929 . S
S1383 N1384 1.613 . S
S1383 N1385 1.610 . S
N1384 S1383 1.613 . S
N1384 C1387 1.350 . S
N1385 S1383 1.610 . S
N1385 C1386 1.351 . S
C1386 C1380 1.428 . S
C1386 N1385 1.351 . S
C1386 C1387 1.434 . S
C1387 C1378 1.429 . S
C1387 N1384 1.350 . S
C1387 C1386 1.434 . S
C1388 C1389 1.369 . S
C1388 C1390 1.419 . S
C1388 H1392 0.930 . S
C1389 C1388 1.369 . S
C1389 C1398 1.429 . S
C1390 C1388 1.419 . S
C1390 C1391 1.363 . S
C1390 H1393 0.929 . S
C1391 C1390 1.363 . S
C1391 C1397 1.428 . S
H1392 C1388 0.930 . S
H1393 C1390 0.929 . S
S1394 N1395 1.613 . S
S1394 N1396 1.610 . S
N1395 S1394 1.613 . S
N1395 C1398 1.350 . S
N1396 S1394 1.610 . S
N1396 C1397 1.351 . S
C1397 C1391 1.428 . S
C1397 N1396 1.351 . S
C1397 C1398 1.434 . S
C1398 C1389 1.429 . S
C1398 N1395 1.350 . S
C1398 C1397 1.434 . S
C1399 C1400 1.369 . S
C1399 C1401 1.419 . S
C1399 H1403 0.930 . S
C1400 C1399 1.369 . S
C1400 C1409 1.429 . S
C1401 C1399 1.419 . S
C1401 C1402 1.363 . S
C1401 H1404 0.929 . S
C1402 C1401 1.363 . S
C1402 C1408 1.428 . S
H1403 C1399 0.930 . S
H1404 C1401 0.929 . S
S1405 N1406 1.613 . S
S1405 N1407 1.610 . S
N1406 S1405 1.613 . S
N1406 C1409 1.350 . S
N1407 S1405 1.610 . S
N1407 C1408 1.351 . S
C1408 C1402 1.428 . S
C1408 N1407 1.351 . S
C1408 C1409 1.434 . S
C1409 C1400 1.429 . S
C1409 N1406 1.350 . S
C1409 C1408 1.434 . S
C1410 C1411 1.369 . S
C1410 C1412 1.419 . S
C1410 H1414 0.930 . S
C1411 C1410 1.369 . S
C1411 C1420 1.429 . S
C1412 C1410 1.419 . S
C1412 C1413 1.363 . S
C1412 H1415 0.929 . S
C1413 C1412 1.363 . S
C1413 C1419 1.428 . S
H1414 C1410 0.930 . S
H1415 C1412 0.929 . S
S1416 N1417 1.613 . S
S1416 N1418 1.610 . S
N1417 S1416 1.613 . S
N1417 C1420 1.350 . S
N1418 S1416 1.610 . S
N1418 C1419 1.351 . S
C1419 C1413 1.428 . S
C1419 N1418 1.351 . S
C1419 C1420 1.434 . S
C1420 C1411 1.429 . S
C1420 N1417 1.350 . S
C1420 C1419 1.434 . S
C1421 C1422 1.369 . S
C1421 C1423 1.419 . S
C1421 H1425 0.930 . S
C1422 C1421 1.369 . S
C1422 C1431 1.429 . S
C1423 C1421 1.419 . S
C1423 C1424 1.363 . S
C1423 H1426 0.929 . S
C1424 C1423 1.363 . S
C1424 C1430 1.428 . S
H1425 C1421 0.930 . S
H1426 C1423 0.929 . S
S1427 N1428 1.613 . S
S1427 N1429 1.610 . S
N1428 S1427 1.613 . S
N1428 C1431 1.350 . S
N1429 S1427 1.610 . S
N1429 C1430 1.351 . S
C1430 C1424 1.428 . S
C1430 N1429 1.351 . S
C1430 C1431 1.434 . S
C1431 C1422 1.429 . S
C1431 N1428 1.350 . S
C1431 C1430 1.434 . S
C1432 C1433 1.369 . S
C1432 C1434 1.419 . S
C1432 H1436 0.930 . S
C1433 C1432 1.369 . S
C1433 C1442 1.429 1_565 S
C1434 C1432 1.419 . S
C1434 C1435 1.363 1_565 S
C1434 H1437 0.929 . S
C1435 C1434 1.363 1_545 S
C1435 C1441 1.428 . S
H1436 C1432 0.930 . S
H1437 C1434 0.929 . S
S1438 N1439 1.613 . S
S1438 N1440 1.610 . S
N1439 S1438 1.613 . S
N1439 C1442 1.350 . S
N1440 S1438 1.610 . S
N1440 C1441 1.351 . S
C1441 C1435 1.428 . S
C1441 N1440 1.351 . S
C1441 C1442 1.434 . S
C1442 C1433 1.429 1_545 S
C1442 N1439 1.350 . S
C1442 C1441 1.434 . S
C1443 C1444 1.369 1_565 S
C1443 C1445 1.419 . S
C1443 H1447 0.930 . S
C1444 C1443 1.369 1_545 S
C1444 C1453 1.429 . S
C1445 C1443 1.419 . S
C1445 C1446 1.363 . S
C1445 H1448 0.929 . S
C1446 C1445 1.363 . S
C1446 C1452 1.428 1_565 S
H1447 C1443 0.930 . S
H1448 C1445 0.929 . S
S1449 N1450 1.613 . S
S1449 N1451 1.610 . S
N1450 S1449 1.613 . S
N1450 C1453 1.350 . S
N1451 S1449 1.610 . S
N1451 C1452 1.351 . S
C1452 C1446 1.428 1_545 S
C1452 N1451 1.351 . S
C1452 C1453 1.434 . S
C1453 C1444 1.429 . S
C1453 N1450 1.350 . S
C1453 C1452 1.434 . S
C1454 C1455 1.369 1_565 S
C1454 C1456 1.419 . S
C1454 H1458 0.930 . S
C1455 C1454 1.369 1_545 S
C1455 C1464 1.429 . S
C1456 C1454 1.419 . S
C1456 C1457 1.363 . S
C1456 H1459 0.929 . S
C1457 C1456 1.363 . S
C1457 C1463 1.428 1_565 S
H1458 C1454 0.930 . S
H1459 C1456 0.929 . S
S1460 N1461 1.613 . S
S1460 N1462 1.610 . S
N1461 S1460 1.613 . S
N1461 C1464 1.350 . S
N1462 S1460 1.610 . S
N1462 C1463 1.351 . S
C1463 C1457 1.428 1_545 S
C1463 N1462 1.351 . S
C1463 C1464 1.434 . S
C1464 C1455 1.429 . S
C1464 N1461 1.350 . S
C1464 C1463 1.434 . S
C1465 C1466 1.369 . S
C1465 C1467 1.419 . S
C1465 H1469 0.930 . S
C1466 C1465 1.369 . S
C1466 C1475 1.429 1_545 S
C1467 C1465 1.419 . S
C1467 C1468 1.363 1_545 S
C1467 H1470 0.929 . S
C1468 C1467 1.363 1_565 S
C1468 C1474 1.428 . S
H1469 C1465 0.930 . S
H1470 C1467 0.929 . S
S1471 N1472 1.613 . S
S1471 N1473 1.610 . S
N1472 S1471 1.613 . S
N1472 C1475 1.350 . S
N1473 S1471 1.610 . S
N1473 C1474 1.351 . S
C1474 C1468 1.428 . S
C1474 N1473 1.351 . S
C1474 C1475 1.434 . S
C1475 C1466 1.429 1_565 S
C1475 N1472 1.350 . S
C1475 C1474 1.434 . S
C1476 C1477 1.369 . S
C1476 C1478 1.419 . S
C1476 H1480 0.930 . S
C1477 C1476 1.369 . S
C1477 C1486 1.429 . S
C1478 C1476 1.419 . S
C1478 C1479 1.363 . S
C1478 H1481 0.929 . S
C1479 C1478 1.363 . S
C1479 C1485 1.428 . S
H1480 C1476 0.930 . S
H1481 C1478 0.929 . S
S1482 N1483 1.613 . S
S1482 N1484 1.610 . S
N1483 S1482 1.613 . S
N1483 C1486 1.350 . S
N1484 S1482 1.610 . S
N1484 C1485 1.351 . S
C1485 C1479 1.428 . S
C1485 N1484 1.351 . S
C1485 C1486 1.434 . S
C1486 C1477 1.429 . S
C1486 N1483 1.350 . S
C1486 C1485 1.434 . S
C1487 C1488 1.369 . S
C1487 C1489 1.419 . S
C1487 H1491 0.930 . S
C1488 C1487 1.369 . S
C1488 C1497 1.429 . S
C1489 C1487 1.419 . S
C1489 C1490 1.363 . S
C1489 H1492 0.929 . S
C1490 C1489 1.363 . S
C1490 C1496 1.428 . S
H1491 C1487 0.930 . S
H1492 C1489 0.929 . S
S1493 N1494 1.613 . S
S1493 N1495 1.610 . S
N1494 S1493 1.613 . S
N1494 C1497 1.350 . S
N1495 S1493 1.610 . S
N1495 C1496 1.351 . S
C1496 C1490 1.428 . S
C1496 N1495 1.351 . S
C1496 C1497 1.434 . S
C1497 C1488 1.429 . S
C1497 N1494 1.350 . S
C1497 C1496 1.434 . S
C1498 C1499 1.369 . S
C1498 C1500 1.419 . S
C1498 H1502 0.930 . S
C1499 C1498 1.369 . S
C1499 C1508 1.429 . S
C1500 C1498 1.419 . S
C1500 C1501 1.363 . S
C1500 H1503 0.929 . S
C1501 C1500 1.363 . S
C1501 C1507 1.428 . S
H1502 C1498 0.930 . S
H1503 C1500 0.929 . S
S1504 N1505 1.613 . S
S1504 N1506 1.610 . S
N1505 S1504 1.613 . S
N1505 C1508 1.350 . S
N1506 S1504 1.610 . S
N1506 C1507 1.351 . S
C1507 C1501 1.428 . S
C1507 N1506 1.351 . S
C1507 C1508 1.434 . S
C1508 C1499 1.429 . S
C1508 N1505 1.350 . S
C1508 C1507 1.434 . S
C1509 C1510 1.369 . S
C1509 C1511 1.419 . S
C1509 H1513 0.930 . S
C1510 C1509 1.369 . S
C1510 C1519 1.429 . S
C1511 C1509 1.419 . S
C1511 C1512 1.363 . S
C1511 H1514 0.929 . S
C1512 C1511 1.363 . S
C1512 C1518 1.428 . S
H1513 C1509 0.930 . S
H1514 C1511 0.929 . S
S1515 N1516 1.613 . S
S1515 N1517 1.610 . S
N1516 S1515 1.613 . S
N1516 C1519 1.350 . S
N1517 S1515 1.610 . S
N1517 C1518 1.351 . S
C1518 C1512 1.428 . S
C1518 N1517 1.351 . S
C1518 C1519 1.434 . S
C1519 C1510 1.429 . S
C1519 N1516 1.350 . S
C1519 C1518 1.434 . S
C1520 C1521 1.369 . S
C1520 C1522 1.419 1_556 S
C1520 H1524 0.930 . S
C1521 C1520 1.369 . S
C1521 C1530 1.429 . S
C1522 C1520 1.419 1_554 S
C1522 C1523 1.363 . S
C1522 H1525 0.929 . S
C1523 C1522 1.363 . S
C1523 C1529 1.428 . S
H1524 C1520 0.930 . S
H1525 C1522 0.929 . S
S1526 N1527 1.616 1_554 S
S1526 N1528 1.608 . S
N1527 S1526 1.616 1_556 S
N1527 C1530 1.350 . S
N1528 S1526 1.608 . S
N1528 C1529 1.351 . S
C1529 C1523 1.428 . S
C1529 N1528 1.351 . S
C1529 C1530 1.434 1_554 S
C1530 C1521 1.429 . S
C1530 N1527 1.350 . S
C1530 C1529 1.434 1_556 S
C1531 C1532 1.369 . S
C1531 C1533 1.419 1_556 S
C1531 H1535 0.930 . S
C1532 C1531 1.369 . S
C1532 C1541 1.429 . S
C1533 C1531 1.419 1_554 S
C1533 C1534 1.363 . S
C1533 H1536 0.929 . S
C1534 C1533 1.363 . S
C1534 C1540 1.428 . S
H1535 C1531 0.930 . S
H1536 C1533 0.929 . S
S1537 N1538 1.616 1_554 S
S1537 N1539 1.608 . S
N1538 S1537 1.616 1_556 S
N1538 C1541 1.350 . S
N1539 S1537 1.608 . S
N1539 C1540 1.351 . S
C1540 C1534 1.428 . S
C1540 N1539 1.351 . S
C1540 C1541 1.434 1_554 S
C1541 C1532 1.429 . S
C1541 N1538 1.350 . S
C1541 C1540 1.434 1_556 S
C1542 C1543 1.369 . S
C1542 C1544 1.419 . S
C1542 H1546 0.930 . S
C1543 C1542 1.369 . S
C1543 C1552 1.429 . S
C1544 C1542 1.419 . S
C1544 C1545 1.363 . S
C1544 H1547 0.929 . S
C1545 C1544 1.363 . S
C1545 C1551 1.428 . S
H1546 C1542 0.930 . S
H1547 C1544 0.929 . S
S1548 N1549 1.613 . S
S1548 N1550 1.610 . S
N1549 S1548 1.613 . S
N1549 C1552 1.350 . S
N1550 S1548 1.610 . S
N1550 C1551 1.351 . S
C1551 C1545 1.428 . S
C1551 N1550 1.351 . S
C1551 C1552 1.434 . S
C1552 C1543 1.429 . S
C1552 N1549 1.350 . S
C1552 C1551 1.434 . S
C1553 C1554 1.369 . S
C1553 C1555 1.419 . S
C1553 H1557 0.930 . S
C1554 C1553 1.369 . S
C1554 C1563 1.429 . S
C1555 C1553 1.419 . S
C1555 C1556 1.363 . S
C1555 H1558 0.929 . S
C1556 C1555 1.363 . S
C1556 C1562 1.428 . S
H1557 C1553 0.930 . S
H1558 C1555 0.929 . S
S1559 N1560 1.613 . S
S1559 N1561 1.610 . S
N1560 S1559 1.613 . S
N1560 C1563 1.350 . S
N1561 S1559 1.610 . S
N1561 C1562 1.351 . S
C1562 C1556 1.428 . S
C1562 N1561 1.351 . S
C1562 C1563 1.434 . S
C1563 C1554 1.429 . S
C1563 N1560 1.350 . S
C1563 C1562 1.434 . S
C1564 C1565 1.369 . S
C1564 C1566 1.419 1_554 S
C1564 H1568 0.930 . S
C1565 C1564 1.369 . S
C1565 C1574 1.429 . S
C1566 C1564 1.419 1_556 S
C1566 C1567 1.363 . S
C1566 H1569 0.929 . S
C1567 C1566 1.363 . S
C1567 C1573 1.428 . S
H1568 C1564 0.930 . S
H1569 C1566 0.929 . S
S1570 N1571 1.616 1_556 S
S1570 N1572 1.608 . S
N1571 S1570 1.616 1_554 S
N1571 C1574 1.350 . S
N1572 S1570 1.608 . S
N1572 C1573 1.351 . S
C1573 C1567 1.428 . S
C1573 N1572 1.351 . S
C1573 C1574 1.434 1_556 S
C1574 C1565 1.429 . S
C1574 N1571 1.350 . S
C1574 C1573 1.434 1_554 S
C1575 C1576 1.369 . S
C1575 C1577 1.419 1_556 S
C1575 H1579 0.930 . S
C1576 C1575 1.369 . S
C1576 C1585 1.429 . S
C1577 C1575 1.419 1_554 S
C1577 C1578 1.363 . S
C1577 H1580 0.929 . S
C1578 C1577 1.363 . S
C1578 C1584 1.428 . S
H1579 C1575 0.930 . S
H1580 C1577 0.929 . S
S1581 N1582 1.616 1_554 S
S1581 N1583 1.608 . S
N1582 S1581 1.616 1_556 S
N1582 C1585 1.350 . S
N1583 S1581 1.608 . S
N1583 C1584 1.351 . S
C1584 C1578 1.428 . S
C1584 N1583 1.351 . S
C1584 C1585 1.434 1_554 S
C1585 C1576 1.429 . S
C1585 N1582 1.350 . S
C1585 C1584 1.434 1_556 S
C1586 C1587 1.369 . S
C1586 C1588 1.419 . S
C1586 H1590 0.930 . S
C1587 C1586 1.369 . S
C1587 C1596 1.429 . S
C1588 C1586 1.419 . S
C1588 C1589 1.363 . S
C1588 H1591 0.929 . S
C1589 C1588 1.363 . S
C1589 C1595 1.428 . S
H1590 C1586 0.930 . S
H1591 C1588 0.929 . S
S1592 N1593 1.613 . S
S1592 N1594 1.610 . S
N1593 S1592 1.613 . S
N1593 C1596 1.350 . S
N1594 S1592 1.610 . S
N1594 C1595 1.351 . S
C1595 C1589 1.428 . S
C1595 N1594 1.351 . S
C1595 C1596 1.434 . S
C1596 C1587 1.429 . S
C1596 N1593 1.350 . S
C1596 C1595 1.434 . S
C1597 C1598 1.369 . S
C1597 C1599 1.419 . S
C1597 H1601 0.930 . S
C1598 C1597 1.369 . S
C1598 C1607 1.429 . S
C1599 C1597 1.419 . S
C1599 C1600 1.363 . S
C1599 H1602 0.929 . S
C1600 C1599 1.363 . S
C1600 C1606 1.428 . S
H1601 C1597 0.930 . S
H1602 C1599 0.929 . S
S1603 N1604 1.613 . S
S1603 N1605 1.610 . S
N1604 S1603 1.613 . S
N1604 C1607 1.350 . S
N1605 S1603 1.610 . S
N1605 C1606 1.351 . S
C1606 C1600 1.428 . S
C1606 N1605 1.351 . S
C1606 C1607 1.434 . S
C1607 C1598 1.429 . S
C1607 N1604 1.350 . S
C1607 C1606 1.434 . S
C1608 C1609 1.369 . S
C1608 C1610 1.419 1_655 S
C1608 H1612 0.930 . S
C1609 C1608 1.369 . S
C1609 C1618 1.429 1_565 S
C1610 C1608 1.419 1_455 S
C1610 C1611 1.363 1_565 S
C1610 H1613 0.929 . S
C1611 C1610 1.363 1_545 S
C1611 C1617 1.428 . S
H1612 C1608 0.930 . S
H1613 C1610 0.929 . S
S1614 N1615 1.613 . S
S1614 N1616 1.610 1_655 S
N1615 S1614 1.613 . S
N1615 C1618 1.350 . S
N1616 S1614 1.610 1_455 S
N1616 C1617 1.351 . S
C1617 C1611 1.428 . S
C1617 N1616 1.351 . S
C1617 C1618 1.434 1_455 S
C1618 C1609 1.429 1_545 S
C1618 N1615 1.350 . S
C1618 C1617 1.434 1_655 S
C1619 C1620 1.369 . S
C1619 C1621 1.419 1_645 S
C1619 H1623 0.930 . S
C1620 C1619 1.369 . S
C1620 C1629 1.429 . S
C1621 C1619 1.419 1_465 S
C1621 C1622 1.363 . S
C1621 H1624 0.929 . S
C1622 C1621 1.363 . S
C1622 C1628 1.428 . S
H1623 C1619 0.930 . S
H1624 C1621 0.929 . S
S1625 N1626 1.613 1_455 S
S1625 N1627 1.610 1_545 S
N1626 S1625 1.613 1_655 S
N1626 C1629 1.350 . S
N1627 S1625 1.610 1_565 S
N1627 C1628 1.351 . S
C1628 C1622 1.428 . S
C1628 N1627 1.351 . S
C1628 C1629 1.434 1_465 S
C1629 C1620 1.429 . S
C1629 N1626 1.350 . S
C1629 C1628 1.434 1_645 S
C1630 C1631 1.369 . S
C1630 C1632 1.419 1_445 S
C1630 H1634 0.930 . S
C1631 C1630 1.369 . S
C1631 C1640 1.429 . S
C1632 C1630 1.419 1_665 S
C1632 C1633 1.363 . S
C1632 H1635 0.929 . S
C1633 C1632 1.363 . S
C1633 C1639 1.428 . S
H1634 C1630 0.930 . S
H1635 C1632 0.929 . S
S1636 N1637 1.613 1_655 S
S1636 N1638 1.610 1_545 S
N1637 S1636 1.613 1_455 S
N1637 C1640 1.350 . S
N1638 S1636 1.610 1_565 S
N1638 C1639 1.351 . S
C1639 C1633 1.428 . S
C1639 N1638 1.351 . S
C1639 C1640 1.434 1_665 S
C1640 C1631 1.429 . S
C1640 N1637 1.350 . S
C1640 C1639 1.434 1_445 S
C1641 C1642 1.369 . S
C1641 C1643 1.419 1_655 S
C1641 H1645 0.930 . S
C1642 C1641 1.369 . S
C1642 C1651 1.429 1_545 S
C1643 C1641 1.419 1_455 S
C1643 C1644 1.363 1_545 S
C1643 H1646 0.929 . S
C1644 C1643 1.363 1_565 S
C1644 C1650 1.428 . S
H1645 C1641 0.930 . S
H1646 C1643 0.929 . S
S1647 N1648 1.613 . S
S1647 N1649 1.610 1_655 S
N1648 S1647 1.613 . S
N1648 C1651 1.350 . S
N1649 S1647 1.610 1_455 S
N1649 C1650 1.351 . S
C1650 C1644 1.428 . S
C1650 N1649 1.351 . S
C1650 C1651 1.434 1_455 S
C1651 C1642 1.429 1_565 S
C1651 N1648 1.350 . S
C1651 C1650 1.434 1_655 S
C1652 C1653 1.369 . S
C1652 C1654 1.419 . S
C1652 H1656 0.930 . S
C1653 C1652 1.369 . S
C1653 C1662 1.429 . S
C1654 C1652 1.419 . S
C1654 C1655 1.363 . S
C1654 H1657 0.929 . S
C1655 C1654 1.363 . S
C1655 C1661 1.428 . S
H1656 C1652 0.930 . S
H1657 C1654 0.929 . S
S1658 N1659 1.613 . S
S1658 N1660 1.610 . S
N1659 S1658 1.613 . S
N1659 C1662 1.350 . S
N1660 S1658 1.610 . S
N1660 C1661 1.351 . S
C1661 C1655 1.428 . S
C1661 N1660 1.351 . S
C1661 C1662 1.434 . S
C1662 C1653 1.429 . S
C1662 N1659 1.350 . S
C1662 C1661 1.434 . S
C1663 C1664 1.369 . S
C1663 C1665 1.419 . S
C1663 H1667 0.930 . S
C1664 C1663 1.369 . S
C1664 C1673 1.429 . S
C1665 C1663 1.419 . S
C1665 C1666 1.363 . S
C1665 H1668 0.929 . S
C1666 C1665 1.363 . S
C1666 C1672 1.428 . S
H1667 C1663 0.930 . S
H1668 C1665 0.929 . S
S1669 N1670 1.613 . S
S1669 N1671 1.610 . S
N1670 S1669 1.613 . S
N1670 C1673 1.350 . S
N1671 S1669 1.610 . S
N1671 C1672 1.351 . S
C1672 C1666 1.428 . S
C1672 N1671 1.351 . S
C1672 C1673 1.434 . S
C1673 C1664 1.429 . S
C1673 N1670 1.350 . S
C1673 C1672 1.434 . S
C1674 C1675 1.369 . S
C1674 C1676 1.419 . S
C1674 H1678 0.930 . S
C1675 C1674 1.369 . S
C1675 C1684 1.429 . S
C1676 C1674 1.419 . S
C1676 C1677 1.363 . S
C1676 H1679 0.929 . S
C1677 C1676 1.363 . S
C1677 C1683 1.428 . S
H1678 C1674 0.930 . S
H1679 C1676 0.929 . S
S1680 N1681 1.613 . S
S1680 N1682 1.610 . S
N1681 S1680 1.613 . S
N1681 C1684 1.350 . S
N1682 S1680 1.610 . S
N1682 C1683 1.351 . S
C1683 C1677 1.428 . S
C1683 N1682 1.351 . S
C1683 C1684 1.434 . S
C1684 C1675 1.429 . S
C1684 N1681 1.350 . S
C1684 C1683 1.434 . S
C1685 C1686 1.369 . S
C1685 C1687 1.419 . S
C1685 H1689 0.930 . S
C1686 C1685 1.369 . S
C1686 C1695 1.429 . S
C1687 C1685 1.419 . S
C1687 C1688 1.363 . S
C1687 H1690 0.929 . S
C1688 C1687 1.363 . S
C1688 C1694 1.428 . S
H1689 C1685 0.930 . S
H1690 C1687 0.929 . S
S1691 N1692 1.613 . S
S1691 N1693 1.610 . S
N1692 S1691 1.613 . S
N1692 C1695 1.350 . S
N1693 S1691 1.610 . S
N1693 C1694 1.351 . S
C1694 C1688 1.428 . S
C1694 N1693 1.351 . S
C1694 C1695 1.434 . S
C1695 C1686 1.429 . S
C1695 N1692 1.350 . S
C1695 C1694 1.434 . S
C1696 C1697 1.369 . S
C1696 C1698 1.419 . S
C1696 H1700 0.930 . S
C1697 C1696 1.369 . S
C1697 C1706 1.429 . S
C1698 C1696 1.419 . S
C1698 C1699 1.363 . S
C1698 H1701 0.929 . S
C1699 C1698 1.363 . S
C1699 C1705 1.428 . S
H1700 C1696 0.930 . S
H1701 C1698 0.929 . S
S1702 N1703 1.613 . S
S1702 N1704 1.610 . S
N1703 S1702 1.613 . S
N1703 C1706 1.350 . S
N1704 S1702 1.610 . S
N1704 C1705 1.351 . S
C1705 C1699 1.428 . S
C1705 N1704 1.351 . S
C1705 C1706 1.434 . S
C1706 C1697 1.429 . S
C1706 N1703 1.350 . S
C1706 C1705 1.434 . S
C1707 C1708 1.369 . S
C1707 C1709 1.419 . S
C1707 H1711 0.930 . S
C1708 C1707 1.369 . S
C1708 C1717 1.429 . S
C1709 C1707 1.419 . S
C1709 C1710 1.363 . S
C1709 H1712 0.929 . S
C1710 C1709 1.363 . S
C1710 C1716 1.428 . S
H1711 C1707 0.930 . S
H1712 C1709 0.929 . S
S1713 N1714 1.613 . S
S1713 N1715 1.610 . S
N1714 S1713 1.613 . S
N1714 C1717 1.350 . S
N1715 S1713 1.610 . S
N1715 C1716 1.351 . S
C1716 C1710 1.428 . S
C1716 N1715 1.351 . S
C1716 C1717 1.434 . S
C1717 C1708 1.429 . S
C1717 N1714 1.350 . S
C1717 C1716 1.434 . S
C1718 C1719 1.369 . S
C1718 C1720 1.419 . S
C1718 H1722 0.930 . S
C1719 C1718 1.369 . S
C1719 C1728 1.429 . S
C1720 C1718 1.419 . S
C1720 C1721 1.363 . S
C1720 H1723 0.929 . S
C1721 C1720 1.363 . S
C1721 C1727 1.428 . S
H1722 C1718 0.930 . S
H1723 C1720 0.929 . S
S1724 N1725 1.613 . S
S1724 N1726 1.610 . S
N1725 S1724 1.613 . S
N1725 C1728 1.350 . S
N1726 S1724 1.610 . S
N1726 C1727 1.351 . S
C1727 C1721 1.428 . S
C1727 N1726 1.351 . S
C1727 C1728 1.434 . S
C1728 C1719 1.429 . S
C1728 N1725 1.350 . S
C1728 C1727 1.434 . S
C1729 C1730 1.369 . S
C1729 C1731 1.419 . S
C1729 H1733 0.930 . S
C1730 C1729 1.369 . S
C1730 C1739 1.429 . S
C1731 C1729 1.419 . S
C1731 C1732 1.363 . S
C1731 H1734 0.929 . S
C1732 C1731 1.363 . S
C1732 C1738 1.428 . S
H1733 C1729 0.930 . S
H1734 C1731 0.929 . S
S1735 N1736 1.613 . S
S1735 N1737 1.610 . S
N1736 S1735 1.613 . S
N1736 C1739 1.350 . S
N1737 S1735 1.610 . S
N1737 C1738 1.351 . S
C1738 C1732 1.428 . S
C1738 N1737 1.351 . S
C1738 C1739 1.434 . S
C1739 C1730 1.429 . S
C1739 N1736 1.350 . S
C1739 C1738 1.434 . S
C1740 C1741 1.369 . S
C1740 C1742 1.419 . S
C1740 H1744 0.930 . S
C1741 C1740 1.369 . S
C1741 C1750 1.429 . S
C1742 C1740 1.419 . S
C1742 C1743 1.363 . S
C1742 H1745 0.929 . S
C1743 C1742 1.363 . S
C1743 C1749 1.428 . S
H1744 C1740 0.930 . S
H1745 C1742 0.929 . S
S1746 N1747 1.613 . S
S1746 N1748 1.610 . S
N1747 S1746 1.613 . S
N1747 C1750 1.350 . S
N1748 S1746 1.610 . S
N1748 C1749 1.351 . S
C1749 C1743 1.428 . S
C1749 N1748 1.351 . S
C1749 C1750 1.434 . S
C1750 C1741 1.429 . S
C1750 N1747 1.350 . S
C1750 C1749 1.434 . S
C1751 C1752 1.369 . S
C1751 C1753 1.419 . S
C1751 H1755 0.930 . S
C1752 C1751 1.369 . S
C1752 C1761 1.429 . S
C1753 C1751 1.419 . S
C1753 C1754 1.363 . S
C1753 H1756 0.929 . S
C1754 C1753 1.363 . S
C1754 C1760 1.428 . S
H1755 C1751 0.930 . S
H1756 C1753 0.929 . S
S1757 N1758 1.613 . S
S1757 N1759 1.610 . S
N1758 S1757 1.613 . S
N1758 C1761 1.350 . S
N1759 S1757 1.610 . S
N1759 C1760 1.351 . S
C1760 C1754 1.428 . S
C1760 N1759 1.351 . S
C1760 C1761 1.434 . S
C1761 C1752 1.429 . S
C1761 N1758 1.350 . S
C1761 C1760 1.434 . S
C1762 C1763 1.369 . S
C1762 C1764 1.419 . S
C1762 H1766 0.930 . S
C1763 C1762 1.369 . S
C1763 C1772 1.429 . S
C1764 C1762 1.419 . S
C1764 C1765 1.363 . S
C1764 H1767 0.929 . S
C1765 C1764 1.363 . S
C1765 C1771 1.428 . S
H1766 C1762 0.930 . S
H1767 C1764 0.929 . S
S1768 N1769 1.613 . S
S1768 N1770 1.610 . S
N1769 S1768 1.613 . S
N1769 C1772 1.350 . S
N1770 S1768 1.610 . S
N1770 C1771 1.351 . S
C1771 C1765 1.428 . S
C1771 N1770 1.351 . S
C1771 C1772 1.434 . S
C1772 C1763 1.429 . S
C1772 N1769 1.350 . S
C1772 C1771 1.434 . S
C1773 C1774 1.369 . S
C1773 C1775 1.419 . S
C1773 H1777 0.930 . S
C1774 C1773 1.369 . S
C1774 C1783 1.429 . S
C1775 C1773 1.419 . S
C1775 C1776 1.363 . S
C1775 H1778 0.929 . S
C1776 C1775 1.363 . S
C1776 C1782 1.428 . S
H1777 C1773 0.930 . S
H1778 C1775 0.929 . S
S1779 N1780 1.613 . S
S1779 N1781 1.610 . S
N1780 S1779 1.613 . S
N1780 C1783 1.350 . S
N1781 S1779 1.610 . S
N1781 C1782 1.351 . S
C1782 C1776 1.428 . S
C1782 N1781 1.351 . S
C1782 C1783 1.434 . S
C1783 C1774 1.429 . S
C1783 N1780 1.350 . S
C1783 C1782 1.434 . S
C1784 C1785 1.369 . S
C1784 C1786 1.419 . S
C1784 H1788 0.930 . S
C1785 C1784 1.369 . S
C1785 C1794 1.429 . S
C1786 C1784 1.419 . S
C1786 C1787 1.363 . S
C1786 H1789 0.929 . S
C1787 C1786 1.363 . S
C1787 C1793 1.428 . S
H1788 C1784 0.930 . S
H1789 C1786 0.929 . S
S1790 N1791 1.613 . S
S1790 N1792 1.610 . S
N1791 S1790 1.613 . S
N1791 C1794 1.350 . S
N1792 S1790 1.610 . S
N1792 C1793 1.351 . S
C1793 C1787 1.428 . S
C1793 N1792 1.351 . S
C1793 C1794 1.434 . S
C1794 C1785 1.429 . S
C1794 N1791 1.350 . S
C1794 C1793 1.434 . S
C1795 C1796 1.369 . S
C1795 C1797 1.419 . S
C1795 H1799 0.930 . S
C1796 C1795 1.369 . S
C1796 C1805 1.429 . S
C1797 C1795 1.419 . S
C1797 C1798 1.363 . S
C1797 H1800 0.929 . S
C1798 C1797 1.363 . S
C1798 C1804 1.428 . S
H1799 C1795 0.930 . S
H1800 C1797 0.929 . S
S1801 N1802 1.613 . S
S1801 N1803 1.610 . S
N1802 S1801 1.613 . S
N1802 C1805 1.350 . S
N1803 S1801 1.610 . S
N1803 C1804 1.351 . S
C1804 C1798 1.428 . S
C1804 N1803 1.351 . S
C1804 C1805 1.434 . S
C1805 C1796 1.429 . S
C1805 N1802 1.350 . S
C1805 C1804 1.434 . S
C1806 C1807 1.369 . S
C1806 C1808 1.419 . S
C1806 H1810 0.930 . S
C1807 C1806 1.369 . S
C1807 C1816 1.429 . S
C1808 C1806 1.419 . S
C1808 C1809 1.363 . S
C1808 H1811 0.929 . S
C1809 C1808 1.363 . S
C1809 C1815 1.428 . S
H1810 C1806 0.930 . S
H1811 C1808 0.929 . S
S1812 N1813 1.613 . S
S1812 N1814 1.610 . S
N1813 S1812 1.613 . S
N1813 C1816 1.350 . S
N1814 S1812 1.610 . S
N1814 C1815 1.351 . S
C1815 C1809 1.428 . S
C1815 N1814 1.351 . S
C1815 C1816 1.434 . S
C1816 C1807 1.429 . S
C1816 N1813 1.350 . S
C1816 C1815 1.434 . S
C1817 C1818 1.369 . S
C1817 C1819 1.419 . S
C1817 H1821 0.930 . S
C1818 C1817 1.369 . S
C1818 C1827 1.429 . S
C1819 C1817 1.419 . S
C1819 C1820 1.363 . S
C1819 H1822 0.929 . S
C1820 C1819 1.363 . S
C1820 C1826 1.428 . S
H1821 C1817 0.930 . S
H1822 C1819 0.929 . S
S1823 N1824 1.613 . S
S1823 N1825 1.610 . S
N1824 S1823 1.613 . S
N1824 C1827 1.350 . S
N1825 S1823 1.610 . S
N1825 C1826 1.351 . S
C1826 C1820 1.428 . S
C1826 N1825 1.351 . S
C1826 C1827 1.434 . S
C1827 C1818 1.429 . S
C1827 N1824 1.350 . S
C1827 C1826 1.434 . S
C1828 C1829 1.369 . S
C1828 C1830 1.419 . S
C1828 H1832 0.930 . S
C1829 C1828 1.369 . S
C1829 C1838 1.429 . S
C1830 C1828 1.419 . S
C1830 C1831 1.363 . S
C1830 H1833 0.929 . S
C1831 C1830 1.363 . S
C1831 C1837 1.428 . S
H1832 C1828 0.930 . S
H1833 C1830 0.929 . S
S1834 N1835 1.613 . S
S1834 N1836 1.610 . S
N1835 S1834 1.613 . S
N1835 C1838 1.350 . S
N1836 S1834 1.610 . S
N1836 C1837 1.351 . S
C1837 C1831 1.428 . S
C1837 N1836 1.351 . S
C1837 C1838 1.434 . S
C1838 C1829 1.429 . S
C1838 N1835 1.350 . S
C1838 C1837 1.434 . S
C1839 C1840 1.369 . S
C1839 C1841 1.419 . S
C1839 H1843 0.930 . S
C1840 C1839 1.369 . S
C1840 C1849 1.429 . S
C1841 C1839 1.419 . S
C1841 C1842 1.363 . S
C1841 H1844 0.929 . S
C1842 C1841 1.363 . S
C1842 C1848 1.428 . S
H1843 C1839 0.930 . S
H1844 C1841 0.929 . S
S1845 N1846 1.613 . S
S1845 N1847 1.610 . S
N1846 S1845 1.613 . S
N1846 C1849 1.350 . S
N1847 S1845 1.610 . S
N1847 C1848 1.351 . S
C1848 C1842 1.428 . S
C1848 N1847 1.351 . S
C1848 C1849 1.434 . S
C1849 C1840 1.429 . S
C1849 N1846 1.350 . S
C1849 C1848 1.434 . S
C1850 C1851 1.369 . S
C1850 C1852 1.419 . S
C1850 H1854 0.930 . S
C1851 C1850 1.369 . S
C1851 C1860 1.429 . S
C1852 C1850 1.419 . S
C1852 C1853 1.363 . S
C1852 H1855 0.929 . S
C1853 C1852 1.363 . S
C1853 C1859 1.428 . S
H1854 C1850 0.930 . S
H1855 C1852 0.929 . S
S1856 N1857 1.613 . S
S1856 N1858 1.610 . S
N1857 S1856 1.613 . S
N1857 C1860 1.350 . S
N1858 S1856 1.610 . S
N1858 C1859 1.351 . S
C1859 C1853 1.428 . S
C1859 N1858 1.351 . S
C1859 C1860 1.434 . S
C1860 C1851 1.429 . S
C1860 N1857 1.350 . S
C1860 C1859 1.434 . S
C1861 C1862 1.369 . S
C1861 C1863 1.419 . S
C1861 H1865 0.930 . S
C1862 C1861 1.369 . S
C1862 C1871 1.429 . S
C1863 C1861 1.419 . S
C1863 C1864 1.363 . S
C1863 H1866 0.929 . S
C1864 C1863 1.363 . S
C1864 C1870 1.428 . S
H1865 C1861 0.930 . S
H1866 C1863 0.929 . S
S1867 N1868 1.613 . S
S1867 N1869 1.610 . S
N1868 S1867 1.613 . S
N1868 C1871 1.350 . S
N1869 S1867 1.610 . S
N1869 C1870 1.351 . S
C1870 C1864 1.428 . S
C1870 N1869 1.351 . S
C1870 C1871 1.434 . S
C1871 C1862 1.429 . S
C1871 N1868 1.350 . S
C1871 C1870 1.434 . S
C1345 C67 1.509 . S
C1347 C823 1.509 . S
C1356 C151 1.510 . S
C1358 C739 1.507 . S
C1367 C991 1.507 . S
C1369 C235 1.509 . S
C1378 C319 1.505 . S
C1380 C907 1.508 . S
C1389 C1148 1.510 . S
C1391 C392 1.507 . S
C1400 C1064 1.507 . S
C1402 C476 1.505 . S
C1411 C1316 1.506 . S
C1413 C560 1.505 . S
C1422 C644 1.508 . S
C1424 C1232 1.506 . S
C1433 C242 1.700 . S
C1435 C74 1.701 . S
C1444 C326 1.701 . S
C1446 C158 1.701 . S
C1455 C567 1.701 . S
C1457 C399 1.700 . S
C1466 C483 1.700 . S
C1468 C651 1.701 . S
C1477 C914 1.701 . S
C1479 C746 1.700 . S
C1488 C998 1.701 . S
C1490 C830 1.700 . S
C1499 C1071 1.700 . S
C1501 C1239 1.701 . S
C1510 C1155 1.700 . S
C1512 C1323 1.700 . S
C1521 C494 1.671 . S
C1523 C63 1.672 . S
C1532 C410 1.674 . S
C1534 C147 1.675 . S
C1543 C231 1.676 . S
C1545 C662 1.676 . S
C1554 C578 1.678 . S
C1556 C315 1.678 . S
C1565 C735 1.673 . S
C1567 C1166 1.674 . S
C1576 C1082 1.679 . S
C1578 C819 1.678 . S
C1587 C903 1.676 . S
C1589 C1334 1.676 . S
C1598 C1250 1.672 . S
C1600 C987 1.673 . S
C1609 C140 1.502 . S
C1611 C56 1.503 . S
C1620 C308 1.500 . S
C1622 C224 1.501 . S
C1631 C487 1.501 . S
C1633 C403 1.501 . S
C1642 C571 1.503 . S
C1644 C655 1.503 . S
C1653 C812 1.502 . S
C1655 C728 1.502 . S
C1664 C980 1.504 . S
C1666 C896 1.504 . S
C1675 C1075 1.501 . S
C1677 C1159 1.502 . S
C1686 C1243 1.501 . S
C1688 C1327 1.502 . S
C1697 C69 1.318 . S
C1699 C58 1.309 . S
C1708 C153 1.313 . S
C1710 C142 1.314 . S
C1719 C237 1.322 . S
C1721 C226 1.306 . S
C1730 C310 1.314 . S
C1732 C321 1.313 . S
C1741 C394 1.303 . S
C1743 C405 1.320 . S
C1752 C489 1.321 . S
C1754 C478 1.306 . S
C1763 C562 1.316 . S
C1765 C573 1.311 . S
C1774 C646 1.316 . S
C1776 C657 1.310 . S
C1785 C730 1.304 1_545 S
C1787 C741 1.319 . S
C1796 C825 1.307 . S
C1798 C814 1.317 1_565 S
C1807 C898 1.306 1_565 S
C1809 C909 1.318 . S
C1818 C982 1.318 1_545 S
C1820 C993 1.308 . S
C1829 C1066 1.322 . S
C1831 C1077 1.305 1_565 S
C1840 C1150 1.307 . S
C1842 C1161 1.317 1_545 S
C1851 C1245 1.323 1_545 S
C1853 C1234 1.305 . S
C1862 C1318 1.316 . S
C1864 C1329 1.311 1_565 S
