# Generated by pormake.
# Topology wia, (6)-cn, num edge types: 1
# Building blocks:
#     Node 0, Type 0, BuildingBlock: KUMBUR_clean_sbu_1, # of connection points: 6
#     Node 1, Type 0, BuildingBlock: KUMBUR_clean_sbu_1, # of connection points: 6
#     Node 2, Type 0, BuildingBlock: KUMBUR_clean_sbu_1, # of connection points: 6
#     Node 3, Type 0, BuildingBlock: KUMBUR_clean_sbu_1, # of connection points: 6
#     Node 4, Type 0, BuildingBlock: KUMBUR_clean_sbu_1, # of connection points: 6
#     Node 5, Type 0, BuildingBlock: KUMBUR_clean_sbu_1, # of connection points: 6
#     Node 6, Type 0, BuildingBlock: KUMBUR_clean_sbu_1, # of connection points: 6
#     Node 7, Type 0, BuildingBlock: KUMBUR_clean_sbu_1, # of connection points: 6
#     Node 8, Type 0, BuildingBlock: KUMBUR_clean_sbu_1, # of connection points: 6
#     Node 9, Type 0, BuildingBlock: KUMBUR_clean_sbu_1, # of connection points: 6
#     Node 10, Type 0, BuildingBlock: KUMBUR_clean_sbu_1, # of connection points: 6
#     Node 11, Type 0, BuildingBlock: KUMBUR_clean_sbu_1, # of connection points: 6
#     Node 12, Type 0, BuildingBlock: KUMBUR_clean_sbu_1, # of connection points: 6
#     Node 13, Type 0, BuildingBlock: KUMBUR_clean_sbu_1, # of connection points: 6
#     Node 14, Type 0, BuildingBlock: KUMBUR_clean_sbu_1, # of connection points: 6
#     Node 15, Type 0, BuildingBlock: KUMBUR_clean_sbu_1, # of connection points: 6
#     Edge 16, Type (0, 0), BuildingBlock: CIFDUS_clean_linker_0, # of connection points: 2
#     Edge 17, Type (0, 0), BuildingBlock: CIFDUS_clean_linker_0, # of connection points: 2
#     Edge 18, Type (0, 0), BuildingBlock: CIFDUS_clean_linker_0, # of connection points: 2
#     Edge 19, Type (0, 0), BuildingBlock: CIFDUS_clean_linker_0, # of connection points: 2
#     Edge 20, Type (0, 0), BuildingBlock: CIFDUS_clean_linker_0, # of connection points: 2
#     Edge 21, Type (0, 0), BuildingBlock: CIFDUS_clean_linker_0, # of connection points: 2
#     Edge 22, Type (0, 0), BuildingBlock: CIFDUS_clean_linker_0, # of connection points: 2
#     Edge 23, Type (0, 0), BuildingBlock: CIFDUS_clean_linker_0, # of connection points: 2
#     Edge 24, Type (0, 0), BuildingBlock: CIFDUS_clean_linker_0, # of connection points: 2
#     Edge 25, Type (0, 0), BuildingBlock: CIFDUS_clean_linker_0, # of connection points: 2
#     Edge 26, Type (0, 0), BuildingBlock: CIFDUS_clean_linker_0, # of connection points: 2
#     Edge 27, Type (0, 0), BuildingBlock: CIFDUS_clean_linker_0, # of connection points: 2
#     Edge 28, Type (0, 0), BuildingBlock: CIFDUS_clean_linker_0, # of connection points: 2
#     Edge 29, Type (0, 0), BuildingBlock: CIFDUS_clean_linker_0, # of connection points: 2
#     Edge 30, Type (0, 0), BuildingBlock: CIFDUS_clean_linker_0, # of connection points: 2
#     Edge 31, Type (0, 0), BuildingBlock: CIFDUS_clean_linker_0, # of connection points: 2
#     Edge 32, Type (0, 0), BuildingBlock: CIFDUS_clean_linker_0, # of connection points: 2
#     Edge 33, Type (0, 0), BuildingBlock: CIFDUS_clean_linker_0, # of connection points: 2
#     Edge 34, Type (0, 0), BuildingBlock: CIFDUS_clean_linker_0, # of connection points: 2
#     Edge 35, Type (0, 0), BuildingBlock: CIFDUS_clean_linker_0, # of connection points: 2
#     Edge 36, Type (0, 0), BuildingBlock: CIFDUS_clean_linker_0, # of connection points: 2
#     Edge 37, Type (0, 0), BuildingBlock: CIFDUS_clean_linker_0, # of connection points: 2
#     Edge 38, Type (0, 0), BuildingBlock: CIFDUS_clean_linker_0, # of connection points: 2
#     Edge 39, Type (0, 0), BuildingBlock: CIFDUS_clean_linker_0, # of connection points: 2
#     Edge 40, Type (0, 0), BuildingBlock: CIFDUS_clean_linker_0, # of connection points: 2
#     Edge 41, Type (0, 0), BuildingBlock: CIFDUS_clean_linker_0, # of connection points: 2
#     Edge 42, Type (0, 0), BuildingBlock: CIFDUS_clean_linker_0, # of connection points: 2
#     Edge 43, Type (0, 0), BuildingBlock: CIFDUS_clean_linker_0, # of connection points: 2
#     Edge 44, Type (0, 0), BuildingBlock: CIFDUS_clean_linker_0, # of connection points: 2
#     Edge 45, Type (0, 0), BuildingBlock: CIFDUS_clean_linker_0, # of connection points: 2
#     Edge 46, Type (0, 0), BuildingBlock: CIFDUS_clean_linker_0, # of connection points: 2
#     Edge 47, Type (0, 0), BuildingBlock: CIFDUS_clean_linker_0, # of connection points: 2
#     Edge 48, Type (0, 0), BuildingBlock: CIFDUS_clean_linker_0, # of connection points: 2
#     Edge 49, Type (0, 0), BuildingBlock: CIFDUS_clean_linker_0, # of connection points: 2
#     Edge 50, Type (0, 0), BuildingBlock: CIFDUS_clean_linker_0, # of connection points: 2
#     Edge 51, Type (0, 0), BuildingBlock: CIFDUS_clean_linker_0, # of connection points: 2
#     Edge 52, Type (0, 0), BuildingBlock: CIFDUS_clean_linker_0, # of connection points: 2
#     Edge 53, Type (0, 0), BuildingBlock: CIFDUS_clean_linker_0, # of connection points: 2
#     Edge 54, Type (0, 0), BuildingBlock: CIFDUS_clean_linker_0, # of connection points: 2
#     Edge 55, Type (0, 0), BuildingBlock: CIFDUS_clean_linker_0, # of connection points: 2
#     Edge 56, Type (0, 0), BuildingBlock: CIFDUS_clean_linker_0, # of connection points: 2
#     Edge 57, Type (0, 0), BuildingBlock: CIFDUS_clean_linker_0, # of connection points: 2
#     Edge 58, Type (0, 0), BuildingBlock: CIFDUS_clean_linker_0, # of connection points: 2
#     Edge 59, Type (0, 0), BuildingBlock: CIFDUS_clean_linker_0, # of connection points: 2
#     Edge 60, Type (0, 0), BuildingBlock: CIFDUS_clean_linker_0, # of connection points: 2
#     Edge 61, Type (0, 0), BuildingBlock: CIFDUS_clean_linker_0, # of connection points: 2
#     Edge 62, Type (0, 0), BuildingBlock: CIFDUS_clean_linker_0, # of connection points: 2
#     Edge 63, Type (0, 0), BuildingBlock: CIFDUS_clean_linker_0, # of connection points: 2
# Relax obj value: 0.535
# Max RMSD: 0.305
# Mean RMSD: 0.239
data_MOF--net-wia--node1-KUMBUR_clean_sbu_1--edge1-CIFDUS_clean_linker_0
_symmetry_space_group_name_H-M    P1
_symmetry_Int_Tables_number       1
_symmetry_cell_setting            triclinic
loop_
_symmetry_equiv_pos_as_xyz
'x, y, z'
_cell_length_a     28.288484
_cell_length_b     28.50626
_cell_length_c     81.010634
_cell_angle_alpha  107.19098
_cell_angle_beta   89.340967
_cell_angle_gamma 98.658297
loop_
_atom_site_label
_atom_site_type_symbol
_atom_site_fract_x
_atom_site_fract_y
_atom_site_fract_z
_atom_type_partial_charge
Tb0 Tb 0.13242 0.64602 0.21076 0.0
C1 C 1.02912 0.48138 0.14493 0.0
N2 N 0.06652 0.51911 0.14767 0.0
C3 C 0.1102 0.46874 0.12561 0.0
C4 C 1.03125 0.43531 0.13247 0.0
C5 C 0.10675 0.51357 0.13823 0.0
C6 C 0.07231 0.42942 0.1227 0.0
C7 C 0.9507 0.44944 0.153 0.0
C8 C 0.98921 0.48859 0.15514 0.0
C9 C 0.9526 0.40355 0.14049 0.0
C10 C 0.99267 0.39657 0.13024 0.0
Tb11 Tb 0.05396 0.5914 0.16722 0.0
N12 N 0.98858 0.53353 0.16729 0.0
C13 C 0.9113 0.45749 0.16347 0.0
C14 C 0.94934 0.54196 0.17709 0.0
C15 C 0.91058 0.50393 0.17549 0.0
H16 H 0.13574 0.54403 0.14009 0.0
H17 H 0.87978 0.51071 0.1834 0.0
H18 H 0.08573 0.58292 0.23665 0.0
H19 H 0.22075 0.83611 0.22697 0.0
H20 H 0.94666 0.57793 0.18589 0.0
H21 H 0.88105 0.42828 0.16224 0.0
H22 H 0.20531 0.74728 0.20984 0.0
H23 H 0.14197 0.46467 0.11806 0.0
H24 H 0.92324 0.37313 0.13867 0.0
H25 H 0.99361 0.3609 0.12071 0.0
H26 H 0.05171 0.60091 0.26578 0.0
H27 H 0.07517 0.39465 0.11293 0.0
H28 H 0.17764 0.86572 0.25395 0.0
N29 N 0.10148 0.6589 0.23759 0.0
C30 C 0.10391 0.70677 0.24748 0.0
C31 C 0.06584 0.63109 0.26071 0.0
C32 C 0.0853 0.71904 0.26415 0.0
C33 C 0.08499 0.62099 0.24422 0.0
C34 C 0.06492 0.68034 0.27056 0.0
N35 N 0.15191 0.72789 0.2264 0.0
C36 C 0.18611 0.76012 0.22153 0.0
C37 C 0.1385 0.79275 0.25202 0.0
C38 C 0.13018 0.74287 0.2416 0.0
C39 C 0.1703 0.82696 0.24636 0.0
C40 C 0.19489 0.81035 0.23118 0.0
H41 H 0.05029 0.68806 0.28333 0.0
H42 H 0.07578 0.77954 0.28697 0.0
H43 H 0.12234 0.84429 0.27627 0.0
O44 O 0.19101 0.60802 0.2027 0.0
O45 O 0.10944 0.70999 0.20185 0.0
O46 O 0.07201 0.67634 0.17449 0.0
O47 O 0.18816 0.65538 0.22886 0.0
O48 O 0.16318 0.66464 0.18842 0.0
O49 O 0.12879 0.59102 0.1718 0.0
O50 O 0.99801 0.5985 0.15208 0.0
O51 O 0.07102 0.52921 0.17688 0.0
O52 O 0.10848 0.56047 0.20427 0.0
O53 O 0.07064 0.60384 0.14334 0.0
O54 O 1.01977 0.63413 0.1895 0.0
O55 O 0.05904 0.60904 0.20864 0.0
C56 C 0.08971 0.71642 0.1877 0.0
C57 C 0.2295 0.58771 0.22496 0.0
C58 C 0.29363 0.56773 0.2403 0.0
C59 C 0.26503 0.52264 0.24003 0.0
C60 C 0.20117 0.54285 0.225 0.0
C61 C 0.21911 0.51033 0.23237 0.0
C62 C 0.27567 0.5997 0.2325 0.0
C63 C 0.15966 0.63063 0.17365 0.0
C64 C 0.21148 0.6242 0.21809 0.0
C65 C 0.09036 0.76918 0.27419 0.0
C66 C 0.11691 0.80606 0.26811 0.0
C67 C 0.08973 0.52144 0.19069 0.0
C68 C 1.00816 0.56283 0.12226 0.0
C69 C 0.93915 0.51931 0.10298 0.0
C70 C 0.97071 0.50722 0.08925 0.0
C71 C 1.03872 0.55102 0.1084 0.0
C72 C 0.95934 0.54328 0.11968 0.0
C73 C 1.02011 0.52181 0.09211 0.0
C74 C 1.02477 0.63065 0.20505 0.0
C75 C 1.02549 0.59882 0.13904 0.0
H76 H 0.27763 0.49752 0.24612 0.0
H77 H 0.16521 0.53288 0.21959 0.0
H78 H 0.19702 0.47586 0.2324 0.0
H79 H 0.29747 0.63436 0.23243 0.0
H80 H 0.95774 0.48908 0.07608 0.0
H81 H 0.0767 0.56498 0.11006 0.0
H82 H 0.93668 0.54975 0.1307 0.0
H83 H 1.04378 0.51296 0.08141 0.0
Tb84 Tb 0.84312 0.91785 0.45955 0.0
C85 C 0.8382 0.93217 0.38249 0.0
N86 N 0.86788 0.9295 0.39507 0.0
C87 C 0.9045 0.86786 0.37405 0.0
C88 C 0.83901 0.90144 0.3653 0.0
C89 C 0.9025 0.89945 0.39086 0.0
C90 C 0.87218 0.86835 0.36126 0.0
C91 C 0.77725 0.97273 0.37421 0.0
C92 C 0.80805 0.96715 0.38681 0.0
C93 C 0.77663 0.94127 0.35715 0.0
C94 C 0.80746 0.90559 0.35271 0.0
Tb95 Tb 0.85895 0.98074 0.42256 0.0
N96 N 0.81003 0.99681 0.40336 0.0
C97 C 0.74846 1.01006 0.37914 0.0
C98 C 0.78349 0.03458 0.40812 0.0
C99 C 0.75198 0.04149 0.39614 0.0
H100 H 0.92796 0.89838 0.4005 0.0
H101 H 0.73039 0.07095 0.40002 0.0
H102 H 0.73701 0.85658 0.46309 0.0
H103 H 0.97034 0.02728 0.51126 0.0
H104 H 0.78623 0.05886 0.42127 0.0
H105 H 0.72391 1.01527 0.36991 0.0
H106 H 0.94621 0.97066 0.48245 0.0
H107 H 0.93109 0.84324 0.37098 0.0
H108 H 0.75292 0.9446 0.34729 0.0
H109 H 0.80716 0.88198 0.33948 0.0
H110 H 0.67163 0.86523 0.48393 0.0
H111 H 0.87401 0.84403 0.34824 0.0
H112 H 0.90926 0.05292 0.53281 0.0
N113 N 0.7842 0.91762 0.47912 0.0
C114 C 0.79227 0.95152 0.49487 0.0
C115 C 0.70535 0.89003 0.48716 0.0
C116 C 0.75668 0.95759 0.5073 0.0
C117 C 0.7423 0.88519 0.4754 0.0
C118 C 0.71225 0.92707 0.50308 0.0
N119 N 0.87123 0.96508 0.48694 0.0
C120 C 0.91872 0.98131 0.49148 0.0
C121 C 0.85012 1.00841 0.51579 0.0
C122 C 0.8379 0.97636 0.49899 0.0
C123 C 0.89825 0.02813 0.52005 0.0
C124 C 0.93281 1.01357 0.50795 0.0
H125 H 0.68381 0.93053 0.51224 0.0
H126 H 0.7405 0.99796 0.53342 0.0
H127 H 0.82264 0.04226 0.54089 0.0
O128 O 0.87435 0.8564 0.44567 0.0
O129 O 0.87725 0.99258 0.46168 0.0
O130 O 0.83094 1.02284 0.44641 0.0
O131 O 0.84613 0.86116 0.47099 0.0
O132 O 0.92144 0.93377 0.45339 0.0
O133 O 0.92964 0.95912 0.42859 0.0
O134 O 0.89106 0.03616 0.41162 0.0
O135 O 0.85609 0.90276 0.42011 0.0
O136 O 0.7981 0.8811 0.4364 0.0
O137 O 0.91753 0.0305 0.43588 0.0
O138 O 0.77952 0.97759 0.43112 0.0
O139 O 0.77064 0.93355 0.45158 0.0
C140 C 0.85052 1.0255 0.46118 0.0
C141 C 0.83981 0.78208 0.45057 0.0
C142 C 0.83755 0.69611 0.44995 0.0
C143 C 0.792 0.68435 0.44156 0.0
C144 C 0.79399 0.77022 0.44261 0.0
C145 C 0.77083 0.72117 0.43767 0.0
C146 C 0.86233 0.74466 0.45329 0.0
C147 C 0.94903 0.94643 0.44135 0.0
C148 C 0.8638 0.8334 0.45723 0.0
C149 C 0.76745 0.99216 0.52371 0.0
C150 C 0.81423 1.01751 0.52796 0.0
C151 C 0.81521 0.87634 0.42117 0.0
C152 C 0.94232 0.1071 0.43015 0.0
C153 C 0.98065 0.17957 0.42224 0.0
C154 C 0.98838 0.20621 0.43984 0.0
C155 C 0.95057 0.13394 0.44773 0.0
C156 C 0.95807 0.12986 0.41764 0.0
C157 C 0.97361 0.18326 0.4525 0.0
C158 C 0.75126 0.95685 0.44163 0.0
C159 C 0.92328 0.05375 0.42426 0.0
H160 H 0.77122 0.64767 0.43902 0.0
H161 H 0.77569 0.79858 0.44047 0.0
H162 H 0.73534 0.71216 0.43164 0.0
H163 H 0.89796 0.75442 0.45928 0.0
H164 H 1.00426 0.24503 0.44374 0.0
H165 H 0.93979 0.11682 0.45772 0.0
H166 H 0.95077 0.10896 0.40414 0.0
H167 H 0.97941 0.20396 0.46605 0.0
Tb168 Tb 0.62256 0.60833 0.66533 0.0
C169 C 0.55371 0.5795 0.73397 0.0
N170 N 0.52578 0.56706 0.71936 0.0
C171 C 0.48772 0.49352 0.72576 0.0
C172 C 0.5523 0.54768 0.74443 0.0
C173 C 0.49072 0.52633 0.71575 0.0
C174 C 0.51951 0.50359 0.73991 0.0
C175 C 0.60616 0.64313 0.75523 0.0
C176 C 0.57955 0.62668 0.73942 0.0
C177 C 0.60884 0.6099 0.76487 0.0
C178 C 0.58165 0.56227 0.75953 0.0
Tb179 Tb 0.53769 0.62134 0.70312 0.0
N180 N 0.57439 0.65799 0.73006 0.0
C181 C 0.62708 0.69307 0.76128 0.0
C182 C 0.59051 0.70784 0.73684 0.0
C183 C 0.61821 0.72582 0.75225 0.0
H184 H 0.46694 0.5179 0.70458 0.0
H185 H 0.63266 0.76491 0.75713 0.0
H186 H 0.65165 0.69441 0.64665 0.0
H187 H 0.51166 0.42625 0.63602 0.0
H188 H 0.58408 0.73361 0.73002 0.0
H189 H 0.64815 0.70715 0.7733 0.0
H190 H 0.53733 0.50221 0.65898 0.0
H191 H 0.46124 0.46031 0.72246 0.0
H192 H 0.62978 0.62151 0.7769 0.0
H193 H 0.58194 0.53791 0.76756 0.0
H194 H 0.66677 0.70102 0.61723 0.0
H195 H 0.51715 0.47815 0.74763 0.0
H196 H 0.53981 0.41689 0.60644 0.0
N197 N 0.62983 0.61618 0.6381 0.0
C198 C 0.62104 0.57488 0.62441 0.0
C199 C 0.654 0.66521 0.61905 0.0
C200 C 0.62887 0.5767 0.60737 0.0
C201 C 0.64508 0.66139 0.63567 0.0
C202 C 0.64646 0.62253 0.60483 0.0
N203 N 0.58752 0.53545 0.64411 0.0
C204 C 0.55373 0.49859 0.6468 0.0
C205 C 0.58302 0.48975 0.61352 0.0
C206 C 0.59921 0.53233 0.62754 0.0
C207 C 0.55332 0.45006 0.61682 0.0
C208 C 0.53745 0.4552 0.63347 0.0
H209 H 0.65294 0.62559 0.59196 0.0
H210 H 0.62295 0.53369 0.58028 0.0
H211 H 0.58212 0.45734 0.58569 0.0
O212 O 0.68803 0.60071 0.65334 0.0
O213 O 0.55351 0.63015 0.66369 0.0
O214 O 0.51124 0.57887 0.67665 0.0
O215 O 0.68046 0.66617 0.67459 0.0
O216 O 0.61678 0.53726 0.67409 0.0
O217 O 0.55759 0.54188 0.69463 0.0
O218 O 0.47664 0.64349 0.69506 0.0
O219 O 0.60888 0.66079 0.70425 0.0
O220 O 0.64791 0.60119 0.68951 0.0
O221 O 0.4835 0.63892 0.72088 0.0
O222 O 0.5615 0.69793 0.69928 0.0
O223 O 0.60074 0.68729 0.67329 0.0
C224 C 0.51535 0.59874 0.66384 0.0
C225 C 0.75991 0.64736 0.66875 0.0
C226 C 0.83756 0.62703 0.65842 0.0
C227 C 0.86065 0.66824 0.67132 0.0
C228 C 0.78319 0.68972 0.68132 0.0
C229 C 0.83327 0.69898 0.68301 0.0
C230 C 0.78762 0.61497 0.65808 0.0
C231 C 0.58918 0.51614 0.68464 0.0
C232 C 0.70928 0.64316 0.66351 0.0
C233 C 0.61676 0.53334 0.59347 0.0
C234 C 0.59374 0.48982 0.59655 0.0
C235 C 0.64447 0.63693 0.70348 0.0
C236 C 0.40662 0.61929 0.70803 0.0
C237 C 0.32654 0.61675 0.71878 0.0
C238 C 0.31336 0.56896 0.70728 0.0
C239 C 0.3936 0.57138 0.69654 0.0
C240 C 0.3729 0.64197 0.71896 0.0
C241 C 0.34685 0.54655 0.69603 0.0
C242 C 0.58166 0.71731 0.68709 0.0
C243 C 0.45551 0.64562 0.70948 0.0
H244 H 0.8992 0.67816 0.6717 0.0
H245 H 0.76306 0.71709 0.68912 0.0
H246 H 0.85085 0.73192 0.69263 0.0
H247 H 0.77025 0.58301 0.64794 0.0
H248 H 0.27767 0.54884 0.70726 0.0
H249 H 0.41966 0.55299 0.68823 0.0
H250 H 0.38327 0.67847 0.72816 0.0
H251 H 0.33693 0.50953 0.68722 0.0
Tb252 Tb 0.86301 0.51426 0.93084 0.0
C253 C 0.88329 0.52675 0.00355 0.0
N254 N 0.90423 0.49763 -0.01016 0.0
C255 C 0.98116 0.53031 0.0045 0.0
C256 C 0.91062 0.56001 0.01788 0.0
C257 C 0.95249 0.49718 -0.00923 0.0
C258 C 0.96026 0.56251 0.01797 0.0
C259 C 0.81045 0.54764 0.0181 0.0
C260 C 0.83398 0.52132 0.00362 0.0
C261 C 0.83748 0.58195 0.03211 0.0
C262 C 0.8875 0.58838 0.03194 0.0
Tb263 Tb 0.85229 0.44773 0.96736 0.0
N264 N 0.809 0.48807 -0.01021 0.0
C265 C 0.76056 0.53755 0.01828 0.0
C266 C 0.76057 0.4758 -0.00953 0.0
C267 C 0.73559 0.50078 0.00452 0.0
H268 H 0.96966 0.47053 -0.01856 0.0
H269 H 0.69718 0.491 0.00484 0.0
H270 H 0.75293 0.49913 0.91371 0.0
H271 H 1.02829 0.5131 0.89587 0.0
H272 H 0.7411 0.44553 -0.01945 0.0
H273 H 0.74119 0.55664 0.02921 0.0
H274 H 0.97646 0.54439 0.92008 0.0
H275 H 1.01937 0.53014 0.00486 0.0
H276 H 0.82006 0.60288 0.04326 0.0
H277 H 0.90798 0.61426 0.04299 0.0
H278 H 0.70904 0.45073 0.88664 0.0
H279 H 0.98254 0.58757 0.02871 0.0
H280 H 0.99336 0.45055 0.869 0.0
N281 N 0.82013 0.47722 0.9052 0.0
C282 C 0.84469 0.45545 0.89133 0.0
C283 C 0.74715 0.45096 0.88785 0.0
C284 C 0.8213 0.42827 0.87534 0.0
C285 C 0.77222 0.47777 0.90337 0.0
C286 C 0.77163 0.42507 0.87387 0.0
N287 N 0.91382 0.49504 0.90808 0.0
C288 C 0.96116 0.51517 0.90879 0.0
C289 C 0.92139 0.4467 0.87843 0.0
C290 C 0.89367 0.46429 0.89289 0.0
C291 C 0.97075 0.46289 0.87982 0.0
C292 C 0.99055 0.49825 0.89495 0.0
H293 H 0.75223 0.40463 0.86182 0.0
H294 H 0.83118 0.38512 0.84894 0.0
H295 H 0.91926 0.4014 0.85163 0.0
O296 O 0.88437 0.57431 0.92132 0.0
O297 O 0.82869 0.43826 0.92573 0.0
O298 O 0.87376 0.40819 0.94196 0.0
O299 O 0.83027 0.57873 0.94025 0.0
O300 O 0.93732 0.50159 0.93906 0.0
O301 O 0.92679 0.44713 0.95583 0.0
O302 O 0.80811 0.38045 0.96629 0.0
O303 O 0.83584 0.52023 0.96927 0.0
O304 O 0.89883 0.5457 0.95586 0.0
O305 O 0.87095 0.40657 -0.01682 0.0
O306 O 0.78016 0.43955 0.95385 0.0
O307 O 0.78571 0.5022 0.94046 0.0
C308 C 0.85278 0.40439 0.92725 0.0
C309 C 0.82687 0.62549 0.92034 0.0
C310 C 0.82344 0.66 0.8962 0.0
C311 C 0.78169 0.67889 0.90264 0.0
C312 C 0.78493 0.64438 0.92663 0.0
C313 C 0.7625 0.67089 0.91777 0.0
C314 C 0.84595 0.63408 0.90528 0.0
C315 C 0.95583 0.47264 0.94703 0.0
C316 C 0.85361 0.60068 0.92998 0.0
C317 C 0.84847 0.40698 0.86125 0.0
C318 C 0.89858 0.41613 0.8628 0.0
C319 C 0.87058 0.55485 0.96868 0.0
C320 C 0.80391 0.36504 -0.00672 0.0
C321 C 0.76213 0.30322 0.00553 0.0
C322 C 0.75976 0.34031 0.02133 0.0
C323 C 0.80434 0.40111 0.00946 0.0
C324 C 0.78035 0.31698 -0.00883 0.0
C325 C 0.78035 0.38927 0.02317 0.0
C326 C 0.75875 0.46873 0.94692 0.0
C327 C 0.83198 0.37457 0.97896 0.0
H328 H 0.76391 0.69946 0.89595 0.0
H329 H 0.7699 0.63931 0.93845 0.0
H330 H 0.73031 0.68555 0.92272 0.0
H331 H 0.87945 0.62156 0.90076 0.0
H332 H 0.74638 0.33088 0.03271 0.0
H333 H 0.82448 0.43775 0.01177 0.0
H334 H 0.78172 0.28875 0.97886 0.0
H335 H 0.78079 0.41724 0.03559 0.0
Tb336 Tb 0.12234 0.71219 0.83471 0.0
C337 C 0.0724 0.58417 0.75839 0.0
N338 N 0.08459 0.6342 0.76511 0.0
C339 C 0.12692 0.63724 0.7395 0.0
C340 C 0.08863 0.55837 0.74221 0.0
C341 C 0.1095 0.66117 0.75554 0.0
C342 C 0.11732 0.58551 0.73296 0.0
C343 C 1.02347 0.50823 0.76004 0.0
C344 C 1.04036 0.55937 0.76713 0.0
C345 C 1.04133 0.48181 0.74434 0.0
C346 C 0.07393 0.50683 0.73545 0.0
Tb347 Tb 0.05375 0.66909 0.79138 0.0
N348 N 1.02434 0.58607 0.78239 0.0
C349 C 0.98822 0.48564 0.76872 0.0
C350 C 0.98692 0.56528 0.79004 0.0
C351 C 0.96926 0.51452 0.78362 0.0
H352 H 0.11509 0.70129 0.76013 0.0
H353 H 0.94068 0.49786 0.79005 0.0
H354 H 1.04697 0.69428 0.86564 0.0
H355 H 0.23299 0.87591 0.82726 0.0
H356 H 0.97122 0.5879 0.80116 0.0
H357 H 0.97429 0.4464 0.76371 0.0
H358 H 0.1995 0.7866 0.81887 0.0
H359 H 0.14706 0.65876 0.73205 0.0
H360 H 1.02921 0.44236 0.73875 0.0
H361 H 0.08632 0.48629 0.7231 0.0
H362 H 1.01478 0.74684 0.89167 0.0
H363 H 0.13045 0.56716 0.72046 0.0
H364 H 0.20645 0.9335 0.85377 0.0
N365 N 0.08928 0.75504 0.8594 0.0
C366 C 0.10604 0.80475 0.86487 0.0
C367 C 1.04012 0.76362 0.88416 0.0
C368 C 0.08962 0.83592 0.88008 0.0
C369 C 0.05789 0.73399 0.86912 0.0
C370 C 0.05581 0.8148 0.88961 0.0
N371 N 0.15326 0.79409 0.84009 0.0
C372 C 0.18746 0.81152 0.83038 0.0
C373 C 0.15815 0.87585 0.86045 0.0
C374 C 0.13998 0.82468 0.85519 0.0
C375 C 0.19174 0.89436 0.85019 0.0
C376 C 0.20666 0.862 0.83516 0.0
H377 H 1.04217 0.83753 0.90134 0.0
H378 H 0.09524 0.9115 0.89699 0.0
H379 H 0.15514 0.94637 0.87981 0.0
O380 O 0.19639 0.71844 0.83662 0.0
O381 O 0.08917 0.77237 0.82676 0.0
O382 O 0.08175 0.75199 0.79717 0.0
O383 O 0.15234 0.70453 0.85727 0.0
O384 O 0.15529 0.67847 0.81078 0.0
O385 O 0.12507 0.71009 0.79176 0.0
O386 O 0.98138 0.67689 0.79294 0.0
O387 O 0.07897 0.60405 0.79932 0.0
O388 O 0.10283 0.62768 0.82832 0.0
O389 O 1.0193 0.67656 0.76962 0.0
O390 O 1.0197 0.69435 0.81617 0.0
O391 O 0.05502 0.66653 0.83536 0.0
C392 C 0.08597 0.78704 0.81251 0.0
C393 C 0.22808 0.67761 0.85359 0.0
C394 C 0.30796 0.67246 0.86258 0.0
C395 C 0.29726 0.62021 0.85678 0.0
C396 C 0.21723 0.62566 0.84774 0.0
C397 C 0.2521 0.59703 0.84925 0.0
C398 C 0.27335 0.7005 0.86051 0.0
C399 C 0.16137 0.69654 0.79783 0.0
C400 C 0.19545 0.71037 0.85159 0.0
C401 C 0.10753 0.88702 0.88534 0.0
C402 C 0.14176 0.90689 0.87558 0.0
C403 C 0.09158 0.59148 0.81336 0.0
C404 C 0.95206 0.7179 0.77507 0.0
C405 C 0.87691 0.73236 0.76482 0.0
C406 C 0.88998 0.78368 0.77294 0.0
C407 C 0.96499 0.76889 0.78328 0.0
C408 C 0.90928 0.70031 0.76548 0.0
C409 C 0.93415 0.80179 0.78196 0.0
C410 C 1.01651 0.67006 0.82756 0.0
C411 C 0.97906 0.68055 0.77736 0.0
H412 H 0.32312 0.59743 0.85846 0.0
H413 H 0.18242 0.6075 0.84194 0.0
H414 H 0.244 0.55689 0.84474 0.0
H415 H 0.28157 0.74078 0.86443 0.0
H416 H 0.86587 0.80957 0.77267 0.0
H417 H 0.99812 0.78298 0.79084 0.0
H418 H 0.90079 0.66084 0.75884 0.0
H419 H 0.94391 0.8412 0.78832 0.0
Tb420 Tb 0.82591 0.84319 0.08163 0.0
C421 C 0.89065 0.85232 0.00566 0.0
N422 N 0.89756 0.89025 0.0205 0.0
C423 C 0.97175 0.9226 0.01041 0.0
C424 C 0.92499 0.84653 -0.00723 0.0
C425 C 0.93635 0.92652 0.02276 0.0
C426 C 0.96645 0.88191 -0.00454 0.0
C427 C 0.83661 0.78367 -0.01283 0.0
C428 C 0.84721 0.82197 0.00288 0.0
C429 C 0.87172 0.77533 0.97466 0.0
C430 C 0.91586 0.80692 0.97743 0.0
Tb431 Tb 0.84047 0.8928 0.0407 0.0
N432 N 0.81423 0.83238 0.01515 0.0
C433 C 0.79062 0.75617 -0.0157 0.0
C434 C 0.76825 0.80767 0.01186 0.0
C435 C 0.75608 0.7688 -0.00341 0.0
H436 H 0.94046 0.95781 0.03435 0.0
H437 H 0.72004 0.74852 -0.00565 0.0
H438 H 0.76311 0.93257 0.1022 0.0
H439 H 0.95314 0.7545 0.10539 0.0
H440 H 0.74089 0.81639 0.02114 0.0
H441 H 0.78105 0.72621 0.97246 0.0
H442 H 0.89748 0.76535 0.08385 0.0
H443 H 1.00307 0.95087 0.01244 0.0
H444 H 0.8645 0.74573 0.96259 0.0
H445 H 0.94201 0.80136 0.96743 0.0
H446 H 0.76362 0.99322 0.13098 0.0
H447 H 0.99374 0.87902 -0.01413 0.0
H448 H 0.96112 0.8129 0.13508 0.0
N449 N 0.82068 0.89944 0.10839 0.0
C450 C 0.85012 0.89753 0.12116 0.0
C451 C 0.78839 0.96665 0.12838 0.0
C452 C 0.85116 0.93104 0.13795 0.0
C453 C 0.78839 0.9321 0.112 0.0
C454 C 0.82037 0.96658 0.14137 0.0
N455 N 0.87549 0.82959 0.10112 0.0
C456 C 0.90105 0.79101 0.09677 0.0
C457 C 0.90934 0.8563 0.13014 0.0
C458 C 0.87867 0.86112 0.11736 0.0
C459 C 0.93684 0.81776 0.12568 0.0
C460 C 0.93243 0.78475 0.10893 0.0
H461 H 0.82028 0.99337 0.15402 0.0
H462 H 0.8847 0.95336 0.1636 0.0
H463 H 0.93519 0.88746 0.15683 0.0
O464 O 0.79179 0.79318 0.09447 0.0
O465 O 0.82744 0.91759 0.08019 0.0
O466 O 0.88511 0.93717 0.06352 0.0
O467 O 0.76613 0.79284 0.06941 0.0
O468 O 0.90553 0.84632 0.0724 0.0
O469 O 0.91319 0.88152 0.04933 0.0
O470 O 0.814 0.95943 0.05207 0.0
O471 O 0.80899 0.82324 0.04408 0.0
O472 O 0.85433 0.79412 0.05959 0.0
O473 O 0.82975 0.93659 0.02482 0.0
O474 O 0.76295 0.88052 0.04752 0.0
O475 O 0.75628 0.86609 0.07447 0.0
C476 C 0.86832 0.94362 0.07893 0.0
C477 C 0.7417 0.71928 0.07683 0.0
C478 C 0.7356 0.63833 0.08179 0.0
C479 C 0.70041 0.61868 0.06846 0.0
C480 C 0.70592 0.69912 0.06366 0.0
C481 C 0.68566 0.64909 0.05947 0.0
C482 C 0.75623 0.68872 0.08585 0.0
C483 C 0.93307 0.86306 0.06067 0.0
C484 C 0.75955 0.77307 0.08193 0.0
C485 C 0.88253 0.92752 0.15071 0.0
C486 C 0.9114 0.89 0.14685 0.0
C487 C 0.83759 0.79208 0.04457 0.0
C488 C 0.84708 1.02093 0.03962 0.0
C489 C 0.85981 0.09365 0.02977 0.0
C490 C 0.9024 0.1111 0.03987 0.0
C491 C 0.88923 0.03875 0.05002 0.0
C492 C 0.83246 0.04859 0.02964 0.0
C493 C 0.91687 0.08368 0.05007 0.0
C494 C 0.73638 0.87397 0.06067 0.0
C495 C 0.81927 0.97234 0.03793 0.0
H496 H 0.68436 0.57994 0.06504 0.0
H497 H 0.69318 0.72225 0.05673 0.0
H498 H 0.65828 0.63393 0.04927 0.0
H499 H 0.78412 0.704 0.09589 0.0
H500 H 0.9237 0.14628 0.04017 0.0
H501 H 0.90124 1.01803 0.05792 0.0
H502 H 0.79992 0.0348 0.0216 0.0
H503 H 0.94943 0.09726 0.05802 0.0
Tb504 Tb 0.64042 0.68803 0.2951 0.0
C505 C 0.60512 0.74364 0.37319 0.0
N506 N 0.59587 0.70181 0.35961 0.0
C507 C 0.63113 0.65668 0.3759 0.0
C508 C 0.62976 0.74433 0.38834 0.0
C509 C 0.60661 0.65791 0.36117 0.0
C510 C 0.64354 0.70026 0.38943 0.0
C511 C 0.59491 0.82928 0.38614 0.0
C512 C 0.58793 0.78531 0.37212 0.0
C513 C 0.62184 0.83121 0.40084 0.0
C514 C 0.6391 0.78871 0.40199 0.0
Tb515 Tb 0.56003 0.70979 0.33526 0.0
N516 N 0.56213 0.78186 0.3577 0.0
C517 C 0.57366 0.86954 0.38511 0.0
C518 C 0.53786 0.81958 0.3573 0.0
C519 C 0.54428 0.86425 0.37076 0.0
H520 H 0.59758 0.62355 0.35107 0.0
H521 H 0.52648 0.8945 0.37008 0.0
H522 H 0.70547 0.78752 0.28825 0.0
H523 H 0.55043 0.52486 0.24663 0.0
H524 H 0.51423 0.81562 0.34641 0.0
H525 H 0.57833 0.90412 0.39555 0.0
H526 H 0.59673 0.56947 0.27363 0.0
H527 H 0.64045 0.622 0.37677 0.0
H528 H 0.6286 0.86507 0.41149 0.0
H529 H 0.65888 0.79031 0.41357 0.0
H530 H 0.70485 0.83543 0.26723 0.0
H531 H 0.66265 0.69923 0.40081 0.0
H532 H 0.53165 0.57019 0.22638 0.0
N533 N 0.64806 0.7319 0.27536 0.0
C534 C 0.61944 0.7127 0.26092 0.0
C535 C 0.68028 0.80116 0.26538 0.0
C536 C 0.61821 0.73813 0.24846 0.0
C537 C 0.68061 0.77399 0.27721 0.0
C538 C 0.64816 0.78371 0.25113 0.0
N539 N 0.60252 0.64048 0.26935 0.0
C540 C 0.58885 0.59006 0.26505 0.0
C541 C 0.56974 0.6408 0.24204 0.0
C542 C 0.5957 0.66493 0.25776 0.0
C543 C 0.55183 0.59017 0.23831 0.0
C544 C 0.56255 0.56442 0.24967 0.0
H545 H 0.6483 0.8045 0.24188 0.0
H546 H 0.5871 0.73518 0.22376 0.0
H547 H 0.54448 0.64969 0.21813 0.0
O548 O 0.69917 0.6641 0.30405 0.0
O549 O 0.56512 0.65785 0.29464 0.0
O550 O 0.53561 0.72267 0.31202 0.0
O551 O 0.69767 0.67298 0.27855 0.0
O552 O 0.62268 0.61527 0.30259 0.0
O553 O 0.56919 0.62837 0.32496 0.0
O554 O 0.49989 0.71086 0.35089 0.0
O555 O 0.6335 0.69634 0.33446 0.0
O556 O 0.66647 0.74448 0.31912 0.0
O557 O 0.49968 0.65522 0.32565 0.0
O558 O 0.57528 0.78176 0.32669 0.0
O559 O 0.62744 0.77015 0.3038 0.0
C560 C 0.53326 0.68764 0.29738 0.0
C561 C 0.77219 0.69278 0.29336 0.0
C562 C 0.85362 0.70231 0.28374 0.0
C563 C 0.8651 0.74646 0.2973 0.0
C564 C 0.7839 0.73698 0.30701 0.0
C565 C 0.83027 0.76352 0.30897 0.0
C566 C 0.80731 0.6755 0.28186 0.0
C567 C 0.59422 0.59776 0.31361 0.0
C568 C 0.72341 0.66511 0.29038 0.0
C569 C 0.58921 0.71595 0.23338 0.0
C570 C 0.56494 0.66728 0.23017 0.0
C571 C 0.66621 0.73231 0.33336 0.0
C572 C 0.42679 0.65113 0.34169 0.0
C573 C 0.35598 0.6553 0.35903 0.0
C574 C 0.32998 0.61723 0.34576 0.0
C575 C 0.40093 0.61226 0.32851 0.0
C576 C 0.40426 0.67164 0.35695 0.0
C577 C 0.35277 0.59526 0.33063 0.0
C578 C 0.60125 0.79998 0.31514 0.0
C579 C 0.47604 0.67288 0.33935 0.0
H580 H 0.90078 0.76762 0.2988 0.0
H581 H 0.7574 0.75127 0.31604 0.0
H582 H 0.83902 0.79766 0.31941 0.0
H583 H 0.79835 0.64174 0.27119 0.0
H584 H 0.29232 0.60512 0.34704 0.0
H585 H 0.41751 0.5958 0.31649 0.0
H586 H 0.42366 0.70236 0.36704 0.0
H587 H 0.33282 0.56581 0.32035 0.0
Tb588 Tb 0.81628 0.3752 0.5349 0.0
C589 C 0.87664 0.3507 0.60774 0.0
N590 N 0.87327 0.31617 0.59202 0.0
C591 C 0.93823 0.28124 0.60008 0.0
C592 C 0.91262 0.35359 0.62003 0.0
C593 C 0.9018 0.27997 0.58835 0.0
C594 C 0.9443 0.31885 0.61587 0.0
C595 C 0.84141 0.41469 0.62856 0.0
C596 C 0.84135 0.38029 0.61198 0.0
C597 C 0.87889 0.42014 0.64053 0.0
C598 C 0.91441 0.38954 0.63629 0.0
Tb599 Tb 0.81365 0.31777 0.57356 0.0
N600 N 0.80526 0.37291 0.60019 0.0
C601 C 0.80313 0.44148 0.63275 0.0
C602 C 0.76609 0.39635 0.6047 0.0
C603 C 0.76498 0.43172 0.62084 0.0
H604 H 0.89743 0.25124 0.57605 0.0
H605 H 0.73459 0.45129 0.6241 0.0
H606 H 0.70594 0.33442 0.51686 0.0
H607 H 0.98056 0.39419 0.50109 0.0
H608 H 0.73614 0.38911 0.59571 0.0
H609 H 0.80205 0.46868 0.64528 0.0
H610 H 0.9226 0.42104 0.52396 0.0
H611 H 0.96169 0.25337 0.59691 0.0
H612 H 0.87994 0.44685 0.65326 0.0
H613 H 0.94219 0.39291 0.64585 0.0
H614 H 0.66887 0.27471 0.4901 0.0
H615 H 0.97244 0.3197 0.62496 0.0
H616 H 0.95607 0.32007 0.47592 0.0
N617 N 0.77747 0.32514 0.50957 0.0
C618 C 0.80547 0.30464 0.49656 0.0
C619 C 0.70744 0.28232 0.49183 0.0
C620 C 0.78589 0.2703 0.48095 0.0
C621 C 0.72879 0.31611 0.50711 0.0
C622 C 0.73609 0.25846 0.47883 0.0
N623 N 0.86884 0.35957 0.51282 0.0
C624 C 0.91267 0.38763 0.51332 0.0
C625 C 0.88413 0.30633 0.48469 0.0
C626 C 0.85349 0.32219 0.49839 0.0
C627 C 0.93122 0.33108 0.48612 0.0
C628 C 0.94512 0.37295 0.50028 0.0
H629 H 0.71949 0.23241 0.46701 0.0
H630 H 0.8024 0.22352 0.4558 0.0
H631 H 0.88891 0.25522 0.45909 0.0
O632 O 0.82185 0.42731 0.52086 0.0
O633 O 0.78463 0.30137 0.53454 0.0
O634 O 0.83928 0.27786 0.54877 0.0
O635 O 0.78529 0.43935 0.54538 0.0
O636 O 0.89224 0.36708 0.54351 0.0
O637 O 0.89171 0.33169 0.56624 0.0
O638 O 0.77434 0.24627 0.56229 0.0
O639 O 0.8036 0.3913 0.57351 0.0
O640 O 0.85919 0.41851 0.5577 0.0
O641 O 0.78716 0.2758 0.58983 0.0
O642 O 0.73897 0.32905 0.56713 0.0
O643 O 0.73995 0.36699 0.54517 0.0
C644 C 0.81416 0.27075 0.53464 0.0
C645 C 0.79247 0.50601 0.53227 0.0
C646 C 0.81876 0.57832 0.52266 0.0
C647 C 0.78931 0.60546 0.53473 0.0
C648 C 0.76261 0.53318 0.54412 0.0
C649 C 0.76116 0.58278 0.54533 0.0
C650 C 0.82003 0.5286 0.52146 0.0
C651 C 0.91597 0.35082 0.55476 0.0
C652 C 0.80149 0.45765 0.53315 0.0
C653 C 0.81659 0.25076 0.46776 0.0
C654 C 0.86584 0.26871 0.46965 0.0
C655 C 0.84123 0.42285 0.57275 0.0
C656 C 0.79257 0.19197 0.57775 0.0
C657 C 0.81249 0.14539 0.59669 0.0
C658 C 0.84332 0.12162 0.58448 0.0
C659 C 0.82362 0.16833 0.56544 0.0
C660 C 0.78596 0.17874 0.59291 0.0
C661 C 0.84858 0.13299 0.5688 0.0
C662 C 0.71585 0.3481 0.55684 0.0
C663 C 0.77323 0.23632 0.57695 0.0
H664 H 0.78719 0.64379 0.53569 0.0
H665 H 0.74138 0.51658 0.55274 0.0
H666 H 0.73841 0.60376 0.55456 0.0
H667 H 0.84384 0.50812 0.51251 0.0
H668 H 0.86408 0.09573 0.58726 0.0
H669 H 0.83017 0.17855 0.55367 0.0
H670 H 0.76232 0.19729 0.60249 0.0
H671 H 0.87337 0.1158 0.55952 0.0
Tb672 Tb 0.31018 0.32855 0.58054 0.0
C673 C 0.37393 0.37414 0.51024 0.0
N674 N 0.37537 0.40768 0.52609 0.0
C675 C 0.44713 0.45363 0.51924 0.0
C676 C 0.4104 0.37722 0.49847 0.0
C677 C 0.41007 0.44844 0.53052 0.0
C678 C 0.44796 0.41715 0.50332 0.0
C679 C 0.32751 0.30666 0.48845 0.0
C680 C 0.33325 0.33992 0.50533 0.0
C681 C 0.36535 0.3064 0.47704 0.0
C682 C 0.40678 0.34185 0.48203 0.0
Tb683 Tb 0.31709 0.39333 0.54446 0.0
N684 N 0.29744 0.34284 0.51663 0.0
C685 C 0.28318 0.27669 0.48331 0.0
C686 C 0.25288 0.31657 0.51116 0.0
C687 C 0.24535 0.28262 0.49458 0.0
H688 H 0.40991 0.47591 0.54301 0.0
H689 H 0.21041 0.26083 0.49057 0.0
H690 H 0.22376 0.37153 0.6061 0.0
H691 H 0.46275 0.25742 0.59795 0.0
H692 H 0.22309 0.32012 0.51961 0.0
H693 H 0.27723 0.25048 0.47047 0.0
H694 H 0.39592 0.26004 0.57889 0.0
H695 H 0.47535 0.48531 0.52294 0.0
H696 H 0.36203 0.28057 0.4641 0.0
H697 H 0.43482 0.34288 0.47286 0.0
H698 H 0.21487 0.41464 0.63684 0.0
H699 H 0.4767 0.4211 0.49464 0.0
H700 H 0.4709 0.31202 0.62824 0.0
N701 N 0.29677 0.36401 0.60922 0.0
C702 C 0.33266 0.36873 0.62073 0.0
C703 C 0.2485 0.40241 0.63247 0.0
C704 C 0.3293 0.39291 0.63849 0.0
C705 C 0.25389 0.37814 0.61494 0.0
C706 C 0.28681 0.41092 0.64426 0.0
N707 N 0.36811 0.31701 0.59798 0.0
C708 C 0.39927 0.28392 0.5921 0.0
C709 C 0.40725 0.34399 0.62624 0.0
C710 C 0.37043 0.34453 0.61478 0.0
C711 C 0.44181 0.31347 0.6199 0.0
C712 C 0.43715 0.28242 0.60284 0.0
H713 H 0.28263 0.42972 0.6578 0.0
H714 H 0.36635 0.4157 0.66355 0.0
H715 H 0.43516 0.37281 0.65275 0.0
O716 O 0.28061 0.26902 0.58956 0.0
O717 O 0.30353 0.40585 0.58521 0.0
O718 O 0.3585 0.43309 0.56869 0.0
O719 O 0.25409 0.27684 0.56581 0.0
O720 O 0.38935 0.34273 0.57217 0.0
O721 O 0.39291 0.38327 0.55076 0.0
O722 O 0.28359 0.45237 0.55912 0.0
O723 O 0.29089 0.31711 0.54247 0.0
O724 O 0.34131 0.28962 0.55688 0.0
O725 O 0.29904 0.44348 0.53219 0.0
O726 O 0.24034 0.3655 0.54892 0.0
O727 O 0.24265 0.35988 0.57674 0.0
C728 C 0.34106 0.43701 0.58401 0.0
C729 C 0.24437 0.19575 0.56797 0.0
C730 C 0.25397 0.11439 0.56964 0.0
C731 C 0.21946 0.09187 0.55631 0.0
C732 C 0.21039 0.17324 0.5543 0.0
C733 C 0.1984 0.12142 0.5484 0.0
C734 C 0.26692 0.16595 0.57517 0.0
C735 C 0.41516 0.36311 0.56104 0.0
C736 C 0.25101 0.24968 0.57617 0.0
C737 C 0.36759 0.39623 0.6499 0.0
C738 C 0.40673 0.37184 0.64375 0.0
C739 C 0.32228 0.28803 0.5422 0.0
C740 C 0.30951 0.52429 0.5508 0.0
C741 C 0.33307 0.5945 0.54003 0.0
C742 C 0.36356 0.6178 0.55464 0.0
C743 C 0.34029 0.54729 0.5654 0.0
C744 C 0.30514 0.54873 0.53852 0.0
C745 C 0.36685 0.59422 0.56736 0.0
C746 C 0.21745 0.36142 0.563 0.0
C747 C 0.28616 0.47271 0.54665 0.0
H748 H 0.20866 0.05195 0.55222 0.0
H749 H 0.19203 0.19571 0.5486 0.0
H750 H 0.17175 0.1043 0.53805 0.0
H751 H 0.29244 0.18284 0.58596 0.0
H752 H 0.38567 0.65328 0.55594 0.0
H753 H 0.34465 0.52887 0.57506 0.0
H754 H 0.2814 0.53082 0.52726 0.0
H755 H 0.39094 0.61167 0.57849 0.0
Tb756 Tb 0.33773 0.87825 0.03734 0.0
C757 C 0.38521 0.85735 0.11141 0.0
N758 N 0.38383 0.82129 0.0961 0.0
C759 C 0.44604 0.78759 0.10648 0.0
C760 C 0.41904 0.86181 0.12462 0.0
C761 C 0.41153 0.78475 0.09382 0.0
C762 C 0.45056 0.82698 0.1218 0.0
C763 C 0.34767 0.92282 0.13046 0.0
C764 C 0.34973 0.88676 0.11434 0.0
C765 C 0.38314 0.92985 0.14333 0.0
C766 C 0.41875 0.89928 0.14043 0.0
Tb767 Tb 0.32855 0.82086 0.07583 0.0
N768 N 0.31557 0.87782 0.10171 0.0
C769 C 0.30975 0.95024 0.13322 0.0
C770 C 0.2763 0.90169 0.10496 0.0
C771 C 0.27399 0.93959 0.12037 0.0
H772 H 0.40781 0.75425 0.08197 0.0
H773 H 0.24494 0.96098 0.12223 0.0
H774 H 0.22606 0.84072 0.02047 0.0
H775 H 0.50493 0.87009 0.00369 0.0
H776 H 0.24786 0.8938 0.09533 0.0
H777 H 0.30746 0.9792 0.14524 0.0
H778 H 0.45106 0.90623 0.02643 0.0
H779 H 0.46908 0.75946 0.1044 0.0
H780 H 0.3826 0.95789 0.15571 0.0
H781 H 0.44491 0.90389 0.15067 0.0
H782 H 0.18563 0.78397 -0.006 0.0
H783 H 0.4771 0.82902 0.13162 0.0
H784 H 0.47292 0.79938 0.97845 0.0
N785 N 0.29635 0.82706 0.01265 0.0
C786 C 0.32257 0.80401 -0.00054 0.0
C787 C 0.22422 0.78882 -0.00458 0.0
C788 C 0.30069 0.7708 -0.01602 0.0
C789 C 0.2476 0.82112 0.01055 0.0
C790 C 0.25081 0.76291 -0.01784 0.0
N791 N 0.39012 0.85219 0.01559 0.0
C792 C 0.43702 0.8736 0.01601 0.0
C793 C 0.40043 0.79589 -0.01261 0.0
C794 C 0.37145 0.81636 0.00114 0.0
C795 C 0.44941 0.81401 -0.01128 0.0
C796 C 0.46758 0.85389 0.00294 0.0
H797 H 0.23261 0.73791 0.97045 0.0
H798 H 0.31323 0.72146 0.9588 0.0
H799 H 0.40089 0.74351 0.96178 0.0
O800 O 0.355 0.9266 0.0224 0.0
O801 O 0.30351 0.80528 0.03697 0.0
O802 O 0.35578 0.77965 0.0514 0.0
O803 O 0.30477 0.94206 0.04271 0.0
O804 O 0.41266 0.87296 0.04778 0.0
O805 O 0.4059 0.82979 0.06836 0.0
O806 O 0.28421 0.75277 0.06445 0.0
O807 O 0.32093 0.89507 0.07566 0.0
O808 O 0.37776 0.92317 0.06059 0.0
O809 O 0.3048 0.77649 0.09165 0.0
O810 O 0.25514 0.82996 0.0681 0.0
O811 O 0.26108 0.87544 0.04826 0.0
C812 C 0.33137 0.77329 0.03717 0.0
C813 C 0.29249 0.96542 0.01762 0.0
C814 C 0.28626 0.99833 -0.00642 0.0
C815 C 0.23748 0.97841 -0.00871 0.0
C816 C 0.24339 0.94648 0.01564 0.0
C817 C 0.21606 0.9529 0.00243 0.0
C818 C 0.31344 0.99193 0.00676 0.0
C819 C 0.43309 0.85207 0.05834 0.0
C820 C 0.32408 0.95481 0.02973 0.0
C821 C 0.32933 0.74771 0.97067 0.0
C822 C 0.37923 0.76013 0.9724 0.0
C823 C 0.35832 0.92741 0.07537 0.0
C824 C 0.29999 0.69178 0.07718 0.0
C825 C 0.29342 0.62342 0.08959 0.0
C826 C 0.32281 0.59896 0.0769 0.0
C827 C 0.32887 0.66728 0.06426 0.0
C828 C 0.28445 0.67072 0.08996 0.0
C829 C 0.34084 0.62133 0.06436 0.0
C830 C 0.23438 0.85265 0.05852 0.0
C831 C 0.28582 0.74001 0.07852 0.0
H832 H 0.21589 0.98375 -0.01877 0.0
H833 H 0.22637 0.9264 0.02409 0.0
H834 H 0.17829 0.9381 0.00083 0.0
H835 H 0.3513 1.00695 0.00837 0.0
H836 H 0.33117 0.56285 0.07655 0.0
H837 H 0.34248 0.68363 0.05434 0.0
H838 H 0.26432 0.69166 0.10032 0.0
H839 H 0.36373 0.60293 0.0546 0.0
Tb840 Tb 0.35007 0.42723 0.95666 0.0
C841 C 0.34284 0.43841 0.88034 0.0
N842 N 0.37508 0.4388 0.89262 0.0
C843 C 0.41041 0.37563 0.87173 0.0
C844 C 0.34157 0.40523 0.86347 0.0
C845 C 0.41037 0.40959 0.88822 0.0
C846 C 0.37534 0.37282 0.85936 0.0
C847 C 0.27906 0.47574 0.87226 0.0
C848 C 0.31228 0.47291 0.88461 0.0
C849 C 0.2761 0.4416 0.85559 0.0
C850 C 0.30731 0.40629 0.85121 0.0
Tb851 Tb 0.3669 0.49121 0.92006 0.0
N852 N 0.31655 0.5051 0.90078 0.0
C853 C 0.25046 0.51328 0.87699 0.0
C854 C 0.29061 0.54336 0.90522 0.0
C855 C 0.25683 0.54776 0.89346 0.0
H856 H 0.43778 0.41069 0.89752 0.0
H857 H 0.23549 0.57747 0.89715 0.0
H858 H 0.24672 0.35656 0.9553 0.0
H859 H 0.46291 0.53998 0.01202 0.0
H860 H 0.29518 0.56964 0.91804 0.0
H861 H 0.22403 0.51644 0.86797 0.0
H862 H 0.44573 0.49086 -0.01823 0.0
H863 H 0.43748 0.35159 0.86859 0.0
H864 H 0.25038 0.44268 0.84595 0.0
H865 H 0.30526 0.38063 0.83825 0.0
H866 H 0.1793 0.34926 0.97466 0.0
H867 H 0.37545 0.34652 0.84659 0.0
H868 H 0.39848 0.54703 0.03299 0.0
N869 N 0.28829 0.41612 0.9742 0.0
C870 C 0.29246 0.44493 -0.00916 0.0
C871 C 0.21087 0.37654 0.97937 0.0
C872 C 0.25552 0.44177 0.00245 0.0
C873 C 0.249 0.38072 0.96846 0.0
C874 C 0.21385 0.40772 -0.0036 0.0
N875 N 0.37087 0.47213 -0.01506 0.0
C876 C 0.41666 0.49394 -0.00946 0.0
C877 C 0.344 0.5014 0.01406 0.0
C878 C 0.33565 0.4742 -0.00353 0.0
C879 C 0.39018 0.52624 0.01959 0.0
C880 C 0.42677 0.52197 0.0078 0.0
H881 H 0.18454 0.40411 0.00489 0.0
H882 H 0.23435 0.46949 0.02896 0.0
H883 H 0.31217 0.52143 0.03918 0.0
O884 O 0.38125 0.36664 0.94196 0.0
O885 O 0.38509 0.50172 0.95898 0.0
O886 O 0.34013 0.53446 0.94414 0.0
O887 O 0.35913 0.3717 0.96803 0.0
O888 O 0.42979 0.44787 0.95206 0.0
O889 O 0.43516 0.46565 0.92583 0.0
O890 O 0.3991 0.54662 0.90897 0.0
O891 O 0.36412 0.41366 0.91765 0.0
O892 O 0.30507 0.3916 0.93333 0.0
O893 O 0.42609 0.54007 0.93302 0.0
O894 O 0.28841 0.48842 0.92897 0.0
O895 O 0.27704 0.44574 0.94982 0.0
C896 C 0.35932 0.53565 0.95883 0.0
C897 C 0.3515 0.2923 0.94799 0.0
C898 C 0.34251 0.20944 0.95113 0.0
C899 C 0.30517 0.194 0.93844 0.0
C900 C 0.31353 0.27663 0.93564 0.0
C901 C 0.2911 0.22743 0.93068 0.0
C902 C 0.36626 0.25854 0.95553 0.0
C903 C 0.45619 0.4569 0.93911 0.0
C904 C 0.37477 0.34404 0.95381 0.0
C905 C 0.26236 0.47101 0.01982 0.0
C906 C 0.30666 0.50072 0.02563 0.0
C907 C 0.32253 0.3881 0.91821 0.0
C908 C 0.453 0.61619 0.92738 0.0
C909 C 0.49521 0.68752 0.91969 0.0
C910 C 0.50371 0.71348 0.93731 0.0
C911 C 0.46204 0.64237 0.94497 0.0
C912 C 0.47028 0.63866 0.91495 0.0
C913 C 0.48748 0.6907 0.94987 0.0
C914 C 0.25906 0.46908 0.93954 0.0
C915 C 0.43194 0.56336 0.92143 0.0
H916 H 0.28523 0.15674 0.93504 0.0
H917 H 0.30063 0.30219 0.92997 0.0
H918 H 0.26181 0.2155 0.92119 0.0
H919 H 0.39523 0.271 0.96522 0.0
H920 H 0.52121 0.75176 0.9413 0.0
H921 H 0.45013 0.62543 0.95491 0.0
H922 H 0.46239 0.61834 0.90142 0.0
H923 H 0.49395 0.7108 0.96344 0.0
Tb924 Tb 0.35978 1.02198 0.42706 0.0
C925 C 0.3959 1.01237 0.49732 0.0
N926 N 0.4058 0.97625 0.48305 0.0
C927 C 0.4816 0.97662 0.49631 0.0
C928 C 0.43 0.03469 0.51104 0.0
C929 C 0.44637 0.95537 0.48315 0.0
C930 C 0.47396 1.01743 0.51008 0.0
C931 C 0.33686 0.05794 0.51411 0.0
C932 C 0.34981 1.02342 0.49898 0.0
C933 C 0.3717 0.08322 0.52717 0.0
C934 C 0.41821 0.0715 0.52566 0.0
Tb935 Tb 0.34663 0.94908 0.46147 0.0
N936 N 0.31709 0.99852 0.48603 0.0
C937 C 0.28902 0.06502 0.51585 0.0
C938 C 0.26955 1.00204 0.48841 0.0
C939 C 0.25503 0.03607 0.50315 0.0
H940 H 0.45195 0.92226 0.47307 0.0
H941 H 0.21762 0.03997 0.50469 0.0
H942 H 0.25503 1.02327 0.40995 0.0
H943 H 0.52448 1.01204 0.3916 0.0
H944 H 0.24256 0.97943 0.47895 0.0
H945 H 0.2779 0.09172 0.52715 0.0
H946 H 0.47429 0.04577 0.41599 0.0
H947 H 0.51433 0.96103 0.49594 0.0
H948 H 0.36259 0.1105 0.53875 0.0
H949 H 0.44422 0.08968 0.53618 0.0
H950 H 0.20841 0.98122 0.38269 0.0
H951 H 0.50108 0.03346 0.52035 0.0
H952 H 0.48663 0.9536 0.3644 0.0
N953 N 0.31738 0.99178 0.40122 0.0
C954 C 0.34004 0.9673 0.3873 0.0
C955 C 0.24522 0.97607 0.38387 0.0
C956 C 0.31571 0.94376 0.37122 0.0
C957 C 0.27139 0.99912 0.39945 0.0
C958 C 0.26716 0.94708 0.36978 0.0
N959 N 0.40997 0.99986 0.40419 0.0
C960 C 0.45794 1.01714 0.40482 0.0
C961 C 0.4153 0.95254 0.37423 0.0
C962 C 0.38865 0.97116 0.38889 0.0
C963 C 0.46497 0.96584 0.3755 0.0
C964 C 0.48635 0.99912 0.39079 0.0
H965 H 0.24708 0.9297 0.35765 0.0
H966 H 0.32322 0.90107 0.34458 0.0
H967 H 0.41104 0.90917 0.34717 0.0
O968 O 0.38239 0.08298 0.41819 0.0
O969 O 0.32156 0.9465 0.41954 0.0
O970 O 0.36784 0.91667 0.43529 0.0
O971 O 0.32916 0.08724 0.43751 0.0
O972 O 0.43238 1.0094 0.43607 0.0
O973 O 0.42315 0.95064 0.45108 0.0
O974 O 0.30458 0.87828 0.45382 0.0
O975 O 0.33325 1.02335 0.4644 0.0
O976 O 0.39653 0.05227 0.45208 0.0
O977 O 0.34177 0.90621 0.47854 0.0
O978 O 0.27228 0.94982 0.45094 0.0
O979 O 0.28255 1.00902 0.43599 0.0
C980 C 0.33778 0.90904 0.42233 0.0
C981 C 0.32462 0.13434 0.4179 0.0
C982 C 0.31852 0.16689 0.39347 0.0
C983 C 0.27651 0.18499 0.39998 0.0
C984 C 0.28229 0.15221 0.42428 0.0
C985 C 0.25847 0.17749 0.41534 0.0
C986 C 0.34261 0.14266 0.4027 0.0
C987 C 0.45177 0.97959 0.44337 0.0
C988 C 0.35212 0.10945 0.42722 0.0
C989 C 0.34129 0.92029 0.35699 0.0
C990 C 0.39124 0.92479 0.35848 0.0
C991 C 0.36979 0.05752 0.46533 0.0
C992 C 0.3375 0.82252 0.46474 0.0
C993 C 0.34159 0.75049 0.47416 0.0
C994 C 0.38307 0.7422 0.46466 0.0
C995 C 0.38083 0.81645 0.45636 0.0
C996 C 0.31743 0.78895 0.47323 0.0
C997 C 0.40237 0.77505 0.45566 0.0
C998 C 0.25358 0.97866 0.44312 0.0
C999 C 0.31739 0.86801 0.46752 0.0
H1000 H 0.25767 0.20448 0.39318 0.0
H1001 H 0.26793 0.14709 0.43619 0.0
H1002 H 0.226 0.1914 0.42035 0.0
H1003 H 0.37634 0.13088 0.39809 0.0
H1004 H 0.40252 0.71275 0.46524 0.0
H1005 H 0.39872 0.84448 0.45091 0.0
H1006 H 0.28529 0.79547 0.48047 0.0
H1007 H 0.43555 0.7701 0.44905 0.0
Tb1008 Tb 0.63191 0.14125 0.7111 0.0
C1009 C 0.5671 1.01618 0.63615 0.0
N1010 N 0.57488 0.06664 0.64249 0.0
C1011 C 0.60947 0.07276 0.61591 0.0
C1012 C 0.58067 0.99198 0.61937 0.0
C1013 C 0.59437 0.09519 0.63249 0.0
C1014 C 0.60298 1.02095 0.60938 0.0
C1015 C 0.53017 0.93683 0.63939 0.0
C1016 C 0.54306 0.98871 0.64616 0.0
C1017 C 0.54491 0.91244 0.62288 0.0
C1018 C 0.57039 0.9399 0.61294 0.0
Tb1019 Tb 0.55138 0.09773 0.66999 0.0
N1020 N 0.52978 1.01341 0.66225 0.0
C1021 C 0.50139 0.91136 0.64918 0.0
C1022 C 0.49834 0.98938 0.67123 0.0
C1023 C 0.48477 0.93784 0.66502 0.0
H1024 H 0.5986 0.13528 0.63735 0.0
H1025 H 0.46122 0.91864 0.67236 0.0
H1026 H 0.57923 0.11337 0.74504 0.0
H1027 H 0.73611 0.31016 0.70553 0.0
H1028 H 0.48505 1.01014 0.68332 0.0
H1029 H 0.49057 0.87149 0.64438 0.0
H1030 H 0.70459 0.22003 0.69621 0.0
H1031 H 0.62584 0.09542 0.60814 0.0
H1032 H 0.53585 0.87249 0.6175 0.0
H1033 H 0.58075 0.92061 0.6001 0.0
H1034 H 0.55651 0.15965 0.7741 0.0
H1035 H 0.61428 1.00373 0.59646 0.0
H1036 H 0.71169 0.36391 0.7333 0.0
N1037 N 0.6094 0.1785 0.73849 0.0
C1038 C 0.62278 0.22866 0.7443 0.0
C1039 C 0.57483 0.17951 0.76579 0.0
C1040 C 0.61163 0.25637 0.761 0.0
C1041 C 0.58724 0.15347 0.74921 0.0
C1042 C 0.58664 0.23121 0.77165 0.0
N1043 N 0.66085 0.22396 0.71788 0.0
C1044 C 0.69364 0.24355 0.70821 0.0
C1045 C 0.66734 0.30333 0.73974 0.0
C1046 C 0.6501 0.25201 0.7338 0.0
C1047 C 0.69767 0.32458 0.7292 0.0
C1048 C 0.7115 0.29438 0.7135 0.0
H1049 H 0.57728 0.25119 0.78456 0.0
H1050 H 0.61843 0.32994 0.77945 0.0
H1051 H 0.66737 0.37098 0.76086 0.0
O1052 O 0.70436 0.13489 0.7072 0.0
O1053 O 0.60142 0.20448 0.70345 0.0
O1054 O 0.57689 0.18068 0.67445 0.0
O1055 O 0.67322 0.13733 0.73184 0.0
O1056 O 0.65794 0.10846 0.68556 0.0
O1057 O 0.62067 0.13837 0.66737 0.0
O1058 O 0.48111 0.10869 0.67664 0.0
O1059 O 0.58547 0.03665 0.67685 0.0
O1060 O 0.60601 0.05814 0.70591 0.0
O1061 O 0.50222 0.0962 0.65032 0.0
O1062 O 0.53039 0.13057 0.69603 0.0
O1063 O 0.56335 0.10025 0.71443 0.0
C1064 C 0.58868 0.21704 0.68938 0.0
C1065 C 0.73916 0.0955 0.72453 0.0
C1066 C 0.81249 0.07979 0.73557 0.0
C1067 C 0.79612 0.02838 0.72949 0.0
C1068 C 0.72284 0.04429 0.71832 0.0
C1069 C 0.75143 1.01079 0.72083 0.0
C1070 C 0.78351 0.11285 0.73307 0.0
C1071 C 0.65959 0.12762 0.67282 0.0
C1072 C 0.71128 0.13277 0.72279 0.0
C1073 C 0.62694 0.30798 0.7667 0.0
C1074 C 0.65483 0.33138 0.75612 0.0
C1075 C 0.59626 1.02292 0.6907 0.0
C1076 C 0.42249 0.06406 0.6555 0.0
C1077 C 0.33682 0.0479 0.64995 0.0
C1078 C 0.3373 0.99667 0.6461 0.0
C1079 C 0.42332 1.01315 0.64789 0.0
C1080 C 0.37825 0.08101 0.65748 0.0
C1081 C 0.38104 0.97928 0.64457 0.0
C1082 C 0.52485 0.10786 0.70776 0.0
C1083 C 0.46667 0.1003 0.66075 0.0
H1084 H 0.81776 1.00202 0.7314 0.0
H1085 H 0.68833 0.03036 0.71168 0.0
H1086 H 0.73887 0.97123 0.71615 0.0
H1087 H 0.79492 0.15266 0.73821 0.0
H1088 H 0.30538 0.97038 0.64084 0.0
H1089 H 0.45589 0.99943 0.64382 0.0
H1090 H 0.37748 0.12071 0.66135 0.0
H1091 H 0.38225 0.9399 0.63925 0.0
Tb1092 Tb 0.11549 0.11089 0.16714 0.0
C1093 C 1.04691 0.08694 0.23983 0.0
N1094 N 1.02213 0.07203 0.22451 0.0
C1095 C 0.98678 0.99697 0.23046 0.0
C1096 C 1.04448 0.05659 0.25083 0.0
C1097 C 0.99011 0.02889 0.22012 0.0
C1098 C 1.01485 1.01043 0.24572 0.0
C1099 C 0.09312 0.15442 0.26173 0.0
C1100 C 0.07068 0.13483 0.24516 0.0
C1101 C 0.0942 0.12333 0.27229 0.0
C1102 C 0.06984 0.07438 0.26684 0.0
Tb1103 Tb 1.03552 0.12345 0.20733 0.0
N1104 N 0.06729 0.16364 0.23475 0.0
C1105 C 0.11145 0.20514 0.26748 0.0
C1106 C 0.08115 0.21393 0.24094 0.0
C1107 C 0.10444 0.23524 0.25718 0.0
H1108 H 0.969 1.01816 0.20818 0.0
H1109 H 0.11687 0.27484 0.26172 0.0
H1110 H 0.06204 0.18255 0.14902 0.0
H1111 H 0.17726 0.93572 0.13722 0.0
H1112 H 0.07588 0.23766 0.23319 0.0
H1113 H 0.12906 0.22175 0.28011 0.0
H1114 H 0.17841 1.01721 0.15925 0.0
H1115 H 0.96275 0.96198 0.22663 0.0
H1116 H 0.11191 0.1374 0.28497 0.0
H1117 H 0.06915 0.05139 0.27539 0.0
H1118 H 1.01941 0.17315 0.12186 0.0
H1119 H 1.01202 0.98584 0.25377 0.0
H1120 H 0.12852 0.91494 0.11011 0.0
N1121 N 0.07754 0.10813 0.1417 0.0
C1122 C 0.07583 0.06539 0.12854 0.0
C1123 C 1.03488 0.14236 0.12359 0.0
C1124 C 0.0519 0.05855 0.11261 0.0
C1125 C 0.05922 0.14738 0.1391 0.0
C1126 C 1.0306 0.0975 0.11036 0.0
N1127 N 0.12533 0.03922 0.14592 0.0
C1128 C 0.15572 1.00779 0.14771 0.0
C1129 C 0.1006 0.98463 0.11742 0.0
C1130 C 0.10007 0.0293 0.13084 0.0
C1131 C 0.12774 0.95007 0.11997 0.0
C1132 C 0.15559 0.96186 0.13518 0.0
H1133 H 1.01165 0.09368 0.09837 0.0
H1134 H 1.03186 1.00717 0.08717 0.0
H1135 H 0.07435 0.94217 0.09145 0.0
O1136 O 0.17447 0.11965 0.15173 0.0
O1137 O 1.04051 0.11767 0.16803 0.0
O1138 O 1.0124 0.06624 0.18289 0.0
O1139 O 0.16892 0.17315 0.17644 0.0
O1140 O 0.10506 0.03719 0.1752 0.0
O1141 O 0.06017 0.0476 0.19997 0.0
O1142 O 0.97705 0.14324 0.1966 0.0
O1143 O 0.10736 0.16324 0.20884 0.0
O1144 O 0.14332 0.10399 0.19103 0.0
O1145 O 0.97643 0.13911 0.22278 0.0
O1146 O 0.05714 0.19885 0.20238 0.0
O1147 O 0.09534 0.1893 0.17621 0.0
C1148 C 1.01139 0.07861 0.16868 0.0
C1149 C 0.24729 0.16331 0.167 0.0
C1150 C 0.32445 0.13957 0.15723 0.0
C1151 C 0.34764 0.17721 0.17129 0.0
C1152 C 0.27102 0.20231 0.18068 0.0
C1153 C 0.32081 0.20846 0.183 0.0
C1154 C 0.27431 0.1317 0.1556 0.0
C1155 C 0.0841 1.01869 0.18765 0.0
C1156 C 0.1956 0.15932 0.1633 0.0
C1157 C 0.05073 1.01347 0.09939 0.0
C1158 C 0.07486 0.97644 0.10183 0.0
C1159 C 0.14488 0.1413 0.20508 0.0
C1160 C 0.90364 0.11485 0.20691 0.0
C1161 C 0.82111 0.10728 0.21538 0.0
C1162 C 0.81199 0.05914 0.20379 0.0
C1163 C 0.8944 0.06674 0.19521 0.0
C1164 C 0.86689 0.13498 0.21675 0.0
C1165 C 0.84856 0.03914 0.19368 0.0
C1166 C 0.07619 0.21827 0.19005 0.0
C1167 C 0.95163 0.14383 0.2101 0.0
H1168 H 0.38628 0.18358 0.17282 0.0
H1169 H 0.25119 0.22821 0.18948 0.0
H1170 H 0.3387 0.23826 0.19367 0.0
H1171 H 0.25648 0.10192 0.14487 0.0
H1172 H 0.77692 0.03693 0.20276 0.0
H1173 H 0.92245 0.05018 0.18754 0.0
H1174 H 0.8746 0.17154 0.22613 0.0
H1175 H 0.84145 1.00183 0.18494 0.0
Tb1176 Tb 0.62054 0.21952 0.33156 0.0
C1177 C 0.5589 0.08709 0.25623 0.0
N1178 N 0.5749 0.13654 0.26295 0.0
C1179 C 0.61845 0.13628 0.23735 0.0
C1180 C 0.57343 0.0599 0.23996 0.0
C1181 C 0.6019 0.16188 0.25333 0.0
C1182 C 0.60502 0.08487 0.2308 0.0
C1183 C 0.50059 1.01614 0.25704 0.0
C1184 C 0.52347 0.06517 0.26476 0.0
C1185 C 0.51701 0.98789 0.24135 0.0
C1186 C 0.55363 1.00963 0.23289 0.0
Tb1187 Tb 0.54532 0.17376 0.28909 0.0
N1188 N 0.50851 0.09361 0.27993 0.0
C1189 C 0.46031 0.99805 0.26486 0.0
C1190 C 0.46745 0.07754 0.28698 0.0
C1191 C 0.4431 0.02926 0.27971 0.0
H1192 H 0.61079 0.20191 0.258 0.0
H1193 H 0.41108 1.01622 0.2855 0.0
H1194 H 0.54099 0.21875 0.36301 0.0
H1195 H 0.73897 0.36691 0.31619 0.0
H1196 H 0.45354 0.1022 0.29813 0.0
H1197 H 0.44137 0.96073 0.25924 0.0
H1198 H 0.69918 0.28022 0.31107 0.0
H1199 H 0.641 0.15632 0.22999 0.0
H1200 H 0.50039 0.94985 0.23532 0.0
H1201 H 0.56464 0.98798 0.22046 0.0
H1202 H 0.51597 0.28073 0.38824 0.0
H1203 H 0.6172 0.06531 0.21828 0.0
H1204 H 0.71979 0.43285 0.34184 0.0
N1205 N 0.58943 0.27158 0.35465 0.0
C1206 C 0.61142 0.31982 0.35858 0.0
C1207 C 0.54246 0.29224 0.3799 0.0
C1208 C 0.59888 0.35622 0.37326 0.0
C1209 C 0.55614 0.25724 0.36528 0.0
C1210 C 0.5638 0.34189 0.38389 0.0
N1211 N 0.65654 0.29766 0.3332 0.0
C1212 C 0.69 0.30892 0.32211 0.0
C1213 C 0.66856 0.38289 0.35118 0.0
C1214 C 0.64642 0.33315 0.34772 0.0
C1215 C 0.70205 0.39498 0.33963 0.0
C1216 C 0.71285 0.35786 0.32508 0.0
H1217 H 0.55327 0.36877 0.3953 0.0
H1218 H 0.61256 0.43405 0.38815 0.0
H1219 H 0.67312 0.45737 0.36881 0.0
O1220 O 0.69379 0.23069 0.3373 0.0
O1221 O 0.58554 0.27806 0.32273 0.0
O1222 O 0.58114 0.25298 0.29313 0.0
O1223 O 0.64271 0.21301 0.35541 0.0
O1224 O 0.65454 0.18124 0.30851 0.0
O1225 O 0.61873 0.20894 0.28931 0.0
O1226 O 0.48137 0.20475 0.29245 0.0
O1227 O 0.5622 0.1075 0.29803 0.0
O1228 O 0.60897 0.13395 0.32351 0.0
O1229 O 0.506 0.17079 0.26704 0.0
O1230 O 0.51463 0.19874 0.31433 0.0
O1231 O 0.55344 0.175 0.33387 0.0
C1232 C 0.58394 0.29015 0.30788 0.0
C1233 C 0.71904 0.18827 0.35499 0.0
C1234 C 0.79807 0.17994 0.36388 0.0
C1235 C 0.78399 0.12815 0.35972 0.0
C1236 C 0.70474 0.13692 0.35119 0.0
C1237 C 0.73746 0.10681 0.35331 0.0
C1238 C 0.7656 0.20936 0.36103 0.0
C1239 C 0.65343 0.18938 0.29362 0.0
C1240 C 0.68774 0.22119 0.35195 0.0
C1241 C 0.62166 0.40568 0.37689 0.0
C1242 C 0.65627 0.41896 0.36588 0.0
C1243 C 0.58632 0.09652 0.31041 0.0
C1244 C 0.45693 0.23034 0.26885 0.0
C1245 C 0.40428 0.24365 0.24774 0.0
C1246 C 0.42429 0.29422 0.25264 0.0
C1247 C 0.47735 0.2806 0.2736 0.0
C1248 C 0.4208 0.21231 0.25602 0.0
C1249 C 0.46085 0.31248 0.2655 0.0
C1250 C 0.5139 0.17528 0.32589 0.0
C1251 C 0.4735 0.19381 0.27583 0.0
H1252 H 0.80813 0.10453 0.36207 0.0
H1253 H 0.66854 0.12052 0.34665 0.0
H1254 H 0.72651 0.06708 0.35028 0.0
H1255 H 0.77636 0.2492 0.36385 0.0
H1256 H 0.41174 0.31939 0.24657 0.0
H1257 H 0.50582 0.29496 0.2834 0.0
H1258 H 0.4049 0.17343 0.25266 0.0
H1259 H 0.47638 0.35136 0.26918 0.0
Tb1260 Tb 0.13376 0.18627 0.79456 0.0
C1261 C 0.12094 0.24882 0.87613 0.0
N1262 N 0.1191 0.20643 0.86285 0.0
C1263 C 0.17345 0.17713 0.87876 0.0
C1264 C 0.15045 0.25809 0.89102 0.0
C1265 C 0.14354 0.16974 0.86428 0.0
C1266 C 0.17742 0.22179 0.89209 0.0
C1267 C 0.09042 0.32589 0.88873 0.0
C1268 C 0.09137 0.28187 0.87506 0.0
C1269 C 0.12148 0.33678 0.90324 0.0
C1270 C 0.1514 0.30281 0.90441 0.0
Tb1271 Tb 0.07202 0.19974 0.83899 0.0
N1272 N 0.0618 0.26954 0.86092 0.0
C1273 C 0.0575 0.35688 0.88754 0.0
C1274 C 1.02793 0.29839 0.86011 0.0
C1275 C 1.02569 0.34266 0.87325 0.0
H1276 H 0.14122 0.13499 0.85414 0.0
H1277 H 0.99932 0.36564 0.87234 0.0
H1278 H 0.18593 0.29009 0.78698 0.0
H1279 H 1.02206 1.02582 0.75129 0.0
H1280 H 1.00372 0.28825 0.84898 0.0
H1281 H 0.05554 0.39107 0.89775 0.0
H1282 H 0.07808 0.06862 0.77561 0.0
H1283 H 0.19353 0.1484 0.87959 0.0
H1284 H 0.12181 0.37071 0.91376 0.0
H1285 H 0.17449 0.31107 0.91581 0.0
H1286 H 0.17694 0.33658 0.76623 0.0
H1287 H 0.20063 0.22754 0.90326 0.0
H1288 H 0.99906 0.07033 0.73142 0.0
N1289 N 0.13043 0.23069 0.77518 0.0
C1290 C 0.09875 0.21061 0.76163 0.0
C1291 C 0.15453 0.30122 0.7648 0.0
C1292 C 0.09189 0.23607 0.74954 0.0
C1293 C 0.15985 0.27449 0.77646 0.0
C1294 C 0.11973 0.28238 0.75146 0.0
N1295 N 0.08656 0.13888 0.77052 0.0
C1296 C 0.06899 0.08934 0.76729 0.0
C1297 C 1.04427 0.13922 0.74481 0.0
C1298 C 0.07583 0.16293 0.75923 0.0
C1299 C 1.02387 0.08971 0.74221 0.0
C1300 C 1.03684 0.06449 0.75338 0.0
H1301 H 0.11561 0.30314 0.74245 0.0
H1302 H 0.05249 0.23292 0.72633 0.0
H1303 H 1.01028 0.14801 0.72228 0.0
O1304 O 0.19938 0.16984 0.80157 0.0
O1305 O 0.06488 0.15215 0.80001 0.0
O1306 O 1.03036 0.2101 0.8184 0.0
O1307 O 0.18565 0.17185 0.77571 0.0
O1308 O 0.12235 0.11188 0.80108 0.0
O1309 O 0.09281 0.12194 0.82874 0.0
O1310 O 1.01794 0.18414 0.85552 0.0
O1311 O 0.14627 0.19443 0.83378 0.0
O1312 O 0.1645 0.24445 0.81765 0.0
O1313 O 1.02302 0.13416 0.83004 0.0
O1314 O 0.07733 0.27303 0.8309 0.0
O1315 O 0.11328 0.26477 0.80423 0.0
C1316 C 1.03056 0.17861 0.8031 0.0
C1317 C 0.26217 0.20637 0.78803 0.0
C1318 C 0.34088 0.22477 0.7768 0.0
C1319 C 0.34099 0.27567 0.78549 0.0
C1320 C 0.2644 0.2568 0.79725 0.0
C1321 C 0.30357 0.29119 0.79597 0.0
C1322 C 0.30116 0.1903 0.77852 0.0
C1323 C 0.10802 0.09267 0.81406 0.0
C1324 C 0.21792 0.17111 0.78692 0.0
C1325 C 0.05882 0.21371 0.73561 0.0
C1326 C 1.03492 0.16534 0.73328 0.0
C1327 C 0.17231 0.23369 0.83178 0.0
C1328 C 0.94628 0.14009 0.84023 0.0
C1329 C 0.87932 0.18499 0.84389 0.0
C1330 C 0.84773 0.14063 0.84224 0.0
C1331 C 0.91529 0.09584 0.83895 0.0
C1332 C 0.92738 0.18225 0.84005 0.0
C1333 C 0.86576 0.09574 0.83908 0.0
C1334 C 0.09278 0.29278 0.81799 0.0
C1335 C 0.99769 0.14425 0.84369 0.0
H1336 H 0.36926 0.3041 0.78408 0.0
H1337 H 0.23558 0.2703 0.80507 0.0
H1338 H 0.30429 0.33024 0.80272 0.0
H1339 H 0.29951 0.15087 0.77235 0.0
H1340 H 0.81023 0.14119 0.84497 0.0
H1341 H 0.92931 0.06213 0.83844 0.0
H1342 H 0.95157 0.2158 0.84047 0.0
H1343 H 0.84171 0.06178 0.83833 0.0
H1344 H 0.09887 0.81781 0.21233 0.0
H1345 H 0.07865 0.74351 0.1577 0.0
H1346 H 0.07794 0.82335 0.15232 0.0
H1347 H 0.08182 0.91832 0.16247 0.0
H1348 H 0.0955 0.99151 0.21729 0.0
H1349 H 0.09963 0.91211 0.22257 0.0
C1350 C 0.09441 0.81828 0.19913 0.0
C1351 C 0.08929 0.77101 0.18553 0.0
C1352 C 0.09276 0.86645 0.19589 0.0
C1353 C 0.08299 0.77643 0.16878 0.0
C1354 C 0.08256 0.82339 0.16557 0.0
C1355 C 0.08622 0.91773 0.17567 0.0
C1356 C 0.08897 0.96458 0.18938 0.0
C1357 C 0.08738 0.86944 0.17891 0.0
C1358 C 0.09344 0.95885 0.20615 0.0
C1359 C 0.09583 0.9122 0.20929 0.0
H1360 H 0.68741 1.02374 0.43591 0.0
H1361 H 0.68118 0.886 0.44815 0.0
H1362 H 0.59457 0.87982 0.45028 0.0
H1363 H 0.51561 0.9118 0.44843 0.0
H1364 H 0.52272 0.05262 0.4383 0.0
H1365 H 0.60892 0.05752 0.43536 0.0
C1366 C 0.66764 0.99198 0.43899 0.0
C1367 C 0.69436 0.95555 0.44199 0.0
C1368 C 0.61533 0.98838 0.44038 0.0
C1369 C 0.66481 0.91577 0.4461 0.0
C1370 C 0.61383 0.91184 0.44721 0.0
C1371 C 0.53542 0.94388 0.44556 0.0
C1372 C 0.50878 0.98087 0.44289 0.0
C1373 C 0.58782 0.94775 0.44441 0.0
C1374 C 0.53866 1.02166 0.43954 0.0
C1375 C 0.58951 1.02506 0.4381 0.0
H1376 H 0.6018 0.27372 0.6642 0.0
H1377 H 0.57343 0.29627 0.71809 0.0
H1378 H 0.56956 0.38411 0.7217 0.0
H1379 H 0.57371 0.45918 0.70992 0.0
H1380 H 0.61109 0.43801 0.65685 0.0
H1381 H 0.61148 0.3498 0.65303 0.0
C1382 C 0.59457 0.29724 0.67686 0.0
C1383 C 0.5874 0.27462 0.69079 0.0
C1384 C 0.59366 0.35047 0.67913 0.0
C1385 C 0.57909 0.30933 0.70685 0.0
C1386 C 0.57675 0.36092 0.70898 0.0
C1387 C 0.58159 0.43577 0.69737 0.0
C1388 C 0.59097 0.4588 0.68358 0.0
C1389 C 0.58377 0.38279 0.69527 0.0
C1390 C 0.60262 0.42466 0.66788 0.0
C1391 C 0.60306 0.37275 0.66563 0.0
H1392 H 1.03981 0.52051 0.93273 0.0
H1393 H 1.00383 0.41038 0.95942 0.0
H1394 H 0.08787 0.40051 0.96028 0.0
H1395 H 0.17558 0.4218 0.95367 0.0
H1396 H 0.21087 0.52793 0.92541 0.0
H1397 H 0.12687 0.53864 0.9248 0.0
C1398 C 0.04939 0.49387 0.93869 0.0
C1399 C 1.01177 0.46704 0.94627 0.0
C1400 C 0.09998 0.48704 0.93888 0.0
C1401 C 1.029 0.43307 0.9537 0.0
C1402 C 0.07837 0.42697 0.95414 0.0
C1403 C 0.16567 0.44767 0.94738 0.0
C1404 C 0.20317 0.47412 0.93966 0.0
C1405 C 0.11497 0.45375 0.94688 0.0
C1406 C 0.1858 0.50644 0.93154 0.0
C1407 C 0.13647 0.51286 0.93122 0.0
H1408 H 0.08727 0.53708 0.83928 0.0
H1409 H 0.09831 0.5102 0.78432 0.0
H1410 H 0.09886 0.42194 0.78063 0.0
H1411 H 0.09685 0.34785 0.7925 0.0
H1412 H 0.08454 0.3738 0.84735 0.0
H1413 H 0.0837 0.46217 0.85111 0.0
C1414 C 0.08983 0.51245 0.82637 0.0
C1415 C 0.09229 0.5339 0.81207 0.0
C1416 C 0.08992 0.45909 0.82416 0.0
C1417 C 0.09544 0.498 0.79577 0.0
C1418 C 0.0961 0.44617 0.79361 0.0
C1419 C 0.09412 0.37224 0.80541 0.0
C1420 C 0.09066 0.35036 0.81959 0.0
C1421 C 0.09339 0.42542 0.80762 0.0
C1422 C 0.08664 0.38599 0.8359 0.0
C1423 C 0.08649 0.43803 0.83812 0.0
H1424 H 0.16405 0.90035 0.04534 0.0
H1425 H 0.17172 0.80119 0.07602 0.0
H1426 H 0.08571 0.79466 0.07984 0.0
H1427 H 1.00325 0.81547 0.07462 0.0
H1428 H 0.99771 0.91878 0.04552 0.0
H1429 H 0.08282 0.92373 0.04118 0.0
C1430 C 0.14752 0.87705 0.05288 0.0
C1431 C 0.17779 0.85123 0.06019 0.0
C1432 C 0.09571 0.87333 0.05535 0.0
C1433 C 0.1523 0.82199 0.06996 0.0
C1434 C 0.10174 0.818 0.07223 0.0
C1435 C 1.02007 0.83923 0.06728 0.0
C1436 C 0.99003 0.86539 0.05995 0.0
C1437 C 0.07215 0.84327 0.06502 0.0
C1438 C 1.01622 0.896 0.05084 0.0
C1439 C 0.06655 0.89956 0.04847 0.0
H1440 H 0.54441 0.85112 0.29789 0.0
H1441 H 0.66601 0.88433 0.3331 0.0
H1442 H 0.67169 0.97243 0.33566 0.0
H1443 H 0.64387 0.04486 0.32786 0.0
H1444 H 0.52662 1.01121 0.29106 0.0
H1445 H 0.51897 0.92347 0.28916 0.0
C1446 C 0.57234 0.87713 0.30626 0.0
C1447 C 0.60381 0.85745 0.31573 0.0
C1448 C 0.57669 0.93029 0.30738 0.0
C1449 C 0.63963 0.89494 0.32599 0.0
C1450 C 0.64336 0.94685 0.32735 0.0
C1451 C 0.61601 1.0192 0.31949 0.0
C1452 C 0.58502 0.03892 0.30981 0.0
C1453 C 0.61215 0.96591 0.3182 0.0
C1454 C 0.55098 1.00089 0.29891 0.0
C1455 C 0.54656 0.94914 0.2978 0.0
H1456 H 0.64505 0.39266 0.54275 0.0
H1457 H 0.65424 0.30164 0.57627 0.0
H1458 H 0.56841 0.29751 0.58082 0.0
H1459 H 0.48628 0.31869 0.5756 0.0
H1460 H 0.47822 0.41107 0.54262 0.0
H1461 H 0.56349 0.41509 0.53804 0.0
C1462 C 0.62886 0.37165 0.55107 0.0
C1463 C 0.65943 0.34737 0.559 0.0
C1464 C 0.57726 0.36935 0.55392 0.0
C1465 C 0.63451 0.32112 0.56975 0.0
C1466 C 0.58413 0.3186 0.57245 0.0
C1467 C 0.50252 0.33997 0.56739 0.0
C1468 C 0.47199 0.36436 0.55944 0.0
C1469 C 0.5543 0.34247 0.56467 0.0
C1470 C 0.49742 0.39116 0.54898 0.0
C1471 C 0.54768 0.39363 0.54629 0.0
H1472 H 0.09867 0.27994 0.16701 0.0
H1473 H 0.05647 0.29363 0.21925 0.0
H1474 H 0.05944 0.38307 0.22487 0.0
H1475 H 0.07285 0.46228 0.21536 0.0
H1476 H 0.10879 0.44647 0.16239 0.0
H1477 H 0.10899 0.3578 0.15723 0.0
C1478 C 0.09003 0.3019 0.17973 0.0
C1479 C 0.07778 0.27655 0.19264 0.0
C1480 C 0.0906 0.35555 0.18298 0.0
C1481 C 0.06659 0.30894 0.20879 0.0
C1482 C 0.06819 0.36151 0.21211 0.0
C1483 C 0.08121 0.44002 0.20265 0.0
C1484 C 0.09133 0.46453 0.18938 0.0
C1485 C 0.08018 0.38616 0.1994 0.0
C1486 C 0.10083 0.43162 0.17312 0.0
C1487 C 0.10101 0.37959 0.17007 0.0
H1488 H 0.17283 0.92052 0.45449 0.0
H1489 H 0.20173 0.03678 0.43015 0.0
H1490 H 0.11637 0.03474 0.426 0.0
H1491 H 1.02944 1.00165 0.42932 0.0
H1492 H 0.99956 0.89321 0.45695 0.0
H1493 H 0.08547 0.89168 0.45976 0.0
C1494 C 0.16104 0.94557 0.44819 0.0
C1495 C 0.19708 0.97739 0.44197 0.0
C1496 C 0.10955 0.94603 0.44645 0.0
C1497 C 0.17781 1.00971 0.43436 0.0
C1498 C 0.12766 1.00918 0.43218 0.0
C1499 C 1.04117 0.97721 0.43591 0.0
C1500 C 1.00514 0.94683 0.44262 0.0
C1501 C 0.09252 0.97742 0.43803 0.0
C1502 C 1.02404 0.91694 0.45138 0.0
C1503 C 0.07424 0.91604 0.45305 0.0
H1504 H 0.57731 0.96049 0.71379 0.0
H1505 H 0.61763 0.94995 0.66157 0.0
H1506 H 0.61699 0.86057 0.65548 0.0
H1507 H 0.6054 0.78077 0.66443 0.0
H1508 H 0.56168 0.79117 0.71635 0.0
H1509 H 0.56406 0.88057 0.72254 0.0
C1510 C 0.58641 0.93923 0.70103 0.0
C1511 C 0.59757 0.96527 0.68826 0.0
C1512 C 0.5856 0.88537 0.69733 0.0
C1513 C 0.60846 0.93378 0.67193 0.0
C1514 C 0.60826 0.8814 0.66835 0.0
C1515 C 0.59632 0.80204 0.67719 0.0
C1516 C 0.58359 0.77569 0.68982 0.0
C1517 C 0.59685 0.85589 0.68085 0.0
C1518 C 0.57194 0.80722 0.70605 0.0
C1519 C 0.57323 0.85977 0.70972 0.0
H1520 H 0.52484 0.40896 0.95262 0.0
H1521 H 0.52074 0.52085 0.92695 0.0
H1522 H 0.60804 0.53599 0.92724 0.0
H1523 H 0.68969 0.51892 0.93467 0.0
H1524 H 0.69339 0.39966 0.95698 0.0
H1525 H 0.60649 0.38767 0.95811 0.0
C1526 C 0.54254 0.43689 0.94708 0.0
C1527 C 0.51313 0.46377 0.93987 0.0
C1528 C 0.59497 0.44484 0.94672 0.0
C1529 C 0.53974 0.49896 0.93267 0.0
C1530 C 0.59088 0.50791 0.93283 0.0
C1531 C 0.67211 0.48997 0.93977 0.0
C1532 C 0.70161 0.46154 0.94623 0.0
C1533 C 0.61965 0.48124 0.93977 0.0
C1534 C 0.67476 0.42416 0.95242 0.0
C1535 C 0.62369 0.41663 0.95293 0.0
H1536 H 0.11032 0.8482 0.78904 0.0
H1537 H 0.06395 0.86247 0.84088 0.0
H1538 H 0.06707 0.95184 0.84622 0.0
H1539 H 0.08226 0.03055 0.83677 0.0
H1540 H 0.13014 1.01724 0.78516 0.0
H1541 H 0.12656 0.92757 0.77967 0.0
C1542 C 0.10054 0.87028 0.80158 0.0
C1543 C 0.08696 0.84507 0.8145 0.0
C1544 C 0.10259 0.9243 0.80482 0.0
C1545 C 0.0751 0.87773 0.83046 0.0
C1546 C 0.07673 0.93019 0.8336 0.0
C1547 C 0.09225 1.00866 0.82424 0.0
C1548 C 0.10666 0.03428 0.8115 0.0
C1549 C 0.09048 0.95477 0.82099 0.0
C1550 C 0.11886 1.00183 0.79553 0.0
C1551 C 0.11677 0.94914 0.79229 0.0
H1552 H 0.51594 0.90286 0.04468 0.0
H1553 H 0.4826 0.80013 0.07434 0.0
H1554 H 0.56691 0.79982 0.07894 0.0
H1555 H 0.65432 0.82713 0.07471 0.0
H1556 H 0.68903 0.92314 0.04265 0.0
H1557 H 0.60393 0.92649 0.03894 0.0
C1558 C 0.52642 0.88007 0.05214 0.0
C1559 C 0.48939 0.85254 0.05955 0.0
C1560 C 0.5775 0.87859 0.05442 0.0
C1561 C 0.50729 0.82357 0.06891 0.0
C1562 C 0.55688 0.82283 0.07145 0.0
C1563 C 0.64382 0.84934 0.067 0.0
C1564 C 0.68085 0.87557 0.05929 0.0
C1565 C 0.59299 0.85031 0.06442 0.0
C1566 C 0.66359 0.9026 0.04905 0.0
C1567 C 0.61388 0.90456 0.04685 0.0
H1568 H 0.54736 0.37903 0.32903 0.0
H1569 H 0.63559 0.33348 0.28531 0.0
H1570 H 0.64831 0.41831 0.28303 0.0
H1571 H 0.63454 0.5094 0.29292 0.0
H1572 H 0.54011 0.55198 0.33507 0.0
H1573 H 0.53032 0.46841 0.33791 0.0
C1574 C 0.56954 0.38702 0.31892 0.0
C1575 C 0.59044 0.34666 0.3074 0.0
C1576 C 0.57587 0.43759 0.3172 0.0
C1577 C 0.61835 0.36111 0.2945 0.0
C1578 C 0.62585 0.41082 0.29315 0.0
C1579 C 0.61169 0.50112 0.30283 0.0
C1580 C 0.58904 0.54096 0.31395 0.0
C1581 C 0.60479 0.45016 0.30433 0.0
C1582 C 0.5594 0.52546 0.32631 0.0
C1583 C 0.55341 0.47625 0.32799 0.0
H1584 H 0.14905 0.39355 0.54416 0.0
H1585 H 0.15396 0.31714 0.58255 0.0
H1586 H 0.06637 0.30578 0.58335 0.0
H1587 H 0.9849 0.317 0.57333 0.0
H1588 H 0.98163 0.3997 0.53689 0.0
H1589 H 0.06806 0.40825 0.53531 0.0
C1590 C 0.13144 0.37439 0.55281 0.0
C1591 C 0.16087 0.35648 0.56334 0.0
C1592 C 0.0793 0.36857 0.55354 0.0
C1593 C 0.13469 0.33213 0.57431 0.0
C1594 C 0.08354 0.32534 0.57475 0.0
C1595 C 1.00243 0.33695 0.56495 0.0
C1596 C 0.973 0.35619 0.55476 0.0
C1597 C 0.05476 0.34336 0.56447 0.0
C1598 C 0.99987 0.3823 0.54443 0.0
C1599 C 0.0508 0.38788 0.54367 0.0
H1600 H 0.20322 0.62458 0.0989 0.0
H1601 H 0.33313 0.57685 0.11047 0.0
H1602 H 0.30203 0.5733 0.13873 0.0
H1603 H 0.24098 0.59584 0.16145 0.0
H1604 H 0.13527 0.68073 0.15255 0.0
H1605 H 0.15606 0.66366 0.12239 0.0
C1606 C 0.22501 0.61351 0.10763 0.0
C1607 C 0.27081 0.6025 0.10291 0.0
C1608 C 0.21212 0.62156 0.12466 0.0
C1609 C 0.29776 0.58587 0.1139 0.0
C1610 C 0.28066 0.58536 0.1302 0.0
C1611 C 0.22382 0.61185 0.15296 0.0
C1612 C 0.18524 0.63758 0.15874 0.0
C1613 C 0.23901 0.60579 0.13603 0.0
C1614 C 0.16382 0.65938 0.14805 0.0
C1615 C 0.17534 0.6492 0.13081 0.0
H1616 H 0.88704 0.15408 0.35718 0.0
H1617 H 0.81096 0.26096 0.39207 0.0
H1618 H 0.87943 0.28909 0.41211 0.0
H1619 H 0.94699 0.26354 0.42331 0.0
H1620 H 1.02023 0.15174 0.39011 0.0
H1621 H 0.9695 0.14805 0.36546 0.0
C1622 C 0.88615 0.18441 0.36896 0.0
C1623 C 0.84367 0.20432 0.3734 0.0
C1624 C 0.92538 0.19968 0.38074 0.0
C1625 C 0.84314 0.24461 0.38843 0.0
C1626 C 0.88231 0.26077 0.39996 0.0
C1627 C 0.95388 0.24063 0.41047 0.0
C1628 C 0.98402 0.20485 0.40865 0.0
C1629 C 0.92201 0.23597 0.39682 0.0
C1630 C 0.99509 0.17785 0.39187 0.0
C1631 C 0.96517 0.17471 0.37786 0.0
H1632 H 0.429 0.49657 0.58798 0.0
H1633 H 0.30421 0.46468 0.61592 0.0
H1634 H 0.34735 0.50703 0.6434 0.0
H1635 H 0.42355 0.54803 0.65945 0.0
H1636 H 0.53617 0.60752 0.63181 0.0
H1637 H 0.49579 0.55982 0.60431 0.0
C1638 C 0.41116 0.49912 0.60007 0.0
C1639 C 0.36485 0.47294 0.6 0.0
C1640 C 0.43473 0.52791 0.61587 0.0
C1641 C 0.34138 0.47978 0.61573 0.0
C1642 C 0.36573 0.50501 0.63146 0.0
C1643 C 0.43912 0.55082 0.64747 0.0
C1644 C 0.48498 0.57778 0.64769 0.0
C1645 C 0.41313 0.52777 0.63171 0.0
C1646 C 0.50284 0.58373 0.632 0.0
C1647 C 0.47929 0.55712 0.61621 0.0
H1648 H 0.93672 0.24772 0.86942 0.0
H1649 H 0.79618 0.227 0.84563 0.0
H1650 H 0.77601 0.29709 0.86937 0.0
H1651 H 0.79679 0.35744 0.89849 0.0
H1652 H 0.93757 0.37196 0.92128 0.0
H1653 H 0.95932 0.30984 0.89597 0.0
C1654 C 0.90219 0.25936 0.86879 0.0
C1655 C 0.86824 0.23254 0.85553 0.0
C1656 C 0.89076 0.29779 0.88246 0.0
C1657 C 0.82298 0.24722 0.85565 0.0
C1658 C 0.81146 0.28695 0.86924 0.0
C1659 C 0.83235 0.3472 0.89767 0.0
C1660 C 0.8655 0.36843 0.91164 0.0
C1661 C 0.8447 0.31135 0.88299 0.0
C1662 C 0.9114 0.35536 0.91072 0.0
C1663 C 0.92403 0.3204 0.89619 0.0
H1664 H 0.46099 0.7709 0.92074 0.0
H1665 H 0.53772 0.6622 0.88787 0.0
H1666 H 0.4836 0.65277 0.86346 0.0
H1667 H 0.39885 0.65217 0.85575 0.0
H1668 H 0.31764 0.75212 0.89136 0.0
H1669 H 0.38752 0.78738 0.91034 0.0
C1670 C 0.46754 0.74733 0.90796 0.0
C1671 C 0.49965 0.71353 0.90632 0.0
C1672 C 0.43304 0.73819 0.89473 0.0
C1673 C 0.51089 0.68648 0.88956 0.0
C1674 C 0.47889 0.67979 0.87574 0.0
C1675 C 0.39687 0.68223 0.86751 0.0
C1676 C 0.3529 0.69856 0.87231 0.0
C1677 C 0.43696 0.70132 0.87884 0.0
C1678 C 0.35099 0.73859 0.88735 0.0
C1679 C 0.39101 0.75893 0.89828 0.0
H1680 H 0.93621 0.92146 0.09781 0.0
H1681 H 0.85973 0.03903 0.09539 0.0
H1682 H 0.89655 0.09135 0.12333 0.0
H1683 H 0.94917 0.1026 0.14878 0.0
H1684 H 1.01837 0.98145 0.15262 0.0
H1685 H 0.98593 0.93126 0.1238 0.0
C1686 C 0.92782 0.95856 0.10335 0.0
C1687 C 0.89547 0.97658 0.09458 0.0
C1688 C 0.94721 0.98728 0.1198 0.0
C1689 C 0.8848 1.02468 0.10193 0.0
C1690 C 0.90544 0.0543 0.11794 0.0
C1691 C 0.95616 0.06475 0.14341 0.0
C1692 C 0.98582 0.04549 0.15273 0.0
C1693 C 0.93609 0.03569 0.12712 0.0
C1694 C 0.99502 0.99665 0.14573 0.0
C1695 C 0.97679 0.96818 0.12922 0.0
H1696 H 0.36052 0.8232 0.42522 0.0
H1697 H 0.28079 0.88106 0.39286 0.0
H1698 H 0.26817 0.79984 0.37104 0.0
H1699 H 0.2933 0.7174 0.35941 0.0
H1700 H 0.37251 0.66074 0.39239 0.0
H1701 H 0.36882 0.73544 0.41649 0.0
C1702 C 0.33924 0.81781 0.41372 0.0
C1703 C 0.32326 0.85852 0.41047 0.0
C1704 C 0.33126 0.77087 0.40152 0.0
C1705 C 0.29522 0.85076 0.39541 0.0
C1706 C 0.28749 0.80416 0.38301 0.0
C1707 C 0.30735 0.72043 0.37215 0.0
C1708 C 0.33334 0.68424 0.37425 0.0
C1709 C 0.30709 0.76448 0.38565 0.0
C1710 C 0.3521 0.68833 0.39066 0.0
C1711 C 0.35082 0.73138 0.40429 0.0
H1712 H 0.73592 0.19126 0.66897 0.0
H1713 H 0.66648 0.0397 0.64915 0.0
H1714 H 0.71778 0.02664 0.62411 0.0
H1715 H 0.77069 0.0649 0.60551 0.0
H1716 H 0.84216 0.2155 0.62643 0.0
H1717 H 0.80353 0.22208 0.6539 0.0
C1718 C 0.7332 0.15504 0.65944 0.0
C1719 C 0.69701 0.11691 0.66037 0.0
C1720 C 0.76336 0.14771 0.64541 0.0
C1721 C 0.69371 0.06979 0.64821 0.0
C1722 C 0.72307 0.06232 0.634 0.0
C1723 C 0.77969 0.09799 0.61644 0.0
C1724 C 0.80858 0.1398 0.61409 0.0
C1725 C 0.75653 0.1018 0.63208 0.0
C1726 C 0.81999 0.1829 0.62816 0.0
C1727 C 0.79734 0.18695 0.64373 0.0
H1728 H 0.85654 0.59145 0.87014 0.0
H1729 H 0.84163 0.74657 0.88726 0.0
H1730 H 0.89489 0.76203 0.86469 0.0
H1731 H 0.95587 0.73337 0.84331 0.0
H1732 H 0.97922 0.58095 0.83043 0.0
H1733 H 0.91269 0.56213 0.84802 0.0
C1734 C 0.86442 0.62854 0.86875 0.0
C1735 C 0.8458 0.66792 0.88042 0.0
C1736 C 0.89696 0.6375 0.85654 0.0
C1737 C 0.85548 0.71562 0.87835 0.0
C1738 C 0.88632 0.72453 0.86559 0.0
C1739 C 0.94508 0.69584 0.84399 0.0
C1740 C 0.97112 0.65813 0.83533 0.0
C1741 C 0.90871 0.68608 0.85504 0.0
C1742 C 0.95862 0.61002 0.83672 0.0
C1743 C 0.92095 0.5994 0.84687 0.0
H1744 H 0.37688 0.07297 0.6238 0.0
H1745 H 0.23977 0.04722 0.64602 0.0
H1746 H 0.19981 0.05702 0.62058 0.0
H1747 H 0.20604 0.07614 0.59256 0.0
H1748 H 0.34465 0.09828 0.57095 0.0
H1749 H 0.38268 0.08453 0.59563 0.0
C1750 C 0.33822 0.07064 0.62329 0.0
C1751 C 0.31108 0.06161 0.63694 0.0
C1752 C 0.31618 0.07369 0.60856 0.0
C1753 C 0.26108 0.05605 0.63584 0.0
C1754 C 0.23849 0.06078 0.62124 0.0
C1755 C 0.24427 0.07558 0.59299 0.0
C1756 C 0.27278 0.087 0.57998 0.0
C1757 C 0.26584 0.06933 0.60749 0.0
C1758 C 0.32237 0.08804 0.58069 0.0
C1759 C 0.34402 0.08134 0.59492 0.0
H1760 H 0.7528 0.89843 0.40076 0.0
H1761 H 0.81828 0.77794 0.40721 0.0
H1762 H 0.77725 0.7217 0.38055 0.0
H1763 H 0.72435 0.70792 0.35481 0.0
H1764 H 0.6636 0.83012 0.34767 0.0
H1765 H 0.70238 0.88549 0.37472 0.0
C1766 C 0.75862 0.86008 0.3961 0.0
C1767 C 0.78896 0.8423 0.40561 0.0
C1768 C 0.73674 0.82885 0.38042 0.0
C1769 C 0.79518 0.79223 0.39992 0.0
C1770 C 0.77205 0.7603 0.38465 0.0
C1771 C 0.72044 0.74692 0.35911 0.0
C1772 C 0.69236 0.76571 0.34911 0.0
C1773 C 0.74323 0.77837 0.37466 0.0
C1774 C 0.68689 0.81591 0.35481 0.0
C1775 C 0.70843 0.84717 0.3704 0.0
H1776 H 0.4097 0.96639 0.1055 0.0
H1777 H 0.31053 0.99896 0.07196 0.0
H1778 H 0.30173 0.07614 0.0937 0.0
H1779 H 0.31084 0.12614 0.12357 0.0
H1780 H 0.39715 0.08717 0.1595 0.0
H1781 H 0.42479 1.02266 0.13554 0.0
C1782 C 0.38698 0.99112 0.10298 0.0
C1783 C 0.3608 0.97744 0.08725 0.0
C1784 C 0.37993 0.03427 0.11603 0.0
C1785 C 0.33146 1.00919 0.08388 0.0
C1786 C 0.32612 0.05318 0.09638 0.0
C1787 C 0.33614 0.10379 0.12612 0.0
C1788 C 0.351 0.11007 0.14318 0.0
C1789 C 0.34851 0.06483 0.11269 0.0
C1790 C 0.38493 0.08237 0.1464 0.0
C1791 C 0.40018 0.04522 0.13276 0.0
H1792 H 0.75926 0.54651 0.06714 0.0
H1793 H 0.75444 0.65827 0.11627 0.0
H1794 H 0.81112 0.6213 0.12896 0.0
H1795 H 0.87578 0.57415 0.12345 0.0
H1796 H 0.88067 0.45893 0.07486 0.0
H1797 H 0.8087 0.48054 0.06472 0.0
C1798 C 0.76904 0.56148 0.0808 0.0
C1799 C 0.75453 0.60622 0.09061 0.0
C1800 C 0.80238 0.54058 0.08795 0.0
C1801 C 0.76672 0.62481 0.10835 0.0
C1802 C 0.7991 0.60372 0.1156 0.0
C1803 C 0.86111 0.55162 0.11087 0.0
C1804 C 0.88669 0.5171 0.09954 0.0
C1805 C 0.81971 0.56397 0.10512 0.0
C1806 C 0.86435 0.48832 0.08352 0.0
C1807 C 0.8227 0.50028 0.07771 0.0
H1808 H 0.2431 0.21889 0.85059 0.0
H1809 H 0.16057 0.33047 0.8466 0.0
H1810 H 0.19661 0.38679 0.87399 0.0
H1811 H 0.25068 0.40329 0.89957 0.0
H1812 H 0.34139 0.29626 0.90133 0.0
H1813 H 0.30295 0.23866 0.87451 0.0
C1814 C 0.23372 0.2559 0.85563 0.0
C1815 C 0.19893 0.27045 0.84679 0.0
C1816 C 0.25582 0.28856 0.87105 0.0
C1817 C 0.18717 0.31849 0.85324 0.0
C1818 C 0.20762 0.35057 0.86894 0.0
C1819 C 0.26192 0.36736 0.89399 0.0
C1820 C 0.29812 0.35338 0.9024 0.0
C1821 C 0.24164 0.3358 0.87806 0.0
C1822 C 0.31304 0.30719 0.89509 0.0
C1823 C 0.29142 0.27457 0.87972 0.0
H1824 H 0.90226 0.45509 0.60052 0.0
H1825 H 0.79382 0.49887 0.57378 0.0
H1826 H 0.79652 0.57626 0.59666 0.0
H1827 H 0.81819 0.62364 0.62621 0.0
H1828 H 0.91009 0.57115 0.65655 0.0
H1829 H 0.92834 0.50717 0.63037 0.0
C1830 C 0.88003 0.48224 0.59972 0.0
C1831 C 0.84832 0.4719 0.58547 0.0
C1832 C 0.87928 0.52531 0.61365 0.0
C1833 C 0.81926 0.5066 0.58438 0.0
C1834 C 0.82054 0.55079 0.59758 0.0
C1835 C 0.84316 0.59881 0.62697 0.0
C1836 C 0.86218 0.60102 0.64313 0.0
C1837 C 0.84896 0.55948 0.6125 0.0
C1838 C 0.89495 0.56962 0.64415 0.0
C1839 C 0.9046 0.53267 0.62928 0.0
H1840 H 0.45381 0.23864 0.34149 0.0
H1841 H 0.47647 0.0861 0.32893 0.0
H1842 H 0.4082 0.06749 0.346 0.0
H1843 H 0.35033 0.09729 0.36749 0.0
H1844 H 0.33628 0.25266 0.38415 0.0
H1845 H 0.39137 0.26761 0.36201 0.0
C1846 C 0.44276 0.2012 0.34223 0.0
C1847 C 0.46922 0.16348 0.334 0.0
C1848 C 0.40515 0.19157 0.35278 0.0
C1849 C 0.45602 0.11532 0.33522 0.0
C1850 C 0.41719 0.1048 0.34494 0.0
C1851 C 0.35867 0.13426 0.36602 0.0
C1852 C 0.33991 0.17395 0.37748 0.0
C1853 C 0.39261 0.143 0.3542 0.0
C1854 C 0.35021 0.22154 0.37538 0.0
C1855 C 0.38218 0.23016 0.3629 0.0
H1856 H 0.33135 0.65903 0.26107 0.0
H1857 H 0.36262 0.50964 0.23991 0.0
H1858 H 0.43998 0.53389 0.25562 0.0
H1859 H 0.49678 0.59665 0.27619 0.0
H1860 H 0.46753 0.74693 0.29611 0.0
H1861 H 0.39062 0.72304 0.28009 0.0
C1862 C 0.35536 0.63191 0.25965 0.0
C1863 C 0.34124 0.58259 0.24934 0.0
C1864 C 0.3998 0.64617 0.26856 0.0
C1865 C 0.37239 0.54768 0.24795 0.0
C1866 C 0.41667 0.56155 0.25685 0.0
C1867 C 0.47431 0.62449 0.27662 0.0
C1868 C 0.48811 0.67359 0.28705 0.0
C1869 C 0.43055 0.6106 0.26726 0.0
C1870 C 0.45758 0.70884 0.28811 0.0
C1871 C 0.41372 0.69524 0.27896 0.0
H1872 H 0.77943 0.07977 0.47027 0.0
H1873 H 0.92433 0.07279 0.48403 0.0
H1874 H 0.92551 0.14771 0.50849 0.0
H1875 H 0.88548 0.21607 0.52564 0.0
H1876 H 0.73985 0.22174 0.51225 0.0
H1877 H 0.73891 0.14713 0.48773 0.0
C1878 C 0.81117 0.09489 0.47866 0.0
C1879 C 0.85139 0.07072 0.47568 0.0
C1880 C 0.81157 0.13792 0.4926 0.0
C1881 C 0.89246 0.09022 0.4865 0.0
C1882 C 0.89333 0.13326 0.50034 0.0
C1883 C 0.85355 0.20067 0.51738 0.0
C1884 C 0.81316 0.22465 0.52042 0.0
C1885 C 0.85304 0.15735 0.50353 0.0
C1886 C 0.7718 0.20446 0.50979 0.0
C1887 C 0.7711 0.16166 0.49588 0.0
H1888 H 0.19282 0.7357 0.77224 0.0
H1889 H 0.22142 0.63087 0.79849 0.0
H1890 H 0.27613 0.59757 0.77619 0.0
H1891 H 0.30835 0.59143 0.74755 0.0
H1892 H 0.27701 0.69236 0.72026 0.0
H1893 H 0.22859 0.73251 0.74417 0.0
C1894 C 0.21087 0.70537 0.77298 0.0
C1895 C 0.20146 0.68421 0.78649 0.0
C1896 C 0.24042 0.68473 0.75968 0.0
C1897 C 0.22709 0.64695 0.78794 0.0
C1898 C 0.25803 0.62751 0.77512 0.0
C1899 C 0.29031 0.62185 0.74686 0.0
C1900 C 0.29459 0.6384 0.73222 0.0
C1901 C 0.26328 0.64468 0.7606 0.0
C1902 C 0.27287 0.67874 0.73142 0.0
C1903 C 0.24583 0.70187 0.7451 0.0
H1904 H 0.82631 0.24423 -0.00867 0.0
H1905 H 0.69793 0.2474 0.02078 0.0
H1906 H 0.71456 0.17528 0.02902 0.0
H1907 H 0.77401 0.12378 0.03238 0.0
H1908 H 0.90613 0.12896 0.00542 0.0
H1909 H 0.87937 0.18592 -0.00861 0.0
C1910 C 0.8006 0.2281 -0.00107 0.0
C1911 C 0.76111 0.25139 0.00559 0.0
C1912 C 0.81189 0.18914 0.00438 0.0
C1913 C 0.72879 0.23026 0.01566 0.0
C1914 C 0.73854 0.18945 0.02047 0.0
C1915 C 0.79635 0.13685 0.02317 0.0
C1916 C 0.84208 0.12344 0.02002 0.0
C1917 C 0.7814 0.17063 0.0157 0.0
C1918 C 0.87117 0.14003 0.00816 0.0
C1919 C 0.85578 0.17215 0.00012 0.0
H1920 H 0.69335 0.59947 0.72332 0.0
H1921 H 0.68716 0.73159 0.70852 0.0
H1922 H 0.75862 0.77434 0.72661 0.0
H1923 H 0.82493 0.77197 0.74553 0.0
H1924 H 0.8217 0.64448 0.76428 0.0
H1925 H 0.75187 0.60207 0.7458 0.0
C1926 C 0.70819 0.63744 0.72403 0.0
C1927 C 0.68708 0.66194 0.7142 0.0
C1928 C 0.74739 0.6625 0.73514 0.0
C1929 C 0.70434 0.71187 0.71572 0.0
C1930 C 0.74481 0.73633 0.7261 0.0
C1931 C 0.80849 0.73539 0.74586 0.0
C1932 C 0.82983 0.71083 0.75577 0.0
C1933 C 0.76695 0.71178 0.73575 0.0
C1934 C 0.80747 0.66349 0.75615 0.0
C1935 C 0.76724 0.63919 0.74569 0.0
H1936 H 0.40124 0.25331 0.52775 0.0
H1937 H 0.2471 0.22669 0.52373 0.0
H1938 H 0.24887 0.15539 0.49819 0.0
H1939 H 0.2938 0.09984 0.47772 0.0
H1940 H 0.4478 0.1224 0.4817 0.0
H1941 H 0.44705 0.19735 0.50638 0.0
C1942 C 0.36829 0.2316 0.52119 0.0
C1943 C 0.32413 0.24482 0.52728 0.0
C1944 C 0.36968 0.1908 0.50651 0.0
C1945 C 0.28137 0.21706 0.51894 0.0
C1946 C 0.28239 0.17653 0.50441 0.0
C1947 C 0.32722 0.12151 0.48391 0.0
C1948 C 0.37077 0.10612 0.47813 0.0
C1949 C 0.32626 0.16317 0.49812 0.0
C1950 C 0.41395 0.13431 0.48599 0.0
C1951 C 0.41343 0.17661 0.50015 0.0
H1952 H 0.8811 0.7384 0.25749 0.0
H1953 H 0.90256 0.62607 0.28116 0.0
H1954 H 0.95612 0.59196 0.25818 0.0
H1955 H 0.99434 0.59297 0.2309 0.0
H1956 H 0.97564 0.70728 0.20778 0.0
H1957 H 0.92112 0.74045 0.23045 0.0
C1958 C 0.89821 0.70691 0.25764 0.0
C1959 C 0.88889 0.68486 0.2709 0.0
C1960 C 0.9284 0.68749 0.24436 0.0
C1961 C 0.91 0.64354 0.27101 0.0
C1962 C 0.94023 0.62403 0.25788 0.0
C1963 C 0.9795 0.62607 0.23117 0.0
C1964 C 0.99025 0.6489 0.21817 0.0
C1965 C 0.9495 0.64562 0.24447 0.0
C1966 C 0.96827 0.68963 0.21788 0.0
C1967 C 0.93744 0.70875 0.23087 0.0
H1968 H 0.32522 0.09385 0.00529 0.0
H1969 H 0.29707 0.97072 0.95879 0.0
H1970 H 0.32561 1.0256 0.94127 0.0
H1971 H 0.34454 0.11029 0.93927 0.0
H1972 H 0.36038 0.23426 -0.01403 0.0
H1973 H 0.35333 0.17748 0.0034 0.0
C1974 C 0.32616 0.07916 -0.00867 0.0
C1975 C 0.30839 0.02911 -0.01686 0.0
C1976 C 0.34056 0.1111 -0.01854 0.0
C1977 C 0.30977 1.00968 0.96515 0.0
C1978 C 0.32619 0.04089 0.95522 0.0
C1979 C 0.347 0.12479 0.95327 0.0
C1980 C 0.35169 0.17622 0.96128 0.0
C1981 C 0.33946 0.09201 0.96322 0.0
C1982 C 0.35669 0.19477 0.97941 0.0
C1983 C 0.35197 0.16232 -0.01057 0.0
H1984 H 0.99495 0.20972 0.77849 0.0
H1985 H 0.96917 0.09735 0.80462 0.0
H1986 H 0.89947 0.05612 0.78586 0.0
H1987 H 0.84689 0.05071 0.76138 0.0
H1988 H 0.87913 0.15618 0.73251 0.0
H1989 H 0.94604 0.2005 0.75253 0.0
C1990 C 0.97336 0.17669 0.78017 0.0
C1991 C 0.98551 0.15781 0.79333 0.0
C1992 C 0.93534 0.15117 0.76852 0.0
C1993 C 0.95892 0.11399 0.79513 0.0
C1994 C 0.91964 0.08972 0.78414 0.0
C1995 C 0.86923 0.08269 0.75925 0.0
C1996 C 0.8579 0.10046 0.74565 0.0
C1997 C 0.9079 0.10762 0.77065 0.0
C1998 C 0.88688 0.14227 0.7431 0.0
C1999 C 0.92496 0.16774 0.75455 0.0
H2000 H 0.28831 0.58858 0.97087 0.0
H2001 H 0.43676 0.58238 -0.02018 0.0
H2002 H 0.44089 0.65416 0.00558 0.0
H2003 H 0.40222 0.71939 0.02549 0.0
H2004 H 0.25316 0.72414 0.01697 0.0
H2005 H 0.24906 0.65239 -0.00878 0.0
C2006 C 0.32148 0.60331 0.97847 0.0
C2007 C 0.362 0.58036 0.97369 0.0
C2008 C 0.32339 0.64413 -0.00663 0.0
C2009 C 0.40488 0.59922 -0.01645 0.0
C2010 C 0.40733 0.64028 -0.00179 0.0
C2011 C 0.36883 0.70415 0.01807 0.0
C2012 C 0.32827 0.72701 0.02288 0.0
C2013 C 0.36673 0.66287 0.00331 0.0
C2014 C 0.28504 0.70729 0.01327 0.0
C2015 C 0.28263 0.66633 -0.00142 0.0
H2016 H 0.7 0.23317 0.27187 0.0
H2017 H 0.67661 0.09697 0.28575 0.0
H2018 H 0.72298 0.05717 0.26128 0.0
H2019 H 0.77086 0.06203 0.23626 0.0
H2020 H 0.79368 0.19822 0.22228 0.0
H2021 H 0.74574 0.23722 0.24632 0.0
C2022 C 0.70571 0.19497 0.26955 0.0
C2023 C 0.68567 0.16782 0.28041 0.0
C2024 C 0.73145 0.17235 0.25538 0.0
C2025 C 0.69262 0.11842 0.27751 0.0
C2026 C 0.71849 0.0956 0.26347 0.0
C2027 C 0.76431 0.09984 0.23828 0.0
C2028 C 0.78528 0.12734 0.22761 0.0
C2029 C 0.7378 0.12217 0.25228 0.0
C2030 C 0.77756 0.17658 0.23043 0.0
C2031 C 0.75064 0.19892 0.2442 0.0
H2032 H 0.32135 0.68794 0.54191 0.0
H2033 H 0.34097 0.54713 0.50603 0.0
H2034 H 0.33795 0.58116 0.48182 0.0
H2035 H 0.33623 0.65278 0.4712 0.0
H2036 H 0.32087 0.79469 0.50739 0.0
H2037 H 0.31436 0.75816 0.53105 0.0
C2038 C 0.32519 0.66503 0.52878 0.0
C2039 C 0.33185 0.61564 0.52565 0.0
C2040 C 0.32368 0.68478 0.51499 0.0
C2041 C 0.33585 0.58553 0.50863 0.0
C2042 C 0.33412 0.60484 0.49482 0.0
C2043 C 0.33096 0.67538 0.48425 0.0
C2044 C 0.32921 0.72607 0.48758 0.0
C2045 C 0.32886 0.65464 0.49789 0.0
C2046 C 0.32171 0.75521 0.50447 0.0
C2047 C 0.31861 0.73461 0.51806 0.0
H2048 H 0.23082 0.10814 0.20147 0.0
H2049 H 0.1644 0.23737 0.2254 0.0
H2050 H 0.24006 0.28232 0.23937 0.0
H2051 H 0.32404 0.28336 0.24644 0.0
H2052 H 0.39259 0.15682 0.22129 0.0
H2053 H 0.31767 0.11309 0.20573 0.0
C2054 C 0.23299 0.1461 0.20976 0.0
C2055 C 0.19162 0.16862 0.2129 0.0
C2056 C 0.27712 0.17247 0.21743 0.0
C2057 C 0.19517 0.21827 0.22333 0.0
C2058 C 0.23867 0.24443 0.23114 0.0
C2059 C 0.3229 0.24681 0.2372 0.0
C2060 C 0.36337 0.22304 0.23521 0.0
C2061 C 0.27972 0.22171 0.22848 0.0
C2062 C 0.36143 0.17551 0.22323 0.0
C2063 C 0.31861 0.15034 0.21444 0.0
H2064 H 0.91006 0.76372 0.02442 0.0
H2065 H 0.76176 0.72092 0.0336 0.0
H2066 H 0.75802 0.64465 0.00948 0.0
H2067 H 0.79719 0.59069 -0.01356 0.0
H2068 H 0.94622 0.63048 0.97721 0.0
H2069 H 0.94913 0.70957 0.00023 0.0
C2070 C 0.87723 0.73728 0.02105 0.0
C2071 C 0.83631 0.74666 0.03054 0.0
C2072 C 0.87532 0.69422 0.00707 0.0
C2073 C 0.79349 0.71342 0.02628 0.0
C2074 C 0.79133 0.67033 0.01251 0.0
C2075 C 0.83038 0.61666 -0.01055 0.0
C2076 C 0.8717 0.60488 -0.0195 0.0
C2077 C 0.83203 0.66049 0.00289 0.0
C2078 C 0.9141 0.63912 -0.01589 0.0
C2079 C 0.91585 0.68385 -0.00268 0.0
H2080 H 0.33929 0.13971 0.74921 0.0
H2081 H 0.43455 0.27142 0.7786 0.0
H2082 H 0.4967 0.24901 0.75847 0.0
H2083 H 0.52389 0.19286 0.73245 0.0
H2084 H 0.43798 0.05175 0.70776 0.0
H2085 H 0.37156 0.07665 0.72654 0.0
C2086 C 0.37383 0.16305 0.75189 0.0
C2087 C 0.38089 0.20814 0.76549 0.0
C2088 C 0.41122 0.14795 0.74117 0.0
C2089 C 0.4264 0.23775 0.76795 0.0
C2090 C 0.46266 0.22457 0.75659 0.0
C2091 C 0.49155 0.16663 0.7318 0.0
C2092 C 0.48615 0.11991 0.71946 0.0
C2093 C 0.45534 0.1799 0.7432 0.0
C2094 C 0.44288 0.08748 0.71761 0.0
C2095 C 0.40517 0.10176 0.72828 0.0
H2096 H 0.88483 0.72196 0.48106 0.0
H2097 H 0.82615 0.59346 0.43902 0.0
H2098 H 0.82531 0.5413 0.45815 0.0
H2099 H 0.82129 0.53813 0.48811 0.0
H2100 H 0.87537 0.66867 0.52992 0.0
H2101 H 0.89989 0.71413 0.50922 0.0
C2102 C 0.87386 0.68227 0.47564 0.0
C2103 C 0.85373 0.66208 0.45873 0.0
C2104 C 0.87196 0.65309 0.48679 0.0
C2105 C 0.84002 0.61033 0.45218 0.0
C2106 C 0.83953 0.5805 0.46311 0.0
C2107 C 0.83992 0.57601 0.49262 0.0
C2108 C 0.84515 0.60083 0.51044 0.0
C2109 C 0.8521 0.60232 0.48071 0.0
C2110 C 0.86973 0.64959 0.51623 0.0
C2111 C 0.88374 0.67544 0.50442 0.0
loop_
_geom_bond_atom_site_label_1
_geom_bond_atom_site_label_2
_geom_bond_distance
_geom_bond_site_symmetry_2
_ccdc_geom_bond_type
Tb0 N29 2.617 . S
Tb0 N35 2.572 . S
Tb0 O44 2.465 . S
Tb0 O45 2.387 . S
Tb0 O47 2.428 . S
Tb0 O48 2.308 . S
Tb0 O52 2.349 . S
Tb0 O55 2.393 . S
Tb0 C64 2.802 . S
C1 N2 1.379 1_655 S
C1 C4 1.416 1_655 S
C1 C8 1.424 . S
N2 C1 1.379 1_455 S
N2 C5 1.334 . S
N2 Tb11 2.617 . S
C3 C5 1.390 . S
C3 C6 1.339 . S
C3 H23 0.930 . S
C4 C1 1.416 1_455 S
C4 C6 1.416 . S
C4 C10 1.448 1_455 S
C5 N2 1.334 . S
C5 C3 1.390 . S
C5 H16 0.930 . S
C6 C3 1.339 . S
C6 C4 1.416 . S
C6 H27 0.930 . S
C7 C8 1.413 . S
C7 C9 1.427 . S
C7 C13 1.416 . S
C8 C1 1.424 . S
C8 C7 1.413 . S
C8 N12 1.361 . S
C9 C7 1.427 . S
C9 C10 1.328 . S
C9 H24 0.929 . S
C10 C4 1.448 1_655 S
C10 C9 1.328 . S
C10 H25 0.930 . S
Tb11 N2 2.617 . S
Tb11 N12 2.572 1_455 S
Tb11 O46 2.349 . S
Tb11 O49 2.393 . S
Tb11 O50 2.465 1_455 S
Tb11 O51 2.387 . S
Tb11 O53 2.428 1_455 S
Tb11 O54 2.308 1_455 S
Tb11 C75 2.802 1_455 S
N12 C8 1.361 . S
N12 Tb11 2.572 1_655 S
N12 C14 1.340 . S
C13 C7 1.416 . S
C13 C15 1.332 . S
C13 H21 0.931 . S
C14 N12 1.340 . S
C14 C15 1.407 . S
C14 H20 0.930 . S
C15 C13 1.332 . S
C15 C14 1.407 . S
C15 H17 0.929 . S
H16 C5 0.930 . S
H17 C15 0.929 . S
H18 C33 0.930 . S
H19 C40 0.929 . S
H20 C14 0.930 . S
H21 C13 0.931 . S
H22 C36 0.930 . S
H23 C3 0.930 . S
H24 C9 0.929 . S
H25 C10 0.930 . S
H26 C31 0.930 . S
H27 C6 0.930 . S
H28 C39 0.931 . S
N29 Tb0 2.617 . S
N29 C30 1.379 . S
N29 C33 1.334 . S
C30 N29 1.379 . S
C30 C32 1.416 . S
C30 C38 1.424 . S
C31 H26 0.930 . S
C31 C33 1.390 . S
C31 C34 1.339 . S
C32 C30 1.416 . S
C32 C34 1.416 . S
C32 C65 1.448 . S
C33 H18 0.930 . S
C33 N29 1.334 . S
C33 C31 1.390 . S
C34 C31 1.339 . S
C34 C32 1.416 . S
C34 H41 0.930 . S
N35 Tb0 2.572 . S
N35 C36 1.340 . S
N35 C38 1.361 . S
C36 H22 0.930 . S
C36 N35 1.340 . S
C36 C40 1.407 . S
C37 C38 1.413 . S
C37 C39 1.416 . S
C37 C66 1.427 . S
C38 C30 1.424 . S
C38 N35 1.361 . S
C38 C37 1.413 . S
C39 H28 0.931 . S
C39 C37 1.416 . S
C39 C40 1.332 . S
C40 H19 0.929 . S
C40 C36 1.407 . S
C40 C39 1.332 . S
H41 C34 0.930 . S
H42 C65 0.930 . S
H43 C66 0.929 . S
O44 Tb0 2.465 . S
O44 C64 1.264 . S
O45 Tb0 2.387 . S
O45 C56 1.264 . S
O46 Tb11 2.349 . S
O46 C56 1.243 . S
O47 Tb0 2.428 . S
O47 C64 1.256 . S
O48 Tb0 2.308 . S
O48 C63 1.266 . S
O49 Tb11 2.393 . S
O49 C63 1.248 . S
O50 Tb11 2.465 1_655 S
O50 C75 1.264 . S
O51 Tb11 2.387 . S
O51 C67 1.264 . S
O52 Tb0 2.349 . S
O52 C67 1.243 . S
O53 Tb11 2.428 1_655 S
O53 C75 1.256 . S
O54 Tb11 2.308 1_655 S
O54 C74 1.266 . S
O55 Tb0 2.393 . S
O55 C74 1.248 1_455 S
C56 O45 1.264 . S
C56 O46 1.243 . S
C57 C60 1.399 . S
C57 C62 1.383 . S
C57 C64 1.496 . S
C58 C59 1.399 . S
C58 C62 1.389 . S
C59 C58 1.399 . S
C59 C61 1.380 . S
C59 H76 0.929 . S
C60 C57 1.399 . S
C60 C61 1.392 . S
C60 H77 0.929 . S
C61 C59 1.380 . S
C61 C60 1.392 . S
C61 H78 0.929 . S
C62 C57 1.383 . S
C62 C58 1.389 . S
C62 H79 0.931 . S
C63 O48 1.266 . S
C63 O49 1.248 . S
C64 Tb0 2.802 . S
C64 O44 1.264 . S
C64 O47 1.256 . S
C64 C57 1.496 . S
C65 C32 1.448 . S
C65 H42 0.930 . S
C65 C66 1.328 . S
C66 C37 1.427 . S
C66 H43 0.929 . S
C66 C65 1.328 . S
C67 O51 1.264 . S
C67 O52 1.243 . S
C68 C71 1.399 . S
C68 C72 1.383 . S
C68 C75 1.496 . S
C69 C70 1.399 . S
C69 C72 1.389 . S
C70 C69 1.399 . S
C70 C73 1.380 . S
C70 H80 0.929 . S
C71 C68 1.399 . S
C71 C73 1.392 . S
C71 H81 0.929 . S
C72 C68 1.383 . S
C72 C69 1.389 . S
C72 H82 0.931 . S
C73 C70 1.380 . S
C73 C71 1.392 . S
C73 H83 0.929 . S
C74 O54 1.266 . S
C74 O55 1.248 1_655 S
C75 Tb11 2.802 1_655 S
C75 O50 1.264 . S
C75 O53 1.256 . S
C75 C68 1.496 . S
H76 C59 0.929 . S
H77 C60 0.929 . S
H78 C61 0.929 . S
H79 C62 0.931 . S
H80 C70 0.929 . S
H81 C71 0.929 . S
H82 C72 0.931 . S
H83 C73 0.929 . S
Tb84 N113 2.617 . S
Tb84 N119 2.572 . S
Tb84 O128 2.465 . S
Tb84 O129 2.387 . S
Tb84 O131 2.428 . S
Tb84 O132 2.308 . S
Tb84 O136 2.349 . S
Tb84 O139 2.393 . S
Tb84 C148 2.802 . S
C85 N86 1.379 . S
C85 C88 1.416 . S
C85 C92 1.424 . S
N86 C85 1.379 . S
N86 C89 1.334 . S
N86 Tb95 2.617 . S
C87 C89 1.390 . S
C87 C90 1.339 . S
C87 H107 0.930 . S
C88 C85 1.416 . S
C88 C90 1.416 . S
C88 C94 1.448 . S
C89 N86 1.334 . S
C89 C87 1.390 . S
C89 H100 0.930 . S
C90 C87 1.339 . S
C90 C88 1.416 . S
C90 H111 0.930 . S
C91 C92 1.413 . S
C91 C93 1.427 . S
C91 C97 1.416 . S
C92 C85 1.424 . S
C92 C91 1.413 . S
C92 N96 1.361 . S
C93 C91 1.427 . S
C93 C94 1.328 . S
C93 H108 0.929 . S
C94 C88 1.448 . S
C94 C93 1.328 . S
C94 H109 0.930 . S
Tb95 N86 2.617 . S
Tb95 N96 2.572 . S
Tb95 O130 2.349 . S
Tb95 O133 2.393 . S
Tb95 O134 2.444 1_565 S
Tb95 O135 2.387 . S
Tb95 O137 2.428 1_565 S
Tb95 O138 2.308 . S
Tb95 C159 2.802 1_565 S
N96 C92 1.361 . S
N96 Tb95 2.572 . S
N96 C98 1.340 . S
C97 C91 1.416 . S
C97 C99 1.332 . S
C97 H105 0.931 . S
C98 N96 1.340 . S
C98 C99 1.407 . S
C98 H104 0.930 . S
C99 C97 1.332 . S
C99 C98 1.407 . S
C99 H101 0.929 . S
H100 C89 0.930 . S
H101 C99 0.929 . S
H102 C117 0.930 . S
H103 C124 0.929 . S
H104 C98 0.930 . S
H105 C97 0.931 . S
H106 C120 0.930 . S
H107 C87 0.930 . S
H108 C93 0.929 . S
H109 C94 0.930 . S
H110 C115 0.930 . S
H111 C90 0.930 . S
H112 C123 0.931 . S
N113 Tb84 2.617 . S
N113 C114 1.379 . S
N113 C117 1.334 . S
C114 N113 1.379 . S
C114 C116 1.416 . S
C114 C122 1.424 . S
C115 H110 0.930 . S
C115 C117 1.390 . S
C115 C118 1.339 . S
C116 C114 1.416 . S
C116 C118 1.416 . S
C116 C149 1.448 . S
C117 H102 0.930 . S
C117 N113 1.334 . S
C117 C115 1.390 . S
C118 C115 1.339 . S
C118 C116 1.416 . S
C118 H125 0.930 . S
N119 Tb84 2.572 . S
N119 C120 1.340 . S
N119 C122 1.361 . S
C120 H106 0.930 . S
C120 N119 1.340 . S
C120 C124 1.407 . S
C121 C122 1.413 . S
C121 C123 1.416 . S
C121 C150 1.427 . S
C122 C114 1.424 . S
C122 N119 1.361 . S
C122 C121 1.413 . S
C123 H112 0.931 . S
C123 C121 1.416 . S
C123 C124 1.332 . S
C124 H103 0.929 . S
C124 C120 1.407 . S
C124 C123 1.332 . S
H125 C118 0.930 . S
H126 C149 0.930 . S
H127 C150 0.929 . S
O128 Tb84 2.465 . S
O128 C148 1.264 . S
O129 Tb84 2.387 . S
O129 C140 1.264 . S
O130 Tb95 2.349 . S
O130 C140 1.243 . S
O131 Tb84 2.428 . S
O131 C148 1.256 . S
O132 Tb84 2.308 . S
O132 C147 1.266 . S
O133 Tb95 2.393 . S
O133 C147 1.248 . S
O134 Tb95 2.444 1_545 S
O134 C159 1.275 . S
O135 Tb95 2.387 . S
O135 C151 1.264 . S
O136 Tb84 2.349 . S
O136 C151 1.243 . S
O137 Tb95 2.428 1_545 S
O137 C159 1.256 . S
O138 Tb95 2.308 . S
O138 C158 1.266 . S
O139 Tb84 2.393 . S
O139 C158 1.248 . S
C140 O129 1.264 . S
C140 O130 1.243 . S
C141 C144 1.399 . S
C141 C146 1.383 . S
C141 C148 1.496 . S
C142 C143 1.399 . S
C142 C146 1.389 . S
C143 C142 1.399 . S
C143 C145 1.380 . S
C143 H160 0.929 . S
C144 C141 1.399 . S
C144 C145 1.392 . S
C144 H161 0.929 . S
C145 C143 1.380 . S
C145 C144 1.392 . S
C145 H162 0.929 . S
C146 C141 1.383 . S
C146 C142 1.389 . S
C146 H163 0.931 . S
C147 O132 1.266 . S
C147 O133 1.248 . S
C148 Tb84 2.802 . S
C148 O128 1.264 . S
C148 O131 1.256 . S
C148 C141 1.496 . S
C149 C116 1.448 . S
C149 H126 0.930 . S
C149 C150 1.328 . S
C150 C121 1.427 . S
C150 H127 0.929 . S
C150 C149 1.328 . S
C151 O135 1.264 . S
C151 O136 1.243 . S
C152 C155 1.399 . S
C152 C156 1.383 . S
C152 C159 1.496 . S
C153 C154 1.399 . S
C153 C156 1.389 . S
C154 C153 1.399 . S
C154 C157 1.380 . S
C154 H164 0.929 . S
C155 C152 1.399 . S
C155 C157 1.392 . S
C155 H165 0.929 . S
C156 C152 1.383 . S
C156 C153 1.389 . S
C156 H166 0.931 . S
C157 C154 1.380 . S
C157 C155 1.392 . S
C157 H167 0.929 . S
C158 O138 1.266 . S
C158 O139 1.248 . S
C159 Tb95 2.802 1_545 S
C159 O134 1.275 . S
C159 O137 1.256 . S
C159 C152 1.496 . S
H160 C143 0.929 . S
H161 C144 0.929 . S
H162 C145 0.929 . S
H163 C146 0.931 . S
H164 C154 0.929 . S
H165 C155 0.929 . S
H166 C156 0.931 . S
H167 C157 0.929 . S
Tb168 N197 2.617 . S
Tb168 N203 2.572 . S
Tb168 O212 2.465 . S
Tb168 O213 2.387 . S
Tb168 O215 2.428 . S
Tb168 O216 2.308 . S
Tb168 O220 2.349 . S
Tb168 O223 2.393 . S
Tb168 C232 2.802 . S
C169 N170 1.379 . S
C169 C172 1.416 . S
C169 C176 1.424 . S
N170 C169 1.379 . S
N170 C173 1.334 . S
N170 Tb179 2.617 . S
C171 C173 1.390 . S
C171 C174 1.339 . S
C171 H191 0.930 . S
C172 C169 1.416 . S
C172 C174 1.416 . S
C172 C178 1.448 . S
C173 N170 1.334 . S
C173 C171 1.390 . S
C173 H184 0.930 . S
C174 C171 1.339 . S
C174 C172 1.416 . S
C174 H195 0.930 . S
C175 C176 1.413 . S
C175 C177 1.427 . S
C175 C181 1.416 . S
C176 C169 1.424 . S
C176 C175 1.413 . S
C176 N180 1.361 . S
C177 C175 1.427 . S
C177 C178 1.328 . S
C177 H192 0.929 . S
C178 C172 1.448 . S
C178 C177 1.328 . S
C178 H193 0.930 . S
Tb179 N170 2.617 . S
Tb179 N180 2.572 . S
Tb179 O214 2.349 . S
Tb179 O217 2.393 . S
Tb179 O218 2.465 . S
Tb179 O219 2.387 . S
Tb179 O221 2.428 . S
Tb179 O222 2.308 . S
Tb179 C243 2.802 . S
N180 C176 1.361 . S
N180 Tb179 2.572 . S
N180 C182 1.340 . S
C181 C175 1.416 . S
C181 C183 1.332 . S
C181 H189 0.931 . S
C182 N180 1.340 . S
C182 C183 1.407 . S
C182 H188 0.930 . S
C183 C181 1.332 . S
C183 C182 1.407 . S
C183 H185 0.929 . S
H184 C173 0.930 . S
H185 C183 0.929 . S
H186 C201 0.930 . S
H187 C208 0.929 . S
H188 C182 0.930 . S
H189 C181 0.931 . S
H190 C204 0.930 . S
H191 C171 0.930 . S
H192 C177 0.929 . S
H193 C178 0.930 . S
H194 C199 0.930 . S
H195 C174 0.930 . S
H196 C207 0.931 . S
N197 Tb168 2.617 . S
N197 C198 1.379 . S
N197 C201 1.334 . S
C198 N197 1.379 . S
C198 C200 1.416 . S
C198 C206 1.424 . S
C199 H194 0.930 . S
C199 C201 1.390 . S
C199 C202 1.339 . S
C200 C198 1.416 . S
C200 C202 1.416 . S
C200 C233 1.448 . S
C201 H186 0.930 . S
C201 N197 1.334 . S
C201 C199 1.390 . S
C202 C199 1.339 . S
C202 C200 1.416 . S
C202 H209 0.930 . S
N203 Tb168 2.572 . S
N203 C204 1.340 . S
N203 C206 1.361 . S
C204 H190 0.930 . S
C204 N203 1.340 . S
C204 C208 1.407 . S
C205 C206 1.413 . S
C205 C207 1.416 . S
C205 C234 1.427 . S
C206 C198 1.424 . S
C206 N203 1.361 . S
C206 C205 1.413 . S
C207 H196 0.931 . S
C207 C205 1.416 . S
C207 C208 1.332 . S
C208 H187 0.929 . S
C208 C204 1.407 . S
C208 C207 1.332 . S
H209 C202 0.930 . S
H210 C233 0.930 . S
H211 C234 0.929 . S
O212 Tb168 2.465 . S
O212 C232 1.264 . S
O213 Tb168 2.387 . S
O213 C224 1.264 . S
O214 Tb179 2.349 . S
O214 C224 1.243 . S
O215 Tb168 2.428 . S
O215 C232 1.256 . S
O216 Tb168 2.308 . S
O216 C231 1.266 . S
O217 Tb179 2.393 . S
O217 C231 1.248 . S
O218 Tb179 2.465 . S
O218 C243 1.264 . S
O219 Tb179 2.387 . S
O219 C235 1.264 . S
O220 Tb168 2.349 . S
O220 C235 1.243 . S
O221 Tb179 2.428 . S
O221 C243 1.256 . S
O222 Tb179 2.308 . S
O222 C242 1.266 . S
O223 Tb168 2.393 . S
O223 C242 1.248 . S
C224 O213 1.264 . S
C224 O214 1.243 . S
C225 C228 1.399 . S
C225 C230 1.383 . S
C225 C232 1.496 . S
C226 C227 1.399 . S
C226 C230 1.389 . S
C227 C226 1.399 . S
C227 C229 1.380 . S
C227 H244 0.929 . S
C228 C225 1.399 . S
C228 C229 1.392 . S
C228 H245 0.929 . S
C229 C227 1.380 . S
C229 C228 1.392 . S
C229 H246 0.929 . S
C230 C225 1.383 . S
C230 C226 1.389 . S
C230 H247 0.931 . S
C231 O216 1.266 . S
C231 O217 1.248 . S
C232 Tb168 2.802 . S
C232 O212 1.264 . S
C232 O215 1.256 . S
C232 C225 1.496 . S
C233 C200 1.448 . S
C233 H210 0.930 . S
C233 C234 1.328 . S
C234 C205 1.427 . S
C234 H211 0.929 . S
C234 C233 1.328 . S
C235 O219 1.264 . S
C235 O220 1.243 . S
C236 C239 1.399 . S
C236 C240 1.383 . S
C236 C243 1.496 . S
C237 C238 1.399 . S
C237 C240 1.389 . S
C238 C237 1.399 . S
C238 C241 1.380 . S
C238 H248 0.929 . S
C239 C236 1.399 . S
C239 C241 1.392 . S
C239 H249 0.929 . S
C240 C236 1.383 . S
C240 C237 1.389 . S
C240 H250 0.931 . S
C241 C238 1.380 . S
C241 C239 1.392 . S
C241 H251 0.929 . S
C242 O222 1.266 . S
C242 O223 1.248 . S
C243 Tb179 2.802 . S
C243 O218 1.264 . S
C243 O221 1.256 . S
C243 C236 1.496 . S
H244 C227 0.929 . S
H245 C228 0.929 . S
H246 C229 0.929 . S
H247 C230 0.931 . S
H248 C238 0.929 . S
H249 C239 0.929 . S
H250 C240 0.931 . S
H251 C241 0.929 . S
Tb252 N281 2.617 . S
Tb252 N287 2.572 . S
Tb252 O296 2.465 . S
Tb252 O297 2.387 . S
Tb252 O299 2.428 . S
Tb252 O300 2.308 . S
Tb252 O304 2.349 . S
Tb252 O307 2.393 . S
Tb252 C316 2.802 . S
C253 N254 1.379 . S
C253 C256 1.416 . S
C253 C260 1.424 . S
N254 C253 1.379 . S
N254 C257 1.334 . S
N254 Tb263 2.617 1_554 S
C255 C257 1.390 . S
C255 C258 1.339 . S
C255 H275 0.930 . S
C256 C253 1.416 . S
C256 C258 1.416 . S
C256 C262 1.448 . S
C257 N254 1.334 . S
C257 C255 1.390 . S
C257 H268 0.930 . S
C258 C255 1.339 . S
C258 C256 1.416 . S
C258 H279 0.930 . S
C259 C260 1.413 . S
C259 C261 1.427 . S
C259 C265 1.416 . S
C260 C253 1.424 . S
C260 C259 1.413 . S
C260 N264 1.361 . S
C261 C259 1.427 . S
C261 C262 1.328 . S
C261 H276 0.929 . S
C262 C256 1.448 . S
C262 C261 1.328 . S
C262 H277 0.930 . S
Tb263 N254 2.617 1_556 S
Tb263 N264 2.572 1_556 S
Tb263 O298 2.349 . S
Tb263 O301 2.393 . S
Tb263 O302 2.465 . S
Tb263 O303 2.387 . S
Tb263 O305 2.428 . S
Tb263 O306 2.308 . S
Tb263 C327 2.802 . S
N264 C260 1.361 . S
N264 Tb263 2.572 1_554 S
N264 C266 1.340 . S
C265 C259 1.416 . S
C265 C267 1.332 . S
C265 H273 0.931 . S
C266 N264 1.340 . S
C266 C267 1.407 . S
C266 H272 0.930 . S
C267 C265 1.332 . S
C267 C266 1.407 . S
C267 H269 0.929 . S
H268 C257 0.930 . S
H269 C267 0.929 . S
H270 C285 0.930 . S
H271 C292 0.929 . S
H272 C266 0.930 . S
H273 C265 0.931 . S
H274 C288 0.930 . S
H275 C255 0.930 . S
H276 C261 0.929 . S
H277 C262 0.930 . S
H278 C283 0.930 . S
H279 C258 0.930 . S
H280 C291 0.931 . S
N281 Tb252 2.617 . S
N281 C282 1.379 . S
N281 C285 1.334 . S
C282 N281 1.379 . S
C282 C284 1.416 . S
C282 C290 1.424 . S
C283 H278 0.930 . S
C283 C285 1.390 . S
C283 C286 1.339 . S
C284 C282 1.416 . S
C284 C286 1.416 . S
C284 C317 1.448 . S
C285 H270 0.930 . S
C285 N281 1.334 . S
C285 C283 1.390 . S
C286 C283 1.339 . S
C286 C284 1.416 . S
C286 H293 0.930 . S
N287 Tb252 2.572 . S
N287 C288 1.340 . S
N287 C290 1.361 . S
C288 H274 0.930 . S
C288 N287 1.340 . S
C288 C292 1.407 . S
C289 C290 1.413 . S
C289 C291 1.416 . S
C289 C318 1.427 . S
C290 C282 1.424 . S
C290 N287 1.361 . S
C290 C289 1.413 . S
C291 H280 0.931 . S
C291 C289 1.416 . S
C291 C292 1.332 . S
C292 H271 0.929 . S
C292 C288 1.407 . S
C292 C291 1.332 . S
H293 C286 0.930 . S
H294 C317 0.930 . S
H295 C318 0.929 . S
O296 Tb252 2.465 . S
O296 C316 1.264 . S
O297 Tb252 2.387 . S
O297 C308 1.264 . S
O298 Tb263 2.349 . S
O298 C308 1.243 . S
O299 Tb252 2.428 . S
O299 C316 1.256 . S
O300 Tb252 2.308 . S
O300 C315 1.266 . S
O301 Tb263 2.393 . S
O301 C315 1.248 . S
O302 Tb263 2.465 . S
O302 C327 1.264 . S
O303 Tb263 2.387 . S
O303 C319 1.264 . S
O304 Tb252 2.349 . S
O304 C319 1.243 . S
O305 Tb263 2.428 . S
O305 C327 1.256 . S
O306 Tb263 2.308 . S
O306 C326 1.266 . S
O307 Tb252 2.393 . S
O307 C326 1.248 . S
C308 O297 1.264 . S
C308 O298 1.243 . S
C309 C312 1.399 . S
C309 C314 1.383 . S
C309 C316 1.496 . S
C310 C311 1.399 . S
C310 C314 1.389 . S
C311 C310 1.399 . S
C311 C313 1.380 . S
C311 H328 0.929 . S
C312 C309 1.399 . S
C312 C313 1.392 . S
C312 H329 0.929 . S
C313 C311 1.380 . S
C313 C312 1.392 . S
C313 H330 0.929 . S
C314 C309 1.383 . S
C314 C310 1.389 . S
C314 H331 0.931 . S
C315 O300 1.266 . S
C315 O301 1.248 . S
C316 Tb252 2.802 . S
C316 O296 1.264 . S
C316 O299 1.256 . S
C316 C309 1.496 . S
C317 C284 1.448 . S
C317 H294 0.930 . S
C317 C318 1.328 . S
C318 C289 1.427 . S
C318 H295 0.929 . S
C318 C317 1.328 . S
C319 O303 1.264 . S
C319 O304 1.243 . S
C320 C323 1.367 1_556 S
C320 C324 1.381 . S
C320 C327 1.531 . S
C321 C322 1.399 . S
C321 C324 1.389 1_554 S
C322 C321 1.399 . S
C322 C325 1.380 . S
C322 H332 0.929 . S
C323 C320 1.367 1_554 S
C323 C325 1.392 . S
C323 H333 0.929 . S
C324 C320 1.381 . S
C324 C321 1.389 1_556 S
C324 H334 0.931 . S
C325 C322 1.380 . S
C325 C323 1.392 . S
C325 H335 0.929 . S
C326 O306 1.266 . S
C326 O307 1.248 . S
C327 Tb263 2.802 . S
C327 O302 1.264 . S
C327 O305 1.256 . S
C327 C320 1.531 . S
H328 C311 0.929 . S
H329 C312 0.929 . S
H330 C313 0.929 . S
H331 C314 0.931 . S
H332 C322 0.929 . S
H333 C323 0.929 . S
H334 C324 0.931 . S
H335 C325 0.929 . S
Tb336 N365 2.617 . S
Tb336 N371 2.572 . S
Tb336 O380 2.465 . S
Tb336 O381 2.387 . S
Tb336 O383 2.428 . S
Tb336 O384 2.308 . S
Tb336 O388 2.349 . S
Tb336 O391 2.402 . S
Tb336 C400 2.802 . S
C337 N338 1.379 1_655 S
C337 C340 1.416 . S
C337 C344 1.424 . S
N338 C337 1.379 1_455 S
N338 C341 1.334 . S
N338 Tb347 2.617 . S
C339 C341 1.390 . S
C339 C342 1.339 . S
C339 H359 0.930 . S
C340 C337 1.416 . S
C340 C342 1.416 1_655 S
C340 C346 1.448 . S
C341 N338 1.334 . S
C341 C339 1.390 . S
C341 H352 0.930 . S
C342 C339 1.339 . S
C342 C340 1.416 1_455 S
C342 H363 0.930 . S
C343 C344 1.413 . S
C343 C345 1.427 . S
C343 C349 1.416 . S
C344 C337 1.424 . S
C344 C343 1.413 . S
C344 N348 1.361 . S
C345 C343 1.427 . S
C345 C346 1.328 . S
C345 H360 0.929 . S
C346 C340 1.448 . S
C346 C345 1.328 . S
C346 H361 0.930 . S
Tb347 N338 2.617 . S
Tb347 N348 2.572 1_455 S
Tb347 O382 2.349 . S
Tb347 O385 2.393 . S
Tb347 O386 2.465 1_455 S
Tb347 O387 2.387 . S
Tb347 O389 2.428 1_455 S
Tb347 O390 2.308 1_455 S
Tb347 C411 2.802 1_455 S
N348 C344 1.361 . S
N348 Tb347 2.572 1_655 S
N348 C350 1.340 . S
C349 C343 1.416 . S
C349 C351 1.332 . S
C349 H357 0.931 . S
C350 N348 1.340 . S
C350 C351 1.407 . S
C350 H356 0.930 . S
C351 C349 1.332 . S
C351 C350 1.407 . S
C351 H353 0.929 . S
H352 C341 0.930 . S
H353 C351 0.929 . S
H354 C369 0.930 . S
H355 C376 0.929 . S
H356 C350 0.930 . S
H357 C349 0.931 . S
H358 C372 0.930 . S
H359 C339 0.930 . S
H360 C345 0.929 . S
H361 C346 0.930 . S
H362 C367 0.930 1_655 S
H363 C342 0.930 . S
H364 C375 0.931 . S
N365 Tb336 2.617 . S
N365 C366 1.379 . S
N365 C369 1.334 . S
C366 N365 1.379 . S
C366 C368 1.416 . S
C366 C374 1.424 . S
C367 H362 0.930 1_455 S
C367 C369 1.390 . S
C367 C370 1.339 . S
C368 C366 1.416 . S
C368 C370 1.416 . S
C368 C401 1.448 . S
C369 H354 0.930 . S
C369 N365 1.334 . S
C369 C367 1.390 . S
C370 C367 1.339 . S
C370 C368 1.416 . S
C370 H377 0.930 . S
N371 Tb336 2.572 . S
N371 C372 1.340 . S
N371 C374 1.361 . S
C372 H358 0.930 . S
C372 N371 1.340 . S
C372 C376 1.407 . S
C373 C374 1.413 . S
C373 C375 1.416 . S
C373 C402 1.427 . S
C374 C366 1.424 . S
C374 N371 1.361 . S
C374 C373 1.413 . S
C375 H364 0.931 . S
C375 C373 1.416 . S
C375 C376 1.332 . S
C376 H355 0.929 . S
C376 C372 1.407 . S
C376 C375 1.332 . S
H377 C370 0.930 . S
H378 C401 0.930 . S
H379 C402 0.929 . S
O380 Tb336 2.465 . S
O380 C400 1.264 . S
O381 Tb336 2.387 . S
O381 C392 1.264 . S
O382 Tb347 2.349 . S
O382 C392 1.243 . S
O383 Tb336 2.428 . S
O383 C400 1.256 . S
O384 Tb336 2.308 . S
O384 C399 1.266 . S
O385 Tb347 2.393 . S
O385 C399 1.248 . S
O386 Tb347 2.465 1_655 S
O386 C411 1.264 . S
O387 Tb347 2.387 . S
O387 C403 1.264 . S
O388 Tb336 2.349 . S
O388 C403 1.243 . S
O389 Tb347 2.428 1_655 S
O389 C411 1.256 . S
O390 Tb347 2.308 1_655 S
O390 C410 1.266 . S
O391 Tb336 2.402 . S
O391 C410 1.241 1_455 S
C392 O381 1.264 . S
C392 O382 1.243 . S
C393 C396 1.399 . S
C393 C398 1.383 . S
C393 C400 1.496 . S
C394 C395 1.399 . S
C394 C398 1.389 . S
C395 C394 1.399 . S
C395 C397 1.380 . S
C395 H412 0.929 . S
C396 C393 1.399 . S
C396 C397 1.392 . S
C396 H413 0.929 . S
C397 C395 1.380 . S
C397 C396 1.392 . S
C397 H414 0.929 . S
C398 C393 1.383 . S
C398 C394 1.389 . S
C398 H415 0.931 . S
C399 O384 1.266 . S
C399 O385 1.248 . S
C400 Tb336 2.802 . S
C400 O380 1.264 . S
C400 O383 1.256 . S
C400 C393 1.496 . S
C401 C368 1.448 . S
C401 H378 0.930 . S
C401 C402 1.328 . S
C402 C373 1.427 . S
C402 H379 0.929 . S
C402 C401 1.328 . S
C403 O387 1.264 . S
C403 O388 1.243 . S
C404 C407 1.399 . S
C404 C408 1.383 . S
C404 C411 1.496 . S
C405 C406 1.399 . S
C405 C408 1.389 . S
C406 C405 1.399 . S
C406 C409 1.380 . S
C406 H416 0.929 . S
C407 C404 1.399 . S
C407 C409 1.392 . S
C407 H417 0.929 . S
C408 C404 1.383 . S
C408 C405 1.389 . S
C408 H418 0.931 . S
C409 C406 1.380 . S
C409 C407 1.392 . S
C409 H419 0.929 . S
C410 O390 1.266 . S
C410 O391 1.241 1_655 S
C411 Tb347 2.802 1_655 S
C411 O386 1.264 . S
C411 O389 1.256 . S
C411 C404 1.496 . S
H412 C395 0.929 . S
H413 C396 0.929 . S
H414 C397 0.929 . S
H415 C398 0.931 . S
H416 C406 0.929 . S
H417 C407 0.929 . S
H418 C408 0.931 . S
H419 C409 0.929 . S
Tb420 N449 2.617 . S
Tb420 N455 2.572 . S
Tb420 O464 2.465 . S
Tb420 O465 2.387 . S
Tb420 O467 2.428 . S
Tb420 O468 2.308 . S
Tb420 O472 2.349 . S
Tb420 O475 2.393 . S
Tb420 C484 2.802 . S
C421 N422 1.379 . S
C421 C424 1.443 . S
C421 C428 1.424 . S
N422 C421 1.379 . S
N422 C425 1.334 . S
N422 Tb431 2.617 . S
C423 C425 1.390 . S
C423 C426 1.339 . S
C423 H443 0.930 . S
C424 C421 1.443 . S
C424 C426 1.419 . S
C424 C430 1.421 1_554 S
C425 N422 1.334 . S
C425 C423 1.390 . S
C425 H436 0.930 . S
C426 C423 1.339 . S
C426 C424 1.419 . S
C426 H447 0.930 1_554 S
C427 C428 1.388 1_556 S
C427 C429 1.451 . S
C427 C433 1.416 . S
C428 C421 1.424 . S
C428 C427 1.388 1_554 S
C428 N432 1.361 . S
C429 C427 1.451 . S
C429 C430 1.328 . S
C429 H444 0.929 . S
C430 C424 1.421 1_556 S
C430 C429 1.328 . S
C430 H445 0.930 . S
Tb431 N422 2.617 . S
Tb431 N432 2.572 . S
Tb431 O466 2.349 . S
Tb431 O469 2.393 . S
Tb431 O470 2.465 . S
Tb431 O471 2.387 . S
Tb431 O473 2.428 . S
Tb431 O474 2.308 . S
Tb431 C495 2.802 . S
N432 C428 1.361 . S
N432 Tb431 2.572 . S
N432 C434 1.340 . S
C433 C427 1.416 . S
C433 C435 1.328 1_556 S
C433 H441 0.935 . S
C434 N432 1.340 . S
C434 C435 1.407 . S
C434 H440 0.930 . S
C435 C433 1.328 1_554 S
C435 C434 1.407 . S
C435 H437 0.929 . S
H436 C425 0.930 . S
H437 C435 0.929 . S
H438 C453 0.930 . S
H439 C460 0.929 . S
H440 C434 0.930 . S
H441 C433 0.935 . S
H442 C456 0.930 . S
H443 C423 0.930 . S
H444 C429 0.929 . S
H445 C430 0.930 . S
H446 C451 0.930 . S
H447 C426 0.930 1_556 S
H448 C459 0.931 . S
N449 Tb420 2.617 . S
N449 C450 1.379 . S
N449 C453 1.334 . S
C450 N449 1.379 . S
C450 C452 1.416 . S
C450 C458 1.424 . S
C451 H446 0.930 . S
C451 C453 1.390 . S
C451 C454 1.339 . S
C452 C450 1.416 . S
C452 C454 1.416 . S
C452 C485 1.448 . S
C453 H438 0.930 . S
C453 N449 1.334 . S
C453 C451 1.390 . S
C454 C451 1.339 . S
C454 C452 1.416 . S
C454 H461 0.930 . S
N455 Tb420 2.572 . S
N455 C456 1.340 . S
N455 C458 1.361 . S
C456 H442 0.930 . S
C456 N455 1.340 . S
C456 C460 1.407 . S
C457 C458 1.413 . S
C457 C459 1.416 . S
C457 C486 1.427 . S
C458 C450 1.424 . S
C458 N455 1.361 . S
C458 C457 1.413 . S
C459 H448 0.931 . S
C459 C457 1.416 . S
C459 C460 1.332 . S
C460 H439 0.929 . S
C460 C456 1.407 . S
C460 C459 1.332 . S
H461 C454 0.930 . S
H462 C485 0.930 . S
H463 C486 0.929 . S
O464 Tb420 2.465 . S
O464 C484 1.264 . S
O465 Tb420 2.387 . S
O465 C476 1.264 . S
O466 Tb431 2.349 . S
O466 C476 1.243 . S
O467 Tb420 2.428 . S
O467 C484 1.256 . S
O468 Tb420 2.308 . S
O468 C483 1.266 . S
O469 Tb431 2.393 . S
O469 C483 1.248 . S
O470 Tb431 2.465 . S
O470 C495 1.264 . S
O471 Tb431 2.387 . S
O471 C487 1.264 . S
O472 Tb420 2.349 . S
O472 C487 1.243 . S
O473 Tb431 2.428 . S
O473 C495 1.256 . S
O474 Tb431 2.308 . S
O474 C494 1.266 . S
O475 Tb420 2.393 . S
O475 C494 1.248 . S
C476 O465 1.264 . S
C476 O466 1.243 . S
C477 C480 1.399 . S
C477 C482 1.383 . S
C477 C484 1.496 . S
C478 C479 1.399 . S
C478 C482 1.389 . S
C479 C478 1.399 . S
C479 C481 1.380 . S
C479 H496 0.929 . S
C480 C477 1.399 . S
C480 C481 1.392 . S
C480 H497 0.929 . S
C481 C479 1.380 . S
C481 C480 1.392 . S
C481 H498 0.929 . S
C482 C477 1.383 . S
C482 C478 1.389 . S
C482 H499 0.931 . S
C483 O468 1.266 . S
C483 O469 1.248 . S
C484 Tb420 2.802 . S
C484 O464 1.264 . S
C484 O467 1.256 . S
C484 C477 1.496 . S
C485 C452 1.448 . S
C485 H462 0.930 . S
C485 C486 1.328 . S
C486 C457 1.427 . S
C486 H463 0.929 . S
C486 C485 1.328 . S
C487 O471 1.264 . S
C487 O472 1.243 . S
C488 C491 1.399 . S
C488 C492 1.383 . S
C488 C495 1.496 1_545 S
C489 C490 1.399 . S
C489 C492 1.389 . S
C490 C489 1.399 . S
C490 C493 1.380 . S
C490 H500 0.929 . S
C491 C488 1.399 . S
C491 C493 1.392 . S
C491 H501 0.929 . S
C492 C488 1.383 . S
C492 C489 1.389 . S
C492 H502 0.931 . S
C493 C490 1.380 . S
C493 C491 1.392 . S
C493 H503 0.929 . S
C494 O474 1.266 . S
C494 O475 1.248 . S
C495 Tb431 2.802 . S
C495 O470 1.264 . S
C495 O473 1.256 . S
C495 C488 1.496 1_565 S
H496 C479 0.929 . S
H497 C480 0.929 . S
H498 C481 0.929 . S
H499 C482 0.931 . S
H500 C490 0.929 . S
H501 C491 0.929 . S
H502 C492 0.931 . S
H503 C493 0.929 . S
Tb504 N533 2.617 . S
Tb504 N539 2.572 . S
Tb504 O548 2.465 . S
Tb504 O549 2.387 . S
Tb504 O551 2.428 . S
Tb504 O552 2.308 . S
Tb504 O556 2.349 . S
Tb504 O559 2.393 . S
Tb504 C568 2.802 . S
C505 N506 1.379 . S
C505 C508 1.416 . S
C505 C512 1.424 . S
N506 C505 1.379 . S
N506 C509 1.334 . S
N506 Tb515 2.617 . S
C507 C509 1.390 . S
C507 C510 1.339 . S
C507 H527 0.930 . S
C508 C505 1.416 . S
C508 C510 1.416 . S
C508 C514 1.448 . S
C509 N506 1.334 . S
C509 C507 1.390 . S
C509 H520 0.930 . S
C510 C507 1.339 . S
C510 C508 1.416 . S
C510 H531 0.930 . S
C511 C512 1.413 . S
C511 C513 1.427 . S
C511 C517 1.416 . S
C512 C505 1.424 . S
C512 C511 1.413 . S
C512 N516 1.361 . S
C513 C511 1.427 . S
C513 C514 1.328 . S
C513 H528 0.929 . S
C514 C508 1.448 . S
C514 C513 1.328 . S
C514 H529 0.930 . S
Tb515 N506 2.617 . S
Tb515 N516 2.572 . S
Tb515 O550 2.349 . S
Tb515 O553 2.393 . S
Tb515 O554 2.465 . S
Tb515 O555 2.387 . S
Tb515 O557 2.428 . S
Tb515 O558 2.308 . S
Tb515 C579 2.802 . S
N516 C512 1.361 . S
N516 Tb515 2.572 . S
N516 C518 1.340 . S
C517 C511 1.416 . S
C517 C519 1.332 . S
C517 H525 0.931 . S
C518 N516 1.340 . S
C518 C519 1.407 . S
C518 H524 0.930 . S
C519 C517 1.332 . S
C519 C518 1.407 . S
C519 H521 0.929 . S
H520 C509 0.930 . S
H521 C519 0.929 . S
H522 C537 0.930 . S
H523 C544 0.929 . S
H524 C518 0.930 . S
H525 C517 0.931 . S
H526 C540 0.930 . S
H527 C507 0.930 . S
H528 C513 0.929 . S
H529 C514 0.930 . S
H530 C535 0.930 . S
H531 C510 0.930 . S
H532 C543 0.931 . S
N533 Tb504 2.617 . S
N533 C534 1.379 . S
N533 C537 1.334 . S
C534 N533 1.379 . S
C534 C536 1.416 . S
C534 C542 1.424 . S
C535 H530 0.930 . S
C535 C537 1.390 . S
C535 C538 1.339 . S
C536 C534 1.416 . S
C536 C538 1.416 . S
C536 C569 1.448 . S
C537 H522 0.930 . S
C537 N533 1.334 . S
C537 C535 1.390 . S
C538 C535 1.339 . S
C538 C536 1.416 . S
C538 H545 0.930 . S
N539 Tb504 2.572 . S
N539 C540 1.340 . S
N539 C542 1.361 . S
C540 H526 0.930 . S
C540 N539 1.340 . S
C540 C544 1.407 . S
C541 C542 1.413 . S
C541 C543 1.416 . S
C541 C570 1.427 . S
C542 C534 1.424 . S
C542 N539 1.361 . S
C542 C541 1.413 . S
C543 H532 0.931 . S
C543 C541 1.416 . S
C543 C544 1.332 . S
C544 H523 0.929 . S
C544 C540 1.407 . S
C544 C543 1.332 . S
H545 C538 0.930 . S
H546 C569 0.930 . S
H547 C570 0.929 . S
O548 Tb504 2.465 . S
O548 C568 1.264 . S
O549 Tb504 2.387 . S
O549 C560 1.264 . S
O550 Tb515 2.349 . S
O550 C560 1.243 . S
O551 Tb504 2.428 . S
O551 C568 1.256 . S
O552 Tb504 2.308 . S
O552 C567 1.266 . S
O553 Tb515 2.393 . S
O553 C567 1.248 . S
O554 Tb515 2.465 . S
O554 C579 1.264 . S
O555 Tb515 2.387 . S
O555 C571 1.264 . S
O556 Tb504 2.349 . S
O556 C571 1.243 . S
O557 Tb515 2.428 . S
O557 C579 1.256 . S
O558 Tb515 2.308 . S
O558 C578 1.266 . S
O559 Tb504 2.393 . S
O559 C578 1.248 . S
C560 O549 1.264 . S
C560 O550 1.243 . S
C561 C564 1.399 . S
C561 C566 1.383 . S
C561 C568 1.496 . S
C562 C563 1.399 . S
C562 C566 1.389 . S
C563 C562 1.399 . S
C563 C565 1.380 . S
C563 H580 0.929 . S
C564 C561 1.399 . S
C564 C565 1.392 . S
C564 H581 0.929 . S
C565 C563 1.380 . S
C565 C564 1.392 . S
C565 H582 0.929 . S
C566 C561 1.383 . S
C566 C562 1.389 . S
C566 H583 0.931 . S
C567 O552 1.266 . S
C567 O553 1.248 . S
C568 Tb504 2.802 . S
C568 O548 1.264 . S
C568 O551 1.256 . S
C568 C561 1.496 . S
C569 C536 1.448 . S
C569 H546 0.930 . S
C569 C570 1.328 . S
C570 C541 1.427 . S
C570 H547 0.929 . S
C570 C569 1.328 . S
C571 O555 1.264 . S
C571 O556 1.243 . S
C572 C575 1.399 . S
C572 C576 1.383 . S
C572 C579 1.496 . S
C573 C574 1.399 . S
C573 C576 1.389 . S
C574 C573 1.399 . S
C574 C577 1.380 . S
C574 H584 0.929 . S
C575 C572 1.399 . S
C575 C577 1.392 . S
C575 H585 0.929 . S
C576 C572 1.383 . S
C576 C573 1.389 . S
C576 H586 0.931 . S
C577 C574 1.380 . S
C577 C575 1.392 . S
C577 H587 0.929 . S
C578 O558 1.266 . S
C578 O559 1.248 . S
C579 Tb515 2.802 . S
C579 O554 1.264 . S
C579 O557 1.256 . S
C579 C572 1.496 . S
H580 C563 0.929 . S
H581 C564 0.929 . S
H582 C565 0.929 . S
H583 C566 0.931 . S
H584 C574 0.929 . S
H585 C575 0.929 . S
H586 C576 0.931 . S
H587 C577 0.929 . S
Tb588 N617 2.617 . S
Tb588 N623 2.572 . S
Tb588 O632 2.465 . S
Tb588 O633 2.387 . S
Tb588 O635 2.428 . S
Tb588 O636 2.308 . S
Tb588 O640 2.349 . S
Tb588 O643 2.393 . S
Tb588 C652 2.802 . S
C589 N590 1.379 . S
C589 C592 1.416 . S
C589 C596 1.424 . S
N590 C589 1.379 . S
N590 C593 1.334 . S
N590 Tb599 2.617 . S
C591 C593 1.390 . S
C591 C594 1.339 . S
C591 H611 0.930 . S
C592 C589 1.416 . S
C592 C594 1.416 . S
C592 C598 1.448 . S
C593 N590 1.334 . S
C593 C591 1.390 . S
C593 H604 0.930 . S
C594 C591 1.339 . S
C594 C592 1.416 . S
C594 H615 0.930 . S
C595 C596 1.413 . S
C595 C597 1.427 . S
C595 C601 1.416 . S
C596 C589 1.424 . S
C596 C595 1.413 . S
C596 N600 1.361 . S
C597 C595 1.427 . S
C597 C598 1.328 . S
C597 H612 0.929 . S
C598 C592 1.448 . S
C598 C597 1.328 . S
C598 H613 0.930 . S
Tb599 N590 2.617 . S
Tb599 N600 2.572 . S
Tb599 O634 2.349 . S
Tb599 O637 2.393 . S
Tb599 O638 2.465 . S
Tb599 O639 2.387 . S
Tb599 O641 2.428 . S
Tb599 O642 2.308 . S
Tb599 C663 2.802 . S
N600 C596 1.361 . S
N600 Tb599 2.572 . S
N600 C602 1.340 . S
C601 C595 1.416 . S
C601 C603 1.332 . S
C601 H609 0.931 . S
C602 N600 1.340 . S
C602 C603 1.407 . S
C602 H608 0.930 . S
C603 C601 1.332 . S
C603 C602 1.407 . S
C603 H605 0.929 . S
H604 C593 0.930 . S
H605 C603 0.929 . S
H606 C621 0.930 . S
H607 C628 0.929 . S
H608 C602 0.930 . S
H609 C601 0.931 . S
H610 C624 0.930 . S
H611 C591 0.930 . S
H612 C597 0.929 . S
H613 C598 0.930 . S
H614 C619 0.930 . S
H615 C594 0.930 . S
H616 C627 0.931 . S
N617 Tb588 2.617 . S
N617 C618 1.379 . S
N617 C621 1.334 . S
C618 N617 1.379 . S
C618 C620 1.416 . S
C618 C626 1.424 . S
C619 H614 0.930 . S
C619 C621 1.390 . S
C619 C622 1.339 . S
C620 C618 1.416 . S
C620 C622 1.416 . S
C620 C653 1.448 . S
C621 H606 0.930 . S
C621 N617 1.334 . S
C621 C619 1.390 . S
C622 C619 1.339 . S
C622 C620 1.416 . S
C622 H629 0.930 . S
N623 Tb588 2.572 . S
N623 C624 1.340 . S
N623 C626 1.361 . S
C624 H610 0.930 . S
C624 N623 1.340 . S
C624 C628 1.407 . S
C625 C626 1.413 . S
C625 C627 1.416 . S
C625 C654 1.427 . S
C626 C618 1.424 . S
C626 N623 1.361 . S
C626 C625 1.413 . S
C627 H616 0.931 . S
C627 C625 1.416 . S
C627 C628 1.332 . S
C628 H607 0.929 . S
C628 C624 1.407 . S
C628 C627 1.332 . S
H629 C622 0.930 . S
H630 C653 0.930 . S
H631 C654 0.929 . S
O632 Tb588 2.465 . S
O632 C652 1.264 . S
O633 Tb588 2.387 . S
O633 C644 1.264 . S
O634 Tb599 2.349 . S
O634 C644 1.243 . S
O635 Tb588 2.428 . S
O635 C652 1.256 . S
O636 Tb588 2.308 . S
O636 C651 1.266 . S
O637 Tb599 2.393 . S
O637 C651 1.248 . S
O638 Tb599 2.465 . S
O638 C663 1.264 . S
O639 Tb599 2.387 . S
O639 C655 1.264 . S
O640 Tb588 2.349 . S
O640 C655 1.243 . S
O641 Tb599 2.428 . S
O641 C663 1.256 . S
O642 Tb599 2.308 . S
O642 C662 1.266 . S
O643 Tb588 2.393 . S
O643 C662 1.248 . S
C644 O633 1.264 . S
C644 O634 1.243 . S
C645 C648 1.399 . S
C645 C650 1.383 . S
C645 C652 1.496 . S
C646 C647 1.399 . S
C646 C650 1.389 . S
C647 C646 1.399 . S
C647 C649 1.380 . S
C647 H664 0.929 . S
C648 C645 1.399 . S
C648 C649 1.392 . S
C648 H665 0.929 . S
C649 C647 1.380 . S
C649 C648 1.392 . S
C649 H666 0.929 . S
C650 C645 1.383 . S
C650 C646 1.389 . S
C650 H667 0.931 . S
C651 O636 1.266 . S
C651 O637 1.248 . S
C652 Tb588 2.802 . S
C652 O632 1.264 . S
C652 O635 1.256 . S
C652 C645 1.496 . S
C653 C620 1.448 . S
C653 H630 0.930 . S
C653 C654 1.328 . S
C654 C625 1.427 . S
C654 H631 0.929 . S
C654 C653 1.328 . S
C655 O639 1.264 . S
C655 O640 1.243 . S
C656 C659 1.399 . S
C656 C660 1.383 . S
C656 C663 1.496 . S
C657 C658 1.399 . S
C657 C660 1.389 . S
C658 C657 1.399 . S
C658 C661 1.380 . S
C658 H668 0.929 . S
C659 C656 1.399 . S
C659 C661 1.392 . S
C659 H669 0.929 . S
C660 C656 1.383 . S
C660 C657 1.389 . S
C660 H670 0.931 . S
C661 C658 1.380 . S
C661 C659 1.392 . S
C661 H671 0.929 . S
C662 O642 1.266 . S
C662 O643 1.248 . S
C663 Tb599 2.802 . S
C663 O638 1.264 . S
C663 O641 1.256 . S
C663 C656 1.496 . S
H664 C647 0.929 . S
H665 C648 0.929 . S
H666 C649 0.929 . S
H667 C650 0.931 . S
H668 C658 0.929 . S
H669 C659 0.929 . S
H670 C660 0.931 . S
H671 C661 0.929 . S
Tb672 N701 2.617 . S
Tb672 N707 2.572 . S
Tb672 O716 2.465 . S
Tb672 O717 2.387 . S
Tb672 O719 2.428 . S
Tb672 O720 2.308 . S
Tb672 O724 2.349 . S
Tb672 O727 2.393 . S
Tb672 C736 2.802 . S
C673 N674 1.379 . S
C673 C676 1.416 . S
C673 C680 1.424 . S
N674 C673 1.379 . S
N674 C677 1.334 . S
N674 Tb683 2.617 . S
C675 C677 1.390 . S
C675 C678 1.339 . S
C675 H695 0.930 . S
C676 C673 1.416 . S
C676 C678 1.416 . S
C676 C682 1.448 . S
C677 N674 1.334 . S
C677 C675 1.390 . S
C677 H688 0.930 . S
C678 C675 1.339 . S
C678 C676 1.416 . S
C678 H699 0.930 . S
C679 C680 1.413 . S
C679 C681 1.427 . S
C679 C685 1.416 . S
C680 C673 1.424 . S
C680 C679 1.413 . S
C680 N684 1.361 . S
C681 C679 1.427 . S
C681 C682 1.328 . S
C681 H696 0.929 . S
C682 C676 1.448 . S
C682 C681 1.328 . S
C682 H697 0.930 . S
Tb683 N674 2.617 . S
Tb683 N684 2.572 . S
Tb683 O718 2.349 . S
Tb683 O721 2.393 . S
Tb683 O722 2.465 . S
Tb683 O723 2.387 . S
Tb683 O725 2.428 . S
Tb683 O726 2.308 . S
Tb683 C747 2.802 . S
N684 C680 1.361 . S
N684 Tb683 2.572 . S
N684 C686 1.340 . S
C685 C679 1.416 . S
C685 C687 1.332 . S
C685 H693 0.931 . S
C686 N684 1.340 . S
C686 C687 1.407 . S
C686 H692 0.930 . S
C687 C685 1.332 . S
C687 C686 1.407 . S
C687 H689 0.929 . S
H688 C677 0.930 . S
H689 C687 0.929 . S
H690 C705 0.930 . S
H691 C712 0.929 . S
H692 C686 0.930 . S
H693 C685 0.931 . S
H694 C708 0.930 . S
H695 C675 0.930 . S
H696 C681 0.929 . S
H697 C682 0.930 . S
H698 C703 0.930 . S
H699 C678 0.930 . S
H700 C711 0.931 . S
N701 Tb672 2.617 . S
N701 C702 1.379 . S
N701 C705 1.334 . S
C702 N701 1.379 . S
C702 C704 1.416 . S
C702 C710 1.424 . S
C703 H698 0.930 . S
C703 C705 1.390 . S
C703 C706 1.339 . S
C704 C702 1.416 . S
C704 C706 1.416 . S
C704 C737 1.448 . S
C705 H690 0.930 . S
C705 N701 1.334 . S
C705 C703 1.390 . S
C706 C703 1.339 . S
C706 C704 1.416 . S
C706 H713 0.930 . S
N707 Tb672 2.572 . S
N707 C708 1.340 . S
N707 C710 1.361 . S
C708 H694 0.930 . S
C708 N707 1.340 . S
C708 C712 1.407 . S
C709 C710 1.413 . S
C709 C711 1.416 . S
C709 C738 1.427 . S
C710 C702 1.424 . S
C710 N707 1.361 . S
C710 C709 1.413 . S
C711 H700 0.931 . S
C711 C709 1.416 . S
C711 C712 1.332 . S
C712 H691 0.929 . S
C712 C708 1.407 . S
C712 C711 1.332 . S
H713 C706 0.930 . S
H714 C737 0.930 . S
H715 C738 0.929 . S
O716 Tb672 2.465 . S
O716 C736 1.264 . S
O717 Tb672 2.387 . S
O717 C728 1.264 . S
O718 Tb683 2.349 . S
O718 C728 1.243 . S
O719 Tb672 2.428 . S
O719 C736 1.256 . S
O720 Tb672 2.308 . S
O720 C735 1.266 . S
O721 Tb683 2.393 . S
O721 C735 1.248 . S
O722 Tb683 2.465 . S
O722 C747 1.264 . S
O723 Tb683 2.387 . S
O723 C739 1.264 . S
O724 Tb672 2.349 . S
O724 C739 1.243 . S
O725 Tb683 2.428 . S
O725 C747 1.256 . S
O726 Tb683 2.308 . S
O726 C746 1.266 . S
O727 Tb672 2.393 . S
O727 C746 1.248 . S
C728 O717 1.264 . S
C728 O718 1.243 . S
C729 C732 1.399 . S
C729 C734 1.383 . S
C729 C736 1.496 . S
C730 C731 1.399 . S
C730 C734 1.389 . S
C731 C730 1.399 . S
C731 C733 1.380 . S
C731 H748 0.929 . S
C732 C729 1.399 . S
C732 C733 1.392 . S
C732 H749 0.929 . S
C733 C731 1.380 . S
C733 C732 1.392 . S
C733 H750 0.929 . S
C734 C729 1.383 . S
C734 C730 1.389 . S
C734 H751 0.931 . S
C735 O720 1.266 . S
C735 O721 1.248 . S
C736 Tb672 2.802 . S
C736 O716 1.264 . S
C736 O719 1.256 . S
C736 C729 1.496 . S
C737 C704 1.448 . S
C737 H714 0.930 . S
C737 C738 1.328 . S
C738 C709 1.427 . S
C738 H715 0.929 . S
C738 C737 1.328 . S
C739 O723 1.264 . S
C739 O724 1.243 . S
C740 C743 1.399 . S
C740 C744 1.383 . S
C740 C747 1.496 . S
C741 C742 1.399 . S
C741 C744 1.389 . S
C742 C741 1.399 . S
C742 C745 1.380 . S
C742 H752 0.929 . S
C743 C740 1.399 . S
C743 C745 1.392 . S
C743 H753 0.929 . S
C744 C740 1.383 . S
C744 C741 1.389 . S
C744 H754 0.931 . S
C745 C742 1.380 . S
C745 C743 1.392 . S
C745 H755 0.929 . S
C746 O726 1.266 . S
C746 O727 1.248 . S
C747 Tb683 2.802 . S
C747 O722 1.264 . S
C747 O725 1.256 . S
C747 C740 1.496 . S
H748 C731 0.929 . S
H749 C732 0.929 . S
H750 C733 0.929 . S
H751 C734 0.931 . S
H752 C742 0.929 . S
H753 C743 0.929 . S
H754 C744 0.931 . S
H755 C745 0.929 . S
Tb756 N785 2.617 . S
Tb756 N791 2.572 . S
Tb756 O800 2.465 . S
Tb756 O801 2.387 . S
Tb756 O803 2.428 . S
Tb756 O804 2.308 . S
Tb756 O808 2.349 . S
Tb756 O811 2.393 . S
Tb756 C820 2.802 . S
C757 N758 1.379 . S
C757 C760 1.416 . S
C757 C764 1.424 . S
N758 C757 1.379 . S
N758 C761 1.334 . S
N758 Tb767 2.617 . S
C759 C761 1.390 . S
C759 C762 1.339 . S
C759 H779 0.930 . S
C760 C757 1.416 . S
C760 C762 1.416 . S
C760 C766 1.448 . S
C761 N758 1.334 . S
C761 C759 1.390 . S
C761 H772 0.930 . S
C762 C759 1.339 . S
C762 C760 1.416 . S
C762 H783 0.930 . S
C763 C764 1.413 . S
C763 C765 1.427 . S
C763 C769 1.416 . S
C764 C757 1.424 . S
C764 C763 1.413 . S
C764 N768 1.361 . S
C765 C763 1.427 . S
C765 C766 1.328 . S
C765 H780 0.929 . S
C766 C760 1.448 . S
C766 C765 1.328 . S
C766 H781 0.930 . S
Tb767 N758 2.617 . S
Tb767 N768 2.572 . S
Tb767 O802 2.349 . S
Tb767 O805 2.393 . S
Tb767 O806 2.465 . S
Tb767 O807 2.387 . S
Tb767 O809 2.428 . S
Tb767 O810 2.308 . S
Tb767 C831 2.802 . S
N768 C764 1.361 . S
N768 Tb767 2.572 . S
N768 C770 1.340 . S
C769 C763 1.416 . S
C769 C771 1.332 . S
C769 H777 0.931 . S
C770 N768 1.340 . S
C770 C771 1.407 . S
C770 H776 0.930 . S
C771 C769 1.332 . S
C771 C770 1.407 . S
C771 H773 0.929 . S
H772 C761 0.930 . S
H773 C771 0.929 . S
H774 C789 0.930 . S
H775 C796 0.929 . S
H776 C770 0.930 . S
H777 C769 0.931 . S
H778 C792 0.930 . S
H779 C759 0.930 . S
H780 C765 0.929 . S
H781 C766 0.930 . S
H782 C787 0.930 . S
H783 C762 0.930 . S
H784 C795 0.931 . S
N785 Tb756 2.617 . S
N785 C786 1.379 . S
N785 C789 1.334 . S
C786 N785 1.379 . S
C786 C788 1.416 1_554 S
C786 C794 1.424 . S
C787 H782 0.930 . S
C787 C789 1.390 . S
C787 C790 1.339 1_554 S
C788 C786 1.416 1_556 S
C788 C790 1.416 . S
C788 C821 1.448 . S
C789 H774 0.930 . S
C789 N785 1.334 . S
C789 C787 1.390 . S
C790 C787 1.339 1_556 S
C790 C788 1.416 . S
C790 H797 0.930 . S
N791 Tb756 2.572 . S
N791 C792 1.340 . S
N791 C794 1.361 . S
C792 H778 0.930 . S
C792 N791 1.340 . S
C792 C796 1.407 . S
C793 C794 1.413 1_556 S
C793 C795 1.416 . S
C793 C822 1.427 . S
C794 C786 1.424 . S
C794 N791 1.361 . S
C794 C793 1.413 1_554 S
C795 H784 0.931 . S
C795 C793 1.416 . S
C795 C796 1.332 1_556 S
C796 H775 0.929 . S
C796 C792 1.407 . S
C796 C795 1.332 1_554 S
H797 C790 0.930 . S
H798 C821 0.930 . S
H799 C822 0.929 . S
O800 Tb756 2.465 . S
O800 C820 1.264 . S
O801 Tb756 2.387 . S
O801 C812 1.264 . S
O802 Tb767 2.349 . S
O802 C812 1.243 . S
O803 Tb756 2.428 . S
O803 C820 1.256 . S
O804 Tb756 2.308 . S
O804 C819 1.266 . S
O805 Tb767 2.393 . S
O805 C819 1.248 . S
O806 Tb767 2.465 . S
O806 C831 1.264 . S
O807 Tb767 2.387 . S
O807 C823 1.264 . S
O808 Tb756 2.349 . S
O808 C823 1.243 . S
O809 Tb767 2.428 . S
O809 C831 1.256 . S
O810 Tb767 2.308 . S
O810 C830 1.266 . S
O811 Tb756 2.393 . S
O811 C830 1.248 . S
C812 O801 1.264 . S
C812 O802 1.243 . S
C813 C816 1.399 . S
C813 C818 1.383 . S
C813 C820 1.496 . S
C814 C815 1.399 . S
C814 C818 1.389 1_545 S
C815 C814 1.399 . S
C815 C817 1.380 1_545 S
C815 H832 0.929 . S
C816 C813 1.399 . S
C816 C817 1.392 . S
C816 H833 0.929 . S
C817 C815 1.380 1_565 S
C817 C816 1.392 . S
C817 H834 0.929 1_565 S
C818 C813 1.383 . S
C818 C814 1.389 1_565 S
C818 H835 0.931 . S
C819 O804 1.266 . S
C819 O805 1.248 . S
C820 Tb756 2.802 . S
C820 O800 1.264 . S
C820 O803 1.256 . S
C820 C813 1.496 . S
C821 C788 1.448 . S
C821 H798 0.930 . S
C821 C822 1.328 . S
C822 C793 1.427 . S
C822 H799 0.929 . S
C822 C821 1.328 . S
C823 O807 1.264 . S
C823 O808 1.243 . S
C824 C827 1.399 . S
C824 C828 1.383 . S
C824 C831 1.496 . S
C825 C826 1.399 . S
C825 C828 1.389 . S
C826 C825 1.399 . S
C826 C829 1.380 . S
C826 H836 0.929 . S
C827 C824 1.399 . S
C827 C829 1.392 . S
C827 H837 0.929 . S
C828 C824 1.383 . S
C828 C825 1.389 . S
C828 H838 0.931 . S
C829 C826 1.380 . S
C829 C827 1.392 . S
C829 H839 0.929 . S
C830 O810 1.266 . S
C830 O811 1.248 . S
C831 Tb767 2.802 . S
C831 O806 1.264 . S
C831 O809 1.256 . S
C831 C824 1.496 . S
H832 C815 0.929 . S
H833 C816 0.929 . S
H834 C817 0.929 1_545 S
H835 C818 0.931 . S
H836 C826 0.929 . S
H837 C827 0.929 . S
H838 C828 0.931 . S
H839 C829 0.929 . S
Tb840 N869 2.617 1_556 S
Tb840 N875 2.572 1_556 S
Tb840 O884 2.465 . S
Tb840 O885 2.387 . S
Tb840 O887 2.428 . S
Tb840 O888 2.308 . S
Tb840 O892 2.349 . S
Tb840 O895 2.393 . S
Tb840 C904 2.802 . S
C841 N842 1.379 . S
C841 C844 1.416 . S
C841 C848 1.424 . S
N842 C841 1.379 . S
N842 C845 1.334 . S
N842 Tb851 2.617 . S
C843 C845 1.390 . S
C843 C846 1.339 . S
C843 H863 0.930 . S
C844 C841 1.416 . S
C844 C846 1.416 . S
C844 C850 1.448 . S
C845 N842 1.334 . S
C845 C843 1.390 . S
C845 H856 0.930 . S
C846 C843 1.339 . S
C846 C844 1.416 . S
C846 H867 0.930 . S
C847 C848 1.413 . S
C847 C849 1.427 . S
C847 C853 1.416 . S
C848 C841 1.424 . S
C848 C847 1.413 . S
C848 N852 1.361 . S
C849 C847 1.427 . S
C849 C850 1.328 . S
C849 H864 0.929 . S
C850 C844 1.448 . S
C850 C849 1.328 . S
C850 H865 0.930 . S
Tb851 N842 2.617 . S
Tb851 N852 2.572 . S
Tb851 O886 2.349 . S
Tb851 O889 2.393 . S
Tb851 O890 2.465 . S
Tb851 O891 2.387 . S
Tb851 O893 2.428 . S
Tb851 O894 2.308 . S
Tb851 C915 2.802 . S
N852 C848 1.361 . S
N852 Tb851 2.572 . S
N852 C854 1.340 . S
C853 C847 1.416 . S
C853 C855 1.332 . S
C853 H861 0.931 . S
C854 N852 1.340 . S
C854 C855 1.407 . S
C854 H860 0.930 . S
C855 C853 1.332 . S
C855 C854 1.407 . S
C855 H857 0.929 . S
H856 C845 0.930 . S
H857 C855 0.929 . S
H858 C873 0.930 1_556 S
H859 C880 0.929 . S
H860 C854 0.930 . S
H861 C853 0.931 . S
H862 C876 0.912 1_556 S
H863 C843 0.930 . S
H864 C849 0.929 . S
H865 C850 0.930 . S
H866 C871 0.930 . S
H867 C846 0.930 . S
H868 C879 0.931 . S
N869 Tb840 2.617 1_554 S
N869 C870 1.379 . S
N869 C873 1.334 . S
C870 N869 1.379 . S
C870 C872 1.416 . S
C870 C878 1.424 . S
C871 H866 0.930 . S
C871 C873 1.390 . S
C871 C874 1.339 . S
C872 C870 1.416 . S
C872 C874 1.416 . S
C872 C905 1.448 . S
C873 H858 0.930 1_554 S
C873 N869 1.334 . S
C873 C871 1.390 . S
C874 C871 1.339 . S
C874 C872 1.416 . S
C874 H881 0.930 . S
N875 Tb840 2.572 1_554 S
N875 C876 1.340 . S
N875 C878 1.361 . S
C876 H862 0.912 1_554 S
C876 N875 1.340 . S
C876 C880 1.407 . S
C877 C878 1.413 . S
C877 C879 1.416 . S
C877 C906 1.427 . S
C878 C870 1.424 . S
C878 N875 1.361 . S
C878 C877 1.413 . S
C879 H868 0.931 . S
C879 C877 1.416 . S
C879 C880 1.332 . S
C880 H859 0.929 . S
C880 C876 1.407 . S
C880 C879 1.332 . S
H881 C874 0.930 . S
H882 C905 0.930 . S
H883 C906 0.929 . S
O884 Tb840 2.465 . S
O884 C904 1.264 . S
O885 Tb840 2.387 . S
O885 C896 1.264 . S
O886 Tb851 2.349 . S
O886 C896 1.243 . S
O887 Tb840 2.428 . S
O887 C904 1.256 . S
O888 Tb840 2.308 . S
O888 C903 1.266 . S
O889 Tb851 2.393 . S
O889 C903 1.248 . S
O890 Tb851 2.465 . S
O890 C915 1.264 . S
O891 Tb851 2.387 . S
O891 C907 1.264 . S
O892 Tb840 2.349 . S
O892 C907 1.243 . S
O893 Tb851 2.428 . S
O893 C915 1.256 . S
O894 Tb851 2.308 . S
O894 C914 1.266 . S
O895 Tb840 2.393 . S
O895 C914 1.248 . S
C896 O885 1.264 . S
C896 O886 1.243 . S
C897 C900 1.399 . S
C897 C902 1.383 . S
C897 C904 1.496 . S
C898 C899 1.399 . S
C898 C902 1.389 . S
C899 C898 1.399 . S
C899 C901 1.378 . S
C899 H916 0.929 1_556 S
C900 C897 1.399 . S
C900 C901 1.406 . S
C900 H917 0.929 . S
C901 C899 1.378 . S
C901 C900 1.406 . S
C901 H918 0.918 1_556 S
C902 C897 1.383 . S
C902 C898 1.389 . S
C902 H919 0.931 . S
C903 O888 1.266 . S
C903 O889 1.248 . S
C904 Tb840 2.802 . S
C904 O884 1.264 . S
C904 O887 1.256 . S
C904 C897 1.496 . S
C905 C872 1.448 . S
C905 H882 0.930 . S
C905 C906 1.328 . S
C906 C877 1.427 . S
C906 H883 0.929 . S
C906 C905 1.328 . S
C907 O891 1.264 . S
C907 O892 1.243 . S
C908 C911 1.399 . S
C908 C912 1.383 . S
C908 C915 1.496 . S
C909 C910 1.399 . S
C909 C912 1.389 . S
C910 C909 1.399 . S
C910 C913 1.380 . S
C910 H920 0.929 . S
C911 C908 1.399 . S
C911 C913 1.392 . S
C911 H921 0.929 . S
C912 C908 1.383 . S
C912 C909 1.389 . S
C912 H922 0.931 . S
C913 C910 1.380 . S
C913 C911 1.392 . S
C913 H923 0.929 . S
C914 O894 1.266 . S
C914 O895 1.248 . S
C915 Tb851 2.802 . S
C915 O890 1.264 . S
C915 O893 1.256 . S
C915 C908 1.496 . S
H916 C899 0.929 1_554 S
H917 C900 0.929 . S
H918 C901 0.918 1_554 S
H919 C902 0.931 . S
H920 C910 0.929 . S
H921 C911 0.929 . S
H922 C912 0.931 . S
H923 C913 0.929 . S
Tb924 N953 2.617 . S
Tb924 N959 2.572 . S
Tb924 O968 2.465 1_565 S
Tb924 O969 2.387 . S
Tb924 O971 2.428 1_565 S
Tb924 O972 2.308 . S
Tb924 O976 2.349 1_565 S
Tb924 O979 2.393 . S
Tb924 C988 2.802 1_565 S
C925 N926 1.379 1_545 S
C925 C928 1.416 . S
C925 C932 1.424 . S
N926 C925 1.379 1_565 S
N926 C929 1.334 . S
N926 Tb935 2.617 . S
C927 C929 1.390 1_545 S
C927 C930 1.339 . S
C927 H947 0.930 . S
C928 C925 1.416 . S
C928 C930 1.416 . S
C928 C934 1.448 . S
C929 N926 1.334 . S
C929 C927 1.390 1_565 S
C929 H940 0.930 . S
C930 C927 1.339 . S
C930 C928 1.416 . S
C930 H951 0.930 . S
C931 C932 1.412 . S
C931 C933 1.427 . S
C931 C937 1.416 . S
C932 C925 1.424 . S
C932 C931 1.412 . S
C932 N936 1.362 1_545 S
C933 C931 1.427 . S
C933 C934 1.328 . S
C933 H948 0.929 . S
C934 C928 1.448 . S
C934 C933 1.328 . S
C934 H949 0.930 . S
Tb935 N926 2.617 . S
Tb935 N936 2.572 . S
Tb935 O970 2.349 . S
Tb935 O973 2.393 . S
Tb935 O974 2.465 . S
Tb935 O975 2.387 1_565 S
Tb935 O977 2.428 . S
Tb935 O978 2.308 . S
Tb935 C999 2.802 . S
N936 C932 1.362 1_565 S
N936 Tb935 2.572 . S
N936 C938 1.340 . S
C937 C931 1.416 . S
C937 C939 1.332 1_545 S
C937 H945 0.931 . S
C938 N936 1.340 . S
C938 C939 1.407 . S
C938 H944 0.930 . S
C939 C937 1.332 1_565 S
C939 C938 1.407 . S
C939 H941 0.929 . S
H940 C929 0.930 . S
H941 C939 0.929 . S
H942 C957 0.930 . S
H943 C964 0.929 . S
H944 C938 0.930 . S
H945 C937 0.931 . S
H946 C960 0.930 . S
H947 C927 0.930 . S
H948 C933 0.929 . S
H949 C934 0.930 . S
H950 C955 0.930 . S
H951 C930 0.930 . S
H952 C963 0.931 . S
N953 Tb924 2.617 . S
N953 C954 1.379 . S
N953 C957 1.334 . S
C954 N953 1.379 . S
C954 C956 1.416 . S
C954 C962 1.424 . S
C955 H950 0.930 . S
C955 C957 1.390 . S
C955 C958 1.339 . S
C956 C954 1.416 . S
C956 C958 1.416 . S
C956 C989 1.448 . S
C957 H942 0.930 . S
C957 N953 1.334 . S
C957 C955 1.390 . S
C958 C955 1.339 . S
C958 C956 1.416 . S
C958 H965 0.930 . S
N959 Tb924 2.572 . S
N959 C960 1.340 . S
N959 C962 1.361 . S
C960 H946 0.930 . S
C960 N959 1.340 . S
C960 C964 1.407 . S
C961 C962 1.413 . S
C961 C963 1.416 . S
C961 C990 1.427 . S
C962 C954 1.424 . S
C962 N959 1.361 . S
C962 C961 1.413 . S
C963 H952 0.931 . S
C963 C961 1.416 . S
C963 C964 1.332 . S
C964 H943 0.929 . S
C964 C960 1.407 . S
C964 C963 1.332 . S
H965 C958 0.930 . S
H966 C989 0.930 . S
H967 C990 0.929 . S
O968 Tb924 2.465 1_545 S
O968 C988 1.264 . S
O969 Tb924 2.387 . S
O969 C980 1.264 . S
O970 Tb935 2.349 . S
O970 C980 1.243 . S
O971 Tb924 2.428 1_545 S
O971 C988 1.256 . S
O972 Tb924 2.308 . S
O972 C987 1.266 . S
O973 Tb935 2.393 . S
O973 C987 1.248 . S
O974 Tb935 2.465 . S
O974 C999 1.264 . S
O975 Tb935 2.387 1_545 S
O975 C991 1.264 . S
O976 Tb924 2.349 1_545 S
O976 C991 1.243 . S
O977 Tb935 2.428 . S
O977 C999 1.256 . S
O978 Tb935 2.308 . S
O978 C998 1.266 . S
O979 Tb924 2.393 . S
O979 C998 1.248 . S
C980 O969 1.264 . S
C980 O970 1.243 . S
C981 C984 1.399 . S
C981 C986 1.383 . S
C981 C988 1.496 . S
C982 C983 1.399 . S
C982 C986 1.389 . S
C983 C982 1.399 . S
C983 C985 1.380 . S
C983 H1000 0.929 . S
C984 C981 1.399 . S
C984 C985 1.392 . S
C984 H1001 0.929 . S
C985 C983 1.380 . S
C985 C984 1.392 . S
C985 H1002 0.929 . S
C986 C981 1.383 . S
C986 C982 1.389 . S
C986 H1003 0.931 . S
C987 O972 1.266 . S
C987 O973 1.248 . S
C988 Tb924 2.802 1_545 S
C988 O968 1.264 . S
C988 O971 1.256 . S
C988 C981 1.496 . S
C989 C956 1.448 . S
C989 H966 0.930 . S
C989 C990 1.328 . S
C990 C961 1.427 . S
C990 H967 0.929 . S
C990 C989 1.328 . S
C991 O975 1.264 . S
C991 O976 1.243 . S
C992 C995 1.399 . S
C992 C996 1.383 . S
C992 C999 1.496 . S
C993 C994 1.399 . S
C993 C996 1.389 . S
C994 C993 1.399 . S
C994 C997 1.380 . S
C994 H1004 0.929 . S
C995 C992 1.399 . S
C995 C997 1.392 . S
C995 H1005 0.929 . S
C996 C992 1.383 . S
C996 C993 1.389 . S
C996 H1006 0.931 . S
C997 C994 1.380 . S
C997 C995 1.392 . S
C997 H1007 0.929 . S
C998 O978 1.266 . S
C998 O979 1.248 . S
C999 Tb935 2.802 . S
C999 O974 1.264 . S
C999 O977 1.256 . S
C999 C992 1.496 . S
H1000 C983 0.929 . S
H1001 C984 0.929 . S
H1002 C985 0.929 . S
H1003 C986 0.931 . S
H1004 C994 0.929 . S
H1005 C995 0.929 . S
H1006 C996 0.931 . S
H1007 C997 0.929 . S
Tb1008 N1037 2.617 . S
Tb1008 N1043 2.572 . S
Tb1008 O1052 2.465 . S
Tb1008 O1053 2.387 . S
Tb1008 O1055 2.428 . S
Tb1008 O1056 2.308 . S
Tb1008 O1060 2.349 1_545 S
Tb1008 O1063 2.393 . S
Tb1008 C1072 2.802 . S
C1009 N1010 1.379 . S
C1009 C1012 1.416 . S
C1009 C1016 1.424 . S
N1010 C1009 1.379 . S
N1010 C1013 1.334 . S
N1010 Tb1019 2.617 1_565 S
C1011 C1013 1.390 . S
C1011 C1014 1.339 . S
C1011 H1031 0.930 . S
C1012 C1009 1.416 . S
C1012 C1014 1.416 . S
C1012 C1018 1.448 . S
C1013 N1010 1.334 . S
C1013 C1011 1.390 . S
C1013 H1024 0.930 1_565 S
C1014 C1011 1.339 . S
C1014 C1012 1.416 . S
C1014 H1035 0.930 . S
C1015 C1016 1.413 . S
C1015 C1017 1.427 . S
C1015 C1021 1.416 . S
C1016 C1009 1.424 . S
C1016 C1015 1.413 . S
C1016 N1020 1.361 . S
C1017 C1015 1.427 . S
C1017 C1018 1.328 . S
C1017 H1032 0.929 . S
C1018 C1012 1.448 . S
C1018 C1017 1.328 . S
C1018 H1033 0.930 . S
Tb1019 N1010 2.617 1_545 S
Tb1019 N1020 2.572 1_545 S
Tb1019 O1054 2.349 . S
Tb1019 O1057 2.393 . S
Tb1019 O1058 2.465 . S
Tb1019 O1059 2.387 1_545 S
Tb1019 O1061 2.428 . S
Tb1019 O1062 2.308 . S
Tb1019 C1083 2.802 . S
N1020 C1016 1.361 . S
N1020 Tb1019 2.572 1_565 S
N1020 C1022 1.340 . S
C1021 C1015 1.416 . S
C1021 C1023 1.332 . S
C1021 H1029 0.931 . S
C1022 N1020 1.340 . S
C1022 C1023 1.407 . S
C1022 H1028 0.930 . S
C1023 C1021 1.332 . S
C1023 C1022 1.407 . S
C1023 H1025 0.929 . S
H1024 C1013 0.930 1_545 S
H1025 C1023 0.929 . S
H1026 C1041 0.930 . S
H1027 C1048 0.929 . S
H1028 C1022 0.930 . S
H1029 C1021 0.931 . S
H1030 C1044 0.930 . S
H1031 C1011 0.930 . S
H1032 C1017 0.929 . S
H1033 C1018 0.930 . S
H1034 C1039 0.930 . S
H1035 C1014 0.930 . S
H1036 C1047 0.931 . S
N1037 Tb1008 2.617 . S
N1037 C1038 1.379 . S
N1037 C1041 1.334 . S
C1038 N1037 1.379 . S
C1038 C1040 1.416 . S
C1038 C1046 1.424 . S
C1039 H1034 0.930 . S
C1039 C1041 1.390 . S
C1039 C1042 1.339 . S
C1040 C1038 1.416 . S
C1040 C1042 1.416 . S
C1040 C1073 1.448 . S
C1041 H1026 0.930 . S
C1041 N1037 1.334 . S
C1041 C1039 1.390 . S
C1042 C1039 1.339 . S
C1042 C1040 1.416 . S
C1042 H1049 0.930 . S
N1043 Tb1008 2.572 . S
N1043 C1044 1.340 . S
N1043 C1046 1.361 . S
C1044 H1030 0.930 . S
C1044 N1043 1.340 . S
C1044 C1048 1.407 . S
C1045 C1046 1.413 . S
C1045 C1047 1.416 . S
C1045 C1074 1.427 . S
C1046 C1038 1.424 . S
C1046 N1043 1.361 . S
C1046 C1045 1.413 . S
C1047 H1036 0.931 . S
C1047 C1045 1.416 . S
C1047 C1048 1.332 . S
C1048 H1027 0.929 . S
C1048 C1044 1.407 . S
C1048 C1047 1.332 . S
H1049 C1042 0.930 . S
H1050 C1073 0.930 . S
H1051 C1074 0.929 . S
O1052 Tb1008 2.465 . S
O1052 C1072 1.264 . S
O1053 Tb1008 2.387 . S
O1053 C1064 1.264 . S
O1054 Tb1019 2.349 . S
O1054 C1064 1.243 . S
O1055 Tb1008 2.428 . S
O1055 C1072 1.256 . S
O1056 Tb1008 2.308 . S
O1056 C1071 1.266 . S
O1057 Tb1019 2.393 . S
O1057 C1071 1.248 . S
O1058 Tb1019 2.465 . S
O1058 C1083 1.264 . S
O1059 Tb1019 2.387 1_565 S
O1059 C1075 1.264 . S
O1060 Tb1008 2.349 1_565 S
O1060 C1075 1.243 . S
O1061 Tb1019 2.428 . S
O1061 C1083 1.256 . S
O1062 Tb1019 2.308 . S
O1062 C1082 1.266 . S
O1063 Tb1008 2.393 . S
O1063 C1082 1.248 . S
C1064 O1053 1.264 . S
C1064 O1054 1.243 . S
C1065 C1068 1.399 . S
C1065 C1070 1.383 . S
C1065 C1072 1.496 . S
C1066 C1067 1.399 . S
C1066 C1070 1.389 . S
C1067 C1066 1.399 . S
C1067 C1069 1.380 . S
C1067 H1084 0.929 . S
C1068 C1065 1.399 . S
C1068 C1069 1.392 . S
C1068 H1085 0.929 . S
C1069 C1067 1.380 . S
C1069 C1068 1.392 . S
C1069 H1086 0.929 . S
C1070 C1065 1.383 . S
C1070 C1066 1.389 . S
C1070 H1087 0.931 . S
C1071 O1056 1.266 . S
C1071 O1057 1.248 . S
C1072 Tb1008 2.802 . S
C1072 O1052 1.264 . S
C1072 O1055 1.256 . S
C1072 C1065 1.496 . S
C1073 C1040 1.448 . S
C1073 H1050 0.930 . S
C1073 C1074 1.328 . S
C1074 C1045 1.427 . S
C1074 H1051 0.929 . S
C1074 C1073 1.328 . S
C1075 O1059 1.264 . S
C1075 O1060 1.243 . S
C1076 C1079 1.399 . S
C1076 C1080 1.383 . S
C1076 C1083 1.496 . S
C1077 C1078 1.399 . S
C1077 C1080 1.389 . S
C1078 C1077 1.399 . S
C1078 C1081 1.380 . S
C1078 H1088 0.929 . S
C1079 C1076 1.399 . S
C1079 C1081 1.392 . S
C1079 H1089 0.929 . S
C1080 C1076 1.383 . S
C1080 C1077 1.389 . S
C1080 H1090 0.931 . S
C1081 C1078 1.380 . S
C1081 C1079 1.392 . S
C1081 H1091 0.929 . S
C1082 O1062 1.266 . S
C1082 O1063 1.248 . S
C1083 Tb1019 2.802 . S
C1083 O1058 1.264 . S
C1083 O1061 1.256 . S
C1083 C1076 1.496 . S
H1084 C1067 0.929 . S
H1085 C1068 0.929 . S
H1086 C1069 0.929 . S
H1087 C1070 0.931 . S
H1088 C1078 0.929 . S
H1089 C1079 0.929 . S
H1090 C1080 0.931 . S
H1091 C1081 0.929 . S
Tb1092 N1121 2.617 . S
Tb1092 N1127 2.572 . S
Tb1092 O1136 2.465 . S
Tb1092 O1137 2.387 1_455 S
Tb1092 O1139 2.428 . S
Tb1092 O1140 2.308 . S
Tb1092 O1144 2.349 . S
Tb1092 O1147 2.393 . S
Tb1092 C1156 2.802 . S
C1093 N1094 1.379 . S
C1093 C1096 1.416 . S
C1093 C1100 1.424 . S
N1094 C1093 1.379 . S
N1094 C1097 1.334 1_455 S
N1094 Tb1103 2.617 1_455 S
C1095 C1097 1.390 1_455 S
C1095 C1098 1.339 . S
C1095 H1115 0.930 1_545 S
C1096 C1093 1.416 . S
C1096 C1098 1.416 . S
C1096 C1102 1.448 . S
C1097 N1094 1.334 1_655 S
C1097 C1095 1.390 1_655 S
C1097 H1108 0.930 . S
C1098 C1095 1.339 . S
C1098 C1096 1.416 . S
C1098 H1119 0.930 . S
C1099 C1100 1.413 . S
C1099 C1101 1.427 . S
C1099 C1105 1.416 . S
C1100 C1093 1.424 . S
C1100 C1099 1.413 . S
C1100 N1104 1.361 . S
C1101 C1099 1.427 . S
C1101 C1102 1.328 . S
C1101 H1116 0.929 . S
C1102 C1096 1.448 . S
C1102 C1101 1.328 . S
C1102 H1117 0.930 . S
Tb1103 N1094 2.617 1_655 S
Tb1103 N1104 2.572 1_655 S
Tb1103 O1138 2.349 . S
Tb1103 O1141 2.393 . S
Tb1103 O1142 2.465 . S
Tb1103 O1143 2.387 1_655 S
Tb1103 O1145 2.428 . S
Tb1103 O1146 2.308 1_655 S
Tb1103 C1167 2.802 . S
N1104 C1100 1.361 . S
N1104 Tb1103 2.572 1_455 S
N1104 C1106 1.340 . S
C1105 C1099 1.416 . S
C1105 C1107 1.332 . S
C1105 H1113 0.931 . S
C1106 N1104 1.340 . S
C1106 C1107 1.407 . S
C1106 H1112 0.930 . S
C1107 C1105 1.332 . S
C1107 C1106 1.407 . S
C1107 H1109 0.929 . S
H1108 C1097 0.930 . S
H1109 C1107 0.929 . S
H1110 C1125 0.930 . S
H1111 C1132 0.930 1_655 S
H1112 C1106 0.930 . S
H1113 C1105 0.931 . S
H1114 C1128 0.930 . S
H1115 C1095 0.930 1_565 S
H1116 C1101 0.929 . S
H1117 C1102 0.930 . S
H1118 C1123 0.930 . S
H1119 C1098 0.930 . S
H1120 C1131 0.931 . S
N1121 Tb1092 2.617 . S
N1121 C1122 1.379 . S
N1121 C1125 1.334 . S
C1122 N1121 1.379 . S
C1122 C1124 1.416 . S
C1122 C1130 1.424 . S
C1123 H1118 0.930 . S
C1123 C1125 1.390 . S
C1123 C1126 1.339 . S
C1124 C1122 1.416 . S
C1124 C1126 1.416 . S
C1124 C1157 1.448 1_455 S
C1125 H1110 0.930 . S
C1125 N1121 1.334 . S
C1125 C1123 1.390 . S
C1126 C1123 1.339 . S
C1126 C1124 1.416 . S
C1126 H1133 0.930 . S
N1127 Tb1092 2.572 . S
N1127 C1128 1.340 1_545 S
N1127 C1130 1.361 . S
C1128 H1114 0.930 . S
C1128 N1127 1.340 1_565 S
C1128 C1132 1.407 . S
C1129 C1130 1.418 . S
C1129 C1131 1.416 1_445 S
C1129 C1158 1.421 1_455 S
C1130 C1122 1.424 . S
C1130 N1127 1.361 . S
C1130 C1129 1.418 . S
C1131 H1120 0.931 . S
C1131 C1129 1.416 1_665 S
C1131 C1132 1.332 1_655 S
C1132 H1111 0.930 1_455 S
C1132 C1128 1.407 . S
C1132 C1131 1.332 1_455 S
H1133 C1126 0.930 . S
H1134 C1157 0.930 . S
H1135 C1158 0.929 . S
O1136 Tb1092 2.465 . S
O1136 C1156 1.264 . S
O1137 Tb1092 2.387 1_655 S
O1137 C1148 1.264 . S
O1138 Tb1103 2.349 . S
O1138 C1148 1.243 . S
O1139 Tb1092 2.428 . S
O1139 C1156 1.256 . S
O1140 Tb1092 2.308 . S
O1140 C1155 1.266 . S
O1141 Tb1103 2.393 . S
O1141 C1155 1.248 1_655 S
O1142 Tb1103 2.465 . S
O1142 C1167 1.264 . S
O1143 Tb1103 2.387 1_455 S
O1143 C1159 1.264 . S
O1144 Tb1092 2.349 . S
O1144 C1159 1.243 . S
O1145 Tb1103 2.428 . S
O1145 C1167 1.256 . S
O1146 Tb1103 2.308 1_455 S
O1146 C1166 1.266 . S
O1147 Tb1092 2.393 . S
O1147 C1166 1.248 . S
C1148 O1137 1.264 . S
C1148 O1138 1.243 . S
C1149 C1152 1.399 . S
C1149 C1154 1.383 . S
C1149 C1156 1.496 . S
C1150 C1151 1.399 . S
C1150 C1154 1.389 . S
C1151 C1150 1.399 . S
C1151 C1153 1.380 . S
C1151 H1168 0.929 . S
C1152 C1149 1.399 . S
C1152 C1153 1.392 . S
C1152 H1169 0.929 . S
C1153 C1151 1.380 . S
C1153 C1152 1.392 . S
C1153 H1170 0.929 . S
C1154 C1149 1.383 . S
C1154 C1150 1.389 . S
C1154 H1171 0.931 . S
C1155 O1140 1.266 . S
C1155 O1141 1.248 1_455 S
C1156 Tb1092 2.802 . S
C1156 O1136 1.264 . S
C1156 O1139 1.256 . S
C1156 C1149 1.496 . S
C1157 C1124 1.448 1_655 S
C1157 H1134 0.930 . S
C1157 C1158 1.328 . S
C1158 C1129 1.421 1_655 S
C1158 H1135 0.929 . S
C1158 C1157 1.328 . S
C1159 O1143 1.264 . S
C1159 O1144 1.243 . S
C1160 C1163 1.399 . S
C1160 C1164 1.383 . S
C1160 C1167 1.496 . S
C1161 C1162 1.399 . S
C1161 C1164 1.389 . S
C1162 C1161 1.399 . S
C1162 C1165 1.380 . S
C1162 H1172 0.929 . S
C1163 C1160 1.399 . S
C1163 C1165 1.392 . S
C1163 H1173 0.929 . S
C1164 C1160 1.383 . S
C1164 C1161 1.389 . S
C1164 H1174 0.931 . S
C1165 C1162 1.380 . S
C1165 C1163 1.392 . S
C1165 H1175 0.929 . S
C1166 O1146 1.266 . S
C1166 O1147 1.248 . S
C1167 Tb1103 2.802 . S
C1167 O1142 1.264 . S
C1167 O1145 1.256 . S
C1167 C1160 1.496 . S
H1168 C1151 0.929 . S
H1169 C1152 0.929 . S
H1170 C1153 0.929 . S
H1171 C1154 0.931 . S
H1172 C1162 0.929 . S
H1173 C1163 0.929 . S
H1174 C1164 0.931 . S
H1175 C1165 0.929 . S
Tb1176 N1205 2.617 . S
Tb1176 N1211 2.572 . S
Tb1176 O1220 2.465 . S
Tb1176 O1221 2.387 . S
Tb1176 O1223 2.428 . S
Tb1176 O1224 2.308 . S
Tb1176 O1228 2.349 . S
Tb1176 O1231 2.393 . S
Tb1176 C1240 2.802 . S
C1177 N1178 1.379 . S
C1177 C1180 1.416 . S
C1177 C1184 1.424 . S
N1178 C1177 1.379 . S
N1178 C1181 1.334 . S
N1178 Tb1187 2.617 . S
C1179 C1181 1.390 . S
C1179 C1182 1.339 . S
C1179 H1199 0.930 . S
C1180 C1177 1.416 . S
C1180 C1182 1.416 . S
C1180 C1186 1.448 1_545 S
C1181 N1178 1.334 . S
C1181 C1179 1.390 . S
C1181 H1192 0.930 . S
C1182 C1179 1.339 . S
C1182 C1180 1.416 . S
C1182 H1203 0.930 . S
C1183 C1184 1.413 . S
C1183 C1185 1.427 1_545 S
C1183 C1189 1.416 . S
C1184 C1177 1.424 . S
C1184 C1183 1.413 . S
C1184 N1188 1.361 . S
C1185 C1183 1.427 1_565 S
C1185 C1186 1.328 . S
C1185 H1200 0.929 . S
C1186 C1180 1.448 1_565 S
C1186 C1185 1.328 . S
C1186 H1201 0.930 . S
Tb1187 N1178 2.617 . S
Tb1187 N1188 2.572 . S
Tb1187 O1222 2.349 . S
Tb1187 O1225 2.393 . S
Tb1187 O1226 2.465 . S
Tb1187 O1227 2.387 . S
Tb1187 O1229 2.428 . S
Tb1187 O1230 2.308 . S
Tb1187 C1251 2.802 . S
N1188 C1184 1.361 . S
N1188 Tb1187 2.572 . S
N1188 C1190 1.340 . S
C1189 C1183 1.416 . S
C1189 C1191 1.332 . S
C1189 H1197 0.931 1_545 S
C1190 N1188 1.340 . S
C1190 C1191 1.407 . S
C1190 H1196 0.930 . S
C1191 C1189 1.332 . S
C1191 C1190 1.407 . S
C1191 H1193 0.929 . S
H1192 C1181 0.930 . S
H1193 C1191 0.929 . S
H1194 C1209 0.930 . S
H1195 C1216 0.929 . S
H1196 C1190 0.930 . S
H1197 C1189 0.931 1_565 S
H1198 C1212 0.930 . S
H1199 C1179 0.930 . S
H1200 C1185 0.929 . S
H1201 C1186 0.930 . S
H1202 C1207 0.930 . S
H1203 C1182 0.930 . S
H1204 C1215 0.931 . S
N1205 Tb1176 2.617 . S
N1205 C1206 1.379 . S
N1205 C1209 1.334 . S
C1206 N1205 1.379 . S
C1206 C1208 1.416 . S
C1206 C1214 1.424 . S
C1207 H1202 0.930 . S
C1207 C1209 1.390 . S
C1207 C1210 1.339 . S
C1208 C1206 1.416 . S
C1208 C1210 1.416 . S
C1208 C1241 1.448 . S
C1209 H1194 0.930 . S
C1209 N1205 1.334 . S
C1209 C1207 1.390 . S
C1210 C1207 1.339 . S
C1210 C1208 1.416 . S
C1210 H1217 0.930 . S
N1211 Tb1176 2.572 . S
N1211 C1212 1.340 . S
N1211 C1214 1.361 . S
C1212 H1198 0.930 . S
C1212 N1211 1.340 . S
C1212 C1216 1.407 . S
C1213 C1214 1.413 . S
C1213 C1215 1.416 . S
C1213 C1242 1.427 . S
C1214 C1206 1.424 . S
C1214 N1211 1.361 . S
C1214 C1213 1.413 . S
C1215 H1204 0.931 . S
C1215 C1213 1.416 . S
C1215 C1216 1.332 . S
C1216 H1195 0.929 . S
C1216 C1212 1.407 . S
C1216 C1215 1.332 . S
H1217 C1210 0.930 . S
H1218 C1241 0.930 . S
H1219 C1242 0.929 . S
O1220 Tb1176 2.465 . S
O1220 C1240 1.264 . S
O1221 Tb1176 2.387 . S
O1221 C1232 1.264 . S
O1222 Tb1187 2.349 . S
O1222 C1232 1.243 . S
O1223 Tb1176 2.428 . S
O1223 C1240 1.256 . S
O1224 Tb1176 2.308 . S
O1224 C1239 1.266 . S
O1225 Tb1187 2.393 . S
O1225 C1239 1.248 . S
O1226 Tb1187 2.465 . S
O1226 C1251 1.264 . S
O1227 Tb1187 2.387 . S
O1227 C1243 1.264 . S
O1228 Tb1176 2.349 . S
O1228 C1243 1.243 . S
O1229 Tb1187 2.428 . S
O1229 C1251 1.256 . S
O1230 Tb1187 2.308 . S
O1230 C1250 1.266 . S
O1231 Tb1176 2.393 . S
O1231 C1250 1.248 . S
C1232 O1221 1.264 . S
C1232 O1222 1.243 . S
C1233 C1236 1.399 . S
C1233 C1238 1.383 . S
C1233 C1240 1.496 . S
C1234 C1235 1.399 . S
C1234 C1238 1.389 . S
C1235 C1234 1.399 . S
C1235 C1237 1.380 . S
C1235 H1252 0.929 . S
C1236 C1233 1.399 . S
C1236 C1237 1.392 . S
C1236 H1253 0.929 . S
C1237 C1235 1.380 . S
C1237 C1236 1.392 . S
C1237 H1254 0.929 . S
C1238 C1233 1.383 . S
C1238 C1234 1.389 . S
C1238 H1255 0.931 . S
C1239 O1224 1.266 . S
C1239 O1225 1.248 . S
C1240 Tb1176 2.802 . S
C1240 O1220 1.264 . S
C1240 O1223 1.256 . S
C1240 C1233 1.496 . S
C1241 C1208 1.448 . S
C1241 H1218 0.930 . S
C1241 C1242 1.328 . S
C1242 C1213 1.427 . S
C1242 H1219 0.929 . S
C1242 C1241 1.328 . S
C1243 O1227 1.264 . S
C1243 O1228 1.243 . S
C1244 C1247 1.399 . S
C1244 C1248 1.383 . S
C1244 C1251 1.496 . S
C1245 C1246 1.399 . S
C1245 C1248 1.389 . S
C1246 C1245 1.399 . S
C1246 C1249 1.380 . S
C1246 H1256 0.929 . S
C1247 C1244 1.399 . S
C1247 C1249 1.392 . S
C1247 H1257 0.929 . S
C1248 C1244 1.383 . S
C1248 C1245 1.389 . S
C1248 H1258 0.931 . S
C1249 C1246 1.380 . S
C1249 C1247 1.392 . S
C1249 H1259 0.929 . S
C1250 O1230 1.266 . S
C1250 O1231 1.248 . S
C1251 Tb1187 2.802 . S
C1251 O1226 1.264 . S
C1251 O1229 1.256 . S
C1251 C1244 1.496 . S
H1252 C1235 0.929 . S
H1253 C1236 0.929 . S
H1254 C1237 0.929 . S
H1255 C1238 0.931 . S
H1256 C1246 0.929 . S
H1257 C1247 0.929 . S
H1258 C1248 0.931 . S
H1259 C1249 0.929 . S
Tb1260 N1289 2.617 . S
Tb1260 N1295 2.572 . S
Tb1260 O1304 2.465 . S
Tb1260 O1305 2.387 . S
Tb1260 O1307 2.428 . S
Tb1260 O1308 2.308 . S
Tb1260 O1312 2.349 . S
Tb1260 O1315 2.393 . S
Tb1260 C1324 2.802 . S
C1261 N1262 1.379 . S
C1261 C1264 1.416 . S
C1261 C1268 1.424 . S
N1262 C1261 1.379 . S
N1262 C1265 1.334 . S
N1262 Tb1271 2.617 . S
C1263 C1265 1.390 . S
C1263 C1266 1.339 . S
C1263 H1283 0.930 . S
C1264 C1261 1.416 . S
C1264 C1266 1.416 . S
C1264 C1270 1.448 . S
C1265 N1262 1.334 . S
C1265 C1263 1.390 . S
C1265 H1276 0.930 . S
C1266 C1263 1.339 . S
C1266 C1264 1.416 . S
C1266 H1287 0.930 . S
C1267 C1268 1.413 . S
C1267 C1269 1.427 . S
C1267 C1273 1.416 . S
C1268 C1261 1.424 . S
C1268 C1267 1.413 . S
C1268 N1272 1.361 . S
C1269 C1267 1.427 . S
C1269 C1270 1.328 . S
C1269 H1284 0.929 . S
C1270 C1264 1.448 . S
C1270 C1269 1.328 . S
C1270 H1285 0.930 . S
Tb1271 N1262 2.617 . S
Tb1271 N1272 2.572 . S
Tb1271 O1306 2.349 1_455 S
Tb1271 O1309 2.393 . S
Tb1271 O1310 2.465 1_455 S
Tb1271 O1311 2.387 . S
Tb1271 O1313 2.428 1_455 S
Tb1271 O1314 2.308 . S
Tb1271 C1335 2.802 1_455 S
N1272 C1268 1.361 . S
N1272 Tb1271 2.572 . S
N1272 C1274 1.340 . S
C1273 C1267 1.416 . S
C1273 C1275 1.332 . S
C1273 H1281 0.931 . S
C1274 N1272 1.340 . S
C1274 C1275 1.407 . S
C1274 H1280 0.930 . S
C1275 C1273 1.332 . S
C1275 C1274 1.407 . S
C1275 H1277 0.929 . S
H1276 C1265 0.930 . S
H1277 C1275 0.929 . S
H1278 C1293 0.930 . S
H1279 C1300 0.929 1_565 S
H1280 C1274 0.930 . S
H1281 C1273 0.931 . S
H1282 C1296 0.930 . S
H1283 C1263 0.930 . S
H1284 C1269 0.929 . S
H1285 C1270 0.930 . S
H1286 C1291 0.930 . S
H1287 C1266 0.930 . S
H1288 C1299 0.931 1_565 S
N1289 Tb1260 2.617 . S
N1289 C1290 1.379 . S
N1289 C1293 1.334 . S
C1290 N1289 1.379 . S
C1290 C1292 1.416 . S
C1290 C1298 1.424 . S
C1291 H1286 0.930 . S
C1291 C1293 1.390 . S
C1291 C1294 1.339 . S
C1292 C1290 1.416 . S
C1292 C1294 1.416 . S
C1292 C1325 1.448 . S
C1293 H1278 0.930 . S
C1293 N1289 1.334 . S
C1293 C1291 1.390 . S
C1294 C1291 1.339 . S
C1294 C1292 1.416 . S
C1294 H1301 0.930 . S
N1295 Tb1260 2.572 . S
N1295 C1296 1.340 . S
N1295 C1298 1.361 . S
C1296 H1282 0.930 . S
C1296 N1295 1.340 . S
C1296 C1300 1.407 . S
C1297 C1298 1.413 . S
C1297 C1299 1.416 . S
C1297 C1326 1.427 . S
C1298 C1290 1.424 . S
C1298 N1295 1.361 . S
C1298 C1297 1.413 . S
C1299 H1288 0.931 1_545 S
C1299 C1297 1.416 . S
C1299 C1300 1.332 . S
C1300 H1279 0.929 1_545 S
C1300 C1296 1.407 . S
C1300 C1299 1.332 . S
H1301 C1294 0.930 . S
H1302 C1325 0.930 . S
H1303 C1326 0.929 . S
O1304 Tb1260 2.465 . S
O1304 C1324 1.264 . S
O1305 Tb1260 2.387 . S
O1305 C1316 1.264 1_455 S
O1306 Tb1271 2.349 1_655 S
O1306 C1316 1.243 . S
O1307 Tb1260 2.428 . S
O1307 C1324 1.256 . S
O1308 Tb1260 2.308 . S
O1308 C1323 1.266 . S
O1309 Tb1271 2.393 . S
O1309 C1323 1.248 . S
O1310 Tb1271 2.465 1_655 S
O1310 C1335 1.264 . S
O1311 Tb1271 2.387 . S
O1311 C1327 1.264 . S
O1312 Tb1260 2.349 . S
O1312 C1327 1.243 . S
O1313 Tb1271 2.428 1_655 S
O1313 C1335 1.256 . S
O1314 Tb1271 2.308 . S
O1314 C1334 1.266 . S
O1315 Tb1260 2.393 . S
O1315 C1334 1.248 . S
C1316 O1305 1.264 1_655 S
C1316 O1306 1.243 . S
C1317 C1320 1.399 . S
C1317 C1322 1.383 . S
C1317 C1324 1.496 . S
C1318 C1319 1.399 . S
C1318 C1322 1.389 . S
C1319 C1318 1.399 . S
C1319 C1321 1.380 . S
C1319 H1336 0.929 . S
C1320 C1317 1.399 . S
C1320 C1321 1.392 . S
C1320 H1337 0.929 . S
C1321 C1319 1.380 . S
C1321 C1320 1.392 . S
C1321 H1338 0.929 . S
C1322 C1317 1.383 . S
C1322 C1318 1.389 . S
C1322 H1339 0.931 . S
C1323 O1308 1.266 . S
C1323 O1309 1.248 . S
C1324 Tb1260 2.802 . S
C1324 O1304 1.264 . S
C1324 O1307 1.256 . S
C1324 C1317 1.496 . S
C1325 C1292 1.448 . S
C1325 H1302 0.930 . S
C1325 C1326 1.328 . S
C1326 C1297 1.427 . S
C1326 H1303 0.929 . S
C1326 C1325 1.328 . S
C1327 O1311 1.264 . S
C1327 O1312 1.243 . S
C1328 C1331 1.399 . S
C1328 C1332 1.383 . S
C1328 C1335 1.496 . S
C1329 C1330 1.399 . S
C1329 C1332 1.389 . S
C1330 C1329 1.399 . S
C1330 C1333 1.380 . S
C1330 H1340 0.929 . S
C1331 C1328 1.399 . S
C1331 C1333 1.392 . S
C1331 H1341 0.929 . S
C1332 C1328 1.383 . S
C1332 C1329 1.389 . S
C1332 H1342 0.931 . S
C1333 C1330 1.380 . S
C1333 C1331 1.392 . S
C1333 H1343 0.929 . S
C1334 O1314 1.266 . S
C1334 O1315 1.248 . S
C1335 Tb1271 2.802 1_655 S
C1335 O1310 1.264 . S
C1335 O1313 1.256 . S
C1335 C1328 1.496 . S
H1336 C1319 0.929 . S
H1337 C1320 0.929 . S
H1338 C1321 0.929 . S
H1339 C1322 0.931 . S
H1340 C1330 0.929 . S
H1341 C1331 0.929 . S
H1342 C1332 0.931 . S
H1343 C1333 0.929 . S
H1344 C1350 0.930 . S
H1345 C1353 0.930 . S
H1346 C1354 0.941 . S
H1347 C1355 0.930 . S
H1348 C1358 0.930 . S
H1349 C1359 0.930 . S
C1350 H1344 0.930 . S
C1350 C1351 1.355 . S
C1350 C1352 1.415 . S
C1351 C1350 1.355 . S
C1351 C1353 1.419 . S
C1352 C1350 1.415 . S
C1352 C1357 1.425 . S
C1352 C1359 1.409 . S
C1353 H1345 0.930 . S
C1353 C1351 1.419 . S
C1353 C1354 1.362 . S
C1354 H1346 0.941 . S
C1354 C1353 1.362 . S
C1354 C1357 1.409 . S
C1355 H1347 0.930 . S
C1355 C1356 1.355 . S
C1355 C1357 1.415 . S
C1356 C1355 1.355 . S
C1356 C1358 1.419 . S
C1357 C1352 1.425 . S
C1357 C1354 1.409 . S
C1357 C1355 1.415 . S
C1358 H1348 0.930 . S
C1358 C1356 1.419 . S
C1358 C1359 1.362 . S
C1359 H1349 0.930 . S
C1359 C1352 1.409 . S
C1359 C1358 1.362 . S
H1360 C1366 0.930 1_545 S
H1361 C1369 0.930 . S
H1362 C1370 0.930 . S
H1363 C1371 0.930 . S
H1364 C1374 0.930 . S
H1365 C1375 0.930 . S
C1366 H1360 0.930 1_565 S
C1366 C1367 1.355 . S
C1366 C1368 1.415 . S
C1367 C1366 1.355 . S
C1367 C1369 1.419 . S
C1368 C1366 1.415 . S
C1368 C1373 1.425 . S
C1368 C1375 1.409 1_565 S
C1369 H1361 0.930 . S
C1369 C1367 1.419 . S
C1369 C1370 1.362 . S
C1370 H1362 0.930 . S
C1370 C1369 1.362 . S
C1370 C1373 1.409 . S
C1371 H1363 0.930 . S
C1371 C1372 1.355 . S
C1371 C1373 1.415 . S
C1372 C1371 1.355 . S
C1372 C1374 1.419 1_565 S
C1373 C1368 1.425 . S
C1373 C1370 1.409 . S
C1373 C1371 1.415 . S
C1374 H1364 0.930 . S
C1374 C1372 1.419 1_545 S
C1374 C1375 1.362 . S
C1375 H1365 0.930 . S
C1375 C1368 1.409 1_545 S
C1375 C1374 1.362 . S
H1376 C1382 0.930 . S
H1377 C1385 0.930 . S
H1378 C1386 0.930 . S
H1379 C1387 0.930 . S
H1380 C1390 0.930 . S
H1381 C1391 0.930 . S
C1382 H1376 0.930 . S
C1382 C1383 1.355 . S
C1382 C1384 1.415 . S
C1383 C1382 1.355 . S
C1383 C1385 1.419 . S
C1384 C1382 1.415 . S
C1384 C1389 1.425 . S
C1384 C1391 1.409 . S
C1385 H1377 0.930 . S
C1385 C1383 1.419 . S
C1385 C1386 1.362 . S
C1386 H1378 0.930 . S
C1386 C1385 1.362 . S
C1386 C1389 1.409 . S
C1387 H1379 0.930 . S
C1387 C1388 1.355 . S
C1387 C1389 1.415 . S
C1388 C1387 1.355 . S
C1388 C1390 1.419 . S
C1389 C1384 1.425 . S
C1389 C1386 1.409 . S
C1389 C1387 1.415 . S
C1390 H1380 0.930 . S
C1390 C1388 1.419 . S
C1390 C1391 1.362 . S
C1391 H1381 0.930 . S
C1391 C1384 1.409 . S
C1391 C1390 1.362 . S
H1392 C1398 0.930 . S
H1393 C1401 0.930 . S
H1394 C1402 0.930 . S
H1395 C1403 0.930 . S
H1396 C1406 0.930 . S
H1397 C1407 0.930 . S
C1398 H1392 0.930 . S
C1398 C1399 1.355 1_455 S
C1398 C1400 1.415 . S
C1399 C1398 1.355 1_655 S
C1399 C1401 1.419 . S
C1400 C1398 1.415 . S
C1400 C1405 1.425 . S
C1400 C1407 1.409 . S
C1401 H1393 0.930 . S
C1401 C1399 1.419 . S
C1401 C1402 1.362 1_655 S
C1402 H1394 0.930 . S
C1402 C1401 1.362 1_455 S
C1402 C1405 1.409 . S
C1403 H1395 0.930 . S
C1403 C1404 1.355 . S
C1403 C1405 1.415 . S
C1404 C1403 1.355 . S
C1404 C1406 1.419 . S
C1405 C1400 1.425 . S
C1405 C1402 1.409 . S
C1405 C1403 1.415 . S
C1406 H1396 0.930 . S
C1406 C1404 1.419 . S
C1406 C1407 1.362 . S
C1407 H1397 0.930 . S
C1407 C1400 1.409 . S
C1407 C1406 1.362 . S
H1408 C1414 0.930 1_655 S
H1409 C1417 0.930 . S
H1410 C1418 0.930 . S
H1411 C1419 0.930 . S
H1412 C1422 0.930 1_655 S
H1413 C1423 0.930 . S
C1414 H1408 0.930 1_455 S
C1414 C1415 1.355 . S
C1414 C1416 1.415 . S
C1415 C1414 1.355 . S
C1415 C1417 1.419 . S
C1416 C1414 1.415 . S
C1416 C1421 1.425 . S
C1416 C1423 1.409 1_455 S
C1417 H1409 0.930 . S
C1417 C1415 1.419 . S
C1417 C1418 1.362 . S
C1418 H1410 0.930 . S
C1418 C1417 1.362 . S
C1418 C1421 1.409 . S
C1419 H1411 0.930 . S
C1419 C1420 1.355 . S
C1419 C1421 1.415 . S
C1420 C1419 1.355 . S
C1420 C1422 1.419 . S
C1421 C1416 1.425 . S
C1421 C1418 1.409 . S
C1421 C1419 1.415 . S
C1422 H1412 0.930 1_455 S
C1422 C1420 1.419 . S
C1422 C1423 1.362 1_455 S
C1423 H1413 0.930 . S
C1423 C1416 1.409 1_655 S
C1423 C1422 1.362 1_655 S
H1424 C1430 0.930 . S
H1425 C1433 0.930 . S
H1426 C1434 0.930 . S
H1427 C1435 0.930 . S
H1428 C1438 0.930 . S
H1429 C1439 0.930 . S
C1430 H1424 0.930 . S
C1430 C1431 1.355 . S
C1430 C1432 1.415 . S
C1431 C1430 1.355 . S
C1431 C1433 1.419 . S
C1432 C1430 1.415 . S
C1432 C1437 1.425 . S
C1432 C1439 1.409 . S
C1433 H1425 0.930 . S
C1433 C1431 1.419 . S
C1433 C1434 1.362 . S
C1434 H1426 0.930 . S
C1434 C1433 1.362 . S
C1434 C1437 1.409 . S
C1435 H1427 0.930 . S
C1435 C1436 1.355 . S
C1435 C1437 1.415 1_655 S
C1436 C1435 1.355 . S
C1436 C1438 1.419 . S
C1437 C1432 1.425 . S
C1437 C1434 1.409 . S
C1437 C1435 1.415 1_455 S
C1438 H1428 0.930 . S
C1438 C1436 1.419 . S
C1438 C1439 1.362 1_655 S
C1439 H1429 0.930 . S
C1439 C1432 1.409 . S
C1439 C1438 1.362 1_455 S
H1440 C1446 0.930 . S
H1441 C1449 0.930 . S
H1442 C1450 0.930 . S
H1443 C1451 0.930 1_545 S
H1444 C1454 0.930 . S
H1445 C1455 0.930 . S
C1446 H1440 0.930 . S
C1446 C1447 1.355 . S
C1446 C1448 1.415 . S
C1447 C1446 1.355 . S
C1447 C1449 1.419 . S
C1448 C1446 1.415 . S
C1448 C1453 1.425 . S
C1448 C1455 1.409 . S
C1449 H1441 0.930 . S
C1449 C1447 1.419 . S
C1449 C1450 1.362 . S
C1450 H1442 0.930 . S
C1450 C1449 1.362 . S
C1450 C1453 1.409 . S
C1451 H1443 0.930 1_565 S
C1451 C1452 1.355 1_565 S
C1451 C1453 1.415 . S
C1452 C1451 1.355 1_545 S
C1452 C1454 1.419 1_545 S
C1453 C1448 1.425 . S
C1453 C1450 1.409 . S
C1453 C1451 1.415 . S
C1454 H1444 0.930 . S
C1454 C1452 1.419 1_565 S
C1454 C1455 1.362 . S
C1455 H1445 0.930 . S
C1455 C1448 1.409 . S
C1455 C1454 1.362 . S
H1456 C1462 0.930 . S
H1457 C1465 0.930 . S
H1458 C1466 0.930 . S
H1459 C1467 0.930 . S
H1460 C1470 0.930 . S
H1461 C1471 0.930 . S
C1462 H1456 0.930 . S
C1462 C1463 1.355 . S
C1462 C1464 1.415 . S
C1463 C1462 1.355 . S
C1463 C1465 1.419 . S
C1464 C1462 1.415 . S
C1464 C1469 1.425 . S
C1464 C1471 1.409 . S
C1465 H1457 0.930 . S
C1465 C1463 1.419 . S
C1465 C1466 1.362 . S
C1466 H1458 0.930 . S
C1466 C1465 1.362 . S
C1466 C1469 1.409 . S
C1467 H1459 0.930 . S
C1467 C1468 1.355 . S
C1467 C1469 1.415 . S
C1468 C1467 1.355 . S
C1468 C1470 1.419 . S
C1469 C1464 1.425 . S
C1469 C1466 1.409 . S
C1469 C1467 1.415 . S
C1470 H1460 0.930 . S
C1470 C1468 1.419 . S
C1470 C1471 1.362 . S
C1471 H1461 0.930 . S
C1471 C1464 1.409 . S
C1471 C1470 1.362 . S
H1472 C1478 0.930 . S
H1473 C1481 0.930 . S
H1474 C1482 0.930 . S
H1475 C1483 0.930 . S
H1476 C1486 0.930 . S
H1477 C1487 0.930 . S
C1478 H1472 0.930 . S
C1478 C1479 1.355 . S
C1478 C1480 1.415 . S
C1479 C1478 1.355 . S
C1479 C1481 1.419 . S
C1480 C1478 1.415 . S
C1480 C1485 1.425 . S
C1480 C1487 1.409 . S
C1481 H1473 0.930 . S
C1481 C1479 1.419 . S
C1481 C1482 1.362 . S
C1482 H1474 0.930 . S
C1482 C1481 1.362 . S
C1482 C1485 1.409 . S
C1483 H1475 0.930 . S
C1483 C1484 1.355 . S
C1483 C1485 1.415 . S
C1484 C1483 1.355 . S
C1484 C1486 1.419 . S
C1485 C1480 1.425 . S
C1485 C1482 1.409 . S
C1485 C1483 1.415 . S
C1486 H1476 0.930 . S
C1486 C1484 1.419 . S
C1486 C1487 1.362 . S
C1487 H1477 0.930 . S
C1487 C1480 1.409 . S
C1487 C1486 1.362 . S
H1488 C1494 0.930 . S
H1489 C1497 0.930 . S
H1490 C1498 0.930 1_545 S
H1491 C1499 0.928 . S
H1492 C1502 0.930 . S
H1493 C1503 0.930 . S
C1494 H1488 0.930 . S
C1494 C1495 1.355 . S
C1494 C1496 1.415 . S
C1495 C1494 1.355 . S
C1495 C1497 1.419 . S
C1496 C1494 1.415 . S
C1496 C1501 1.425 . S
C1496 C1503 1.409 . S
C1497 H1489 0.930 . S
C1497 C1495 1.419 . S
C1497 C1498 1.362 . S
C1498 H1490 0.930 1_565 S
C1498 C1497 1.362 . S
C1498 C1501 1.409 . S
C1499 H1491 0.928 . S
C1499 C1500 1.353 . S
C1499 C1501 1.417 1_655 S
C1500 C1499 1.353 . S
C1500 C1502 1.419 . S
C1501 C1496 1.425 . S
C1501 C1498 1.409 . S
C1501 C1499 1.417 1_455 S
C1502 H1492 0.930 . S
C1502 C1500 1.419 . S
C1502 C1503 1.362 1_655 S
C1503 H1493 0.930 . S
C1503 C1496 1.409 . S
C1503 C1502 1.362 1_455 S
H1504 C1510 0.930 . S
H1505 C1513 0.930 . S
H1506 C1514 0.930 . S
H1507 C1515 0.930 . S
H1508 C1518 0.930 . S
H1509 C1519 0.930 . S
C1510 H1504 0.930 . S
C1510 C1511 1.355 . S
C1510 C1512 1.415 . S
C1511 C1510 1.355 . S
C1511 C1513 1.419 . S
C1512 C1510 1.415 . S
C1512 C1517 1.425 . S
C1512 C1519 1.409 . S
C1513 H1505 0.930 . S
C1513 C1511 1.419 . S
C1513 C1514 1.362 . S
C1514 H1506 0.930 . S
C1514 C1513 1.362 . S
C1514 C1517 1.409 . S
C1515 H1507 0.930 . S
C1515 C1516 1.355 . S
C1515 C1517 1.415 . S
C1516 C1515 1.355 . S
C1516 C1518 1.419 . S
C1517 C1512 1.425 . S
C1517 C1514 1.409 . S
C1517 C1515 1.415 . S
C1518 H1508 0.930 . S
C1518 C1516 1.419 . S
C1518 C1519 1.362 . S
C1519 H1509 0.930 . S
C1519 C1512 1.409 . S
C1519 C1518 1.362 . S
H1520 C1526 0.930 . S
H1521 C1529 0.930 . S
H1522 C1530 0.930 . S
H1523 C1531 0.930 . S
H1524 C1534 0.930 . S
H1525 C1535 0.930 . S
C1526 H1520 0.930 . S
C1526 C1527 1.355 . S
C1526 C1528 1.415 . S
C1527 C1526 1.355 . S
C1527 C1529 1.419 . S
C1528 C1526 1.415 . S
C1528 C1533 1.425 . S
C1528 C1535 1.409 . S
C1529 H1521 0.930 . S
C1529 C1527 1.419 . S
C1529 C1530 1.362 . S
C1530 H1522 0.930 . S
C1530 C1529 1.362 . S
C1530 C1533 1.409 . S
C1531 H1523 0.930 . S
C1531 C1532 1.355 . S
C1531 C1533 1.415 . S
C1532 C1531 1.355 . S
C1532 C1534 1.419 . S
C1533 C1528 1.425 . S
C1533 C1530 1.409 . S
C1533 C1531 1.415 . S
C1534 H1524 0.930 . S
C1534 C1532 1.419 . S
C1534 C1535 1.362 . S
C1535 H1525 0.930 . S
C1535 C1528 1.409 . S
C1535 C1534 1.362 . S
H1536 C1542 0.930 . S
H1537 C1545 0.930 1_655 S
H1538 C1546 0.932 . S
H1539 C1547 0.930 1_545 S
H1540 C1550 0.930 1_545 S
H1541 C1551 0.930 . S
C1542 H1536 0.930 . S
C1542 C1543 1.355 . S
C1542 C1544 1.415 . S
C1543 C1542 1.355 . S
C1543 C1545 1.419 . S
C1544 C1542 1.415 . S
C1544 C1549 1.425 . S
C1544 C1551 1.409 . S
C1545 H1537 0.930 1_455 S
C1545 C1543 1.419 . S
C1545 C1546 1.362 . S
C1546 H1538 0.932 . S
C1546 C1545 1.362 . S
C1546 C1549 1.409 . S
C1547 H1539 0.930 1_565 S
C1547 C1548 1.355 1_565 S
C1547 C1549 1.415 . S
C1548 C1547 1.355 1_545 S
C1548 C1550 1.419 1_545 S
C1549 C1544 1.425 . S
C1549 C1546 1.409 . S
C1549 C1547 1.415 . S
C1550 H1540 0.930 1_565 S
C1550 C1548 1.419 1_565 S
C1550 C1551 1.362 . S
C1551 H1541 0.930 . S
C1551 C1544 1.409 . S
C1551 C1550 1.362 . S
H1552 C1558 0.930 . S
H1553 C1561 0.930 . S
H1554 C1562 0.930 . S
H1555 C1563 0.930 . S
H1556 C1566 0.930 . S
H1557 C1567 0.930 . S
C1558 H1552 0.930 . S
C1558 C1559 1.355 . S
C1558 C1560 1.415 . S
C1559 C1558 1.355 . S
C1559 C1561 1.419 . S
C1560 C1558 1.415 . S
C1560 C1565 1.425 . S
C1560 C1567 1.409 . S
C1561 H1553 0.930 . S
C1561 C1559 1.419 . S
C1561 C1562 1.362 . S
C1562 H1554 0.930 . S
C1562 C1561 1.362 . S
C1562 C1565 1.409 . S
C1563 H1555 0.930 . S
C1563 C1564 1.355 . S
C1563 C1565 1.415 . S
C1564 C1563 1.355 . S
C1564 C1566 1.419 . S
C1565 C1560 1.425 . S
C1565 C1562 1.409 . S
C1565 C1563 1.415 . S
C1566 H1556 0.930 . S
C1566 C1564 1.419 . S
C1566 C1567 1.362 . S
C1567 H1557 0.930 . S
C1567 C1560 1.409 . S
C1567 C1566 1.362 . S
H1568 C1574 0.930 . S
H1569 C1577 0.930 . S
H1570 C1578 0.930 . S
H1571 C1579 0.930 . S
H1572 C1582 0.930 . S
H1573 C1583 0.930 . S
C1574 H1568 0.930 . S
C1574 C1575 1.355 . S
C1574 C1576 1.415 . S
C1575 C1574 1.355 . S
C1575 C1577 1.419 . S
C1576 C1574 1.415 . S
C1576 C1581 1.425 . S
C1576 C1583 1.409 . S
C1577 H1569 0.930 . S
C1577 C1575 1.419 . S
C1577 C1578 1.362 . S
C1578 H1570 0.930 . S
C1578 C1577 1.362 . S
C1578 C1581 1.409 . S
C1579 H1571 0.930 . S
C1579 C1580 1.355 . S
C1579 C1581 1.415 . S
C1580 C1579 1.355 . S
C1580 C1582 1.419 . S
C1581 C1576 1.425 . S
C1581 C1578 1.409 . S
C1581 C1579 1.415 . S
C1582 H1572 0.930 . S
C1582 C1580 1.419 . S
C1582 C1583 1.362 . S
C1583 H1573 0.930 . S
C1583 C1576 1.409 . S
C1583 C1582 1.362 . S
H1584 C1590 0.930 . S
H1585 C1593 0.930 . S
H1586 C1594 0.930 . S
H1587 C1595 0.930 . S
H1588 C1598 0.930 . S
H1589 C1599 0.930 . S
C1590 H1584 0.930 . S
C1590 C1591 1.355 . S
C1590 C1592 1.415 . S
C1591 C1590 1.355 . S
C1591 C1593 1.419 . S
C1592 C1590 1.415 . S
C1592 C1597 1.425 . S
C1592 C1599 1.409 . S
C1593 H1585 0.930 . S
C1593 C1591 1.419 . S
C1593 C1594 1.362 . S
C1594 H1586 0.930 . S
C1594 C1593 1.362 . S
C1594 C1597 1.409 . S
C1595 H1587 0.930 . S
C1595 C1596 1.355 . S
C1595 C1597 1.415 1_655 S
C1596 C1595 1.355 . S
C1596 C1598 1.419 . S
C1597 C1592 1.425 . S
C1597 C1594 1.409 . S
C1597 C1595 1.415 1_455 S
C1598 H1588 0.930 . S
C1598 C1596 1.419 . S
C1598 C1599 1.362 1_655 S
C1599 H1589 0.930 . S
C1599 C1592 1.409 . S
C1599 C1598 1.362 1_455 S
H1600 C1606 0.930 . S
H1601 C1609 0.930 . S
H1602 C1610 0.930 . S
H1603 C1611 0.930 . S
H1604 C1614 0.930 . S
H1605 C1615 0.930 . S
C1606 H1600 0.930 . S
C1606 C1607 1.355 . S
C1606 C1608 1.415 . S
C1607 C1606 1.355 . S
C1607 C1609 1.419 . S
C1608 C1606 1.415 . S
C1608 C1613 1.425 . S
C1608 C1615 1.409 . S
C1609 H1601 0.930 . S
C1609 C1607 1.419 . S
C1609 C1610 1.362 . S
C1610 H1602 0.930 . S
C1610 C1609 1.362 . S
C1610 C1613 1.409 . S
C1611 H1603 0.930 . S
C1611 C1612 1.355 . S
C1611 C1613 1.415 . S
C1612 C1611 1.355 . S
C1612 C1614 1.419 . S
C1613 C1608 1.425 . S
C1613 C1610 1.409 . S
C1613 C1611 1.415 . S
C1614 H1604 0.930 . S
C1614 C1612 1.419 . S
C1614 C1615 1.362 . S
C1615 H1605 0.930 . S
C1615 C1608 1.409 . S
C1615 C1614 1.362 . S
H1616 C1622 0.930 . S
H1617 C1625 0.930 . S
H1618 C1626 0.930 . S
H1619 C1627 0.930 . S
H1620 C1630 0.930 . S
H1621 C1631 0.930 . S
C1622 H1616 0.930 . S
C1622 C1623 1.355 . S
C1622 C1624 1.415 . S
C1623 C1622 1.355 . S
C1623 C1625 1.419 . S
C1624 C1622 1.415 . S
C1624 C1629 1.425 . S
C1624 C1631 1.409 . S
C1625 H1617 0.930 . S
C1625 C1623 1.419 . S
C1625 C1626 1.362 . S
C1626 H1618 0.930 . S
C1626 C1625 1.362 . S
C1626 C1629 1.409 . S
C1627 H1619 0.930 . S
C1627 C1628 1.355 . S
C1627 C1629 1.415 . S
C1628 C1627 1.355 . S
C1628 C1630 1.419 . S
C1629 C1624 1.425 . S
C1629 C1626 1.409 . S
C1629 C1627 1.415 . S
C1630 H1620 0.930 . S
C1630 C1628 1.419 . S
C1630 C1631 1.362 . S
C1631 H1621 0.930 . S
C1631 C1624 1.409 . S
C1631 C1630 1.362 . S
H1632 C1638 0.930 . S
H1633 C1641 0.930 . S
H1634 C1642 0.930 . S
H1635 C1643 0.930 . S
H1636 C1646 0.930 . S
H1637 C1647 0.930 . S
C1638 H1632 0.930 . S
C1638 C1639 1.355 . S
C1638 C1640 1.415 . S
C1639 C1638 1.355 . S
C1639 C1641 1.419 . S
C1640 C1638 1.415 . S
C1640 C1645 1.425 . S
C1640 C1647 1.409 . S
C1641 H1633 0.930 . S
C1641 C1639 1.419 . S
C1641 C1642 1.362 . S
C1642 H1634 0.930 . S
C1642 C1641 1.362 . S
C1642 C1645 1.409 . S
C1643 H1635 0.930 . S
C1643 C1644 1.355 . S
C1643 C1645 1.415 . S
C1644 C1643 1.355 . S
C1644 C1646 1.419 . S
C1645 C1640 1.425 . S
C1645 C1642 1.409 . S
C1645 C1643 1.415 . S
C1646 H1636 0.930 . S
C1646 C1644 1.419 . S
C1646 C1647 1.362 . S
C1647 H1637 0.930 . S
C1647 C1640 1.409 . S
C1647 C1646 1.362 . S
H1648 C1654 0.930 . S
H1649 C1657 0.930 . S
H1650 C1658 0.930 . S
H1651 C1659 0.930 . S
H1652 C1662 0.930 . S
H1653 C1663 0.930 . S
C1654 H1648 0.930 . S
C1654 C1655 1.355 . S
C1654 C1656 1.415 . S
C1655 C1654 1.355 . S
C1655 C1657 1.419 . S
C1656 C1654 1.415 . S
C1656 C1661 1.425 . S
C1656 C1663 1.409 . S
C1657 H1649 0.930 . S
C1657 C1655 1.419 . S
C1657 C1658 1.362 . S
C1658 H1650 0.930 . S
C1658 C1657 1.362 . S
C1658 C1661 1.409 . S
C1659 H1651 0.930 . S
C1659 C1660 1.355 . S
C1659 C1661 1.415 . S
C1660 C1659 1.355 . S
C1660 C1662 1.419 . S
C1661 C1656 1.425 . S
C1661 C1658 1.409 . S
C1661 C1659 1.415 . S
C1662 H1652 0.930 . S
C1662 C1660 1.419 . S
C1662 C1663 1.362 . S
C1663 H1653 0.930 . S
C1663 C1656 1.409 . S
C1663 C1662 1.362 . S
H1664 C1670 0.930 . S
H1665 C1673 0.930 . S
H1666 C1674 0.930 . S
H1667 C1675 0.930 . S
H1668 C1678 0.930 . S
H1669 C1679 0.930 . S
C1670 H1664 0.930 . S
C1670 C1671 1.355 . S
C1670 C1672 1.415 . S
C1671 C1670 1.355 . S
C1671 C1673 1.419 . S
C1672 C1670 1.415 . S
C1672 C1677 1.425 . S
C1672 C1679 1.409 . S
C1673 H1665 0.930 . S
C1673 C1671 1.419 . S
C1673 C1674 1.362 . S
C1674 H1666 0.930 . S
C1674 C1673 1.362 . S
C1674 C1677 1.409 . S
C1675 H1667 0.930 . S
C1675 C1676 1.355 . S
C1675 C1677 1.415 . S
C1676 C1675 1.355 . S
C1676 C1678 1.419 . S
C1677 C1672 1.425 . S
C1677 C1674 1.409 . S
C1677 C1675 1.415 . S
C1678 H1668 0.930 . S
C1678 C1676 1.419 . S
C1678 C1679 1.362 . S
C1679 H1669 0.930 . S
C1679 C1672 1.409 . S
C1679 C1678 1.362 . S
H1680 C1686 0.930 . S
H1681 C1689 0.930 . S
H1682 C1690 0.930 . S
H1683 C1691 0.930 . S
H1684 C1694 0.930 . S
H1685 C1695 0.930 . S
C1686 H1680 0.930 . S
C1686 C1687 1.355 . S
C1686 C1688 1.415 . S
C1687 C1686 1.355 . S
C1687 C1689 1.419 1_565 S
C1688 C1686 1.415 . S
C1688 C1693 1.425 1_565 S
C1688 C1695 1.409 . S
C1689 H1681 0.930 . S
C1689 C1687 1.419 1_545 S
C1689 C1690 1.362 . S
C1690 H1682 0.930 . S
C1690 C1689 1.362 . S
C1690 C1693 1.409 . S
C1691 H1683 0.930 . S
C1691 C1692 1.355 . S
C1691 C1693 1.415 . S
C1692 C1691 1.355 . S
C1692 C1694 1.419 . S
C1693 C1688 1.425 1_545 S
C1693 C1690 1.409 . S
C1693 C1691 1.415 . S
C1694 H1684 0.930 . S
C1694 C1692 1.419 . S
C1694 C1695 1.362 1_545 S
C1695 H1685 0.930 . S
C1695 C1688 1.409 . S
C1695 C1694 1.362 1_565 S
H1696 C1702 0.930 . S
H1697 C1705 0.930 . S
H1698 C1706 0.930 . S
H1699 C1707 0.930 . S
H1700 C1710 0.930 . S
H1701 C1711 0.930 . S
C1702 H1696 0.930 . S
C1702 C1703 1.355 . S
C1702 C1704 1.415 . S
C1703 C1702 1.355 . S
C1703 C1705 1.419 . S
C1704 C1702 1.415 . S
C1704 C1709 1.425 . S
C1704 C1711 1.409 . S
C1705 H1697 0.930 . S
C1705 C1703 1.419 . S
C1705 C1706 1.362 . S
C1706 H1698 0.930 . S
C1706 C1705 1.362 . S
C1706 C1709 1.409 . S
C1707 H1699 0.930 . S
C1707 C1708 1.355 . S
C1707 C1709 1.415 . S
C1708 C1707 1.355 . S
C1708 C1710 1.419 . S
C1709 C1704 1.425 . S
C1709 C1706 1.409 . S
C1709 C1707 1.415 . S
C1710 H1700 0.930 . S
C1710 C1708 1.419 . S
C1710 C1711 1.362 . S
C1711 H1701 0.930 . S
C1711 C1704 1.409 . S
C1711 C1710 1.362 . S
H1712 C1718 0.930 . S
H1713 C1721 0.930 . S
H1714 C1722 0.930 1_565 S
H1715 C1723 0.930 . S
H1716 C1726 0.930 . S
H1717 C1727 0.930 . S
C1718 H1712 0.930 . S
C1718 C1719 1.355 . S
C1718 C1720 1.415 . S
C1719 C1718 1.355 . S
C1719 C1721 1.419 . S
C1720 C1718 1.415 . S
C1720 C1725 1.425 . S
C1720 C1727 1.409 . S
C1721 H1713 0.930 . S
C1721 C1719 1.419 . S
C1721 C1722 1.362 . S
C1722 H1714 0.930 1_545 S
C1722 C1721 1.362 . S
C1722 C1725 1.409 . S
C1723 H1715 0.930 . S
C1723 C1724 1.355 . S
C1723 C1725 1.415 . S
C1724 C1723 1.355 . S
C1724 C1726 1.419 . S
C1725 C1720 1.425 . S
C1725 C1722 1.409 . S
C1725 C1723 1.415 . S
C1726 H1716 0.930 . S
C1726 C1724 1.419 . S
C1726 C1727 1.362 . S
C1727 H1717 0.930 . S
C1727 C1720 1.409 . S
C1727 C1726 1.362 . S
H1728 C1734 0.930 . S
H1729 C1737 0.930 . S
H1730 C1738 0.930 . S
H1731 C1739 0.930 . S
H1732 C1742 0.930 . S
H1733 C1743 0.930 . S
C1734 H1728 0.930 . S
C1734 C1735 1.355 . S
C1734 C1736 1.415 . S
C1735 C1734 1.355 . S
C1735 C1737 1.419 . S
C1736 C1734 1.415 . S
C1736 C1741 1.425 . S
C1736 C1743 1.409 . S
C1737 H1729 0.930 . S
C1737 C1735 1.419 . S
C1737 C1738 1.362 . S
C1738 H1730 0.930 . S
C1738 C1737 1.362 . S
C1738 C1741 1.409 . S
C1739 H1731 0.930 . S
C1739 C1740 1.355 . S
C1739 C1741 1.415 . S
C1740 C1739 1.355 . S
C1740 C1742 1.419 . S
C1741 C1736 1.425 . S
C1741 C1738 1.409 . S
C1741 C1739 1.415 . S
C1742 H1732 0.930 . S
C1742 C1740 1.419 . S
C1742 C1743 1.362 . S
C1743 H1733 0.930 . S
C1743 C1736 1.409 . S
C1743 C1742 1.362 . S
H1744 C1750 0.930 . S
H1745 C1753 0.930 . S
H1746 C1754 0.930 . S
H1747 C1755 0.930 . S
H1748 C1758 0.930 . S
H1749 C1759 0.930 . S
C1750 H1744 0.930 . S
C1750 C1751 1.355 . S
C1750 C1752 1.415 . S
C1751 C1750 1.355 . S
C1751 C1753 1.419 . S
C1752 C1750 1.415 . S
C1752 C1757 1.425 . S
C1752 C1759 1.409 . S
C1753 H1745 0.930 . S
C1753 C1751 1.419 . S
C1753 C1754 1.362 . S
C1754 H1746 0.930 . S
C1754 C1753 1.362 . S
C1754 C1757 1.409 . S
C1755 H1747 0.930 . S
C1755 C1756 1.355 . S
C1755 C1757 1.415 . S
C1756 C1755 1.355 . S
C1756 C1758 1.419 . S
C1757 C1752 1.425 . S
C1757 C1754 1.409 . S
C1757 C1755 1.415 . S
C1758 H1748 0.930 . S
C1758 C1756 1.419 . S
C1758 C1759 1.362 . S
C1759 H1749 0.930 . S
C1759 C1752 1.409 . S
C1759 C1758 1.362 . S
H1760 C1766 0.930 . S
H1761 C1769 0.930 . S
H1762 C1770 0.930 . S
H1763 C1771 0.930 . S
H1764 C1774 0.930 . S
H1765 C1775 0.930 . S
C1766 H1760 0.930 . S
C1766 C1767 1.355 . S
C1766 C1768 1.415 . S
C1767 C1766 1.355 . S
C1767 C1769 1.419 . S
C1768 C1766 1.415 . S
C1768 C1773 1.425 . S
C1768 C1775 1.409 . S
C1769 H1761 0.930 . S
C1769 C1767 1.419 . S
C1769 C1770 1.362 . S
C1770 H1762 0.930 . S
C1770 C1769 1.362 . S
C1770 C1773 1.409 . S
C1771 H1763 0.930 . S
C1771 C1772 1.355 . S
C1771 C1773 1.415 . S
C1772 C1771 1.355 . S
C1772 C1774 1.419 . S
C1773 C1768 1.425 . S
C1773 C1770 1.409 . S
C1773 C1771 1.415 . S
C1774 H1764 0.930 . S
C1774 C1772 1.419 . S
C1774 C1775 1.362 . S
C1775 H1765 0.930 . S
C1775 C1768 1.409 . S
C1775 C1774 1.362 . S
H1776 C1782 0.930 . S
H1777 C1785 0.930 . S
H1778 C1786 0.930 . S
H1779 C1787 0.930 . S
H1780 C1790 0.930 . S
H1781 C1791 0.930 . S
C1782 H1776 0.930 . S
C1782 C1783 1.355 . S
C1782 C1784 1.415 . S
C1783 C1782 1.355 . S
C1783 C1785 1.419 . S
C1784 C1782 1.415 . S
C1784 C1789 1.425 . S
C1784 C1791 1.409 . S
C1785 H1777 0.930 . S
C1785 C1783 1.419 . S
C1785 C1786 1.362 . S
C1786 H1778 0.930 . S
C1786 C1785 1.362 . S
C1786 C1789 1.409 . S
C1787 H1779 0.930 . S
C1787 C1788 1.355 1_565 S
C1787 C1789 1.415 . S
C1788 C1787 1.355 1_545 S
C1788 C1790 1.419 . S
C1789 C1784 1.425 . S
C1789 C1786 1.409 . S
C1789 C1787 1.415 . S
C1790 H1780 0.930 . S
C1790 C1788 1.419 . S
C1790 C1791 1.362 1_545 S
C1791 H1781 0.930 . S
C1791 C1784 1.409 . S
C1791 C1790 1.362 1_565 S
H1792 C1798 0.930 . S
H1793 C1801 0.930 . S
H1794 C1802 0.930 . S
H1795 C1803 0.930 . S
H1796 C1806 0.930 . S
H1797 C1807 0.930 . S
C1798 H1792 0.930 . S
C1798 C1799 1.355 . S
C1798 C1800 1.415 . S
C1799 C1798 1.355 . S
C1799 C1801 1.419 . S
C1800 C1798 1.415 . S
C1800 C1805 1.425 . S
C1800 C1807 1.409 . S
C1801 H1793 0.930 . S
C1801 C1799 1.419 . S
C1801 C1802 1.362 . S
C1802 H1794 0.930 . S
C1802 C1801 1.362 . S
C1802 C1805 1.409 . S
C1803 H1795 0.930 . S
C1803 C1804 1.355 . S
C1803 C1805 1.415 . S
C1804 C1803 1.355 . S
C1804 C1806 1.419 . S
C1805 C1800 1.425 . S
C1805 C1802 1.409 . S
C1805 C1803 1.415 . S
C1806 H1796 0.930 . S
C1806 C1804 1.419 . S
C1806 C1807 1.362 . S
C1807 H1797 0.930 . S
C1807 C1800 1.409 . S
C1807 C1806 1.362 . S
H1808 C1814 0.930 . S
H1809 C1817 0.930 . S
H1810 C1818 0.930 . S
H1811 C1819 0.930 . S
H1812 C1822 0.930 . S
H1813 C1823 0.930 . S
C1814 H1808 0.930 . S
C1814 C1815 1.355 . S
C1814 C1816 1.415 . S
C1815 C1814 1.355 . S
C1815 C1817 1.419 . S
C1816 C1814 1.415 . S
C1816 C1821 1.425 . S
C1816 C1823 1.409 . S
C1817 H1809 0.930 . S
C1817 C1815 1.419 . S
C1817 C1818 1.362 . S
C1818 H1810 0.930 . S
C1818 C1817 1.362 . S
C1818 C1821 1.409 . S
C1819 H1811 0.930 . S
C1819 C1820 1.355 . S
C1819 C1821 1.415 . S
C1820 C1819 1.355 . S
C1820 C1822 1.419 . S
C1821 C1816 1.425 . S
C1821 C1818 1.409 . S
C1821 C1819 1.415 . S
C1822 H1812 0.930 . S
C1822 C1820 1.419 . S
C1822 C1823 1.362 . S
C1823 H1813 0.930 . S
C1823 C1816 1.409 . S
C1823 C1822 1.362 . S
H1824 C1830 0.930 . S
H1825 C1833 0.930 . S
H1826 C1834 0.930 . S
H1827 C1835 0.930 . S
H1828 C1838 0.930 . S
H1829 C1839 0.930 . S
C1830 H1824 0.930 . S
C1830 C1831 1.355 . S
C1830 C1832 1.415 . S
C1831 C1830 1.355 . S
C1831 C1833 1.419 . S
C1832 C1830 1.415 . S
C1832 C1837 1.425 . S
C1832 C1839 1.409 . S
C1833 H1825 0.930 . S
C1833 C1831 1.419 . S
C1833 C1834 1.362 . S
C1834 H1826 0.930 . S
C1834 C1833 1.362 . S
C1834 C1837 1.409 . S
C1835 H1827 0.930 . S
C1835 C1836 1.355 . S
C1835 C1837 1.415 . S
C1836 C1835 1.355 . S
C1836 C1838 1.419 . S
C1837 C1832 1.425 . S
C1837 C1834 1.409 . S
C1837 C1835 1.415 . S
C1838 H1828 0.930 . S
C1838 C1836 1.419 . S
C1838 C1839 1.362 . S
C1839 H1829 0.930 . S
C1839 C1832 1.409 . S
C1839 C1838 1.362 . S
H1840 C1846 0.930 . S
H1841 C1849 0.930 . S
H1842 C1850 0.930 . S
H1843 C1851 0.930 . S
H1844 C1854 0.930 . S
H1845 C1855 0.930 . S
C1846 H1840 0.930 . S
C1846 C1847 1.355 . S
C1846 C1848 1.415 . S
C1847 C1846 1.355 . S
C1847 C1849 1.419 . S
C1848 C1846 1.415 . S
C1848 C1853 1.425 . S
C1848 C1855 1.409 . S
C1849 H1841 0.930 . S
C1849 C1847 1.419 . S
C1849 C1850 1.362 . S
C1850 H1842 0.930 . S
C1850 C1849 1.362 . S
C1850 C1853 1.409 . S
C1851 H1843 0.930 . S
C1851 C1852 1.355 . S
C1851 C1853 1.415 . S
C1852 C1851 1.355 . S
C1852 C1854 1.419 . S
C1853 C1848 1.425 . S
C1853 C1850 1.409 . S
C1853 C1851 1.415 . S
C1854 H1844 0.930 . S
C1854 C1852 1.419 . S
C1854 C1855 1.362 . S
C1855 H1845 0.930 . S
C1855 C1848 1.409 . S
C1855 C1854 1.362 . S
H1856 C1862 0.930 . S
H1857 C1865 0.930 . S
H1858 C1866 0.930 . S
H1859 C1867 0.930 . S
H1860 C1870 0.930 . S
H1861 C1871 0.930 . S
C1862 H1856 0.930 . S
C1862 C1863 1.355 . S
C1862 C1864 1.415 . S
C1863 C1862 1.355 . S
C1863 C1865 1.419 . S
C1864 C1862 1.415 . S
C1864 C1869 1.425 . S
C1864 C1871 1.409 . S
C1865 H1857 0.930 . S
C1865 C1863 1.419 . S
C1865 C1866 1.362 . S
C1866 H1858 0.930 . S
C1866 C1865 1.362 . S
C1866 C1869 1.409 . S
C1867 H1859 0.930 . S
C1867 C1868 1.355 . S
C1867 C1869 1.415 . S
C1868 C1867 1.355 . S
C1868 C1870 1.419 . S
C1869 C1864 1.425 . S
C1869 C1866 1.409 . S
C1869 C1867 1.415 . S
C1870 H1860 0.930 . S
C1870 C1868 1.419 . S
C1870 C1871 1.362 . S
C1871 H1861 0.930 . S
C1871 C1864 1.409 . S
C1871 C1870 1.362 . S
H1872 C1878 0.930 . S
H1873 C1881 0.910 1_565 S
H1874 C1882 0.930 . S
H1875 C1883 0.930 . S
H1876 C1886 0.930 . S
H1877 C1887 0.930 . S
C1878 H1872 0.930 . S
C1878 C1879 1.355 . S
C1878 C1880 1.415 . S
C1879 C1878 1.355 . S
C1879 C1881 1.419 . S
C1880 C1878 1.415 . S
C1880 C1885 1.425 . S
C1880 C1887 1.409 . S
C1881 H1873 0.910 1_545 S
C1881 C1879 1.419 . S
C1881 C1882 1.362 . S
C1882 H1874 0.930 . S
C1882 C1881 1.362 . S
C1882 C1885 1.409 . S
C1883 H1875 0.930 . S
C1883 C1884 1.355 . S
C1883 C1885 1.415 . S
C1884 C1883 1.355 . S
C1884 C1886 1.419 . S
C1885 C1880 1.425 . S
C1885 C1882 1.409 . S
C1885 C1883 1.415 . S
C1886 H1876 0.930 . S
C1886 C1884 1.419 . S
C1886 C1887 1.362 . S
C1887 H1877 0.930 . S
C1887 C1880 1.409 . S
C1887 C1886 1.362 . S
H1888 C1894 0.930 . S
H1889 C1897 0.930 . S
H1890 C1898 0.930 . S
H1891 C1899 0.930 . S
H1892 C1902 0.930 . S
H1893 C1903 0.930 . S
C1894 H1888 0.930 . S
C1894 C1895 1.355 . S
C1894 C1896 1.415 . S
C1895 C1894 1.355 . S
C1895 C1897 1.419 . S
C1896 C1894 1.415 . S
C1896 C1901 1.425 . S
C1896 C1903 1.409 . S
C1897 H1889 0.930 . S
C1897 C1895 1.419 . S
C1897 C1898 1.362 . S
C1898 H1890 0.930 . S
C1898 C1897 1.362 . S
C1898 C1901 1.409 . S
C1899 H1891 0.930 . S
C1899 C1900 1.355 . S
C1899 C1901 1.415 . S
C1900 C1899 1.355 . S
C1900 C1902 1.419 . S
C1901 C1896 1.425 . S
C1901 C1898 1.409 . S
C1901 C1899 1.415 . S
C1902 H1892 0.930 . S
C1902 C1900 1.419 . S
C1902 C1903 1.362 . S
C1903 H1893 0.930 . S
C1903 C1896 1.409 . S
C1903 C1902 1.362 . S
H1904 C1910 0.930 1_556 S
H1905 C1913 0.930 . S
H1906 C1914 0.930 . S
H1907 C1915 0.930 . S
H1908 C1918 0.930 . S
H1909 C1919 0.930 . S
C1910 H1904 0.930 1_554 S
C1910 C1911 1.355 . S
C1910 C1912 1.415 . S
C1911 C1910 1.355 . S
C1911 C1913 1.419 . S
C1912 C1910 1.415 . S
C1912 C1917 1.425 . S
C1912 C1919 1.409 . S
C1913 H1905 0.930 . S
C1913 C1911 1.419 . S
C1913 C1914 1.362 . S
C1914 H1906 0.930 . S
C1914 C1913 1.362 . S
C1914 C1917 1.409 . S
C1915 H1907 0.930 . S
C1915 C1916 1.355 . S
C1915 C1917 1.415 . S
C1916 C1915 1.355 . S
C1916 C1918 1.419 . S
C1917 C1912 1.425 . S
C1917 C1914 1.409 . S
C1917 C1915 1.415 . S
C1918 H1908 0.930 . S
C1918 C1916 1.419 . S
C1918 C1919 1.362 . S
C1919 H1909 0.930 . S
C1919 C1912 1.409 . S
C1919 C1918 1.362 . S
H1920 C1926 0.930 . S
H1921 C1929 0.930 . S
H1922 C1930 0.930 . S
H1923 C1931 0.930 . S
H1924 C1934 0.930 . S
H1925 C1935 0.930 . S
C1926 H1920 0.930 . S
C1926 C1927 1.355 . S
C1926 C1928 1.415 . S
C1927 C1926 1.355 . S
C1927 C1929 1.419 . S
C1928 C1926 1.415 . S
C1928 C1933 1.425 . S
C1928 C1935 1.409 . S
C1929 H1921 0.930 . S
C1929 C1927 1.419 . S
C1929 C1930 1.362 . S
C1930 H1922 0.930 . S
C1930 C1929 1.362 . S
C1930 C1933 1.409 . S
C1931 H1923 0.930 . S
C1931 C1932 1.355 . S
C1931 C1933 1.415 . S
C1932 C1931 1.355 . S
C1932 C1934 1.419 . S
C1933 C1928 1.425 . S
C1933 C1930 1.409 . S
C1933 C1931 1.415 . S
C1934 H1924 0.930 . S
C1934 C1932 1.419 . S
C1934 C1935 1.362 . S
C1935 H1925 0.930 . S
C1935 C1928 1.409 . S
C1935 C1934 1.362 . S
H1936 C1942 0.930 . S
H1937 C1945 0.930 . S
H1938 C1946 0.930 . S
H1939 C1947 0.930 . S
H1940 C1950 0.930 . S
H1941 C1951 0.930 . S
C1942 H1936 0.930 . S
C1942 C1943 1.355 . S
C1942 C1944 1.415 . S
C1943 C1942 1.355 . S
C1943 C1945 1.419 . S
C1944 C1942 1.415 . S
C1944 C1949 1.425 . S
C1944 C1951 1.409 . S
C1945 H1937 0.930 . S
C1945 C1943 1.419 . S
C1945 C1946 1.362 . S
C1946 H1938 0.930 . S
C1946 C1945 1.362 . S
C1946 C1949 1.409 . S
C1947 H1939 0.930 . S
C1947 C1948 1.355 . S
C1947 C1949 1.415 . S
C1948 C1947 1.355 . S
C1948 C1950 1.419 . S
C1949 C1944 1.425 . S
C1949 C1946 1.409 . S
C1949 C1947 1.415 . S
C1950 H1940 0.930 . S
C1950 C1948 1.419 . S
C1950 C1951 1.362 . S
C1951 H1941 0.930 . S
C1951 C1944 1.409 . S
C1951 C1950 1.362 . S
H1952 C1958 0.930 . S
H1953 C1961 0.930 . S
H1954 C1962 0.930 . S
H1955 C1963 0.930 . S
H1956 C1966 0.930 . S
H1957 C1967 0.930 . S
C1958 H1952 0.930 . S
C1958 C1959 1.355 . S
C1958 C1960 1.415 . S
C1959 C1958 1.355 . S
C1959 C1961 1.419 . S
C1960 C1958 1.415 . S
C1960 C1965 1.425 . S
C1960 C1967 1.409 . S
C1961 H1953 0.930 . S
C1961 C1959 1.419 . S
C1961 C1962 1.362 . S
C1962 H1954 0.930 . S
C1962 C1961 1.362 . S
C1962 C1965 1.409 . S
C1963 H1955 0.930 . S
C1963 C1964 1.355 . S
C1963 C1965 1.415 . S
C1964 C1963 1.355 . S
C1964 C1966 1.419 . S
C1965 C1960 1.425 . S
C1965 C1962 1.409 . S
C1965 C1963 1.415 . S
C1966 H1956 0.930 . S
C1966 C1964 1.419 . S
C1966 C1967 1.362 . S
C1967 H1957 0.930 . S
C1967 C1960 1.409 . S
C1967 C1966 1.362 . S
H1968 C1974 0.930 . S
H1969 C1977 0.930 1_565 S
H1970 C1978 0.959 . S
H1971 C1979 0.930 . S
H1972 C1982 0.930 . S
H1973 C1983 0.930 . S
C1974 H1968 0.930 . S
C1974 C1975 1.355 . S
C1974 C1976 1.415 . S
C1975 C1974 1.355 . S
C1975 C1977 1.419 . S
C1976 C1974 1.415 . S
C1976 C1981 1.425 . S
C1976 C1983 1.409 . S
C1977 H1969 0.930 1_545 S
C1977 C1975 1.419 . S
C1977 C1978 1.335 1_554 S
C1978 H1970 0.959 . S
C1978 C1977 1.335 1_556 S
C1978 C1981 1.409 1_556 S
C1979 H1971 0.930 . S
C1979 C1980 1.353 1_556 S
C1979 C1981 1.415 1_556 S
C1980 C1979 1.353 1_554 S
C1980 C1982 1.457 . S
C1981 C1976 1.425 . S
C1981 C1978 1.409 1_554 S
C1981 C1979 1.415 1_554 S
C1982 H1972 0.930 . S
C1982 C1980 1.457 . S
C1982 C1983 1.362 . S
C1983 H1973 0.930 . S
C1983 C1976 1.409 . S
C1983 C1982 1.362 . S
H1984 C1990 0.930 . S
H1985 C1993 0.930 . S
H1986 C1994 0.930 . S
H1987 C1995 0.930 . S
H1988 C1998 0.930 . S
H1989 C1999 0.930 . S
C1990 H1984 0.930 . S
C1990 C1991 1.355 . S
C1990 C1992 1.415 . S
C1991 C1990 1.355 . S
C1991 C1993 1.419 . S
C1992 C1990 1.415 . S
C1992 C1997 1.425 . S
C1992 C1999 1.409 . S
C1993 H1985 0.930 . S
C1993 C1991 1.419 . S
C1993 C1994 1.362 . S
C1994 H1986 0.930 . S
C1994 C1993 1.362 . S
C1994 C1997 1.409 . S
C1995 H1987 0.930 . S
C1995 C1996 1.355 . S
C1995 C1997 1.415 . S
C1996 C1995 1.355 . S
C1996 C1998 1.419 . S
C1997 C1992 1.425 . S
C1997 C1994 1.409 . S
C1997 C1995 1.415 . S
C1998 H1988 0.930 . S
C1998 C1996 1.419 . S
C1998 C1999 1.362 . S
C1999 H1989 0.930 . S
C1999 C1992 1.409 . S
C1999 C1998 1.362 . S
H2000 C2006 0.930 . S
H2001 C2009 0.930 . S
H2002 C2010 0.930 . S
H2003 C2011 0.930 . S
H2004 C2014 0.930 . S
H2005 C2015 0.930 . S
C2006 H2000 0.930 . S
C2006 C2007 1.355 . S
C2006 C2008 1.415 1_556 S
C2007 C2006 1.355 . S
C2007 C2009 1.419 1_556 S
C2008 C2006 1.415 1_554 S
C2008 C2013 1.425 . S
C2008 C2015 1.409 . S
C2009 H2001 0.930 . S
C2009 C2007 1.419 1_554 S
C2009 C2010 1.362 . S
C2010 H2002 0.930 . S
C2010 C2009 1.362 . S
C2010 C2013 1.409 . S
C2011 H2003 0.930 . S
C2011 C2012 1.355 . S
C2011 C2013 1.415 . S
C2012 C2011 1.355 . S
C2012 C2014 1.419 . S
C2013 C2008 1.425 . S
C2013 C2010 1.409 . S
C2013 C2011 1.415 . S
C2014 H2004 0.930 . S
C2014 C2012 1.419 . S
C2014 C2015 1.362 . S
C2015 H2005 0.930 . S
C2015 C2008 1.409 . S
C2015 C2014 1.362 . S
H2016 C2022 0.930 . S
H2017 C2025 0.930 . S
H2018 C2026 0.930 . S
H2019 C2027 0.930 . S
H2020 C2030 0.930 . S
H2021 C2031 0.930 . S
C2022 H2016 0.930 . S
C2022 C2023 1.355 . S
C2022 C2024 1.415 . S
C2023 C2022 1.355 . S
C2023 C2025 1.419 . S
C2024 C2022 1.415 . S
C2024 C2029 1.425 . S
C2024 C2031 1.409 . S
C2025 H2017 0.930 . S
C2025 C2023 1.419 . S
C2025 C2026 1.362 . S
C2026 H2018 0.930 . S
C2026 C2025 1.362 . S
C2026 C2029 1.409 . S
C2027 H2019 0.930 . S
C2027 C2028 1.355 . S
C2027 C2029 1.415 . S
C2028 C2027 1.355 . S
C2028 C2030 1.419 . S
C2029 C2024 1.425 . S
C2029 C2026 1.409 . S
C2029 C2027 1.415 . S
C2030 H2020 0.930 . S
C2030 C2028 1.419 . S
C2030 C2031 1.362 . S
C2031 H2021 0.930 . S
C2031 C2024 1.409 . S
C2031 C2030 1.362 . S
H2032 C2038 0.930 . S
H2033 C2041 0.930 . S
H2034 C2042 0.930 . S
H2035 C2043 0.930 . S
H2036 C2046 0.930 . S
H2037 C2047 0.930 . S
C2038 H2032 0.930 . S
C2038 C2039 1.355 . S
C2038 C2040 1.415 . S
C2039 C2038 1.355 . S
C2039 C2041 1.419 . S
C2040 C2038 1.415 . S
C2040 C2045 1.425 . S
C2040 C2047 1.409 . S
C2041 H2033 0.930 . S
C2041 C2039 1.419 . S
C2041 C2042 1.362 . S
C2042 H2034 0.930 . S
C2042 C2041 1.362 . S
C2042 C2045 1.409 . S
C2043 H2035 0.930 . S
C2043 C2044 1.355 . S
C2043 C2045 1.415 . S
C2044 C2043 1.355 . S
C2044 C2046 1.419 . S
C2045 C2040 1.425 . S
C2045 C2042 1.409 . S
C2045 C2043 1.415 . S
C2046 H2036 0.930 . S
C2046 C2044 1.419 . S
C2046 C2047 1.362 . S
C2047 H2037 0.930 . S
C2047 C2040 1.409 . S
C2047 C2046 1.362 . S
H2048 C2054 0.930 . S
H2049 C2057 0.930 . S
H2050 C2058 0.930 . S
H2051 C2059 0.930 . S
H2052 C2062 0.930 . S
H2053 C2063 0.930 . S
C2054 H2048 0.930 . S
C2054 C2055 1.355 . S
C2054 C2056 1.415 . S
C2055 C2054 1.355 . S
C2055 C2057 1.419 . S
C2056 C2054 1.415 . S
C2056 C2061 1.425 . S
C2056 C2063 1.409 . S
C2057 H2049 0.930 . S
C2057 C2055 1.419 . S
C2057 C2058 1.362 . S
C2058 H2050 0.930 . S
C2058 C2057 1.362 . S
C2058 C2061 1.409 . S
C2059 H2051 0.930 . S
C2059 C2060 1.355 . S
C2059 C2061 1.415 . S
C2060 C2059 1.355 . S
C2060 C2062 1.419 . S
C2061 C2056 1.425 . S
C2061 C2058 1.409 . S
C2061 C2059 1.415 . S
C2062 H2052 0.930 . S
C2062 C2060 1.419 . S
C2062 C2063 1.362 . S
C2063 H2053 0.930 . S
C2063 C2056 1.409 . S
C2063 C2062 1.362 . S
H2064 C2070 0.930 . S
H2065 C2073 0.930 . S
H2066 C2074 0.930 . S
H2067 C2075 0.930 . S
H2068 C2078 0.930 . S
H2069 C2079 0.930 1_556 S
C2070 H2064 0.930 . S
C2070 C2071 1.355 . S
C2070 C2072 1.415 . S
C2071 C2070 1.355 . S
C2071 C2073 1.419 . S
C2072 C2070 1.415 . S
C2072 C2077 1.425 . S
C2072 C2079 1.409 . S
C2073 H2065 0.930 . S
C2073 C2071 1.419 . S
C2073 C2074 1.362 . S
C2074 H2066 0.930 . S
C2074 C2073 1.362 . S
C2074 C2077 1.409 . S
C2075 H2067 0.930 . S
C2075 C2076 1.355 1_554 S
C2075 C2077 1.415 . S
C2076 C2075 1.355 1_556 S
C2076 C2078 1.419 . S
C2077 C2072 1.425 . S
C2077 C2074 1.409 . S
C2077 C2075 1.415 . S
C2078 H2068 0.930 . S
C2078 C2076 1.419 . S
C2078 C2079 1.362 1_556 S
C2079 H2069 0.930 1_554 S
C2079 C2072 1.409 . S
C2079 C2078 1.362 1_554 S
H2080 C2086 0.930 1_565 S
H2081 C2089 0.930 . S
H2082 C2090 0.930 . S
H2083 C2091 0.930 . S
H2084 C2094 0.930 1_565 S
H2085 C2095 0.919 1_565 S
C2086 H2080 0.930 1_545 S
C2086 C2087 1.355 . S
C2086 C2088 1.415 . S
C2087 C2086 1.355 . S
C2087 C2089 1.419 . S
C2088 C2086 1.415 . S
C2088 C2093 1.425 . S
C2088 C2095 1.416 . S
C2089 H2081 0.930 . S
C2089 C2087 1.419 . S
C2089 C2090 1.362 . S
C2090 H2082 0.930 . S
C2090 C2089 1.362 . S
C2090 C2093 1.409 . S
C2091 H2083 0.930 . S
C2091 C2092 1.355 . S
C2091 C2093 1.415 . S
C2092 C2091 1.355 . S
C2092 C2094 1.419 . S
C2093 C2088 1.425 . S
C2093 C2090 1.409 . S
C2093 C2091 1.415 . S
C2094 H2084 0.930 1_545 S
C2094 C2092 1.419 . S
C2094 C2095 1.367 . S
C2095 H2085 0.919 1_545 S
C2095 C2088 1.416 . S
C2095 C2094 1.367 . S
H2096 C2102 0.930 . S
H2097 C2105 0.930 . S
H2098 C2106 0.930 . S
H2099 C2107 0.930 . S
H2100 C2110 0.930 . S
H2101 C2111 0.930 . S
C2102 H2096 0.930 . S
C2102 C2103 1.355 . S
C2102 C2104 1.415 . S
C2103 C2102 1.355 . S
C2103 C2105 1.419 . S
C2104 C2102 1.415 . S
C2104 C2109 1.425 . S
C2104 C2111 1.409 . S
C2105 H2097 0.930 . S
C2105 C2103 1.419 . S
C2105 C2106 1.362 . S
C2106 H2098 0.930 . S
C2106 C2105 1.362 . S
C2106 C2109 1.409 . S
C2107 H2099 0.930 . S
C2107 C2108 1.355 . S
C2107 C2109 1.415 . S
C2108 C2107 1.355 . S
C2108 C2110 1.419 . S
C2109 C2104 1.425 . S
C2109 C2106 1.409 . S
C2109 C2107 1.415 . S
C2110 H2100 0.930 . S
C2110 C2108 1.419 . S
C2110 C2111 1.362 . S
C2111 H2101 0.930 . S
C2111 C2104 1.409 . S
C2111 C2110 1.362 . S
C1351 C56 3.766 . S
C1356 C1155 3.729 1_565 S
C1367 C158 3.802 . S
C1372 C987 3.648 . S
C1383 C1064 3.771 . S
C1388 C231 3.738 . S
C1399 C315 3.609 . S
C1404 C914 3.813 . S
C1415 C403 3.768 . S
C1420 C1334 3.738 . S
C1431 C830 3.648 . S
C1436 C483 3.802 . S
C1447 C578 3.719 . S
C1452 C1243 3.773 . S
C1463 C662 3.648 . S
C1468 C735 3.802 . S
C1479 C1166 1.589 . S
C1484 C67 1.624 . S
C1495 C998 1.612 . S
C1500 C147 1.655 . S
C1511 C1075 1.624 . S
C1516 C242 1.588 . S
C1527 C903 1.592 . S
C1532 C326 1.669 . S
C1543 C392 1.625 . S
C1548 C1323 1.599 . S
C1559 C819 1.629 . S
C1564 C494 1.641 . S
C1575 C1232 1.636 . S
C1580 C567 1.570 . S
C1591 C746 1.596 . S
C1596 C651 1.666 . S
C1607 C825 0.877 . S
C1612 C63 0.940 . S
C1623 C1234 0.983 . S
C1628 C153 0.728 . S
C1639 C728 1.328 . S
C1644 C224 1.412 . S
C1655 C1329 0.393 . S
C1660 C308 0.185 . S
C1671 C909 0.736 . S
C1676 C394 0.990 . S
C1687 C476 1.396 . S
C1692 C1148 1.395 . S
C1703 C980 0.197 . S
C1708 C573 0.353 . S
C1719 C1071 1.060 . S
C1724 C657 0.950 . S
C1735 C310 1.015 . S
C1740 C410 0.994 . S
C1751 C1077 1.133 . S
C1756 C730 0.928 . S
C1767 C151 1.400 . S
C1772 C571 1.400 . S
C1783 C823 0.211 . S
C1788 C1150 0.492 . S
C1799 C478 0.827 . S
C1804 C69 1.065 . S
C1815 C1327 1.395 . S
C1820 C907 1.396 . S
C1831 C655 0.231 . S
C1836 C226 0.529 . S
C1847 C1250 0.994 . S
C1852 C982 1.016 . S
C1863 C58 1.594 . S
C1868 C560 1.803 . S
C1879 C140 1.332 1_545 S
C1884 C644 1.351 . S
C1895 C399 1.701 . S
C1900 C237 1.414 . S
C1911 C321 1.592 . S
C1916 C489 1.616 . S
C1927 C235 1.805 . S
C1932 C405 1.561 . S
C1943 C739 1.344 . S
C1948 C991 1.354 . S
C1959 C562 1.398 . S
C1964 C74 1.707 . S
C1975 C814 1.520 . S
C1980 C898 1.632 1_554 S
C1991 C1316 1.805 . S
C1996 C1066 1.588 . S
C2007 C896 1.354 . S
C2012 C812 1.357 . S
C2023 C1239 1.669 . S
C2028 C1161 1.362 . S
C2039 C741 1.694 . S
C2044 C993 1.486 . S
C2055 C1159 1.790 . S
C2060 C1245 1.486 . S
C2071 C487 1.350 . S
C2076 C319 1.376 . S
C2087 C1318 1.334 . S
C2092 C1082 1.696 . S
C2103 C142 1.642 . S
C2108 C646 1.601 . S
