# Generated by pormake.
# Topology wmn, (6)-cn, num edge types: 1
# Building blocks:
#     Node 0, Type 0, BuildingBlock: KUMJIN_clean_sbu_1, # of connection points: 6
#     Node 1, Type 0, BuildingBlock: KUMJIN_clean_sbu_1, # of connection points: 6
#     Node 2, Type 0, BuildingBlock: KUMJIN_clean_sbu_1, # of connection points: 6
#     Node 3, Type 0, BuildingBlock: KUMJIN_clean_sbu_1, # of connection points: 6
#     Node 4, Type 0, BuildingBlock: KUMJIN_clean_sbu_1, # of connection points: 6
#     Node 5, Type 0, BuildingBlock: KUMJIN_clean_sbu_1, # of connection points: 6
#     Node 6, Type 0, BuildingBlock: KUMJIN_clean_sbu_1, # of connection points: 6
#     Node 7, Type 0, BuildingBlock: KUMJIN_clean_sbu_1, # of connection points: 6
#     Node 8, Type 0, BuildingBlock: KUMJIN_clean_sbu_1, # of connection points: 6
#     Node 9, Type 0, BuildingBlock: KUMJIN_clean_sbu_1, # of connection points: 6
#     Node 10, Type 0, BuildingBlock: KUMJIN_clean_sbu_1, # of connection points: 6
#     Node 11, Type 0, BuildingBlock: KUMJIN_clean_sbu_1, # of connection points: 6
#     Edge 12, Type (0, 0), BuildingBlock: KIFKEQ_clean_linker_1, # of connection points: 2
#     Edge 13, Type (0, 0), BuildingBlock: KIFKEQ_clean_linker_1, # of connection points: 2
#     Edge 14, Type (0, 0), BuildingBlock: KIFKEQ_clean_linker_1, # of connection points: 2
#     Edge 15, Type (0, 0), BuildingBlock: KIFKEQ_clean_linker_1, # of connection points: 2
#     Edge 16, Type (0, 0), BuildingBlock: KIFKEQ_clean_linker_1, # of connection points: 2
#     Edge 17, Type (0, 0), BuildingBlock: KIFKEQ_clean_linker_1, # of connection points: 2
#     Edge 18, Type (0, 0), BuildingBlock: KIFKEQ_clean_linker_1, # of connection points: 2
#     Edge 19, Type (0, 0), BuildingBlock: KIFKEQ_clean_linker_1, # of connection points: 2
#     Edge 20, Type (0, 0), BuildingBlock: KIFKEQ_clean_linker_1, # of connection points: 2
#     Edge 21, Type (0, 0), BuildingBlock: KIFKEQ_clean_linker_1, # of connection points: 2
#     Edge 22, Type (0, 0), BuildingBlock: KIFKEQ_clean_linker_1, # of connection points: 2
#     Edge 23, Type (0, 0), BuildingBlock: KIFKEQ_clean_linker_1, # of connection points: 2
#     Edge 24, Type (0, 0), BuildingBlock: KIFKEQ_clean_linker_1, # of connection points: 2
#     Edge 25, Type (0, 0), BuildingBlock: KIFKEQ_clean_linker_1, # of connection points: 2
#     Edge 26, Type (0, 0), BuildingBlock: KIFKEQ_clean_linker_1, # of connection points: 2
#     Edge 27, Type (0, 0), BuildingBlock: KIFKEQ_clean_linker_1, # of connection points: 2
#     Edge 28, Type (0, 0), BuildingBlock: KIFKEQ_clean_linker_1, # of connection points: 2
#     Edge 29, Type (0, 0), BuildingBlock: KIFKEQ_clean_linker_1, # of connection points: 2
#     Edge 30, Type (0, 0), BuildingBlock: KIFKEQ_clean_linker_1, # of connection points: 2
#     Edge 31, Type (0, 0), BuildingBlock: KIFKEQ_clean_linker_1, # of connection points: 2
#     Edge 32, Type (0, 0), BuildingBlock: KIFKEQ_clean_linker_1, # of connection points: 2
#     Edge 33, Type (0, 0), BuildingBlock: KIFKEQ_clean_linker_1, # of connection points: 2
#     Edge 34, Type (0, 0), BuildingBlock: KIFKEQ_clean_linker_1, # of connection points: 2
#     Edge 35, Type (0, 0), BuildingBlock: KIFKEQ_clean_linker_1, # of connection points: 2
#     Edge 36, Type (0, 0), BuildingBlock: KIFKEQ_clean_linker_1, # of connection points: 2
#     Edge 37, Type (0, 0), BuildingBlock: KIFKEQ_clean_linker_1, # of connection points: 2
#     Edge 38, Type (0, 0), BuildingBlock: KIFKEQ_clean_linker_1, # of connection points: 2
#     Edge 39, Type (0, 0), BuildingBlock: KIFKEQ_clean_linker_1, # of connection points: 2
#     Edge 40, Type (0, 0), BuildingBlock: KIFKEQ_clean_linker_1, # of connection points: 2
#     Edge 41, Type (0, 0), BuildingBlock: KIFKEQ_clean_linker_1, # of connection points: 2
#     Edge 42, Type (0, 0), BuildingBlock: KIFKEQ_clean_linker_1, # of connection points: 2
#     Edge 43, Type (0, 0), BuildingBlock: KIFKEQ_clean_linker_1, # of connection points: 2
#     Edge 44, Type (0, 0), BuildingBlock: KIFKEQ_clean_linker_1, # of connection points: 2
#     Edge 45, Type (0, 0), BuildingBlock: KIFKEQ_clean_linker_1, # of connection points: 2
#     Edge 46, Type (0, 0), BuildingBlock: KIFKEQ_clean_linker_1, # of connection points: 2
#     Edge 47, Type (0, 0), BuildingBlock: KIFKEQ_clean_linker_1, # of connection points: 2
# Relax obj value: 0.143
# Max RMSD: 0.301
# Mean RMSD: 0.301
data_MOF--net-wmn--node1-KUMJIN_clean_sbu_1--edge1-KIFKEQ_clean_linker_1
_symmetry_space_group_name_H-M    P1
_symmetry_Int_Tables_number       1
_symmetry_cell_setting            triclinic
loop_
_symmetry_equiv_pos_as_xyz
'x, y, z'
_cell_length_a     59.898702
_cell_length_b     59.8552
_cell_length_c     24.206364
_cell_angle_alpha  90.085532
_cell_angle_beta   89.855298
_cell_angle_gamma 119.97542
loop_
_atom_site_label
_atom_site_type_symbol
_atom_site_fract_x
_atom_site_fract_y
_atom_site_fract_z
_atom_type_partial_charge
Eu0 Eu 0.12404 0.40712 0.04811 0.0
C1 C 0.0799 0.2847 1.00327 0.0
N2 N 0.09091 0.29842 0.04985 0.0
C3 C 0.06005 0.26354 0.10567 0.0
C4 C 0.05779 0.26 0.00612 0.0
C5 C 0.08238 0.28761 0.10064 0.0
C6 C 0.04742 0.24983 0.05812 0.0
C7 C 0.08201 0.28008 0.90411 0.0
C8 C 0.09172 0.2947 0.95287 0.0
C9 C 0.05933 0.25598 0.90641 0.0
C10 C 0.04721 0.24599 0.95729 0.0
Eu11 Eu 0.1266 0.34014 0.03708 0.0
N12 N 0.11331 0.31829 0.95178 0.0
C13 C 0.09561 0.29003 0.85466 0.0
C14 C 0.12762 0.32723 0.90465 0.0
C15 C 0.11878 0.31352 0.85515 0.0
H16 H 0.09297 0.29754 0.13724 0.0
H17 H 0.12986 0.32101 0.81753 0.0
H18 H 0.17519 0.44553 0.96768 0.0
H19 H 0.10889 0.41228 0.26979 0.0
H20 H 0.14574 0.34498 0.90534 0.0
H21 H 0.08876 0.27944 0.81627 0.0
H22 H 0.09656 0.3953 0.17551 0.0
H23 H 0.0528 0.25544 0.14613 0.0
H24 H 0.05122 0.24472 0.86921 0.0
H25 H 0.02999 0.22715 0.95857 0.0
H26 H 0.2188 0.48277 0.979 0.0
H27 H 0.03027 0.23105 0.06205 0.0
H28 H 0.15215 0.4496 0.28775 0.0
N29 N 0.16619 0.44255 0.05345 0.0
C30 C 0.1736 0.4536 0.10433 0.0
C31 C 0.20639 0.47456 0.01465 0.0
C32 C 0.19834 0.47512 0.11245 0.0
C33 C 0.18175 0.45315 0.00853 0.0
C34 C 0.21482 0.48546 0.06686 0.0
N35 N 0.1329 0.42191 0.14026 0.0
C36 C 0.1157 0.41118 0.18264 0.0
C37 C 0.16426 0.45347 0.20224 0.0
C38 C 0.15659 0.44296 0.14885 0.0
C39 C 0.14693 0.4421 0.24613 0.0
C40 C 0.12253 0.42097 0.23621 0.0
H41 H 0.23396 0.50202 0.07142 0.0
H42 H 0.22488 0.50211 0.17256 0.0
H43 H 0.19517 0.48309 0.25108 0.0
O44 O 0.10561 0.42947 0.07179 0.0
O45 O 0.15463 0.40118 0.09417 0.0
O46 O 0.13346 0.3587 0.12055 0.0
O47 O 0.11884 0.43174 0.9884 0.0
O48 O 0.09018 0.37256 0.08909 0.0
O49 O 0.10067 0.34038 0.10708 0.0
O50 O 0.1668 0.34924 0.03511 0.0
O51 O 0.10673 0.35028 0.97012 0.0
O52 O 0.08891 0.37152 0.01423 0.0
O53 O 0.13679 0.31064 0.05486 0.0
O54 O 0.15779 0.37922 0.00625 0.0
O55 O 0.14005 0.40122 0.96701 0.0
C56 C 0.15048 0.38289 0.13013 0.0
C57 C 0.0812 0.43507 1.00259 0.0
C58 C 0.04997 0.45035 0.99559 0.0
C59 C 0.03259 0.42684 0.97021 0.0
C60 C 0.06329 0.4119 0.97712 0.0
C61 C 0.03925 0.4079 0.96093 0.0
C62 C 0.07454 0.45447 0.01142 0.0
C63 C 0.08604 0.35108 0.11379 0.0
C64 C 0.10605 0.43817 0.02244 0.0
C65 C 0.20591 0.48562 0.16558 0.0
C66 C 0.18897 0.4748 0.21032 0.0
C67 C 0.08706 0.3536 0.97997 0.0
C68 C 0.17737 0.32486 0.09483 0.0
C69 C 0.21179 0.31675 0.12304 0.0
C70 C 0.20693 0.32015 0.17852 0.0
C71 C 0.17279 0.32813 0.15022 0.0
C72 C 0.19692 0.31941 0.08136 0.0
C73 C 0.18768 0.32597 0.19185 0.0
C74 C 0.15565 0.39169 0.96404 0.0
C75 C 0.16145 0.32628 0.0506 0.0
H76 H 0.01378 0.42316 0.95702 0.0
H77 H 0.06782 0.39675 0.97 0.0
H78 H 0.02562 0.38994 0.9413 0.0
H79 H 0.08811 0.47234 0.03158 0.0
H80 H 0.21765 0.31786 0.21179 0.0
H81 H 0.15754 0.33202 0.16116 0.0
H82 H 0.20049 0.31732 0.03826 0.0
H83 H 0.18406 0.32845 0.23463 0.0
Eu84 Eu 0.608 0.71837 0.04953 0.0
C85 C 0.73576 0.81004 0.04799 0.0
N86 N 0.71809 0.80346 0.08907 0.0
C87 C 0.74951 0.80786 0.15603 0.0
C88 C 0.76077 0.81453 0.05915 0.0
C89 C 0.72497 0.80363 0.14293 0.0
C90 C 0.76733 0.81282 0.11384 0.0
C91 C 0.74765 0.82191 0.95207 0.0
C92 C 0.72936 0.81388 0.99517 0.0
C93 C 0.77213 0.8251 0.96244 0.0
C94 C 0.77868 0.82144 0.01586 0.0
Eu95 Eu 0.67702 0.79589 0.06182 0.0
N96 N 0.70552 0.81053 0.98621 0.0
C97 C 0.74084 0.82676 0.89997 0.0
C98 C 0.69912 0.81629 0.93635 0.0
C99 C 0.71654 0.82419 0.89225 0.0
H100 H 0.71147 0.80036 0.17593 0.0
H101 H 0.71124 0.82829 0.8524 0.0
H102 H 0.57918 0.74231 0.96422 0.0
H103 H 0.57197 0.66165 0.2376 0.0
H104 H 0.68044 0.81441 0.93061 0.0
H105 H 0.75432 0.83289 0.86576 0.0
H106 H 0.60294 0.68384 0.16143 0.0
H107 H 0.75468 0.80739 0.19865 0.0
H108 H 0.78632 0.83092 0.92968 0.0
H109 H 0.79787 0.82461 0.02352 0.0
H110 H 0.53978 0.74484 0.96219 0.0
H111 H 0.78636 0.81618 0.12411 0.0
H112 H 0.53063 0.66159 0.23991 0.0
N113 N 0.57097 0.7229 0.04183 0.0
C114 C 0.55253 0.71018 0.08126 0.0
C115 C 0.54332 0.7354 0.9964 0.0
C116 C 0.52918 0.71059 0.08066 0.0
C117 C 0.56614 0.73446 0.9985 0.0
C118 C 0.52488 0.72367 0.0379 0.0
N119 N 0.57988 0.69707 0.12344 0.0
C120 C 0.58527 0.68445 0.16332 0.0
C121 C 0.53868 0.68415 0.16502 0.0
C122 C 0.55703 0.69679 0.12289 0.0
C123 C 0.54426 0.67152 0.20683 0.0
C124 C 0.56763 0.67161 0.20585 0.0
H125 H 0.50718 0.72438 0.03595 0.0
H126 H 0.49279 0.69801 0.12251 0.0
H127 H 0.50118 0.67508 0.19645 0.0
O128 O 0.59583 0.6766 0.04948 0.0
O129 O 0.60281 0.74049 0.1215 0.0
O130 O 0.6392 0.76637 0.08775 0.0
O131 O 0.58882 0.69436 0.97807 0.0
O132 O 0.64013 0.7232 0.10915 0.0
O133 O 0.67518 0.76606 0.12349 0.0
O134 O 0.67997 0.83334 0.04685 0.0
O135 O 0.67282 0.7687 0.99235 0.0
O136 O 0.64877 0.72688 0.0268 0.0
O137 O 0.68305 0.82206 0.12998 0.0
O138 O 0.64002 0.78813 0.0192 0.0
O139 O 0.62069 0.74781 0.97785 0.0
C140 C 0.62278 0.76294 0.12628 0.0
C141 C 0.57354 0.64837 0.96957 0.0
C142 C 0.55207 0.601 0.96434 0.0
C143 C 0.54731 0.60245 0.90808 0.0
C144 C 0.56848 0.64888 0.91304 0.0
C145 C 0.55558 0.62616 0.8827 0.0
C146 C 0.56559 0.62418 0.99523 0.0
C147 C 0.66197 0.74078 0.13345 0.0
C148 C 0.58601 0.67329 1.00029 0.0
C149 C 0.51079 0.69784 0.12239 0.0
C150 C 0.51553 0.68471 0.16445 0.0
C151 C 0.66933 0.74545 1.0013 0.0
C152 C 0.70806 0.86625 0.10748 0.0
C153 C 0.72817 0.91312 0.10661 0.0
C154 C 0.75111 0.91503 0.12634 0.0
C155 C 0.73127 0.86864 0.12671 0.0
C156 C 0.70667 0.88859 0.09687 0.0
C157 C 0.75263 0.8929 0.13607 0.0
C158 C 0.62969 0.7731 0.97586 0.0
C159 C 0.68534 0.84064 0.09816 0.0
H160 H 0.53723 0.58507 0.88346 0.0
H161 H 0.57436 0.66695 0.89201 0.0
H162 H 0.5518 0.62692 0.83924 0.0
H163 H 0.56923 0.62331 0.03878 0.0
H164 H 0.76801 0.93371 0.1335 0.0
H165 H 0.73295 0.85184 0.13473 0.0
H166 H 0.68884 0.88689 0.08184 0.0
H167 H 0.77042 0.89455 0.15091 0.0
Eu168 Eu 0.29975 0.89651 0.05127 0.0
C169 C 0.2091 0.9329 0.03524 0.0
N170 N 0.21599 0.92365 0.07924 0.0
C171 C 0.21473 0.95533 0.13798 0.0
C172 C 0.20596 0.95465 0.04045 0.0
C173 C 0.21744 0.93362 0.1308 0.0
C174 C 0.20943 0.96619 0.09243 0.0
C175 C 0.19597 0.92838 0.93919 0.0
C176 C 0.20402 0.91988 0.98535 0.0
C177 C 0.19382 0.95063 0.94362 0.0
C178 C 0.19882 0.96374 0.99412 0.0
Eu179 Eu 0.22244 0.88839 0.06108 0.0
N180 N 0.2067 0.89872 0.98201 0.0
C181 C 0.1904 0.91426 0.88996 0.0
C182 C 0.2004 0.88434 0.93499 0.0
C183 C 0.19239 0.89199 0.88804 0.0
H184 H 0.2208 0.92497 0.16665 0.0
H185 H 0.18777 0.88072 0.85048 0.0
H186 H 0.27717 0.8434 0.96855 0.0
H187 H 0.35286 0.91883 0.2449 0.0
H188 H 0.20165 0.86705 0.93381 0.0
H189 H 0.18426 0.92021 0.85351 0.0
H190 H 0.33042 0.92629 0.16776 0.0
H191 H 0.21657 0.96357 0.1787 0.0
H192 H 0.18798 0.95765 0.90845 0.0
H193 H 0.19662 0.9806 0.9972 0.0
H194 H 0.27718 0.80252 0.9669 0.0
H195 H 0.20722 0.98295 0.09815 0.0
H196 H 0.3561 0.87922 0.24685 0.0
N197 N 0.29694 0.85577 0.04535 0.0
C198 C 0.31009 0.85104 0.08532 0.0
C199 C 0.28622 0.81584 1.00081 0.0
C200 C 0.31099 0.82794 0.08521 0.0
C201 C 0.28581 0.83897 1.0025 0.0
C202 C 0.2987 0.81021 0.04247 0.0
N203 N 0.32053 0.89093 0.1277 0.0
C204 C 0.33137 0.90875 0.16884 0.0
C205 C 0.33503 0.86418 0.17046 0.0
C206 C 0.32227 0.86911 0.12744 0.0
C207 C 0.34614 0.88233 0.21306 0.0
C208 C 0.34427 0.90468 0.21224 0.0
H209 H 0.299 0.79227 0.0409 0.0
H210 H 0.32495 0.80556 0.12806 0.0
H211 H 0.3458 0.83716 0.20272 0.0
O212 O 0.34176 0.92558 0.05205 0.0
O213 O 0.27657 0.86792 0.12025 0.0
O214 O 0.25164 0.87952 0.08609 0.0
O215 O 0.32365 0.90182 0.97937 0.0
O216 O 0.29458 0.92383 0.11032 0.0
O217 O 0.25153 0.91535 0.12444 0.0
O218 O 0.18427 0.85344 0.05291 0.0
O219 O 0.25009 0.91269 0.99315 0.0
O220 O 0.29155 0.92891 0.02881 0.0
O221 O 0.1978 0.87244 0.13331 0.0
O222 O 0.22949 0.8587 0.01783 0.0
O223 O 0.2706 0.87944 0.97905 0.0
C224 C 0.25426 0.86581 0.12407 0.0
C225 C 0.36951 0.93239 0.97026 0.0
C226 C 0.41686 0.95841 0.96258 0.0
C227 C 0.41438 0.95578 0.90483 0.0
C228 C 0.36809 0.93042 0.91238 0.0
C229 C 0.3903 0.94194 0.88015 0.0
C230 C 0.39416 0.94641 0.9956 0.0
C231 C 0.27665 0.92743 0.13498 0.0
C232 C 0.34483 0.9197 1.00195 0.0
C233 C 0.32407 0.82321 0.12759 0.0
C234 C 0.33601 0.84124 0.17008 0.0
C235 C 0.27368 0.93179 1.00269 0.0
C236 C 0.15558 0.83387 0.13251 0.0
C237 C 0.1105 0.79992 0.12908 0.0
C238 C 0.11076 0.79678 0.18643 0.0
C239 C 0.15525 0.83065 0.19001 0.0
C240 C 0.13308 0.8182 0.10185 0.0
C241 C 0.13315 0.81188 0.21653 0.0
C242 C 0.24535 0.86304 0.97602 0.0
C243 C 0.17952 0.85348 0.10551 0.0
H244 H 0.43128 0.96425 0.87844 0.0
H245 H 0.34966 0.91998 0.89164 0.0
H246 H 0.38883 0.94014 0.83562 0.0
H247 H 0.39566 0.94812 0.04017 0.0
H248 H 0.09361 0.78252 0.20784 0.0
H249 H 0.17213 0.84255 0.21456 0.0
H250 H 0.13295 0.8205 0.05746 0.0
H251 H 0.13343 0.80903 0.26051 0.0
Eu252 Eu 0.40775 0.11515 0.46503 0.0
C253 C 0.28781 0.07006 0.5058 0.0
N254 N 0.30052 0.08209 0.4588 0.0
C255 C 0.26583 0.05035 0.40411 0.0
C256 C 0.2641 0.04673 0.50363 0.0
C257 C 0.28906 0.07366 0.40861 0.0
C258 C 0.25359 0.03647 0.45184 0.0
C259 C 0.28386 0.07124 0.60542 0.0
C260 C 0.29758 0.08211 0.55609 0.0
C261 C 0.26096 0.04729 0.60373 0.0
C262 C 0.25117 0.03499 0.55296 0.0
Eu263 Eu 0.34114 0.11959 0.47054 0.0
N264 N 0.32005 0.10499 0.55654 0.0
C265 C 0.2934 0.08499 0.65478 0.0
C266 C 0.32835 0.11938 0.60364 0.0
C267 C 0.3155 0.10939 0.6537 0.0
H268 H 0.29773 0.0852 0.3722 0.0
H269 H 0.32255 0.12057 0.69131 0.0
H270 H 0.44431 0.16251 0.55597 0.0
H271 H 0.42639 0.10351 0.24885 0.0
H272 H 0.34495 0.13841 0.60246 0.0
H273 H 0.28347 0.07729 0.6936 0.0
H274 H 0.40249 0.09074 0.33669 0.0
H275 H 0.25718 0.04333 0.364 0.0
H276 H 0.25039 0.03839 0.64131 0.0
H277 H 0.23315 0.01685 0.55216 0.0
H278 H 0.48399 0.20465 0.55511 0.0
H279 H 0.23545 0.01855 0.44836 0.0
H280 H 0.46657 0.14561 0.24114 0.0
N281 N 0.44534 0.15598 0.46966 0.0
C282 C 0.45942 0.16415 0.42222 0.0
C283 C 0.47711 0.19362 0.5173 0.0
C284 C 0.48266 0.18797 0.42034 0.0
C285 C 0.45425 0.16986 0.51733 0.0
C286 C 0.49126 0.20285 0.46851 0.0
N287 N 0.42831 0.12557 0.37816 0.0
C288 C 0.41967 0.10934 0.3338 0.0
C289 C 0.46509 0.15651 0.32585 0.0
C290 C 0.45074 0.14852 0.37537 0.0
C291 C 0.45607 0.14016 0.27987 0.0
C292 C 0.43336 0.1164 0.284 0.0
H293 H 0.50905 0.22122 0.46874 0.0
H294 H 0.51461 0.21436 0.36867 0.0
H295 H 0.49921 0.18688 0.28603 0.0
O296 O 0.42491 0.0911 0.44674 0.0
O297 O 0.40575 0.14729 0.41636 0.0
O298 O 0.36303 0.13038 0.39026 0.0
O299 O 0.42847 0.10666 0.5286 0.0
O300 O 0.37447 0.08516 0.41438 0.0
O301 O 0.34225 0.09566 0.39709 0.0
O302 O 0.34732 0.15889 0.47556 0.0
O303 O 0.35072 0.09874 0.5361 0.0
O304 O 0.37023 0.07999 0.48997 0.0
O305 O 0.31015 0.12751 0.45218 0.0
O306 O 0.37977 0.15054 0.50425 0.0
O307 O 0.39983 0.13075 0.54425 0.0
C308 C 0.38771 0.14689 0.38412 0.0
C309 C 0.46098 0.09733 0.49864 0.0
C310 C 0.49065 0.07999 0.49959 0.0
C311 C 0.51128 0.10547 0.50527 0.0
C312 C 0.48204 0.12236 0.50317 0.0
C313 C 0.50698 0.12634 0.50662 0.0
C314 C 0.46532 0.07615 0.49656 0.0
C315 C 0.3537 0.08183 0.3881 0.0
C316 C 0.43446 0.0931 0.4958 0.0
C317 C 0.49676 0.19608 0.37085 0.0
C318 C 0.488 0.18041 0.32378 0.0
C319 C 0.35255 0.07843 0.52414 0.0
C320 C 0.3224 0.1681 0.41396 0.0
C321 C 0.31571 0.20351 0.38612 0.0
C322 C 0.3165 0.19717 0.33046 0.0
C323 C 0.32303 0.162 0.35818 0.0
C324 C 0.31891 0.18895 0.42776 0.0
C325 C 0.32026 0.17661 0.3167 0.0
C326 C 0.39182 0.14763 0.54643 0.0
C327 C 0.32432 0.15231 0.45811 0.0
H328 H 0.5309 0.10942 0.50954 0.0
H329 H 0.47924 0.13885 0.50446 0.0
H330 H 0.52312 0.14574 0.51076 0.0
H331 H 0.44902 0.05684 0.492 0.0
H332 H 0.31441 0.20826 0.29762 0.0
H333 H 0.32571 0.14598 0.34679 0.0
H334 H 0.31806 0.19341 0.47088 0.0
H335 H 0.32096 0.17196 0.27373 0.0
Eu336 Eu 0.90672 0.29422 0.46287 0.0
C337 C 0.93128 0.20217 0.51118 0.0
N338 N 0.93057 0.21358 0.46321 0.0
C339 C 0.97097 0.21777 0.43554 0.0
C340 C 0.95264 0.1993 0.52437 0.0
C341 C 0.94956 0.22054 0.42471 0.0
C342 C 0.97271 0.20745 0.48593 0.0
C343 C 0.91087 0.18197 0.59797 0.0
C344 C 0.91057 0.19343 0.54733 0.0
C345 C 0.9325 0.17989 0.61211 0.0
C346 C 0.95327 0.18842 0.57528 0.0
Eu347 Eu 0.89406 0.21846 0.4499 0.0
N348 N 0.88998 0.19581 0.53262 0.0
C349 C 0.88929 0.1727 0.6326 0.0
C350 C 0.86828 0.18532 0.56441 0.0
C351 C 0.86774 0.17403 0.61534 0.0
H352 H 0.94825 0.22797 0.38535 0.0
H353 H 0.8507 0.16631 0.64112 0.0
H354 H 0.8702 0.28467 0.57863 0.0
H355 H 0.89526 0.33087 0.26525 0.0
H356 H 0.85137 0.18563 0.5503 0.0
H357 H 0.88883 0.16395 0.67204 0.0
H358 H 0.91891 0.32291 0.33944 0.0
H359 H 0.98607 0.22355 0.40495 0.0
H360 H 0.93318 0.17137 0.65108 0.0
H361 H 0.96966 0.18635 0.5864 0.0
H362 H 0.82547 0.27236 0.60126 0.0
H363 H 0.98941 0.2055 0.49438 0.0
H364 H 0.8489 0.31625 0.27704 0.0
N365 N 0.86505 0.28528 0.49157 0.0
C366 C 0.8501 0.28704 0.45151 0.0
C367 C 0.83193 0.27585 0.55872 0.0
C368 C 0.82467 0.2813 0.46294 0.0
C369 C 0.85714 0.28218 0.54544 0.0
C370 C 0.81535 0.27466 0.51699 0.0
N371 N 0.88612 0.30406 0.39181 0.0
C372 C 0.89877 0.31693 0.34497 0.0
C373 C 0.8468 0.30098 0.35918 0.0
C374 C 0.86106 0.29706 0.4004 0.0
C375 C 0.85921 0.3129 0.30971 0.0
C376 C 0.88541 0.32127 0.30294 0.0
H377 H 0.79593 0.27011 0.52749 0.0
H378 H 0.79018 0.27908 0.42885 0.0
H379 H 0.80952 0.29614 0.33781 0.0
O380 O 0.93659 0.33399 0.44394 0.0
O381 O 0.88693 0.27027 0.38566 0.0
O382 O 0.86676 0.2328 0.4313 0.0
O383 O 0.91627 0.32625 0.52031 0.0
O384 O 0.93256 0.28932 0.40262 0.0
O385 O 0.92058 0.24618 0.3829 0.0
O386 O 0.86519 0.17737 0.44429 0.0
O387 O 0.92464 0.24518 0.5105 0.0
O388 O 0.94008 0.28808 0.48554 0.0
O389 O 0.887 0.19839 0.37069 0.0
O390 O 0.86824 0.22938 0.49655 0.0
O391 O 0.89533 0.26772 0.53895 0.0
C392 C 0.8698 0.24565 0.38592 0.0
C393 C 0.93041 0.36721 0.47922 0.0
C394 C 0.94925 0.41431 0.47369 0.0
C395 C 0.9251 0.41035 0.45665 0.0
C396 C 0.90662 0.36408 0.46248 0.0
C397 C 0.90403 0.3855 0.45133 0.0
C398 C 0.95176 0.39246 0.48534 0.0
C399 C 0.93454 0.27144 0.37448 0.0
C400 C 0.93299 0.34411 0.48794 0.0
C401 C 0.80987 0.28376 0.42099 0.0
C402 C 0.82091 0.29358 0.3692 0.0
C403 C 0.94318 0.26927 0.50531 0.0
C404 C 0.85538 0.15272 0.35859 0.0
C405 C 0.8207 0.10792 0.34838 0.0
C406 C 0.82889 0.1081 0.29377 0.0
C407 C 0.86297 0.15237 0.30385 0.0
C408 C 0.83423 0.13036 0.38082 0.0
C409 C 0.84989 0.13014 0.27191 0.0
C410 C 0.87638 0.24354 0.54139 0.0
C411 C 0.86937 0.17651 0.39173 0.0
H412 H 0.9224 0.4266 0.44801 0.0
H413 H 0.89002 0.34502 0.45788 0.0
H414 H 0.88557 0.38283 0.43838 0.0
H415 H 0.97025 0.39505 0.49796 0.0
H416 H 0.81927 0.09104 0.26808 0.0
H417 H 0.87914 0.16926 0.28573 0.0
H418 H 0.82802 0.13056 0.42282 0.0
H419 H 0.85618 0.12992 0.2301 0.0
Eu420 Eu 0.72235 0.60931 0.45797 0.0
C421 C 0.79857 0.73393 0.39358 0.0
N422 N 0.79892 0.7133 0.37139 0.0
C423 C 0.80123 0.73016 0.28031 0.0
C424 C 0.79797 0.75279 0.35982 0.0
C425 C 0.80167 0.71192 0.31566 0.0
C426 C 0.79872 0.75036 0.30243 0.0
C427 C 0.80216 0.7591 0.47493 0.0
C428 C 0.80089 0.73718 0.45009 0.0
C429 C 0.79973 0.77706 0.44195 0.0
C430 C 0.79772 0.77395 0.38441 0.0
Eu431 Eu 0.79658 0.6818 0.43444 0.0
N432 N 0.80345 0.71963 0.48048 0.0
C433 C 0.80649 0.76261 0.5319 0.0
C434 C 0.80949 0.72385 0.53526 0.0
C435 C 0.81064 0.74512 0.56204 0.0
H436 H 0.8035 0.69627 0.29839 0.0
H437 H 0.81463 0.74797 0.60585 0.0
H438 H 0.74022 0.57251 0.52719 0.0
H439 H 0.66895 0.59069 0.26391 0.0
H440 H 0.81255 0.71026 0.55861 0.0
H441 H 0.8074 0.7791 0.55265 0.0
H442 H 0.69161 0.6157 0.34621 0.0
H443 H 0.80265 0.72852 0.23607 0.0
H444 H 0.80024 0.79382 0.46032 0.0
H445 H 0.79683 0.78843 0.35923 0.0
H446 H 0.7362 0.52956 0.51907 0.0
H447 H 0.79834 0.76445 0.27501 0.0
H448 H 0.66318 0.54723 0.24921 0.0
N449 N 0.72089 0.56939 0.45201 0.0
C450 C 0.70715 0.55395 0.40905 0.0
C451 C 0.72818 0.53629 0.48754 0.0
C452 C 0.70414 0.52917 0.40291 0.0
C453 C 0.73078 0.56077 0.49174 0.0
C454 C 0.71492 0.52046 0.44279 0.0
N455 N 0.70042 0.58759 0.37654 0.0
C456 C 0.6902 0.59724 0.33964 0.0
C457 C 0.68343 0.54818 0.32395 0.0
C458 C 0.69684 0.56339 0.37002 0.0
C459 C 0.67357 0.55831 0.28519 0.0
C460 C 0.67689 0.58289 0.2932 0.0
H461 H 0.71297 0.50151 0.43961 0.0
H462 H 0.68811 0.49487 0.35186 0.0
H463 H 0.67007 0.5115 0.28275 0.0
O464 O 0.67989 0.59126 0.46358 0.0
O465 O 0.74678 0.60255 0.39406 0.0
O466 O 0.77035 0.64123 0.4188 0.0
O467 O 0.7024 0.59356 0.53634 0.0
O468 O 0.725 0.64332 0.40887 0.0
O469 O 0.76565 0.66939 0.36773 0.0
O470 O 0.83762 0.70017 0.45493 0.0
O471 O 0.7709 0.67544 0.5083 0.0
O472 O 0.72856 0.6495 0.48003 0.0
O473 O 0.82241 0.6724 0.38933 0.0
O474 O 0.79307 0.65929 0.51293 0.0
O475 O 0.75468 0.61867 0.52276 0.0
C476 C 0.76827 0.62327 0.38548 0.0
C477 C 0.65559 0.57274 0.5498 0.0
C478 C 0.60825 0.54879 0.56143 0.0
C479 C 0.61191 0.54707 0.6183 0.0
C480 C 0.65814 0.57037 0.60682 0.0
C481 C 0.63653 0.55777 0.6406 0.0
C482 C 0.63038 0.5621 0.52706 0.0
C483 C 0.74049 0.66022 0.37138 0.0
C484 C 0.67957 0.58594 0.5157 0.0
C485 C 0.69062 0.51397 0.35724 0.0
C486 C 0.68034 0.52345 0.31787 0.0
C487 C 0.747 0.67036 0.50468 0.0
C488 C 0.86628 0.7043 0.38361 0.0
C489 C 0.91213 0.72052 0.36905 0.0
C490 C 0.91125 0.73356 0.32155 0.0
C491 C 0.86579 0.71753 0.33632 0.0
C492 C 0.88946 0.70589 0.39992 0.0
C493 C 0.88819 0.73206 0.30542 0.0
C494 C 0.77825 0.63696 0.53862 0.0
C495 C 0.8429 0.68849 0.41624 0.0
H496 H 0.59556 0.53755 0.64601 0.0
H497 H 0.67699 0.5783 0.62563 0.0
H498 H 0.63888 0.55622 0.6845 0.0
H499 H 0.62799 0.56364 0.48314 0.0
H500 H 0.92845 0.74519 0.29726 0.0
H501 H 0.84819 0.7166 0.32319 0.0
H502 H 0.88972 0.6954 0.43618 0.0
H503 H 0.88768 0.74222 0.26892 0.0
Eu504 Eu 0.89088 0.67688 0.95228 0.0
C505 C 0.84697 0.55105 0.93858 0.0
N506 N 0.85663 0.5696 0.97869 0.0
C507 C 0.82161 0.54219 0.03885 0.0
C508 C 0.82356 0.52778 0.94669 0.0
C509 C 0.84496 0.56483 0.02933 0.0
C510 C 0.81069 0.52374 0.99718 0.0
C511 C 0.85091 0.53632 0.84701 0.0
C512 C 0.86063 0.55502 0.88924 0.0
C513 C 0.82749 0.51334 0.85505 0.0
C514 C 0.81388 0.50909 0.90468 0.0
Eu515 Eu 0.897 0.60619 0.95714 0.0
N516 N 0.88286 0.57782 0.88148 0.0
C517 C 0.86492 0.54138 0.79765 0.0
C518 C 0.89686 0.58277 0.83394 0.0
C519 C 0.88801 0.56467 0.79117 0.0
H520 H 0.85376 0.57777 0.06357 0.0
H521 H 0.89899 0.56866 0.75328 0.0
H522 H 0.92015 0.71538 0.84365 0.0
H523 H 0.89383 0.70552 0.16748 0.0
H524 H 0.91479 0.60075 0.82919 0.0
H525 H 0.85807 0.52745 0.76429 0.0
H526 H 0.87509 0.67804 0.08472 0.0
H527 H 0.81231 0.53875 0.07882 0.0
H528 H 0.81971 0.49872 0.82307 0.0
H529 H 0.79591 0.49117 0.9103 0.0
H530 H 0.95907 0.75764 0.82498 0.0
H531 H 0.79268 0.50612 0.00496 0.0
H532 H 0.93496 0.74683 0.15958 0.0
N533 N 0.92563 0.71808 0.93036 0.0
C534 C 0.938 0.73378 0.97371 0.0
C535 C 0.95367 0.75098 0.86705 0.0
C536 C 0.95983 0.75832 0.96545 0.0
C537 C 0.93202 0.7269 0.87757 0.0
C538 C 0.96803 0.76654 0.91125 0.0
N539 N 0.9057 0.70299 0.03195 0.0
C540 C 0.89309 0.69586 0.08137 0.0
C541 C 0.93893 0.74258 0.07177 0.0
C542 C 0.92759 0.72611 0.02608 0.0
C543 C 0.92684 0.73477 0.1234 0.0
C544 C 0.90362 0.71146 0.12803 0.0
H545 H 0.98468 0.78528 0.90308 0.0
H546 H 0.98908 0.793 0.00579 0.0
H547 H 0.97086 0.77912 0.09901 0.0
O548 O 0.85774 0.68172 0.9714 0.0
O549 O 0.91401 0.67092 0.01856 0.0
O550 O 0.93033 0.64621 0.98053 0.0
O551 O 0.87074 0.68456 0.88702 0.0
O552 O 0.86145 0.6392 0.99313 0.0
O553 O 0.88224 0.61929 0.03237 0.0
O554 O 0.92469 0.59317 0.93981 0.0
O555 O 0.86896 0.60254 0.88829 0.0
O556 O 0.88071 0.63899 0.92283 0.0
O557 O 0.90668 0.58582 0.01951 0.0
O558 O 0.92359 0.6389 0.89793 0.0
O559 O 0.91734 0.67498 0.88541 0.0
C560 C 0.93322 0.66691 0.00701 0.0
C561 C 0.85271 0.7104 0.91242 0.0
C562 C 0.82704 0.73173 0.92068 0.0
C563 C 0.8468 0.75333 0.89315 0.0
C564 C 0.87225 0.7324 0.88602 0.0
C565 C 0.86925 0.75367 0.87647 0.0
C566 C 0.83023 0.71022 0.93011 0.0
C567 C 0.866 0.62835 0.03574 0.0
C568 C 0.85531 0.68739 0.92065 0.0
C569 C 0.97205 0.77424 0.01121 0.0
C570 C 0.96162 0.76637 0.06428 0.0
C571 C 0.86712 0.6229 0.88433 0.0
C572 C 0.94745 0.58786 0.01377 0.0
C573 C 0.97996 0.57462 0.02884 0.0
C574 C 0.99308 0.59602 0.06429 0.0
C575 C 0.96141 0.60921 0.04823 0.0
C576 C 0.95684 0.57066 0.00384 0.0
C577 C 0.984 0.61315 0.07343 0.0
C578 C 0.92864 0.66106 0.87393 0.0
C579 C 0.92304 0.58328 0.9883 0.0
H580 H 0.84483 0.76992 0.88355 0.0
H581 H 0.88973 0.73311 0.87207 0.0
H582 H 0.88429 0.77042 0.85546 0.0
H583 H 0.81539 0.69338 0.95134 0.0
H584 H 1.01032 0.59948 0.08589 0.0
H585 H 0.95471 0.62273 0.05602 0.0
H586 H 0.94623 0.55444 0.97633 0.0
H587 H 0.99447 0.6295 0.10062 0.0
Eu588 Eu 0.34008 0.22367 0.97181 0.0
C589 C 0.4579 0.29689 0.91863 0.0
N590 N 0.44416 0.29069 0.96658 0.0
C591 C 0.47572 0.28352 0.01112 0.0
C592 C 0.48084 0.29582 0.91486 0.0
C593 C 0.45309 0.28483 0.01298 0.0
C594 C 0.48955 0.28882 0.96177 0.0
C595 C 0.46279 0.31067 0.82277 0.0
C596 C 0.44897 0.3043 0.87299 0.0
C597 C 0.48547 0.3093 0.81884 0.0
C598 C 0.49447 0.30193 0.86472 0.0
Eu599 Eu 0.40696 0.29467 0.96535 0.0
N600 N 0.42679 0.30522 0.87763 0.0
C601 C 0.4535 0.31838 0.77798 0.0
C602 C 0.41799 0.31334 0.83453 0.0
C603 C 0.4311 0.31989 0.78403 0.0
H604 H 0.4433 0.28181 0.052 0.0
H605 H 0.42398 0.32619 0.74987 0.0
H606 H 0.29784 0.21818 0.87296 0.0
H607 H 0.32162 0.20527 0.19245 0.0
H608 H 0.40115 0.31529 0.83901 0.0
H609 H 0.46358 0.32343 0.73874 0.0
H610 H 0.34376 0.20922 0.10355 0.0
H611 H 0.48264 0.27871 0.04796 0.0
H612 H 0.49628 0.31406 0.78054 0.0
H613 H 0.5121 0.30114 0.86108 0.0
H614 H 0.25833 0.22121 0.86549 0.0
H615 H 0.50713 0.28785 0.96055 0.0
H616 H 0.28304 0.21035 0.19498 0.0
N617 N 0.30031 0.2226 0.96012 0.0
C618 C 0.28757 0.22191 0.00718 0.0
C619 C 0.26658 0.2219 0.90562 0.0
C620 C 0.26434 0.2225 0.00521 0.0
C621 C 0.28932 0.22086 0.90983 0.0
C622 C 0.25432 0.22331 0.95355 0.0
N623 N 0.31923 0.21823 0.05772 0.0
C624 C 0.3274 0.21207 0.10481 0.0
C625 C 0.28348 0.2167 0.10677 0.0
C626 C 0.29703 0.21914 0.05736 0.0
C627 C 0.29286 0.2123 0.1561 0.0
C628 C 0.31468 0.20952 0.15492 0.0
H629 H 0.23657 0.22388 0.95025 0.0
H630 H 0.2338 0.22226 0.05391 0.0
H631 H 0.25049 0.21702 0.14285 0.0
O632 O 0.34337 0.18938 0.98695 0.0
O633 O 0.34979 0.25494 0.0358 0.0
O634 O 0.36944 0.29276 0.9882 0.0
O635 O 0.30931 0.18537 0.94789 0.0
O636 O 0.37877 0.23141 0.00478 0.0
O637 O 0.39892 0.27132 0.04472 0.0
O638 O 0.42545 0.33615 0.94865 0.0
O639 O 0.40532 0.26011 0.91908 0.0
O640 O 0.36279 0.23314 0.89234 0.0
O641 O 0.42728 0.32317 0.03053 0.0
O642 O 0.37329 0.2908 0.91514 0.0
O643 O 0.34287 0.24773 0.89545 0.0
C644 C 0.3517 0.27702 0.02272 0.0
C645 C 0.32193 0.15512 0.92381 0.0
C646 C 0.31714 0.11289 0.90523 0.0
C647 C 0.32404 0.12009 0.84988 0.0
C648 C 0.32823 0.16181 0.86809 0.0
C649 C 0.32931 0.14435 0.8314 0.0
C650 C 0.31607 0.1305 0.94212 0.0
C651 C 0.39067 0.24638 0.04707 0.0
C652 C 0.32159 0.17365 0.96324 0.0
C653 C 0.25146 0.22144 0.05458 0.0
C654 C 0.26094 0.21842 0.10523 0.0
C655 C 0.38772 0.24253 0.88603 0.0
C656 C 0.46126 0.36472 1.00307 0.0
C657 C 0.49254 0.41137 0.00516 0.0
C658 C 0.51227 0.40535 0.01275 0.0
C659 C 0.48151 0.35961 0.00963 0.0
C660 C 0.46682 0.39068 1.00074 0.0
C661 C 0.50678 0.3798 0.01465 0.0
C662 C 0.35348 0.27292 0.88699 0.0
C663 C 0.43439 0.34312 0.99836 0.0
H664 H 0.32496 0.10679 0.82082 0.0
H665 H 0.33253 0.1806 0.85315 0.0
H666 H 0.33435 0.14966 0.78854 0.0
H667 H 0.31101 0.12517 0.98505 0.0
H668 H 0.53211 0.42045 0.01787 0.0
H669 H 0.4778 0.33999 0.01126 0.0
H670 H 0.45122 0.39466 0.99477 0.0
H671 H 0.52225 0.37562 0.02028 0.0
Eu672 Eu 0.80056 0.1338 0.94035 0.0
C673 C 0.72764 0.17475 0.94072 0.0
N674 N 0.73275 0.16218 0.98134 0.0
C675 C 0.74293 0.19727 0.04376 0.0
C676 C 0.73155 0.19981 0.9495 0.0
C677 C 0.73806 0.17225 0.0336 0.0
C678 C 0.74025 0.21136 1.00116 0.0
C679 C 0.70881 0.17353 0.85098 0.0
C680 C 0.71616 0.16174 0.89199 0.0
C681 C 0.71389 0.19887 0.85869 0.0
C682 C 0.72526 0.21199 0.90777 0.0
Eu683 Eu 0.72357 0.11967 0.95873 0.0
N684 N 0.71112 0.13711 0.88562 0.0
C685 C 0.69585 0.1592 0.80408 0.0
C686 C 0.6974 0.12262 0.84122 0.0
C687 C 0.68992 0.13356 0.79944 0.0
H688 H 0.73765 0.16092 0.06849 0.0
H689 H 0.67949 0.1222 0.76385 0.0
H690 H 0.80689 0.10616 0.82399 0.0
H691 H 0.83805 0.13551 0.14619 0.0
H692 H 0.69281 0.10277 0.83773 0.0
H693 H 0.68983 0.16758 0.77183 0.0
H694 H 0.82185 0.15083 0.07016 0.0
H695 H 0.74789 0.20531 0.08495 0.0
H696 H 0.70845 0.20826 0.82759 0.0
H697 H 0.72825 0.23123 0.91387 0.0
H698 H 0.81839 0.07322 0.79825 0.0
H699 H 0.74343 0.23053 0.00952 0.0
H700 H 0.84555 0.09885 0.13061 0.0
N701 N 0.81099 0.10257 0.91032 0.0
C702 C 0.81964 0.0928 0.9502 0.0
C703 C 0.81846 0.07827 0.84123 0.0
C704 C 0.82638 0.07392 0.93735 0.0
C705 C 0.81178 0.09678 0.85603 0.0
C706 C 0.82517 0.06632 0.88221 0.0
N707 N 0.81858 0.1224 0.01377 0.0
C708 C 0.82444 0.13457 0.06361 0.0
C709 C 0.83338 0.09386 0.04506 0.0
C710 C 0.82355 0.10298 1.00331 0.0
C711 C 0.83812 0.10537 0.09738 0.0
C712 C 0.8339 0.12603 0.10643 0.0
H713 H 0.83033 0.05198 0.87063 0.0
H714 H 0.84004 0.04927 0.97036 0.0
H715 H 0.8458 0.06646 0.06482 0.0
O716 O 0.84042 0.16519 0.95132 0.0
O717 O 0.77622 0.10474 0.00628 0.0
O718 O 0.73232 0.08867 0.98747 0.0
O719 O 0.82389 0.15447 0.86924 0.0
O720 O 0.7901 0.15854 0.99266 0.0
O721 O 0.75093 0.13286 0.03444 0.0
O722 O 0.68335 0.09012 0.94289 0.0
O723 O 0.74494 0.13739 0.87808 0.0
O724 O 0.78063 0.15623 0.92656 0.0
O725 O 0.69249 0.11216 0.01724 0.0
O726 O 0.72799 0.09134 0.90423 0.0
O727 O 0.77123 0.10538 0.87835 0.0
C728 C 0.75181 0.08624 0.00589 0.0
C729 C 0.8694 0.17371 0.87605 0.0
C730 C 0.91627 0.20153 0.8701 0.0
C731 C 0.91669 0.18567 0.82753 0.0
C732 C 0.87047 0.15821 0.83368 0.0
C733 C 0.894 0.16412 0.80989 0.0
C734 C 0.89238 0.19525 0.89431 0.0
C735 C 0.77571 0.15069 0.03732 0.0
C736 C 0.84447 0.16911 0.89829 0.0
C737 C 0.83515 0.06404 0.97936 0.0
C738 C 0.83852 0.07391 0.03312 0.0
C739 C 0.76943 0.15397 0.87966 0.0
C740 C 0.6544 0.07095 0.01757 0.0
C741 C 0.60871 0.03969 0.03614 0.0
C742 C 0.61678 0.02731 0.07401 0.0
C743 C 0.66169 0.05791 0.05489 0.0
C744 C 0.62788 0.0618 0.00819 0.0
C745 C 0.64295 0.0363 0.08306 0.0
C746 C 0.74591 0.08957 0.87547 0.0
C747 C 0.67423 0.09402 0.98808 0.0
H748 H 0.9345 0.19016 0.80684 0.0
H749 H 0.85315 0.14185 0.81791 0.0
H750 H 0.8946 0.15221 0.77688 0.0
H751 H 0.89154 0.20718 0.92705 0.0
H752 H 0.60283 0.01072 0.09732 0.0
H753 H 0.68188 0.06451 0.06238 0.0
H754 H 0.62228 0.07168 0.97867 0.0
H755 H 0.64873 0.02646 0.11225 0.0
Eu756 Eu 0.68539 0.89738 0.54403 0.0
C757 C 0.56846 0.85457 0.59561 0.0
N758 N 0.58197 0.86077 0.54734 0.0
C759 C 0.5501 0.82099 0.50678 0.0
C760 C 0.54541 0.8308 0.60156 0.0
C761 C 0.57284 0.84476 0.50271 0.0
C762 C 0.5364 0.81389 0.55648 0.0
C763 C 0.56422 0.86601 0.68989 0.0
C764 C 0.5778 0.87204 0.63939 0.0
C765 C 0.54137 0.84226 0.69597 0.0
C766 C 0.53199 0.82473 0.65196 0.0
Eu767 Eu 0.61906 0.90195 0.54417 0.0
N768 N 0.6002 0.89479 0.63274 0.0
C769 C 0.57399 0.88408 0.73283 0.0
C770 C 0.60948 0.91272 0.67399 0.0
C771 C 0.59663 0.90758 0.72472 0.0
H772 H 0.58265 0.85038 0.46348 0.0
H773 H 0.60412 0.9218 0.75743 0.0
H774 H 0.72416 0.93289 0.64948 0.0
H775 H 0.71204 0.89946 0.32771 0.0
H776 H 0.62645 0.93127 0.66776 0.0
H777 H 0.5641 0.88016 0.77223 0.0
H778 H 0.68629 0.88056 0.4127 0.0
H779 H 0.54299 0.80826 0.47137 0.0
H780 H 0.53073 0.83729 0.73452 0.0
H781 H 0.51426 0.80653 0.65727 0.0
H782 H 0.76352 0.97507 0.66235 0.0
H783 H 0.51874 0.79548 0.55939 0.0
H784 H 0.75072 0.943 0.33085 0.0
N785 N 0.72481 0.93573 0.5618 0.0
C786 C 0.73913 0.9483 0.51673 0.0
C787 C 0.75667 0.96799 0.62111 0.0
C788 C 0.7623 0.97202 0.52209 0.0
C789 C 0.73408 0.94433 0.61366 0.0
C790 C 0.77056 0.98219 0.57505 0.0
N791 N 0.70938 0.91352 0.46176 0.0
C792 C 0.70296 0.89961 0.41389 0.0
C793 C 0.74692 0.94812 0.41831 0.0
C794 C 0.7315 0.9366 0.4654 0.0
C795 C 0.73944 0.93478 0.36801 0.0
C796 C 0.71759 0.91022 0.36602 0.0
H797 H 0.7882 1.0004 0.58092 0.0
H798 H 0.79455 1.00276 0.47801 0.0
H799 H 0.78115 0.98174 0.38716 0.0
O800 O 0.68015 0.85866 0.53439 0.0
O801 O 0.67695 0.91763 0.47497 0.0
O802 O 0.65656 0.93675 0.51626 0.0
O803 O 0.71572 0.8892 0.56753 0.0
O804 O 0.64707 0.86663 0.50831 0.0
O805 O 0.62706 0.88584 0.46573 0.0
O806 O 0.60364 0.92777 0.55743 0.0
O807 O 0.62046 0.8698 0.59472 0.0
O808 O 0.66272 0.88599 0.62338 0.0
O809 O 0.5949 0.90627 0.48158 0.0
O810 O 0.65327 0.93366 0.5893 0.0
O811 O 0.68096 0.91908 0.61791 0.0
C812 C 0.67457 0.93789 0.48357 0.0
C813 C 0.7028 0.84689 0.59657 0.0
C814 C 0.70837 0.81001 0.61713 0.0
C815 C 0.70478 0.81303 0.6736 0.0
C816 C 0.69942 0.84965 0.653 0.0
C817 C 0.70028 0.83267 0.69124 0.0
C818 C 0.70719 0.82707 0.5788 0.0
C819 C 0.63588 0.86958 0.46452 0.0
C820 C 0.70239 0.86479 0.55571 0.0
C821 C 0.77692 0.98433 0.47479 0.0
C822 C 0.76933 0.97234 0.42306 0.0
C823 C 0.63787 0.87003 0.6287 0.0
C824 C 0.56474 0.91848 0.51458 0.0
C825 C 0.53587 0.93661 0.51895 0.0
C826 C 0.51519 0.91168 0.5295 0.0
C827 C 0.54368 0.8939 0.52489 0.0
C828 C 0.56074 0.93984 0.51115 0.0
C829 C 0.51909 0.89057 0.53217 0.0
C830 C 0.67196 0.93526 0.62074 0.0
C831 C 0.59112 0.92237 0.51112 0.0
H832 H 0.70591 0.80052 0.70436 0.0
H833 H 0.69607 0.86489 0.66739 0.0
H834 H 0.69761 0.83484 0.73478 0.0
H835 H 0.70957 0.82493 0.53504 0.0
H836 H 0.49585 0.90845 0.53512 0.0
H837 H 0.54624 0.8773 0.52773 0.0
H838 H 0.577 0.95895 0.50385 0.0
H839 H 0.50295 0.87151 0.54021 0.0
Eu840 Eu 0.12384 0.79245 0.54889 0.0
C841 C 0.16772 0.71922 0.58826 0.0
N842 N 0.16032 0.72623 0.54129 0.0
C843 C 0.19927 0.7344 0.49589 0.0
C844 C 0.19175 0.72029 0.59106 0.0
C845 C 0.17529 0.733 0.49492 0.0
C846 C 0.20764 0.72821 0.54425 0.0
C847 C 0.15848 0.70359 0.68292 0.0
C848 C 0.1512 0.71091 0.63383 0.0
C849 C 0.18252 0.70491 0.68586 0.0
C850 C 0.19908 0.71322 0.6401 0.0
Eu851 Eu 0.11888 0.72155 0.54373 0.0
N852 N 0.12814 0.71011 0.63027 0.0
C853 C 0.1413 0.69499 0.7276 0.0
C854 C 0.1111 0.70128 0.67329 0.0
C855 C 0.11745 0.69367 0.72261 0.0
H856 H 0.16868 0.73675 0.45657 0.0
H857 H 0.10393 0.68677 0.75672 0.0
H858 H 0.09603 0.80232 0.65982 0.0
H859 H 0.11925 0.82091 0.3371 0.0
H860 H 0.09239 0.69958 0.66959 0.0
H861 H 0.14618 0.68916 0.76597 0.0
H862 H 0.13847 0.81073 0.41686 0.0
H863 H 0.21116 0.73994 0.45911 0.0
H864 H 0.18843 0.69942 0.72329 0.0
H865 H 0.2175 0.71397 0.64297 0.0
H866 H 0.05677 0.80466 0.68138 0.0
H867 H 0.22621 0.72922 0.54474 0.0
H868 H 0.07702 0.81848 0.34692 0.0
N869 N 0.08885 0.7981 0.57357 0.0
C870 C 0.07533 0.8003 0.53112 0.0
C871 C 0.0615 0.80301 0.63894 0.0
C872 C 0.05336 0.80262 0.54111 0.0
C873 C 0.08341 0.80125 0.62679 0.0
C874 C 0.04604 0.80307 0.5959 0.0
N875 N 0.10705 0.80209 0.47021 0.0
C876 C 0.11996 0.8095 0.42111 0.0
C877 C 0.07322 0.80834 0.43365 0.0
C878 C 0.08501 0.80292 0.47795 0.0
C879 C 0.08535 0.81403 0.38194 0.0
C880 C 0.10915 0.81525 0.37607 0.0
H881 H 0.02928 0.8048 0.60534 0.0
H882 H 0.02316 0.80723 0.5032 0.0
H883 H 0.04066 0.8124 0.40904 0.0
O884 O 0.16431 0.82315 0.54784 0.0
O885 O 0.10273 0.76471 0.47902 0.0
O886 O 0.08417 0.72456 0.5177 0.0
O887 O 0.13462 0.83229 0.56655 0.0
O888 O 0.15356 0.78451 0.50848 0.0
O889 O 0.13364 0.74562 0.46484 0.0
O890 O 0.09436 0.68008 0.55841 0.0
O891 O 0.15082 0.75521 0.59449 0.0
O892 O 0.13296 0.77903 0.62779 0.0
O893 O 0.1129 0.69317 0.47945 0.0
O894 O 0.08739 0.72299 0.59295 0.0
O895 O 0.09905 0.76517 0.61878 0.0
C896 C 0.08273 0.74185 0.48715 0.0
C897 C 0.17515 0.85874 0.60644 0.0
C898 C 0.21019 0.90132 0.63276 0.0
C899 C 0.20434 0.89431 0.68872 0.0
C900 C 0.16952 0.85216 0.66231 0.0
C901 C 0.18426 0.86985 0.70322 0.0
C902 C 0.19554 0.88311 0.59186 0.0
C903 C 0.1498 0.7707 0.46367 0.0
C904 C 0.15922 0.84102 0.56266 0.0
C905 C 0.04031 0.80583 0.49642 0.0
C906 C 0.0503 0.80883 0.4428 0.0
C907 C 0.14931 0.7706 0.63184 0.0
C908 C 0.1032 0.65118 0.50941 0.0
C909 C 0.08701 0.60432 0.50934 0.0
C910 C 0.1128 0.60982 0.50852 0.0
C911 C 0.12852 0.65575 0.5095 0.0
C912 C 0.08241 0.6254 0.50947 0.0
C913 C 0.13323 0.6352 0.50891 0.0
C914 C 0.08415 0.73973 0.62251 0.0
C915 C 0.09834 0.67315 0.51022 0.0
H916 H 0.2149 0.90786 0.72141 0.0
H917 H 0.15373 0.83342 0.67416 0.0
H918 H 0.17989 0.8647 0.74634 0.0
H919 H 0.19985 0.88783 0.54849 0.0
H920 H 0.11736 0.59446 0.50674 0.0
H921 H 0.14471 0.67523 0.50971 0.0
H922 H 0.06282 0.62186 0.51032 0.0
H923 H 0.15288 0.63896 0.50845 0.0
Eu924 Eu 0.23186 0.33575 0.53532 0.0
C925 C 0.2975 0.44826 0.61624 0.0
N926 N 0.292 0.43782 0.56469 0.0
C927 C 0.27943 0.46825 0.53629 0.0
C928 C 0.29309 0.46858 0.63038 0.0
C929 C 0.28392 0.44798 0.52429 0.0
C930 C 0.28379 0.47844 0.58969 0.0
C931 C 0.3122 0.4481 0.70949 0.0
C932 C 0.30697 0.43809 0.65531 0.0
C933 C 0.30749 0.46811 0.72392 0.0
C934 C 0.298 0.47835 0.68446 0.0
Eu935 Eu 0.30026 0.40383 0.5482 0.0
N936 N 0.3112 0.41858 0.64031 0.0
C937 C 0.32225 0.43786 0.74751 0.0
C938 C 0.32211 0.40938 0.67653 0.0
C939 C 0.32746 0.4186 0.73077 0.0
H940 H 0.28114 0.4407 0.48262 0.0
H941 H 0.33585 0.41102 0.75947 0.0
H942 H 0.22768 0.292 0.62851 0.0
H943 H 0.21323 0.32246 0.31417 0.0
H944 H 0.32727 0.39533 0.66372 0.0
H945 H 0.32651 0.44502 0.78953 0.0
H946 H 0.21758 0.34266 0.4056 0.0
H947 H 0.27272 0.47608 0.5043 0.0
H948 H 0.3113 0.47595 0.76542 0.0
H949 H 0.2946 0.49388 0.69617 0.0
H950 H 0.23051 0.25224 0.63021 0.0
H951 H 0.2802 0.49409 0.5989 0.0
H952 H 0.21794 0.28376 0.30572 0.0
N953 N 0.23117 0.29597 0.54136 0.0
C954 C 0.23025 0.28423 0.49271 0.0
C955 C 0.23089 0.26125 0.59121 0.0
C956 C 0.23065 0.26087 0.49142 0.0
C957 C 0.22994 0.28412 0.59026 0.0
C958 C 0.23174 0.24981 0.54152 0.0
N959 N 0.22657 0.31704 0.44708 0.0
C960 C 0.22038 0.32632 0.40178 0.0
C961 C 0.22464 0.28228 0.39323 0.0
C962 C 0.22742 0.29483 0.44421 0.0
C963 C 0.22015 0.29278 0.34571 0.0
C964 C 0.21758 0.31467 0.35021 0.0
H965 H 0.23219 0.23194 0.54231 0.0
H966 H 0.22969 0.23113 0.43863 0.0
H967 H 0.2243 0.24981 0.35264 0.0
O968 O 0.19757 0.33954 0.52644 0.0
O969 O 0.26356 0.34852 0.47099 0.0
O970 O 0.30125 0.36834 0.51867 0.0
O971 O 0.19374 0.3039 0.55664 0.0
O972 O 0.23678 0.37388 0.50591 0.0
O973 O 0.27712 0.39754 0.4688 0.0
O974 O 0.34281 0.42832 0.55928 0.0
O975 O 0.26325 0.39834 0.591 0.0
O976 O 0.24143 0.3558 0.61778 0.0
O977 O 0.32461 0.42687 0.48035 0.0
O978 O 0.29923 0.36933 0.59087 0.0
O979 O 0.25647 0.33787 0.60995 0.0
C980 C 0.28595 0.35092 0.48291 0.0
C981 C 0.16401 0.31569 0.58962 0.0
C982 C 0.1214 0.30876 0.61417 0.0
C983 C 0.1287 0.31204 0.67023 0.0
C984 C 0.17096 0.31916 0.64555 0.0
C985 C 0.15336 0.31739 0.6856 0.0
C986 C 0.13944 0.31082 0.57406 0.0
C987 C 0.252 0.38804 0.46578 0.0
C988 C 0.18205 0.31687 0.54698 0.0
C989 C 0.22912 0.24892 0.44047 0.0
C990 C 0.22601 0.25954 0.3915 0.0
C991 C 0.24851 0.3801 0.62652 0.0
C992 C 0.37111 0.45543 0.48284 0.0
C993 C 0.41863 0.48038 0.47892 0.0
C994 C 0.41684 0.4926 0.43098 0.0
C995 C 0.37039 0.46816 0.43471 0.0
C996 C 0.39552 0.46148 0.50491 0.0
C997 C 0.39301 0.48648 0.40913 0.0
C998 C 0.28169 0.34877 0.61806 0.0
C999 C 0.34599 0.43641 0.50843 0.0
H1000 H 0.11527 0.3101 0.70246 0.0
H1001 H 0.18988 0.32298 0.65818 0.0
H1002 H 0.15874 0.31991 0.72878 0.0
H1003 H 0.13455 0.30881 0.53057 0.0
H1004 H 0.43409 0.5069 0.40994 0.0
H1005 H 0.3522 0.46413 0.41677 0.0
H1006 H 0.39653 0.45189 0.54195 0.0
H1007 H 0.39205 0.49609 0.37212 0.0
H1008 H 0.07507 0.50171 0.96667 0.0
H1009 H 1.00562 0.44293 0.04421 0.0
H1010 H 0.05831 0.53147 0.97024 0.0
H1011 H 0.98921 0.4727 0.05046 0.0
H1012 H 0.95348 0.52166 0.01196 0.0
H1013 H 0.97099 0.49285 1.00293 0.0
H1014 H 0.0481 0.55783 0.01963 0.0
H1015 H 0.03077 0.58663 0.02378 0.0
C1016 C 0.05645 0.49535 0.98562 0.0
C1017 C 0.04169 0.4699 0.00493 0.0
C1018 C 0.04671 0.51242 0.98775 0.0
C1019 C 0.02204 0.50467 0.01008 0.0
C1020 C 1.00785 0.47943 0.03137 0.0
C1021 C 0.01742 0.46234 0.02846 0.0
C1022 C 0.9742 0.52992 0.01264 0.0
C1023 C 0.99052 0.55668 0.01951 0.0
C1024 C 0.98434 0.51324 0.00844 0.0
C1025 C 1.01116 0.52266 0.0115 0.0
C1026 C 0.02743 0.54951 0.01674 0.0
C1027 C 0.01734 0.56616 0.02013 0.0
H1028 H 0.53462 0.45149 0.95525 0.0
H1029 H 0.46619 0.43481 0.04745 0.0
H1030 H 0.54844 0.49711 0.95673 0.0
H1031 H 0.47998 0.48088 0.04802 0.0
H1032 H 0.50234 0.56242 0.97372 0.0
H1033 H 0.48686 0.51655 0.98778 0.0
H1034 H 0.5649 0.53394 0.01874 0.0
H1035 H 0.58027 0.57991 0.00399 0.0
C1036 C 0.52255 0.45751 0.97639 0.0
C1037 C 0.49943 0.43922 1.00213 0.0
C1038 C 0.53059 0.48385 0.97733 0.0
C1039 C 0.5157 0.49296 0.00354 0.0
C1040 C 0.49206 0.47467 0.02761 0.0
C1041 C 0.48405 0.44816 0.02701 0.0
C1042 C 0.51605 0.55646 0.98529 0.0
C1043 C 0.5425 0.57479 0.98817 0.0
C1044 C 0.50719 0.53012 0.99319 0.0
C1045 C 0.52461 0.52131 0.00356 0.0
C1046 C 0.55094 0.5399 0.00983 0.0
C1047 C 0.55977 0.56632 1.00231 0.0
H1048 H 0.5825 0.06638 0.0209 0.0
H1049 H 0.5703 0.98904 0.02965 0.0
H1050 H 0.53606 0.04883 0.01161 0.0
H1051 H 0.52417 0.97155 0.02014 0.0
H1052 H 0.43981 0.94403 0.04291 0.0
H1053 H 0.48591 0.96496 0.06442 0.0
H1054 H 0.50062 0.02682 0.95183 0.0
H1055 H 0.45476 1.00639 0.93234 0.0
C1056 C 0.57 0.04564 0.02039 0.0
C1057 C 0.58037 0.02923 0.0267 0.0
C1058 C 0.54324 0.0355 0.01521 0.0
C1059 C 0.52599 0.00862 0.01594 0.0
C1060 C 0.53651 0.9923 0.02106 0.0
C1061 C 0.56316 1.0024 0.02628 0.0
C1062 C 0.45284 0.96247 0.02415 0.0
C1063 C 0.44356 0.97343 0.98571 0.0
C1064 C 0.4794 0.97433 0.03568 0.0
C1065 C 0.49736 0.99749 0.00913 0.0
C1066 C 0.48768 0.00916 0.97343 0.0
C1067 C 0.46126 0.99735 0.96203 0.0
H1068 H 0.53218 0.07912 0.45295 0.0
H1069 H 0.46149 0.03047 0.54149 0.0
H1070 H 0.54397 0.04605 0.45929 0.0
H1071 H 0.47222 0.99624 0.54354 0.0
H1072 H 0.50883 0.94874 0.59239 0.0
H1073 H 0.49762 0.98249 0.58575 0.0
H1074 H 0.53917 1.00749 0.43102 0.0
H1075 H 0.55135 0.97436 0.43964 0.0
C1076 C 0.51899 0.06131 0.4737 0.0
C1077 C 0.49606 0.05797 0.4978 0.0
C1078 C 0.52562 0.04195 0.47648 0.0
C1079 C 0.50931 0.0182 0.50246 0.0
C1080 C 0.48577 0.01438 0.52441 0.0
C1081 C 0.47931 0.03397 0.52237 0.0
C1082 C 0.51569 0.96159 0.55712 0.0
C1083 C 0.53095 0.95877 0.51648 0.0
C1084 C 0.50901 0.98088 0.5529 0.0
C1085 C 0.51705 0.99784 0.5074 0.0
C1086 C 0.53275 0.99523 0.46717 0.0
C1087 C 0.53978 0.97614 0.47193 0.0
H1088 H 0.03958 0.58255 0.45704 0.0
H1089 H 0.08538 0.56274 0.56169 0.0
H1090 H 1.00684 0.53707 0.45093 0.0
H1091 H 0.05386 0.51742 0.55219 0.0
H1092 H 0.98258 0.43688 0.56092 0.0
H1093 H 0.01428 0.48252 0.57338 0.0
H1094 H 0.99748 0.49853 0.40931 0.0
H1095 H 0.96523 0.45326 0.39838 0.0
C1096 C 0.04273 0.5686 0.47892 0.0
C1097 C 0.06554 0.57661 0.50913 0.0
C1098 C 0.02405 0.54228 0.47465 0.0
C1099 C 0.02764 0.52307 0.50014 0.0
C1100 C 0.05004 0.53127 0.53197 0.0
C1101 C 0.06849 0.5575 0.53674 0.0
C1102 C 0.98593 0.45017 0.5274 0.0
C1103 C 0.97123 0.4414 0.47883 0.0
C1104 C 1.00416 0.47648 0.53442 0.0
C1105 C 1.00848 0.49474 0.4927 0.0
C1106 C 0.99437 0.48555 0.44328 0.0
C1107 C 0.97599 0.45941 0.43664 0.0
H1108 H 0.44117 0.45042 0.49408 0.0
H1109 H 0.45646 0.52862 0.5066 0.0
H1110 H 0.48712 0.46557 0.50756 0.0
H1111 H 0.50204 0.54384 0.52156 0.0
H1112 H 0.58599 0.56943 0.49377 0.0
H1113 H 0.53998 0.55166 0.47509 0.0
H1114 H 0.52277 0.48307 0.56715 0.0
H1115 H 0.56853 0.5004 0.58355 0.0
C1116 C 0.45424 0.47075 0.50135 0.0
C1117 C 0.44511 0.48827 0.49955 0.0
C1118 C 0.48071 0.47957 0.50871 0.0
C1119 C 0.49873 0.50615 0.51466 0.0
C1120 C 0.48917 0.52339 0.51549 0.0
C1121 C 0.46287 0.51461 0.50788 0.0
C1122 C 0.5724 0.55031 0.50875 0.0
C1123 C 0.58104 0.5365 0.54057 0.0
C1124 C 0.54588 0.54021 0.49892 0.0
C1125 C 0.52725 0.51599 0.52054 0.0
C1126 C 0.5362 0.50167 0.5496 0.0
C1127 C 0.56259 0.51172 0.5593 0.0
H1128 H 0.94819 0.24439 0.30147 0.0
H1129 H 0.96746 0.32183 0.34864 0.0
H1130 H 0.98517 0.26254 0.23831 0.0
H1131 H 1.00303 0.33937 0.28426 0.0
H1132 H 0.04549 0.35967 0.11924 0.0
H1133 H 1.00763 0.33853 0.17825 0.0
H1134 H 0.0369 0.29271 0.25191 0.0
H1135 H 0.0755 0.31459 0.19426 0.0
C1136 C 0.96026 0.26512 0.299 0.0
C1137 C 0.95512 0.28149 0.33171 0.0
C1138 C 0.9813 0.27546 0.26254 0.0
C1139 C 0.99693 0.30231 0.25686 0.0
C1140 C 0.99123 0.3186 0.28783 0.0
C1141 C 0.97073 0.30838 0.32488 0.0
C1142 C 0.04394 0.34502 0.14772 0.0
C1143 C 0.06329 0.33829 0.15069 0.0
C1144 C 0.02219 0.3329 0.18141 0.0
C1145 C 0.01922 0.31374 0.21884 0.0
C1146 C 0.03849 0.30698 0.22227 0.0
C1147 C 0.06049 0.31939 0.18895 0.0
H1148 H 0.63873 0.70492 0.21419 0.0
H1149 H 0.71213 0.75304 0.1357 0.0
H1150 H 0.65741 0.68441 0.26867 0.0
H1151 H 0.73195 0.73503 0.19499 0.0
H1152 H 0.75386 0.67804 0.26534 0.0
H1153 H 0.73549 0.69853 0.20876 0.0
H1154 H 0.68322 0.68922 0.3421 0.0
H1155 H 0.70056 0.66761 0.39649 0.0
C1156 C 0.65897 0.71133 0.20922 0.0
C1157 C 0.674 0.73068 0.17118 0.0
C1158 C 0.66991 0.69995 0.24121 0.0
C1159 C 0.69635 0.7081 0.23675 0.0
C1160 C 0.7115 0.72796 0.19928 0.0
C1161 C 0.70034 0.73887 0.16635 0.0
C1162 C 0.73857 0.6806 0.2824 0.0
C1163 C 0.72901 0.67172 0.33564 0.0
C1164 C 0.72804 0.6924 0.25013 0.0
C1165 C 0.70785 0.69571 0.27075 0.0
C1166 C 0.69831 0.68661 0.32407 0.0
C1167 C 0.70841 0.67433 0.35558 0.0
H1168 H 0.31399 0.0685 0.31363 0.0
H1169 H 0.36823 0.04593 0.37013 0.0
H1170 H 0.2928 0.0299 0.25733 0.0
H1171 H 0.34951 0.00954 0.30871 0.0
H1172 H 0.29915 0.93216 0.23459 0.0
H1173 H 0.31606 0.96914 0.29666 0.0
H1174 H 0.29389 0.00924 0.17946 0.0
H1175 H 0.2751 0.97121 0.12059 0.0
C1176 C 0.32132 0.05533 0.31448 0.0
C1177 C 0.34223 0.06004 0.3483 0.0
C1178 C 0.30954 0.03337 0.28094 0.0
C1179 C 0.31907 0.01609 0.27872 0.0
C1180 C 0.34083 0.02163 0.31053 0.0
C1181 C 0.35197 0.04299 0.34529 0.0
C1182 C 0.29779 0.9489 0.22286 0.0
C1183 C 0.28604 0.94914 0.17328 0.0
C1184 C 0.3077 0.97026 0.25794 0.0
C1185 C 0.30681 0.99261 0.24307 0.0
C1186 C 0.29468 0.99245 0.19317 0.0
C1187 C 0.2841 0.97077 0.15903 0.0
H1188 H 0.04529 0.6897 0.62772 0.0
H1189 H 0.07212 0.76388 0.70543 0.0
H1190 H 1.00771 0.67095 0.68755 0.0
H1191 H 0.03336 0.74514 0.76305 0.0
H1192 H 0.9427 0.7007 0.79898 0.0
H1193 H 0.98139 0.72124 0.74176 0.0
H1194 H 1.00159 0.66508 0.79625 0.0
H1195 H 0.96399 0.64556 0.85631 0.0
C1196 C 0.04322 0.70218 0.65719 0.0
C1197 C 0.06166 0.72863 0.66063 0.0
C1198 C 0.02157 0.69133 0.69136 0.0
C1199 C 0.01758 0.70667 0.72931 0.0
C1200 C 0.03588 0.73303 0.73329 0.0
C1201 C 0.05794 0.74382 0.69984 0.0
C1202 C 0.95567 0.69316 0.80026 0.0
C1203 C 0.95044 0.67197 0.83395 0.0
C1204 C 0.97772 0.70479 0.76696 0.0
C1205 C 0.99454 0.69488 0.76528 0.0
C1206 C 0.98891 0.67312 0.79706 0.0
C1207 C 0.96723 0.66188 0.83124 0.0
H1208 H 0.25462 0.31319 0.69953 0.0
H1209 H 0.33077 0.35756 0.62816 0.0
H1210 H 0.27064 0.29192 0.76115 0.0
H1211 H 0.34678 0.33752 0.69213 0.0
H1212 H 0.36287 0.3221 0.876 0.0
H1213 H 0.34441 0.33878 0.81016 0.0
H1214 H 0.29897 0.263 0.73947 0.0
H1215 H 0.31877 0.24616 0.80337 0.0
C1216 C 0.27456 0.3181 0.69617 0.0
C1217 C 0.29121 0.33665 0.65784 0.0
C1218 C 0.28371 0.30605 0.7317 0.0
C1219 C 0.30977 0.31295 0.73049 0.0
C1220 C 0.32653 0.3318 0.69325 0.0
C1221 C 0.31733 0.3434 0.65707 0.0
C1222 C 0.3491 0.30881 0.84636 0.0
C1223 C 0.34199 0.28254 0.84582 0.0
C1224 C 0.33846 0.31846 0.80893 0.0
C1225 C 0.32017 0.30206 0.77056 0.0
C1226 C 0.31282 0.27583 0.76956 0.0
C1227 C 0.32396 0.26619 0.80644 0.0
H1228 H 0.76517 0.05728 0.85793 0.0
H1229 H 0.70276 0.06968 0.81275 0.0
H1230 H 0.74915 0.02077 0.79492 0.0
H1231 H 0.68465 0.03142 0.75527 0.0
H1232 H 0.67052 0.97962 0.61271 0.0
H1233 H 0.68992 0.01674 0.6721 0.0
H1234 H 0.71747 0.97796 0.77936 0.0
H1235 H 0.69921 0.94093 0.7167 0.0
C1236 C 0.74854 0.05272 0.83306 0.0
C1237 C 0.73622 0.06735 0.8375 0.0
C1238 C 0.7387 0.03114 0.79844 0.0
C1239 C 0.71573 0.02319 0.76895 0.0
C1240 C 0.70287 0.03734 0.77548 0.0
C1241 C 0.7131 0.05922 0.80894 0.0
C1242 C 0.68095 0.97897 0.64859 0.0
C1243 C 0.68375 0.95742 0.65926 0.0
C1244 C 0.69186 1.0003 0.68331 0.0
C1245 C 0.70514 1.00048 0.73117 0.0
C1246 C 0.70777 0.97878 0.74241 0.0
C1247 C 0.69727 0.95749 0.70661 0.0
H1248 H 0.23184 0.35177 0.72022 0.0
H1249 H 0.24006 0.42096 0.64552 0.0
H1250 H 0.21084 0.35797 0.79972 0.0
H1251 H 0.2192 0.42754 0.72686 0.0
H1252 H 0.15008 0.40491 0.85761 0.0
H1253 H 0.17452 0.40541 0.77527 0.0
H1254 H 0.22294 0.38827 0.87771 0.0
H1255 H 0.19887 0.38776 0.95889 0.0
C1256 C 0.22936 0.36851 0.72094 0.0
C1257 C 0.23771 0.3859 0.67638 0.0
C1258 C 0.2174 0.37214 0.76685 0.0
C1259 C 0.21342 0.39334 0.76996 0.0
C1260 C 0.22189 0.41095 0.72563 0.0
C1261 C 0.23409 0.40736 0.67938 0.0
C1262 C 0.16628 0.40178 0.8625 0.0
C1263 C 0.17231 0.39602 0.91482 0.0
C1264 C 0.18027 0.40206 0.81538 0.0
C1265 C 0.20049 0.39654 0.81979 0.0
C1266 C 0.20722 0.39214 0.87257 0.0
C1267 C 0.19341 0.39193 0.91928 0.0
H1268 H 0.61662 0.75166 0.87182 0.0
H1269 H 0.63719 0.82173 0.96155 0.0
H1270 H 0.61423 0.77214 0.78645 0.0
H1271 H 0.63566 0.84236 0.87657 0.0
H1272 H 0.61484 0.87061 0.72546 0.0
H1273 H 0.6091 0.84483 0.80801 0.0
H1274 H 0.6407 0.80386 0.72043 0.0
H1275 H 0.6449 0.82887 0.63734 0.0
C1276 C 0.62053 0.77138 0.87346 0.0
C1277 C 0.62709 0.78497 0.92379 0.0
C1278 C 0.61936 0.78324 0.82432 0.0
C1279 C 0.62467 0.809 0.82417 0.0
C1280 C 0.63092 0.82239 0.87478 0.0
C1281 C 0.63202 0.81056 0.92374 0.0
C1282 C 0.61956 0.85542 0.72344 0.0
C1283 C 0.62988 0.85142 0.67489 0.0
C1284 C 0.61683 0.84093 0.77109 0.0
C1285 C 0.62473 0.82232 0.77156 0.0
C1286 C 0.63413 0.81773 0.72193 0.0
C1287 C 0.63667 0.83213 0.67427 0.0
H1288 H 0.1982 0.81987 0.96291 0.0
H1289 H 0.26717 0.8713 0.87216 0.0
H1290 H 0.17807 0.79689 0.87861 0.0
H1291 H 0.24737 0.84738 0.7873 0.0
H1292 H 0.1909 0.81871 0.63834 0.0
H1293 H 0.21602 0.84025 0.72064 0.0
H1294 H 0.17535 0.76839 0.81063 0.0
H1295 H 0.14919 0.74783 0.72912 0.0
C1296 C 0.20929 0.82606 0.92499 0.0
C1297 C 0.23432 0.84764 0.92453 0.0
C1298 C 0.19775 0.81264 0.87633 0.0
C1299 C 0.21096 0.82002 0.82548 0.0
C1300 C 0.23634 0.8412 0.82527 0.0
C1301 C 0.24786 0.85482 0.87413 0.0
C1302 C 0.1877 0.80755 0.67564 0.0
C1303 C 0.16828 0.78153 0.67726 0.0
C1304 C 0.20221 0.81982 0.72292 0.0
C1305 C 0.19773 0.80628 0.7731 0.0
C1306 C 0.17914 0.77976 0.77344 0.0
C1307 C 0.16443 0.76767 0.7263 0.0
H1308 H 0.38566 0.18964 0.55716 0.0
H1309 H 0.40801 0.14232 0.6495 0.0
H1310 H 0.3885 0.21358 0.64013 0.0
H1311 H 0.41206 0.16718 0.73285 0.0
H1312 H 0.3831 0.19519 0.88137 0.0
H1313 H 0.38729 0.17345 0.79981 0.0
H1314 H 0.41434 0.24376 0.70584 0.0
H1315 H 0.40846 0.26458 0.78691 0.0
C1316 C 0.39164 0.1846 0.59509 0.0
C1317 C 0.39648 0.1639 0.59652 0.0
C1318 C 0.3935 0.19856 0.64293 0.0
C1319 C 0.40061 0.19255 0.69379 0.0
C1320 C 0.40621 0.17228 0.69485 0.0
C1321 C 0.40415 0.15814 0.64685 0.0
C1322 C 0.3903 0.20598 0.84331 0.0
C1323 C 0.39565 0.23159 0.84038 0.0
C1324 C 0.39286 0.1936 0.79649 0.0
C1325 C 0.4009 0.20662 0.74549 0.0
C1326 C 0.40757 0.2328 0.74376 0.0
C1327 C 0.40474 0.24503 0.79053 0.0
H1328 H 0.8937 0.24785 0.64762 0.0
H1329 H 0.82445 0.21533 0.5497 0.0
H1330 H 0.86806 0.22555 0.72934 0.0
H1331 H 0.79862 0.19411 0.63103 0.0
H1332 H 0.81279 0.20062 0.8758 0.0
H1333 H 0.83876 0.22341 0.79559 0.0
H1334 H 0.78702 0.15974 0.69123 0.0
H1335 H 0.76044 0.13758 0.77184 0.0
C1336 C 0.87292 0.23642 0.64403 0.0
C1337 C 0.86103 0.23324 0.59255 0.0
C1338 C 0.85815 0.22358 0.69075 0.0
C1339 C 0.83111 0.2077 0.68708 0.0
C1340 C 0.81933 0.20549 0.63558 0.0
C1341 C 0.83411 0.21794 0.58897 0.0
C1342 C 0.80695 0.1916 0.83555 0.0
C1343 C 0.78462 0.16738 0.82993 0.0
C1344 C 0.82199 0.20456 0.78951 0.0
C1345 C 0.81516 0.19358 0.73646 0.0
C1346 C 0.79272 0.16917 0.73106 0.0
C1347 C 0.77748 0.15634 0.77721 0.0
H1348 H 0.81805 0.58985 0.85279 0.0
H1349 H 0.8843 0.6625 0.80896 0.0
H1350 H 0.795 0.59256 0.77219 0.0
H1351 H 0.86181 0.66529 0.72813 0.0
H1352 H 0.80979 0.67517 0.60933 0.0
H1353 H 0.82951 0.67227 0.69413 0.0
H1354 H 0.79162 0.58949 0.67554 0.0
H1355 H 0.77117 0.59251 0.59103 0.0
C1356 C 0.8275 0.6067 0.82644 0.0
C1357 C 0.85256 0.62656 0.83892 0.0
C1358 C 0.81442 0.60812 0.77965 0.0
C1359 C 0.82624 0.62928 0.74321 0.0
C1360 C 0.85155 0.64901 0.75563 0.0
C1361 C 0.86454 0.64757 0.80253 0.0
C1362 C 0.80553 0.65626 0.62314 0.0
C1363 C 0.7888 0.63407 0.59259 0.0
C1364 C 0.81707 0.65461 0.67203 0.0
C1365 C 0.81261 0.63067 0.69212 0.0
C1366 C 0.79544 0.60832 0.6622 0.0
C1367 C 0.7836 0.61 0.61333 0.0
H1368 H 0.82218 0.63103 0.04917 0.0
H1369 H 0.87785 0.62087 0.14206 0.0
H1370 H 0.80012 0.63009 0.13389 0.0
H1371 H 0.85614 0.6208 0.22811 0.0
H1372 H 0.79537 0.5983 0.36903 0.0
H1373 H 0.81932 0.5987 0.28632 0.0
H1374 H 0.80237 0.65391 0.21078 0.0
H1375 H 0.77691 0.65149 0.29062 0.0
C1376 C 0.8298 0.62862 0.08785 0.0
C1377 C 0.8519 0.62606 0.08848 0.0
C1378 C 0.81723 0.62838 0.13691 0.0
C1379 C 0.82639 0.62578 0.18871 0.0
C1380 C 0.84827 0.62267 0.18933 0.0
C1381 C 0.8608 0.62273 0.13988 0.0
C1382 C 0.79716 0.61077 0.33488 0.0
C1383 C 0.78527 0.6259 0.33782 0.0
C1384 C 0.81098 0.6111 0.28739 0.0
C1385 C 0.81305 0.6264 0.2412 0.0
C1386 C 0.8012 0.64164 0.24476 0.0
C1387 C 0.78715 0.64097 0.29175 0.0
H1388 H 0.37739 0.18598 0.37855 0.0
H1389 H 0.41266 0.14989 0.2877 0.0
H1390 H 0.38092 0.21201 0.29772 0.0
H1391 H 0.41764 0.1767 0.20742 0.0
H1392 H 0.38685 0.19918 0.05645 0.0
H1393 H 0.38979 0.17805 0.13938 0.0
H1394 H 0.40777 0.24602 0.23495 0.0
H1395 H 0.4041 0.26701 0.1515 0.0
C1396 C 0.38646 0.1841 0.34148 0.0
C1397 C 0.39485 0.16603 0.3393 0.0
C1398 C 0.38869 0.19914 0.29521 0.0
C1399 C 0.39942 0.19644 0.24553 0.0
C1400 C 0.40891 0.1791 0.24451 0.0
C1401 C 0.40653 0.16401 0.29081 0.0
C1402 C 0.39165 0.20977 0.09501 0.0
C1403 C 0.39519 0.23482 0.09722 0.0
C1404 C 0.39354 0.19767 0.14273 0.0
C1405 C 0.39911 0.21026 0.19421 0.0
C1406 C 0.40322 0.23559 0.19623 0.0
C1407 C 0.40137 0.24775 0.14828 0.0
H1408 H 0.82089 0.19595 0.0482 0.0
H1409 H 0.75688 0.13903 0.14427 0.0
H1410 H 0.8427 0.21814 0.1314 0.0
H1411 H 0.77804 0.16258 0.22871 0.0
H1412 H 0.83402 0.19451 0.37371 0.0
H1413 H 0.81084 0.17206 0.29086 0.0
H1414 H 0.84638 0.24457 0.20244 0.0
H1415 H 0.87124 0.26641 0.28414 0.0
C1416 C 0.81114 0.18837 0.08724 0.0
C1417 C 0.78712 0.16543 0.08933 0.0
C1418 C 0.82369 0.20138 0.13541 0.0
C1419 C 0.81235 0.19243 0.1876 0.0
C1420 C 0.78779 0.16994 0.18964 0.0
C1421 C 0.77539 0.15654 0.14112 0.0
C1422 C 0.83719 0.2056 0.33631 0.0
C1423 C 0.85488 0.23226 0.33551 0.0
C1424 C 0.82348 0.19273 0.28874 0.0
C1425 C 0.82649 0.20627 0.23916 0.0
C1426 C 0.84378 0.23314 0.23902 0.0
C1427 C 0.85794 0.24587 0.28627 0.0
H1428 H 0.59065 0.78078 0.15443 0.0
H1429 H 0.66078 0.78328 0.20476 0.0
H1430 H 0.59317 0.80673 0.23513 0.0
H1431 H 0.664 0.80991 0.28406 0.0
H1432 H 0.64535 0.82955 0.4537 0.0
H1433 H 0.64278 0.80527 0.37113 0.0
H1434 H 0.61691 0.84942 0.27755 0.0
H1435 H 0.61939 0.87382 0.36086 0.0
C1436 C 0.60695 0.78744 0.18211 0.0
C1437 C 0.62604 0.78083 0.17208 0.0
C1438 C 0.60844 0.80236 0.2283 0.0
C1439 C 0.62887 0.81064 0.26627 0.0
C1440 C 0.64789 0.80383 0.25611 0.0
C1441 C 0.64633 0.78889 0.20999 0.0
C1442 C 0.63908 0.83416 0.41564 0.0
C1443 C 0.63273 0.85384 0.41413 0.0
C1444 C 0.63779 0.82028 0.36796 0.0
C1445 C 0.6299 0.82546 0.31719 0.0
C1446 C 0.62296 0.84476 0.31586 0.0
C1447 C 0.6244 0.8588 0.36368 0.0
H1448 H 0.19168 0.81905 0.45426 0.0
H1449 H 0.14166 0.75198 0.35703 0.0
H1450 H 0.21537 0.84126 0.37165 0.0
H1451 H 0.16499 0.77459 0.27334 0.0
H1452 H 0.22978 0.81418 0.14243 0.0
H1453 H 0.20426 0.79058 0.22328 0.0
H1454 H 0.21392 0.86177 0.29081 0.0
H1455 H 0.23966 0.88504 0.21054 0.0
C1456 C 0.18565 0.809 0.41512 0.0
C1457 C 0.16472 0.78362 0.41257 0.0
C1458 C 0.19916 0.82191 0.36734 0.0
C1459 C 0.19216 0.80996 0.31514 0.0
C1460 C 0.17128 0.78443 0.31262 0.0
C1461 C 0.1578 0.77142 0.36069 0.0
C1462 C 0.22589 0.82457 0.17417 0.0
C1463 C 0.23593 0.85128 0.16923 0.0
C1464 C 0.21127 0.81109 0.22064 0.0
C1465 C 0.20678 0.82409 0.26408 0.0
C1466 C 0.2171 0.85097 0.25891 0.0
C1467 C 0.23147 0.86434 0.21219 0.0
H1468 H 0.20018 0.42262 0.14978 0.0
H1469 H 0.1369 0.35528 0.22478 0.0
H1470 H 0.22694 0.42797 0.23134 0.0
H1471 H 0.16334 0.3602 0.30454 0.0
H1472 H 0.20553 0.38562 0.4627 0.0
H1473 H 0.18266 0.38844 0.38287 0.0
H1474 H 0.24785 0.40517 0.27888 0.0
H1475 H 0.2712 0.40272 0.35997 0.0
C1476 C 0.19192 0.40917 0.1838 0.0
C1477 C 0.16645 0.38847 0.18071 0.0
C1478 C 0.2073 0.41206 0.23022 0.0
C1479 C 0.19732 0.39454 0.27467 0.0
C1480 C 0.17164 0.37431 0.27169 0.0
C1481 C 0.15647 0.37139 0.22563 0.0
C1482 C 0.21524 0.39026 0.42304 0.0
C1483 C 0.24016 0.39373 0.41776 0.0
C1484 C 0.20202 0.39175 0.37707 0.0
C1485 C 0.2132 0.39664 0.32414 0.0
C1486 C 0.2387 0.40149 0.31906 0.0
C1487 C 0.25208 0.40008 0.36548 0.0
H1488 H 0.25861 0.33375 0.1733 0.0
H1489 H 0.21114 0.28485 0.04027 0.0
H1490 H 0.29155 0.3227 0.15056 0.0
H1491 H 0.24469 0.27474 0.01648 0.0
H1492 H 0.32554 0.29184 0.95521 0.0
H1493 H 0.29088 0.30026 0.97979 0.0
H1494 H 0.29671 0.28253 0.15022 0.0
H1495 H 0.33137 0.27379 0.12507 0.0
C1496 C 0.25503 0.3205 0.13955 0.0
C1497 C 0.23209 0.31021 0.10876 0.0
C1498 C 0.27398 0.31425 0.12648 0.0
C1499 C 0.27062 0.29788 0.08185 0.0
C1500 C 0.24784 0.28762 0.05081 0.0
C1501 C 0.22871 0.29358 0.06432 0.0
C1502 C 0.31946 0.28986 0.99788 0.0
C1503 C 0.33106 0.28228 0.03838 0.0
C1504 C 0.29951 0.29445 0.01187 0.0
C1505 C 0.29118 0.29209 0.0669 0.0
C1506 C 0.30296 0.28471 0.10756 0.0
C1507 C 0.32266 0.27967 0.09329 0.0
H1508 H 0.78031 0.07428 0.07509 0.0
H1509 H 0.70912 0.04 0.98305 0.0
H1510 H 0.77243 0.0316 0.09975 0.0
H1511 H 0.70029 0.99724 0.0107 0.0
H1512 H 0.71153 0.92599 0.01335 0.0
H1513 H 0.71526 0.96762 0.99185 0.0
H1514 H 0.74578 0.9951 0.15524 0.0
H1515 H 0.74275 0.95384 0.17572 0.0
C1516 C 0.76294 0.05764 0.06034 0.0
C1517 C 0.74559 0.06056 0.02658 0.0
C1518 C 0.75816 0.03312 0.07519 0.0
C1519 C 0.73566 0.01092 0.05728 0.0
C1520 C 0.71794 0.01388 0.02466 0.0
C1521 C 0.72286 0.03843 0.00943 0.0
C1522 C 0.71868 0.94088 0.04477 0.0
C1523 C 0.72716 0.93691 0.0959 0.0
C1524 C 0.72079 0.9647 0.03259 0.0
C1525 C 0.73116 0.98485 0.0716 0.0
C1526 C 0.73835 0.98027 0.12374 0.0
C1527 C 0.73649 0.95661 0.13563 0.0
H1528 H 0.94871 0.69906 0.09602 0.0
H1529 H 0.97734 0.68026 0.94992 0.0
H1530 H 0.99218 0.73335 0.11786 0.0
H1531 H 0.02082 0.71489 0.97067 0.0
H1532 H 0.09813 0.75773 0.06619 0.0
H1533 H 0.05525 0.72615 0.03275 0.0
H1534 H 0.02562 0.77462 0.09166 0.0
H1535 H 0.06834 0.80539 0.12716 0.0
C1536 C 0.96431 0.70255 0.0682 0.0
C1537 C 0.95964 0.68722 0.02109 0.0
C1538 C 0.98924 0.72227 0.08047 0.0
C1539 C 1.01012 0.72713 0.04578 0.0
C1540 C 1.00535 0.7116 0.99866 0.0
C1541 C 0.98041 0.69177 0.98668 0.0
C1542 C 0.08246 0.76173 0.07074 0.0
C1543 C 0.08631 0.78383 0.09891 0.0
C1544 C 0.0579 0.74371 0.05164 0.0
C1545 C 0.0368 0.74761 0.06015 0.0
C1546 C 0.04122 0.77063 0.0856 0.0
C1547 C 0.06569 0.78843 0.10526 0.0
H1548 H 0.27955 0.21372 0.34371 0.0
H1549 H 0.34196 0.24203 0.46108 0.0
H1550 H 0.27251 0.24939 0.36653 0.0
H1551 H 0.33566 0.27825 0.48273 0.0
H1552 H 0.30229 0.32574 0.54962 0.0
H1553 H 0.30846 0.28977 0.52725 0.0
H1554 H 0.28916 0.29402 0.35692 0.0
H1555 H 0.28145 0.32933 0.38113 0.0
C1556 C 0.29193 0.22776 0.37405 0.0
C1557 C 0.31134 0.22513 0.40054 0.0
C1558 C 0.28798 0.2483 0.38701 0.0
C1559 C 0.30354 0.26689 0.42639 0.0
C1560 C 0.32296 0.26415 0.45289 0.0
C1561 C 0.32668 0.24343 0.44039 0.0
C1562 C 0.29945 0.31907 0.50749 0.0
C1563 C 0.29131 0.33024 0.46723 0.0
C1564 C 0.30315 0.29846 0.49439 0.0
C1565 C 0.29948 0.2889 0.44009 0.0
C1566 C 0.29185 0.30055 0.39936 0.0
C1567 C 0.28764 0.32092 0.41295 0.0
H1568 H 0.69553 0.9504 0.38052 0.0
H1569 H 0.6998 0.98212 0.54248 0.0
H1570 H 0.73079 0.99213 0.34935 0.0
H1571 H 0.73452 0.02396 0.51173 0.0
H1572 H 0.81537 0.08581 0.45056 0.0
H1573 H 0.77963 0.04489 0.48367 0.0
H1574 H 0.73946 0.03562 0.32988 0.0
H1575 H 0.77508 0.07628 0.29685 0.0
C1576 C 0.70384 0.96645 0.40917 0.0
C1577 C 0.69485 0.96325 0.46368 0.0
C1578 C 0.72391 0.99035 0.39142 0.0
C1579 C 0.73541 0.01146 0.428 0.0
C1580 C 0.72626 1.00811 0.48259 0.0
C1581 C 0.70611 0.98428 0.50007 0.0
C1582 C 0.79876 0.07517 0.42415 0.0
C1583 C 0.7982 0.08417 0.37082 0.0
C1584 C 0.77829 0.05171 0.44307 0.0
C1585 C 0.75681 0.03684 0.40913 0.0
C1586 C 0.75597 0.04628 0.35655 0.0
C1587 C 0.77637 0.06963 0.33767 0.0
H1588 H 0.94757 0.71728 0.3036 0.0
H1589 H 0.932 0.7274 0.47337 0.0
H1590 H 0.98831 0.72091 0.33124 0.0
H1591 H 0.97296 0.73141 0.50106 0.0
H1592 H 0.03669 0.71368 0.5391 0.0
H1593 H 0.99489 0.70721 0.51035 0.0
H1594 H 0.03005 0.75254 0.36355 0.0
H1595 H 0.07156 0.75785 0.39143 0.0
C1596 C 0.95297 0.72049 0.34678 0.0
C1597 C 0.93665 0.72218 0.38626 0.0
C1598 C 0.97633 0.7226 0.36264 0.0
C1599 C 0.98395 0.72656 0.41832 0.0
C1600 C 0.9675 0.728 0.45792 0.0
C1601 C 0.94405 0.72575 0.44207 0.0
C1602 C 0.03534 0.72193 0.50036 0.0
C1603 C 0.05731 0.73651 0.46765 0.0
C1604 C 1.01148 0.71851 0.48419 0.0
C1605 C 1.00914 0.72951 0.43483 0.0
C1606 C 0.0311 0.74355 0.4015 0.0
C1607 C 0.05492 0.74686 0.41764 0.0
H1608 H 0.67986 0.71013 0.04816 0.0
H1609 H 0.70669 0.7694 0.9231 0.0
H1610 H 0.71744 0.70508 0.0313 0.0
H1611 H 0.74487 0.76533 0.90857 0.0
H1612 H 0.82271 0.77246 0.9596 0.0
H1613 H 0.78349 0.77392 0.97779 0.0
H1614 H 0.73778 0.69254 0.94336 0.0
H1615 H 0.77696 0.69109 0.92183 0.0
C1616 C 0.6937 0.72202 0.01694 0.0
C1617 C 0.69069 0.74067 0.9878 0.0
C1618 C 0.71519 0.71915 0.00751 0.0
C1619 C 0.73411 0.73507 0.96924 0.0
C1620 C 0.73071 0.75313 0.93898 0.0
C1621 C 0.70901 0.75562 0.94761 0.0
C1622 C 0.80437 0.75486 0.95514 0.0
C1623 C 0.80312 0.73176 0.93805 0.0
C1624 C 0.78194 0.75573 0.96599 0.0
C1625 C 0.75773 0.73342 0.96134 0.0
C1626 C 0.75631 0.71 0.9472 0.0
C1627 C 0.77879 0.70919 0.93521 0.0
H1628 H 0.34882 0.09264 0.90443 0.0
H1629 H 0.27171 0.07483 0.94724 0.0
H1630 H 0.33815 0.04876 0.9299 0.0
H1631 H 0.26074 0.03059 0.97143 0.0
H1632 H 0.24951 0.94754 0.92895 0.0
H1633 H 0.25884 0.99164 0.9111 0.0
H1634 H 0.3239 0.02076 0.02146 0.0
H1635 H 0.31364 0.97679 0.04214 0.0
C1636 C 0.32963 0.07928 0.9195 0.0
C1637 C 0.31106 0.08694 0.92395 0.0
C1638 C 0.32354 0.05428 0.93412 0.0
C1639 C 0.2986 0.03633 0.95227 0.0
C1640 C 0.28005 0.04406 0.95715 0.0
C1641 C 0.28633 0.06929 0.94369 0.0
C1642 C 0.26526 0.96326 0.95069 0.0
C1643 C 0.28028 0.95849 0.98814 0.0
C1644 C 0.27078 0.9885 0.94004 0.0
C1645 C 0.29199 0.00953 0.96524 0.0
C1646 C 0.30744 1.00487 1.00149 0.0
C1647 C 0.30159 0.97965 0.01303 0.0
H1648 H 0.04047 0.33874 0.02802 0.0
H1649 H 0.07523 0.32538 0.88495 0.0
H1650 H 0.99853 0.30282 1.00135 0.0
H1651 H 0.03332 0.2891 0.85846 0.0
H1652 H 0.96428 0.20681 0.87876 0.0
H1653 H 1.00468 0.24538 0.90069 0.0
H1654 H 0.96448 0.28752 0.92645 0.0
H1655 H 0.92386 0.24913 0.90181 0.0
C1656 C 0.03911 0.32825 0.9906 0.0
C1657 C 0.06127 0.33428 0.95947 0.0
C1658 C 0.01507 0.30771 0.97527 0.0
C1659 C 0.01273 0.29286 0.92836 0.0
C1660 C 0.03466 0.29984 0.89556 0.0
C1661 C 0.05864 0.3205 0.91074 0.0
C1662 C 0.96395 0.22432 0.88829 0.0
C1663 C 0.94069 0.22478 0.88779 0.0
C1664 C 0.98718 0.24643 0.90112 0.0
C1665 C 0.98781 0.26952 0.91488 0.0
C1666 C 0.96456 0.26995 0.91614 0.0
C1667 C 0.94127 0.24787 0.90237 0.0
H1668 H 0.74214 0.81276 0.53671 0.0
H1669 H 0.68668 0.76044 0.65542 0.0
H1670 H 0.75182 0.77928 0.50893 0.0
H1671 H 0.69661 0.72719 0.62804 0.0
H1672 H 0.74164 0.68425 0.60835 0.0
H1673 H 0.73266 0.71857 0.63482 0.0
H1674 H 0.73212 0.73714 0.4625 0.0
H1675 H 0.74185 0.7034 0.43698 0.0
C1676 C 0.73182 0.79407 0.55654 0.0
C1677 C 0.71372 0.78938 0.5986 0.0
C1678 C 0.73743 0.77491 0.54067 0.0
C1679 C 0.72513 0.75065 0.56662 0.0
C1680 C 0.7068 0.74585 0.60805 0.0
C1681 C 0.70112 0.76493 0.62374 0.0
C1682 C 0.7394 0.69565 0.57643 0.0
C1683 C 0.7415 0.69079 0.52065 0.0
C1684 C 0.7342 0.71518 0.59139 0.0
C1685 C 0.7313 0.73034 0.55072 0.0
C1686 C 0.73409 0.72576 0.49484 0.0
C1687 C 0.73914 0.70614 0.48006 0.0
H1688 H 0.25668 0.93132 0.68422 0.0
H1689 H 0.21118 0.93122 0.5456 0.0
H1690 H 0.29052 0.97461 0.65915 0.0
H1691 H 0.24554 0.97413 0.51973 0.0
H1692 H 0.32685 0.03629 0.45904 0.0
H1693 H 0.29181 0.99373 0.48543 0.0
H1694 H 0.29671 0.02007 0.65355 0.0
H1695 H 0.33176 0.06292 0.62662 0.0
C1696 C 0.25374 0.94052 0.64869 0.0
C1697 C 0.23109 0.92764 0.61704 0.0
C1698 C 0.2732 0.9653 0.6343 0.0
C1699 C 0.27062 0.97767 0.58756 0.0
C1700 C 0.24812 0.96489 0.55567 0.0
C1701 C 0.22851 0.94023 0.57041 0.0
C1702 C 0.32047 0.03293 0.5016 0.0
C1703 C 0.33188 0.05274 0.54092 0.0
C1704 C 0.30031 0.00867 0.51661 0.0
C1705 C 0.29158 1.00363 0.57153 0.0
C1706 C 0.30326 0.02341 0.61104 0.0
C1707 C 0.32317 0.04785 0.59573 0.0
H1708 H 0.9563 0.24692 0.58796 0.0
H1709 H 0.98881 0.30586 0.46199 0.0
H1710 H 0.99976 0.25617 0.61309 0.0
H1711 H 0.03219 0.31504 0.48755 0.0
H1712 H 0.09108 0.27764 0.52949 0.0
H1713 H 0.04802 0.26866 0.50282 0.0
H1714 H 0.04823 0.31671 0.6357 0.0
H1715 H 0.09176 0.32696 0.66126 0.0
C1716 C 0.9727 0.26183 0.56578 0.0
C1717 C 0.96925 0.27577 0.52323 0.0
C1718 C 0.99745 0.2671 0.5802 0.0
C1719 C 0.01902 0.28624 0.55205 0.0
C1720 C 0.01568 0.3002 0.50964 0.0
C1721 C 0.99097 0.2951 0.49549 0.0
C1722 C 0.08225 0.28669 0.55266 0.0
C1723 C 0.09507 0.30308 0.5977 0.0
C1724 C 0.05753 0.28132 0.53755 0.0
C1725 C 0.04507 0.29197 0.56755 0.0
C1726 C 0.0576 0.30823 0.61237 0.0
C1727 C 0.08242 0.31388 0.62712 0.0
loop_
_geom_bond_atom_site_label_1
_geom_bond_atom_site_label_2
_geom_bond_distance
_geom_bond_site_symmetry_2
_ccdc_geom_bond_type
Eu0 N29 2.600 . S
Eu0 N35 2.562 . S
Eu0 O44 2.462 . S
Eu0 O45 2.373 . S
Eu0 O47 2.432 . S
Eu0 O48 2.291 . S
Eu0 O52 2.335 . S
Eu0 O55 2.372 1_554 S
Eu0 C64 2.787 . S
C1 N2 1.365 . S
C1 C4 1.405 . S
C1 C8 1.448 . S
N2 C1 1.365 . S
N2 C5 1.319 . S
N2 Eu11 2.600 . S
C3 C5 1.397 . S
C3 C6 1.367 . S
C3 H23 0.931 . S
C4 C1 1.405 . S
C4 C6 1.403 . S
C4 C10 1.439 . S
C5 N2 1.319 . S
C5 C3 1.397 . S
C5 H16 0.930 . S
C6 C3 1.367 . S
C6 C4 1.403 . S
C6 H27 0.929 . S
C7 C8 1.430 1_556 S
C7 C9 1.387 . S
C7 C13 1.404 . S
C8 C1 1.448 . S
C8 C7 1.430 1_554 S
C8 N12 1.351 . S
C9 C7 1.387 . S
C9 C10 1.374 1_556 S
C9 H24 0.931 . S
C10 C4 1.439 . S
C10 C9 1.374 1_554 S
C10 H25 0.931 . S
Eu11 N2 2.600 . S
Eu11 N12 2.562 . S
Eu11 O46 2.335 . S
Eu11 O49 2.372 . S
Eu11 O50 2.462 . S
Eu11 O51 2.373 . S
Eu11 O53 2.432 . S
Eu11 O54 2.291 . S
Eu11 C75 2.787 . S
N12 C8 1.351 . S
N12 Eu11 2.562 . S
N12 C14 1.325 1_554 S
C13 C7 1.404 . S
C13 C15 1.366 . S
C13 H21 0.930 . S
C14 N12 1.325 1_556 S
C14 C15 1.416 . S
C14 H20 0.929 . S
C15 C13 1.366 . S
C15 C14 1.416 . S
C15 H17 0.930 . S
H16 C5 0.930 . S
H17 C15 0.930 . S
H18 C33 0.930 1_556 S
H19 C40 0.930 . S
H20 C14 0.929 . S
H21 C13 0.930 . S
H22 C36 0.929 . S
H23 C3 0.931 . S
H24 C9 0.931 . S
H25 C10 0.931 . S
H26 C31 0.931 . S
H27 C6 0.929 . S
H28 C39 0.930 . S
N29 Eu0 2.600 . S
N29 C30 1.365 . S
N29 C33 1.319 . S
C30 N29 1.365 . S
C30 C32 1.405 . S
C30 C38 1.448 . S
C31 H26 0.931 . S
C31 C33 1.397 1_556 S
C31 C34 1.367 1_556 S
C32 C30 1.405 . S
C32 C34 1.403 . S
C32 C65 1.439 . S
C33 H18 0.930 1_554 S
C33 N29 1.319 . S
C33 C31 1.397 1_554 S
C34 C31 1.367 1_554 S
C34 C32 1.403 . S
C34 H41 0.929 . S
N35 Eu0 2.562 . S
N35 C36 1.325 . S
N35 C38 1.351 . S
C36 H22 0.929 . S
C36 N35 1.325 . S
C36 C40 1.416 . S
C37 C38 1.430 . S
C37 C39 1.404 . S
C37 C66 1.387 . S
C38 C30 1.448 . S
C38 N35 1.351 . S
C38 C37 1.430 . S
C39 H28 0.930 . S
C39 C37 1.404 . S
C39 C40 1.366 . S
C40 H19 0.930 . S
C40 C36 1.416 . S
C40 C39 1.366 . S
H41 C34 0.929 . S
H42 C65 0.931 . S
H43 C66 0.931 . S
O44 Eu0 2.462 . S
O44 C64 1.252 . S
O45 Eu0 2.373 . S
O45 C56 1.249 . S
O46 Eu11 2.335 . S
O46 C56 1.264 . S
O47 Eu0 2.432 . S
O47 C64 1.268 . S
O48 Eu0 2.291 . S
O48 C63 1.255 . S
O49 Eu11 2.372 . S
O49 C63 1.257 . S
O50 Eu11 2.462 . S
O50 C75 1.252 . S
O51 Eu11 2.373 . S
O51 C67 1.249 . S
O52 Eu0 2.335 . S
O52 C67 1.264 . S
O53 Eu11 2.432 . S
O53 C75 1.268 . S
O54 Eu11 2.291 . S
O54 C74 1.255 1_554 S
O55 Eu0 2.372 1_556 S
O55 C74 1.257 . S
C56 O45 1.249 . S
C56 O46 1.264 . S
C57 C60 1.382 1_554 S
C57 C62 1.390 . S
C57 C64 1.506 . S
C58 C59 1.398 . S
C58 C62 1.392 . S
C59 C58 1.398 . S
C59 C61 1.372 1_554 S
C59 H76 0.931 . S
C60 C57 1.382 1_556 S
C60 C61 1.390 . S
C60 H77 0.931 . S
C61 C59 1.372 1_556 S
C61 C60 1.390 . S
C61 H78 0.929 . S
C62 C57 1.390 . S
C62 C58 1.392 . S
C62 H79 0.930 . S
C63 O48 1.255 . S
C63 O49 1.257 . S
C64 Eu0 2.787 . S
C64 O44 1.252 . S
C64 O47 1.268 . S
C64 C57 1.506 . S
C65 C32 1.439 . S
C65 H42 0.931 . S
C65 C66 1.374 . S
C66 C37 1.387 . S
C66 H43 0.931 . S
C66 C65 1.374 . S
C67 O51 1.249 . S
C67 O52 1.264 . S
C68 C71 1.382 . S
C68 C72 1.390 . S
C68 C75 1.506 . S
C69 C70 1.398 . S
C69 C72 1.392 . S
C70 C69 1.398 . S
C70 C73 1.372 . S
C70 H80 0.931 . S
C71 C68 1.382 . S
C71 C73 1.390 . S
C71 H81 0.931 . S
C72 C68 1.390 . S
C72 C69 1.392 . S
C72 H82 0.930 . S
C73 C70 1.372 . S
C73 C71 1.390 . S
C73 H83 0.929 . S
C74 O54 1.255 1_556 S
C74 O55 1.257 . S
C75 Eu11 2.787 . S
C75 O50 1.252 . S
C75 O53 1.268 . S
C75 C68 1.506 . S
H76 C59 0.931 . S
H77 C60 0.931 . S
H78 C61 0.929 . S
H79 C62 0.930 . S
H80 C70 0.931 . S
H81 C71 0.931 . S
H82 C72 0.930 . S
H83 C73 0.929 . S
Eu84 N113 2.600 . S
Eu84 N119 2.562 . S
Eu84 O128 2.462 . S
Eu84 O129 2.373 . S
Eu84 O131 2.432 . S
Eu84 O132 2.291 . S
Eu84 O136 2.335 . S
Eu84 O139 2.372 1_554 S
Eu84 C148 2.787 . S
C85 N86 1.365 . S
C85 C88 1.405 . S
C85 C92 1.448 . S
N86 C85 1.365 . S
N86 C89 1.319 . S
N86 Eu95 2.600 . S
C87 C89 1.397 . S
C87 C90 1.367 . S
C87 H107 0.931 . S
C88 C85 1.405 . S
C88 C90 1.403 . S
C88 C94 1.439 . S
C89 N86 1.319 . S
C89 C87 1.397 . S
C89 H100 0.930 . S
C90 C87 1.367 . S
C90 C88 1.403 . S
C90 H111 0.929 . S
C91 C92 1.430 1_556 S
C91 C93 1.387 . S
C91 C97 1.404 . S
C92 C85 1.448 . S
C92 C91 1.430 1_554 S
C92 N96 1.351 . S
C93 C91 1.387 . S
C93 C94 1.374 1_556 S
C93 H108 0.931 . S
C94 C88 1.439 . S
C94 C93 1.374 1_554 S
C94 H109 0.931 . S
Eu95 N86 2.600 . S
Eu95 N96 2.562 . S
Eu95 O130 2.335 . S
Eu95 O133 2.372 . S
Eu95 O134 2.462 . S
Eu95 O135 2.373 . S
Eu95 O137 2.432 . S
Eu95 O138 2.291 . S
Eu95 C159 2.787 . S
N96 C92 1.351 . S
N96 Eu95 2.562 . S
N96 C98 1.325 1_554 S
C97 C91 1.404 . S
C97 C99 1.366 . S
C97 H105 0.930 . S
C98 N96 1.325 1_556 S
C98 C99 1.416 . S
C98 H104 0.929 . S
C99 C97 1.366 . S
C99 C98 1.416 . S
C99 H101 0.930 . S
H100 C89 0.930 . S
H101 C99 0.930 . S
H102 C117 0.930 1_556 S
H103 C124 0.930 . S
H104 C98 0.929 . S
H105 C97 0.930 . S
H106 C120 0.929 . S
H107 C87 0.931 . S
H108 C93 0.931 . S
H109 C94 0.931 . S
H110 C115 0.931 . S
H111 C90 0.929 . S
H112 C123 0.930 . S
N113 Eu84 2.600 . S
N113 C114 1.365 . S
N113 C117 1.319 . S
C114 N113 1.365 . S
C114 C116 1.405 . S
C114 C122 1.448 . S
C115 H110 0.931 . S
C115 C117 1.397 1_556 S
C115 C118 1.367 1_556 S
C116 C114 1.405 . S
C116 C118 1.403 . S
C116 C149 1.439 . S
C117 H102 0.930 1_554 S
C117 N113 1.319 . S
C117 C115 1.397 1_554 S
C118 C115 1.367 1_554 S
C118 C116 1.403 . S
C118 H125 0.929 . S
N119 Eu84 2.562 . S
N119 C120 1.325 . S
N119 C122 1.351 . S
C120 H106 0.929 . S
C120 N119 1.325 . S
C120 C124 1.416 . S
C121 C122 1.430 . S
C121 C123 1.404 . S
C121 C150 1.387 . S
C122 C114 1.448 . S
C122 N119 1.351 . S
C122 C121 1.430 . S
C123 H112 0.930 . S
C123 C121 1.404 . S
C123 C124 1.366 . S
C124 H103 0.930 . S
C124 C120 1.416 . S
C124 C123 1.366 . S
H125 C118 0.929 . S
H126 C149 0.931 . S
H127 C150 0.931 . S
O128 Eu84 2.462 . S
O128 C148 1.252 . S
O129 Eu84 2.373 . S
O129 C140 1.249 . S
O130 Eu95 2.335 . S
O130 C140 1.264 . S
O131 Eu84 2.432 . S
O131 C148 1.268 . S
O132 Eu84 2.291 . S
O132 C147 1.255 . S
O133 Eu95 2.372 . S
O133 C147 1.257 . S
O134 Eu95 2.462 . S
O134 C159 1.252 . S
O135 Eu95 2.373 . S
O135 C151 1.249 . S
O136 Eu84 2.335 . S
O136 C151 1.264 . S
O137 Eu95 2.432 . S
O137 C159 1.268 . S
O138 Eu95 2.291 . S
O138 C158 1.255 1_554 S
O139 Eu84 2.372 1_556 S
O139 C158 1.257 . S
C140 O129 1.249 . S
C140 O130 1.264 . S
C141 C144 1.382 1_554 S
C141 C146 1.390 . S
C141 C148 1.506 . S
C142 C143 1.398 . S
C142 C146 1.392 . S
C143 C142 1.398 . S
C143 C145 1.372 1_554 S
C143 H160 0.931 . S
C144 C141 1.382 1_556 S
C144 C145 1.390 . S
C144 H161 0.931 . S
C145 C143 1.372 1_556 S
C145 C144 1.390 . S
C145 H162 0.929 . S
C146 C141 1.390 . S
C146 C142 1.392 . S
C146 H163 0.930 . S
C147 O132 1.255 . S
C147 O133 1.257 . S
C148 Eu84 2.787 . S
C148 O128 1.252 . S
C148 O131 1.268 . S
C148 C141 1.506 . S
C149 C116 1.439 . S
C149 H126 0.931 . S
C149 C150 1.374 . S
C150 C121 1.387 . S
C150 H127 0.931 . S
C150 C149 1.374 . S
C151 O135 1.249 . S
C151 O136 1.264 . S
C152 C155 1.382 . S
C152 C156 1.390 . S
C152 C159 1.506 . S
C153 C154 1.398 . S
C153 C156 1.392 . S
C154 C153 1.398 . S
C154 C157 1.372 . S
C154 H164 0.931 . S
C155 C152 1.382 . S
C155 C157 1.390 . S
C155 H165 0.931 . S
C156 C152 1.390 . S
C156 C153 1.392 . S
C156 H166 0.930 . S
C157 C154 1.372 . S
C157 C155 1.390 . S
C157 H167 0.929 . S
C158 O138 1.255 1_556 S
C158 O139 1.257 . S
C159 Eu95 2.787 . S
C159 O134 1.252 . S
C159 O137 1.268 . S
C159 C152 1.506 . S
H160 C143 0.931 . S
H161 C144 0.931 . S
H162 C145 0.929 . S
H163 C146 0.930 . S
H164 C154 0.931 . S
H165 C155 0.931 . S
H166 C156 0.930 . S
H167 C157 0.929 . S
Eu168 N197 2.600 . S
Eu168 N203 2.562 . S
Eu168 O212 2.462 . S
Eu168 O213 2.373 . S
Eu168 O215 2.432 . S
Eu168 O216 2.291 . S
Eu168 O220 2.335 . S
Eu168 O223 2.372 1_554 S
Eu168 C232 2.787 . S
C169 N170 1.365 . S
C169 C172 1.405 . S
C169 C176 1.448 . S
N170 C169 1.365 . S
N170 C173 1.319 . S
N170 Eu179 2.600 . S
C171 C173 1.397 . S
C171 C174 1.367 . S
C171 H191 0.931 . S
C172 C169 1.405 . S
C172 C174 1.403 . S
C172 C178 1.439 . S
C173 N170 1.319 . S
C173 C171 1.397 . S
C173 H184 0.930 . S
C174 C171 1.367 . S
C174 C172 1.403 . S
C174 H195 0.929 . S
C175 C176 1.430 1_556 S
C175 C177 1.387 . S
C175 C181 1.404 . S
C176 C169 1.448 . S
C176 C175 1.430 1_554 S
C176 N180 1.351 . S
C177 C175 1.387 . S
C177 C178 1.374 1_556 S
C177 H192 0.931 . S
C178 C172 1.439 . S
C178 C177 1.374 1_554 S
C178 H193 0.931 . S
Eu179 N170 2.600 . S
Eu179 N180 2.562 . S
Eu179 O214 2.335 . S
Eu179 O217 2.372 . S
Eu179 O218 2.462 . S
Eu179 O219 2.373 . S
Eu179 O221 2.432 . S
Eu179 O222 2.291 . S
Eu179 C243 2.787 . S
N180 C176 1.351 . S
N180 Eu179 2.562 . S
N180 C182 1.325 1_554 S
C181 C175 1.404 . S
C181 C183 1.366 . S
C181 H189 0.930 . S
C182 N180 1.325 1_556 S
C182 C183 1.416 . S
C182 H188 0.929 . S
C183 C181 1.366 . S
C183 C182 1.416 . S
C183 H185 0.930 . S
H184 C173 0.930 . S
H185 C183 0.930 . S
H186 C201 0.930 1_556 S
H187 C208 0.930 . S
H188 C182 0.929 . S
H189 C181 0.930 . S
H190 C204 0.929 . S
H191 C171 0.931 . S
H192 C177 0.931 . S
H193 C178 0.931 . S
H194 C199 0.931 . S
H195 C174 0.929 . S
H196 C207 0.930 . S
N197 Eu168 2.600 . S
N197 C198 1.365 . S
N197 C201 1.319 . S
C198 N197 1.365 . S
C198 C200 1.405 . S
C198 C206 1.448 . S
C199 H194 0.931 . S
C199 C201 1.397 1_556 S
C199 C202 1.367 1_556 S
C200 C198 1.405 . S
C200 C202 1.403 . S
C200 C233 1.439 . S
C201 H186 0.930 1_554 S
C201 N197 1.319 . S
C201 C199 1.397 1_554 S
C202 C199 1.367 1_554 S
C202 C200 1.403 . S
C202 H209 0.929 . S
N203 Eu168 2.562 . S
N203 C204 1.325 . S
N203 C206 1.351 . S
C204 H190 0.929 . S
C204 N203 1.325 . S
C204 C208 1.416 . S
C205 C206 1.430 . S
C205 C207 1.404 . S
C205 C234 1.387 . S
C206 C198 1.448 . S
C206 N203 1.351 . S
C206 C205 1.430 . S
C207 H196 0.930 . S
C207 C205 1.404 . S
C207 C208 1.366 . S
C208 H187 0.930 . S
C208 C204 1.416 . S
C208 C207 1.366 . S
H209 C202 0.929 . S
H210 C233 0.931 . S
H211 C234 0.931 . S
O212 Eu168 2.462 . S
O212 C232 1.252 . S
O213 Eu168 2.373 . S
O213 C224 1.249 . S
O214 Eu179 2.335 . S
O214 C224 1.264 . S
O215 Eu168 2.432 . S
O215 C232 1.268 . S
O216 Eu168 2.291 . S
O216 C231 1.255 . S
O217 Eu179 2.372 . S
O217 C231 1.257 . S
O218 Eu179 2.462 . S
O218 C243 1.252 . S
O219 Eu179 2.373 . S
O219 C235 1.249 . S
O220 Eu168 2.335 . S
O220 C235 1.264 . S
O221 Eu179 2.432 . S
O221 C243 1.268 . S
O222 Eu179 2.291 . S
O222 C242 1.255 1_554 S
O223 Eu168 2.372 1_556 S
O223 C242 1.257 . S
C224 O213 1.249 . S
C224 O214 1.264 . S
C225 C228 1.382 1_554 S
C225 C230 1.390 . S
C225 C232 1.506 . S
C226 C227 1.398 . S
C226 C230 1.392 . S
C227 C226 1.398 . S
C227 C229 1.372 1_554 S
C227 H244 0.931 . S
C228 C225 1.382 1_556 S
C228 C229 1.390 . S
C228 H245 0.931 . S
C229 C227 1.372 1_556 S
C229 C228 1.390 . S
C229 H246 0.929 . S
C230 C225 1.390 . S
C230 C226 1.392 . S
C230 H247 0.930 . S
C231 O216 1.255 . S
C231 O217 1.257 . S
C232 Eu168 2.787 . S
C232 O212 1.252 . S
C232 O215 1.268 . S
C232 C225 1.506 . S
C233 C200 1.439 . S
C233 H210 0.931 . S
C233 C234 1.374 . S
C234 C205 1.387 . S
C234 H211 0.931 . S
C234 C233 1.374 . S
C235 O219 1.249 . S
C235 O220 1.264 . S
C236 C239 1.382 . S
C236 C240 1.390 . S
C236 C243 1.506 . S
C237 C238 1.398 . S
C237 C240 1.392 . S
C238 C237 1.398 . S
C238 C241 1.372 . S
C238 H248 0.931 . S
C239 C236 1.382 . S
C239 C241 1.390 . S
C239 H249 0.931 . S
C240 C236 1.390 . S
C240 C237 1.392 . S
C240 H250 0.930 . S
C241 C238 1.372 . S
C241 C239 1.390 . S
C241 H251 0.929 . S
C242 O222 1.255 1_556 S
C242 O223 1.257 . S
C243 Eu179 2.787 . S
C243 O218 1.252 . S
C243 O221 1.268 . S
C243 C236 1.506 . S
H244 C227 0.931 . S
H245 C228 0.931 . S
H246 C229 0.929 . S
H247 C230 0.930 . S
H248 C238 0.931 . S
H249 C239 0.931 . S
H250 C240 0.930 . S
H251 C241 0.929 . S
Eu252 N281 2.600 . S
Eu252 N287 2.562 . S
Eu252 O296 2.462 . S
Eu252 O297 2.373 . S
Eu252 O299 2.432 . S
Eu252 O300 2.291 . S
Eu252 O304 2.335 . S
Eu252 O307 2.372 . S
Eu252 C316 2.787 . S
C253 N254 1.365 . S
C253 C256 1.405 . S
C253 C260 1.448 . S
N254 C253 1.365 . S
N254 C257 1.319 . S
N254 Eu263 2.600 . S
C255 C257 1.397 . S
C255 C258 1.367 . S
C255 H275 0.931 . S
C256 C253 1.405 . S
C256 C258 1.403 . S
C256 C262 1.439 . S
C257 N254 1.319 . S
C257 C255 1.397 . S
C257 H268 0.930 . S
C258 C255 1.367 . S
C258 C256 1.403 . S
C258 H279 0.929 . S
C259 C260 1.430 . S
C259 C261 1.387 . S
C259 C265 1.404 . S
C260 C253 1.448 . S
C260 C259 1.430 . S
C260 N264 1.351 . S
C261 C259 1.387 . S
C261 C262 1.374 . S
C261 H276 0.931 . S
C262 C256 1.439 . S
C262 C261 1.374 . S
C262 H277 0.931 . S
Eu263 N254 2.600 . S
Eu263 N264 2.562 . S
Eu263 O298 2.335 . S
Eu263 O301 2.372 . S
Eu263 O302 2.462 . S
Eu263 O303 2.373 . S
Eu263 O305 2.432 . S
Eu263 O306 2.291 . S
Eu263 C327 2.787 . S
N264 C260 1.351 . S
N264 Eu263 2.562 . S
N264 C266 1.325 . S
C265 C259 1.404 . S
C265 C267 1.366 . S
C265 H273 0.930 . S
C266 N264 1.325 . S
C266 C267 1.416 . S
C266 H272 0.929 . S
C267 C265 1.366 . S
C267 C266 1.416 . S
C267 H269 0.930 . S
H268 C257 0.930 . S
H269 C267 0.930 . S
H270 C285 0.930 . S
H271 C292 0.930 . S
H272 C266 0.929 . S
H273 C265 0.930 . S
H274 C288 0.929 . S
H275 C255 0.931 . S
H276 C261 0.931 . S
H277 C262 0.931 . S
H278 C283 0.931 . S
H279 C258 0.929 . S
H280 C291 0.930 . S
N281 Eu252 2.600 . S
N281 C282 1.365 . S
N281 C285 1.319 . S
C282 N281 1.365 . S
C282 C284 1.405 . S
C282 C290 1.448 . S
C283 H278 0.931 . S
C283 C285 1.397 . S
C283 C286 1.367 . S
C284 C282 1.405 . S
C284 C286 1.403 . S
C284 C317 1.439 . S
C285 H270 0.930 . S
C285 N281 1.319 . S
C285 C283 1.397 . S
C286 C283 1.367 . S
C286 C284 1.403 . S
C286 H293 0.929 . S
N287 Eu252 2.562 . S
N287 C288 1.325 . S
N287 C290 1.351 . S
C288 H274 0.929 . S
C288 N287 1.325 . S
C288 C292 1.416 . S
C289 C290 1.430 . S
C289 C291 1.404 . S
C289 C318 1.387 . S
C290 C282 1.448 . S
C290 N287 1.351 . S
C290 C289 1.430 . S
C291 H280 0.930 . S
C291 C289 1.404 . S
C291 C292 1.366 . S
C292 H271 0.930 . S
C292 C288 1.416 . S
C292 C291 1.366 . S
H293 C286 0.929 . S
H294 C317 0.931 . S
H295 C318 0.931 . S
O296 Eu252 2.462 . S
O296 C316 1.252 . S
O297 Eu252 2.373 . S
O297 C308 1.249 . S
O298 Eu263 2.335 . S
O298 C308 1.264 . S
O299 Eu252 2.432 . S
O299 C316 1.268 . S
O300 Eu252 2.291 . S
O300 C315 1.255 . S
O301 Eu263 2.372 . S
O301 C315 1.257 . S
O302 Eu263 2.462 . S
O302 C327 1.252 . S
O303 Eu263 2.373 . S
O303 C319 1.249 . S
O304 Eu252 2.335 . S
O304 C319 1.264 . S
O305 Eu263 2.432 . S
O305 C327 1.268 . S
O306 Eu263 2.291 . S
O306 C326 1.255 . S
O307 Eu252 2.372 . S
O307 C326 1.257 . S
C308 O297 1.249 . S
C308 O298 1.264 . S
C309 C312 1.382 . S
C309 C314 1.390 . S
C309 C316 1.506 . S
C310 C311 1.398 . S
C310 C314 1.392 . S
C311 C310 1.398 . S
C311 C313 1.372 . S
C311 H328 0.931 . S
C312 C309 1.382 . S
C312 C313 1.390 . S
C312 H329 0.931 . S
C313 C311 1.372 . S
C313 C312 1.390 . S
C313 H330 0.929 . S
C314 C309 1.390 . S
C314 C310 1.392 . S
C314 H331 0.930 . S
C315 O300 1.255 . S
C315 O301 1.257 . S
C316 Eu252 2.787 . S
C316 O296 1.252 . S
C316 O299 1.268 . S
C316 C309 1.506 . S
C317 C284 1.439 . S
C317 H294 0.931 . S
C317 C318 1.374 . S
C318 C289 1.387 . S
C318 H295 0.931 . S
C318 C317 1.374 . S
C319 O303 1.249 . S
C319 O304 1.264 . S
C320 C323 1.382 . S
C320 C324 1.390 . S
C320 C327 1.506 . S
C321 C322 1.398 . S
C321 C324 1.392 . S
C322 C321 1.398 . S
C322 C325 1.372 . S
C322 H332 0.931 . S
C323 C320 1.382 . S
C323 C325 1.390 . S
C323 H333 0.931 . S
C324 C320 1.390 . S
C324 C321 1.392 . S
C324 H334 0.930 . S
C325 C322 1.372 . S
C325 C323 1.390 . S
C325 H335 0.929 . S
C326 O306 1.255 . S
C326 O307 1.257 . S
C327 Eu263 2.787 . S
C327 O302 1.252 . S
C327 O305 1.268 . S
C327 C320 1.506 . S
H328 C311 0.931 . S
H329 C312 0.931 . S
H330 C313 0.929 . S
H331 C314 0.930 . S
H332 C322 0.931 . S
H333 C323 0.931 . S
H334 C324 0.930 . S
H335 C325 0.929 . S
Eu336 N365 2.600 . S
Eu336 N371 2.562 . S
Eu336 O380 2.462 . S
Eu336 O381 2.373 . S
Eu336 O383 2.432 . S
Eu336 O384 2.291 . S
Eu336 O388 2.335 . S
Eu336 O391 2.372 . S
Eu336 C400 2.787 . S
C337 N338 1.365 . S
C337 C340 1.405 . S
C337 C344 1.448 . S
N338 C337 1.365 . S
N338 C341 1.319 . S
N338 Eu347 2.600 . S
C339 C341 1.397 . S
C339 C342 1.367 . S
C339 H359 0.931 . S
C340 C337 1.405 . S
C340 C342 1.403 . S
C340 C346 1.439 . S
C341 N338 1.319 . S
C341 C339 1.397 . S
C341 H352 0.930 . S
C342 C339 1.367 . S
C342 C340 1.403 . S
C342 H363 0.929 . S
C343 C344 1.430 . S
C343 C345 1.387 . S
C343 C349 1.404 . S
C344 C337 1.448 . S
C344 C343 1.430 . S
C344 N348 1.351 . S
C345 C343 1.387 . S
C345 C346 1.374 . S
C345 H360 0.931 . S
C346 C340 1.439 . S
C346 C345 1.374 . S
C346 H361 0.931 . S
Eu347 N338 2.600 . S
Eu347 N348 2.562 . S
Eu347 O382 2.335 . S
Eu347 O385 2.372 . S
Eu347 O386 2.462 . S
Eu347 O387 2.373 . S
Eu347 O389 2.432 . S
Eu347 O390 2.291 . S
Eu347 C411 2.787 . S
N348 C344 1.351 . S
N348 Eu347 2.562 . S
N348 C350 1.325 . S
C349 C343 1.404 . S
C349 C351 1.366 . S
C349 H357 0.930 . S
C350 N348 1.325 . S
C350 C351 1.416 . S
C350 H356 0.929 . S
C351 C349 1.366 . S
C351 C350 1.416 . S
C351 H353 0.930 . S
H352 C341 0.930 . S
H353 C351 0.930 . S
H354 C369 0.930 . S
H355 C376 0.930 . S
H356 C350 0.929 . S
H357 C349 0.930 . S
H358 C372 0.929 . S
H359 C339 0.931 . S
H360 C345 0.931 . S
H361 C346 0.931 . S
H362 C367 0.931 . S
H363 C342 0.929 . S
H364 C375 0.930 . S
N365 Eu336 2.600 . S
N365 C366 1.365 . S
N365 C369 1.319 . S
C366 N365 1.365 . S
C366 C368 1.405 . S
C366 C374 1.448 . S
C367 H362 0.931 . S
C367 C369 1.397 . S
C367 C370 1.367 . S
C368 C366 1.405 . S
C368 C370 1.403 . S
C368 C401 1.439 . S
C369 H354 0.930 . S
C369 N365 1.319 . S
C369 C367 1.397 . S
C370 C367 1.367 . S
C370 C368 1.403 . S
C370 H377 0.929 . S
N371 Eu336 2.562 . S
N371 C372 1.325 . S
N371 C374 1.351 . S
C372 H358 0.929 . S
C372 N371 1.325 . S
C372 C376 1.416 . S
C373 C374 1.430 . S
C373 C375 1.404 . S
C373 C402 1.387 . S
C374 C366 1.448 . S
C374 N371 1.351 . S
C374 C373 1.430 . S
C375 H364 0.930 . S
C375 C373 1.404 . S
C375 C376 1.366 . S
C376 H355 0.930 . S
C376 C372 1.416 . S
C376 C375 1.366 . S
H377 C370 0.929 . S
H378 C401 0.931 . S
H379 C402 0.931 . S
O380 Eu336 2.462 . S
O380 C400 1.252 . S
O381 Eu336 2.373 . S
O381 C392 1.249 . S
O382 Eu347 2.335 . S
O382 C392 1.264 . S
O383 Eu336 2.432 . S
O383 C400 1.268 . S
O384 Eu336 2.291 . S
O384 C399 1.255 . S
O385 Eu347 2.372 . S
O385 C399 1.257 . S
O386 Eu347 2.462 . S
O386 C411 1.252 . S
O387 Eu347 2.373 . S
O387 C403 1.249 . S
O388 Eu336 2.335 . S
O388 C403 1.264 . S
O389 Eu347 2.432 . S
O389 C411 1.268 . S
O390 Eu347 2.291 . S
O390 C410 1.255 . S
O391 Eu336 2.372 . S
O391 C410 1.257 . S
C392 O381 1.249 . S
C392 O382 1.264 . S
C393 C396 1.382 . S
C393 C398 1.390 . S
C393 C400 1.506 . S
C394 C395 1.398 . S
C394 C398 1.392 . S
C395 C394 1.398 . S
C395 C397 1.372 . S
C395 H412 0.931 . S
C396 C393 1.382 . S
C396 C397 1.390 . S
C396 H413 0.931 . S
C397 C395 1.372 . S
C397 C396 1.390 . S
C397 H414 0.929 . S
C398 C393 1.390 . S
C398 C394 1.392 . S
C398 H415 0.930 . S
C399 O384 1.255 . S
C399 O385 1.257 . S
C400 Eu336 2.787 . S
C400 O380 1.252 . S
C400 O383 1.268 . S
C400 C393 1.506 . S
C401 C368 1.439 . S
C401 H378 0.931 . S
C401 C402 1.374 . S
C402 C373 1.387 . S
C402 H379 0.931 . S
C402 C401 1.374 . S
C403 O387 1.249 . S
C403 O388 1.264 . S
C404 C407 1.382 . S
C404 C408 1.390 . S
C404 C411 1.506 . S
C405 C406 1.398 . S
C405 C408 1.392 . S
C406 C405 1.398 . S
C406 C409 1.372 . S
C406 H416 0.931 . S
C407 C404 1.382 . S
C407 C409 1.390 . S
C407 H417 0.931 . S
C408 C404 1.390 . S
C408 C405 1.392 . S
C408 H418 0.930 . S
C409 C406 1.372 . S
C409 C407 1.390 . S
C409 H419 0.929 . S
C410 O390 1.255 . S
C410 O391 1.257 . S
C411 Eu347 2.787 . S
C411 O386 1.252 . S
C411 O389 1.268 . S
C411 C404 1.506 . S
H412 C395 0.931 . S
H413 C396 0.931 . S
H414 C397 0.929 . S
H415 C398 0.930 . S
H416 C406 0.931 . S
H417 C407 0.931 . S
H418 C408 0.930 . S
H419 C409 0.929 . S
Eu420 N449 2.600 . S
Eu420 N455 2.562 . S
Eu420 O464 2.462 . S
Eu420 O465 2.373 . S
Eu420 O467 2.432 . S
Eu420 O468 2.291 . S
Eu420 O472 2.335 . S
Eu420 O475 2.372 . S
Eu420 C484 2.787 . S
C421 N422 1.365 . S
C421 C424 1.405 . S
C421 C428 1.448 . S
N422 C421 1.365 . S
N422 C425 1.319 . S
N422 Eu431 2.600 . S
C423 C425 1.397 . S
C423 C426 1.367 . S
C423 H443 0.931 . S
C424 C421 1.405 . S
C424 C426 1.403 . S
C424 C430 1.439 . S
C425 N422 1.319 . S
C425 C423 1.397 . S
C425 H436 0.930 . S
C426 C423 1.367 . S
C426 C424 1.403 . S
C426 H447 0.929 . S
C427 C428 1.430 . S
C427 C429 1.387 . S
C427 C433 1.404 . S
C428 C421 1.448 . S
C428 C427 1.430 . S
C428 N432 1.351 . S
C429 C427 1.387 . S
C429 C430 1.374 . S
C429 H444 0.931 . S
C430 C424 1.439 . S
C430 C429 1.374 . S
C430 H445 0.931 . S
Eu431 N422 2.600 . S
Eu431 N432 2.562 . S
Eu431 O466 2.335 . S
Eu431 O469 2.372 . S
Eu431 O470 2.462 . S
Eu431 O471 2.373 . S
Eu431 O473 2.432 . S
Eu431 O474 2.291 . S
Eu431 C495 2.787 . S
N432 C428 1.351 . S
N432 Eu431 2.562 . S
N432 C434 1.325 . S
C433 C427 1.404 . S
C433 C435 1.366 . S
C433 H441 0.930 . S
C434 N432 1.325 . S
C434 C435 1.416 . S
C434 H440 0.929 . S
C435 C433 1.366 . S
C435 C434 1.416 . S
C435 H437 0.930 . S
H436 C425 0.930 . S
H437 C435 0.930 . S
H438 C453 0.930 . S
H439 C460 0.930 . S
H440 C434 0.929 . S
H441 C433 0.930 . S
H442 C456 0.929 . S
H443 C423 0.931 . S
H444 C429 0.931 . S
H445 C430 0.931 . S
H446 C451 0.931 . S
H447 C426 0.929 . S
H448 C459 0.930 . S
N449 Eu420 2.600 . S
N449 C450 1.365 . S
N449 C453 1.319 . S
C450 N449 1.365 . S
C450 C452 1.405 . S
C450 C458 1.448 . S
C451 H446 0.931 . S
C451 C453 1.397 . S
C451 C454 1.367 . S
C452 C450 1.405 . S
C452 C454 1.403 . S
C452 C485 1.439 . S
C453 H438 0.930 . S
C453 N449 1.319 . S
C453 C451 1.397 . S
C454 C451 1.367 . S
C454 C452 1.403 . S
C454 H461 0.929 . S
N455 Eu420 2.562 . S
N455 C456 1.325 . S
N455 C458 1.351 . S
C456 H442 0.929 . S
C456 N455 1.325 . S
C456 C460 1.416 . S
C457 C458 1.430 . S
C457 C459 1.404 . S
C457 C486 1.387 . S
C458 C450 1.448 . S
C458 N455 1.351 . S
C458 C457 1.430 . S
C459 H448 0.930 . S
C459 C457 1.404 . S
C459 C460 1.366 . S
C460 H439 0.930 . S
C460 C456 1.416 . S
C460 C459 1.366 . S
H461 C454 0.929 . S
H462 C485 0.931 . S
H463 C486 0.931 . S
O464 Eu420 2.462 . S
O464 C484 1.252 . S
O465 Eu420 2.373 . S
O465 C476 1.249 . S
O466 Eu431 2.335 . S
O466 C476 1.264 . S
O467 Eu420 2.432 . S
O467 C484 1.268 . S
O468 Eu420 2.291 . S
O468 C483 1.255 . S
O469 Eu431 2.372 . S
O469 C483 1.257 . S
O470 Eu431 2.462 . S
O470 C495 1.252 . S
O471 Eu431 2.373 . S
O471 C487 1.249 . S
O472 Eu420 2.335 . S
O472 C487 1.264 . S
O473 Eu431 2.432 . S
O473 C495 1.268 . S
O474 Eu431 2.291 . S
O474 C494 1.255 . S
O475 Eu420 2.372 . S
O475 C494 1.257 . S
C476 O465 1.249 . S
C476 O466 1.264 . S
C477 C480 1.382 . S
C477 C482 1.390 . S
C477 C484 1.506 . S
C478 C479 1.398 . S
C478 C482 1.392 . S
C479 C478 1.398 . S
C479 C481 1.372 . S
C479 H496 0.931 . S
C480 C477 1.382 . S
C480 C481 1.390 . S
C480 H497 0.931 . S
C481 C479 1.372 . S
C481 C480 1.390 . S
C481 H498 0.929 . S
C482 C477 1.390 . S
C482 C478 1.392 . S
C482 H499 0.930 . S
C483 O468 1.255 . S
C483 O469 1.257 . S
C484 Eu420 2.787 . S
C484 O464 1.252 . S
C484 O467 1.268 . S
C484 C477 1.506 . S
C485 C452 1.439 . S
C485 H462 0.931 . S
C485 C486 1.374 . S
C486 C457 1.387 . S
C486 H463 0.931 . S
C486 C485 1.374 . S
C487 O471 1.249 . S
C487 O472 1.264 . S
C488 C491 1.382 . S
C488 C492 1.390 . S
C488 C495 1.506 . S
C489 C490 1.398 . S
C489 C492 1.392 . S
C490 C489 1.398 . S
C490 C493 1.372 . S
C490 H500 0.931 . S
C491 C488 1.382 . S
C491 C493 1.390 . S
C491 H501 0.931 . S
C492 C488 1.390 . S
C492 C489 1.392 . S
C492 H502 0.930 . S
C493 C490 1.372 . S
C493 C491 1.390 . S
C493 H503 0.929 . S
C494 O474 1.255 . S
C494 O475 1.257 . S
C495 Eu431 2.787 . S
C495 O470 1.252 . S
C495 O473 1.268 . S
C495 C488 1.506 . S
H496 C479 0.931 . S
H497 C480 0.931 . S
H498 C481 0.929 . S
H499 C482 0.930 . S
H500 C490 0.931 . S
H501 C491 0.931 . S
H502 C492 0.930 . S
H503 C493 0.929 . S
Eu504 N533 2.600 . S
Eu504 N539 2.562 . S
Eu504 O548 2.462 . S
Eu504 O549 2.373 . S
Eu504 O551 2.432 . S
Eu504 O552 2.291 . S
Eu504 O556 2.335 . S
Eu504 O559 2.372 . S
Eu504 C568 2.787 . S
C505 N506 1.365 . S
C505 C508 1.405 . S
C505 C512 1.448 . S
N506 C505 1.365 . S
N506 C509 1.319 . S
N506 Eu515 2.600 . S
C507 C509 1.397 1_554 S
C507 C510 1.367 1_554 S
C507 H527 0.931 . S
C508 C505 1.405 . S
C508 C510 1.403 . S
C508 C514 1.439 . S
C509 N506 1.319 . S
C509 C507 1.397 1_556 S
C509 H520 0.930 1_556 S
C510 C507 1.367 1_556 S
C510 C508 1.403 . S
C510 H531 0.929 . S
C511 C512 1.430 . S
C511 C513 1.387 . S
C511 C517 1.404 . S
C512 C505 1.448 . S
C512 C511 1.430 . S
C512 N516 1.351 . S
C513 C511 1.387 . S
C513 C514 1.374 . S
C513 H528 0.931 . S
C514 C508 1.439 . S
C514 C513 1.374 . S
C514 H529 0.931 . S
Eu515 N506 2.600 . S
Eu515 N516 2.562 . S
Eu515 O550 2.335 . S
Eu515 O553 2.372 1_556 S
Eu515 O554 2.462 . S
Eu515 O555 2.373 . S
Eu515 O557 2.432 . S
Eu515 O558 2.291 . S
Eu515 C579 2.787 . S
N516 C512 1.351 . S
N516 Eu515 2.562 . S
N516 C518 1.325 . S
C517 C511 1.404 . S
C517 C519 1.366 . S
C517 H525 0.930 . S
C518 N516 1.325 . S
C518 C519 1.416 . S
C518 H524 0.929 . S
C519 C517 1.366 . S
C519 C518 1.416 . S
C519 H521 0.930 . S
H520 C509 0.930 1_554 S
H521 C519 0.930 . S
H522 C537 0.930 . S
H523 C544 0.930 . S
H524 C518 0.929 . S
H525 C517 0.930 . S
H526 C540 0.929 . S
H527 C507 0.931 . S
H528 C513 0.931 . S
H529 C514 0.931 . S
H530 C535 0.931 . S
H531 C510 0.929 . S
H532 C543 0.930 . S
N533 Eu504 2.600 . S
N533 C534 1.365 . S
N533 C537 1.319 . S
C534 N533 1.365 . S
C534 C536 1.405 . S
C534 C542 1.448 . S
C535 H530 0.931 . S
C535 C537 1.397 . S
C535 C538 1.367 . S
C536 C534 1.405 . S
C536 C538 1.403 . S
C536 C569 1.439 . S
C537 H522 0.930 . S
C537 N533 1.319 . S
C537 C535 1.397 . S
C538 C535 1.367 . S
C538 C536 1.403 . S
C538 H545 0.929 . S
N539 Eu504 2.562 . S
N539 C540 1.325 1_556 S
N539 C542 1.351 . S
C540 H526 0.929 . S
C540 N539 1.325 1_554 S
C540 C544 1.416 . S
C541 C542 1.430 1_554 S
C541 C543 1.404 . S
C541 C570 1.387 . S
C542 C534 1.448 . S
C542 N539 1.351 . S
C542 C541 1.430 1_556 S
C543 H532 0.930 . S
C543 C541 1.404 . S
C543 C544 1.366 . S
C544 H523 0.930 . S
C544 C540 1.416 . S
C544 C543 1.366 . S
H545 C538 0.929 . S
H546 C569 0.931 . S
H547 C570 0.931 . S
O548 Eu504 2.462 . S
O548 C568 1.252 . S
O549 Eu504 2.373 . S
O549 C560 1.249 . S
O550 Eu515 2.335 . S
O550 C560 1.264 . S
O551 Eu504 2.432 . S
O551 C568 1.268 . S
O552 Eu504 2.291 . S
O552 C567 1.255 1_556 S
O553 Eu515 2.372 1_554 S
O553 C567 1.257 . S
O554 Eu515 2.462 . S
O554 C579 1.252 . S
O555 Eu515 2.373 . S
O555 C571 1.249 . S
O556 Eu504 2.335 . S
O556 C571 1.264 . S
O557 Eu515 2.432 . S
O557 C579 1.268 . S
O558 Eu515 2.291 . S
O558 C578 1.255 . S
O559 Eu504 2.372 . S
O559 C578 1.257 . S
C560 O549 1.249 . S
C560 O550 1.264 . S
C561 C564 1.382 . S
C561 C566 1.390 . S
C561 C568 1.506 . S
C562 C563 1.398 . S
C562 C566 1.392 . S
C563 C562 1.398 . S
C563 C565 1.372 . S
C563 H580 0.931 . S
C564 C561 1.382 . S
C564 C565 1.390 . S
C564 H581 0.931 . S
C565 C563 1.372 . S
C565 C564 1.390 . S
C565 H582 0.929 . S
C566 C561 1.390 . S
C566 C562 1.392 . S
C566 H583 0.930 . S
C567 O552 1.255 1_554 S
C567 O553 1.257 . S
C568 Eu504 2.787 . S
C568 O548 1.252 . S
C568 O551 1.268 . S
C568 C561 1.506 . S
C569 C536 1.439 . S
C569 H546 0.931 . S
C569 C570 1.374 1_556 S
C570 C541 1.387 . S
C570 H547 0.931 . S
C570 C569 1.374 1_554 S
C571 O555 1.249 . S
C571 O556 1.264 . S
C572 C575 1.382 1_556 S
C572 C576 1.390 . S
C572 C579 1.506 . S
C573 C574 1.398 . S
C573 C576 1.392 . S
C574 C573 1.398 . S
C574 C577 1.372 1_556 S
C574 H584 0.931 . S
C575 C572 1.382 1_554 S
C575 C577 1.390 . S
C575 H585 0.931 . S
C576 C572 1.390 . S
C576 C573 1.392 . S
C576 H586 0.930 . S
C577 C574 1.372 1_554 S
C577 C575 1.390 . S
C577 H587 0.929 . S
C578 O558 1.255 . S
C578 O559 1.257 . S
C579 Eu515 2.787 . S
C579 O554 1.252 . S
C579 O557 1.268 . S
C579 C572 1.506 . S
H580 C563 0.931 . S
H581 C564 0.931 . S
H582 C565 0.929 . S
H583 C566 0.930 . S
H584 C574 0.931 . S
H585 C575 0.931 . S
H586 C576 0.930 . S
H587 C577 0.929 . S
Eu588 N617 2.600 . S
Eu588 N623 2.562 . S
Eu588 O632 2.462 . S
Eu588 O633 2.373 . S
Eu588 O635 2.432 . S
Eu588 O636 2.291 . S
Eu588 O640 2.335 . S
Eu588 O643 2.372 . S
Eu588 C652 2.787 . S
C589 N590 1.365 . S
C589 C592 1.405 . S
C589 C596 1.448 . S
N590 C589 1.365 . S
N590 C593 1.319 . S
N590 Eu599 2.600 . S
C591 C593 1.397 1_554 S
C591 C594 1.367 1_554 S
C591 H611 0.931 . S
C592 C589 1.405 . S
C592 C594 1.403 . S
C592 C598 1.439 . S
C593 N590 1.319 . S
C593 C591 1.397 1_556 S
C593 H604 0.930 1_556 S
C594 C591 1.367 1_556 S
C594 C592 1.403 . S
C594 H615 0.929 . S
C595 C596 1.430 . S
C595 C597 1.387 . S
C595 C601 1.404 . S
C596 C589 1.448 . S
C596 C595 1.430 . S
C596 N600 1.351 . S
C597 C595 1.387 . S
C597 C598 1.374 . S
C597 H612 0.931 . S
C598 C592 1.439 . S
C598 C597 1.374 . S
C598 H613 0.931 . S
Eu599 N590 2.600 . S
Eu599 N600 2.562 . S
Eu599 O634 2.335 . S
Eu599 O637 2.372 1_556 S
Eu599 O638 2.462 . S
Eu599 O639 2.373 . S
Eu599 O641 2.432 . S
Eu599 O642 2.291 . S
Eu599 C663 2.787 . S
N600 C596 1.351 . S
N600 Eu599 2.562 . S
N600 C602 1.325 . S
C601 C595 1.404 . S
C601 C603 1.366 . S
C601 H609 0.930 . S
C602 N600 1.325 . S
C602 C603 1.416 . S
C602 H608 0.929 . S
C603 C601 1.366 . S
C603 C602 1.416 . S
C603 H605 0.930 . S
H604 C593 0.930 1_554 S
H605 C603 0.930 . S
H606 C621 0.930 . S
H607 C628 0.930 . S
H608 C602 0.929 . S
H609 C601 0.930 . S
H610 C624 0.929 . S
H611 C591 0.931 . S
H612 C597 0.931 . S
H613 C598 0.931 . S
H614 C619 0.931 . S
H615 C594 0.929 . S
H616 C627 0.930 . S
N617 Eu588 2.600 . S
N617 C618 1.365 . S
N617 C621 1.319 . S
C618 N617 1.365 . S
C618 C620 1.405 . S
C618 C626 1.448 . S
C619 H614 0.931 . S
C619 C621 1.397 . S
C619 C622 1.367 . S
C620 C618 1.405 . S
C620 C622 1.403 . S
C620 C653 1.439 . S
C621 H606 0.930 . S
C621 N617 1.319 . S
C621 C619 1.397 . S
C622 C619 1.367 . S
C622 C620 1.403 . S
C622 H629 0.929 . S
N623 Eu588 2.562 . S
N623 C624 1.325 1_556 S
N623 C626 1.351 . S
C624 H610 0.929 . S
C624 N623 1.325 1_554 S
C624 C628 1.416 . S
C625 C626 1.430 1_554 S
C625 C627 1.404 . S
C625 C654 1.387 . S
C626 C618 1.448 . S
C626 N623 1.351 . S
C626 C625 1.430 1_556 S
C627 H616 0.930 . S
C627 C625 1.404 . S
C627 C628 1.366 . S
C628 H607 0.930 . S
C628 C624 1.416 . S
C628 C627 1.366 . S
H629 C622 0.929 . S
H630 C653 0.931 . S
H631 C654 0.931 . S
O632 Eu588 2.462 . S
O632 C652 1.252 . S
O633 Eu588 2.373 . S
O633 C644 1.249 . S
O634 Eu599 2.335 . S
O634 C644 1.264 . S
O635 Eu588 2.432 . S
O635 C652 1.268 . S
O636 Eu588 2.291 . S
O636 C651 1.255 1_556 S
O637 Eu599 2.372 1_554 S
O637 C651 1.257 . S
O638 Eu599 2.462 . S
O638 C663 1.252 . S
O639 Eu599 2.373 . S
O639 C655 1.249 . S
O640 Eu588 2.335 . S
O640 C655 1.264 . S
O641 Eu599 2.432 . S
O641 C663 1.268 . S
O642 Eu599 2.291 . S
O642 C662 1.255 . S
O643 Eu588 2.372 . S
O643 C662 1.257 . S
C644 O633 1.249 . S
C644 O634 1.264 . S
C645 C648 1.382 . S
C645 C650 1.390 . S
C645 C652 1.506 . S
C646 C647 1.398 . S
C646 C650 1.392 . S
C647 C646 1.398 . S
C647 C649 1.372 . S
C647 H664 0.931 . S
C648 C645 1.382 . S
C648 C649 1.390 . S
C648 H665 0.931 . S
C649 C647 1.372 . S
C649 C648 1.390 . S
C649 H666 0.929 . S
C650 C645 1.390 . S
C650 C646 1.392 . S
C650 H667 0.930 . S
C651 O636 1.255 1_554 S
C651 O637 1.257 . S
C652 Eu588 2.787 . S
C652 O632 1.252 . S
C652 O635 1.268 . S
C652 C645 1.506 . S
C653 C620 1.439 . S
C653 H630 0.931 . S
C653 C654 1.374 1_556 S
C654 C625 1.387 . S
C654 H631 0.931 . S
C654 C653 1.374 1_554 S
C655 O639 1.249 . S
C655 O640 1.264 . S
C656 C659 1.382 1_556 S
C656 C660 1.390 . S
C656 C663 1.506 . S
C657 C658 1.398 . S
C657 C660 1.392 . S
C658 C657 1.398 . S
C658 C661 1.372 1_556 S
C658 H668 0.931 . S
C659 C656 1.382 1_554 S
C659 C661 1.390 . S
C659 H669 0.931 . S
C660 C656 1.390 . S
C660 C657 1.392 . S
C660 H670 0.930 . S
C661 C658 1.372 1_554 S
C661 C659 1.390 . S
C661 H671 0.929 . S
C662 O642 1.255 . S
C662 O643 1.257 . S
C663 Eu599 2.787 . S
C663 O638 1.252 . S
C663 O641 1.268 . S
C663 C656 1.506 . S
H664 C647 0.931 . S
H665 C648 0.931 . S
H666 C649 0.929 . S
H667 C650 0.930 . S
H668 C658 0.931 . S
H669 C659 0.931 . S
H670 C660 0.930 . S
H671 C661 0.929 . S
Eu672 N701 2.600 . S
Eu672 N707 2.562 . S
Eu672 O716 2.462 . S
Eu672 O717 2.373 . S
Eu672 O719 2.432 . S
Eu672 O720 2.291 . S
Eu672 O724 2.335 . S
Eu672 O727 2.372 . S
Eu672 C736 2.787 . S
C673 N674 1.365 . S
C673 C676 1.405 . S
C673 C680 1.448 . S
N674 C673 1.365 . S
N674 C677 1.319 . S
N674 Eu683 2.600 . S
C675 C677 1.397 1_554 S
C675 C678 1.367 1_554 S
C675 H695 0.931 . S
C676 C673 1.405 . S
C676 C678 1.403 . S
C676 C682 1.439 . S
C677 N674 1.319 . S
C677 C675 1.397 1_556 S
C677 H688 0.930 1_556 S
C678 C675 1.367 1_556 S
C678 C676 1.403 . S
C678 H699 0.929 . S
C679 C680 1.430 . S
C679 C681 1.387 . S
C679 C685 1.404 . S
C680 C673 1.448 . S
C680 C679 1.430 . S
C680 N684 1.351 . S
C681 C679 1.387 . S
C681 C682 1.374 . S
C681 H696 0.931 . S
C682 C676 1.439 . S
C682 C681 1.374 . S
C682 H697 0.931 . S
Eu683 N674 2.600 . S
Eu683 N684 2.562 . S
Eu683 O718 2.335 . S
Eu683 O721 2.372 1_556 S
Eu683 O722 2.462 . S
Eu683 O723 2.373 . S
Eu683 O725 2.432 . S
Eu683 O726 2.291 . S
Eu683 C747 2.787 . S
N684 C680 1.351 . S
N684 Eu683 2.562 . S
N684 C686 1.325 . S
C685 C679 1.404 . S
C685 C687 1.366 . S
C685 H693 0.930 . S
C686 N684 1.325 . S
C686 C687 1.416 . S
C686 H692 0.929 . S
C687 C685 1.366 . S
C687 C686 1.416 . S
C687 H689 0.930 . S
H688 C677 0.930 1_554 S
H689 C687 0.930 . S
H690 C705 0.930 . S
H691 C712 0.930 . S
H692 C686 0.929 . S
H693 C685 0.930 . S
H694 C708 0.929 . S
H695 C675 0.931 . S
H696 C681 0.931 . S
H697 C682 0.931 . S
H698 C703 0.931 . S
H699 C678 0.929 . S
H700 C711 0.930 . S
N701 Eu672 2.600 . S
N701 C702 1.365 . S
N701 C705 1.319 . S
C702 N701 1.365 . S
C702 C704 1.405 . S
C702 C710 1.448 . S
C703 H698 0.931 . S
C703 C705 1.397 . S
C703 C706 1.367 . S
C704 C702 1.405 . S
C704 C706 1.403 . S
C704 C737 1.439 . S
C705 H690 0.930 . S
C705 N701 1.319 . S
C705 C703 1.397 . S
C706 C703 1.367 . S
C706 C704 1.403 . S
C706 H713 0.929 . S
N707 Eu672 2.562 . S
N707 C708 1.325 1_556 S
N707 C710 1.351 . S
C708 H694 0.929 . S
C708 N707 1.325 1_554 S
C708 C712 1.416 . S
C709 C710 1.430 1_554 S
C709 C711 1.404 . S
C709 C738 1.387 . S
C710 C702 1.448 . S
C710 N707 1.351 . S
C710 C709 1.430 1_556 S
C711 H700 0.930 . S
C711 C709 1.404 . S
C711 C712 1.366 . S
C712 H691 0.930 . S
C712 C708 1.416 . S
C712 C711 1.366 . S
H713 C706 0.929 . S
H714 C737 0.931 . S
H715 C738 0.931 . S
O716 Eu672 2.462 . S
O716 C736 1.252 . S
O717 Eu672 2.373 . S
O717 C728 1.249 . S
O718 Eu683 2.335 . S
O718 C728 1.264 . S
O719 Eu672 2.432 . S
O719 C736 1.268 . S
O720 Eu672 2.291 . S
O720 C735 1.255 1_556 S
O721 Eu683 2.372 1_554 S
O721 C735 1.257 . S
O722 Eu683 2.462 . S
O722 C747 1.252 . S
O723 Eu683 2.373 . S
O723 C739 1.249 . S
O724 Eu672 2.335 . S
O724 C739 1.264 . S
O725 Eu683 2.432 . S
O725 C747 1.268 . S
O726 Eu683 2.291 . S
O726 C746 1.255 . S
O727 Eu672 2.372 . S
O727 C746 1.257 . S
C728 O717 1.249 . S
C728 O718 1.264 . S
C729 C732 1.382 . S
C729 C734 1.390 . S
C729 C736 1.506 . S
C730 C731 1.398 . S
C730 C734 1.392 . S
C731 C730 1.398 . S
C731 C733 1.372 . S
C731 H748 0.931 . S
C732 C729 1.382 . S
C732 C733 1.390 . S
C732 H749 0.931 . S
C733 C731 1.372 . S
C733 C732 1.390 . S
C733 H750 0.929 . S
C734 C729 1.390 . S
C734 C730 1.392 . S
C734 H751 0.930 . S
C735 O720 1.255 1_554 S
C735 O721 1.257 . S
C736 Eu672 2.787 . S
C736 O716 1.252 . S
C736 O719 1.268 . S
C736 C729 1.506 . S
C737 C704 1.439 . S
C737 H714 0.931 . S
C737 C738 1.374 1_556 S
C738 C709 1.387 . S
C738 H715 0.931 . S
C738 C737 1.374 1_554 S
C739 O723 1.249 . S
C739 O724 1.264 . S
C740 C743 1.382 1_556 S
C740 C744 1.390 . S
C740 C747 1.506 . S
C741 C742 1.398 . S
C741 C744 1.392 . S
C742 C741 1.398 . S
C742 C745 1.372 1_556 S
C742 H752 0.931 . S
C743 C740 1.382 1_554 S
C743 C745 1.390 . S
C743 H753 0.931 . S
C744 C740 1.390 . S
C744 C741 1.392 . S
C744 H754 0.930 . S
C745 C742 1.372 1_554 S
C745 C743 1.390 . S
C745 H755 0.929 . S
C746 O726 1.255 . S
C746 O727 1.257 . S
C747 Eu683 2.787 . S
C747 O722 1.252 . S
C747 O725 1.268 . S
C747 C740 1.506 . S
H748 C731 0.931 . S
H749 C732 0.931 . S
H750 C733 0.929 . S
H751 C734 0.930 . S
H752 C742 0.931 . S
H753 C743 0.931 . S
H754 C744 0.930 . S
H755 C745 0.929 . S
Eu756 N785 2.600 . S
Eu756 N791 2.562 . S
Eu756 O800 2.462 . S
Eu756 O801 2.373 . S
Eu756 O803 2.432 . S
Eu756 O804 2.291 . S
Eu756 O808 2.335 . S
Eu756 O811 2.372 . S
Eu756 C820 2.787 . S
C757 N758 1.365 . S
C757 C760 1.405 . S
C757 C764 1.448 . S
N758 C757 1.365 . S
N758 C761 1.319 . S
N758 Eu767 2.600 . S
C759 C761 1.397 . S
C759 C762 1.367 . S
C759 H779 0.931 . S
C760 C757 1.405 . S
C760 C762 1.403 . S
C760 C766 1.439 . S
C761 N758 1.319 . S
C761 C759 1.397 . S
C761 H772 0.930 . S
C762 C759 1.367 . S
C762 C760 1.403 . S
C762 H783 0.929 . S
C763 C764 1.430 . S
C763 C765 1.387 . S
C763 C769 1.404 . S
C764 C757 1.448 . S
C764 C763 1.430 . S
C764 N768 1.351 . S
C765 C763 1.387 . S
C765 C766 1.374 . S
C765 H780 0.931 . S
C766 C760 1.439 . S
C766 C765 1.374 . S
C766 H781 0.931 . S
Eu767 N758 2.600 . S
Eu767 N768 2.562 . S
Eu767 O802 2.335 . S
Eu767 O805 2.372 . S
Eu767 O806 2.462 . S
Eu767 O807 2.373 . S
Eu767 O809 2.432 . S
Eu767 O810 2.291 . S
Eu767 C831 2.787 . S
N768 C764 1.351 . S
N768 Eu767 2.562 . S
N768 C770 1.325 . S
C769 C763 1.404 . S
C769 C771 1.366 . S
C769 H777 0.930 . S
C770 N768 1.325 . S
C770 C771 1.416 . S
C770 H776 0.929 . S
C771 C769 1.366 . S
C771 C770 1.416 . S
C771 H773 0.930 . S
H772 C761 0.930 . S
H773 C771 0.930 . S
H774 C789 0.930 . S
H775 C796 0.930 . S
H776 C770 0.929 . S
H777 C769 0.930 . S
H778 C792 0.929 . S
H779 C759 0.931 . S
H780 C765 0.931 . S
H781 C766 0.931 . S
H782 C787 0.931 . S
H783 C762 0.929 . S
H784 C795 0.930 . S
N785 Eu756 2.600 . S
N785 C786 1.365 . S
N785 C789 1.319 . S
C786 N785 1.365 . S
C786 C788 1.405 . S
C786 C794 1.448 . S
C787 H782 0.931 . S
C787 C789 1.397 . S
C787 C790 1.367 . S
C788 C786 1.405 . S
C788 C790 1.403 . S
C788 C821 1.439 . S
C789 H774 0.930 . S
C789 N785 1.319 . S
C789 C787 1.397 . S
C790 C787 1.367 . S
C790 C788 1.403 . S
C790 H797 0.929 . S
N791 Eu756 2.562 . S
N791 C792 1.325 . S
N791 C794 1.351 . S
C792 H778 0.929 . S
C792 N791 1.325 . S
C792 C796 1.416 . S
C793 C794 1.430 . S
C793 C795 1.404 . S
C793 C822 1.387 . S
C794 C786 1.448 . S
C794 N791 1.351 . S
C794 C793 1.430 . S
C795 H784 0.930 . S
C795 C793 1.404 . S
C795 C796 1.366 . S
C796 H775 0.930 . S
C796 C792 1.416 . S
C796 C795 1.366 . S
H797 C790 0.929 . S
H798 C821 0.931 . S
H799 C822 0.931 . S
O800 Eu756 2.462 . S
O800 C820 1.252 . S
O801 Eu756 2.373 . S
O801 C812 1.249 . S
O802 Eu767 2.335 . S
O802 C812 1.264 . S
O803 Eu756 2.432 . S
O803 C820 1.268 . S
O804 Eu756 2.291 . S
O804 C819 1.255 . S
O805 Eu767 2.372 . S
O805 C819 1.257 . S
O806 Eu767 2.462 . S
O806 C831 1.252 . S
O807 Eu767 2.373 . S
O807 C823 1.249 . S
O808 Eu756 2.335 . S
O808 C823 1.264 . S
O809 Eu767 2.432 . S
O809 C831 1.268 . S
O810 Eu767 2.291 . S
O810 C830 1.255 . S
O811 Eu756 2.372 . S
O811 C830 1.257 . S
C812 O801 1.249 . S
C812 O802 1.264 . S
C813 C816 1.382 . S
C813 C818 1.390 . S
C813 C820 1.506 . S
C814 C815 1.398 . S
C814 C818 1.392 . S
C815 C814 1.398 . S
C815 C817 1.372 . S
C815 H832 0.931 . S
C816 C813 1.382 . S
C816 C817 1.390 . S
C816 H833 0.931 . S
C817 C815 1.372 . S
C817 C816 1.390 . S
C817 H834 0.929 . S
C818 C813 1.390 . S
C818 C814 1.392 . S
C818 H835 0.930 . S
C819 O804 1.255 . S
C819 O805 1.257 . S
C820 Eu756 2.787 . S
C820 O800 1.252 . S
C820 O803 1.268 . S
C820 C813 1.506 . S
C821 C788 1.439 . S
C821 H798 0.931 . S
C821 C822 1.374 . S
C822 C793 1.387 . S
C822 H799 0.931 . S
C822 C821 1.374 . S
C823 O807 1.249 . S
C823 O808 1.264 . S
C824 C827 1.382 . S
C824 C828 1.390 . S
C824 C831 1.506 . S
C825 C826 1.398 . S
C825 C828 1.392 . S
C826 C825 1.398 . S
C826 C829 1.372 . S
C826 H836 0.931 . S
C827 C824 1.382 . S
C827 C829 1.390 . S
C827 H837 0.931 . S
C828 C824 1.390 . S
C828 C825 1.392 . S
C828 H838 0.930 . S
C829 C826 1.372 . S
C829 C827 1.390 . S
C829 H839 0.929 . S
C830 O810 1.255 . S
C830 O811 1.257 . S
C831 Eu767 2.787 . S
C831 O806 1.252 . S
C831 O809 1.268 . S
C831 C824 1.506 . S
H832 C815 0.931 . S
H833 C816 0.931 . S
H834 C817 0.929 . S
H835 C818 0.930 . S
H836 C826 0.931 . S
H837 C827 0.931 . S
H838 C828 0.930 . S
H839 C829 0.929 . S
Eu840 N869 2.600 . S
Eu840 N875 2.562 . S
Eu840 O884 2.462 . S
Eu840 O885 2.373 . S
Eu840 O887 2.432 . S
Eu840 O888 2.291 . S
Eu840 O892 2.335 . S
Eu840 O895 2.372 . S
Eu840 C904 2.787 . S
C841 N842 1.365 . S
C841 C844 1.405 . S
C841 C848 1.448 . S
N842 C841 1.365 . S
N842 C845 1.319 . S
N842 Eu851 2.600 . S
C843 C845 1.397 . S
C843 C846 1.367 . S
C843 H863 0.931 . S
C844 C841 1.405 . S
C844 C846 1.403 . S
C844 C850 1.439 . S
C845 N842 1.319 . S
C845 C843 1.397 . S
C845 H856 0.930 . S
C846 C843 1.367 . S
C846 C844 1.403 . S
C846 H867 0.929 . S
C847 C848 1.430 . S
C847 C849 1.387 . S
C847 C853 1.404 . S
C848 C841 1.448 . S
C848 C847 1.430 . S
C848 N852 1.351 . S
C849 C847 1.387 . S
C849 C850 1.374 . S
C849 H864 0.931 . S
C850 C844 1.439 . S
C850 C849 1.374 . S
C850 H865 0.931 . S
Eu851 N842 2.600 . S
Eu851 N852 2.562 . S
Eu851 O886 2.335 . S
Eu851 O889 2.372 . S
Eu851 O890 2.462 . S
Eu851 O891 2.373 . S
Eu851 O893 2.432 . S
Eu851 O894 2.291 . S
Eu851 C915 2.787 . S
N852 C848 1.351 . S
N852 Eu851 2.562 . S
N852 C854 1.325 . S
C853 C847 1.404 . S
C853 C855 1.366 . S
C853 H861 0.930 . S
C854 N852 1.325 . S
C854 C855 1.416 . S
C854 H860 0.929 . S
C855 C853 1.366 . S
C855 C854 1.416 . S
C855 H857 0.930 . S
H856 C845 0.930 . S
H857 C855 0.930 . S
H858 C873 0.930 . S
H859 C880 0.930 . S
H860 C854 0.929 . S
H861 C853 0.930 . S
H862 C876 0.929 . S
H863 C843 0.931 . S
H864 C849 0.931 . S
H865 C850 0.931 . S
H866 C871 0.931 . S
H867 C846 0.929 . S
H868 C879 0.930 . S
N869 Eu840 2.600 . S
N869 C870 1.365 . S
N869 C873 1.319 . S
C870 N869 1.365 . S
C870 C872 1.405 . S
C870 C878 1.448 . S
C871 H866 0.931 . S
C871 C873 1.397 . S
C871 C874 1.367 . S
C872 C870 1.405 . S
C872 C874 1.403 . S
C872 C905 1.439 . S
C873 H858 0.930 . S
C873 N869 1.319 . S
C873 C871 1.397 . S
C874 C871 1.367 . S
C874 C872 1.403 . S
C874 H881 0.929 . S
N875 Eu840 2.562 . S
N875 C876 1.325 . S
N875 C878 1.351 . S
C876 H862 0.929 . S
C876 N875 1.325 . S
C876 C880 1.416 . S
C877 C878 1.430 . S
C877 C879 1.404 . S
C877 C906 1.387 . S
C878 C870 1.448 . S
C878 N875 1.351 . S
C878 C877 1.430 . S
C879 H868 0.930 . S
C879 C877 1.404 . S
C879 C880 1.366 . S
C880 H859 0.930 . S
C880 C876 1.416 . S
C880 C879 1.366 . S
H881 C874 0.929 . S
H882 C905 0.931 . S
H883 C906 0.931 . S
O884 Eu840 2.462 . S
O884 C904 1.252 . S
O885 Eu840 2.373 . S
O885 C896 1.249 . S
O886 Eu851 2.335 . S
O886 C896 1.264 . S
O887 Eu840 2.432 . S
O887 C904 1.268 . S
O888 Eu840 2.291 . S
O888 C903 1.255 . S
O889 Eu851 2.372 . S
O889 C903 1.257 . S
O890 Eu851 2.462 . S
O890 C915 1.252 . S
O891 Eu851 2.373 . S
O891 C907 1.249 . S
O892 Eu840 2.335 . S
O892 C907 1.264 . S
O893 Eu851 2.432 . S
O893 C915 1.268 . S
O894 Eu851 2.291 . S
O894 C914 1.255 . S
O895 Eu840 2.372 . S
O895 C914 1.257 . S
C896 O885 1.249 . S
C896 O886 1.264 . S
C897 C900 1.382 . S
C897 C902 1.390 . S
C897 C904 1.506 . S
C898 C899 1.398 . S
C898 C902 1.392 . S
C899 C898 1.398 . S
C899 C901 1.372 . S
C899 H916 0.931 . S
C900 C897 1.382 . S
C900 C901 1.390 . S
C900 H917 0.931 . S
C901 C899 1.372 . S
C901 C900 1.390 . S
C901 H918 0.929 . S
C902 C897 1.390 . S
C902 C898 1.392 . S
C902 H919 0.930 . S
C903 O888 1.255 . S
C903 O889 1.257 . S
C904 Eu840 2.787 . S
C904 O884 1.252 . S
C904 O887 1.268 . S
C904 C897 1.506 . S
C905 C872 1.439 . S
C905 H882 0.931 . S
C905 C906 1.374 . S
C906 C877 1.387 . S
C906 H883 0.931 . S
C906 C905 1.374 . S
C907 O891 1.249 . S
C907 O892 1.264 . S
C908 C911 1.382 . S
C908 C912 1.390 . S
C908 C915 1.506 . S
C909 C910 1.398 . S
C909 C912 1.392 . S
C910 C909 1.398 . S
C910 C913 1.372 . S
C910 H920 0.931 . S
C911 C908 1.382 . S
C911 C913 1.390 . S
C911 H921 0.931 . S
C912 C908 1.390 . S
C912 C909 1.392 . S
C912 H922 0.930 . S
C913 C910 1.372 . S
C913 C911 1.390 . S
C913 H923 0.929 . S
C914 O894 1.255 . S
C914 O895 1.257 . S
C915 Eu851 2.787 . S
C915 O890 1.252 . S
C915 O893 1.268 . S
C915 C908 1.506 . S
H916 C899 0.931 . S
H917 C900 0.931 . S
H918 C901 0.929 . S
H919 C902 0.930 . S
H920 C910 0.931 . S
H921 C911 0.931 . S
H922 C912 0.930 . S
H923 C913 0.929 . S
Eu924 N953 2.600 . S
Eu924 N959 2.562 . S
Eu924 O968 2.462 . S
Eu924 O969 2.373 . S
Eu924 O971 2.432 . S
Eu924 O972 2.291 . S
Eu924 O976 2.335 . S
Eu924 O979 2.372 . S
Eu924 C988 2.787 . S
C925 N926 1.365 . S
C925 C928 1.405 . S
C925 C932 1.448 . S
N926 C925 1.365 . S
N926 C929 1.319 . S
N926 Eu935 2.600 . S
C927 C929 1.397 . S
C927 C930 1.367 . S
C927 H947 0.931 . S
C928 C925 1.405 . S
C928 C930 1.403 . S
C928 C934 1.439 . S
C929 N926 1.319 . S
C929 C927 1.397 . S
C929 H940 0.930 . S
C930 C927 1.367 . S
C930 C928 1.403 . S
C930 H951 0.929 . S
C931 C932 1.430 . S
C931 C933 1.387 . S
C931 C937 1.404 . S
C932 C925 1.448 . S
C932 C931 1.430 . S
C932 N936 1.351 . S
C933 C931 1.387 . S
C933 C934 1.374 . S
C933 H948 0.931 . S
C934 C928 1.439 . S
C934 C933 1.374 . S
C934 H949 0.931 . S
Eu935 N926 2.600 . S
Eu935 N936 2.562 . S
Eu935 O970 2.335 . S
Eu935 O973 2.372 . S
Eu935 O974 2.462 . S
Eu935 O975 2.373 . S
Eu935 O977 2.432 . S
Eu935 O978 2.291 . S
Eu935 C999 2.787 . S
N936 C932 1.351 . S
N936 Eu935 2.562 . S
N936 C938 1.325 . S
C937 C931 1.404 . S
C937 C939 1.366 . S
C937 H945 0.930 . S
C938 N936 1.325 . S
C938 C939 1.416 . S
C938 H944 0.929 . S
C939 C937 1.366 . S
C939 C938 1.416 . S
C939 H941 0.930 . S
H940 C929 0.930 . S
H941 C939 0.930 . S
H942 C957 0.930 . S
H943 C964 0.930 . S
H944 C938 0.929 . S
H945 C937 0.930 . S
H946 C960 0.929 . S
H947 C927 0.931 . S
H948 C933 0.931 . S
H949 C934 0.931 . S
H950 C955 0.931 . S
H951 C930 0.929 . S
H952 C963 0.930 . S
N953 Eu924 2.600 . S
N953 C954 1.365 . S
N953 C957 1.319 . S
C954 N953 1.365 . S
C954 C956 1.405 . S
C954 C962 1.448 . S
C955 H950 0.931 . S
C955 C957 1.397 . S
C955 C958 1.367 . S
C956 C954 1.405 . S
C956 C958 1.403 . S
C956 C989 1.439 . S
C957 H942 0.930 . S
C957 N953 1.319 . S
C957 C955 1.397 . S
C958 C955 1.367 . S
C958 C956 1.403 . S
C958 H965 0.929 . S
N959 Eu924 2.562 . S
N959 C960 1.325 . S
N959 C962 1.351 . S
C960 H946 0.929 . S
C960 N959 1.325 . S
C960 C964 1.416 . S
C961 C962 1.430 . S
C961 C963 1.404 . S
C961 C990 1.387 . S
C962 C954 1.448 . S
C962 N959 1.351 . S
C962 C961 1.430 . S
C963 H952 0.930 . S
C963 C961 1.404 . S
C963 C964 1.366 . S
C964 H943 0.930 . S
C964 C960 1.416 . S
C964 C963 1.366 . S
H965 C958 0.929 . S
H966 C989 0.931 . S
H967 C990 0.931 . S
O968 Eu924 2.462 . S
O968 C988 1.252 . S
O969 Eu924 2.373 . S
O969 C980 1.249 . S
O970 Eu935 2.335 . S
O970 C980 1.264 . S
O971 Eu924 2.432 . S
O971 C988 1.268 . S
O972 Eu924 2.291 . S
O972 C987 1.255 . S
O973 Eu935 2.372 . S
O973 C987 1.257 . S
O974 Eu935 2.462 . S
O974 C999 1.252 . S
O975 Eu935 2.373 . S
O975 C991 1.249 . S
O976 Eu924 2.335 . S
O976 C991 1.264 . S
O977 Eu935 2.432 . S
O977 C999 1.268 . S
O978 Eu935 2.291 . S
O978 C998 1.255 . S
O979 Eu924 2.372 . S
O979 C998 1.257 . S
C980 O969 1.249 . S
C980 O970 1.264 . S
C981 C984 1.382 . S
C981 C986 1.390 . S
C981 C988 1.506 . S
C982 C983 1.398 . S
C982 C986 1.392 . S
C983 C982 1.398 . S
C983 C985 1.372 . S
C983 H1000 0.931 . S
C984 C981 1.382 . S
C984 C985 1.390 . S
C984 H1001 0.931 . S
C985 C983 1.372 . S
C985 C984 1.390 . S
C985 H1002 0.929 . S
C986 C981 1.390 . S
C986 C982 1.392 . S
C986 H1003 0.930 . S
C987 O972 1.255 . S
C987 O973 1.257 . S
C988 Eu924 2.787 . S
C988 O968 1.252 . S
C988 O971 1.268 . S
C988 C981 1.506 . S
C989 C956 1.439 . S
C989 H966 0.931 . S
C989 C990 1.374 . S
C990 C961 1.387 . S
C990 H967 0.931 . S
C990 C989 1.374 . S
C991 O975 1.249 . S
C991 O976 1.264 . S
C992 C995 1.382 . S
C992 C996 1.390 . S
C992 C999 1.506 . S
C993 C994 1.398 . S
C993 C996 1.392 . S
C994 C993 1.398 . S
C994 C997 1.372 . S
C994 H1004 0.931 . S
C995 C992 1.382 . S
C995 C997 1.390 . S
C995 H1005 0.931 . S
C996 C992 1.390 . S
C996 C993 1.392 . S
C996 H1006 0.930 . S
C997 C994 1.372 . S
C997 C995 1.390 . S
C997 H1007 0.929 . S
C998 O978 1.255 . S
C998 O979 1.257 . S
C999 Eu935 2.787 . S
C999 O974 1.252 . S
C999 O977 1.268 . S
C999 C992 1.506 . S
H1000 C983 0.931 . S
H1001 C984 0.931 . S
H1002 C985 0.929 . S
H1003 C986 0.930 . S
H1004 C994 0.931 . S
H1005 C995 0.931 . S
H1006 C996 0.930 . S
H1007 C997 0.929 . S
H1008 C1016 0.950 . S
H1009 C1021 0.950 . S
H1010 C1018 0.950 1_556 S
H1011 C1020 0.950 . S
H1012 C1022 0.950 . S
H1013 C1024 0.950 1_554 S
H1014 C1026 0.950 . S
H1015 C1027 0.950 . S
C1016 H1008 0.950 . S
C1016 C1017 1.386 . S
C1016 C1018 1.391 . S
C1017 C1016 1.386 . S
C1017 C1021 1.393 1_455 S
C1018 H1010 0.950 1_554 S
C1018 C1016 1.391 . S
C1018 C1019 1.400 . S
C1019 C1018 1.400 . S
C1019 C1020 1.398 1_455 S
C1019 C1025 1.491 1_454 S
C1020 H1011 0.950 . S
C1020 C1019 1.398 1_655 S
C1020 C1021 1.391 . S
C1021 H1009 0.950 . S
C1021 C1017 1.393 1_655 S
C1021 C1020 1.391 . S
C1022 H1012 0.950 . S
C1022 C1023 1.386 . S
C1022 C1024 1.391 . S
C1023 C1022 1.386 . S
C1023 C1027 1.393 1_655 S
C1024 H1013 0.950 1_556 S
C1024 C1022 1.391 . S
C1024 C1025 1.400 . S
C1025 C1019 1.491 1_656 S
C1025 C1024 1.400 . S
C1025 C1026 1.398 1_655 S
C1026 H1014 0.950 . S
C1026 C1025 1.398 1_455 S
C1026 C1027 1.391 . S
C1027 H1015 0.950 . S
C1027 C1023 1.393 1_455 S
C1027 C1026 1.391 . S
H1028 C1036 0.950 . S
H1029 C1041 0.950 . S
H1030 C1038 0.950 . S
H1031 C1040 0.950 1_554 S
H1032 C1042 0.950 . S
H1033 C1044 0.950 . S
H1034 C1046 0.950 1_556 S
H1035 C1047 0.950 . S
C1036 H1028 0.950 . S
C1036 C1037 1.386 . S
C1036 C1038 1.391 . S
C1037 C1036 1.386 . S
C1037 C1041 1.393 . S
C1038 H1030 0.950 . S
C1038 C1036 1.391 . S
C1038 C1039 1.400 . S
C1039 C1038 1.400 . S
C1039 C1040 1.398 . S
C1039 C1045 1.491 1_556 S
C1040 H1031 0.950 1_556 S
C1040 C1039 1.398 . S
C1040 C1041 1.391 . S
C1041 H1029 0.950 . S
C1041 C1037 1.393 . S
C1041 C1040 1.391 . S
C1042 H1032 0.950 . S
C1042 C1043 1.386 . S
C1042 C1044 1.391 . S
C1043 C1042 1.386 . S
C1043 C1047 1.393 . S
C1044 H1033 0.950 . S
C1044 C1042 1.391 . S
C1044 C1045 1.400 . S
C1045 C1039 1.491 1_554 S
C1045 C1044 1.400 . S
C1045 C1046 1.398 . S
C1046 H1034 0.950 1_554 S
C1046 C1045 1.398 . S
C1046 C1047 1.391 . S
C1047 H1035 0.950 . S
C1047 C1043 1.393 . S
C1047 C1046 1.391 . S
H1048 C1056 0.950 . S
H1049 C1061 0.950 . S
H1050 C1058 0.950 . S
H1051 C1060 0.950 1_554 S
H1052 C1062 0.950 . S
H1053 C1064 0.950 . S
H1054 C1066 0.950 1_556 S
H1055 C1067 0.950 . S
C1056 H1048 0.950 . S
C1056 C1057 1.386 . S
C1056 C1058 1.391 . S
C1057 C1056 1.386 . S
C1057 C1061 1.393 1_545 S
C1058 H1050 0.950 . S
C1058 C1056 1.391 . S
C1058 C1059 1.400 . S
C1059 C1058 1.400 . S
C1059 C1060 1.398 1_545 S
C1059 C1065 1.491 1_546 S
C1060 H1051 0.950 1_556 S
C1060 C1059 1.398 1_565 S
C1060 C1061 1.391 . S
C1061 H1049 0.950 . S
C1061 C1057 1.393 1_565 S
C1061 C1060 1.391 . S
C1062 H1052 0.950 . S
C1062 C1063 1.386 . S
C1062 C1064 1.391 . S
C1063 C1062 1.386 . S
C1063 C1067 1.393 1_565 S
C1064 H1053 0.950 . S
C1064 C1062 1.391 . S
C1064 C1065 1.400 . S
C1065 C1059 1.491 1_564 S
C1065 C1064 1.400 . S
C1065 C1066 1.398 1_565 S
C1066 H1054 0.950 1_554 S
C1066 C1065 1.398 1_545 S
C1066 C1067 1.391 . S
C1067 H1055 0.950 . S
C1067 C1063 1.393 1_545 S
C1067 C1066 1.391 . S
H1068 C1076 0.950 . S
H1069 C1081 0.950 . S
H1070 C1078 0.928 1_565 S
H1071 C1080 0.950 . S
H1072 C1082 0.950 . S
H1073 C1084 0.928 1_545 S
H1074 C1086 0.950 . S
H1075 C1087 0.950 . S
C1076 H1068 0.950 . S
C1076 C1077 1.386 . S
C1076 C1078 1.412 . S
C1077 C1076 1.386 . S
C1077 C1081 1.393 . S
C1078 H1070 0.928 1_545 S
C1078 C1076 1.412 . S
C1078 C1079 1.401 . S
C1079 C1078 1.401 . S
C1079 C1080 1.398 . S
C1079 C1085 1.491 1_545 S
C1080 H1071 0.950 . S
C1080 C1079 1.398 . S
C1080 C1081 1.391 . S
C1081 H1069 0.950 . S
C1081 C1077 1.393 . S
C1081 C1080 1.391 . S
C1082 H1072 0.950 . S
C1082 C1083 1.386 . S
C1082 C1084 1.412 . S
C1083 C1082 1.386 . S
C1083 C1087 1.393 . S
C1084 H1073 0.928 1_565 S
C1084 C1082 1.412 . S
C1084 C1085 1.401 . S
C1085 C1079 1.491 1_565 S
C1085 C1084 1.401 . S
C1085 C1086 1.398 . S
C1086 H1074 0.950 . S
C1086 C1085 1.398 . S
C1086 C1087 1.391 . S
C1087 H1075 0.950 . S
C1087 C1083 1.393 . S
C1087 C1086 1.391 . S
H1088 C1096 0.950 1_655 S
H1089 C1101 0.950 . S
H1090 C1098 0.950 . S
H1091 C1100 0.950 . S
H1092 C1102 0.950 1_455 S
H1093 C1104 0.950 . S
H1094 C1106 0.950 . S
H1095 C1107 0.950 . S
C1096 H1088 0.950 1_455 S
C1096 C1097 1.386 . S
C1096 C1098 1.391 1_455 S
C1097 C1096 1.386 . S
C1097 C1101 1.393 . S
C1098 H1090 0.950 . S
C1098 C1096 1.391 1_655 S
C1098 C1099 1.400 1_655 S
C1099 C1098 1.400 1_455 S
C1099 C1100 1.398 . S
C1099 C1105 1.491 1_455 S
C1100 H1091 0.950 . S
C1100 C1099 1.398 . S
C1100 C1101 1.391 . S
C1101 H1089 0.950 . S
C1101 C1097 1.393 . S
C1101 C1100 1.391 . S
C1102 H1092 0.950 1_655 S
C1102 C1103 1.386 . S
C1102 C1104 1.391 1_655 S
C1103 C1102 1.386 . S
C1103 C1107 1.393 . S
C1104 H1093 0.950 . S
C1104 C1102 1.391 1_455 S
C1104 C1105 1.400 1_455 S
C1105 C1099 1.491 1_655 S
C1105 C1104 1.400 1_655 S
C1105 C1106 1.398 . S
C1106 H1094 0.950 . S
C1106 C1105 1.398 . S
C1106 C1107 1.391 . S
C1107 H1095 0.950 . S
C1107 C1103 1.393 . S
C1107 C1106 1.391 . S
H1108 C1116 0.950 . S
H1109 C1121 0.950 . S
H1110 C1118 0.950 . S
H1111 C1120 0.950 . S
H1112 C1122 0.950 . S
H1113 C1124 0.950 . S
H1114 C1126 0.950 . S
H1115 C1127 0.950 . S
C1116 H1108 0.950 . S
C1116 C1117 1.386 . S
C1116 C1118 1.391 . S
C1117 C1116 1.386 . S
C1117 C1121 1.393 . S
C1118 H1110 0.950 . S
C1118 C1116 1.391 . S
C1118 C1119 1.400 . S
C1119 C1118 1.400 . S
C1119 C1120 1.398 . S
C1119 C1125 1.491 . S
C1120 H1111 0.950 . S
C1120 C1119 1.398 . S
C1120 C1121 1.391 . S
C1121 H1109 0.950 . S
C1121 C1117 1.393 . S
C1121 C1120 1.391 . S
C1122 H1112 0.950 . S
C1122 C1123 1.386 . S
C1122 C1124 1.391 . S
C1123 C1122 1.386 . S
C1123 C1127 1.393 . S
C1124 H1113 0.950 . S
C1124 C1122 1.391 . S
C1124 C1125 1.400 . S
C1125 C1119 1.491 . S
C1125 C1124 1.400 . S
C1125 C1126 1.398 . S
C1126 H1114 0.950 . S
C1126 C1125 1.398 . S
C1126 C1127 1.391 . S
C1127 H1115 0.950 . S
C1127 C1123 1.393 . S
C1127 C1126 1.391 . S
H1128 C1136 0.950 . S
H1129 C1141 0.950 . S
H1130 C1138 0.950 . S
H1131 C1140 0.950 . S
H1132 C1142 0.950 . S
H1133 C1144 0.950 . S
H1134 C1146 0.950 . S
H1135 C1147 0.950 . S
C1136 H1128 0.950 . S
C1136 C1137 1.386 . S
C1136 C1138 1.391 . S
C1137 C1136 1.386 . S
C1137 C1141 1.393 . S
C1138 H1130 0.950 . S
C1138 C1136 1.391 . S
C1138 C1139 1.400 . S
C1139 C1138 1.400 . S
C1139 C1140 1.398 . S
C1139 C1145 1.491 1_655 S
C1140 H1131 0.950 . S
C1140 C1139 1.398 . S
C1140 C1141 1.391 . S
C1141 H1129 0.950 . S
C1141 C1137 1.393 . S
C1141 C1140 1.391 . S
C1142 H1132 0.950 . S
C1142 C1143 1.386 . S
C1142 C1144 1.391 . S
C1143 C1142 1.386 . S
C1143 C1147 1.393 . S
C1144 H1133 0.950 . S
C1144 C1142 1.391 . S
C1144 C1145 1.400 . S
C1145 C1139 1.491 1_455 S
C1145 C1144 1.400 . S
C1145 C1146 1.398 . S
C1146 H1134 0.950 . S
C1146 C1145 1.398 . S
C1146 C1147 1.391 . S
C1147 H1135 0.950 . S
C1147 C1143 1.393 . S
C1147 C1146 1.391 . S
H1148 C1156 0.950 . S
H1149 C1161 0.950 . S
H1150 C1158 0.950 . S
H1151 C1160 0.950 . S
H1152 C1162 0.950 . S
H1153 C1164 0.950 . S
H1154 C1166 0.950 . S
H1155 C1167 0.950 . S
C1156 H1148 0.950 . S
C1156 C1157 1.386 . S
C1156 C1158 1.391 . S
C1157 C1156 1.386 . S
C1157 C1161 1.393 . S
C1158 H1150 0.950 . S
C1158 C1156 1.391 . S
C1158 C1159 1.400 . S
C1159 C1158 1.400 . S
C1159 C1160 1.398 . S
C1159 C1165 1.491 . S
C1160 H1151 0.950 . S
C1160 C1159 1.398 . S
C1160 C1161 1.391 . S
C1161 H1149 0.950 . S
C1161 C1157 1.393 . S
C1161 C1160 1.391 . S
C1162 H1152 0.950 . S
C1162 C1163 1.386 . S
C1162 C1164 1.391 . S
C1163 C1162 1.386 . S
C1163 C1167 1.393 . S
C1164 H1153 0.950 . S
C1164 C1162 1.391 . S
C1164 C1165 1.400 . S
C1165 C1159 1.491 . S
C1165 C1164 1.400 . S
C1165 C1166 1.398 . S
C1166 H1154 0.950 . S
C1166 C1165 1.398 . S
C1166 C1167 1.391 . S
C1167 H1155 0.950 . S
C1167 C1163 1.393 . S
C1167 C1166 1.391 . S
H1168 C1176 0.950 . S
H1169 C1181 0.950 . S
H1170 C1178 0.950 . S
H1171 C1180 0.950 . S
H1172 C1182 0.950 . S
H1173 C1184 0.950 . S
H1174 C1186 0.950 . S
H1175 C1187 0.950 . S
C1176 H1168 0.950 . S
C1176 C1177 1.386 . S
C1176 C1178 1.391 . S
C1177 C1176 1.386 . S
C1177 C1181 1.393 . S
C1178 H1170 0.950 . S
C1178 C1176 1.391 . S
C1178 C1179 1.400 . S
C1179 C1178 1.400 . S
C1179 C1180 1.398 . S
C1179 C1185 1.491 1_545 S
C1180 H1171 0.950 . S
C1180 C1179 1.398 . S
C1180 C1181 1.391 . S
C1181 H1169 0.950 . S
C1181 C1177 1.393 . S
C1181 C1180 1.391 . S
C1182 H1172 0.950 . S
C1182 C1183 1.386 . S
C1182 C1184 1.391 . S
C1183 C1182 1.386 . S
C1183 C1187 1.393 . S
C1184 H1173 0.950 . S
C1184 C1182 1.391 . S
C1184 C1185 1.400 . S
C1185 C1179 1.491 1_565 S
C1185 C1184 1.400 . S
C1185 C1186 1.398 . S
C1186 H1174 0.950 . S
C1186 C1185 1.398 . S
C1186 C1187 1.391 . S
C1187 H1175 0.950 . S
C1187 C1183 1.393 . S
C1187 C1186 1.391 . S
H1188 C1196 0.950 . S
H1189 C1201 0.950 . S
H1190 C1198 0.950 . S
H1191 C1200 0.950 . S
H1192 C1202 0.950 . S
H1193 C1204 0.950 . S
H1194 C1206 0.950 . S
H1195 C1207 0.950 . S
C1196 H1188 0.950 . S
C1196 C1197 1.386 . S
C1196 C1198 1.391 . S
C1197 C1196 1.386 . S
C1197 C1201 1.393 . S
C1198 H1190 0.950 . S
C1198 C1196 1.391 . S
C1198 C1199 1.400 . S
C1199 C1198 1.400 . S
C1199 C1200 1.398 . S
C1199 C1205 1.491 1_455 S
C1200 H1191 0.950 . S
C1200 C1199 1.398 . S
C1200 C1201 1.391 . S
C1201 H1189 0.950 . S
C1201 C1197 1.393 . S
C1201 C1200 1.391 . S
C1202 H1192 0.950 . S
C1202 C1203 1.386 . S
C1202 C1204 1.391 . S
C1203 C1202 1.386 . S
C1203 C1207 1.393 . S
C1204 H1193 0.950 . S
C1204 C1202 1.391 . S
C1204 C1205 1.400 . S
C1205 C1199 1.491 1_655 S
C1205 C1204 1.400 . S
C1205 C1206 1.398 . S
C1206 H1194 0.950 . S
C1206 C1205 1.398 . S
C1206 C1207 1.391 . S
C1207 H1195 0.950 . S
C1207 C1203 1.393 . S
C1207 C1206 1.391 . S
H1208 C1216 0.950 . S
H1209 C1221 0.950 . S
H1210 C1218 0.950 . S
H1211 C1220 0.950 . S
H1212 C1222 0.950 . S
H1213 C1224 0.950 . S
H1214 C1226 0.950 . S
H1215 C1227 0.950 . S
C1216 H1208 0.950 . S
C1216 C1217 1.386 . S
C1216 C1218 1.391 . S
C1217 C1216 1.386 . S
C1217 C1221 1.393 . S
C1218 H1210 0.950 . S
C1218 C1216 1.391 . S
C1218 C1219 1.400 . S
C1219 C1218 1.400 . S
C1219 C1220 1.398 . S
C1219 C1225 1.491 . S
C1220 H1211 0.950 . S
C1220 C1219 1.398 . S
C1220 C1221 1.391 . S
C1221 H1209 0.950 . S
C1221 C1217 1.393 . S
C1221 C1220 1.391 . S
C1222 H1212 0.950 . S
C1222 C1223 1.386 . S
C1222 C1224 1.391 . S
C1223 C1222 1.386 . S
C1223 C1227 1.393 . S
C1224 H1213 0.950 . S
C1224 C1222 1.391 . S
C1224 C1225 1.400 . S
C1225 C1219 1.491 . S
C1225 C1224 1.400 . S
C1225 C1226 1.398 . S
C1226 H1214 0.950 . S
C1226 C1225 1.398 . S
C1226 C1227 1.391 . S
C1227 H1215 0.950 . S
C1227 C1223 1.393 . S
C1227 C1226 1.391 . S
H1228 C1236 0.950 . S
H1229 C1241 0.950 . S
H1230 C1238 0.950 . S
H1231 C1240 0.950 . S
H1232 C1242 0.950 . S
H1233 C1244 0.950 . S
H1234 C1246 0.950 . S
H1235 C1247 0.950 . S
C1236 H1228 0.950 . S
C1236 C1237 1.386 . S
C1236 C1238 1.391 . S
C1237 C1236 1.386 . S
C1237 C1241 1.393 . S
C1238 H1230 0.950 . S
C1238 C1236 1.391 . S
C1238 C1239 1.400 . S
C1239 C1238 1.400 . S
C1239 C1240 1.398 . S
C1239 C1245 1.491 1_545 S
C1240 H1231 0.950 . S
C1240 C1239 1.398 . S
C1240 C1241 1.391 . S
C1241 H1229 0.950 . S
C1241 C1237 1.393 . S
C1241 C1240 1.391 . S
C1242 H1232 0.950 . S
C1242 C1243 1.386 . S
C1242 C1244 1.391 . S
C1243 C1242 1.386 . S
C1243 C1247 1.393 . S
C1244 H1233 0.950 . S
C1244 C1242 1.391 . S
C1244 C1245 1.400 . S
C1245 C1239 1.491 1_565 S
C1245 C1244 1.400 . S
C1245 C1246 1.398 . S
C1246 H1234 0.950 . S
C1246 C1245 1.398 . S
C1246 C1247 1.391 . S
C1247 H1235 0.950 . S
C1247 C1243 1.393 . S
C1247 C1246 1.391 . S
H1248 C1256 0.950 . S
H1249 C1261 0.950 . S
H1250 C1258 0.950 . S
H1251 C1260 0.950 . S
H1252 C1262 0.950 . S
H1253 C1264 0.950 . S
H1254 C1266 0.950 . S
H1255 C1267 0.950 . S
C1256 H1248 0.950 . S
C1256 C1257 1.386 . S
C1256 C1258 1.391 . S
C1257 C1256 1.386 . S
C1257 C1261 1.393 . S
C1258 H1250 0.950 . S
C1258 C1256 1.391 . S
C1258 C1259 1.400 . S
C1259 C1258 1.400 . S
C1259 C1260 1.398 . S
C1259 C1265 1.491 . S
C1260 H1251 0.950 . S
C1260 C1259 1.398 . S
C1260 C1261 1.391 . S
C1261 H1249 0.950 . S
C1261 C1257 1.393 . S
C1261 C1260 1.391 . S
C1262 H1252 0.950 . S
C1262 C1263 1.386 . S
C1262 C1264 1.391 . S
C1263 C1262 1.386 . S
C1263 C1267 1.393 . S
C1264 H1253 0.950 . S
C1264 C1262 1.391 . S
C1264 C1265 1.400 . S
C1265 C1259 1.491 . S
C1265 C1264 1.400 . S
C1265 C1266 1.398 . S
C1266 H1254 0.950 . S
C1266 C1265 1.398 . S
C1266 C1267 1.391 . S
C1267 H1255 0.950 . S
C1267 C1263 1.393 . S
C1267 C1266 1.391 . S
H1268 C1276 0.950 . S
H1269 C1281 0.950 . S
H1270 C1278 0.950 . S
H1271 C1280 0.950 . S
H1272 C1282 0.950 . S
H1273 C1284 0.950 . S
H1274 C1286 0.950 . S
H1275 C1287 0.950 . S
C1276 H1268 0.950 . S
C1276 C1277 1.386 . S
C1276 C1278 1.391 . S
C1277 C1276 1.386 . S
C1277 C1281 1.393 . S
C1278 H1270 0.950 . S
C1278 C1276 1.391 . S
C1278 C1279 1.400 . S
C1279 C1278 1.400 . S
C1279 C1280 1.398 . S
C1279 C1285 1.491 . S
C1280 H1271 0.950 . S
C1280 C1279 1.398 . S
C1280 C1281 1.391 . S
C1281 H1269 0.950 . S
C1281 C1277 1.393 . S
C1281 C1280 1.391 . S
C1282 H1272 0.950 . S
C1282 C1283 1.386 . S
C1282 C1284 1.391 . S
C1283 C1282 1.386 . S
C1283 C1287 1.393 . S
C1284 H1273 0.950 . S
C1284 C1282 1.391 . S
C1284 C1285 1.400 . S
C1285 C1279 1.491 . S
C1285 C1284 1.400 . S
C1285 C1286 1.398 . S
C1286 H1274 0.950 . S
C1286 C1285 1.398 . S
C1286 C1287 1.391 . S
C1287 H1275 0.950 . S
C1287 C1283 1.393 . S
C1287 C1286 1.391 . S
H1288 C1296 0.950 . S
H1289 C1301 0.950 . S
H1290 C1298 0.950 . S
H1291 C1300 0.950 . S
H1292 C1302 0.950 . S
H1293 C1304 0.950 . S
H1294 C1306 0.950 . S
H1295 C1307 0.950 . S
C1296 H1288 0.950 . S
C1296 C1297 1.386 . S
C1296 C1298 1.391 . S
C1297 C1296 1.386 . S
C1297 C1301 1.393 . S
C1298 H1290 0.950 . S
C1298 C1296 1.391 . S
C1298 C1299 1.400 . S
C1299 C1298 1.400 . S
C1299 C1300 1.398 . S
C1299 C1305 1.491 . S
C1300 H1291 0.950 . S
C1300 C1299 1.398 . S
C1300 C1301 1.391 . S
C1301 H1289 0.950 . S
C1301 C1297 1.393 . S
C1301 C1300 1.391 . S
C1302 H1292 0.950 . S
C1302 C1303 1.386 . S
C1302 C1304 1.391 . S
C1303 C1302 1.386 . S
C1303 C1307 1.393 . S
C1304 H1293 0.950 . S
C1304 C1302 1.391 . S
C1304 C1305 1.400 . S
C1305 C1299 1.491 . S
C1305 C1304 1.400 . S
C1305 C1306 1.398 . S
C1306 H1294 0.950 . S
C1306 C1305 1.398 . S
C1306 C1307 1.391 . S
C1307 H1295 0.950 . S
C1307 C1303 1.393 . S
C1307 C1306 1.391 . S
H1308 C1316 0.950 . S
H1309 C1321 0.950 . S
H1310 C1318 0.950 . S
H1311 C1320 0.950 . S
H1312 C1322 0.950 . S
H1313 C1324 0.950 . S
H1314 C1326 0.950 . S
H1315 C1327 0.950 . S
C1316 H1308 0.950 . S
C1316 C1317 1.386 . S
C1316 C1318 1.391 . S
C1317 C1316 1.386 . S
C1317 C1321 1.393 . S
C1318 H1310 0.950 . S
C1318 C1316 1.391 . S
C1318 C1319 1.400 . S
C1319 C1318 1.400 . S
C1319 C1320 1.398 . S
C1319 C1325 1.491 . S
C1320 H1311 0.950 . S
C1320 C1319 1.398 . S
C1320 C1321 1.391 . S
C1321 H1309 0.950 . S
C1321 C1317 1.393 . S
C1321 C1320 1.391 . S
C1322 H1312 0.950 . S
C1322 C1323 1.386 . S
C1322 C1324 1.391 . S
C1323 C1322 1.386 . S
C1323 C1327 1.393 . S
C1324 H1313 0.950 . S
C1324 C1322 1.391 . S
C1324 C1325 1.400 . S
C1325 C1319 1.491 . S
C1325 C1324 1.400 . S
C1325 C1326 1.398 . S
C1326 H1314 0.950 . S
C1326 C1325 1.398 . S
C1326 C1327 1.391 . S
C1327 H1315 0.950 . S
C1327 C1323 1.393 . S
C1327 C1326 1.391 . S
H1328 C1336 0.950 . S
H1329 C1341 0.950 . S
H1330 C1338 0.950 . S
H1331 C1340 0.950 . S
H1332 C1342 0.950 . S
H1333 C1344 0.950 . S
H1334 C1346 0.950 . S
H1335 C1347 0.950 . S
C1336 H1328 0.950 . S
C1336 C1337 1.386 . S
C1336 C1338 1.391 . S
C1337 C1336 1.386 . S
C1337 C1341 1.393 . S
C1338 H1330 0.950 . S
C1338 C1336 1.391 . S
C1338 C1339 1.400 . S
C1339 C1338 1.400 . S
C1339 C1340 1.398 . S
C1339 C1345 1.491 . S
C1340 H1331 0.950 . S
C1340 C1339 1.398 . S
C1340 C1341 1.391 . S
C1341 H1329 0.950 . S
C1341 C1337 1.393 . S
C1341 C1340 1.391 . S
C1342 H1332 0.950 . S
C1342 C1343 1.386 . S
C1342 C1344 1.391 . S
C1343 C1342 1.386 . S
C1343 C1347 1.393 . S
C1344 H1333 0.950 . S
C1344 C1342 1.391 . S
C1344 C1345 1.400 . S
C1345 C1339 1.491 . S
C1345 C1344 1.400 . S
C1345 C1346 1.398 . S
C1346 H1334 0.950 . S
C1346 C1345 1.398 . S
C1346 C1347 1.391 . S
C1347 H1335 0.950 . S
C1347 C1343 1.393 . S
C1347 C1346 1.391 . S
H1348 C1356 0.950 . S
H1349 C1361 0.950 . S
H1350 C1358 0.950 . S
H1351 C1360 0.950 . S
H1352 C1362 0.950 . S
H1353 C1364 0.950 . S
H1354 C1366 0.950 . S
H1355 C1367 0.950 . S
C1356 H1348 0.950 . S
C1356 C1357 1.386 . S
C1356 C1358 1.391 . S
C1357 C1356 1.386 . S
C1357 C1361 1.393 . S
C1358 H1350 0.950 . S
C1358 C1356 1.391 . S
C1358 C1359 1.400 . S
C1359 C1358 1.400 . S
C1359 C1360 1.398 . S
C1359 C1365 1.491 . S
C1360 H1351 0.950 . S
C1360 C1359 1.398 . S
C1360 C1361 1.391 . S
C1361 H1349 0.950 . S
C1361 C1357 1.393 . S
C1361 C1360 1.391 . S
C1362 H1352 0.950 . S
C1362 C1363 1.386 . S
C1362 C1364 1.391 . S
C1363 C1362 1.386 . S
C1363 C1367 1.393 . S
C1364 H1353 0.950 . S
C1364 C1362 1.391 . S
C1364 C1365 1.400 . S
C1365 C1359 1.491 . S
C1365 C1364 1.400 . S
C1365 C1366 1.398 . S
C1366 H1354 0.950 . S
C1366 C1365 1.398 . S
C1366 C1367 1.391 . S
C1367 H1355 0.950 . S
C1367 C1363 1.393 . S
C1367 C1366 1.391 . S
H1368 C1376 0.950 . S
H1369 C1381 0.950 . S
H1370 C1378 0.950 . S
H1371 C1380 0.950 . S
H1372 C1382 0.950 . S
H1373 C1384 0.950 . S
H1374 C1386 0.950 . S
H1375 C1387 0.950 . S
C1376 H1368 0.950 . S
C1376 C1377 1.386 . S
C1376 C1378 1.391 . S
C1377 C1376 1.386 . S
C1377 C1381 1.393 . S
C1378 H1370 0.950 . S
C1378 C1376 1.391 . S
C1378 C1379 1.400 . S
C1379 C1378 1.400 . S
C1379 C1380 1.398 . S
C1379 C1385 1.491 . S
C1380 H1371 0.950 . S
C1380 C1379 1.398 . S
C1380 C1381 1.391 . S
C1381 H1369 0.950 . S
C1381 C1377 1.393 . S
C1381 C1380 1.391 . S
C1382 H1372 0.950 . S
C1382 C1383 1.386 . S
C1382 C1384 1.391 . S
C1383 C1382 1.386 . S
C1383 C1387 1.393 . S
C1384 H1373 0.950 . S
C1384 C1382 1.391 . S
C1384 C1385 1.400 . S
C1385 C1379 1.491 . S
C1385 C1384 1.400 . S
C1385 C1386 1.398 . S
C1386 H1374 0.950 . S
C1386 C1385 1.398 . S
C1386 C1387 1.391 . S
C1387 H1375 0.950 . S
C1387 C1383 1.393 . S
C1387 C1386 1.391 . S
H1388 C1396 0.950 . S
H1389 C1401 0.950 . S
H1390 C1398 0.950 . S
H1391 C1400 0.950 . S
H1392 C1402 0.950 . S
H1393 C1404 0.950 . S
H1394 C1406 0.950 . S
H1395 C1407 0.950 . S
C1396 H1388 0.950 . S
C1396 C1397 1.386 . S
C1396 C1398 1.391 . S
C1397 C1396 1.386 . S
C1397 C1401 1.393 . S
C1398 H1390 0.950 . S
C1398 C1396 1.391 . S
C1398 C1399 1.400 . S
C1399 C1398 1.400 . S
C1399 C1400 1.398 . S
C1399 C1405 1.491 . S
C1400 H1391 0.950 . S
C1400 C1399 1.398 . S
C1400 C1401 1.391 . S
C1401 H1389 0.950 . S
C1401 C1397 1.393 . S
C1401 C1400 1.391 . S
C1402 H1392 0.950 . S
C1402 C1403 1.386 . S
C1402 C1404 1.391 . S
C1403 C1402 1.386 . S
C1403 C1407 1.393 . S
C1404 H1393 0.950 . S
C1404 C1402 1.391 . S
C1404 C1405 1.400 . S
C1405 C1399 1.491 . S
C1405 C1404 1.400 . S
C1405 C1406 1.398 . S
C1406 H1394 0.950 . S
C1406 C1405 1.398 . S
C1406 C1407 1.391 . S
C1407 H1395 0.950 . S
C1407 C1403 1.393 . S
C1407 C1406 1.391 . S
H1408 C1416 0.950 . S
H1409 C1421 0.950 . S
H1410 C1418 0.950 . S
H1411 C1420 0.950 . S
H1412 C1422 0.950 . S
H1413 C1424 0.950 . S
H1414 C1426 0.950 . S
H1415 C1427 0.950 . S
C1416 H1408 0.950 . S
C1416 C1417 1.386 . S
C1416 C1418 1.391 . S
C1417 C1416 1.386 . S
C1417 C1421 1.393 . S
C1418 H1410 0.950 . S
C1418 C1416 1.391 . S
C1418 C1419 1.400 . S
C1419 C1418 1.400 . S
C1419 C1420 1.398 . S
C1419 C1425 1.491 . S
C1420 H1411 0.950 . S
C1420 C1419 1.398 . S
C1420 C1421 1.391 . S
C1421 H1409 0.950 . S
C1421 C1417 1.393 . S
C1421 C1420 1.391 . S
C1422 H1412 0.950 . S
C1422 C1423 1.386 . S
C1422 C1424 1.391 . S
C1423 C1422 1.386 . S
C1423 C1427 1.393 . S
C1424 H1413 0.950 . S
C1424 C1422 1.391 . S
C1424 C1425 1.400 . S
C1425 C1419 1.491 . S
C1425 C1424 1.400 . S
C1425 C1426 1.398 . S
C1426 H1414 0.950 . S
C1426 C1425 1.398 . S
C1426 C1427 1.391 . S
C1427 H1415 0.950 . S
C1427 C1423 1.393 . S
C1427 C1426 1.391 . S
H1428 C1436 0.950 . S
H1429 C1441 0.950 . S
H1430 C1438 0.950 . S
H1431 C1440 0.950 . S
H1432 C1442 0.950 . S
H1433 C1444 0.950 . S
H1434 C1446 0.950 . S
H1435 C1447 0.950 . S
C1436 H1428 0.950 . S
C1436 C1437 1.386 . S
C1436 C1438 1.391 . S
C1437 C1436 1.386 . S
C1437 C1441 1.393 . S
C1438 H1430 0.950 . S
C1438 C1436 1.391 . S
C1438 C1439 1.400 . S
C1439 C1438 1.400 . S
C1439 C1440 1.398 . S
C1439 C1445 1.491 . S
C1440 H1431 0.950 . S
C1440 C1439 1.398 . S
C1440 C1441 1.391 . S
C1441 H1429 0.950 . S
C1441 C1437 1.393 . S
C1441 C1440 1.391 . S
C1442 H1432 0.950 . S
C1442 C1443 1.386 . S
C1442 C1444 1.391 . S
C1443 C1442 1.386 . S
C1443 C1447 1.393 . S
C1444 H1433 0.950 . S
C1444 C1442 1.391 . S
C1444 C1445 1.400 . S
C1445 C1439 1.491 . S
C1445 C1444 1.400 . S
C1445 C1446 1.398 . S
C1446 H1434 0.950 . S
C1446 C1445 1.398 . S
C1446 C1447 1.391 . S
C1447 H1435 0.950 . S
C1447 C1443 1.393 . S
C1447 C1446 1.391 . S
H1448 C1456 0.950 . S
H1449 C1461 0.950 . S
H1450 C1458 0.950 . S
H1451 C1460 0.950 . S
H1452 C1462 0.950 . S
H1453 C1464 0.950 . S
H1454 C1466 0.950 . S
H1455 C1467 0.950 . S
C1456 H1448 0.950 . S
C1456 C1457 1.386 . S
C1456 C1458 1.391 . S
C1457 C1456 1.386 . S
C1457 C1461 1.393 . S
C1458 H1450 0.950 . S
C1458 C1456 1.391 . S
C1458 C1459 1.400 . S
C1459 C1458 1.400 . S
C1459 C1460 1.398 . S
C1459 C1465 1.491 . S
C1460 H1451 0.950 . S
C1460 C1459 1.398 . S
C1460 C1461 1.391 . S
C1461 H1449 0.950 . S
C1461 C1457 1.393 . S
C1461 C1460 1.391 . S
C1462 H1452 0.950 . S
C1462 C1463 1.386 . S
C1462 C1464 1.391 . S
C1463 C1462 1.386 . S
C1463 C1467 1.393 . S
C1464 H1453 0.950 . S
C1464 C1462 1.391 . S
C1464 C1465 1.400 . S
C1465 C1459 1.491 . S
C1465 C1464 1.400 . S
C1465 C1466 1.398 . S
C1466 H1454 0.950 . S
C1466 C1465 1.398 . S
C1466 C1467 1.391 . S
C1467 H1455 0.950 . S
C1467 C1463 1.393 . S
C1467 C1466 1.391 . S
H1468 C1476 0.950 . S
H1469 C1481 0.950 . S
H1470 C1478 0.950 . S
H1471 C1480 0.950 . S
H1472 C1482 0.950 . S
H1473 C1484 0.950 . S
H1474 C1486 0.950 . S
H1475 C1487 0.950 . S
C1476 H1468 0.950 . S
C1476 C1477 1.386 . S
C1476 C1478 1.391 . S
C1477 C1476 1.386 . S
C1477 C1481 1.393 . S
C1478 H1470 0.950 . S
C1478 C1476 1.391 . S
C1478 C1479 1.400 . S
C1479 C1478 1.400 . S
C1479 C1480 1.398 . S
C1479 C1485 1.491 . S
C1480 H1471 0.950 . S
C1480 C1479 1.398 . S
C1480 C1481 1.391 . S
C1481 H1469 0.950 . S
C1481 C1477 1.393 . S
C1481 C1480 1.391 . S
C1482 H1472 0.950 . S
C1482 C1483 1.386 . S
C1482 C1484 1.391 . S
C1483 C1482 1.386 . S
C1483 C1487 1.393 . S
C1484 H1473 0.950 . S
C1484 C1482 1.391 . S
C1484 C1485 1.400 . S
C1485 C1479 1.491 . S
C1485 C1484 1.400 . S
C1485 C1486 1.398 . S
C1486 H1474 0.950 . S
C1486 C1485 1.398 . S
C1486 C1487 1.391 . S
C1487 H1475 0.950 . S
C1487 C1483 1.393 . S
C1487 C1486 1.391 . S
H1488 C1496 0.950 . S
H1489 C1501 0.950 . S
H1490 C1498 0.950 . S
H1491 C1500 0.950 1_556 S
H1492 C1502 0.950 . S
H1493 C1504 0.950 . S
H1494 C1506 0.950 . S
H1495 C1507 0.950 . S
C1496 H1488 0.950 . S
C1496 C1497 1.386 . S
C1496 C1498 1.391 . S
C1497 C1496 1.386 . S
C1497 C1501 1.393 . S
C1498 H1490 0.950 . S
C1498 C1496 1.391 . S
C1498 C1499 1.400 . S
C1499 C1498 1.400 . S
C1499 C1500 1.398 . S
C1499 C1505 1.491 . S
C1500 H1491 0.950 1_554 S
C1500 C1499 1.398 . S
C1500 C1501 1.391 . S
C1501 H1489 0.950 . S
C1501 C1497 1.393 . S
C1501 C1500 1.391 . S
C1502 H1492 0.950 . S
C1502 C1503 1.386 1_556 S
C1502 C1504 1.391 . S
C1503 C1502 1.386 1_554 S
C1503 C1507 1.393 . S
C1504 H1493 0.950 . S
C1504 C1502 1.391 . S
C1504 C1505 1.400 1_556 S
C1505 C1499 1.491 . S
C1505 C1504 1.400 1_554 S
C1505 C1506 1.398 . S
C1506 H1494 0.950 . S
C1506 C1505 1.398 . S
C1506 C1507 1.391 . S
C1507 H1495 0.950 . S
C1507 C1503 1.393 . S
C1507 C1506 1.391 . S
H1508 C1516 0.950 . S
H1509 C1521 0.950 . S
H1510 C1518 0.950 . S
H1511 C1520 0.950 1_565 S
H1512 C1522 0.950 1_556 S
H1513 C1524 0.950 1_556 S
H1514 C1526 0.950 . S
H1515 C1527 0.950 . S
C1516 H1508 0.950 . S
C1516 C1517 1.386 . S
C1516 C1518 1.391 . S
C1517 C1516 1.386 . S
C1517 C1521 1.393 1_554 S
C1518 H1510 0.950 . S
C1518 C1516 1.391 . S
C1518 C1519 1.400 1_545 S
C1519 C1518 1.400 1_565 S
C1519 C1520 1.398 1_564 S
C1519 C1525 1.491 . S
C1520 H1511 0.950 1_545 S
C1520 C1519 1.398 1_546 S
C1520 C1521 1.391 . S
C1521 H1509 0.950 . S
C1521 C1517 1.393 1_556 S
C1521 C1520 1.391 . S
C1522 H1512 0.950 1_554 S
C1522 C1523 1.386 . S
C1522 C1524 1.391 . S
C1523 C1522 1.386 . S
C1523 C1527 1.393 . S
C1524 H1513 0.950 1_554 S
C1524 C1522 1.391 . S
C1524 C1525 1.400 . S
C1525 C1519 1.491 . S
C1525 C1524 1.400 . S
C1525 C1526 1.398 . S
C1526 H1514 0.950 . S
C1526 C1525 1.398 . S
C1526 C1527 1.391 . S
C1527 H1515 0.950 . S
C1527 C1523 1.393 . S
C1527 C1526 1.391 . S
H1528 C1536 0.950 . S
H1529 C1541 0.950 . S
H1530 C1538 0.950 . S
H1531 C1540 0.950 . S
H1532 C1542 0.950 . S
H1533 C1544 0.950 . S
H1534 C1546 0.950 . S
H1535 C1547 0.950 . S
C1536 H1528 0.950 . S
C1536 C1537 1.386 . S
C1536 C1538 1.391 . S
C1537 C1536 1.386 . S
C1537 C1541 1.393 . S
C1538 H1530 0.950 . S
C1538 C1536 1.391 . S
C1538 C1539 1.400 1_655 S
C1539 C1538 1.400 1_455 S
C1539 C1540 1.398 . S
C1539 C1545 1.491 . S
C1540 H1531 0.950 . S
C1540 C1539 1.398 . S
C1540 C1541 1.391 1_455 S
C1541 H1529 0.950 . S
C1541 C1537 1.393 . S
C1541 C1540 1.391 1_655 S
C1542 H1532 0.950 . S
C1542 C1543 1.386 . S
C1542 C1544 1.391 . S
C1543 C1542 1.386 . S
C1543 C1547 1.393 . S
C1544 H1533 0.950 . S
C1544 C1542 1.391 . S
C1544 C1545 1.400 . S
C1545 C1539 1.491 . S
C1545 C1544 1.400 . S
C1545 C1546 1.398 . S
C1546 H1534 0.950 . S
C1546 C1545 1.398 . S
C1546 C1547 1.391 . S
C1547 H1535 0.950 . S
C1547 C1543 1.393 . S
C1547 C1546 1.391 . S
H1548 C1556 0.950 . S
H1549 C1561 0.950 . S
H1550 C1558 0.950 . S
H1551 C1560 0.950 . S
H1552 C1562 0.950 . S
H1553 C1564 0.950 . S
H1554 C1566 0.950 . S
H1555 C1567 0.950 . S
C1556 H1548 0.950 . S
C1556 C1557 1.386 . S
C1556 C1558 1.391 . S
C1557 C1556 1.386 . S
C1557 C1561 1.393 . S
C1558 H1550 0.950 . S
C1558 C1556 1.391 . S
C1558 C1559 1.400 . S
C1559 C1558 1.400 . S
C1559 C1560 1.398 . S
C1559 C1565 1.491 . S
C1560 H1551 0.950 . S
C1560 C1559 1.398 . S
C1560 C1561 1.391 . S
C1561 H1549 0.950 . S
C1561 C1557 1.393 . S
C1561 C1560 1.391 . S
C1562 H1552 0.950 . S
C1562 C1563 1.386 . S
C1562 C1564 1.391 . S
C1563 C1562 1.386 . S
C1563 C1567 1.393 . S
C1564 H1553 0.950 . S
C1564 C1562 1.391 . S
C1564 C1565 1.400 . S
C1565 C1559 1.491 . S
C1565 C1564 1.400 . S
C1565 C1566 1.398 . S
C1566 H1554 0.950 . S
C1566 C1565 1.398 . S
C1566 C1567 1.391 . S
C1567 H1555 0.950 . S
C1567 C1563 1.393 . S
C1567 C1566 1.391 . S
H1568 C1576 0.950 . S
H1569 C1581 0.950 . S
H1570 C1578 0.950 1_545 S
H1571 C1580 0.950 . S
H1572 C1582 0.950 . S
H1573 C1584 0.950 . S
H1574 C1586 0.950 . S
H1575 C1587 0.950 . S
C1576 H1568 0.950 . S
C1576 C1577 1.386 . S
C1576 C1578 1.391 . S
C1577 C1576 1.386 . S
C1577 C1581 1.393 . S
C1578 H1570 0.950 1_565 S
C1578 C1576 1.391 . S
C1578 C1579 1.400 1_565 S
C1579 C1578 1.400 1_545 S
C1579 C1580 1.398 1_545 S
C1579 C1585 1.491 . S
C1580 H1571 0.950 . S
C1580 C1579 1.398 1_565 S
C1580 C1581 1.391 . S
C1581 H1569 0.950 . S
C1581 C1577 1.393 . S
C1581 C1580 1.391 . S
C1582 H1572 0.950 . S
C1582 C1583 1.386 . S
C1582 C1584 1.391 . S
C1583 C1582 1.386 . S
C1583 C1587 1.393 . S
C1584 H1573 0.950 . S
C1584 C1582 1.391 . S
C1584 C1585 1.400 . S
C1585 C1579 1.491 . S
C1585 C1584 1.400 . S
C1585 C1586 1.398 . S
C1586 H1574 0.950 . S
C1586 C1585 1.398 . S
C1586 C1587 1.391 . S
C1587 H1575 0.950 . S
C1587 C1583 1.393 . S
C1587 C1586 1.391 . S
H1588 C1596 0.950 . S
H1589 C1601 0.950 . S
H1590 C1598 0.950 . S
H1591 C1600 0.950 . S
H1592 C1602 0.950 . S
H1593 C1604 0.949 1_655 S
H1594 C1606 0.950 . S
H1595 C1607 0.950 . S
C1596 H1588 0.950 . S
C1596 C1597 1.386 . S
C1596 C1598 1.391 . S
C1597 C1596 1.386 . S
C1597 C1601 1.393 . S
C1598 H1590 0.950 . S
C1598 C1596 1.391 . S
C1598 C1599 1.400 . S
C1599 C1598 1.400 . S
C1599 C1600 1.398 . S
C1599 C1605 1.491 . S
C1600 H1591 0.950 . S
C1600 C1599 1.398 . S
C1600 C1601 1.391 . S
C1601 H1589 0.950 . S
C1601 C1597 1.393 . S
C1601 C1600 1.391 . S
C1602 H1592 0.950 . S
C1602 C1603 1.386 . S
C1602 C1604 1.392 . S
C1603 C1602 1.386 . S
C1603 C1607 1.393 . S
C1604 H1593 0.949 1_455 S
C1604 C1602 1.392 . S
C1604 C1605 1.400 1_455 S
C1605 C1599 1.491 . S
C1605 C1604 1.400 1_655 S
C1605 C1606 1.398 1_655 S
C1606 H1594 0.950 . S
C1606 C1605 1.398 1_455 S
C1606 C1607 1.391 . S
C1607 H1595 0.950 . S
C1607 C1603 1.393 . S
C1607 C1606 1.391 . S
H1608 C1616 0.950 . S
H1609 C1621 0.950 . S
H1610 C1618 0.950 . S
H1611 C1620 0.950 . S
H1612 C1622 0.950 . S
H1613 C1624 0.950 . S
H1614 C1626 0.950 1_554 S
H1615 C1627 0.950 . S
C1616 H1608 0.950 . S
C1616 C1617 1.386 1_554 S
C1616 C1618 1.391 . S
C1617 C1616 1.386 1_556 S
C1617 C1621 1.393 . S
C1618 H1610 0.950 . S
C1618 C1616 1.391 . S
C1618 C1619 1.400 1_554 S
C1619 C1618 1.400 1_556 S
C1619 C1620 1.398 . S
C1619 C1625 1.491 . S
C1620 H1611 0.950 . S
C1620 C1619 1.398 . S
C1620 C1621 1.391 . S
C1621 H1609 0.950 . S
C1621 C1617 1.393 . S
C1621 C1620 1.391 . S
C1622 H1612 0.950 . S
C1622 C1623 1.386 . S
C1622 C1624 1.391 . S
C1623 C1622 1.386 . S
C1623 C1627 1.393 . S
C1624 H1613 0.950 . S
C1624 C1622 1.391 . S
C1624 C1625 1.400 . S
C1625 C1619 1.491 . S
C1625 C1624 1.400 . S
C1625 C1626 1.398 . S
C1626 H1614 0.950 1_556 S
C1626 C1625 1.398 . S
C1626 C1627 1.391 . S
C1627 H1615 0.950 . S
C1627 C1623 1.393 . S
C1627 C1626 1.391 . S
H1628 C1636 0.950 . S
H1629 C1641 0.950 . S
H1630 C1638 0.950 . S
H1631 C1640 0.950 . S
H1632 C1642 0.950 . S
H1633 C1644 0.950 . S
H1634 C1646 0.970 . S
H1635 C1647 0.950 . S
C1636 H1628 0.950 . S
C1636 C1637 1.386 . S
C1636 C1638 1.391 . S
C1637 C1636 1.386 . S
C1637 C1641 1.393 . S
C1638 H1630 0.950 . S
C1638 C1636 1.391 . S
C1638 C1639 1.400 . S
C1639 C1638 1.400 . S
C1639 C1640 1.398 . S
C1639 C1645 1.491 . S
C1640 H1631 0.950 . S
C1640 C1639 1.398 . S
C1640 C1641 1.391 . S
C1641 H1629 0.950 . S
C1641 C1637 1.393 . S
C1641 C1640 1.391 . S
C1642 H1632 0.950 . S
C1642 C1643 1.386 . S
C1642 C1644 1.391 . S
C1643 C1642 1.386 . S
C1643 C1647 1.393 . S
C1644 H1633 0.950 . S
C1644 C1642 1.391 . S
C1644 C1645 1.400 1_565 S
C1645 C1639 1.491 . S
C1645 C1644 1.400 1_545 S
C1645 C1646 1.429 . S
C1646 H1634 0.970 . S
C1646 C1645 1.429 . S
C1646 C1647 1.342 1_545 S
C1647 H1635 0.950 . S
C1647 C1643 1.393 . S
C1647 C1646 1.342 1_565 S
H1648 C1656 0.950 . S
H1649 C1661 0.950 . S
H1650 C1658 0.950 . S
H1651 C1660 0.950 . S
H1652 C1662 0.950 . S
H1653 C1664 0.950 . S
H1654 C1666 0.950 . S
H1655 C1667 0.950 . S
C1656 H1648 0.950 . S
C1656 C1657 1.386 . S
C1656 C1658 1.391 1_455 S
C1657 C1656 1.386 . S
C1657 C1661 1.393 . S
C1658 H1650 0.950 . S
C1658 C1656 1.391 1_655 S
C1658 C1659 1.400 . S
C1659 C1658 1.400 . S
C1659 C1660 1.398 1_655 S
C1659 C1665 1.491 . S
C1660 H1651 0.950 . S
C1660 C1659 1.398 1_455 S
C1660 C1661 1.391 . S
C1661 H1649 0.950 . S
C1661 C1657 1.393 . S
C1661 C1660 1.391 . S
C1662 H1652 0.950 . S
C1662 C1663 1.386 . S
C1662 C1664 1.391 . S
C1663 C1662 1.386 . S
C1663 C1667 1.393 . S
C1664 H1653 0.950 . S
C1664 C1662 1.391 . S
C1664 C1665 1.400 . S
C1665 C1659 1.491 . S
C1665 C1664 1.400 . S
C1665 C1666 1.398 . S
C1666 H1654 0.950 . S
C1666 C1665 1.398 . S
C1666 C1667 1.391 . S
C1667 H1655 0.950 . S
C1667 C1663 1.393 . S
C1667 C1666 1.391 . S
H1668 C1676 0.950 . S
H1669 C1681 0.950 . S
H1670 C1678 0.950 . S
H1671 C1680 0.950 . S
H1672 C1682 0.950 . S
H1673 C1684 0.950 . S
H1674 C1686 0.950 . S
H1675 C1687 0.950 . S
C1676 H1668 0.950 . S
C1676 C1677 1.386 . S
C1676 C1678 1.391 . S
C1677 C1676 1.386 . S
C1677 C1681 1.393 . S
C1678 H1670 0.950 . S
C1678 C1676 1.391 . S
C1678 C1679 1.400 . S
C1679 C1678 1.400 . S
C1679 C1680 1.398 . S
C1679 C1685 1.491 . S
C1680 H1671 0.950 . S
C1680 C1679 1.398 . S
C1680 C1681 1.391 . S
C1681 H1669 0.950 . S
C1681 C1677 1.393 . S
C1681 C1680 1.391 . S
C1682 H1672 0.950 . S
C1682 C1683 1.386 . S
C1682 C1684 1.391 . S
C1683 C1682 1.386 . S
C1683 C1687 1.393 . S
C1684 H1673 0.950 . S
C1684 C1682 1.391 . S
C1684 C1685 1.400 . S
C1685 C1679 1.491 . S
C1685 C1684 1.400 . S
C1685 C1686 1.398 . S
C1686 H1674 0.950 . S
C1686 C1685 1.398 . S
C1686 C1687 1.391 . S
C1687 H1675 0.950 . S
C1687 C1683 1.393 . S
C1687 C1686 1.391 . S
H1688 C1696 0.950 . S
H1689 C1701 0.950 . S
H1690 C1698 0.950 . S
H1691 C1700 0.950 . S
H1692 C1702 0.950 . S
H1693 C1704 0.950 1_565 S
H1694 C1706 0.950 . S
H1695 C1707 0.950 . S
C1696 H1688 0.950 . S
C1696 C1697 1.386 . S
C1696 C1698 1.391 . S
C1697 C1696 1.386 . S
C1697 C1701 1.393 . S
C1698 H1690 0.950 . S
C1698 C1696 1.391 . S
C1698 C1699 1.400 . S
C1699 C1698 1.400 . S
C1699 C1700 1.398 . S
C1699 C1705 1.491 . S
C1700 H1691 0.950 . S
C1700 C1699 1.398 . S
C1700 C1701 1.391 . S
C1701 H1689 0.950 . S
C1701 C1697 1.393 . S
C1701 C1700 1.391 . S
C1702 H1692 0.950 . S
C1702 C1703 1.386 . S
C1702 C1704 1.391 . S
C1703 C1702 1.386 . S
C1703 C1707 1.393 . S
C1704 H1693 0.950 1_545 S
C1704 C1702 1.391 . S
C1704 C1705 1.400 1_545 S
C1705 C1699 1.491 . S
C1705 C1704 1.400 1_565 S
C1705 C1706 1.398 1_565 S
C1706 H1694 0.950 . S
C1706 C1705 1.398 1_545 S
C1706 C1707 1.391 . S
C1707 H1695 0.950 . S
C1707 C1703 1.393 . S
C1707 C1706 1.391 . S
H1708 C1716 0.950 . S
H1709 C1721 0.950 . S
H1710 C1718 0.950 . S
H1711 C1720 0.983 . S
H1712 C1722 0.950 . S
H1713 C1724 0.950 . S
H1714 C1726 0.950 . S
H1715 C1727 0.950 . S
C1716 H1708 0.950 . S
C1716 C1717 1.386 . S
C1716 C1718 1.391 . S
C1717 C1716 1.386 . S
C1717 C1721 1.393 . S
C1718 H1710 0.950 . S
C1718 C1716 1.391 . S
C1718 C1719 1.400 1_655 S
C1719 C1718 1.400 1_455 S
C1719 C1720 1.419 . S
C1719 C1725 1.491 . S
C1720 H1711 0.983 . S
C1720 C1719 1.419 . S
C1720 C1721 1.339 1_455 S
C1721 H1709 0.950 . S
C1721 C1717 1.393 . S
C1721 C1720 1.339 1_655 S
C1722 H1712 0.950 . S
C1722 C1723 1.386 . S
C1722 C1724 1.391 . S
C1723 C1722 1.386 . S
C1723 C1727 1.393 . S
C1724 H1713 0.950 . S
C1724 C1722 1.391 . S
C1724 C1725 1.400 . S
C1725 C1719 1.491 . S
C1725 C1724 1.400 . S
C1725 C1726 1.398 . S
C1726 H1714 0.950 . S
C1726 C1725 1.398 . S
C1726 C1727 1.391 . S
C1727 H1715 0.950 . S
C1727 C1723 1.393 . S
C1727 C1726 1.391 . S
C1017 C58 1.504 . S
C1023 C573 1.504 . S
C1037 C657 1.539 . S
C1043 C142 1.539 . S
C1057 C741 1.539 . S
C1063 C226 1.539 . S
C1077 C310 1.501 . S
C1083 C825 1.501 . S
C1097 C909 1.492 . S
C1103 C394 1.492 . S
C1117 C993 1.494 . S
C1123 C478 1.494 . S
C1137 C399 1.359 . S
C1143 C63 1.375 . S
C1157 C147 1.365 . S
C1163 C483 1.353 . S
C1177 C315 1.375 . S
C1183 C231 1.362 . S
C1197 C914 1.371 . S
C1203 C578 1.371 . S
C1217 C998 1.358 . S
C1223 C662 1.355 . S
C1237 C746 1.361 . S
C1243 C830 1.354 . S
C1257 C991 1.560 . S
C1263 C74 1.570 . S
C1277 C158 1.556 . S
C1283 C823 1.541 . S
C1297 C242 1.560 . S
C1303 C907 1.561 . S
C1317 C326 1.557 . S
C1323 C655 1.559 . S
C1337 C410 1.553 . S
C1343 C739 1.546 . S
C1357 C571 1.555 . S
C1363 C494 1.572 . S
C1377 C567 1.571 . S
C1383 C476 1.550 . S
C1397 C308 1.559 . S
C1403 C651 1.557 . S
C1417 C735 1.564 . S
C1423 C392 1.541 . S
C1437 C140 1.552 . S
C1443 C819 1.553 . S
C1457 C903 1.571 . S
C1463 C224 1.550 . S
C1477 C56 1.561 . S
C1483 C987 1.567 . S
C1497 C69 1.809 . S
C1503 C644 1.770 1_554 S
C1517 C728 1.762 1_554 S
C1523 C153 1.802 . S
C1537 C560 1.772 1_554 S
C1543 C237 1.815 . S
C1557 C321 1.816 . S
C1563 C980 1.770 . S
C1577 C812 1.752 . S
C1583 C405 1.799 . S
C1597 C489 1.808 . S
C1603 C896 1.769 . S
C1617 C151 1.771 1_556 S
C1623 C562 1.810 . S
C1637 C646 1.816 . S
C1643 C235 1.771 1_556 S
C1657 C67 1.770 1_556 S
C1663 C730 1.816 . S
C1677 C814 1.799 . S
C1683 C487 1.750 . S
C1697 C898 1.815 . S
C1703 C319 1.757 . S
C1717 C403 1.748 . S
C1723 C982 1.806 . S
