# Generated by pormake.
# Topology uog, (4)-cn, num edge types: 1
# Building blocks:
#     Node 0, Type 0, BuildingBlock: CEKHIL_clean_sbu_0, # of connection points: 4
#     Node 1, Type 0, BuildingBlock: CEKHIL_clean_sbu_0, # of connection points: 4
#     Node 2, Type 0, BuildingBlock: CEKHIL_clean_sbu_0, # of connection points: 4
#     Node 3, Type 0, BuildingBlock: CEKHIL_clean_sbu_0, # of connection points: 4
#     Node 4, Type 0, BuildingBlock: CEKHIL_clean_sbu_0, # of connection points: 4
#     Node 5, Type 0, BuildingBlock: CEKHIL_clean_sbu_0, # of connection points: 4
#     Edge 6, Type (0, 0), BuildingBlock: UVAHIK_clean_linker_0, # of connection points: 2
#     Edge 7, Type (0, 0), BuildingBlock: UVAHIK_clean_linker_0, # of connection points: 2
#     Edge 8, Type (0, 0), BuildingBlock: UVAHIK_clean_linker_0, # of connection points: 2
#     Edge 9, Type (0, 0), BuildingBlock: UVAHIK_clean_linker_0, # of connection points: 2
#     Edge 10, Type (0, 0), BuildingBlock: UVAHIK_clean_linker_0, # of connection points: 2
#     Edge 11, Type (0, 0), BuildingBlock: UVAHIK_clean_linker_0, # of connection points: 2
#     Edge 12, Type (0, 0), BuildingBlock: UVAHIK_clean_linker_0, # of connection points: 2
#     Edge 13, Type (0, 0), BuildingBlock: UVAHIK_clean_linker_0, # of connection points: 2
#     Edge 14, Type (0, 0), BuildingBlock: UVAHIK_clean_linker_0, # of connection points: 2
#     Edge 15, Type (0, 0), BuildingBlock: UVAHIK_clean_linker_0, # of connection points: 2
#     Edge 16, Type (0, 0), BuildingBlock: UVAHIK_clean_linker_0, # of connection points: 2
#     Edge 17, Type (0, 0), BuildingBlock: UVAHIK_clean_linker_0, # of connection points: 2
# Relax obj value: 0.072
# Max RMSD: 0.170
# Mean RMSD: 0.170
data_MOF--net-uog--node1-CEKHIL_clean_sbu_0--edge1-UVAHIK_clean_linker_0
_symmetry_space_group_name_H-M    P1
_symmetry_Int_Tables_number       1
_symmetry_cell_setting            triclinic
loop_
_symmetry_equiv_pos_as_xyz
'x, y, z'
_cell_length_a     36.500505
_cell_length_b     36.538985
_cell_length_c     55.37988
_cell_angle_alpha  89.857336
_cell_angle_beta   89.950227
_cell_angle_gamma 120.14039
loop_
_atom_site_label
_atom_site_type_symbol
_atom_site_fract_x
_atom_site_fract_y
_atom_site_fract_z
_atom_type_partial_charge
Co0 Co 0.5967 0.28223 0.15129 0.0
O1 O 0.60595 0.2351 0.15202 0.0
O2 O 0.55309 0.23545 0.13271 0.0
C3 C 0.60551 0.29546 0.19116 0.0
O4 O 0.57764 0.3261 0.14749 0.0
Co5 Co 0.67258 0.36985 0.16427 0.0
O6 O 0.63078 0.38869 0.16083 0.0
C7 C 0.66909 0.33596 0.11603 0.0
C8 C 0.5727 0.21516 0.13858 0.0
C9 C 0.59365 0.3658 0.15234 0.0
O10 O 0.63298 0.30408 0.12157 0.0
O11 O 0.69166 0.36572 0.13081 0.0
O12 O 0.5693 0.26671 0.18259 0.0
O13 O 0.63644 0.31224 0.17575 0.0
Co14 Co 0.32497 0.61186 0.49129 0.0
O15 O 0.3805 0.61888 0.49096 0.0
O16 O 0.32435 0.56487 0.4743 0.0
C17 C 0.3247 0.62604 0.53062 0.0
O18 O 0.26223 0.59489 0.48912 0.0
Co19 Co 0.31752 0.69046 0.50147 0.0
O20 O 0.25684 0.64826 0.50547 0.0
C21 C 0.34157 0.67919 0.45296 0.0
C22 C 0.36486 0.58403 0.47884 0.0
C23 C 0.23998 0.61095 0.49693 0.0
O24 O 0.33793 0.64416 0.46018 0.0
O25 O 0.33583 0.70393 0.46673 0.0
O26 O 0.31456 0.58832 0.52349 0.0
O27 O 0.33915 0.65525 0.51411 0.0
Co28 Co 0.71617 0.31562 0.82101 0.0
O29 O 0.76575 0.37044 0.82244 0.0
O30 O 0.76333 0.31511 0.8047 0.0
C31 C 0.69883 0.31294 0.8602 0.0
O32 O 0.66939 0.25361 0.81692 0.0
Co33 Co 0.63056 0.31025 0.82961 0.0
O34 O 0.60782 0.24858 0.82845 0.0
C35 C 0.67035 0.33774 0.78224 0.0
C36 C 0.7852 0.35514 0.81026 0.0
C37 C 0.62918 0.23186 0.82121 0.0
O38 O 0.70017 0.3318 0.78977 0.0
O39 O 0.63941 0.33242 0.79556 0.0
O40 O 0.72604 0.30215 0.85324 0.0
O41 O 0.68606 0.3292 0.84369 0.0
Co42 Co 0.40267 0.70941 0.15721 0.0
O43 O 0.39774 0.75905 0.15645 0.0
O44 O 0.45114 0.755 0.14032 0.0
C45 C 0.38661 0.69498 0.19648 0.0
O46 O 0.41744 0.66216 0.15538 0.0
Co47 Co 0.32175 0.62425 0.16729 0.0
O48 O 0.36227 0.60377 0.17131 0.0
C49 C 0.33456 0.6614 0.11904 0.0
C50 C 0.43285 0.77722 0.14436 0.0
C51 C 0.39995 0.62355 0.16304 0.0
O52 O 0.37096 0.69106 0.12596 0.0
O53 O 0.3085 0.63171 0.13298 0.0
O54 O 0.42506 0.72175 0.1897 0.0
O55 O 0.35823 0.68102 0.17963 0.0
Co56 Co 0.70283 0.41301 0.48772 0.0
O57 O 0.64785 0.40696 0.48922 0.0
O58 O 0.70383 0.46229 0.47313 0.0
C59 C 0.7043 0.39422 0.52618 0.0
O60 O 0.76477 0.42848 0.48396 0.0
Co61 Co 0.70521 0.33046 0.4929 0.0
O62 O 0.76735 0.36922 0.49184 0.0
C63 C 0.67815 0.34793 0.44708 0.0
C64 C 0.66341 0.44286 0.47811 0.0
C65 C 0.78535 0.40852 0.48669 0.0
O66 O 0.68872 0.38464 0.45538 0.0
O67 O 0.67841 0.31896 0.45996 0.0
O68 O 0.71483 0.43282 0.52069 0.0
O69 O 0.68822 0.367 0.5088 0.0
Co70 Co 0.29278 0.69274 0.82352 0.0
O71 O 0.24401 0.6373 0.82323 0.0
O72 O 0.24685 0.69321 0.80573 0.0
C73 C 0.30604 0.69317 0.86313 0.0
O74 O 0.33909 0.75532 0.82104 0.0
Co75 Co 0.37857 0.69978 0.83538 0.0
O76 O 0.39811 0.76085 0.83735 0.0
C77 C 0.34383 0.67373 0.78683 0.0
C78 C 0.22529 0.65278 0.81049 0.0
C79 C 0.3778 0.77757 0.82839 0.0
O80 O 0.31299 0.67911 0.79299 0.0
O81 O 0.3733 0.67879 0.80131 0.0
O82 O 0.27882 0.7035 0.85548 0.0
O83 O 0.32117 0.67878 0.84695 0.0
C84 C 0.51683 0.14388 0.12327 0.0
C85 C 0.55847 0.17125 0.131 0.0
C86 C 0.50302 0.10108 0.11892 0.0
C87 C 0.54011 0.02392 0.10961 0.0
H88 H 0.43578 0.94604 0.14252 0.0
C89 C 0.49247 0.85052 0.1345 0.0
C90 C 0.44905 0.82062 0.13521 0.0
C91 C 0.50606 0.89315 0.12938 0.0
C92 C 0.46457 0.96709 0.13277 0.0
H93 H 0.61898 0.176 0.13881 0.0
H94 H 0.59503 0.10193 0.13123 0.0
H95 H 0.45785 0.02065 0.14071 0.0
H96 H 0.38605 0.81064 0.1291 0.0
H97 H 0.40954 0.88393 0.11927 0.0
H98 H 0.54708 0.97019 0.10203 0.0
C99 C 0.57294 0.11317 0.1285 0.0
C100 C 0.47719 0.00999 0.13174 0.0
C101 C 0.58655 0.15561 0.13306 0.0
C102 C 0.41974 0.83328 0.12911 0.0
C103 C 0.43321 0.87539 0.12363 0.0
C104 C 0.52733 0.98081 0.11051 0.0
C105 C 0.53079 0.08514 0.12194 0.0
C106 C 0.51534 0.03903 0.12043 0.0
C107 C 0.47639 0.90623 0.12458 0.0
C108 C 0.48955 0.95189 0.12232 0.0
H109 H 0.49457 0.1551 0.12148 0.0
H110 H 0.4704 0.08026 0.11367 0.0
H111 H 0.56959 0.04554 0.10062 0.0
H112 H 0.51563 0.84146 0.13919 0.0
H113 H 0.53958 0.91607 0.13033 0.0
C114 C 0.43691 0.59647 0.46991 0.0
C115 C 0.39302 0.56812 0.47101 0.0
C116 C 0.46505 0.58203 0.46534 0.0
C117 C 0.47401 0.48821 0.47428 0.0
H118 H 0.57774 0.55071 0.4371 0.0
C119 C 0.59146 0.42887 0.46813 0.0
C120 C 0.63468 0.45851 0.47102 0.0
C121 C 0.56218 0.44197 0.46411 0.0
C122 C 0.5491 0.53313 0.4477 0.0
H123 H 0.34393 0.5026 0.46707 0.0
H124 H 0.39346 0.47693 0.45924 0.0
H125 H 0.5244 0.57255 0.43611 0.0
H126 H 0.68157 0.52523 0.47083 0.0
H127 H 0.62981 0.54864 0.46431 0.0
H128 H 0.49888 0.44964 0.48653 0.0
C129 C 0.40596 0.51046 0.46202 0.0
C130 C 0.51845 0.54547 0.44703 0.0
C131 C 0.37761 0.52509 0.46635 0.0
C132 C 0.64841 0.50177 0.46868 0.0
C133 C 0.61877 0.51505 0.4649 0.0
C134 C 0.50462 0.47602 0.47503 0.0
C135 C 0.45005 0.53876 0.46194 0.0
C136 C 0.48069 0.5233 0.46047 0.0
C137 C 0.57513 0.48518 0.46319 0.0
C138 C 0.54263 0.49836 0.46183 0.0
H139 H 0.44976 0.62994 0.47322 0.0
H140 H 0.49872 0.60461 0.46564 0.0
H141 H 0.44579 0.47107 0.48527 0.0
H142 H 0.57997 0.39522 0.46938 0.0
H143 H 0.52911 0.41806 0.46216 0.0
C144 C 0.85661 0.36756 0.79673 0.0
C145 C 0.82986 0.3833 0.80305 0.0
C146 C 0.89975 0.39558 0.79214 0.0
C147 C 0.97801 0.50834 0.77844 0.0
H148 H 0.05607 0.48585 0.81388 0.0
C149 C 0.15174 0.63736 0.80002 0.0
C150 C 0.18178 0.62426 0.80187 0.0
C151 C 0.10902 0.6075 0.79565 0.0
C152 C 0.03495 0.49241 0.80343 0.0
H153 H 0.82671 0.44053 0.80827 0.0
H154 H 0.90118 0.48884 0.80024 0.0
H155 H 0.98116 0.43311 0.81347 0.0
H156 H 0.19176 0.57081 0.7986 0.0
H157 H 0.11826 0.51947 0.79011 0.0
H158 H 0.03186 0.56806 0.76874 0.0
C159 C 0.88925 0.45515 0.7988 0.0
C160 C 0.99189 0.46202 0.80321 0.0
C161 C 0.84656 0.42734 0.80364 0.0
C162 C 0.16907 0.58164 0.79767 0.0
C163 C 0.12683 0.55213 0.79298 0.0
C164 C 0.02121 0.53874 0.77855 0.0
C165 C 0.91658 0.43971 0.79341 0.0
C166 C 0.96282 0.46985 0.79103 0.0
C167 C 0.09592 0.56427 0.79278 0.0
C168 C 0.05019 0.53136 0.7913 0.0
H169 H 0.84456 0.33379 0.79611 0.0
H170 H 0.92007 0.38277 0.78788 0.0
H171 H 0.95638 0.51515 0.76872 0.0
H172 H 0.16079 0.67005 0.80327 0.0
H173 H 0.08606 0.61799 0.7957 0.0
C174 C 0.1697 0.60575 0.50332 0.0
C175 C 0.19299 0.58711 0.49491 0.0
C176 C 0.12598 0.58572 0.50026 0.0
C177 C 0.03065 0.48319 0.49146 0.0
H178 H 0.98256 0.55107 0.46956 0.0
C179 C 0.85154 0.40822 0.47611 0.0
C180 C 0.83195 0.43104 0.48358 0.0
C181 C 0.89555 0.42748 0.47502 0.0
C182 C 0.99535 0.53174 0.47594 0.0
H183 H 0.18783 0.53186 0.47719 0.0
H184 H 0.11063 0.49632 0.47211 0.0
H185 H 0.05925 0.58283 0.47248 0.0
H186 H 0.84321 0.4924 0.49508 0.0
H187 H 0.92055 0.5261 0.49389 0.0
H188 H 0.96698 0.43245 0.49569 0.0
C189 C 0.12682 0.52681 0.48097 0.0
C190 C 0.03933 0.54989 0.47751 0.0
C191 C 0.17097 0.54713 0.48388 0.0
C192 C 0.85744 0.47409 0.48919 0.0
C193 C 0.90175 0.49334 0.48843 0.0
C194 C 0.98665 0.46511 0.4901 0.0
C195 C 0.10403 0.54628 0.48885 0.0
C196 C 0.05746 0.52594 0.4855 0.0
C197 C 0.92136 0.47001 0.48172 0.0
C198 C 0.96835 0.48919 0.48246 0.0
H199 H 0.18524 0.63633 0.5121 0.0
H200 H 0.10926 0.60113 0.50699 0.0
H201 H 0.04365 0.4641 0.49796 0.0
H202 H 0.83275 0.37513 0.47124 0.0
H203 H 0.90932 0.40879 0.46908 0.0
C204 C 0.4449 0.84732 0.83129 0.0
C205 C 0.40148 0.82441 0.82547 0.0
C206 C 0.46853 0.891 0.82801 0.0
C207 C 0.4602 0.98627 0.82423 0.0
H208 H 0.57374 0.03638 0.79754 0.0
C209 C 0.56212 0.16597 0.81105 0.0
C210 C 0.60529 0.18555 0.81713 0.0
C211 C 0.53752 0.12209 0.80924 0.0
C212 C 0.54231 0.02299 0.80526 0.0
H213 H 0.34896 0.83016 0.81176 0.0
H214 H 0.39055 0.90725 0.80627 0.0
H215 H 0.52904 0.95953 0.79949 0.0
H216 H 0.6569 0.17444 0.82524 0.0
H217 H 0.61352 0.09714 0.82274 0.0
H218 H 0.47365 0.04943 0.8307 0.0
C219 C 0.40603 0.89083 0.81335 0.0
C220 C 0.5166 0.97892 0.80627 0.0
C221 C 0.38224 0.84671 0.81646 0.0
C222 C 0.62375 0.16022 0.82049 0.0
C223 C 0.59884 0.11596 0.81899 0.0
C224 C 0.48598 0.03031 0.82338 0.0
C225 C 0.44956 0.91333 0.81894 0.0
C226 C 0.4754 0.96006 0.81599 0.0
C227 C 0.55516 0.09632 0.8138 0.0
C228 C 0.52751 0.04931 0.81402 0.0
H229 H 0.46107 0.83154 0.83832 0.0
H230 H 0.50173 0.90741 0.83293 0.0
H231 H 0.42888 0.97274 0.83214 0.0
H232 H 0.54708 0.18465 0.80788 0.0
H233 H 0.50442 0.10835 0.80449 0.0
C234 C 0.40363 0.55796 0.17065 0.0
C235 C 0.42252 0.59926 0.16105 0.0
C236 C 0.42207 0.53294 0.16732 0.0
C237 C 0.52202 0.5363 0.15425 0.0
H238 H 0.44858 0.41845 0.13703 0.0
C239 C 0.59138 0.42861 0.13741 0.0
C240 C 0.5697 0.38765 0.14731 0.0
C241 C 0.57212 0.4532 0.13598 0.0
C242 C 0.46949 0.45113 0.14206 0.0
H243 H 0.47667 0.6469 0.14099 0.0
H244 H 0.50934 0.60296 0.13538 0.0
H245 H 0.41913 0.46513 0.14101 0.0
H246 H 0.51022 0.33942 0.16252 0.0
H247 H 0.47643 0.3829 0.16067 0.0
H248 H 0.57216 0.52231 0.156 0.0
C249 C 0.47994 0.59015 0.14542 0.0
C250 C 0.45263 0.47794 0.14427 0.0
C251 C 0.46126 0.61532 0.14864 0.0
C252 C 0.52746 0.37082 0.15467 0.0
C253 C 0.50823 0.39581 0.15359 0.0
C254 C 0.53883 0.50946 0.1522 0.0
C255 C 0.4601 0.54841 0.15441 0.0
C256 C 0.47865 0.52074 0.1506 0.0
C257 C 0.53084 0.4378 0.14484 0.0
C258 C 0.51278 0.46644 0.14618 0.0
H259 H 0.37404 0.54446 0.18055 0.0
H260 H 0.4065 0.50133 0.17497 0.0
H261 H 0.54277 0.56893 0.15945 0.0
H262 H 0.62388 0.44213 0.13131 0.0
H263 H 0.59008 0.48476 0.12843 0.0
C264 C 0.69306 0.28511 0.90175 0.0
C265 C 0.69033 0.31386 0.8861 0.0
C266 C 0.69212 0.28958 0.9267 0.0
C267 C 0.67001 0.34691 0.97508 0.0
H268 H 0.74002 0.31578 0.01262 0.0
C269 C 0.69936 0.37735 0.07803 0.0
C270 C 0.68307 0.33904 0.0908 0.0
C271 C 0.70503 0.3782 0.05298 0.0
C272 C 0.72058 0.3248 0.00229 0.0
H273 H 0.68324 0.36915 0.88405 0.0
H274 H 0.68311 0.37811 0.92775 0.0
H275 H 0.73802 0.309 0.96881 0.0
H276 H 0.66216 0.27225 0.08794 0.0
H277 H 0.67396 0.27419 0.04436 0.0
H278 H 0.65361 0.36362 0.00887 0.0
C279 C 0.68492 0.35137 0.92086 0.0
C280 C 0.71891 0.32044 0.97721 0.0
C281 C 0.68495 0.34629 0.8958 0.0
C282 C 0.67491 0.30219 0.07845 0.0
C283 C 0.68163 0.30328 0.0536 0.0
C284 C 0.67239 0.35205 0.00015 0.0
C285 C 0.68951 0.32361 0.93664 0.0
C286 C 0.69287 0.33055 0.96327 0.0
C287 C 0.69558 0.341 0.04058 0.0
C288 C 0.69713 0.34034 0.01395 0.0
H289 H 0.69691 0.25962 0.89467 0.0
H290 H 0.69421 0.26666 0.93816 0.0
H291 H 0.64928 0.35463 0.96509 0.0
H292 H 0.70536 0.40603 0.08715 0.0
H293 H 0.71587 0.40762 0.04322 0.0
C294 C 0.33687 0.67806 0.23129 0.0
C295 C 0.37608 0.68577 0.22224 0.0
C296 C 0.3297 0.67556 0.25624 0.0
C297 C 0.3608 0.65184 0.31351 0.0
H298 H 0.34306 0.73865 0.34197 0.0
C299 C 0.37817 0.67946 0.41519 0.0
C300 C 0.35002 0.68892 0.42708 0.0
C301 C 0.38075 0.68069 0.39007 0.0
C302 C 0.34727 0.71374 0.33437 0.0
H303 H 0.43762 0.69474 0.23176 0.0
H304 H 0.4244 0.68858 0.27526 0.0
H305 H 0.34419 0.73265 0.29804 0.0
H306 H 0.30333 0.70826 0.42232 0.0
H307 H 0.30653 0.70898 0.37821 0.0
H308 H 0.3629 0.63191 0.34942 0.0
C309 C 0.3996 0.68525 0.26315 0.0
C310 C 0.34793 0.71039 0.30923 0.0
C311 C 0.40714 0.6888 0.23834 0.0
C312 C 0.32572 0.70141 0.41349 0.0
C313 C 0.32756 0.70171 0.38823 0.0
C314 C 0.35934 0.65461 0.33856 0.0
C315 C 0.36124 0.67956 0.27231 0.0
C316 C 0.35547 0.67991 0.29867 0.0
C317 C 0.3543 0.6902 0.37618 0.0
C318 C 0.35355 0.68621 0.34939 0.0
H319 H 0.31258 0.67594 0.21919 0.0
H320 H 0.29984 0.67102 0.263 0.0
H321 H 0.36638 0.62792 0.30568 0.0
H322 H 0.39736 0.66991 0.42535 0.0
H323 H 0.40283 0.67313 0.38156 0.0
C324 C 0.71022 0.37385 0.74491 0.0
C325 C 0.67118 0.34833 0.75649 0.0
C326 C 0.71217 0.37914 0.7199 0.0
C327 C 0.66305 0.32393 0.66544 0.0
H328 H 0.71884 0.43412 0.63454 0.0
C329 C 0.66982 0.34565 0.56125 0.0
C330 C 0.70421 0.38233 0.55156 0.0
C331 C 0.66562 0.33956 0.58631 0.0
C332 C 0.7039 0.40304 0.64281 0.0
H333 H 0.60351 0.30875 0.75119 0.0
H334 H 0.60712 0.31717 0.70706 0.0
H335 H 0.71048 0.42915 0.67823 0.0
H336 H 0.76283 0.4396 0.55989 0.0
H337 H 0.75725 0.42781 0.6033 0.0
H338 H 0.65804 0.29766 0.6303 0.0
C339 C 0.636 0.33347 0.71753 0.0
C340 C 0.69869 0.40032 0.66783 0.0
C341 C 0.63391 0.32901 0.74269 0.0
C342 C 0.73584 0.4112 0.56703 0.0
C343 C 0.73224 0.40468 0.59194 0.0
C344 C 0.66898 0.32663 0.64039 0.0
C345 C 0.67523 0.35817 0.70596 0.0
C346 C 0.6783 0.36079 0.67935 0.0
C347 C 0.69621 0.36972 0.60203 0.0
C348 C 0.68973 0.36629 0.62873 0.0
H349 H 0.73941 0.38892 0.75518 0.0
H350 H 0.74277 0.39823 0.71134 0.0
H351 H 0.64766 0.29309 0.67405 0.0
H352 H 0.64481 0.32318 0.54962 0.0
H353 H 0.63733 0.31236 0.59331 0.0
C354 C 0.3076 0.71895 0.90477 0.0
C355 C 0.31401 0.69256 0.88912 0.0
C356 C 0.30973 0.71507 0.92972 0.0
C357 C 0.34239 0.66515 0.97759 0.0
H358 H 0.26479 0.68399 0.01639 0.0
C359 C 0.30387 0.62386 0.08011 0.0
C360 C 0.32389 0.66158 0.09343 0.0
C361 C 0.29968 0.6252 0.05505 0.0
C362 C 0.28634 0.67841 0.00566 0.0
H363 H 0.3287 0.64216 0.88702 0.0
H364 H 0.33077 0.634 0.93065 0.0
H365 H 0.26538 0.69175 0.9726 0.0
H366 H 0.35332 0.7299 0.09145 0.0
H367 H 0.34425 0.73192 0.04777 0.0
H368 H 0.3622 0.65066 0.01101 0.0
C369 C 0.32521 0.65856 0.92379 0.0
C370 C 0.2872 0.68337 0.98063 0.0
C371 C 0.32397 0.66311 0.89876 0.0
C372 C 0.33775 0.70039 0.08154 0.0
C373 C 0.33263 0.70161 0.05667 0.0
C374 C 0.34087 0.6594 0.00261 0.0
C375 C 0.31732 0.68398 0.93962 0.0
C376 C 0.31569 0.67742 0.96625 0.0
C377 C 0.31444 0.66415 0.04323 0.0
C378 C 0.31314 0.6664 0.01676 0.0
H379 H 0.30028 0.74222 0.89772 0.0
H380 H 0.30486 0.73619 0.94121 0.0
H381 H 0.36516 0.66089 0.96727 0.0
H382 H 0.29338 0.59364 0.08887 0.0
H383 H 0.2856 0.59602 0.04484 0.0
C384 C 0.6427 0.3 0.41162 0.0
C385 C 0.66834 0.34081 0.42104 0.0
C386 C 0.63422 0.29441 0.3868 0.0
C387 C 0.67902 0.33914 0.3288 0.0
H388 H 0.56461 0.29018 0.30421 0.0
C389 C 0.64776 0.3384 0.22665 0.0
C390 C 0.61156 0.30312 0.21738 0.0
C391 C 0.65369 0.34387 0.25165 0.0
C392 C 0.59674 0.30326 0.31069 0.0
H393 H 0.70567 0.40759 0.41186 0.0
H394 H 0.69183 0.39746 0.36868 0.0
H395 H 0.57656 0.29473 0.34773 0.0
H396 H 0.55314 0.24593 0.22683 0.0
H397 H 0.56427 0.25423 0.27002 0.0
H398 H 0.69952 0.34647 0.29211 0.0
C399 C 0.67788 0.37004 0.38049 0.0
C400 C 0.60346 0.30593 0.33562 0.0
C401 C 0.68555 0.37573 0.40521 0.0
C402 C 0.58128 0.27367 0.23345 0.0
C403 C 0.58755 0.27863 0.25832 0.0
C404 C 0.67231 0.33568 0.30389 0.0
C405 C 0.65217 0.32943 0.37109 0.0
C406 C 0.64464 0.32412 0.34483 0.0
C407 C 0.62391 0.31369 0.26783 0.0
C408 C 0.6311 0.31792 0.29444 0.0
H409 H 0.62896 0.27258 0.42341 0.0
H410 H 0.61429 0.26277 0.37981 0.0
H411 H 0.71109 0.35321 0.3356 0.0
H412 H 0.67143 0.36173 0.21462 0.0
H413 H 0.68165 0.37177 0.25822 0.0
C414 C 0.30825 0.63721 0.74884 0.0
C415 C 0.34589 0.66363 0.76135 0.0
C416 C 0.30894 0.6321 0.72393 0.0
C417 C 0.35881 0.68905 0.6708 0.0
H418 H 0.3158 0.58065 0.63917 0.0
C419 C 0.35679 0.67262 0.56653 0.0
C420 C 0.32473 0.63488 0.55648 0.0
C421 C 0.36078 0.67728 0.59164 0.0
C422 C 0.32721 0.61113 0.64764 0.0
H423 H 0.41376 0.70488 0.75792 0.0
H424 H 0.4147 0.69695 0.71388 0.0
H425 H 0.32139 0.58473 0.68303 0.0
H426 H 0.26998 0.57373 0.56433 0.0
H427 H 0.27506 0.58272 0.60789 0.0
H428 H 0.36251 0.71539 0.63576 0.0
C429 C 0.38496 0.67973 0.72357 0.0
C430 C 0.33089 0.6134 0.67274 0.0
C431 C 0.38444 0.68398 0.74866 0.0
C432 C 0.29523 0.603 0.57174 0.0
C433 C 0.29856 0.608 0.59672 0.0
C434 C 0.3543 0.68671 0.6457 0.0
C435 C 0.3471 0.65417 0.71106 0.0
C436 C 0.34655 0.65231 0.68448 0.0
C437 C 0.33223 0.64456 0.60708 0.0
C438 C 0.33807 0.64762 0.63378 0.0
H439 H 0.27814 0.62129 0.75826 0.0
H440 H 0.2794 0.61236 0.71455 0.0
H441 H 0.37048 0.71932 0.67963 0.0
H442 H 0.38015 0.69746 0.55506 0.0
H443 H 0.3873 0.70578 0.59886 0.0
loop_
_geom_bond_atom_site_label_1
_geom_bond_atom_site_label_2
_geom_bond_distance
_geom_bond_site_symmetry_2
_ccdc_geom_bond_type
Co0 O1 2.216 . S
Co0 O2 2.091 . S
Co0 O4 2.004 . S
Co0 O10 2.021 . S
Co0 O12 2.137 . S
Co0 O13 2.244 . S
O1 Co0 2.216 . S
O1 C8 1.247 . S
O2 Co0 2.091 . S
O2 C8 1.261 . S
C3 O12 1.247 . S
C3 O13 1.272 . S
O4 Co0 2.004 . S
O4 C9 1.259 . S
Co5 O6 2.061 . S
Co5 O11 2.052 . S
Co5 O13 2.135 . S
O6 Co5 2.061 . S
O6 C9 1.235 . S
C7 O10 1.238 . S
C7 O11 1.241 . S
C8 O1 1.247 . S
C8 O2 1.261 . S
C9 O4 1.259 . S
C9 O6 1.235 . S
O10 Co0 2.021 . S
O10 C7 1.238 . S
O11 Co5 2.052 . S
O11 C7 1.241 . S
O12 Co0 2.137 . S
O12 C3 1.247 . S
O13 Co0 2.244 . S
O13 C3 1.272 . S
O13 Co5 2.135 . S
Co14 O15 2.216 . S
Co14 O16 2.091 . S
Co14 O18 2.004 . S
Co14 O24 2.021 . S
Co14 O26 2.137 . S
Co14 O27 2.244 . S
O15 Co14 2.216 . S
O15 C22 1.247 . S
O16 Co14 2.091 . S
O16 C22 1.261 . S
C17 O26 1.247 . S
C17 O27 1.272 . S
O18 Co14 2.004 . S
O18 C23 1.259 . S
Co19 O20 2.061 . S
Co19 O25 2.052 . S
Co19 O27 2.135 . S
O20 Co19 2.061 . S
O20 C23 1.235 . S
C21 O24 1.238 . S
C21 O25 1.241 . S
C22 O15 1.247 . S
C22 O16 1.261 . S
C23 O18 1.259 . S
C23 O20 1.235 . S
O24 Co14 2.021 . S
O24 C21 1.238 . S
O25 Co19 2.052 . S
O25 C21 1.241 . S
O26 Co14 2.137 . S
O26 C17 1.247 . S
O27 Co14 2.244 . S
O27 C17 1.272 . S
O27 Co19 2.135 . S
Co28 O29 2.216 . S
Co28 O30 2.091 . S
Co28 O32 2.004 . S
Co28 O38 2.021 . S
Co28 O40 2.137 . S
Co28 O41 2.244 . S
O29 Co28 2.216 . S
O29 C36 1.247 . S
O30 Co28 2.091 . S
O30 C36 1.261 . S
C31 O40 1.247 . S
C31 O41 1.272 . S
O32 Co28 2.004 . S
O32 C37 1.259 . S
Co33 O34 2.061 . S
Co33 O39 2.052 . S
Co33 O41 2.135 . S
O34 Co33 2.061 . S
O34 C37 1.235 . S
C35 O38 1.238 . S
C35 O39 1.241 . S
C36 O29 1.247 . S
C36 O30 1.261 . S
C37 O32 1.259 . S
C37 O34 1.235 . S
O38 Co28 2.021 . S
O38 C35 1.238 . S
O39 Co33 2.052 . S
O39 C35 1.241 . S
O40 Co28 2.137 . S
O40 C31 1.247 . S
O41 Co28 2.244 . S
O41 C31 1.272 . S
O41 Co33 2.135 . S
Co42 O43 2.216 . S
Co42 O44 2.091 . S
Co42 O46 2.004 . S
Co42 O52 2.021 . S
Co42 O54 2.137 . S
Co42 O55 2.244 . S
O43 Co42 2.216 . S
O43 C50 1.247 . S
O44 Co42 2.091 . S
O44 C50 1.261 . S
C45 O54 1.247 . S
C45 O55 1.272 . S
O46 Co42 2.004 . S
O46 C51 1.259 . S
Co47 O48 2.061 . S
Co47 O53 2.052 . S
Co47 O55 2.135 . S
O48 Co47 2.061 . S
O48 C51 1.235 . S
C49 O52 1.238 . S
C49 O53 1.241 . S
C50 O43 1.247 . S
C50 O44 1.261 . S
C51 O46 1.259 . S
C51 O48 1.235 . S
O52 Co42 2.021 . S
O52 C49 1.238 . S
O53 Co47 2.052 . S
O53 C49 1.241 . S
O54 Co42 2.137 . S
O54 C45 1.247 . S
O55 Co42 2.244 . S
O55 C45 1.272 . S
O55 Co47 2.135 . S
Co56 O57 2.216 . S
Co56 O58 2.091 . S
Co56 O60 2.004 . S
Co56 O66 2.021 . S
Co56 O68 2.137 . S
Co56 O69 2.244 . S
O57 Co56 2.216 . S
O57 C64 1.247 . S
O58 Co56 2.091 . S
O58 C64 1.261 . S
C59 O68 1.247 . S
C59 O69 1.272 . S
O60 Co56 2.004 . S
O60 C65 1.259 . S
Co61 O62 2.061 . S
Co61 O67 2.052 . S
Co61 O69 2.135 . S
O62 Co61 2.061 . S
O62 C65 1.235 . S
C63 O66 1.238 . S
C63 O67 1.241 . S
C64 O57 1.247 . S
C64 O58 1.261 . S
C65 O60 1.259 . S
C65 O62 1.235 . S
O66 Co56 2.021 . S
O66 C63 1.238 . S
O67 Co61 2.052 . S
O67 C63 1.241 . S
O68 Co56 2.137 . S
O68 C59 1.247 . S
O69 Co56 2.244 . S
O69 C59 1.272 . S
O69 Co61 2.135 . S
Co70 O71 2.216 . S
Co70 O72 2.091 . S
Co70 O74 2.004 . S
Co70 O80 2.021 . S
Co70 O82 2.137 . S
Co70 O83 2.244 . S
O71 Co70 2.216 . S
O71 C78 1.247 . S
O72 Co70 2.091 . S
O72 C78 1.261 . S
C73 O82 1.247 . S
C73 O83 1.272 . S
O74 Co70 2.004 . S
O74 C79 1.259 . S
Co75 O76 2.061 . S
Co75 O81 2.052 . S
Co75 O83 2.135 . S
O76 Co75 2.061 . S
O76 C79 1.235 . S
C77 O80 1.238 . S
C77 O81 1.241 . S
C78 O71 1.247 . S
C78 O72 1.261 . S
C79 O74 1.259 . S
C79 O76 1.235 . S
O80 Co70 2.021 . S
O80 C77 1.238 . S
O81 Co75 2.052 . S
O81 C77 1.241 . S
O82 Co70 2.137 . S
O82 C73 1.247 . S
O83 Co70 2.244 . S
O83 C73 1.272 . S
O83 Co75 2.135 . S
C84 C85 1.349 . S
C84 C86 1.327 . S
C84 H109 0.950 . S
C85 C84 1.349 . S
C85 C101 1.349 . S
C86 C84 1.327 . S
C86 C105 1.429 . S
C86 H110 0.950 . S
C87 C104 1.574 1_545 S
C87 C106 1.368 . S
C87 H111 0.949 . S
H88 C92 0.949 . S
C89 C90 1.349 . S
C89 C91 1.327 . S
C89 H112 0.950 . S
C90 C89 1.349 . S
C90 C102 1.349 . S
C91 C89 1.327 . S
C91 C107 1.429 . S
C91 H113 0.950 . S
C92 H88 0.949 . S
C92 C100 1.574 1_565 S
C92 C108 1.368 . S
H93 C101 0.950 . S
H94 C99 0.950 . S
H95 C100 0.949 . S
H96 C102 0.950 . S
H97 C103 0.950 . S
H98 C104 0.949 . S
C99 H94 0.950 . S
C99 C101 1.327 . S
C99 C105 1.429 . S
C100 C92 1.574 1_545 S
C100 H95 0.949 . S
C100 C106 1.368 . S
C101 C85 1.349 . S
C101 H93 0.950 . S
C101 C99 1.327 . S
C102 C90 1.349 . S
C102 H96 0.950 . S
C102 C103 1.327 . S
C103 H97 0.950 . S
C103 C102 1.327 . S
C103 C107 1.429 . S
C104 C87 1.574 1_565 S
C104 H98 0.949 . S
C104 C108 1.368 . S
C105 C86 1.429 . S
C105 C99 1.429 . S
C105 C106 1.523 . S
C106 C87 1.368 . S
C106 C100 1.368 . S
C106 C105 1.523 . S
C107 C91 1.429 . S
C107 C103 1.429 . S
C107 C108 1.523 . S
C108 C92 1.368 . S
C108 C104 1.368 . S
C108 C107 1.523 . S
H109 C84 0.950 . S
H110 C86 0.950 . S
H111 C87 0.949 . S
H112 C89 0.950 . S
H113 C91 0.950 . S
C114 C115 1.349 . S
C114 C116 1.327 . S
C114 H139 0.950 . S
C115 C114 1.349 . S
C115 C131 1.349 . S
C116 C114 1.327 . S
C116 C135 1.429 . S
C116 H140 0.950 . S
C117 C134 1.574 . S
C117 C136 1.368 . S
C117 H141 0.949 . S
H118 C122 0.949 . S
C119 C120 1.349 . S
C119 C121 1.327 . S
C119 H142 0.950 . S
C120 C119 1.349 . S
C120 C132 1.349 . S
C121 C119 1.327 . S
C121 C137 1.429 . S
C121 H143 0.950 . S
C122 H118 0.949 . S
C122 C130 1.574 . S
C122 C138 1.368 . S
H123 C131 0.950 . S
H124 C129 0.950 . S
H125 C130 0.949 . S
H126 C132 0.950 . S
H127 C133 0.950 . S
H128 C134 0.949 . S
C129 H124 0.950 . S
C129 C131 1.327 . S
C129 C135 1.429 . S
C130 C122 1.574 . S
C130 H125 0.949 . S
C130 C136 1.368 . S
C131 C115 1.349 . S
C131 H123 0.950 . S
C131 C129 1.327 . S
C132 C120 1.349 . S
C132 H126 0.950 . S
C132 C133 1.327 . S
C133 H127 0.950 . S
C133 C132 1.327 . S
C133 C137 1.429 . S
C134 C117 1.574 . S
C134 H128 0.949 . S
C134 C138 1.368 . S
C135 C116 1.429 . S
C135 C129 1.429 . S
C135 C136 1.523 . S
C136 C117 1.368 . S
C136 C130 1.368 . S
C136 C135 1.523 . S
C137 C121 1.429 . S
C137 C133 1.429 . S
C137 C138 1.523 . S
C138 C122 1.368 . S
C138 C134 1.368 . S
C138 C137 1.523 . S
H139 C114 0.950 . S
H140 C116 0.950 . S
H141 C117 0.949 . S
H142 C119 0.950 . S
H143 C121 0.950 . S
C144 C145 1.349 . S
C144 C146 1.327 . S
C144 H169 0.950 . S
C145 C144 1.349 . S
C145 C161 1.349 . S
C146 C144 1.327 . S
C146 C165 1.429 . S
C146 H170 0.950 . S
C147 C164 1.574 1_655 S
C147 C166 1.368 . S
C147 H171 0.949 . S
H148 C152 0.949 . S
C149 C150 1.349 . S
C149 C151 1.327 . S
C149 H172 0.950 . S
C150 C149 1.349 . S
C150 C162 1.349 . S
C151 C149 1.327 . S
C151 C167 1.429 . S
C151 H173 0.950 . S
C152 H148 0.949 . S
C152 C160 1.574 1_455 S
C152 C168 1.368 . S
H153 C161 0.950 . S
H154 C159 0.950 . S
H155 C160 0.949 . S
H156 C162 0.950 . S
H157 C163 0.950 . S
H158 C164 0.949 . S
C159 H154 0.950 . S
C159 C161 1.327 . S
C159 C165 1.429 . S
C160 C152 1.574 1_655 S
C160 H155 0.949 . S
C160 C166 1.368 . S
C161 C145 1.349 . S
C161 H153 0.950 . S
C161 C159 1.327 . S
C162 C150 1.349 . S
C162 H156 0.950 . S
C162 C163 1.327 . S
C163 H157 0.950 . S
C163 C162 1.327 . S
C163 C167 1.429 . S
C164 C147 1.574 1_455 S
C164 H158 0.949 . S
C164 C168 1.368 . S
C165 C146 1.429 . S
C165 C159 1.429 . S
C165 C166 1.523 . S
C166 C147 1.368 . S
C166 C160 1.368 . S
C166 C165 1.523 . S
C167 C151 1.429 . S
C167 C163 1.429 . S
C167 C168 1.523 . S
C168 C152 1.368 . S
C168 C164 1.368 . S
C168 C167 1.523 . S
H169 C144 0.950 . S
H170 C146 0.950 . S
H171 C147 0.949 . S
H172 C149 0.950 . S
H173 C151 0.950 . S
C174 C175 1.349 . S
C174 C176 1.327 . S
C174 H199 0.950 . S
C175 C174 1.349 . S
C175 C191 1.349 . S
C176 C174 1.327 . S
C176 C195 1.429 . S
C176 H200 0.950 . S
C177 C194 1.574 1_455 S
C177 C196 1.368 . S
C177 H201 0.949 . S
H178 C182 0.949 . S
C179 C180 1.349 . S
C179 C181 1.327 . S
C179 H202 0.950 . S
C180 C179 1.349 . S
C180 C192 1.349 . S
C181 C179 1.327 . S
C181 C197 1.429 . S
C181 H203 0.950 . S
C182 H178 0.949 . S
C182 C190 1.574 1_655 S
C182 C198 1.368 . S
H183 C191 0.950 . S
H184 C189 0.950 . S
H185 C190 0.949 . S
H186 C192 0.950 . S
H187 C193 0.950 . S
H188 C194 0.949 . S
C189 H184 0.950 . S
C189 C191 1.327 . S
C189 C195 1.429 . S
C190 C182 1.574 1_455 S
C190 H185 0.949 . S
C190 C196 1.368 . S
C191 C175 1.349 . S
C191 H183 0.950 . S
C191 C189 1.327 . S
C192 C180 1.349 . S
C192 H186 0.950 . S
C192 C193 1.327 . S
C193 H187 0.950 . S
C193 C192 1.327 . S
C193 C197 1.429 . S
C194 C177 1.574 1_655 S
C194 H188 0.949 . S
C194 C198 1.368 . S
C195 C176 1.429 . S
C195 C189 1.429 . S
C195 C196 1.523 . S
C196 C177 1.368 . S
C196 C190 1.368 . S
C196 C195 1.523 . S
C197 C181 1.429 . S
C197 C193 1.429 . S
C197 C198 1.523 . S
C198 C182 1.368 . S
C198 C194 1.368 . S
C198 C197 1.523 . S
H199 C174 0.950 . S
H200 C176 0.950 . S
H201 C177 0.949 . S
H202 C179 0.950 . S
H203 C181 0.950 . S
C204 C205 1.349 . S
C204 C206 1.327 . S
C204 H229 0.950 . S
C205 C204 1.349 . S
C205 C221 1.349 . S
C206 C204 1.327 . S
C206 C225 1.429 . S
C206 H230 0.950 . S
C207 C224 1.574 1_565 S
C207 C226 1.368 . S
C207 H231 0.949 . S
H208 C212 0.949 . S
C209 C210 1.349 . S
C209 C211 1.327 . S
C209 H232 0.950 . S
C210 C209 1.349 . S
C210 C222 1.349 . S
C211 C209 1.327 . S
C211 C227 1.429 . S
C211 H233 0.950 . S
C212 H208 0.949 . S
C212 C220 1.574 1_545 S
C212 C228 1.368 . S
H213 C221 0.950 . S
H214 C219 0.950 . S
H215 C220 0.949 . S
H216 C222 0.950 . S
H217 C223 0.950 . S
H218 C224 0.949 . S
C219 H214 0.950 . S
C219 C221 1.327 . S
C219 C225 1.429 . S
C220 C212 1.574 1_565 S
C220 H215 0.949 . S
C220 C226 1.368 . S
C221 C205 1.349 . S
C221 H213 0.950 . S
C221 C219 1.327 . S
C222 C210 1.349 . S
C222 H216 0.950 . S
C222 C223 1.327 . S
C223 H217 0.950 . S
C223 C222 1.327 . S
C223 C227 1.429 . S
C224 C207 1.574 1_545 S
C224 H218 0.949 . S
C224 C228 1.368 . S
C225 C206 1.429 . S
C225 C219 1.429 . S
C225 C226 1.523 . S
C226 C207 1.368 . S
C226 C220 1.368 . S
C226 C225 1.523 . S
C227 C211 1.429 . S
C227 C223 1.429 . S
C227 C228 1.523 . S
C228 C212 1.368 . S
C228 C224 1.368 . S
C228 C227 1.523 . S
H229 C204 0.950 . S
H230 C206 0.950 . S
H231 C207 0.949 . S
H232 C209 0.950 . S
H233 C211 0.950 . S
C234 C235 1.349 . S
C234 C236 1.327 . S
C234 H259 0.950 . S
C235 C234 1.349 . S
C235 C251 1.349 . S
C236 C234 1.327 . S
C236 C255 1.429 . S
C236 H260 0.950 . S
C237 C254 1.574 . S
C237 C256 1.368 . S
C237 H261 0.949 . S
H238 C242 0.949 . S
C239 C240 1.349 . S
C239 C241 1.327 . S
C239 H262 0.950 . S
C240 C239 1.349 . S
C240 C252 1.349 . S
C241 C239 1.327 . S
C241 C257 1.429 . S
C241 H263 0.950 . S
C242 H238 0.949 . S
C242 C250 1.574 . S
C242 C258 1.368 . S
H243 C251 0.950 . S
H244 C249 0.950 . S
H245 C250 0.949 . S
H246 C252 0.950 . S
H247 C253 0.950 . S
H248 C254 0.949 . S
C249 H244 0.950 . S
C249 C251 1.327 . S
C249 C255 1.429 . S
C250 C242 1.574 . S
C250 H245 0.949 . S
C250 C256 1.368 . S
C251 C235 1.349 . S
C251 H243 0.950 . S
C251 C249 1.327 . S
C252 C240 1.349 . S
C252 H246 0.950 . S
C252 C253 1.327 . S
C253 H247 0.950 . S
C253 C252 1.327 . S
C253 C257 1.429 . S
C254 C237 1.574 . S
C254 H248 0.949 . S
C254 C258 1.368 . S
C255 C236 1.429 . S
C255 C249 1.429 . S
C255 C256 1.523 . S
C256 C237 1.368 . S
C256 C250 1.368 . S
C256 C255 1.523 . S
C257 C241 1.429 . S
C257 C253 1.429 . S
C257 C258 1.523 . S
C258 C242 1.368 . S
C258 C254 1.368 . S
C258 C257 1.523 . S
H259 C234 0.950 . S
H260 C236 0.950 . S
H261 C237 0.949 . S
H262 C239 0.950 . S
H263 C241 0.950 . S
C264 C265 1.349 . S
C264 C266 1.327 . S
C264 H289 0.950 . S
C265 C264 1.349 . S
C265 C281 1.349 . S
C266 C264 1.327 . S
C266 C285 1.429 . S
C266 H290 0.950 . S
C267 C284 1.574 1_556 S
C267 C286 1.368 . S
C267 H291 0.949 . S
H268 C272 0.949 . S
C269 C270 1.349 . S
C269 C271 1.327 . S
C269 H292 0.950 . S
C270 C269 1.349 . S
C270 C282 1.349 . S
C271 C269 1.327 . S
C271 C287 1.429 . S
C271 H293 0.950 . S
C272 H268 0.949 . S
C272 C280 1.574 1_554 S
C272 C288 1.368 . S
H273 C281 0.950 . S
H274 C279 0.950 . S
H275 C280 0.949 . S
H276 C282 0.950 . S
H277 C283 0.950 . S
H278 C284 0.949 . S
C279 H274 0.950 . S
C279 C281 1.327 . S
C279 C285 1.429 . S
C280 C272 1.574 1_556 S
C280 H275 0.949 . S
C280 C286 1.368 . S
C281 C265 1.349 . S
C281 H273 0.950 . S
C281 C279 1.327 . S
C282 C270 1.349 . S
C282 H276 0.950 . S
C282 C283 1.327 . S
C283 H277 0.950 . S
C283 C282 1.327 . S
C283 C287 1.429 . S
C284 C267 1.574 1_554 S
C284 H278 0.949 . S
C284 C288 1.368 . S
C285 C266 1.429 . S
C285 C279 1.429 . S
C285 C286 1.523 . S
C286 C267 1.368 . S
C286 C280 1.368 . S
C286 C285 1.523 . S
C287 C271 1.429 . S
C287 C283 1.429 . S
C287 C288 1.523 . S
C288 C272 1.368 . S
C288 C284 1.368 . S
C288 C287 1.523 . S
H289 C264 0.950 . S
H290 C266 0.950 . S
H291 C267 0.949 . S
H292 C269 0.950 . S
H293 C271 0.950 . S
C294 C295 1.349 . S
C294 C296 1.327 . S
C294 H319 0.950 . S
C295 C294 1.349 . S
C295 C311 1.349 . S
C296 C294 1.327 . S
C296 C315 1.429 . S
C296 H320 0.950 . S
C297 C314 1.574 . S
C297 C316 1.368 . S
C297 H321 0.949 . S
H298 C302 0.949 . S
C299 C300 1.349 . S
C299 C301 1.327 . S
C299 H322 0.950 . S
C300 C299 1.349 . S
C300 C312 1.349 . S
C301 C299 1.327 . S
C301 C317 1.429 . S
C301 H323 0.950 . S
C302 H298 0.949 . S
C302 C310 1.574 . S
C302 C318 1.368 . S
H303 C311 0.950 . S
H304 C309 0.950 . S
H305 C310 0.949 . S
H306 C312 0.950 . S
H307 C313 0.950 . S
H308 C314 0.949 . S
C309 H304 0.950 . S
C309 C311 1.327 . S
C309 C315 1.429 . S
C310 C302 1.574 . S
C310 H305 0.949 . S
C310 C316 1.368 . S
C311 C295 1.349 . S
C311 H303 0.950 . S
C311 C309 1.327 . S
C312 C300 1.349 . S
C312 H306 0.950 . S
C312 C313 1.327 . S
C313 H307 0.950 . S
C313 C312 1.327 . S
C313 C317 1.429 . S
C314 C297 1.574 . S
C314 H308 0.949 . S
C314 C318 1.368 . S
C315 C296 1.429 . S
C315 C309 1.429 . S
C315 C316 1.523 . S
C316 C297 1.368 . S
C316 C310 1.368 . S
C316 C315 1.523 . S
C317 C301 1.429 . S
C317 C313 1.429 . S
C317 C318 1.523 . S
C318 C302 1.368 . S
C318 C314 1.368 . S
C318 C317 1.523 . S
H319 C294 0.950 . S
H320 C296 0.950 . S
H321 C297 0.949 . S
H322 C299 0.950 . S
H323 C301 0.950 . S
C324 C325 1.349 . S
C324 C326 1.327 . S
C324 H349 0.950 . S
C325 C324 1.349 . S
C325 C341 1.349 . S
C326 C324 1.327 . S
C326 C345 1.429 . S
C326 H350 0.950 . S
C327 C344 1.574 . S
C327 C346 1.368 . S
C327 H351 0.949 . S
H328 C332 0.949 . S
C329 C330 1.349 . S
C329 C331 1.327 . S
C329 H352 0.950 . S
C330 C329 1.349 . S
C330 C342 1.349 . S
C331 C329 1.327 . S
C331 C347 1.429 . S
C331 H353 0.950 . S
C332 H328 0.949 . S
C332 C340 1.574 . S
C332 C348 1.368 . S
H333 C341 0.950 . S
H334 C339 0.950 . S
H335 C340 0.949 . S
H336 C342 0.950 . S
H337 C343 0.950 . S
H338 C344 0.949 . S
C339 H334 0.950 . S
C339 C341 1.327 . S
C339 C345 1.429 . S
C340 C332 1.574 . S
C340 H335 0.949 . S
C340 C346 1.368 . S
C341 C325 1.349 . S
C341 H333 0.950 . S
C341 C339 1.327 . S
C342 C330 1.349 . S
C342 H336 0.950 . S
C342 C343 1.327 . S
C343 H337 0.950 . S
C343 C342 1.327 . S
C343 C347 1.429 . S
C344 C327 1.574 . S
C344 H338 0.949 . S
C344 C348 1.368 . S
C345 C326 1.429 . S
C345 C339 1.429 . S
C345 C346 1.523 . S
C346 C327 1.368 . S
C346 C340 1.368 . S
C346 C345 1.523 . S
C347 C331 1.429 . S
C347 C343 1.429 . S
C347 C348 1.523 . S
C348 C332 1.368 . S
C348 C344 1.368 . S
C348 C347 1.523 . S
H349 C324 0.950 . S
H350 C326 0.950 . S
H351 C327 0.949 . S
H352 C329 0.950 . S
H353 C331 0.950 . S
C354 C355 1.349 . S
C354 C356 1.327 . S
C354 H379 0.950 . S
C355 C354 1.349 . S
C355 C371 1.349 . S
C356 C354 1.327 . S
C356 C375 1.429 . S
C356 H380 0.950 . S
C357 C374 1.574 1_556 S
C357 C376 1.368 . S
C357 H381 0.949 . S
H358 C362 0.949 . S
C359 C360 1.349 . S
C359 C361 1.327 . S
C359 H382 0.950 . S
C360 C359 1.349 . S
C360 C372 1.349 . S
C361 C359 1.327 . S
C361 C377 1.429 . S
C361 H383 0.950 . S
C362 H358 0.949 . S
C362 C370 1.574 1_554 S
C362 C378 1.368 . S
H363 C371 0.950 . S
H364 C369 0.950 . S
H365 C370 0.949 . S
H366 C372 0.950 . S
H367 C373 0.950 . S
H368 C374 0.949 . S
C369 H364 0.950 . S
C369 C371 1.327 . S
C369 C375 1.429 . S
C370 C362 1.574 1_556 S
C370 H365 0.949 . S
C370 C376 1.368 . S
C371 C355 1.349 . S
C371 H363 0.950 . S
C371 C369 1.327 . S
C372 C360 1.349 . S
C372 H366 0.950 . S
C372 C373 1.327 . S
C373 H367 0.950 . S
C373 C372 1.327 . S
C373 C377 1.429 . S
C374 C357 1.574 1_554 S
C374 H368 0.949 . S
C374 C378 1.368 . S
C375 C356 1.429 . S
C375 C369 1.429 . S
C375 C376 1.523 . S
C376 C357 1.368 . S
C376 C370 1.368 . S
C376 C375 1.523 . S
C377 C361 1.429 . S
C377 C373 1.429 . S
C377 C378 1.523 . S
C378 C362 1.368 . S
C378 C374 1.368 . S
C378 C377 1.523 . S
H379 C354 0.950 . S
H380 C356 0.950 . S
H381 C357 0.949 . S
H382 C359 0.950 . S
H383 C361 0.950 . S
C384 C385 1.349 . S
C384 C386 1.327 . S
C384 H409 0.950 . S
C385 C384 1.349 . S
C385 C401 1.349 . S
C386 C384 1.327 . S
C386 C405 1.429 . S
C386 H410 0.950 . S
C387 C404 1.574 . S
C387 C406 1.368 . S
C387 H411 0.949 . S
H388 C392 0.949 . S
C389 C390 1.349 . S
C389 C391 1.327 . S
C389 H412 0.950 . S
C390 C389 1.349 . S
C390 C402 1.349 . S
C391 C389 1.327 . S
C391 C407 1.429 . S
C391 H413 0.950 . S
C392 H388 0.949 . S
C392 C400 1.574 . S
C392 C408 1.368 . S
H393 C401 0.950 . S
H394 C399 0.950 . S
H395 C400 0.949 . S
H396 C402 0.950 . S
H397 C403 0.950 . S
H398 C404 0.949 . S
C399 H394 0.950 . S
C399 C401 1.327 . S
C399 C405 1.429 . S
C400 C392 1.574 . S
C400 H395 0.949 . S
C400 C406 1.368 . S
C401 C385 1.349 . S
C401 H393 0.950 . S
C401 C399 1.327 . S
C402 C390 1.349 . S
C402 H396 0.950 . S
C402 C403 1.327 . S
C403 H397 0.950 . S
C403 C402 1.327 . S
C403 C407 1.429 . S
C404 C387 1.574 . S
C404 H398 0.949 . S
C404 C408 1.368 . S
C405 C386 1.429 . S
C405 C399 1.429 . S
C405 C406 1.523 . S
C406 C387 1.368 . S
C406 C400 1.368 . S
C406 C405 1.523 . S
C407 C391 1.429 . S
C407 C403 1.429 . S
C407 C408 1.523 . S
C408 C392 1.368 . S
C408 C404 1.368 . S
C408 C407 1.523 . S
H409 C384 0.950 . S
H410 C386 0.950 . S
H411 C387 0.949 . S
H412 C389 0.950 . S
H413 C391 0.950 . S
C414 C415 1.349 . S
C414 C416 1.327 . S
C414 H439 0.950 . S
C415 C414 1.349 . S
C415 C431 1.349 . S
C416 C414 1.327 . S
C416 C435 1.429 . S
C416 H440 0.950 . S
C417 C434 1.574 . S
C417 C436 1.368 . S
C417 H441 0.949 . S
H418 C422 0.949 . S
C419 C420 1.349 . S
C419 C421 1.327 . S
C419 H442 0.950 . S
C420 C419 1.349 . S
C420 C432 1.349 . S
C421 C419 1.327 . S
C421 C437 1.429 . S
C421 H443 0.950 . S
C422 H418 0.949 . S
C422 C430 1.574 . S
C422 C438 1.368 . S
H423 C431 0.950 . S
H424 C429 0.950 . S
H425 C430 0.949 . S
H426 C432 0.950 . S
H427 C433 0.950 . S
H428 C434 0.949 . S
C429 H424 0.950 . S
C429 C431 1.327 . S
C429 C435 1.429 . S
C430 C422 1.574 . S
C430 H425 0.949 . S
C430 C436 1.368 . S
C431 C415 1.349 . S
C431 H423 0.950 . S
C431 C429 1.327 . S
C432 C420 1.349 . S
C432 H426 0.950 . S
C432 C433 1.327 . S
C433 H427 0.950 . S
C433 C432 1.327 . S
C433 C437 1.429 . S
C434 C417 1.574 . S
C434 H428 0.949 . S
C434 C438 1.368 . S
C435 C416 1.429 . S
C435 C429 1.429 . S
C435 C436 1.523 . S
C436 C417 1.368 . S
C436 C430 1.368 . S
C436 C435 1.523 . S
C437 C421 1.429 . S
C437 C433 1.429 . S
C437 C438 1.523 . S
C438 C422 1.368 . S
C438 C434 1.368 . S
C438 C437 1.523 . S
H439 C414 0.950 . S
H440 C416 0.950 . S
H441 C417 0.949 . S
H442 C419 0.950 . S
H443 C421 0.950 . S
C85 C8 1.388 . S
C90 C50 1.388 . S
C115 C22 1.388 . S
C120 C64 1.388 . S
C145 C36 1.388 . S
C150 C78 1.388 . S
C175 C23 1.467 . S
C180 C65 1.467 . S
C205 C79 1.467 . S
C210 C37 1.467 . S
C235 C51 1.467 . S
C240 C9 1.467 . S
C265 C31 1.108 . S
C270 C7 1.126 . S
C295 C45 1.108 . S
C300 C21 1.126 . S
C325 C35 1.126 . S
C330 C59 1.108 . S
C355 C73 1.108 . S
C360 C49 1.126 . S
C385 C63 1.126 . S
C390 C3 1.108 . S
C415 C77 1.126 . S
C420 C17 1.108 . S
