# Generated by pormake.
# Topology ure, (4)-cn, num edge types: 1
# Building blocks:
#     Node 0, Type 0, BuildingBlock: CEKHIL_clean_sbu_0, # of connection points: 4
#     Node 1, Type 0, BuildingBlock: CEKHIL_clean_sbu_0, # of connection points: 4
#     Node 2, Type 0, BuildingBlock: CEKHIL_clean_sbu_0, # of connection points: 4
#     Node 3, Type 0, BuildingBlock: CEKHIL_clean_sbu_0, # of connection points: 4
#     Node 4, Type 0, BuildingBlock: CEKHIL_clean_sbu_0, # of connection points: 4
#     Node 5, Type 0, BuildingBlock: CEKHIL_clean_sbu_0, # of connection points: 4
#     Node 6, Type 0, BuildingBlock: CEKHIL_clean_sbu_0, # of connection points: 4
#     Node 7, Type 0, BuildingBlock: CEKHIL_clean_sbu_0, # of connection points: 4
#     Node 8, Type 0, BuildingBlock: CEKHIL_clean_sbu_0, # of connection points: 4
#     Node 9, Type 0, BuildingBlock: CEKHIL_clean_sbu_0, # of connection points: 4
#     Node 10, Type 0, BuildingBlock: CEKHIL_clean_sbu_0, # of connection points: 4
#     Node 11, Type 0, BuildingBlock: CEKHIL_clean_sbu_0, # of connection points: 4
#     Node 12, Type 0, BuildingBlock: CEKHIL_clean_sbu_0, # of connection points: 4
#     Node 13, Type 0, BuildingBlock: CEKHIL_clean_sbu_0, # of connection points: 4
#     Node 14, Type 0, BuildingBlock: CEKHIL_clean_sbu_0, # of connection points: 4
#     Node 15, Type 0, BuildingBlock: CEKHIL_clean_sbu_0, # of connection points: 4
#     Edge 16, Type (0, 0), BuildingBlock: XIVTED_clean_linker_0, # of connection points: 2
#     Edge 17, Type (0, 0), BuildingBlock: XIVTED_clean_linker_0, # of connection points: 2
#     Edge 18, Type (0, 0), BuildingBlock: XIVTED_clean_linker_0, # of connection points: 2
#     Edge 19, Type (0, 0), BuildingBlock: XIVTED_clean_linker_0, # of connection points: 2
#     Edge 20, Type (0, 0), BuildingBlock: XIVTED_clean_linker_0, # of connection points: 2
#     Edge 21, Type (0, 0), BuildingBlock: XIVTED_clean_linker_0, # of connection points: 2
#     Edge 22, Type (0, 0), BuildingBlock: XIVTED_clean_linker_0, # of connection points: 2
#     Edge 23, Type (0, 0), BuildingBlock: XIVTED_clean_linker_0, # of connection points: 2
#     Edge 24, Type (0, 0), BuildingBlock: XIVTED_clean_linker_0, # of connection points: 2
#     Edge 25, Type (0, 0), BuildingBlock: XIVTED_clean_linker_0, # of connection points: 2
#     Edge 26, Type (0, 0), BuildingBlock: XIVTED_clean_linker_0, # of connection points: 2
#     Edge 27, Type (0, 0), BuildingBlock: XIVTED_clean_linker_0, # of connection points: 2
#     Edge 28, Type (0, 0), BuildingBlock: XIVTED_clean_linker_0, # of connection points: 2
#     Edge 29, Type (0, 0), BuildingBlock: XIVTED_clean_linker_0, # of connection points: 2
#     Edge 30, Type (0, 0), BuildingBlock: XIVTED_clean_linker_0, # of connection points: 2
#     Edge 31, Type (0, 0), BuildingBlock: XIVTED_clean_linker_0, # of connection points: 2
#     Edge 32, Type (0, 0), BuildingBlock: XIVTED_clean_linker_0, # of connection points: 2
#     Edge 33, Type (0, 0), BuildingBlock: XIVTED_clean_linker_0, # of connection points: 2
#     Edge 34, Type (0, 0), BuildingBlock: XIVTED_clean_linker_0, # of connection points: 2
#     Edge 35, Type (0, 0), BuildingBlock: XIVTED_clean_linker_0, # of connection points: 2
#     Edge 36, Type (0, 0), BuildingBlock: XIVTED_clean_linker_0, # of connection points: 2
#     Edge 37, Type (0, 0), BuildingBlock: XIVTED_clean_linker_0, # of connection points: 2
#     Edge 38, Type (0, 0), BuildingBlock: XIVTED_clean_linker_0, # of connection points: 2
#     Edge 39, Type (0, 0), BuildingBlock: XIVTED_clean_linker_0, # of connection points: 2
#     Edge 40, Type (0, 0), BuildingBlock: XIVTED_clean_linker_0, # of connection points: 2
#     Edge 41, Type (0, 0), BuildingBlock: XIVTED_clean_linker_0, # of connection points: 2
#     Edge 42, Type (0, 0), BuildingBlock: XIVTED_clean_linker_0, # of connection points: 2
#     Edge 43, Type (0, 0), BuildingBlock: XIVTED_clean_linker_0, # of connection points: 2
#     Edge 44, Type (0, 0), BuildingBlock: XIVTED_clean_linker_0, # of connection points: 2
#     Edge 45, Type (0, 0), BuildingBlock: XIVTED_clean_linker_0, # of connection points: 2
#     Edge 46, Type (0, 0), BuildingBlock: XIVTED_clean_linker_0, # of connection points: 2
#     Edge 47, Type (0, 0), BuildingBlock: XIVTED_clean_linker_0, # of connection points: 2
# Relax obj value: 0.224
# Max RMSD: 0.160
# Mean RMSD: 0.160
data_MOF--net-ure--node1-CEKHIL_clean_sbu_0--edge1-XIVTED_clean_linker_0
_symmetry_space_group_name_H-M    P1
_symmetry_Int_Tables_number       1
_symmetry_cell_setting            triclinic
loop_
_symmetry_equiv_pos_as_xyz
'x, y, z'
_cell_length_a     34.270257
_cell_length_b     28.979945
_cell_length_c     28.985268
_cell_angle_alpha  89.999228
_cell_angle_beta   89.995016
_cell_angle_gamma 90.006051
loop_
_atom_site_label
_atom_site_type_symbol
_atom_site_fract_x
_atom_site_fract_y
_atom_site_fract_z
_atom_type_partial_charge
Co0 Co 0.27861 0.23397 0.28252 0.0
O1 O 0.22376 0.22763 0.26711 0.0
O2 O 0.27139 0.22082 0.21671 0.0
C3 C 0.27457 0.18764 0.34528 0.0
O4 O 0.33915 0.23627 0.28602 0.0
Co5 Co 0.305 0.27375 0.37771 0.0
O6 O 0.35623 0.24782 0.36019 0.0
C7 C 0.27592 0.33671 0.30437 0.0
C8 C 0.23413 0.21812 0.22522 0.0
C9 C 0.36505 0.23841 0.31853 0.0
O10 O 0.27563 0.30387 0.27397 0.0
O11 O 0.28342 0.32993 0.34712 0.0
O12 O 0.27899 0.16951 0.30468 0.0
O13 O 0.27085 0.2317 0.34634 0.0
Co14 Co 0.99317 0.0278 0.48745 0.0
O15 O 0.04808 0.01539 0.47667 0.0
O16 O 1.00187 0.96287 0.47191 0.0
C17 C 0.99171 0.09229 0.44338 0.0
O18 O 0.93295 0.02782 0.49428 0.0
Co19 Co 0.966 0.11935 0.53425 0.0
O20 O 0.91259 0.09575 0.52382 0.0
C21 C 1.00299 0.04608 0.59011 0.0
C22 C 0.03864 0.97315 0.46713 0.0
C23 C 0.90568 0.05554 0.50808 0.0
O24 O 1.00016 0.01678 0.55652 0.0
O25 O 0.99517 0.08902 0.58558 0.0
O26 O 0.98842 0.05204 0.42411 0.0
O27 O 0.9981 0.09212 0.48704 0.0
Co28 Co 0.23627 0.77525 0.77715 0.0
O29 O 0.29161 0.78442 0.76587 0.0
O30 O 0.24625 0.78989 0.71238 0.0
C31 C 0.23465 0.81987 0.8412 0.0
O32 O 0.17596 0.7705 0.77551 0.0
Co33 Co 0.2054 0.73052 0.8679 0.0
O34 O 0.15286 0.74515 0.84386 0.0
C35 C 0.24399 0.67279 0.79714 0.0
C36 C 0.28292 0.79389 0.72338 0.0
C37 C 0.14755 0.75985 0.80297 0.0
O38 O 0.24227 0.7059 0.76715 0.0
O39 O 0.23472 0.67813 0.83958 0.0
O40 O 0.23256 0.8389 0.80072 0.0
O41 O 0.23989 0.77598 0.84158 0.0
Co42 Co 0.52939 0.97417 0.98714 0.0
O43 O 0.47568 0.99172 0.97624 0.0
O44 O 0.52498 0.04015 0.97228 0.0
C45 C 0.5257 0.91066 0.94171 0.0
O46 O 0.58949 0.96748 0.99513 0.0
Co47 Co 0.54779 0.87872 0.03186 0.0
O48 O 0.60224 0.89407 0.01559 0.0
C49 C 0.51749 0.95516 0.08943 0.0
C50 C 0.48763 0.0331 0.96738 0.0
C51 C 0.61377 0.9344 0.00447 0.0
O52 O 0.52234 0.98457 0.05625 0.0
O53 O 0.52232 0.91165 0.08433 0.0
O54 O 0.53306 0.95056 0.92331 0.0
O55 O 0.51898 0.91096 0.98525 0.0
Co56 Co 0.27985 0.77258 0.22804 0.0
O57 O 0.22496 0.77982 0.2429 0.0
O58 O 0.27255 0.78828 0.29317 0.0
C59 C 0.27697 0.81618 0.16324 0.0
O60 O 0.34036 0.77 0.22497 0.0
Co61 Co 0.30596 0.72721 0.13503 0.0
O62 O 0.35784 0.75162 0.15222 0.0
C63 C 0.27414 0.66933 0.21043 0.0
C64 C 0.23532 0.79076 0.28448 0.0
C65 C 0.3664 0.76457 0.19298 0.0
O66 O 0.27638 0.70317 0.23956 0.0
O67 O 0.28086 0.67398 0.16723 0.0
O68 O 0.28047 0.83604 0.20317 0.0
O69 O 0.2729 0.77214 0.16412 0.0
Co70 Co 0.52842 0.02833 0.52349 0.0
O71 O 0.47342 0.0161 0.53374 0.0
O72 O 0.51948 0.96337 0.53861 0.0
C73 C 0.52975 0.09254 0.56791 0.0
O74 O 0.58868 0.02813 0.5171 0.0
Co75 Co 0.55618 0.11998 0.47738 0.0
O76 O 0.60944 0.09605 0.48791 0.0
C77 C 0.51879 0.0474 0.42103 0.0
C78 C 0.48272 0.97379 0.54316 0.0
C79 C 0.61612 0.05574 0.50353 0.0
O80 O 0.52166 0.01783 0.45437 0.0
O81 O 0.52676 0.09028 0.42586 0.0
O82 O 0.53273 0.05216 0.587 0.0
O83 O 0.52372 0.09263 0.52418 0.0
Co84 Co 0.24617 0.23644 0.73242 0.0
O85 O 0.30145 0.22838 0.74473 0.0
O86 O 0.25555 0.22231 0.79749 0.0
C87 C 0.2461 0.19123 0.66871 0.0
O88 O 0.18572 0.24021 0.73247 0.0
Co89 Co 0.21673 0.27976 0.64002 0.0
O90 O 0.16519 0.25674 0.66039 0.0
C91 C 0.25151 0.33929 0.71242 0.0
C92 C 0.29241 0.21882 0.78708 0.0
C93 C 0.15837 0.24533 0.70205 0.0
O94 O 0.25088 0.30594 0.74218 0.0
O95 O 0.24268 0.33385 0.66983 0.0
O96 O 0.24362 0.17247 0.70927 0.0
O97 O 0.25084 0.2352 0.66813 0.0
Co98 Co 0.9932 0.97863 0.0259 0.0
O99 O 0.04797 0.99389 0.03346 0.0
O100 O 1.00031 0.04428 0.04007 0.0
C101 C 0.99647 0.91515 0.07124 0.0
O102 O 0.93264 0.97512 0.0225 0.0
Co103 Co 0.96747 0.88434 0.98364 0.0
O104 O 0.91584 0.90114 0.009 0.0
C105 C 0.99901 0.95816 0.9232 0.0
C106 C 0.03754 0.03572 0.04317 0.0
C107 C 0.90684 0.94253 0.01931 0.0
O108 O 0.99742 0.98821 0.95629 0.0
O109 O 0.99164 0.91524 0.92908 0.0
O110 O 0.9919 0.95549 0.08995 0.0
O111 O 1.00087 0.91481 0.02726 0.0
Co112 Co 0.78143 0.27519 0.72537 0.0
O113 O 0.72708 0.28727 0.73925 0.0
O114 O 0.77385 0.28726 0.7913 0.0
C115 C 0.78315 0.32302 0.66371 0.0
O116 O 0.84147 0.26555 0.7233 0.0
Co117 Co 0.80448 0.23299 0.62983 0.0
O118 O 0.85846 0.24287 0.65159 0.0
C119 C 0.76841 0.17399 0.70145 0.0
C120 C 0.73712 0.29389 0.78179 0.0
C121 C 0.8674 0.2539 0.69284 0.0
O122 O 0.77236 0.20596 0.73235 0.0
O123 O 0.77568 0.18046 0.65861 0.0
O124 O 0.78774 0.33977 0.70488 0.0
O125 O 0.77535 0.27977 0.66158 0.0
Co126 Co 0.02508 0.52784 0.0212 0.0
O127 O 0.97016 0.51581 0.03225 0.0
O128 O 0.01605 0.46278 0.03579 0.0
C129 C 0.02747 0.59174 0.06603 0.0
O130 O 0.08525 0.5275 0.01368 0.0
Co131 Co 0.05207 0.61989 0.9749 0.0
O132 O 0.1054 0.59552 0.98408 0.0
C133 C 0.01432 0.54737 0.91893 0.0
C134 C 0.97935 0.47331 0.0409 0.0
C135 C 0.11242 0.55517 0.99943 0.0
O136 O 0.01758 0.51776 0.95216 0.0
O137 O 0.02211 0.59029 0.92374 0.0
O138 O 0.03036 0.55122 0.08484 0.0
O139 O 0.02071 0.59213 0.02245 0.0
Co140 Co 0.74334 0.73855 0.22566 0.0
O141 O 0.79685 0.72688 0.2434 0.0
O142 O 0.74726 0.72355 0.29154 0.0
C143 C 0.74641 0.69338 0.16207 0.0
O144 O 0.68345 0.74724 0.21872 0.0
Co145 Co 0.72579 0.7841 0.13022 0.0
O146 O 0.67115 0.76828 0.14536 0.0
C147 C 0.75595 0.84091 0.20727 0.0
C148 C 0.78458 0.71815 0.28469 0.0
C149 C 0.6594 0.75695 0.18555 0.0
O150 O 0.75085 0.80754 0.2364 0.0
O151 O 0.75137 0.83618 0.16369 0.0
O152 O 0.7389 0.67488 0.20187 0.0
O153 O 0.75376 0.73679 0.16251 0.0
Co154 Co 0.02573 0.48042 0.48379 0.0
O155 O 0.97073 0.49452 0.47615 0.0
O156 O 0.01787 0.54576 0.46984 0.0
C157 C 0.02362 0.41675 0.43873 0.0
O158 O 0.08619 0.47871 0.48701 0.0
Co159 Co 0.05397 0.38731 0.52615 0.0
O160 O 0.10525 0.40555 0.50066 0.0
C161 C 0.02042 0.46012 0.58635 0.0
C162 C 0.98076 0.53658 0.46667 0.0
C163 C 0.1129 0.44725 0.49019 0.0
O164 O 0.02138 0.49012 0.55324 0.0
O165 O 0.02889 0.41747 0.58061 0.0
O166 O 0.02741 0.45713 0.41985 0.0
O167 O 0.01938 0.41638 0.48275 0.0
Co168 Co 0.48973 0.52405 0.98205 0.0
O169 O 0.54478 0.51256 0.97108 0.0
O170 O 0.49912 0.45924 0.96707 0.0
C171 C 0.48717 0.58821 0.93775 0.0
O172 O 0.42954 0.52293 0.98906 0.0
Co173 Co 0.46111 0.61523 0.02849 0.0
O174 O 0.40803 0.59077 0.01769 0.0
C175 C 0.50065 0.54361 0.08406 0.0
C176 C 0.53575 0.47007 0.96206 0.0
C177 C 0.4018 0.55029 1.00229 0.0
O178 O 0.49733 0.51374 0.05106 0.0
O179 O 0.4921 0.58632 0.07917 0.0
O180 O 0.4845 0.54784 0.91857 0.0
O181 O 0.49358 0.58836 0.9814 0.0
Co182 Co 0.77157 0.73937 0.77202 0.0
O183 O 0.71737 0.72751 0.75699 0.0
O184 O 0.76549 0.72306 0.70686 0.0
C185 C 0.77076 0.69586 0.83686 0.0
O186 O 0.83161 0.74747 0.77521 0.0
Co187 Co 0.79425 0.78731 0.86441 0.0
O188 O 0.8487 0.77751 0.84409 0.0
C189 C 0.7593 0.84179 0.78878 0.0
C190 C 0.72842 0.71788 0.71536 0.0
C191 C 0.85756 0.76191 0.80435 0.0
O192 O 0.76398 0.80811 0.75994 0.0
O193 O 0.76538 0.83772 0.83215 0.0
O194 O 0.77647 0.67637 0.7971 0.0
O195 O 0.76378 0.73939 0.8359 0.0
Co196 Co 0.74195 0.27339 0.28324 0.0
O197 O 0.7959 0.2832 0.26613 0.0
O198 O 0.74707 0.28591 0.21692 0.0
C199 C 0.7449 0.32111 0.34497 0.0
O200 O 0.68179 0.26625 0.28948 0.0
Co201 Co 0.72252 0.23206 0.38009 0.0
O202 O 0.6686 0.24976 0.36379 0.0
C203 C 0.75215 0.17132 0.3057 0.0
C204 C 0.78435 0.29092 0.22436 0.0
C205 C 0.65733 0.25925 0.32295 0.0
O206 O 0.74852 0.20385 0.27533 0.0
O207 O 0.74675 0.1777 0.34894 0.0
O208 O 0.7385 0.33808 0.30425 0.0
O209 O 0.75152 0.27755 0.3465 0.0
Co210 Co 0.48998 0.47512 0.51595 0.0
O211 O 0.54408 0.49025 0.52809 0.0
O212 O 0.4964 0.54113 0.52856 0.0
C213 C 0.48946 0.41296 0.56326 0.0
O214 O 0.42998 0.47163 0.50637 0.0
Co215 Co 0.46872 0.3795 0.47286 0.0
O216 O 0.41433 0.39976 0.48295 0.0
C217 C 0.50366 0.45247 0.4147 0.0
C218 C 0.53331 0.53249 0.53506 0.0
C219 C 0.4046 0.44065 0.4944 0.0
O220 O 0.4988 0.48301 0.44682 0.0
O221 O 0.49743 0.40935 0.42085 0.0
O222 O 0.4841 0.45388 0.58033 0.0
O223 O 0.49729 0.41142 0.52 0.0
H224 H 0.15443 0.22451 0.22881 0.0
H225 H 0.11724 0.03204 0.03718 0.0
H226 H 0.24707 0.16848 0.14526 0.0
H227 H 0.0245 0.11572 0.09279 0.0
H228 H 0.165 0.08162 0.07576 0.0
H229 H 0.1066 0.18579 0.1794 0.0
C230 C 0.16477 0.20455 0.19967 0.0
C231 C 0.20502 0.19992 0.19129 0.0
C232 C 0.13426 0.08957 0.07915 0.0
C233 C 0.15 0.15439 0.13475 0.0
C234 C 0.10686 0.06122 0.05705 0.0
C235 C 0.0666 0.0696 0.06158 0.0
C236 C 0.12156 0.12638 0.10692 0.0
C237 C 0.05513 0.10797 0.08801 0.0
C238 C 0.13734 0.18235 0.17143 0.0
C239 C 0.21644 0.17335 0.153 0.0
N240 N 0.08236 0.13449 0.11007 0.0
N241 N 0.18919 0.1512 0.12661 0.0
H242 H 0.11837 0.9802 0.46931 0.0
H243 H 0.15557 0.7843 0.2813 0.0
H244 H 0.02629 0.89206 0.41928 0.0
H245 H 0.2485 0.84243 0.36296 0.0
H246 H 0.1079 0.82372 0.33042 0.0
H247 H 0.16628 0.9312 0.43018 0.0
C248 C 0.10819 0.95023 0.4505 0.0
C249 C 0.06808 0.94034 0.44774 0.0
C250 C 0.13867 0.82748 0.338 0.0
C251 C 0.12312 0.88423 0.40185 0.0
C252 C 0.166 0.80491 0.30993 0.0
C253 C 0.20627 0.80987 0.31793 0.0
C254 C 0.15148 0.85615 0.37407 0.0
C255 C 0.21785 0.83728 0.35556 0.0
C256 C 0.13566 0.92221 0.42812 0.0
C257 C 0.05683 0.90099 0.42265 0.0
N258 N 0.19069 0.85977 0.38177 0.0
N259 N 0.08407 0.87479 0.40029 0.0
H260 H 0.40307 0.97986 0.53827 0.0
H261 H 0.36263 0.79047 0.73148 0.0
H262 H 0.49467 0.894 0.59319 0.0
H263 H 0.27183 0.84182 0.64229 0.0
H264 H 0.41136 0.82908 0.68304 0.0
H265 H 0.35469 0.93133 0.57721 0.0
C266 C 0.41304 0.95047 0.55812 0.0
C267 C 0.45314 0.94106 0.5623 0.0
C268 C 0.38083 0.83151 0.67372 0.0
C269 C 0.39759 0.88561 0.60802 0.0
C270 C 0.35291 0.80945 0.70141 0.0
C271 C 0.31292 0.81276 0.69103 0.0
C272 C 0.36883 0.85804 0.63567 0.0
C273 C 0.30225 0.83804 0.65158 0.0
C274 C 0.38532 0.92272 0.58038 0.0
C275 C 0.46415 0.90248 0.5887 0.0
N276 N 0.3299 0.86011 0.62578 0.0
N277 N 0.43664 0.8766 0.61098 0.0
H278 H 0.40847 0.03487 0.977 0.0
H279 H 0.37215 0.21986 0.77821 0.0
H280 H 0.50284 0.11018 0.9138 0.0
H281 H 0.28102 0.17352 0.86969 0.0
H282 H 0.42042 0.18078 0.82687 0.0
H283 H 0.36172 0.08545 0.93828 0.0
C284 C 0.41944 0.06248 0.95539 0.0
C285 C 0.4598 0.0682 0.94881 0.0
C286 C 0.38994 0.17959 0.83667 0.0
C287 C 0.40595 0.12609 0.90323 0.0
C288 C 0.36227 0.20195 0.80886 0.0
C289 C 0.32227 0.2001 0.81974 0.0
C290 C 0.3777 0.15434 0.87546 0.0
C291 C 0.31142 0.17615 0.85993 0.0
C292 C 0.39262 0.09141 0.93321 0.0
C293 C 0.47209 0.10462 0.92022 0.0
N294 N 0.33882 0.15384 0.88589 0.0
N295 N 0.44532 0.13172 0.89804 0.0
H296 H 0.75079 0.34176 0.86254 0.0
H297 H 0.52365 0.38849 0.91543 0.0
H298 H 0.65748 0.28937 0.77765 0.0
H299 H 0.61556 0.4778 0.96386 0.0
H300 H 0.57281 0.34061 0.87648 0.0
H301 H 0.70208 0.38042 0.91158 0.0
C302 C 0.72009 0.33766 0.85468 0.0
C303 C 0.7083 0.31228 0.8158 0.0
C304 C 0.58223 0.37045 0.89602 0.0
C305 C 0.65232 0.35642 0.87186 0.0
C306 C 0.55418 0.39766 0.91852 0.0
C307 C 0.56537 0.43741 0.94293 0.0
C308 C 0.62197 0.38253 0.8984 0.0
C309 C 0.60548 0.44764 0.94533 0.0
C310 C 0.6923 0.36003 0.88249 0.0
C311 C 0.66801 0.30866 0.80712 0.0
N312 N 0.63222 0.4205 0.92342 0.0
N313 N 0.6416 0.33039 0.83479 0.0
H314 H 0.89965 0.48146 0.03991 0.0
H315 H 0.86361 0.28184 0.22368 0.0
H316 H 0.99134 0.39059 0.08587 0.0
H317 H 0.76949 0.34325 0.1465 0.0
H318 H 0.91056 0.32098 0.17359 0.0
H319 H 0.85163 0.43187 0.07819 0.0
C320 C 0.90971 0.45079 0.05763 0.0
C321 C 0.94976 0.44032 0.05959 0.0
C322 C 0.87968 0.32551 0.16711 0.0
C323 C 0.89463 0.38351 0.10441 0.0
C324 C 0.85276 0.30308 0.19572 0.0
C325 C 0.8124 0.30911 0.18935 0.0
C326 C 0.86642 0.35519 0.13214 0.0
C327 C 0.80024 0.33727 0.15256 0.0
C328 C 0.88218 0.42242 0.0795 0.0
C329 C 0.96086 0.40004 0.08321 0.0
N330 N 0.82708 0.35973 0.12582 0.0
N331 N 0.93359 0.37353 0.1051 0.0
H332 H 0.99403 0.61933 0.42259 0.0
H333 H 0.768 0.66609 0.36223 0.0
H334 H 0.90083 0.53012 0.46771 0.0
H335 H 0.86398 0.72532 0.28649 0.0
H336 H 0.81522 0.62631 0.41249 0.0
H337 H 0.94574 0.66868 0.38412 0.0
C338 C 0.9634 0.61048 0.42508 0.0
C339 C 0.95162 0.57032 0.44838 0.0
C340 C 0.82588 0.64846 0.38517 0.0
C341 C 0.89596 0.6268 0.40418 0.0
C342 C 0.79892 0.67145 0.35669 0.0
C343 C 0.81196 0.69906 0.31995 0.0
C344 C 0.86623 0.6536 0.37731 0.0
C345 C 0.8525 0.70427 0.3142 0.0
C346 C 0.93581 0.63854 0.40284 0.0
C347 C 0.91138 0.56059 0.45006 0.0
N348 N 0.87804 0.68181 0.34237 0.0
N349 N 0.88511 0.58844 0.42823 0.0
H350 H 0.51815 0.61416 0.58069 0.0
H351 H 0.74384 0.66829 0.63617 0.0
H352 H 0.61309 0.5289 0.53321 0.0
H353 H 0.64858 0.72096 0.71783 0.0
H354 H 0.69642 0.62796 0.58687 0.0
H355 H 0.56567 0.66447 0.61969 0.0
C356 C 0.54897 0.60644 0.57776 0.0
C357 C 0.56154 0.56709 0.55367 0.0
C358 C 0.68591 0.64875 0.61531 0.0
C359 C 0.6162 0.6246 0.59828 0.0
C360 C 0.71298 0.67204 0.6433 0.0
C361 C 0.70028 0.69803 0.68137 0.0
C362 C 0.64571 0.6519 0.62495 0.0
C363 C 0.65981 0.70121 0.68904 0.0
C364 C 0.57609 0.635 0.60031 0.0
C365 C 0.60196 0.55869 0.55149 0.0
N366 N 0.63409 0.67848 0.66124 0.0
N367 N 0.62772 0.58703 0.57346 0.0
H368 H 0.20759 0.15676 0.38304 0.0
H369 H 0.30715 0.14513 0.63133 0.0
H370 H 0.33155 0.16329 0.40603 0.0
H371 H 0.18738 0.18234 0.60645 0.0
H372 H 0.31388 0.12376 0.54968 0.0
H373 H 0.198 0.13757 0.46464 0.0
C374 C 0.23288 0.15215 0.405 0.0
C375 C 0.2704 0.16098 0.38803 0.0
C376 C 0.2858 0.13527 0.56238 0.0
C377 C 0.25973 0.14077 0.4814 0.0
C378 C 0.28187 0.14698 0.60896 0.0
C379 C 0.24659 0.16508 0.62535 0.0
C380 C 0.2542 0.14195 0.5322 0.0
C381 C 0.21494 0.16814 0.59499 0.0
C382 C 0.22741 0.14174 0.45159 0.0
C383 C 0.30222 0.15605 0.41791 0.0
N384 N 0.21958 0.15716 0.54971 0.0
N385 N 0.29616 0.14684 0.46341 0.0
H386 H 1.00729 0.04622 0.88706 0.0
H387 H 1.00482 0.95734 0.62556 0.0
H388 H 0.01076 0.90221 0.84861 0.0
H389 H 0.02187 0.09985 0.66407 0.0
H390 H 0.01042 0.93585 0.70721 0.0
H391 H 0.01557 0.06671 0.80545 0.0
C392 C 0.01014 0.01897 0.86172 0.0
C393 C 1.00783 0.97248 0.87497 0.0
C394 C 0.01334 0.97179 0.6976 0.0
C395 C 0.01704 0.99555 0.78148 0.0
C396 C 0.01033 0.98399 0.65092 0.0
C397 C 0.01237 0.03051 0.63776 0.0
C398 C 0.01821 0.00639 0.73131 0.0
C399 C 0.01951 0.06359 0.67241 0.0
C400 C 0.01483 0.03062 0.81509 0.0
C401 C 0.01183 0.93861 0.84033 0.0
N402 N 0.0217 0.05098 0.71743 0.0
N403 N 0.01585 0.95081 0.79538 0.0
H404 H 0.17742 0.83731 0.90376 0.0
H405 H 0.21978 0.87438 0.13383 0.0
H406 H 0.30014 0.85568 0.87815 0.0
H407 H 0.32781 0.81119 0.09186 0.0
H408 H 0.20718 0.89583 0.05301 0.0
H409 H 0.18814 0.85633 0.98518 0.0
C410 C 0.2063 0.84758 0.91503 0.0
C411 C 0.23786 0.84591 0.88442 0.0
C412 C 0.23399 0.87807 0.06168 0.0
C413 C 0.25076 0.8661 0.97739 0.0
C414 C 0.24144 0.8665 0.10776 0.0
C415 C 0.27487 0.84109 0.11917 0.0
C416 C 0.26032 0.86405 0.02719 0.0
C417 C 0.30173 0.83079 0.08429 0.0
C418 C 0.2125 0.85836 0.9615 0.0
C419 C 0.27502 0.85757 0.90076 0.0
N420 N 0.29377 0.84206 0.0398 0.0
N421 N 0.28063 0.86609 0.9464 0.0
H422 H 0.51285 0.95872 0.38628 0.0
H423 H 0.51542 0.04416 0.12421 0.0
H424 H 0.50274 0.1019 0.34646 0.0
H425 H 0.49959 0.90173 0.16417 0.0
H426 H 0.50852 0.06647 0.20548 0.0
H427 H 0.50554 0.93689 0.30496 0.0
C428 C 0.50859 0.98549 0.3607 0.0
C429 C 0.50896 0.03219 0.37341 0.0
C430 C 0.50619 0.03038 0.19624 0.0
C431 C 0.50108 0.0076 0.28023 0.0
C432 C 0.51005 0.01768 0.1498 0.0
C433 C 0.50859 0.97099 0.13712 0.0
C434 C 0.5011 0.99612 0.23022 0.0
C435 C 0.50149 0.93817 0.17205 0.0
C436 C 0.50453 0.97307 0.31422 0.0
C437 C 0.50327 0.06541 0.3385 0.0
N438 N 0.49847 0.9513 0.21684 0.0
N439 N 0.50004 0.05251 0.29365 0.0
H440 H 0.41777 0.19514 0.37254 0.0
H441 H 0.61411 0.26638 0.24077 0.0
H442 H 0.40949 0.26958 0.24418 0.0
H443 H 0.60066 0.24951 0.388 0.0
H444 H 0.54249 0.25702 0.23241 0.0
H445 H 0.48852 0.19906 0.36789 0.0
C446 C 0.43092 0.21174 0.34285 0.0
C447 C 0.40751 0.23234 0.30891 0.0
C448 C 0.55557 0.25558 0.26638 0.0
C449 C 0.48939 0.23811 0.30387 0.0
C450 C 0.59639 0.26108 0.27124 0.0
C451 C 0.61399 0.25844 0.31515 0.0
C452 C 0.53247 0.24663 0.3056 0.0
C453 C 0.58918 0.25141 0.35327 0.0
C454 C 0.47145 0.21433 0.34039 0.0
C455 C 0.42642 0.25309 0.27104 0.0
N456 N 0.55026 0.24543 0.34749 0.0
N457 N 0.46636 0.25601 0.26975 0.0
H458 H 0.0818 0.35716 0.41588 0.0
H459 H 0.93237 0.15265 0.42876 0.0
H460 H 0.95747 0.37669 0.4082 0.0
H461 H 0.05507 0.13209 0.40471 0.0
H462 H 0.93974 0.23404 0.40746 0.0
H463 H 0.07278 0.27523 0.39761 0.0
C464 C 0.05275 0.34442 0.4084 0.0
C465 C 0.02034 0.37345 0.41283 0.0
C466 C 0.96492 0.21156 0.40542 0.0
C467 C 1.00945 0.27973 0.39416 0.0
C468 C 0.96056 0.16507 0.41724 0.0
C469 C 0.99306 0.13589 0.41774 0.0
C470 C 1.00231 0.22908 0.39548 0.0
C471 C 0.02926 0.15364 0.404 0.0
C472 C 0.04749 0.29761 0.3984 0.0
C473 C 0.98317 0.35527 0.40434 0.0
N474 N 0.03309 0.19932 0.39419 0.0
N475 N 0.97863 0.30939 0.39621 0.0
H476 H 0.9018 0.6967 0.75781 0.0
H477 H 0.10247 0.83712 0.79308 0.0
H478 H 0.90956 0.82987 0.82341 0.0
H479 H 0.09876 0.68909 0.78133 0.0
H480 H 0.03107 0.83937 0.78414 0.0
H481 H 0.97335 0.69755 0.74725 0.0
C482 C 0.91841 0.72639 0.76919 0.0
C483 C 0.89972 0.76311 0.79179 0.0
C484 C 0.04595 0.80645 0.78261 0.0
C485 C 0.98122 0.76464 0.77938 0.0
C486 C 0.0867 0.80526 0.78718 0.0
C487 C 0.10647 0.76294 0.78725 0.0
C488 C 0.02483 0.76499 0.77795 0.0
C489 C 0.08454 0.72246 0.78083 0.0
C490 C 0.9592 0.72679 0.7634 0.0
C491 C 0.92277 0.80062 0.80619 0.0
N492 N 0.04495 0.72442 0.77656 0.0
N493 N 0.96209 0.80042 0.79975 0.0
H494 H 0.42807 0.64988 0.93161 0.0
H495 H 0.57987 0.85128 0.90617 0.0
H496 H 0.54732 0.62691 0.89113 0.0
H497 H 0.45627 0.87248 0.92183 0.0
H498 H 0.56729 0.77052 0.88492 0.0
H499 H 0.4352 0.73161 0.91232 0.0
C500 C 0.45529 0.66192 0.91686 0.0
C501 C 0.48699 0.6319 0.91224 0.0
C502 C 0.54279 0.79316 0.89154 0.0
C503 C 0.49628 0.7256 0.89246 0.0
C504 C 0.55003 0.83928 0.90325 0.0
C505 C 0.51898 0.86826 0.91524 0.0
C506 C 0.50431 0.77607 0.89288 0.0
C507 C 0.48089 0.85104 0.91236 0.0
C508 C 0.45958 0.70864 0.90624 0.0
C509 C 0.52207 0.64915 0.89438 0.0
N510 N 0.47463 0.80592 0.90217 0.0
N511 N 0.52608 0.69511 0.88598 0.0
H512 H 0.61529 0.73466 0.26417 0.0
H513 H 0.4163 0.81177 0.1389 0.0
H514 H 0.6037 0.78339 0.124 0.0
H515 H 0.41304 0.73395 0.26548 0.0
H516 H 0.48713 0.8123 0.14219 0.0
H517 H 0.54358 0.74128 0.27291 0.0
C518 C 0.59796 0.74659 0.23531 0.0
C519 C 0.61606 0.75833 0.19323 0.0
C520 C 0.47123 0.79535 0.16968 0.0
C521 C 0.53425 0.76675 0.20332 0.0
C522 C 0.43061 0.79542 0.16796 0.0
C523 C 0.40863 0.77281 0.20191 0.0
C524 C 0.49072 0.77188 0.20533 0.0
C525 C 0.42889 0.75213 0.23878 0.0
C526 C 0.55705 0.75046 0.24038 0.0
C527 C 0.59176 0.77374 0.15719 0.0
N528 N 0.46891 0.75163 0.23928 0.0
N529 N 0.55266 0.77755 0.16319 0.0
H530 H 0.46597 0.12594 0.61132 0.0
H531 H 0.55382 0.38077 0.60603 0.0
H532 H 0.58531 0.15851 0.57832 0.0
H533 H 0.43355 0.34814 0.5783 0.0
H534 H 0.56531 0.30004 0.62775 0.0
H535 H 0.45456 0.20735 0.63078 0.0
C536 C 0.49018 0.14998 0.61023 0.0
C537 C 0.52673 0.1358 0.59387 0.0
C538 C 0.5361 0.31089 0.61847 0.0
C539 C 0.51382 0.22853 0.61495 0.0
C540 C 0.52946 0.35693 0.6066 0.0
C541 C 0.4926 0.37087 0.59106 0.0
C542 C 0.50563 0.27874 0.61451 0.0
C543 C 0.4622 0.33862 0.59085 0.0
C544 C 0.48358 0.19637 0.62083 0.0
C545 C 0.55691 0.16824 0.5915 0.0
N546 N 0.46946 0.2938 0.6019 0.0
N547 N 0.54971 0.2133 0.6015 0.0
H548 H 0.10911 0.18393 0.66357 0.0
H549 H 0.91261 0.3038 0.75606 0.0
H550 H 0.11245 0.29277 0.76457 0.0
H551 H 0.91877 0.19273 0.65728 0.0
H552 H 0.98408 0.29736 0.76723 0.0
H553 H 0.03823 0.18261 0.66894 0.0
C554 C 0.0948 0.20679 0.68786 0.0
C555 C 0.11672 0.23798 0.71411 0.0
C556 C 0.96955 0.2742 0.74349 0.0
C557 C 0.03471 0.23801 0.7195 0.0
C558 C 0.92877 0.27779 0.73722 0.0
C559 C 0.90958 0.24922 0.70519 0.0
C560 C 0.99102 0.24145 0.71792 0.0
C561 C 0.93213 0.21615 0.68173 0.0
C562 C 0.05417 0.20632 0.69076 0.0
C563 C 0.09658 0.26757 0.74437 0.0
N564 N 0.97123 0.2134 0.68842 0.0
N565 N 0.05663 0.26729 0.74587 0.0
H566 H 0.06385 0.87827 0.10177 0.0
H567 H 0.96778 0.62786 0.11544 0.0
H568 H 0.94021 0.85305 0.09465 0.0
H569 H 0.08534 0.65536 0.07089 0.0
H570 H 0.96057 0.70952 0.13678 0.0
H571 H 0.07446 0.79664 0.12016 0.0
C572 C 0.03883 0.8558 0.1061 0.0
C573 C 1.00111 0.87216 0.09735 0.0
C574 C 0.98835 0.69736 0.12375 0.0
C575 C 0.01297 0.77884 0.11678 0.0
C576 C 0.99259 0.65081 0.11206 0.0
C577 C 0.02736 0.63516 0.09203 0.0
C578 C 0.01917 0.72819 0.11524 0.0
C579 C 0.05829 0.66624 0.08687 0.0
C580 C 0.0449 0.80921 0.11605 0.0
C581 C 0.96966 0.84164 0.10189 0.0
N582 N 0.05339 0.71144 0.09803 0.0
N583 N 0.97631 0.79618 0.11076 0.0
H584 H 0.2753 0.41228 0.36062 0.0
H585 H 0.25202 0.59585 0.15763 0.0
H586 H 0.26154 0.3738 0.21755 0.0
H587 H 0.27784 0.63292 0.29868 0.0
H588 H 0.24737 0.51533 0.18042 0.0
H589 H 0.26857 0.49269 0.33963 0.0
C590 C 0.27052 0.42051 0.32465 0.0
C591 C 0.26913 0.38565 0.29076 0.0
C592 C 0.25377 0.54099 0.20651 0.0
C593 C 0.26164 0.47905 0.26644 0.0
C594 C 0.25642 0.58721 0.19362 0.0
C595 C 0.26586 0.62149 0.22624 0.0
C596 C 0.26056 0.52848 0.25247 0.0
C597 C 0.27062 0.60786 0.27233 0.0
C598 C 0.26677 0.46681 0.31275 0.0
C599 C 0.26294 0.39921 0.24486 0.0
N600 N 0.26827 0.56236 0.28398 0.0
N601 N 0.25963 0.44487 0.23402 0.0
H602 H 0.75702 0.1376 0.78875 0.0
H603 H 0.76236 0.87699 0.70006 0.0
H604 H 0.75582 0.10028 0.64441 0.0
H605 H 0.73554 0.9152 0.84057 0.0
H606 H 0.75736 0.95858 0.67807 0.0
H607 H 0.74692 0.05615 0.80838 0.0
C608 C 0.75423 0.11255 0.76122 0.0
C609 C 0.75777 0.12605 0.71493 0.0
C610 C 0.75211 0.9489 0.71361 0.0
C611 C 0.74661 0.03267 0.73707 0.0
C612 C 0.75479 0.90226 0.72609 0.0
C613 C 0.74994 0.8891 0.77232 0.0
C614 C 0.7448 0.98252 0.74767 0.0
C615 C 0.74021 0.92359 0.8046 0.0
C616 C 0.74849 0.066 0.7724 0.0
C617 C 0.7538 0.09177 0.68069 0.0
N618 N 0.73848 0.96858 0.7918 0.0
N619 N 0.74891 0.04681 0.69245 0.0
H620 H 0.35356 0.54078 0.07585 0.0
H621 H 0.16197 0.56125 0.92692 0.0
H622 H 0.35558 0.52858 0.92783 0.0
H623 H 0.15771 0.51727 0.06879 0.0
H624 H 0.23254 0.54855 0.92639 0.0
H625 H 0.28246 0.53093 0.0748 0.0
C626 C 0.33902 0.53487 0.04318 0.0
C627 C 0.3605 0.53486 1.0019 0.0
C628 C 0.21624 0.54091 0.95748 0.0
C629 C 0.27884 0.52527 1.00022 0.0
C630 C 0.17591 0.54817 0.95782 0.0
C631 C 0.15389 0.54013 0.99793 0.0
C632 C 0.23521 0.52673 0.99799 0.0
C633 C 0.17351 0.52347 0.03705 0.0
C634 C 0.29842 0.52939 0.04259 0.0
C635 C 0.34019 0.52803 0.96044 0.0
N636 N 0.21315 0.5181 0.03637 0.0
N637 N 0.30046 0.52427 0.96059 0.0
H638 H 0.76355 0.09633 0.36142 0.0
H639 H 0.77771 0.91509 0.15508 0.0
H640 H 0.75977 0.1353 0.21757 0.0
H641 H 0.75335 0.87612 0.29605 0.0
H642 H 0.78251 0.99525 0.1789 0.0
H643 H 0.77074 0.01611 0.33895 0.0
C644 C 0.76449 0.08825 0.32495 0.0
C645 C 0.76058 0.12304 0.29128 0.0
C646 C 0.77638 0.96922 0.20472 0.0
C647 C 0.76904 0.03027 0.26546 0.0
C648 C 0.77369 0.92319 0.19125 0.0
C649 C 0.76455 0.8885 0.22355 0.0
C650 C 0.77013 0.98108 0.25095 0.0
C651 C 0.76027 0.90151 0.26991 0.0
C652 C 0.76857 0.04215 0.31226 0.0
C653 C 0.76247 0.10988 0.24474 0.0
N654 N 0.76281 0.94684 0.28216 0.0
N655 N 0.76636 0.0645 0.23321 0.0
H656 H 0.85577 0.88932 0.06603 0.0
H657 H 0.65774 0.01408 0.98503 0.0
H658 H 0.86076 0.01456 0.98613 0.0
H659 H 0.66976 0.87222 0.02854 0.0
H660 H 0.72937 0.02314 0.99306 0.0
H661 H 0.78494 0.89263 0.0643 0.0
C662 C 0.84186 0.91809 0.04869 0.0
C663 C 0.86438 0.9516 0.02612 0.0
C664 C 0.716 0.99017 1.00073 0.0
C665 C 0.78226 0.95504 0.02269 0.0
C666 C 0.67513 0.9849 0.99605 0.0
C667 C 0.65714 0.94229 0.00604 0.0
C668 C 0.73884 0.95277 0.01617 0.0
C669 C 0.68156 0.90587 0.02033 0.0
C670 C 0.80124 0.9198 0.04735 0.0
C671 C 0.84453 0.98815 0.00427 0.0
N672 N 0.72057 0.91208 0.02507 0.0
N673 N 0.80452 0.98865 1.00258 0.0
H674 H 0.25221 0.63644 0.70927 0.0
H675 H 0.25565 0.37578 0.80061 0.0
H676 H 0.25964 0.59948 0.85339 0.0
H677 H 0.26675 0.4133 0.65698 0.0
H678 H 0.26115 0.45771 0.82109 0.0
H679 H 0.26151 0.5549 0.68922 0.0
C680 C 0.25625 0.61145 0.73663 0.0
C681 C 0.25457 0.62501 0.78304 0.0
C682 C 0.26276 0.44784 0.78512 0.0
C683 C 0.26483 0.53157 0.7605 0.0
C684 C 0.25976 0.401 0.77347 0.0
C685 C 0.26017 0.38745 0.72701 0.0
C686 C 0.26604 0.4813 0.75003 0.0
C687 C 0.2656 0.42192 0.69329 0.0
C688 C 0.26146 0.56483 0.72523 0.0
C689 C 0.26007 0.59084 0.81707 0.0
N690 N 0.26788 0.46707 0.70542 0.0
N691 N 0.26452 0.54586 0.80514 0.0
H692 H 0.16211 0.40361 0.43224 0.0
H693 H 0.35929 0.50536 0.54228 0.0
H694 H 0.15925 0.51331 0.53238 0.0
H695 H 0.3526 0.4013 0.43615 0.0
H696 H 0.28765 0.51533 0.53664 0.0
H697 H 0.23287 0.40916 0.4296 0.0
C698 C 0.1765 0.42966 0.45299 0.0
C699 C 0.15472 0.45828 0.48219 0.0
C700 C 0.30211 0.49066 0.5144 0.0
C701 C 0.23671 0.46413 0.48063 0.0
C702 C 0.34298 0.48503 0.51757 0.0
C703 C 0.36212 0.4519 0.49021 0.0
C704 C 0.28045 0.46325 0.48336 0.0
C705 C 0.33935 0.42662 0.45872 0.0
C706 C 0.21709 0.43275 0.45172 0.0
C707 C 0.17498 0.49106 0.50885 0.0
N708 N 0.30015 0.43268 0.45641 0.0
N709 N 0.21493 0.49272 0.50792 0.0
H710 H 0.82934 0.66227 0.89107 0.0
H711 H 0.68648 0.66454 0.10755 0.0
H712 H 0.70449 0.67617 0.88264 0.0
H713 H 0.81179 0.66871 0.11674 0.0
H714 H 0.69197 0.64508 0.02534 0.0
H715 H 0.82295 0.64116 0.97287 0.0
C716 C 0.80053 0.65912 0.90615 0.0
C717 C 0.76734 0.67051 0.88047 0.0
C718 C 0.71832 0.64886 0.0456 0.0
C719 C 0.75972 0.64799 0.97374 0.0
C720 C 0.71511 0.65944 0.09254 0.0
C721 C 0.74875 0.66767 0.11861 0.0
C722 C 0.75544 0.64725 0.02477 0.0
C723 C 0.78524 0.6621 0.09757 0.0
C724 C 0.79684 0.64753 0.95283 0.0
C725 C 0.73068 0.66721 0.90154 0.0
N726 N 0.78766 0.65284 0.05171 0.0
N727 N 0.72784 0.65681 0.94711 0.0
H728 H 0.52281 0.3965 0.34218 0.0
H729 H 0.52154 0.59905 0.15606 0.0
H730 H 0.50726 0.54025 0.37721 0.0
H731 H 0.50502 0.45552 0.12089 0.0
H732 H 0.52995 0.5775 0.23645 0.0
H733 H 0.52982 0.41777 0.2615 0.0
C734 C 0.52122 0.43272 0.33313 0.0
C735 C 0.51379 0.46664 0.36685 0.0
C736 C 0.52481 0.55065 0.21117 0.0
C737 C 0.52201 0.49103 0.27373 0.0
C738 C 0.52003 0.56281 0.16504 0.0
C739 C 0.51188 0.52906 0.13142 0.0
C740 C 0.52168 0.5043 0.2242 0.0
C741 C 0.511 0.48273 0.14547 0.0
C742 C 0.5252 0.44471 0.28682 0.0
C743 C 0.51269 0.5129 0.35261 0.0
N744 N 0.51546 0.47175 0.19091 0.0
N745 N 0.51642 0.52369 0.30705 0.0
H746 H 0.8119 0.35698 0.37784 0.0
H747 H 0.72131 0.37021 0.63037 0.0
H748 H 0.68949 0.34364 0.40832 0.0
H749 H 0.84036 0.33393 0.59995 0.0
H750 H 0.71167 0.39131 0.54915 0.0
H751 H 0.82393 0.37948 0.45816 0.0
C752 C 0.78736 0.36078 0.40113 0.0
C753 C 0.74965 0.34906 0.38673 0.0
C754 C 0.74029 0.38031 0.56056 0.0
C755 C 0.76318 0.37323 0.47854 0.0
C756 C 0.7459 0.36881 0.60691 0.0
C757 C 0.78179 0.35096 0.6216 0.0
C758 C 0.77079 0.37357 0.52891 0.0
C759 C 0.81245 0.34825 0.58983 0.0
C760 C 0.79425 0.37314 0.44696 0.0
C761 C 0.71889 0.35311 0.41823 0.0
N762 N 0.80614 0.35889 0.54476 0.0
N763 N 0.72638 0.3643 0.46296 0.0
H764 H 0.01062 0.54805 0.62218 0.0
H765 H 0.01245 0.45887 0.88335 0.0
H766 H 1.00849 0.40403 0.66073 0.0
H767 H 0.99493 0.60147 0.84522 0.0
H768 H 1.00692 0.43756 0.80176 0.0
H769 H 1.0013 0.56848 0.70365 0.0
C770 C 1.00784 0.52077 0.64752 0.0
C771 C 0.01089 0.47431 0.63439 0.0
C772 C 1.00386 0.47347 0.81141 0.0
C773 C 1.00047 0.49732 0.72765 0.0
C774 C 1.00683 0.48558 0.85807 0.0
C775 C 1.00472 0.53206 0.87131 0.0
C776 C 0.99895 0.50812 0.77778 0.0
C777 C 0.99741 0.56521 0.83678 0.0
C778 C 1.00255 0.5324 0.69405 0.0
C779 C 1.00692 0.44041 0.66896 0.0
N780 N 0.99529 0.55268 0.79173 0.0
N781 N 1.00232 0.45259 0.71382 0.0
H782 H 0.85646 0.05476 0.58122 0.0
H783 H 0.66525 0.05417 0.43034 0.0
H784 H 0.86002 0.02551 0.4356 0.0
H785 H 0.66173 0.02609 0.57619 0.0
H786 H 0.7361 0.04292 0.43103 0.0
H787 H 0.78561 0.0435 0.58058 0.0
C788 C 0.84231 0.04507 0.54922 0.0
C789 C 0.86418 0.04068 0.50846 0.0
C790 C 0.71988 0.03835 0.46277 0.0
C791 C 0.78268 0.02927 0.50712 0.0
C792 C 0.67941 0.0447 0.4624 0.0
C793 C 0.65755 0.04065 0.50321 0.0
C794 C 0.73905 0.02924 0.5046 0.0
C795 C 0.67741 0.02894 0.54389 0.0
C796 C 0.80184 0.03872 0.54888 0.0
C797 C 0.84433 0.02865 0.46787 0.0
N798 N 0.71711 0.02442 0.54372 0.0
N799 N 0.80463 0.02415 0.46805 0.0
loop_
_geom_bond_atom_site_label_1
_geom_bond_atom_site_label_2
_geom_bond_distance
_geom_bond_site_symmetry_2
_ccdc_geom_bond_type
Co0 O1 2.216 . S
Co0 O2 2.091 . S
Co0 O4 2.004 . S
Co0 O10 2.021 . S
Co0 O12 2.137 . S
Co0 O13 2.244 . S
O1 Co0 2.216 . S
O1 C8 1.247 . S
O2 Co0 2.091 . S
O2 C8 1.261 . S
C3 O12 1.247 . S
C3 O13 1.272 . S
O4 Co0 2.004 . S
O4 C9 1.259 . S
Co5 O6 2.061 . S
Co5 O11 2.052 . S
Co5 O13 2.135 . S
O6 Co5 2.061 . S
O6 C9 1.235 . S
C7 O10 1.238 . S
C7 O11 1.241 . S
C8 O1 1.247 . S
C8 O2 1.261 . S
C9 O4 1.259 . S
C9 O6 1.235 . S
O10 Co0 2.021 . S
O10 C7 1.238 . S
O11 Co5 2.052 . S
O11 C7 1.241 . S
O12 Co0 2.137 . S
O12 C3 1.247 . S
O13 Co0 2.244 . S
O13 C3 1.272 . S
O13 Co5 2.135 . S
Co14 O15 2.216 1_655 S
Co14 O16 2.091 1_545 S
Co14 O18 2.004 . S
Co14 O24 2.021 1_545 S
Co14 O26 2.137 . S
Co14 O27 2.244 . S
O15 Co14 2.216 1_455 S
O15 C22 1.247 1_545 S
O16 Co14 2.091 1_565 S
O16 C22 1.261 1_655 S
C17 O26 1.247 . S
C17 O27 1.272 . S
O18 Co14 2.004 . S
O18 C23 1.259 . S
Co19 O20 2.061 . S
Co19 O25 2.052 . S
Co19 O27 2.135 . S
O20 Co19 2.061 . S
O20 C23 1.235 . S
C21 O24 1.238 1_545 S
C21 O25 1.241 . S
C22 O15 1.247 1_565 S
C22 O16 1.261 1_455 S
C23 O18 1.259 . S
C23 O20 1.235 . S
O24 Co14 2.021 1_565 S
O24 C21 1.238 1_565 S
O25 Co19 2.052 . S
O25 C21 1.241 . S
O26 Co14 2.137 . S
O26 C17 1.247 . S
O27 Co14 2.244 . S
O27 C17 1.272 . S
O27 Co19 2.135 . S
Co28 O29 2.216 . S
Co28 O30 2.091 . S
Co28 O32 2.004 . S
Co28 O38 2.021 . S
Co28 O40 2.137 . S
Co28 O41 2.244 . S
O29 Co28 2.216 . S
O29 C36 1.247 . S
O30 Co28 2.091 . S
O30 C36 1.261 . S
C31 O40 1.247 . S
C31 O41 1.272 . S
O32 Co28 2.004 . S
O32 C37 1.259 . S
Co33 O34 2.061 . S
Co33 O39 2.052 . S
Co33 O41 2.135 . S
O34 Co33 2.061 . S
O34 C37 1.235 . S
C35 O38 1.238 . S
C35 O39 1.241 . S
C36 O29 1.247 . S
C36 O30 1.261 . S
C37 O32 1.259 . S
C37 O34 1.235 . S
O38 Co28 2.021 . S
O38 C35 1.238 . S
O39 Co33 2.052 . S
O39 C35 1.241 . S
O40 Co28 2.137 . S
O40 C31 1.247 . S
O41 Co28 2.244 . S
O41 C31 1.272 . S
O41 Co33 2.135 . S
Co42 O43 2.216 . S
Co42 O44 2.091 1_565 S
Co42 O46 2.004 . S
Co42 O52 2.021 1_566 S
Co42 O54 2.137 . S
Co42 O55 2.244 1_556 S
O43 Co42 2.216 . S
O43 C50 1.247 1_565 S
O44 Co42 2.091 1_545 S
O44 C50 1.261 . S
C45 O54 1.247 . S
C45 O55 1.272 1_556 S
O46 Co42 2.004 . S
O46 C51 1.259 . S
Co47 O48 2.061 . S
Co47 O53 2.052 . S
Co47 O55 2.135 . S
O48 Co47 2.061 . S
O48 C51 1.235 1_554 S
C49 O52 1.238 1_565 S
C49 O53 1.241 . S
C50 O43 1.247 1_545 S
C50 O44 1.261 . S
C51 O46 1.259 . S
C51 O48 1.235 1_556 S
O52 Co42 2.021 1_544 S
O52 C49 1.238 1_545 S
O53 Co47 2.052 . S
O53 C49 1.241 . S
O54 Co42 2.137 . S
O54 C45 1.247 . S
O55 Co42 2.244 1_554 S
O55 C45 1.272 1_554 S
O55 Co47 2.135 . S
Co56 O57 2.216 . S
Co56 O58 2.091 . S
Co56 O60 2.004 . S
Co56 O66 2.021 . S
Co56 O68 2.137 . S
Co56 O69 2.244 . S
O57 Co56 2.216 . S
O57 C64 1.247 . S
O58 Co56 2.091 . S
O58 C64 1.261 . S
C59 O68 1.247 . S
C59 O69 1.272 . S
O60 Co56 2.004 . S
O60 C65 1.259 . S
Co61 O62 2.061 . S
Co61 O67 2.052 . S
Co61 O69 2.135 . S
O62 Co61 2.061 . S
O62 C65 1.235 . S
C63 O66 1.238 . S
C63 O67 1.241 . S
C64 O57 1.247 . S
C64 O58 1.261 . S
C65 O60 1.259 . S
C65 O62 1.235 . S
O66 Co56 2.021 . S
O66 C63 1.238 . S
O67 Co61 2.052 . S
O67 C63 1.241 . S
O68 Co56 2.137 . S
O68 C59 1.247 . S
O69 Co56 2.244 . S
O69 C59 1.272 . S
O69 Co61 2.135 . S
Co70 O71 2.216 . S
Co70 O72 2.091 1_545 S
Co70 O74 2.004 . S
Co70 O80 2.021 1_545 S
Co70 O82 2.137 . S
Co70 O83 2.244 . S
O71 Co70 2.216 . S
O71 C78 1.247 1_545 S
O72 Co70 2.091 1_565 S
O72 C78 1.261 . S
C73 O82 1.247 . S
C73 O83 1.272 . S
O74 Co70 2.004 . S
O74 C79 1.259 . S
Co75 O76 2.061 . S
Co75 O81 2.052 . S
Co75 O83 2.135 . S
O76 Co75 2.061 . S
O76 C79 1.235 . S
C77 O80 1.238 1_545 S
C77 O81 1.241 . S
C78 O71 1.247 1_565 S
C78 O72 1.261 . S
C79 O74 1.259 . S
C79 O76 1.235 . S
O80 Co70 2.021 1_565 S
O80 C77 1.238 1_565 S
O81 Co75 2.052 . S
O81 C77 1.241 . S
O82 Co70 2.137 . S
O82 C73 1.247 . S
O83 Co70 2.244 . S
O83 C73 1.272 . S
O83 Co75 2.135 . S
Co84 O85 2.216 . S
Co84 O86 2.091 . S
Co84 O88 2.004 . S
Co84 O94 2.021 . S
Co84 O96 2.137 . S
Co84 O97 2.244 . S
O85 Co84 2.216 . S
O85 C92 1.247 . S
O86 Co84 2.091 . S
O86 C92 1.261 . S
C87 O96 1.247 . S
C87 O97 1.272 . S
O88 Co84 2.004 . S
O88 C93 1.259 . S
Co89 O90 2.061 . S
Co89 O95 2.052 . S
Co89 O97 2.135 . S
O90 Co89 2.061 . S
O90 C93 1.235 . S
C91 O94 1.238 . S
C91 O95 1.241 . S
C92 O85 1.247 . S
C92 O86 1.261 . S
C93 O88 1.259 . S
C93 O90 1.235 . S
O94 Co84 2.021 . S
O94 C91 1.238 . S
O95 Co89 2.052 . S
O95 C91 1.241 . S
O96 Co84 2.137 . S
O96 C87 1.247 . S
O97 Co84 2.244 . S
O97 C87 1.272 . S
O97 Co89 2.135 . S
Co98 O99 2.216 1_655 S
Co98 O100 2.091 1_565 S
Co98 O102 2.004 . S
Co98 O108 2.021 1_564 S
Co98 O110 2.137 . S
Co98 O111 2.244 1_554 S
O99 Co98 2.216 1_455 S
O99 C106 1.247 1_565 S
O100 Co98 2.091 1_545 S
O100 C106 1.261 1_655 S
C101 O110 1.247 . S
C101 O111 1.272 1_554 S
O102 Co98 2.004 . S
O102 C107 1.259 . S
Co103 O104 2.061 . S
Co103 O109 2.052 . S
Co103 O111 2.135 . S
O104 Co103 2.061 . S
O104 C107 1.235 1_556 S
C105 O108 1.238 1_565 S
C105 O109 1.241 . S
C106 O99 1.247 1_545 S
C106 O100 1.261 1_455 S
C107 O102 1.259 . S
C107 O104 1.235 1_554 S
O108 Co98 2.021 1_546 S
O108 C105 1.238 1_545 S
O109 Co103 2.052 . S
O109 C105 1.241 . S
O110 Co98 2.137 . S
O110 C101 1.247 . S
O111 Co98 2.244 1_556 S
O111 C101 1.272 1_556 S
O111 Co103 2.135 . S
Co112 O113 2.216 . S
Co112 O114 2.091 . S
Co112 O116 2.004 . S
Co112 O122 2.021 . S
Co112 O124 2.137 . S
Co112 O125 2.244 . S
O113 Co112 2.216 . S
O113 C120 1.247 . S
O114 Co112 2.091 . S
O114 C120 1.261 . S
C115 O124 1.247 . S
C115 O125 1.272 . S
O116 Co112 2.004 . S
O116 C121 1.259 . S
Co117 O118 2.061 . S
Co117 O123 2.052 . S
Co117 O125 2.135 . S
O118 Co117 2.061 . S
O118 C121 1.235 . S
C119 O122 1.238 . S
C119 O123 1.241 . S
C120 O113 1.247 . S
C120 O114 1.261 . S
C121 O116 1.259 . S
C121 O118 1.235 . S
O122 Co112 2.021 . S
O122 C119 1.238 . S
O123 Co117 2.052 . S
O123 C119 1.241 . S
O124 Co112 2.137 . S
O124 C115 1.247 . S
O125 Co112 2.244 . S
O125 C115 1.272 . S
O125 Co117 2.135 . S
Co126 O127 2.216 1_455 S
Co126 O128 2.091 . S
Co126 O130 2.004 . S
Co126 O136 2.021 1_554 S
Co126 O138 2.137 . S
Co126 O139 2.244 1_554 S
O127 Co126 2.216 1_655 S
O127 C134 1.247 . S
O128 Co126 2.091 . S
O128 C134 1.261 1_455 S
C129 O138 1.247 . S
C129 O139 1.272 1_554 S
O130 Co126 2.004 . S
O130 C135 1.259 . S
Co131 O132 2.061 . S
Co131 O137 2.052 . S
Co131 O139 2.135 . S
O132 Co131 2.061 . S
O132 C135 1.235 1_556 S
C133 O136 1.238 . S
C133 O137 1.241 . S
C134 O127 1.247 . S
C134 O128 1.261 1_655 S
C135 O130 1.259 . S
C135 O132 1.235 1_554 S
O136 Co126 2.021 1_556 S
O136 C133 1.238 . S
O137 Co131 2.052 . S
O137 C133 1.241 . S
O138 Co126 2.137 . S
O138 C129 1.247 . S
O139 Co126 2.244 1_556 S
O139 C129 1.272 1_556 S
O139 Co131 2.135 . S
Co140 O141 2.216 . S
Co140 O142 2.091 . S
Co140 O144 2.004 . S
Co140 O150 2.021 . S
Co140 O152 2.137 . S
Co140 O153 2.244 . S
O141 Co140 2.216 . S
O141 C148 1.247 . S
O142 Co140 2.091 . S
O142 C148 1.261 . S
C143 O152 1.247 . S
C143 O153 1.272 . S
O144 Co140 2.004 . S
O144 C149 1.259 . S
Co145 O146 2.061 . S
Co145 O151 2.052 . S
Co145 O153 2.135 . S
O146 Co145 2.061 . S
O146 C149 1.235 . S
C147 O150 1.238 . S
C147 O151 1.241 . S
C148 O141 1.247 . S
C148 O142 1.261 . S
C149 O144 1.259 . S
C149 O146 1.235 . S
O150 Co140 2.021 . S
O150 C147 1.238 . S
O151 Co145 2.052 . S
O151 C147 1.241 . S
O152 Co140 2.137 . S
O152 C143 1.247 . S
O153 Co140 2.244 . S
O153 C143 1.272 . S
O153 Co145 2.135 . S
Co154 O155 2.216 1_455 S
Co154 O156 2.091 . S
Co154 O158 2.004 . S
Co154 O164 2.021 . S
Co154 O166 2.137 . S
Co154 O167 2.244 . S
O155 Co154 2.216 1_655 S
O155 C162 1.247 . S
O156 Co154 2.091 . S
O156 C162 1.261 1_455 S
C157 O166 1.247 . S
C157 O167 1.272 . S
O158 Co154 2.004 . S
O158 C163 1.259 . S
Co159 O160 2.061 . S
Co159 O165 2.052 . S
Co159 O167 2.135 . S
O160 Co159 2.061 . S
O160 C163 1.235 . S
C161 O164 1.238 . S
C161 O165 1.241 . S
C162 O155 1.247 . S
C162 O156 1.261 1_655 S
C163 O158 1.259 . S
C163 O160 1.235 . S
O164 Co154 2.021 . S
O164 C161 1.238 . S
O165 Co159 2.052 . S
O165 C161 1.241 . S
O166 Co154 2.137 . S
O166 C157 1.247 . S
O167 Co154 2.244 . S
O167 C157 1.272 . S
O167 Co159 2.135 . S
Co168 O169 2.216 . S
Co168 O170 2.091 . S
Co168 O172 2.004 . S
Co168 O178 2.021 1_556 S
Co168 O180 2.137 . S
Co168 O181 2.244 1_556 S
O169 Co168 2.216 . S
O169 C176 1.247 . S
O170 Co168 2.091 . S
O170 C176 1.261 . S
C171 O180 1.247 . S
C171 O181 1.272 1_556 S
O172 Co168 2.004 . S
O172 C177 1.259 . S
Co173 O174 2.061 . S
Co173 O179 2.052 . S
Co173 O181 2.135 . S
O174 Co173 2.061 . S
O174 C177 1.235 1_554 S
C175 O178 1.238 . S
C175 O179 1.241 . S
C176 O169 1.247 . S
C176 O170 1.261 . S
C177 O172 1.259 . S
C177 O174 1.235 1_556 S
O178 Co168 2.021 1_554 S
O178 C175 1.238 . S
O179 Co173 2.052 . S
O179 C175 1.241 . S
O180 Co168 2.137 . S
O180 C171 1.247 . S
O181 Co168 2.244 1_554 S
O181 C171 1.272 1_554 S
O181 Co173 2.135 . S
Co182 O183 2.216 . S
Co182 O184 2.091 . S
Co182 O186 2.004 . S
Co182 O192 2.021 . S
Co182 O194 2.137 . S
Co182 O195 2.244 . S
O183 Co182 2.216 . S
O183 C190 1.247 . S
O184 Co182 2.091 . S
O184 C190 1.261 . S
C185 O194 1.247 . S
C185 O195 1.272 . S
O186 Co182 2.004 . S
O186 C191 1.259 . S
Co187 O188 2.061 . S
Co187 O193 2.052 . S
Co187 O195 2.135 . S
O188 Co187 2.061 . S
O188 C191 1.235 . S
C189 O192 1.238 . S
C189 O193 1.241 . S
C190 O183 1.247 . S
C190 O184 1.261 . S
C191 O186 1.259 . S
C191 O188 1.235 . S
O192 Co182 2.021 . S
O192 C189 1.238 . S
O193 Co187 2.052 . S
O193 C189 1.241 . S
O194 Co182 2.137 . S
O194 C185 1.247 . S
O195 Co182 2.244 . S
O195 C185 1.272 . S
O195 Co187 2.135 . S
Co196 O197 2.216 . S
Co196 O198 2.091 . S
Co196 O200 2.004 . S
Co196 O206 2.021 . S
Co196 O208 2.137 . S
Co196 O209 2.244 . S
O197 Co196 2.216 . S
O197 C204 1.247 . S
O198 Co196 2.091 . S
O198 C204 1.261 . S
C199 O208 1.247 . S
C199 O209 1.272 . S
O200 Co196 2.004 . S
O200 C205 1.259 . S
Co201 O202 2.061 . S
Co201 O207 2.052 . S
Co201 O209 2.135 . S
O202 Co201 2.061 . S
O202 C205 1.235 . S
C203 O206 1.238 . S
C203 O207 1.241 . S
C204 O197 1.247 . S
C204 O198 1.261 . S
C205 O200 1.259 . S
C205 O202 1.235 . S
O206 Co196 2.021 . S
O206 C203 1.238 . S
O207 Co201 2.052 . S
O207 C203 1.241 . S
O208 Co196 2.137 . S
O208 C199 1.247 . S
O209 Co196 2.244 . S
O209 C199 1.272 . S
O209 Co201 2.135 . S
Co210 O211 2.216 . S
Co210 O212 2.091 . S
Co210 O214 2.004 . S
Co210 O220 2.021 . S
Co210 O222 2.137 . S
Co210 O223 2.244 . S
O211 Co210 2.216 . S
O211 C218 1.247 . S
O212 Co210 2.091 . S
O212 C218 1.261 . S
C213 O222 1.247 . S
C213 O223 1.272 . S
O214 Co210 2.004 . S
O214 C219 1.259 . S
Co215 O216 2.061 . S
Co215 O221 2.052 . S
Co215 O223 2.135 . S
O216 Co215 2.061 . S
O216 C219 1.235 . S
C217 O220 1.238 . S
C217 O221 1.241 . S
C218 O211 1.247 . S
C218 O212 1.261 . S
C219 O214 1.259 . S
C219 O216 1.235 . S
O220 Co210 2.021 . S
O220 C217 1.238 . S
O221 Co215 2.052 . S
O221 C217 1.241 . S
O222 Co210 2.137 . S
O222 C213 1.247 . S
O223 Co210 2.244 . S
O223 C213 1.272 . S
O223 Co215 2.135 . S
H224 C230 0.930 . S
H225 C234 0.930 . S
H226 C239 0.929 . S
H227 C237 0.929 . S
H228 C232 0.929 . S
H229 C238 0.929 . S
C230 H224 0.930 . S
C230 C231 1.367 . S
C230 C238 1.378 . S
C231 C230 1.367 . S
C231 C239 1.433 . S
C232 H228 0.929 . S
C232 C234 1.378 . S
C232 C236 1.350 . S
C233 C236 1.463 . S
C233 C238 1.350 . S
C233 N241 1.427 . S
C234 H225 0.930 . S
C234 C232 1.378 . S
C234 C235 1.367 . S
C235 C234 1.367 . S
C235 C237 1.433 . S
C236 C232 1.350 . S
C236 C233 1.463 . S
C236 N240 1.427 . S
C237 H227 0.929 . S
C237 C235 1.433 . S
C237 N240 1.384 . S
C238 H229 0.929 . S
C238 C230 1.378 . S
C238 C233 1.350 . S
C239 H226 0.929 . S
C239 C231 1.433 . S
C239 N241 1.384 . S
N240 C236 1.427 . S
N240 C237 1.384 . S
N241 C233 1.427 . S
N241 C239 1.384 . S
H242 C248 0.930 . S
H243 C252 0.930 . S
H244 C257 0.929 . S
H245 C255 0.929 . S
H246 C250 0.929 . S
H247 C256 0.929 . S
C248 H242 0.930 . S
C248 C249 1.367 . S
C248 C256 1.378 . S
C249 C248 1.367 . S
C249 C257 1.433 . S
C250 H246 0.929 . S
C250 C252 1.378 . S
C250 C254 1.350 . S
C251 C254 1.463 . S
C251 C256 1.350 . S
C251 N259 1.427 . S
C252 H243 0.930 . S
C252 C250 1.378 . S
C252 C253 1.367 . S
C253 C252 1.367 . S
C253 C255 1.433 . S
C254 C250 1.350 . S
C254 C251 1.463 . S
C254 N258 1.427 . S
C255 H245 0.929 . S
C255 C253 1.433 . S
C255 N258 1.384 . S
C256 H247 0.929 . S
C256 C248 1.378 . S
C256 C251 1.350 . S
C257 H244 0.929 . S
C257 C249 1.433 . S
C257 N259 1.384 . S
N258 C254 1.427 . S
N258 C255 1.384 . S
N259 C251 1.427 . S
N259 C257 1.384 . S
H260 C266 0.930 . S
H261 C270 0.930 . S
H262 C275 0.929 . S
H263 C273 0.929 . S
H264 C268 0.929 . S
H265 C274 0.929 . S
C266 H260 0.930 . S
C266 C267 1.367 . S
C266 C274 1.378 . S
C267 C266 1.367 . S
C267 C275 1.433 . S
C268 H264 0.929 . S
C268 C270 1.378 . S
C268 C272 1.350 . S
C269 C272 1.463 . S
C269 C274 1.350 . S
C269 N277 1.427 . S
C270 H261 0.930 . S
C270 C268 1.378 . S
C270 C271 1.367 . S
C271 C270 1.367 . S
C271 C273 1.433 . S
C272 C268 1.350 . S
C272 C269 1.463 . S
C272 N276 1.427 . S
C273 H263 0.929 . S
C273 C271 1.433 . S
C273 N276 1.384 . S
C274 H265 0.929 . S
C274 C266 1.378 . S
C274 C269 1.350 . S
C275 H262 0.929 . S
C275 C267 1.433 . S
C275 N277 1.384 . S
N276 C272 1.427 . S
N276 C273 1.384 . S
N277 C269 1.427 . S
N277 C275 1.384 . S
H278 C284 0.930 1_565 S
H279 C288 0.930 . S
H280 C293 0.929 . S
H281 C291 0.929 . S
H282 C286 0.929 . S
H283 C292 0.929 . S
C284 H278 0.930 1_545 S
C284 C285 1.367 . S
C284 C292 1.378 . S
C285 C284 1.367 . S
C285 C293 1.433 . S
C286 H282 0.929 . S
C286 C288 1.378 . S
C286 C290 1.350 . S
C287 C290 1.463 . S
C287 C292 1.350 . S
C287 N295 1.427 . S
C288 H279 0.930 . S
C288 C286 1.378 . S
C288 C289 1.367 . S
C289 C288 1.367 . S
C289 C291 1.433 . S
C290 C286 1.350 . S
C290 C287 1.463 . S
C290 N294 1.427 . S
C291 H281 0.929 . S
C291 C289 1.433 . S
C291 N294 1.384 . S
C292 H283 0.929 . S
C292 C284 1.378 . S
C292 C287 1.350 . S
C293 H280 0.929 . S
C293 C285 1.433 . S
C293 N295 1.384 . S
N294 C290 1.427 . S
N294 C291 1.384 . S
N295 C287 1.427 . S
N295 C293 1.384 . S
H296 C302 0.930 . S
H297 C306 0.930 . S
H298 C311 0.929 . S
H299 C309 0.929 . S
H300 C304 0.929 . S
H301 C310 0.929 . S
C302 H296 0.930 . S
C302 C303 1.367 . S
C302 C310 1.378 . S
C303 C302 1.367 . S
C303 C311 1.433 . S
C304 H300 0.929 . S
C304 C306 1.378 . S
C304 C308 1.350 . S
C305 C308 1.463 . S
C305 C310 1.350 . S
C305 N313 1.427 . S
C306 H297 0.930 . S
C306 C304 1.378 . S
C306 C307 1.367 . S
C307 C306 1.367 . S
C307 C309 1.433 . S
C308 C304 1.350 . S
C308 C305 1.463 . S
C308 N312 1.427 . S
C309 H299 0.929 . S
C309 C307 1.433 . S
C309 N312 1.384 . S
C310 H301 0.929 . S
C310 C302 1.378 . S
C310 C305 1.350 . S
C311 H298 0.929 . S
C311 C303 1.433 . S
C311 N313 1.384 . S
N312 C308 1.427 . S
N312 C309 1.384 . S
N313 C305 1.427 . S
N313 C311 1.384 . S
H314 C320 0.930 . S
H315 C324 0.930 . S
H316 C329 0.929 . S
H317 C327 0.929 . S
H318 C322 0.929 . S
H319 C328 0.929 . S
C320 H314 0.930 . S
C320 C321 1.367 . S
C320 C328 1.378 . S
C321 C320 1.367 . S
C321 C329 1.433 . S
C322 H318 0.929 . S
C322 C324 1.378 . S
C322 C326 1.350 . S
C323 C326 1.463 . S
C323 C328 1.350 . S
C323 N331 1.427 . S
C324 H315 0.930 . S
C324 C322 1.378 . S
C324 C325 1.367 . S
C325 C324 1.367 . S
C325 C327 1.433 . S
C326 C322 1.350 . S
C326 C323 1.463 . S
C326 N330 1.427 . S
C327 H317 0.929 . S
C327 C325 1.433 . S
C327 N330 1.384 . S
C328 H319 0.929 . S
C328 C320 1.378 . S
C328 C323 1.350 . S
C329 H316 0.929 . S
C329 C321 1.433 . S
C329 N331 1.384 . S
N330 C326 1.427 . S
N330 C327 1.384 . S
N331 C323 1.427 . S
N331 C329 1.384 . S
H332 C338 0.930 . S
H333 C342 0.930 . S
H334 C347 0.929 . S
H335 C345 0.929 . S
H336 C340 0.929 . S
H337 C346 0.929 . S
C338 H332 0.930 . S
C338 C339 1.367 . S
C338 C346 1.378 . S
C339 C338 1.367 . S
C339 C347 1.433 . S
C340 H336 0.929 . S
C340 C342 1.378 . S
C340 C344 1.350 . S
C341 C344 1.463 . S
C341 C346 1.350 . S
C341 N349 1.427 . S
C342 H333 0.930 . S
C342 C340 1.378 . S
C342 C343 1.367 . S
C343 C342 1.367 . S
C343 C345 1.433 . S
C344 C340 1.350 . S
C344 C341 1.463 . S
C344 N348 1.427 . S
C345 H335 0.929 . S
C345 C343 1.433 . S
C345 N348 1.384 . S
C346 H337 0.929 . S
C346 C338 1.378 . S
C346 C341 1.350 . S
C347 H334 0.929 . S
C347 C339 1.433 . S
C347 N349 1.384 . S
N348 C344 1.427 . S
N348 C345 1.384 . S
N349 C341 1.427 . S
N349 C347 1.384 . S
H350 C356 0.930 . S
H351 C360 0.930 . S
H352 C365 0.929 . S
H353 C363 0.929 . S
H354 C358 0.929 . S
H355 C364 0.929 . S
C356 H350 0.930 . S
C356 C357 1.367 . S
C356 C364 1.378 . S
C357 C356 1.367 . S
C357 C365 1.433 . S
C358 H354 0.929 . S
C358 C360 1.378 . S
C358 C362 1.350 . S
C359 C362 1.463 . S
C359 C364 1.350 . S
C359 N367 1.427 . S
C360 H351 0.930 . S
C360 C358 1.378 . S
C360 C361 1.367 . S
C361 C360 1.367 . S
C361 C363 1.433 . S
C362 C358 1.350 . S
C362 C359 1.463 . S
C362 N366 1.427 . S
C363 H353 0.929 . S
C363 C361 1.433 . S
C363 N366 1.384 . S
C364 H355 0.929 . S
C364 C356 1.378 . S
C364 C359 1.350 . S
C365 H352 0.929 . S
C365 C357 1.433 . S
C365 N367 1.384 . S
N366 C362 1.427 . S
N366 C363 1.384 . S
N367 C359 1.427 . S
N367 C365 1.384 . S
H368 C374 0.930 . S
H369 C378 0.930 . S
H370 C383 0.929 . S
H371 C381 0.929 . S
H372 C376 0.929 . S
H373 C382 0.929 . S
C374 H368 0.930 . S
C374 C375 1.367 . S
C374 C382 1.378 . S
C375 C374 1.367 . S
C375 C383 1.433 . S
C376 H372 0.929 . S
C376 C378 1.378 . S
C376 C380 1.350 . S
C377 C380 1.463 . S
C377 C382 1.350 . S
C377 N385 1.427 . S
C378 H369 0.930 . S
C378 C376 1.378 . S
C378 C379 1.367 . S
C379 C378 1.367 . S
C379 C381 1.433 . S
C380 C376 1.350 . S
C380 C377 1.463 . S
C380 N384 1.427 . S
C381 H371 0.929 . S
C381 C379 1.433 . S
C381 N384 1.384 . S
C382 H373 0.929 . S
C382 C374 1.378 . S
C382 C377 1.350 . S
C383 H370 0.929 . S
C383 C375 1.433 . S
C383 N385 1.384 . S
N384 C380 1.427 . S
N384 C381 1.384 . S
N385 C377 1.427 . S
N385 C383 1.384 . S
H386 C392 0.930 1_455 S
H387 C396 0.930 . S
H388 C401 0.929 . S
H389 C399 0.929 1_455 S
H390 C394 0.929 . S
H391 C400 0.929 1_455 S
C392 H386 0.930 1_655 S
C392 C393 1.367 . S
C392 C400 1.378 . S
C393 C392 1.367 . S
C393 C401 1.433 1_545 S
C394 H390 0.929 . S
C394 C396 1.378 . S
C394 C398 1.350 . S
C395 C398 1.463 1_545 S
C395 C400 1.350 . S
C395 N403 1.427 1_545 S
C396 H387 0.930 . S
C396 C394 1.378 . S
C396 C397 1.367 . S
C397 C396 1.367 . S
C397 C399 1.433 1_565 S
C398 C394 1.350 . S
C398 C395 1.463 1_565 S
C398 N402 1.427 1_565 S
C399 H389 0.929 1_655 S
C399 C397 1.433 1_545 S
C399 N402 1.384 . S
C400 H391 0.929 1_655 S
C400 C392 1.378 . S
C400 C395 1.350 . S
C401 H388 0.929 . S
C401 C393 1.433 1_565 S
C401 N403 1.384 . S
N402 C398 1.427 1_545 S
N402 C399 1.384 . S
N403 C395 1.427 1_565 S
N403 C401 1.384 . S
H404 C410 0.930 . S
H405 C414 0.930 . S
H406 C419 0.929 . S
H407 C417 0.929 . S
H408 C412 0.929 . S
H409 C418 0.929 . S
C410 H404 0.930 . S
C410 C411 1.367 . S
C410 C418 1.378 . S
C411 C410 1.367 . S
C411 C419 1.433 . S
C412 H408 0.929 . S
C412 C414 1.378 . S
C412 C416 1.350 . S
C413 C416 1.463 1_556 S
C413 C418 1.350 . S
C413 N421 1.427 . S
C414 H405 0.930 . S
C414 C412 1.378 . S
C414 C415 1.367 . S
C415 C414 1.367 . S
C415 C417 1.433 . S
C416 C412 1.350 . S
C416 C413 1.463 1_554 S
C416 N420 1.427 . S
C417 H407 0.929 . S
C417 C415 1.433 . S
C417 N420 1.384 . S
C418 H409 0.929 . S
C418 C410 1.378 . S
C418 C413 1.350 . S
C419 H406 0.929 . S
C419 C411 1.433 . S
C419 N421 1.384 . S
N420 C416 1.427 . S
N420 C417 1.384 . S
N421 C413 1.427 . S
N421 C419 1.384 . S
H422 C428 0.930 . S
H423 C432 0.930 . S
H424 C437 0.929 . S
H425 C435 0.929 . S
H426 C430 0.929 . S
H427 C436 0.929 . S
C428 H422 0.930 . S
C428 C429 1.367 1_545 S
C428 C436 1.378 . S
C429 C428 1.367 1_565 S
C429 C437 1.433 . S
C430 H426 0.929 . S
C430 C432 1.378 . S
C430 C434 1.350 1_565 S
C431 C434 1.463 1_565 S
C431 C436 1.350 1_565 S
C431 N439 1.427 . S
C432 H423 0.930 . S
C432 C430 1.378 . S
C432 C433 1.367 1_565 S
C433 C432 1.367 1_545 S
C433 C435 1.433 . S
C434 C430 1.350 1_545 S
C434 C431 1.463 1_545 S
C434 N438 1.427 . S
C435 H425 0.929 . S
C435 C433 1.433 . S
C435 N438 1.384 . S
C436 H427 0.929 . S
C436 C428 1.378 . S
C436 C431 1.350 1_545 S
C437 H424 0.929 . S
C437 C429 1.433 . S
C437 N439 1.384 . S
N438 C434 1.427 . S
N438 C435 1.384 . S
N439 C431 1.427 . S
N439 C437 1.384 . S
H440 C446 0.930 . S
H441 C450 0.930 . S
H442 C455 0.929 . S
H443 C453 0.929 . S
H444 C448 0.929 . S
H445 C454 0.929 . S
C446 H440 0.930 . S
C446 C447 1.367 . S
C446 C454 1.378 . S
C447 C446 1.367 . S
C447 C455 1.433 . S
C448 H444 0.929 . S
C448 C450 1.378 . S
C448 C452 1.350 . S
C449 C452 1.463 . S
C449 C454 1.350 . S
C449 N457 1.427 . S
C450 H441 0.930 . S
C450 C448 1.378 . S
C450 C451 1.367 . S
C451 C450 1.367 . S
C451 C453 1.433 . S
C452 C448 1.350 . S
C452 C449 1.463 . S
C452 N456 1.427 . S
C453 H443 0.929 . S
C453 C451 1.433 . S
C453 N456 1.384 . S
C454 H445 0.929 . S
C454 C446 1.378 . S
C454 C449 1.350 . S
C455 H442 0.929 . S
C455 C447 1.433 . S
C455 N457 1.384 . S
N456 C452 1.427 . S
N456 C453 1.384 . S
N457 C449 1.427 . S
N457 C455 1.384 . S
H458 C464 0.930 . S
H459 C468 0.930 . S
H460 C473 0.929 . S
H461 C471 0.929 . S
H462 C466 0.929 . S
H463 C472 0.929 . S
C464 H458 0.930 . S
C464 C465 1.367 . S
C464 C472 1.378 . S
C465 C464 1.367 . S
C465 C473 1.433 1_455 S
C466 H462 0.929 . S
C466 C468 1.378 . S
C466 C470 1.350 . S
C467 C470 1.463 1_455 S
C467 C472 1.350 . S
C467 N475 1.427 1_455 S
C468 H459 0.930 . S
C468 C466 1.378 . S
C468 C469 1.367 . S
C469 C468 1.367 . S
C469 C471 1.433 1_655 S
C470 C466 1.350 . S
C470 C467 1.463 1_655 S
C470 N474 1.427 1_655 S
C471 H461 0.929 . S
C471 C469 1.433 1_455 S
C471 N474 1.384 . S
C472 H463 0.929 . S
C472 C464 1.378 . S
C472 C467 1.350 . S
C473 H460 0.929 . S
C473 C465 1.433 1_655 S
C473 N475 1.384 . S
N474 C470 1.427 1_455 S
N474 C471 1.384 . S
N475 C467 1.427 1_655 S
N475 C473 1.384 . S
H476 C482 0.930 . S
H477 C486 0.930 . S
H478 C491 0.929 . S
H479 C489 0.929 . S
H480 C484 0.929 . S
H481 C490 0.929 . S
C482 H476 0.930 . S
C482 C483 1.367 . S
C482 C490 1.378 . S
C483 C482 1.367 . S
C483 C491 1.433 . S
C484 H480 0.929 . S
C484 C486 1.378 . S
C484 C488 1.350 . S
C485 C488 1.463 1_655 S
C485 C490 1.350 . S
C485 N493 1.427 . S
C486 H477 0.930 . S
C486 C484 1.378 . S
C486 C487 1.367 . S
C487 C486 1.367 . S
C487 C489 1.433 . S
C488 C484 1.350 . S
C488 C485 1.463 1_455 S
C488 N492 1.427 . S
C489 H479 0.929 . S
C489 C487 1.433 . S
C489 N492 1.384 . S
C490 H481 0.929 . S
C490 C482 1.378 . S
C490 C485 1.350 . S
C491 H478 0.929 . S
C491 C483 1.433 . S
C491 N493 1.384 . S
N492 C488 1.427 . S
N492 C489 1.384 . S
N493 C485 1.427 . S
N493 C491 1.384 . S
H494 C500 0.930 . S
H495 C504 0.930 . S
H496 C509 0.929 . S
H497 C507 0.929 . S
H498 C502 0.929 . S
H499 C508 0.929 . S
C500 H494 0.930 . S
C500 C501 1.367 1_554 S
C500 C508 1.378 . S
C501 C500 1.367 1_556 S
C501 C509 1.433 . S
C502 H498 0.929 . S
C502 C504 1.378 . S
C502 C506 1.350 . S
C503 C506 1.463 . S
C503 C508 1.350 1_556 S
C503 N511 1.427 . S
C504 H495 0.930 . S
C504 C502 1.378 . S
C504 C505 1.367 . S
C505 C504 1.367 . S
C505 C507 1.433 1_556 S
C506 C502 1.350 . S
C506 C503 1.463 . S
C506 N510 1.427 1_556 S
C507 H497 0.929 . S
C507 C505 1.433 1_554 S
C507 N510 1.384 . S
C508 H499 0.929 . S
C508 C500 1.378 . S
C508 C503 1.350 1_554 S
C509 H496 0.929 . S
C509 C501 1.433 . S
C509 N511 1.384 . S
N510 C506 1.427 1_554 S
N510 C507 1.384 . S
N511 C503 1.427 . S
N511 C509 1.384 . S
H512 C518 0.930 . S
H513 C522 0.930 . S
H514 C527 0.929 . S
H515 C525 0.929 . S
H516 C520 0.929 . S
H517 C526 0.929 . S
C518 H512 0.930 . S
C518 C519 1.367 . S
C518 C526 1.378 . S
C519 C518 1.367 . S
C519 C527 1.433 . S
C520 H516 0.929 . S
C520 C522 1.378 . S
C520 C524 1.350 . S
C521 C524 1.463 . S
C521 C526 1.350 . S
C521 N529 1.427 . S
C522 H513 0.930 . S
C522 C520 1.378 . S
C522 C523 1.367 . S
C523 C522 1.367 . S
C523 C525 1.433 . S
C524 C520 1.350 . S
C524 C521 1.463 . S
C524 N528 1.427 . S
C525 H515 0.929 . S
C525 C523 1.433 . S
C525 N528 1.384 . S
C526 H517 0.929 . S
C526 C518 1.378 . S
C526 C521 1.350 . S
C527 H514 0.929 . S
C527 C519 1.433 . S
C527 N529 1.384 . S
N528 C524 1.427 . S
N528 C525 1.384 . S
N529 C521 1.427 . S
N529 C527 1.384 . S
H530 C536 0.930 . S
H531 C540 0.930 . S
H532 C545 0.929 . S
H533 C543 0.929 . S
H534 C538 0.929 . S
H535 C544 0.929 . S
C536 H530 0.930 . S
C536 C537 1.367 . S
C536 C544 1.378 . S
C537 C536 1.367 . S
C537 C545 1.433 . S
C538 H534 0.929 . S
C538 C540 1.378 . S
C538 C542 1.350 . S
C539 C542 1.463 . S
C539 C544 1.350 . S
C539 N547 1.427 . S
C540 H531 0.930 . S
C540 C538 1.378 . S
C540 C541 1.367 . S
C541 C540 1.367 . S
C541 C543 1.433 . S
C542 C538 1.350 . S
C542 C539 1.463 . S
C542 N546 1.427 . S
C543 H533 0.929 . S
C543 C541 1.433 . S
C543 N546 1.384 . S
C544 H535 0.929 . S
C544 C536 1.378 . S
C544 C539 1.350 . S
C545 H532 0.929 . S
C545 C537 1.433 . S
C545 N547 1.384 . S
N546 C542 1.427 . S
N546 C543 1.384 . S
N547 C539 1.427 . S
N547 C545 1.384 . S
H548 C554 0.930 . S
H549 C558 0.930 . S
H550 C563 0.929 . S
H551 C561 0.929 . S
H552 C556 0.929 . S
H553 C562 0.929 . S
C554 H548 0.930 . S
C554 C555 1.367 . S
C554 C562 1.378 . S
C555 C554 1.367 . S
C555 C563 1.433 . S
C556 H552 0.929 . S
C556 C558 1.378 . S
C556 C560 1.350 . S
C557 C560 1.463 1_455 S
C557 C562 1.350 . S
C557 N565 1.427 . S
C558 H549 0.930 . S
C558 C556 1.378 . S
C558 C559 1.367 . S
C559 C558 1.367 . S
C559 C561 1.433 . S
C560 C556 1.350 . S
C560 C557 1.463 1_655 S
C560 N564 1.427 . S
C561 H551 0.929 . S
C561 C559 1.433 . S
C561 N564 1.384 . S
C562 H553 0.929 . S
C562 C554 1.378 . S
C562 C557 1.350 . S
C563 H550 0.929 . S
C563 C555 1.433 . S
C563 N565 1.384 . S
N564 C560 1.427 . S
N564 C561 1.384 . S
N565 C557 1.427 . S
N565 C563 1.384 . S
H566 C572 0.937 . S
H567 C576 0.937 . S
H568 C581 0.929 . S
H569 C579 0.929 . S
H570 C574 0.929 . S
H571 C580 0.929 . S
C572 H566 0.937 . S
C572 C573 1.356 1_455 S
C572 C580 1.382 . S
C573 C572 1.356 1_655 S
C573 C581 1.433 1_554 S
C574 H570 0.929 . S
C574 C576 1.382 . S
C574 C578 1.350 1_656 S
C575 C578 1.463 1_655 S
C575 C580 1.350 1_655 S
C575 N583 1.427 1_554 S
C576 H567 0.937 . S
C576 C574 1.382 . S
C576 C577 1.356 1_656 S
C577 C576 1.356 1_454 S
C577 C579 1.433 . S
C578 C574 1.350 1_454 S
C578 C575 1.463 1_455 S
C578 N582 1.427 . S
C579 H569 0.929 . S
C579 C577 1.433 . S
C579 N582 1.384 . S
C580 H571 0.929 . S
C580 C572 1.382 . S
C580 C575 1.350 1_455 S
C581 H568 0.929 . S
C581 C573 1.433 1_556 S
C581 N583 1.384 . S
N582 C578 1.427 . S
N582 C579 1.384 . S
N583 C575 1.427 1_556 S
N583 C581 1.384 . S
H584 C590 0.930 . S
H585 C594 0.930 . S
H586 C599 0.929 . S
H587 C597 0.929 . S
H588 C592 0.929 . S
H589 C598 0.929 . S
C590 H584 0.930 . S
C590 C591 1.367 . S
C590 C598 1.378 . S
C591 C590 1.367 . S
C591 C599 1.433 . S
C592 H588 0.929 . S
C592 C594 1.378 . S
C592 C596 1.350 . S
C593 C596 1.463 . S
C593 C598 1.350 . S
C593 N601 1.427 . S
C594 H585 0.930 . S
C594 C592 1.378 . S
C594 C595 1.367 . S
C595 C594 1.367 . S
C595 C597 1.433 . S
C596 C592 1.350 . S
C596 C593 1.463 . S
C596 N600 1.427 . S
C597 H587 0.929 . S
C597 C595 1.433 . S
C597 N600 1.384 . S
C598 H589 0.929 . S
C598 C590 1.378 . S
C598 C593 1.350 . S
C599 H586 0.929 . S
C599 C591 1.433 . S
C599 N601 1.384 . S
N600 C596 1.427 . S
N600 C597 1.384 . S
N601 C593 1.427 . S
N601 C599 1.384 . S
H602 C608 0.930 . S
H603 C612 0.930 . S
H604 C617 0.929 . S
H605 C615 0.929 . S
H606 C610 0.929 . S
H607 C616 0.929 . S
C608 H602 0.930 . S
C608 C609 1.367 . S
C608 C616 1.378 . S
C609 C608 1.367 . S
C609 C617 1.433 . S
C610 H606 0.929 . S
C610 C612 1.378 . S
C610 C614 1.350 . S
C611 C614 1.463 1_545 S
C611 C616 1.350 . S
C611 N619 1.427 . S
C612 H603 0.930 . S
C612 C610 1.378 . S
C612 C613 1.367 . S
C613 C612 1.367 . S
C613 C615 1.433 . S
C614 C610 1.350 . S
C614 C611 1.463 1_565 S
C614 N618 1.427 . S
C615 H605 0.929 . S
C615 C613 1.433 . S
C615 N618 1.384 . S
C616 H607 0.929 . S
C616 C608 1.378 . S
C616 C611 1.350 . S
C617 H604 0.929 . S
C617 C609 1.433 . S
C617 N619 1.384 . S
N618 C614 1.427 . S
N618 C615 1.384 . S
N619 C611 1.427 . S
N619 C617 1.384 . S
H620 C626 0.930 . S
H621 C630 0.930 . S
H622 C635 0.929 . S
H623 C633 0.929 . S
H624 C628 0.929 . S
H625 C634 0.929 . S
C626 H620 0.930 . S
C626 C627 1.367 1_554 S
C626 C634 1.378 . S
C627 C626 1.367 1_556 S
C627 C635 1.433 . S
C628 H624 0.929 . S
C628 C630 1.378 . S
C628 C632 1.339 1_556 S
C629 C632 1.462 1_556 S
C629 C634 1.339 1_556 S
C629 N637 1.439 . S
C630 H621 0.930 . S
C630 C628 1.378 . S
C630 C631 1.367 1_556 S
C631 C630 1.367 1_554 S
C631 C633 1.433 . S
C632 C628 1.339 1_554 S
C632 C629 1.462 1_554 S
C632 N636 1.439 . S
C633 H623 0.929 . S
C633 C631 1.433 . S
C633 N636 1.384 . S
C634 H625 0.929 . S
C634 C626 1.378 . S
C634 C629 1.339 1_554 S
C635 H622 0.929 . S
C635 C627 1.433 . S
C635 N637 1.384 . S
N636 C632 1.439 . S
N636 C633 1.384 . S
N637 C629 1.439 . S
N637 C635 1.384 . S
H638 C644 0.930 . S
H639 C648 0.930 . S
H640 C653 0.929 . S
H641 C651 0.929 . S
H642 C646 0.929 . S
H643 C652 0.929 . S
C644 H638 0.930 . S
C644 C645 1.367 . S
C644 C652 1.378 . S
C645 C644 1.367 . S
C645 C653 1.433 . S
C646 H642 0.929 . S
C646 C648 1.378 . S
C646 C650 1.350 . S
C647 C650 1.463 1_545 S
C647 C652 1.350 . S
C647 N655 1.427 . S
C648 H639 0.930 . S
C648 C646 1.378 . S
C648 C649 1.367 . S
C649 C648 1.367 . S
C649 C651 1.433 . S
C650 C646 1.350 . S
C650 C647 1.463 1_565 S
C650 N654 1.427 . S
C651 H641 0.929 . S
C651 C649 1.433 . S
C651 N654 1.384 . S
C652 H643 0.929 . S
C652 C644 1.378 . S
C652 C647 1.350 . S
C653 H640 0.929 . S
C653 C645 1.433 . S
C653 N655 1.384 . S
N654 C650 1.427 . S
N654 C651 1.384 . S
N655 C647 1.427 . S
N655 C653 1.384 . S
H656 C662 0.930 . S
H657 C666 0.930 . S
H658 C671 0.929 . S
H659 C669 0.929 . S
H660 C664 0.929 . S
H661 C670 0.929 . S
C662 H656 0.930 . S
C662 C663 1.367 . S
C662 C670 1.378 . S
C663 C662 1.367 . S
C663 C671 1.433 1_564 S
C664 H660 0.929 . S
C664 C666 1.378 . S
C664 C668 1.350 1_545 S
C665 C668 1.463 1_554 S
C665 C670 1.350 . S
C665 N673 1.427 1_564 S
C666 H657 0.930 . S
C666 C664 1.378 . S
C666 C667 1.367 1_545 S
C667 C666 1.367 1_565 S
C667 C669 1.433 1_556 S
C668 C664 1.350 1_565 S
C668 C665 1.463 1_556 S
C668 N672 1.427 1_556 S
C669 H659 0.929 . S
C669 C667 1.433 1_554 S
C669 N672 1.384 . S
C670 H661 0.929 . S
C670 C662 1.378 . S
C670 C665 1.350 . S
C671 H658 0.929 . S
C671 C663 1.433 1_546 S
C671 N673 1.384 . S
N672 C668 1.427 1_554 S
N672 C669 1.384 . S
N673 C665 1.427 1_546 S
N673 C671 1.384 . S
H674 C680 0.930 . S
H675 C684 0.930 . S
H676 C689 0.929 . S
H677 C687 0.929 . S
H678 C682 0.929 . S
H679 C688 0.929 . S
C680 H674 0.930 . S
C680 C681 1.367 . S
C680 C688 1.378 . S
C681 C680 1.367 . S
C681 C689 1.433 . S
C682 H678 0.929 . S
C682 C684 1.378 . S
C682 C686 1.350 . S
C683 C686 1.463 . S
C683 C688 1.350 . S
C683 N691 1.427 . S
C684 H675 0.930 . S
C684 C682 1.378 . S
C684 C685 1.367 . S
C685 C684 1.367 . S
C685 C687 1.433 . S
C686 C682 1.350 . S
C686 C683 1.463 . S
C686 N690 1.427 . S
C687 H677 0.929 . S
C687 C685 1.433 . S
C687 N690 1.384 . S
C688 H679 0.929 . S
C688 C680 1.378 . S
C688 C683 1.350 . S
C689 H676 0.929 . S
C689 C681 1.433 . S
C689 N691 1.384 . S
N690 C686 1.427 . S
N690 C687 1.384 . S
N691 C683 1.427 . S
N691 C689 1.384 . S
H692 C698 0.930 . S
H693 C702 0.930 . S
H694 C707 0.929 . S
H695 C705 0.929 . S
H696 C700 0.929 . S
H697 C706 0.929 . S
C698 H692 0.930 . S
C698 C699 1.367 . S
C698 C706 1.378 . S
C699 C698 1.367 . S
C699 C707 1.433 . S
C700 H696 0.929 . S
C700 C702 1.378 . S
C700 C704 1.350 . S
C701 C704 1.463 . S
C701 C706 1.350 . S
C701 N709 1.427 . S
C702 H693 0.930 . S
C702 C700 1.378 . S
C702 C703 1.367 . S
C703 C702 1.367 . S
C703 C705 1.433 . S
C704 C700 1.350 . S
C704 C701 1.463 . S
C704 N708 1.427 . S
C705 H695 0.929 . S
C705 C703 1.433 . S
C705 N708 1.384 . S
C706 H697 0.929 . S
C706 C698 1.378 . S
C706 C701 1.350 . S
C707 H694 0.929 . S
C707 C699 1.433 . S
C707 N709 1.384 . S
N708 C704 1.427 . S
N708 C705 1.384 . S
N709 C701 1.427 . S
N709 C707 1.384 . S
H710 C716 0.930 . S
H711 C720 0.930 . S
H712 C725 0.929 . S
H713 C723 0.929 . S
H714 C718 0.929 . S
H715 C724 0.929 . S
C716 H710 0.930 . S
C716 C717 1.367 . S
C716 C724 1.378 . S
C717 C716 1.367 . S
C717 C725 1.433 . S
C718 H714 0.929 . S
C718 C720 1.378 . S
C718 C722 1.350 . S
C719 C722 1.463 1_556 S
C719 C724 1.350 . S
C719 N727 1.427 . S
C720 H711 0.930 . S
C720 C718 1.378 . S
C720 C721 1.367 . S
C721 C720 1.367 . S
C721 C723 1.433 . S
C722 C718 1.350 . S
C722 C719 1.463 1_554 S
C722 N726 1.427 . S
C723 H713 0.929 . S
C723 C721 1.433 . S
C723 N726 1.384 . S
C724 H715 0.929 . S
C724 C716 1.378 . S
C724 C719 1.350 . S
C725 H712 0.929 . S
C725 C717 1.433 . S
C725 N727 1.384 . S
N726 C722 1.427 . S
N726 C723 1.384 . S
N727 C719 1.427 . S
N727 C725 1.384 . S
H728 C734 0.930 . S
H729 C738 0.930 . S
H730 C743 0.929 . S
H731 C741 0.929 . S
H732 C736 0.929 . S
H733 C742 0.929 . S
C734 H728 0.930 . S
C734 C735 1.367 . S
C734 C742 1.378 . S
C735 C734 1.367 . S
C735 C743 1.433 . S
C736 H732 0.929 . S
C736 C738 1.378 . S
C736 C740 1.350 . S
C737 C740 1.463 . S
C737 C742 1.350 . S
C737 N745 1.427 . S
C738 H729 0.930 . S
C738 C736 1.378 . S
C738 C739 1.367 . S
C739 C738 1.367 . S
C739 C741 1.433 . S
C740 C736 1.350 . S
C740 C737 1.463 . S
C740 N744 1.427 . S
C741 H731 0.929 . S
C741 C739 1.433 . S
C741 N744 1.384 . S
C742 H733 0.929 . S
C742 C734 1.378 . S
C742 C737 1.350 . S
C743 H730 0.929 . S
C743 C735 1.433 . S
C743 N745 1.384 . S
N744 C740 1.427 . S
N744 C741 1.384 . S
N745 C737 1.427 . S
N745 C743 1.384 . S
H746 C752 0.930 . S
H747 C756 0.930 . S
H748 C761 0.929 . S
H749 C759 0.929 . S
H750 C754 0.929 . S
H751 C760 0.929 . S
C752 H746 0.930 . S
C752 C753 1.367 . S
C752 C760 1.378 . S
C753 C752 1.367 . S
C753 C761 1.433 . S
C754 H750 0.929 . S
C754 C756 1.378 . S
C754 C758 1.350 . S
C755 C758 1.463 . S
C755 C760 1.350 . S
C755 N763 1.427 . S
C756 H747 0.930 . S
C756 C754 1.378 . S
C756 C757 1.367 . S
C757 C756 1.367 . S
C757 C759 1.433 . S
C758 C754 1.350 . S
C758 C755 1.463 . S
C758 N762 1.427 . S
C759 H749 0.929 . S
C759 C757 1.433 . S
C759 N762 1.384 . S
C760 H751 0.929 . S
C760 C752 1.378 . S
C760 C755 1.350 . S
C761 H748 0.929 . S
C761 C753 1.433 . S
C761 N763 1.384 . S
N762 C758 1.427 . S
N762 C759 1.384 . S
N763 C755 1.427 . S
N763 C761 1.384 . S
H764 C770 0.933 . S
H765 C774 0.930 . S
H766 C779 0.929 . S
H767 C777 0.928 . S
H768 C772 0.929 . S
H769 C778 0.931 . S
C770 H764 0.933 . S
C770 C771 1.367 . S
C770 C778 1.378 . S
C771 C770 1.367 . S
C771 C779 1.433 . S
C772 H768 0.929 . S
C772 C774 1.378 . S
C772 C776 1.350 . S
C773 C776 1.463 . S
C773 C778 1.350 . S
C773 N781 1.427 . S
C774 H765 0.930 . S
C774 C772 1.378 . S
C774 C775 1.367 . S
C775 C774 1.367 . S
C775 C777 1.433 . S
C776 C772 1.350 . S
C776 C773 1.463 . S
C776 N780 1.427 . S
C777 H767 0.928 . S
C777 C775 1.433 . S
C777 N780 1.384 . S
C778 H769 0.931 . S
C778 C770 1.378 . S
C778 C773 1.350 . S
C779 H766 0.929 . S
C779 C771 1.433 . S
C779 N781 1.384 . S
N780 C776 1.427 . S
N780 C777 1.384 . S
N781 C773 1.427 . S
N781 C779 1.384 . S
H782 C788 0.930 . S
H783 C792 0.930 . S
H784 C797 0.929 . S
H785 C795 0.929 . S
H786 C790 0.929 . S
H787 C796 0.929 . S
C788 H782 0.930 . S
C788 C789 1.367 . S
C788 C796 1.378 . S
C789 C788 1.367 . S
C789 C797 1.433 . S
C790 H786 0.929 . S
C790 C792 1.378 . S
C790 C794 1.350 . S
C791 C794 1.463 . S
C791 C796 1.350 . S
C791 N799 1.427 . S
C792 H783 0.930 . S
C792 C790 1.378 . S
C792 C793 1.367 . S
C793 C792 1.367 . S
C793 C795 1.433 . S
C794 C790 1.350 . S
C794 C791 1.463 . S
C794 N798 1.427 . S
C795 H785 0.929 . S
C795 C793 1.433 . S
C795 N798 1.384 . S
C796 H787 0.929 . S
C796 C788 1.378 . S
C796 C791 1.350 . S
C797 H784 0.929 . S
C797 C789 1.433 . S
C797 N799 1.384 . S
N798 C794 1.427 . S
N798 C795 1.384 . S
N799 C791 1.427 . S
N799 C797 1.384 . S
C231 C8 1.758 . S
C235 C106 1.759 . S
C249 C22 1.759 . S
C253 C64 1.759 . S
C267 C78 1.759 . S
C271 C36 1.758 . S
C285 C50 1.758 . S
C289 C92 1.759 . S
C303 C120 1.755 . S
C307 C176 1.757 . S
C321 C134 1.756 . S
C325 C204 1.759 . S
C339 C162 1.757 . S
C343 C148 1.755 . S
C357 C218 1.757 . S
C361 C190 1.755 . S
C375 C3 0.774 . S
C379 C87 0.783 . S
C393 C105 1.464 1_545 S
C397 C21 1.460 1_565 S
C411 C31 0.773 . S
C415 C59 0.783 . S
C429 C77 1.443 1_565 S
C433 C49 1.449 1_545 S
C447 C9 1.381 . S
C451 C205 1.387 . S
C465 C157 0.775 . S
C469 C17 0.782 . S
C483 C191 1.388 . S
C487 C37 1.384 . S
C501 C171 0.774 . S
C505 C45 0.782 . S
C519 C149 1.384 . S
C523 C65 1.378 . S
C537 C73 0.777 . S
C541 C213 0.781 . S
C555 C93 1.382 . S
C559 C121 1.388 . S
C573 C101 0.783 . S
C577 C129 0.774 . S
C591 C7 1.443 . S
C595 C63 1.449 . S
C609 C119 1.458 . S
C613 C189 1.450 . S
C627 C177 1.380 . S
C631 C135 1.376 . S
C645 C203 1.442 . S
C649 C147 1.443 . S
C663 C107 1.380 . S
C667 C51 1.387 . S
C681 C35 1.461 . S
C685 C91 1.464 . S
C699 C163 1.384 . S
C703 C219 1.388 . S
C717 C185 0.780 . S
C721 C143 0.776 . S
C735 C217 1.442 . S
C739 C175 1.445 . S
C753 C199 0.774 . S
C757 C115 0.783 . S
C771 C161 1.464 . S
C775 C133 1.460 . S
C789 C23 1.377 . S
C793 C79 1.378 . S
