# Generated by pormake.
# Topology ske, (6)-cn, num edge types: 1
# Building blocks:
#     Node 0, Type 0, BuildingBlock: UKALOJ_clean_sbu_0, # of connection points: 6
#     Node 1, Type 0, BuildingBlock: UKALOJ_clean_sbu_0, # of connection points: 6
#     Node 2, Type 0, BuildingBlock: UKALOJ_clean_sbu_0, # of connection points: 6
#     Node 3, Type 0, BuildingBlock: UKALOJ_clean_sbu_0, # of connection points: 6
#     Node 4, Type 0, BuildingBlock: UKALOJ_clean_sbu_0, # of connection points: 6
#     Node 5, Type 0, BuildingBlock: UKALOJ_clean_sbu_0, # of connection points: 6
#     Node 6, Type 0, BuildingBlock: UKALOJ_clean_sbu_0, # of connection points: 6
#     Node 7, Type 0, BuildingBlock: UKALOJ_clean_sbu_0, # of connection points: 6
#     Edge 8, Type (0, 0), BuildingBlock: KIFKEQ_clean_linker_1, # of connection points: 2
#     Edge 9, Type (0, 0), BuildingBlock: KIFKEQ_clean_linker_1, # of connection points: 2
#     Edge 10, Type (0, 0), BuildingBlock: KIFKEQ_clean_linker_1, # of connection points: 2
#     Edge 11, Type (0, 0), BuildingBlock: KIFKEQ_clean_linker_1, # of connection points: 2
#     Edge 12, Type (0, 0), BuildingBlock: KIFKEQ_clean_linker_1, # of connection points: 2
#     Edge 13, Type (0, 0), BuildingBlock: KIFKEQ_clean_linker_1, # of connection points: 2
#     Edge 14, Type (0, 0), BuildingBlock: KIFKEQ_clean_linker_1, # of connection points: 2
#     Edge 15, Type (0, 0), BuildingBlock: KIFKEQ_clean_linker_1, # of connection points: 2
#     Edge 16, Type (0, 0), BuildingBlock: KIFKEQ_clean_linker_1, # of connection points: 2
#     Edge 17, Type (0, 0), BuildingBlock: KIFKEQ_clean_linker_1, # of connection points: 2
#     Edge 18, Type (0, 0), BuildingBlock: KIFKEQ_clean_linker_1, # of connection points: 2
#     Edge 19, Type (0, 0), BuildingBlock: KIFKEQ_clean_linker_1, # of connection points: 2
#     Edge 20, Type (0, 0), BuildingBlock: KIFKEQ_clean_linker_1, # of connection points: 2
#     Edge 21, Type (0, 0), BuildingBlock: KIFKEQ_clean_linker_1, # of connection points: 2
#     Edge 22, Type (0, 0), BuildingBlock: KIFKEQ_clean_linker_1, # of connection points: 2
#     Edge 23, Type (0, 0), BuildingBlock: KIFKEQ_clean_linker_1, # of connection points: 2
#     Edge 24, Type (0, 0), BuildingBlock: KIFKEQ_clean_linker_1, # of connection points: 2
#     Edge 25, Type (0, 0), BuildingBlock: KIFKEQ_clean_linker_1, # of connection points: 2
#     Edge 26, Type (0, 0), BuildingBlock: KIFKEQ_clean_linker_1, # of connection points: 2
#     Edge 27, Type (0, 0), BuildingBlock: KIFKEQ_clean_linker_1, # of connection points: 2
#     Edge 28, Type (0, 0), BuildingBlock: KIFKEQ_clean_linker_1, # of connection points: 2
#     Edge 29, Type (0, 0), BuildingBlock: KIFKEQ_clean_linker_1, # of connection points: 2
#     Edge 30, Type (0, 0), BuildingBlock: KIFKEQ_clean_linker_1, # of connection points: 2
#     Edge 31, Type (0, 0), BuildingBlock: KIFKEQ_clean_linker_1, # of connection points: 2
# Relax obj value: 0.072
# Max RMSD: 0.118
# Mean RMSD: 0.118
data_MOF--net-ske--node1-UKALOJ_clean_sbu_0--edge1-KIFKEQ_clean_linker_1
_symmetry_space_group_name_H-M    P1
_symmetry_Int_Tables_number       1
_symmetry_cell_setting            triclinic
loop_
_symmetry_equiv_pos_as_xyz
'x, y, z'
_cell_length_a     59.00544
_cell_length_b     40.986536
_cell_length_c     15.367232
_cell_angle_alpha  90.059762
_cell_angle_beta   90.105527
_cell_angle_gamma 89.997098
loop_
_atom_site_label
_atom_site_type_symbol
_atom_site_fract_x
_atom_site_fract_y
_atom_site_fract_z
_atom_type_partial_charge
Zn0 Zn 0.1369 0.29211 0.51935 0.0
O1 O 0.13077 0.29722 0.65466 0.0
C2 C 0.18236 0.2691 0.55704 0.0
Zn3 Zn 0.1368 0.23768 0.52185 0.0
C4 C 0.12979 0.27027 0.69563 0.0
O5 O 0.13121 0.2436 0.65403 0.0
C6 C 0.1443 0.25906 0.34581 0.0
O7 O 0.10171 0.2338 0.50068 0.0
O8 O 0.10163 0.28737 0.49556 0.0
N9 N 0.13989 0.18854 0.54326 0.0
C10 C 0.13171 0.16117 0.50554 0.0
C11 C 0.1534 0.14642 0.60934 0.0
N12 N 0.15323 0.17919 0.60789 0.0
N13 N 0.14 0.1343 0.54599 0.0
C14 C 0.14247 0.36895 0.52808 0.0
C15 C 0.12445 0.38127 0.41218 0.0
N16 N 0.13398 0.34098 0.49489 0.0
N17 N 0.12269 0.34888 0.42337 0.0
N18 N 0.13682 0.3945 0.47677 0.0
H19 H 0.1618 0.34634 0.63141 0.0
H20 H 0.14823 0.3842 0.65927 0.0
H21 H 0.17291 0.38488 0.59153 0.0
C22 C 0.15731 0.37092 0.60701 0.0
C23 C 0.11641 0.16106 0.42762 0.0
H24 H 0.11689 0.18473 0.39322 0.0
H25 H 0.09873 0.1569 0.44929 0.0
H26 H 0.12124 0.14118 0.38222 0.0
O27 O 0.14254 0.23261 0.38817 0.0
O28 O 0.14321 0.28613 0.38559 0.0
C29 C 0.09098 0.26044 0.49114 0.0
O30 O 0.17198 0.29587 0.54475 0.0
O31 O 0.17183 0.24233 0.54649 0.0
Zn32 Zn 0.87549 0.2964 0.52483 0.0
O33 O 0.91074 0.29696 0.50447 0.0
C34 C 0.86788 0.27607 0.3484 0.0
Zn35 Zn 0.8742 0.24199 0.52168 0.0
C36 C 0.92087 0.26982 0.49534 0.0
O37 O 0.90959 0.24346 0.49932 0.0
C38 C 0.82912 0.2685 0.55762 0.0
O39 O 0.87987 0.23589 0.65712 0.0
O40 O 0.88074 0.28949 0.65695 0.0
N41 N 0.87489 0.1931 0.49561 0.0
C42 C 0.86672 0.16553 0.53187 0.0
C43 C 0.88169 0.15234 0.41055 0.0
N44 N 0.88427 0.18466 0.42065 0.0
N45 N 0.87069 0.13967 0.47921 0.0
C46 C 0.88129 0.37201 0.49924 0.0
C47 C 0.87024 0.38958 0.6227 0.0
N48 N 0.87531 0.34579 0.54703 0.0
N49 N 0.86849 0.35685 0.62364 0.0
N50 N 0.87823 0.39978 0.54537 0.0
H51 H 0.90205 0.39176 0.39643 0.0
H52 H 0.87737 0.3694 0.36129 0.0
H53 H 0.90156 0.34767 0.40262 0.0
C54 C 0.89129 0.37015 0.40987 0.0
C55 C 0.85404 0.16431 0.61604 0.0
H56 H 0.84701 0.18858 0.63281 0.0
H57 H 0.86586 0.15687 0.66861 0.0
H58 H 0.84021 0.146 0.61237 0.0
O59 O 0.83904 0.24134 0.5454 0.0
O60 O 0.84019 0.29494 0.54878 0.0
C61 C 0.88147 0.26276 0.69837 0.0
O62 O 0.87018 0.30239 0.39104 0.0
O63 O 0.86834 0.24896 0.38795 0.0
Zn64 Zn 0.13658 0.79235 0.43436 0.0
O65 O 0.10125 0.79473 0.45655 0.0
C66 C 0.14341 0.77075 0.61071 0.0
Zn67 Zn 0.13585 0.73791 0.43658 0.0
C68 C 0.09031 0.7682 0.46464 0.0
O69 O 0.10074 0.74119 0.45881 0.0
C70 C 0.18183 0.76157 0.39981 0.0
O71 O 0.13028 0.73217 0.30314 0.0
O72 O 0.13051 0.78587 0.30025 0.0
N73 N 0.13385 0.68899 0.46192 0.0
C74 C 0.14226 0.66116 0.42775 0.0
C75 C 0.12545 0.64858 0.54585 0.0
N76 N 0.12331 0.68092 0.53481 0.0
N77 N 0.13732 0.63553 0.47981 0.0
C78 C 0.1321 0.86794 0.46174 0.0
C79 C 0.14343 0.88553 0.33876 0.0
N80 N 0.13786 0.8417 0.41348 0.0
N81 N 0.14487 0.85276 0.33719 0.0
N82 N 0.13547 0.89572 0.4162 0.0
H83 H 0.11176 0.8436 0.5582 0.0
H84 H 0.11116 0.88768 0.56412 0.0
H85 H 0.13585 0.86549 0.59978 0.0
C86 C 0.12198 0.86611 0.55094 0.0
C87 C 0.15622 0.6594 0.34668 0.0
H88 H 0.16128 0.68402 0.32444 0.0
H89 H 0.14611 0.64769 0.29437 0.0
H90 H 0.17147 0.64413 0.35821 0.0
O91 O 0.17078 0.73539 0.41255 0.0
O92 O 0.17196 0.78898 0.40889 0.0
C93 C 0.12906 0.75871 0.26065 0.0
O94 O 0.14267 0.79766 0.56981 0.0
O95 O 0.14159 0.74425 0.56888 0.0
Zn96 Zn 0.87447 0.79638 0.44929 0.0
O97 O 0.8803 0.80128 0.31388 0.0
C98 C 0.8287 0.77405 0.41318 0.0
Zn99 Zn 0.87405 0.74195 0.44644 0.0
C100 C 0.88101 0.77431 0.27279 0.0
O101 O 0.87946 0.74766 0.31425 0.0
C102 C 0.86709 0.76355 0.62268 0.0
O103 O 0.90918 0.73775 0.46669 0.0
O104 O 0.90972 0.79131 0.47165 0.0
N105 N 0.87073 0.69277 0.42529 0.0
C106 C 0.87925 0.66548 0.46209 0.0
C107 C 0.85705 0.65055 0.36 0.0
N108 N 0.85705 0.68332 0.36175 0.0
N109 N 0.87087 0.63853 0.42206 0.0
C110 C 0.86895 0.87309 0.44033 0.0
C111 C 0.88748 0.88578 0.55483 0.0
N112 N 0.87766 0.84525 0.47326 0.0
N113 N 0.88926 0.85336 0.54389 0.0
N114 N 0.87478 0.8988 0.49094 0.0
H115 H 0.84953 0.85016 0.33753 0.0
H116 H 0.86218 0.88866 0.3101 0.0
H117 H 0.83788 0.88802 0.37982 0.0
C118 C 0.85366 0.87479 0.36259 0.0
C119 C 0.89494 0.66551 0.53882 0.0
H120 H 0.89423 0.68898 0.57423 0.0
H121 H 0.91258 0.66209 0.51563 0.0
H122 H 0.89069 0.64526 0.5838 0.0
O123 O 0.86851 0.73706 0.58016 0.0
O124 O 0.86845 0.7906 0.58308 0.0
C125 C 0.92015 0.76422 0.4757 0.0
O126 O 0.83938 0.80057 0.42548 0.0
O127 O 0.83899 0.74704 0.4227 0.0
Zn128 Zn 0.63586 0.79758 0.04513 0.0
O129 O 0.63153 0.80017 0.17881 0.0
C130 C 0.68135 0.77579 0.08025 0.0
Zn131 Zn 0.63594 0.74295 0.04544 0.0
C132 C 0.6292 0.7736 0.22032 0.0
O133 O 0.62929 0.74656 0.17974 0.0
C134 C 0.64268 0.76777 0.87014 0.0
O135 O 0.60107 0.73775 0.01985 0.0
O136 O 0.60044 0.79117 0.02833 0.0
N137 N 0.64 0.69339 0.06019 0.0
C138 C 0.63216 0.66659 0.01858 0.0
C139 C 0.65388 0.6503 0.12057 0.0
N140 N 0.6534 0.68307 0.12359 0.0
N141 N 0.64065 0.6391 0.05546 0.0
C142 C 0.64268 0.87481 0.04548 0.0
C143 C 0.61088 0.88857 -0.00934 0.0
N144 N 0.6308 0.84708 0.0312 0.0
N145 N 0.61113 0.85593 -0.00298 0.0
N146 N 0.63048 0.90116 0.02032 0.0
H147 H 0.66617 0.85829 0.14255 0.0
H148 H 0.66932 0.90079 0.11301 0.0
H149 H 0.67859 0.86903 0.0397 0.0
C150 C 0.6655 0.87599 0.08801 0.0
C151 C 0.61704 0.66768 0.94019 0.0
H152 H 0.61789 0.69172 0.90773 0.0
H153 H 0.59926 0.66369 0.96096 0.0
H154 H 0.62176 0.64825 0.89329 0.0
O155 O 0.64273 0.74081 0.91095 0.0
O156 O 0.64026 0.79431 0.91169 0.0
C157 C 0.59002 0.76433 0.018 0.0
O158 O 0.6711 0.80246 0.06473 0.0
O159 O 0.67065 0.74898 0.07351 0.0
Zn160 Zn 0.37379 0.73719 0.02719 0.0
O161 O 0.3791 0.73155 0.16219 0.0
C162 C 0.32783 0.76154 0.06092 0.0
Zn163 Zn 0.37342 0.79167 0.02823 0.0
C164 C 0.37999 0.75859 0.20286 0.0
O165 O 0.3787 0.78519 0.16095 0.0
C166 C 0.36687 0.77065 0.85276 0.0
O167 O 0.40895 0.79332 0.00756 0.0
O168 O 0.40894 0.73978 0.00782 0.0
N169 N 0.37248 0.84114 0.04947 0.0
C170 C 0.37853 0.86733 0.00164 0.0
C171 C 0.36676 0.88506 0.12394 0.0
N172 N 0.3652 0.8523 0.12534 0.0
N173 N 0.37506 0.89517 0.04702 0.0
C174 C 0.36683 0.66058 0.03592 0.0
C175 C 0.38354 0.64768 0.91779 0.0
N176 N 0.37545 0.68826 0.00182 0.0
N177 N 0.38592 0.67999 0.92889 0.0
N178 N 0.37158 0.63486 -0.01619 0.0
H179 H 0.34778 0.68381 0.13869 0.0
H180 H 0.36293 0.64754 0.16949 0.0
H181 H 0.33759 0.64381 0.10562 0.0
C182 C 0.35284 0.6591 0.11694 0.0
C183 C 0.38898 0.8654 0.91304 0.0
H184 H 0.3992 0.84286 0.90637 0.0
H185 H 0.39989 0.88694 0.90047 0.0
H186 H 0.3753 0.8648 0.86344 0.0
O187 O 0.36807 0.79722 0.8949 0.0
O188 O 0.3683 0.7437 0.89283 0.0
C189 C 0.41968 0.76651 0.00196 0.0
O190 O 0.33884 0.73524 0.0493 0.0
O191 O 0.33785 0.78885 0.05178 0.0
Zn192 Zn 0.63395 0.29792 0.91182 0.0
O193 O 0.59884 0.30078 0.93521 0.0
C194 C 0.64142 0.27414 0.08813 0.0
Zn195 Zn 0.63501 0.2433 0.91389 0.0
C196 C 0.58853 0.27371 0.94165 0.0
O197 O 0.5996 0.24731 0.93401 0.0
C198 C 0.68011 0.26773 0.87794 0.0
O199 O 0.63005 0.23968 0.78 0.0
O200 O 0.62767 0.29325 0.77767 0.0
N201 N 0.63155 0.19376 0.93044 0.0
C202 C 0.64304 0.16635 0.90914 0.0
C203 C 0.61354 0.1517 0.97888 0.0
N204 N 0.61335 0.18438 0.97403 0.0
N205 N 0.63199 0.13967 0.9389 0.0
C206 C 0.63067 0.37351 0.9469 0.0
C207 C 0.6418 0.39234 0.82502 0.0
N208 N 0.63578 0.34771 0.89585 0.0
N209 N 0.64268 0.35957 0.82027 0.0
N210 N 0.63434 0.40181 0.90385 0.0
H211 H 0.61039 0.39251 0.05217 0.0
H212 H 0.63491 0.36923 0.08437 0.0
H213 H 0.61039 0.3485 0.04223 0.0
C214 C 0.62087 0.37082 0.03645 0.0
C215 C 0.66434 0.16585 0.85658 0.0
H216 H 0.66358 0.18483 0.80521 0.0
H217 H 0.66707 0.14154 0.82652 0.0
H218 H 0.67891 0.17146 0.89985 0.0
O219 O 0.67023 0.24066 0.89222 0.0
O220 O 0.66902 0.29424 0.88518 0.0
C221 C 0.62757 0.26609 0.73779 0.0
O222 O 0.64031 0.30105 0.0472 0.0
O223 O 0.64006 0.24746 0.04663 0.0
Zn224 Zn 0.37293 0.23726 0.93991 0.0
O225 O 0.40815 0.23397 0.96022 0.0
C226 C 0.36556 0.25859 0.11616 0.0
Zn227 Zn 0.37253 0.29172 0.9428 0.0
C228 C 0.4187 0.26082 0.96906 0.0
O229 O 0.40781 0.28754 0.96516 0.0
C230 C 0.32714 0.26823 0.90609 0.0
O231 O 0.37835 0.29688 0.80742 0.0
O232 O 0.37831 0.24324 0.80775 0.0
N233 N 0.37517 0.34061 0.96745 0.0
C234 C 0.36646 0.36846 0.93454 0.0
C235 C 0.38453 0.38102 0.05022 0.0
N236 N 0.38648 0.34866 0.03883 0.0
N237 N 0.37201 0.39409 -0.0141 0.0
C238 C 0.37844 0.16073 0.95645 0.0
C239 C 0.35687 0.14563 0.85258 0.0
N240 N 0.37017 0.18798 0.91851 0.0
N241 N 0.3569 0.1784 0.85383 0.0
N242 N 0.37027 0.1337 0.91612 0.0
H243 H 0.39327 0.18468 0.06828 0.0
H244 H 0.41139 0.15656 0.01295 0.0
H245 H 0.38883 0.14119 0.08024 0.0
C246 C 0.39371 0.16088 0.03444 0.0
C247 C 0.35153 0.37024 0.85585 0.0
H248 H 0.34708 0.3456 0.83162 0.0
H249 H 0.36053 0.38349 0.80339 0.0
H250 H 0.33591 0.38413 0.8715 0.0
O251 O 0.33744 0.29504 0.91869 0.0
O252 O 0.33778 0.2415 0.9158 0.0
C253 C 0.37948 0.26993 0.76631 0.0
O254 O 0.36738 0.23216 0.07364 0.0
O255 O 0.36653 0.28567 0.07655 0.0
H256 H 0.21276 0.31953 0.57544 0.0
H257 H 0.20224 0.21794 0.63833 0.0
H258 H 0.24752 0.31944 0.66228 0.0
H259 H 0.23559 0.21835 0.72904 0.0
H260 H 0.30748 0.21756 0.82153 0.0
H261 H 0.2741 0.21849 0.73088 0.0
H262 H 0.26172 0.31883 0.80482 0.0
H263 H 0.29648 0.31843 0.89159 0.0
C264 C 0.21797 0.29716 0.60715 0.0
C265 C 0.20491 0.26867 0.59901 0.0
C266 C 0.23769 0.2972 0.65814 0.0
C267 C 0.24446 0.26891 0.70338 0.0
C268 C 0.23139 0.24043 0.69397 0.0
C269 C 0.21211 0.2402 0.64171 0.0
C270 C 0.29749 0.23974 0.81977 0.0
C271 C 0.30456 0.26787 0.86443 0.0
C272 C 0.2782 0.24028 0.76753 0.0
C273 C 0.265 0.26873 0.76011 0.0
C274 C 0.27164 0.29664 0.80737 0.0
C275 C 0.29136 0.2963 0.85833 0.0
H276 H 0.70055 0.3191 0.79909 0.0
H277 H 0.71112 0.2179 0.86639 0.0
H278 H 0.73529 0.31911 0.71612 0.0
H279 H 0.74694 0.21836 0.78701 0.0
H280 H 0.79796 0.21896 0.56607 0.0
H281 H 0.76223 0.21893 0.64585 0.0
H282 H 0.77419 0.31902 0.72301 0.0
H283 H 0.8089 0.31951 0.6395 0.0
C284 C 0.71064 0.29701 0.79813 0.0
C285 C 0.70309 0.26851 0.83974 0.0
C286 C 0.73069 0.29703 0.75041 0.0
C287 C 0.74406 0.26872 0.74432 0.0
C288 C 0.73689 0.24045 0.78857 0.0
C289 C 0.71652 0.24027 0.83519 0.0
C290 C 0.79264 0.24111 0.5987 0.0
C291 C 0.80614 0.26932 0.5957 0.0
C292 C 0.77233 0.24098 0.64559 0.0
C293 C 0.76528 0.2689 0.69174 0.0
C294 C 0.77871 0.29721 0.68724 0.0
C295 C 0.79872 0.29751 0.63917 0.0
H296 H 0.30765 0.70933 0.13744 0.0
H297 H 0.2968 0.81099 0.07628 0.0
H298 H 0.27369 0.70903 0.22526 0.0
H299 H 0.26174 0.81027 0.1601 0.0
H300 H 0.21346 0.81026 0.38783 0.0
H301 H 0.24835 0.80958 0.30298 0.0
H302 H 0.23483 0.70961 0.22847 0.0
H303 H 0.20102 0.70981 0.31731 0.0
C304 C 0.29763 0.73144 0.14068 0.0
C305 C 0.30495 0.76021 0.09979 0.0
C306 C 0.27802 0.73127 0.19124 0.0
C307 C 0.2649 0.7597 0.20082 0.0
C308 C 0.27168 0.78811 0.15632 0.0
C309 C 0.29159 0.78844 0.10704 0.0
C310 C 0.21828 0.78797 0.35473 0.0
C311 C 0.20457 0.76005 0.35982 0.0
C312 C 0.2381 0.78769 0.30486 0.0
C313 C 0.2444 0.75967 0.25756 0.0
C314 C 0.23087 0.73153 0.26472 0.0
C315 C 0.21137 0.73162 0.31589 0.0
H316 H 0.70149 0.72522 0.16286 0.0
H317 H 0.71204 0.82623 0.09343 0.0
H318 H 0.73558 0.72581 0.24907 0.0
H319 H 0.74755 0.82626 0.17597 0.0
H320 H 0.79858 0.82503 0.4003 0.0
H321 H 0.76318 0.82598 0.31723 0.0
H322 H 0.77412 0.72534 0.243 0.0
H323 H 0.80814 0.72388 0.32992 0.0
C324 C 0.71148 0.7474 0.16392 0.0
C325 C 0.7041 0.77564 0.12056 0.0
C326 C 0.7312 0.74772 0.21354 0.0
C327 C 0.74456 0.77603 0.21958 0.0
C328 C 0.73754 0.80414 0.17413 0.0
C329 C 0.71737 0.80403 0.12571 0.0
C330 C 0.79303 0.80298 0.36771 0.0
C331 C 0.80597 0.77427 0.37283 0.0
C332 C 0.77294 0.80363 0.31893 0.0
C333 C 0.76567 0.77574 0.273 0.0
C334 C 0.7787 0.7471 0.27893 0.0
C335 C 0.79836 0.74625 0.32899 0.0
H336 H 0.1494 0.92405 0.56591 0.0
H337 H 0.11614 0.94323 0.32136 0.0
H338 H 0.14837 0.98233 0.60087 0.0
H339 H 0.11521 1.00165 0.35554 0.0
H340 H 0.102 0.10177 0.49163 0.0
H341 H 0.09868 0.0432 0.46306 0.0
H342 H 0.16884 0.0302 0.53518 0.0
H343 H 0.17234 0.08864 0.56072 0.0
C344 C 0.14138 0.94069 0.52074 0.0
C345 C 0.13259 0.92924 0.44151 0.0
C346 C 0.14101 0.97404 0.54012 0.0
C347 C 0.13176 0.99653 0.48075 0.0
C348 C 0.12225 0.98488 0.40283 0.0
C349 C 0.12286 0.95158 0.3831 0.0
C350 C 0.11685 0.08661 0.49902 0.0
C351 C 0.13761 0.10004 0.52633 0.0
C352 C 0.11487 0.05299 0.48376 0.0
C353 C 0.13348 0.03213 0.49732 0.0
C354 C 0.15411 0.04557 0.52535 0.0
C355 C 0.15615 0.07905 0.53954 0.0
H356 H 0.86379 0.42811 0.39655 0.0
H357 H 0.89768 0.44735 0.63988 0.0
H358 H 0.86416 0.48649 0.36289 0.0
H359 H 0.89799 0.50586 0.60695 0.0
H360 H 0.9095 0.60672 0.47279 0.0
H361 H 0.91364 0.54815 0.49933 0.0
H362 H 0.84333 0.53367 0.43148 0.0
H363 H 0.83901 0.59211 0.4081 0.0
C364 C 0.87184 0.44479 0.44165 0.0
C365 C 0.88098 0.43332 0.52022 0.0
C366 C 0.87182 0.47819 0.42302 0.0
C367 C 0.88104 0.50072 0.48249 0.0
C368 C 0.89095 0.48907 0.5596 0.0
C369 C 0.89071 0.45571 0.5786 0.0
C370 C 0.89479 0.59123 0.46596 0.0
C371 C 0.87375 0.60425 0.44054 0.0
C372 C 0.89724 0.55761 0.48002 0.0
C373 C 0.87883 0.53634 0.46705 0.0
C374 C 0.85791 0.54936 0.44084 0.0
C375 C 0.85541 0.58285 0.42789 0.0
H376 H 0.87887 0.9391 0.35281 0.0
H377 H 0.85747 0.93478 0.62033 0.0
H378 H 0.87335 0.99814 0.3529 0.0
H379 H 0.85143 0.99377 0.62101 0.0
H380 H 0.87812 0.10078 0.61839 0.0
H381 H 0.87491 0.04132 0.62115 0.0
H382 H 0.84747 0.04277 0.36005 0.0
H383 H 0.85136 0.10206 0.35748 0.0
C384 C 0.8722 0.95073 0.41058 0.0
C385 C 0.86831 0.93251 0.48616 0.0
C386 C 0.8691 0.98458 0.41106 0.0
C387 C 0.86199 1.00083 0.48721 0.0
C388 C 0.85725 0.98221 0.56172 0.0
C389 C 0.86052 0.94847 0.56126 0.0
C390 C 0.87079 0.08834 0.56293 0.0
C391 C 0.86487 0.10583 0.48796 0.0
C392 C 0.86898 0.05427 0.56411 0.0
C393 C 0.86112 0.03714 0.49034 0.0
C394 C 0.85402 0.05503 0.41727 0.0
C395 C 0.85603 0.08895 0.41596 0.0
H396 H 0.13127 0.59525 0.34229 0.0
H397 H 0.15602 0.59938 0.60587 0.0
H398 H 0.13549 0.53595 0.34269 0.0
H399 H 0.16089 0.54021 0.6066 0.0
H400 H 0.13161 0.43509 0.614 0.0
H401 H 0.13615 0.49433 0.61282 0.0
H402 H 0.15982 0.48953 0.34696 0.0
H403 H 0.15468 0.43038 0.34859 0.0
C404 C 0.13839 0.58349 0.3991 0.0
C405 C 0.14351 0.60173 0.47374 0.0
C406 C 0.14077 0.5495 0.39975 0.0
C407 C 0.14839 0.53316 0.47507 0.0
C408 C 0.15458 0.55182 0.54812 0.0
C409 C 0.152 0.58567 0.54757 0.0
C410 C 0.13844 0.44671 0.55655 0.0
C411 C 0.14303 0.42832 0.48175 0.0
C412 C 0.14098 0.48066 0.55545 0.0
C413 C 0.14825 0.49684 0.47947 0.0
C414 C 0.15382 0.47805 0.40602 0.0
C415 C 0.15108 0.44421 0.40706 0.0
H416 H 0.60269 0.60749 -0.00331 0.0
H417 H 0.67282 0.59293 0.06683 0.0
H418 H 0.59922 0.54938 0.96269 0.0
H419 H 0.66915 0.53485 0.03577 0.0
H420 H 0.649 0.42814 0.05541 0.0
H421 H 0.64873 0.48603 0.09522 0.0
H422 H 0.61524 0.50896 0.85278 0.0
H423 H 0.61544 0.45098 0.81375 0.0
C424 C 0.61748 0.59214 0.00311 0.0
C425 C 0.63823 0.6051 0.03228 0.0
C426 C 0.61541 0.55874 -0.01529 0.0
C427 C 0.63389 0.53751 -0.00313 0.0
C428 C 0.65451 0.55045 0.02682 0.0
C429 C 0.65664 0.58376 0.04417 0.0
C430 C 0.6411 0.4455 0.01187 0.0
C431 C 0.63197 0.43514 0.93208 0.0
C432 C 0.64117 0.47865 0.03401 0.0
C433 C 0.63201 0.50208 0.97696 0.0
C434 C 0.62223 0.49151 0.89841 0.0
C435 C 0.62242 0.45843 0.87591 0.0
H436 H 0.394 0.94291 0.14262 0.0
H437 H 0.36158 0.9233 0.89655 0.0
H438 H 0.39488 1.00131 0.10837 0.0
H439 H 0.36254 0.98155 0.86158 0.0
H440 H 0.33811 0.08778 0.90039 0.0
H441 H 0.34172 0.02941 0.92635 0.0
H442 H 0.41162 0.04292 0.00134 0.0
H443 H 0.40823 0.10141 0.97225 0.0
C444 C 0.38745 0.95115 0.08054 0.0
C445 C 0.37798 0.92869 0.02172 0.0
C446 C 0.38803 0.98445 0.06078 0.0
C447 C 0.37873 0.99598 -0.01758 0.0
C448 C 0.36974 0.97337 0.92267 0.0
C449 C 0.36941 0.94003 0.94207 0.0
C450 C 0.35428 0.07833 0.92228 0.0
C451 C 0.37272 0.09946 0.9361 0.0
C452 C 0.35637 0.04487 0.93674 0.0
C453 C 0.37696 0.03158 0.96569 0.0
C454 C 0.39546 0.05258 0.97992 0.0
C455 C 0.39344 0.08617 0.96436 0.0
H456 H 0.37693 0.43464 0.84874 0.0
H457 H 0.35406 0.42984 0.11435 0.0
H458 H 0.37225 0.49385 0.85025 0.0
H459 H 0.34875 0.48895 0.11632 0.0
H460 H 0.37746 0.59465 0.12128 0.0
H461 H 0.37307 0.53537 0.12071 0.0
H462 H 0.34751 0.53971 0.85703 0.0
H463 H 0.35258 0.59886 0.85792 0.0
C464 C 0.3701 0.44623 0.90629 0.0
C465 C 0.36563 0.42783 0.98108 0.0
C466 C 0.36747 0.48017 0.90759 0.0
C467 C 0.36023 0.49631 -0.01626 0.0
C468 C 0.35473 0.47749 0.05714 0.0
C469 C 0.35757 0.44368 0.05591 0.0
C470 C 0.37026 0.58291 0.0645 0.0
C471 C 0.36518 0.60115 -0.01006 0.0
C472 C 0.36779 0.54893 0.06376 0.0
C473 C 0.36009 0.53263 -0.01159 0.0
C474 C 0.35389 0.5513 0.91551 0.0
C475 C 0.35658 0.58514 0.91615 0.0
H476 H 0.67037 0.10839 -0.01051 0.0
H477 H 0.60407 0.09387 0.87853 0.0
H478 H 0.67397 0.049 0.01249 0.0
H479 H 0.60752 0.03517 0.90039 0.0
H480 H 0.60334 0.94881 0.07592 0.0
H481 H 0.60758 1.00706 0.04899 0.0
H482 H 0.67307 0.98983 0.93301 0.0
H483 H 0.66864 0.93086 0.96032 0.0
C484 C 0.65699 0.09234 0.9672 0.0
C485 C 0.63694 0.10544 0.9322 0.0
C486 C 0.65896 0.05851 0.98079 0.0
C487 C 0.64081 0.03762 0.9599 0.0
C488 C 0.62159 0.05074 0.91875 0.0
C489 C 0.61966 0.08422 0.90548 0.0
C490 C 0.61885 0.95757 0.04643 0.0
C491 C 0.63566 0.93546 0.0205 0.0
C492 C 0.62123 0.99082 0.03038 0.0
C493 C 0.64046 1.00287 -0.01267 0.0
C494 C 0.65807 0.98113 0.96621 0.0
C495 C 0.65563 0.94753 -0.01766 0.0
H496 H 0.15962 0.30698 0.23871 0.0
H497 H 0.12832 0.21171 0.23841 0.0
H498 H 0.15525 0.31004 0.08121 0.0
H499 H 0.12273 0.2154 0.08215 0.0
H500 H 0.13675 0.21679 0.79505 0.0
H501 H 0.14165 0.21397 0.95035 0.0
H502 H 0.12757 0.31728 0.97102 0.0
H503 H 0.12393 0.32049 0.81258 0.0
C504 C 0.15193 0.28662 0.20466 0.0
C505 C 0.14449 0.25897 0.25031 0.0
C506 C 0.14911 0.28857 0.1147 0.0
C507 C 0.13844 0.26313 0.06894 0.0
C508 C 0.13136 0.23524 0.11489 0.0
C509 C 0.13458 0.23304 0.20452 0.0
C510 C 0.13446 0.23898 0.83238 0.0
C511 C 0.12989 0.26893 0.79141 0.0
C512 C 0.13718 0.23727 0.92197 0.0
C513 C 0.13498 0.26534 0.97353 0.0
C514 C 0.12977 0.29526 0.93298 0.0
C515 C 0.12741 0.29709 0.84248 0.0
H516 H 0.85058 0.22946 0.24145 0.0
H517 H 0.88581 0.32182 0.24108 0.0
H518 H 0.85478 0.22576 0.08404 0.0
H519 H 0.8912 0.31741 0.08483 0.0
H520 H 0.87687 0.31683 0.79774 0.0
H521 H 0.87228 0.32027 0.95295 0.0
H522 H 0.88203 0.21595 0.97399 0.0
H523 H 0.88532 0.21222 0.81551 0.0
C524 C 0.8591 0.24907 0.20736 0.0
C525 C 0.86767 0.2761 0.25293 0.0
C526 C 0.86182 0.24672 0.11747 0.0
C527 C 0.87352 0.2711 0.0717 0.0
C528 C 0.88177 0.29841 0.11758 0.0
C529 C 0.87865 0.30104 0.20717 0.0
C530 C 0.87825 0.29452 0.83509 0.0
C531 C 0.8815 0.26417 0.79418 0.0
C532 C 0.87573 0.29658 0.92466 0.0
C533 C 0.87682 0.26845 0.97631 0.0
C534 C 0.88071 0.23807 0.93587 0.0
C535 C 0.88287 0.23591 0.84534 0.0
H536 H 0.14617 0.71202 0.15416 0.0
H537 H 0.11317 0.80607 0.15301 0.0
H538 H 0.15204 0.71594 -0.00196 0.0
H539 H 0.11781 0.80934 -0.00428 0.0
H540 H 0.14865 0.82107 0.72789 0.0
H541 H 0.14537 0.81763 0.88632 0.0
H542 H 0.13344 0.71376 0.86545 0.0
H543 H 0.13801 0.71687 0.7101 0.0
C544 C 0.13958 0.73309 0.11989 0.0
C545 C 0.12908 0.75862 0.16518 0.0
C546 C 0.14299 0.73545 0.0304 0.0
C547 C 0.1355 0.76307 -0.01589 0.0
C548 C 0.12428 0.78809 0.02944 0.0
C549 C 0.12129 0.78601 0.11925 0.0
C550 C 0.14573 0.79751 0.75771 0.0
C551 C 0.14367 0.76931 0.70653 0.0
C552 C 0.14357 0.79554 0.84825 0.0
C553 C 0.13901 0.7654 0.88875 0.0
C554 C 0.13736 0.73726 0.83713 0.0
C555 C 0.13988 0.73914 0.74748 0.0
H556 H 0.85222 0.81179 0.72975 0.0
H557 H 0.88248 0.71582 0.72991 0.0
H558 H 0.85638 0.8147 0.88734 0.0
H559 H 0.88785 0.71932 0.88638 0.0
H560 H 0.87321 0.72107 0.17313 0.0
H561 H 0.86849 0.71837 0.01766 0.0
H562 H 0.88417 0.82121 -0.0022 0.0
H563 H 0.88766 0.82432 0.1563 0.0
C564 C 0.85964 0.79126 0.7638 0.0
C565 C 0.86685 0.76346 0.71811 0.0
C566 C 0.86234 0.79311 0.85379 0.0
C567 C 0.87265 0.76741 0.89954 0.0
C568 C 0.8795 0.73937 0.85356 0.0
C569 C 0.87641 0.73728 0.76385 0.0
C570 C 0.87589 0.74317 0.13592 0.0
C571 C 0.88088 0.77298 0.17707 0.0
C572 C 0.87326 0.74153 0.04629 0.0
C573 C 0.87598 0.76951 -0.00504 0.0
C574 C 0.88158 0.79928 0.0357 0.0
C575 C 0.88384 0.80105 0.12623 0.0
H576 H 0.61525 0.72521 0.32937 0.0
H577 H 0.64456 0.82184 0.3256 0.0
H578 H 0.61941 0.7236 0.48728 0.0
H579 H 0.64982 0.81965 0.48197 0.0
H580 H 0.63386 0.82007 0.76815 0.0
H581 H 0.62944 0.82128 0.61206 0.0
H582 H 0.6477 0.71917 0.59809 0.0
H583 H 0.65098 0.71754 0.7566 0.0
C584 C 0.62248 0.74612 0.36249 0.0
C585 C 0.62938 0.77377 0.31571 0.0
C586 C 0.62514 0.74505 0.45261 0.0
C587 C 0.63507 0.77141 0.49712 0.0
C588 C 0.64175 0.79915 0.44997 0.0
C589 C 0.63872 0.80044 0.36031 0.0
C590 C 0.63717 0.79788 0.73198 0.0
C591 C 0.64281 0.76867 0.77458 0.0
C592 C 0.6347 0.79863 0.64219 0.0
C593 C 0.63821 0.77034 0.59253 0.0
C594 C 0.64449 0.74125 0.6348 0.0
C595 C 0.64663 0.74037 0.7253 0.0
H596 H 0.38255 0.81792 0.74497 0.0
H597 H 0.35172 0.72234 0.74643 0.0
H598 H 0.38767 0.81412 0.58847 0.0
H599 H 0.35565 0.71912 0.58886 0.0
H600 H 0.38648 0.70871 0.31986 0.0
H601 H 0.38325 0.71213 0.47833 0.0
H602 H 0.36803 0.81509 0.45737 0.0
H603 H 0.37248 0.81207 0.30185 0.0
C604 C 0.37631 0.79649 0.7113 0.0
C605 C 0.36665 0.77051 0.75737 0.0
C606 C 0.37926 0.79422 0.6216 0.0
C607 C 0.37217 0.7662 0.57601 0.0
C608 C 0.36178 0.74069 0.62211 0.0
C609 C 0.35923 0.74272 0.71209 0.0
C610 C 0.3828 0.73207 0.34967 0.0
C611 C 0.37989 0.76009 0.29853 0.0
C612 C 0.3807 0.73402 0.44018 0.0
C613 C 0.37532 0.76391 0.48059 0.0
C614 C 0.37263 0.79183 0.42896 0.0
C615 C 0.3751 0.79001 0.33932 0.0
H616 H 0.64772 0.32475 0.2029 0.0
H617 H 0.63473 0.22102 0.18923 0.0
H618 H 0.64441 0.32243 0.36136 0.0
H619 H 0.63024 0.21903 0.34502 0.0
H620 H 0.64439 0.21884 0.63265 0.0
H621 H 0.64988 0.22169 0.47638 0.0
H622 H 0.61639 0.31561 0.4711 0.0
H623 H 0.61203 0.3134 0.62873 0.0
C624 C 0.64426 0.30153 0.23369 0.0
C625 C 0.64159 0.27311 0.18378 0.0
C626 C 0.64211 0.30021 0.32418 0.0
C627 C 0.63695 0.27054 0.36583 0.0
C628 C 0.63463 0.24216 0.31552 0.0
C629 C 0.63713 0.24337 0.22581 0.0
C630 C 0.63791 0.23985 0.59786 0.0
C631 C 0.62768 0.26581 0.6424 0.0
C632 C 0.64108 0.24156 0.50827 0.0
C633 C 0.63364 0.26896 0.46117 0.0
C634 C 0.62275 0.29449 0.50565 0.0
C635 C 0.61996 0.29304 0.59563 0.0
H636 H 0.34999 0.30639 0.2232 0.0
H637 H 0.38165 0.21137 0.22347 0.0
H638 H 0.35417 0.30949 0.38077 0.0
H639 H 0.38704 0.21509 0.37989 0.0
H640 H 0.37251 0.21645 0.66669 0.0
H641 H 0.36779 0.21358 0.51127 0.0
H642 H 0.38184 0.3169 0.49122 0.0
H643 H 0.38532 0.32015 0.64972 0.0
C644 C 0.35773 0.2861 0.25727 0.0
C645 C 0.36533 0.25851 0.21161 0.0
C646 C 0.36043 0.28807 0.34725 0.0
C647 C 0.37114 0.26271 0.39302 0.0
C648 C 0.37839 0.23487 0.34708 0.0
C649 C 0.37528 0.23265 0.25739 0.0
C650 C 0.37483 0.23863 0.62945 0.0
C651 C 0.37936 0.2686 0.67057 0.0
C652 C 0.37221 0.23689 0.53983 0.0
C653 C 0.37447 0.26495 0.48845 0.0
C654 C 0.37961 0.29489 0.52915 0.0
C655 C 0.38187 0.29675 0.61968 0.0
H656 H 0.06485 0.31024 0.43055 0.0
H657 H 0.06118 0.21102 0.52403 0.0
H658 H 0.02374 0.31214 0.41976 0.0
H659 H 0.01996 0.21333 0.5172 0.0
H660 H 0.94637 0.21823 0.44071 0.0
H661 H 0.98745 0.21548 0.42756 0.0
H662 H 0.9924 0.31572 0.51381 0.0
H663 H 0.95133 0.3188 0.52308 0.0
C664 C 0.05522 0.28883 0.44887 0.0
C665 C 0.06619 0.26055 0.47871 0.0
C666 C 0.03164 0.28998 0.44324 0.0
C667 C 0.01846 0.26304 0.46855 0.0
C668 C 0.02953 0.23442 0.49611 0.0
C669 C 0.05317 0.23312 0.50055 0.0
C670 C 0.95626 0.23974 0.45617 0.0
C671 C 0.94565 0.2687 0.48324 0.0
C672 C 0.97982 0.23811 0.44914 0.0
C673 C 0.99331 0.2653 0.47007 0.0
C674 C 0.98259 0.29444 0.49573 0.0
C675 C 0.95902 0.29618 0.50165 0.0
H676 H 0.94701 0.81392 0.53257 0.0
H677 H 0.94933 0.71396 0.44351 0.0
H678 H 0.98818 0.81495 0.5415 0.0
H679 H 0.99055 0.71536 0.44852 0.0
H680 H 0.06404 0.71829 0.52328 0.0
H681 H 0.023 0.71721 0.538 0.0
H682 H 0.01961 0.81693 0.44704 0.0
H683 H 0.06077 0.81837 0.43623 0.0
C684 C 0.95635 0.79216 0.51484 0.0
C685 C 0.94498 0.76391 0.48688 0.0
C686 C 0.97996 0.79281 0.51939 0.0
C687 C 0.99276 0.76536 0.49496 0.0
C688 C 0.98128 0.73683 0.46902 0.0
C689 C 0.95764 0.73604 0.46563 0.0
C690 C 0.05451 0.74006 0.5071 0.0
C691 C 0.06557 0.76837 0.47813 0.0
C692 C 0.03097 0.73938 0.51503 0.0
C693 C 0.01792 0.76686 0.49301 0.0
C694 C 0.0291 0.79543 0.4658 0.0
C695 C 0.05269 0.79625 0.45904 0.0
H696 H 0.56112 0.81433 0.05165 0.0
H697 H 0.56292 0.71496 0.95782 0.0
H698 H 0.52017 0.81467 0.0392 0.0
H699 H 0.52178 0.71572 0.94106 0.0
H700 H 0.44789 0.71522 0.03087 0.0
H701 H 0.48896 0.71471 0.02692 0.0
H702 H 0.48894 0.81562 0.94471 0.0
H703 H 0.44765 0.81648 0.95303 0.0
C704 C 0.55275 0.79266 0.02712 0.0
C705 C 0.56521 0.76452 0.00625 0.0
C706 C 0.52922 0.79295 0.0192 0.0
C707 C 0.51756 0.76525 -0.01105 0.0
C708 C 0.53013 0.73732 0.96602 0.0
C709 C 0.55371 0.73687 0.97523 0.0
C710 C 0.45664 0.73727 0.01144 0.0
C711 C 0.44456 0.76599 -0.00708 0.0
C712 C 0.48025 0.7369 0.00849 0.0
C713 C 0.49237 0.76513 -0.01431 0.0
C714 C 0.4802 0.7936 0.96426 0.0
C715 C 0.45654 0.79409 0.96853 0.0
H716 H 0.44474 0.31129 0.02649 0.0
H717 H 0.44877 0.21207 0.93262 0.0
H718 H 0.4859 0.31437 0.03082 0.0
H719 H 0.48996 0.21554 0.93304 0.0
H720 H 0.55749 0.3224 0.91781 0.0
H721 H 0.51647 0.31864 0.93275 0.0
H722 H 0.5231 0.21856 0.01818 0.0
H723 H 0.56393 0.22198 -0.00068 0.0
C724 C 0.45446 0.29011 0.00685 0.0
C725 C 0.44356 0.26148 0.97878 0.0
C726 C 0.47806 0.29195 0.00869 0.0
C727 C 0.49132 0.26536 0.98137 0.0
C728 C 0.48035 0.23639 0.95563 0.0
C729 C 0.45671 0.2344 0.95496 0.0
C730 C 0.55014 0.2997 0.94018 0.0
C731 C 0.56387 0.27243 0.9566 0.0
C732 C 0.52663 0.29755 0.94934 0.0
C733 C 0.5164 0.26821 0.97636 0.0
C734 C 0.5303 0.2413 -0.00455 0.0
C735 C 0.55374 0.24332 -0.01489 0.0
loop_
_geom_bond_atom_site_label_1
_geom_bond_atom_site_label_2
_geom_bond_distance
_geom_bond_site_symmetry_2
_ccdc_geom_bond_type
Zn0 O1 2.055 . S
Zn0 O8 2.046 . S
Zn0 N16 2.036 . S
Zn0 O28 2.053 . S
Zn0 O30 2.066 . S
O1 Zn0 2.055 . S
O1 C4 1.259 . S
C2 O30 1.256 . S
C2 O31 1.244 . S
Zn3 O5 2.046 . S
Zn3 O7 2.055 . S
Zn3 N9 2.036 . S
Zn3 O27 2.066 . S
Zn3 O31 2.053 . S
C4 O1 1.259 . S
C4 O5 1.254 . S
O5 Zn3 2.046 . S
O5 C4 1.254 . S
C6 O27 1.256 . S
C6 O28 1.244 . S
O7 Zn3 2.055 . S
O7 C29 1.259 . S
O8 Zn0 2.046 . S
O8 C29 1.254 . S
N9 Zn3 2.036 . S
N9 C10 1.298 . S
N9 N12 1.398 . S
C10 N9 1.298 . S
C10 N13 1.367 . S
C10 C23 1.481 . S
C11 N12 1.299 . S
C11 N13 1.379 . S
N12 N9 1.398 . S
N12 C11 1.299 . S
N13 C10 1.367 . S
N13 C11 1.379 . S
C14 N16 1.298 . S
C14 N18 1.367 . S
C14 C22 1.481 . S
C15 N17 1.299 . S
C15 N18 1.379 . S
N16 Zn0 2.036 . S
N16 C14 1.298 . S
N16 N17 1.398 . S
N17 C15 1.299 . S
N17 N16 1.398 . S
N18 C14 1.367 . S
N18 C15 1.379 . S
H19 C22 0.980 . S
H20 C22 0.981 . S
H21 C22 0.981 . S
C22 C14 1.481 . S
C22 H19 0.980 . S
C22 H20 0.981 . S
C22 H21 0.981 . S
C23 C10 1.481 . S
C23 H24 0.980 . S
C23 H25 0.981 . S
C23 H26 0.981 . S
H24 C23 0.980 . S
H25 C23 0.981 . S
H26 C23 0.981 . S
O27 Zn3 2.066 . S
O27 C6 1.256 . S
O28 Zn0 2.053 . S
O28 C6 1.244 . S
C29 O7 1.259 . S
C29 O8 1.254 . S
O30 Zn0 2.066 . S
O30 C2 1.256 . S
O31 C2 1.244 . S
O31 Zn3 2.053 . S
Zn32 O33 2.055 . S
Zn32 O40 2.046 . S
Zn32 N48 2.036 . S
Zn32 O60 2.053 . S
Zn32 O62 2.066 . S
O33 Zn32 2.055 . S
O33 C36 1.259 . S
C34 O62 1.256 . S
C34 O63 1.244 . S
Zn35 O37 2.046 . S
Zn35 O39 2.055 . S
Zn35 N41 2.036 . S
Zn35 O59 2.066 . S
Zn35 O63 2.053 . S
C36 O33 1.259 . S
C36 O37 1.254 . S
O37 Zn35 2.046 . S
O37 C36 1.254 . S
C38 O59 1.256 . S
C38 O60 1.244 . S
O39 Zn35 2.055 . S
O39 C61 1.259 . S
O40 Zn32 2.046 . S
O40 C61 1.254 . S
N41 Zn35 2.036 . S
N41 C42 1.298 . S
N41 N44 1.398 . S
C42 N41 1.298 . S
C42 N45 1.367 . S
C42 C55 1.481 . S
C43 N44 1.299 . S
C43 N45 1.379 . S
N44 N41 1.398 . S
N44 C43 1.299 . S
N45 C42 1.367 . S
N45 C43 1.379 . S
C46 N48 1.298 . S
C46 N50 1.367 . S
C46 C54 1.481 . S
C47 N49 1.299 . S
C47 N50 1.379 . S
N48 Zn32 2.036 . S
N48 C46 1.298 . S
N48 N49 1.398 . S
N49 C47 1.299 . S
N49 N48 1.398 . S
N50 C46 1.367 . S
N50 C47 1.379 . S
H51 C54 0.980 . S
H52 C54 0.981 . S
H53 C54 0.981 . S
C54 C46 1.481 . S
C54 H51 0.980 . S
C54 H52 0.981 . S
C54 H53 0.981 . S
C55 C42 1.481 . S
C55 H56 0.980 . S
C55 H57 0.981 . S
C55 H58 0.981 . S
H56 C55 0.980 . S
H57 C55 0.981 . S
H58 C55 0.981 . S
O59 Zn35 2.066 . S
O59 C38 1.256 . S
O60 Zn32 2.053 . S
O60 C38 1.244 . S
C61 O39 1.259 . S
C61 O40 1.254 . S
O62 Zn32 2.066 . S
O62 C34 1.256 . S
O63 C34 1.244 . S
O63 Zn35 2.053 . S
Zn64 O65 2.055 . S
Zn64 O72 2.046 . S
Zn64 N80 2.036 . S
Zn64 O92 2.053 . S
Zn64 O94 2.066 . S
O65 Zn64 2.055 . S
O65 C68 1.259 . S
C66 O94 1.256 . S
C66 O95 1.244 . S
Zn67 O69 2.046 . S
Zn67 O71 2.055 . S
Zn67 N73 2.036 . S
Zn67 O91 2.066 . S
Zn67 O95 2.053 . S
C68 O65 1.259 . S
C68 O69 1.254 . S
O69 Zn67 2.046 . S
O69 C68 1.254 . S
C70 O91 1.256 . S
C70 O92 1.244 . S
O71 Zn67 2.055 . S
O71 C93 1.259 . S
O72 Zn64 2.046 . S
O72 C93 1.254 . S
N73 Zn67 2.036 . S
N73 C74 1.298 . S
N73 N76 1.398 . S
C74 N73 1.298 . S
C74 N77 1.367 . S
C74 C87 1.481 . S
C75 N76 1.299 . S
C75 N77 1.379 . S
N76 N73 1.398 . S
N76 C75 1.299 . S
N77 C74 1.367 . S
N77 C75 1.379 . S
C78 N80 1.298 . S
C78 N82 1.367 . S
C78 C86 1.481 . S
C79 N81 1.299 . S
C79 N82 1.379 . S
N80 Zn64 2.036 . S
N80 C78 1.298 . S
N80 N81 1.398 . S
N81 C79 1.299 . S
N81 N80 1.398 . S
N82 C78 1.367 . S
N82 C79 1.379 . S
H83 C86 0.980 . S
H84 C86 0.981 . S
H85 C86 0.981 . S
C86 C78 1.481 . S
C86 H83 0.980 . S
C86 H84 0.981 . S
C86 H85 0.981 . S
C87 C74 1.481 . S
C87 H88 0.980 . S
C87 H89 0.981 . S
C87 H90 0.981 . S
H88 C87 0.980 . S
H89 C87 0.981 . S
H90 C87 0.981 . S
O91 Zn67 2.066 . S
O91 C70 1.256 . S
O92 Zn64 2.053 . S
O92 C70 1.244 . S
C93 O71 1.259 . S
C93 O72 1.254 . S
O94 Zn64 2.066 . S
O94 C66 1.256 . S
O95 C66 1.244 . S
O95 Zn67 2.053 . S
Zn96 O97 2.055 . S
Zn96 O104 2.046 . S
Zn96 N112 2.036 . S
Zn96 O124 2.053 . S
Zn96 O126 2.066 . S
O97 Zn96 2.055 . S
O97 C100 1.259 . S
C98 O126 1.256 . S
C98 O127 1.244 . S
Zn99 O101 2.046 . S
Zn99 O103 2.055 . S
Zn99 N105 2.036 . S
Zn99 O123 2.066 . S
Zn99 O127 2.053 . S
C100 O97 1.259 . S
C100 O101 1.254 . S
O101 Zn99 2.046 . S
O101 C100 1.254 . S
C102 O123 1.256 . S
C102 O124 1.244 . S
O103 Zn99 2.055 . S
O103 C125 1.259 . S
O104 Zn96 2.046 . S
O104 C125 1.254 . S
N105 Zn99 2.036 . S
N105 C106 1.298 . S
N105 N108 1.398 . S
C106 N105 1.298 . S
C106 N109 1.367 . S
C106 C119 1.481 . S
C107 N108 1.299 . S
C107 N109 1.379 . S
N108 N105 1.398 . S
N108 C107 1.299 . S
N109 C106 1.367 . S
N109 C107 1.379 . S
C110 N112 1.298 . S
C110 N114 1.367 . S
C110 C118 1.481 . S
C111 N113 1.299 . S
C111 N114 1.379 . S
N112 Zn96 2.036 . S
N112 C110 1.298 . S
N112 N113 1.398 . S
N113 C111 1.299 . S
N113 N112 1.398 . S
N114 C110 1.367 . S
N114 C111 1.379 . S
H115 C118 0.980 . S
H116 C118 0.981 . S
H117 C118 0.981 . S
C118 C110 1.481 . S
C118 H115 0.980 . S
C118 H116 0.981 . S
C118 H117 0.981 . S
C119 C106 1.481 . S
C119 H120 0.980 . S
C119 H121 0.981 . S
C119 H122 0.981 . S
H120 C119 0.980 . S
H121 C119 0.981 . S
H122 C119 0.981 . S
O123 Zn99 2.066 . S
O123 C102 1.256 . S
O124 Zn96 2.053 . S
O124 C102 1.244 . S
C125 O103 1.259 . S
C125 O104 1.254 . S
O126 Zn96 2.066 . S
O126 C98 1.256 . S
O127 C98 1.244 . S
O127 Zn99 2.053 . S
Zn128 O129 2.055 . S
Zn128 O136 2.046 . S
Zn128 N144 2.036 . S
Zn128 O156 2.053 1_554 S
Zn128 O158 2.066 . S
O129 Zn128 2.055 . S
O129 C132 1.259 . S
C130 O158 1.256 . S
C130 O159 1.244 . S
Zn131 O133 2.046 . S
Zn131 O135 2.055 . S
Zn131 N137 2.036 . S
Zn131 O155 2.066 1_554 S
Zn131 O159 2.053 . S
C132 O129 1.259 . S
C132 O133 1.254 . S
O133 Zn131 2.046 . S
O133 C132 1.254 . S
C134 O155 1.256 . S
C134 O156 1.244 . S
O135 Zn131 2.055 . S
O135 C157 1.259 . S
O136 Zn128 2.046 . S
O136 C157 1.254 . S
N137 Zn131 2.036 . S
N137 C138 1.298 . S
N137 N140 1.398 . S
C138 N137 1.298 . S
C138 N141 1.367 . S
C138 C151 1.481 1_554 S
C139 N140 1.299 . S
C139 N141 1.379 . S
N140 N137 1.398 . S
N140 C139 1.299 . S
N141 C138 1.367 . S
N141 C139 1.379 . S
C142 N144 1.298 . S
C142 N146 1.367 . S
C142 C150 1.481 . S
C143 N145 1.299 . S
C143 N146 1.379 1_556 S
N144 Zn128 2.036 . S
N144 C142 1.298 . S
N144 N145 1.398 1_554 S
N145 C143 1.299 . S
N145 N144 1.398 1_556 S
N146 C142 1.367 . S
N146 C143 1.379 1_554 S
H147 C150 0.980 . S
H148 C150 0.981 . S
H149 C150 0.981 . S
C150 C142 1.481 . S
C150 H147 0.980 . S
C150 H148 0.981 . S
C150 H149 0.981 . S
C151 C138 1.481 1_556 S
C151 H152 0.980 1_556 S
C151 H153 0.981 1_556 S
C151 H154 0.981 . S
H152 C151 0.980 1_554 S
H153 C151 0.981 1_554 S
H154 C151 0.981 . S
O155 Zn131 2.066 1_556 S
O155 C134 1.256 . S
O156 Zn128 2.053 1_556 S
O156 C134 1.244 . S
C157 O135 1.259 . S
C157 O136 1.254 . S
O158 Zn128 2.066 . S
O158 C130 1.256 . S
O159 C130 1.244 . S
O159 Zn131 2.053 . S
Zn160 O161 2.055 . S
Zn160 O168 2.046 . S
Zn160 N176 2.036 . S
Zn160 O188 2.053 1_554 S
Zn160 O190 2.066 . S
O161 Zn160 2.055 . S
O161 C164 1.259 . S
C162 O190 1.256 . S
C162 O191 1.244 . S
Zn163 O165 2.046 . S
Zn163 O167 2.055 . S
Zn163 N169 2.036 . S
Zn163 O187 2.066 1_554 S
Zn163 O191 2.053 . S
C164 O161 1.259 . S
C164 O165 1.254 . S
O165 Zn163 2.046 . S
O165 C164 1.254 . S
C166 O187 1.256 . S
C166 O188 1.244 . S
O167 Zn163 2.055 . S
O167 C189 1.259 . S
O168 Zn160 2.046 . S
O168 C189 1.254 . S
N169 Zn163 2.036 . S
N169 C170 1.298 . S
N169 N172 1.398 . S
C170 N169 1.298 . S
C170 N173 1.367 . S
C170 C183 1.481 1_554 S
C171 N172 1.299 . S
C171 N173 1.379 . S
N172 N169 1.398 . S
N172 C171 1.299 . S
N173 C170 1.367 . S
N173 C171 1.379 . S
C174 N176 1.298 . S
C174 N178 1.367 . S
C174 C182 1.481 . S
C175 N177 1.299 . S
C175 N178 1.379 1_556 S
N176 Zn160 2.036 . S
N176 C174 1.298 . S
N176 N177 1.398 1_554 S
N177 C175 1.299 . S
N177 N176 1.398 1_556 S
N178 C174 1.367 . S
N178 C175 1.379 1_554 S
H179 C182 0.980 . S
H180 C182 0.981 . S
H181 C182 0.981 . S
C182 C174 1.481 . S
C182 H179 0.980 . S
C182 H180 0.981 . S
C182 H181 0.981 . S
C183 C170 1.481 1_556 S
C183 H184 0.980 1_556 S
C183 H185 0.981 1_556 S
C183 H186 0.981 . S
H184 C183 0.980 1_554 S
H185 C183 0.981 1_554 S
H186 C183 0.981 . S
O187 Zn163 2.066 1_556 S
O187 C166 1.256 . S
O188 Zn160 2.053 1_556 S
O188 C166 1.244 . S
C189 O167 1.259 . S
C189 O168 1.254 . S
O190 Zn160 2.066 . S
O190 C162 1.256 . S
O191 C162 1.244 . S
O191 Zn163 2.053 . S
Zn192 O193 2.055 . S
Zn192 O200 2.046 . S
Zn192 N208 2.036 . S
Zn192 O220 2.053 . S
Zn192 O222 2.066 1_556 S
O193 Zn192 2.055 . S
O193 C196 1.259 . S
C194 O222 1.256 . S
C194 O223 1.244 . S
Zn195 O197 2.046 . S
Zn195 O199 2.055 . S
Zn195 N201 2.036 . S
Zn195 O219 2.066 . S
Zn195 O223 2.053 1_556 S
C196 O193 1.259 . S
C196 O197 1.254 . S
O197 Zn195 2.046 . S
O197 C196 1.254 . S
C198 O219 1.256 . S
C198 O220 1.244 . S
O199 Zn195 2.055 . S
O199 C221 1.259 . S
O200 Zn192 2.046 . S
O200 C221 1.254 . S
N201 Zn195 2.036 . S
N201 C202 1.298 . S
N201 N204 1.398 1_556 S
C202 N201 1.298 . S
C202 N205 1.367 . S
C202 C215 1.481 . S
C203 N204 1.299 . S
C203 N205 1.379 1_554 S
N204 N201 1.398 1_554 S
N204 C203 1.299 . S
N205 C202 1.367 . S
N205 C203 1.379 1_556 S
C206 N208 1.298 . S
C206 N210 1.367 . S
C206 C214 1.481 1_556 S
C207 N209 1.299 . S
C207 N210 1.379 . S
N208 Zn192 2.036 . S
N208 C206 1.298 . S
N208 N209 1.398 . S
N209 C207 1.299 . S
N209 N208 1.398 . S
N210 C206 1.367 . S
N210 C207 1.379 . S
H211 C214 0.980 1_556 S
H212 C214 0.981 1_556 S
H213 C214 0.981 . S
C214 C206 1.481 1_554 S
C214 H211 0.980 1_554 S
C214 H212 0.981 1_554 S
C214 H213 0.981 . S
C215 C202 1.481 . S
C215 H216 0.980 . S
C215 H217 0.981 . S
C215 H218 0.981 . S
H216 C215 0.980 . S
H217 C215 0.981 . S
H218 C215 0.981 . S
O219 Zn195 2.066 . S
O219 C198 1.256 . S
O220 Zn192 2.053 . S
O220 C198 1.244 . S
C221 O199 1.259 . S
C221 O200 1.254 . S
O222 Zn192 2.066 1_554 S
O222 C194 1.256 . S
O223 C194 1.244 . S
O223 Zn195 2.053 1_554 S
Zn224 O225 2.055 . S
Zn224 O232 2.046 . S
Zn224 N240 2.036 . S
Zn224 O252 2.053 . S
Zn224 O254 2.066 1_556 S
O225 Zn224 2.055 . S
O225 C228 1.259 . S
C226 O254 1.256 . S
C226 O255 1.244 . S
Zn227 O229 2.046 . S
Zn227 O231 2.055 . S
Zn227 N233 2.036 . S
Zn227 O251 2.066 . S
Zn227 O255 2.053 1_556 S
C228 O225 1.259 . S
C228 O229 1.254 . S
O229 Zn227 2.046 . S
O229 C228 1.254 . S
C230 O251 1.256 . S
C230 O252 1.244 . S
O231 Zn227 2.055 . S
O231 C253 1.259 . S
O232 Zn224 2.046 . S
O232 C253 1.254 . S
N233 Zn227 2.036 . S
N233 C234 1.298 . S
N233 N236 1.398 1_556 S
C234 N233 1.298 . S
C234 N237 1.367 . S
C234 C247 1.481 . S
C235 N236 1.299 . S
C235 N237 1.379 1_554 S
N236 N233 1.398 1_554 S
N236 C235 1.299 . S
N237 C234 1.367 . S
N237 C235 1.379 1_556 S
C238 N240 1.298 . S
C238 N242 1.367 . S
C238 C246 1.481 1_556 S
C239 N241 1.299 . S
C239 N242 1.379 . S
N240 Zn224 2.036 . S
N240 C238 1.298 . S
N240 N241 1.398 . S
N241 C239 1.299 . S
N241 N240 1.398 . S
N242 C238 1.367 . S
N242 C239 1.379 . S
H243 C246 0.980 1_556 S
H244 C246 0.981 1_556 S
H245 C246 0.981 . S
C246 C238 1.481 1_554 S
C246 H243 0.980 1_554 S
C246 H244 0.981 1_554 S
C246 H245 0.981 . S
C247 C234 1.481 . S
C247 H248 0.980 . S
C247 H249 0.981 . S
C247 H250 0.981 . S
H248 C247 0.980 . S
H249 C247 0.981 . S
H250 C247 0.981 . S
O251 Zn227 2.066 . S
O251 C230 1.256 . S
O252 Zn224 2.053 . S
O252 C230 1.244 . S
C253 O231 1.259 . S
C253 O232 1.254 . S
O254 Zn224 2.066 1_554 S
O254 C226 1.256 . S
O255 C226 1.244 . S
O255 Zn227 2.053 1_554 S
H256 C264 0.950 . S
H257 C269 0.950 . S
H258 C266 0.950 . S
H259 C268 0.950 . S
H260 C270 0.950 . S
H261 C272 0.950 . S
H262 C274 0.950 . S
H263 C275 0.950 . S
C264 H256 0.950 . S
C264 C265 1.386 . S
C264 C266 1.391 . S
C265 C264 1.386 . S
C265 C269 1.393 . S
C266 H258 0.950 . S
C266 C264 1.391 . S
C266 C267 1.400 . S
C267 C266 1.400 . S
C267 C268 1.398 . S
C267 C273 1.491 . S
C268 H259 0.950 . S
C268 C267 1.398 . S
C268 C269 1.391 . S
C269 H257 0.950 . S
C269 C265 1.393 . S
C269 C268 1.391 . S
C270 H260 0.950 . S
C270 C271 1.386 . S
C270 C272 1.391 . S
C271 C270 1.386 . S
C271 C275 1.393 . S
C272 H261 0.950 . S
C272 C270 1.391 . S
C272 C273 1.400 . S
C273 C267 1.491 . S
C273 C272 1.400 . S
C273 C274 1.398 . S
C274 H262 0.950 . S
C274 C273 1.398 . S
C274 C275 1.391 . S
C275 H263 0.950 . S
C275 C271 1.393 . S
C275 C274 1.391 . S
H276 C284 0.950 . S
H277 C289 0.950 . S
H278 C286 0.950 . S
H279 C288 0.950 . S
H280 C290 0.950 . S
H281 C292 0.950 . S
H282 C294 0.950 . S
H283 C295 0.950 . S
C284 H276 0.950 . S
C284 C285 1.386 . S
C284 C286 1.391 . S
C285 C284 1.386 . S
C285 C289 1.393 . S
C286 H278 0.950 . S
C286 C284 1.391 . S
C286 C287 1.400 . S
C287 C286 1.400 . S
C287 C288 1.398 . S
C287 C293 1.491 . S
C288 H279 0.950 . S
C288 C287 1.398 . S
C288 C289 1.391 . S
C289 H277 0.950 . S
C289 C285 1.393 . S
C289 C288 1.391 . S
C290 H280 0.950 . S
C290 C291 1.386 . S
C290 C292 1.391 . S
C291 C290 1.386 . S
C291 C295 1.393 . S
C292 H281 0.950 . S
C292 C290 1.391 . S
C292 C293 1.400 . S
C293 C287 1.491 . S
C293 C292 1.400 . S
C293 C294 1.398 . S
C294 H282 0.950 . S
C294 C293 1.398 . S
C294 C295 1.391 . S
C295 H283 0.950 . S
C295 C291 1.393 . S
C295 C294 1.391 . S
H296 C304 0.950 . S
H297 C309 0.950 . S
H298 C306 0.950 . S
H299 C308 0.950 . S
H300 C310 0.950 . S
H301 C312 0.950 . S
H302 C314 0.950 . S
H303 C315 0.950 . S
C304 H296 0.950 . S
C304 C305 1.386 . S
C304 C306 1.391 . S
C305 C304 1.386 . S
C305 C309 1.393 . S
C306 H298 0.950 . S
C306 C304 1.391 . S
C306 C307 1.400 . S
C307 C306 1.400 . S
C307 C308 1.398 . S
C307 C313 1.491 . S
C308 H299 0.950 . S
C308 C307 1.398 . S
C308 C309 1.391 . S
C309 H297 0.950 . S
C309 C305 1.393 . S
C309 C308 1.391 . S
C310 H300 0.950 . S
C310 C311 1.386 . S
C310 C312 1.391 . S
C311 C310 1.386 . S
C311 C315 1.393 . S
C312 H301 0.950 . S
C312 C310 1.391 . S
C312 C313 1.400 . S
C313 C307 1.491 . S
C313 C312 1.400 . S
C313 C314 1.398 . S
C314 H302 0.950 . S
C314 C313 1.398 . S
C314 C315 1.391 . S
C315 H303 0.950 . S
C315 C311 1.393 . S
C315 C314 1.391 . S
H316 C324 0.950 . S
H317 C329 0.950 . S
H318 C326 0.950 . S
H319 C328 0.950 . S
H320 C330 0.950 . S
H321 C332 0.950 . S
H322 C334 0.950 . S
H323 C335 0.950 . S
C324 H316 0.950 . S
C324 C325 1.386 . S
C324 C326 1.391 . S
C325 C324 1.386 . S
C325 C329 1.393 . S
C326 H318 0.950 . S
C326 C324 1.391 . S
C326 C327 1.400 . S
C327 C326 1.400 . S
C327 C328 1.398 . S
C327 C333 1.491 . S
C328 H319 0.950 . S
C328 C327 1.398 . S
C328 C329 1.391 . S
C329 H317 0.950 . S
C329 C325 1.393 . S
C329 C328 1.391 . S
C330 H320 0.950 . S
C330 C331 1.386 . S
C330 C332 1.391 . S
C331 C330 1.386 . S
C331 C335 1.393 . S
C332 H321 0.950 . S
C332 C330 1.391 . S
C332 C333 1.400 . S
C333 C327 1.491 . S
C333 C332 1.400 . S
C333 C334 1.398 . S
C334 H322 0.950 . S
C334 C333 1.398 . S
C334 C335 1.391 . S
C335 H323 0.950 . S
C335 C331 1.393 . S
C335 C334 1.391 . S
H336 C344 0.950 . S
H337 C349 0.950 . S
H338 C346 0.950 . S
H339 C348 0.950 . S
H340 C350 0.950 . S
H341 C352 0.950 . S
H342 C354 0.950 . S
H343 C355 0.950 . S
C344 H336 0.950 . S
C344 C345 1.386 . S
C344 C346 1.391 . S
C345 C344 1.386 . S
C345 C349 1.393 . S
C346 H338 0.950 . S
C346 C344 1.391 . S
C346 C347 1.400 . S
C347 C346 1.400 . S
C347 C348 1.398 . S
C347 C353 1.491 1_565 S
C348 H339 0.950 . S
C348 C347 1.398 . S
C348 C349 1.391 . S
C349 H337 0.950 . S
C349 C345 1.393 . S
C349 C348 1.391 . S
C350 H340 0.950 . S
C350 C351 1.386 . S
C350 C352 1.391 . S
C351 C350 1.386 . S
C351 C355 1.393 . S
C352 H341 0.950 . S
C352 C350 1.391 . S
C352 C353 1.400 . S
C353 C347 1.491 1_545 S
C353 C352 1.400 . S
C353 C354 1.398 . S
C354 H342 0.950 . S
C354 C353 1.398 . S
C354 C355 1.391 . S
C355 H343 0.950 . S
C355 C351 1.393 . S
C355 C354 1.391 . S
H356 C364 0.950 . S
H357 C369 0.950 . S
H358 C366 0.950 . S
H359 C368 0.950 . S
H360 C370 0.950 . S
H361 C372 0.950 . S
H362 C374 0.950 . S
H363 C375 0.950 . S
C364 H356 0.950 . S
C364 C365 1.386 . S
C364 C366 1.391 . S
C365 C364 1.386 . S
C365 C369 1.393 . S
C366 H358 0.950 . S
C366 C364 1.391 . S
C366 C367 1.400 . S
C367 C366 1.400 . S
C367 C368 1.398 . S
C367 C373 1.491 . S
C368 H359 0.950 . S
C368 C367 1.398 . S
C368 C369 1.391 . S
C369 H357 0.950 . S
C369 C365 1.393 . S
C369 C368 1.391 . S
C370 H360 0.950 . S
C370 C371 1.386 . S
C370 C372 1.391 . S
C371 C370 1.386 . S
C371 C375 1.393 . S
C372 H361 0.950 . S
C372 C370 1.391 . S
C372 C373 1.400 . S
C373 C367 1.491 . S
C373 C372 1.400 . S
C373 C374 1.398 . S
C374 H362 0.950 . S
C374 C373 1.398 . S
C374 C375 1.391 . S
C375 H363 0.950 . S
C375 C371 1.393 . S
C375 C374 1.391 . S
H376 C384 0.950 . S
H377 C389 0.950 . S
H378 C386 0.950 . S
H379 C388 0.950 . S
H380 C390 0.950 . S
H381 C392 0.950 . S
H382 C394 0.950 . S
H383 C395 0.950 . S
C384 H376 0.950 . S
C384 C385 1.386 . S
C384 C386 1.391 . S
C385 C384 1.386 . S
C385 C389 1.393 . S
C386 H378 0.950 . S
C386 C384 1.391 . S
C386 C387 1.400 . S
C387 C386 1.400 . S
C387 C388 1.398 . S
C387 C393 1.491 1_565 S
C388 H379 0.950 . S
C388 C387 1.398 . S
C388 C389 1.391 . S
C389 H377 0.950 . S
C389 C385 1.393 . S
C389 C388 1.391 . S
C390 H380 0.950 . S
C390 C391 1.386 . S
C390 C392 1.391 . S
C391 C390 1.386 . S
C391 C395 1.393 . S
C392 H381 0.950 . S
C392 C390 1.391 . S
C392 C393 1.400 . S
C393 C387 1.491 1_545 S
C393 C392 1.400 . S
C393 C394 1.398 . S
C394 H382 0.950 . S
C394 C393 1.398 . S
C394 C395 1.391 . S
C395 H383 0.950 . S
C395 C391 1.393 . S
C395 C394 1.391 . S
H396 C404 0.950 . S
H397 C409 0.950 . S
H398 C406 0.950 . S
H399 C408 0.950 . S
H400 C410 0.950 . S
H401 C412 0.950 . S
H402 C414 0.950 . S
H403 C415 0.950 . S
C404 H396 0.950 . S
C404 C405 1.386 . S
C404 C406 1.391 . S
C405 C404 1.386 . S
C405 C409 1.393 . S
C406 H398 0.950 . S
C406 C404 1.391 . S
C406 C407 1.400 . S
C407 C406 1.400 . S
C407 C408 1.398 . S
C407 C413 1.491 . S
C408 H399 0.950 . S
C408 C407 1.398 . S
C408 C409 1.391 . S
C409 H397 0.950 . S
C409 C405 1.393 . S
C409 C408 1.391 . S
C410 H400 0.950 . S
C410 C411 1.386 . S
C410 C412 1.391 . S
C411 C410 1.386 . S
C411 C415 1.393 . S
C412 H401 0.950 . S
C412 C410 1.391 . S
C412 C413 1.400 . S
C413 C407 1.491 . S
C413 C412 1.400 . S
C413 C414 1.398 . S
C414 H402 0.950 . S
C414 C413 1.398 . S
C414 C415 1.391 . S
C415 H403 0.950 . S
C415 C411 1.393 . S
C415 C414 1.391 . S
H416 C424 0.950 . S
H417 C429 0.950 . S
H418 C426 0.950 . S
H419 C428 0.950 . S
H420 C430 0.950 . S
H421 C432 0.950 . S
H422 C434 0.950 . S
H423 C435 0.950 . S
C424 H416 0.950 . S
C424 C425 1.386 1_556 S
C424 C426 1.391 . S
C425 C424 1.386 1_554 S
C425 C429 1.393 . S
C426 H418 0.950 . S
C426 C424 1.391 . S
C426 C427 1.400 1_556 S
C427 C426 1.400 1_554 S
C427 C428 1.398 . S
C427 C433 1.491 1_554 S
C428 H419 0.950 . S
C428 C427 1.398 . S
C428 C429 1.391 . S
C429 H417 0.950 . S
C429 C425 1.393 . S
C429 C428 1.391 . S
C430 H420 0.950 . S
C430 C431 1.386 1_554 S
C430 C432 1.391 . S
C431 C430 1.386 1_556 S
C431 C435 1.393 . S
C432 H421 0.950 . S
C432 C430 1.391 . S
C432 C433 1.400 1_554 S
C433 C427 1.491 1_556 S
C433 C432 1.400 1_556 S
C433 C434 1.398 . S
C434 H422 0.950 . S
C434 C433 1.398 . S
C434 C435 1.391 . S
C435 H423 0.950 . S
C435 C431 1.393 . S
C435 C434 1.391 . S
H436 C444 0.950 . S
H437 C449 0.950 . S
H438 C446 0.950 . S
H439 C448 0.950 . S
H440 C450 0.950 . S
H441 C452 0.950 . S
H442 C454 0.950 . S
H443 C455 0.950 . S
C444 H436 0.950 . S
C444 C445 1.386 . S
C444 C446 1.391 . S
C445 C444 1.386 . S
C445 C449 1.393 1_554 S
C446 H438 0.950 . S
C446 C444 1.391 . S
C446 C447 1.400 . S
C447 C446 1.400 . S
C447 C448 1.398 1_554 S
C447 C453 1.491 1_564 S
C448 H439 0.950 . S
C448 C447 1.398 1_556 S
C448 C449 1.391 . S
C449 H437 0.950 . S
C449 C445 1.393 1_556 S
C449 C448 1.391 . S
C450 H440 0.950 . S
C450 C451 1.386 . S
C450 C452 1.391 . S
C451 C450 1.386 . S
C451 C455 1.393 1_556 S
C452 H441 0.950 . S
C452 C450 1.391 . S
C452 C453 1.400 . S
C453 C447 1.491 1_546 S
C453 C452 1.400 . S
C453 C454 1.398 1_556 S
C454 H442 0.950 . S
C454 C453 1.398 1_554 S
C454 C455 1.391 . S
C455 H443 0.950 . S
C455 C451 1.393 1_554 S
C455 C454 1.391 . S
H456 C464 0.950 . S
H457 C469 0.950 . S
H458 C466 0.950 . S
H459 C468 0.950 . S
H460 C470 0.950 . S
H461 C472 0.950 . S
H462 C474 0.950 . S
H463 C475 0.950 . S
C464 H456 0.950 . S
C464 C465 1.386 . S
C464 C466 1.391 . S
C465 C464 1.386 . S
C465 C469 1.393 1_556 S
C466 H458 0.950 . S
C466 C464 1.391 . S
C466 C467 1.400 . S
C467 C466 1.400 . S
C467 C468 1.398 1_556 S
C467 C473 1.491 1_556 S
C468 H459 0.950 . S
C468 C467 1.398 1_554 S
C468 C469 1.391 . S
C469 H457 0.950 . S
C469 C465 1.393 1_554 S
C469 C468 1.391 . S
C470 H460 0.950 . S
C470 C471 1.386 . S
C470 C472 1.391 . S
C471 C470 1.386 . S
C471 C475 1.393 1_554 S
C472 H461 0.950 . S
C472 C470 1.391 . S
C472 C473 1.400 . S
C473 C467 1.491 1_554 S
C473 C472 1.400 . S
C473 C474 1.398 1_554 S
C474 H462 0.950 . S
C474 C473 1.398 1_556 S
C474 C475 1.391 . S
C475 H463 0.950 . S
C475 C471 1.393 1_556 S
C475 C474 1.391 . S
H476 C484 0.950 . S
H477 C489 0.950 . S
H478 C486 0.950 . S
H479 C488 0.950 . S
H480 C490 0.950 . S
H481 C492 0.950 . S
H482 C494 0.950 . S
H483 C495 0.950 . S
C484 H476 0.950 . S
C484 C485 1.386 . S
C484 C486 1.391 . S
C485 C484 1.386 . S
C485 C489 1.393 . S
C486 H478 0.950 . S
C486 C484 1.391 . S
C486 C487 1.400 . S
C487 C486 1.400 . S
C487 C488 1.398 . S
C487 C493 1.491 1_546 S
C488 H479 0.950 . S
C488 C487 1.398 . S
C488 C489 1.391 . S
C489 H477 0.950 . S
C489 C485 1.393 . S
C489 C488 1.391 . S
C490 H480 0.950 . S
C490 C491 1.386 . S
C490 C492 1.391 . S
C491 C490 1.386 . S
C491 C495 1.393 . S
C492 H481 0.950 . S
C492 C490 1.391 . S
C492 C493 1.400 . S
C493 C487 1.491 1_564 S
C493 C492 1.400 . S
C493 C494 1.398 . S
C494 H482 0.950 . S
C494 C493 1.398 . S
C494 C495 1.391 . S
C495 H483 0.950 . S
C495 C491 1.393 . S
C495 C494 1.391 . S
H496 C504 0.950 . S
H497 C509 0.950 . S
H498 C506 0.950 . S
H499 C508 0.950 . S
H500 C510 0.950 . S
H501 C512 0.950 1_554 S
H502 C514 0.950 1_554 S
H503 C515 0.950 . S
C504 H496 0.950 . S
C504 C505 1.386 . S
C504 C506 1.391 . S
C505 C504 1.386 . S
C505 C509 1.393 . S
C506 H498 0.950 . S
C506 C504 1.391 . S
C506 C507 1.400 . S
C507 C506 1.400 . S
C507 C508 1.398 . S
C507 C513 1.491 . S
C508 H499 0.950 . S
C508 C507 1.398 . S
C508 C509 1.391 . S
C509 H497 0.950 . S
C509 C505 1.393 . S
C509 C508 1.391 . S
C510 H500 0.950 . S
C510 C511 1.386 . S
C510 C512 1.391 . S
C511 C510 1.386 . S
C511 C515 1.393 . S
C512 H501 0.950 1_556 S
C512 C510 1.391 . S
C512 C513 1.400 1_556 S
C513 C507 1.491 . S
C513 C512 1.400 1_554 S
C513 C514 1.398 1_554 S
C514 H502 0.950 1_556 S
C514 C513 1.398 1_556 S
C514 C515 1.391 . S
C515 H503 0.950 . S
C515 C511 1.393 . S
C515 C514 1.391 . S
H516 C524 0.950 . S
H517 C529 0.950 . S
H518 C526 0.950 . S
H519 C528 0.950 . S
H520 C530 0.950 . S
H521 C532 0.950 1_554 S
H522 C534 0.950 1_554 S
H523 C535 0.950 . S
C524 H516 0.950 . S
C524 C525 1.386 . S
C524 C526 1.391 . S
C525 C524 1.386 . S
C525 C529 1.393 . S
C526 H518 0.950 . S
C526 C524 1.391 . S
C526 C527 1.400 . S
C527 C526 1.400 . S
C527 C528 1.398 . S
C527 C533 1.491 . S
C528 H519 0.950 . S
C528 C527 1.398 . S
C528 C529 1.391 . S
C529 H517 0.950 . S
C529 C525 1.393 . S
C529 C528 1.391 . S
C530 H520 0.950 . S
C530 C531 1.386 . S
C530 C532 1.391 . S
C531 C530 1.386 . S
C531 C535 1.393 . S
C532 H521 0.950 1_556 S
C532 C530 1.391 . S
C532 C533 1.400 1_556 S
C533 C527 1.491 . S
C533 C532 1.400 1_554 S
C533 C534 1.398 1_554 S
C534 H522 0.950 1_556 S
C534 C533 1.398 1_556 S
C534 C535 1.391 . S
C535 H523 0.950 . S
C535 C531 1.393 . S
C535 C534 1.391 . S
H536 C544 0.950 . S
H537 C549 0.950 . S
H538 C546 0.950 1_556 S
H539 C548 0.950 1_556 S
H540 C550 0.950 . S
H541 C552 0.950 . S
H542 C554 0.950 . S
H543 C555 0.950 . S
C544 H536 0.950 . S
C544 C545 1.386 . S
C544 C546 1.391 . S
C545 C544 1.386 . S
C545 C549 1.393 . S
C546 H538 0.950 1_554 S
C546 C544 1.391 . S
C546 C547 1.400 1_554 S
C547 C546 1.400 1_556 S
C547 C548 1.398 1_556 S
C547 C553 1.491 . S
C548 H539 0.950 1_554 S
C548 C547 1.398 1_554 S
C548 C549 1.391 . S
C549 H537 0.950 . S
C549 C545 1.393 . S
C549 C548 1.391 . S
C550 H540 0.950 . S
C550 C551 1.386 . S
C550 C552 1.391 . S
C551 C550 1.386 . S
C551 C555 1.393 . S
C552 H541 0.950 . S
C552 C550 1.391 . S
C552 C553 1.400 . S
C553 C547 1.491 . S
C553 C552 1.400 . S
C553 C554 1.398 . S
C554 H542 0.950 . S
C554 C553 1.398 . S
C554 C555 1.391 . S
C555 H543 0.950 . S
C555 C551 1.393 . S
C555 C554 1.391 . S
H556 C564 0.950 . S
H557 C569 0.950 . S
H558 C566 0.950 . S
H559 C568 0.950 . S
H560 C570 0.950 . S
H561 C572 0.950 1_556 S
H562 C574 0.950 1_556 S
H563 C575 0.950 . S
C564 H556 0.950 . S
C564 C565 1.386 . S
C564 C566 1.391 . S
C565 C564 1.386 . S
C565 C569 1.393 . S
C566 H558 0.950 . S
C566 C564 1.391 . S
C566 C567 1.400 . S
C567 C566 1.400 . S
C567 C568 1.398 . S
C567 C573 1.491 . S
C568 H559 0.950 . S
C568 C567 1.398 . S
C568 C569 1.391 . S
C569 H557 0.950 . S
C569 C565 1.393 . S
C569 C568 1.391 . S
C570 H560 0.950 . S
C570 C571 1.386 . S
C570 C572 1.391 . S
C571 C570 1.386 . S
C571 C575 1.393 . S
C572 H561 0.950 1_554 S
C572 C570 1.391 . S
C572 C573 1.400 1_554 S
C573 C567 1.491 . S
C573 C572 1.400 1_556 S
C573 C574 1.398 1_556 S
C574 H562 0.950 1_554 S
C574 C573 1.398 1_554 S
C574 C575 1.391 . S
C575 H563 0.950 . S
C575 C571 1.393 . S
C575 C574 1.391 . S
H576 C584 0.950 . S
H577 C589 0.950 . S
H578 C586 0.950 . S
H579 C588 0.950 . S
H580 C590 0.950 . S
H581 C592 0.950 . S
H582 C594 0.950 . S
H583 C595 0.950 . S
C584 H576 0.950 . S
C584 C585 1.386 . S
C584 C586 1.391 . S
C585 C584 1.386 . S
C585 C589 1.393 . S
C586 H578 0.950 . S
C586 C584 1.391 . S
C586 C587 1.400 . S
C587 C586 1.400 . S
C587 C588 1.398 . S
C587 C593 1.491 . S
C588 H579 0.950 . S
C588 C587 1.398 . S
C588 C589 1.391 . S
C589 H577 0.950 . S
C589 C585 1.393 . S
C589 C588 1.391 . S
C590 H580 0.950 . S
C590 C591 1.386 . S
C590 C592 1.391 . S
C591 C590 1.386 . S
C591 C595 1.393 . S
C592 H581 0.950 . S
C592 C590 1.391 . S
C592 C593 1.400 . S
C593 C587 1.491 . S
C593 C592 1.400 . S
C593 C594 1.398 . S
C594 H582 0.950 . S
C594 C593 1.398 . S
C594 C595 1.391 . S
C595 H583 0.950 . S
C595 C591 1.393 . S
C595 C594 1.391 . S
H596 C604 0.950 . S
H597 C609 0.950 . S
H598 C606 0.950 . S
H599 C608 0.950 . S
H600 C610 0.950 . S
H601 C612 0.950 . S
H602 C614 0.950 . S
H603 C615 0.950 . S
C604 H596 0.950 . S
C604 C605 1.386 . S
C604 C606 1.391 . S
C605 C604 1.386 . S
C605 C609 1.393 . S
C606 H598 0.950 . S
C606 C604 1.391 . S
C606 C607 1.400 . S
C607 C606 1.400 . S
C607 C608 1.398 . S
C607 C613 1.491 . S
C608 H599 0.950 . S
C608 C607 1.398 . S
C608 C609 1.391 . S
C609 H597 0.950 . S
C609 C605 1.393 . S
C609 C608 1.391 . S
C610 H600 0.950 . S
C610 C611 1.386 . S
C610 C612 1.391 . S
C611 C610 1.386 . S
C611 C615 1.393 . S
C612 H601 0.950 . S
C612 C610 1.391 . S
C612 C613 1.400 . S
C613 C607 1.491 . S
C613 C612 1.400 . S
C613 C614 1.398 . S
C614 H602 0.950 . S
C614 C613 1.398 . S
C614 C615 1.391 . S
C615 H603 0.950 . S
C615 C611 1.393 . S
C615 C614 1.391 . S
H616 C624 0.950 . S
H617 C629 0.950 . S
H618 C626 0.950 . S
H619 C628 0.950 . S
H620 C630 0.950 . S
H621 C632 0.950 . S
H622 C634 0.950 . S
H623 C635 0.950 . S
C624 H616 0.950 . S
C624 C625 1.386 . S
C624 C626 1.391 . S
C625 C624 1.386 . S
C625 C629 1.393 . S
C626 H618 0.950 . S
C626 C624 1.391 . S
C626 C627 1.400 . S
C627 C626 1.400 . S
C627 C628 1.398 . S
C627 C633 1.491 . S
C628 H619 0.950 . S
C628 C627 1.398 . S
C628 C629 1.391 . S
C629 H617 0.950 . S
C629 C625 1.393 . S
C629 C628 1.391 . S
C630 H620 0.950 . S
C630 C631 1.386 . S
C630 C632 1.391 . S
C631 C630 1.386 . S
C631 C635 1.393 . S
C632 H621 0.950 . S
C632 C630 1.391 . S
C632 C633 1.400 . S
C633 C627 1.491 . S
C633 C632 1.400 . S
C633 C634 1.398 . S
C634 H622 0.950 . S
C634 C633 1.398 . S
C634 C635 1.391 . S
C635 H623 0.950 . S
C635 C631 1.393 . S
C635 C634 1.391 . S
H636 C644 0.950 . S
H637 C649 0.950 . S
H638 C646 0.950 . S
H639 C648 0.950 . S
H640 C650 0.950 . S
H641 C652 0.950 . S
H642 C654 0.950 . S
H643 C655 0.950 . S
C644 H636 0.950 . S
C644 C645 1.386 . S
C644 C646 1.391 . S
C645 C644 1.386 . S
C645 C649 1.393 . S
C646 H638 0.950 . S
C646 C644 1.391 . S
C646 C647 1.400 . S
C647 C646 1.400 . S
C647 C648 1.398 . S
C647 C653 1.491 . S
C648 H639 0.950 . S
C648 C647 1.398 . S
C648 C649 1.391 . S
C649 H637 0.950 . S
C649 C645 1.393 . S
C649 C648 1.391 . S
C650 H640 0.950 . S
C650 C651 1.386 . S
C650 C652 1.391 . S
C651 C650 1.386 . S
C651 C655 1.393 . S
C652 H641 0.950 . S
C652 C650 1.391 . S
C652 C653 1.400 . S
C653 C647 1.491 . S
C653 C652 1.400 . S
C653 C654 1.398 . S
C654 H642 0.950 . S
C654 C653 1.398 . S
C654 C655 1.391 . S
C655 H643 0.950 . S
C655 C651 1.393 . S
C655 C654 1.391 . S
H656 C664 0.950 . S
H657 C669 0.950 . S
H658 C666 0.950 . S
H659 C668 0.950 . S
H660 C670 0.950 . S
H661 C672 0.950 . S
H662 C674 0.950 . S
H663 C675 0.950 . S
C664 H656 0.950 . S
C664 C665 1.386 . S
C664 C666 1.391 . S
C665 C664 1.386 . S
C665 C669 1.393 . S
C666 H658 0.950 . S
C666 C664 1.391 . S
C666 C667 1.400 . S
C667 C666 1.400 . S
C667 C668 1.398 . S
C667 C673 1.491 1_455 S
C668 H659 0.950 . S
C668 C667 1.398 . S
C668 C669 1.391 . S
C669 H657 0.950 . S
C669 C665 1.393 . S
C669 C668 1.391 . S
C670 H660 0.950 . S
C670 C671 1.386 . S
C670 C672 1.391 . S
C671 C670 1.386 . S
C671 C675 1.393 . S
C672 H661 0.950 . S
C672 C670 1.391 . S
C672 C673 1.400 . S
C673 C667 1.491 1_655 S
C673 C672 1.400 . S
C673 C674 1.398 . S
C674 H662 0.950 . S
C674 C673 1.398 . S
C674 C675 1.391 . S
C675 H663 0.950 . S
C675 C671 1.393 . S
C675 C674 1.391 . S
H676 C684 0.950 . S
H677 C689 0.950 . S
H678 C686 0.950 . S
H679 C688 0.950 . S
H680 C690 0.950 . S
H681 C692 0.950 . S
H682 C694 0.950 . S
H683 C695 0.950 . S
C684 H676 0.950 . S
C684 C685 1.386 . S
C684 C686 1.391 . S
C685 C684 1.386 . S
C685 C689 1.393 . S
C686 H678 0.950 . S
C686 C684 1.391 . S
C686 C687 1.400 . S
C687 C686 1.400 . S
C687 C688 1.398 . S
C687 C693 1.491 1_655 S
C688 H679 0.950 . S
C688 C687 1.398 . S
C688 C689 1.391 . S
C689 H677 0.950 . S
C689 C685 1.393 . S
C689 C688 1.391 . S
C690 H680 0.950 . S
C690 C691 1.386 . S
C690 C692 1.391 . S
C691 C690 1.386 . S
C691 C695 1.393 . S
C692 H681 0.950 . S
C692 C690 1.391 . S
C692 C693 1.400 . S
C693 C687 1.491 1_455 S
C693 C692 1.400 . S
C693 C694 1.398 . S
C694 H682 0.950 . S
C694 C693 1.398 . S
C694 C695 1.391 . S
C695 H683 0.950 . S
C695 C691 1.393 . S
C695 C694 1.391 . S
H696 C704 0.950 . S
H697 C709 0.950 . S
H698 C706 0.950 . S
H699 C708 0.950 . S
H700 C710 0.950 . S
H701 C712 0.950 . S
H702 C714 0.950 . S
H703 C715 0.950 . S
C704 H696 0.950 . S
C704 C705 1.386 1_556 S
C704 C706 1.391 . S
C705 C704 1.386 1_554 S
C705 C709 1.393 . S
C706 H698 0.950 . S
C706 C704 1.391 . S
C706 C707 1.400 1_556 S
C707 C706 1.400 1_554 S
C707 C708 1.398 . S
C707 C713 1.491 . S
C708 H699 0.950 . S
C708 C707 1.398 . S
C708 C709 1.391 . S
C709 H697 0.950 . S
C709 C705 1.393 . S
C709 C708 1.391 . S
C710 H700 0.950 . S
C710 C711 1.386 . S
C710 C712 1.391 . S
C711 C710 1.386 . S
C711 C715 1.393 1_554 S
C712 H701 0.950 . S
C712 C710 1.391 . S
C712 C713 1.400 . S
C713 C707 1.491 . S
C713 C712 1.400 . S
C713 C714 1.398 1_554 S
C714 H702 0.950 . S
C714 C713 1.398 1_556 S
C714 C715 1.391 . S
C715 H703 0.950 . S
C715 C711 1.393 1_556 S
C715 C714 1.391 . S
H716 C724 0.950 . S
H717 C729 0.950 . S
H718 C726 0.950 . S
H719 C728 0.950 . S
H720 C730 0.950 . S
H721 C732 0.950 . S
H722 C734 0.950 . S
H723 C735 0.950 . S
C724 H716 0.950 . S
C724 C725 1.386 1_554 S
C724 C726 1.391 . S
C725 C724 1.386 1_556 S
C725 C729 1.393 . S
C726 H718 0.950 . S
C726 C724 1.391 . S
C726 C727 1.400 1_554 S
C727 C726 1.400 1_556 S
C727 C728 1.398 . S
C727 C733 1.491 . S
C728 H719 0.950 . S
C728 C727 1.398 . S
C728 C729 1.391 . S
C729 H717 0.950 . S
C729 C725 1.393 . S
C729 C728 1.391 . S
C730 H720 0.950 . S
C730 C731 1.386 . S
C730 C732 1.391 . S
C731 C730 1.386 . S
C731 C735 1.393 1_556 S
C732 H721 0.950 . S
C732 C730 1.391 . S
C732 C733 1.400 . S
C733 C727 1.491 . S
C733 C732 1.400 . S
C733 C734 1.398 1_556 S
C734 H722 0.950 . S
C734 C733 1.398 1_554 S
C734 C735 1.391 . S
C735 H723 0.950 . S
C735 C731 1.393 1_554 S
C735 C734 1.391 . S
C265 C2 1.662 . S
C271 C230 1.663 . S
C285 C198 1.666 . S
C291 C38 1.667 . S
C305 C162 1.658 . S
C311 C70 1.657 . S
C325 C130 1.666 . S
C331 C98 1.667 . S
C345 N82 1.596 . S
C351 N13 1.597 . S
C365 N50 1.596 . S
C371 N109 1.597 . S
C385 N114 1.423 . S
C391 N45 1.405 . S
C405 N77 1.434 . S
C411 N18 1.413 . S
C425 N141 1.612 . S
C431 N210 1.616 . S
C445 N173 1.614 . S
C451 N242 1.603 . S
C465 N237 1.430 . S
C471 N178 1.410 . S
C485 N205 1.407 . S
C491 N146 1.408 . S
C505 C6 1.295 . S
C511 C4 1.289 . S
C525 C34 1.293 . S
C531 C61 1.287 . S
C545 C93 1.295 . S
C551 C66 1.297 . S
C565 C102 1.294 . S
C571 C100 1.288 . S
C585 C132 1.296 . S
C591 C134 1.297 . S
C605 C166 1.293 . S
C611 C164 1.289 . S
C625 C194 1.297 . S
C631 C221 1.296 . S
C645 C226 1.294 . S
C651 C253 1.288 . S
C665 C29 1.587 . S
C671 C36 1.573 . S
C685 C125 1.583 . S
C691 C68 1.575 . S
C705 C157 1.585 . S
C711 C189 1.577 . S
C725 C228 1.580 . S
C731 C196 1.583 . S
