# Generated by pormake.
# Topology why, (6)-cn, num edge types: 1
# Building blocks:
#     Node 0, Type 0, BuildingBlock: KUMBUR_clean_sbu_1, # of connection points: 6
#     Node 1, Type 0, BuildingBlock: KUMBUR_clean_sbu_1, # of connection points: 6
#     Node 2, Type 0, BuildingBlock: KUMBUR_clean_sbu_1, # of connection points: 6
#     Node 3, Type 0, BuildingBlock: KUMBUR_clean_sbu_1, # of connection points: 6
#     Node 4, Type 0, BuildingBlock: KUMBUR_clean_sbu_1, # of connection points: 6
#     Node 5, Type 0, BuildingBlock: KUMBUR_clean_sbu_1, # of connection points: 6
#     Node 6, Type 0, BuildingBlock: KUMBUR_clean_sbu_1, # of connection points: 6
#     Node 7, Type 0, BuildingBlock: KUMBUR_clean_sbu_1, # of connection points: 6
#     Node 8, Type 0, BuildingBlock: KUMBUR_clean_sbu_1, # of connection points: 6
#     Node 9, Type 0, BuildingBlock: KUMBUR_clean_sbu_1, # of connection points: 6
#     Node 10, Type 0, BuildingBlock: KUMBUR_clean_sbu_1, # of connection points: 6
#     Node 11, Type 0, BuildingBlock: KUMBUR_clean_sbu_1, # of connection points: 6
#     Node 12, Type 0, BuildingBlock: KUMBUR_clean_sbu_1, # of connection points: 6
#     Node 13, Type 0, BuildingBlock: KUMBUR_clean_sbu_1, # of connection points: 6
#     Node 14, Type 0, BuildingBlock: KUMBUR_clean_sbu_1, # of connection points: 6
#     Node 15, Type 0, BuildingBlock: KUMBUR_clean_sbu_1, # of connection points: 6
#     Edge 16, Type (0, 0), BuildingBlock: TEMPAE_clean_linker_10, # of connection points: 2
#     Edge 17, Type (0, 0), BuildingBlock: TEMPAE_clean_linker_10, # of connection points: 2
#     Edge 18, Type (0, 0), BuildingBlock: TEMPAE_clean_linker_10, # of connection points: 2
#     Edge 19, Type (0, 0), BuildingBlock: TEMPAE_clean_linker_10, # of connection points: 2
#     Edge 20, Type (0, 0), BuildingBlock: TEMPAE_clean_linker_10, # of connection points: 2
#     Edge 21, Type (0, 0), BuildingBlock: TEMPAE_clean_linker_10, # of connection points: 2
#     Edge 22, Type (0, 0), BuildingBlock: TEMPAE_clean_linker_10, # of connection points: 2
#     Edge 23, Type (0, 0), BuildingBlock: TEMPAE_clean_linker_10, # of connection points: 2
#     Edge 24, Type (0, 0), BuildingBlock: TEMPAE_clean_linker_10, # of connection points: 2
#     Edge 25, Type (0, 0), BuildingBlock: TEMPAE_clean_linker_10, # of connection points: 2
#     Edge 26, Type (0, 0), BuildingBlock: TEMPAE_clean_linker_10, # of connection points: 2
#     Edge 27, Type (0, 0), BuildingBlock: TEMPAE_clean_linker_10, # of connection points: 2
#     Edge 28, Type (0, 0), BuildingBlock: TEMPAE_clean_linker_10, # of connection points: 2
#     Edge 29, Type (0, 0), BuildingBlock: TEMPAE_clean_linker_10, # of connection points: 2
#     Edge 30, Type (0, 0), BuildingBlock: TEMPAE_clean_linker_10, # of connection points: 2
#     Edge 31, Type (0, 0), BuildingBlock: TEMPAE_clean_linker_10, # of connection points: 2
#     Edge 32, Type (0, 0), BuildingBlock: TEMPAE_clean_linker_10, # of connection points: 2
#     Edge 33, Type (0, 0), BuildingBlock: TEMPAE_clean_linker_10, # of connection points: 2
#     Edge 34, Type (0, 0), BuildingBlock: TEMPAE_clean_linker_10, # of connection points: 2
#     Edge 35, Type (0, 0), BuildingBlock: TEMPAE_clean_linker_10, # of connection points: 2
#     Edge 36, Type (0, 0), BuildingBlock: TEMPAE_clean_linker_10, # of connection points: 2
#     Edge 37, Type (0, 0), BuildingBlock: TEMPAE_clean_linker_10, # of connection points: 2
#     Edge 38, Type (0, 0), BuildingBlock: TEMPAE_clean_linker_10, # of connection points: 2
#     Edge 39, Type (0, 0), BuildingBlock: TEMPAE_clean_linker_10, # of connection points: 2
#     Edge 40, Type (0, 0), BuildingBlock: TEMPAE_clean_linker_10, # of connection points: 2
#     Edge 41, Type (0, 0), BuildingBlock: TEMPAE_clean_linker_10, # of connection points: 2
#     Edge 42, Type (0, 0), BuildingBlock: TEMPAE_clean_linker_10, # of connection points: 2
#     Edge 43, Type (0, 0), BuildingBlock: TEMPAE_clean_linker_10, # of connection points: 2
#     Edge 44, Type (0, 0), BuildingBlock: TEMPAE_clean_linker_10, # of connection points: 2
#     Edge 45, Type (0, 0), BuildingBlock: TEMPAE_clean_linker_10, # of connection points: 2
#     Edge 46, Type (0, 0), BuildingBlock: TEMPAE_clean_linker_10, # of connection points: 2
#     Edge 47, Type (0, 0), BuildingBlock: TEMPAE_clean_linker_10, # of connection points: 2
#     Edge 48, Type (0, 0), BuildingBlock: TEMPAE_clean_linker_10, # of connection points: 2
#     Edge 49, Type (0, 0), BuildingBlock: TEMPAE_clean_linker_10, # of connection points: 2
#     Edge 50, Type (0, 0), BuildingBlock: TEMPAE_clean_linker_10, # of connection points: 2
#     Edge 51, Type (0, 0), BuildingBlock: TEMPAE_clean_linker_10, # of connection points: 2
#     Edge 52, Type (0, 0), BuildingBlock: TEMPAE_clean_linker_10, # of connection points: 2
#     Edge 53, Type (0, 0), BuildingBlock: TEMPAE_clean_linker_10, # of connection points: 2
#     Edge 54, Type (0, 0), BuildingBlock: TEMPAE_clean_linker_10, # of connection points: 2
#     Edge 55, Type (0, 0), BuildingBlock: TEMPAE_clean_linker_10, # of connection points: 2
#     Edge 56, Type (0, 0), BuildingBlock: TEMPAE_clean_linker_10, # of connection points: 2
#     Edge 57, Type (0, 0), BuildingBlock: TEMPAE_clean_linker_10, # of connection points: 2
#     Edge 58, Type (0, 0), BuildingBlock: TEMPAE_clean_linker_10, # of connection points: 2
#     Edge 59, Type (0, 0), BuildingBlock: TEMPAE_clean_linker_10, # of connection points: 2
#     Edge 60, Type (0, 0), BuildingBlock: TEMPAE_clean_linker_10, # of connection points: 2
#     Edge 61, Type (0, 0), BuildingBlock: TEMPAE_clean_linker_10, # of connection points: 2
#     Edge 62, Type (0, 0), BuildingBlock: TEMPAE_clean_linker_10, # of connection points: 2
#     Edge 63, Type (0, 0), BuildingBlock: TEMPAE_clean_linker_10, # of connection points: 2
# Relax obj value: 0.280
# Max RMSD: 0.217
# Mean RMSD: 0.217
data_MOF--net-why--node1-KUMBUR_clean_sbu_1--edge1-TEMPAE_clean_linker_10
_symmetry_space_group_name_H-M    P1
_symmetry_Int_Tables_number       1
_symmetry_cell_setting            triclinic
loop_
_symmetry_equiv_pos_as_xyz
'x, y, z'
_cell_length_a     50.195697
_cell_length_b     50.100548
_cell_length_c     42.144344
_cell_angle_alpha  89.998333
_cell_angle_beta   90.037174
_cell_angle_gamma 90.002897
loop_
_atom_site_label
_atom_site_type_symbol
_atom_site_fract_x
_atom_site_fract_y
_atom_site_fract_z
_atom_type_partial_charge
Tb0 Tb 0.38915 0.19139 0.08664 0.0
C1 C 0.39744 0.09429 1.00398 0.0
N2 N 0.41006 0.10175 0.03134 0.0
C3 C 0.41033 0.05577 0.04826 0.0
C4 C 0.3895 0.06756 0.99882 0.0
C5 C 0.41839 0.08226 0.05199 0.0
C6 C 0.39533 0.04848 0.02192 0.0
C7 C 0.3809 0.10587 0.95145 0.0
C8 C 0.39328 0.11317 0.98036 0.0
C9 C 0.37269 0.07946 0.94669 0.0
C10 C 0.37682 0.0604 0.97037 0.0
Tb11 Tb 0.42302 0.14602 0.03361 0.0
N12 N 0.40047 0.13894 0.98623 0.0
C13 C 0.3762 0.12552 0.92858 0.0
C14 C 0.39484 0.15821 0.9641 0.0
C15 C 0.38294 0.15185 0.93513 0.0
H16 H 0.43222 0.08621 0.07092 0.0
H17 H 0.37849 0.16743 0.91812 0.0
H18 H 0.35722 0.24396 0.05954 0.0
H19 H 0.46663 0.17955 0.17537 0.0
H20 H 0.39802 0.17872 0.96888 0.0
H21 H 0.36658 0.12071 0.90628 0.0
H22 H 0.43716 0.16451 0.13234 0.0
H23 H 0.41643 0.04081 0.06532 0.0
H24 H 0.36292 0.07361 0.92482 0.0
H25 H 0.37051 0.04001 0.96623 0.0
H26 H 0.35658 0.29261 0.06981 0.0
H27 H 0.38949 1.02782 0.01888 0.0
H28 H 0.46652 0.22693 0.19192 0.0
N29 N 0.3862 0.23604 0.09503 0.0
C30 C 0.40196 0.24607 0.11841 0.0
C31 C 0.3694 0.27973 0.08367 0.0
C32 C 0.40224 0.27358 0.12514 0.0
C33 C 0.36981 0.25225 0.07788 0.0
C34 C 0.38572 0.29047 0.10736 0.0
N35 N 0.41897 0.20239 0.1258 0.0
C36 C 0.43607 0.1849 0.13997 0.0
C37 C 0.43582 0.23832 0.15848 0.0
C38 C 0.41853 0.22861 0.13486 0.0
C39 C 0.45298 0.2203 0.17351 0.0
C40 C 0.45312 0.19352 0.16418 0.0
H41 H 0.38547 0.31178 0.11167 0.0
H42 H 0.41979 0.30442 0.15452 0.0
H43 H 0.44909 0.27359 0.18376 0.0
O44 O 0.36917 0.20022 0.1292 0.0
O45 O 0.42993 0.21119 0.07756 0.0
O46 O 0.45319 0.18053 0.04798 0.0
O47 O 0.34754 0.18643 0.08864 0.0
O48 O 0.39103 0.14895 0.1085 0.0
O49 O 0.42572 0.12953 0.08386 0.0
O50 O 0.44448 0.13636 0.99279 0.0
O51 O 0.37676 0.14639 0.02627 0.0
O52 O 0.36283 0.18725 0.04265 0.0
O53 O 0.45942 0.12558 0.03874 0.0
O54 O 0.42534 0.18604 0.01498 0.0
O55 O 0.3925 0.21071 0.03973 0.0
C56 C 0.45288 0.20441 0.0636 0.0
C57 C 0.32581 0.21673 0.12325 0.0
C58 C 0.30257 0.24399 0.16193 0.0
C59 C 0.28701 0.25505 0.13758 0.0
C60 C 0.31022 0.22791 0.09892 0.0
C61 C 0.29101 0.24714 0.10615 0.0
C62 C 0.32198 0.22499 0.15461 0.0
C63 C 0.408 0.12843 0.10716 0.0
C64 C 0.34586 0.19609 0.11711 0.0
C65 C 0.41922 0.28331 0.14899 0.0
C66 C 0.43589 0.26573 0.16568 0.0
C67 C 0.35848 0.16608 0.02419 0.0
C68 C 0.49033 0.13859 0.99914 0.0
C69 C 0.51957 0.15242 0.9565 0.0
C70 C 0.53867 0.16059 0.97879 0.0
C71 C 0.5093 0.1472 0.02146 0.0
C72 C 0.49556 0.14147 0.96671 0.0
C73 C 0.5334 0.15818 1.01121 0.0
C74 C 0.41031 0.20735 0.01707 0.0
C75 C 0.46463 0.12725 1.00857 0.0
H76 H 0.27203 0.26996 0.14286 0.0
H77 H 0.31286 0.22188 0.07445 0.0
H78 H 0.27913 0.25585 0.08738 0.0
H79 H 0.33387 0.21631 0.1735 0.0
H80 H 0.55755 0.1688 0.97108 0.0
H81 H 0.50557 0.14552 0.04669 0.0
H82 H 0.48107 0.13481 0.94928 0.0
H83 H 0.54804 0.1647 0.0284 0.0
Tb84 Tb 0.62436 0.63711 0.33655 0.0
C85 C 0.71901 0.64722 0.25345 0.0
N86 N 0.71166 0.66137 0.27972 0.0
C87 C 0.75749 0.66226 0.29671 0.0
C88 C 0.74541 0.63806 0.24954 0.0
C89 C 0.73116 0.67094 0.29952 0.0
C90 C 0.76446 0.64497 0.27227 0.0
C91 C 0.70752 0.62894 0.20175 0.0
C92 C 0.70039 0.64295 0.22952 0.0
C93 C 0.73346 0.61886 0.19856 0.0
C94 C 0.75231 0.6233 0.22245 0.0
Tb95 Tb 0.66753 0.67417 0.28115 0.0
N96 N 0.6749 0.65157 0.23422 0.0
C97 C 0.68826 0.62508 0.1782 0.0
C98 C 0.65614 0.64823 0.21084 0.0
C99 C 0.66257 0.63496 0.18267 0.0
H100 H 0.7271 0.68594 0.3172 0.0
H101 H 0.64769 0.63233 0.16436 0.0
H102 H 0.56918 0.61057 0.30655 0.0
H103 H 0.64033 0.70573 0.4345 0.0
H104 H 0.63629 0.65604 0.21347 0.0
H105 H 0.69304 0.61453 0.15649 0.0
H106 H 0.65325 0.6804 0.38734 0.0
H107 H 0.77247 0.6693 0.3132 0.0
H108 H 0.73918 0.60771 0.17762 0.0
H109 H 0.77239 0.61581 0.21938 0.0
H110 H 0.52111 0.611 0.31827 0.0
H111 H 0.78493 0.63833 0.27015 0.0
H112 H 0.59329 0.7063 0.45185 0.0
N113 N 0.57939 0.63603 0.34509 0.0
C114 C 0.57037 0.65015 0.37046 0.0
C115 C 0.53474 0.62215 0.33311 0.0
C116 C 0.54304 0.65094 0.37804 0.0
C117 C 0.56204 0.62204 0.32648 0.0
C118 C 0.52518 0.63668 0.35898 0.0
N119 N 0.6147 0.66469 0.37869 0.0
C120 C 0.633 0.6795 0.39489 0.0
C121 C 0.58008 0.67993 0.41434 0.0
C122 C 0.58867 0.66464 0.38821 0.0
C123 C 0.59901 0.69452 0.4314 0.0
C124 C 0.62557 0.69429 0.42162 0.0
H125 H 0.504 0.63681 0.36397 0.0
H126 H 0.51347 0.66705 0.41023 0.0
H127 H 0.54592 0.69221 0.44221 0.0
O128 O 0.61654 0.61548 0.3785 0.0
O129 O 0.60437 0.67833 0.32964 0.0
O130 O 0.63306 0.70298 0.29848 0.0
O131 O 0.62801 0.5952 0.33631 0.0
O132 O 0.66797 0.63966 0.35482 0.0
O133 O 0.68399 0.67703 0.33165 0.0
O134 O 0.67137 0.69625 0.23908 0.0
O135 O 0.66731 0.62773 0.27301 0.0
O136 O 0.62814 0.61142 0.29183 0.0
O137 O 0.68993 0.70976 0.28172 0.0
O138 O 0.62683 0.67521 0.26564 0.0
O139 O 0.60535 0.63997 0.28975 0.0
C140 C 0.60991 0.70165 0.3154 0.0
C141 C 0.597 0.57363 0.36993 0.0
C142 C 0.5683 0.55041 0.40756 0.0
C143 C 0.55197 0.5423 0.38211 0.0
C144 C 0.58141 0.56397 0.34474 0.0
C145 C 0.55875 0.54873 0.35093 0.0
C146 C 0.59083 0.56613 0.40102 0.0
C147 C 0.68726 0.65814 0.3536 0.0
C148 C 0.619 0.59253 0.36488 0.0
C149 C 0.53441 0.66614 0.40407 0.0
C150 C 0.5529 0.68048 0.42228 0.0
C151 C 0.64855 0.60845 0.27188 0.0
C152 C 0.67616 0.74253 0.24418 0.0
C153 C 0.6631 0.77502 0.20389 0.0
C154 C 0.66252 0.79493 0.22736 0.0
C155 C 0.67534 0.76269 0.26729 0.0
C156 C 0.67001 0.74884 0.21246 0.0
C157 C 0.66859 0.78874 0.25883 0.0
C158 C 0.60678 0.65875 0.26808 0.0
C159 C 0.68477 0.71525 0.25222 0.0
H160 H 0.53383 0.53112 0.38616 0.0
H161 H 0.58631 0.56869 0.32037 0.0
H162 H 0.54626 0.5421 0.33153 0.0
H163 H 0.6038 0.5727 0.42003 0.0
H164 H 0.65793 0.81542 0.22124 0.0
H165 H 0.6802 0.75846 0.29181 0.0
H166 H 0.67074 0.73343 0.1944 0.0
H167 H 0.66835 0.80426 0.27668 0.0
Tb168 Tb 0.17763 0.87401 0.59101 0.0
C169 C 0.16862 0.96457 0.50062 0.0
N170 N 0.1592 0.95823 0.53008 0.0
C171 C 0.16703 1.00365 0.54669 0.0
C172 C 0.17893 0.99021 0.49386 0.0
C173 C 0.15657 0.97824 0.55207 0.0
C174 C 0.17873 1.00954 0.51767 0.0
C175 C 0.17712 0.95142 0.44608 0.0
C176 C 0.16759 0.94546 0.47682 0.0
C177 C 0.18754 0.97677 0.43953 0.0
C178 C 0.18855 0.99608 0.46339 0.0
Tb179 Tb 0.14161 0.91566 0.53492 0.0
N180 N 0.15868 0.92056 0.48436 0.0
C181 C 0.17694 0.93141 0.42308 0.0
C182 C 0.15843 0.90096 0.4616 0.0
C183 C 0.16756 0.90618 0.43089 0.0
H184 H 0.14497 0.97596 0.57309 0.0
H185 H 0.1671 0.89094 0.41294 0.0
H186 H 0.21215 0.82229 0.56464 0.0
H187 H 0.10279 0.88349 0.6835 0.0
H188 H 0.15038 0.88149 0.46636 0.0
H189 H 0.18422 0.93517 0.39929 0.0
H190 H 0.13272 0.90013 0.64218 0.0
H191 H 0.16515 1.019 0.56463 0.0
H192 H 0.19514 0.98155 0.41615 0.0
H193 H 0.19661 1.01561 0.45795 0.0
H194 H 0.21061 0.77318 0.57058 0.0
H195 H 0.18646 1.02941 0.51341 0.0
H196 H 0.1003 0.83514 0.69483 0.0
N197 N 0.18129 0.82911 0.59821 0.0
C198 C 0.16448 0.81823 0.62005 0.0
C199 C 0.19755 0.78565 0.58463 0.0
C200 C 0.16317 0.79042 0.62448 0.0
C201 C 0.19831 0.81341 0.58122 0.0
C202 C 0.17975 0.77408 0.60613 0.0
N203 N 0.1485 0.86195 0.63062 0.0
C204 C 0.13261 0.87918 0.64709 0.0
C205 C 0.1304 0.82473 0.66022 0.0
C206 C 0.14819 0.83523 0.63763 0.0
C207 C 0.11409 0.84239 0.67703 0.0
C208 C 0.11536 0.86971 0.6706 0.0
H209 H 0.17913 0.75256 0.60855 0.0
H210 H 0.14378 0.7585 0.65037 0.0
H211 H 0.11533 0.7885 0.68184 0.0
O212 O 0.21639 0.88891 0.59916 0.0
O213 O 0.13616 0.85466 0.58265 0.0
O214 O 0.1114 0.8833 0.5524 0.0
O215 O 0.19842 0.86098 0.63115 0.0
O216 O 0.17316 0.91653 0.61048 0.0
O217 O 0.1368 0.93225 0.58523 0.0
O218 O 0.11455 0.91464 0.49813 0.0
O219 O 0.18693 0.91405 0.52193 0.0
O220 O 0.20562 0.87844 0.54785 0.0
O221 O 0.10944 0.94369 0.53603 0.0
O222 O 0.14163 0.87398 0.52114 0.0
O223 O 0.17869 0.8555 0.5443 0.0
C224 C 0.11272 0.86025 0.56898 0.0
C225 C 0.24412 0.85719 0.62525 0.0
C226 C 0.27121 0.82726 0.65688 0.0
C227 C 0.28824 0.82325 0.63093 0.0
C228 C 0.26084 0.85283 0.59908 0.0
C229 C 0.28294 0.83598 0.60204 0.0
C230 C 0.24951 0.84446 0.65396 0.0
C231 C 0.15451 0.93529 0.60855 0.0
C232 C 0.21997 0.87345 0.62359 0.0
C233 C 0.14525 0.77987 0.6468 0.0
C234 C 0.12906 0.79697 0.66476 0.0
C235 C 0.20764 0.89706 0.52498 0.0
C236 C 0.0772 0.94333 0.49226 0.0
C237 C 0.04807 0.93848 0.44681 0.0
C238 C 0.0325 0.95982 0.45808 0.0
C239 C 0.06175 0.96463 0.5034 0.0
C240 C 0.07021 0.93033 0.46408 0.0
C241 C 0.03937 0.97279 0.48628 0.0
C242 C 0.15948 0.85507 0.52331 0.0
C243 C 0.10073 0.93421 0.50926 0.0
H244 H 0.30515 0.80993 0.63285 0.0
H245 H 0.25675 0.86224 0.57655 0.0
H246 H 0.2958 0.83258 0.58184 0.0
H247 H 0.23643 0.84764 0.67413 0.0
H248 H 1.01529 0.96668 0.44489 0.0
H249 H 0.06697 0.97489 0.52516 0.0
H250 H 0.08188 0.91358 0.45552 0.0
H251 H 1.0274 0.98927 0.49478 0.0
Tb252 Tb 0.94091 0.4255 0.83982 0.0
C253 C 0.85466 0.42316 0.73862 0.0
N254 N 0.85744 0.41079 0.76716 0.0
C255 C 0.81077 0.41744 0.77717 0.0
C256 C 0.83066 0.43587 0.73002 0.0
C257 C 0.83505 0.40519 0.7843 0.0
C258 C 0.80884 0.43379 0.75049 0.0
C259 C 0.87317 0.43324 0.68692 0.0
C260 C 0.87535 0.42128 0.71706 0.0
C261 C 0.85009 0.4477 0.67915 0.0
C262 C 0.82881 0.4489 0.70061 0.0
Tb263 Tb 0.89872 0.39296 0.77808 0.0
N264 N 0.89767 0.40763 0.72598 0.0
C265 C 0.89415 0.43018 0.66549 0.0
C266 C 0.91772 0.40363 0.70446 0.0
C267 C 0.91634 0.41509 0.67417 0.0
H268 H 0.83529 0.39003 0.80217 0.0
H269 H 0.93239 0.41246 0.65744 0.0
H270 H 0.99214 0.46006 0.80887 0.0
H271 H 0.9379 0.35501 0.93756 0.0
H272 H 0.93477 0.39146 0.71018 0.0
H273 H 0.89331 0.43915 0.64212 0.0
H274 H 0.91854 0.38466 0.89747 0.0
H275 H 0.79339 0.4135 0.79162 0.0
H276 H 0.84822 0.45741 0.65628 0.0
H277 H 0.8107 0.45921 0.69384 0.0
H278 H 0.04103 0.45613 0.80806 0.0
H279 H 0.78995 0.44304 0.74472 0.0
H280 H 0.98674 0.34924 0.94097 0.0
N281 N 0.98665 0.42733 0.8406 0.0
C282 C 0.99884 0.40966 0.86048 0.0
C283 C 1.02937 0.44284 0.82279 0.0
C284 C 1.0268 0.40736 0.86148 0.0
C285 C 1.00159 0.44483 0.82314 0.0
C286 C 0.04202 0.42375 0.84166 0.0
N287 N 0.95606 0.39652 0.87817 0.0
C288 C 0.93988 0.38298 0.89878 0.0
C289 C 0.99495 0.37714 0.90298 0.0
C290 C 0.98314 0.39458 0.88088 0.0
C291 C 0.97842 0.3628 0.92356 0.0
C292 C 0.95082 0.36593 0.92162 0.0
H293 H 0.06356 0.42237 0.84144 0.0
H294 H 0.06009 0.38686 0.8834 0.0
H295 H 1.03222 0.36057 0.91988 0.0
O296 O 0.92303 0.46119 0.85644 0.0
O297 O 0.95193 0.38035 0.83454 0.0
O298 O 0.93582 0.36553 0.78684 0.0
O299 O 0.95868 0.44563 0.87753 0.0
O300 O 0.90078 0.41741 0.86299 0.0
O301 O 0.87606 0.39585 0.82571 0.0
O302 O 0.88262 0.3686 0.74295 0.0
O303 O 0.90166 0.4379 0.76677 0.0
O304 O 0.93306 0.45691 0.79938 0.0
O305 O 0.88353 0.35541 0.79167 0.0
O306 O 0.94081 0.39387 0.76584 0.0
O307 O 0.9569 0.43041 0.79243 0.0
C308 C 0.95297 0.36196 0.81131 0.0
C309 C 0.95559 0.49119 0.87757 0.0
C310 C 0.98452 0.51902 0.91015 0.0
C311 C 0.99479 0.53073 0.88231 0.0
C312 C 0.96594 0.50296 0.85004 0.0
C313 C 0.98512 0.52306 0.85252 0.0
C314 C 0.96395 0.50018 0.9073 0.0
C315 C 0.87801 0.40562 0.8552 0.0
C316 C 0.94218 0.46532 0.87678 0.0
C317 C 0.03864 0.38917 0.88259 0.0
C318 C 1.02278 0.37426 0.90346 0.0
C319 C 0.91637 0.45927 0.77415 0.0
C320 C 0.88663 0.32246 0.75124 0.0
C321 C 0.90058 0.29341 0.70785 0.0
C322 C 0.89419 0.27113 0.72682 0.0
C323 C 0.88075 0.30004 0.76979 0.0
C324 C 0.89735 0.31904 0.72067 0.0
C325 C 0.88482 0.2745 0.7577 0.0
C326 C 0.95871 0.41249 0.77021 0.0
C327 C 0.87833 0.34896 0.76228 0.0
H328 H 1.01095 0.54499 0.88334 0.0
H329 H 0.9602 0.49582 0.8268 0.0
H330 H 0.9935 0.53179 0.83125 0.0
H331 H 0.9556 0.49086 0.92827 0.0
H332 H 0.89552 0.25103 0.71757 0.0
H333 H 0.87226 0.30228 0.79326 0.0
H334 H 0.90235 0.33634 0.70644 0.0
H335 H 0.87977 0.25723 0.77191 0.0
Tb336 Tb 0.64037 0.918 0.99228 0.0
C337 C 0.66555 0.8211 0.8957 0.0
N338 N 0.6828 0.82948 0.91862 0.0
C339 C 0.69759 0.78435 0.92665 0.0
C340 C 0.66313 0.79373 0.88825 0.0
C341 C 0.69934 0.81159 0.93333 0.0
C342 C 0.67921 0.77534 0.90429 0.0
C343 C 0.63139 0.83155 0.85672 0.0
C344 C 0.64975 0.83996 0.88008 0.0
C345 C 0.62895 0.80431 0.84947 0.0
C346 C 0.64462 0.78548 0.86531 0.0
Tb347 Tb 0.68031 0.87402 0.93056 0.0
N348 N 0.65106 0.86615 0.88936 0.0
C349 C 0.61538 0.85063 0.84188 0.0
C350 C 0.63461 0.88457 0.87545 0.0
C351 C 0.61709 0.87722 0.85122 0.0
H352 H 0.7131 0.81809 0.95142 0.0
H353 H 0.60437 0.89205 0.84028 0.0
H354 H 0.6198 0.97847 0.96491 0.0
H355 H 0.66332 0.90817 0.1182 0.0
H356 H 0.63387 0.90488 0.88302 0.0
H357 H 0.60124 0.84497 0.82364 0.0
H358 H 0.63955 0.89646 0.06905 0.0
H359 H 0.7102 0.77029 0.93908 0.0
H360 H 0.61471 0.79756 0.83188 0.0
H361 H 0.64229 0.76451 0.85962 0.0
H362 H 0.63903 1.02411 0.96419 0.0
H363 H 0.67769 0.75415 0.89945 0.0
H364 H 0.69277 0.94773 0.1198 0.0
N365 N 0.64945 0.96307 0.99582 0.0
C366 C 0.66621 0.97008 0.01959 0.0
C367 C 0.64761 1.00885 0.97921 0.0
C368 C 0.67709 0.99593 0.02164 0.0
C369 C 0.63727 0.98286 0.97891 0.0
C370 C 0.66868 1.01506 0.99963 0.0
N371 N 0.65521 0.9292 0.04257 0.0
C372 C 0.65194 0.91403 0.06928 0.0
C373 C 0.68312 0.95986 0.07186 0.0
C374 C 0.66862 0.9527 0.04456 0.0
C375 C 0.68206 0.94295 0.09821 0.0
C376 C 0.66551 0.92054 0.09732 0.0
H377 H 0.67647 0.03521 1.00023 0.0
H378 H 0.70324 1.02182 0.04871 0.0
H379 H 0.7089 0.98985 0.09274 0.0
O380 O 0.61202 0.90258 0.02308 0.0
O381 O 0.68366 0.91103 1.01124 0.0
O382 O 0.70832 0.88758 0.97289 0.0
O383 O 0.60153 0.93333 0.98867 0.0
O384 O 0.65949 0.88341 0.97989 0.0
O385 O 0.67937 0.84776 0.97224 0.0
O386 O 0.70248 0.8647 0.88972 0.0
O387 O 0.63766 0.85562 0.93875 0.0
O388 O 0.61436 0.88174 0.97524 0.0
O389 O 0.7206 0.88519 0.92887 0.0
O390 O 0.67209 0.91669 0.91149 0.0
O391 O 0.64291 0.93975 0.94411 0.0
C392 C 0.70724 0.90048 1.00137 0.0
C393 C 0.57159 0.92597 0.03182 0.0
C394 C 0.54534 0.91742 0.07884 0.0
C395 C 0.52427 0.93233 0.06586 0.0
C396 C 0.55055 0.94101 0.01907 0.0
C397 C 0.52703 0.94428 0.03619 0.0
C398 C 0.56906 0.91463 0.06201 0.0
C399 C 0.66538 0.86031 0.9924 0.0
C400 C 0.59317 0.91737 1.01108 0.0
C401 C 0.69396 1.00234 0.04718 0.0
C402 C 0.69703 0.98421 0.07233 0.0
C403 C 0.61536 0.85985 0.95611 0.0
C404 C 0.74645 0.85342 0.90157 0.0
C405 C 0.77091 0.82167 0.86936 0.0
C406 C 0.78014 0.80915 0.89721 0.0
C407 C 0.75674 0.84164 0.92923 0.0
C408 C 0.75472 0.84433 0.87204 0.0
C409 C 0.7735 0.81949 0.92695 0.0
C410 C 0.65724 0.93868 0.91715 0.0
C411 C 0.72464 0.87276 0.9023 0.0
H412 H 0.50578 0.93485 0.07877 0.0
H413 H 0.55185 0.94927 0.99537 0.0
H414 H 0.5107 0.95558 0.02613 0.0
H415 H 0.58487 0.9024 0.07184 0.0
H416 H 0.79203 0.79115 0.89618 0.0
H417 H 0.75082 0.84864 0.9525 0.0
H418 H 0.74756 0.85463 0.85109 0.0
H419 H 0.78064 0.80979 0.94827 0.0
Tb420 Tb 0.39718 0.39325 0.74082 0.0
C421 C 0.49734 0.41118 0.6589 0.0
N422 N 0.4856 0.42833 0.67977 0.0
C423 C 0.52868 0.44328 0.69705 0.0
C424 C 0.52526 0.40907 0.65681 0.0
C425 C 0.50088 0.44529 0.69757 0.0
C426 C 0.54092 0.42484 0.67691 0.0
C427 C 0.4924 0.37995 0.61521 0.0
C428 C 0.48113 0.39656 0.63854 0.0
C429 C 0.52023 0.37744 0.61338 0.0
C430 C 0.5366 0.39172 0.63437 0.0
Tb431 Tb 0.43993 0.4266 0.68167 0.0
N432 N 0.45413 0.39814 0.64248 0.0
C433 C 0.47531 0.36591 0.59493 0.0
C434 C 0.4374 0.38498 0.62221 0.0
C435 C 0.44774 0.36862 0.5983 0.0
H436 H 0.4917 0.46017 0.71259 0.0
H437 H 0.43441 0.35797 0.58257 0.0
H438 H 0.33563 0.4018 0.7057 0.0
H439 H 0.42693 0.41098 0.86305 0.0
H440 H 0.41613 0.38666 0.62464 0.0
H441 H 0.48318 0.35294 0.57663 0.0
H442 H 0.43228 0.39281 0.80923 0.0
H443 H 0.54066 0.45611 0.712 0.0
H444 H 0.5293 0.36442 0.59593 0.0
H445 H 0.55803 0.3896 0.63262 0.0
H446 H 0.29468 0.4245 0.7176 0.0
H447 H 0.56246 0.42352 0.67637 0.0
H448 H 0.38566 0.43324 0.87876 0.0
N449 N 0.356 0.41326 0.74852 0.0
C450 C 0.35155 0.42257 0.77857 0.0
C451 C 0.31079 0.42481 0.7347 0.0
C452 C 0.32719 0.43486 0.78692 0.0
C453 C 0.33506 0.41262 0.72755 0.0
C454 C 0.30701 0.4365 0.76425 0.0
N455 N 0.39447 0.40702 0.7929 0.0
C456 C 0.41428 0.40352 0.8149 0.0
C457 C 0.36724 0.4286 0.8327 0.0
C458 C 0.37123 0.41919 0.80148 0.0
C459 C 0.38777 0.4258 0.85475 0.0
C460 C 0.4113 0.41327 0.8458 0.0
H461 H 0.28802 0.44567 0.76979 0.0
H462 H 0.30483 0.45406 0.8245 0.0
H463 H 0.33999 0.44879 0.86448 0.0
O464 O 0.38082 0.3693 0.77628 0.0
O465 O 0.39957 0.43867 0.75268 0.0
O466 O 0.43385 0.45678 0.72355 0.0
O467 O 0.38163 0.35551 0.72821 0.0
O468 O 0.43896 0.39383 0.75398 0.0
O469 O 0.45615 0.43062 0.72892 0.0
O470 O 0.42162 0.46212 0.66528 0.0
O471 O 0.45165 0.38145 0.68603 0.0
O472 O 0.43439 0.36573 0.73264 0.0
O473 O 0.45792 0.44751 0.64481 0.0
O474 O 0.39868 0.4216 0.65978 0.0
O475 O 0.37733 0.39205 0.69177 0.0
C476 C 0.41604 0.45947 0.74756 0.0
C477 C 0.38851 0.32375 0.76947 0.0
C478 C 0.40391 0.29669 0.81369 0.0
C479 C 0.4085 0.27533 0.79294 0.0
C480 C 0.39317 0.30226 0.74881 0.0
C481 C 0.40321 0.27818 0.76057 0.0
C482 C 0.39396 0.32073 0.802 0.0
C483 C 0.45721 0.41222 0.7506 0.0
C484 C 0.37736 0.34908 0.75775 0.0
C485 C 0.32334 0.44445 0.81787 0.0
C486 C 0.34327 0.44128 0.84069 0.0
C487 C 0.45208 0.36248 0.70865 0.0
C488 C 0.45386 0.49303 0.64533 0.0
C489 C 0.48569 0.52163 0.61878 0.0
C490 C 0.48579 0.53891 0.64491 0.0
C491 C 0.45397 0.51015 0.67165 0.0
C492 C 0.4695 0.49908 0.61893 0.0
C493 C 0.46984 0.53316 0.6713 0.0
C494 C 0.37752 0.40633 0.66502 0.0
C495 C 0.44106 0.46687 0.64555 0.0
H496 H 0.41562 0.25636 0.80191 0.0
H497 H 0.38889 0.30398 0.7237 0.0
H498 H 0.40653 0.26158 0.74462 0.0
H499 H 0.38999 0.33684 0.81855 0.0
H500 H 0.49823 0.55657 0.64492 0.0
H501 H 0.44227 0.50551 0.69243 0.0
H502 H 0.46982 0.4856 0.59873 0.0
H503 H 0.47005 0.54632 0.69166 0.0
Tb504 Tb 0.92302 0.15061 0.48978 0.0
C505 C 0.90493 0.24932 0.4054 0.0
N506 N 0.88787 0.23871 0.42721 0.0
C507 C 0.8745 0.28268 0.44307 0.0
C508 C 0.90766 0.27713 0.40195 0.0
C509 C 0.87211 0.25492 0.44528 0.0
C510 C 0.89249 0.29384 0.42151 0.0
C511 C 0.93756 0.24211 0.36374 0.0
C512 C 0.91986 0.23198 0.38663 0.0
C513 C 0.94027 0.26987 0.36013 0.0
C514 C 0.92554 0.28731 0.37936 0.0
Tb515 Tb 0.88922 0.19329 0.43247 0.0
N516 N 0.91843 0.20516 0.39285 0.0
C517 C 0.95245 0.22406 0.34567 0.0
C518 C 0.93281 0.18752 0.37504 0.0
C519 C 0.94988 0.19669 0.35119 0.0
H520 H 0.85788 0.24649 0.46172 0.0
H521 H 0.9613 0.1826 0.33726 0.0
H522 H 0.91753 0.08999 0.45394 0.0
H523 H 0.89543 0.18167 0.6093 0.0
H524 H 0.93155 0.16644 0.37911 0.0
H525 H 0.9661 0.23103 0.32758 0.0
H526 H 0.91816 0.18631 0.55838 0.0
H527 H 0.86247 0.29547 0.45799 0.0
H528 H 0.95396 0.27805 0.3428 0.0
H529 H 0.92809 0.30866 0.37651 0.0
H530 H 0.89548 0.04793 0.46399 0.0
H531 H 0.89431 0.31534 0.41993 0.0
H532 H 0.87241 0.13981 0.62289 0.0
N533 N 0.90327 0.1094 0.49594 0.0
C534 C 0.89235 0.10475 0.52515 0.0
C535 C 0.89381 0.06397 0.48109 0.0
C536 C 0.88023 0.08006 0.53242 0.0
C537 C 0.90563 0.08866 0.47494 0.0
C538 C 0.88062 0.05979 0.50969 0.0
N539 N 0.90525 0.14849 0.54031 0.0
C540 C 0.90685 0.16843 0.56254 0.0
C541 C 0.88134 0.12099 0.57793 0.0
C542 C 0.89323 0.12488 0.54794 0.0
C543 C 0.88172 0.1419 0.59984 0.0
C544 C 0.89461 0.16564 0.59215 0.0
H545 H 0.87163 0.04054 0.51442 0.0
H546 H 0.859 0.05738 0.56813 0.0
H547 H 0.85972 0.09328 0.6078 0.0
O548 O 0.94506 0.13722 0.52846 0.0
O549 O 0.87665 0.14991 0.49569 0.0
O550 O 0.86083 0.18898 0.47543 0.0
O551 O 0.95893 0.12978 0.48127 0.0
O552 O 0.92343 0.19242 0.50394 0.0
O553 O 0.88619 0.20968 0.47996 0.0
O554 O 0.85368 0.17434 0.41748 0.0
O555 O 0.93222 0.20924 0.43923 0.0
O556 O 0.95258 0.18577 0.47896 0.0
O557 O 0.86694 0.21123 0.39673 0.0
O558 O 0.89344 0.15092 0.41225 0.0
O559 O 0.92754 0.13289 0.43999 0.0
C560 C 0.85729 0.16854 0.4957 0.0
C561 C 0.99102 0.13821 0.52172 0.0
C562 C 1.01989 0.15227 0.56511 0.0
C563 C 0.04112 0.15462 0.5435 0.0
C564 C 1.01234 0.1407 0.50043 0.0
C565 C 0.03725 0.14904 0.51135 0.0
C566 C 0.99492 0.1443 0.55388 0.0
C567 C 0.90522 0.21096 0.50098 0.0
C568 C 0.96468 0.1288 0.51139 0.0
C569 C 0.8685 0.07617 0.56229 0.0
C570 C 0.86903 0.09656 0.58494 0.0
C571 C 0.95357 0.20619 0.4579 0.0
C572 C 0.82157 0.20478 0.3962 0.0
C573 C 0.7905 0.23075 0.36454 0.0
C574 C 0.77222 0.23019 0.38982 0.0
C575 C 0.80345 0.20429 0.42146 0.0
C576 C 0.81513 0.2182 0.36832 0.0
C577 C 0.77876 0.21702 0.41815 0.0
C578 C 0.91091 0.1311 0.41543 0.0
C579 C 0.84832 0.19356 0.39764 0.0
H580 H 0.06088 0.16012 0.55149 0.0
H581 H 1.00983 0.13611 0.4755 0.0
H582 H 0.05373 0.15077 0.49493 0.0
H583 H 0.97842 0.14272 0.57036 0.0
H584 H 0.75294 0.23972 0.38762 0.0
H585 H 0.80844 0.19445 0.44357 0.0
H586 H 0.82996 0.21943 0.34962 0.0
H587 H 0.76468 0.21673 0.43759 0.0
Tb588 Tb 0.16716 0.67323 0.23912 0.0
C589 C 0.06759 0.65086 0.15224 0.0
N590 N 0.07974 0.63435 0.17343 0.0
C591 C 0.03764 0.61498 0.18708 0.0
C592 C 0.03978 0.65034 0.14804 0.0
C593 C 0.06537 0.61601 0.19016 0.0
C594 C 1.02476 0.63236 0.16613 0.0
C595 C 0.07158 0.68556 0.11233 0.0
C596 C 0.08332 0.66828 0.13465 0.0
C597 C 0.04381 0.68519 0.10808 0.0
C598 C 1.02795 0.66775 0.12602 0.0
Tb599 Tb 0.12448 0.64007 0.17948 0.0
N600 N 0.10999 0.66938 0.14117 0.0
C601 C 0.08804 0.70314 0.09557 0.0
C602 C 0.12608 0.68669 0.12495 0.0
C603 C 0.11537 0.70361 0.10182 0.0
H604 H 0.07528 0.60239 0.2062 0.0
H605 H 0.12818 0.71734 0.08916 0.0
H606 H 0.22992 0.68429 0.21193 0.0
H607 H 0.13647 0.63659 0.35528 0.0
H608 H 0.147 0.68826 0.13025 0.0
H609 H 0.07981 0.71665 0.07804 0.0
H610 H 0.13028 0.66024 0.30518 0.0
H611 H 1.02623 0.6008 0.20088 0.0
H612 H 0.03437 0.69852 0.09124 0.0
H613 H 1.00655 0.66784 0.12261 0.0
H614 H 0.27448 0.66732 0.22267 0.0
H615 H 1.00328 0.63153 0.16385 0.0
H616 H 0.17993 0.61749 0.36926 0.0
N617 N 0.2108 0.66072 0.24789 0.0
C618 C 0.21539 0.64724 0.27546 0.0
C619 C 0.25795 0.6609 0.23728 0.0
C620 C 0.24119 0.63828 0.28353 0.0
C621 C 0.23218 0.66975 0.23064 0.0
C622 C 0.26238 0.64444 0.26335 0.0
N623 N 0.1699 0.65318 0.28848 0.0
C624 C 0.14931 0.65131 0.30974 0.0
C625 C 0.19883 0.63069 0.3259 0.0
C626 C 0.19451 0.64381 0.2967 0.0
C627 C 0.17747 0.62765 0.34675 0.0
C628 C 0.15276 0.63825 0.33877 0.0
H629 H 0.28246 0.63787 0.26867 0.0
H630 H 0.26492 0.61715 0.31839 0.0
H631 H 0.22775 0.61032 0.35538 0.0
O632 O 0.17602 0.69578 0.27878 0.0
O633 O 0.16649 0.62747 0.24737 0.0
O634 O 0.12894 0.61159 0.22293 0.0
O635 O 0.18603 0.7109 0.23177 0.0
O636 O 0.12544 0.67397 0.25199 0.0
O637 O 0.10661 0.63806 0.22648 0.0
O638 O 0.14297 0.60308 0.16922 0.0
O639 O 0.10685 0.68213 0.18752 0.0
O640 O 0.13276 0.70316 0.22488 0.0
O641 O 0.11112 0.61844 0.14036 0.0
O642 O 0.1642 0.64942 0.15514 0.0
O643 O 0.19005 0.66942 0.19238 0.0
C644 C 0.14814 0.60808 0.24502 0.0
C645 C 0.19141 0.74025 0.27749 0.0
C646 C 0.18486 0.76936 0.32296 0.0
C647 C 0.20673 0.78481 0.31281 0.0
C648 C 0.21285 0.75601 0.26754 0.0
C649 C 0.22041 0.77827 0.28511 0.0
C650 C 0.17718 0.74713 0.305 0.0
C651 C 0.10608 0.65677 0.24814 0.0
C652 C 0.18758 0.71434 0.26244 0.0
C653 C 0.24531 0.62446 0.31208 0.0
C654 C 0.2242 0.62074 0.33324 0.0
C655 C 0.11117 0.70383 0.2053 0.0
C656 C 0.11152 0.57279 0.1461 0.0
C657 C 0.07973 0.54522 0.11761 0.0
C658 C 0.07521 0.53026 0.14519 0.0
C659 C 0.10715 0.55768 0.17368 0.0
C660 C 0.09818 0.56605 0.11808 0.0
C661 C 0.0892 0.53629 0.17304 0.0
C662 C 0.18762 0.65998 0.16302 0.0
C663 C 0.12611 0.59811 0.14633 0.0
H664 H 0.21367 0.80166 0.32664 0.0
H665 H 0.22443 0.75044 0.24688 0.0
H666 H 0.23737 0.79007 0.27773 0.0
H667 H 0.16068 0.73483 0.31286 0.0
H668 H 0.06088 0.5141 0.14516 0.0
H669 H 0.11687 0.56284 0.19577 0.0
H670 H 0.10096 0.57813 0.09694 0.0
H671 H 0.08564 0.5248 0.19436 0.0
Tb672 Tb 0.88717 0.69241 0.58697 0.0
C673 C 0.89986 0.59725 0.50551 0.0
N674 N 0.91086 0.60526 0.5335 0.0
C675 C 0.90396 0.56107 0.55451 0.0
C676 C 0.88827 0.57174 0.50205 0.0
C677 C 0.91518 0.58653 0.55664 0.0
C678 C 0.88969 0.55391 0.52747 0.0
C679 C 0.89069 0.60664 0.45009 0.0
C680 C 0.9017 0.61404 0.47961 0.0
C681 C 0.8777 0.58196 0.44709 0.0
C682 C 0.87663 0.56447 0.47298 0.0
Tb683 Tb 0.92666 0.64873 0.53486 0.0
N684 N 0.91355 0.6382 0.48382 0.0
C685 C 0.89313 0.62422 0.4245 0.0
C686 C 0.91744 0.65467 0.45826 0.0
C687 C 0.907 0.64811 0.42848 0.0
H688 H 0.92853 0.59026 0.57607 0.0
H689 H 0.9097 0.66146 0.40856 0.0
H690 H 0.85994 0.74777 0.5591 0.0
H691 H 0.95075 0.67464 0.69007 0.0
H692 H 0.92855 0.67296 0.46044 0.0
H693 H 0.88488 0.61931 0.40146 0.0
H694 H 0.92513 0.66168 0.64391 0.0
H695 H 0.90701 0.54674 0.57339 0.0
H696 H 0.86889 0.576 0.42471 0.0
H697 H 0.86729 0.54512 0.47008 0.0
H698 H 0.86166 0.796 0.57045 0.0
H699 H 0.88123 0.53407 0.52573 0.0
H700 H 0.95407 0.72209 0.70534 0.0
N701 N 0.88642 0.73726 0.59659 0.0
C702 C 0.90037 0.74594 0.62218 0.0
C703 C 0.87277 0.78217 0.58509 0.0
C704 C 0.90179 0.77335 0.62962 0.0
C705 C 0.87201 0.75483 0.57861 0.0
C706 C 0.88793 0.79152 0.61054 0.0
N707 N 0.9126 0.70096 0.63171 0.0
C708 C 0.92569 0.6823 0.64953 0.0
C709 C 0.92892 0.73565 0.66688 0.0
C710 C 0.91372 0.72722 0.64053 0.0
C711 C 0.9423 0.71646 0.68484 0.0
C712 C 0.94053 0.68969 0.67622 0.0
H713 H 0.8886 0.81274 0.61542 0.0
H714 H 0.91855 0.80273 0.66163 0.0
H715 H 0.94228 0.76973 0.69431 0.0
O716 O 0.86274 0.69798 0.62734 0.0
O717 O 0.92839 0.71252 0.58121 0.0
O718 O 0.95367 0.68402 0.55083 0.0
O719 O 0.84686 0.70041 0.57913 0.0
O720 O 0.88714 0.64839 0.60413 0.0
O721 O 0.92766 0.63629 0.58697 0.0
O722 O 0.96119 0.65644 0.50901 0.0
O723 O 0.88293 0.65152 0.51564 0.0
O724 O 0.86062 0.6834 0.54396 0.0
O725 O 0.95723 0.61987 0.53463 0.0
O726 O 0.92184 0.68709 0.51344 0.0
O727 O 0.89463 0.71411 0.54329 0.0
C728 C 0.9517 0.7072 0.56698 0.0
C729 C 0.81604 0.70952 0.62106 0.0
C730 C 0.78986 0.73322 0.6597 0.0
C731 C 0.76713 0.73046 0.64068 0.0
C732 C 0.79345 0.70706 0.60154 0.0
C733 C 0.76899 0.71734 0.61153 0.0
C734 C 0.81409 0.72245 0.65014 0.0
C735 C 0.90713 0.63078 0.60588 0.0
C736 C 0.84246 0.70337 0.60914 0.0
C737 C 0.91706 0.78174 0.65567 0.0
C738 C 0.93054 0.76294 0.67429 0.0
C739 C 0.86087 0.66649 0.51947 0.0
C740 C 0.98319 0.61939 0.48774 0.0
C741 C 1.00636 0.62162 0.43745 0.0
C742 C 1.0119 0.59422 0.43947 0.0
C743 C 0.98851 0.59193 0.48944 0.0
C744 C 0.99181 0.6341 0.46132 0.0
C745 C 1.00272 0.5794 0.46525 0.0
C746 C 0.90915 0.70932 0.51829 0.0
C747 C 0.97163 0.6334 0.51487 0.0
H748 H 0.74825 0.73886 0.6481 0.0
H749 H 0.79485 0.69783 0.57835 0.0
H750 H 0.75163 0.71563 0.59642 0.0
H751 H 0.83167 0.72526 0.6648 0.0
H752 H 1.02346 0.58439 0.42119 0.0
H753 H 0.9823 0.58029 0.5098 0.0
H754 H 0.98838 0.65546 0.4599 0.0
H755 H 1.00711 0.5583 0.46681 0.0
Tb756 Tb 0.12496 0.13959 0.84 0.0
C757 C 0.21235 0.14497 0.74203 0.0
N758 N 0.20879 0.15664 0.77095 0.0
C759 C 0.25524 0.14969 0.78247 0.0
C760 C 0.2367 0.13267 0.73388 0.0
C761 C 0.23086 0.16193 0.78893 0.0
C762 C 0.25788 0.13401 0.75538 0.0
C763 C 0.19606 0.13757 0.68849 0.0
C764 C 0.19242 0.14766 0.7194 0.0
C765 C 0.21948 0.12355 0.68111 0.0
C766 C 0.23974 0.12106 0.70379 0.0
Tb767 Tb 0.16706 0.17449 0.78003 0.0
N768 N 0.16963 0.16079 0.72777 0.0
C769 C 0.176 0.14176 0.66598 0.0
C770 C 0.15033 0.16554 0.70544 0.0
C771 C 0.1531 0.15584 0.67449 0.0
H772 H 0.23051 0.1769 0.80697 0.0
H773 H 0.13762 0.15942 0.65712 0.0
H774 H 0.07336 0.10483 0.81296 0.0
H775 H 0.13284 0.21838 0.92806 0.0
H776 H 0.13299 0.17734 0.71099 0.0
H777 H 0.17805 0.13434 0.64196 0.0
H778 H 0.15004 0.18775 0.88763 0.0
H779 H 0.27226 0.15334 0.79767 0.0
H780 H 0.22239 0.11511 0.6577 0.0
H781 H 0.25814 0.11113 0.69737 0.0
H782 H 1.02437 0.10645 0.81806 0.0
H783 H 0.27695 0.12498 0.75001 0.0
H784 H 0.08458 0.22014 0.93948 0.0
N785 N 0.07989 0.13645 0.84578 0.0
C786 C 0.06875 0.15378 0.86689 0.0
C787 C 0.03664 0.11985 0.83192 0.0
C788 C 0.04094 0.15509 0.87086 0.0
C789 C 0.06438 0.11906 0.829 0.0
C790 C 1.02485 0.13806 0.85274 0.0
N791 N 0.11222 0.17031 0.87754 0.0
C792 C 0.12912 0.18728 0.89301 0.0
C793 C 0.0747 0.18892 0.90598 0.0
C794 C 0.08549 0.1706 0.88419 0.0
C795 C 0.09206 0.20594 0.92227 0.0
C796 C 0.11934 0.20505 0.91581 0.0
H797 H 1.00335 0.13868 0.85483 0.0
H798 H 1.00876 0.17488 0.89576 0.0
H799 H 0.03827 0.20425 0.92669 0.0
O800 O 0.14031 0.10139 0.85097 0.0
O801 O 0.10604 0.18093 0.82914 0.0
O802 O 0.13158 0.20328 0.79255 0.0
O803 O 0.11023 0.11953 0.87983 0.0
O804 O 0.16526 0.14729 0.86333 0.0
O805 O 0.18929 0.17143 0.82774 0.0
O806 O 0.183 0.19838 0.74425 0.0
O807 O 0.16312 0.12966 0.7666 0.0
O808 O 0.13253 0.10926 0.7992 0.0
O809 O 0.18119 0.21297 0.79203 0.0
O810 O 0.12543 0.17211 0.76608 0.0
O811 O 0.10764 0.13615 0.79313 0.0
C812 C 0.10992 0.20307 0.81184 0.0
C813 C 0.10749 0.07374 0.87518 0.0
C814 C 0.07753 0.04648 0.90674 0.0
C815 C 0.07026 1.03223 0.87935 0.0
C816 C 0.09975 0.05988 0.84776 0.0
C817 C 0.08147 0.03889 0.84999 0.0
C818 C 0.09673 0.06662 0.90447 0.0
C819 C 0.18777 0.15998 0.85633 0.0
C820 C 0.12355 0.09807 0.87419 0.0
C821 C 1.03012 0.17344 0.89251 0.0
C822 C 0.04695 0.19015 0.91018 0.0
C823 C 0.14876 0.10781 0.7737 0.0
C824 C 0.17738 0.24455 0.74991 0.0
C825 C 0.16248 0.27185 0.70517 0.0
C826 C 0.16756 0.29483 0.7235 0.0
C827 C 0.18189 0.26771 0.76771 0.0
C828 C 0.16712 0.24669 0.71883 0.0
C829 C 0.17681 0.29269 0.7546 0.0
C830 C 0.10747 0.15342 0.76995 0.0
C831 C 0.18648 0.21873 0.76251 0.0
H832 H 0.05534 1.01664 0.88046 0.0
H833 H 0.10717 0.0657 0.82471 0.0
H834 H 0.07539 1.02829 0.82882 0.0
H835 H 0.10257 0.07768 0.92551 0.0
H836 H 0.16523 0.31463 0.71359 0.0
H837 H 0.19009 0.2665 0.79145 0.0
H838 H 0.1634 0.22886 0.70498 0.0
H839 H 0.18084 0.31053 0.76826 0.0
Tb840 Tb 0.6777 0.37047 0.09326 0.0
C841 C 0.66323 0.46782 0.99732 0.0
N842 N 0.64877 0.4601 0.02301 0.0
C843 C 0.638 0.50596 0.03381 0.0
C844 C 0.66792 0.49509 0.99102 0.0
C845 C 0.63394 0.47871 0.03899 0.0
C846 C 0.65587 0.51419 1.01049 0.0
C847 C 0.68605 0.45605 0.94847 0.0
C848 C 0.67163 0.44856 0.97583 0.0
C849 C 0.69238 0.483 0.94345 0.0
C850 C 0.68331 0.50248 0.96465 0.0
Tb851 Tb 0.64492 0.41489 0.0298 0.0
N852 N 0.66589 0.42248 0.98191 0.0
C853 C 0.69397 0.43623 0.92711 0.0
C854 C 0.67402 0.40307 0.96111 0.0
C855 C 0.68788 0.40963 0.93345 0.0
H856 H 0.6193 0.47269 0.0564 0.0
H857 H 0.69468 0.39405 0.91761 0.0
H858 H 0.71987 0.32043 0.07909 0.0
H859 H 0.59676 0.38035 0.17836 0.0
H860 H 0.67232 0.38251 0.96715 0.0
H861 H 0.70521 0.44119 0.90597 0.0
H862 H 0.62921 0.39717 0.1401 0.0
H863 H 0.62718 0.52056 0.04767 0.0
H864 H 0.70387 0.48904 0.92291 0.0
H865 H 0.6876 0.52329 0.95989 0.0
H866 H 0.72145 0.27193 0.09021 0.0
H867 H 0.65898 0.53532 1.00647 0.0
H868 H 0.59457 0.33217 0.19055 0.0
N869 N 0.68417 0.32657 0.10526 0.0
C870 C 0.66557 0.31575 0.12489 0.0
C871 C 0.70562 0.28403 0.10005 0.0
C872 C 0.66565 0.28823 0.13173 0.0
C873 C 0.70479 0.31145 0.09398 0.0
C874 C 0.68572 0.27228 0.11856 0.0
N875 N 0.64723 0.3591 0.13165 0.0
C876 C 0.62976 0.3763 0.14605 0.0
C877 C 0.62772 0.32202 0.16002 0.0
C878 C 0.64691 0.33254 0.13907 0.0
C879 C 0.60961 0.3395 0.17431 0.0
C880 C 0.61081 0.36674 0.16752 0.0
H881 H 0.68635 0.251 0.12308 0.0
H882 H 0.64543 0.2564 0.15687 0.0
H883 H 0.61222 0.28594 0.18153 0.0
O884 O 0.71464 0.38921 0.10134 0.0
O885 O 0.63306 0.35771 0.0855 0.0
O886 O 0.61744 0.37759 0.03946 0.0
O887 O 0.69799 0.36144 0.13518 0.0
O888 O 0.66757 0.41193 0.11401 0.0
O889 O 0.6496 0.43921 0.07562 0.0
O890 O 0.62039 0.41462 0.98984 0.0
O891 O 0.68995 0.41292 0.02001 0.0
O892 O 0.70772 0.37843 0.05073 0.0
O893 O 0.60509 0.42463 0.03804 0.0
O894 O 0.65981 0.37671 0.03875 0.0
O895 O 0.67757 0.34157 0.05397 0.0
C896 C 0.61413 0.35897 0.06271 0.0
C897 C 0.74382 0.35931 0.12818 0.0
C898 C 0.7705 0.32783 0.15813 0.0
C899 C 0.78775 0.32488 0.13224 0.0
C900 C 0.7609 0.35612 0.10201 0.0
C901 C 0.78286 0.33899 0.10418 0.0
C902 C 0.74892 0.34525 0.15611 0.0
C903 C 0.6581 0.43599 0.10549 0.0
C904 C 0.719 0.37467 0.12656 0.0
C905 C 0.64598 0.27759 0.15175 0.0
C906 C 0.6271 0.29443 0.16588 0.0
C907 C 0.7102 0.39605 0.0262 0.0
C908 C 0.57374 0.42564 0.99462 0.0
C909 C 0.54314 0.41937 0.95126 0.0
C910 C 0.5236 0.4338 0.96791 0.0
C911 C 0.55435 0.44007 1.01135 0.0
C912 C 0.56802 0.41519 0.96482 0.0
C913 C 0.52926 0.44409 0.99794 0.0
C914 C 0.66466 0.352 0.03095 0.0
C915 C 0.60013 0.42165 1.00765 0.0
H916 H 0.80456 0.31136 0.13357 0.0
H917 H 0.75704 0.3663 0.07982 0.0
H918 H 0.79588 0.33636 0.08396 0.0
H919 H 0.73559 0.34737 0.17624 0.0
H920 H 0.50424 0.43755 0.95743 0.0
H921 H 0.55868 0.44843 0.03449 0.0
H922 H 0.58293 0.40375 0.95204 0.0
H923 H 0.51434 0.4554 1.01066 0.0
Tb924 Tb 0.44094 0.92633 0.34171 0.0
C925 C 0.35565 0.9265 0.24599 0.0
N926 N 0.35902 0.91514 0.27518 0.0
C927 C 0.31367 0.92608 0.28831 0.0
C928 C 0.33177 0.9397 0.2379 0.0
C929 C 0.33782 0.91364 0.2955 0.0
C930 C 0.31073 0.93953 0.25961 0.0
C931 C 0.37456 0.93875 0.19501 0.0
C932 C 0.37667 0.9256 0.22451 0.0
C933 C 0.35098 0.95231 0.18719 0.0
C934 C 0.32957 0.95258 0.20845 0.0
Tb935 Tb 0.39888 0.89343 0.28311 0.0
N936 N 0.39941 0.91242 0.23303 0.0
C937 C 0.39624 0.93802 0.17425 0.0
C938 C 0.42002 0.91046 0.2118 0.0
C939 C 0.41895 0.92365 0.1826 0.0
H940 H 0.33856 0.90213 0.31683 0.0
H941 H 0.43557 0.92243 0.1663 0.0
H942 H 0.49264 0.95975 0.31116 0.0
H943 H 0.43422 0.8573 0.44031 0.0
H944 H 0.43719 0.89823 0.21643 0.0
H945 H 0.39548 0.94812 0.15153 0.0
H946 H 0.41644 0.88585 0.39774 0.0
H947 H 0.29717 0.92492 0.30479 0.0
H948 H 0.34903 0.96253 0.16465 0.0
H949 H 0.31141 0.96291 0.20194 0.0
H950 H 0.54159 0.95725 0.31421 0.0
H951 H 0.29199 0.94922 0.25418 0.0
H952 H 0.48291 0.85347 0.44829 0.0
N953 N 0.48638 0.92908 0.34543 0.0
C954 C 0.49791 0.91259 0.36716 0.0
C955 C 0.52952 0.94454 0.32919 0.0
C956 C 0.52581 0.91106 0.37026 0.0
C957 C 0.50173 0.94577 0.32742 0.0
C958 C 0.54163 0.9269 0.35044 0.0
N959 N 0.45462 0.89847 0.38175 0.0
C960 C 0.43766 0.8847 0.40109 0.0
C961 C 0.49253 0.88106 0.41045 0.0
C962 C 0.48151 0.89759 0.38686 0.0
C963 C 0.47523 0.86641 0.42982 0.0
C964 C 0.44771 0.86843 0.42528 0.0
H965 H 0.56317 0.92606 0.35179 0.0
H966 H 0.55836 0.89231 0.39569 0.0
H967 H 0.52925 0.8663 0.43109 0.0
O968 O 0.42471 0.96434 0.35243 0.0
O969 O 0.45473 0.88175 0.33752 0.0
O970 O 0.43386 0.8635 0.29428 0.0
O971 O 0.45548 0.94711 0.38098 0.0
O972 O 0.39875 0.92138 0.36176 0.0
O973 O 0.38032 0.88823 0.33247 0.0
O974 O 0.38673 0.87142 0.24369 0.0
O975 O 0.39724 0.93992 0.2808 0.0
O976 O 0.43759 0.95401 0.2973 0.0
O977 O 0.37462 0.85964 0.29052 0.0
O978 O 0.44101 0.8914 0.27072 0.0
O979 O 0.45806 0.92857 0.29474 0.0
C980 C 0.45288 0.86116 0.31709 0.0
C981 C 0.45713 0.99269 0.37671 0.0
C982 C 0.48674 1.01949 0.40968 0.0
C983 C 0.49756 1.03091 0.382 0.0
C984 C 0.46803 1.00418 0.34932 0.0
C985 C 0.48793 1.02356 0.35207 0.0
C986 C 0.46577 1.00114 0.40658 0.0
C987 C 0.37889 0.90405 0.35792 0.0
C988 C 0.44144 0.96813 0.37562 0.0
C989 C 0.53695 0.89399 0.39317 0.0
C990 C 0.52036 0.87922 0.4134 0.0
C991 C 0.41661 0.95824 0.27803 0.0
C992 C 0.37837 0.82569 0.25135 0.0
C993 C 0.38974 0.79329 0.21027 0.0
C994 C 0.37707 0.77333 0.22842 0.0
C995 C 0.36623 0.80545 0.26914 0.0
C996 C 0.3909 0.81932 0.22249 0.0
C997 C 0.36591 0.77934 0.25786 0.0
C998 C 0.4602 0.90876 0.27501 0.0
C999 C 0.37436 0.85369 0.26045 0.0
H1000 H 0.51403 0.04481 0.3833 0.0
H1001 H 0.46197 0.9975 0.32598 0.0
H1002 H 0.49668 1.03211 0.33093 0.0
H1003 H 0.45702 0.99206 0.42748 0.0
H1004 H 0.37489 0.75318 0.21957 0.0
H1005 H 0.35618 0.80999 0.29124 0.0
H1006 H 0.40071 0.83486 0.20901 0.0
H1007 H 0.35604 0.76388 0.2714 0.0
Tb1008 Tb 0.14206 0.41797 0.49272 0.0
C1009 C 0.1588 0.31736 0.41088 0.0
N1010 N 0.17622 0.32959 0.43095 0.0
C1011 C 0.19181 0.28686 0.44886 0.0
C1012 C 0.15668 0.28935 0.40972 0.0
C1013 C 0.19369 0.31471 0.44853 0.0
C1014 C 0.17294 0.27413 0.42974 0.0
C1015 C 0.127 0.3213 0.36773 0.0
C1016 C 0.14396 0.3331 0.39034 0.0
C1017 C 0.12423 0.2934 0.36707 0.0
C1018 C 0.13886 0.27748 0.38821 0.0
Tb1019 Tb 0.17405 0.37533 0.43219 0.0
N1020 N 0.1458 0.36019 0.39321 0.0
C1021 C 0.11302 0.33794 0.34687 0.0
C1022 C 0.13281 0.37648 0.37221 0.0
C1023 C 0.11616 0.36559 0.34893 0.0
H1024 H 0.20882 0.32429 0.46283 0.0
H1025 H 0.10559 0.37858 0.33272 0.0
H1026 H 0.14109 0.48147 0.46764 0.0
H1027 H 0.16603 0.38118 0.6112 0.0
H1028 H 0.13466 0.39786 0.37366 0.0
H1029 H 0.09981 0.32964 0.32909 0.0
H1030 H 0.14264 0.38032 0.5602 0.0
H1031 H 0.20504 0.27522 0.4637 0.0
H1032 H 0.11087 0.28395 0.35028 0.0
H1033 H 0.13667 0.25598 0.38724 0.0
H1034 H 0.1637 0.52334 0.47991 0.0
H1035 H 0.17168 0.25254 0.42988 0.0
H1036 H 0.19324 0.42011 0.62634 0.0
N1037 N 0.16004 0.45913 0.50416 0.0
C1038 C 0.17269 0.4615 0.5326 0.0
C1039 C 0.16723 0.50586 0.49443 0.0
C1040 C 0.18538 0.48547 0.54149 0.0
C1041 C 0.1552 0.48158 0.48667 0.0
C1042 C 0.18312 0.50762 0.52148 0.0
N1043 N 0.15846 0.41766 0.54419 0.0
C1044 C 0.15524 0.39716 0.56539 0.0
C1045 C 0.18503 0.44156 0.58288 0.0
C1046 C 0.17201 0.44002 0.55329 0.0
C1047 C 0.18332 0.41982 0.6035 0.0
C1048 C 0.16799 0.39776 0.59495 0.0
H1049 H 0.19236 0.52648 0.52753 0.0
H1050 H 0.20933 0.50492 0.57749 0.0
H1051 H 0.20949 0.46625 0.61351 0.0
O1052 O 0.11854 0.43353 0.52895 0.0
O1053 O 0.18782 0.41837 0.499 0.0
O1054 O 0.20371 0.38091 0.47452 0.0
O1055 O 0.10512 0.4351 0.48039 0.0
O1056 O 0.14181 0.37561 0.50525 0.0
O1057 O 0.17844 0.35914 0.47971 0.0
O1058 O 0.2087 0.39482 0.41539 0.0
O1059 O 0.12887 0.36505 0.43598 0.0
O1060 O 0.1142 0.38123 0.4836 0.0
O1061 O 0.19565 0.35727 0.39596 0.0
O1062 O 0.16729 0.41613 0.40928 0.0
O1063 O 0.14292 0.44014 0.4447 0.0
C1064 C 0.20733 0.40031 0.49644 0.0
C1065 C 0.07244 0.42991 0.52075 0.0
C1066 C 0.04324 0.41571 0.56381 0.0
C1067 C 1.02125 0.41845 0.54328 0.0
C1068 C 0.05032 0.43238 0.50065 0.0
C1069 C 1.02488 0.42639 0.51184 0.0
C1070 C 0.06881 0.42094 0.55206 0.0
C1071 C 0.15989 0.35707 0.5011 0.0
C1072 C 0.09884 0.43894 0.51011 0.0
C1073 C 0.19911 0.4868 0.57047 0.0
C1074 C 0.19909 0.46483 0.59103 0.0
C1075 C 0.11048 0.36415 0.45909 0.0
C1076 C 0.24098 0.3634 0.39655 0.0
C1077 C 0.27169 0.33353 0.36957 0.0
C1078 C 0.2883 0.33373 0.39639 0.0
C1079 C 0.2576 0.36361 0.42331 0.0
C1080 C 0.2482 0.34851 0.36992 0.0
C1081 C 0.28132 0.3489 0.42306 0.0
C1082 C 0.15433 0.4386 0.41607 0.0
C1083 C 0.21428 0.37503 0.39633 0.0
H1084 H 1.00112 0.41531 0.55168 0.0
H1085 H 0.05263 0.43945 0.47652 0.0
H1086 H 1.00782 0.42866 0.49636 0.0
H1087 H 0.08585 0.41863 0.56761 0.0
H1088 H 0.30664 0.32235 0.39664 0.0
H1089 H 0.25206 0.37456 0.44444 0.0
H1090 H 0.23473 0.34767 0.34977 0.0
H1091 H 0.29413 0.34896 0.44371 0.0
Tb1092 Tb 0.8998 0.89312 0.24222 0.0
C1093 C 0.99868 0.91445 0.15536 0.0
N1094 N 0.98708 0.93084 0.17719 0.0
C1095 C 1.03003 0.94727 0.19268 0.0
C1096 C 1.02653 0.91375 0.15157 0.0
C1097 C 1.00223 0.9479 0.19491 0.0
C1098 C 0.04224 0.92996 0.17112 0.0
C1099 C 0.99344 0.88252 0.11241 0.0
C1100 C 0.98232 0.89877 0.13623 0.0
C1101 C 1.02122 0.88188 0.10844 0.0
C1102 C 0.03773 0.89715 0.12824 0.0
Tb1103 Tb 0.94182 0.9273 0.18157 0.0
N1104 N 0.95555 0.89852 0.14231 0.0
C1105 C 0.97637 0.86683 0.09394 0.0
C1106 C 0.93889 0.88297 0.12444 0.0
C1107 C 0.94902 0.86712 0.09996 0.0
H1108 H 0.99293 0.96184 0.21106 0.0
H1109 H 0.93571 0.85486 0.08595 0.0
H1110 H 0.83615 0.88936 0.21264 0.0
H1111 H 0.92682 0.91139 0.36517 0.0
H1112 H 0.91789 0.88207 0.12923 0.0
H1113 H 0.98412 0.85417 0.07527 0.0
H1114 H 0.93482 0.89642 0.31024 0.0
H1115 H 0.04201 0.96026 0.20743 0.0
H1116 H 1.03016 0.86929 0.09047 0.0
H1117 H 0.05912 0.89621 0.12508 0.0
H1118 H 0.7937 0.91076 0.22261 0.0
H1119 H 0.06377 0.92968 0.1693 0.0
H1120 H 0.88517 0.93341 0.37973 0.0
N1121 N 0.85702 0.90929 0.25049 0.0
C1122 C 0.85272 0.921 0.27924 0.0
C1123 C 0.81036 0.91465 0.23827 0.0
C1124 C 0.82767 0.932 0.28723 0.0
C1125 C 0.83526 0.90346 0.23192 0.0
C1126 C 0.80676 0.92979 0.26557 0.0
N1127 N 0.89659 0.9089 0.29356 0.0
C1128 C 0.91629 0.90619 0.3159 0.0
C1129 C 0.86825 0.92987 0.33273 0.0
C1130 C 0.87275 0.91997 0.30185 0.0
C1131 C 0.88812 0.9267 0.35554 0.0
C1132 C 0.91201 0.91456 0.34717 0.0
H1133 H 0.78727 0.93799 0.27077 0.0
H1134 H 0.80477 0.95225 0.32356 0.0
H1135 H 0.84039 0.95034 0.36349 0.0
O1136 O 0.89175 0.86784 0.27959 0.0
O1137 O 0.90367 0.93773 0.25586 0.0
O1138 O 0.9347 0.95754 0.22313 0.0
O1139 O 0.87959 0.85647 0.23166 0.0
O1140 O 0.94181 0.89312 0.25364 0.0
O1141 O 0.95877 0.93021 0.22888 0.0
O1142 O 0.92256 0.96305 0.1674 0.0
O1143 O 0.95754 0.88395 0.18782 0.0
O1144 O 0.93493 0.86414 0.22891 0.0
O1145 O 0.95789 0.94899 0.14411 0.0
O1146 O 0.90182 0.919 0.15816 0.0
O1147 O 0.87766 0.89653 0.19496 0.0
C1148 C 0.91837 0.9593 0.2487 0.0
C1149 C 0.87209 0.82525 0.27568 0.0
C1150 C 0.87742 0.79401 0.31928 0.0
C1151 C 0.85208 0.78341 0.31206 0.0
C1152 C 0.84731 0.81418 0.26828 0.0
C1153 C 0.83742 0.79314 0.28638 0.0
C1154 C 0.88746 0.81464 0.30037 0.0
C1155 C 0.96033 0.91119 0.24998 0.0
C1156 C 0.87982 0.85062 0.26181 0.0
C1157 C 0.82375 0.94343 0.31727 0.0
C1158 C 0.84396 0.94221 0.34005 0.0
C1159 C 0.9549 0.86288 0.20723 0.0
C1160 C 0.95301 0.99442 0.14444 0.0
C1161 C 0.98164 1.02349 0.11354 0.0
C1162 C 0.98528 0.03988 0.14021 0.0
C1163 C 0.95689 1.01058 0.17115 0.0
C1164 C 0.96505 1.00121 0.11573 0.0
C1165 C 0.97261 0.03358 0.16884 0.0
C1166 C 0.87916 0.90718 0.16608 0.0
C1167 C 0.94078 0.96804 0.14612 0.0
H1168 H 0.84312 0.7681 0.3267 0.0
H1169 H 0.83511 0.82263 0.24959 0.0
H1170 H 0.81792 0.78501 0.28126 0.0
H1171 H 0.90683 0.82323 0.30544 0.0
H1172 H 0.99807 0.05726 0.13894 0.0
H1173 H 0.94863 1.00494 0.19378 0.0
H1174 H 0.96297 0.98795 0.09548 0.0
H1175 H 0.97566 0.04604 0.18949 0.0
Tb1176 Tb 0.42351 0.65092 0.99083 0.0
C1177 C 0.40797 0.75081 0.90845 0.0
N1178 N 0.39105 0.73976 0.93007 0.0
C1179 C 0.37776 0.78348 0.94715 0.0
C1180 C 0.41079 0.77868 0.90581 0.0
C1181 C 0.37512 0.7557 0.94833 0.0
C1182 C 0.39591 0.79502 0.92609 0.0
C1183 C 0.43812 0.74447 0.86407 0.0
C1184 C 0.42165 0.73393 0.888 0.0
C1185 C 0.44145 0.77225 0.86174 0.0
C1186 C 0.428 0.78929 0.88274 0.0
Tb1187 Tb 0.39167 0.69406 0.93297 0.0
N1188 N 0.41939 0.707 0.89249 0.0
C1189 C 0.45109 0.72672 0.8436 0.0
C1190 C 0.43128 0.68965 0.87186 0.0
C1191 C 0.44742 0.69924 0.84732 0.0
H1192 H 0.3605 0.74706 0.96411 0.0
H1193 H 0.45712 0.68541 0.83134 0.0
H1194 H 0.42229 0.59028 0.95647 0.0
H1195 H 0.38599 0.68363 0.10575 0.0
H1196 H 0.42871 0.66845 0.87439 0.0
H1197 H 0.46389 0.73401 0.82482 0.0
H1198 H 0.4127 0.68765 0.05771 0.0
H1199 H 0.36567 0.79599 0.96233 0.0
H1200 H 0.4544 0.78074 0.84383 0.0
H1201 H 0.43068 0.81067 0.88056 0.0
H1202 H 0.40249 0.54693 0.96622 0.0
H1203 H 0.39776 0.81655 0.92509 0.0
H1204 H 0.3633 0.64136 0.11836 0.0
N1205 N 0.40431 0.60949 0.99633 0.0
C1206 C 0.39174 0.6049 0.02451 0.0
C1207 C 0.39863 0.56324 0.98242 0.0
C1208 C 0.38051 0.57977 0.03155 0.0
C1209 C 0.40917 0.58851 0.97635 0.0
C1210 C 0.38382 0.55894 1.00986 0.0
N1211 N 0.40208 0.64929 0.03938 0.0
C1212 C 0.40154 0.66964 0.06111 0.0
C1213 C 0.37621 0.62185 0.07521 0.0
C1214 C 0.39028 0.62548 0.04657 0.0
C1215 C 0.37428 0.64323 0.09635 0.0
C1216 C 0.38706 0.66716 0.08928 0.0
H1217 H 0.37577 0.53927 0.01455 0.0
H1218 H 0.35798 0.55687 0.0659 0.0
H1219 H 0.3536 0.59393 0.10376 0.0
O1220 O 0.4449 0.63999 0.0312 0.0
O1221 O 0.37709 0.64976 0.99298 0.0
O1222 O 0.36355 0.69055 0.97667 0.0
O1223 O 0.45749 0.6265 0.98487 0.0
O1224 O 0.42594 0.69288 1.00466 0.0
O1225 O 0.38911 0.71049 0.98064 0.0
O1226 O 0.35683 0.67469 0.91629 0.0
O1227 O 0.43689 0.70437 0.9353 0.0
O1228 O 0.45302 0.6863 0.98122 0.0
O1229 O 0.36916 0.71292 0.89818 0.0
O1230 O 0.39499 0.65152 0.91287 0.0
O1231 O 0.42904 0.6336 0.94068 0.0
C1232 C 0.35891 0.66932 0.99542 0.0
C1233 C 0.4887 0.6231 0.02754 0.0
C1234 C 0.52125 0.63319 0.06869 0.0
C1235 C 0.53468 0.60931 0.06091 0.0
C1236 C 0.50282 0.59996 0.01966 0.0
C1237 C 0.52577 0.59317 0.03622 0.0
C1238 C 0.4983 0.64015 0.05144 0.0
C1239 C 0.40847 0.71214 1.00121 0.0
C1240 C 0.46159 0.62549 0.01534 0.0
C1241 C 0.36679 0.57602 0.06021 0.0
C1242 C 0.36441 0.59708 0.08183 0.0
C1243 C 0.45615 0.70419 0.9574 0.0
C1244 C 0.32415 0.70487 0.89536 0.0
C1245 C 0.29319 0.73111 0.86384 0.0
C1246 C 0.27507 0.73089 0.88926 0.0
C1247 C 0.30617 0.7047 0.92076 0.0
C1248 C 0.31758 0.71802 0.86729 0.0
C1249 C 0.28155 0.71761 0.91753 0.0
C1250 C 0.41251 0.6317 0.91591 0.0
C1251 C 0.35124 0.6945 0.89732 0.0
H1252 H 0.55162 0.60245 0.07455 0.0
H1253 H 0.49527 0.58634 1.0018 0.0
H1254 H 0.53609 0.57476 0.03077 0.0
H1255 H 0.48728 0.65805 0.05741 0.0
H1256 H 0.256 0.74085 0.88723 0.0
H1257 H 0.31128 0.69513 0.94299 0.0
H1258 H 0.33222 0.71896 0.84835 0.0
H1259 H 0.2676 0.7176 0.93709 0.0
Tb1260 Tb 0.66744 0.1747 0.74177 0.0
C1261 C 0.56857 0.15252 0.65374 0.0
N1262 N 0.57997 0.13557 0.67503 0.0
C1263 C 0.53748 0.11598 0.68614 0.0
C1264 C 0.54092 0.15217 0.64828 0.0
C1265 C 0.56507 0.11703 0.6907 0.0
C1266 C 0.52532 0.13375 0.66502 0.0
C1267 C 0.57387 0.18849 0.61568 0.0
C1268 C 0.5849 0.17038 0.63755 0.0
C1269 C 0.54624 0.18829 0.61016 0.0
C1270 C 0.52981 0.17025 0.62649 0.0
Tb1271 Tb 0.62442 0.14092 0.6832 0.0
N1272 N 0.61138 0.17122 0.64532 0.0
C1273 C 0.59084 0.20668 0.60065 0.0
C1274 C 0.62795 0.18913 0.63087 0.0
C1275 C 0.61796 0.20692 0.6082 0.0
H1276 H 0.57446 0.10331 0.70704 0.0
H1277 H 0.63114 0.22115 0.59693 0.0
H1278 H 0.72928 0.18816 0.71726 0.0
H1279 H 0.63753 0.13685 0.85797 0.0
H1280 H 0.64866 0.19043 0.63729 0.0
H1281 H 0.58317 0.22086 0.58353 0.0
H1282 H 0.63137 0.16106 0.80849 0.0
H1283 H 0.52562 0.10155 0.699 0.0
H1284 H 0.53734 0.2022 0.59357 0.0
H1285 H 0.50854 0.17048 0.62213 0.0
H1286 H 0.77428 0.17008 0.72509 0.0
H1287 H 0.50393 0.13296 0.66167 0.0
H1288 H 0.68112 0.11705 0.87098 0.0
N1289 N 0.71089 0.16196 0.7503 0.0
C1290 C 0.71571 0.14767 0.77717 0.0
C1291 C 0.75787 0.16279 0.73929 0.0
C1292 C 0.74154 0.13839 0.78449 0.0
C1293 C 0.73203 0.17204 0.73376 0.0
C1294 C 0.76252 0.1451 0.76421 0.0
N1295 N 0.67061 0.15405 0.791 0.0
C1296 C 0.65028 0.15201 0.81257 0.0
C1297 C 0.69967 0.13065 0.82755 0.0
C1298 C 0.69514 0.14419 0.79865 0.0
C1299 C 0.67851 0.12755 0.84871 0.0
C1300 C 0.65381 0.13852 0.8413 0.0
H1301 H 0.78264 0.13833 0.76891 0.0
H1302 H 0.76555 0.1165 0.81842 0.0
H1303 H 0.72881 0.10963 0.85609 0.0
O1304 O 0.67748 0.19731 0.78176 0.0
O1305 O 0.66708 0.1286 0.74897 0.0
O1306 O 0.62861 0.11295 0.72668 0.0
O1307 O 0.68494 0.21242 0.73486 0.0
O1308 O 0.62598 0.17472 0.75554 0.0
O1309 O 0.60532 0.1398 0.72987 0.0
O1310 O 0.64104 0.10281 0.67452 0.0
O1311 O 0.60544 0.18219 0.69237 0.0
O1312 O 0.63271 0.20442 0.72721 0.0
O1313 O 0.61182 0.11976 0.64323 0.0
O1314 O 0.66488 0.1488 0.65946 0.0
O1315 O 0.68981 0.17294 0.69421 0.0
C1316 C 0.64842 0.10933 0.74775 0.0
C1317 C 0.67292 0.24344 0.77516 0.0
C1318 C 0.65792 0.27259 0.81771 0.0
C1319 C 0.65071 0.29194 0.79531 0.0
C1320 C 0.66573 0.26306 0.75291 0.0
C1321 C 0.65471 0.28719 0.76304 0.0
C1322 C 0.66913 0.24847 0.80767 0.0
C1323 C 0.60595 0.15818 0.75207 0.0
C1324 C 0.68464 0.21785 0.76515 0.0
C1325 C 0.74591 0.12405 0.81263 0.0
C1326 C 0.72505 0.12033 0.8342 0.0
C1327 C 0.61033 0.20446 0.70885 0.0
C1328 C 0.60928 0.07407 0.64955 0.0
C1329 C 0.57741 0.04755 0.61978 0.0
C1330 C 0.572 1.03245 0.64703 0.0
C1331 C 0.60406 0.05874 0.67674 0.0
C1332 C 0.59627 0.068 0.62108 0.0
C1333 C 0.58557 0.03787 0.67533 0.0
C1334 C 0.68772 0.16136 0.6658 0.0
C1335 C 0.62517 0.09861 0.65051 0.0
H1336 H 0.64247 0.31089 0.80287 0.0
H1337 H 0.66859 0.25983 0.72774 0.0
H1338 H 0.64942 0.3023 0.74582 0.0
H1339 H 0.67504 0.23376 0.82521 0.0
H1340 H 0.55738 1.01656 0.64635 0.0
H1341 H 0.6136 0.06332 0.69913 0.0
H1342 H 0.59984 0.08014 0.60016 0.0
H1343 H 0.58136 1.02622 0.69636 0.0
C1344 C 0.50512 0.22097 0.0661 0.0
C1345 C 0.47722 0.22646 0.06208 0.0
C1346 C 0.5265 0.24133 0.06626 0.0
C1347 C 0.52204 0.26965 0.06121 0.0
C1348 C 0.494 0.27516 0.05634 0.0
C1349 C 0.47295 0.25459 0.05744 0.0
C1350 C 0.55454 0.23217 0.07254 0.0
C1351 C 0.48588 0.30349 0.04946 0.0
C1352 C 0.57611 0.32713 0.0895 0.0
C1353 C 0.58997 0.33667 0.06192 0.0
C1354 C 0.55475 0.30684 0.08948 0.0
C1355 C 0.54576 0.29283 0.06135 0.0
C1356 C 0.56013 0.30186 0.03346 0.0
C1357 C 0.58072 0.32299 0.03398 0.0
C1358 C 0.5415 0.30038 0.12055 0.0
C1359 C 0.55419 0.28848 1.00228 0.0
H1360 H 0.51052 0.20032 0.07011 0.0
H1361 H 0.4525 0.26086 0.05396 0.0
H1362 H 0.5681 0.23981 0.05384 0.0
H1363 H 0.56144 0.24053 0.09551 0.0
H1364 H 0.55614 0.21008 0.07356 0.0
H1365 H 0.46396 0.30571 0.04701 0.0
H1366 H 0.49301 0.31685 0.06868 0.0
H1367 H 0.49543 0.31024 0.0271 0.0
H1368 H 0.58167 0.33609 0.11191 0.0
H1369 H 0.59029 0.32829 0.01184 0.0
H1370 H 0.54601 0.27944 0.12721 0.0
H1371 H 0.51954 0.30208 0.11808 0.0
H1372 H 0.54821 0.31375 0.14 0.0
H1373 H 0.55962 0.26704 1.00382 0.0
H1374 H 0.56532 0.29762 0.98226 0.0
H1375 H 0.53253 0.2895 0.99713 0.0
C1376 C 0.5602 0.72186 0.32546 0.0
C1377 C 0.58734 0.72563 0.3154 0.0
C1378 C 0.53921 0.7425 0.32525 0.0
C1379 C 0.54343 0.76983 0.31522 0.0
C1380 C 0.5708 0.77385 0.30505 0.0
C1381 C 0.59136 0.75265 0.30496 0.0
C1382 C 0.51168 0.73461 0.3358 0.0
C1383 C 0.57883 0.80131 0.29426 0.0
C1384 C 0.48078 0.81947 0.29054 0.0
C1385 C 0.47533 0.8369 0.31696 0.0
C1386 C 0.50213 0.7991 0.28938 0.0
C1387 C 0.51996 0.79329 0.3156 0.0
C1388 C 0.51434 0.81047 0.34244 0.0
C1389 C 0.4934 0.83122 0.34259 0.0
C1390 C 0.50588 0.78376 0.25902 0.0
C1391 C 0.53084 0.80693 0.37195 0.0
H1392 H 0.5549 0.70201 0.33344 0.0
H1393 H 0.61118 0.75765 0.29673 0.0
H1394 H 0.50521 0.74754 0.35573 0.0
H1395 H 0.4974 0.73773 0.31603 0.0
H1396 H 0.51063 0.71342 0.34348 0.0
H1397 H 0.59958 0.80188 0.28515 0.0
H1398 H 0.56514 0.80839 0.27538 0.0
H1399 H 0.57712 0.81545 0.31443 0.0
H1400 H 0.46859 0.82227 0.26959 0.0
H1401 H 0.49105 0.84308 0.36375 0.0
H1402 H 0.50321 0.76211 0.26356 0.0
H1403 H 0.5265 0.78662 0.25015 0.0
H1404 H 0.49171 0.79011 0.24022 0.0
H1405 H 0.52861 0.78621 0.38091 0.0
H1406 H 0.52504 0.82102 0.39107 0.0
H1407 H 0.55222 0.80992 0.36628 0.0
C1408 C 0.09322 0.80971 0.56992 0.0
C1409 C 0.08874 0.83801 0.56866 0.0
C1410 C 0.07223 0.78917 0.56897 0.0
C1411 C 0.04405 0.79517 0.56768 0.0
C1412 C 0.03936 0.8237 0.56668 0.0
C1413 C 0.0608 0.84385 0.56664 0.0
C1414 C 0.08059 0.76033 0.56894 0.0
C1415 C 1.01098 0.83332 0.56592 0.0
C1416 C 0.98912 0.73901 0.53937 0.0
C1417 C 0.97581 0.72928 0.56722 0.0
C1418 C 1.00977 0.75993 0.53906 0.0
C1419 C 1.02027 0.77235 0.56746 0.0
C1420 C 1.0073 0.76222 0.59569 0.0
C1421 C 0.98574 0.74224 0.59518 0.0
C1422 C 1.02026 0.76909 0.50743 0.0
C1423 C 1.01667 0.77231 0.62739 0.0
H1424 H 0.11379 0.80323 0.57103 0.0
H1425 H 0.05533 0.86474 0.5656 0.0
H1426 H 0.07053 0.74949 0.58853 0.0
H1427 H 0.07425 0.75082 0.54637 0.0
H1428 H 0.10249 0.75792 0.57148 0.0
H1429 H 1.0096 0.85533 0.56329 0.0
H1430 H 1.00008 0.82369 0.54607 0.0
H1431 H 1.00083 0.82744 0.58824 0.0
H1432 H 0.98292 0.7306 0.51695 0.0
H1433 H 0.97692 0.73623 0.61751 0.0
H1434 H 0.04153 0.76341 0.50517 0.0
H1435 H 1.01918 0.79118 0.50576 0.0
H1436 H 1.009 0.76032 0.48726 0.0
H1437 H 0.03794 0.7669 0.63074 0.0
H1438 H 1.00493 0.76389 0.64736 0.0
H1439 H 1.01536 0.7944 0.62815 0.0
C1440 C 0.98594 0.32522 0.7834 0.0
C1441 C 0.97565 0.33809 0.81134 0.0
C1442 C 1.00718 0.30477 0.78303 0.0
C1443 C 1.01997 0.29439 0.81132 0.0
C1444 C 1.00945 0.30706 0.83959 0.0
C1445 C 0.98866 0.32791 0.8392 0.0
C1446 C 1.01623 0.29423 0.75139 0.0
C1447 C 1.02067 0.29889 0.87126 0.0
C1448 C 0.05915 0.22208 0.81594 0.0
C1449 C 0.08717 0.22679 0.81154 0.0
C1450 C 0.03816 0.2427 0.81505 0.0
C1451 C 0.04339 0.27097 0.81136 0.0
C1452 C 0.07172 0.27599 0.80791 0.0
C1453 C 0.09222 0.25479 0.8072 0.0
C1454 C 1.00962 0.2338 0.81775 0.0
C1455 C 0.08084 0.3045 0.80526 0.0
H1456 H 0.97765 0.33161 0.76092 0.0
H1457 H 0.98216 0.33605 0.86161 0.0
H1458 H 0.03783 0.29816 0.74831 0.0
H1459 H 1.01339 0.27227 0.75055 0.0
H1460 H 1.00529 0.30349 0.73129 0.0
H1461 H 1.00848 0.30646 0.89132 0.0
H1462 H 1.02203 0.27683 0.87301 0.0
H1463 H 0.04116 0.30697 0.87362 0.0
H1464 H 0.05316 0.20153 0.81951 0.0
H1465 H 0.11283 0.26057 0.80397 0.0
H1466 H 0.99817 0.24102 0.79689 0.0
H1467 H 1.00043 0.24275 0.83919 0.0
H1468 H 1.00773 0.21174 0.81915 0.0
H1469 H 0.07484 0.31265 0.78185 0.0
H1470 H 0.1028 0.30638 0.80767 0.0
H1471 H 0.07116 0.31691 0.82379 0.0
C1472 C 0.5639 0.84254 0.96235 0.0
C1473 C 0.59154 0.83738 0.95613 0.0
C1474 C 0.54262 0.82218 0.96206 0.0
C1475 C 0.54733 0.79397 0.95685 0.0
C1476 C 0.57528 0.78863 0.95128 0.0
C1477 C 0.59595 0.80949 0.95031 0.0
C1478 C 0.51438 0.83124 0.96718 0.0
C1479 C 0.58373 0.76016 0.94608 0.0
C1480 C 0.4957 0.73432 0.98436 0.0
C1481 C 0.48025 0.72653 0.95714 0.0
C1482 C 0.51601 0.75564 0.98478 0.0
C1483 C 0.5239 0.77072 0.957 0.0
C1484 C 0.50889 0.76252 0.92929 0.0
C1485 C 0.48796 0.74188 0.92986 0.0
C1486 C 0.52885 0.76253 0.01601 0.0
C1487 C 0.51462 0.77597 0.8981 0.0
H1488 H 0.55846 0.8631 0.96695 0.0
H1489 H 0.61629 0.80349 0.94552 0.0
H1490 H 0.50181 0.8248 0.9469 0.0
H1491 H 0.50622 0.82166 0.98884 0.0
H1492 H 0.51283 0.85325 0.96969 0.0
H1493 H 0.60575 0.75795 0.94556 0.0
H1494 H 0.57561 0.74721 0.96513 0.0
H1495 H 0.57544 0.75294 0.92322 0.0
H1496 H 0.49171 0.72381 1.00626 0.0
H1497 H 0.47777 0.73739 0.90796 0.0
H1498 H 0.52316 0.78316 0.02282 0.0
H1499 H 0.55087 0.7621 0.01376 0.0
H1500 H 0.52273 0.74874 0.03532 0.0
H1501 H 0.50434 0.79557 0.89754 0.0
H1502 H 0.50738 0.76392 0.87772 0.0
H1503 H 0.53628 0.77963 0.89514 0.0
C1504 C 0.49144 0.33164 0.68231 0.0
C1505 C 0.47485 0.33857 0.70885 0.0
C1506 C 0.51254 0.31108 0.68231 0.0
C1507 C 0.51963 0.2952 0.70977 0.0
C1508 C 0.50309 0.30207 0.73679 0.0
C1509 C 0.48173 0.32242 0.73592 0.0
C1510 C 0.52766 0.30641 0.65201 0.0
C1511 C 0.50818 0.28784 0.76764 0.0
C1512 C 0.56017 0.22393 0.70085 0.0
C1513 C 0.58757 0.22822 0.70953 0.0
C1514 C 0.53895 0.24432 0.70137 0.0
C1515 C 0.54327 0.27196 0.71 0.0
C1516 C 0.57092 0.27657 0.71855 0.0
C1517 C 0.59167 0.25556 0.71861 0.0
C1518 C 0.51115 0.23584 0.69258 0.0
C1519 C 0.57906 0.30451 0.72726 0.0
H1520 H 0.4877 0.34226 0.66054 0.0
H1521 H 0.47053 0.32604 0.75745 0.0
H1522 H 0.54908 0.31089 0.65582 0.0
H1523 H 0.52619 0.28509 0.64506 0.0
H1524 H 0.52014 0.31889 0.63216 0.0
H1525 H 0.49423 0.29421 0.78664 0.0
H1526 H 0.5063 0.26596 0.76415 0.0
H1527 H 0.52887 0.29182 0.77563 0.0
H1528 H 0.55482 0.20384 0.69382 0.0
H1529 H 0.61172 0.26103 0.7254 0.0
H1530 H 0.50468 0.24664 0.67093 0.0
H1531 H 0.49712 0.24127 0.71189 0.0
H1532 H 0.50969 0.21403 0.68812 0.0
H1533 H 0.5773 0.31753 0.70605 0.0
H1534 H 0.59986 0.30548 0.73614 0.0
H1535 H 0.56553 0.31268 0.74567 0.0
C1536 C 1.00487 0.2243 0.46364 0.0
C1537 C 0.97703 0.22906 0.4583 0.0
C1538 C 1.02577 0.24507 0.46333 0.0
C1539 C 1.02045 0.27329 0.45902 0.0
C1540 C 0.9923 0.27822 0.45442 0.0
C1541 C 0.97201 0.257 0.45347 0.0
C1542 C 0.05426 0.23643 0.46734 0.0
C1543 C 0.9832 0.30664 0.45037 0.0
C1544 C 0.07255 0.33253 0.4867 0.0
C1545 C 0.08663 0.34157 0.45901 0.0
C1546 C 0.0524 0.31106 0.48715 0.0
C1547 C 0.04351 0.29692 0.45907 0.0
C1548 C 0.05718 0.30638 0.43098 0.0
C1549 C 0.07779 0.32734 0.4314 0.0
C1550 C 0.04064 0.30317 0.51861 0.0
C1551 C 0.0503 0.29392 0.39954 0.0
H1552 H 1.01077 0.20376 0.46746 0.0
H1553 H 0.95146 0.26272 0.44962 0.0
H1554 H 0.06631 0.24368 0.447 0.0
H1555 H 0.0627 0.24553 0.48914 0.0
H1556 H 0.05627 0.21439 0.46894 0.0
H1557 H 0.96115 0.30846 0.45092 0.0
H1558 H 0.99175 0.31939 0.46937 0.0
H1559 H 0.99055 0.31444 0.42734 0.0
H1560 H 0.07778 0.34196 0.50898 0.0
H1561 H 0.08681 0.33298 0.40917 0.0
H1562 H 0.04465 0.28172 0.52319 0.0
H1563 H 1.01868 0.30574 0.518 0.0
H1564 H 0.04889 0.31505 0.53857 0.0
H1565 H 0.05947 0.2738 0.3982 0.0
H1566 H 0.05775 0.30599 0.37929 0.0
H1567 H 1.02842 0.29143 0.39709 0.0
C1568 C 0.0904 0.75214 0.22379 0.0
C1569 C 0.08866 0.72774 0.20602 0.0
C1570 C 0.06977 0.7732 0.22442 0.0
C1571 C 0.04467 0.77157 0.20742 0.0
C1572 C 0.0427 0.74682 0.18982 0.0
C1573 C 0.06373 0.72634 0.18929 0.0
C1574 C 0.07518 0.79783 0.2438 0.0
C1575 C 1.01805 0.74151 0.17044 0.0
C1576 C 0.97956 0.8181 0.23058 0.0
C1577 C 0.9774 0.8389 0.20722 0.0
C1578 C 1.00036 0.7972 0.23107 0.0
C1579 C 1.02141 0.79505 0.20765 0.0
C1580 C 1.01928 0.81588 0.18404 0.0
C1581 C 0.9985 0.83666 0.18433 0.0
C1582 C 0.99961 0.77691 0.25736 0.0
C1583 C 0.03964 0.81655 0.15787 0.0
H1584 H 0.10836 0.75509 0.23761 0.0
H1585 H 0.06016 0.70854 0.17544 0.0
H1586 H 0.07109 0.816 0.22953 0.0
H1587 H 0.06162 0.79821 0.26457 0.0
H1588 H 0.09606 0.79859 0.2525 0.0
H1589 H 1.01393 0.71977 0.1688 0.0
H1590 H 1.00025 0.75162 0.1804 0.0
H1591 H 1.02128 0.74907 0.14599 0.0
H1592 H 0.96479 0.81812 0.24929 0.0
H1593 H 0.99899 0.85155 0.16591 0.0
H1594 H 1.0177 0.77896 0.27229 0.0
H1595 H 0.99976 0.75645 0.24721 0.0
H1596 H 0.98178 0.77921 0.27271 0.0
H1597 H 0.05938 0.82176 0.16802 0.0
H1598 H 0.03454 0.8313 0.13919 0.0
H1599 H 0.04148 0.79656 0.14675 0.0
C1600 C 0.21195 0.14918 0.91271 0.0
C1601 C 0.21231 0.1615 0.88196 0.0
C1602 C 0.23398 0.15007 0.9358 0.0
C1603 C 0.25923 0.16304 0.92968 0.0
C1604 C 0.25969 0.17553 0.89882 0.0
C1605 C 0.23703 0.17522 0.87678 0.0
C1606 C 0.22966 0.13749 0.96781 0.0
C1607 C 0.28491 0.18917 0.88829 0.0
C1608 C 0.31345 0.18603 0.99729 0.0
C1609 C 0.3325 0.16483 1.00068 0.0
C1610 C 0.29025 0.18551 0.9759 0.0
C1611 C 0.28444 0.1636 0.95464 0.0
C1612 C 0.30356 0.14221 0.9579 0.0
C1613 C 0.32586 0.14278 0.98052 0.0
C1614 C 0.27125 0.20875 0.97675 0.0
C1615 C 0.30066 0.11813 0.93684 0.0
H1616 H 0.19389 0.13872 0.91926 0.0
H1617 H 0.23901 0.18642 0.85515 0.0
H1618 H 0.24621 0.12367 0.97361 0.0
H1619 H 0.22959 0.15334 0.98622 0.0
H1620 H 0.21054 0.12639 0.96912 0.0
H1621 H 0.28307 0.19804 0.86424 0.0
H1622 H 0.29039 0.20515 0.90528 0.0
H1623 H 0.3015 0.1745 0.88813 0.0
H1624 H 0.31647 0.20354 0.01193 0.0
H1625 H 0.3383 0.12532 0.98239 0.0
H1626 H 0.25089 0.20149 0.98237 0.0
H1627 H 0.27028 0.21842 0.95312 0.0
H1628 H 0.27709 0.22396 0.99462 0.0
H1629 H 0.28231 0.10706 0.94325 0.0
H1630 H 0.31788 0.10434 0.93888 0.0
H1631 H 0.29863 0.12446 0.9117 0.0
C1632 C 0.65874 0.45846 0.16461 0.0
C1633 C 0.65677 0.46089 0.13074 0.0
C1634 C 0.65748 0.48094 0.18718 0.0
C1635 C 0.65409 0.50855 0.17766 0.0
C1636 C 0.65209 0.51105 0.14359 0.0
C1637 C 0.65354 0.48828 0.12166 0.0
C1638 C 0.65947 0.47468 0.22202 0.0
C1639 C 0.64828 0.53845 0.12966 0.0
C1640 C 0.6278 0.56618 0.23969 0.0
C1641 C 0.65021 0.58262 0.248 0.0
C1642 C 0.62868 0.54323 0.21783 0.0
C1643 C 0.65273 0.53411 0.20233 0.0
C1644 C 0.67545 0.55037 0.21096 0.0
C1645 C 0.67396 0.5734 0.23261 0.0
C1646 C 0.60314 0.52846 0.2113 0.0
C1647 C 0.70225 0.54293 0.19768 0.0
H1648 H 0.66112 0.43847 0.17401 0.0
H1649 H 0.65251 0.49237 0.09661 0.0
H1650 H 0.67188 0.48974 0.23448 0.0
H1651 H 0.63924 0.47529 0.23259 0.0
H1652 H 0.66798 0.45454 0.22627 0.0
H1653 H 0.64377 0.53774 0.10387 0.0
H1654 H 0.63184 0.54899 0.14202 0.0
H1655 H 0.66667 0.55036 0.13316 0.0
H1656 H 0.60884 0.57144 0.25022 0.0
H1657 H 0.69213 0.58407 0.23802 0.0
H1658 H 0.60415 0.50838 0.22232 0.0
H1659 H 0.60045 0.52558 0.18537 0.0
H1660 H 0.58548 0.53908 0.2209 0.0
H1661 H 0.70781 0.52272 0.20622 0.0
H1662 H 0.71807 0.55726 0.20474 0.0
H1663 H 0.70134 0.54205 0.17141 0.0
C1664 C 0.33244 0.88389 0.3809 0.0
C1665 C 0.35427 0.90226 0.38327 0.0
C1666 C 0.30978 0.88267 0.40298 0.0
C1667 C 0.30695 0.89999 0.43023 0.0
C1668 C 0.3291 0.91832 0.43304 0.0
C1669 C 0.35146 0.91923 0.41048 0.0
C1670 C 0.28822 0.86252 0.39659 0.0
C1671 C 0.32962 0.93711 0.46089 0.0
C1672 C 0.23602 0.91578 0.47457 0.0
C1673 C 0.23339 0.89796 0.50098 0.0
C1674 C 0.25839 0.91617 0.45206 0.0
C1675 C 0.2815 0.89915 0.45486 0.0
C1676 C 0.27943 0.88149 0.48193 0.0
C1677 C 0.25616 0.88071 0.5032 0.0
C1678 C 0.257 0.93512 0.42439 0.0
C1679 C 0.30225 0.86289 0.48887 0.0
H1680 H 0.33283 0.87006 0.36117 0.0
H1681 H 0.36712 0.93372 0.41447 0.0
H1682 H 0.28551 0.84947 0.41759 0.0
H1683 H 0.26905 0.87302 0.39246 0.0
H1684 H 0.29271 0.84983 0.37565 0.0
H1685 H 0.34616 0.95177 0.45929 0.0
H1686 H 0.3105 0.9481 0.46267 0.0
H1687 H 0.33197 0.92541 0.48308 0.0
H1688 H 0.22021 0.92994 0.47116 0.0
H1689 H 0.25607 0.86614 0.52209 0.0
H1690 H 0.25943 0.92389 0.40187 0.0
H1691 H 0.27358 0.9497 0.42582 0.0
H1692 H 0.23788 0.94621 0.42354 0.0
H1693 H 0.30206 0.84624 0.47154 0.0
H1694 H 0.30097 0.85434 0.51315 0.0
H1695 H 0.32158 0.87346 0.48635 0.0
C1696 C 0.88589 0.59096 0.64218 0.0
C1697 C 0.90832 0.60654 0.63208 0.0
C1698 C 0.88724 0.56813 0.66423 0.0
C1699 C 0.91154 0.55917 0.67944 0.0
C1700 C 0.93415 0.57515 0.66974 0.0
C1701 C 0.93241 0.59723 0.64675 0.0
C1702 C 0.86196 0.55308 0.67109 0.0
C1703 C 0.96109 0.56869 0.68341 0.0
C1704 C 0.91231 0.51262 0.76025 0.0
C1705 C 0.91595 0.4854 0.75055 0.0
C1706 C 0.91055 0.53566 0.73843 0.0
C1707 C 0.91326 0.53364 0.70425 0.0
C1708 C 0.91781 0.50637 0.6945 0.0
C1709 C 0.91849 0.48367 0.71667 0.0
C1710 C 0.90547 0.56279 0.75244 0.0
C1711 C 0.92227 0.50088 0.6598 0.0
H1712 H 0.86678 0.59617 0.63201 0.0
H1713 H 0.95057 0.60764 0.64044 0.0
H1714 H 0.86473 0.53161 0.66548 0.0
H1715 H 0.85726 0.55452 0.69676 0.0
H1716 H 0.84478 0.56078 0.65722 0.0
H1717 H 0.97532 0.58548 0.68041 0.0
H1718 H 0.95958 0.56381 0.70903 0.0
H1719 H 0.96928 0.55092 0.67109 0.0
H1720 H 0.91012 0.51614 0.78546 0.0
H1721 H 0.92181 0.46402 0.70704 0.0
H1722 H 0.88724 0.57153 0.74173 0.0
H1723 H 0.9223 0.57631 0.74666 0.0
H1724 H 0.90298 0.56206 0.77861 0.0
H1725 H 0.90369 0.50505 0.64641 0.0
H1726 H 0.92833 0.4799 0.65531 0.0
H1727 H 0.93794 0.51435 0.65036 0.0
C1728 C 0.75296 0.92161 0.02483 0.0
C1729 C 0.7331 0.90108 0.02493 0.0
C1730 C 0.77603 0.92266 0.04634 0.0
C1731 C 0.78114 0.90298 0.07073 0.0
C1732 C 0.76127 0.88214 0.07086 0.0
C1733 C 0.73878 0.88126 0.04859 0.0
C1734 C 0.79549 0.94523 0.04229 0.0
C1735 C 0.7636 0.86017 0.0951 0.0
C1736 C 0.85528 0.89472 0.11026 0.0
C1737 C 0.85414 0.90589 0.14152 0.0
C1738 C 0.83262 0.89326 0.08821 0.0
C1739 C 0.80655 0.90401 0.09527 0.0
C1740 C 0.80548 0.91579 0.12653 0.0
C1741 C 0.82823 0.91633 0.14841 0.0
C1742 C 0.83682 0.87976 0.05672 0.0
C1743 C 0.77993 0.92878 0.13699 0.0
H1744 H 0.75062 0.93731 1.0074 0.0
H1745 H 0.72563 0.86426 0.04982 0.0
H1746 H 0.80198 0.95312 0.06566 0.0
H1747 H 0.81344 0.93769 0.0298 0.0
H1748 H 0.78694 0.96181 0.02806 0.0
H1749 H 0.74953 0.84352 0.09041 0.0
H1750 H 0.78423 0.85218 0.09561 0.0
H1751 H 0.75925 0.86834 0.11901 0.0
H1752 H 0.87418 0.88641 0.10283 0.0
H1753 H 0.82571 0.92595 0.17117 0.0
H1754 H 0.83631 0.89492 0.03756 0.0
H1755 H 0.82051 0.86531 0.05205 0.0
H1756 H 0.85618 0.86908 0.0556 0.0
H1757 H 0.77533 0.94578 0.12099 0.0
H1758 H 0.78102 0.93626 0.16177 0.0
H1759 H 0.76318 0.91443 0.13512 0.0
C1760 C 0.39547 0.60335 0.8645 0.0
C1761 C 0.4139 0.60704 0.89023 0.0
C1762 C 0.39608 0.58106 0.84166 0.0
C1763 C 0.41548 0.55968 0.84261 0.0
C1764 C 0.43419 0.56333 0.86843 0.0
C1765 C 0.43336 0.58602 0.89067 0.0
C1766 C 0.37533 0.5805 0.81588 0.0
C1767 C 0.45572 0.54278 0.87291 0.0
C1768 C 0.40012 0.48763 0.79968 0.0
C1769 C 0.41596 0.48563 0.77142 0.0
C1770 C 0.40027 0.51012 0.8222 0.0
C1771 C 0.41586 0.53407 0.81782 0.0
C1772 C 0.4317 0.53257 0.78912 0.0
C1773 C 0.43191 0.50926 0.7676 0.0
C1774 C 0.38337 0.50799 0.85157 0.0
C1775 C 0.44842 0.55637 0.78032 0.0
H1776 H 0.37996 0.61823 0.862 0.0
H1777 H 0.44848 0.58712 0.90895 0.0
H1778 H 0.38496 0.57748 0.79244 0.0
H1779 H 0.36166 0.56342 0.81986 0.0
H1780 H 0.36338 0.59914 0.81513 0.0
H1781 H 0.46676 0.54563 0.89551 0.0
H1782 H 0.44705 0.52239 0.87259 0.0
H1783 H 0.47008 0.54408 0.85297 0.0
H1784 H 0.38716 0.47114 0.80466 0.0
H1785 H 0.44492 0.50987 0.74719 0.0
H1786 H 0.36667 0.52243 0.8501 0.0
H1787 H 0.39531 0.51316 0.8729 0.0
H1788 H 0.37503 0.48768 0.85476 0.0
H1789 H 0.43511 0.5733 0.7742 0.0
H1790 H 0.46163 0.55226 0.75976 0.0
H1791 H 0.4608 0.56275 0.80077 0.0
C1792 C 0.71086 0.15221 0.6081 0.0
C1793 C 0.71205 0.16278 0.63976 0.0
C1794 C 0.73276 0.15334 0.58479 0.0
C1795 C 0.75869 0.16474 0.59148 0.0
C1796 C 0.76003 0.1753 0.62331 0.0
C1797 C 0.73762 0.17461 0.64569 0.0
C1798 C 0.72783 0.14206 0.55222 0.0
C1799 C 0.78572 0.18775 0.6343 0.0
C1800 C 0.82496 0.14495 0.53948 0.0
C1801 C 0.83152 0.16724 0.51961 0.0
C1802 C 0.80251 0.14397 0.56191 0.0
C1803 C 0.78375 0.16557 0.56621 0.0
C1804 C 0.78991 0.188 0.54585 0.0
C1805 C 0.81274 0.18857 0.52388 0.0
C1806 C 0.79917 0.11929 0.58185 0.0
C1807 C 0.77168 0.21184 0.54663 0.0
H1808 H 0.6923 0.14293 0.60102 0.0
H1809 H 0.74062 0.18376 0.66844 0.0
H1810 H 0.73485 0.15623 0.53377 0.0
H1811 H 0.73932 0.1233 0.54936 0.0
H1812 H 0.70642 0.13767 0.54808 0.0
H1813 H 0.78586 0.19144 0.66029 0.0
H1814 H 0.80285 0.17471 0.62819 0.0
H1815 H 0.78867 0.20708 0.62196 0.0
H1816 H 0.83747 0.12753 0.53739 0.0
H1817 H 0.81582 0.20634 0.50972 0.0
H1818 H 0.77824 0.11225 0.58108 0.0
H1819 H 0.80388 0.12416 0.60693 0.0
H1820 H 0.81235 0.1028 0.57396 0.0
H1821 H 0.75197 0.20609 0.53679 0.0
H1822 H 0.77963 0.22884 0.53263 0.0
H1823 H 0.76839 0.21849 0.57142 0.0
C1824 C 0.1405 0.48861 0.39607 0.0
C1825 C 0.15265 0.46312 0.39024 0.0
C1826 C 0.13993 0.5111 0.37362 0.0
C1827 C 0.15062 0.50979 0.34182 0.0
C1828 C 0.16218 0.48389 0.33529 0.0
C1829 C 0.16337 0.46202 0.35867 0.0
C1830 C 0.12757 0.53688 0.38454 0.0
C1831 C 0.17367 0.47896 0.30284 0.0
C1832 C 0.12733 0.56355 0.27326 0.0
C1833 C 0.14874 0.58225 0.26899 0.0
C1834 C 0.12771 0.54083 0.29554 0.0
C1835 C 0.14991 0.53482 0.31635 0.0
C1836 C 0.17153 0.55352 0.31204 0.0
C1837 C 0.17078 0.57574 0.28924 0.0
C1838 C 0.10381 0.52273 0.29653 0.0
C1839 C 0.19596 0.55046 0.33242 0.0
H1840 H 0.13098 0.49141 0.41873 0.0
H1841 H 0.17284 0.4435 0.3517 0.0
H1842 H 0.14069 0.55398 0.37851 0.0
H1843 H 0.10834 0.53992 0.37208 0.0
H1844 H 0.12381 0.537 0.41051 0.0
H1845 H 0.1777 0.45745 0.29861 0.0
H1846 H 0.15988 0.48635 0.2842 0.0
H1847 H 0.19265 0.49011 0.3004 0.0
H1848 H 0.10966 0.56666 0.25897 0.0
H1849 H 0.18826 0.58817 0.28712 0.0
H1850 H 0.09484 0.52316 0.32057 0.0
H1851 H 0.11008 0.50185 0.29183 0.0
H1852 H 0.08839 0.52852 0.27892 0.0
H1853 H 0.19085 0.55555 0.35732 0.0
H1854 H 0.2125 0.56358 0.32452 0.0
H1855 H 0.203 0.52948 0.3322 0.0
C1856 C 0.71178 0.67192 0.40939 0.0
C1857 C 0.71217 0.65894 0.37898 0.0
C1858 C 0.73435 0.67292 0.43187 0.0
C1859 C 0.7604 0.66159 0.42538 0.0
C1860 C 0.76092 0.64876 0.39459 0.0
C1861 C 0.73772 0.64708 0.37324 0.0
C1862 C 0.72987 0.68653 0.46324 0.0
C1863 C 0.78675 0.63682 0.38339 0.0
C1864 C 0.82694 0.68648 0.47479 0.0
C1865 C 0.83535 0.66496 0.49501 0.0
C1866 C 0.80403 0.6856 0.45281 0.0
C1867 C 0.78628 0.66292 0.44981 0.0
C1868 C 0.79421 0.64144 0.47084 0.0
C1869 C 0.81782 0.64248 0.49175 0.0
C1870 C 0.79893 0.70961 0.43222 0.0
C1871 C 0.77673 0.61708 0.47242 0.0
H1872 H 0.69337 0.68154 0.41624 0.0
H1873 H 0.73989 0.63613 0.35129 0.0
H1874 H 0.74013 0.67568 0.4827 0.0
H1875 H 0.73818 0.70702 0.46222 0.0
H1876 H 0.70833 0.68808 0.46901 0.0
H1877 H 0.78585 0.63065 0.3581 0.0
H1878 H 0.80318 0.65145 0.38639 0.0
H1879 H 0.79167 0.61909 0.39799 0.0
H1880 H 0.8388 0.70454 0.47566 0.0
H1881 H 0.82214 0.62533 0.50652 0.0
H1882 H 0.78034 0.7196 0.44 0.0
H1883 H 0.79607 0.70336 0.40717 0.0
H1884 H 0.81548 0.7243 0.43337 0.0
H1885 H 0.75676 0.6229 0.48142 0.0
H1886 H 0.78508 0.60141 0.4882 0.0
H1887 H 0.77382 0.60854 0.44841 0.0
C1888 C 0.15566 0.08278 0.71723 0.0
C1889 C 0.14906 0.08168 0.75028 0.0
C1890 C 0.15624 0.05987 0.69549 0.0
C1891 C 0.14987 1.03297 0.70505 0.0
C1892 C 0.14268 1.0316 0.73829 0.0
C1893 C 0.14235 0.05496 0.75955 0.0
C1894 C 0.16378 0.06465 0.66141 0.0
C1895 C 0.13535 1.00487 0.75201 0.0
C1896 C 0.13014 0.97662 0.63848 0.0
C1897 C 0.15295 0.95981 0.63405 0.0
C1898 C 0.12873 0.99907 0.6609 0.0
C1899 C 0.15074 1.00723 0.68083 0.0
C1900 C 0.17381 0.99037 0.67644 0.0
C1901 C 0.17452 0.96771 0.65428 0.0
C1902 C 0.10295 1.01427 0.66323 0.0
C1903 C 0.19857 0.9966 0.69515 0.0
H1904 H 0.15987 0.1022 0.70771 0.0
H1905 H 0.13703 0.05192 0.78414 0.0
H1906 H 0.1808 0.05165 0.6548 0.0
H1907 H 0.14685 0.05929 0.64572 0.0
H1908 H 0.16931 0.08571 0.65683 0.0
H1909 H 0.1261 1.00673 0.77585 0.0
H1910 H 0.12137 0.99419 0.73603 0.0
H1911 H 0.15357 0.99247 0.75419 0.0
H1912 H 0.11276 0.97216 0.6242 0.0
H1913 H 0.19275 0.95624 0.65247 0.0
H1914 H 0.10585 0.03483 0.6541 0.0
H1915 H 0.09673 1.01593 0.68842 0.0
H1916 H 0.08669 1.00464 0.6495 0.0
H1917 H 0.20618 1.01655 0.68812 0.0
H1918 H 0.21454 0.9816 0.69133 0.0
H1919 H 0.19385 0.99751 0.72084 0.0
C1920 C 0.75437 0.37531 0.99756 0.0
C1921 C 0.73615 0.39689 1.00286 0.0
C1922 C 0.77664 0.37597 0.9748 0.0
C1923 C 0.78296 0.39894 0.95534 0.0
C1924 C 0.76476 0.42076 0.96082 0.0
C1925 C 0.74257 0.41946 0.98341 0.0
C1926 C 0.79368 0.35142 0.97156 0.0
C1927 C 0.76853 0.44611 0.9422 0.0
C1928 C 0.85588 0.41101 0.91375 0.0
C1929 C 0.85365 0.40342 0.881 0.0
C1930 C 0.83423 0.40931 0.93724 0.0
C1931 C 0.80762 0.4002 0.92973 0.0
C1932 C 0.80519 0.3926 0.89683 0.0
C1933 C 0.82734 0.39378 0.87413 0.0
C1934 C 0.84012 0.41731 0.97092 0.0
C1935 C 0.77864 0.38268 0.88509 0.0
H1936 H 0.75101 0.3572 1.01102 0.0
H1937 H 0.73002 0.43687 0.98595 0.0
H1938 H 0.79583 0.34592 0.94618 0.0
H1939 H 0.81392 0.3557 0.98086 0.0
H1940 H 0.78532 0.33413 0.98471 0.0
H1941 H 0.75449 0.46206 0.94963 0.0
H1942 H 0.78924 0.45349 0.94511 0.0
H1943 H 0.76546 0.44201 0.91658 0.0
H1944 H 0.87511 0.4183 0.92155 0.0
H1945 H 0.82352 0.38679 0.85049 0.0
H1946 H 0.8367 0.40003 0.98689 0.0
H1947 H 0.82629 0.43339 0.97842 0.0
H1948 H 0.86094 0.42434 0.97403 0.0
H1949 H 0.77461 0.36272 0.89544 0.0
H1950 H 0.77799 0.38103 0.85882 0.0
H1951 H 0.76242 0.39621 0.89293 0.0
C1952 C 0.39514 1.00462 0.25466 0.0
C1953 C 0.41479 0.98379 0.2534 0.0
C1954 C 0.39372 1.02764 0.23275 0.0
C1955 C 0.41184 1.03177 0.20642 0.0
C1956 C 0.43125 1.01053 0.20454 0.0
C1957 C 0.43249 0.98807 0.22707 0.0
C1958 C 0.37223 0.04805 0.23807 0.0
C1959 C 0.45162 1.01146 0.17834 0.0
C1960 C 0.39463 0.07931 0.12941 0.0
C1961 C 0.40835 0.10421 0.13336 0.0
C1962 C 0.39549 0.0568 0.1519 0.0
C1963 C 0.41039 0.05715 0.18132 0.0
C1964 C 0.42433 0.08225 0.18547 0.0
C1965 C 0.42315 0.10448 0.16252 0.0
C1966 C 0.38026 1.03189 0.14362 0.0
C1967 C 0.44096 0.0859 0.21486 0.0
H1968 H 0.38056 1.00323 0.27351 0.0
H1969 H 0.44743 0.97314 0.22305 0.0
H1970 H 0.38131 0.0681 0.24103 0.0
H1971 H 0.35907 0.04896 0.21692 0.0
H1972 H 0.35993 0.0435 0.25929 0.0
H1973 H 0.46016 0.99145 0.17355 0.0
H1974 H 0.44291 1.01928 0.15599 0.0
H1975 H 0.46802 1.02507 0.18546 0.0
H1976 H 0.38288 0.07712 0.10802 0.0
H1977 H 0.43433 0.12246 0.16769 0.0
H1978 H 0.36608 1.02698 0.16297 0.0
H1979 H 0.39427 1.01485 0.14146 0.0
H1980 H 0.36904 0.03392 0.12103 0.0
H1981 H 0.42763 0.08769 0.23576 0.0
H1982 H 0.45366 0.10403 0.21357 0.0
H1983 H 0.45389 0.06822 0.21873 0.0
C1984 C 0.25843 0.41233 0.51315 0.0
C1985 C 0.23298 0.40093 0.5205 0.0
C1986 C 0.28114 0.41389 0.53528 0.0
C1987 C 0.28072 0.403 0.56716 0.0
C1988 C 0.25522 0.3911 0.57449 0.0
C1989 C 0.23256 0.39085 0.55236 0.0
C1990 C 0.30582 0.42787 0.5237 0.0
C1991 C 0.25169 0.37796 0.60637 0.0
C1992 C 0.35115 0.38743 0.61338 0.0
C1993 C 0.35286 0.40531 0.63981 0.0
C1994 C 0.3289 0.38652 0.59063 0.0
C1995 C 0.30591 0.40397 0.59227 0.0
C1996 C 0.3078 0.42233 0.61873 0.0
C1997 C 0.33028 0.42274 0.6411 0.0
C1998 C 0.33031 0.3664 0.5642 0.0
C1999 C 0.28657 0.44325 0.623 0.0
H2000 H 0.26075 0.42078 0.48966 0.0
H2001 H 0.21403 0.38241 0.56052 0.0
H2002 H 0.3181 0.43575 0.5435 0.0
H2003 H 0.31802 0.41358 0.50982 0.0
H2004 H 0.30052 0.44465 0.50766 0.0
H2005 H 0.23283 0.36652 0.60787 0.0
H2006 H 0.26867 0.36435 0.61131 0.0
H2007 H 0.25143 0.39329 0.62532 0.0
H2008 H 0.36758 0.37368 0.61019 0.0
H2009 H 0.33011 0.4374 0.65998 0.0
H2010 H 0.33526 0.3768 0.54174 0.0
H2011 H 0.31077 0.35639 0.56095 0.0
H2012 H 0.34581 0.35101 0.56861 0.0
H2013 H 0.29165 0.46075 0.60805 0.0
H2014 H 0.2854 0.45005 0.64806 0.0
H2015 H 0.26666 0.43615 0.61546 0.0
C2016 C 0.93594 0.091 0.38396 0.0
C2017 C 0.91254 0.10663 0.38986 0.0
C2018 C 0.93758 0.0688 0.36119 0.0
C2019 C 0.91519 0.05948 0.34259 0.0
C2020 C 0.89145 0.07501 0.3487 0.0
C2021 C 0.89055 0.09765 0.37092 0.0
C2022 C 0.9641 0.05533 0.35668 0.0
C2023 C 0.86614 0.06726 0.33191 0.0
C2024 C 0.92277 1.01254 0.26299 0.0
C2025 C 0.91798 0.9854 0.27233 0.0
C2026 C 0.92197 0.03578 0.28445 0.0
C2027 C 0.91638 0.0339 0.31808 0.0
C2028 C 0.91191 1.00664 0.32773 0.0
C2029 C 0.91263 0.98388 0.30571 0.0
C2030 C 0.92722 0.06296 0.27063 0.0
C2031 C 0.90618 1.0013 0.3622 0.0
H2032 H 0.95368 0.0964 0.39711 0.0
H2033 H 0.87186 0.10813 0.37395 0.0
H2034 H 0.9622 0.03357 0.36095 0.0
H2035 H 0.97073 0.05798 0.33176 0.0
H2036 H 0.97965 0.06349 0.37273 0.0
H2037 H 0.84954 0.08127 0.33698 0.0
H2038 H 0.86949 0.06656 0.3059 0.0
H2039 H 0.86013 0.04691 0.33949 0.0
H2040 H 0.9267 1.01605 0.23819 0.0
H2041 H 0.90943 0.96426 0.31524 0.0
H2042 H 0.94437 0.07233 0.28299 0.0
H2043 H 0.90967 0.07603 0.27451 0.0
H2044 H 0.93155 0.06213 0.24481 0.0
H2045 H 0.92224 1.00978 0.37722 0.0
H2046 H 0.90443 0.9797 0.36744 0.0
H2047 H 0.88733 1.01135 0.36906 0.0
C2048 C 0.2107 0.67087 0.10597 0.0
C2049 C 0.21248 0.66128 0.13797 0.0
C2050 C 0.23326 0.67275 0.0837 0.0
C2051 C 0.25997 0.6636 0.09105 0.0
C2052 C 0.26166 0.65333 0.1231 0.0
C2053 C 0.23907 0.65287 0.14533 0.0
C2054 C 0.22804 0.68513 0.05177 0.0
C2055 C 0.28794 0.6425 0.13453 0.0
C2056 C 0.31382 0.64687 0.02004 0.0
C2057 C 0.3334 0.66773 0.01978 0.0
C2058 C 0.29078 0.64555 0.04172 0.0
C2059 C 0.28547 0.66504 0.06633 0.0
C2060 C 0.30556 0.68575 0.06674 0.0
C2061 C 0.32797 0.68693 0.04424 0.0
C2062 C 0.2717 0.62262 0.03806 0.0
C2063 C 0.30356 0.70778 0.09092 0.0
H2064 H 0.19135 0.67781 0.09813 0.0
H2065 H 0.24237 0.645 0.16892 0.0
H2066 H 0.24564 0.69641 0.04313 0.0
H2067 H 0.22357 0.66912 0.03439 0.0
H2068 H 0.21064 0.69883 0.05255 0.0
H2069 H 0.28556 0.62983 0.15597 0.0
H2070 H 0.29779 0.63059 0.11566 0.0
H2071 H 0.30131 0.65938 0.14059 0.0
H2072 H 0.31619 0.63125 1.00252 0.0
H2073 H 0.34191 0.70315 0.04671 0.0
H2074 H 0.25231 0.63025 0.02925 0.0
H2075 H 0.26805 0.61303 0.0614 0.0
H2076 H 0.27912 0.60736 0.02113 0.0
H2077 H 0.29372 0.72528 0.0798 0.0
H2078 H 0.32368 0.71404 0.09887 0.0
H2079 H 0.29183 0.70197 0.11208 0.0
C2080 C 0.67184 0.07646 0.79096 0.0
C2081 C 0.64959 0.08314 0.77114 0.0
C2082 C 0.67288 0.05395 0.81334 0.0
C2083 C 0.65158 0.03482 0.81719 0.0
C2084 C 0.6293 0.0408 0.79645 0.0
C2085 C 0.62846 0.06407 0.77502 0.0
C2086 C 0.69719 0.05112 0.83396 0.0
C2087 C 0.60561 1.02237 0.79651 0.0
C2088 C 0.66771 0.96265 0.86009 0.0
C2089 C 0.65551 0.963 0.89092 0.0
C2090 C 0.66603 0.98443 0.83656 0.0
C2091 C 0.65265 1.00962 0.84238 0.0
C2092 C 0.64029 1.01003 0.87325 0.0
C2093 C 0.64128 0.98755 0.89558 0.0
C2094 C 0.67853 0.97997 0.80455 0.0
C2095 C 0.626 0.03501 0.88348 0.0
H2096 H 0.68922 0.08899 0.78886 0.0
H2097 H 0.61065 0.06722 0.76099 0.0
H2098 H 0.69162 0.05512 0.85901 0.0
H2099 H 0.70503 1.03047 0.83288 0.0
H2100 H 0.71331 0.06506 0.82696 0.0
H2101 H 0.59433 1.02364 0.77387 0.0
H2102 H 0.61176 1.00133 0.80039 0.0
H2103 H 0.59195 1.02814 0.81601 0.0
H2104 H 0.67859 0.94477 0.85374 0.0
H2105 H 0.63032 0.98965 0.91717 0.0
H2106 H 0.69732 0.99149 0.80288 0.0
H2107 H 0.66507 0.98712 0.78542 0.0
H2108 H 0.68316 0.95858 0.80036 0.0
H2109 H 0.64039 0.05183 0.88436 0.0
H2110 H 0.61654 1.03289 0.90717 0.0
H2111 H 0.61042 0.04035 0.86596 0.0
C2112 C 0.54545 0.13765 0.91013 0.0
C2113 C 0.5252 0.15359 0.92245 0.0
C2114 C 0.55175 0.13864 0.87792 0.0
C2115 C 0.53752 0.1563 0.8578 0.0
C2116 C 0.51605 0.1715 0.86991 0.0
C2117 C 0.50992 0.16975 0.90231 0.0
C2118 C 0.57461 0.12184 0.86586 0.0
C2119 C 0.49992 0.18981 0.84887 0.0
C2120 C 0.58446 0.18221 0.79663 0.0
C2121 C 0.58352 0.16135 0.77437 0.0
C2122 C 0.56803 0.18201 0.82321 0.0
C2123 C 0.5485 0.16184 0.82602 0.0
C2124 C 0.54421 0.14375 0.80075 0.0
C2125 C 0.56242 0.14309 0.77551 0.0
C2126 C 0.57383 0.2014 0.84989 0.0
C2127 C 0.52176 0.12378 0.80156 0.0
H2128 H 0.55654 0.12461 0.92588 0.0
H2129 H 0.49375 0.1815 0.9121 0.0
H2130 H 0.56748 0.10809 0.84707 0.0
H2131 H 0.59003 0.13485 0.85514 0.0
H2132 H 0.584 0.10973 0.88491 0.0
H2133 H 0.48644 0.20293 0.86278 0.0
H2134 H 0.51304 0.20254 0.83405 0.0
H2135 H 0.48769 0.17759 0.83244 0.0
H2136 H 0.59984 0.19735 0.79507 0.0
H2137 H 0.56079 0.12761 0.75771 0.0
H2138 H 0.58136 0.19028 0.87085 0.0
H2139 H 0.55541 0.21192 0.85722 0.0
H2140 H 0.58899 0.21656 0.84322 0.0
H2141 H 0.52813 0.10583 0.81496 0.0
H2142 H 0.51613 0.1174 0.77721 0.0
H2143 H 0.50397 0.13226 0.81352 0.0
C2144 C 0.63573 0.79792 0.16255 0.0
C2145 C 0.65779 0.78208 0.17036 0.0
C2146 C 0.63251 0.80805 0.13179 0.0
C2147 C 0.65198 0.80236 0.1085 0.0
C2148 C 0.67327 0.7848 0.11565 0.0
C2149 C 0.6759 0.7748 0.14657 0.0
C2150 C 0.60936 0.8264 0.12486 0.0
C2151 C 0.69461 0.77852 0.09149 0.0
C2152 C 0.64299 0.82482 0.02305 0.0
C2153 C 0.65765 0.84861 0.02294 0.0
C2154 C 0.64026 0.80965 0.05087 0.0
C2155 C 0.65288 0.81845 0.07902 0.0
C2156 C 0.66778 0.84241 0.07889 0.0
C2157 C 0.67017 0.8569 0.05071 0.0
C2158 C 0.6252 0.7836 0.04967 0.0
C2159 C 0.68193 0.85236 0.10829 0.0
H2160 H 0.62148 0.80314 0.18084 0.0
H2161 H 0.69302 0.76261 0.15259 0.0
H2162 H 0.61675 0.84716 0.12217 0.0
H2163 H 0.5996 0.82074 0.10221 0.0
H2164 H 0.59423 0.82606 0.14409 0.0
H2165 H 0.70712 0.76131 0.09886 0.0
H2166 H 0.68565 0.7741 0.068 0.0
H2167 H 0.70777 0.79615 0.08851 0.0
H2168 H 0.63462 0.81749 1.00103 0.0
H2169 H 0.68253 0.87437 0.05039 0.0
H2170 H 0.61012 0.78282 0.06887 0.0
H2171 H 0.63921 0.76679 0.05361 0.0
H2172 H 0.61505 0.78055 0.0265 0.0
H2173 H 0.66703 0.85728 0.12683 0.0
H2174 H 0.69428 0.87032 0.10355 0.0
H2175 H 0.69516 0.83668 0.11809 0.0
C2176 C 0.99143 0.88503 0.28314 0.0
C2177 C 0.9832 0.90986 0.27136 0.0
C2178 C 1.00893 0.88344 0.30884 0.0
C2179 C 1.01765 0.90731 0.3233 0.0
C2180 C 1.01173 0.93234 0.30914 0.0
C2181 C 0.9946 0.93328 0.283 0.0
C2182 C 1.01555 0.8563 0.32224 0.0
C2183 C 1.02076 0.95831 0.32384 0.0
C2184 C 1.01501 0.9181 0.41076 0.0
C2185 C 0.04143 0.92482 0.41693 0.0
C2186 C 1.00743 0.90928 0.38077 0.0
C2187 C 1.02681 0.90708 0.35655 0.0
C2188 C 0.05405 0.91026 0.36384 0.0
C2189 C 0.06115 0.91945 0.3941 0.0
C2190 C 0.97828 0.90532 0.37417 0.0
C2191 C 0.0753 0.90593 0.33908 0.0
H2192 H 0.983 0.86684 0.2735 0.0
H2193 H 0.98829 0.95241 0.27359 0.0
H2194 H 0.03442 0.85648 0.33595 0.0
H2195 H 0.99926 0.84977 0.33823 0.0
H2196 H 1.01715 0.84127 0.30292 0.0
H2197 H 1.01688 0.97567 0.30808 0.0
H2198 H 1.00998 0.96156 0.34651 0.0
H2199 H 0.04235 0.95763 0.32929 0.0
H2200 H 1.00004 0.92107 0.42897 0.0
H2201 H 0.08185 0.92389 0.39919 0.0
H2202 H 0.9748 0.88608 0.36186 0.0
H2203 H 0.97135 0.9216 0.35832 0.0
H2204 H 0.96618 0.90561 0.39624 0.0
H2205 H 0.07086 0.88789 0.32474 0.0
H2206 H 0.09535 0.90374 0.34996 0.0
H2207 H 0.07575 0.92323 0.32266 0.0
C2208 C 0.92792 0.24765 0.52918 0.0
C2209 C 0.90497 0.23244 0.52418 0.0
C2210 C 0.9297 0.26491 0.55516 0.0
C2211 C 0.90861 0.26545 0.57739 0.0
C2212 C 0.88467 0.25129 0.57115 0.0
C2213 C 0.88297 0.23531 0.54404 0.0
C2214 C 0.95488 0.28092 0.5597 0.0
C2215 C 0.86188 0.2508 0.59456 0.0
C2216 C 0.92243 0.26697 0.66489 0.0
C2217 C 0.90818 0.28975 0.67401 0.0
C2218 C 0.92441 0.2597 0.63298 0.0
C2219 C 0.91298 0.27636 0.60953 0.0
C2220 C 0.90199 0.30125 0.61811 0.0
C2221 C 0.89909 0.30745 0.65038 0.0
C2222 C 0.93679 0.2331 0.62471 0.0
C2223 C 0.89181 0.32046 0.5933 0.0
H2224 H 0.94479 0.24538 0.51342 0.0
H2225 H 0.86534 0.22327 0.53989 0.0
H2226 H 0.95117 0.29947 0.57338 0.0
H2227 H 0.96972 0.26876 0.57277 0.0
H2228 H 0.96382 0.28628 0.53643 0.0
H2229 H 0.84437 0.2396 0.58541 0.0
H2230 H 0.86855 0.24125 0.61698 0.0
H2231 H 0.85547 0.27139 0.60036 0.0
H2232 H 0.93077 0.25393 0.68283 0.0
H2233 H 0.88834 0.32537 0.65685 0.0
H2234 H 0.95371 0.23603 0.60822 0.0
H2235 H 0.92195 0.22041 0.61241 0.0
H2236 H 0.94413 0.22223 0.64595 0.0
H2237 H 0.90624 0.32205 0.57342 0.0
H2238 H 0.8883 0.34068 0.60328 0.0
H2239 H 0.8728 0.31298 0.58327 0.0
C2240 C 0.51964 0.8904 0.11719 0.0
C2241 C 0.54256 0.90504 0.11015 0.0
C2242 C 0.51319 0.8846 0.14861 0.0
C2243 C 0.53015 0.894 0.17301 0.0
C2244 C 0.55537 0.90478 0.16562 0.0
C2245 C 0.56132 0.91039 0.13393 0.0
C2246 C 0.48651 0.87198 0.15565 0.0
C2247 C 0.57429 0.91383 0.19128 0.0
C2248 C 0.48889 0.92851 0.23441 0.0
C2249 C 0.48336 0.90727 0.25448 0.0
C2250 C 0.5053 0.92485 0.20815 0.0
C2251 C 0.51821 0.8999 0.20401 0.0
C2252 C 0.51598 0.87986 0.22738 0.0
C2253 C 0.49776 0.88355 0.252 0.0
C2254 C 0.50632 0.94663 0.18332 0.0
C2255 C 0.53101 0.85385 0.22537 0.0
H2256 H 0.50578 0.88534 0.09836 0.0
H2257 H 0.57944 0.92115 0.12819 0.0
H2258 H 0.48827 0.85708 0.17497 0.0
H2259 H 0.47239 0.88764 0.16363 0.0
H2260 H 0.47793 0.86201 0.13442 0.0
H2261 H 0.59501 0.91545 0.18225 0.0
H2262 H 0.56808 0.93378 0.20001 0.0
H2263 H 0.57391 0.89988 0.21174 0.0
H2264 H 0.47867 0.94717 0.23782 0.0
H2265 H 0.49429 0.86771 0.26872 0.0
H2266 H 0.49521 0.94005 0.1619 0.0
H2267 H 0.52711 0.95082 0.17609 0.0
H2268 H 0.49732 0.96552 0.19193 0.0
H2269 H 0.51844 0.83872 0.21332 0.0
H2270 H 0.53559 0.84615 0.2495 0.0
H2271 H 0.54988 0.85598 0.21192 0.0
C2272 C 0.38469 0.28431 0.86538 0.0
C2273 C 0.4067 0.29302 0.84802 0.0
C2274 C 0.38738 0.2772 0.89729 0.0
C2275 C 0.41268 0.27933 0.91204 0.0
C2276 C 0.43429 0.2909 0.89533 0.0
C2277 C 0.43114 0.29728 0.86313 0.0
C2278 C 0.36374 0.26511 0.91422 0.0
C2279 C 0.4612 0.2948 0.91065 0.0
C2280 C 0.40653 0.25453 0.99644 0.0
C2281 C 0.41477 0.22802 0.99256 0.0
C2282 C 0.40913 0.27288 0.97135 0.0
C2283 C 0.41762 0.26365 0.94121 0.0
C2284 C 0.42735 0.23733 0.9379 0.0
C2285 C 0.42763 0.22066 0.96429 0.0
C2286 C 0.40205 0.30172 0.97696 0.0
C2287 C 0.43501 0.22568 0.90601 0.0
H2288 H 0.36571 0.28173 0.85346 0.0
H2289 H 0.44793 0.3047 0.84955 0.0
H2290 H 0.36827 0.2442 0.92109 0.0
H2291 H 0.35948 0.27639 0.93625 0.0
H2292 H 0.34547 0.26514 0.89931 0.0
H2293 H 0.47198 0.31184 0.89971 0.0
H2294 H 0.45935 0.29833 0.93656 0.0
H2295 H 0.47355 0.27669 0.90706 0.0
H2296 H 0.39827 0.26096 0.0189 0.0
H2297 H 0.43607 0.20088 0.96167 0.0
H2298 H 0.38037 0.30462 0.97334 0.0
H2299 H 0.41294 0.31516 0.96051 0.0
H2300 H 0.40674 0.3076 1.00177 0.0
H2301 H 0.41771 0.22664 0.88961 0.0
H2302 H 0.44148 0.20452 0.90774 0.0
H2303 H 0.4514 0.23729 0.89516 0.0
C2304 C 0.09165 0.13472 0.71991 0.0
C2305 C 0.08698 0.15112 0.74596 0.0
C2306 C 0.07518 0.13615 0.69334 0.0
C2307 C 0.05329 0.15404 0.69354 0.0
C2308 C 0.04733 0.16909 0.72104 0.0
C2309 C 0.06464 0.16767 0.74703 0.0
C2310 C 0.08241 0.11994 0.66433 0.0
C2311 C 1.02353 0.18748 0.72246 0.0
C2312 C 0.04143 0.17649 0.61012 0.0
C2313 C 1.02404 0.15653 0.59955 0.0
C2314 C 0.04923 0.17768 0.64193 0.0
C2315 C 0.03889 0.15876 0.66361 0.0
C2316 C 1.0189 0.14071 0.65395 0.0
C2317 C 1.01197 0.13949 0.62184 0.0
C2318 C 0.07062 0.19734 0.65149 0.0
C2319 C 1.00681 0.12089 0.67679 0.0
H2320 H 0.10915 0.12203 0.71957 0.0
H2321 H 0.0613 0.18011 0.76764 0.0
H2322 H 0.06519 0.10765 0.65667 0.0
H2323 H 0.08753 0.13352 0.64444 0.0
H2324 H 0.09964 0.10648 0.66864 0.0
H2325 H 1.02133 0.19704 0.74611 0.0
H2326 H 1.0254 0.20336 0.70427 0.0
H2327 H 1.00509 0.17615 0.71703 0.0
H2328 H 0.05001 0.19035 0.59323 0.0
H2329 H 0.99839 0.12401 0.61407 0.0
H2330 H 0.0897 0.18652 0.65498 0.0
H2331 H 0.06553 0.20716 0.67427 0.0
H2332 H 0.07373 0.213 0.6332 0.0
H2333 H 1.02045 0.10361 0.67952 0.0
H2334 H 0.98734 0.11332 0.66805 0.0
H2335 H 1.00394 0.12989 0.70059 0.0
C2336 C 0.18028 0.8196 0.49052 0.0
C2337 C 0.15738 0.83272 0.50097 0.0
C2338 C 0.17921 0.80287 0.46396 0.0
C2339 C 0.15461 0.79922 0.44795 0.0
C2340 C 0.1309 0.8096 0.4611 0.0
C2341 C 0.1326 0.82651 0.48744 0.0
C2342 C 0.20489 0.79161 0.451 0.0
C2343 C 0.10416 0.80487 0.4457 0.0
C2344 C 0.16683 0.8029 0.36039 0.0
C2345 C 0.17112 0.77609 0.35298 0.0
C2346 C 0.15926 0.81052 0.39086 0.0
C2347 C 0.1551 0.79075 0.41433 0.0
C2348 C 0.15592 0.76346 0.40594 0.0
C2349 C 0.1644 0.75634 0.37531 0.0
C2350 C 0.15846 0.83985 0.39862 0.0
C2351 C 0.14979 0.7418 0.42971 0.0
H2352 H 0.19935 0.82413 0.50137 0.0
H2353 H 0.11469 0.83603 0.49632 0.0
H2354 H 0.20249 0.77014 0.44532 0.0
H2355 H 0.21016 0.80213 0.42868 0.0
H2356 H 0.22168 0.79386 0.46798 0.0
H2357 H 0.08743 0.81121 0.46122 0.0
H2358 H 0.10289 0.81623 0.42315 0.0
H2359 H 0.10172 0.78342 0.43981 0.0
H2360 H 0.17092 0.81813 0.34276 0.0
H2361 H 0.16719 0.73543 0.3696 0.0
H2362 H 0.17503 0.84458 0.41515 0.0
H2363 H 0.13953 0.84513 0.4106 0.0
H2364 H 0.16054 0.85255 0.37715 0.0
H2365 H 0.16845 0.73575 0.44185 0.0
H2366 H 0.14148 0.72389 0.41773 0.0
H2367 H 0.13547 0.74867 0.44803 0.0
C2368 C 0.04487 0.6383 0.40737 0.0
C2369 C 1.01731 0.63733 0.41127 0.0
C2370 C 0.05585 0.64839 0.37951 0.0
C2371 C 0.03869 0.65727 0.35502 0.0
C2372 C 1.01098 0.65926 0.36045 0.0
C2373 C 1.00048 0.6492 0.38885 0.0
C2374 C 0.08558 0.6466 0.37497 0.0
C2375 C 0.99221 0.66949 0.33528 0.0
C2376 C 0.07867 0.68246 0.28618 0.0
C2377 C 0.08364 0.65839 0.27025 0.0
C2378 C 0.0617 0.68321 0.31241 0.0
C2379 C 0.04954 0.65931 0.32261 0.0
C2380 C 0.05223 0.63564 0.30443 0.0
C2381 C 0.06937 0.63546 0.27831 0.0
C2382 C 0.05908 0.70889 0.33088 0.0
C2383 C 0.03919 0.6098 0.31443 0.0
H2384 H 0.05772 0.62973 0.4254 0.0
H2385 H 0.97909 0.6489 0.39252 0.0
H2386 H 0.08999 0.62948 0.35911 0.0
H2387 H 0.09344 0.66494 0.3636 0.0
H2388 H 0.09626 0.64345 0.39777 0.0
H2389 H 0.97359 0.67742 0.34597 0.0
H2390 H 1.00158 0.68537 0.32071 0.0
H2391 H 0.98677 0.6528 0.31922 0.0
H2392 H 0.08931 0.70041 0.27938 0.0
H2393 H 0.07311 0.61691 0.26582 0.0
H2394 H 0.07328 0.70861 0.35107 0.0
H2395 H 0.03873 0.71121 0.34074 0.0
H2396 H 0.06377 0.72653 0.3159 0.0
H2397 H 0.0493 0.60197 0.33594 0.0
H2398 H 0.04032 0.59434 0.29558 0.0
H2399 H 1.01796 0.61318 0.32053 0.0
C2400 C 0.16513 0.25761 0.64773 0.0
C2401 C 0.15461 0.27461 0.6712 0.0
C2402 C 0.16247 0.26386 0.61538 0.0
C2403 C 0.15018 0.28815 0.60662 0.0
C2404 C 0.13696 0.30365 0.62985 0.0
C2405 C 0.13884 0.2963 0.66178 0.0
C2406 C 0.17495 0.24583 0.59085 0.0
C2407 C 0.12298 0.32941 0.62149 0.0
C2408 C 0.18146 0.33172 0.54406 0.0
C2409 C 0.16024 0.33455 0.52308 0.0
C2410 C 0.1791 0.31527 0.57072 0.0
C2411 C 0.15547 0.30013 0.57509 0.0
C2412 C 0.13564 0.30011 0.55121 0.0
C2413 C 0.13798 0.31799 0.5258 0.0
C2414 C 0.20073 0.31651 0.59561 0.0
C2415 C 0.11128 0.28255 0.55321 0.0
H2416 H 0.17697 0.24044 0.65444 0.0
H2417 H 0.12938 0.30866 0.6796 0.0
H2418 H 0.1627 0.24524 0.56891 0.0
H2419 H 0.19492 0.25358 0.58435 0.0
H2420 H 0.17741 0.22518 0.59999 0.0
H2421 H 0.11311 0.33873 0.64232 0.0
H2422 H 0.13759 0.34377 0.61166 0.0
H2423 H 0.10773 0.32588 0.60296 0.0
H2424 H 0.19903 0.34387 0.5409 0.0
H2425 H 0.12218 0.31945 0.50848 0.0
H2426 H 0.20491 0.29663 0.60591 0.0
H2427 H 0.1941 0.32979 0.61517 0.0
H2428 H 0.21961 0.32452 0.58574 0.0
H2429 H 0.11573 0.26348 0.56552 0.0
H2430 H 0.10329 0.27808 0.52919 0.0
H2431 H 0.09541 0.293 0.56662 0.0
C2432 C 0.48245 0.43315 0.79358 0.0
C2433 C 0.47924 0.41192 0.77266 0.0
C2434 C 0.49863 0.43018 0.82027 0.0
C2435 C 0.51201 0.40555 0.82523 0.0
C2436 C 0.51083 0.38513 0.80224 0.0
C2437 C 0.49406 0.38855 0.77621 0.0
C2438 C 0.49942 0.45248 0.84442 0.0
C2439 C 0.52519 0.35886 0.80623 0.0
C2440 C 0.55633 0.41553 0.89471 0.0
C2441 C 0.53819 0.40975 0.91907 0.0
C2442 C 0.54949 0.41072 0.86312 0.0
C2443 C 0.52399 0.40041 0.85638 0.0
C2444 C 0.50746 0.39094 0.88112 0.0
C2445 C 0.51468 0.39607 0.91242 0.0
C2446 C 0.56826 0.41916 0.83703 0.0
C2447 C 0.48058 0.37873 0.87486 0.0
H2448 H 0.47068 0.45112 0.79046 0.0
H2449 H 0.49161 0.37249 0.75939 0.0
H2450 H 0.48968 0.44581 0.86669 0.0
H2451 H 0.52033 0.45774 0.85021 0.0
H2452 H 0.48909 0.47076 0.83591 0.0
H2453 H 0.5299 0.34982 0.78282 0.0
H2454 H 0.54391 0.36113 0.81997 0.0
H2455 H 0.5121 0.34468 0.81912 0.0
H2456 H 0.57496 0.42551 0.90009 0.0
H2457 H 0.50129 0.39071 0.93158 0.0
H2458 H 0.56202 0.43892 0.82772 0.0
H2459 H 0.56765 0.40477 0.81702 0.0
H2460 H 0.58908 0.42085 0.84575 0.0
H2461 H 0.46641 0.39518 0.87085 0.0
H2462 H 0.47345 0.36678 0.89538 0.0
H2463 H 0.48066 0.36596 0.85341 0.0
C2464 C 0.38459 0.74259 0.03777 0.0
C2465 C 0.40856 0.73374 0.0247 0.0
C2466 C 0.3845 0.75643 0.06664 0.0
C2467 C 0.4091 0.76342 0.08096 0.0
C2468 C 0.43328 0.75799 0.06509 0.0
C2469 C 0.43273 0.74243 0.03757 0.0
C2470 C 0.35825 0.76103 0.08327 0.0
C2471 C 0.4598 0.76628 0.07872 0.0
C2472 C 0.3979 0.80635 0.15319 0.0
C2473 C 0.39958 0.7873 0.1777 0.0
C2474 C 0.40362 0.79943 0.12168 0.0
C2475 C 0.4095 0.77257 0.11431 0.0
C2476 C 0.41316 0.7538 0.1391 0.0
C2477 C 0.40889 0.76167 0.17046 0.0
C2478 C 0.4024 0.82061 0.0962 0.0
C2479 C 0.42043 0.72492 0.13349 0.0
H2480 H 0.36596 0.73671 0.02694 0.0
H2481 H 0.45122 0.73599 0.02698 0.0
H2482 H 0.3579 0.74952 0.10579 0.0
H2483 H 0.35585 0.78236 0.08951 0.0
H2484 H 0.34096 0.75488 0.06852 0.0
H2485 H 0.47571 0.76607 0.06039 0.0
H2486 H 0.45859 0.78657 0.0892 0.0
H2487 H 0.46553 0.75217 0.09785 0.0
H2488 H 0.39102 0.82641 0.15811 0.0
H2489 H 0.41181 0.74717 0.18922 0.0
H2490 H 0.38317 0.8193 0.08337 0.0
H2491 H 0.41857 0.8177 0.07856 0.0
H2492 H 0.40413 0.841 0.10637 0.0
H2493 H 0.40554 0.7119 0.14531 0.0
H2494 H 0.43991 0.72071 0.14493 0.0
H2495 H 0.42173 0.71918 0.10819 0.0
C2496 C 0.05452 0.42256 0.62138 0.0
C2497 C 0.03921 0.40964 0.59797 0.0
C2498 C 0.04783 0.42046 0.65355 0.0
C2499 C 1.02483 0.40601 0.6622 0.0
C2500 C 1.01091 0.39089 0.63918 0.0
C2501 C 1.01853 0.39262 0.60735 0.0
C2502 C 0.06407 0.4354 0.67795 0.0
C2503 C 0.98651 0.37477 0.64762 0.0
C2504 C 0.99868 0.39367 0.74476 0.0
C2505 C 0.98009 0.41431 0.74716 0.0
C2506 C 1.01541 0.39189 0.7183 0.0
C2507 C 1.01236 0.41063 0.69345 0.0
C2508 C 0.99467 0.43253 0.69699 0.0
C2509 C 0.9791 0.43435 0.72434 0.0
C2510 C 0.03498 0.36909 0.71622 0.0
C2511 C 0.99035 0.45271 0.67083 0.0
H2512 H 0.07073 0.43565 0.61464 0.0
H2513 H 1.00737 0.38167 0.58959 0.0
H2514 H 0.05345 0.4539 0.68494 0.0
H2515 H 0.06674 0.42315 0.69967 0.0
H2516 H 0.08399 0.44104 0.66863 0.0
H2517 H 0.97899 0.36283 0.62729 0.0
H2518 H 0.99078 0.36111 0.66764 0.0
H2519 H 0.97053 0.38843 0.6555 0.0
H2520 H 0.99947 0.3785 0.76304 0.0
H2521 H 0.96465 0.45025 0.72673 0.0
H2522 H 0.05375 0.37549 0.7046 0.0
H2523 H 1.02629 0.35273 0.70185 0.0
H2524 H 0.03971 0.36089 0.74008 0.0
H2525 H 1.0096 0.4614 0.66315 0.0
H2526 H 0.97698 0.46924 0.67827 0.0
H2527 H 0.98132 0.44266 0.64995 0.0
C2528 C 0.88983 0.7582 0.35745 0.0
C2529 C 0.8923 0.78477 0.34768 0.0
C2530 C 0.89903 0.75008 0.38711 0.0
C2531 C 0.91235 0.76871 0.40675 0.0
C2532 C 0.91821 0.79453 0.39543 0.0
C2533 C 0.90744 0.80261 0.36627 0.0
C2534 C 0.89293 0.72199 0.39811 0.0
C2535 C 0.93469 0.81384 0.41474 0.0
C2536 C 0.89418 0.7499 0.48928 0.0
C2537 C 0.91342 0.73032 0.49471 0.0
C2538 C 0.89561 0.76581 0.46204 0.0
C2539 C 0.91675 0.76171 0.44025 0.0
C2540 C 0.93818 0.74481 0.44824 0.0
C2541 C 0.93612 0.7291 0.47536 0.0
C2542 C 0.87275 0.78437 0.45464 0.0
C2543 C 0.9617 0.74058 0.42651 0.0
H2544 H 0.87955 0.74393 0.3425 0.0
H2545 H 0.90992 0.82318 0.35899 0.0
H2546 H 0.91165 0.71147 0.40421 0.0
H2547 H 0.88039 0.72257 0.41979 0.0
H2548 H 0.88229 0.71011 0.3798 0.0
H2549 H 0.94168 0.83099 0.40024 0.0
H2550 H 0.92269 0.8217 0.43474 0.0
H2551 H 0.95228 0.8036 0.42511 0.0
H2552 H 0.87693 0.75122 0.50461 0.0
H2553 H 0.95155 0.71449 0.48008 0.0
H2554 H 0.86037 0.7756 0.43545 0.0
H2555 H 0.88026 0.80389 0.44609 0.0
H2556 H 0.85986 0.78784 0.47566 0.0
H2557 H 0.95811 0.72268 0.41159 0.0
H2558 H 0.98008 0.73679 0.44052 0.0
H2559 H 0.96512 0.75792 0.41066 0.0
C2560 C 0.55713 0.64929 0.10473 0.0
C2561 C 0.53005 0.64893 0.09669 0.0
C2562 C 0.5654 0.65692 0.13497 0.0
C2563 C 0.54625 0.66614 0.15699 0.0
C2564 C 0.51962 0.67014 0.14738 0.0
C2565 C 0.51154 0.66078 0.11749 0.0
C2566 C 0.59425 0.65279 0.14412 0.0
C2567 C 0.49947 0.68265 0.16939 0.0
C2568 C 0.56824 0.64181 0.2366 0.0
C2569 C 0.58493 0.66282 0.24544 0.0
C2570 C 0.55238 0.64401 0.20937 0.0
C2571 C 0.55376 0.66761 0.19079 0.0
C2572 C 0.56785 0.69003 0.20211 0.0
C2573 C 0.58314 0.6874 0.22955 0.0
C2574 C 0.53668 0.61999 0.19849 0.0
C2575 C 0.56957 0.7158 0.18364 0.0
H2576 H 0.57177 0.64175 0.0881 0.0
H2577 H 0.49057 0.6613 0.11147 0.0
H2578 H 0.60289 0.67161 0.15336 0.0
H2579 H 0.5956 0.63765 0.16329 0.0
H2580 H 0.60661 0.64591 0.12385 0.0
H2581 H 0.48121 0.68897 0.15651 0.0
H2582 H 0.49371 0.66812 0.18801 0.0
H2583 H 0.50817 0.70028 0.18154 0.0
H2584 H 0.56923 0.623 0.24923 0.0
H2585 H 0.59528 0.70415 0.23711 0.0
H2586 H 0.54646 0.61107 0.17739 0.0
H2587 H 0.51625 0.62594 0.19141 0.0
H2588 H 0.53524 0.60447 0.21726 0.0
H2589 H 0.58789 0.71559 0.1689 0.0
H2590 H 0.57111 0.73313 0.19998 0.0
H2591 H 0.55219 0.71871 0.16776 0.0
C2592 C 0.63983 0.34724 0.97917 0.0
C2593 C 0.65576 0.33639 1.0031 0.0
C2594 C 0.63711 0.33413 0.94995 0.0
C2595 C 0.64734 0.30789 0.94661 0.0
C2596 C 0.65819 0.29476 0.97331 0.0
C2597 C 0.66335 0.30951 1.00082 0.0
C2598 C 0.62458 0.34928 0.92275 0.0
C2599 C 0.6656 0.26557 0.97242 0.0
C2600 C 0.63127 0.27566 0.86738 0.0
C2601 C 0.65564 0.27854 0.85168 0.0
C2602 C 0.62849 0.28388 0.89906 0.0
C2603 C 0.65043 0.29581 0.91471 0.0
C2604 C 0.67534 0.29792 0.899 0.0
C2605 C 0.67769 0.28888 0.86772 0.0
C2606 C 0.60186 0.28079 0.91521 0.0
C2607 C 0.69914 0.3111 0.91448 0.0
H2608 H 0.63164 0.36699 0.98197 0.0
H2609 H 0.67383 0.30002 0.02031 0.0
H2610 H 0.63073 0.34172 0.89913 0.0
H2611 H 0.60259 0.34773 0.92462 0.0
H2612 H 0.62972 0.37083 0.92408 0.0
H2613 H 0.66542 0.25675 0.99662 0.0
H2614 H 0.65167 0.25413 0.95712 0.0
H2615 H 0.68598 0.26327 0.96267 0.0
H2616 H 0.61434 0.26747 0.8547 0.0
H2617 H 0.69648 0.2909 0.85524 0.0
H2618 H 0.59129 0.30023 0.91495 0.0
H2619 H 0.6044 0.27469 0.94037 0.0
H2620 H 0.5891 0.26588 0.90295 0.0
H2621 H 0.69382 0.33161 0.92221 0.0
H2622 H 0.71657 0.3123 0.89831 0.0
H2623 H 0.70522 0.2998 0.93589 0.0
C2624 C 0.27382 0.25023 0.20933 0.0
C2625 C 0.29887 0.25232 0.19506 0.0
C2626 C 0.26976 0.25933 0.24035 0.0
C2627 C 0.29116 0.2714 0.25689 0.0
C2628 C 0.31683 0.27231 0.24307 0.0
C2629 C 0.32044 0.26251 0.21229 0.0
C2630 C 0.24223 0.25745 0.25455 0.0
C2631 C 0.34005 0.28523 0.25996 0.0
C2632 C 0.27467 0.32895 0.31098 0.0
C2633 C 0.278 0.31755 0.34109 0.0
C2634 C 0.27845 0.31389 0.28348 0.0
C2635 C 0.28596 0.28678 0.28617 0.0
C2636 C 0.28937 0.27505 0.31645 0.0
C2637 C 0.28536 0.29066 0.3437 0.0
C2638 C 0.27451 0.32706 0.25154 0.0
C2639 C 0.29673 0.246 0.32001 0.0
H2640 H 0.25735 0.24177 0.19603 0.0
H2641 H 0.33986 0.26385 0.20113 0.0
H2642 H 0.24319 0.2525 0.28018 0.0
H2643 H 0.23207 0.27701 0.25218 0.0
H2644 H 0.2299 0.24216 0.24231 0.0
H2645 H 0.35917 0.28205 0.24726 0.0
H2646 H 0.33648 0.30703 0.26195 0.0
H2647 H 0.34196 0.27725 0.28441 0.0
H2648 H 0.26903 0.34977 0.30894 0.0
H2649 H 0.28732 0.28171 0.367 0.0
H2650 H 0.25892 0.31636 0.23789 0.0
H2651 H 0.29322 0.32598 0.23757 0.0
H2652 H 0.26855 0.34834 0.25368 0.0
H2653 H 0.28051 0.23335 0.31031 0.0
H2654 H 0.30015 0.24035 0.34518 0.0
H2655 H 0.31498 0.24146 0.3062 0.0
C2656 C 0.5487 0.51882 0.44742 0.0
C2657 C 0.56156 0.54307 0.44081 0.0
C2658 C 0.53962 0.51291 0.47802 0.0
C2659 C 0.54431 0.53136 0.50279 0.0
C2660 C 0.55953 0.55456 0.49705 0.0
C2661 C 0.56737 0.56053 0.46601 0.0
C2662 C 0.52325 0.48797 0.48291 0.0
C2663 C 0.56607 0.57395 0.52338 0.0
C2664 C 0.49141 0.5406 0.56536 0.0
C2665 C 0.5022 0.52644 0.59079 0.0
C2666 C 0.50488 0.54194 0.5364 0.0
C2667 C 0.52978 0.52894 0.53314 0.0
C2668 C 0.54079 0.51455 0.5589 0.0
C2669 C 0.52662 0.51324 0.58751 0.0
C2670 C 0.49227 0.55694 0.50915 0.0
C2671 C 0.5671 0.50015 0.55599 0.0
H2672 H 0.54496 0.50466 0.42851 0.0
H2673 H 0.57707 0.57945 0.46153 0.0
H2674 H 0.52555 0.47976 0.50717 0.0
H2675 H 0.5019 0.49292 0.47936 0.0
H2676 H 0.52869 0.47225 0.46548 0.0
H2677 H 0.58152 0.58862 0.51616 0.0
H2678 H 0.54783 0.58504 0.53025 0.0
H2679 H 0.57323 0.56309 0.5447 0.0
H2680 H 0.47204 0.54995 0.56792 0.0
H2681 H 0.53428 0.50149 0.60711 0.0
H2682 H 0.4906 0.54374 0.48808 0.0
H2683 H 0.50504 0.5741 0.5024 0.0
H2684 H 0.47212 0.5646 0.51512 0.0
H2685 H 0.56506 0.48328 0.53911 0.0
H2686 H 0.57407 0.49213 0.57913 0.0
H2687 H 0.58256 0.51375 0.54635 0.0
C2688 C 0.25398 0.798 0.69949 0.0
C2689 C 0.27499 0.81312 0.68705 0.0
C2690 C 0.25622 0.78584 0.72919 0.0
C2691 C 0.27996 0.78915 0.74684 0.0
C2692 C 0.30112 0.80474 0.73454 0.0
C2693 C 0.29844 0.81641 0.70448 0.0
C2694 C 0.23339 0.76912 0.74147 0.0
C2695 C 0.32667 0.80876 0.75283 0.0
C2696 C 0.27748 0.77154 0.83426 0.0
C2697 C 0.28783 0.74557 0.83388 0.0
C2698 C 0.27499 0.78621 0.80606 0.0
C2699 C 0.28323 0.77458 0.77706 0.0
C2700 C 0.29359 0.74838 0.77653 0.0
C2701 C 0.29546 0.73409 0.80489 0.0
C2702 C 0.26383 0.81417 0.80726 0.0
C2703 C 0.30268 0.73543 0.746 0.0
H2704 H 0.2358 0.79568 0.68584 0.0
H2705 H 0.31441 0.82853 0.69486 0.0
H2706 H 0.23994 0.7481 0.74428 0.0
H2707 H 0.2271 0.77632 0.7652 0.0
H2708 H 0.21587 0.76954 0.72534 0.0
H2709 H 0.3394 0.8245 0.74212 0.0
H2710 H 0.32239 0.81425 0.77781 0.0
H2711 H 0.33809 0.7898 0.7532 0.0
H2712 H 0.27202 0.78063 0.85667 0.0
H2713 H 0.30321 0.7139 0.80442 0.0
H2714 H 0.24568 0.81547 0.7923 0.0
H2715 H 0.27853 0.82849 0.79745 0.0
H2716 H 0.25865 0.8204 0.83179 0.0
H2717 H 0.28565 0.73368 0.72934 0.0
H2718 H 0.31122 0.71524 0.74991 0.0
H2719 H 0.31797 0.74803 0.73429 0.0
C2720 C 0.07746 0.53204 0.06103 0.0
C2721 C 0.06437 0.54061 0.08846 0.0
C2722 C 0.06371 0.52976 0.03225 0.0
C2723 C 0.03641 0.53675 0.03097 0.0
C2724 C 1.02322 0.54587 0.05861 0.0
C2725 C 0.03739 0.54752 0.08722 0.0
C2726 C 0.07835 0.51975 1.00329 0.0
C2727 C 0.99414 0.55357 0.05803 0.0
C2728 C 1.00732 0.54943 0.94925 0.0
C2729 C 0.99668 0.5243 0.9418 0.0
C2730 C 1.02006 0.55396 0.9784 0.0
C2731 C 1.02146 0.5331 1.00098 0.0
C2732 C 1.00998 0.50802 0.99418 0.0
C2733 C 0.99836 0.50373 0.96446 0.0
C2734 C 0.03256 0.58084 0.98475 0.0
C2735 C 1.01071 0.4854 0.01792 0.0
H2736 H 0.0985 0.52718 0.06217 0.0
H2737 H 1.02761 0.55476 0.10848 0.0
H2738 H 0.06932 0.50076 0.99506 0.0
H2739 H 0.07649 0.53435 0.98362 0.0
H2740 H 0.09984 0.51623 1.00804 0.0
H2741 H 0.98782 0.56344 0.0804 0.0
H2742 H 0.98995 0.56721 0.0379 0.0
H2743 H 0.98181 0.53542 0.05454 0.0
H2744 H 1.00588 0.56557 0.93224 0.0
H2745 H 0.99117 0.4839 0.95889 0.0
H2746 H 0.05442 0.57851 0.98755 0.0
H2747 H 1.0248 0.58928 1.00726 0.0
H2748 H 1.02874 0.59531 0.96529 0.0
H2749 H 1.03147 0.47815 0.02059 0.0
H2750 H 0.99797 0.46835 1.01057 0.0
H2751 H 1.00397 0.49239 0.04157 0.0
C2752 C 0.801 0.79757 0.83155 0.0
C2753 C 0.77683 0.81068 0.83751 0.0
C2754 C 0.806 0.78596 0.80197 0.0
C2755 C 0.78691 0.78874 0.77756 0.0
C2756 C 0.76328 0.80331 0.78269 0.0
C2757 C 0.75806 0.81323 0.8129 0.0
C2758 C 0.83109 0.76983 0.79728 0.0
C2759 C 0.74288 0.80737 0.75667 0.0
C2760 C 0.80243 0.77203 0.6925 0.0
C2761 C 0.78896 0.74771 0.68954 0.0
C2762 C 0.80274 0.7855 0.72152 0.0
C2763 C 0.78977 0.77379 0.74783 0.0
C2764 C 0.77706 0.74868 0.74502 0.0
C2765 C 0.77658 0.73601 0.7156 0.0
C2766 C 0.81581 0.8126 0.72364 0.0
C2767 C 0.76344 0.73549 0.77287 0.0
H2768 H 0.81587 0.79599 0.85007 0.0
H2769 H 0.73888 0.82243 0.81719 0.0
H2770 H 0.8258 0.7488 0.79186 0.0
H2771 H 0.84251 0.77759 0.77675 0.0
H2772 H 0.84415 0.77009 0.81857 0.0
H2773 H 0.72788 0.82276 0.76306 0.0
H2774 H 0.75273 0.81349 0.73425 0.0
H2775 H 0.73229 0.78833 0.75203 0.0
H2776 H 0.81236 0.78057 0.67202 0.0
H2777 H 0.76684 0.71681 0.71296 0.0
H2778 H 0.82915 0.81372 0.74458 0.0
H2779 H 0.80025 0.82812 0.72673 0.0
H2780 H 0.82753 0.81742 0.70203 0.0
H2781 H 0.77688 0.7352 0.79378 0.0
H2782 H 0.75723 0.7147 0.76747 0.0
H2783 H 0.74546 0.74708 0.77952 0.0
C2784 C 0.75376 0.29549 0.1977 0.0
C2785 C 0.77407 0.31258 0.18748 0.0
C2786 C 0.75541 0.2828 0.22716 0.0
C2787 C 0.77774 0.28771 0.24679 0.0
C2788 C 0.79822 0.30516 0.23659 0.0
C2789 C 0.79622 0.31728 0.20674 0.0
C2790 C 0.73337 0.26407 0.23723 0.0
C2791 C 0.82233 0.3108 0.25695 0.0
C2792 C 0.77271 0.2698 0.33394 0.0
C2793 C 0.78498 0.24469 0.33425 0.0
C2794 C 0.77005 0.28412 0.30551 0.0
C2795 C 0.78037 0.27319 0.27709 0.0
C2796 C 0.79266 0.24786 0.27723 0.0
C2797 C 0.79427 0.23368 0.30566 0.0
C2798 C 0.75656 0.31104 0.30591 0.0
C2799 C 0.80428 0.23581 0.24739 0.0
H2800 H 0.73652 0.29223 0.18264 0.0
H2801 H 0.81157 0.33095 0.19877 0.0
H2802 H 0.74147 0.24364 0.24045 0.0
H2803 H 0.72508 0.27046 0.26042 0.0
H2804 H 0.71693 0.2632 0.21961 0.0
H2805 H 0.83438 0.32764 0.24756 0.0
H2806 H 0.81628 0.31555 0.28163 0.0
H2807 H 0.83511 0.29276 0.2579 0.0
H2808 H 0.76584 0.27855 0.35597 0.0
H2809 H 0.80329 0.21402 0.30555 0.0
H2810 H 0.73923 0.31092 0.28954 0.0
H2811 H 0.77053 0.32661 0.29733 0.0
H2812 H 0.74953 0.31666 0.32999 0.0
H2813 H 0.78831 0.23268 0.22957 0.0
H2814 H 0.81427 0.21639 0.25192 0.0
H2815 H 0.81902 0.24968 0.23677 0.0
C2816 C 0.05581 0.0639 0.95557 0.0
C2817 C 0.06416 0.04194 0.93746 0.0
C2818 C 0.0437 0.06035 0.98509 0.0
C2819 C 0.03957 0.03419 0.99659 0.0
C2820 C 0.04803 1.01189 0.97856 0.0
C2821 C 0.06018 1.01606 0.94902 0.0
C2822 C 0.03488 0.08458 1.0037 0.0
C2823 C 0.04381 0.98369 0.99011 0.0
C2824 C 1.02432 1.02929 0.08432 0.0
C2825 C 0.99648 1.02781 0.08386 0.0
C2826 C 0.0388 1.03045 0.05593 0.0
C2827 C 1.02494 1.03045 0.02667 0.0
C2828 C 0.99683 1.02882 0.02614 0.0
C2829 C 0.98292 1.02743 0.05481 0.0
C2830 C 0.06884 1.03166 0.05719 0.0
C2831 C 0.98143 1.02894 0.99532 0.0
H2832 H 0.05847 0.08396 0.94644 0.0
H2833 H 0.06682 0.99912 0.93511 0.0
H2834 H 1.01292 0.08428 1.00663 0.0
H2835 H 0.04378 0.08424 0.0278 0.0
H2836 H 0.04059 0.10359 0.99195 0.0
H2837 H 0.05538 0.96899 0.97599 0.0
H2838 H 0.04954 0.98177 0.01543 0.0
H2839 H 1.02238 0.97854 0.9882 0.0
H2840 H 0.03476 1.02882 0.10685 0.0
H2841 H 0.96136 1.02596 0.05461 0.0
H2842 H 0.07583 0.05088 0.04713 0.0
H2843 H 0.07752 1.01547 0.0425 0.0
H2844 H 0.0766 1.02978 0.08178 0.0
H2845 H 0.98465 0.04817 0.98282 0.0
H2846 H 0.9597 1.02618 0.99903 0.0
H2847 H 0.98873 1.01285 0.97948 0.0
C2848 C 0.57667 0.03479 0.56296 0.0
C2849 C 0.56285 0.0431 0.59 0.0
C2850 C 0.56353 1.03202 0.53384 0.0
C2851 C 0.53607 0.03827 0.53179 0.0
C2852 C 0.52215 0.04719 0.55901 0.0
C2853 C 0.53573 0.04929 0.58799 0.0
C2854 C 0.57894 1.02218 0.50537 0.0
C2855 C 0.49291 0.05415 0.55761 0.0
C2856 C 0.50853 0.0502 0.44916 0.0
C2857 C 0.49837 1.02491 0.44155 0.0
C2858 C 0.52053 0.05502 0.47868 0.0
C2859 C 0.52181 0.03424 0.50138 0.0
C2860 C 0.51086 1.00896 0.49434 0.0
C2861 C 0.4998 1.00444 0.46434 0.0
C2862 C 0.53237 0.08216 0.48533 0.0
C2863 C 0.51157 0.98638 0.51812 0.0
H2864 H 0.59778 1.03039 0.56471 0.0
H2865 H 0.52534 0.05627 0.60897 0.0
H2866 H 0.57046 1.00296 0.49704 0.0
H2867 H 0.57714 0.03663 0.48553 0.0
H2868 H 0.6004 1.01915 0.51073 0.0
H2869 H 0.48584 0.06367 0.57988 0.0
H2870 H 0.48886 0.06786 0.53751 0.0
H2871 H 0.48111 0.03574 0.55349 0.0
H2872 H 0.50722 0.06625 0.432 0.0
H2873 H 0.49282 0.98455 0.45863 0.0
H2874 H 0.55422 0.08028 0.48863 0.0
H2875 H 0.52406 0.09042 0.50765 0.0
H2876 H 0.52856 0.09655 0.46578 0.0
H2877 H 0.53238 0.97934 0.52108 0.0
H2878 H 0.49909 0.96919 0.5106 0.0
H2879 H 0.50454 0.9933 0.54168 0.0
loop_
_geom_bond_atom_site_label_1
_geom_bond_atom_site_label_2
_geom_bond_distance
_geom_bond_site_symmetry_2
_ccdc_geom_bond_type
Tb0 N29 2.617 . S
Tb0 N35 2.572 . S
Tb0 O44 2.465 . S
Tb0 O45 2.387 . S
Tb0 O47 2.428 . S
Tb0 O48 2.308 . S
Tb0 O52 2.349 . S
Tb0 O55 2.393 . S
Tb0 C64 2.802 . S
C1 N2 1.379 1_556 S
C1 C4 1.416 . S
C1 C8 1.424 . S
N2 C1 1.379 1_554 S
N2 C5 1.334 . S
N2 Tb11 2.617 . S
C3 C5 1.390 . S
C3 C6 1.339 . S
C3 H23 0.930 . S
C4 C1 1.416 . S
C4 C6 1.416 1_556 S
C4 C10 1.448 . S
C5 N2 1.334 . S
C5 C3 1.390 . S
C5 H16 0.930 . S
C6 C3 1.339 . S
C6 C4 1.416 1_554 S
C6 H27 0.930 . S
C7 C8 1.413 . S
C7 C9 1.427 . S
C7 C13 1.416 . S
C8 C1 1.424 . S
C8 C7 1.413 . S
C8 N12 1.361 . S
C9 C7 1.427 . S
C9 C10 1.328 . S
C9 H24 0.929 . S
C10 C4 1.448 . S
C10 C9 1.328 . S
C10 H25 0.930 . S
Tb11 N2 2.617 . S
Tb11 N12 2.572 1_554 S
Tb11 O46 2.349 . S
Tb11 O49 2.393 . S
Tb11 O50 2.465 1_554 S
Tb11 O51 2.387 . S
Tb11 O53 2.428 1_554 S
Tb11 O54 2.308 1_554 S
Tb11 C75 2.802 1_554 S
N12 C8 1.361 . S
N12 Tb11 2.572 1_556 S
N12 C14 1.340 . S
C13 C7 1.416 . S
C13 C15 1.332 . S
C13 H21 0.931 . S
C14 N12 1.340 . S
C14 C15 1.407 . S
C14 H20 0.930 . S
C15 C13 1.332 . S
C15 C14 1.407 . S
C15 H17 0.929 . S
H16 C5 0.930 . S
H17 C15 0.929 . S
H18 C33 0.930 . S
H19 C40 0.929 . S
H20 C14 0.930 . S
H21 C13 0.931 . S
H22 C36 0.930 . S
H23 C3 0.930 . S
H24 C9 0.929 . S
H25 C10 0.930 . S
H26 C31 0.930 . S
H27 C6 0.930 . S
H28 C39 0.931 . S
N29 Tb0 2.617 . S
N29 C30 1.379 . S
N29 C33 1.334 . S
C30 N29 1.379 . S
C30 C32 1.416 . S
C30 C38 1.424 . S
C31 H26 0.930 . S
C31 C33 1.390 . S
C31 C34 1.339 . S
C32 C30 1.416 . S
C32 C34 1.416 . S
C32 C65 1.448 . S
C33 H18 0.930 . S
C33 N29 1.334 . S
C33 C31 1.390 . S
C34 C31 1.339 . S
C34 C32 1.416 . S
C34 H41 0.930 . S
N35 Tb0 2.572 . S
N35 C36 1.340 . S
N35 C38 1.361 . S
C36 H22 0.930 . S
C36 N35 1.340 . S
C36 C40 1.407 . S
C37 C38 1.413 . S
C37 C39 1.416 . S
C37 C66 1.427 . S
C38 C30 1.424 . S
C38 N35 1.361 . S
C38 C37 1.413 . S
C39 H28 0.931 . S
C39 C37 1.416 . S
C39 C40 1.332 . S
C40 H19 0.929 . S
C40 C36 1.407 . S
C40 C39 1.332 . S
H41 C34 0.930 . S
H42 C65 0.930 . S
H43 C66 0.929 . S
O44 Tb0 2.465 . S
O44 C64 1.264 . S
O45 Tb0 2.387 . S
O45 C56 1.264 . S
O46 Tb11 2.349 . S
O46 C56 1.243 . S
O47 Tb0 2.428 . S
O47 C64 1.256 . S
O48 Tb0 2.308 . S
O48 C63 1.266 . S
O49 Tb11 2.393 . S
O49 C63 1.248 . S
O50 Tb11 2.465 1_556 S
O50 C75 1.264 . S
O51 Tb11 2.387 . S
O51 C67 1.264 . S
O52 Tb0 2.349 . S
O52 C67 1.243 . S
O53 Tb11 2.428 1_556 S
O53 C75 1.256 . S
O54 Tb11 2.308 1_556 S
O54 C74 1.266 . S
O55 Tb0 2.393 . S
O55 C74 1.248 1_554 S
C56 O45 1.264 . S
C56 O46 1.243 . S
C57 C60 1.399 . S
C57 C62 1.383 . S
C57 C64 1.496 . S
C58 C59 1.399 . S
C58 C62 1.389 . S
C59 C58 1.399 . S
C59 C61 1.380 . S
C59 H76 0.929 . S
C60 C57 1.399 . S
C60 C61 1.392 . S
C60 H77 0.929 . S
C61 C59 1.380 . S
C61 C60 1.392 . S
C61 H78 0.929 . S
C62 C57 1.383 . S
C62 C58 1.389 . S
C62 H79 0.931 . S
C63 O48 1.266 . S
C63 O49 1.248 . S
C64 Tb0 2.802 . S
C64 O44 1.264 . S
C64 O47 1.256 . S
C64 C57 1.496 . S
C65 C32 1.448 . S
C65 H42 0.930 . S
C65 C66 1.328 . S
C66 C37 1.427 . S
C66 H43 0.929 . S
C66 C65 1.328 . S
C67 O51 1.264 . S
C67 O52 1.243 . S
C68 C71 1.399 . S
C68 C72 1.383 . S
C68 C75 1.496 . S
C69 C70 1.399 . S
C69 C72 1.389 . S
C70 C69 1.399 . S
C70 C73 1.380 . S
C70 H80 0.929 . S
C71 C68 1.399 . S
C71 C73 1.392 . S
C71 H81 0.929 . S
C72 C68 1.383 . S
C72 C69 1.389 . S
C72 H82 0.931 . S
C73 C70 1.380 . S
C73 C71 1.392 . S
C73 H83 0.929 . S
C74 O54 1.266 . S
C74 O55 1.248 1_556 S
C75 Tb11 2.802 1_556 S
C75 O50 1.264 . S
C75 O53 1.256 . S
C75 C68 1.496 . S
H76 C59 0.929 . S
H77 C60 0.929 . S
H78 C61 0.929 . S
H79 C62 0.931 . S
H80 C70 0.929 . S
H81 C71 0.929 . S
H82 C72 0.931 . S
H83 C73 0.929 . S
Tb84 N113 2.617 . S
Tb84 N119 2.572 . S
Tb84 O128 2.465 . S
Tb84 O129 2.387 . S
Tb84 O131 2.428 . S
Tb84 O132 2.308 . S
Tb84 O136 2.349 . S
Tb84 O139 2.393 . S
Tb84 C148 2.802 . S
C85 N86 1.379 . S
C85 C88 1.416 . S
C85 C92 1.424 . S
N86 C85 1.379 . S
N86 C89 1.334 . S
N86 Tb95 2.617 . S
C87 C89 1.390 . S
C87 C90 1.339 . S
C87 H107 0.930 . S
C88 C85 1.416 . S
C88 C90 1.416 . S
C88 C94 1.448 . S
C89 N86 1.334 . S
C89 C87 1.390 . S
C89 H100 0.930 . S
C90 C87 1.339 . S
C90 C88 1.416 . S
C90 H111 0.930 . S
C91 C92 1.413 . S
C91 C93 1.427 . S
C91 C97 1.416 . S
C92 C85 1.424 . S
C92 C91 1.413 . S
C92 N96 1.361 . S
C93 C91 1.427 . S
C93 C94 1.328 . S
C93 H108 0.929 . S
C94 C88 1.448 . S
C94 C93 1.328 . S
C94 H109 0.930 . S
Tb95 N86 2.617 . S
Tb95 N96 2.572 . S
Tb95 O130 2.349 . S
Tb95 O133 2.393 . S
Tb95 O134 2.465 . S
Tb95 O135 2.387 . S
Tb95 O137 2.428 . S
Tb95 O138 2.308 . S
Tb95 C159 2.802 . S
N96 C92 1.361 . S
N96 Tb95 2.572 . S
N96 C98 1.340 . S
C97 C91 1.416 . S
C97 C99 1.332 . S
C97 H105 0.931 . S
C98 N96 1.340 . S
C98 C99 1.407 . S
C98 H104 0.930 . S
C99 C97 1.332 . S
C99 C98 1.407 . S
C99 H101 0.929 . S
H100 C89 0.930 . S
H101 C99 0.929 . S
H102 C117 0.930 . S
H103 C124 0.929 . S
H104 C98 0.930 . S
H105 C97 0.931 . S
H106 C120 0.930 . S
H107 C87 0.930 . S
H108 C93 0.929 . S
H109 C94 0.930 . S
H110 C115 0.930 . S
H111 C90 0.930 . S
H112 C123 0.931 . S
N113 Tb84 2.617 . S
N113 C114 1.379 . S
N113 C117 1.334 . S
C114 N113 1.379 . S
C114 C116 1.416 . S
C114 C122 1.424 . S
C115 H110 0.930 . S
C115 C117 1.390 . S
C115 C118 1.339 . S
C116 C114 1.416 . S
C116 C118 1.416 . S
C116 C149 1.448 . S
C117 H102 0.930 . S
C117 N113 1.334 . S
C117 C115 1.390 . S
C118 C115 1.339 . S
C118 C116 1.416 . S
C118 H125 0.930 . S
N119 Tb84 2.572 . S
N119 C120 1.340 . S
N119 C122 1.361 . S
C120 H106 0.930 . S
C120 N119 1.340 . S
C120 C124 1.407 . S
C121 C122 1.413 . S
C121 C123 1.416 . S
C121 C150 1.427 . S
C122 C114 1.424 . S
C122 N119 1.361 . S
C122 C121 1.413 . S
C123 H112 0.931 . S
C123 C121 1.416 . S
C123 C124 1.332 . S
C124 H103 0.929 . S
C124 C120 1.407 . S
C124 C123 1.332 . S
H125 C118 0.930 . S
H126 C149 0.930 . S
H127 C150 0.929 . S
O128 Tb84 2.465 . S
O128 C148 1.264 . S
O129 Tb84 2.387 . S
O129 C140 1.264 . S
O130 Tb95 2.349 . S
O130 C140 1.243 . S
O131 Tb84 2.428 . S
O131 C148 1.256 . S
O132 Tb84 2.308 . S
O132 C147 1.266 . S
O133 Tb95 2.393 . S
O133 C147 1.248 . S
O134 Tb95 2.465 . S
O134 C159 1.264 . S
O135 Tb95 2.387 . S
O135 C151 1.264 . S
O136 Tb84 2.349 . S
O136 C151 1.243 . S
O137 Tb95 2.428 . S
O137 C159 1.256 . S
O138 Tb95 2.308 . S
O138 C158 1.266 . S
O139 Tb84 2.393 . S
O139 C158 1.248 . S
C140 O129 1.264 . S
C140 O130 1.243 . S
C141 C144 1.399 . S
C141 C146 1.383 . S
C141 C148 1.496 . S
C142 C143 1.399 . S
C142 C146 1.389 . S
C143 C142 1.399 . S
C143 C145 1.380 . S
C143 H160 0.929 . S
C144 C141 1.399 . S
C144 C145 1.392 . S
C144 H161 0.929 . S
C145 C143 1.380 . S
C145 C144 1.392 . S
C145 H162 0.929 . S
C146 C141 1.383 . S
C146 C142 1.389 . S
C146 H163 0.931 . S
C147 O132 1.266 . S
C147 O133 1.248 . S
C148 Tb84 2.802 . S
C148 O128 1.264 . S
C148 O131 1.256 . S
C148 C141 1.496 . S
C149 C116 1.448 . S
C149 H126 0.930 . S
C149 C150 1.328 . S
C150 C121 1.427 . S
C150 H127 0.929 . S
C150 C149 1.328 . S
C151 O135 1.264 . S
C151 O136 1.243 . S
C152 C155 1.399 . S
C152 C156 1.383 . S
C152 C159 1.496 . S
C153 C154 1.399 . S
C153 C156 1.389 . S
C154 C153 1.399 . S
C154 C157 1.380 . S
C154 H164 0.929 . S
C155 C152 1.399 . S
C155 C157 1.392 . S
C155 H165 0.929 . S
C156 C152 1.383 . S
C156 C153 1.389 . S
C156 H166 0.931 . S
C157 C154 1.380 . S
C157 C155 1.392 . S
C157 H167 0.929 . S
C158 O138 1.266 . S
C158 O139 1.248 . S
C159 Tb95 2.802 . S
C159 O134 1.264 . S
C159 O137 1.256 . S
C159 C152 1.496 . S
H160 C143 0.929 . S
H161 C144 0.929 . S
H162 C145 0.929 . S
H163 C146 0.931 . S
H164 C154 0.929 . S
H165 C155 0.929 . S
H166 C156 0.931 . S
H167 C157 0.929 . S
Tb168 N197 2.617 . S
Tb168 N203 2.572 . S
Tb168 O212 2.465 . S
Tb168 O213 2.387 . S
Tb168 O215 2.428 . S
Tb168 O216 2.308 . S
Tb168 O220 2.349 . S
Tb168 O223 2.393 . S
Tb168 C232 2.802 . S
C169 N170 1.379 . S
C169 C172 1.416 . S
C169 C176 1.424 . S
N170 C169 1.379 . S
N170 C173 1.334 . S
N170 Tb179 2.617 . S
C171 C173 1.390 . S
C171 C174 1.339 . S
C171 H191 0.930 . S
C172 C169 1.416 . S
C172 C174 1.416 . S
C172 C178 1.448 . S
C173 N170 1.334 . S
C173 C171 1.390 . S
C173 H184 0.930 . S
C174 C171 1.339 . S
C174 C172 1.416 . S
C174 H195 0.930 . S
C175 C176 1.413 . S
C175 C177 1.427 . S
C175 C181 1.416 . S
C176 C169 1.424 . S
C176 C175 1.413 . S
C176 N180 1.361 . S
C177 C175 1.427 . S
C177 C178 1.328 . S
C177 H192 0.929 . S
C178 C172 1.448 . S
C178 C177 1.328 . S
C178 H193 0.930 . S
Tb179 N170 2.617 . S
Tb179 N180 2.572 . S
Tb179 O214 2.349 . S
Tb179 O217 2.393 . S
Tb179 O218 2.465 . S
Tb179 O219 2.387 . S
Tb179 O221 2.428 . S
Tb179 O222 2.308 . S
Tb179 C243 2.802 . S
N180 C176 1.361 . S
N180 Tb179 2.572 . S
N180 C182 1.340 . S
C181 C175 1.416 . S
C181 C183 1.332 . S
C181 H189 0.931 . S
C182 N180 1.340 . S
C182 C183 1.407 . S
C182 H188 0.930 . S
C183 C181 1.332 . S
C183 C182 1.407 . S
C183 H185 0.929 . S
H184 C173 0.930 . S
H185 C183 0.929 . S
H186 C201 0.930 . S
H187 C208 0.929 . S
H188 C182 0.930 . S
H189 C181 0.931 . S
H190 C204 0.930 . S
H191 C171 0.930 . S
H192 C177 0.929 . S
H193 C178 0.930 . S
H194 C199 0.930 . S
H195 C174 0.930 . S
H196 C207 0.931 . S
N197 Tb168 2.617 . S
N197 C198 1.379 . S
N197 C201 1.334 . S
C198 N197 1.379 . S
C198 C200 1.416 . S
C198 C206 1.424 . S
C199 H194 0.930 . S
C199 C201 1.390 . S
C199 C202 1.339 . S
C200 C198 1.416 . S
C200 C202 1.416 . S
C200 C233 1.448 . S
C201 H186 0.930 . S
C201 N197 1.334 . S
C201 C199 1.390 . S
C202 C199 1.339 . S
C202 C200 1.416 . S
C202 H209 0.930 . S
N203 Tb168 2.572 . S
N203 C204 1.340 . S
N203 C206 1.361 . S
C204 H190 0.930 . S
C204 N203 1.340 . S
C204 C208 1.407 . S
C205 C206 1.413 . S
C205 C207 1.416 . S
C205 C234 1.427 . S
C206 C198 1.424 . S
C206 N203 1.361 . S
C206 C205 1.413 . S
C207 H196 0.931 . S
C207 C205 1.416 . S
C207 C208 1.332 . S
C208 H187 0.929 . S
C208 C204 1.407 . S
C208 C207 1.332 . S
H209 C202 0.930 . S
H210 C233 0.930 . S
H211 C234 0.929 . S
O212 Tb168 2.465 . S
O212 C232 1.264 . S
O213 Tb168 2.387 . S
O213 C224 1.264 . S
O214 Tb179 2.349 . S
O214 C224 1.243 . S
O215 Tb168 2.428 . S
O215 C232 1.256 . S
O216 Tb168 2.308 . S
O216 C231 1.266 . S
O217 Tb179 2.393 . S
O217 C231 1.248 . S
O218 Tb179 2.465 . S
O218 C243 1.264 . S
O219 Tb179 2.387 . S
O219 C235 1.264 . S
O220 Tb168 2.349 . S
O220 C235 1.243 . S
O221 Tb179 2.428 . S
O221 C243 1.256 . S
O222 Tb179 2.308 . S
O222 C242 1.266 . S
O223 Tb168 2.393 . S
O223 C242 1.248 . S
C224 O213 1.264 . S
C224 O214 1.243 . S
C225 C228 1.399 . S
C225 C230 1.383 . S
C225 C232 1.496 . S
C226 C227 1.399 . S
C226 C230 1.389 . S
C227 C226 1.399 . S
C227 C229 1.380 . S
C227 H244 0.929 . S
C228 C225 1.399 . S
C228 C229 1.392 . S
C228 H245 0.929 . S
C229 C227 1.380 . S
C229 C228 1.392 . S
C229 H246 0.929 . S
C230 C225 1.383 . S
C230 C226 1.389 . S
C230 H247 0.931 . S
C231 O216 1.266 . S
C231 O217 1.248 . S
C232 Tb168 2.802 . S
C232 O212 1.264 . S
C232 O215 1.256 . S
C232 C225 1.496 . S
C233 C200 1.448 . S
C233 H210 0.930 . S
C233 C234 1.328 . S
C234 C205 1.427 . S
C234 H211 0.929 . S
C234 C233 1.328 . S
C235 O219 1.264 . S
C235 O220 1.243 . S
C236 C239 1.399 . S
C236 C240 1.383 . S
C236 C243 1.496 . S
C237 C238 1.399 . S
C237 C240 1.389 . S
C238 C237 1.399 . S
C238 C241 1.380 . S
C238 H248 0.929 1_455 S
C239 C236 1.399 . S
C239 C241 1.392 . S
C239 H249 0.929 . S
C240 C236 1.383 . S
C240 C237 1.389 . S
C240 H250 0.931 . S
C241 C238 1.380 . S
C241 C239 1.392 . S
C241 H251 0.932 1_455 S
C242 O222 1.266 . S
C242 O223 1.248 . S
C243 Tb179 2.802 . S
C243 O218 1.264 . S
C243 O221 1.256 . S
C243 C236 1.496 . S
H244 C227 0.929 . S
H245 C228 0.929 . S
H246 C229 0.929 . S
H247 C230 0.931 . S
H248 C238 0.929 1_655 S
H249 C239 0.929 . S
H250 C240 0.931 . S
H251 C241 0.932 1_655 S
Tb252 N281 2.617 . S
Tb252 N287 2.572 . S
Tb252 O296 2.465 . S
Tb252 O297 2.387 . S
Tb252 O299 2.428 . S
Tb252 O300 2.308 . S
Tb252 O304 2.349 . S
Tb252 O307 2.393 . S
Tb252 C316 2.802 . S
C253 N254 1.379 . S
C253 C256 1.416 . S
C253 C260 1.424 . S
N254 C253 1.379 . S
N254 C257 1.334 . S
N254 Tb263 2.617 . S
C255 C257 1.390 . S
C255 C258 1.339 . S
C255 H275 0.930 . S
C256 C253 1.416 . S
C256 C258 1.416 . S
C256 C262 1.448 . S
C257 N254 1.334 . S
C257 C255 1.390 . S
C257 H268 0.930 . S
C258 C255 1.339 . S
C258 C256 1.416 . S
C258 H279 0.930 . S
C259 C260 1.413 . S
C259 C261 1.427 . S
C259 C265 1.416 . S
C260 C253 1.424 . S
C260 C259 1.413 . S
C260 N264 1.361 . S
C261 C259 1.427 . S
C261 C262 1.328 . S
C261 H276 0.929 . S
C262 C256 1.448 . S
C262 C261 1.328 . S
C262 H277 0.930 . S
Tb263 N254 2.617 . S
Tb263 N264 2.572 . S
Tb263 O298 2.349 . S
Tb263 O301 2.393 . S
Tb263 O302 2.465 . S
Tb263 O303 2.387 . S
Tb263 O305 2.428 . S
Tb263 O306 2.308 . S
Tb263 C327 2.802 . S
N264 C260 1.361 . S
N264 Tb263 2.572 . S
N264 C266 1.340 . S
C265 C259 1.416 . S
C265 C267 1.332 . S
C265 H273 0.931 . S
C266 N264 1.340 . S
C266 C267 1.407 . S
C266 H272 0.930 . S
C267 C265 1.332 . S
C267 C266 1.407 . S
C267 H269 0.929 . S
H268 C257 0.930 . S
H269 C267 0.929 . S
H270 C285 0.930 . S
H271 C292 0.929 . S
H272 C266 0.930 . S
H273 C265 0.931 . S
H274 C288 0.930 . S
H275 C255 0.930 . S
H276 C261 0.929 . S
H277 C262 0.930 . S
H278 C283 0.930 . S
H279 C258 0.930 . S
H280 C291 0.931 . S
N281 Tb252 2.617 . S
N281 C282 1.379 . S
N281 C285 1.334 1_655 S
C282 N281 1.379 . S
C282 C284 1.416 1_655 S
C282 C290 1.424 . S
C283 H278 0.930 . S
C283 C285 1.390 . S
C283 C286 1.339 . S
C284 C282 1.416 1_455 S
C284 C286 1.416 . S
C284 C317 1.448 . S
C285 H270 0.930 . S
C285 N281 1.334 1_455 S
C285 C283 1.390 . S
C286 C283 1.339 . S
C286 C284 1.416 . S
C286 H293 0.930 . S
N287 Tb252 2.572 . S
N287 C288 1.340 . S
N287 C290 1.361 . S
C288 H274 0.930 . S
C288 N287 1.340 . S
C288 C292 1.407 . S
C289 C290 1.413 . S
C289 C291 1.416 . S
C289 C318 1.427 1_655 S
C290 C282 1.424 . S
C290 N287 1.361 . S
C290 C289 1.413 . S
C291 H280 0.931 . S
C291 C289 1.416 . S
C291 C292 1.332 . S
C292 H271 0.929 . S
C292 C288 1.407 . S
C292 C291 1.332 . S
H293 C286 0.930 . S
H294 C317 0.930 . S
H295 C318 0.929 . S
O296 Tb252 2.465 . S
O296 C316 1.264 . S
O297 Tb252 2.387 . S
O297 C308 1.264 . S
O298 Tb263 2.349 . S
O298 C308 1.243 . S
O299 Tb252 2.428 . S
O299 C316 1.256 . S
O300 Tb252 2.308 . S
O300 C315 1.266 . S
O301 Tb263 2.393 . S
O301 C315 1.248 . S
O302 Tb263 2.465 . S
O302 C327 1.264 . S
O303 Tb263 2.387 . S
O303 C319 1.264 . S
O304 Tb252 2.349 . S
O304 C319 1.243 . S
O305 Tb263 2.428 . S
O305 C327 1.256 . S
O306 Tb263 2.308 . S
O306 C326 1.266 . S
O307 Tb252 2.393 . S
O307 C326 1.248 . S
C308 O297 1.264 . S
C308 O298 1.243 . S
C309 C312 1.399 . S
C309 C314 1.383 . S
C309 C316 1.496 . S
C310 C311 1.399 . S
C310 C314 1.389 . S
C311 C310 1.399 . S
C311 C313 1.380 . S
C311 H328 0.929 . S
C312 C309 1.399 . S
C312 C313 1.392 . S
C312 H329 0.929 . S
C313 C311 1.380 . S
C313 C312 1.392 . S
C313 H330 0.931 1_655 S
C314 C309 1.383 . S
C314 C310 1.389 . S
C314 H331 0.931 . S
C315 O300 1.266 . S
C315 O301 1.248 . S
C316 Tb252 2.802 . S
C316 O296 1.264 . S
C316 O299 1.256 . S
C316 C309 1.496 . S
C317 C284 1.448 . S
C317 H294 0.930 . S
C317 C318 1.328 . S
C318 C289 1.427 1_455 S
C318 H295 0.929 . S
C318 C317 1.328 . S
C319 O303 1.264 . S
C319 O304 1.243 . S
C320 C323 1.399 . S
C320 C324 1.383 . S
C320 C327 1.496 . S
C321 C322 1.399 . S
C321 C324 1.389 . S
C322 C321 1.399 . S
C322 C325 1.380 . S
C322 H332 0.929 . S
C323 C320 1.399 . S
C323 C325 1.392 . S
C323 H333 0.929 . S
C324 C320 1.383 . S
C324 C321 1.389 . S
C324 H334 0.931 . S
C325 C322 1.380 . S
C325 C323 1.392 . S
C325 H335 0.929 . S
C326 O306 1.266 . S
C326 O307 1.248 . S
C327 Tb263 2.802 . S
C327 O302 1.264 . S
C327 O305 1.256 . S
C327 C320 1.496 . S
H328 C311 0.929 . S
H329 C312 0.929 . S
H330 C313 0.931 1_455 S
H331 C314 0.931 . S
H332 C322 0.929 . S
H333 C323 0.929 . S
H334 C324 0.931 . S
H335 C325 0.929 . S
Tb336 N365 2.617 . S
Tb336 N371 2.572 1_556 S
Tb336 O380 2.465 1_556 S
Tb336 O381 2.387 . S
Tb336 O383 2.428 1_556 S
Tb336 O384 2.308 1_556 S
Tb336 O388 2.349 . S
Tb336 O391 2.393 . S
Tb336 C400 2.802 1_556 S
C337 N338 1.379 . S
C337 C340 1.416 . S
C337 C344 1.424 . S
N338 C337 1.379 . S
N338 C341 1.334 . S
N338 Tb347 2.617 . S
C339 C341 1.390 . S
C339 C342 1.339 . S
C339 H359 0.930 . S
C340 C337 1.416 . S
C340 C342 1.416 . S
C340 C346 1.448 . S
C341 N338 1.334 . S
C341 C339 1.390 . S
C341 H352 0.930 . S
C342 C339 1.339 . S
C342 C340 1.416 . S
C342 H363 0.930 . S
C343 C344 1.413 . S
C343 C345 1.427 . S
C343 C349 1.416 . S
C344 C337 1.424 . S
C344 C343 1.413 . S
C344 N348 1.361 . S
C345 C343 1.427 . S
C345 C346 1.328 . S
C345 H360 0.929 . S
C346 C340 1.448 . S
C346 C345 1.328 . S
C346 H361 0.930 . S
Tb347 N338 2.617 . S
Tb347 N348 2.572 . S
Tb347 O382 2.349 . S
Tb347 O385 2.393 . S
Tb347 O386 2.465 . S
Tb347 O387 2.387 . S
Tb347 O389 2.428 . S
Tb347 O390 2.308 . S
Tb347 C411 2.802 . S
N348 C344 1.361 . S
N348 Tb347 2.572 . S
N348 C350 1.340 . S
C349 C343 1.416 . S
C349 C351 1.332 . S
C349 H357 0.931 . S
C350 N348 1.340 . S
C350 C351 1.407 . S
C350 H356 0.930 . S
C351 C349 1.332 . S
C351 C350 1.407 . S
C351 H353 0.929 . S
H352 C341 0.930 . S
H353 C351 0.929 . S
H354 C369 0.930 . S
H355 C376 0.929 . S
H356 C350 0.930 . S
H357 C349 0.931 . S
H358 C372 0.930 . S
H359 C339 0.930 . S
H360 C345 0.929 . S
H361 C346 0.930 . S
H362 C367 0.930 . S
H363 C342 0.930 . S
H364 C375 0.931 . S
N365 Tb336 2.617 . S
N365 C366 1.379 1_556 S
N365 C369 1.334 . S
C366 N365 1.379 1_554 S
C366 C368 1.416 . S
C366 C374 1.424 . S
C367 H362 0.930 . S
C367 C369 1.390 . S
C367 C370 1.339 . S
C368 C366 1.416 . S
C368 C370 1.416 1_554 S
C368 C401 1.448 . S
C369 H354 0.930 . S
C369 N365 1.334 . S
C369 C367 1.390 . S
C370 C367 1.339 . S
C370 C368 1.416 1_556 S
C370 H377 0.930 . S
N371 Tb336 2.572 1_554 S
N371 C372 1.340 . S
N371 C374 1.361 . S
C372 H358 0.930 . S
C372 N371 1.340 . S
C372 C376 1.407 . S
C373 C374 1.413 . S
C373 C375 1.416 . S
C373 C402 1.427 . S
C374 C366 1.424 . S
C374 N371 1.361 . S
C374 C373 1.413 . S
C375 H364 0.931 . S
C375 C373 1.416 . S
C375 C376 1.332 . S
C376 H355 0.929 . S
C376 C372 1.407 . S
C376 C375 1.332 . S
H377 C370 0.930 . S
H378 C401 0.930 . S
H379 C402 0.929 . S
O380 Tb336 2.465 1_554 S
O380 C400 1.264 . S
O381 Tb336 2.387 . S
O381 C392 1.264 . S
O382 Tb347 2.349 . S
O382 C392 1.243 . S
O383 Tb336 2.428 1_554 S
O383 C400 1.256 . S
O384 Tb336 2.308 1_554 S
O384 C399 1.266 . S
O385 Tb347 2.393 . S
O385 C399 1.248 1_556 S
O386 Tb347 2.465 . S
O386 C411 1.264 . S
O387 Tb347 2.387 . S
O387 C403 1.264 . S
O388 Tb336 2.349 . S
O388 C403 1.243 . S
O389 Tb347 2.428 . S
O389 C411 1.256 . S
O390 Tb347 2.308 . S
O390 C410 1.266 . S
O391 Tb336 2.393 . S
O391 C410 1.248 . S
C392 O381 1.264 . S
C392 O382 1.243 . S
C393 C396 1.399 . S
C393 C398 1.383 . S
C393 C400 1.496 . S
C394 C395 1.399 . S
C394 C398 1.389 . S
C395 C394 1.399 . S
C395 C397 1.380 . S
C395 H412 0.929 . S
C396 C393 1.399 . S
C396 C397 1.392 . S
C396 H413 0.929 . S
C397 C395 1.380 . S
C397 C396 1.392 . S
C397 H414 0.929 . S
C398 C393 1.383 . S
C398 C394 1.389 . S
C398 H415 0.931 . S
C399 O384 1.266 . S
C399 O385 1.248 1_554 S
C400 Tb336 2.802 1_554 S
C400 O380 1.264 . S
C400 O383 1.256 . S
C400 C393 1.496 . S
C401 C368 1.448 . S
C401 H378 0.930 . S
C401 C402 1.328 . S
C402 C373 1.427 . S
C402 H379 0.929 . S
C402 C401 1.328 . S
C403 O387 1.264 . S
C403 O388 1.243 . S
C404 C407 1.399 . S
C404 C408 1.383 . S
C404 C411 1.496 . S
C405 C406 1.399 . S
C405 C408 1.389 . S
C406 C405 1.399 . S
C406 C409 1.380 . S
C406 H416 0.929 . S
C407 C404 1.399 . S
C407 C409 1.392 . S
C407 H417 0.929 . S
C408 C404 1.383 . S
C408 C405 1.389 . S
C408 H418 0.931 . S
C409 C406 1.380 . S
C409 C407 1.392 . S
C409 H419 0.929 . S
C410 O390 1.266 . S
C410 O391 1.248 . S
C411 Tb347 2.802 . S
C411 O386 1.264 . S
C411 O389 1.256 . S
C411 C404 1.496 . S
H412 C395 0.929 . S
H413 C396 0.929 . S
H414 C397 0.929 . S
H415 C398 0.931 . S
H416 C406 0.929 . S
H417 C407 0.929 . S
H418 C408 0.931 . S
H419 C409 0.929 . S
Tb420 N449 2.617 . S
Tb420 N455 2.572 . S
Tb420 O464 2.465 . S
Tb420 O465 2.387 . S
Tb420 O467 2.428 . S
Tb420 O468 2.308 . S
Tb420 O472 2.349 . S
Tb420 O475 2.393 . S
Tb420 C484 2.802 . S
C421 N422 1.379 . S
C421 C424 1.416 . S
C421 C428 1.424 . S
N422 C421 1.379 . S
N422 C425 1.334 . S
N422 Tb431 2.617 . S
C423 C425 1.390 . S
C423 C426 1.339 . S
C423 H443 0.930 . S
C424 C421 1.416 . S
C424 C426 1.416 . S
C424 C430 1.448 . S
C425 N422 1.334 . S
C425 C423 1.390 . S
C425 H436 0.930 . S
C426 C423 1.339 . S
C426 C424 1.416 . S
C426 H447 0.930 . S
C427 C428 1.413 . S
C427 C429 1.427 . S
C427 C433 1.416 . S
C428 C421 1.424 . S
C428 C427 1.413 . S
C428 N432 1.361 . S
C429 C427 1.427 . S
C429 C430 1.328 . S
C429 H444 0.929 . S
C430 C424 1.448 . S
C430 C429 1.328 . S
C430 H445 0.930 . S
Tb431 N422 2.617 . S
Tb431 N432 2.572 . S
Tb431 O466 2.349 . S
Tb431 O469 2.393 . S
Tb431 O470 2.465 . S
Tb431 O471 2.387 . S
Tb431 O473 2.428 . S
Tb431 O474 2.308 . S
Tb431 C495 2.802 . S
N432 C428 1.361 . S
N432 Tb431 2.572 . S
N432 C434 1.340 . S
C433 C427 1.416 . S
C433 C435 1.332 . S
C433 H441 0.931 . S
C434 N432 1.340 . S
C434 C435 1.407 . S
C434 H440 0.930 . S
C435 C433 1.332 . S
C435 C434 1.407 . S
C435 H437 0.929 . S
H436 C425 0.930 . S
H437 C435 0.929 . S
H438 C453 0.930 . S
H439 C460 0.929 . S
H440 C434 0.930 . S
H441 C433 0.931 . S
H442 C456 0.930 . S
H443 C423 0.930 . S
H444 C429 0.929 . S
H445 C430 0.930 . S
H446 C451 0.930 . S
H447 C426 0.930 . S
H448 C459 0.931 . S
N449 Tb420 2.617 . S
N449 C450 1.379 . S
N449 C453 1.334 . S
C450 N449 1.379 . S
C450 C452 1.416 . S
C450 C458 1.424 . S
C451 H446 0.930 . S
C451 C453 1.390 . S
C451 C454 1.339 . S
C452 C450 1.416 . S
C452 C454 1.416 . S
C452 C485 1.448 . S
C453 H438 0.930 . S
C453 N449 1.334 . S
C453 C451 1.390 . S
C454 C451 1.339 . S
C454 C452 1.416 . S
C454 H461 0.930 . S
N455 Tb420 2.572 . S
N455 C456 1.340 . S
N455 C458 1.361 . S
C456 H442 0.930 . S
C456 N455 1.340 . S
C456 C460 1.407 . S
C457 C458 1.413 . S
C457 C459 1.416 . S
C457 C486 1.427 . S
C458 C450 1.424 . S
C458 N455 1.361 . S
C458 C457 1.413 . S
C459 H448 0.931 . S
C459 C457 1.416 . S
C459 C460 1.332 . S
C460 H439 0.929 . S
C460 C456 1.407 . S
C460 C459 1.332 . S
H461 C454 0.930 . S
H462 C485 0.930 . S
H463 C486 0.929 . S
O464 Tb420 2.465 . S
O464 C484 1.264 . S
O465 Tb420 2.387 . S
O465 C476 1.264 . S
O466 Tb431 2.349 . S
O466 C476 1.243 . S
O467 Tb420 2.428 . S
O467 C484 1.256 . S
O468 Tb420 2.308 . S
O468 C483 1.266 . S
O469 Tb431 2.393 . S
O469 C483 1.248 . S
O470 Tb431 2.465 . S
O470 C495 1.264 . S
O471 Tb431 2.387 . S
O471 C487 1.264 . S
O472 Tb420 2.349 . S
O472 C487 1.243 . S
O473 Tb431 2.428 . S
O473 C495 1.256 . S
O474 Tb431 2.308 . S
O474 C494 1.266 . S
O475 Tb420 2.393 . S
O475 C494 1.248 . S
C476 O465 1.264 . S
C476 O466 1.243 . S
C477 C480 1.399 . S
C477 C482 1.383 . S
C477 C484 1.496 . S
C478 C479 1.399 . S
C478 C482 1.389 . S
C479 C478 1.399 . S
C479 C481 1.380 . S
C479 H496 0.929 . S
C480 C477 1.399 . S
C480 C481 1.392 . S
C480 H497 0.929 . S
C481 C479 1.380 . S
C481 C480 1.392 . S
C481 H498 0.929 . S
C482 C477 1.383 . S
C482 C478 1.389 . S
C482 H499 0.931 . S
C483 O468 1.266 . S
C483 O469 1.248 . S
C484 Tb420 2.802 . S
C484 O464 1.264 . S
C484 O467 1.256 . S
C484 C477 1.496 . S
C485 C452 1.448 . S
C485 H462 0.930 . S
C485 C486 1.328 . S
C486 C457 1.427 . S
C486 H463 0.929 . S
C486 C485 1.328 . S
C487 O471 1.264 . S
C487 O472 1.243 . S
C488 C491 1.399 . S
C488 C492 1.383 . S
C488 C495 1.496 . S
C489 C490 1.399 . S
C489 C492 1.389 . S
C490 C489 1.399 . S
C490 C493 1.380 . S
C490 H500 0.929 . S
C491 C488 1.399 . S
C491 C493 1.392 . S
C491 H501 0.929 . S
C492 C488 1.383 . S
C492 C489 1.389 . S
C492 H502 0.931 . S
C493 C490 1.380 . S
C493 C491 1.392 . S
C493 H503 0.929 . S
C494 O474 1.266 . S
C494 O475 1.248 . S
C495 Tb431 2.802 . S
C495 O470 1.264 . S
C495 O473 1.256 . S
C495 C488 1.496 . S
H496 C479 0.929 . S
H497 C480 0.929 . S
H498 C481 0.929 . S
H499 C482 0.931 . S
H500 C490 0.929 . S
H501 C491 0.929 . S
H502 C492 0.931 . S
H503 C493 0.929 . S
Tb504 N533 2.617 . S
Tb504 N539 2.572 . S
Tb504 O548 2.465 . S
Tb504 O549 2.387 . S
Tb504 O551 2.428 . S
Tb504 O552 2.308 . S
Tb504 O556 2.349 . S
Tb504 O559 2.393 . S
Tb504 C568 2.802 . S
C505 N506 1.379 . S
C505 C508 1.416 . S
C505 C512 1.424 . S
N506 C505 1.379 . S
N506 C509 1.334 . S
N506 Tb515 2.617 . S
C507 C509 1.390 . S
C507 C510 1.339 . S
C507 H527 0.930 . S
C508 C505 1.416 . S
C508 C510 1.416 . S
C508 C514 1.448 . S
C509 N506 1.334 . S
C509 C507 1.390 . S
C509 H520 0.930 . S
C510 C507 1.339 . S
C510 C508 1.416 . S
C510 H531 0.930 . S
C511 C512 1.413 . S
C511 C513 1.427 . S
C511 C517 1.416 . S
C512 C505 1.424 . S
C512 C511 1.413 . S
C512 N516 1.361 . S
C513 C511 1.427 . S
C513 C514 1.328 . S
C513 H528 0.929 . S
C514 C508 1.448 . S
C514 C513 1.328 . S
C514 H529 0.930 . S
Tb515 N506 2.617 . S
Tb515 N516 2.572 . S
Tb515 O550 2.349 . S
Tb515 O553 2.393 . S
Tb515 O554 2.465 . S
Tb515 O555 2.387 . S
Tb515 O557 2.428 . S
Tb515 O558 2.308 . S
Tb515 C579 2.802 . S
N516 C512 1.361 . S
N516 Tb515 2.572 . S
N516 C518 1.340 . S
C517 C511 1.416 . S
C517 C519 1.332 . S
C517 H525 0.931 . S
C518 N516 1.340 . S
C518 C519 1.407 . S
C518 H524 0.930 . S
C519 C517 1.332 . S
C519 C518 1.407 . S
C519 H521 0.929 . S
H520 C509 0.930 . S
H521 C519 0.929 . S
H522 C537 0.930 . S
H523 C544 0.929 . S
H524 C518 0.930 . S
H525 C517 0.931 . S
H526 C540 0.930 . S
H527 C507 0.930 . S
H528 C513 0.929 . S
H529 C514 0.930 . S
H530 C535 0.930 . S
H531 C510 0.930 . S
H532 C543 0.931 . S
N533 Tb504 2.617 . S
N533 C534 1.379 . S
N533 C537 1.334 . S
C534 N533 1.379 . S
C534 C536 1.416 . S
C534 C542 1.424 . S
C535 H530 0.930 . S
C535 C537 1.390 . S
C535 C538 1.339 . S
C536 C534 1.416 . S
C536 C538 1.416 . S
C536 C569 1.448 . S
C537 H522 0.930 . S
C537 N533 1.334 . S
C537 C535 1.390 . S
C538 C535 1.339 . S
C538 C536 1.416 . S
C538 H545 0.930 . S
N539 Tb504 2.572 . S
N539 C540 1.340 . S
N539 C542 1.361 . S
C540 H526 0.930 . S
C540 N539 1.340 . S
C540 C544 1.407 . S
C541 C542 1.413 . S
C541 C543 1.416 . S
C541 C570 1.427 . S
C542 C534 1.424 . S
C542 N539 1.361 . S
C542 C541 1.413 . S
C543 H532 0.931 . S
C543 C541 1.416 . S
C543 C544 1.332 . S
C544 H523 0.929 . S
C544 C540 1.407 . S
C544 C543 1.332 . S
H545 C538 0.930 . S
H546 C569 0.930 . S
H547 C570 0.929 . S
O548 Tb504 2.465 . S
O548 C568 1.264 . S
O549 Tb504 2.387 . S
O549 C560 1.264 . S
O550 Tb515 2.349 . S
O550 C560 1.243 . S
O551 Tb504 2.428 . S
O551 C568 1.256 . S
O552 Tb504 2.308 . S
O552 C567 1.266 . S
O553 Tb515 2.393 . S
O553 C567 1.248 . S
O554 Tb515 2.465 . S
O554 C579 1.264 . S
O555 Tb515 2.387 . S
O555 C571 1.264 . S
O556 Tb504 2.349 . S
O556 C571 1.243 . S
O557 Tb515 2.428 . S
O557 C579 1.256 . S
O558 Tb515 2.308 . S
O558 C578 1.266 . S
O559 Tb504 2.393 . S
O559 C578 1.248 . S
C560 O549 1.264 . S
C560 O550 1.243 . S
C561 C564 1.399 . S
C561 C566 1.383 . S
C561 C568 1.496 . S
C562 C563 1.399 . S
C562 C566 1.389 . S
C563 C562 1.399 . S
C563 C565 1.380 . S
C563 H580 0.929 1_655 S
C564 C561 1.399 . S
C564 C565 1.392 . S
C564 H581 0.929 . S
C565 C563 1.380 . S
C565 C564 1.392 . S
C565 H582 0.932 1_655 S
C566 C561 1.383 . S
C566 C562 1.389 . S
C566 H583 0.931 . S
C567 O552 1.266 . S
C567 O553 1.248 . S
C568 Tb504 2.802 . S
C568 O548 1.264 . S
C568 O551 1.256 . S
C568 C561 1.496 . S
C569 C536 1.448 . S
C569 H546 0.930 . S
C569 C570 1.328 . S
C570 C541 1.427 . S
C570 H547 0.929 . S
C570 C569 1.328 . S
C571 O555 1.264 . S
C571 O556 1.243 . S
C572 C575 1.399 . S
C572 C576 1.383 . S
C572 C579 1.496 . S
C573 C574 1.399 . S
C573 C576 1.389 . S
C574 C573 1.399 . S
C574 C577 1.380 . S
C574 H584 0.929 . S
C575 C572 1.399 . S
C575 C577 1.392 . S
C575 H585 0.929 . S
C576 C572 1.383 . S
C576 C573 1.389 . S
C576 H586 0.931 . S
C577 C574 1.380 . S
C577 C575 1.392 . S
C577 H587 0.929 . S
C578 O558 1.266 . S
C578 O559 1.248 . S
C579 Tb515 2.802 . S
C579 O554 1.264 . S
C579 O557 1.256 . S
C579 C572 1.496 . S
H580 C563 0.929 1_455 S
H581 C564 0.929 . S
H582 C565 0.932 1_455 S
H583 C566 0.931 . S
H584 C574 0.929 . S
H585 C575 0.929 . S
H586 C576 0.931 . S
H587 C577 0.929 . S
Tb588 N617 2.617 . S
Tb588 N623 2.572 . S
Tb588 O632 2.465 . S
Tb588 O633 2.387 . S
Tb588 O635 2.428 . S
Tb588 O636 2.308 . S
Tb588 O640 2.349 . S
Tb588 O643 2.393 . S
Tb588 C652 2.802 . S
C589 N590 1.379 . S
C589 C592 1.416 1_455 S
C589 C596 1.424 . S
N590 C589 1.379 . S
N590 C593 1.334 1_455 S
N590 Tb599 2.617 . S
C591 C593 1.390 . S
C591 C594 1.339 . S
C591 H611 0.930 . S
C592 C589 1.416 1_655 S
C592 C594 1.416 . S
C592 C598 1.448 . S
C593 N590 1.334 1_655 S
C593 C591 1.390 . S
C593 H604 0.930 . S
C594 C591 1.339 . S
C594 C592 1.416 . S
C594 H615 0.930 . S
C595 C596 1.413 . S
C595 C597 1.427 1_455 S
C595 C601 1.416 . S
C596 C589 1.424 . S
C596 C595 1.413 . S
C596 N600 1.361 . S
C597 C595 1.427 1_655 S
C597 C598 1.328 . S
C597 H612 0.929 . S
C598 C592 1.448 . S
C598 C597 1.328 . S
C598 H613 0.930 . S
Tb599 N590 2.617 . S
Tb599 N600 2.572 . S
Tb599 O634 2.349 . S
Tb599 O637 2.393 . S
Tb599 O638 2.465 . S
Tb599 O639 2.387 . S
Tb599 O641 2.428 . S
Tb599 O642 2.308 . S
Tb599 C663 2.802 . S
N600 C596 1.361 . S
N600 Tb599 2.572 . S
N600 C602 1.340 . S
C601 C595 1.416 . S
C601 C603 1.332 . S
C601 H609 0.931 . S
C602 N600 1.340 . S
C602 C603 1.407 . S
C602 H608 0.930 . S
C603 C601 1.332 . S
C603 C602 1.407 . S
C603 H605 0.929 . S
H604 C593 0.930 . S
H605 C603 0.929 . S
H606 C621 0.930 . S
H607 C628 0.929 . S
H608 C602 0.930 . S
H609 C601 0.931 . S
H610 C624 0.930 . S
H611 C591 0.930 . S
H612 C597 0.929 . S
H613 C598 0.930 . S
H614 C619 0.930 . S
H615 C594 0.930 . S
H616 C627 0.931 . S
N617 Tb588 2.617 . S
N617 C618 1.379 . S
N617 C621 1.334 . S
C618 N617 1.379 . S
C618 C620 1.416 . S
C618 C626 1.424 . S
C619 H614 0.930 . S
C619 C621 1.390 . S
C619 C622 1.339 . S
C620 C618 1.416 . S
C620 C622 1.416 . S
C620 C653 1.448 . S
C621 H606 0.930 . S
C621 N617 1.334 . S
C621 C619 1.390 . S
C622 C619 1.339 . S
C622 C620 1.416 . S
C622 H629 0.930 . S
N623 Tb588 2.572 . S
N623 C624 1.340 . S
N623 C626 1.361 . S
C624 H610 0.930 . S
C624 N623 1.340 . S
C624 C628 1.407 . S
C625 C626 1.413 . S
C625 C627 1.416 . S
C625 C654 1.427 . S
C626 C618 1.424 . S
C626 N623 1.361 . S
C626 C625 1.413 . S
C627 H616 0.931 . S
C627 C625 1.416 . S
C627 C628 1.332 . S
C628 H607 0.929 . S
C628 C624 1.407 . S
C628 C627 1.332 . S
H629 C622 0.930 . S
H630 C653 0.930 . S
H631 C654 0.929 . S
O632 Tb588 2.465 . S
O632 C652 1.264 . S
O633 Tb588 2.387 . S
O633 C644 1.264 . S
O634 Tb599 2.349 . S
O634 C644 1.243 . S
O635 Tb588 2.428 . S
O635 C652 1.256 . S
O636 Tb588 2.308 . S
O636 C651 1.266 . S
O637 Tb599 2.393 . S
O637 C651 1.248 . S
O638 Tb599 2.465 . S
O638 C663 1.264 . S
O639 Tb599 2.387 . S
O639 C655 1.264 . S
O640 Tb588 2.349 . S
O640 C655 1.243 . S
O641 Tb599 2.428 . S
O641 C663 1.256 . S
O642 Tb599 2.308 . S
O642 C662 1.266 . S
O643 Tb588 2.393 . S
O643 C662 1.248 . S
C644 O633 1.264 . S
C644 O634 1.243 . S
C645 C648 1.399 . S
C645 C650 1.383 . S
C645 C652 1.496 . S
C646 C647 1.399 . S
C646 C650 1.389 . S
C647 C646 1.399 . S
C647 C649 1.380 . S
C647 H664 0.929 . S
C648 C645 1.399 . S
C648 C649 1.392 . S
C648 H665 0.929 . S
C649 C647 1.380 . S
C649 C648 1.392 . S
C649 H666 0.929 . S
C650 C645 1.383 . S
C650 C646 1.389 . S
C650 H667 0.931 . S
C651 O636 1.266 . S
C651 O637 1.248 . S
C652 Tb588 2.802 . S
C652 O632 1.264 . S
C652 O635 1.256 . S
C652 C645 1.496 . S
C653 C620 1.448 . S
C653 H630 0.930 . S
C653 C654 1.328 . S
C654 C625 1.427 . S
C654 H631 0.929 . S
C654 C653 1.328 . S
C655 O639 1.264 . S
C655 O640 1.243 . S
C656 C659 1.399 . S
C656 C660 1.383 . S
C656 C663 1.496 . S
C657 C658 1.399 . S
C657 C660 1.389 . S
C658 C657 1.399 . S
C658 C661 1.380 . S
C658 H668 0.929 . S
C659 C656 1.399 . S
C659 C661 1.392 . S
C659 H669 0.929 . S
C660 C656 1.383 . S
C660 C657 1.389 . S
C660 H670 0.931 . S
C661 C658 1.380 . S
C661 C659 1.392 . S
C661 H671 0.931 1_455 S
C662 O642 1.266 . S
C662 O643 1.248 . S
C663 Tb599 2.802 . S
C663 O638 1.264 . S
C663 O641 1.256 . S
C663 C656 1.496 . S
H664 C647 0.929 . S
H665 C648 0.929 . S
H666 C649 0.929 . S
H667 C650 0.931 . S
H668 C658 0.929 . S
H669 C659 0.929 . S
H670 C660 0.931 . S
H671 C661 0.931 1_655 S
Tb672 N701 2.617 . S
Tb672 N707 2.572 . S
Tb672 O716 2.465 . S
Tb672 O717 2.387 . S
Tb672 O719 2.428 . S
Tb672 O720 2.308 . S
Tb672 O724 2.349 . S
Tb672 O727 2.393 . S
Tb672 C736 2.802 . S
C673 N674 1.379 . S
C673 C676 1.416 . S
C673 C680 1.424 . S
N674 C673 1.379 . S
N674 C677 1.334 . S
N674 Tb683 2.617 . S
C675 C677 1.390 . S
C675 C678 1.339 . S
C675 H695 0.930 . S
C676 C673 1.416 . S
C676 C678 1.416 . S
C676 C682 1.448 . S
C677 N674 1.334 . S
C677 C675 1.390 . S
C677 H688 0.930 . S
C678 C675 1.339 . S
C678 C676 1.416 . S
C678 H699 0.930 . S
C679 C680 1.413 . S
C679 C681 1.427 . S
C679 C685 1.416 . S
C680 C673 1.424 . S
C680 C679 1.413 . S
C680 N684 1.361 . S
C681 C679 1.427 . S
C681 C682 1.328 . S
C681 H696 0.929 . S
C682 C676 1.448 . S
C682 C681 1.328 . S
C682 H697 0.930 . S
Tb683 N674 2.617 . S
Tb683 N684 2.572 . S
Tb683 O718 2.349 . S
Tb683 O721 2.393 . S
Tb683 O722 2.465 . S
Tb683 O723 2.387 . S
Tb683 O725 2.428 . S
Tb683 O726 2.308 . S
Tb683 C747 2.802 . S
N684 C680 1.361 . S
N684 Tb683 2.572 . S
N684 C686 1.340 . S
C685 C679 1.416 . S
C685 C687 1.332 . S
C685 H693 0.931 . S
C686 N684 1.340 . S
C686 C687 1.407 . S
C686 H692 0.930 . S
C687 C685 1.332 . S
C687 C686 1.407 . S
C687 H689 0.929 . S
H688 C677 0.930 . S
H689 C687 0.929 . S
H690 C705 0.930 . S
H691 C712 0.929 . S
H692 C686 0.930 . S
H693 C685 0.931 . S
H694 C708 0.930 . S
H695 C675 0.930 . S
H696 C681 0.929 . S
H697 C682 0.930 . S
H698 C703 0.930 . S
H699 C678 0.930 . S
H700 C711 0.931 . S
N701 Tb672 2.617 . S
N701 C702 1.379 . S
N701 C705 1.334 . S
C702 N701 1.379 . S
C702 C704 1.416 . S
C702 C710 1.424 . S
C703 H698 0.930 . S
C703 C705 1.390 . S
C703 C706 1.339 . S
C704 C702 1.416 . S
C704 C706 1.416 . S
C704 C737 1.448 . S
C705 H690 0.930 . S
C705 N701 1.334 . S
C705 C703 1.390 . S
C706 C703 1.339 . S
C706 C704 1.416 . S
C706 H713 0.930 . S
N707 Tb672 2.572 . S
N707 C708 1.340 . S
N707 C710 1.361 . S
C708 H694 0.930 . S
C708 N707 1.340 . S
C708 C712 1.407 . S
C709 C710 1.413 . S
C709 C711 1.416 . S
C709 C738 1.427 . S
C710 C702 1.424 . S
C710 N707 1.361 . S
C710 C709 1.413 . S
C711 H700 0.931 . S
C711 C709 1.416 . S
C711 C712 1.332 . S
C712 H691 0.929 . S
C712 C708 1.407 . S
C712 C711 1.332 . S
H713 C706 0.930 . S
H714 C737 0.930 . S
H715 C738 0.929 . S
O716 Tb672 2.465 . S
O716 C736 1.264 . S
O717 Tb672 2.387 . S
O717 C728 1.264 . S
O718 Tb683 2.349 . S
O718 C728 1.243 . S
O719 Tb672 2.428 . S
O719 C736 1.256 . S
O720 Tb672 2.308 . S
O720 C735 1.266 . S
O721 Tb683 2.393 . S
O721 C735 1.248 . S
O722 Tb683 2.465 . S
O722 C747 1.264 . S
O723 Tb683 2.387 . S
O723 C739 1.264 . S
O724 Tb672 2.349 . S
O724 C739 1.243 . S
O725 Tb683 2.428 . S
O725 C747 1.256 . S
O726 Tb683 2.308 . S
O726 C746 1.266 . S
O727 Tb672 2.393 . S
O727 C746 1.248 . S
C728 O717 1.264 . S
C728 O718 1.243 . S
C729 C732 1.399 . S
C729 C734 1.383 . S
C729 C736 1.496 . S
C730 C731 1.399 . S
C730 C734 1.389 . S
C731 C730 1.399 . S
C731 C733 1.380 . S
C731 H748 0.929 . S
C732 C729 1.399 . S
C732 C733 1.392 . S
C732 H749 0.929 . S
C733 C731 1.380 . S
C733 C732 1.392 . S
C733 H750 0.929 . S
C734 C729 1.383 . S
C734 C730 1.389 . S
C734 H751 0.931 . S
C735 O720 1.266 . S
C735 O721 1.248 . S
C736 Tb672 2.802 . S
C736 O716 1.264 . S
C736 O719 1.256 . S
C736 C729 1.496 . S
C737 C704 1.448 . S
C737 H714 0.930 . S
C737 C738 1.328 . S
C738 C709 1.427 . S
C738 H715 0.929 . S
C738 C737 1.328 . S
C739 O723 1.264 . S
C739 O724 1.243 . S
C740 C743 1.399 . S
C740 C744 1.383 . S
C740 C747 1.496 . S
C741 C742 1.399 . S
C741 C744 1.389 . S
C742 C741 1.399 . S
C742 C745 1.380 . S
C742 H752 0.929 1_655 S
C743 C740 1.399 . S
C743 C745 1.392 . S
C743 H753 0.929 . S
C744 C740 1.383 . S
C744 C741 1.389 . S
C744 H754 0.931 . S
C745 C742 1.380 . S
C745 C743 1.392 . S
C745 H755 0.932 1_655 S
C746 O726 1.266 . S
C746 O727 1.248 . S
C747 Tb683 2.802 . S
C747 O722 1.264 . S
C747 O725 1.256 . S
C747 C740 1.496 . S
H748 C731 0.929 . S
H749 C732 0.929 . S
H750 C733 0.929 . S
H751 C734 0.931 . S
H752 C742 0.929 1_455 S
H753 C743 0.929 . S
H754 C744 0.931 . S
H755 C745 0.932 1_455 S
Tb756 N785 2.617 . S
Tb756 N791 2.572 . S
Tb756 O800 2.465 . S
Tb756 O801 2.387 . S
Tb756 O803 2.428 . S
Tb756 O804 2.308 . S
Tb756 O808 2.349 . S
Tb756 O811 2.393 . S
Tb756 C820 2.802 . S
C757 N758 1.379 . S
C757 C760 1.416 . S
C757 C764 1.424 . S
N758 C757 1.379 . S
N758 C761 1.334 . S
N758 Tb767 2.617 . S
C759 C761 1.390 . S
C759 C762 1.339 . S
C759 H779 0.930 . S
C760 C757 1.416 . S
C760 C762 1.416 . S
C760 C766 1.448 . S
C761 N758 1.334 . S
C761 C759 1.390 . S
C761 H772 0.930 . S
C762 C759 1.339 . S
C762 C760 1.416 . S
C762 H783 0.930 . S
C763 C764 1.413 . S
C763 C765 1.427 . S
C763 C769 1.416 . S
C764 C757 1.424 . S
C764 C763 1.413 . S
C764 N768 1.361 . S
C765 C763 1.427 . S
C765 C766 1.328 . S
C765 H780 0.929 . S
C766 C760 1.448 . S
C766 C765 1.328 . S
C766 H781 0.930 . S
Tb767 N758 2.617 . S
Tb767 N768 2.572 . S
Tb767 O802 2.349 . S
Tb767 O805 2.393 . S
Tb767 O806 2.465 . S
Tb767 O807 2.387 . S
Tb767 O809 2.428 . S
Tb767 O810 2.308 . S
Tb767 C831 2.802 . S
N768 C764 1.361 . S
N768 Tb767 2.572 . S
N768 C770 1.340 . S
C769 C763 1.416 . S
C769 C771 1.332 . S
C769 H777 0.931 . S
C770 N768 1.340 . S
C770 C771 1.407 . S
C770 H776 0.930 . S
C771 C769 1.332 . S
C771 C770 1.407 . S
C771 H773 0.929 . S
H772 C761 0.930 . S
H773 C771 0.929 . S
H774 C789 0.930 . S
H775 C796 0.929 . S
H776 C770 0.930 . S
H777 C769 0.931 . S
H778 C792 0.930 . S
H779 C759 0.930 . S
H780 C765 0.929 . S
H781 C766 0.930 . S
H782 C787 0.930 . S
H783 C762 0.930 . S
H784 C795 0.931 . S
N785 Tb756 2.617 . S
N785 C786 1.379 . S
N785 C789 1.334 1_455 S
C786 N785 1.379 . S
C786 C788 1.416 1_455 S
C786 C794 1.424 . S
C787 H782 0.930 . S
C787 C789 1.390 . S
C787 C790 1.339 . S
C788 C786 1.416 1_655 S
C788 C790 1.416 . S
C788 C821 1.448 . S
C789 H774 0.930 . S
C789 N785 1.334 1_655 S
C789 C787 1.390 . S
C790 C787 1.339 . S
C790 C788 1.416 . S
C790 H797 0.930 . S
N791 Tb756 2.572 . S
N791 C792 1.340 . S
N791 C794 1.361 . S
C792 H778 0.930 . S
C792 N791 1.340 . S
C792 C796 1.407 . S
C793 C794 1.413 . S
C793 C795 1.416 . S
C793 C822 1.427 1_455 S
C794 C786 1.424 . S
C794 N791 1.361 . S
C794 C793 1.413 . S
C795 H784 0.931 . S
C795 C793 1.416 . S
C795 C796 1.332 . S
C796 H775 0.929 . S
C796 C792 1.407 . S
C796 C795 1.332 . S
H797 C790 0.930 . S
H798 C821 0.930 . S
H799 C822 0.929 . S
O800 Tb756 2.465 . S
O800 C820 1.264 . S
O801 Tb756 2.387 . S
O801 C812 1.264 . S
O802 Tb767 2.349 . S
O802 C812 1.243 . S
O803 Tb756 2.428 . S
O803 C820 1.256 . S
O804 Tb756 2.308 . S
O804 C819 1.266 . S
O805 Tb767 2.393 . S
O805 C819 1.248 . S
O806 Tb767 2.465 . S
O806 C831 1.264 . S
O807 Tb767 2.387 . S
O807 C823 1.264 . S
O808 Tb756 2.349 . S
O808 C823 1.243 . S
O809 Tb767 2.428 . S
O809 C831 1.256 . S
O810 Tb767 2.308 . S
O810 C830 1.266 . S
O811 Tb756 2.393 . S
O811 C830 1.248 . S
C812 O801 1.264 . S
C812 O802 1.243 . S
C813 C816 1.399 . S
C813 C818 1.383 . S
C813 C820 1.496 . S
C814 C815 1.399 . S
C814 C818 1.389 . S
C815 C814 1.399 . S
C815 C817 1.380 . S
C815 H832 0.929 1_545 S
C816 C813 1.399 . S
C816 C817 1.392 . S
C816 H833 0.929 . S
C817 C815 1.380 . S
C817 C816 1.392 . S
C817 H834 0.931 1_455 S
C818 C813 1.383 . S
C818 C814 1.389 . S
C818 H835 0.931 . S
C819 O804 1.266 . S
C819 O805 1.248 . S
C820 Tb756 2.802 . S
C820 O800 1.264 . S
C820 O803 1.256 . S
C820 C813 1.496 . S
C821 C788 1.448 . S
C821 H798 0.930 . S
C821 C822 1.328 . S
C822 C793 1.427 1_655 S
C822 H799 0.929 . S
C822 C821 1.328 . S
C823 O807 1.264 . S
C823 O808 1.243 . S
C824 C827 1.399 . S
C824 C828 1.383 . S
C824 C831 1.496 . S
C825 C826 1.399 . S
C825 C828 1.389 . S
C826 C825 1.399 . S
C826 C829 1.380 . S
C826 H836 0.929 . S
C827 C824 1.399 . S
C827 C829 1.392 . S
C827 H837 0.929 . S
C828 C824 1.383 . S
C828 C825 1.389 . S
C828 H838 0.931 . S
C829 C826 1.380 . S
C829 C827 1.392 . S
C829 H839 0.929 . S
C830 O810 1.266 . S
C830 O811 1.248 . S
C831 Tb767 2.802 . S
C831 O806 1.264 . S
C831 O809 1.256 . S
C831 C824 1.496 . S
H832 C815 0.929 1_565 S
H833 C816 0.929 . S
H834 C817 0.931 1_655 S
H835 C818 0.931 . S
H836 C826 0.929 . S
H837 C827 0.929 . S
H838 C828 0.931 . S
H839 C829 0.929 . S
Tb840 N869 2.617 . S
Tb840 N875 2.572 . S
Tb840 O884 2.465 . S
Tb840 O885 2.387 . S
Tb840 O887 2.428 . S
Tb840 O888 2.308 . S
Tb840 O892 2.349 . S
Tb840 O895 2.393 . S
Tb840 C904 2.802 . S
C841 N842 1.379 1_556 S
C841 C844 1.416 . S
C841 C848 1.424 . S
N842 C841 1.379 1_554 S
N842 C845 1.334 . S
N842 Tb851 2.617 . S
C843 C845 1.390 . S
C843 C846 1.339 . S
C843 H863 0.930 . S
C844 C841 1.416 . S
C844 C846 1.416 1_556 S
C844 C850 1.448 . S
C845 N842 1.334 . S
C845 C843 1.390 . S
C845 H856 0.930 . S
C846 C843 1.339 . S
C846 C844 1.416 1_554 S
C846 H867 0.930 . S
C847 C848 1.413 . S
C847 C849 1.427 . S
C847 C853 1.416 . S
C848 C841 1.424 . S
C848 C847 1.413 . S
C848 N852 1.361 . S
C849 C847 1.427 . S
C849 C850 1.328 . S
C849 H864 0.929 . S
C850 C844 1.448 . S
C850 C849 1.328 . S
C850 H865 0.930 . S
Tb851 N842 2.617 . S
Tb851 N852 2.572 1_554 S
Tb851 O886 2.349 . S
Tb851 O889 2.393 . S
Tb851 O890 2.465 1_554 S
Tb851 O891 2.387 . S
Tb851 O893 2.428 1_554 S
Tb851 O894 2.308 1_554 S
Tb851 C915 2.802 1_554 S
N852 C848 1.361 . S
N852 Tb851 2.572 1_556 S
N852 C854 1.340 . S
C853 C847 1.416 . S
C853 C855 1.332 . S
C853 H861 0.931 . S
C854 N852 1.340 . S
C854 C855 1.407 . S
C854 H860 0.930 . S
C855 C853 1.332 . S
C855 C854 1.407 . S
C855 H857 0.929 . S
H856 C845 0.930 . S
H857 C855 0.929 . S
H858 C873 0.930 . S
H859 C880 0.929 . S
H860 C854 0.930 . S
H861 C853 0.931 . S
H862 C876 0.930 . S
H863 C843 0.930 . S
H864 C849 0.929 . S
H865 C850 0.930 . S
H866 C871 0.930 . S
H867 C846 0.930 . S
H868 C879 0.931 . S
N869 Tb840 2.617 . S
N869 C870 1.379 . S
N869 C873 1.334 . S
C870 N869 1.379 . S
C870 C872 1.416 . S
C870 C878 1.424 . S
C871 H866 0.930 . S
C871 C873 1.390 . S
C871 C874 1.339 . S
C872 C870 1.416 . S
C872 C874 1.416 . S
C872 C905 1.448 . S
C873 H858 0.930 . S
C873 N869 1.334 . S
C873 C871 1.390 . S
C874 C871 1.339 . S
C874 C872 1.416 . S
C874 H881 0.930 . S
N875 Tb840 2.572 . S
N875 C876 1.340 . S
N875 C878 1.361 . S
C876 H862 0.930 . S
C876 N875 1.340 . S
C876 C880 1.407 . S
C877 C878 1.413 . S
C877 C879 1.416 . S
C877 C906 1.427 . S
C878 C870 1.424 . S
C878 N875 1.361 . S
C878 C877 1.413 . S
C879 H868 0.931 . S
C879 C877 1.416 . S
C879 C880 1.332 . S
C880 H859 0.929 . S
C880 C876 1.407 . S
C880 C879 1.332 . S
H881 C874 0.930 . S
H882 C905 0.930 . S
H883 C906 0.929 . S
O884 Tb840 2.465 . S
O884 C904 1.264 . S
O885 Tb840 2.387 . S
O885 C896 1.264 . S
O886 Tb851 2.349 . S
O886 C896 1.243 . S
O887 Tb840 2.428 . S
O887 C904 1.256 . S
O888 Tb840 2.308 . S
O888 C903 1.266 . S
O889 Tb851 2.393 . S
O889 C903 1.248 . S
O890 Tb851 2.465 1_556 S
O890 C915 1.264 . S
O891 Tb851 2.387 . S
O891 C907 1.264 . S
O892 Tb840 2.349 . S
O892 C907 1.243 . S
O893 Tb851 2.428 1_556 S
O893 C915 1.256 . S
O894 Tb851 2.308 1_556 S
O894 C914 1.266 . S
O895 Tb840 2.393 . S
O895 C914 1.248 1_554 S
C896 O885 1.264 . S
C896 O886 1.243 . S
C897 C900 1.399 . S
C897 C902 1.383 . S
C897 C904 1.496 . S
C898 C899 1.399 . S
C898 C902 1.389 . S
C899 C898 1.399 . S
C899 C901 1.380 . S
C899 H916 0.929 . S
C900 C897 1.399 . S
C900 C901 1.392 . S
C900 H917 0.929 . S
C901 C899 1.380 . S
C901 C900 1.392 . S
C901 H918 0.929 . S
C902 C897 1.383 . S
C902 C898 1.389 . S
C902 H919 0.931 . S
C903 O888 1.266 . S
C903 O889 1.248 . S
C904 Tb840 2.802 . S
C904 O884 1.264 . S
C904 O887 1.256 . S
C904 C897 1.496 . S
C905 C872 1.448 . S
C905 H882 0.930 . S
C905 C906 1.328 . S
C906 C877 1.427 . S
C906 H883 0.929 . S
C906 C905 1.328 . S
C907 O891 1.264 . S
C907 O892 1.243 . S
C908 C911 1.399 . S
C908 C912 1.383 . S
C908 C915 1.496 . S
C909 C910 1.399 . S
C909 C912 1.389 . S
C910 C909 1.399 . S
C910 C913 1.380 . S
C910 H920 0.929 . S
C911 C908 1.399 . S
C911 C913 1.392 . S
C911 H921 0.929 . S
C912 C908 1.383 . S
C912 C909 1.389 . S
C912 H922 0.931 . S
C913 C910 1.380 . S
C913 C911 1.392 . S
C913 H923 0.929 . S
C914 O894 1.266 . S
C914 O895 1.248 1_556 S
C915 Tb851 2.802 1_556 S
C915 O890 1.264 . S
C915 O893 1.256 . S
C915 C908 1.496 . S
H916 C899 0.929 . S
H917 C900 0.929 . S
H918 C901 0.929 . S
H919 C902 0.931 . S
H920 C910 0.929 . S
H921 C911 0.929 . S
H922 C912 0.931 . S
H923 C913 0.929 . S
Tb924 N953 2.617 . S
Tb924 N959 2.572 . S
Tb924 O968 2.465 . S
Tb924 O969 2.387 . S
Tb924 O971 2.428 . S
Tb924 O972 2.308 . S
Tb924 O976 2.349 . S
Tb924 O979 2.393 . S
Tb924 C988 2.802 . S
C925 N926 1.379 . S
C925 C928 1.416 . S
C925 C932 1.424 . S
N926 C925 1.379 . S
N926 C929 1.334 . S
N926 Tb935 2.617 . S
C927 C929 1.390 . S
C927 C930 1.339 . S
C927 H947 0.930 . S
C928 C925 1.416 . S
C928 C930 1.416 . S
C928 C934 1.448 . S
C929 N926 1.334 . S
C929 C927 1.390 . S
C929 H940 0.930 . S
C930 C927 1.339 . S
C930 C928 1.416 . S
C930 H951 0.930 . S
C931 C932 1.413 . S
C931 C933 1.427 . S
C931 C937 1.416 . S
C932 C925 1.424 . S
C932 C931 1.413 . S
C932 N936 1.361 . S
C933 C931 1.427 . S
C933 C934 1.328 . S
C933 H948 0.929 . S
C934 C928 1.448 . S
C934 C933 1.328 . S
C934 H949 0.930 . S
Tb935 N926 2.617 . S
Tb935 N936 2.572 . S
Tb935 O970 2.349 . S
Tb935 O973 2.393 . S
Tb935 O974 2.465 . S
Tb935 O975 2.387 . S
Tb935 O977 2.428 . S
Tb935 O978 2.308 . S
Tb935 C999 2.802 . S
N936 C932 1.361 . S
N936 Tb935 2.572 . S
N936 C938 1.340 . S
C937 C931 1.416 . S
C937 C939 1.332 . S
C937 H945 0.931 . S
C938 N936 1.340 . S
C938 C939 1.407 . S
C938 H944 0.930 . S
C939 C937 1.332 . S
C939 C938 1.407 . S
C939 H941 0.929 . S
H940 C929 0.930 . S
H941 C939 0.929 . S
H942 C957 0.930 . S
H943 C964 0.929 . S
H944 C938 0.930 . S
H945 C937 0.931 . S
H946 C960 0.930 . S
H947 C927 0.930 . S
H948 C933 0.929 . S
H949 C934 0.930 . S
H950 C955 0.930 . S
H951 C930 0.930 . S
H952 C963 0.931 . S
N953 Tb924 2.617 . S
N953 C954 1.379 . S
N953 C957 1.334 . S
C954 N953 1.379 . S
C954 C956 1.416 . S
C954 C962 1.424 . S
C955 H950 0.930 . S
C955 C957 1.390 . S
C955 C958 1.339 . S
C956 C954 1.416 . S
C956 C958 1.416 . S
C956 C989 1.448 . S
C957 H942 0.930 . S
C957 N953 1.334 . S
C957 C955 1.390 . S
C958 C955 1.339 . S
C958 C956 1.416 . S
C958 H965 0.930 . S
N959 Tb924 2.572 . S
N959 C960 1.340 . S
N959 C962 1.361 . S
C960 H946 0.930 . S
C960 N959 1.340 . S
C960 C964 1.407 . S
C961 C962 1.413 . S
C961 C963 1.416 . S
C961 C990 1.427 . S
C962 C954 1.424 . S
C962 N959 1.361 . S
C962 C961 1.413 . S
C963 H952 0.931 . S
C963 C961 1.416 . S
C963 C964 1.332 . S
C964 H943 0.929 . S
C964 C960 1.407 . S
C964 C963 1.332 . S
H965 C958 0.930 . S
H966 C989 0.930 . S
H967 C990 0.929 . S
O968 Tb924 2.465 . S
O968 C988 1.264 . S
O969 Tb924 2.387 . S
O969 C980 1.264 . S
O970 Tb935 2.349 . S
O970 C980 1.243 . S
O971 Tb924 2.428 . S
O971 C988 1.256 . S
O972 Tb924 2.308 . S
O972 C987 1.266 . S
O973 Tb935 2.393 . S
O973 C987 1.248 . S
O974 Tb935 2.465 . S
O974 C999 1.264 . S
O975 Tb935 2.387 . S
O975 C991 1.264 . S
O976 Tb924 2.349 . S
O976 C991 1.243 . S
O977 Tb935 2.428 . S
O977 C999 1.256 . S
O978 Tb935 2.308 . S
O978 C998 1.266 . S
O979 Tb924 2.393 . S
O979 C998 1.248 . S
C980 O969 1.264 . S
C980 O970 1.243 . S
C981 C984 1.399 . S
C981 C986 1.383 . S
C981 C988 1.496 . S
C982 C983 1.399 . S
C982 C986 1.389 . S
C983 C982 1.399 . S
C983 C985 1.380 . S
C983 H1000 0.929 1_565 S
C984 C981 1.399 . S
C984 C985 1.392 . S
C984 H1001 0.929 . S
C985 C983 1.380 . S
C985 C984 1.392 . S
C985 H1002 0.929 . S
C986 C981 1.383 . S
C986 C982 1.389 . S
C986 H1003 0.931 . S
C987 O972 1.266 . S
C987 O973 1.248 . S
C988 Tb924 2.802 . S
C988 O968 1.264 . S
C988 O971 1.256 . S
C988 C981 1.496 . S
C989 C956 1.448 . S
C989 H966 0.930 . S
C989 C990 1.328 . S
C990 C961 1.427 . S
C990 H967 0.929 . S
C990 C989 1.328 . S
C991 O975 1.264 . S
C991 O976 1.243 . S
C992 C995 1.399 . S
C992 C996 1.383 . S
C992 C999 1.496 . S
C993 C994 1.399 . S
C993 C996 1.389 . S
C994 C993 1.399 . S
C994 C997 1.380 . S
C994 H1004 0.929 . S
C995 C992 1.399 . S
C995 C997 1.392 . S
C995 H1005 0.929 . S
C996 C992 1.383 . S
C996 C993 1.389 . S
C996 H1006 0.931 . S
C997 C994 1.380 . S
C997 C995 1.392 . S
C997 H1007 0.929 . S
C998 O978 1.266 . S
C998 O979 1.248 . S
C999 Tb935 2.802 . S
C999 O974 1.264 . S
C999 O977 1.256 . S
C999 C992 1.496 . S
H1000 C983 0.929 1_545 S
H1001 C984 0.929 . S
H1002 C985 0.929 . S
H1003 C986 0.931 . S
H1004 C994 0.929 . S
H1005 C995 0.929 . S
H1006 C996 0.931 . S
H1007 C997 0.929 . S
Tb1008 N1037 2.617 . S
Tb1008 N1043 2.572 . S
Tb1008 O1052 2.465 . S
Tb1008 O1053 2.387 . S
Tb1008 O1055 2.428 . S
Tb1008 O1056 2.308 . S
Tb1008 O1060 2.349 . S
Tb1008 O1063 2.393 . S
Tb1008 C1072 2.802 . S
C1009 N1010 1.379 . S
C1009 C1012 1.416 . S
C1009 C1016 1.424 . S
N1010 C1009 1.379 . S
N1010 C1013 1.334 . S
N1010 Tb1019 2.617 . S
C1011 C1013 1.390 . S
C1011 C1014 1.339 . S
C1011 H1031 0.930 . S
C1012 C1009 1.416 . S
C1012 C1014 1.416 . S
C1012 C1018 1.448 . S
C1013 N1010 1.334 . S
C1013 C1011 1.390 . S
C1013 H1024 0.930 . S
C1014 C1011 1.339 . S
C1014 C1012 1.416 . S
C1014 H1035 0.930 . S
C1015 C1016 1.413 . S
C1015 C1017 1.427 . S
C1015 C1021 1.416 . S
C1016 C1009 1.424 . S
C1016 C1015 1.413 . S
C1016 N1020 1.361 . S
C1017 C1015 1.427 . S
C1017 C1018 1.328 . S
C1017 H1032 0.929 . S
C1018 C1012 1.448 . S
C1018 C1017 1.328 . S
C1018 H1033 0.930 . S
Tb1019 N1010 2.617 . S
Tb1019 N1020 2.572 . S
Tb1019 O1054 2.349 . S
Tb1019 O1057 2.393 . S
Tb1019 O1058 2.465 . S
Tb1019 O1059 2.387 . S
Tb1019 O1061 2.428 . S
Tb1019 O1062 2.308 . S
Tb1019 C1083 2.802 . S
N1020 C1016 1.361 . S
N1020 Tb1019 2.572 . S
N1020 C1022 1.340 . S
C1021 C1015 1.416 . S
C1021 C1023 1.332 . S
C1021 H1029 0.931 . S
C1022 N1020 1.340 . S
C1022 C1023 1.407 . S
C1022 H1028 0.930 . S
C1023 C1021 1.332 . S
C1023 C1022 1.407 . S
C1023 H1025 0.929 . S
H1024 C1013 0.930 . S
H1025 C1023 0.929 . S
H1026 C1041 0.930 . S
H1027 C1048 0.929 . S
H1028 C1022 0.930 . S
H1029 C1021 0.931 . S
H1030 C1044 0.930 . S
H1031 C1011 0.930 . S
H1032 C1017 0.929 . S
H1033 C1018 0.930 . S
H1034 C1039 0.930 . S
H1035 C1014 0.930 . S
H1036 C1047 0.931 . S
N1037 Tb1008 2.617 . S
N1037 C1038 1.379 . S
N1037 C1041 1.334 . S
C1038 N1037 1.379 . S
C1038 C1040 1.416 . S
C1038 C1046 1.424 . S
C1039 H1034 0.930 . S
C1039 C1041 1.390 . S
C1039 C1042 1.339 . S
C1040 C1038 1.416 . S
C1040 C1042 1.416 . S
C1040 C1073 1.448 . S
C1041 H1026 0.930 . S
C1041 N1037 1.334 . S
C1041 C1039 1.390 . S
C1042 C1039 1.339 . S
C1042 C1040 1.416 . S
C1042 H1049 0.930 . S
N1043 Tb1008 2.572 . S
N1043 C1044 1.340 . S
N1043 C1046 1.361 . S
C1044 H1030 0.930 . S
C1044 N1043 1.340 . S
C1044 C1048 1.407 . S
C1045 C1046 1.413 . S
C1045 C1047 1.416 . S
C1045 C1074 1.427 . S
C1046 C1038 1.424 . S
C1046 N1043 1.361 . S
C1046 C1045 1.413 . S
C1047 H1036 0.931 . S
C1047 C1045 1.416 . S
C1047 C1048 1.332 . S
C1048 H1027 0.929 . S
C1048 C1044 1.407 . S
C1048 C1047 1.332 . S
H1049 C1042 0.930 . S
H1050 C1073 0.930 . S
H1051 C1074 0.929 . S
O1052 Tb1008 2.465 . S
O1052 C1072 1.264 . S
O1053 Tb1008 2.387 . S
O1053 C1064 1.264 . S
O1054 Tb1019 2.349 . S
O1054 C1064 1.243 . S
O1055 Tb1008 2.428 . S
O1055 C1072 1.256 . S
O1056 Tb1008 2.308 . S
O1056 C1071 1.266 . S
O1057 Tb1019 2.393 . S
O1057 C1071 1.248 . S
O1058 Tb1019 2.465 . S
O1058 C1083 1.264 . S
O1059 Tb1019 2.387 . S
O1059 C1075 1.264 . S
O1060 Tb1008 2.349 . S
O1060 C1075 1.243 . S
O1061 Tb1019 2.428 . S
O1061 C1083 1.256 . S
O1062 Tb1019 2.308 . S
O1062 C1082 1.266 . S
O1063 Tb1008 2.393 . S
O1063 C1082 1.248 . S
C1064 O1053 1.264 . S
C1064 O1054 1.243 . S
C1065 C1068 1.399 . S
C1065 C1070 1.383 . S
C1065 C1072 1.496 . S
C1066 C1067 1.399 . S
C1066 C1070 1.389 . S
C1067 C1066 1.399 . S
C1067 C1069 1.380 . S
C1067 H1084 0.929 1_455 S
C1068 C1065 1.399 . S
C1068 C1069 1.392 . S
C1068 H1085 0.929 . S
C1069 C1067 1.380 . S
C1069 C1068 1.392 . S
C1069 H1086 0.932 1_455 S
C1070 C1065 1.383 . S
C1070 C1066 1.389 . S
C1070 H1087 0.931 . S
C1071 O1056 1.266 . S
C1071 O1057 1.248 . S
C1072 Tb1008 2.802 . S
C1072 O1052 1.264 . S
C1072 O1055 1.256 . S
C1072 C1065 1.496 . S
C1073 C1040 1.448 . S
C1073 H1050 0.930 . S
C1073 C1074 1.328 . S
C1074 C1045 1.427 . S
C1074 H1051 0.929 . S
C1074 C1073 1.328 . S
C1075 O1059 1.264 . S
C1075 O1060 1.243 . S
C1076 C1079 1.399 . S
C1076 C1080 1.383 . S
C1076 C1083 1.496 . S
C1077 C1078 1.399 . S
C1077 C1080 1.389 . S
C1078 C1077 1.399 . S
C1078 C1081 1.380 . S
C1078 H1088 0.929 . S
C1079 C1076 1.399 . S
C1079 C1081 1.392 . S
C1079 H1089 0.929 . S
C1080 C1076 1.383 . S
C1080 C1077 1.389 . S
C1080 H1090 0.931 . S
C1081 C1078 1.380 . S
C1081 C1079 1.392 . S
C1081 H1091 0.929 . S
C1082 O1062 1.266 . S
C1082 O1063 1.248 . S
C1083 Tb1019 2.802 . S
C1083 O1058 1.264 . S
C1083 O1061 1.256 . S
C1083 C1076 1.496 . S
H1084 C1067 0.929 1_655 S
H1085 C1068 0.929 . S
H1086 C1069 0.932 1_655 S
H1087 C1070 0.931 . S
H1088 C1078 0.929 . S
H1089 C1079 0.929 . S
H1090 C1080 0.931 . S
H1091 C1081 0.929 . S
Tb1092 N1121 2.617 . S
Tb1092 N1127 2.572 . S
Tb1092 O1136 2.465 . S
Tb1092 O1137 2.387 . S
Tb1092 O1139 2.428 . S
Tb1092 O1140 2.308 . S
Tb1092 O1144 2.349 . S
Tb1092 O1147 2.393 . S
Tb1092 C1156 2.802 . S
C1093 N1094 1.379 . S
C1093 C1096 1.416 1_655 S
C1093 C1100 1.424 . S
N1094 C1093 1.379 . S
N1094 C1097 1.334 1_655 S
N1094 Tb1103 2.617 . S
C1095 C1097 1.390 . S
C1095 C1098 1.339 . S
C1095 H1115 0.930 . S
C1096 C1093 1.416 1_455 S
C1096 C1098 1.416 . S
C1096 C1102 1.448 . S
C1097 N1094 1.334 1_455 S
C1097 C1095 1.390 . S
C1097 H1108 0.930 . S
C1098 C1095 1.339 . S
C1098 C1096 1.416 . S
C1098 H1119 0.930 . S
C1099 C1100 1.413 . S
C1099 C1101 1.427 1_655 S
C1099 C1105 1.416 . S
C1100 C1093 1.424 . S
C1100 C1099 1.413 . S
C1100 N1104 1.361 . S
C1101 C1099 1.427 1_455 S
C1101 C1102 1.328 . S
C1101 H1116 0.929 . S
C1102 C1096 1.448 . S
C1102 C1101 1.328 . S
C1102 H1117 0.930 . S
Tb1103 N1094 2.617 . S
Tb1103 N1104 2.572 . S
Tb1103 O1138 2.349 . S
Tb1103 O1141 2.393 . S
Tb1103 O1142 2.465 . S
Tb1103 O1143 2.387 . S
Tb1103 O1145 2.428 . S
Tb1103 O1146 2.308 . S
Tb1103 C1167 2.802 . S
N1104 C1100 1.361 . S
N1104 Tb1103 2.572 . S
N1104 C1106 1.340 . S
C1105 C1099 1.416 . S
C1105 C1107 1.332 . S
C1105 H1113 0.931 . S
C1106 N1104 1.340 . S
C1106 C1107 1.407 . S
C1106 H1112 0.930 . S
C1107 C1105 1.332 . S
C1107 C1106 1.407 . S
C1107 H1109 0.929 . S
H1108 C1097 0.930 . S
H1109 C1107 0.929 . S
H1110 C1125 0.930 . S
H1111 C1132 0.929 . S
H1112 C1106 0.930 . S
H1113 C1105 0.931 . S
H1114 C1128 0.930 . S
H1115 C1095 0.930 . S
H1116 C1101 0.929 . S
H1117 C1102 0.930 . S
H1118 C1123 0.930 . S
H1119 C1098 0.930 . S
H1120 C1131 0.931 . S
N1121 Tb1092 2.617 . S
N1121 C1122 1.379 . S
N1121 C1125 1.334 . S
C1122 N1121 1.379 . S
C1122 C1124 1.416 . S
C1122 C1130 1.424 . S
C1123 H1118 0.930 . S
C1123 C1125 1.390 . S
C1123 C1126 1.339 . S
C1124 C1122 1.416 . S
C1124 C1126 1.416 . S
C1124 C1157 1.448 . S
C1125 H1110 0.930 . S
C1125 N1121 1.334 . S
C1125 C1123 1.390 . S
C1126 C1123 1.339 . S
C1126 C1124 1.416 . S
C1126 H1133 0.930 . S
N1127 Tb1092 2.572 . S
N1127 C1128 1.340 . S
N1127 C1130 1.361 . S
C1128 H1114 0.930 . S
C1128 N1127 1.340 . S
C1128 C1132 1.407 . S
C1129 C1130 1.413 . S
C1129 C1131 1.416 . S
C1129 C1158 1.427 . S
C1130 C1122 1.424 . S
C1130 N1127 1.361 . S
C1130 C1129 1.413 . S
C1131 H1120 0.931 . S
C1131 C1129 1.416 . S
C1131 C1132 1.332 . S
C1132 H1111 0.929 . S
C1132 C1128 1.407 . S
C1132 C1131 1.332 . S
H1133 C1126 0.930 . S
H1134 C1157 0.930 . S
H1135 C1158 0.929 . S
O1136 Tb1092 2.465 . S
O1136 C1156 1.264 . S
O1137 Tb1092 2.387 . S
O1137 C1148 1.264 . S
O1138 Tb1103 2.349 . S
O1138 C1148 1.243 . S
O1139 Tb1092 2.428 . S
O1139 C1156 1.256 . S
O1140 Tb1092 2.308 . S
O1140 C1155 1.266 . S
O1141 Tb1103 2.393 . S
O1141 C1155 1.248 . S
O1142 Tb1103 2.465 . S
O1142 C1167 1.264 . S
O1143 Tb1103 2.387 . S
O1143 C1159 1.264 . S
O1144 Tb1092 2.349 . S
O1144 C1159 1.243 . S
O1145 Tb1103 2.428 . S
O1145 C1167 1.256 . S
O1146 Tb1103 2.308 . S
O1146 C1166 1.266 . S
O1147 Tb1092 2.393 . S
O1147 C1166 1.248 . S
C1148 O1137 1.264 . S
C1148 O1138 1.243 . S
C1149 C1152 1.399 . S
C1149 C1154 1.383 . S
C1149 C1156 1.496 . S
C1150 C1151 1.399 . S
C1150 C1154 1.389 . S
C1151 C1150 1.399 . S
C1151 C1153 1.380 . S
C1151 H1168 0.929 . S
C1152 C1149 1.399 . S
C1152 C1153 1.392 . S
C1152 H1169 0.929 . S
C1153 C1151 1.380 . S
C1153 C1152 1.392 . S
C1153 H1170 0.929 . S
C1154 C1149 1.383 . S
C1154 C1150 1.389 . S
C1154 H1171 0.931 . S
C1155 O1140 1.266 . S
C1155 O1141 1.248 . S
C1156 Tb1092 2.802 . S
C1156 O1136 1.264 . S
C1156 O1139 1.256 . S
C1156 C1149 1.496 . S
C1157 C1124 1.448 . S
C1157 H1134 0.930 . S
C1157 C1158 1.328 . S
C1158 C1129 1.427 . S
C1158 H1135 0.929 . S
C1158 C1157 1.328 . S
C1159 O1143 1.264 . S
C1159 O1144 1.243 . S
C1160 C1163 1.399 . S
C1160 C1164 1.383 . S
C1160 C1167 1.496 . S
C1161 C1162 1.399 . S
C1161 C1164 1.389 . S
C1162 C1161 1.399 . S
C1162 C1165 1.380 . S
C1162 H1172 0.929 1_565 S
C1163 C1160 1.399 . S
C1163 C1165 1.392 . S
C1163 H1173 0.929 . S
C1164 C1160 1.383 . S
C1164 C1161 1.389 . S
C1164 H1174 0.931 . S
C1165 C1162 1.380 . S
C1165 C1163 1.392 . S
C1165 H1175 0.931 1_655 S
C1166 O1146 1.266 . S
C1166 O1147 1.248 . S
C1167 Tb1103 2.802 . S
C1167 O1142 1.264 . S
C1167 O1145 1.256 . S
C1167 C1160 1.496 . S
H1168 C1151 0.929 . S
H1169 C1152 0.929 . S
H1170 C1153 0.929 . S
H1171 C1154 0.931 . S
H1172 C1162 0.929 1_545 S
H1173 C1163 0.929 . S
H1174 C1164 0.931 . S
H1175 C1165 0.931 1_455 S
Tb1176 N1205 2.617 . S
Tb1176 N1211 2.572 1_556 S
Tb1176 O1220 2.465 1_556 S
Tb1176 O1221 2.387 . S
Tb1176 O1223 2.428 1_556 S
Tb1176 O1224 2.308 1_556 S
Tb1176 O1228 2.349 . S
Tb1176 O1231 2.393 . S
Tb1176 C1240 2.802 1_556 S
C1177 N1178 1.379 . S
C1177 C1180 1.416 . S
C1177 C1184 1.424 . S
N1178 C1177 1.379 . S
N1178 C1181 1.334 . S
N1178 Tb1187 2.617 . S
C1179 C1181 1.390 . S
C1179 C1182 1.339 . S
C1179 H1199 0.930 . S
C1180 C1177 1.416 . S
C1180 C1182 1.416 . S
C1180 C1186 1.448 . S
C1181 N1178 1.334 . S
C1181 C1179 1.390 . S
C1181 H1192 0.930 . S
C1182 C1179 1.339 . S
C1182 C1180 1.416 . S
C1182 H1203 0.930 . S
C1183 C1184 1.413 . S
C1183 C1185 1.427 . S
C1183 C1189 1.416 . S
C1184 C1177 1.424 . S
C1184 C1183 1.413 . S
C1184 N1188 1.361 . S
C1185 C1183 1.427 . S
C1185 C1186 1.328 . S
C1185 H1200 0.929 . S
C1186 C1180 1.448 . S
C1186 C1185 1.328 . S
C1186 H1201 0.930 . S
Tb1187 N1178 2.617 . S
Tb1187 N1188 2.572 . S
Tb1187 O1222 2.349 . S
Tb1187 O1225 2.393 . S
Tb1187 O1226 2.465 . S
Tb1187 O1227 2.387 . S
Tb1187 O1229 2.428 . S
Tb1187 O1230 2.308 . S
Tb1187 C1251 2.802 . S
N1188 C1184 1.361 . S
N1188 Tb1187 2.572 . S
N1188 C1190 1.340 . S
C1189 C1183 1.416 . S
C1189 C1191 1.332 . S
C1189 H1197 0.931 . S
C1190 N1188 1.340 . S
C1190 C1191 1.407 . S
C1190 H1196 0.930 . S
C1191 C1189 1.332 . S
C1191 C1190 1.407 . S
C1191 H1193 0.929 . S
H1192 C1181 0.930 . S
H1193 C1191 0.929 . S
H1194 C1209 0.930 . S
H1195 C1216 0.929 . S
H1196 C1190 0.930 . S
H1197 C1189 0.931 . S
H1198 C1212 0.930 . S
H1199 C1179 0.930 . S
H1200 C1185 0.929 . S
H1201 C1186 0.930 . S
H1202 C1207 0.930 . S
H1203 C1182 0.930 . S
H1204 C1215 0.931 . S
N1205 Tb1176 2.617 . S
N1205 C1206 1.379 1_556 S
N1205 C1209 1.334 . S
C1206 N1205 1.379 1_554 S
C1206 C1208 1.416 . S
C1206 C1214 1.424 . S
C1207 H1202 0.930 . S
C1207 C1209 1.390 . S
C1207 C1210 1.339 . S
C1208 C1206 1.416 . S
C1208 C1210 1.416 1_554 S
C1208 C1241 1.448 . S
C1209 H1194 0.930 . S
C1209 N1205 1.334 . S
C1209 C1207 1.390 . S
C1210 C1207 1.339 . S
C1210 C1208 1.416 1_556 S
C1210 H1217 0.930 . S
N1211 Tb1176 2.572 1_554 S
N1211 C1212 1.340 . S
N1211 C1214 1.361 . S
C1212 H1198 0.930 . S
C1212 N1211 1.340 . S
C1212 C1216 1.407 . S
C1213 C1214 1.413 . S
C1213 C1215 1.416 . S
C1213 C1242 1.427 . S
C1214 C1206 1.424 . S
C1214 N1211 1.361 . S
C1214 C1213 1.413 . S
C1215 H1204 0.931 . S
C1215 C1213 1.416 . S
C1215 C1216 1.332 . S
C1216 H1195 0.929 . S
C1216 C1212 1.407 . S
C1216 C1215 1.332 . S
H1217 C1210 0.930 . S
H1218 C1241 0.930 . S
H1219 C1242 0.929 . S
O1220 Tb1176 2.465 1_554 S
O1220 C1240 1.264 . S
O1221 Tb1176 2.387 . S
O1221 C1232 1.264 . S
O1222 Tb1187 2.349 . S
O1222 C1232 1.243 . S
O1223 Tb1176 2.428 1_554 S
O1223 C1240 1.256 . S
O1224 Tb1176 2.308 1_554 S
O1224 C1239 1.266 . S
O1225 Tb1187 2.393 . S
O1225 C1239 1.248 1_556 S
O1226 Tb1187 2.465 . S
O1226 C1251 1.264 . S
O1227 Tb1187 2.387 . S
O1227 C1243 1.264 . S
O1228 Tb1176 2.349 . S
O1228 C1243 1.243 . S
O1229 Tb1187 2.428 . S
O1229 C1251 1.256 . S
O1230 Tb1187 2.308 . S
O1230 C1250 1.266 . S
O1231 Tb1176 2.393 . S
O1231 C1250 1.248 . S
C1232 O1221 1.264 . S
C1232 O1222 1.243 . S
C1233 C1236 1.399 . S
C1233 C1238 1.383 . S
C1233 C1240 1.496 . S
C1234 C1235 1.399 . S
C1234 C1238 1.389 . S
C1235 C1234 1.399 . S
C1235 C1237 1.380 . S
C1235 H1252 0.929 . S
C1236 C1233 1.399 . S
C1236 C1237 1.392 . S
C1236 H1253 0.929 . S
C1237 C1235 1.380 . S
C1237 C1236 1.392 . S
C1237 H1254 0.929 . S
C1238 C1233 1.383 . S
C1238 C1234 1.389 . S
C1238 H1255 0.931 . S
C1239 O1224 1.266 . S
C1239 O1225 1.248 1_554 S
C1240 Tb1176 2.802 1_554 S
C1240 O1220 1.264 . S
C1240 O1223 1.256 . S
C1240 C1233 1.496 . S
C1241 C1208 1.448 . S
C1241 H1218 0.930 . S
C1241 C1242 1.328 . S
C1242 C1213 1.427 . S
C1242 H1219 0.929 . S
C1242 C1241 1.328 . S
C1243 O1227 1.264 . S
C1243 O1228 1.243 . S
C1244 C1247 1.399 . S
C1244 C1248 1.383 . S
C1244 C1251 1.496 . S
C1245 C1246 1.399 . S
C1245 C1248 1.389 . S
C1246 C1245 1.399 . S
C1246 C1249 1.380 . S
C1246 H1256 0.929 . S
C1247 C1244 1.399 . S
C1247 C1249 1.392 . S
C1247 H1257 0.929 . S
C1248 C1244 1.383 . S
C1248 C1245 1.389 . S
C1248 H1258 0.931 . S
C1249 C1246 1.380 . S
C1249 C1247 1.392 . S
C1249 H1259 0.929 . S
C1250 O1230 1.266 . S
C1250 O1231 1.248 . S
C1251 Tb1187 2.802 . S
C1251 O1226 1.264 . S
C1251 O1229 1.256 . S
C1251 C1244 1.496 . S
H1252 C1235 0.929 . S
H1253 C1236 0.929 . S
H1254 C1237 0.929 . S
H1255 C1238 0.931 . S
H1256 C1246 0.929 . S
H1257 C1247 0.929 . S
H1258 C1248 0.931 . S
H1259 C1249 0.929 . S
Tb1260 N1289 2.617 . S
Tb1260 N1295 2.572 . S
Tb1260 O1304 2.465 . S
Tb1260 O1305 2.387 . S
Tb1260 O1307 2.428 . S
Tb1260 O1308 2.308 . S
Tb1260 O1312 2.349 . S
Tb1260 O1315 2.393 . S
Tb1260 C1324 2.802 . S
C1261 N1262 1.379 . S
C1261 C1264 1.416 . S
C1261 C1268 1.424 . S
N1262 C1261 1.379 . S
N1262 C1265 1.334 . S
N1262 Tb1271 2.617 . S
C1263 C1265 1.390 . S
C1263 C1266 1.339 . S
C1263 H1283 0.930 . S
C1264 C1261 1.416 . S
C1264 C1266 1.416 . S
C1264 C1270 1.448 . S
C1265 N1262 1.334 . S
C1265 C1263 1.390 . S
C1265 H1276 0.930 . S
C1266 C1263 1.339 . S
C1266 C1264 1.416 . S
C1266 H1287 0.930 . S
C1267 C1268 1.413 . S
C1267 C1269 1.427 . S
C1267 C1273 1.416 . S
C1268 C1261 1.424 . S
C1268 C1267 1.413 . S
C1268 N1272 1.361 . S
C1269 C1267 1.427 . S
C1269 C1270 1.328 . S
C1269 H1284 0.929 . S
C1270 C1264 1.448 . S
C1270 C1269 1.328 . S
C1270 H1285 0.930 . S
Tb1271 N1262 2.617 . S
Tb1271 N1272 2.572 . S
Tb1271 O1306 2.349 . S
Tb1271 O1309 2.393 . S
Tb1271 O1310 2.465 . S
Tb1271 O1311 2.387 . S
Tb1271 O1313 2.428 . S
Tb1271 O1314 2.308 . S
Tb1271 C1335 2.802 . S
N1272 C1268 1.361 . S
N1272 Tb1271 2.572 . S
N1272 C1274 1.340 . S
C1273 C1267 1.416 . S
C1273 C1275 1.332 . S
C1273 H1281 0.931 . S
C1274 N1272 1.340 . S
C1274 C1275 1.407 . S
C1274 H1280 0.930 . S
C1275 C1273 1.332 . S
C1275 C1274 1.407 . S
C1275 H1277 0.929 . S
H1276 C1265 0.930 . S
H1277 C1275 0.929 . S
H1278 C1293 0.930 . S
H1279 C1300 0.929 . S
H1280 C1274 0.930 . S
H1281 C1273 0.931 . S
H1282 C1296 0.930 . S
H1283 C1263 0.930 . S
H1284 C1269 0.929 . S
H1285 C1270 0.930 . S
H1286 C1291 0.930 . S
H1287 C1266 0.930 . S
H1288 C1299 0.931 . S
N1289 Tb1260 2.617 . S
N1289 C1290 1.379 . S
N1289 C1293 1.334 . S
C1290 N1289 1.379 . S
C1290 C1292 1.416 . S
C1290 C1298 1.424 . S
C1291 H1286 0.930 . S
C1291 C1293 1.390 . S
C1291 C1294 1.339 . S
C1292 C1290 1.416 . S
C1292 C1294 1.416 . S
C1292 C1325 1.448 . S
C1293 H1278 0.930 . S
C1293 N1289 1.334 . S
C1293 C1291 1.390 . S
C1294 C1291 1.339 . S
C1294 C1292 1.416 . S
C1294 H1301 0.930 . S
N1295 Tb1260 2.572 . S
N1295 C1296 1.340 . S
N1295 C1298 1.361 . S
C1296 H1282 0.930 . S
C1296 N1295 1.340 . S
C1296 C1300 1.407 . S
C1297 C1298 1.413 . S
C1297 C1299 1.416 . S
C1297 C1326 1.427 . S
C1298 C1290 1.424 . S
C1298 N1295 1.361 . S
C1298 C1297 1.413 . S
C1299 H1288 0.931 . S
C1299 C1297 1.416 . S
C1299 C1300 1.332 . S
C1300 H1279 0.929 . S
C1300 C1296 1.407 . S
C1300 C1299 1.332 . S
H1301 C1294 0.930 . S
H1302 C1325 0.930 . S
H1303 C1326 0.929 . S
O1304 Tb1260 2.465 . S
O1304 C1324 1.264 . S
O1305 Tb1260 2.387 . S
O1305 C1316 1.264 . S
O1306 Tb1271 2.349 . S
O1306 C1316 1.243 . S
O1307 Tb1260 2.428 . S
O1307 C1324 1.256 . S
O1308 Tb1260 2.308 . S
O1308 C1323 1.266 . S
O1309 Tb1271 2.393 . S
O1309 C1323 1.248 . S
O1310 Tb1271 2.465 . S
O1310 C1335 1.264 . S
O1311 Tb1271 2.387 . S
O1311 C1327 1.264 . S
O1312 Tb1260 2.349 . S
O1312 C1327 1.243 . S
O1313 Tb1271 2.428 . S
O1313 C1335 1.256 . S
O1314 Tb1271 2.308 . S
O1314 C1334 1.266 . S
O1315 Tb1260 2.393 . S
O1315 C1334 1.248 . S
C1316 O1305 1.264 . S
C1316 O1306 1.243 . S
C1317 C1320 1.399 . S
C1317 C1322 1.383 . S
C1317 C1324 1.496 . S
C1318 C1319 1.399 . S
C1318 C1322 1.389 . S
C1319 C1318 1.399 . S
C1319 C1321 1.380 . S
C1319 H1336 0.929 . S
C1320 C1317 1.399 . S
C1320 C1321 1.392 . S
C1320 H1337 0.929 . S
C1321 C1319 1.380 . S
C1321 C1320 1.392 . S
C1321 H1338 0.929 . S
C1322 C1317 1.383 . S
C1322 C1318 1.389 . S
C1322 H1339 0.931 . S
C1323 O1308 1.266 . S
C1323 O1309 1.248 . S
C1324 Tb1260 2.802 . S
C1324 O1304 1.264 . S
C1324 O1307 1.256 . S
C1324 C1317 1.496 . S
C1325 C1292 1.448 . S
C1325 H1302 0.930 . S
C1325 C1326 1.328 . S
C1326 C1297 1.427 . S
C1326 H1303 0.929 . S
C1326 C1325 1.328 . S
C1327 O1311 1.264 . S
C1327 O1312 1.243 . S
C1328 C1331 1.399 . S
C1328 C1332 1.383 . S
C1328 C1335 1.496 . S
C1329 C1330 1.399 . S
C1329 C1332 1.389 . S
C1330 C1329 1.399 . S
C1330 C1333 1.380 . S
C1330 H1340 0.929 1_545 S
C1331 C1328 1.399 . S
C1331 C1333 1.392 . S
C1331 H1341 0.929 . S
C1332 C1328 1.383 . S
C1332 C1329 1.389 . S
C1332 H1342 0.931 . S
C1333 C1330 1.380 . S
C1333 C1331 1.392 . S
C1333 H1343 0.929 . S
C1334 O1314 1.266 . S
C1334 O1315 1.248 . S
C1335 Tb1271 2.802 . S
C1335 O1310 1.264 . S
C1335 O1313 1.256 . S
C1335 C1328 1.496 . S
H1336 C1319 0.929 . S
H1337 C1320 0.929 . S
H1338 C1321 0.929 . S
H1339 C1322 0.931 . S
H1340 C1330 0.929 1_565 S
H1341 C1331 0.929 . S
H1342 C1332 0.931 . S
H1343 C1333 0.929 . S
C1344 C1345 1.391 . S
C1344 C1346 1.394 . S
C1344 H1360 0.931 . S
C1345 C1344 1.391 . S
C1345 C1349 1.376 . S
C1346 C1344 1.394 . S
C1346 C1347 1.369 . S
C1346 C1350 1.531 . S
C1347 C1346 1.369 . S
C1347 C1348 1.410 . S
C1347 C1355 1.503 . S
C1348 C1347 1.410 . S
C1348 C1349 1.392 . S
C1348 C1351 1.511 . S
C1349 C1345 1.376 . S
C1349 C1348 1.392 . S
C1349 H1361 0.929 . S
C1350 C1346 1.531 . S
C1350 H1362 0.960 . S
C1350 H1363 0.962 . S
C1350 H1364 0.960 . S
C1351 C1348 1.511 . S
C1351 H1365 0.961 . S
C1351 H1366 0.961 . S
C1351 H1367 0.961 . S
C1352 C1353 1.370 . S
C1352 C1354 1.363 . S
C1352 H1368 0.931 . S
C1353 C1352 1.370 . S
C1353 C1357 1.408 . S
C1354 C1352 1.363 . S
C1354 C1355 1.370 . S
C1354 C1358 1.524 . S
C1355 C1347 1.503 . S
C1355 C1354 1.370 . S
C1355 C1356 1.403 . S
C1356 C1355 1.403 . S
C1356 C1357 1.404 . S
C1356 C1359 1.539 . S
C1357 C1353 1.408 . S
C1357 C1356 1.404 . S
C1357 H1369 0.930 . S
C1358 C1354 1.524 . S
C1358 H1370 0.956 . S
C1358 H1371 0.961 . S
C1358 H1372 0.961 . S
C1359 C1356 1.539 . S
C1359 H1373 0.958 . S
C1359 H1374 0.961 1_554 S
C1359 H1375 0.960 1_554 S
H1360 C1344 0.931 . S
H1361 C1349 0.929 . S
H1362 C1350 0.960 . S
H1363 C1350 0.962 . S
H1364 C1350 0.960 . S
H1365 C1351 0.961 . S
H1366 C1351 0.961 . S
H1367 C1351 0.961 . S
H1368 C1352 0.931 . S
H1369 C1357 0.930 . S
H1370 C1358 0.956 . S
H1371 C1358 0.961 . S
H1372 C1358 0.961 . S
H1373 C1359 0.958 . S
H1374 C1359 0.961 1_556 S
H1375 C1359 0.960 1_556 S
C1376 C1377 1.391 . S
C1376 C1378 1.394 . S
C1376 H1392 0.931 . S
C1377 C1376 1.391 . S
C1377 C1381 1.376 . S
C1378 C1376 1.394 . S
C1378 C1379 1.369 . S
C1378 C1382 1.531 . S
C1379 C1378 1.369 . S
C1379 C1380 1.410 . S
C1379 C1387 1.503 . S
C1380 C1379 1.410 . S
C1380 C1381 1.392 . S
C1380 C1383 1.511 . S
C1381 C1377 1.376 . S
C1381 C1380 1.392 . S
C1381 H1393 0.929 . S
C1382 C1378 1.531 . S
C1382 H1394 0.960 . S
C1382 H1395 0.962 . S
C1382 H1396 0.960 . S
C1383 C1380 1.511 . S
C1383 H1397 0.961 . S
C1383 H1398 0.961 . S
C1383 H1399 0.961 . S
C1384 C1385 1.370 . S
C1384 C1386 1.363 . S
C1384 H1400 0.931 . S
C1385 C1384 1.370 . S
C1385 C1389 1.408 . S
C1386 C1384 1.363 . S
C1386 C1387 1.370 . S
C1386 C1390 1.524 . S
C1387 C1379 1.503 . S
C1387 C1386 1.370 . S
C1387 C1388 1.403 . S
C1388 C1387 1.403 . S
C1388 C1389 1.404 . S
C1388 C1391 1.539 . S
C1389 C1385 1.408 . S
C1389 C1388 1.404 . S
C1389 H1401 0.930 . S
C1390 C1386 1.524 . S
C1390 H1402 0.956 . S
C1390 H1403 0.961 . S
C1390 H1404 0.961 . S
C1391 C1388 1.539 . S
C1391 H1405 0.958 . S
C1391 H1406 0.961 . S
C1391 H1407 0.960 . S
H1392 C1376 0.931 . S
H1393 C1381 0.929 . S
H1394 C1382 0.960 . S
H1395 C1382 0.962 . S
H1396 C1382 0.960 . S
H1397 C1383 0.961 . S
H1398 C1383 0.961 . S
H1399 C1383 0.961 . S
H1400 C1384 0.931 . S
H1401 C1389 0.930 . S
H1402 C1390 0.956 . S
H1403 C1390 0.961 . S
H1404 C1390 0.961 . S
H1405 C1391 0.958 . S
H1406 C1391 0.961 . S
H1407 C1391 0.960 . S
C1408 C1409 1.391 . S
C1408 C1410 1.394 . S
C1408 H1424 0.931 . S
C1409 C1408 1.391 . S
C1409 C1413 1.376 . S
C1410 C1408 1.394 . S
C1410 C1411 1.369 . S
C1410 C1414 1.531 . S
C1411 C1410 1.369 . S
C1411 C1412 1.410 . S
C1411 C1419 1.503 1_455 S
C1412 C1411 1.410 . S
C1412 C1413 1.392 . S
C1412 C1415 1.511 1_455 S
C1413 C1409 1.376 . S
C1413 C1412 1.392 . S
C1413 H1425 0.929 . S
C1414 C1410 1.531 . S
C1414 H1426 0.960 . S
C1414 H1427 0.962 . S
C1414 H1428 0.960 . S
C1415 C1412 1.511 1_655 S
C1415 H1429 0.961 . S
C1415 H1430 0.961 . S
C1415 H1431 0.961 . S
C1416 C1417 1.370 . S
C1416 C1418 1.363 . S
C1416 H1432 0.931 . S
C1417 C1416 1.370 . S
C1417 C1421 1.408 . S
C1418 C1416 1.363 . S
C1418 C1419 1.370 . S
C1418 C1422 1.524 . S
C1419 C1411 1.503 1_655 S
C1419 C1418 1.370 . S
C1419 C1420 1.403 . S
C1420 C1419 1.403 . S
C1420 C1421 1.404 . S
C1420 C1423 1.548 . S
C1421 C1417 1.408 . S
C1421 C1420 1.404 . S
C1421 H1433 0.930 . S
C1422 C1418 1.524 . S
C1422 H1434 0.935 1_655 S
C1422 H1435 0.961 . S
C1422 H1436 0.961 . S
C1423 C1420 1.548 . S
C1423 H1437 0.942 1_655 S
C1423 H1438 0.974 . S
C1423 H1439 0.954 1_655 S
H1424 C1408 0.931 . S
H1425 C1413 0.929 . S
H1426 C1414 0.960 . S
H1427 C1414 0.962 . S
H1428 C1414 0.960 . S
H1429 C1415 0.961 . S
H1430 C1415 0.961 . S
H1431 C1415 0.961 . S
H1432 C1416 0.931 . S
H1433 C1421 0.930 . S
H1434 C1422 0.935 1_455 S
H1435 C1422 0.961 . S
H1436 C1422 0.961 . S
H1437 C1423 0.942 1_455 S
H1438 C1423 0.974 . S
H1439 C1423 0.954 1_455 S
C1440 C1441 1.391 . S
C1440 C1442 1.394 . S
C1440 H1456 0.931 . S
C1441 C1440 1.391 . S
C1441 C1445 1.376 . S
C1442 C1440 1.394 . S
C1442 C1443 1.369 . S
C1442 C1446 1.531 1_655 S
C1443 C1442 1.369 . S
C1443 C1444 1.410 . S
C1443 C1451 1.503 1_655 S
C1444 C1443 1.410 . S
C1444 C1445 1.392 . S
C1444 C1447 1.511 . S
C1445 C1441 1.376 . S
C1445 C1444 1.392 . S
C1445 H1457 0.929 . S
C1446 C1442 1.531 1_455 S
C1446 H1458 0.960 . S
C1446 H1459 0.962 1_455 S
C1446 H1460 0.960 . S
C1447 C1444 1.511 . S
C1447 H1461 0.961 . S
C1447 H1462 0.961 . S
C1447 H1463 0.961 . S
C1448 C1449 1.370 . S
C1448 C1450 1.363 . S
C1448 H1464 0.931 . S
C1449 C1448 1.370 . S
C1449 C1453 1.408 . S
C1450 C1448 1.363 . S
C1450 C1451 1.370 . S
C1450 C1454 1.524 1_455 S
C1451 C1443 1.503 1_455 S
C1451 C1450 1.370 . S
C1451 C1452 1.403 . S
C1452 C1451 1.403 . S
C1452 C1453 1.404 . S
C1452 C1455 1.539 . S
C1453 C1449 1.408 . S
C1453 C1452 1.404 . S
C1453 H1465 0.930 . S
C1454 C1450 1.524 1_655 S
C1454 H1466 0.956 . S
C1454 H1467 0.961 . S
C1454 H1468 0.961 . S
C1455 C1452 1.539 . S
C1455 H1469 0.958 . S
C1455 H1470 0.961 . S
C1455 H1471 0.960 . S
H1456 C1440 0.931 . S
H1457 C1445 0.929 . S
H1458 C1446 0.960 . S
H1459 C1446 0.962 1_655 S
H1460 C1446 0.960 . S
H1461 C1447 0.961 . S
H1462 C1447 0.961 . S
H1463 C1447 0.961 . S
H1464 C1448 0.931 . S
H1465 C1453 0.930 . S
H1466 C1454 0.956 . S
H1467 C1454 0.961 . S
H1468 C1454 0.961 . S
H1469 C1455 0.958 . S
H1470 C1455 0.961 . S
H1471 C1455 0.960 . S
C1472 C1473 1.391 . S
C1472 C1474 1.394 . S
C1472 H1488 0.931 . S
C1473 C1472 1.391 . S
C1473 C1477 1.376 . S
C1474 C1472 1.394 . S
C1474 C1475 1.369 . S
C1474 C1478 1.531 . S
C1475 C1474 1.369 . S
C1475 C1476 1.410 . S
C1475 C1483 1.503 . S
C1476 C1475 1.410 . S
C1476 C1477 1.392 . S
C1476 C1479 1.511 . S
C1477 C1473 1.376 . S
C1477 C1476 1.392 . S
C1477 H1489 0.929 . S
C1478 C1474 1.531 . S
C1478 H1490 0.960 . S
C1478 H1491 0.962 . S
C1478 H1492 0.960 . S
C1479 C1476 1.511 . S
C1479 H1493 0.961 . S
C1479 H1494 0.961 . S
C1479 H1495 0.961 . S
C1480 C1481 1.370 . S
C1480 C1482 1.363 . S
C1480 H1496 0.931 . S
C1481 C1480 1.370 . S
C1481 C1485 1.408 . S
C1482 C1480 1.363 . S
C1482 C1483 1.370 . S
C1482 C1486 1.524 . S
C1483 C1475 1.503 . S
C1483 C1482 1.370 . S
C1483 C1484 1.403 . S
C1484 C1483 1.403 . S
C1484 C1485 1.404 . S
C1484 C1487 1.539 . S
C1485 C1481 1.408 . S
C1485 C1484 1.404 . S
C1485 H1497 0.930 . S
C1486 C1482 1.524 . S
C1486 H1498 0.956 . S
C1486 H1499 0.961 . S
C1486 H1500 0.961 1_556 S
C1487 C1484 1.539 . S
C1487 H1501 0.958 . S
C1487 H1502 0.961 . S
C1487 H1503 0.960 . S
H1488 C1472 0.931 . S
H1489 C1477 0.929 . S
H1490 C1478 0.960 . S
H1491 C1478 0.962 . S
H1492 C1478 0.960 . S
H1493 C1479 0.961 . S
H1494 C1479 0.961 . S
H1495 C1479 0.961 . S
H1496 C1480 0.931 . S
H1497 C1485 0.930 . S
H1498 C1486 0.956 . S
H1499 C1486 0.961 . S
H1500 C1486 0.961 1_554 S
H1501 C1487 0.958 . S
H1502 C1487 0.961 . S
H1503 C1487 0.960 . S
C1504 C1505 1.391 . S
C1504 C1506 1.394 . S
C1504 H1520 0.931 . S
C1505 C1504 1.391 . S
C1505 C1509 1.376 . S
C1506 C1504 1.394 . S
C1506 C1507 1.369 . S
C1506 C1510 1.531 . S
C1507 C1506 1.369 . S
C1507 C1508 1.410 . S
C1507 C1515 1.503 . S
C1508 C1507 1.410 . S
C1508 C1509 1.392 . S
C1508 C1511 1.511 . S
C1509 C1505 1.376 . S
C1509 C1508 1.392 . S
C1509 H1521 0.929 . S
C1510 C1506 1.531 . S
C1510 H1522 0.960 . S
C1510 H1523 0.962 . S
C1510 H1524 0.960 . S
C1511 C1508 1.511 . S
C1511 H1525 0.961 . S
C1511 H1526 0.961 . S
C1511 H1527 0.961 . S
C1512 C1513 1.370 . S
C1512 C1514 1.363 . S
C1512 H1528 0.931 . S
C1513 C1512 1.370 . S
C1513 C1517 1.408 . S
C1514 C1512 1.363 . S
C1514 C1515 1.370 . S
C1514 C1518 1.524 . S
C1515 C1507 1.503 . S
C1515 C1514 1.370 . S
C1515 C1516 1.403 . S
C1516 C1515 1.403 . S
C1516 C1517 1.404 . S
C1516 C1519 1.539 . S
C1517 C1513 1.408 . S
C1517 C1516 1.404 . S
C1517 H1529 0.930 . S
C1518 C1514 1.524 . S
C1518 H1530 0.956 . S
C1518 H1531 0.961 . S
C1518 H1532 0.961 . S
C1519 C1516 1.539 . S
C1519 H1533 0.958 . S
C1519 H1534 0.961 . S
C1519 H1535 0.960 . S
H1520 C1504 0.931 . S
H1521 C1509 0.929 . S
H1522 C1510 0.960 . S
H1523 C1510 0.962 . S
H1524 C1510 0.960 . S
H1525 C1511 0.961 . S
H1526 C1511 0.961 . S
H1527 C1511 0.961 . S
H1528 C1512 0.931 . S
H1529 C1517 0.930 . S
H1530 C1518 0.956 . S
H1531 C1518 0.961 . S
H1532 C1518 0.961 . S
H1533 C1519 0.958 . S
H1534 C1519 0.961 . S
H1535 C1519 0.960 . S
C1536 C1537 1.391 . S
C1536 C1538 1.394 . S
C1536 H1552 0.931 . S
C1537 C1536 1.391 . S
C1537 C1541 1.376 . S
C1538 C1536 1.394 . S
C1538 C1539 1.369 . S
C1538 C1542 1.531 1_655 S
C1539 C1538 1.369 . S
C1539 C1540 1.410 . S
C1539 C1547 1.503 1_655 S
C1540 C1539 1.410 . S
C1540 C1541 1.392 . S
C1540 C1543 1.511 . S
C1541 C1537 1.376 . S
C1541 C1540 1.392 . S
C1541 H1553 0.929 . S
C1542 C1538 1.531 1_455 S
C1542 H1554 0.960 . S
C1542 H1555 0.962 . S
C1542 H1556 0.960 . S
C1543 C1540 1.511 . S
C1543 H1557 0.961 . S
C1543 H1558 0.961 . S
C1543 H1559 0.961 . S
C1544 C1545 1.370 . S
C1544 C1546 1.363 . S
C1544 H1560 0.931 . S
C1545 C1544 1.370 . S
C1545 C1549 1.408 . S
C1546 C1544 1.363 . S
C1546 C1547 1.370 . S
C1546 C1550 1.524 . S
C1547 C1539 1.503 1_455 S
C1547 C1546 1.370 . S
C1547 C1548 1.403 . S
C1548 C1547 1.403 . S
C1548 C1549 1.404 . S
C1548 C1551 1.539 . S
C1549 C1545 1.408 . S
C1549 C1548 1.404 . S
C1549 H1561 0.930 . S
C1550 C1546 1.524 . S
C1550 H1562 0.956 . S
C1550 H1563 0.961 1_455 S
C1550 H1564 0.961 . S
C1551 C1548 1.539 . S
C1551 H1565 0.958 . S
C1551 H1566 0.966 . S
C1551 H1567 0.960 1_455 S
H1552 C1536 0.931 . S
H1553 C1541 0.929 . S
H1554 C1542 0.960 . S
H1555 C1542 0.962 . S
H1556 C1542 0.960 . S
H1557 C1543 0.961 . S
H1558 C1543 0.961 . S
H1559 C1543 0.961 . S
H1560 C1544 0.931 . S
H1561 C1549 0.930 . S
H1562 C1550 0.956 . S
H1563 C1550 0.961 1_655 S
H1564 C1550 0.961 . S
H1565 C1551 0.958 . S
H1566 C1551 0.966 . S
H1567 C1551 0.960 1_655 S
C1568 C1569 1.391 . S
C1568 C1570 1.394 . S
C1568 H1584 0.931 . S
C1569 C1568 1.391 . S
C1569 C1573 1.376 . S
C1570 C1568 1.394 . S
C1570 C1571 1.369 . S
C1570 C1574 1.531 . S
C1571 C1570 1.369 . S
C1571 C1572 1.410 . S
C1571 C1579 1.503 1_455 S
C1572 C1571 1.410 . S
C1572 C1573 1.392 . S
C1572 C1575 1.511 1_455 S
C1573 C1569 1.376 . S
C1573 C1572 1.392 . S
C1573 H1585 0.929 . S
C1574 C1570 1.531 . S
C1574 H1586 0.960 . S
C1574 H1587 0.962 . S
C1574 H1588 0.960 . S
C1575 C1572 1.511 1_655 S
C1575 H1589 0.961 . S
C1575 H1590 0.961 . S
C1575 H1591 0.961 . S
C1576 C1577 1.370 . S
C1576 C1578 1.363 . S
C1576 H1592 0.931 . S
C1577 C1576 1.370 . S
C1577 C1581 1.408 . S
C1578 C1576 1.363 . S
C1578 C1579 1.370 . S
C1578 C1582 1.524 . S
C1579 C1571 1.503 1_655 S
C1579 C1578 1.370 . S
C1579 C1580 1.403 . S
C1580 C1579 1.403 . S
C1580 C1581 1.404 . S
C1580 C1583 1.539 1_655 S
C1581 C1577 1.408 . S
C1581 C1580 1.404 . S
C1581 H1593 0.930 . S
C1582 C1578 1.524 . S
C1582 H1594 0.956 . S
C1582 H1595 0.961 . S
C1582 H1596 0.961 . S
C1583 C1580 1.539 1_455 S
C1583 H1597 0.958 . S
C1583 H1598 0.961 1_455 S
C1583 H1599 0.960 . S
H1584 C1568 0.931 . S
H1585 C1573 0.929 . S
H1586 C1574 0.960 . S
H1587 C1574 0.962 . S
H1588 C1574 0.960 . S
H1589 C1575 0.961 . S
H1590 C1575 0.961 . S
H1591 C1575 0.961 . S
H1592 C1576 0.931 . S
H1593 C1581 0.930 . S
H1594 C1582 0.956 . S
H1595 C1582 0.961 . S
H1596 C1582 0.961 . S
H1597 C1583 0.958 . S
H1598 C1583 0.961 1_655 S
H1599 C1583 0.960 . S
C1600 C1601 1.391 . S
C1600 C1602 1.394 . S
C1600 H1616 0.931 . S
C1601 C1600 1.391 . S
C1601 C1605 1.376 . S
C1602 C1600 1.394 . S
C1602 C1603 1.369 . S
C1602 C1606 1.531 . S
C1603 C1602 1.369 . S
C1603 C1604 1.410 . S
C1603 C1611 1.503 . S
C1604 C1603 1.410 . S
C1604 C1605 1.392 . S
C1604 C1607 1.511 . S
C1605 C1601 1.376 . S
C1605 C1604 1.392 . S
C1605 H1617 0.929 . S
C1606 C1602 1.531 . S
C1606 H1618 0.960 . S
C1606 H1619 0.962 . S
C1606 H1620 0.960 . S
C1607 C1604 1.511 . S
C1607 H1621 0.961 . S
C1607 H1622 0.961 . S
C1607 H1623 0.961 . S
C1608 C1609 1.370 . S
C1608 C1610 1.363 . S
C1608 H1624 0.931 . S
C1609 C1608 1.370 . S
C1609 C1613 1.408 . S
C1610 C1608 1.363 . S
C1610 C1611 1.370 . S
C1610 C1614 1.524 . S
C1611 C1603 1.503 . S
C1611 C1610 1.370 . S
C1611 C1612 1.403 . S
C1612 C1611 1.403 . S
C1612 C1613 1.404 . S
C1612 C1615 1.539 . S
C1613 C1609 1.408 . S
C1613 C1612 1.404 . S
C1613 H1625 0.930 . S
C1614 C1610 1.524 . S
C1614 H1626 0.956 . S
C1614 H1627 0.961 . S
C1614 H1628 0.961 . S
C1615 C1612 1.539 . S
C1615 H1629 0.958 . S
C1615 H1630 0.961 . S
C1615 H1631 0.960 . S
H1616 C1600 0.931 . S
H1617 C1605 0.929 . S
H1618 C1606 0.960 . S
H1619 C1606 0.962 . S
H1620 C1606 0.960 . S
H1621 C1607 0.961 . S
H1622 C1607 0.961 . S
H1623 C1607 0.961 . S
H1624 C1608 0.931 . S
H1625 C1613 0.930 . S
H1626 C1614 0.956 . S
H1627 C1614 0.961 . S
H1628 C1614 0.961 . S
H1629 C1615 0.958 . S
H1630 C1615 0.961 . S
H1631 C1615 0.960 . S
C1632 C1633 1.391 . S
C1632 C1634 1.394 . S
C1632 H1648 0.931 . S
C1633 C1632 1.391 . S
C1633 C1637 1.376 . S
C1634 C1632 1.394 . S
C1634 C1635 1.369 . S
C1634 C1638 1.531 . S
C1635 C1634 1.369 . S
C1635 C1636 1.410 . S
C1635 C1643 1.503 . S
C1636 C1635 1.410 . S
C1636 C1637 1.392 . S
C1636 C1639 1.511 . S
C1637 C1633 1.376 . S
C1637 C1636 1.392 . S
C1637 H1649 0.929 . S
C1638 C1634 1.531 . S
C1638 H1650 0.960 . S
C1638 H1651 0.962 . S
C1638 H1652 0.960 . S
C1639 C1636 1.511 . S
C1639 H1653 0.961 . S
C1639 H1654 0.961 . S
C1639 H1655 0.961 . S
C1640 C1641 1.370 . S
C1640 C1642 1.363 . S
C1640 H1656 0.931 . S
C1641 C1640 1.370 . S
C1641 C1645 1.408 . S
C1642 C1640 1.363 . S
C1642 C1643 1.370 . S
C1642 C1646 1.524 . S
C1643 C1635 1.503 . S
C1643 C1642 1.370 . S
C1643 C1644 1.403 . S
C1644 C1643 1.403 . S
C1644 C1645 1.404 . S
C1644 C1647 1.539 . S
C1645 C1641 1.408 . S
C1645 C1644 1.404 . S
C1645 H1657 0.930 . S
C1646 C1642 1.524 . S
C1646 H1658 0.956 . S
C1646 H1659 0.961 . S
C1646 H1660 0.961 . S
C1647 C1644 1.539 . S
C1647 H1661 0.958 . S
C1647 H1662 0.961 . S
C1647 H1663 0.960 . S
H1648 C1632 0.931 . S
H1649 C1637 0.929 . S
H1650 C1638 0.960 . S
H1651 C1638 0.962 . S
H1652 C1638 0.960 . S
H1653 C1639 0.961 . S
H1654 C1639 0.961 . S
H1655 C1639 0.961 . S
H1656 C1640 0.931 . S
H1657 C1645 0.930 . S
H1658 C1646 0.956 . S
H1659 C1646 0.961 . S
H1660 C1646 0.961 . S
H1661 C1647 0.958 . S
H1662 C1647 0.961 . S
H1663 C1647 0.960 . S
C1664 C1665 1.391 . S
C1664 C1666 1.394 . S
C1664 H1680 0.931 . S
C1665 C1664 1.391 . S
C1665 C1669 1.376 . S
C1666 C1664 1.394 . S
C1666 C1667 1.369 . S
C1666 C1670 1.531 . S
C1667 C1666 1.369 . S
C1667 C1668 1.410 . S
C1667 C1675 1.503 . S
C1668 C1667 1.410 . S
C1668 C1669 1.392 . S
C1668 C1671 1.511 . S
C1669 C1665 1.376 . S
C1669 C1668 1.392 . S
C1669 H1681 0.929 . S
C1670 C1666 1.531 . S
C1670 H1682 0.960 . S
C1670 H1683 0.962 . S
C1670 H1684 0.960 . S
C1671 C1668 1.511 . S
C1671 H1685 0.961 . S
C1671 H1686 0.961 . S
C1671 H1687 0.961 . S
C1672 C1673 1.370 . S
C1672 C1674 1.363 . S
C1672 H1688 0.931 . S
C1673 C1672 1.370 . S
C1673 C1677 1.408 . S
C1674 C1672 1.363 . S
C1674 C1675 1.370 . S
C1674 C1678 1.524 . S
C1675 C1667 1.503 . S
C1675 C1674 1.370 . S
C1675 C1676 1.403 . S
C1676 C1675 1.403 . S
C1676 C1677 1.404 . S
C1676 C1679 1.539 . S
C1677 C1673 1.408 . S
C1677 C1676 1.404 . S
C1677 H1689 0.930 . S
C1678 C1674 1.524 . S
C1678 H1690 0.956 . S
C1678 H1691 0.961 . S
C1678 H1692 0.961 . S
C1679 C1676 1.539 . S
C1679 H1693 0.958 . S
C1679 H1694 0.961 . S
C1679 H1695 0.960 . S
H1680 C1664 0.931 . S
H1681 C1669 0.929 . S
H1682 C1670 0.960 . S
H1683 C1670 0.962 . S
H1684 C1670 0.960 . S
H1685 C1671 0.961 . S
H1686 C1671 0.961 . S
H1687 C1671 0.961 . S
H1688 C1672 0.931 . S
H1689 C1677 0.930 . S
H1690 C1678 0.956 . S
H1691 C1678 0.961 . S
H1692 C1678 0.961 . S
H1693 C1679 0.958 . S
H1694 C1679 0.961 . S
H1695 C1679 0.960 . S
C1696 C1697 1.391 . S
C1696 C1698 1.394 . S
C1696 H1712 0.931 . S
C1697 C1696 1.391 . S
C1697 C1701 1.376 . S
C1698 C1696 1.394 . S
C1698 C1699 1.369 . S
C1698 C1702 1.531 . S
C1699 C1698 1.369 . S
C1699 C1700 1.410 . S
C1699 C1707 1.503 . S
C1700 C1699 1.410 . S
C1700 C1701 1.392 . S
C1700 C1703 1.511 . S
C1701 C1697 1.376 . S
C1701 C1700 1.392 . S
C1701 H1713 0.929 . S
C1702 C1698 1.531 . S
C1702 H1714 0.960 . S
C1702 H1715 0.962 . S
C1702 H1716 0.960 . S
C1703 C1700 1.511 . S
C1703 H1717 0.961 . S
C1703 H1718 0.961 . S
C1703 H1719 0.961 . S
C1704 C1705 1.370 . S
C1704 C1706 1.363 . S
C1704 H1720 0.931 . S
C1705 C1704 1.370 . S
C1705 C1709 1.408 . S
C1706 C1704 1.363 . S
C1706 C1707 1.370 . S
C1706 C1710 1.524 . S
C1707 C1699 1.503 . S
C1707 C1706 1.370 . S
C1707 C1708 1.403 . S
C1708 C1707 1.403 . S
C1708 C1709 1.404 . S
C1708 C1711 1.539 . S
C1709 C1705 1.408 . S
C1709 C1708 1.404 . S
C1709 H1721 0.930 . S
C1710 C1706 1.524 . S
C1710 H1722 0.956 . S
C1710 H1723 0.961 . S
C1710 H1724 0.961 . S
C1711 C1708 1.539 . S
C1711 H1725 0.958 . S
C1711 H1726 0.961 . S
C1711 H1727 0.960 . S
H1712 C1696 0.931 . S
H1713 C1701 0.929 . S
H1714 C1702 0.960 . S
H1715 C1702 0.962 . S
H1716 C1702 0.960 . S
H1717 C1703 0.961 . S
H1718 C1703 0.961 . S
H1719 C1703 0.961 . S
H1720 C1704 0.931 . S
H1721 C1709 0.930 . S
H1722 C1710 0.956 . S
H1723 C1710 0.961 . S
H1724 C1710 0.961 . S
H1725 C1711 0.958 . S
H1726 C1711 0.961 . S
H1727 C1711 0.960 . S
C1728 C1729 1.391 . S
C1728 C1730 1.394 . S
C1728 H1744 0.931 1_554 S
C1729 C1728 1.391 . S
C1729 C1733 1.376 . S
C1730 C1728 1.394 . S
C1730 C1731 1.369 . S
C1730 C1734 1.531 . S
C1731 C1730 1.369 . S
C1731 C1732 1.410 . S
C1731 C1739 1.503 . S
C1732 C1731 1.410 . S
C1732 C1733 1.392 . S
C1732 C1735 1.511 . S
C1733 C1729 1.376 . S
C1733 C1732 1.392 . S
C1733 H1745 0.929 . S
C1734 C1730 1.531 . S
C1734 H1746 0.960 . S
C1734 H1747 0.962 . S
C1734 H1748 0.960 . S
C1735 C1732 1.511 . S
C1735 H1749 0.961 . S
C1735 H1750 0.961 . S
C1735 H1751 0.961 . S
C1736 C1737 1.370 . S
C1736 C1738 1.363 . S
C1736 H1752 0.931 . S
C1737 C1736 1.370 . S
C1737 C1741 1.408 . S
C1738 C1736 1.363 . S
C1738 C1739 1.370 . S
C1738 C1742 1.524 . S
C1739 C1731 1.503 . S
C1739 C1738 1.370 . S
C1739 C1740 1.403 . S
C1740 C1739 1.403 . S
C1740 C1741 1.404 . S
C1740 C1743 1.539 . S
C1741 C1737 1.408 . S
C1741 C1740 1.404 . S
C1741 H1753 0.930 . S
C1742 C1738 1.524 . S
C1742 H1754 0.956 . S
C1742 H1755 0.961 . S
C1742 H1756 0.961 . S
C1743 C1740 1.539 . S
C1743 H1757 0.958 . S
C1743 H1758 0.961 . S
C1743 H1759 0.960 . S
H1744 C1728 0.931 1_556 S
H1745 C1733 0.929 . S
H1746 C1734 0.960 . S
H1747 C1734 0.962 . S
H1748 C1734 0.960 . S
H1749 C1735 0.961 . S
H1750 C1735 0.961 . S
H1751 C1735 0.961 . S
H1752 C1736 0.931 . S
H1753 C1741 0.930 . S
H1754 C1742 0.956 . S
H1755 C1742 0.961 . S
H1756 C1742 0.961 . S
H1757 C1743 0.958 . S
H1758 C1743 0.961 . S
H1759 C1743 0.960 . S
C1760 C1761 1.391 . S
C1760 C1762 1.394 . S
C1760 H1776 0.931 . S
C1761 C1760 1.391 . S
C1761 C1765 1.376 . S
C1762 C1760 1.394 . S
C1762 C1763 1.369 . S
C1762 C1766 1.531 . S
C1763 C1762 1.369 . S
C1763 C1764 1.410 . S
C1763 C1771 1.503 . S
C1764 C1763 1.410 . S
C1764 C1765 1.392 . S
C1764 C1767 1.511 . S
C1765 C1761 1.376 . S
C1765 C1764 1.392 . S
C1765 H1777 0.929 . S
C1766 C1762 1.531 . S
C1766 H1778 0.960 . S
C1766 H1779 0.962 . S
C1766 H1780 0.960 . S
C1767 C1764 1.511 . S
C1767 H1781 0.961 . S
C1767 H1782 0.961 . S
C1767 H1783 0.961 . S
C1768 C1769 1.370 . S
C1768 C1770 1.363 . S
C1768 H1784 0.931 . S
C1769 C1768 1.370 . S
C1769 C1773 1.408 . S
C1770 C1768 1.363 . S
C1770 C1771 1.370 . S
C1770 C1774 1.524 . S
C1771 C1763 1.503 . S
C1771 C1770 1.370 . S
C1771 C1772 1.403 . S
C1772 C1771 1.403 . S
C1772 C1773 1.404 . S
C1772 C1775 1.539 . S
C1773 C1769 1.408 . S
C1773 C1772 1.404 . S
C1773 H1785 0.930 . S
C1774 C1770 1.524 . S
C1774 H1786 0.956 . S
C1774 H1787 0.961 . S
C1774 H1788 0.961 . S
C1775 C1772 1.539 . S
C1775 H1789 0.958 . S
C1775 H1790 0.961 . S
C1775 H1791 0.960 . S
H1776 C1760 0.931 . S
H1777 C1765 0.929 . S
H1778 C1766 0.960 . S
H1779 C1766 0.962 . S
H1780 C1766 0.960 . S
H1781 C1767 0.961 . S
H1782 C1767 0.961 . S
H1783 C1767 0.961 . S
H1784 C1768 0.931 . S
H1785 C1773 0.930 . S
H1786 C1774 0.956 . S
H1787 C1774 0.961 . S
H1788 C1774 0.961 . S
H1789 C1775 0.958 . S
H1790 C1775 0.961 . S
H1791 C1775 0.960 . S
C1792 C1793 1.391 . S
C1792 C1794 1.394 . S
C1792 H1808 0.931 . S
C1793 C1792 1.391 . S
C1793 C1797 1.376 . S
C1794 C1792 1.394 . S
C1794 C1795 1.369 . S
C1794 C1798 1.531 . S
C1795 C1794 1.369 . S
C1795 C1796 1.410 . S
C1795 C1803 1.503 . S
C1796 C1795 1.410 . S
C1796 C1797 1.392 . S
C1796 C1799 1.511 . S
C1797 C1793 1.376 . S
C1797 C1796 1.392 . S
C1797 H1809 0.929 . S
C1798 C1794 1.531 . S
C1798 H1810 0.960 . S
C1798 H1811 0.962 . S
C1798 H1812 0.960 . S
C1799 C1796 1.511 . S
C1799 H1813 0.961 . S
C1799 H1814 0.961 . S
C1799 H1815 0.961 . S
C1800 C1801 1.370 . S
C1800 C1802 1.363 . S
C1800 H1816 0.931 . S
C1801 C1800 1.370 . S
C1801 C1805 1.408 . S
C1802 C1800 1.363 . S
C1802 C1803 1.370 . S
C1802 C1806 1.524 . S
C1803 C1795 1.503 . S
C1803 C1802 1.370 . S
C1803 C1804 1.403 . S
C1804 C1803 1.403 . S
C1804 C1805 1.404 . S
C1804 C1807 1.539 . S
C1805 C1801 1.408 . S
C1805 C1804 1.404 . S
C1805 H1817 0.930 . S
C1806 C1802 1.524 . S
C1806 H1818 0.956 . S
C1806 H1819 0.961 . S
C1806 H1820 0.961 . S
C1807 C1804 1.539 . S
C1807 H1821 0.958 . S
C1807 H1822 0.961 . S
C1807 H1823 0.960 . S
H1808 C1792 0.931 . S
H1809 C1797 0.929 . S
H1810 C1798 0.960 . S
H1811 C1798 0.962 . S
H1812 C1798 0.960 . S
H1813 C1799 0.961 . S
H1814 C1799 0.961 . S
H1815 C1799 0.961 . S
H1816 C1800 0.931 . S
H1817 C1805 0.930 . S
H1818 C1806 0.956 . S
H1819 C1806 0.961 . S
H1820 C1806 0.961 . S
H1821 C1807 0.958 . S
H1822 C1807 0.961 . S
H1823 C1807 0.960 . S
C1824 C1825 1.391 . S
C1824 C1826 1.394 . S
C1824 H1840 0.931 . S
C1825 C1824 1.391 . S
C1825 C1829 1.376 . S
C1826 C1824 1.394 . S
C1826 C1827 1.369 . S
C1826 C1830 1.531 . S
C1827 C1826 1.369 . S
C1827 C1828 1.410 . S
C1827 C1835 1.503 . S
C1828 C1827 1.410 . S
C1828 C1829 1.392 . S
C1828 C1831 1.511 . S
C1829 C1825 1.376 . S
C1829 C1828 1.392 . S
C1829 H1841 0.929 . S
C1830 C1826 1.531 . S
C1830 H1842 0.960 . S
C1830 H1843 0.962 . S
C1830 H1844 0.960 . S
C1831 C1828 1.511 . S
C1831 H1845 0.961 . S
C1831 H1846 0.961 . S
C1831 H1847 0.961 . S
C1832 C1833 1.370 . S
C1832 C1834 1.363 . S
C1832 H1848 0.931 . S
C1833 C1832 1.370 . S
C1833 C1837 1.408 . S
C1834 C1832 1.363 . S
C1834 C1835 1.370 . S
C1834 C1838 1.524 . S
C1835 C1827 1.503 . S
C1835 C1834 1.370 . S
C1835 C1836 1.403 . S
C1836 C1835 1.403 . S
C1836 C1837 1.404 . S
C1836 C1839 1.539 . S
C1837 C1833 1.408 . S
C1837 C1836 1.404 . S
C1837 H1849 0.930 . S
C1838 C1834 1.524 . S
C1838 H1850 0.956 . S
C1838 H1851 0.961 . S
C1838 H1852 0.961 . S
C1839 C1836 1.539 . S
C1839 H1853 0.958 . S
C1839 H1854 0.961 . S
C1839 H1855 0.960 . S
H1840 C1824 0.931 . S
H1841 C1829 0.929 . S
H1842 C1830 0.960 . S
H1843 C1830 0.962 . S
H1844 C1830 0.960 . S
H1845 C1831 0.961 . S
H1846 C1831 0.961 . S
H1847 C1831 0.961 . S
H1848 C1832 0.931 . S
H1849 C1837 0.930 . S
H1850 C1838 0.956 . S
H1851 C1838 0.961 . S
H1852 C1838 0.961 . S
H1853 C1839 0.958 . S
H1854 C1839 0.961 . S
H1855 C1839 0.960 . S
C1856 C1857 1.391 . S
C1856 C1858 1.394 . S
C1856 H1872 0.931 . S
C1857 C1856 1.391 . S
C1857 C1861 1.376 . S
C1858 C1856 1.394 . S
C1858 C1859 1.369 . S
C1858 C1862 1.531 . S
C1859 C1858 1.369 . S
C1859 C1860 1.410 . S
C1859 C1867 1.503 . S
C1860 C1859 1.410 . S
C1860 C1861 1.392 . S
C1860 C1863 1.511 . S
C1861 C1857 1.376 . S
C1861 C1860 1.392 . S
C1861 H1873 0.929 . S
C1862 C1858 1.531 . S
C1862 H1874 0.960 . S
C1862 H1875 0.962 . S
C1862 H1876 0.960 . S
C1863 C1860 1.511 . S
C1863 H1877 0.961 . S
C1863 H1878 0.961 . S
C1863 H1879 0.961 . S
C1864 C1865 1.370 . S
C1864 C1866 1.363 . S
C1864 H1880 0.931 . S
C1865 C1864 1.370 . S
C1865 C1869 1.408 . S
C1866 C1864 1.363 . S
C1866 C1867 1.370 . S
C1866 C1870 1.524 . S
C1867 C1859 1.503 . S
C1867 C1866 1.370 . S
C1867 C1868 1.403 . S
C1868 C1867 1.403 . S
C1868 C1869 1.404 . S
C1868 C1871 1.539 . S
C1869 C1865 1.408 . S
C1869 C1868 1.404 . S
C1869 H1881 0.930 . S
C1870 C1866 1.524 . S
C1870 H1882 0.956 . S
C1870 H1883 0.961 . S
C1870 H1884 0.961 . S
C1871 C1868 1.539 . S
C1871 H1885 0.958 . S
C1871 H1886 0.961 . S
C1871 H1887 0.960 . S
H1872 C1856 0.931 . S
H1873 C1861 0.929 . S
H1874 C1862 0.960 . S
H1875 C1862 0.962 . S
H1876 C1862 0.960 . S
H1877 C1863 0.961 . S
H1878 C1863 0.961 . S
H1879 C1863 0.961 . S
H1880 C1864 0.931 . S
H1881 C1869 0.930 . S
H1882 C1870 0.956 . S
H1883 C1870 0.961 . S
H1884 C1870 0.961 . S
H1885 C1871 0.958 . S
H1886 C1871 0.961 . S
H1887 C1871 0.960 . S
C1888 C1889 1.391 . S
C1888 C1890 1.394 . S
C1888 H1904 0.931 . S
C1889 C1888 1.391 . S
C1889 C1893 1.376 . S
C1890 C1888 1.394 . S
C1890 C1891 1.369 1_545 S
C1890 C1894 1.531 . S
C1891 C1890 1.369 1_565 S
C1891 C1892 1.410 . S
C1891 C1899 1.503 . S
C1892 C1891 1.410 . S
C1892 C1893 1.392 1_565 S
C1892 C1895 1.511 . S
C1893 C1889 1.376 . S
C1893 C1892 1.392 1_545 S
C1893 H1905 0.927 1_545 S
C1894 C1890 1.531 . S
C1894 H1906 0.960 1_545 S
C1894 H1907 0.962 . S
C1894 H1908 0.960 . S
C1895 C1892 1.511 . S
C1895 H1909 0.961 . S
C1895 H1910 0.961 . S
C1895 H1911 0.961 . S
C1896 C1897 1.370 . S
C1896 C1898 1.363 . S
C1896 H1912 0.931 . S
C1897 C1896 1.370 . S
C1897 C1901 1.408 . S
C1898 C1896 1.363 . S
C1898 C1899 1.370 . S
C1898 C1902 1.524 . S
C1899 C1891 1.503 . S
C1899 C1898 1.370 . S
C1899 C1900 1.403 . S
C1900 C1899 1.403 . S
C1900 C1901 1.404 . S
C1900 C1903 1.539 . S
C1901 C1897 1.408 . S
C1901 C1900 1.404 . S
C1901 H1913 0.930 . S
C1902 C1898 1.524 . S
C1902 H1914 0.956 . S
C1902 H1915 0.961 . S
C1902 H1916 0.961 . S
C1903 C1900 1.539 . S
C1903 H1917 0.958 . S
C1903 H1918 0.961 . S
C1903 H1919 0.960 . S
H1904 C1888 0.931 . S
H1905 C1893 0.927 1_565 S
H1906 C1894 0.960 1_565 S
H1907 C1894 0.962 . S
H1908 C1894 0.960 . S
H1909 C1895 0.961 . S
H1910 C1895 0.961 . S
H1911 C1895 0.961 . S
H1912 C1896 0.931 . S
H1913 C1901 0.930 . S
H1914 C1902 0.956 . S
H1915 C1902 0.961 . S
H1916 C1902 0.961 . S
H1917 C1903 0.958 . S
H1918 C1903 0.961 . S
H1919 C1903 0.960 . S
C1920 C1921 1.391 . S
C1920 C1922 1.394 . S
C1920 H1936 0.931 . S
C1921 C1920 1.391 . S
C1921 C1925 1.376 . S
C1922 C1920 1.394 . S
C1922 C1923 1.369 . S
C1922 C1926 1.531 . S
C1923 C1922 1.369 . S
C1923 C1924 1.410 . S
C1923 C1931 1.503 . S
C1924 C1923 1.410 . S
C1924 C1925 1.392 . S
C1924 C1927 1.511 . S
C1925 C1921 1.376 . S
C1925 C1924 1.392 . S
C1925 H1937 0.929 . S
C1926 C1922 1.531 . S
C1926 H1938 0.960 . S
C1926 H1939 0.962 . S
C1926 H1940 0.960 . S
C1927 C1924 1.511 . S
C1927 H1941 0.961 . S
C1927 H1942 0.961 . S
C1927 H1943 0.961 . S
C1928 C1929 1.370 . S
C1928 C1930 1.363 . S
C1928 H1944 0.931 . S
C1929 C1928 1.370 . S
C1929 C1933 1.408 . S
C1930 C1928 1.363 . S
C1930 C1931 1.370 . S
C1930 C1934 1.524 . S
C1931 C1923 1.503 . S
C1931 C1930 1.370 . S
C1931 C1932 1.403 . S
C1932 C1931 1.403 . S
C1932 C1933 1.404 . S
C1932 C1935 1.539 . S
C1933 C1929 1.408 . S
C1933 C1932 1.404 . S
C1933 H1945 0.930 . S
C1934 C1930 1.524 . S
C1934 H1946 0.956 . S
C1934 H1947 0.961 . S
C1934 H1948 0.961 . S
C1935 C1932 1.539 . S
C1935 H1949 0.958 . S
C1935 H1950 0.961 . S
C1935 H1951 0.960 . S
H1936 C1920 0.931 . S
H1937 C1925 0.929 . S
H1938 C1926 0.960 . S
H1939 C1926 0.962 . S
H1940 C1926 0.960 . S
H1941 C1927 0.961 . S
H1942 C1927 0.961 . S
H1943 C1927 0.961 . S
H1944 C1928 0.931 . S
H1945 C1933 0.930 . S
H1946 C1934 0.956 . S
H1947 C1934 0.961 . S
H1948 C1934 0.961 . S
H1949 C1935 0.958 . S
H1950 C1935 0.961 . S
H1951 C1935 0.960 . S
C1952 C1953 1.391 . S
C1952 C1954 1.394 1_565 S
C1952 H1968 0.931 . S
C1953 C1952 1.391 . S
C1953 C1957 1.376 . S
C1954 C1952 1.394 1_545 S
C1954 C1955 1.369 . S
C1954 C1958 1.531 . S
C1955 C1954 1.369 . S
C1955 C1956 1.440 . S
C1955 C1963 1.503 . S
C1956 C1955 1.440 . S
C1956 C1957 1.356 1_545 S
C1956 C1959 1.517 . S
C1957 C1953 1.376 . S
C1957 C1956 1.356 1_565 S
C1957 H1969 0.929 . S
C1958 C1954 1.531 . S
C1958 H1970 0.960 . S
C1958 H1971 0.962 . S
C1958 H1972 0.960 . S
C1959 C1956 1.517 . S
C1959 H1973 0.961 1_545 S
C1959 H1974 0.961 . S
C1959 H1975 0.961 . S
C1960 C1961 1.370 . S
C1960 C1962 1.363 . S
C1960 H1976 0.931 . S
C1961 C1960 1.370 . S
C1961 C1965 1.408 . S
C1962 C1960 1.363 . S
C1962 C1963 1.370 . S
C1962 C1966 1.524 . S
C1963 C1955 1.503 . S
C1963 C1962 1.370 . S
C1963 C1964 1.403 . S
C1964 C1963 1.403 . S
C1964 C1965 1.404 . S
C1964 C1967 1.539 . S
C1965 C1961 1.408 . S
C1965 C1964 1.404 . S
C1965 H1977 0.930 . S
C1966 C1962 1.524 . S
C1966 H1978 0.956 . S
C1966 H1979 0.977 . S
C1966 H1980 0.961 . S
C1967 C1964 1.539 . S
C1967 H1981 0.958 . S
C1967 H1982 0.961 . S
C1967 H1983 0.960 . S
H1968 C1952 0.931 . S
H1969 C1957 0.929 . S
H1970 C1958 0.960 . S
H1971 C1958 0.962 . S
H1972 C1958 0.960 . S
H1973 C1959 0.961 1_565 S
H1974 C1959 0.961 . S
H1975 C1959 0.961 . S
H1976 C1960 0.931 . S
H1977 C1965 0.930 . S
H1978 C1966 0.956 . S
H1979 C1966 0.977 . S
H1980 C1966 0.961 . S
H1981 C1967 0.958 . S
H1982 C1967 0.961 . S
H1983 C1967 0.960 . S
C1984 C1985 1.391 . S
C1984 C1986 1.394 . S
C1984 H2000 0.931 . S
C1985 C1984 1.391 . S
C1985 C1989 1.376 . S
C1986 C1984 1.394 . S
C1986 C1987 1.369 . S
C1986 C1990 1.531 . S
C1987 C1986 1.369 . S
C1987 C1988 1.410 . S
C1987 C1995 1.503 . S
C1988 C1987 1.410 . S
C1988 C1989 1.392 . S
C1988 C1991 1.511 . S
C1989 C1985 1.376 . S
C1989 C1988 1.392 . S
C1989 H2001 0.929 . S
C1990 C1986 1.531 . S
C1990 H2002 0.960 . S
C1990 H2003 0.962 . S
C1990 H2004 0.960 . S
C1991 C1988 1.511 . S
C1991 H2005 0.961 . S
C1991 H2006 0.961 . S
C1991 H2007 0.961 . S
C1992 C1993 1.370 . S
C1992 C1994 1.363 . S
C1992 H2008 0.931 . S
C1993 C1992 1.370 . S
C1993 C1997 1.408 . S
C1994 C1992 1.363 . S
C1994 C1995 1.370 . S
C1994 C1998 1.524 . S
C1995 C1987 1.503 . S
C1995 C1994 1.370 . S
C1995 C1996 1.403 . S
C1996 C1995 1.403 . S
C1996 C1997 1.404 . S
C1996 C1999 1.539 . S
C1997 C1993 1.408 . S
C1997 C1996 1.404 . S
C1997 H2009 0.930 . S
C1998 C1994 1.524 . S
C1998 H2010 0.956 . S
C1998 H2011 0.961 . S
C1998 H2012 0.961 . S
C1999 C1996 1.539 . S
C1999 H2013 0.958 . S
C1999 H2014 0.961 . S
C1999 H2015 0.960 . S
H2000 C1984 0.931 . S
H2001 C1989 0.929 . S
H2002 C1990 0.960 . S
H2003 C1990 0.962 . S
H2004 C1990 0.960 . S
H2005 C1991 0.961 . S
H2006 C1991 0.961 . S
H2007 C1991 0.961 . S
H2008 C1992 0.931 . S
H2009 C1997 0.930 . S
H2010 C1998 0.956 . S
H2011 C1998 0.961 . S
H2012 C1998 0.961 . S
H2013 C1999 0.958 . S
H2014 C1999 0.961 . S
H2015 C1999 0.960 . S
C2016 C2017 1.391 . S
C2016 C2018 1.394 . S
C2016 H2032 0.931 . S
C2017 C2016 1.391 . S
C2017 C2021 1.376 . S
C2018 C2016 1.394 . S
C2018 C2019 1.369 . S
C2018 C2022 1.531 . S
C2019 C2018 1.369 . S
C2019 C2020 1.410 . S
C2019 C2027 1.503 . S
C2020 C2019 1.410 . S
C2020 C2021 1.392 . S
C2020 C2023 1.511 . S
C2021 C2017 1.376 . S
C2021 C2020 1.392 . S
C2021 H2033 0.929 . S
C2022 C2018 1.531 . S
C2022 H2034 0.960 . S
C2022 H2035 0.962 . S
C2022 H2036 0.960 . S
C2023 C2020 1.511 . S
C2023 H2037 0.961 . S
C2023 H2038 0.961 . S
C2023 H2039 0.961 . S
C2024 C2025 1.370 . S
C2024 C2026 1.363 1_565 S
C2024 H2040 0.931 1_565 S
C2025 C2024 1.370 . S
C2025 C2029 1.408 . S
C2026 C2024 1.363 1_545 S
C2026 C2027 1.370 . S
C2026 C2030 1.524 . S
C2027 C2019 1.503 . S
C2027 C2026 1.370 . S
C2027 C2028 1.403 1_545 S
C2028 C2027 1.403 1_565 S
C2028 C2029 1.404 . S
C2028 C2031 1.539 . S
C2029 C2025 1.408 . S
C2029 C2028 1.404 . S
C2029 H2041 0.930 . S
C2030 C2026 1.524 . S
C2030 H2042 0.956 . S
C2030 H2043 0.961 . S
C2030 H2044 0.961 . S
C2031 C2028 1.539 . S
C2031 H2045 0.958 . S
C2031 H2046 0.961 . S
C2031 H2047 0.960 . S
H2032 C2016 0.931 . S
H2033 C2021 0.929 . S
H2034 C2022 0.960 . S
H2035 C2022 0.962 . S
H2036 C2022 0.960 . S
H2037 C2023 0.961 . S
H2038 C2023 0.961 . S
H2039 C2023 0.961 . S
H2040 C2024 0.931 1_545 S
H2041 C2029 0.930 . S
H2042 C2030 0.956 . S
H2043 C2030 0.961 . S
H2044 C2030 0.961 . S
H2045 C2031 0.958 . S
H2046 C2031 0.961 . S
H2047 C2031 0.960 . S
C2048 C2049 1.391 . S
C2048 C2050 1.394 . S
C2048 H2064 0.931 . S
C2049 C2048 1.391 . S
C2049 C2053 1.376 . S
C2050 C2048 1.394 . S
C2050 C2051 1.369 . S
C2050 C2054 1.531 . S
C2051 C2050 1.369 . S
C2051 C2052 1.410 . S
C2051 C2059 1.503 . S
C2052 C2051 1.410 . S
C2052 C2053 1.392 . S
C2052 C2055 1.511 . S
C2053 C2049 1.376 . S
C2053 C2052 1.392 . S
C2053 H2065 0.929 . S
C2054 C2050 1.531 . S
C2054 H2066 0.960 . S
C2054 H2067 0.962 . S
C2054 H2068 0.960 . S
C2055 C2052 1.511 . S
C2055 H2069 0.961 . S
C2055 H2070 0.961 . S
C2055 H2071 0.961 . S
C2056 C2057 1.370 . S
C2056 C2058 1.363 . S
C2056 H2072 0.931 1_554 S
C2057 C2056 1.370 . S
C2057 C2061 1.408 . S
C2058 C2056 1.363 . S
C2058 C2059 1.370 . S
C2058 C2062 1.524 . S
C2059 C2051 1.503 . S
C2059 C2058 1.370 . S
C2059 C2060 1.403 . S
C2060 C2059 1.403 . S
C2060 C2061 1.404 . S
C2060 C2063 1.539 . S
C2061 C2057 1.408 . S
C2061 C2060 1.404 . S
C2061 H2073 0.930 . S
C2062 C2058 1.524 . S
C2062 H2074 0.956 . S
C2062 H2075 0.961 . S
C2062 H2076 0.961 . S
C2063 C2060 1.539 . S
C2063 H2077 0.958 . S
C2063 H2078 0.961 . S
C2063 H2079 0.960 . S
H2064 C2048 0.931 . S
H2065 C2053 0.929 . S
H2066 C2054 0.960 . S
H2067 C2054 0.962 . S
H2068 C2054 0.960 . S
H2069 C2055 0.961 . S
H2070 C2055 0.961 . S
H2071 C2055 0.961 . S
H2072 C2056 0.931 1_556 S
H2073 C2061 0.930 . S
H2074 C2062 0.956 . S
H2075 C2062 0.961 . S
H2076 C2062 0.961 . S
H2077 C2063 0.958 . S
H2078 C2063 0.961 . S
H2079 C2063 0.960 . S
C2080 C2081 1.391 . S
C2080 C2082 1.394 . S
C2080 H2096 0.931 . S
C2081 C2080 1.391 . S
C2081 C2085 1.376 . S
C2082 C2080 1.394 . S
C2082 C2083 1.369 1_545 S
C2082 C2086 1.530 1_545 S
C2083 C2082 1.369 1_565 S
C2083 C2084 1.410 . S
C2083 C2091 1.503 . S
C2084 C2083 1.410 . S
C2084 C2085 1.392 1_565 S
C2084 C2087 1.511 . S
C2085 C2081 1.376 . S
C2085 C2084 1.392 1_545 S
C2085 H2097 0.929 . S
C2086 C2082 1.530 1_565 S
C2086 H2098 0.963 . S
C2086 H2099 0.966 . S
C2086 H2100 0.954 1_565 S
C2087 C2084 1.511 . S
C2087 H2101 0.961 . S
C2087 H2102 0.961 . S
C2087 H2103 0.961 . S
C2088 C2089 1.370 . S
C2088 C2090 1.363 . S
C2088 H2104 0.931 . S
C2089 C2088 1.370 . S
C2089 C2093 1.408 . S
C2090 C2088 1.363 . S
C2090 C2091 1.370 . S
C2090 C2094 1.524 . S
C2091 C2083 1.503 . S
C2091 C2090 1.370 . S
C2091 C2092 1.403 . S
C2092 C2091 1.403 . S
C2092 C2093 1.404 . S
C2092 C2095 1.539 . S
C2093 C2089 1.408 . S
C2093 C2092 1.404 . S
C2093 H2105 0.930 . S
C2094 C2090 1.524 . S
C2094 H2106 0.956 . S
C2094 H2107 0.961 . S
C2094 H2108 0.961 . S
C2095 C2092 1.539 . S
C2095 H2109 0.958 . S
C2095 H2110 0.961 . S
C2095 H2111 0.960 . S
H2096 C2080 0.931 . S
H2097 C2085 0.929 . S
H2098 C2086 0.963 . S
H2099 C2086 0.966 . S
H2100 C2086 0.954 1_545 S
H2101 C2087 0.961 . S
H2102 C2087 0.961 . S
H2103 C2087 0.961 . S
H2104 C2088 0.931 . S
H2105 C2093 0.930 . S
H2106 C2094 0.956 . S
H2107 C2094 0.961 . S
H2108 C2094 0.961 . S
H2109 C2095 0.958 . S
H2110 C2095 0.961 . S
H2111 C2095 0.960 . S
C2112 C2113 1.391 . S
C2112 C2114 1.394 . S
C2112 H2128 0.931 . S
C2113 C2112 1.391 . S
C2113 C2117 1.376 . S
C2114 C2112 1.394 . S
C2114 C2115 1.369 . S
C2114 C2118 1.531 . S
C2115 C2114 1.369 . S
C2115 C2116 1.410 . S
C2115 C2123 1.503 . S
C2116 C2115 1.410 . S
C2116 C2117 1.392 . S
C2116 C2119 1.511 . S
C2117 C2113 1.376 . S
C2117 C2116 1.392 . S
C2117 H2129 0.929 . S
C2118 C2114 1.531 . S
C2118 H2130 0.960 . S
C2118 H2131 0.962 . S
C2118 H2132 0.960 . S
C2119 C2116 1.511 . S
C2119 H2133 0.961 . S
C2119 H2134 0.961 . S
C2119 H2135 0.961 . S
C2120 C2121 1.370 . S
C2120 C2122 1.363 . S
C2120 H2136 0.931 . S
C2121 C2120 1.370 . S
C2121 C2125 1.408 . S
C2122 C2120 1.363 . S
C2122 C2123 1.370 . S
C2122 C2126 1.524 . S
C2123 C2115 1.503 . S
C2123 C2122 1.370 . S
C2123 C2124 1.403 . S
C2124 C2123 1.403 . S
C2124 C2125 1.404 . S
C2124 C2127 1.539 . S
C2125 C2121 1.408 . S
C2125 C2124 1.404 . S
C2125 H2137 0.930 . S
C2126 C2122 1.524 . S
C2126 H2138 0.956 . S
C2126 H2139 0.961 . S
C2126 H2140 0.961 . S
C2127 C2124 1.539 . S
C2127 H2141 0.958 . S
C2127 H2142 0.961 . S
C2127 H2143 0.960 . S
H2128 C2112 0.931 . S
H2129 C2117 0.929 . S
H2130 C2118 0.960 . S
H2131 C2118 0.962 . S
H2132 C2118 0.960 . S
H2133 C2119 0.961 . S
H2134 C2119 0.961 . S
H2135 C2119 0.961 . S
H2136 C2120 0.931 . S
H2137 C2125 0.930 . S
H2138 C2126 0.956 . S
H2139 C2126 0.961 . S
H2140 C2126 0.961 . S
H2141 C2127 0.958 . S
H2142 C2127 0.961 . S
H2143 C2127 0.960 . S
C2144 C2145 1.391 . S
C2144 C2146 1.394 . S
C2144 H2160 0.931 . S
C2145 C2144 1.391 . S
C2145 C2149 1.376 . S
C2146 C2144 1.394 . S
C2146 C2147 1.369 . S
C2146 C2150 1.531 . S
C2147 C2146 1.369 . S
C2147 C2148 1.410 . S
C2147 C2155 1.503 . S
C2148 C2147 1.410 . S
C2148 C2149 1.392 . S
C2148 C2151 1.511 . S
C2149 C2145 1.376 . S
C2149 C2148 1.392 . S
C2149 H2161 0.929 . S
C2150 C2146 1.531 . S
C2150 H2162 0.960 . S
C2150 H2163 0.962 . S
C2150 H2164 0.960 . S
C2151 C2148 1.511 . S
C2151 H2165 0.961 . S
C2151 H2166 0.961 . S
C2151 H2167 0.961 . S
C2152 C2153 1.370 . S
C2152 C2154 1.363 . S
C2152 H2168 0.931 1_554 S
C2153 C2152 1.370 . S
C2153 C2157 1.408 . S
C2154 C2152 1.363 . S
C2154 C2155 1.370 . S
C2154 C2158 1.524 . S
C2155 C2147 1.503 . S
C2155 C2154 1.370 . S
C2155 C2156 1.403 . S
C2156 C2155 1.403 . S
C2156 C2157 1.404 . S
C2156 C2159 1.539 . S
C2157 C2153 1.408 . S
C2157 C2156 1.404 . S
C2157 H2169 0.930 . S
C2158 C2154 1.524 . S
C2158 H2170 0.956 . S
C2158 H2171 0.961 . S
C2158 H2172 0.961 . S
C2159 C2156 1.539 . S
C2159 H2173 0.958 . S
C2159 H2174 0.961 . S
C2159 H2175 0.960 . S
H2160 C2144 0.931 . S
H2161 C2149 0.929 . S
H2162 C2150 0.960 . S
H2163 C2150 0.962 . S
H2164 C2150 0.960 . S
H2165 C2151 0.961 . S
H2166 C2151 0.961 . S
H2167 C2151 0.961 . S
H2168 C2152 0.931 1_556 S
H2169 C2157 0.930 . S
H2170 C2158 0.956 . S
H2171 C2158 0.961 . S
H2172 C2158 0.961 . S
H2173 C2159 0.958 . S
H2174 C2159 0.961 . S
H2175 C2159 0.960 . S
C2176 C2177 1.391 . S
C2176 C2178 1.394 . S
C2176 H2192 0.931 . S
C2177 C2176 1.391 . S
C2177 C2181 1.376 . S
C2178 C2176 1.394 . S
C2178 C2179 1.369 . S
C2178 C2182 1.531 . S
C2179 C2178 1.369 . S
C2179 C2180 1.410 . S
C2179 C2187 1.503 . S
C2180 C2179 1.410 . S
C2180 C2181 1.392 . S
C2180 C2183 1.511 . S
C2181 C2177 1.376 . S
C2181 C2180 1.392 . S
C2181 H2193 0.929 . S
C2182 C2178 1.531 . S
C2182 H2194 0.960 . S
C2182 H2195 0.962 . S
C2182 H2196 0.960 . S
C2183 C2180 1.511 . S
C2183 H2197 0.961 . S
C2183 H2198 0.961 . S
C2183 H2199 0.961 1_655 S
C2184 C2185 1.370 1_655 S
C2184 C2186 1.363 . S
C2184 H2200 0.931 . S
C2185 C2184 1.370 1_455 S
C2185 C2189 1.408 . S
C2186 C2184 1.363 . S
C2186 C2187 1.370 . S
C2186 C2190 1.524 . S
C2187 C2179 1.503 . S
C2187 C2186 1.370 . S
C2187 C2188 1.403 1_655 S
C2188 C2187 1.403 1_455 S
C2188 C2189 1.404 . S
C2188 C2191 1.539 . S
C2189 C2185 1.408 . S
C2189 C2188 1.404 . S
C2189 H2201 0.930 . S
C2190 C2186 1.524 . S
C2190 H2202 0.956 . S
C2190 H2203 0.961 . S
C2190 H2204 0.961 . S
C2191 C2188 1.539 . S
C2191 H2205 0.958 . S
C2191 H2206 0.961 . S
C2191 H2207 0.960 . S
H2192 C2176 0.931 . S
H2193 C2181 0.929 . S
H2194 C2182 0.960 . S
H2195 C2182 0.962 . S
H2196 C2182 0.960 . S
H2197 C2183 0.961 . S
H2198 C2183 0.961 . S
H2199 C2183 0.961 1_455 S
H2200 C2184 0.931 . S
H2201 C2189 0.930 . S
H2202 C2190 0.956 . S
H2203 C2190 0.961 . S
H2204 C2190 0.961 . S
H2205 C2191 0.958 . S
H2206 C2191 0.961 . S
H2207 C2191 0.960 . S
C2208 C2209 1.391 . S
C2208 C2210 1.394 . S
C2208 H2224 0.931 . S
C2209 C2208 1.391 . S
C2209 C2213 1.376 . S
C2210 C2208 1.394 . S
C2210 C2211 1.369 . S
C2210 C2214 1.531 . S
C2211 C2210 1.369 . S
C2211 C2212 1.410 . S
C2211 C2219 1.503 . S
C2212 C2211 1.410 . S
C2212 C2213 1.392 . S
C2212 C2215 1.511 . S
C2213 C2209 1.376 . S
C2213 C2212 1.392 . S
C2213 H2225 0.929 . S
C2214 C2210 1.531 . S
C2214 H2226 0.960 . S
C2214 H2227 0.962 . S
C2214 H2228 0.960 . S
C2215 C2212 1.511 . S
C2215 H2229 0.961 . S
C2215 H2230 0.961 . S
C2215 H2231 0.961 . S
C2216 C2217 1.370 . S
C2216 C2218 1.363 . S
C2216 H2232 0.931 . S
C2217 C2216 1.370 . S
C2217 C2221 1.408 . S
C2218 C2216 1.363 . S
C2218 C2219 1.370 . S
C2218 C2222 1.524 . S
C2219 C2211 1.503 . S
C2219 C2218 1.370 . S
C2219 C2220 1.403 . S
C2220 C2219 1.403 . S
C2220 C2221 1.404 . S
C2220 C2223 1.539 . S
C2221 C2217 1.408 . S
C2221 C2220 1.404 . S
C2221 H2233 0.930 . S
C2222 C2218 1.524 . S
C2222 H2234 0.956 . S
C2222 H2235 0.961 . S
C2222 H2236 0.961 . S
C2223 C2220 1.539 . S
C2223 H2237 0.958 . S
C2223 H2238 0.961 . S
C2223 H2239 0.960 . S
H2224 C2208 0.931 . S
H2225 C2213 0.929 . S
H2226 C2214 0.960 . S
H2227 C2214 0.962 . S
H2228 C2214 0.960 . S
H2229 C2215 0.961 . S
H2230 C2215 0.961 . S
H2231 C2215 0.961 . S
H2232 C2216 0.931 . S
H2233 C2221 0.930 . S
H2234 C2222 0.956 . S
H2235 C2222 0.961 . S
H2236 C2222 0.961 . S
H2237 C2223 0.958 . S
H2238 C2223 0.961 . S
H2239 C2223 0.960 . S
C2240 C2241 1.391 . S
C2240 C2242 1.394 . S
C2240 H2256 0.931 . S
C2241 C2240 1.391 . S
C2241 C2245 1.376 . S
C2242 C2240 1.394 . S
C2242 C2243 1.369 . S
C2242 C2246 1.531 . S
C2243 C2242 1.369 . S
C2243 C2244 1.410 . S
C2243 C2251 1.503 . S
C2244 C2243 1.410 . S
C2244 C2245 1.392 . S
C2244 C2247 1.511 . S
C2245 C2241 1.376 . S
C2245 C2244 1.392 . S
C2245 H2257 0.929 . S
C2246 C2242 1.531 . S
C2246 H2258 0.960 . S
C2246 H2259 0.962 . S
C2246 H2260 0.960 . S
C2247 C2244 1.511 . S
C2247 H2261 0.961 . S
C2247 H2262 0.961 . S
C2247 H2263 0.961 . S
C2248 C2249 1.370 . S
C2248 C2250 1.363 . S
C2248 H2264 0.931 . S
C2249 C2248 1.370 . S
C2249 C2253 1.408 . S
C2250 C2248 1.363 . S
C2250 C2251 1.370 . S
C2250 C2254 1.524 . S
C2251 C2243 1.503 . S
C2251 C2250 1.370 . S
C2251 C2252 1.403 . S
C2252 C2251 1.403 . S
C2252 C2253 1.404 . S
C2252 C2255 1.539 . S
C2253 C2249 1.408 . S
C2253 C2252 1.404 . S
C2253 H2265 0.930 . S
C2254 C2250 1.524 . S
C2254 H2266 0.956 . S
C2254 H2267 0.961 . S
C2254 H2268 0.961 . S
C2255 C2252 1.539 . S
C2255 H2269 0.958 . S
C2255 H2270 0.961 . S
C2255 H2271 0.960 . S
H2256 C2240 0.931 . S
H2257 C2245 0.929 . S
H2258 C2246 0.960 . S
H2259 C2246 0.962 . S
H2260 C2246 0.960 . S
H2261 C2247 0.961 . S
H2262 C2247 0.961 . S
H2263 C2247 0.961 . S
H2264 C2248 0.931 . S
H2265 C2253 0.930 . S
H2266 C2254 0.956 . S
H2267 C2254 0.961 . S
H2268 C2254 0.961 . S
H2269 C2255 0.958 . S
H2270 C2255 0.961 . S
H2271 C2255 0.960 . S
C2272 C2273 1.391 . S
C2272 C2274 1.394 . S
C2272 H2288 0.931 . S
C2273 C2272 1.391 . S
C2273 C2277 1.376 . S
C2274 C2272 1.394 . S
C2274 C2275 1.369 . S
C2274 C2278 1.531 . S
C2275 C2274 1.369 . S
C2275 C2276 1.410 . S
C2275 C2283 1.503 . S
C2276 C2275 1.410 . S
C2276 C2277 1.392 . S
C2276 C2279 1.511 . S
C2277 C2273 1.376 . S
C2277 C2276 1.392 . S
C2277 H2289 0.929 . S
C2278 C2274 1.531 . S
C2278 H2290 0.960 . S
C2278 H2291 0.962 . S
C2278 H2292 0.960 . S
C2279 C2276 1.511 . S
C2279 H2293 0.961 . S
C2279 H2294 0.961 . S
C2279 H2295 0.961 . S
C2280 C2281 1.370 . S
C2280 C2282 1.363 . S
C2280 H2296 0.931 1_556 S
C2281 C2280 1.370 . S
C2281 C2285 1.408 . S
C2282 C2280 1.363 . S
C2282 C2283 1.370 . S
C2282 C2286 1.524 . S
C2283 C2275 1.503 . S
C2283 C2282 1.370 . S
C2283 C2284 1.403 . S
C2284 C2283 1.403 . S
C2284 C2285 1.404 . S
C2284 C2287 1.539 . S
C2285 C2281 1.408 . S
C2285 C2284 1.404 . S
C2285 H2297 0.930 . S
C2286 C2282 1.524 . S
C2286 H2298 0.956 . S
C2286 H2299 0.961 . S
C2286 H2300 0.961 . S
C2287 C2284 1.539 . S
C2287 H2301 0.958 . S
C2287 H2302 0.961 . S
C2287 H2303 0.960 . S
H2288 C2272 0.931 . S
H2289 C2277 0.929 . S
H2290 C2278 0.960 . S
H2291 C2278 0.962 . S
H2292 C2278 0.960 . S
H2293 C2279 0.961 . S
H2294 C2279 0.961 . S
H2295 C2279 0.961 . S
H2296 C2280 0.931 1_554 S
H2297 C2285 0.930 . S
H2298 C2286 0.956 . S
H2299 C2286 0.961 . S
H2300 C2286 0.961 . S
H2301 C2287 0.958 . S
H2302 C2287 0.961 . S
H2303 C2287 0.960 . S
C2304 C2305 1.391 . S
C2304 C2306 1.394 . S
C2304 H2320 0.931 . S
C2305 C2304 1.391 . S
C2305 C2309 1.376 . S
C2306 C2304 1.394 . S
C2306 C2307 1.369 . S
C2306 C2310 1.531 . S
C2307 C2306 1.369 . S
C2307 C2308 1.410 . S
C2307 C2315 1.503 . S
C2308 C2307 1.410 . S
C2308 C2309 1.392 . S
C2308 C2311 1.511 1_455 S
C2309 C2305 1.376 . S
C2309 C2308 1.392 . S
C2309 H2321 0.929 . S
C2310 C2306 1.531 . S
C2310 H2322 0.960 . S
C2310 H2323 0.962 . S
C2310 H2324 0.960 . S
C2311 C2308 1.511 1_655 S
C2311 H2325 0.961 . S
C2311 H2326 0.961 . S
C2311 H2327 0.961 . S
C2312 C2313 1.370 1_455 S
C2312 C2314 1.363 . S
C2312 H2328 0.931 . S
C2313 C2312 1.370 1_655 S
C2313 C2317 1.408 . S
C2314 C2312 1.363 . S
C2314 C2315 1.370 . S
C2314 C2318 1.524 . S
C2315 C2307 1.503 . S
C2315 C2314 1.370 . S
C2315 C2316 1.403 1_455 S
C2316 C2315 1.403 1_655 S
C2316 C2317 1.404 . S
C2316 C2319 1.539 . S
C2317 C2313 1.408 . S
C2317 C2316 1.404 . S
C2317 H2329 0.930 . S
C2318 C2314 1.524 . S
C2318 H2330 0.956 . S
C2318 H2331 0.961 . S
C2318 H2332 0.961 . S
C2319 C2316 1.539 . S
C2319 H2333 0.958 . S
C2319 H2334 0.961 . S
C2319 H2335 0.960 . S
H2320 C2304 0.931 . S
H2321 C2309 0.929 . S
H2322 C2310 0.960 . S
H2323 C2310 0.962 . S
H2324 C2310 0.960 . S
H2325 C2311 0.961 . S
H2326 C2311 0.961 . S
H2327 C2311 0.961 . S
H2328 C2312 0.931 . S
H2329 C2317 0.930 . S
H2330 C2318 0.956 . S
H2331 C2318 0.961 . S
H2332 C2318 0.961 . S
H2333 C2319 0.958 . S
H2334 C2319 0.961 . S
H2335 C2319 0.960 . S
C2336 C2337 1.391 . S
C2336 C2338 1.394 . S
C2336 H2352 0.931 . S
C2337 C2336 1.391 . S
C2337 C2341 1.376 . S
C2338 C2336 1.394 . S
C2338 C2339 1.369 . S
C2338 C2342 1.531 . S
C2339 C2338 1.369 . S
C2339 C2340 1.410 . S
C2339 C2347 1.503 . S
C2340 C2339 1.410 . S
C2340 C2341 1.392 . S
C2340 C2343 1.511 . S
C2341 C2337 1.376 . S
C2341 C2340 1.392 . S
C2341 H2353 0.929 . S
C2342 C2338 1.531 . S
C2342 H2354 0.960 . S
C2342 H2355 0.962 . S
C2342 H2356 0.960 . S
C2343 C2340 1.511 . S
C2343 H2357 0.961 . S
C2343 H2358 0.961 . S
C2343 H2359 0.961 . S
C2344 C2345 1.370 . S
C2344 C2346 1.363 . S
C2344 H2360 0.931 . S
C2345 C2344 1.370 . S
C2345 C2349 1.408 . S
C2346 C2344 1.363 . S
C2346 C2347 1.370 . S
C2346 C2350 1.524 . S
C2347 C2339 1.503 . S
C2347 C2346 1.370 . S
C2347 C2348 1.403 . S
C2348 C2347 1.403 . S
C2348 C2349 1.404 . S
C2348 C2351 1.539 . S
C2349 C2345 1.408 . S
C2349 C2348 1.404 . S
C2349 H2361 0.930 . S
C2350 C2346 1.524 . S
C2350 H2362 0.956 . S
C2350 H2363 0.961 . S
C2350 H2364 0.961 . S
C2351 C2348 1.539 . S
C2351 H2365 0.958 . S
C2351 H2366 0.961 . S
C2351 H2367 0.960 . S
H2352 C2336 0.931 . S
H2353 C2341 0.929 . S
H2354 C2342 0.960 . S
H2355 C2342 0.962 . S
H2356 C2342 0.960 . S
H2357 C2343 0.961 . S
H2358 C2343 0.961 . S
H2359 C2343 0.961 . S
H2360 C2344 0.931 . S
H2361 C2349 0.930 . S
H2362 C2350 0.956 . S
H2363 C2350 0.961 . S
H2364 C2350 0.961 . S
H2365 C2351 0.958 . S
H2366 C2351 0.961 . S
H2367 C2351 0.960 . S
C2368 C2369 1.391 1_455 S
C2368 C2370 1.394 . S
C2368 H2384 0.931 . S
C2369 C2368 1.391 1_655 S
C2369 C2373 1.376 . S
C2370 C2368 1.394 . S
C2370 C2371 1.369 . S
C2370 C2374 1.531 . S
C2371 C2370 1.369 . S
C2371 C2372 1.410 1_455 S
C2371 C2379 1.503 . S
C2372 C2371 1.410 1_655 S
C2372 C2373 1.392 . S
C2372 C2375 1.511 . S
C2373 C2369 1.376 . S
C2373 C2372 1.392 . S
C2373 H2385 0.929 . S
C2374 C2370 1.531 . S
C2374 H2386 0.960 . S
C2374 H2387 0.962 . S
C2374 H2388 0.960 . S
C2375 C2372 1.511 . S
C2375 H2389 0.961 . S
C2375 H2390 0.961 . S
C2375 H2391 0.961 . S
C2376 C2377 1.370 . S
C2376 C2378 1.363 . S
C2376 H2392 0.931 . S
C2377 C2376 1.370 . S
C2377 C2381 1.408 . S
C2378 C2376 1.363 . S
C2378 C2379 1.370 . S
C2378 C2382 1.524 . S
C2379 C2371 1.503 . S
C2379 C2378 1.370 . S
C2379 C2380 1.403 . S
C2380 C2379 1.403 . S
C2380 C2381 1.404 . S
C2380 C2383 1.539 . S
C2381 C2377 1.408 . S
C2381 C2380 1.404 . S
C2381 H2393 0.930 . S
C2382 C2378 1.524 . S
C2382 H2394 0.956 . S
C2382 H2395 0.961 . S
C2382 H2396 0.961 . S
C2383 C2380 1.539 . S
C2383 H2397 0.958 . S
C2383 H2398 0.961 1_455 S
C2383 H2399 0.960 1_455 S
H2384 C2368 0.931 . S
H2385 C2373 0.929 . S
H2386 C2374 0.960 . S
H2387 C2374 0.962 . S
H2388 C2374 0.960 . S
H2389 C2375 0.961 . S
H2390 C2375 0.961 . S
H2391 C2375 0.961 . S
H2392 C2376 0.931 . S
H2393 C2381 0.930 . S
H2394 C2382 0.956 . S
H2395 C2382 0.961 . S
H2396 C2382 0.961 . S
H2397 C2383 0.958 . S
H2398 C2383 0.961 1_655 S
H2399 C2383 0.960 1_655 S
C2400 C2401 1.391 . S
C2400 C2402 1.394 . S
C2400 H2416 0.931 . S
C2401 C2400 1.391 . S
C2401 C2405 1.376 . S
C2402 C2400 1.394 . S
C2402 C2403 1.369 . S
C2402 C2406 1.531 . S
C2403 C2402 1.369 . S
C2403 C2404 1.410 . S
C2403 C2411 1.503 . S
C2404 C2403 1.410 . S
C2404 C2405 1.392 . S
C2404 C2407 1.511 . S
C2405 C2401 1.376 . S
C2405 C2404 1.392 . S
C2405 H2417 0.929 . S
C2406 C2402 1.531 . S
C2406 H2418 0.960 . S
C2406 H2419 0.962 . S
C2406 H2420 0.960 . S
C2407 C2404 1.511 . S
C2407 H2421 0.961 . S
C2407 H2422 0.961 . S
C2407 H2423 0.961 . S
C2408 C2409 1.370 . S
C2408 C2410 1.363 . S
C2408 H2424 0.931 . S
C2409 C2408 1.370 . S
C2409 C2413 1.408 . S
C2410 C2408 1.363 . S
C2410 C2411 1.370 . S
C2410 C2414 1.524 . S
C2411 C2403 1.503 . S
C2411 C2410 1.370 . S
C2411 C2412 1.403 . S
C2412 C2411 1.403 . S
C2412 C2413 1.404 . S
C2412 C2415 1.539 . S
C2413 C2409 1.408 . S
C2413 C2412 1.404 . S
C2413 H2425 0.930 . S
C2414 C2410 1.524 . S
C2414 H2426 0.956 . S
C2414 H2427 0.961 . S
C2414 H2428 0.961 . S
C2415 C2412 1.539 . S
C2415 H2429 0.958 . S
C2415 H2430 0.961 . S
C2415 H2431 0.960 . S
H2416 C2400 0.931 . S
H2417 C2405 0.929 . S
H2418 C2406 0.960 . S
H2419 C2406 0.962 . S
H2420 C2406 0.960 . S
H2421 C2407 0.961 . S
H2422 C2407 0.961 . S
H2423 C2407 0.961 . S
H2424 C2408 0.931 . S
H2425 C2413 0.930 . S
H2426 C2414 0.956 . S
H2427 C2414 0.961 . S
H2428 C2414 0.961 . S
H2429 C2415 0.958 . S
H2430 C2415 0.961 . S
H2431 C2415 0.960 . S
C2432 C2433 1.391 . S
C2432 C2434 1.394 . S
C2432 H2448 0.931 . S
C2433 C2432 1.391 . S
C2433 C2437 1.376 . S
C2434 C2432 1.394 . S
C2434 C2435 1.369 . S
C2434 C2438 1.531 . S
C2435 C2434 1.369 . S
C2435 C2436 1.410 . S
C2435 C2443 1.503 . S
C2436 C2435 1.410 . S
C2436 C2437 1.392 . S
C2436 C2439 1.511 . S
C2437 C2433 1.376 . S
C2437 C2436 1.392 . S
C2437 H2449 0.929 . S
C2438 C2434 1.531 . S
C2438 H2450 0.960 . S
C2438 H2451 0.962 . S
C2438 H2452 0.960 . S
C2439 C2436 1.511 . S
C2439 H2453 0.961 . S
C2439 H2454 0.961 . S
C2439 H2455 0.961 . S
C2440 C2441 1.370 . S
C2440 C2442 1.363 . S
C2440 H2456 0.931 . S
C2441 C2440 1.370 . S
C2441 C2445 1.408 . S
C2442 C2440 1.363 . S
C2442 C2443 1.370 . S
C2442 C2446 1.524 . S
C2443 C2435 1.503 . S
C2443 C2442 1.370 . S
C2443 C2444 1.403 . S
C2444 C2443 1.403 . S
C2444 C2445 1.404 . S
C2444 C2447 1.539 . S
C2445 C2441 1.408 . S
C2445 C2444 1.404 . S
C2445 H2457 0.930 . S
C2446 C2442 1.524 . S
C2446 H2458 0.956 . S
C2446 H2459 0.961 . S
C2446 H2460 0.961 . S
C2447 C2444 1.539 . S
C2447 H2461 0.958 . S
C2447 H2462 0.961 . S
C2447 H2463 0.960 . S
H2448 C2432 0.931 . S
H2449 C2437 0.929 . S
H2450 C2438 0.960 . S
H2451 C2438 0.962 . S
H2452 C2438 0.960 . S
H2453 C2439 0.961 . S
H2454 C2439 0.961 . S
H2455 C2439 0.961 . S
H2456 C2440 0.931 . S
H2457 C2445 0.930 . S
H2458 C2446 0.956 . S
H2459 C2446 0.961 . S
H2460 C2446 0.961 . S
H2461 C2447 0.958 . S
H2462 C2447 0.961 . S
H2463 C2447 0.960 . S
C2464 C2465 1.391 . S
C2464 C2466 1.394 . S
C2464 H2480 0.931 . S
C2465 C2464 1.391 . S
C2465 C2469 1.376 . S
C2466 C2464 1.394 . S
C2466 C2467 1.369 . S
C2466 C2470 1.531 . S
C2467 C2466 1.369 . S
C2467 C2468 1.410 . S
C2467 C2475 1.503 . S
C2468 C2467 1.410 . S
C2468 C2469 1.392 . S
C2468 C2471 1.511 . S
C2469 C2465 1.376 . S
C2469 C2468 1.392 . S
C2469 H2481 0.929 . S
C2470 C2466 1.531 . S
C2470 H2482 0.960 . S
C2470 H2483 0.962 . S
C2470 H2484 0.960 . S
C2471 C2468 1.511 . S
C2471 H2485 0.961 . S
C2471 H2486 0.961 . S
C2471 H2487 0.961 . S
C2472 C2473 1.370 . S
C2472 C2474 1.363 . S
C2472 H2488 0.931 . S
C2473 C2472 1.370 . S
C2473 C2477 1.408 . S
C2474 C2472 1.363 . S
C2474 C2475 1.370 . S
C2474 C2478 1.524 . S
C2475 C2467 1.503 . S
C2475 C2474 1.370 . S
C2475 C2476 1.403 . S
C2476 C2475 1.403 . S
C2476 C2477 1.404 . S
C2476 C2479 1.539 . S
C2477 C2473 1.408 . S
C2477 C2476 1.404 . S
C2477 H2489 0.930 . S
C2478 C2474 1.524 . S
C2478 H2490 0.956 . S
C2478 H2491 0.961 . S
C2478 H2492 0.961 . S
C2479 C2476 1.539 . S
C2479 H2493 0.958 . S
C2479 H2494 0.961 . S
C2479 H2495 0.960 . S
H2480 C2464 0.931 . S
H2481 C2469 0.929 . S
H2482 C2470 0.960 . S
H2483 C2470 0.962 . S
H2484 C2470 0.960 . S
H2485 C2471 0.961 . S
H2486 C2471 0.961 . S
H2487 C2471 0.961 . S
H2488 C2472 0.931 . S
H2489 C2477 0.930 . S
H2490 C2478 0.956 . S
H2491 C2478 0.961 . S
H2492 C2478 0.961 . S
H2493 C2479 0.958 . S
H2494 C2479 0.961 . S
H2495 C2479 0.960 . S
C2496 C2497 1.391 . S
C2496 C2498 1.394 . S
C2496 H2512 0.931 . S
C2497 C2496 1.391 . S
C2497 C2501 1.376 1_455 S
C2498 C2496 1.394 . S
C2498 C2499 1.369 1_455 S
C2498 C2502 1.531 . S
C2499 C2498 1.369 1_655 S
C2499 C2500 1.410 . S
C2499 C2507 1.503 . S
C2500 C2499 1.410 . S
C2500 C2501 1.392 . S
C2500 C2503 1.511 . S
C2501 C2497 1.376 1_655 S
C2501 C2500 1.392 . S
C2501 H2513 0.929 . S
C2502 C2498 1.531 . S
C2502 H2514 0.960 . S
C2502 H2515 0.962 . S
C2502 H2516 0.960 . S
C2503 C2500 1.511 . S
C2503 H2517 0.961 . S
C2503 H2518 0.961 . S
C2503 H2519 0.961 . S
C2504 C2505 1.370 . S
C2504 C2506 1.363 . S
C2504 H2520 0.931 . S
C2505 C2504 1.370 . S
C2505 C2509 1.408 . S
C2506 C2504 1.363 . S
C2506 C2507 1.370 . S
C2506 C2510 1.524 1_655 S
C2507 C2499 1.503 . S
C2507 C2506 1.370 . S
C2507 C2508 1.403 . S
C2508 C2507 1.403 . S
C2508 C2509 1.404 . S
C2508 C2511 1.539 . S
C2509 C2505 1.408 . S
C2509 C2508 1.404 . S
C2509 H2521 0.930 . S
C2510 C2506 1.524 1_455 S
C2510 H2522 0.956 . S
C2510 H2523 0.961 1_455 S
C2510 H2524 0.961 . S
C2511 C2508 1.539 . S
C2511 H2525 0.958 . S
C2511 H2526 0.961 . S
C2511 H2527 0.960 . S
H2512 C2496 0.931 . S
H2513 C2501 0.929 . S
H2514 C2502 0.960 . S
H2515 C2502 0.962 . S
H2516 C2502 0.960 . S
H2517 C2503 0.961 . S
H2518 C2503 0.961 . S
H2519 C2503 0.961 . S
H2520 C2504 0.931 . S
H2521 C2509 0.930 . S
H2522 C2510 0.956 . S
H2523 C2510 0.961 1_655 S
H2524 C2510 0.961 . S
H2525 C2511 0.958 . S
H2526 C2511 0.961 . S
H2527 C2511 0.960 . S
C2528 C2529 1.391 . S
C2528 C2530 1.394 . S
C2528 H2544 0.931 . S
C2529 C2528 1.391 . S
C2529 C2533 1.376 . S
C2530 C2528 1.394 . S
C2530 C2531 1.369 . S
C2530 C2534 1.531 . S
C2531 C2530 1.369 . S
C2531 C2532 1.410 . S
C2531 C2539 1.503 . S
C2532 C2531 1.410 . S
C2532 C2533 1.392 . S
C2532 C2535 1.511 . S
C2533 C2529 1.376 . S
C2533 C2532 1.392 . S
C2533 H2545 0.929 . S
C2534 C2530 1.531 . S
C2534 H2546 0.960 . S
C2534 H2547 0.962 . S
C2534 H2548 0.960 . S
C2535 C2532 1.511 . S
C2535 H2549 0.961 . S
C2535 H2550 0.961 . S
C2535 H2551 0.961 . S
C2536 C2537 1.370 . S
C2536 C2538 1.363 . S
C2536 H2552 0.931 . S
C2537 C2536 1.370 . S
C2537 C2541 1.408 . S
C2538 C2536 1.363 . S
C2538 C2539 1.370 . S
C2538 C2542 1.524 . S
C2539 C2531 1.503 . S
C2539 C2538 1.370 . S
C2539 C2540 1.403 . S
C2540 C2539 1.403 . S
C2540 C2541 1.404 . S
C2540 C2543 1.539 . S
C2541 C2537 1.408 . S
C2541 C2540 1.404 . S
C2541 H2553 0.930 . S
C2542 C2538 1.524 . S
C2542 H2554 0.956 . S
C2542 H2555 0.961 . S
C2542 H2556 0.961 . S
C2543 C2540 1.539 . S
C2543 H2557 0.958 . S
C2543 H2558 0.961 . S
C2543 H2559 0.960 . S
H2544 C2528 0.931 . S
H2545 C2533 0.929 . S
H2546 C2534 0.960 . S
H2547 C2534 0.962 . S
H2548 C2534 0.960 . S
H2549 C2535 0.961 . S
H2550 C2535 0.961 . S
H2551 C2535 0.961 . S
H2552 C2536 0.931 . S
H2553 C2541 0.930 . S
H2554 C2542 0.956 . S
H2555 C2542 0.961 . S
H2556 C2542 0.961 . S
H2557 C2543 0.958 . S
H2558 C2543 0.961 . S
H2559 C2543 0.960 . S
C2560 C2561 1.391 . S
C2560 C2562 1.394 . S
C2560 H2576 0.931 . S
C2561 C2560 1.391 . S
C2561 C2565 1.376 . S
C2562 C2560 1.394 . S
C2562 C2563 1.369 . S
C2562 C2566 1.531 . S
C2563 C2562 1.369 . S
C2563 C2564 1.410 . S
C2563 C2571 1.503 . S
C2564 C2563 1.410 . S
C2564 C2565 1.392 . S
C2564 C2567 1.511 . S
C2565 C2561 1.376 . S
C2565 C2564 1.392 . S
C2565 H2577 0.929 . S
C2566 C2562 1.531 . S
C2566 H2578 0.960 . S
C2566 H2579 0.962 . S
C2566 H2580 0.960 . S
C2567 C2564 1.511 . S
C2567 H2581 0.961 . S
C2567 H2582 0.961 . S
C2567 H2583 0.961 . S
C2568 C2569 1.370 . S
C2568 C2570 1.363 . S
C2568 H2584 0.931 . S
C2569 C2568 1.370 . S
C2569 C2573 1.408 . S
C2570 C2568 1.363 . S
C2570 C2571 1.370 . S
C2570 C2574 1.524 . S
C2571 C2563 1.503 . S
C2571 C2570 1.370 . S
C2571 C2572 1.403 . S
C2572 C2571 1.403 . S
C2572 C2573 1.404 . S
C2572 C2575 1.539 . S
C2573 C2569 1.408 . S
C2573 C2572 1.404 . S
C2573 H2585 0.930 . S
C2574 C2570 1.524 . S
C2574 H2586 0.956 . S
C2574 H2587 0.961 . S
C2574 H2588 0.961 . S
C2575 C2572 1.539 . S
C2575 H2589 0.958 . S
C2575 H2590 0.961 . S
C2575 H2591 0.960 . S
H2576 C2560 0.931 . S
H2577 C2565 0.929 . S
H2578 C2566 0.960 . S
H2579 C2566 0.962 . S
H2580 C2566 0.960 . S
H2581 C2567 0.961 . S
H2582 C2567 0.961 . S
H2583 C2567 0.961 . S
H2584 C2568 0.931 . S
H2585 C2573 0.930 . S
H2586 C2574 0.956 . S
H2587 C2574 0.961 . S
H2588 C2574 0.961 . S
H2589 C2575 0.958 . S
H2590 C2575 0.961 . S
H2591 C2575 0.960 . S
C2592 C2593 1.391 . S
C2592 C2594 1.394 . S
C2592 H2608 0.931 . S
C2593 C2592 1.391 . S
C2593 C2597 1.376 . S
C2594 C2592 1.394 . S
C2594 C2595 1.369 . S
C2594 C2598 1.531 . S
C2595 C2594 1.369 . S
C2595 C2596 1.410 . S
C2595 C2603 1.503 . S
C2596 C2595 1.410 . S
C2596 C2597 1.392 . S
C2596 C2599 1.511 . S
C2597 C2593 1.376 . S
C2597 C2596 1.392 . S
C2597 H2609 0.929 1_556 S
C2598 C2594 1.531 . S
C2598 H2610 0.960 . S
C2598 H2611 0.962 . S
C2598 H2612 0.960 . S
C2599 C2596 1.511 . S
C2599 H2613 0.961 . S
C2599 H2614 0.961 . S
C2599 H2615 0.961 . S
C2600 C2601 1.370 . S
C2600 C2602 1.363 . S
C2600 H2616 0.931 . S
C2601 C2600 1.370 . S
C2601 C2605 1.408 . S
C2602 C2600 1.363 . S
C2602 C2603 1.370 . S
C2602 C2606 1.524 . S
C2603 C2595 1.503 . S
C2603 C2602 1.370 . S
C2603 C2604 1.403 . S
C2604 C2603 1.403 . S
C2604 C2605 1.404 . S
C2604 C2607 1.539 . S
C2605 C2601 1.408 . S
C2605 C2604 1.404 . S
C2605 H2617 0.930 . S
C2606 C2602 1.524 . S
C2606 H2618 0.956 . S
C2606 H2619 0.961 . S
C2606 H2620 0.961 . S
C2607 C2604 1.539 . S
C2607 H2621 0.958 . S
C2607 H2622 0.961 . S
C2607 H2623 0.960 . S
H2608 C2592 0.931 . S
H2609 C2597 0.929 1_554 S
H2610 C2598 0.960 . S
H2611 C2598 0.962 . S
H2612 C2598 0.960 . S
H2613 C2599 0.961 . S
H2614 C2599 0.961 . S
H2615 C2599 0.961 . S
H2616 C2600 0.931 . S
H2617 C2605 0.930 . S
H2618 C2606 0.956 . S
H2619 C2606 0.961 . S
H2620 C2606 0.961 . S
H2621 C2607 0.958 . S
H2622 C2607 0.961 . S
H2623 C2607 0.960 . S
C2624 C2625 1.391 . S
C2624 C2626 1.394 . S
C2624 H2640 0.931 . S
C2625 C2624 1.391 . S
C2625 C2629 1.376 . S
C2626 C2624 1.394 . S
C2626 C2627 1.369 . S
C2626 C2630 1.531 . S
C2627 C2626 1.369 . S
C2627 C2628 1.410 . S
C2627 C2635 1.503 . S
C2628 C2627 1.410 . S
C2628 C2629 1.392 . S
C2628 C2631 1.511 . S
C2629 C2625 1.376 . S
C2629 C2628 1.392 . S
C2629 H2641 0.929 . S
C2630 C2626 1.531 . S
C2630 H2642 0.960 . S
C2630 H2643 0.962 . S
C2630 H2644 0.960 . S
C2631 C2628 1.511 . S
C2631 H2645 0.961 . S
C2631 H2646 0.961 . S
C2631 H2647 0.961 . S
C2632 C2633 1.370 . S
C2632 C2634 1.363 . S
C2632 H2648 0.931 . S
C2633 C2632 1.370 . S
C2633 C2637 1.408 . S
C2634 C2632 1.363 . S
C2634 C2635 1.370 . S
C2634 C2638 1.524 . S
C2635 C2627 1.503 . S
C2635 C2634 1.370 . S
C2635 C2636 1.403 . S
C2636 C2635 1.403 . S
C2636 C2637 1.404 . S
C2636 C2639 1.539 . S
C2637 C2633 1.408 . S
C2637 C2636 1.404 . S
C2637 H2649 0.930 . S
C2638 C2634 1.524 . S
C2638 H2650 0.956 . S
C2638 H2651 0.961 . S
C2638 H2652 0.961 . S
C2639 C2636 1.539 . S
C2639 H2653 0.958 . S
C2639 H2654 0.961 . S
C2639 H2655 0.960 . S
H2640 C2624 0.931 . S
H2641 C2629 0.929 . S
H2642 C2630 0.960 . S
H2643 C2630 0.962 . S
H2644 C2630 0.960 . S
H2645 C2631 0.961 . S
H2646 C2631 0.961 . S
H2647 C2631 0.961 . S
H2648 C2632 0.931 . S
H2649 C2637 0.930 . S
H2650 C2638 0.956 . S
H2651 C2638 0.961 . S
H2652 C2638 0.961 . S
H2653 C2639 0.958 . S
H2654 C2639 0.961 . S
H2655 C2639 0.960 . S
C2656 C2657 1.391 . S
C2656 C2658 1.394 . S
C2656 H2672 0.931 . S
C2657 C2656 1.391 . S
C2657 C2661 1.376 . S
C2658 C2656 1.394 . S
C2658 C2659 1.369 . S
C2658 C2662 1.531 . S
C2659 C2658 1.369 . S
C2659 C2660 1.410 . S
C2659 C2667 1.503 . S
C2660 C2659 1.410 . S
C2660 C2661 1.392 . S
C2660 C2663 1.511 . S
C2661 C2657 1.376 . S
C2661 C2660 1.392 . S
C2661 H2673 0.929 . S
C2662 C2658 1.531 . S
C2662 H2674 0.960 . S
C2662 H2675 0.962 . S
C2662 H2676 0.960 . S
C2663 C2660 1.511 . S
C2663 H2677 0.961 . S
C2663 H2678 0.961 . S
C2663 H2679 0.961 . S
C2664 C2665 1.370 . S
C2664 C2666 1.363 . S
C2664 H2680 0.931 . S
C2665 C2664 1.370 . S
C2665 C2669 1.408 . S
C2666 C2664 1.363 . S
C2666 C2667 1.370 . S
C2666 C2670 1.524 . S
C2667 C2659 1.503 . S
C2667 C2666 1.370 . S
C2667 C2668 1.403 . S
C2668 C2667 1.403 . S
C2668 C2669 1.404 . S
C2668 C2671 1.539 . S
C2669 C2665 1.408 . S
C2669 C2668 1.404 . S
C2669 H2681 0.930 . S
C2670 C2666 1.524 . S
C2670 H2682 0.956 . S
C2670 H2683 0.961 . S
C2670 H2684 0.961 . S
C2671 C2668 1.539 . S
C2671 H2685 0.958 . S
C2671 H2686 0.961 . S
C2671 H2687 0.960 . S
H2672 C2656 0.931 . S
H2673 C2661 0.929 . S
H2674 C2662 0.960 . S
H2675 C2662 0.962 . S
H2676 C2662 0.960 . S
H2677 C2663 0.961 . S
H2678 C2663 0.961 . S
H2679 C2663 0.961 . S
H2680 C2664 0.931 . S
H2681 C2669 0.930 . S
H2682 C2670 0.956 . S
H2683 C2670 0.961 . S
H2684 C2670 0.961 . S
H2685 C2671 0.958 . S
H2686 C2671 0.961 . S
H2687 C2671 0.960 . S
C2688 C2689 1.391 . S
C2688 C2690 1.394 . S
C2688 H2704 0.931 . S
C2689 C2688 1.391 . S
C2689 C2693 1.376 . S
C2690 C2688 1.394 . S
C2690 C2691 1.369 . S
C2690 C2694 1.531 . S
C2691 C2690 1.369 . S
C2691 C2692 1.410 . S
C2691 C2699 1.503 . S
C2692 C2691 1.410 . S
C2692 C2693 1.392 . S
C2692 C2695 1.511 . S
C2693 C2689 1.376 . S
C2693 C2692 1.392 . S
C2693 H2705 0.929 . S
C2694 C2690 1.531 . S
C2694 H2706 0.960 . S
C2694 H2707 0.962 . S
C2694 H2708 0.960 . S
C2695 C2692 1.511 . S
C2695 H2709 0.961 . S
C2695 H2710 0.961 . S
C2695 H2711 0.961 . S
C2696 C2697 1.370 . S
C2696 C2698 1.363 . S
C2696 H2712 0.931 . S
C2697 C2696 1.370 . S
C2697 C2701 1.408 . S
C2698 C2696 1.363 . S
C2698 C2699 1.370 . S
C2698 C2702 1.524 . S
C2699 C2691 1.503 . S
C2699 C2698 1.370 . S
C2699 C2700 1.403 . S
C2700 C2699 1.403 . S
C2700 C2701 1.404 . S
C2700 C2703 1.539 . S
C2701 C2697 1.408 . S
C2701 C2700 1.404 . S
C2701 H2713 0.930 . S
C2702 C2698 1.524 . S
C2702 H2714 0.956 . S
C2702 H2715 0.961 . S
C2702 H2716 0.961 . S
C2703 C2700 1.539 . S
C2703 H2717 0.958 . S
C2703 H2718 0.961 . S
C2703 H2719 0.960 . S
H2704 C2688 0.931 . S
H2705 C2693 0.929 . S
H2706 C2694 0.960 . S
H2707 C2694 0.962 . S
H2708 C2694 0.960 . S
H2709 C2695 0.961 . S
H2710 C2695 0.961 . S
H2711 C2695 0.961 . S
H2712 C2696 0.931 . S
H2713 C2701 0.930 . S
H2714 C2702 0.956 . S
H2715 C2702 0.961 . S
H2716 C2702 0.961 . S
H2717 C2703 0.958 . S
H2718 C2703 0.961 . S
H2719 C2703 0.960 . S
C2720 C2721 1.391 . S
C2720 C2722 1.394 . S
C2720 H2736 0.931 . S
C2721 C2720 1.391 . S
C2721 C2725 1.376 . S
C2722 C2720 1.394 . S
C2722 C2723 1.369 . S
C2722 C2726 1.531 1_554 S
C2723 C2722 1.369 . S
C2723 C2724 1.410 . S
C2723 C2731 1.503 1_454 S
C2724 C2723 1.410 . S
C2724 C2725 1.392 . S
C2724 C2727 1.511 1_455 S
C2725 C2721 1.376 . S
C2725 C2724 1.392 . S
C2725 H2737 0.929 . S
C2726 C2722 1.531 1_556 S
C2726 H2738 0.960 . S
C2726 H2739 0.962 . S
C2726 H2740 0.960 . S
C2727 C2724 1.511 1_655 S
C2727 H2741 0.961 . S
C2727 H2742 0.961 . S
C2727 H2743 0.961 . S
C2728 C2729 1.370 . S
C2728 C2730 1.363 . S
C2728 H2744 0.931 . S
C2729 C2728 1.370 . S
C2729 C2733 1.408 . S
C2730 C2728 1.363 . S
C2730 C2731 1.370 . S
C2730 C2734 1.521 . S
C2731 C2723 1.503 1_656 S
C2731 C2730 1.370 . S
C2731 C2732 1.403 . S
C2732 C2731 1.403 . S
C2732 C2733 1.404 . S
C2732 C2735 1.539 1_556 S
C2733 C2729 1.408 . S
C2733 C2732 1.404 . S
C2733 H2745 0.930 . S
C2734 C2730 1.521 . S
C2734 H2746 0.961 1_655 S
C2734 H2747 0.960 . S
C2734 H2748 0.959 . S
C2735 C2732 1.539 1_554 S
C2735 H2749 0.958 . S
C2735 H2750 0.961 . S
C2735 H2751 0.960 . S
H2736 C2720 0.931 . S
H2737 C2725 0.929 . S
H2738 C2726 0.960 . S
H2739 C2726 0.962 . S
H2740 C2726 0.960 . S
H2741 C2727 0.961 . S
H2742 C2727 0.961 . S
H2743 C2727 0.961 . S
H2744 C2728 0.931 . S
H2745 C2733 0.930 . S
H2746 C2734 0.961 1_455 S
H2747 C2734 0.960 . S
H2748 C2734 0.959 . S
H2749 C2735 0.958 . S
H2750 C2735 0.961 . S
H2751 C2735 0.960 . S
C2752 C2753 1.391 . S
C2752 C2754 1.394 . S
C2752 H2768 0.931 . S
C2753 C2752 1.391 . S
C2753 C2757 1.376 . S
C2754 C2752 1.394 . S
C2754 C2755 1.369 . S
C2754 C2758 1.531 . S
C2755 C2754 1.369 . S
C2755 C2756 1.410 . S
C2755 C2763 1.503 . S
C2756 C2755 1.410 . S
C2756 C2757 1.392 . S
C2756 C2759 1.511 . S
C2757 C2753 1.376 . S
C2757 C2756 1.392 . S
C2757 H2769 0.929 . S
C2758 C2754 1.531 . S
C2758 H2770 0.960 . S
C2758 H2771 0.962 . S
C2758 H2772 0.960 . S
C2759 C2756 1.511 . S
C2759 H2773 0.961 . S
C2759 H2774 0.961 . S
C2759 H2775 0.961 . S
C2760 C2761 1.370 . S
C2760 C2762 1.363 . S
C2760 H2776 0.931 . S
C2761 C2760 1.370 . S
C2761 C2765 1.408 . S
C2762 C2760 1.363 . S
C2762 C2763 1.370 . S
C2762 C2766 1.524 . S
C2763 C2755 1.503 . S
C2763 C2762 1.370 . S
C2763 C2764 1.403 . S
C2764 C2763 1.403 . S
C2764 C2765 1.404 . S
C2764 C2767 1.539 . S
C2765 C2761 1.408 . S
C2765 C2764 1.404 . S
C2765 H2777 0.930 . S
C2766 C2762 1.524 . S
C2766 H2778 0.956 . S
C2766 H2779 0.961 . S
C2766 H2780 0.961 . S
C2767 C2764 1.539 . S
C2767 H2781 0.958 . S
C2767 H2782 0.961 . S
C2767 H2783 0.960 . S
H2768 C2752 0.931 . S
H2769 C2757 0.929 . S
H2770 C2758 0.960 . S
H2771 C2758 0.962 . S
H2772 C2758 0.960 . S
H2773 C2759 0.961 . S
H2774 C2759 0.961 . S
H2775 C2759 0.961 . S
H2776 C2760 0.931 . S
H2777 C2765 0.930 . S
H2778 C2766 0.956 . S
H2779 C2766 0.961 . S
H2780 C2766 0.961 . S
H2781 C2767 0.958 . S
H2782 C2767 0.961 . S
H2783 C2767 0.960 . S
C2784 C2785 1.391 . S
C2784 C2786 1.394 . S
C2784 H2800 0.931 . S
C2785 C2784 1.391 . S
C2785 C2789 1.376 . S
C2786 C2784 1.394 . S
C2786 C2787 1.369 . S
C2786 C2790 1.531 . S
C2787 C2786 1.369 . S
C2787 C2788 1.410 . S
C2787 C2795 1.503 . S
C2788 C2787 1.410 . S
C2788 C2789 1.392 . S
C2788 C2791 1.511 . S
C2789 C2785 1.376 . S
C2789 C2788 1.392 . S
C2789 H2801 0.929 . S
C2790 C2786 1.531 . S
C2790 H2802 0.960 . S
C2790 H2803 0.962 . S
C2790 H2804 0.960 . S
C2791 C2788 1.511 . S
C2791 H2805 0.961 . S
C2791 H2806 0.961 . S
C2791 H2807 0.961 . S
C2792 C2793 1.370 . S
C2792 C2794 1.363 . S
C2792 H2808 0.931 . S
C2793 C2792 1.370 . S
C2793 C2797 1.408 . S
C2794 C2792 1.363 . S
C2794 C2795 1.370 . S
C2794 C2798 1.524 . S
C2795 C2787 1.503 . S
C2795 C2794 1.370 . S
C2795 C2796 1.403 . S
C2796 C2795 1.403 . S
C2796 C2797 1.404 . S
C2796 C2799 1.539 . S
C2797 C2793 1.408 . S
C2797 C2796 1.404 . S
C2797 H2809 0.930 . S
C2798 C2794 1.524 . S
C2798 H2810 0.956 . S
C2798 H2811 0.961 . S
C2798 H2812 0.961 . S
C2799 C2796 1.539 . S
C2799 H2813 0.958 . S
C2799 H2814 0.961 . S
C2799 H2815 0.960 . S
H2800 C2784 0.931 . S
H2801 C2789 0.929 . S
H2802 C2790 0.960 . S
H2803 C2790 0.962 . S
H2804 C2790 0.960 . S
H2805 C2791 0.961 . S
H2806 C2791 0.961 . S
H2807 C2791 0.961 . S
H2808 C2792 0.931 . S
H2809 C2797 0.930 . S
H2810 C2798 0.956 . S
H2811 C2798 0.961 . S
H2812 C2798 0.961 . S
H2813 C2799 0.958 . S
H2814 C2799 0.961 . S
H2815 C2799 0.960 . S
C2816 C2817 1.391 . S
C2816 C2818 1.394 . S
C2816 H2832 0.931 . S
C2817 C2816 1.391 . S
C2817 C2821 1.376 1_545 S
C2818 C2816 1.394 . S
C2818 C2819 1.369 . S
C2818 C2822 1.531 1_455 S
C2819 C2818 1.369 . S
C2819 C2820 1.410 1_545 S
C2819 C2827 1.503 1_446 S
C2820 C2819 1.410 1_565 S
C2820 C2821 1.392 . S
C2820 C2823 1.511 . S
C2821 C2817 1.376 1_565 S
C2821 C2820 1.392 . S
C2821 H2833 0.929 . S
C2822 C2818 1.531 1_655 S
C2822 H2834 0.960 . S
C2822 H2835 0.962 1_656 S
C2822 H2836 0.960 . S
C2823 C2820 1.511 . S
C2823 H2837 0.961 . S
C2823 H2838 0.961 . S
C2823 H2839 0.936 1_455 S
C2824 C2825 1.370 . S
C2824 C2826 1.363 . S
C2824 H2840 0.931 . S
C2825 C2824 1.370 . S
C2825 C2829 1.408 . S
C2826 C2824 1.363 . S
C2826 C2827 1.370 . S
C2826 C2830 1.524 1_655 S
C2827 C2819 1.503 1_664 S
C2827 C2826 1.370 . S
C2827 C2828 1.394 1_554 S
C2828 C2827 1.394 1_556 S
C2828 C2829 1.379 1_556 S
C2828 C2831 1.573 . S
C2829 C2825 1.408 . S
C2829 C2828 1.379 1_554 S
C2829 H2841 0.930 . S
C2830 C2826 1.524 1_455 S
C2830 H2842 0.956 1_565 S
C2830 H2843 0.961 . S
C2830 H2844 0.961 . S
C2831 C2828 1.573 . S
C2831 H2845 0.958 1_565 S
C2831 H2846 0.961 . S
C2831 H2847 0.960 . S
H2832 C2816 0.931 . S
H2833 C2821 0.929 . S
H2834 C2822 0.960 . S
H2835 C2822 0.962 1_454 S
H2836 C2822 0.960 . S
H2837 C2823 0.961 . S
H2838 C2823 0.961 . S
H2839 C2823 0.936 1_655 S
H2840 C2824 0.931 . S
H2841 C2829 0.930 . S
H2842 C2830 0.956 1_545 S
H2843 C2830 0.961 . S
H2844 C2830 0.961 . S
H2845 C2831 0.958 1_545 S
H2846 C2831 0.961 . S
H2847 C2831 0.960 . S
C2848 C2849 1.391 1_565 S
C2848 C2850 1.394 . S
C2848 H2864 0.931 . S
C2849 C2848 1.391 1_545 S
C2849 C2853 1.376 . S
C2850 C2848 1.394 . S
C2850 C2851 1.369 . S
C2850 C2854 1.531 . S
C2851 C2850 1.369 . S
C2851 C2852 1.410 1_565 S
C2851 C2859 1.503 . S
C2852 C2851 1.410 1_545 S
C2852 C2853 1.392 . S
C2852 C2855 1.511 . S
C2853 C2849 1.376 . S
C2853 C2852 1.392 . S
C2853 H2865 0.929 . S
C2854 C2850 1.531 . S
C2854 H2866 0.960 . S
C2854 H2867 0.962 . S
C2854 H2868 0.960 . S
C2855 C2852 1.511 . S
C2855 H2869 0.961 . S
C2855 H2870 0.961 . S
C2855 H2871 0.961 . S
C2856 C2857 1.370 1_545 S
C2856 C2858 1.363 . S
C2856 H2872 0.931 . S
C2857 C2856 1.370 1_565 S
C2857 C2861 1.408 . S
C2858 C2856 1.363 . S
C2858 C2859 1.370 1_545 S
C2858 C2862 1.524 . S
C2859 C2851 1.503 . S
C2859 C2858 1.370 1_565 S
C2859 C2860 1.403 . S
C2860 C2859 1.403 . S
C2860 C2861 1.404 . S
C2860 C2863 1.539 . S
C2861 C2857 1.408 . S
C2861 C2860 1.404 . S
C2861 H2873 0.930 . S
C2862 C2858 1.524 . S
C2862 H2874 0.956 . S
C2862 H2875 0.961 . S
C2862 H2876 0.961 . S
C2863 C2860 1.539 . S
C2863 H2877 0.958 . S
C2863 H2878 0.961 . S
C2863 H2879 0.960 . S
H2864 C2848 0.931 . S
H2865 C2853 0.929 . S
H2866 C2854 0.960 . S
H2867 C2854 0.962 . S
H2868 C2854 0.960 . S
H2869 C2855 0.961 . S
H2870 C2855 0.961 . S
H2871 C2855 0.961 . S
H2872 C2856 0.931 . S
H2873 C2861 0.930 . S
H2874 C2862 0.956 . S
H2875 C2862 0.961 . S
H2876 C2862 0.961 . S
H2877 C2863 0.958 . S
H2878 C2863 0.961 . S
H2879 C2863 0.960 . S
C1345 C56 2.078 . S
C1353 C896 2.075 . S
C1377 C140 2.098 . S
C1385 C980 2.086 . S
C1409 C224 2.087 . S
C1417 C728 2.091 . S
C1441 C308 2.060 . S
C1449 C812 2.096 . S
C1473 C403 2.088 . S
C1481 C1243 2.094 . S
C1505 C487 2.055 . S
C1513 C1327 2.093 . S
C1537 C571 2.088 . S
C1545 C1075 2.094 . S
C1569 C655 2.105 . S
C1577 C1159 2.085 . S
C1601 C819 3.513 . S
C1609 C67 3.563 1_556 S
C1633 C903 3.518 . S
C1641 C151 3.564 . S
C1665 C987 3.509 . S
C1673 C235 3.566 . S
C1697 C735 3.497 . S
C1705 C319 3.561 . S
C1729 C392 3.554 1_554 S
C1737 C1166 3.513 . S
C1761 C1250 3.510 . S
C1769 C476 3.565 . S
C1793 C1334 3.502 . S
C1801 C560 3.564 . S
C1825 C1082 3.514 . S
C1833 C644 3.564 . S
C1857 C147 3.521 . S
C1865 C739 3.566 . S
C1889 C823 3.561 . S
C1897 C231 3.519 . S
C1921 C907 3.551 1_556 S
C1929 C315 3.511 . S
C1953 C991 3.561 . S
C1961 C63 3.513 . S
C1985 C1064 3.555 . S
C1993 C494 3.514 . S
C2017 C578 3.500 . S
C2025 C1148 3.561 . S
C2049 C662 3.496 . S
C2057 C1232 3.561 1_554 S
C2081 C1316 3.550 . S
C2089 C410 3.509 . S
C2113 C69 0.565 . S
C2121 C1323 0.538 . S
C2145 C153 0.578 . S
C2153 C399 0.524 . S
C2177 C1155 0.566 . S
C2185 C237 0.610 . S
C2209 C567 0.542 . S
C2217 C321 0.582 . S
C2241 C394 0.687 . S
C2249 C998 0.552 . S
C2273 C478 0.591 . S
C2281 C74 0.530 . S
C2305 C830 0.516 . S
C2313 C562 0.571 . S
C2337 C242 0.571 . S
C2345 C646 0.628 . S
C2369 C741 0.519 . S
C2377 C651 0.529 . S
C2401 C825 0.686 . S
C2409 C1071 0.553 . S
C2433 C483 0.534 . S
C2441 C909 0.617 . S
C2465 C1239 0.523 . S
C2473 C993 0.607 . S
C2497 C1066 0.521 . S
C2505 C326 0.521 . S
C2529 C1150 0.655 . S
C2537 C746 0.542 . S
C2561 C1234 0.669 . S
C2569 C158 0.545 . S
C2593 C914 0.503 . S
C2601 C1318 0.561 . S
C2625 C58 1.334 . S
C2633 C1077 1.257 . S
C2657 C142 1.335 . S
C2665 C489 1.251 . S
C2689 C226 1.224 . S
C2697 C1245 1.296 . S
C2721 C657 1.263 . S
C2729 C310 1.289 . S
C2753 C405 1.212 . S
C2761 C730 1.302 . S
C2785 C898 1.229 . S
C2793 C573 1.294 . S
C2817 C814 1.209 . S
C2825 C1161 1.304 . S
C2849 C1329 1.264 . S
C2857 C982 1.289 . S
