# Generated by pormake.
# Topology unf, (4)-cn, num edge types: 1
# Building blocks:
#     Node 0, Type 0, BuildingBlock: UXUYUI_clean_sbu_0, # of connection points: 4
#     Node 1, Type 0, BuildingBlock: UXUYUI_clean_sbu_0, # of connection points: 4
#     Node 2, Type 0, BuildingBlock: UXUYUI_clean_sbu_0, # of connection points: 4
#     Node 3, Type 0, BuildingBlock: UXUYUI_clean_sbu_0, # of connection points: 4
#     Node 4, Type 0, BuildingBlock: UXUYUI_clean_sbu_0, # of connection points: 4
#     Node 5, Type 0, BuildingBlock: UXUYUI_clean_sbu_0, # of connection points: 4
#     Node 6, Type 0, BuildingBlock: UXUYUI_clean_sbu_0, # of connection points: 4
#     Node 7, Type 0, BuildingBlock: UXUYUI_clean_sbu_0, # of connection points: 4
#     Node 8, Type 0, BuildingBlock: UXUYUI_clean_sbu_0, # of connection points: 4
#     Node 9, Type 0, BuildingBlock: UXUYUI_clean_sbu_0, # of connection points: 4
#     Node 10, Type 0, BuildingBlock: UXUYUI_clean_sbu_0, # of connection points: 4
#     Node 11, Type 0, BuildingBlock: UXUYUI_clean_sbu_0, # of connection points: 4
#     Edge 12, Type (0, 0), BuildingBlock: ZUJKAS_clean_linker_0, # of connection points: 2
#     Edge 13, Type (0, 0), BuildingBlock: ZUJKAS_clean_linker_0, # of connection points: 2
#     Edge 14, Type (0, 0), BuildingBlock: ZUJKAS_clean_linker_0, # of connection points: 2
#     Edge 15, Type (0, 0), BuildingBlock: ZUJKAS_clean_linker_0, # of connection points: 2
#     Edge 16, Type (0, 0), BuildingBlock: ZUJKAS_clean_linker_0, # of connection points: 2
#     Edge 17, Type (0, 0), BuildingBlock: ZUJKAS_clean_linker_0, # of connection points: 2
#     Edge 18, Type (0, 0), BuildingBlock: ZUJKAS_clean_linker_0, # of connection points: 2
#     Edge 19, Type (0, 0), BuildingBlock: ZUJKAS_clean_linker_0, # of connection points: 2
#     Edge 20, Type (0, 0), BuildingBlock: ZUJKAS_clean_linker_0, # of connection points: 2
#     Edge 21, Type (0, 0), BuildingBlock: ZUJKAS_clean_linker_0, # of connection points: 2
#     Edge 22, Type (0, 0), BuildingBlock: ZUJKAS_clean_linker_0, # of connection points: 2
#     Edge 23, Type (0, 0), BuildingBlock: ZUJKAS_clean_linker_0, # of connection points: 2
#     Edge 24, Type (0, 0), BuildingBlock: ZUJKAS_clean_linker_0, # of connection points: 2
#     Edge 25, Type (0, 0), BuildingBlock: ZUJKAS_clean_linker_0, # of connection points: 2
#     Edge 26, Type (0, 0), BuildingBlock: ZUJKAS_clean_linker_0, # of connection points: 2
#     Edge 27, Type (0, 0), BuildingBlock: ZUJKAS_clean_linker_0, # of connection points: 2
#     Edge 28, Type (0, 0), BuildingBlock: ZUJKAS_clean_linker_0, # of connection points: 2
#     Edge 29, Type (0, 0), BuildingBlock: ZUJKAS_clean_linker_0, # of connection points: 2
#     Edge 30, Type (0, 0), BuildingBlock: ZUJKAS_clean_linker_0, # of connection points: 2
#     Edge 31, Type (0, 0), BuildingBlock: ZUJKAS_clean_linker_0, # of connection points: 2
#     Edge 32, Type (0, 0), BuildingBlock: ZUJKAS_clean_linker_0, # of connection points: 2
#     Edge 33, Type (0, 0), BuildingBlock: ZUJKAS_clean_linker_0, # of connection points: 2
#     Edge 34, Type (0, 0), BuildingBlock: ZUJKAS_clean_linker_0, # of connection points: 2
#     Edge 35, Type (0, 0), BuildingBlock: ZUJKAS_clean_linker_0, # of connection points: 2
# Relax obj value: 0.347
# Max RMSD: 0.227
# Mean RMSD: 0.226
data_MOF--net-unf--node1-UXUYUI_clean_sbu_0--edge1-ZUJKAS_clean_linker_0
_symmetry_space_group_name_H-M    P1
_symmetry_Int_Tables_number       1
_symmetry_cell_setting            triclinic
loop_
_symmetry_equiv_pos_as_xyz
'x, y, z'
_cell_length_a     66.067193
_cell_length_b     66.047471
_cell_length_c     63.313208
_cell_angle_alpha  90.056401
_cell_angle_beta   89.901356
_cell_angle_gamma 120.01387
loop_
_atom_site_label
_atom_site_type_symbol
_atom_site_fract_x
_atom_site_fract_y
_atom_site_fract_z
_atom_type_partial_charge
Li0 Li 0.03771 0.3713 0.09482 0.0
Li1 Li 0.05572 0.3547 0.12047 0.0
Li2 Li 0.05082 0.34462 0.08288 0.0
Li3 Li 0.01765 0.3307 0.10534 0.0
C4 C 0.08825 0.38594 0.08188 0.0
N5 N 0.12434 0.40348 0.05286 0.0
C6 C 0.10916 0.38648 0.08662 0.0
C7 C 0.08572 0.39444 0.06244 0.0
C8 C 0.12719 0.39538 0.07171 0.0
C9 C 0.10417 0.40322 0.04797 0.0
C10 C 0.00769 0.35158 0.13569 0.0
C11 C 0.98099 0.3278 0.16312 0.0
N12 N 0.96679 0.33654 0.15829 0.0
C13 C 0.99298 0.36054 0.13117 0.0
C14 C 0.00179 0.33527 0.15195 0.0
C15 C 0.97233 0.35265 0.14271 0.0
C16 C 0.01377 0.39186 0.07765 0.0
N17 N 0.03465 0.39693 0.08613 0.0
C18 C 0.05132 0.43715 0.07669 0.0
C19 C 0.05321 0.41906 0.08616 0.0
C20 C 0.03011 0.4323 0.06723 0.0
C21 C 0.01106 0.40938 0.06816 0.0
H22 H -0.00056 0.37401 0.07769 0.0
H23 H 0.06968 0.42247 0.09283 0.0
C24 C 0.0919 0.35323 0.14063 0.0
N25 N 0.07631 0.36072 0.14328 0.0
C26 C 0.10794 0.35674 0.15645 0.0
C27 C 0.09156 0.37561 0.17756 0.0
C28 C 0.07575 0.3717 0.16124 0.0
C29 C 0.10801 0.36815 0.17521 0.0
H30 H 0.09174 0.34437 0.12619 0.0
H31 H 0.06307 0.37741 0.16286 0.0
C32 C 0.00789 0.327 0.06213 0.0
N33 N 0.97942 0.29229 0.03407 0.0
C34 C 0.00709 0.30545 0.06227 0.0
C35 C 0.99426 0.33092 0.04767 0.0
C36 C 0.99257 0.28812 0.04798 0.0
C37 C 0.97997 0.31315 0.03362 0.0
C38 C 0.04061 0.30433 0.11693 0.0
C39 C 0.04002 0.28623 0.10499 0.0
C40 C 0.03851 0.30224 0.1389 0.0
C41 C 0.03693 0.26614 0.11522 0.0
C42 C 0.03549 0.28189 0.14854 0.0
N43 N 0.03473 0.2644 0.1366 0.0
C44 C 0.0811 0.33122 0.06585 0.0
C45 C 0.06155 0.3409 0.03981 0.0
C46 C 0.09372 0.32731 0.05034 0.0
N47 N 0.06552 0.33799 0.06035 0.0
C48 C 0.0737 0.33699 0.02373 0.0
C49 C 0.09018 0.33032 0.02897 0.0
H50 H 0.08397 0.32926 0.08235 0.0
H51 H 0.04932 0.34668 0.03594 0.0
C52 C 0.96986 0.31009 0.10106 0.0
N53 N 0.98631 0.30522 0.10831 0.0
C54 C 0.94719 0.29211 0.09708 0.0
C55 C 0.95827 0.26438 0.10932 0.0
C56 C 0.98077 0.28298 0.11319 0.0
C57 C 0.94145 0.26881 0.10031 0.0
H58 H 0.97482 0.32785 0.0969 0.0
H59 H 0.99401 0.27932 0.1187 0.0
O60 O 0.07008 0.37653 0.09594 0.0
O61 O 0.02779 0.35884 0.12432 0.0
O62 O 0.02137 0.34398 0.07645 0.0
O63 O 0.04379 0.32417 0.10712 0.0
H64 H 0.11138 0.37991 0.10156 0.0
H65 H 0.06953 0.39386 0.05842 0.0
H66 H 0.14343 0.39579 0.07511 0.0
H67 H 0.1024 0.4097 0.0328 0.0
H68 H 0.97613 0.31505 0.17564 0.0
H69 H 0.99739 0.37337 0.11882 0.0
H70 H 0.01307 0.32837 0.15586 0.0
H71 H 0.96071 0.35931 0.13927 0.0
H72 H 0.06637 0.45462 0.07642 0.0
H73 H 0.99452 0.40479 0.0608 0.0
H74 H 0.11994 0.35025 0.15412 0.0
H75 H 0.0911 0.38459 0.19171 0.0
H76 H 0.01738 0.30205 0.0734 0.0
H77 H 0.99462 0.34748 0.04737 0.0
H78 H 0.99172 0.27133 0.048 0.0
H79 H 0.96929 0.31593 0.02238 0.0
H80 H 0.04192 0.28764 0.08799 0.0
H81 H 0.03934 0.31619 0.14843 0.0
H82 H 0.03634 0.25196 0.10617 0.0
H83 H 0.03379 0.28003 0.16553 0.0
H84 H 0.1061 0.32194 0.05501 0.0
H85 H 0.07067 0.33971 0.00744 0.0
H86 H 0.93467 0.29634 0.09041 0.0
H87 H 0.95467 0.24668 0.11189 0.0
Li88 Li 0.6505 0.69771 0.11626 0.0
Li89 Li 0.62863 0.66309 0.09219 0.0
Li90 Li 0.6692 0.67924 0.09751 0.0
Li91 Li 0.65513 0.70029 0.07675 0.0
C92 C 0.65368 0.65624 0.13376 0.0
N93 N 0.67237 0.63838 0.16224 0.0
C94 C 0.65465 0.63611 0.12881 0.0
C95 C 0.66214 0.66724 0.15324 0.0
C96 C 0.66421 0.62738 0.1434 0.0
C97 C 0.67153 0.65793 0.16742 0.0
C98 C 0.61953 0.7065 0.08521 0.0
C99 C 0.60455 0.71806 0.05565 0.0
N100 N 0.6066 0.73642 0.06709 0.0
C101 C 0.62133 0.72542 0.0967 0.0
C102 C 0.6109 0.70269 0.06455 0.0
C103 C 0.61474 0.74036 0.08726 0.0
C104 C 0.66548 0.73758 0.14108 0.0
N105 N 0.64949 0.7144 0.1401 0.0
C106 C 0.63008 0.71718 0.1709 0.0
C107 C 0.63208 0.70397 0.15462 0.0
C108 C 0.646 0.74132 0.17198 0.0
C109 C 0.66407 0.75143 0.15698 0.0
H110 H 0.67889 0.74544 0.12909 0.0
H111 H 0.61944 0.68554 0.15321 0.0
C112 C 0.59763 0.61403 0.09119 0.0
N113 N 0.59955 0.63516 0.08734 0.0
C114 C 0.57934 0.59379 0.0823 0.0
C115 C 0.56412 0.61719 0.0675 0.0
C116 C 0.58268 0.63694 0.07668 0.0
C117 C 0.56293 0.59544 0.06945 0.0
H118 H 0.61128 0.61309 0.09969 0.0
H119 H 0.58444 0.65388 0.07407 0.0
C120 C 0.70269 0.72361 0.09966 0.0
N121 N 0.75067 0.74324 0.1006 0.0
C122 C 0.71525 0.72794 0.08083 0.0
C123 C 0.71449 0.72938 0.11897 0.0
C124 C 0.73952 0.73783 0.08164 0.0
C125 C 0.73878 0.73929 0.11911 0.0
C126 C 0.64108 0.65041 0.05818 0.0
C127 C 0.64401 0.63116 0.06197 0.0
C128 C 0.62555 0.64896 0.04247 0.0
C129 C 0.63144 0.61087 0.04994 0.0
C130 C 0.61323 0.62832 0.03084 0.0
N131 N 0.61641 0.60987 0.03478 0.0
C132 C 0.70842 0.67643 0.11552 0.0
C133 C 0.70146 0.66971 0.07881 0.0
C134 C 0.72815 0.67385 0.11397 0.0
N135 N 0.69534 0.67401 0.09808 0.0
C136 C 0.7208 0.66681 0.07657 0.0
C137 C 0.73441 0.66882 0.09428 0.0
H138 H 0.70395 0.68093 0.13053 0.0
H139 H 0.69166 0.66912 0.06497 0.0
C140 C 0.66844 0.74391 0.05887 0.0
N141 N 0.66245 0.72157 0.05397 0.0
C142 C 0.67327 0.76023 0.04289 0.0
C143 C 0.6664 0.73043 0.0171 0.0
C144 C 0.66181 0.71471 0.03362 0.0
C145 C 0.67207 0.75349 0.02167 0.0
H146 H 0.6691 0.74893 0.07524 0.0
H147 H 0.65775 0.69706 0.03019 0.0
O148 O 0.64416 0.66495 0.11981 0.0
O149 O 0.62626 0.69189 0.09409 0.0
O150 O 0.67888 0.71329 0.09921 0.0
O151 O 0.65295 0.67032 0.07008 0.0
H152 H 0.64847 0.62753 0.11374 0.0
H153 H 0.6616 0.68285 0.15734 0.0
H154 H 0.66521 0.61191 0.13971 0.0
H155 H 0.67819 0.6663 0.18252 0.0
H156 H 0.59811 0.71544 0.03961 0.0
H157 H 0.62774 0.7286 0.11273 0.0
H158 H 0.60961 0.68834 0.0553 0.0
H159 H 0.61613 0.75511 0.09596 0.0
H160 H 0.61576 0.70877 0.18203 0.0
H161 H 0.67683 0.76992 0.15739 0.0
H162 H 0.57914 0.57739 0.08414 0.0
H163 H 0.55153 0.61912 0.05805 0.0
H164 H 0.70632 0.72343 0.06577 0.0
H165 H 0.70496 0.72592 0.13369 0.0
H166 H 0.74947 0.74114 0.06721 0.0
H167 H 0.74815 0.74371 0.13393 0.0
H168 H 0.65556 0.63169 0.07431 0.0
H169 H 0.62264 0.66341 0.03955 0.0
H170 H 0.63347 0.59584 0.0528 0.0
H171 H 0.60102 0.62693 0.01878 0.0
H172 H 0.73843 0.67588 0.12794 0.0
H173 H 0.72547 0.66377 0.06096 0.0
H174 H 0.67739 0.77779 0.04709 0.0
H175 H 0.66569 0.72467 0.00096 0.0
Li176 Li 0.29294 0.94594 0.1125 0.0
Li177 Li 0.32866 0.96589 0.08814 0.0
Li178 Li 0.30702 0.98478 0.09927 0.0
Li179 Li 0.28932 0.95289 0.07526 0.0
C180 C 0.33829 0.99351 0.12972 0.0
N181 N 0.36597 0.0332 0.15327 0.0
C182 C 0.3624 0.00639 0.1262 0.0
C183 C 0.32834 0.00061 0.1455 0.0
C184 C 0.37608 0.02645 0.1382 0.0
C185 C 0.3426 0.02078 0.15714 0.0
C186 C 0.29349 0.91565 0.07305 0.0
C187 C 0.29658 0.90043 0.0393 0.0
N188 N 0.27579 0.88066 0.04296 0.0
C189 C 0.27223 0.89514 0.07653 0.0
C190 C 0.30583 0.91832 0.05433 0.0
C191 C 0.26355 0.87767 0.0611 0.0
C192 C 0.25461 0.90892 0.13158 0.0
N193 N 0.27775 0.92411 0.13448 0.0
C194 C 0.27667 0.90758 0.1683 0.0
C195 C 0.28898 0.9238 0.15233 0.0
C196 C 0.25265 0.89165 0.16575 0.0
C197 C 0.24167 0.89252 0.14707 0.0
H198 H 0.24615 0.9098 0.11728 0.0
H199 H 0.30742 0.93619 0.15419 0.0
C200 C 0.37295 0.99136 0.07095 0.0
N201 N 0.3579 0.97017 0.07945 0.0
C202 C 0.39309 0.9949 0.06061 0.0
C203 C 0.38245 0.95502 0.06882 0.0
C204 C 0.36242 0.95223 0.07902 0.0
C205 C 0.39772 0.97639 0.05894 0.0
H206 H 0.36884 0.00527 0.07161 0.0
H207 H 0.34992 0.93547 0.08566 0.0
C208 C 0.25794 0.96076 0.11046 0.0
N209 N 0.22443 0.96561 0.13243 0.0
C210 C 0.23969 0.96114 0.09964 0.0
C211 C 0.259 0.96264 0.13246 0.0
C212 C 0.22297 0.96368 0.11103 0.0
C213 C 0.24193 0.96512 0.14329 0.0
C214 C 0.3142 0.99689 0.05678 0.0
C215 C 0.29286 0.99652 0.0568 0.0
C216 C 0.33199 0.01196 0.04308 0.0
C217 C 0.28971 0.01134 0.04318 0.0
C218 C 0.32816 0.02651 0.02968 0.0
N219 N 0.30729 0.02591 0.03002 0.0
C220 C 0.33453 0.03292 0.09911 0.0
C221 C 0.29501 0.02084 0.10687 0.0
C222 C 0.33978 0.05602 0.09689 0.0
N223 N 0.31236 0.01579 0.10357 0.0
C224 C 0.29941 0.04372 0.10449 0.0
C225 C 0.32189 0.06154 0.09868 0.0
H226 H 0.34787 0.0284 0.09593 0.0
H227 H 0.27741 0.00708 0.10994 0.0
C228 C 0.24649 0.92494 0.05507 0.0
N229 N 0.26963 0.93953 0.05149 0.0
C230 C 0.23152 0.91321 0.03829 0.0
C231 C 0.2645 0.9319 0.01444 0.0
C232 C 0.27882 0.94341 0.03169 0.0
C233 C 0.24054 0.91643 0.01768 0.0
H234 H 0.23981 0.92195 0.07106 0.0
H235 H 0.29738 0.95495 0.02939 0.0
O236 O 0.32463 0.97394 0.11795 0.0
O237 O 0.3019 0.93328 0.08764 0.0
O238 O 0.27436 0.95818 0.09947 0.0
O239 O 0.31797 0.98302 0.07042 0.0
H240 H 0.37049 0.00099 0.11432 0.0
H241 H 0.3098 0.99081 0.14862 0.0
H242 H 0.39473 0.03665 0.13554 0.0
H243 H 0.33508 0.02657 0.16927 0.0
H244 H 0.30585 0.90234 0.02467 0.0
H245 H 0.26242 0.89282 0.09089 0.0
H246 H 0.32215 0.93422 0.05125 0.0
H247 H 0.24705 0.86176 0.06352 0.0
H248 H 0.28587 0.90742 0.18238 0.0
H249 H 0.22313 0.88095 0.14459 0.0
H250 H 0.40461 0.01176 0.05351 0.0
H251 H 0.3853 0.94027 0.06774 0.0
H252 H 0.23852 0.95958 0.08261 0.0
H253 H 0.27271 0.96198 0.14113 0.0
H254 H 0.20882 0.9641 0.10285 0.0
H255 H 0.24255 0.96659 0.16032 0.0
H256 H 0.27891 0.98506 0.0673 0.0
H257 H 0.34862 0.01249 0.04281 0.0
H258 H 0.27331 0.01128 0.04312 0.0
H259 H 0.3418 0.0383 0.01903 0.0
H260 H 0.35745 0.06921 0.09274 0.0
H261 H 0.28497 0.04702 0.10576 0.0
H262 H 0.21323 0.90113 0.04151 0.0
H263 H 0.27209 0.93492 0.99878 0.0
Li264 Li 0.66174 0.95255 0.41586 0.0
Li265 Li 0.67936 0.98648 0.39186 0.0
Li266 Li 0.63929 0.97054 0.40333 0.0
Li267 Li 0.65142 0.9497 0.37906 0.0
C268 C 0.68564 0.99703 0.4349 0.0
N269 N 0.72291 0.02275 0.4617 0.0
C270 C 0.70621 0.99598 0.43297 0.0
C271 C 0.68404 0.01108 0.45059 0.0
C272 C 0.72485 0.00916 0.44661 0.0
C273 C 0.70305 0.02394 0.46397 0.0
C274 C 0.68995 0.94749 0.37746 0.0
C275 C 0.70434 0.94492 0.34307 0.0
N276 N 0.70327 0.9246 0.3489 0.0
C277 C 0.68934 0.92676 0.3832 0.0
C278 C 0.69781 0.9568 0.35732 0.0
C279 C 0.69603 0.91539 0.36852 0.0
C280 C 0.65642 0.9124 0.43493 0.0
N281 N 0.66444 0.93539 0.43895 0.0
C282 C 0.6731 0.93063 0.47466 0.0
C283 C 0.67223 0.94455 0.45851 0.0
C284 C 0.66553 0.90696 0.47075 0.0
C285 C 0.65692 0.89784 0.45059 0.0
H286 H 0.64933 0.90531 0.41954 0.0
H287 H 0.67752 0.96252 0.46182 0.0
C288 C 0.707 0.03501 0.39395 0.0
N289 N 0.70736 0.01552 0.38766 0.0
C290 C 0.72781 0.05614 0.39631 0.0
C291 C 0.74897 0.037 0.38476 0.0
C292 C 0.72769 0.01621 0.38258 0.0
C293 C 0.74922 0.0571 0.39243 0.0
H294 H 0.69066 0.03374 0.39864 0.0
H295 H 0.72758 0.00033 0.3783 0.0
C296 C 0.61385 0.92546 0.41923 0.0
N297 N 0.58117 0.90258 0.45067 0.0
C298 C 0.59482 0.90315 0.41559 0.0
C299 C 0.6163 0.93611 0.4389 0.0
C300 C 0.57847 0.89187 0.43168 0.0
C301 C 0.59958 0.92426 0.45458 0.0
C302 C 0.65954 0.00014 0.36361 0.0
C303 C 0.65191 0.0156 0.36956 0.0
C304 C 0.67546 0.00607 0.34696 0.0
C305 C 0.66068 0.03696 0.35903 0.0
C306 C 0.68386 0.02761 0.33685 0.0
N307 N 0.67638 0.04249 0.34306 0.0
C308 C 0.62308 0.99684 0.42399 0.0
C309 C 0.59281 0.96203 0.40875 0.0
C310 C 0.6068 0.00134 0.43368 0.0
N311 N 0.61587 0.97724 0.41221 0.0
C312 C 0.57586 0.96586 0.41814 0.0
C313 C 0.58279 0.98552 0.43116 0.0
H314 H 0.64154 0.00867 0.42629 0.0
H315 H 0.5876 0.94655 0.39929 0.0
C316 C 0.63462 0.90562 0.36141 0.0
N317 N 0.64229 0.92829 0.35629 0.0
C318 C 0.63088 0.88934 0.34566 0.0
C319 C 0.6422 0.91992 0.3196 0.0
C320 C 0.6456 0.9356 0.33587 0.0
C321 C 0.63517 0.89655 0.32447 0.0
H322 H 0.63244 0.90045 0.37784 0.0
H323 H 0.65182 0.95378 0.33231 0.0
O324 O 0.66743 0.98497 0.4212 0.0
O325 O 0.68277 0.95852 0.3914 0.0
O326 O 0.62999 0.93662 0.40359 0.0
O327 O 0.65132 0.97923 0.37389 0.0
H328 H 0.70785 0.98516 0.42107 0.0
H329 H 0.66829 0.01207 0.45246 0.0
H330 H 0.74087 0.00858 0.44519 0.0
H331 H 0.70203 0.03489 0.47615 0.0
H332 H 0.71018 0.95181 0.32735 0.0
H333 H 0.68377 0.91948 0.3988 0.0
H334 H 0.69857 0.97288 0.35263 0.0
H335 H 0.69546 0.89924 0.37272 0.0
H336 H 0.67979 0.93837 0.48998 0.0
H337 H 0.65029 0.87955 0.44704 0.0
H338 H 0.72718 0.07103 0.40268 0.0
H339 H 0.76509 0.03703 0.38159 0.0
H340 H 0.59272 0.89466 0.40047 0.0
H341 H 0.63093 0.95334 0.44208 0.0
H342 H 0.56365 0.8746 0.42908 0.0
H343 H 0.60125 0.93231 0.46985 0.0
H344 H 0.6394 0.01124 0.38219 0.0
H345 H 0.68139 0.99428 0.34196 0.0
H346 H 0.65502 0.04914 0.36358 0.0
H347 H 0.69631 0.03248 0.32406 0.0
H348 H 0.613 0.01657 0.44374 0.0
H349 H 0.55755 0.95337 0.41554 0.0
H350 H 0.62577 0.87159 0.35013 0.0
H351 H 0.6455 0.9261 0.30343 0.0
Li352 Li 0.04984 0.7095 0.42181 0.0
Li353 Li 0.0139 0.68944 0.39998 0.0
Li354 Li 0.03454 0.66914 0.40976 0.0
Li355 Li 0.05088 0.70171 0.38485 0.0
C356 C 0.01833 0.67354 0.44876 0.0
N357 N 0.01556 0.65633 0.48904 0.0
C358 C 0.99702 0.66285 0.45956 0.0
C359 C 0.03823 0.67545 0.4584 0.0
C360 C 0.99598 0.65427 0.47993 0.0
C361 C 0.03647 0.66665 0.47878 0.0
C362 C 0.05089 0.74148 0.38576 0.0
C363 C 0.05286 0.76263 0.35407 0.0
N364 N 0.07408 0.78042 0.36021 0.0
C365 C 0.07259 0.76008 0.39188 0.0
C366 C 0.04081 0.74285 0.36682 0.0
C367 C 0.08407 0.77958 0.3787 0.0
C368 C 0.08862 0.74174 0.44494 0.0
N369 N 0.06491 0.73053 0.44431 0.0
C370 C 0.06367 0.75014 0.47559 0.0
C371 C 0.05229 0.7343 0.45918 0.0
C372 C 0.08821 0.76228 0.47646 0.0
C373 C 0.10069 0.7578 0.46094 0.0
H374 H 0.09813 0.73838 0.43283 0.0
H375 H 0.03342 0.7251 0.4582 0.0
C376 C 0.9652 0.66294 0.40169 0.0
N377 N 0.9833 0.68485 0.39814 0.0
C378 C 0.94255 0.65909 0.40386 0.0
C379 C 0.95757 0.70043 0.39847 0.0
C380 C 0.97994 0.70343 0.39612 0.0
C381 C 0.93858 0.67809 0.40298 0.0
H382 H 0.9685 0.64859 0.4037 0.0
H383 H 0.99478 0.72075 0.39377 0.0
C384 C 0.08234 0.68888 0.40117 0.0
N385 N 0.11256 0.67468 0.38613 0.0
C386 C 0.07616 0.67402 0.38367 0.0
C387 C 0.1039 0.69653 0.41099 0.0
C388 C 0.09169 0.66705 0.37631 0.0
C389 C 0.11893 0.68914 0.40316 0.0
C390 C 0.00312 0.65838 0.36922 0.0
C391 C 0.98992 0.63402 0.37058 0.0
C392 C 0.99624 0.67024 0.35533 0.0
C393 C 0.96973 0.62196 0.35837 0.0
C394 C 0.97592 0.65757 0.34339 0.0
N395 N 0.96318 0.63389 0.34517 0.0
C396 C 0.00623 0.62406 0.42422 0.0
C397 C 0.04636 0.6353 0.42549 0.0
C398 C 0.00017 0.6035 0.4352 0.0
N399 N 0.02899 0.63957 0.4198 0.0
C400 C 0.04106 0.61482 0.43634 0.0
C401 C 0.01776 0.59889 0.44172 0.0
H402 H 0.99285 0.62822 0.42007 0.0
H403 H 0.0644 0.64817 0.42263 0.0
C404 C 0.09302 0.73136 0.36469 0.0
N405 N 0.0704 0.71504 0.36078 0.0
C406 C 0.10825 0.74317 0.34807 0.0
C407 C 0.0768 0.72069 0.32358 0.0
C408 C 0.06212 0.70932 0.34074 0.0
C409 C 0.10018 0.73804 0.32716 0.0
H410 H 0.09907 0.7356 0.38082 0.0
H411 H 0.04409 0.69618 0.33808 0.0
O412 O 0.01944 0.6814 0.42857 0.0
O413 O 0.03967 0.72198 0.3982 0.0
O414 O 0.06761 0.69622 0.40861 0.0
O415 O 0.02285 0.67049 0.38119 0.0
H416 H 0.98143 0.66108 0.45221 0.0
H417 H 0.05481 0.68342 0.45016 0.0
H418 H 0.9796 0.64592 0.48848 0.0
H419 H 0.05171 0.66794 0.48642 0.0
H420 H 0.04535 0.76383 0.33929 0.0
H421 H 0.08063 0.75936 0.40649 0.0
H422 H 0.02391 0.72877 0.36197 0.0
H423 H 0.10097 0.79401 0.38315 0.0
H424 H 0.05344 0.75324 0.48717 0.0
H425 H 0.11961 0.76658 0.46119 0.0
H426 H 0.92844 0.64152 0.407 0.0
H427 H 0.95546 0.71566 0.39798 0.0
H428 H 0.05962 0.6679 0.3758 0.0
H429 H 0.10896 0.70802 0.42456 0.0
H430 H 0.08714 0.65556 0.36279 0.0
H431 H 0.13566 0.69491 0.41063 0.0
H432 H 0.99526 0.62449 0.38088 0.0
H433 H 0.00633 0.68904 0.35395 0.0
H434 H 0.95928 0.60311 0.35935 0.0
H435 H 0.97029 0.66656 0.33273 0.0
H436 H 0.98199 0.59162 0.43899 0.0
H437 H 0.05516 0.61208 0.44141 0.0
H438 H 0.12597 0.75665 0.35164 0.0
H439 H 0.06992 0.71598 0.30771 0.0
Li440 Li 0.30703 0.31952 0.39837 0.0
Li441 Li 0.28722 0.3328 0.42302 0.0
Li442 Li 0.2973 0.34716 0.38709 0.0
Li443 Li 0.32933 0.35803 0.41294 0.0
C444 C 0.25746 0.30795 0.38229 0.0
N445 N 0.22266 0.29636 0.35265 0.0
C446 C 0.23709 0.30822 0.38771 0.0
C447 C 0.25987 0.30125 0.36191 0.0
C448 C 0.21975 0.30244 0.37248 0.0
C449 C 0.24217 0.29561 0.34712 0.0
C450 C 0.31121 0.30824 0.43815 0.0
C451 C 0.32652 0.28645 0.45594 0.0
N452 N 0.30518 0.26679 0.45463 0.0
C453 C 0.28936 0.28783 0.43718 0.0
C454 C 0.32991 0.30756 0.44775 0.0
C455 C 0.28669 0.26706 0.44553 0.0
C456 C 0.33075 0.29419 0.3953 0.0
N457 N 0.30981 0.29282 0.39178 0.0
C458 C 0.29115 0.25138 0.3876 0.0
C459 C 0.29029 0.27208 0.38742 0.0
C460 C 0.31232 0.25218 0.39222 0.0
C461 C 0.33246 0.274 0.39537 0.0
H462 H 0.34576 0.31073 0.39958 0.0
H463 H 0.27372 0.27137 0.38533 0.0
C464 C 0.25108 0.33589 0.44235 0.0
N465 N 0.26575 0.32733 0.44539 0.0
C466 C 0.23556 0.334 0.45819 0.0
C467 C 0.25088 0.31501 0.48033 0.0
C468 C 0.26618 0.31733 0.46403 0.0
C469 C 0.23524 0.32335 0.47749 0.0
H470 H 0.25181 0.34466 0.42772 0.0
H471 H 0.27863 0.31152 0.46647 0.0
C472 C 0.34152 0.34339 0.37076 0.0
N473 N 0.36892 0.33148 0.34662 0.0
C474 C 0.36514 0.35251 0.37563 0.0
C475 C 0.33199 0.32862 0.35332 0.0
C476 C 0.37867 0.34618 0.36332 0.0
C477 C 0.34607 0.32268 0.3414 0.0
C478 C 0.3055 0.38023 0.42959 0.0
C479 C 0.29971 0.39767 0.42657 0.0
C480 C 0.31301 0.37743 0.44946 0.0
C481 C 0.30167 0.41216 0.44346 0.0
C482 C 0.31474 0.39228 0.46594 0.0
N483 N 0.30909 0.40919 0.46263 0.0
C484 C 0.26938 0.36355 0.37021 0.0
C485 C 0.29225 0.35793 0.34449 0.0
C486 C 0.25782 0.36867 0.35454 0.0
N487 N 0.28587 0.35789 0.3649 0.0
C488 C 0.28117 0.36301 0.32828 0.0
C489 C 0.26338 0.36806 0.33321 0.0
H490 H 0.26454 0.3631 0.3866 0.0
H491 H 0.30542 0.35333 0.34076 0.0
C492 C 0.37306 0.37423 0.43161 0.0
N493 N 0.35865 0.38147 0.42372 0.0
C494 C 0.39337 0.38983 0.44234 0.0
C495 C 0.38421 0.42041 0.43582 0.0
C496 C 0.36415 0.40421 0.42502 0.0
C497 C 0.39885 0.41314 0.44509 0.0
H498 H 0.3686 0.35622 0.42974 0.0
H499 H 0.35255 0.40962 0.41837 0.0
O500 O 0.27499 0.31428 0.39679 0.0
O501 O 0.31435 0.32847 0.4291 0.0
O502 O 0.328 0.34937 0.38272 0.0
O503 O 0.3033 0.36568 0.41327 0.0
H504 H 0.23467 0.31292 0.40345 0.0
H505 H 0.27528 0.30052 0.35753 0.0
H506 H 0.204 0.30279 0.37643 0.0
H507 H 0.24394 0.29064 0.33123 0.0
H508 H 0.34088 0.28567 0.46331 0.0
H509 H 0.27468 0.28795 0.42976 0.0
H510 H 0.3469 0.32309 0.44886 0.0
H511 H 0.26994 0.25113 0.44467 0.0
H512 H 0.27523 0.23484 0.3852 0.0
H513 H 0.34899 0.2753 0.39947 0.0
H514 H 0.2243 0.34129 0.4555 0.0
H515 H 0.25127 0.30673 0.49496 0.0
H516 H 0.37298 0.36435 0.38875 0.0
H517 H 0.31391 0.32171 0.34906 0.0
H518 H 0.39693 0.35299 0.36701 0.0
H519 H 0.33884 0.31109 0.32798 0.0
H520 H 0.29373 0.39996 0.41131 0.0
H521 H 0.31743 0.36393 0.45214 0.0
H522 H 0.29727 0.42576 0.44134 0.0
H523 H 0.32055 0.39033 0.48138 0.0
H524 H 0.244 0.37209 0.35909 0.0
H525 H 0.28621 0.36264 0.31206 0.0
H526 H 0.40448 0.3836 0.44868 0.0
H527 H 0.38767 0.43817 0.43758 0.0
Li528 Li 0.94855 0.65549 0.9193 0.0
Li529 Li 0.96555 0.63273 0.90509 0.0
Li530 Li 0.98293 0.67348 0.89631 0.0
Li531 Li 0.94479 0.64405 0.88266 0.0
C532 C 0.99168 0.67692 0.93917 0.0
N533 N 0.01614 0.71199 0.96828 0.0
C534 C 0.00637 0.6748 0.95375 0.0
C535 C 0.98942 0.69687 0.93939 0.0
C536 C 0.01858 0.69273 0.96835 0.0
C537 C 0.00194 0.7144 0.95423 0.0
C538 C 0.90937 0.60922 0.90245 0.0
C539 C 0.87942 0.57652 0.88301 0.0
N540 N 0.86317 0.58155 0.89061 0.0
C541 C 0.89232 0.61392 0.91022 0.0
C542 C 0.90284 0.59023 0.88888 0.0
C543 C 0.86908 0.59977 0.90401 0.0
C544 C 0.92456 0.67419 0.94102 0.0
N545 N 0.93407 0.66023 0.94308 0.0
C546 C 0.92084 0.65137 0.9788 0.0
C547 C 0.93269 0.64906 0.9615 0.0
C548 C 0.9103 0.66524 0.97699 0.0
C549 C 0.91261 0.67702 0.95787 0.0
H550 H 0.92588 0.68274 0.92615 0.0
H551 H 0.94042 0.63801 0.96258 0.0
C552 C 0.99589 0.6178 0.9192 0.0
N553 N 0.97337 0.61003 0.91348 0.0
C554 C 0.00209 0.60258 0.92857 0.0
C555 C 0.96196 0.57144 0.9252 0.0
C556 C 0.95652 0.58731 0.91595 0.0
C557 C 0.98489 0.57917 0.93215 0.0
H558 H 0.00881 0.63609 0.91728 0.0
H559 H 0.93871 0.58171 0.91147 0.0
C560 C 0.95555 0.69045 0.87852 0.0
N561 N 0.95891 0.72015 0.84622 0.0
C562 C 0.96492 0.68953 0.85894 0.0
C563 C 0.94787 0.7065 0.8816 0.0
C564 C 0.96646 0.70468 0.84283 0.0
C565 C 0.94975 0.72137 0.8651 0.0
C566 C 0.98497 0.63409 0.8693 0.0
C567 C 0.00915 0.64391 0.8672 0.0
C568 C 0.97024 0.61058 0.86416 0.0
C569 C 0.01821 0.62989 0.86044 0.0
C570 C 0.97996 0.59712 0.85749 0.0
N571 N 0.00355 0.60697 0.85581 0.0
C572 C 0.03123 0.69981 0.89925 0.0
C573 C 0.01436 0.72281 0.88971 0.0
C574 C 0.05309 0.7198 0.90167 0.0
N575 N 0.01237 0.70163 0.89356 0.0
C576 C 0.03589 0.74327 0.89197 0.0
C577 C 0.05548 0.74193 0.8985 0.0
H578 H 0.02899 0.68287 0.90315 0.0
H579 H -0.00085 0.72413 0.88603 0.0
C580 C 0.90627 0.64148 0.86306 0.0
N581 N 0.92341 0.63616 0.85986 0.0
C582 C 0.88967 0.63685 0.8475 0.0
C583 C 0.90884 0.62167 0.8253 0.0
C584 C 0.92509 0.6265 0.84144 0.0
C585 C 0.8908 0.62682 0.8283 0.0
H586 H 0.90562 0.64952 0.87774 0.0
H587 H 0.93909 0.62272 0.83922 0.0
O588 O 0.98002 0.6597 0.92451 0.0
O589 O 0.93232 0.62318 0.90802 0.0
O590 O 0.95348 0.67556 0.89451 0.0
O591 O 0.97576 0.64742 0.87627 0.0
H592 H 0.00837 0.65951 0.95371 0.0
H593 H 0.97828 0.69891 0.92813 0.0
H594 H 0.03003 0.69134 0.97972 0.0
H595 H 0.00041 0.72996 0.95454 0.0
H596 H 0.87417 0.5619 0.87239 0.0
H597 H 0.89696 0.62848 0.92074 0.0
H598 H 0.91569 0.58619 0.8828 0.0
H599 H 0.85575 0.60333 0.90978 0.0
H600 H 0.9193 0.64182 0.99317 0.0
H601 H 0.90506 0.68816 0.95587 0.0
H602 H 0.0199 0.60939 0.93392 0.0
H603 H 0.94822 0.55349 0.92742 0.0
H604 H 0.97095 0.6773 0.8561 0.0
H605 H 0.9406 0.70755 0.8966 0.0
H606 H 0.97366 0.70412 0.82762 0.0
H607 H 0.9439 0.73388 0.86731 0.0
H608 H 0.02081 0.66218 0.87062 0.0
H609 H 0.95151 0.60275 0.86554 0.0
H610 H 0.0369 0.63725 0.85885 0.0
H611 H 0.96875 0.57884 0.85366 0.0
H612 H 0.0676 0.71799 0.90721 0.0
H613 H 0.037 0.76001 0.8894 0.0
H614 H 0.87639 0.64159 0.85031 0.0
H615 H 0.91031 0.61393 0.81071 0.0
Li616 Li 0.325 0.30803 0.89611 0.0
Li617 Li 0.36603 0.3324 0.90285 0.0
Li618 Li 0.35104 0.30022 0.87606 0.0
Li619 Li 0.34529 0.29182 0.91466 0.0
C620 C 0.3425 0.34033 0.86221 0.0
N621 N 0.32833 0.36289 0.83429 0.0
C622 C 0.34367 0.36131 0.868 0.0
C623 C 0.33444 0.33098 0.84212 0.0
C624 C 0.33633 0.37241 0.85369 0.0
C625 C 0.32726 0.34261 0.82826 0.0
C626 C 0.3487 0.32419 0.94376 0.0
C627 C 0.37855 0.33404 0.9701 0.0
N628 N 0.36532 0.33776 0.98435 0.0
C629 C 0.33539 0.32808 0.95866 0.0
C630 C 0.37045 0.32715 0.94951 0.0
C631 C 0.3441 0.33494 0.97911 0.0
C632 C 0.28352 0.29625 0.91518 0.0
N633 N 0.29571 0.30732 0.89749 0.0
C634 C 0.26557 0.31517 0.88689 0.0
C635 C 0.28703 0.31641 0.8832 0.0
C636 C 0.25281 0.304 0.90515 0.0
C637 C 0.26188 0.29421 0.91926 0.0
H638 H 0.29077 0.28906 0.9262 0.0
H639 H 0.29656 0.3246 0.86898 0.0
C640 C 0.41237 0.3693 0.91094 0.0
N641 N 0.38933 0.36275 0.91113 0.0
C642 C 0.42867 0.39004 0.92084 0.0
C643 C 0.39722 0.39711 0.93018 0.0
C644 C 0.3816 0.37632 0.92011 0.0
C645 C 0.42105 0.40397 0.93106 0.0
H646 H 0.41793 0.35797 0.9039 0.0
H647 H 0.36307 0.37032 0.92045 0.0
C648 C 0.29939 0.26354 0.88637 0.0
N649 N 0.25235 0.23725 0.87681 0.0
C650 C 0.28446 0.24459 0.8991 0.0
C651 C 0.29043 0.26882 0.86854 0.0
C652 C 0.26073 0.23158 0.89406 0.0
C653 C 0.2666 0.25542 0.86404 0.0
C654 C 0.38542 0.29458 0.89561 0.0
C655 C 0.37117 0.27061 0.89184 0.0
C656 C 0.4097 0.3044 0.89579 0.0
C657 C 0.38148 0.2569 0.88833 0.0
C658 C 0.41933 0.29008 0.89224 0.0
N659 N 0.40515 0.26683 0.88861 0.0
C660 C 0.37967 0.29995 0.84264 0.0
C661 C 0.34003 0.26968 0.84175 0.0
C662 C 0.38505 0.2898 0.82573 0.0
N663 N 0.35751 0.28956 0.85044 0.0
C664 C 0.34453 0.25917 0.82473 0.0
C665 C 0.36735 0.26898 0.81674 0.0
H666 H 0.39332 0.31556 0.8501 0.0
H667 H 0.32278 0.26137 0.84858 0.0
C668 C 0.3229 0.26035 0.94811 0.0
N669 N 0.34358 0.27232 0.93764 0.0
C670 C 0.32072 0.24611 0.96526 0.0
C671 C 0.36149 0.25774 0.96121 0.0
C672 C 0.36286 0.27172 0.94418 0.0
C673 C 0.34015 0.24446 0.97184 0.0
H674 H 0.30814 0.26202 0.94321 0.0
H675 H 0.37946 0.28233 0.93644 0.0
O676 O 0.34994 0.3294 0.87584 0.0
O677 O 0.34034 0.31752 0.92368 0.0
O678 O 0.32264 0.27678 0.89127 0.0
O679 O 0.37579 0.30853 0.89859 0.0
H680 H 0.35005 0.36887 0.88341 0.0
H681 H 0.33378 0.31494 0.83728 0.0
H682 H 0.337 0.38859 0.85799 0.0
H683 H 0.32089 0.33553 0.8127 0.0
H684 H 0.39535 0.33643 0.97475 0.0
H685 H 0.31852 0.32585 0.95445 0.0
H686 H 0.38101 0.32422 0.93821 0.0
H687 H 0.33399 0.33803 0.9908 0.0
H688 H 0.25899 0.32281 0.87562 0.0
H689 H 0.25265 0.2857 0.93365 0.0
H690 H 0.44691 0.39479 0.92097 0.0
H691 H 0.39048 0.40702 0.93816 0.0
H692 H 0.29112 0.23983 0.91263 0.0
H693 H 0.30173 0.28337 0.85847 0.0
H694 H 0.24897 0.21694 0.90385 0.0
H695 H 0.25942 0.25952 0.85044 0.0
H696 H 0.35236 0.26263 0.89159 0.0
H697 H 0.421 0.32291 0.89858 0.0
H698 H 0.37066 0.23835 0.88538 0.0
H699 H 0.4381 0.29746 0.89233 0.0
H700 H 0.40287 0.29787 0.82001 0.0
H701 H 0.33049 0.24287 0.81856 0.0
H702 H 0.30395 0.23625 0.97307 0.0
H703 H 0.37708 0.25754 0.96615 0.0
Li704 Li 0.70031 0.04968 0.88512 0.0
Li705 Li 0.70587 0.05013 0.92256 0.0
Li706 Li 0.69443 0.01382 0.90226 0.0
Li707 Li 0.6666 0.02789 0.90905 0.0
C708 C 0.74237 0.05214 0.88748 0.0
N709 N 0.78015 0.06816 0.8604 0.0
C710 C 0.75967 0.07574 0.88756 0.0
C711 C 0.74449 0.03662 0.87389 0.0
C712 C 0.77857 0.08352 0.87366 0.0
C713 C 0.76368 0.04508 0.86026 0.0
C714 C 0.69521 0.08356 0.91614 0.0
C715 C 0.68776 0.1094 0.93753 0.0
N716 N 0.71047 0.12647 0.93522 0.0
C717 C 0.71843 0.10142 0.91389 0.0
C718 C 0.67971 0.08761 0.928 0.0
C719 C 0.72582 0.12295 0.92368 0.0
C720 C 0.71479 0.0893 0.85851 0.0
N721 N 0.71165 0.06736 0.85969 0.0
C722 C 0.72998 0.07194 0.82608 0.0
C723 C 0.71815 0.05821 0.84357 0.0
C724 C 0.73467 0.09513 0.82501 0.0
C725 C 0.72633 0.10358 0.84122 0.0
H726 H 0.70895 0.096 0.87124 0.0
H727 H 0.71486 0.04048 0.84465 0.0
C728 C 0.74658 0.07006 0.94694 0.0
N729 N 0.72496 0.06772 0.94594 0.0
C730 C 0.76193 0.08298 0.96315 0.0
C731 C 0.73236 0.09052 0.97734 0.0
C732 C 0.71756 0.07738 0.96089 0.0
C733 C 0.75494 0.09359 0.97852 0.0
H734 H 0.75199 0.06202 0.93501 0.0
H735 H 0.70028 0.07519 0.96003 0.0
C736 C 0.65443 0.99668 0.87525 0.0
N737 N 0.61552 0.95556 0.86273 0.0
C738 C 0.64476 0.97723 0.8886 0.0
C739 C 0.6443 0.99525 0.85555 0.0
C740 C 0.62509 0.95659 0.88198 0.0
C741 C 0.62464 0.97429 0.8495 0.0
C742 C 0.67458 0.01519 0.95018 0.0
C743 C 0.67581 0.99893 0.96344 0.0
C744 C 0.66542 0.02877 0.95793 0.0
C745 C 0.66802 0.99669 0.9843 0.0
C746 C 0.6578 0.02601 0.97886 0.0
N747 N 0.65926 0.01017 0.99152 0.0
C748 C 0.70783 0.98418 0.91925 0.0
C749 C 0.69148 0.97182 0.88514 0.0
C750 C 0.70948 0.96413 0.92182 0.0
N751 N 0.6984 0.98733 0.90141 0.0
C752 C 0.69279 0.95141 0.88704 0.0
C753 C 0.70149 0.94716 0.90577 0.0
H754 H 0.71345 0.99702 0.93176 0.0
H755 H 0.6844 0.97498 0.87095 0.0
C756 C 0.62564 0.03169 0.91142 0.0
N757 N 0.63465 0.01752 0.91524 0.0
C758 C 0.60392 0.02624 0.91985 0.0
C759 C 0.60046 0.99085 0.93444 0.0
C760 C 0.62227 0.99708 0.92595 0.0
C761 C 0.59138 0.00593 0.93213 0.0
H762 H 0.63586 0.04781 0.90279 0.0
H763 H 0.62986 0.98618 0.92893 0.0
O764 O 0.72351 0.04426 0.90072 0.0
O765 O 0.68772 0.06227 0.90677 0.0
O766 O 0.67356 0.01716 0.88143 0.0
O767 O 0.68183 0.01737 0.92962 0.0
H768 H 0.75857 0.08793 0.89823 0.0
H769 H 0.73131 0.01831 0.8736 0.0
H770 H 0.792 0.10177 0.87345 0.0
H771 H 0.76543 0.03329 0.84952 0.0
H772 H 0.67598 0.11272 0.94684 0.0
H773 H 0.73063 0.09861 0.90477 0.0
H774 H 0.66171 0.07405 0.93004 0.0
H775 H 0.74378 0.13686 0.92214 0.0
H776 H 0.73574 0.06464 0.81371 0.0
H777 H 0.72956 0.12135 0.84099 0.0
H778 H 0.77928 0.0851 0.96334 0.0
H779 H 0.72618 0.09818 0.989 0.0
H780 H 0.65238 0.97803 0.9039 0.0
H781 H 0.65158 0.0102 0.84506 0.0
H782 H 0.61744 0.94139 0.89215 0.0
H783 H 0.61662 0.97293 0.83428 0.0
H784 H 0.68257 0.98805 0.95767 0.0
H785 H 0.66416 0.04129 0.94786 0.0
H786 H 0.66889 0.98419 0.99473 0.0
H787 H 0.65069 0.03644 0.98504 0.0
H788 H 0.71602 0.96153 0.93664 0.0
H789 H 0.68672 0.93893 0.87418 0.0
H790 H 0.59767 0.03845 0.91772 0.0
H791 H 0.59121 0.97477 0.94339 0.0
Li792 Li 0.34869 0.0542 0.57534 0.0
Li793 Li 0.35295 0.05373 0.61427 0.0
Li794 Li 0.37226 0.03812 0.591 0.0
Li795 Li 0.33081 0.01887 0.59523 0.0
C796 C 0.39428 0.08882 0.60419 0.0
N797 N 0.42549 0.12448 0.63016 0.0
C798 C 0.39398 0.10981 0.60547 0.0
C799 C 0.41031 0.08591 0.61633 0.0
C800 C 0.40991 0.12763 0.61866 0.0
C801 C 0.42602 0.10418 0.62926 0.0
C802 C 0.30167 0.03459 0.60195 0.0
C803 C 0.26999 0.02063 0.62705 0.0
N804 N 0.25439 0.01161 0.6109 0.0
C805 C 0.28534 0.02535 0.58559 0.0
C806 C 0.29397 0.03231 0.62285 0.0
C807 C 0.26151 0.01371 0.59045 0.0
C808 C 0.32876 0.05875 0.53739 0.0
N809 N 0.34575 0.07058 0.55198 0.0
C810 C 0.3591 0.10639 0.53325 0.0
C811 C 0.36101 0.09385 0.55006 0.0
C812 C 0.34139 0.0948 0.51817 0.0
C813 C 0.32624 0.0706 0.52023 0.0
H814 H 0.31718 0.04013 0.53911 0.0
H815 H 0.37479 0.10265 0.5615 0.0
C816 C 0.37052 0.07403 0.65491 0.0
N817 N 0.35673 0.07245 0.63835 0.0
C818 C 0.37535 0.09049 0.67086 0.0
C819 C 0.35127 0.10284 0.65253 0.0
C820 C 0.34695 0.08624 0.637 0.0
C821 C 0.36596 0.10542 0.66957 0.0
H822 H 0.3784 0.06309 0.65534 0.0
H823 H 0.33636 0.08481 0.62345 0.0
C824 C 0.35954 0.02689 0.54965 0.0
N825 N 0.38356 0.03129 0.5125 0.0
C826 C 0.35401 0.00718 0.53735 0.0
C827 C 0.37755 0.0488 0.54311 0.0
C828 C 0.36627 0.00978 0.51861 0.0
C829 C 0.3894 0.05067 0.52427 0.0
C830 C 0.34261 0.00624 0.6309 0.0
C831 C 0.33948 0.98432 0.6255 0.0
C832 C 0.33339 0.00895 0.64988 0.0
C833 C 0.32702 0.96543 0.63913 0.0
C834 C 0.32109 0.98964 0.66312 0.0
N835 N 0.31816 0.96846 0.6575 0.0
C836 C 0.4179 0.05333 0.57631 0.0
C837 C 0.3954 0.01277 0.58368 0.0
C838 C 0.43506 0.05021 0.56649 0.0
N839 N 0.39839 0.03466 0.58432 0.0
C840 C 0.41214 0.00884 0.57402 0.0
C841 C 0.43194 0.02763 0.56471 0.0
H842 H 0.41948 0.07042 0.57633 0.0
H843 H 0.37935 0.99814 0.58942 0.0
C844 C 0.2979 0.97736 0.57626 0.0
N845 N 0.30283 0.98867 0.5951 0.0
C846 C 0.27769 0.9558 0.57372 0.0
C847 C 0.2674 0.95785 0.60997 0.0
C848 C 0.28803 0.97939 0.61187 0.0
C849 C 0.2621 0.94578 0.59069 0.0
H850 H 0.30943 0.98534 0.563 0.0
H851 H 0.29197 0.9888 0.62661 0.0
O852 O 0.37821 0.07079 0.592 0.0
O853 O 0.32507 0.04579 0.59754 0.0
O854 O 0.34816 0.02441 0.56846 0.0
O855 O 0.35491 0.02501 0.61785 0.0
H856 H 0.38122 0.11216 0.59681 0.0
H857 H 0.41034 0.06955 0.6161 0.0
H858 H 0.40975 0.14389 0.6199 0.0
H859 H 0.43848 0.10213 0.63874 0.0
H860 H 0.26378 0.01861 0.64315 0.0
H861 H 0.291 0.0269 0.56935 0.0
H862 H 0.30636 0.0392 0.63572 0.0
H863 H 0.24867 0.00631 0.57796 0.0
H864 H 0.37145 0.12494 0.53198 0.0
H865 H 0.31234 0.06103 0.50896 0.0
H866 H 0.38692 0.09204 0.68364 0.0
H867 H 0.34336 0.11371 0.65109 0.0
H868 H 0.34058 0.98997 0.5423 0.0
H869 H 0.3827 0.0642 0.55259 0.0
H870 H 0.36213 0.99466 0.50897 0.0
H871 H 0.40337 0.06753 0.5191 0.0
H872 H 0.34627 0.98182 0.6108 0.0
H873 H 0.33549 0.02571 0.65428 0.0
H874 H 0.32432 0.94834 0.63507 0.0
H875 H 0.31378 0.99148 0.67781 0.0
H876 H 0.45013 0.06517 0.55962 0.0
H877 H 0.40887 0.99111 0.57267 0.0
H878 H 0.27397 0.94736 0.55841 0.0
H879 H 0.25575 0.95074 0.6234 0.0
Li880 Li 0.98248 0.30797 0.60328 0.0
Li881 Li 0.96465 0.33122 0.59301 0.0
Li882 Li 0.94496 0.29786 0.61718 0.0
Li883 Li 0.94848 0.29177 0.57962 0.0
C884 C 0.9949 0.33988 0.63259 0.0
N885 N 0.03717 0.36436 0.65335 0.0
C886 C 0.01008 0.36343 0.62788 0.0
C887 C 0.00112 0.32882 0.64797 0.0
C888 C 0.03139 0.37549 0.63853 0.0
C889 C 0.02261 0.34148 0.65824 0.0
C890 C 0.9848 0.31527 0.55471 0.0
C891 C 0.97907 0.31575 0.51713 0.0
N892 N 0.99303 0.30635 0.51389 0.0
C893 C -0.00085 0.30568 0.551 0.0
C894 C 0.97474 0.32044 0.53765 0.0
C895 C 0.00308 0.3013 0.53024 0.0
C896 C 0.01304 0.29041 0.61221 0.0
N897 N 0.01177 0.30967 0.60693 0.0
C898 C 0.05274 0.33125 0.59987 0.0
C899 C 0.03108 0.32997 0.60118 0.0
C900 C 0.05449 0.31133 0.60428 0.0
C901 C 0.0344 0.29088 0.61107 0.0
H902 H 0.99732 0.27435 0.61628 0.0
H903 H 0.02938 0.34479 0.59648 0.0
C904 C 0.96101 0.37283 0.59496 0.0
N905 N 0.97131 0.36186 0.58533 0.0
C906 C 0.96474 0.39428 0.58729 0.0
C907 C 0.99105 0.39355 0.56111 0.0
C908 C 0.98656 0.37204 0.56908 0.0
C909 C 0.97973 0.40472 0.56996 0.0
H910 H 0.9495 0.3647 0.60828 0.0
H911 H 0.99498 0.36328 0.56202 0.0
C912 C 0.94139 0.25656 0.61461 0.0
N913 N 0.91303 0.21663 0.63757 0.0
C914 C 0.91987 0.23959 0.60642 0.0
C915 C 0.94857 0.25316 0.6344 0.0
C916 C 0.90578 0.21952 0.61828 0.0
C917 C 0.93394 0.23288 0.64579 0.0
C918 C 0.9193 0.31712 0.58936 0.0
C919 C 0.90789 0.32108 0.60611 0.0
C920 C 0.9188 0.32554 0.56923 0.0
C921 C 0.89621 0.33347 0.60242 0.0
C922 C 0.90699 0.33791 0.5662 0.0
N923 N 0.89603 0.34158 0.58272 0.0
C924 C 0.93189 0.28648 0.66046 0.0
C925 C 0.90106 0.27017 0.63549 0.0
C926 C 0.91646 0.27357 0.67671 0.0
N927 N 0.92401 0.28421 0.6403 0.0
C928 C 0.88501 0.25714 0.65123 0.0
C929 C 0.89273 0.25843 0.67209 0.0
H930 H 0.95026 0.29765 0.6638 0.0
H931 H 0.89539 0.26846 0.61924 0.0
C932 C 0.9432 0.25865 0.54883 0.0
N933 N 0.93391 0.27153 0.55632 0.0
C934 C 0.9327 0.24332 0.53194 0.0
C935 C 0.90293 0.2544 0.53116 0.0
C936 C 0.91413 0.26965 0.54795 0.0
C937 C 0.91216 0.24092 0.52294 0.0
H938 H 0.95871 0.26018 0.55609 0.0
H939 H 0.90678 0.27963 0.55456 0.0
O940 O 0.97411 0.32769 0.62212 0.0
O941 O 0.9804 0.31937 0.57493 0.0
O942 O 0.95509 0.27666 0.60355 0.0
O943 O 0.93093 0.30513 0.59267 0.0
H944 H 0.00553 0.37226 0.61603 0.0
H945 H 0.98968 0.31054 0.65165 0.0
H946 H 0.04335 0.3937 0.63499 0.0
H947 H 0.02774 0.33309 0.67005 0.0
H948 H 0.9713 0.31955 0.5038 0.0
H949 H 0.00694 0.30139 0.56397 0.0
H950 H 0.96357 0.32782 0.54024 0.0
H951 H 0.01406 0.29378 0.52714 0.0
H952 H 0.06762 0.34722 0.59415 0.0
H953 H 0.03501 0.27517 0.61467 0.0
H954 H 0.95594 0.40255 0.59471 0.0
H955 H 0.00266 0.40096 0.54769 0.0
H956 H 0.91396 0.24201 0.59121 0.0
H957 H 0.96506 0.26625 0.64106 0.0
H958 H 0.88902 0.2063 0.61221 0.0
H959 H 0.93917 0.23012 0.66121 0.0
H960 H 0.90826 0.3149 0.62183 0.0
H961 H 0.92766 0.32277 0.55612 0.0
H962 H 0.88737 0.33673 0.61525 0.0
H963 H 0.90659 0.34464 0.55074 0.0
H964 H 0.92305 0.27514 0.69263 0.0
H965 H 0.86694 0.24544 0.64697 0.0
H966 H 0.94054 0.23343 0.52606 0.0
H967 H 0.88684 0.25273 0.52511 0.0
Li968 Li 0.69844 0.64688 0.61725 0.0
Li969 Li 0.68488 0.67198 0.60121 0.0
Li970 Li 0.66417 0.63004 0.59741 0.0
Li971 Li 0.70227 0.65283 0.57956 0.0
C972 C 0.64822 0.63801 0.63299 0.0
N973 N 0.60389 0.6166 0.65046 0.0
C974 C 0.63556 0.64977 0.63377 0.0
C975 C 0.6385 0.61556 0.64155 0.0
C976 C 0.61314 0.63861 0.64255 0.0
C977 C 0.61602 0.60497 0.65017 0.0
C978 C 0.73279 0.69794 0.59289 0.0
C979 C 0.74264 0.72688 0.5656 0.0
N980 N 0.76381 0.74047 0.57484 0.0
C981 C 0.75466 0.71216 0.60208 0.0
C982 C 0.72673 0.70531 0.57446 0.0
C983 C 0.77009 0.73361 0.59273 0.0
C984 C 0.73841 0.65291 0.63732 0.0
N985 N 0.71508 0.64387 0.64025 0.0
C986 C 0.71703 0.62922 0.67419 0.0
C987 C 0.70424 0.63234 0.65826 0.0
C988 C 0.74118 0.63824 0.67154 0.0
C989 C 0.75187 0.65032 0.65284 0.0
H990 H 0.74645 0.66173 0.62268 0.0
H991 H 0.68564 0.62529 0.66011 0.0
C992 C 0.66224 0.69711 0.59392 0.0
N993 N 0.68188 0.69908 0.60268 0.0
C994 C 0.65977 0.71673 0.59164 0.0
C995 C 0.69745 0.74002 0.60827 0.0
C996 C 0.69908 0.71982 0.61042 0.0
C997 C 0.67779 0.73866 0.59835 0.0
H998 H 0.6487 0.6803 0.58829 0.0
H999 H 0.71442 0.72086 0.61757 0.0
C1000 C 0.69662 0.60857 0.60413 0.0
N1001 N 0.71178 0.58141 0.62427 0.0
C1002 C 0.71831 0.61096 0.59905 0.0
C1003 C 0.68246 0.592 0.61917 0.0
C1004 C 0.72571 0.59717 0.60947 0.0
C1005 C 0.69047 0.57854 0.62925 0.0
C1006 C 0.65966 0.64338 0.55746 0.0
C1007 C 0.65811 0.62284 0.54962 0.0
C1008 C 0.64656 0.6522 0.54801 0.0
C1009 C 0.64327 0.61132 0.53265 0.0
C1010 C 0.63194 0.64019 0.53103 0.0
N1011 N 0.63058 0.62015 0.5238 0.0
C1012 C 0.61631 0.61048 0.58971 0.0
C1013 C 0.62948 0.58305 0.58835 0.0
C1014 C 0.59467 0.59407 0.58148 0.0
N1015 N 0.6333 0.60487 0.59256 0.0
C1016 C 0.60803 0.56603 0.58015 0.0
C1017 C 0.59057 0.57172 0.57603 0.0
H1018 H 0.62008 0.62818 0.59258 0.0
H1019 H 0.64355 0.5793 0.58999 0.0
C1020 C 0.74401 0.66181 0.56079 0.0
N1021 N 0.7222 0.65758 0.55596 0.0
C1022 C 0.75978 0.66475 0.5448 0.0
C1023 C 0.73093 0.66038 0.51903 0.0
C1024 C 0.71567 0.65749 0.53557 0.0
C1025 C 0.75316 0.66364 0.52357 0.0
H1026 H 0.74912 0.66285 0.57715 0.0
H1027 H 0.6987 0.65518 0.53201 0.0
O1028 O 0.67015 0.64862 0.62427 0.0
O1029 O 0.7176 0.67683 0.60187 0.0
O1030 O 0.68936 0.62244 0.59456 0.0
O1031 O 0.67325 0.65425 0.57476 0.0
H1032 H 0.64295 0.66735 0.62775 0.0
H1033 H 0.64811 0.60632 0.64145 0.0
H1034 H 0.60312 0.64748 0.64312 0.0
H1035 H 0.60823 0.5875 0.65666 0.0
H1036 H 0.73817 0.73281 0.55137 0.0
H1037 H 0.75963 0.70667 0.61631 0.0
H1038 H 0.70993 0.69456 0.56705 0.0
H1039 H 0.78706 0.74481 0.59969 0.0
H1040 H 0.70818 0.61998 0.68846 0.0
H1041 H 0.77036 0.65726 0.65004 0.0
H1042 H 0.64441 0.71491 0.58375 0.0
H1043 H 0.71163 0.75658 0.61382 0.0
H1044 H 0.72937 0.62334 0.58725 0.0
H1045 H 0.66552 0.58963 0.62313 0.0
H1046 H 0.74255 0.59901 0.60579 0.0
H1047 H 0.67975 0.56582 0.64106 0.0
H1048 H 0.66812 0.61573 0.5567 0.0
H1049 H 0.64764 0.66816 0.55365 0.0
H1050 H 0.64179 0.59533 0.52656 0.0
H1051 H 0.62165 0.6468 0.52362 0.0
H1052 H 0.58163 0.5991 0.57863 0.0
H1053 H 0.6057 0.54913 0.57583 0.0
H1054 H 0.777 0.6679 0.54902 0.0
H1055 H 0.72518 0.65957 0.50288 0.0
H1056 H 0.0746 0.30666 0.99155 0.0
H1057 H 0.09741 0.29892 0.96541 0.0
H1058 H 0.15957 0.33872 0.00281 0.0
H1059 H 0.13698 0.34639 0.02892 0.0
H1060 H 0.13751 0.32883 0.94132 0.0
H1061 H 0.15478 0.27465 0.997 0.0
H1062 H 0.13286 0.28277 0.00195 0.0
H1063 H 0.16314 0.30301 0.00752 0.0
C1064 C 0.09317 0.3139 0.99405 0.0
C1065 C 0.10398 0.32682 0.0124 0.0
C1066 C 0.10614 0.30944 0.97916 0.0
C1067 C 0.13003 0.31785 0.98244 0.0
C1068 C 0.14101 0.33159 0.00028 0.0
H1069 H 0.24553 0.34102 0.90632 0.0
H1070 H 0.21192 0.34184 0.92152 0.0
C1071 C 0.1281 0.33594 0.01517 0.0
C1072 C 0.14362 0.31193 0.96763 0.0
H1073 H 0.17915 0.28835 0.96634 0.0
C1074 C 0.14639 0.31969 0.94663 0.0
C1075 C 0.1547 0.29952 0.97448 0.0
C1076 C 0.15104 0.28928 0.99641 0.0
C1077 C 0.16105 0.31647 0.93261 0.0
C1078 C 0.17354 0.30563 0.93998 0.0
C1079 C 0.16975 0.29683 0.96067 0.0
C1080 C 0.19184 0.30452 0.92728 0.0
C1081 C 0.16308 0.32481 0.91013 0.0
C1082 C 0.19177 0.2833 0.92536 0.0
C1083 C 0.21117 0.28291 0.91709 0.0
C1084 C 0.23088 0.30371 0.91042 0.0
C1085 C 0.2304 0.32471 0.91112 0.0
C1086 C 0.21113 0.32516 0.91969 0.0
H1087 H 0.14686 0.32457 0.90506 0.0
H1088 H 0.17766 0.34313 0.90901 0.0
H1089 H 0.16661 0.31389 0.89906 0.0
H1090 H 0.17712 0.26717 0.93115 0.0
H1091 H 0.21113 0.26649 0.9166 0.0
H1092 H 0.70665 0.79922 0.01915 0.0
H1093 H 0.71152 0.82789 0.99222 0.0
H1094 H 0.65209 0.77465 0.95833 0.0
H1095 H 0.64686 0.74587 0.98538 0.0
H1096 H 0.71588 0.82631 0.9449 0.0
H1097 H 0.63683 0.8279 0.97356 0.0
H1098 H 0.65167 0.81673 0.98956 0.0
H1099 H 0.63395 0.7999 0.96774 0.0
C1100 C 0.69465 0.7936 0.00594 0.0
C1101 C 0.67625 0.77036 0.00446 0.0
C1102 C 0.69757 0.80993 0.9905 0.0
C1103 C 0.68207 0.80335 0.97342 0.0
C1104 C 0.66415 0.78002 0.97148 0.0
H1105 H 0.66655 0.90325 0.89512 0.0
H1106 H 0.66227 0.86596 0.90648 0.0
C1107 C 0.66127 0.76362 0.98687 0.0
C1108 C 0.68384 0.82136 0.95853 0.0
H1109 H 0.65878 0.85424 0.94681 0.0
C1110 C 0.70328 0.83229 0.94507 0.0
C1111 C 0.66727 0.82892 0.95876 0.0
C1112 C 0.64627 0.81792 0.97322 0.0
C1113 C 0.70688 0.85106 0.93212 0.0
C1114 C 0.69092 0.85942 0.93313 0.0
C1115 C 0.67099 0.84781 0.946 0.0
C1116 C 0.69549 0.88143 0.92275 0.0
C1117 C 0.72781 0.8618 0.9176 0.0
C1118 C 0.71586 0.9025 0.92762 0.0
C1119 C 0.7185 0.92381 0.92091 0.0
C1120 C 0.70063 0.92453 0.90949 0.0
C1121 C 0.68076 0.90334 0.9037 0.0
C1122 C 0.67821 0.882 0.9103 0.0
H1123 H 0.73287 0.84874 0.91284 0.0
H1124 H 0.72437 0.86912 0.90315 0.0
H1125 H 0.74289 0.87613 0.92605 0.0
H1126 H 0.72922 0.90261 0.93758 0.0
H1127 H 0.73415 0.93979 0.9254 0.0
H1128 H 0.24964 0.89358 0.98638 0.0
H1129 H 0.22275 0.868 0.95908 0.0
H1130 H 0.1696 0.88216 0.98217 0.0
H1131 H 0.1965 0.90809 0.00918 0.0
H1132 H 0.18025 0.82813 0.96865 0.0
H1133 H 0.16619 0.88827 0.91794 0.0
H1134 H 0.19083 0.89834 0.93561 0.0
H1135 H 0.16267 0.89175 0.94559 0.0
C1136 C 0.23242 0.8917 0.98529 0.0
C1137 C 0.22515 0.90282 -9e-05 0.0
C1138 C 0.21708 0.87703 0.96975 0.0
C1139 C 0.19432 0.87346 0.96844 0.0
C1140 C 0.18725 0.88505 0.98264 0.0
H1141 H 0.06031 0.77933 0.92089 0.0
H1142 H 0.09633 0.81229 0.93436 0.0
C1143 C 0.20253 0.89963 0.99821 0.0
C1144 C 0.17711 0.85574 0.95384 0.0
H1145 H 0.13733 0.84748 0.91563 0.0
C1146 C 0.17114 0.83235 0.95675 0.0
C1147 C 0.16529 0.86138 0.93842 0.0
C1148 C 0.17171 0.88634 0.93403 0.0
C1149 C 0.15271 0.81424 0.9455 0.0
C1150 C 0.14029 0.8198 0.93058 0.0
C1151 C 0.1469 0.84329 0.92706 0.0
C1152 C 0.11906 0.80134 0.92005 0.0
C1153 C 0.14584 0.78927 0.95055 0.0
C1154 C 0.11998 0.78464 0.90697 0.0
C1155 C 0.09936 0.7657 0.89925 0.0
C1156 C 0.07755 0.76335 0.90429 0.0
C1157 C 0.07684 0.78079 0.91649 0.0
C1158 C 0.0974 0.7996 0.92428 0.0
H1159 H 0.15407 0.78791 0.96537 0.0
H1160 H 0.12657 0.77825 0.95215 0.0
H1161 H 0.15155 0.78205 0.9375 0.0
H1162 H 0.13659 0.78594 0.9032 0.0
H1163 H 0.10044 0.75268 0.88967 0.0
H1164 H 0.71274 0.77938 0.58197 0.0
H1165 H 0.70929 0.81155 0.56704 0.0
H1166 H 0.63725 0.77827 0.58706 0.0
H1167 H 0.64057 0.74588 0.60199 0.0
H1168 H 0.64206 0.78719 0.54539 0.0
H1169 H 0.705 0.86711 0.58827 0.0
H1170 H 0.71825 0.85071 0.57915 0.0
H1171 H 0.69515 0.83809 0.59846 0.0
C1172 C 0.6964 0.77929 0.58385 0.0
C1173 C 0.67689 0.76006 0.59306 0.0
C1174 C 0.69446 0.79774 0.57534 0.0
C1175 C 0.67307 0.79743 0.5761 0.0
C1176 C 0.65393 0.77889 0.58636 0.0
H1177 H 0.65487 0.90583 0.51283 0.0
H1178 H 0.65557 0.87988 0.54012 0.0
C1179 C 0.65583 0.76037 0.5948 0.0
C1180 C 0.66985 0.81455 0.56359 0.0
H1181 H 0.69381 0.87287 0.55339 0.0
C1182 C 0.6531 0.80593 0.54741 0.0
C1183 C 0.68413 0.83899 0.56631 0.0
C1184 C 0.70147 0.84927 0.58414 0.0
C1185 C 0.65105 0.82105 0.53321 0.0
C1186 C 0.66639 0.84539 0.53505 0.0
C1187 C 0.6823 0.85414 0.55187 0.0
C1188 C 0.66689 0.86179 0.51893 0.0
C1189 C 0.63274 0.81081 0.51611 0.0
C1190 C 0.67349 0.86045 0.49815 0.0
C1191 C 0.67326 0.87527 0.48259 0.0
C1192 C 0.66646 0.89178 0.48754 0.0
C1193 C 0.66036 0.89343 0.50854 0.0
C1194 C 0.66065 0.87859 0.52412 0.0
H1195 H 0.61855 0.79292 0.52023 0.0
H1196 H 0.62492 0.82202 0.51317 0.0
H1197 H 0.64101 0.80966 0.50122 0.0
H1198 H 0.67879 0.84787 0.49395 0.0
H1199 H 0.67853 0.87388 0.4667 0.0
H1200 H 0.07865 0.75892 0.51891 0.0
H1201 H 0.10086 0.78792 0.54638 0.0
H1202 H 0.14869 0.83398 0.49901 0.0
H1203 H 0.12648 0.80547 0.4716 0.0
H1204 H 0.14815 0.80566 0.55647 0.0
H1205 H 0.1322 0.87688 0.53247 0.0
H1206 H 0.11414 0.84708 0.52357 0.0
H1207 H 0.14143 0.8662 0.51056 0.0
C1208 C 0.0937 0.7754 0.51437 0.0
C1209 C 0.10088 0.77993 0.49313 0.0
C1210 C 0.10638 0.79187 0.53005 0.0
C1211 C 0.12618 0.81321 0.52466 0.0
C1212 C 0.13319 0.81781 0.50345 0.0
H1213 H 0.25655 0.90648 0.57139 0.0
H1214 H 0.21996 0.87207 0.56109 0.0
C1215 C 0.12065 0.80138 0.48784 0.0
C1216 C 0.14067 0.83027 0.54108 0.0
H1217 H 0.16782 0.88853 0.55213 0.0
C1218 C 0.15207 0.82368 0.5559 0.0
C1219 C 0.14537 0.85362 0.54065 0.0
C1220 C 0.13243 0.86131 0.5261 0.0
C1221 C 0.16957 0.84034 0.56906 0.0
C1222 C 0.17599 0.86415 0.56702 0.0
C1223 C 0.16312 0.87033 0.55352 0.0
C1224 C 0.19778 0.88319 0.57636 0.0
C1225 C 0.18155 0.8324 0.58447 0.0
C1226 C 0.19754 0.90095 0.58839 0.0
C1227 C 0.21853 0.92084 0.59411 0.0
C1228 C 0.24005 0.92336 0.58765 0.0
C1229 C 0.24021 0.90508 0.57644 0.0
C1230 C 0.2193 0.88525 0.57079 0.0
H1231 H 0.16953 0.81421 0.58983 0.0
H1232 H 0.19664 0.83259 0.57655 0.0
H1233 H 0.18805 0.84402 0.59851 0.0
H1234 H 0.18111 0.89981 0.59266 0.0
H1235 H 0.2179 0.93476 0.60259 0.0
H1236 H 0.05878 0.27698 0.58445 0.0
H1237 H 0.09428 0.27953 0.57033 0.0
H1238 H 0.13531 0.34826 0.59747 0.0
H1239 H 0.0997 0.34581 0.61182 0.0
H1240 H 0.14196 0.34775 0.55528 0.0
H1241 H 0.15031 0.27666 0.59263 0.0
H1242 H 0.12149 0.26639 0.5824 0.0
H1243 H 0.13218 0.2874 0.60358 0.0
C1244 C 0.0754 0.29231 0.5881 0.0
C1245 C 0.0764 0.31123 0.59922 0.0
C1246 C 0.09574 0.29372 0.58002 0.0
C1247 C 0.11749 0.31398 0.58302 0.0
C1248 C 0.1187 0.33242 0.59505 0.0
H1249 H 0.2438 0.32999 0.5201 0.0
H1250 H 0.21712 0.32857 0.54781 0.0
C1251 C 0.09835 0.33104 0.60315 0.0
C1252 C 0.13814 0.31711 0.57104 0.0
H1253 H 0.16946 0.29034 0.55873 0.0
C1254 C 0.14827 0.33546 0.55635 0.0
C1255 C 0.14649 0.30118 0.57252 0.0
C1256 C 0.1372 0.28194 0.5888 0.0
C1257 C 0.16559 0.33751 0.54229 0.0
C1258 C 0.17274 0.32062 0.54277 0.0
C1259 C 0.16366 0.30307 0.55824 0.0
C1260 C 0.1885 0.32019 0.52643 0.0
C1261 C 0.17572 0.35742 0.52665 0.0
C1262 C 0.18096 0.3154 0.5054 0.0
C1263 C 0.196 0.316 0.48962 0.0
C1264 C 0.21891 0.32142 0.49456 0.0
C1265 C 0.22621 0.32558 0.51579 0.0
C1266 C 0.21106 0.32489 0.53162 0.0
H1267 H 0.17298 0.37197 0.53178 0.0
H1268 H 0.19474 0.36431 0.52441 0.0
H1269 H 0.16699 0.351 0.51115 0.0
H1270 H 0.16344 0.31135 0.50118 0.0
H1271 H 0.18966 0.31223 0.47352 0.0
H1272 H 0.77823 0.69749 0.11028 0.0
H1273 H 0.81443 0.69817 0.10008 0.0
H1274 H 0.77467 0.63718 0.06119 0.0
H1275 H 0.73857 0.63596 0.0718 0.0
H1276 H 0.81283 0.63769 0.08113 0.0
H1277 H 0.83774 0.72167 0.0401 0.0
H1278 H 0.8331 0.72078 0.06814 0.0
H1279 H 0.80892 0.7034 0.05093 0.0
C1280 C 0.7772 0.68384 0.10006 0.0
C1281 C 0.75566 0.6669 0.09152 0.0
C1282 C 0.79788 0.68437 0.09412 0.0
C1283 C 0.79724 0.66802 0.07954 0.0
C1284 C 0.77557 0.65004 0.07237 0.0
H1285 H 0.86851 0.66382 0.97387 0.0
H1286 H 0.84488 0.66632 0.00223 0.0
C1287 C 0.75498 0.64947 0.07831 0.0
C1288 C 0.81881 0.67089 0.06959 0.0
H1289 H 0.8598 0.70387 0.0326 0.0
C1290 C 0.8235 0.6524 0.07088 0.0
C1291 C 0.83251 0.69004 0.05608 0.0
C1292 C 0.82784 0.71008 0.05352 0.0
C1293 C 0.8407 0.65195 0.05813 0.0
C1294 C 0.85357 0.67056 0.04394 0.0
C1295 C 0.84986 0.68969 0.04358 0.0
C1296 C 0.86842 0.66908 0.02722 0.0
C1297 C 0.84391 0.6309 0.05885 0.0
C1298 C 0.88953 0.66984 0.03193 0.0
C1299 C 0.90323 0.66855 0.01565 0.0
C1300 C 0.89603 0.66661 0.99447 0.0
C1301 C 0.87481 0.66578 0.98995 0.0
C1302 C 0.86121 0.66706 0.00614 0.0
H1303 H 0.83091 0.6169 0.06929 0.0
H1304 H 0.8424 0.62365 0.04273 0.0
H1305 H 0.86168 0.63623 0.06481 0.0
H1306 H 0.89548 0.67164 0.04811 0.0
H1307 H 0.91959 0.66944 0.01961 0.0
H1308 H 0.35905 0.21609 0.97386 0.0
H1309 H 0.35586 0.18997 0.00249 0.0
H1310 H 0.31357 0.21072 0.03818 0.0
H1311 H 0.31683 0.2372 0.00954 0.0
H1312 H 0.36903 0.20106 0.0459 0.0
H1313 H 0.2738 0.13842 0.03555 0.0
H1314 H 0.29101 0.15953 0.01551 0.0
H1315 H 0.28278 0.1688 0.03904 0.0
C1316 C 0.34926 0.21532 0.98787 0.0
C1317 C 0.3382 0.22873 0.98942 0.0
C1318 C 0.34739 0.20032 0.00418 0.0
C1319 C 0.33436 0.19833 0.02235 0.0
C1320 C 0.32344 0.2118 0.02413 0.0
H1321 H 0.30352 0.08741 0.11566 0.0
H1322 H 0.3071 0.12364 0.10148 0.0
C1323 C 0.32528 0.22686 0.00776 0.0
C1324 C 0.33216 0.18175 0.0391 0.0
H1325 H 0.29407 0.12814 0.05963 0.0
C1326 C 0.35257 0.18529 0.04919 0.0
C1327 C 0.31063 0.16133 0.04347 0.0
C1328 C 0.28826 0.15657 0.0328 0.0
C1329 C 0.35223 0.16836 0.06275 0.0
C1330 C 0.331 0.14727 0.06603 0.0
C1331 C 0.31031 0.14437 0.05705 0.0
C1332 C 0.33045 0.12681 0.07609 0.0
C1333 C 0.37474 0.17285 0.07292 0.0
C1334 C 0.34231 0.11664 0.06644 0.0
C1335 C 0.34009 0.09592 0.07425 0.0
C1336 C 0.32596 0.08487 0.09198 0.0
C1337 C 0.31445 0.09538 0.10193 0.0
C1338 C 0.31656 0.11612 0.09395 0.0
H1339 H 0.38722 0.19189 0.07456 0.0
H1340 H 0.37151 0.16457 0.08875 0.0
H1341 H 0.3831 0.16534 0.06283 0.0
H1342 H 0.3526 0.12426 0.05229 0.0
H1343 H 0.34868 0.08807 0.06576 0.0
H1344 H 0.92122 0.26755 0.06259 0.0
H1345 H 0.88697 0.23477 0.04666 0.0
H1346 H 0.87809 0.19263 0.10165 0.0
H1347 H 0.91223 0.22579 0.11813 0.0
H1348 H 0.88407 0.19078 0.03866 0.0
H1349 H 0.81145 0.18288 0.08932 0.0
H1350 H 0.83955 0.20936 0.0881 0.0
H1351 H 0.83642 0.18452 0.10238 0.0
C1352 C 0.91165 0.25157 0.07162 0.0
C1353 C 0.91932 0.24937 0.09175 0.0
C1354 C 0.89221 0.23277 0.06238 0.0
C1355 C 0.87997 0.21138 0.07304 0.0
C1356 C 0.88718 0.20913 0.0933 0.0
H1357 H 0.78491 0.08519 0.00176 0.0
H1358 H 0.81438 0.11149 0.02709 0.0
C1359 C 0.90675 0.228 0.10261 0.0
C1360 C 0.86066 0.1912 0.06209 0.0
H1361 H 0.80133 0.15616 0.06113 0.0
C1362 C 0.86598 0.18301 0.04366 0.0
C1363 C 0.83715 0.18131 0.06867 0.0
C1364 C 0.83061 0.18997 0.08812 0.0
C1365 C 0.84834 0.16554 0.03125 0.0
C1366 C 0.82477 0.15576 0.03768 0.0
C1367 C 0.81945 0.16361 0.05638 0.0
C1368 C 0.80541 0.1387 0.02427 0.0
C1369 C 0.85501 0.15841 0.0109 0.0
C1370 C 0.79015 0.14501 0.01489 0.0
C1371 C 0.77333 0.13007 0.00046 0.0
C1372 C 0.77147 0.10852 0.99517 0.0
C1373 C 0.78621 0.10186 0.00524 0.0
C1374 C 0.80299 0.1168 0.01974 0.0
H1375 H 0.87333 0.17089 0.0062 0.0
H1376 H 0.85329 0.14094 0.01295 0.0
H1377 H 0.84323 0.1572 0.99786 0.0
H1378 H 0.7918 0.16188 0.01818 0.0
H1379 H 0.76238 0.13579 0.99284 0.0
H1380 H 0.3327 0.08268 0.4763 0.0
H1381 H 0.32871 0.10543 0.44761 0.0
H1382 H 0.3392 0.1593 0.49213 0.0
H1383 H 0.34327 0.13685 0.52069 0.0
H1384 H 0.2973 0.12084 0.44223 0.0
H1385 H 0.38706 0.19618 0.44674 0.0
H1386 H 0.37864 0.1686 0.45942 0.0
H1387 H 0.37303 0.18976 0.47207 0.0
C1388 C 0.33411 0.09937 0.47993 0.0
C1389 C 0.33857 0.10813 0.5007 0.0
C1390 C 0.33192 0.11235 0.46354 0.0
C1391 C 0.33421 0.13428 0.46768 0.0
C1392 C 0.33809 0.14275 0.48848 0.0
H1393 H 0.2824 0.21614 0.41719 0.0
H1394 H 0.28727 0.18425 0.43045 0.0
C1395 C 0.34037 0.12988 0.50479 0.0
C1396 C 0.33188 0.14826 0.45058 0.0
H1397 H 0.35824 0.2036 0.43075 0.0
C1398 C 0.31077 0.13881 0.43938 0.0
C1399 C 0.3497 0.17147 0.44644 0.0
C1400 C 0.37347 0.182 0.45665 0.0
C1401 C 0.30636 0.15256 0.4253 0.0
C1402 C 0.32331 0.17648 0.42279 0.0
C1403 C 0.34507 0.18537 0.43283 0.0
C1404 C 0.31818 0.19324 0.41181 0.0
C1405 C 0.28344 0.14141 0.41357 0.0
C1406 C 0.33394 0.20904 0.39691 0.0
C1407 C 0.33135 0.22756 0.38952 0.0
C1408 C 0.31289 0.23051 0.39684 0.0
C1409 C 0.29649 0.21401 0.41091 0.0
C1410 C 0.29922 0.19568 0.41845 0.0
H1411 H 0.27705 0.12259 0.41057 0.0
H1412 H 0.2701 0.14253 0.42339 0.0
H1413 H 0.28498 0.15024 0.39825 0.0
H1414 H 0.34878 0.2076 0.39166 0.0
H1415 H 0.34423 0.24006 0.37868 0.0
H1416 H 0.88957 0.24545 0.48848 0.0
H1417 H 0.86569 0.21534 0.46263 0.0
H1418 H 0.88362 0.16763 0.49221 0.0
H1419 H 0.90653 0.19711 0.5187 0.0
H1420 H 0.87503 0.18902 0.43351 0.0
H1421 H 0.81247 0.13281 0.49536 0.0
H1422 H 0.83435 0.16288 0.50012 0.0
H1423 H 0.84214 0.14039 0.50049 0.0
C1424 C 0.88835 0.22851 0.48956 0.0
C1425 C 0.89972 0.22362 0.50587 0.0
C1426 C 0.87489 0.21142 0.47465 0.0
C1427 C 0.87258 0.18916 0.47576 0.0
C1428 C 0.88485 0.18459 0.49132 0.0
H1429 H 0.78494 0.0573 0.41403 0.0
H1430 H 0.81769 0.09055 0.4313 0.0
C1431 C 0.89817 0.20158 0.50632 0.0
C1432 C 0.85636 0.17032 0.46141 0.0
H1433 H 0.80724 0.11646 0.4612 0.0
C1434 C 0.86018 0.17315 0.43951 0.0
C1435 C 0.83689 0.14975 0.46933 0.0
C1436 C 0.83103 0.1463 0.49259 0.0
C1437 C 0.84524 0.15566 0.42532 0.0
C1438 C 0.82604 0.13501 0.43332 0.0
C1439 C 0.82219 0.13226 0.45518 0.0
C1440 C 0.80913 0.11605 0.41948 0.0
C1441 C 0.85021 0.15918 0.40196 0.0
C1442 C 0.79384 0.11954 0.40667 0.0
C1443 C 0.7751 0.10055 0.39666 0.0
C1444 C 0.77135 0.07779 0.39939 0.0
C1445 C 0.78752 0.07463 0.4113 0.0
C1446 C 0.80617 0.09358 0.42131 0.0
H1447 H 0.86823 0.17363 0.39866 0.0
H1448 H 0.84783 0.1429 0.39449 0.0
H1449 H 0.83772 0.16357 0.39446 0.0
H1450 H 0.79564 0.13672 0.40533 0.0
H1451 H 0.76299 0.10353 0.38751 0.0
H1452 H 0.9092 0.65006 0.43396 0.0
H1453 H 0.87305 0.64733 0.44615 0.0
H1454 H 0.8796 0.69733 0.39901 0.0
H1455 H 0.91586 0.69983 0.38619 0.0
H1456 H 0.8728 0.70833 0.44043 0.0
H1457 H 0.80723 0.61698 0.42092 0.0
H1458 H 0.83225 0.61901 0.43398 0.0
H1459 H 0.83561 0.63221 0.40839 0.0
C1460 C 0.90269 0.65996 0.42565 0.0
C1461 C 0.91542 0.67503 0.40893 0.0
C1462 C 0.88197 0.65839 0.43271 0.0
C1463 C 0.87344 0.67181 0.42324 0.0
C1464 C 0.88583 0.68667 0.40638 0.0
H1465 H 0.76256 0.68793 0.48625 0.0
H1466 H 0.78957 0.69069 0.45825 0.0
C1467 C 0.90659 0.68817 0.39918 0.0
C1468 C 0.85286 0.67175 0.43257 0.0
H1469 H 0.79748 0.63453 0.44992 0.0
C1470 C 0.85608 0.69237 0.44206 0.0
C1471 C 0.83111 0.65091 0.43459 0.0
C1472 C 0.82624 0.62858 0.42373 0.0
C1473 C 0.83872 0.69224 0.45497 0.0
C1474 C 0.81758 0.671 0.45816 0.0
C1475 C 0.81379 0.65075 0.44753 0.0
C1476 C 0.80042 0.6688 0.47432 0.0
C1477 C 0.84368 0.7144 0.46623 0.0
C1478 C 0.7973 0.65523 0.49235 0.0
C1479 C 0.78191 0.65355 0.50824 0.0
C1480 C 0.76923 0.66534 0.50639 0.0
C1481 C 0.77203 0.67859 0.48809 0.0
C1482 C 0.78755 0.68032 0.47217 0.0
H1483 H 0.8621 0.7286 0.46417 0.0
H1484 H 0.83208 0.7206 0.4599 0.0
H1485 H 0.83999 0.71104 0.48338 0.0
H1486 H 0.80704 0.64616 0.49425 0.0
H1487 H 0.77982 0.64286 0.52195 0.0
H1488 H 0.24779 0.34367 0.29625 0.0
H1489 H 0.22318 0.34715 0.26944 0.0
H1490 H 0.22205 0.40198 0.30556 0.0
H1491 H 0.2475 0.3993 0.33205 0.0
H1492 H 0.17896 0.33959 0.27554 0.0
H1493 H 0.2373 0.42985 0.24639 0.0
H1494 H 0.24783 0.41422 0.26208 0.0
H1495 H 0.2331 0.42777 0.2745 0.0
C1496 C 0.24281 0.35688 0.29826 0.0
C1497 C 0.24972 0.37129 0.31626 0.0
C1498 C 0.22856 0.3587 0.28301 0.0
C1499 C 0.22098 0.37498 0.2854 0.0
C1500 C 0.22804 0.38958 0.3032 0.0
H1501 H 0.10027 0.36331 0.21797 0.0
H1502 H 0.12768 0.36663 0.24558 0.0
C1503 C 0.24237 0.38784 0.31845 0.0
C1504 C 0.20461 0.37565 0.26984 0.0
H1505 H 0.19794 0.41092 0.23453 0.0
C1506 C 0.1831 0.35518 0.26655 0.0
C1507 C 0.21016 0.39597 0.25806 0.0
C1508 C 0.23343 0.41816 0.26025 0.0
C1509 C 0.16695 0.35443 0.25177 0.0
C1510 C 0.17228 0.37488 0.2403 0.0
C1511 C 0.19381 0.39536 0.24355 0.0
C1512 C 0.15624 0.37492 0.22401 0.0
C1513 C 0.14465 0.33156 0.24815 0.0
C1514 C 0.16355 0.37947 0.20289 0.0
C1515 C 0.14807 0.37791 0.18715 0.0
C1516 C 0.12495 0.37176 0.19222 0.0
C1517 C 0.11796 0.36813 0.21353 0.0
C1518 C 0.13351 0.36978 0.2293 0.0
H1519 H 0.14581 0.31646 0.2544 0.0
H1520 H 0.13003 0.332 0.25638 0.0
H1521 H 0.14038 0.32867 0.23106 0.0
H1522 H 0.18109 0.38366 0.19851 0.0
H1523 H 0.15416 0.38129 0.17095 0.0
H1524 H 0.64948 0.78385 0.16609 0.0
H1525 H 0.64576 0.80876 0.19258 0.0
H1526 H 0.632 0.7571 0.24053 0.0
H1527 H 0.63607 0.73214 0.21412 0.0
H1528 H 0.60615 0.79725 0.22014 0.0
H1529 H 0.68806 0.81957 0.26331 0.0
H1530 H 0.68235 0.80777 0.23685 0.0
H1531 H 0.668 0.78898 0.25897 0.0
C1532 C 0.64588 0.77787 0.18231 0.0
C1533 C 0.6433 0.75614 0.18808 0.0
C1534 C 0.64358 0.79203 0.19737 0.0
C1535 C 0.63883 0.78483 0.21849 0.0
C1536 C 0.63591 0.76303 0.22431 0.0
H1537 H 0.60148 0.85068 0.31907 0.0
H1538 H 0.60126 0.82295 0.29316 0.0
C1539 C 0.63809 0.74876 0.20921 0.0
C1540 C 0.63715 0.80035 0.23437 0.0
H1541 H 0.66505 0.83466 0.277 0.0
C1542 C 0.61894 0.80537 0.23265 0.0
C1543 C 0.65404 0.81104 0.25048 0.0
C1544 C 0.67436 0.80678 0.25254 0.0
C1545 C 0.61715 0.82086 0.2467 0.0
C1546 C 0.63396 0.83143 0.26288 0.0
C1547 C 0.65216 0.8264 0.26459 0.0
C1548 C 0.63338 0.84829 0.2779 0.0
C1549 C 0.59766 0.82624 0.24387 0.0
C1550 C 0.65157 0.87162 0.27791 0.0
C1551 C 0.65177 0.88744 0.29267 0.0
C1552 C 0.63387 0.88014 0.30781 0.0
C1553 C 0.61554 0.85677 0.30763 0.0
C1554 C 0.6153 0.84098 0.29278 0.0
H1555 H 0.58894 0.82025 0.22829 0.0
H1556 H 0.58434 0.81724 0.25639 0.0
H1557 H 0.60439 0.84531 0.24539 0.0
H1558 H 0.66574 0.87752 0.2666 0.0
H1559 H 0.66633 0.90521 0.29264 0.0
H1560 H 0.21829 0.84599 0.16095 0.0
H1561 H 0.19313 0.819 0.18828 0.0
H1562 H 0.23107 0.87103 0.23597 0.0
H1563 H 0.25572 0.89854 0.20863 0.0
H1564 H 0.20255 0.80052 0.22326 0.0
H1565 H 0.16378 0.85495 0.24636 0.0
H1566 H 0.18113 0.8605 0.22277 0.0
H1567 H 0.19509 0.86988 0.24808 0.0
C1568 C 0.2212 0.85178 0.17724 0.0
C1569 C 0.23883 0.87456 0.18257 0.0
C1570 C 0.20692 0.83626 0.19284 0.0
C1571 C 0.20995 0.84317 0.21409 0.0
C1572 C 0.22813 0.86552 0.2196 0.0
H1573 H 0.14668 0.75229 0.32252 0.0
H1574 H 0.17318 0.77702 0.29472 0.0
C1575 C 0.24239 0.88113 0.20398 0.0
C1576 C 0.19374 0.82708 0.23034 0.0
H1577 H 0.15379 0.82163 0.26746 0.0
C1578 C 0.19186 0.8051 0.23293 0.0
C1579 C 0.17952 0.83296 0.24266 0.0
C1580 C 0.17975 0.85575 0.23974 0.0
C1581 C 0.17634 0.78892 0.24771 0.0
C1582 C 0.16268 0.79511 0.26049 0.0
C1583 C 0.16439 0.81699 0.25773 0.0
C1584 C 0.14644 0.7792 0.27685 0.0
C1585 C 0.17437 0.7652 0.24918 0.0
C1586 C 0.12267 0.77252 0.27623 0.0
C1587 C 0.10754 0.75872 0.2923 0.0
C1588 C 0.11591 0.75137 0.30935 0.0
C1589 C 0.13969 0.75782 0.30973 0.0
C1590 C 0.15483 0.77171 0.29371 0.0
H1591 H 0.18071 0.76084 0.23455 0.0
H1592 H 0.18526 0.7652 0.26251 0.0
H1593 H 0.15603 0.75128 0.2521 0.0
H1594 H 0.11588 0.77826 0.26342 0.0
H1595 H 0.08943 0.75439 0.29166 0.0
H1596 H 0.84369 0.60864 0.8324 0.0
H1597 H 0.81622 0.6064 0.8054 0.0
H1598 H 0.87159 0.63375 0.7591 0.0
H1599 H 0.89924 0.63619 0.78608 0.0
H1600 H 0.82117 0.64529 0.7837 0.0
H1601 H 0.81735 0.57831 0.72825 0.0
H1602 H 0.82824 0.58147 0.75491 0.0
H1603 H 0.84644 0.60114 0.73456 0.0
C1604 C 0.84997 0.61399 0.81642 0.0
C1605 C 0.87365 0.62273 0.81138 0.0
C1606 C 0.83424 0.6126 0.80101 0.0
C1607 C 0.84184 0.61974 0.78024 0.0
C1608 C 0.86528 0.62772 0.77496 0.0
H1609 H 0.78423 0.67062 0.68628 0.0
H1610 H 0.8078 0.66512 0.71295 0.0
C1611 C 0.88106 0.62912 0.79038 0.0
C1612 C 0.82573 0.62082 0.76466 0.0
H1613 H 0.80078 0.6011 0.71628 0.0
C1614 C 0.81657 0.6355 0.76902 0.0
C1615 C 0.81965 0.60789 0.74563 0.0
C1616 C 0.82824 0.59114 0.74057 0.0
C1617 C 0.80191 0.63805 0.75462 0.0
C1618 C 0.7965 0.62578 0.73527 0.0
C1619 C 0.80515 0.61062 0.7311 0.0
C1620 C 0.78227 0.62889 0.719 0.0
C1621 C 0.79228 0.65382 0.76023 0.0
C1622 C 0.76028 0.61021 0.71338 0.0
C1623 C 0.74678 0.61327 0.69811 0.0
C1624 C 0.7552 0.63502 0.68806 0.0
C1625 C 0.77735 0.65363 0.69364 0.0
C1626 C 0.79075 0.65057 0.70897 0.0
H1627 H 0.79345 0.65747 0.77745 0.0
H1628 H 0.80249 0.67073 0.75184 0.0
H1629 H 0.77373 0.64592 0.75527 0.0
H1630 H 0.75352 0.59331 0.72091 0.0
H1631 H 0.72993 0.59854 0.69392 0.0
H1632 H 0.34278 0.24902 0.78073 0.0
H1633 H 0.34785 0.22301 0.75651 0.0
H1634 H 0.40844 0.23387 0.79148 0.0
H1635 H 0.40349 0.25999 0.81582 0.0
H1636 H 0.41309 0.23289 0.74657 0.0
H1637 H 0.33143 0.15697 0.77648 0.0
H1638 H 0.32762 0.18061 0.76743 0.0
H1639 H 0.34587 0.18479 0.78995 0.0
C1640 C 0.35732 0.24604 0.78313 0.0
C1641 C 0.3726 0.25633 0.80027 0.0
C1642 C 0.36016 0.23117 0.76933 0.0
C1643 C 0.3782 0.22616 0.77253 0.0
C1644 C 0.39433 0.23744 0.78886 0.0
H1645 H 0.3685 0.10232 0.71257 0.0
H1646 H 0.37539 0.13232 0.73889 0.0
C1647 C 0.39154 0.25243 0.80266 0.0
C1648 C 0.3794 0.20825 0.75941 0.0
H1649 H 0.34755 0.15089 0.74505 0.0
C1650 C 0.39889 0.2149 0.74634 0.0
C1651 C 0.36109 0.1847 0.75954 0.0
C1652 C 0.34042 0.17623 0.77426 0.0
C1653 C 0.40003 0.19877 0.73261 0.0
C1654 C 0.381 0.17557 0.73178 0.0
C1655 C 0.36203 0.16873 0.74557 0.0
C1656 C 0.37961 0.15842 0.71592 0.0
C1657 C 0.42153 0.20675 0.7191 0.0
C1658 C 0.37982 0.16319 0.69432 0.0
C1659 C 0.37603 0.14618 0.6793 0.0
C1660 C 0.37166 0.12392 0.68559 0.0
C1661 C 0.37199 0.11934 0.70723 0.0
C1662 C 0.37583 0.13642 0.72227 0.0
H1663 H 0.43704 0.22186 0.72636 0.0
H1664 H 0.42544 0.19242 0.71656 0.0
H1665 H 0.41858 0.21243 0.70348 0.0
H1666 H 0.38219 0.17984 0.68906 0.0
H1667 H 0.37623 0.15038 0.66274 0.0
H1668 H 0.72733 0.12603 0.80207 0.0
H1669 H 0.75288 0.15345 0.77499 0.0
H1670 H 0.80103 0.12783 0.78272 0.0
H1671 H 0.77545 0.10023 0.8095 0.0
H1672 H 0.79745 0.18875 0.77892 0.0
H1673 H 0.79406 0.12556 0.71946 0.0
H1674 H 0.77391 0.11684 0.74137 0.0
H1675 H 0.80277 0.12101 0.74501 0.0
C1676 C 0.74328 0.12615 0.79785 0.0
C1677 C 0.7493 0.11085 0.80776 0.0
C1678 C 0.75784 0.14178 0.78238 0.0
C1679 C 0.77867 0.14242 0.77656 0.0
C1680 C 0.78472 0.1272 0.78649 0.0
H1681 H 0.8999 0.23218 0.70114 0.0
H1682 H 0.87188 0.20483 0.72693 0.0
C1683 C 0.7701 0.11145 0.80182 0.0
C1684 C 0.79466 0.15977 0.76089 0.0
H1685 H 0.82428 0.16533 0.715 0.0
C1686 C 0.80313 0.18362 0.76484 0.0
C1687 C 0.80203 0.15304 0.7425 0.0
C1688 C 0.79254 0.12771 0.7367 0.0
C1689 C 0.81925 0.20093 0.75117 0.0
C1690 C 0.827 0.19418 0.73311 0.0
C1691 C 0.81837 0.17038 0.729 0.0
C1692 C 0.84416 0.21157 0.71826 0.0
C1693 C 0.82833 0.22634 0.75631 0.0
C1694 C 0.83776 0.22439 0.70495 0.0
C1695 C 0.85369 0.23999 0.6902 0.0
C1696 C 0.8763 0.24307 0.68862 0.0
C1697 C 0.88273 0.23043 0.70222 0.0
C1698 C 0.86673 0.2147 0.71684 0.0
H1699 H 0.82347 0.22876 0.77254 0.0
H1700 H 0.84767 0.23646 0.75474 0.0
H1701 H 0.82094 0.2337 0.74495 0.0
H1702 H 0.82032 0.22202 0.70573 0.0
H1703 H 0.8483 0.24956 0.67997 0.0
H1704 H 0.06179 0.46426 0.03961 0.0
H1705 H 0.05693 0.49174 0.01724 0.0
H1706 H 0.98881 0.46809 0.0444 0.0
H1707 H 0.99375 0.441 0.06719 0.0
H1708 H 0.02102 0.47872 0.98737 0.0
H1709 H 0.01969 0.53957 0.04706 0.0
H1710 H 0.03084 0.52015 0.05271 0.0
H1711 H -0.00013 0.50928 0.05271 0.0
C1712 C 0.04601 0.46532 0.04119 0.0
C1713 C 0.02816 0.45051 0.0552 0.0
C1714 C 0.0432 0.48089 0.02829 0.0
C1715 C 0.02262 0.48208 0.02932 0.0
C1716 C 0.00499 0.4677 0.04361 0.0
H1717 H 0.95822 0.54814 0.9628 0.0
H1718 H 0.96829 0.52439 0.98514 0.0
C1719 C 0.00775 0.45209 0.05647 0.0
C1720 C 0.01885 0.4972 0.01453 0.0
H1721 H 0.00653 0.54153 0.01248 0.0
C1722 C 0.0181 0.49263 0.9928 0.0
C1723 C 0.01501 0.51526 0.02172 0.0
C1724 C 0.01659 0.52155 0.04481 0.0
C1725 C 0.01279 0.50516 0.97807 0.0
C1726 C 0.00851 0.52294 0.98531 0.0
C1727 C 0.00972 0.5278 0.00701 0.0
C1728 C 0.00212 0.53634 0.97074 0.0
C1729 C 0.011 0.49874 0.955 0.0
C1730 C 0.01777 0.55081 0.95513 0.0
C1731 C 0.01195 0.56424 0.94213 0.0
C1732 C 0.99044 0.56353 0.94463 0.0
C1733 C 0.97473 0.54878 0.96016 0.0
C1734 C 0.98055 0.53537 0.97309 0.0
H1735 H 0.0094 0.48132 0.95266 0.0
H1736 H 0.99573 0.49862 0.94757 0.0
H1737 H 0.027 0.51191 0.94667 0.0
H1738 H 0.03466 0.55207 0.95327 0.0
H1739 H 0.02438 0.57533 0.93027 0.0
H1740 H 0.53663 0.54922 0.08072 0.0
H1741 H 0.51266 0.51598 0.0574 0.0
H1742 H 0.52877 0.56322 0.00493 0.0
H1743 H 0.55297 0.59635 0.02789 0.0
H1744 H 0.4732 0.50799 0.03053 0.0
H1745 H 0.54899 0.51534 0.98571 0.0
H1746 H 0.55199 0.52879 0.01124 0.0
H1747 H 0.54809 0.54201 0.98799 0.0
C1748 C 0.53497 0.55248 0.06423 0.0
C1749 C 0.5466 0.57539 0.05616 0.0
C1750 C 0.52127 0.53353 0.05098 0.0
C1751 C 0.51925 0.53721 0.02945 0.0
C1752 C 0.53036 0.56005 0.02147 0.0
H1753 H 0.423 0.44629 0.93434 0.0
H1754 H 0.44706 0.47835 0.95852 0.0
C1755 C 0.54393 0.57897 0.03468 0.0
C1756 C 0.50576 0.51721 0.01514 0.0
H1757 H 0.51124 0.48924 0.97202 0.0
C1758 C 0.48147 0.50378 0.01779 0.0
C1759 C 0.51673 0.5117 0.99872 0.0
C1760 C 0.54291 0.52505 0.99577 0.0
C1761 C 0.46773 0.48526 0.00403 0.0
C1762 C 0.47862 0.48028 0.98715 0.0
C1763 C 0.50298 0.49332 0.98485 0.0
C1764 C 0.46495 0.46145 0.9718 0.0
C1765 C 0.4417 0.47107 0.0077 0.0
C1766 C 0.46766 0.44173 0.97083 0.0
C1767 C 0.45392 0.42336 0.9571 0.0
C1768 C 0.43733 0.42449 0.94398 0.0
C1769 C 0.43533 0.44472 0.94447 0.0
C1770 C 0.44904 0.46303 0.95826 0.0
H1771 H 0.43683 0.47371 0.02386 0.0
H1772 H 0.43266 0.47646 0.99618 0.0
H1773 H 0.43527 0.45214 0.00534 0.0
H1774 H 0.47995 0.44028 0.98114 0.0
H1775 H 0.4557 0.40793 0.95733 0.0
H1776 H 0.41067 0.99653 0.02005 0.0
H1777 H 0.44256 0.00029 0.99775 0.0
H1778 H 0.46123 0.96592 0.04542 0.0
H1779 H 0.42912 0.96192 0.06782 0.0
H1780 H 0.4894 0.02312 0.00537 0.0
H1781 H 0.45647 0.92853 0.99285 0.0
H1782 H 0.43853 0.9394 0.0039 0.0
H1783 H 0.4594 0.9368 0.02017 0.0
C1784 C 0.42166 0.9899 0.02586 0.0
C1785 C 0.41743 0.97897 0.04572 0.0
C1786 C 0.43979 0.99196 0.01305 0.0
C1787 C 0.45404 0.98308 0.01978 0.0
C1788 C 0.45008 0.97239 0.0397 0.0
H1789 H 0.57887 0.989 0.97226 0.0
H1790 H 0.54479 0.983 0.99236 0.0
C1791 C 0.43181 0.97019 0.05251 0.0
C1792 C 0.47338 0.9856 0.00609 0.0
H1793 H 0.49516 0.95476 0.98098 0.0
C1794 C 0.49058 0.00817 -9e-05 0.0
C1795 C 0.4748 0.96604 0.99893 0.0
C1796 C 0.45621 0.94131 0.00412 0.0
C1797 C 0.50948 0.01176 0.98716 0.0
C1798 C 0.51105 0.99224 0.98027 0.0
C1799 C 0.49382 0.96966 0.98631 0.0
C1800 C 0.531 0.995 0.96747 0.0
C1801 C 0.52794 0.0364 0.98155 0.0
C1802 C 0.53427 0.00339 0.94667 0.0
C1803 C 0.55365 0.0066 0.93497 0.0
C1804 C 0.57003 0.00142 0.9439 0.0
C1805 C 0.5664 0.99272 0.96469 0.0
C1806 C 0.54702 0.98943 0.9763 0.0
H1807 H 0.52635 0.04962 0.99116 0.0
H1808 H 0.54569 0.03885 0.98384 0.0
H1809 H 0.52617 0.03968 0.96465 0.0
H1810 H 0.52187 0.0075 0.93953 0.0
H1811 H 0.55577 0.01307 0.91894 0.0
H1812 H 0.58322 0.02658 0.43892 0.0
H1813 H 0.55674 0.03248 0.4618 0.0
H1814 H 0.51623 0.95827 0.47308 0.0
H1815 H 0.54298 0.95217 0.45075 0.0
H1816 H 0.49056 0.98473 0.46248 0.0
H1817 H 0.55435 0.02082 0.52867 0.0
H1818 H 0.56509 0.0325 0.50275 0.0
H1819 H 0.55598 0.00251 0.50829 0.0
C1820 C 0.56872 0.01149 0.44629 0.0
C1821 C 0.56534 0.98891 0.44311 0.0
C1822 C 0.55359 0.01491 0.45928 0.0
C1823 C 0.53477 0.99582 0.46923 0.0
C1824 C 0.53074 0.97319 0.46551 0.0
H1825 H 0.44965 0.99877 0.57315 0.0
H1826 H 0.47413 0.99005 0.54999 0.0
C1827 C 0.54595 0.96974 0.45262 0.0
C1828 C 0.51966 -0.00039 0.48397 0.0
H1829 H 0.5194 0.02214 0.53244 0.0
C1830 C 0.49678 0.99284 0.4778 0.0
C1831 C 0.52785 0.00993 0.504 0.0
C1832 C 0.5521 0.01676 0.51151 0.0
C1833 C 0.48195 0.99665 0.49104 0.0
C1834 C 0.49039 0.00764 0.51082 0.0
C1835 C 0.51309 0.01387 0.51719 0.0
C1836 C 0.47601 0.0132 0.52496 0.0
C1837 C 0.45736 0.98881 0.48384 0.0
C1838 C 0.46941 0.02941 0.51865 0.0
C1839 C 0.45551 0.03442 0.53179 0.0
C1840 C 0.44802 0.02336 0.55153 0.0
C1841 C 0.45502 0.00742 0.55797 0.0
C1842 C 0.46903 0.00248 0.54482 0.0
H1843 H 0.45183 0.9758 0.47084 0.0
H1844 H 0.44479 0.98103 0.49713 0.0
H1845 H 0.45648 0.00416 0.47794 0.0
H1846 H 0.47492 0.03809 0.50349 0.0
H1847 H 0.45013 0.04652 0.52623 0.0
H1848 H 0.0205 0.44311 0.55767 0.0
H1849 H 0.02505 0.47704 0.53798 0.0
H1850 H 0.95052 0.44927 0.54039 0.0
H1851 H 0.9458 0.41514 0.55999 0.0
H1852 H 0.9721 0.46168 0.49869 0.0
H1853 H 0.01675 0.53299 0.55758 0.0
H1854 H 0.02889 0.51412 0.55441 0.0
H1855 H -7e-05 0.50252 0.56498 0.0
C1856 C 0.00512 0.44439 0.55421 0.0
C1857 C 0.9828 0.42652 0.56034 0.0
C1858 C 0.00776 0.46381 0.54309 0.0
C1859 C 0.98813 0.46567 0.5379 0.0
C1860 C 0.96587 0.44816 0.5444 0.0
H1861 H 0.98892 0.5837 0.47603 0.0
H1862 H 0.98041 0.55071 0.49923 0.0
C1863 C 0.96323 0.42879 0.55568 0.0
C1864 C 0.99076 0.48505 0.52434 0.0
H1865 H 0.0159 0.54444 0.52212 0.0
C1866 C 0.98151 0.47977 0.50384 0.0
C1867 C 0.00296 0.50855 0.53119 0.0
C1868 C 0.01258 0.51499 0.5533 0.0
C1869 C 0.98469 0.49752 0.48976 0.0
C1870 C 0.99752 0.52107 0.4964 0.0
C1871 C 0.00623 0.52632 0.51708 0.0
C1872 C 0.00221 0.54054 0.48201 0.0
C1873 C 0.97435 0.49103 0.4679 0.0
C1874 C 0.01734 0.54569 0.46473 0.0
C1875 C 0.02226 0.56452 0.45147 0.0
C1876 C 0.012 0.57839 0.45524 0.0
C1877 C 0.99676 0.57308 0.47254 0.0
C1878 C 0.99201 0.55438 0.48587 0.0
H1879 H 0.96117 0.47214 0.46665 0.0
H1880 H 0.966 0.50142 0.46347 0.0
H1881 H 0.9885 0.49501 0.45633 0.0
H1882 H 0.02554 0.5353 0.46166 0.0
H1883 H 0.03402 0.5682 0.43824 0.0
H1884 H 0.42963 0.45988 0.4386 0.0
H1885 H 0.46181 0.48663 0.46156 0.0
H1886 H 0.44592 0.42998 0.50452 0.0
H1887 H 0.41346 0.40326 0.48205 0.0
H1888 H 0.45786 0.49529 0.50654 0.0
H1889 H 0.51727 0.45994 0.4913 0.0
H1890 H 0.49366 0.45477 0.4737 0.0
H1891 H 0.48761 0.43876 0.498 0.0
C1892 C 0.43292 0.45312 0.45296 0.0
C1893 C 0.41903 0.42938 0.4584 0.0
C1894 C 0.45136 0.4684 0.46599 0.0
C1895 C 0.45634 0.46016 0.48455 0.0
C1896 C 0.44258 0.43654 0.49004 0.0
H1897 H 0.56267 0.52449 0.58189 0.0
H1898 H 0.52894 0.49728 0.56058 0.0
C1899 C 0.4241 0.42129 0.47711 0.0
C1900 C 0.47551 0.47637 0.49855 0.0
H1901 H 0.52846 0.48845 0.51816 0.0
C1902 C 0.47336 0.4939 0.50906 0.0
C1903 C 0.49554 0.47429 0.50187 0.0
C1904 C 0.49887 0.45606 0.49053 0.0
C1905 C 0.49067 0.50933 0.52306 0.0
C1906 C 0.51086 0.50744 0.52622 0.0
C1907 C 0.51293 0.48981 0.51575 0.0
C1908 C 0.53041 0.524 0.53981 0.0
C1909 C 0.48695 0.52718 0.53466 0.0
C1910 C 0.54243 0.54796 0.53511 0.0
C1911 C 0.56157 0.56348 0.54726 0.0
C1912 C 0.56922 0.55529 0.56422 0.0
C1913 C 0.55717 0.53127 0.56891 0.0
C1914 C 0.53791 0.51575 0.55679 0.0
H1915 H 0.46814 0.52188 0.5354 0.0
H1916 H 0.49391 0.52989 0.551 0.0
H1917 H 0.49625 0.54413 0.52616 0.0
H1918 H 0.53736 0.55461 0.52172 0.0
H1919 H 0.57086 0.5818 0.54292 0.0
loop_
_geom_bond_atom_site_label_1
_geom_bond_atom_site_label_2
_geom_bond_distance
_geom_bond_site_symmetry_2
_ccdc_geom_bond_type
Li0 N17 1.990 . S
Li0 O60 1.956 . S
Li0 O61 1.970 . S
Li0 O62 1.961 . S
Li1 N25 1.990 . S
Li1 O60 1.970 . S
Li1 O61 1.956 . S
Li1 O63 1.961 . S
Li2 N47 1.990 . S
Li2 O60 1.961 . S
Li2 O62 1.956 . S
Li2 O63 1.970 . S
Li3 N53 1.990 1_455 S
Li3 O61 1.961 . S
Li3 O62 1.970 . S
Li3 O63 1.956 . S
C4 C6 1.348 . S
C4 C7 1.356 . S
C4 O60 1.325 . S
N5 C8 1.314 . S
N5 C9 1.279 . S
C6 C4 1.348 . S
C6 C8 1.353 . S
C6 H64 0.929 . S
C7 C4 1.356 . S
C7 C9 1.358 . S
C7 H65 0.930 . S
C8 N5 1.314 . S
C8 C6 1.353 . S
C8 H66 0.930 . S
C9 N5 1.279 . S
C9 C7 1.358 . S
C9 H67 0.930 . S
C10 C13 1.348 . S
C10 C14 1.356 1_455 S
C10 O61 1.325 . S
C11 N12 1.279 . S
C11 C14 1.358 . S
C11 H68 0.930 . S
N12 C11 1.279 . S
N12 C15 1.314 . S
C13 C10 1.348 . S
C13 C15 1.353 1_455 S
C13 H69 0.929 . S
C14 C10 1.356 1_655 S
C14 C11 1.358 . S
C14 H70 0.930 . S
C15 N12 1.314 . S
C15 C13 1.353 1_655 S
C15 H71 0.930 . S
C16 N17 1.314 . S
C16 C21 1.353 . S
C16 H22 0.930 . S
N17 Li0 1.990 . S
N17 C16 1.314 . S
N17 C19 1.279 . S
C18 C19 1.358 . S
C18 C20 1.356 . S
C18 H72 0.930 . S
C19 N17 1.279 . S
C19 C18 1.358 . S
C19 H23 0.930 . S
C20 C18 1.356 . S
C20 C21 1.348 . S
C21 C16 1.353 . S
C21 C20 1.348 . S
C21 H73 0.929 . S
H22 C16 0.930 . S
H23 C19 0.930 . S
C24 N25 1.314 . S
C24 C26 1.353 . S
C24 H30 0.930 . S
N25 Li1 1.990 . S
N25 C24 1.314 . S
N25 C28 1.279 . S
C26 C24 1.353 . S
C26 C29 1.348 . S
C26 H74 0.929 . S
C27 C28 1.358 . S
C27 C29 1.356 . S
C27 H75 0.930 . S
C28 N25 1.279 . S
C28 C27 1.358 . S
C28 H31 0.930 . S
C29 C26 1.348 . S
C29 C27 1.356 . S
H30 C24 0.930 . S
H31 C28 0.930 . S
C32 C34 1.348 . S
C32 C35 1.356 . S
C32 O62 1.325 . S
N33 C36 1.314 1_556 S
N33 C37 1.279 1_556 S
C34 C32 1.348 . S
C34 C36 1.353 . S
C34 H76 0.929 . S
C35 C32 1.356 . S
C35 C37 1.358 . S
C35 H77 0.930 . S
C36 N33 1.314 1_554 S
C36 C34 1.353 . S
C36 H78 0.930 1_454 S
C37 N33 1.279 1_554 S
C37 C35 1.358 . S
C37 H79 0.930 1_554 S
C38 C39 1.348 . S
C38 C40 1.356 . S
C38 O63 1.325 . S
C39 C38 1.348 . S
C39 C41 1.353 . S
C39 H80 0.929 . S
C40 C38 1.356 . S
C40 C42 1.358 . S
C40 H81 0.930 . S
C41 C39 1.353 . S
C41 N43 1.314 . S
C41 H82 0.930 . S
C42 C40 1.358 . S
C42 N43 1.279 . S
C42 H83 0.930 . S
N43 C41 1.314 . S
N43 C42 1.279 . S
C44 C46 1.353 . S
C44 N47 1.314 . S
C44 H50 0.930 . S
C45 N47 1.279 . S
C45 C48 1.358 . S
C45 H51 0.930 . S
C46 C44 1.353 . S
C46 C49 1.348 . S
C46 H84 0.929 . S
N47 Li2 1.990 . S
N47 C44 1.314 . S
N47 C45 1.279 . S
C48 C45 1.358 . S
C48 C49 1.356 . S
C48 H85 0.930 . S
C49 C46 1.348 . S
C49 C48 1.356 . S
H50 C44 0.930 . S
H51 C45 0.930 . S
C52 N53 1.314 . S
C52 C54 1.353 . S
C52 H58 0.930 . S
N53 Li3 1.990 1_655 S
N53 C52 1.314 . S
N53 C56 1.279 . S
C54 C52 1.353 . S
C54 C57 1.348 . S
C54 H86 0.929 . S
C55 C56 1.358 . S
C55 C57 1.356 . S
C55 H87 0.930 . S
C56 N53 1.279 . S
C56 C55 1.358 . S
C56 H59 0.930 . S
C57 C54 1.348 . S
C57 C55 1.356 . S
H58 C52 0.930 . S
H59 C56 0.930 . S
O60 Li0 1.956 . S
O60 Li1 1.970 . S
O60 Li2 1.961 . S
O60 C4 1.325 . S
O61 Li0 1.970 . S
O61 Li1 1.956 . S
O61 Li3 1.961 . S
O61 C10 1.325 . S
O62 Li0 1.961 . S
O62 Li2 1.956 . S
O62 Li3 1.970 . S
O62 C32 1.325 . S
O63 Li1 1.961 . S
O63 Li2 1.970 . S
O63 Li3 1.956 . S
O63 C38 1.325 . S
H64 C6 0.929 . S
H65 C7 0.930 . S
H66 C8 0.930 . S
H67 C9 0.930 . S
H68 C11 0.930 . S
H69 C13 0.929 . S
H70 C14 0.930 . S
H71 C15 0.930 . S
H72 C18 0.930 . S
H73 C21 0.929 . S
H74 C26 0.929 . S
H75 C27 0.930 . S
H76 C34 0.929 . S
H77 C35 0.930 . S
H78 C36 0.930 1_656 S
H79 C37 0.930 1_556 S
H80 C39 0.929 . S
H81 C40 0.930 . S
H82 C41 0.930 . S
H83 C42 0.930 . S
H84 C46 0.929 . S
H85 C48 0.930 . S
H86 C54 0.929 . S
H87 C55 0.930 . S
Li88 N105 1.990 . S
Li88 O148 1.956 . S
Li88 O149 1.970 . S
Li88 O150 1.961 . S
Li89 N113 1.990 . S
Li89 O148 1.970 . S
Li89 O149 1.956 . S
Li89 O151 1.961 . S
Li90 N135 1.990 . S
Li90 O148 1.961 . S
Li90 O150 1.956 . S
Li90 O151 1.970 . S
Li91 N141 1.990 . S
Li91 O149 1.961 . S
Li91 O150 1.970 . S
Li91 O151 1.956 . S
C92 C94 1.348 . S
C92 C95 1.356 . S
C92 O148 1.325 . S
N93 C96 1.314 . S
N93 C97 1.279 . S
C94 C92 1.348 . S
C94 C96 1.353 . S
C94 H152 0.929 . S
C95 C92 1.356 . S
C95 C97 1.358 . S
C95 H153 0.930 . S
C96 N93 1.314 . S
C96 C94 1.353 . S
C96 H154 0.930 . S
C97 N93 1.279 . S
C97 C95 1.358 . S
C97 H155 0.930 . S
C98 C101 1.348 . S
C98 C102 1.356 . S
C98 O149 1.325 . S
C99 N100 1.279 . S
C99 C102 1.358 . S
C99 H156 0.930 . S
N100 C99 1.279 . S
N100 C103 1.314 . S
C101 C98 1.348 . S
C101 C103 1.353 . S
C101 H157 0.929 . S
C102 C98 1.356 . S
C102 C99 1.358 . S
C102 H158 0.930 . S
C103 N100 1.314 . S
C103 C101 1.353 . S
C103 H159 0.930 . S
C104 N105 1.314 . S
C104 C109 1.353 . S
C104 H110 0.930 . S
N105 Li88 1.990 . S
N105 C104 1.314 . S
N105 C107 1.279 . S
C106 C107 1.358 . S
C106 C108 1.356 . S
C106 H160 0.930 . S
C107 N105 1.279 . S
C107 C106 1.358 . S
C107 H111 0.930 . S
C108 C106 1.356 . S
C108 C109 1.348 . S
C109 C104 1.353 . S
C109 C108 1.348 . S
C109 H161 0.929 . S
H110 C104 0.930 . S
H111 C107 0.930 . S
C112 N113 1.314 . S
C112 C114 1.353 . S
C112 H118 0.930 . S
N113 Li89 1.990 . S
N113 C112 1.314 . S
N113 C116 1.279 . S
C114 C112 1.353 . S
C114 C117 1.348 . S
C114 H162 0.929 . S
C115 C116 1.358 . S
C115 C117 1.356 . S
C115 H163 0.930 . S
C116 N113 1.279 . S
C116 C115 1.358 . S
C116 H119 0.930 . S
C117 C114 1.348 . S
C117 C115 1.356 . S
H118 C112 0.930 . S
H119 C116 0.930 . S
C120 C122 1.348 . S
C120 C123 1.356 . S
C120 O150 1.325 . S
N121 C124 1.314 . S
N121 C125 1.279 . S
C122 C120 1.348 . S
C122 C124 1.353 . S
C122 H164 0.929 . S
C123 C120 1.356 . S
C123 C125 1.358 . S
C123 H165 0.930 . S
C124 N121 1.314 . S
C124 C122 1.353 . S
C124 H166 0.930 . S
C125 N121 1.279 . S
C125 C123 1.358 . S
C125 H167 0.930 . S
C126 C127 1.348 . S
C126 C128 1.356 . S
C126 O151 1.325 . S
C127 C126 1.348 . S
C127 C129 1.353 . S
C127 H168 0.929 . S
C128 C126 1.356 . S
C128 C130 1.358 . S
C128 H169 0.930 . S
C129 C127 1.353 . S
C129 N131 1.314 1_554 S
C129 H170 0.930 1_554 S
C130 C128 1.358 . S
C130 N131 1.279 1_554 S
C130 H171 0.930 1_554 S
N131 C129 1.314 1_556 S
N131 C130 1.279 1_556 S
C132 C134 1.353 . S
C132 N135 1.314 . S
C132 H138 0.930 . S
C133 N135 1.279 . S
C133 C136 1.358 . S
C133 H139 0.930 . S
C134 C132 1.353 . S
C134 C137 1.348 . S
C134 H172 0.929 . S
N135 Li90 1.990 . S
N135 C132 1.314 . S
N135 C133 1.279 . S
C136 C133 1.358 . S
C136 C137 1.356 . S
C136 H173 0.930 . S
C137 C134 1.348 . S
C137 C136 1.356 . S
H138 C132 0.930 . S
H139 C133 0.930 . S
C140 N141 1.314 . S
C140 C142 1.353 . S
C140 H146 0.930 . S
N141 Li91 1.990 . S
N141 C140 1.314 . S
N141 C144 1.279 . S
C142 C140 1.353 . S
C142 C145 1.348 . S
C142 H174 0.929 . S
C143 C144 1.358 . S
C143 C145 1.356 . S
C143 H175 0.930 . S
C144 N141 1.279 . S
C144 C143 1.358 . S
C144 H147 0.930 . S
C145 C142 1.348 . S
C145 C143 1.356 . S
H146 C140 0.930 . S
H147 C144 0.930 . S
O148 Li88 1.956 . S
O148 Li89 1.970 . S
O148 Li90 1.961 . S
O148 C92 1.325 . S
O149 Li88 1.970 . S
O149 Li89 1.956 . S
O149 Li91 1.961 . S
O149 C98 1.325 . S
O150 Li88 1.961 . S
O150 Li90 1.956 . S
O150 Li91 1.970 . S
O150 C120 1.325 . S
O151 Li89 1.961 . S
O151 Li90 1.970 . S
O151 Li91 1.956 . S
O151 C126 1.325 . S
H152 C94 0.929 . S
H153 C95 0.930 . S
H154 C96 0.930 . S
H155 C97 0.930 . S
H156 C99 0.930 . S
H157 C101 0.929 . S
H158 C102 0.930 . S
H159 C103 0.930 . S
H160 C106 0.930 . S
H161 C109 0.929 . S
H162 C114 0.929 . S
H163 C115 0.930 . S
H164 C122 0.929 . S
H165 C123 0.930 . S
H166 C124 0.930 . S
H167 C125 0.930 . S
H168 C127 0.929 . S
H169 C128 0.930 . S
H170 C129 0.930 1_556 S
H171 C130 0.930 1_556 S
H172 C134 0.929 . S
H173 C136 0.930 . S
H174 C142 0.929 . S
H175 C143 0.930 . S
Li176 N193 1.990 . S
Li176 O236 1.956 . S
Li176 O237 1.970 . S
Li176 O238 1.961 . S
Li177 N201 1.990 . S
Li177 O236 1.970 . S
Li177 O237 1.956 . S
Li177 O239 1.961 . S
Li178 N223 1.990 1_565 S
Li178 O236 1.961 . S
Li178 O238 1.956 . S
Li178 O239 1.970 . S
Li179 N229 1.990 . S
Li179 O237 1.961 . S
Li179 O238 1.970 . S
Li179 O239 1.956 . S
C180 C182 1.348 . S
C180 C183 1.356 1_565 S
C180 O236 1.325 . S
N181 C184 1.314 . S
N181 C185 1.279 . S
C182 C180 1.348 . S
C182 C184 1.353 1_565 S
C182 H240 0.929 . S
C183 C180 1.356 1_545 S
C183 C185 1.358 . S
C183 H241 0.930 . S
C184 N181 1.314 . S
C184 C182 1.353 1_545 S
C184 H242 0.930 . S
C185 N181 1.279 . S
C185 C183 1.358 . S
C185 H243 0.930 . S
C186 C189 1.348 . S
C186 C190 1.356 . S
C186 O237 1.325 . S
C187 N188 1.279 . S
C187 C190 1.358 . S
C187 H244 0.930 . S
N188 C187 1.279 . S
N188 C191 1.314 . S
C189 C186 1.348 . S
C189 C191 1.353 . S
C189 H245 0.929 . S
C190 C186 1.356 . S
C190 C187 1.358 . S
C190 H246 0.930 . S
C191 N188 1.314 . S
C191 C189 1.353 . S
C191 H247 0.930 . S
C192 N193 1.314 . S
C192 C197 1.353 . S
C192 H198 0.930 . S
N193 Li176 1.990 . S
N193 C192 1.314 . S
N193 C195 1.279 . S
C194 C195 1.358 . S
C194 C196 1.356 . S
C194 H248 0.930 . S
C195 N193 1.279 . S
C195 C194 1.358 . S
C195 H199 0.930 . S
C196 C194 1.356 . S
C196 C197 1.348 . S
C197 C192 1.353 . S
C197 C196 1.348 . S
C197 H249 0.929 . S
H198 C192 0.930 . S
H199 C195 0.930 . S
C200 N201 1.314 . S
C200 C202 1.353 . S
C200 H206 0.930 . S
N201 Li177 1.990 . S
N201 C200 1.314 . S
N201 C204 1.279 . S
C202 C200 1.353 . S
C202 C205 1.348 . S
C202 H250 0.929 . S
C203 C204 1.358 . S
C203 C205 1.356 . S
C203 H251 0.930 . S
C204 N201 1.279 . S
C204 C203 1.358 . S
C204 H207 0.930 . S
C205 C202 1.348 . S
C205 C203 1.356 . S
H206 C200 0.930 . S
H207 C204 0.930 . S
C208 C210 1.348 . S
C208 C211 1.356 . S
C208 O238 1.325 . S
N209 C212 1.314 . S
N209 C213 1.279 . S
C210 C208 1.348 . S
C210 C212 1.353 . S
C210 H252 0.929 . S
C211 C208 1.356 . S
C211 C213 1.358 . S
C211 H253 0.930 . S
C212 N209 1.314 . S
C212 C210 1.353 . S
C212 H254 0.930 . S
C213 N209 1.279 . S
C213 C211 1.358 . S
C213 H255 0.930 . S
C214 C215 1.348 . S
C214 C216 1.356 . S
C214 O239 1.325 . S
C215 C214 1.348 . S
C215 C217 1.353 . S
C215 H256 0.929 . S
C216 C214 1.356 . S
C216 C218 1.358 . S
C216 H257 0.930 . S
C217 C215 1.353 . S
C217 N219 1.314 1_554 S
C217 H258 0.930 1_564 S
C218 C216 1.358 . S
C218 N219 1.279 1_554 S
C218 H259 0.930 1_554 S
N219 C217 1.314 1_556 S
N219 C218 1.279 1_556 S
C220 C222 1.353 . S
C220 N223 1.314 . S
C220 H226 0.930 . S
C221 N223 1.279 . S
C221 C224 1.358 . S
C221 H227 0.930 . S
C222 C220 1.353 . S
C222 C225 1.348 . S
C222 H260 0.929 . S
N223 Li178 1.990 1_545 S
N223 C220 1.314 . S
N223 C221 1.279 . S
C224 C221 1.358 . S
C224 C225 1.356 . S
C224 H261 0.930 . S
C225 C222 1.348 . S
C225 C224 1.356 . S
H226 C220 0.930 . S
H227 C221 0.930 . S
C228 N229 1.314 . S
C228 C230 1.353 . S
C228 H234 0.930 . S
N229 Li179 1.990 . S
N229 C228 1.314 . S
N229 C232 1.279 . S
C230 C228 1.353 . S
C230 C233 1.348 . S
C230 H262 0.929 . S
C231 C232 1.358 . S
C231 C233 1.356 . S
C231 H263 0.930 . S
C232 N229 1.279 . S
C232 C231 1.358 . S
C232 H235 0.930 . S
C233 C230 1.348 . S
C233 C231 1.356 . S
H234 C228 0.930 . S
H235 C232 0.930 . S
O236 Li176 1.956 . S
O236 Li177 1.970 . S
O236 Li178 1.961 . S
O236 C180 1.325 . S
O237 Li176 1.970 . S
O237 Li177 1.956 . S
O237 Li179 1.961 . S
O237 C186 1.325 . S
O238 Li176 1.961 . S
O238 Li178 1.956 . S
O238 Li179 1.970 . S
O238 C208 1.325 . S
O239 Li177 1.961 . S
O239 Li178 1.970 . S
O239 Li179 1.956 . S
O239 C214 1.325 . S
H240 C182 0.929 . S
H241 C183 0.930 . S
H242 C184 0.930 . S
H243 C185 0.930 . S
H244 C187 0.930 . S
H245 C189 0.929 . S
H246 C190 0.930 . S
H247 C191 0.930 . S
H248 C194 0.930 . S
H249 C197 0.929 . S
H250 C202 0.929 . S
H251 C203 0.930 . S
H252 C210 0.929 . S
H253 C211 0.930 . S
H254 C212 0.930 . S
H255 C213 0.930 . S
H256 C215 0.929 . S
H257 C216 0.930 . S
H258 C217 0.930 1_546 S
H259 C218 0.930 1_556 S
H260 C222 0.929 . S
H261 C224 0.930 . S
H262 C230 0.929 . S
H263 C231 0.930 . S
Li264 N281 1.990 . S
Li264 O324 1.956 . S
Li264 O325 1.970 . S
Li264 O326 1.961 . S
Li265 N289 1.990 1_565 S
Li265 O324 1.970 . S
Li265 O325 1.956 . S
Li265 O327 1.961 . S
Li266 N311 1.990 . S
Li266 O324 1.961 . S
Li266 O326 1.956 . S
Li266 O327 1.970 . S
Li267 N317 1.990 . S
Li267 O325 1.961 . S
Li267 O326 1.970 . S
Li267 O327 1.956 . S
C268 C270 1.348 . S
C268 C271 1.356 . S
C268 O324 1.325 . S
N269 C272 1.314 . S
N269 C273 1.279 . S
C270 C268 1.348 . S
C270 C272 1.353 . S
C270 H328 0.929 . S
C271 C268 1.356 . S
C271 C273 1.358 . S
C271 H329 0.930 . S
C272 N269 1.314 . S
C272 C270 1.353 . S
C272 H330 0.930 1_565 S
C273 N269 1.279 . S
C273 C271 1.358 . S
C273 H331 0.930 . S
C274 C277 1.348 . S
C274 C278 1.356 . S
C274 O325 1.325 . S
C275 N276 1.279 . S
C275 C278 1.358 . S
C275 H332 0.930 . S
N276 C275 1.279 . S
N276 C279 1.314 . S
C277 C274 1.348 . S
C277 C279 1.353 . S
C277 H333 0.929 . S
C278 C274 1.356 . S
C278 C275 1.358 . S
C278 H334 0.930 . S
C279 N276 1.314 . S
C279 C277 1.353 . S
C279 H335 0.930 . S
C280 N281 1.314 . S
C280 C285 1.353 . S
C280 H286 0.930 . S
N281 Li264 1.990 . S
N281 C280 1.314 . S
N281 C283 1.279 . S
C282 C283 1.358 . S
C282 C284 1.356 . S
C282 H336 0.930 . S
C283 N281 1.279 . S
C283 C282 1.358 . S
C283 H287 0.930 . S
C284 C282 1.356 . S
C284 C285 1.348 . S
C285 C280 1.353 . S
C285 C284 1.348 . S
C285 H337 0.929 . S
H286 C280 0.930 . S
H287 C283 0.930 . S
C288 N289 1.314 . S
C288 C290 1.353 . S
C288 H294 0.930 . S
N289 Li265 1.990 1_545 S
N289 C288 1.314 . S
N289 C292 1.279 . S
C290 C288 1.353 . S
C290 C293 1.348 . S
C290 H338 0.929 . S
C291 C292 1.358 . S
C291 C293 1.356 . S
C291 H339 0.930 . S
C292 N289 1.279 . S
C292 C291 1.358 . S
C292 H295 0.930 . S
C293 C290 1.348 . S
C293 C291 1.356 . S
H294 C288 0.930 . S
H295 C292 0.930 . S
C296 C298 1.348 . S
C296 C299 1.356 . S
C296 O326 1.325 . S
N297 C300 1.314 . S
N297 C301 1.279 . S
C298 C296 1.348 . S
C298 C300 1.353 . S
C298 H340 0.929 . S
C299 C296 1.356 . S
C299 C301 1.358 . S
C299 H341 0.930 . S
C300 N297 1.314 . S
C300 C298 1.353 . S
C300 H342 0.930 . S
C301 N297 1.279 . S
C301 C299 1.358 . S
C301 H343 0.930 . S
C302 C303 1.348 . S
C302 C304 1.356 1_565 S
C302 O327 1.325 . S
C303 C302 1.348 . S
C303 C305 1.353 1_565 S
C303 H344 0.929 . S
C304 C302 1.356 1_545 S
C304 C306 1.358 . S
C304 H345 0.930 . S
C305 C303 1.353 1_545 S
C305 N307 1.314 . S
C305 H346 0.930 . S
C306 C304 1.358 . S
C306 N307 1.279 . S
C306 H347 0.930 . S
N307 C305 1.314 . S
N307 C306 1.279 . S
C308 C310 1.353 . S
C308 N311 1.314 . S
C308 H314 0.930 . S
C309 N311 1.279 . S
C309 C312 1.358 . S
C309 H315 0.930 . S
C310 C308 1.353 . S
C310 C313 1.348 . S
C310 H348 0.929 . S
N311 Li266 1.990 . S
N311 C308 1.314 . S
N311 C309 1.279 . S
C312 C309 1.358 . S
C312 C313 1.356 . S
C312 H349 0.930 . S
C313 C310 1.348 . S
C313 C312 1.356 . S
H314 C308 0.930 . S
H315 C309 0.930 . S
C316 N317 1.314 . S
C316 C318 1.353 . S
C316 H322 0.930 . S
N317 Li267 1.990 . S
N317 C316 1.314 . S
N317 C320 1.279 . S
C318 C316 1.353 . S
C318 C321 1.348 . S
C318 H350 0.929 . S
C319 C320 1.358 . S
C319 C321 1.356 . S
C319 H351 0.930 . S
C320 N317 1.279 . S
C320 C319 1.358 . S
C320 H323 0.930 . S
C321 C318 1.348 . S
C321 C319 1.356 . S
H322 C316 0.930 . S
H323 C320 0.930 . S
O324 Li264 1.956 . S
O324 Li265 1.970 . S
O324 Li266 1.961 . S
O324 C268 1.325 . S
O325 Li264 1.970 . S
O325 Li265 1.956 . S
O325 Li267 1.961 . S
O325 C274 1.325 . S
O326 Li264 1.961 . S
O326 Li266 1.956 . S
O326 Li267 1.970 . S
O326 C296 1.325 . S
O327 Li265 1.961 . S
O327 Li266 1.970 . S
O327 Li267 1.956 . S
O327 C302 1.325 . S
H328 C270 0.929 . S
H329 C271 0.930 . S
H330 C272 0.930 1_545 S
H331 C273 0.930 . S
H332 C275 0.930 . S
H333 C277 0.929 . S
H334 C278 0.930 . S
H335 C279 0.930 . S
H336 C282 0.930 . S
H337 C285 0.929 . S
H338 C290 0.929 . S
H339 C291 0.930 . S
H340 C298 0.929 . S
H341 C299 0.930 . S
H342 C300 0.930 . S
H343 C301 0.930 . S
H344 C303 0.929 . S
H345 C304 0.930 . S
H346 C305 0.930 . S
H347 C306 0.930 . S
H348 C310 0.929 . S
H349 C312 0.930 . S
H350 C318 0.929 . S
H351 C319 0.930 . S
Li352 N369 1.990 . S
Li352 O412 1.956 . S
Li352 O413 1.970 . S
Li352 O414 1.961 . S
Li353 N377 1.990 1_455 S
Li353 O412 1.970 . S
Li353 O413 1.956 . S
Li353 O415 1.961 . S
Li354 N399 1.990 . S
Li354 O412 1.961 . S
Li354 O414 1.956 . S
Li354 O415 1.970 . S
Li355 N405 1.990 . S
Li355 O413 1.961 . S
Li355 O414 1.970 . S
Li355 O415 1.956 . S
C356 C358 1.348 . S
C356 C359 1.356 . S
C356 O412 1.325 . S
N357 C360 1.314 . S
N357 C361 1.279 . S
C358 C356 1.348 . S
C358 C360 1.353 . S
C358 H416 0.929 . S
C359 C356 1.356 . S
C359 C361 1.358 . S
C359 H417 0.930 . S
C360 N357 1.314 . S
C360 C358 1.353 . S
C360 H418 0.930 1_455 S
C361 N357 1.279 . S
C361 C359 1.358 . S
C361 H419 0.930 . S
C362 C365 1.348 . S
C362 C366 1.356 . S
C362 O413 1.325 . S
C363 N364 1.279 . S
C363 C366 1.358 . S
C363 H420 0.930 . S
N364 C363 1.279 . S
N364 C367 1.314 . S
C365 C362 1.348 . S
C365 C367 1.353 . S
C365 H421 0.929 . S
C366 C362 1.356 . S
C366 C363 1.358 . S
C366 H422 0.930 . S
C367 N364 1.314 . S
C367 C365 1.353 . S
C367 H423 0.930 . S
C368 N369 1.314 . S
C368 C373 1.353 . S
C368 H374 0.930 . S
N369 Li352 1.990 . S
N369 C368 1.314 . S
N369 C371 1.279 . S
C370 C371 1.358 . S
C370 C372 1.356 . S
C370 H424 0.930 . S
C371 N369 1.279 . S
C371 C370 1.358 . S
C371 H375 0.930 . S
C372 C370 1.356 . S
C372 C373 1.348 . S
C373 C368 1.353 . S
C373 C372 1.348 . S
C373 H425 0.929 . S
H374 C368 0.930 . S
H375 C371 0.930 . S
C376 N377 1.314 . S
C376 C378 1.353 . S
C376 H382 0.930 . S
N377 Li353 1.990 1_655 S
N377 C376 1.314 . S
N377 C380 1.279 . S
C378 C376 1.353 . S
C378 C381 1.348 . S
C378 H426 0.929 . S
C379 C380 1.358 . S
C379 C381 1.356 . S
C379 H427 0.930 . S
C380 N377 1.279 . S
C380 C379 1.358 . S
C380 H383 0.930 . S
C381 C378 1.348 . S
C381 C379 1.356 . S
H382 C376 0.930 . S
H383 C380 0.930 . S
C384 C386 1.348 . S
C384 C387 1.356 . S
C384 O414 1.325 . S
N385 C388 1.314 . S
N385 C389 1.279 . S
C386 C384 1.348 . S
C386 C388 1.353 . S
C386 H428 0.929 . S
C387 C384 1.356 . S
C387 C389 1.358 . S
C387 H429 0.930 . S
C388 N385 1.314 . S
C388 C386 1.353 . S
C388 H430 0.930 . S
C389 N385 1.279 . S
C389 C387 1.358 . S
C389 H431 0.930 . S
C390 C391 1.348 . S
C390 C392 1.356 1_455 S
C390 O415 1.325 . S
C391 C390 1.348 . S
C391 C393 1.353 1_455 S
C391 H432 0.929 . S
C392 C390 1.356 1_655 S
C392 C394 1.358 . S
C392 H433 0.930 . S
C393 C391 1.353 1_655 S
C393 N395 1.314 . S
C393 H434 0.930 . S
C394 C392 1.358 . S
C394 N395 1.279 . S
C394 H435 0.930 . S
N395 C393 1.314 . S
N395 C394 1.279 . S
C396 C398 1.353 . S
C396 N399 1.314 . S
C396 H402 0.930 . S
C397 N399 1.279 . S
C397 C400 1.358 . S
C397 H403 0.930 . S
C398 C396 1.353 . S
C398 C401 1.348 . S
C398 H436 0.929 . S
N399 Li354 1.990 . S
N399 C396 1.314 . S
N399 C397 1.279 . S
C400 C397 1.358 . S
C400 C401 1.356 . S
C400 H437 0.930 . S
C401 C398 1.348 . S
C401 C400 1.356 . S
H402 C396 0.930 . S
H403 C397 0.930 . S
C404 N405 1.314 . S
C404 C406 1.353 . S
C404 H410 0.930 . S
N405 Li355 1.990 . S
N405 C404 1.314 . S
N405 C408 1.279 . S
C406 C404 1.353 . S
C406 C409 1.348 . S
C406 H438 0.929 . S
C407 C408 1.358 . S
C407 C409 1.356 . S
C407 H439 0.930 . S
C408 N405 1.279 . S
C408 C407 1.358 . S
C408 H411 0.930 . S
C409 C406 1.348 . S
C409 C407 1.356 . S
H410 C404 0.930 . S
H411 C408 0.930 . S
O412 Li352 1.956 . S
O412 Li353 1.970 . S
O412 Li354 1.961 . S
O412 C356 1.325 . S
O413 Li352 1.970 . S
O413 Li353 1.956 . S
O413 Li355 1.961 . S
O413 C362 1.325 . S
O414 Li352 1.961 . S
O414 Li354 1.956 . S
O414 Li355 1.970 . S
O414 C384 1.325 . S
O415 Li353 1.961 . S
O415 Li354 1.970 . S
O415 Li355 1.956 . S
O415 C390 1.325 . S
H416 C358 0.929 . S
H417 C359 0.930 . S
H418 C360 0.930 1_655 S
H419 C361 0.930 . S
H420 C363 0.930 . S
H421 C365 0.929 . S
H422 C366 0.930 . S
H423 C367 0.930 . S
H424 C370 0.930 . S
H425 C373 0.929 . S
H426 C378 0.929 . S
H427 C379 0.930 . S
H428 C386 0.929 . S
H429 C387 0.930 . S
H430 C388 0.930 . S
H431 C389 0.930 . S
H432 C391 0.929 . S
H433 C392 0.930 . S
H434 C393 0.930 . S
H435 C394 0.930 . S
H436 C398 0.929 . S
H437 C400 0.930 . S
H438 C406 0.929 . S
H439 C407 0.930 . S
Li440 N457 1.990 . S
Li440 O500 1.956 . S
Li440 O501 1.970 . S
Li440 O502 1.961 . S
Li441 N465 1.990 . S
Li441 O500 1.970 . S
Li441 O501 1.956 . S
Li441 O503 1.961 . S
Li442 N487 1.990 . S
Li442 O500 1.961 . S
Li442 O502 1.956 . S
Li442 O503 1.970 . S
Li443 N493 1.990 . S
Li443 O501 1.961 . S
Li443 O502 1.970 . S
Li443 O503 1.956 . S
C444 C446 1.348 . S
C444 C447 1.356 . S
C444 O500 1.325 . S
N445 C448 1.314 . S
N445 C449 1.279 . S
C446 C444 1.348 . S
C446 C448 1.353 . S
C446 H504 0.929 . S
C447 C444 1.356 . S
C447 C449 1.358 . S
C447 H505 0.930 . S
C448 N445 1.314 . S
C448 C446 1.353 . S
C448 H506 0.930 . S
C449 N445 1.279 . S
C449 C447 1.358 . S
C449 H507 0.930 . S
C450 C453 1.348 . S
C450 C454 1.356 . S
C450 O501 1.325 . S
C451 N452 1.279 . S
C451 C454 1.358 . S
C451 H508 0.930 . S
N452 C451 1.279 . S
N452 C455 1.314 . S
C453 C450 1.348 . S
C453 C455 1.353 . S
C453 H509 0.929 . S
C454 C450 1.356 . S
C454 C451 1.358 . S
C454 H510 0.930 . S
C455 N452 1.314 . S
C455 C453 1.353 . S
C455 H511 0.930 . S
C456 N457 1.314 . S
C456 C461 1.353 . S
C456 H462 0.930 . S
N457 Li440 1.990 . S
N457 C456 1.314 . S
N457 C459 1.279 . S
C458 C459 1.358 . S
C458 C460 1.356 . S
C458 H512 0.930 . S
C459 N457 1.279 . S
C459 C458 1.358 . S
C459 H463 0.930 . S
C460 C458 1.356 . S
C460 C461 1.348 . S
C461 C456 1.353 . S
C461 C460 1.348 . S
C461 H513 0.929 . S
H462 C456 0.930 . S
H463 C459 0.930 . S
C464 N465 1.314 . S
C464 C466 1.353 . S
C464 H470 0.930 . S
N465 Li441 1.990 . S
N465 C464 1.314 . S
N465 C468 1.279 . S
C466 C464 1.353 . S
C466 C469 1.348 . S
C466 H514 0.929 . S
C467 C468 1.358 . S
C467 C469 1.356 . S
C467 H515 0.930 . S
C468 N465 1.279 . S
C468 C467 1.358 . S
C468 H471 0.930 . S
C469 C466 1.348 . S
C469 C467 1.356 . S
H470 C464 0.930 . S
H471 C468 0.930 . S
C472 C474 1.348 . S
C472 C475 1.356 . S
C472 O502 1.325 . S
N473 C476 1.314 . S
N473 C477 1.279 . S
C474 C472 1.348 . S
C474 C476 1.353 . S
C474 H516 0.929 . S
C475 C472 1.356 . S
C475 C477 1.358 . S
C475 H517 0.930 . S
C476 N473 1.314 . S
C476 C474 1.353 . S
C476 H518 0.930 . S
C477 N473 1.279 . S
C477 C475 1.358 . S
C477 H519 0.930 . S
C478 C479 1.348 . S
C478 C480 1.356 . S
C478 O503 1.325 . S
C479 C478 1.348 . S
C479 C481 1.353 . S
C479 H520 0.929 . S
C480 C478 1.356 . S
C480 C482 1.358 . S
C480 H521 0.930 . S
C481 C479 1.353 . S
C481 N483 1.314 . S
C481 H522 0.930 . S
C482 C480 1.358 . S
C482 N483 1.279 . S
C482 H523 0.930 . S
N483 C481 1.314 . S
N483 C482 1.279 . S
C484 C486 1.353 . S
C484 N487 1.314 . S
C484 H490 0.930 . S
C485 N487 1.279 . S
C485 C488 1.358 . S
C485 H491 0.930 . S
C486 C484 1.353 . S
C486 C489 1.348 . S
C486 H524 0.929 . S
N487 Li442 1.990 . S
N487 C484 1.314 . S
N487 C485 1.279 . S
C488 C485 1.358 . S
C488 C489 1.356 . S
C488 H525 0.930 . S
C489 C486 1.348 . S
C489 C488 1.356 . S
H490 C484 0.930 . S
H491 C485 0.930 . S
C492 N493 1.314 . S
C492 C494 1.353 . S
C492 H498 0.930 . S
N493 Li443 1.990 . S
N493 C492 1.314 . S
N493 C496 1.279 . S
C494 C492 1.353 . S
C494 C497 1.348 . S
C494 H526 0.929 . S
C495 C496 1.358 . S
C495 C497 1.356 . S
C495 H527 0.930 . S
C496 N493 1.279 . S
C496 C495 1.358 . S
C496 H499 0.930 . S
C497 C494 1.348 . S
C497 C495 1.356 . S
H498 C492 0.930 . S
H499 C496 0.930 . S
O500 Li440 1.956 . S
O500 Li441 1.970 . S
O500 Li442 1.961 . S
O500 C444 1.325 . S
O501 Li440 1.970 . S
O501 Li441 1.956 . S
O501 Li443 1.961 . S
O501 C450 1.325 . S
O502 Li440 1.961 . S
O502 Li442 1.956 . S
O502 Li443 1.970 . S
O502 C472 1.325 . S
O503 Li441 1.961 . S
O503 Li442 1.970 . S
O503 Li443 1.956 . S
O503 C478 1.325 . S
H504 C446 0.929 . S
H505 C447 0.930 . S
H506 C448 0.930 . S
H507 C449 0.930 . S
H508 C451 0.930 . S
H509 C453 0.929 . S
H510 C454 0.930 . S
H511 C455 0.930 . S
H512 C458 0.930 . S
H513 C461 0.929 . S
H514 C466 0.929 . S
H515 C467 0.930 . S
H516 C474 0.929 . S
H517 C475 0.930 . S
H518 C476 0.930 . S
H519 C477 0.930 . S
H520 C479 0.929 . S
H521 C480 0.930 . S
H522 C481 0.930 . S
H523 C482 0.930 . S
H524 C486 0.929 . S
H525 C488 0.930 . S
H526 C494 0.929 . S
H527 C495 0.930 . S
Li528 N545 1.990 . S
Li528 O588 1.956 . S
Li528 O589 1.970 . S
Li528 O590 1.961 . S
Li529 N553 1.990 . S
Li529 O588 1.970 . S
Li529 O589 1.956 . S
Li529 O591 1.961 . S
Li530 N575 1.990 1_655 S
Li530 O588 1.961 . S
Li530 O590 1.956 . S
Li530 O591 1.970 . S
Li531 N581 1.990 . S
Li531 O589 1.961 . S
Li531 O590 1.970 . S
Li531 O591 1.956 . S
C532 C534 1.348 . S
C532 C535 1.356 . S
C532 O588 1.325 . S
N533 C536 1.314 1_554 S
N533 C537 1.279 1_554 S
C534 C532 1.348 . S
C534 C536 1.353 . S
C534 H592 0.929 . S
C535 C532 1.356 . S
C535 C537 1.358 . S
C535 H593 0.930 . S
C536 N533 1.314 1_556 S
C536 C534 1.353 . S
C536 H594 0.930 1_556 S
C537 N533 1.279 1_556 S
C537 C535 1.358 . S
C537 H595 0.930 1_556 S
C538 C541 1.348 . S
C538 C542 1.356 . S
C538 O589 1.325 . S
C539 N540 1.279 . S
C539 C542 1.358 . S
C539 H596 0.930 . S
N540 C539 1.279 . S
N540 C543 1.314 . S
C541 C538 1.348 . S
C541 C543 1.353 . S
C541 H597 0.929 . S
C542 C538 1.356 . S
C542 C539 1.358 . S
C542 H598 0.930 . S
C543 N540 1.314 . S
C543 C541 1.353 . S
C543 H599 0.930 . S
C544 N545 1.314 . S
C544 C549 1.353 . S
C544 H550 0.930 . S
N545 Li528 1.990 . S
N545 C544 1.314 . S
N545 C547 1.279 . S
C546 C547 1.358 . S
C546 C548 1.356 . S
C546 H600 0.930 . S
C547 N545 1.279 . S
C547 C546 1.358 . S
C547 H551 0.930 . S
C548 C546 1.356 . S
C548 C549 1.348 . S
C549 C544 1.353 . S
C549 C548 1.348 . S
C549 H601 0.929 . S
H550 C544 0.930 . S
H551 C547 0.930 . S
C552 N553 1.314 . S
C552 C554 1.353 . S
C552 H558 0.930 . S
N553 Li529 1.990 . S
N553 C552 1.314 . S
N553 C556 1.279 . S
C554 C552 1.353 . S
C554 C557 1.348 . S
C554 H602 0.979 . S
C555 C556 1.358 . S
C555 C557 1.356 . S
C555 H603 0.930 . S
C556 N553 1.279 . S
C556 C555 1.358 . S
C556 H559 0.930 . S
C557 C554 1.348 . S
C557 C555 1.356 . S
H558 C552 0.930 . S
H559 C556 0.930 . S
C560 C562 1.348 . S
C560 C563 1.356 . S
C560 O590 1.325 . S
N561 C564 1.314 . S
N561 C565 1.279 . S
C562 C560 1.348 . S
C562 C564 1.353 . S
C562 H604 0.929 . S
C563 C560 1.356 . S
C563 C565 1.358 . S
C563 H605 0.930 . S
C564 N561 1.314 . S
C564 C562 1.353 . S
C564 H606 0.930 . S
C565 N561 1.279 . S
C565 C563 1.358 . S
C565 H607 0.930 . S
C566 C567 1.348 1_655 S
C566 C568 1.356 . S
C566 O591 1.325 . S
C567 C566 1.348 1_455 S
C567 C569 1.353 . S
C567 H608 0.929 . S
C568 C566 1.356 . S
C568 C570 1.358 1_655 S
C568 H609 0.930 . S
C569 C567 1.353 . S
C569 N571 1.314 . S
C569 H610 0.930 . S
C570 C568 1.358 1_455 S
C570 N571 1.279 . S
C570 H611 0.930 . S
N571 C569 1.314 . S
N571 C570 1.279 . S
C572 C574 1.353 . S
C572 N575 1.314 . S
C572 H578 0.930 . S
C573 N575 1.279 . S
C573 C576 1.358 . S
C573 H579 0.930 . S
C574 C572 1.353 . S
C574 C577 1.348 . S
C574 H612 0.929 . S
N575 Li530 1.990 1_455 S
N575 C572 1.314 . S
N575 C573 1.279 . S
C576 C573 1.358 . S
C576 C577 1.356 . S
C576 H613 0.930 . S
C577 C574 1.348 . S
C577 C576 1.356 . S
H578 C572 0.930 . S
H579 C573 0.930 . S
C580 N581 1.314 . S
C580 C582 1.353 . S
C580 H586 0.930 . S
N581 Li531 1.990 . S
N581 C580 1.314 . S
N581 C584 1.279 . S
C582 C580 1.353 . S
C582 C585 1.348 . S
C582 H614 0.929 . S
C583 C584 1.358 . S
C583 C585 1.356 . S
C583 H615 0.930 . S
C584 N581 1.279 . S
C584 C583 1.358 . S
C584 H587 0.930 . S
C585 C582 1.348 . S
C585 C583 1.356 . S
H586 C580 0.930 . S
H587 C584 0.930 . S
O588 Li528 1.956 . S
O588 Li529 1.970 . S
O588 Li530 1.961 . S
O588 C532 1.325 . S
O589 Li528 1.970 . S
O589 Li529 1.956 . S
O589 Li531 1.961 . S
O589 C538 1.325 . S
O590 Li528 1.961 . S
O590 Li530 1.956 . S
O590 Li531 1.970 . S
O590 C560 1.325 . S
O591 Li529 1.961 . S
O591 Li530 1.970 . S
O591 Li531 1.956 . S
O591 C566 1.325 . S
H592 C534 0.929 . S
H593 C535 0.930 . S
H594 C536 0.930 1_554 S
H595 C537 0.930 1_554 S
H596 C539 0.930 . S
H597 C541 0.929 . S
H598 C542 0.930 . S
H599 C543 0.930 . S
H600 C546 0.930 . S
H601 C549 0.929 . S
H602 C554 0.979 . S
H603 C555 0.930 . S
H604 C562 0.929 . S
H605 C563 0.930 . S
H606 C564 0.930 . S
H607 C565 0.930 . S
H608 C567 0.929 . S
H609 C568 0.930 . S
H610 C569 0.930 . S
H611 C570 0.930 . S
H612 C574 0.929 . S
H613 C576 0.930 . S
H614 C582 0.929 . S
H615 C583 0.930 . S
Li616 N633 1.990 . S
Li616 O676 1.956 . S
Li616 O677 1.970 . S
Li616 O678 1.961 . S
Li617 N641 1.990 . S
Li617 O676 1.970 . S
Li617 O677 1.956 . S
Li617 O679 1.961 . S
Li618 N663 1.990 . S
Li618 O676 1.961 . S
Li618 O678 1.956 . S
Li618 O679 1.970 . S
Li619 N669 1.990 . S
Li619 O677 1.961 . S
Li619 O678 1.970 . S
Li619 O679 1.956 . S
C620 C622 1.348 . S
C620 C623 1.356 . S
C620 O676 1.325 . S
N621 C624 1.314 . S
N621 C625 1.279 . S
C622 C620 1.348 . S
C622 C624 1.353 . S
C622 H680 0.929 . S
C623 C620 1.356 . S
C623 C625 1.358 . S
C623 H681 0.930 . S
C624 N621 1.314 . S
C624 C622 1.353 . S
C624 H682 0.930 . S
C625 N621 1.279 . S
C625 C623 1.358 . S
C625 H683 0.930 . S
C626 C629 1.348 . S
C626 C630 1.356 . S
C626 O677 1.325 . S
C627 N628 1.281 1_556 S
C627 C630 1.355 . S
C627 H684 0.932 1_556 S
N628 C627 1.281 1_554 S
N628 C631 1.314 1_554 S
C629 C626 1.348 . S
C629 C631 1.353 . S
C629 H685 0.929 . S
C630 C626 1.356 . S
C630 C627 1.355 . S
C630 H686 0.930 . S
C631 N628 1.314 1_556 S
C631 C629 1.353 . S
C631 H687 0.930 . S
C632 N633 1.314 . S
C632 C637 1.353 . S
C632 H638 0.930 . S
N633 Li616 1.990 . S
N633 C632 1.314 . S
N633 C635 1.279 . S
C634 C635 1.358 . S
C634 C636 1.356 . S
C634 H688 0.930 . S
C635 N633 1.279 . S
C635 C634 1.358 . S
C635 H639 0.930 . S
C636 C634 1.356 . S
C636 C637 1.348 . S
C637 C632 1.353 . S
C637 C636 1.348 . S
C637 H689 0.929 . S
H638 C632 0.930 . S
H639 C635 0.930 . S
C640 N641 1.314 . S
C640 C642 1.353 . S
C640 H646 0.930 . S
N641 Li617 1.990 . S
N641 C640 1.314 . S
N641 C644 1.279 . S
C642 C640 1.353 . S
C642 C645 1.348 . S
C642 H690 0.929 . S
C643 C644 1.358 . S
C643 C645 1.356 . S
C643 H691 0.930 . S
C644 N641 1.279 . S
C644 C643 1.358 . S
C644 H647 0.930 . S
C645 C642 1.348 . S
C645 C643 1.356 . S
H646 C640 0.930 . S
H647 C644 0.930 . S
C648 C650 1.348 . S
C648 C651 1.356 . S
C648 O678 1.325 . S
N649 C652 1.314 . S
N649 C653 1.279 . S
C650 C648 1.348 . S
C650 C652 1.353 . S
C650 H692 0.929 . S
C651 C648 1.356 . S
C651 C653 1.358 . S
C651 H693 0.930 . S
C652 N649 1.314 . S
C652 C650 1.353 . S
C652 H694 0.930 . S
C653 N649 1.279 . S
C653 C651 1.358 . S
C653 H695 0.930 . S
C654 C655 1.348 . S
C654 C656 1.356 . S
C654 O679 1.325 . S
C655 C654 1.348 . S
C655 C657 1.353 . S
C655 H696 0.929 . S
C656 C654 1.356 . S
C656 C658 1.358 . S
C656 H697 0.930 . S
C657 C655 1.353 . S
C657 N659 1.314 . S
C657 H698 0.930 . S
C658 C656 1.358 . S
C658 N659 1.279 . S
C658 H699 0.930 . S
N659 C657 1.314 . S
N659 C658 1.279 . S
C660 C662 1.353 . S
C660 N663 1.314 . S
C660 H666 0.930 . S
C661 N663 1.279 . S
C661 C664 1.358 . S
C661 H667 0.930 . S
C662 C660 1.353 . S
C662 C665 1.348 . S
C662 H700 0.929 . S
N663 Li618 1.990 . S
N663 C660 1.314 . S
N663 C661 1.279 . S
C664 C661 1.358 . S
C664 C665 1.356 . S
C664 H701 0.930 . S
C665 C662 1.348 . S
C665 C664 1.356 . S
H666 C660 0.930 . S
H667 C661 0.930 . S
C668 N669 1.314 . S
C668 C670 1.353 . S
C668 H674 0.930 . S
N669 Li619 1.990 . S
N669 C668 1.314 . S
N669 C672 1.279 . S
C670 C668 1.353 . S
C670 C673 1.348 . S
C670 H702 0.929 . S
C671 C672 1.358 . S
C671 C673 1.356 . S
C671 H703 0.930 . S
C672 N669 1.279 . S
C672 C671 1.358 . S
C672 H675 0.930 . S
C673 C670 1.348 . S
C673 C671 1.356 . S
H674 C668 0.930 . S
H675 C672 0.930 . S
O676 Li616 1.956 . S
O676 Li617 1.970 . S
O676 Li618 1.961 . S
O676 C620 1.325 . S
O677 Li616 1.970 . S
O677 Li617 1.956 . S
O677 Li619 1.961 . S
O677 C626 1.325 . S
O678 Li616 1.961 . S
O678 Li618 1.956 . S
O678 Li619 1.970 . S
O678 C648 1.325 . S
O679 Li617 1.961 . S
O679 Li618 1.970 . S
O679 Li619 1.956 . S
O679 C654 1.325 . S
H680 C622 0.929 . S
H681 C623 0.930 . S
H682 C624 0.930 . S
H683 C625 0.930 . S
H684 C627 0.932 1_554 S
H685 C629 0.929 . S
H686 C630 0.930 . S
H687 C631 0.930 . S
H688 C634 0.930 . S
H689 C637 0.929 . S
H690 C642 0.929 . S
H691 C643 0.930 . S
H692 C650 0.929 . S
H693 C651 0.930 . S
H694 C652 0.930 . S
H695 C653 0.930 . S
H696 C655 0.929 . S
H697 C656 0.930 . S
H698 C657 0.930 . S
H699 C658 0.930 . S
H700 C662 0.929 . S
H701 C664 0.930 . S
H702 C670 0.929 . S
H703 C671 0.930 . S
Li704 N721 1.990 . S
Li704 O764 1.956 . S
Li704 O765 1.970 . S
Li704 O766 1.961 . S
Li705 N729 1.990 . S
Li705 O764 1.970 . S
Li705 O765 1.956 . S
Li705 O767 1.961 . S
Li706 N751 1.990 1_545 S
Li706 O764 1.961 . S
Li706 O766 1.956 . S
Li706 O767 1.970 . S
Li707 N757 1.990 . S
Li707 O765 1.961 . S
Li707 O766 1.970 . S
Li707 O767 1.956 . S
C708 C710 1.348 . S
C708 C711 1.356 . S
C708 O764 1.325 . S
N709 C712 1.314 . S
N709 C713 1.279 . S
C710 C708 1.348 . S
C710 C712 1.353 . S
C710 H768 0.929 . S
C711 C708 1.356 . S
C711 C713 1.358 . S
C711 H769 0.930 . S
C712 N709 1.314 . S
C712 C710 1.353 . S
C712 H770 0.930 . S
C713 N709 1.279 . S
C713 C711 1.358 . S
C713 H771 0.930 . S
C714 C717 1.348 . S
C714 C718 1.356 . S
C714 O765 1.325 . S
C715 N716 1.279 . S
C715 C718 1.358 . S
C715 H772 0.930 . S
N716 C715 1.279 . S
N716 C719 1.314 . S
C717 C714 1.348 . S
C717 C719 1.353 . S
C717 H773 0.929 . S
C718 C714 1.356 . S
C718 C715 1.358 . S
C718 H774 0.930 . S
C719 N716 1.314 . S
C719 C717 1.353 . S
C719 H775 0.930 . S
C720 N721 1.314 . S
C720 C725 1.353 . S
C720 H726 0.930 . S
N721 Li704 1.990 . S
N721 C720 1.314 . S
N721 C723 1.279 . S
C722 C723 1.358 . S
C722 C724 1.356 . S
C722 H776 0.930 . S
C723 N721 1.279 . S
C723 C722 1.358 . S
C723 H727 0.930 . S
C724 C722 1.356 . S
C724 C725 1.348 . S
C725 C720 1.353 . S
C725 C724 1.348 . S
C725 H777 0.929 . S
H726 C720 0.930 . S
H727 C723 0.930 . S
C728 N729 1.314 . S
C728 C730 1.353 . S
C728 H734 0.930 . S
N729 Li705 1.990 . S
N729 C728 1.314 . S
N729 C732 1.279 . S
C730 C728 1.353 . S
C730 C733 1.348 . S
C730 H778 0.929 . S
C731 C732 1.358 . S
C731 C733 1.356 . S
C731 H779 0.930 . S
C732 N729 1.279 . S
C732 C731 1.358 . S
C732 H735 0.930 . S
C733 C730 1.348 . S
C733 C731 1.356 . S
H734 C728 0.930 . S
H735 C732 0.930 . S
C736 C738 1.348 1_545 S
C736 C739 1.356 1_545 S
C736 O766 1.325 . S
N737 C740 1.314 . S
N737 C741 1.279 . S
C738 C736 1.348 1_565 S
C738 C740 1.353 . S
C738 H780 0.929 . S
C739 C736 1.356 1_565 S
C739 C741 1.358 . S
C739 H781 0.930 . S
C740 N737 1.314 . S
C740 C738 1.353 . S
C740 H782 0.930 . S
C741 N737 1.279 . S
C741 C739 1.358 . S
C741 H783 0.930 . S
C742 C743 1.348 . S
C742 C744 1.356 . S
C742 O767 1.325 . S
C743 C742 1.348 . S
C743 C745 1.353 . S
C743 H784 0.929 1_545 S
C744 C742 1.356 . S
C744 C746 1.357 1_556 S
C744 H785 0.930 . S
C745 C743 1.353 . S
C745 N747 1.314 1_556 S
C745 H786 0.930 1_545 S
C746 C744 1.357 1_554 S
C746 N747 1.280 . S
C746 H787 0.931 . S
N747 C745 1.314 1_554 S
N747 C746 1.280 . S
C748 C750 1.353 . S
C748 N751 1.314 . S
C748 H754 0.930 . S
C749 N751 1.279 . S
C749 C752 1.358 . S
C749 H755 0.930 . S
C750 C748 1.353 . S
C750 C753 1.348 . S
C750 H788 0.929 . S
N751 Li706 1.990 1_565 S
N751 C748 1.314 . S
N751 C749 1.279 . S
C752 C749 1.358 . S
C752 C753 1.356 . S
C752 H789 0.930 . S
C753 C750 1.348 . S
C753 C752 1.356 . S
H754 C748 0.930 . S
H755 C749 0.930 . S
C756 N757 1.314 . S
C756 C758 1.353 . S
C756 H762 0.930 . S
N757 Li707 1.990 . S
N757 C756 1.314 . S
N757 C760 1.279 . S
C758 C756 1.353 . S
C758 C761 1.348 . S
C758 H790 0.929 . S
C759 C760 1.358 . S
C759 C761 1.356 . S
C759 H791 0.930 . S
C760 N757 1.279 . S
C760 C759 1.358 . S
C760 H763 0.930 . S
C761 C758 1.348 . S
C761 C759 1.356 . S
H762 C756 0.930 . S
H763 C760 0.930 . S
O764 Li704 1.956 . S
O764 Li705 1.970 . S
O764 Li706 1.961 . S
O764 C708 1.325 . S
O765 Li704 1.970 . S
O765 Li705 1.956 . S
O765 Li707 1.961 . S
O765 C714 1.325 . S
O766 Li704 1.961 . S
O766 Li706 1.956 . S
O766 Li707 1.970 . S
O766 C736 1.325 . S
O767 Li705 1.961 . S
O767 Li706 1.970 . S
O767 Li707 1.956 . S
O767 C742 1.325 . S
H768 C710 0.929 . S
H769 C711 0.930 . S
H770 C712 0.930 . S
H771 C713 0.930 . S
H772 C715 0.930 . S
H773 C717 0.929 . S
H774 C718 0.930 . S
H775 C719 0.930 . S
H776 C722 0.930 . S
H777 C725 0.929 . S
H778 C730 0.929 . S
H779 C731 0.930 . S
H780 C738 0.929 . S
H781 C739 0.930 . S
H782 C740 0.930 . S
H783 C741 0.930 . S
H784 C743 0.929 1_565 S
H785 C744 0.930 . S
H786 C745 0.930 1_565 S
H787 C746 0.931 . S
H788 C750 0.929 . S
H789 C752 0.930 . S
H790 C758 0.929 . S
H791 C759 0.930 . S
Li792 N809 1.990 . S
Li792 O852 1.956 . S
Li792 O853 1.970 . S
Li792 O854 1.961 . S
Li793 N817 1.990 . S
Li793 O852 1.970 . S
Li793 O853 1.956 . S
Li793 O855 1.961 . S
Li794 N839 1.990 . S
Li794 O852 1.961 . S
Li794 O854 1.956 . S
Li794 O855 1.970 . S
Li795 N845 1.990 1_545 S
Li795 O853 1.961 . S
Li795 O854 1.970 . S
Li795 O855 1.956 . S
C796 C798 1.348 . S
C796 C799 1.356 . S
C796 O852 1.325 . S
N797 C800 1.314 . S
N797 C801 1.279 . S
C798 C796 1.348 . S
C798 C800 1.353 . S
C798 H856 0.929 . S
C799 C796 1.356 . S
C799 C801 1.358 . S
C799 H857 0.930 . S
C800 N797 1.314 . S
C800 C798 1.353 . S
C800 H858 0.930 . S
C801 N797 1.279 . S
C801 C799 1.358 . S
C801 H859 0.930 . S
C802 C805 1.348 . S
C802 C806 1.356 . S
C802 O853 1.325 . S
C803 N804 1.279 . S
C803 C806 1.358 . S
C803 H860 0.930 . S
N804 C803 1.279 . S
N804 C807 1.314 . S
C805 C802 1.348 . S
C805 C807 1.353 . S
C805 H861 0.929 . S
C806 C802 1.356 . S
C806 C803 1.358 . S
C806 H862 0.930 . S
C807 N804 1.314 . S
C807 C805 1.353 . S
C807 H863 0.930 . S
C808 N809 1.314 . S
C808 C813 1.353 . S
C808 H814 0.930 . S
N809 Li792 1.990 . S
N809 C808 1.314 . S
N809 C811 1.279 . S
C810 C811 1.358 . S
C810 C812 1.356 . S
C810 H864 0.930 . S
C811 N809 1.279 . S
C811 C810 1.358 . S
C811 H815 0.930 . S
C812 C810 1.356 . S
C812 C813 1.348 . S
C813 C808 1.353 . S
C813 C812 1.348 . S
C813 H865 0.929 . S
H814 C808 0.930 . S
H815 C811 0.930 . S
C816 N817 1.314 . S
C816 C818 1.353 . S
C816 H822 0.930 . S
N817 Li793 1.990 . S
N817 C816 1.314 . S
N817 C820 1.279 . S
C818 C816 1.353 . S
C818 C821 1.348 . S
C818 H866 0.929 . S
C819 C820 1.358 . S
C819 C821 1.356 . S
C819 H867 0.930 . S
C820 N817 1.279 . S
C820 C819 1.358 . S
C820 H823 0.930 . S
C821 C818 1.348 . S
C821 C819 1.356 . S
H822 C816 0.930 . S
H823 C820 0.930 . S
C824 C826 1.348 . S
C824 C827 1.356 . S
C824 O854 1.325 . S
N825 C828 1.314 . S
N825 C829 1.279 . S
C826 C824 1.348 . S
C826 C828 1.353 . S
C826 H868 0.929 1_545 S
C827 C824 1.356 . S
C827 C829 1.358 . S
C827 H869 0.930 . S
C828 N825 1.314 . S
C828 C826 1.353 . S
C828 H870 0.930 1_545 S
C829 N825 1.279 . S
C829 C827 1.358 . S
C829 H871 0.930 . S
C830 C831 1.348 1_545 S
C830 C832 1.356 1_545 S
C830 O855 1.325 . S
C831 C830 1.348 1_565 S
C831 C833 1.353 . S
C831 H872 0.929 . S
C832 C830 1.356 1_565 S
C832 C834 1.358 . S
C832 H873 0.930 . S
C833 C831 1.353 . S
C833 N835 1.314 . S
C833 H874 0.930 . S
C834 C832 1.358 . S
C834 N835 1.279 . S
C834 H875 0.930 . S
N835 C833 1.314 . S
N835 C834 1.279 . S
C836 C838 1.353 . S
C836 N839 1.314 . S
C836 H842 0.930 . S
C837 N839 1.279 . S
C837 C840 1.358 . S
C837 H843 0.930 . S
C838 C836 1.353 . S
C838 C841 1.348 . S
C838 H876 0.929 . S
N839 Li794 1.990 . S
N839 C836 1.314 . S
N839 C837 1.279 . S
C840 C837 1.358 . S
C840 C841 1.356 . S
C840 H877 0.930 . S
C841 C838 1.348 . S
C841 C840 1.356 . S
H842 C836 0.930 . S
H843 C837 0.930 . S
C844 N845 1.314 . S
C844 C846 1.353 . S
C844 H850 0.930 . S
N845 Li795 1.990 1_565 S
N845 C844 1.314 . S
N845 C848 1.279 . S
C846 C844 1.353 . S
C846 C849 1.348 . S
C846 H878 0.929 . S
C847 C848 1.358 . S
C847 C849 1.356 . S
C847 H879 0.930 . S
C848 N845 1.279 . S
C848 C847 1.358 . S
C848 H851 0.930 . S
C849 C846 1.348 . S
C849 C847 1.356 . S
H850 C844 0.930 . S
H851 C848 0.930 . S
O852 Li792 1.956 . S
O852 Li793 1.970 . S
O852 Li794 1.961 . S
O852 C796 1.325 . S
O853 Li792 1.970 . S
O853 Li793 1.956 . S
O853 Li795 1.961 . S
O853 C802 1.325 . S
O854 Li792 1.961 . S
O854 Li794 1.956 . S
O854 Li795 1.970 . S
O854 C824 1.325 . S
O855 Li793 1.961 . S
O855 Li794 1.970 . S
O855 Li795 1.956 . S
O855 C830 1.325 . S
H856 C798 0.929 . S
H857 C799 0.930 . S
H858 C800 0.930 . S
H859 C801 0.930 . S
H860 C803 0.930 . S
H861 C805 0.929 . S
H862 C806 0.930 . S
H863 C807 0.930 . S
H864 C810 0.930 . S
H865 C813 0.929 . S
H866 C818 0.929 . S
H867 C819 0.930 . S
H868 C826 0.929 1_565 S
H869 C827 0.930 . S
H870 C828 0.930 1_565 S
H871 C829 0.930 . S
H872 C831 0.929 . S
H873 C832 0.930 . S
H874 C833 0.930 . S
H875 C834 0.930 . S
H876 C838 0.929 . S
H877 C840 0.930 . S
H878 C846 0.929 . S
H879 C847 0.930 . S
Li880 N897 1.990 1_655 S
Li880 O940 1.956 . S
Li880 O941 1.970 . S
Li880 O942 1.961 . S
Li881 N905 1.990 . S
Li881 O940 1.970 . S
Li881 O941 1.956 . S
Li881 O943 1.961 . S
Li882 N927 1.990 . S
Li882 O940 1.961 . S
Li882 O942 1.956 . S
Li882 O943 1.970 . S
Li883 N933 1.990 . S
Li883 O941 1.961 . S
Li883 O942 1.970 . S
Li883 O943 1.956 . S
C884 C886 1.348 1_655 S
C884 C887 1.356 1_655 S
C884 O940 1.325 . S
N885 C888 1.314 . S
N885 C889 1.279 . S
C886 C884 1.348 1_455 S
C886 C888 1.353 . S
C886 H944 0.929 . S
C887 C884 1.356 1_455 S
C887 C889 1.358 . S
C887 H945 0.930 . S
C888 N885 1.314 . S
C888 C886 1.353 . S
C888 H946 0.930 . S
C889 N885 1.279 . S
C889 C887 1.358 . S
C889 H947 0.930 . S
C890 C893 1.348 . S
C890 C894 1.356 . S
C890 O941 1.325 . S
C891 N892 1.279 . S
C891 C894 1.358 . S
C891 H948 0.930 . S
N892 C891 1.279 . S
N892 C895 1.314 . S
C893 C890 1.348 . S
C893 C895 1.353 . S
C893 H949 0.929 1_655 S
C894 C890 1.356 . S
C894 C891 1.358 . S
C894 H950 0.930 . S
C895 N892 1.314 . S
C895 C893 1.353 . S
C895 H951 0.930 1_655 S
C896 N897 1.314 . S
C896 C901 1.353 . S
C896 H902 0.930 . S
N897 Li880 1.990 1_455 S
N897 C896 1.314 . S
N897 C899 1.279 . S
C898 C899 1.358 . S
C898 C900 1.356 . S
C898 H952 0.930 . S
C899 N897 1.279 . S
C899 C898 1.358 . S
C899 H903 0.930 . S
C900 C898 1.356 . S
C900 C901 1.348 . S
C901 C896 1.353 . S
C901 C900 1.348 . S
C901 H953 0.929 . S
H902 C896 0.930 . S
H903 C899 0.930 . S
C904 N905 1.314 . S
C904 C906 1.353 . S
C904 H910 0.930 . S
N905 Li881 1.990 . S
N905 C904 1.314 . S
N905 C908 1.279 . S
C906 C904 1.353 . S
C906 C909 1.348 . S
C906 H954 0.929 . S
C907 C908 1.358 . S
C907 C909 1.356 . S
C907 H955 0.930 . S
C908 N905 1.279 . S
C908 C907 1.358 . S
C908 H911 0.930 . S
C909 C906 1.348 . S
C909 C907 1.356 . S
H910 C904 0.930 . S
H911 C908 0.930 . S
C912 C914 1.348 . S
C912 C915 1.356 . S
C912 O942 1.325 . S
N913 C916 1.314 . S
N913 C917 1.279 . S
C914 C912 1.348 . S
C914 C916 1.353 . S
C914 H956 0.929 . S
C915 C912 1.356 . S
C915 C917 1.358 . S
C915 H957 0.930 . S
C916 N913 1.314 . S
C916 C914 1.353 . S
C916 H958 0.930 . S
C917 N913 1.279 . S
C917 C915 1.358 . S
C917 H959 0.930 . S
C918 C919 1.348 . S
C918 C920 1.356 . S
C918 O943 1.325 . S
C919 C918 1.348 . S
C919 C921 1.353 . S
C919 H960 0.929 . S
C920 C918 1.356 . S
C920 C922 1.358 . S
C920 H961 0.930 . S
C921 C919 1.353 . S
C921 N923 1.314 . S
C921 H962 0.930 . S
C922 C920 1.358 . S
C922 N923 1.279 . S
C922 H963 0.930 . S
N923 C921 1.314 . S
N923 C922 1.279 . S
C924 C926 1.353 . S
C924 N927 1.314 . S
C924 H930 0.930 . S
C925 N927 1.279 . S
C925 C928 1.358 . S
C925 H931 0.930 . S
C926 C924 1.353 . S
C926 C929 1.348 . S
C926 H964 0.929 . S
N927 Li882 1.990 . S
N927 C924 1.314 . S
N927 C925 1.279 . S
C928 C925 1.358 . S
C928 C929 1.356 . S
C928 H965 0.930 . S
C929 C926 1.348 . S
C929 C928 1.356 . S
H930 C924 0.930 . S
H931 C925 0.930 . S
C932 N933 1.314 . S
C932 C934 1.353 . S
C932 H938 0.930 . S
N933 Li883 1.990 . S
N933 C932 1.314 . S
N933 C936 1.279 . S
C934 C932 1.353 . S
C934 C937 1.348 . S
C934 H966 0.929 . S
C935 C936 1.358 . S
C935 C937 1.356 . S
C935 H967 0.930 . S
C936 N933 1.279 . S
C936 C935 1.358 . S
C936 H939 0.930 . S
C937 C934 1.348 . S
C937 C935 1.356 . S
H938 C932 0.930 . S
H939 C936 0.930 . S
O940 Li880 1.956 . S
O940 Li881 1.970 . S
O940 Li882 1.961 . S
O940 C884 1.325 . S
O941 Li880 1.970 . S
O941 Li881 1.956 . S
O941 Li883 1.961 . S
O941 C890 1.325 . S
O942 Li880 1.961 . S
O942 Li882 1.956 . S
O942 Li883 1.970 . S
O942 C912 1.325 . S
O943 Li881 1.961 . S
O943 Li882 1.970 . S
O943 Li883 1.956 . S
O943 C918 1.325 . S
H944 C886 0.929 . S
H945 C887 0.930 . S
H946 C888 0.930 . S
H947 C889 0.930 . S
H948 C891 0.930 . S
H949 C893 0.929 1_455 S
H950 C894 0.930 . S
H951 C895 0.930 1_455 S
H952 C898 0.930 . S
H953 C901 0.929 . S
H954 C906 0.929 . S
H955 C907 0.930 . S
H956 C914 0.929 . S
H957 C915 0.930 . S
H958 C916 0.930 . S
H959 C917 0.930 . S
H960 C919 0.929 . S
H961 C920 0.930 . S
H962 C921 0.930 . S
H963 C922 0.930 . S
H964 C926 0.929 . S
H965 C928 0.930 . S
H966 C934 0.929 . S
H967 C935 0.930 . S
Li968 N985 1.990 . S
Li968 O1028 1.956 . S
Li968 O1029 1.970 . S
Li968 O1030 1.961 . S
Li969 N993 1.990 . S
Li969 O1028 1.970 . S
Li969 O1029 1.956 . S
Li969 O1031 1.961 . S
Li970 N1015 1.990 . S
Li970 O1028 1.961 . S
Li970 O1030 1.956 . S
Li970 O1031 1.970 . S
Li971 N1021 1.990 . S
Li971 O1029 1.961 . S
Li971 O1030 1.970 . S
Li971 O1031 1.956 . S
C972 C974 1.348 . S
C972 C975 1.356 . S
C972 O1028 1.325 . S
N973 C976 1.314 . S
N973 C977 1.279 . S
C974 C972 1.348 . S
C974 C976 1.353 . S
C974 H1032 0.929 . S
C975 C972 1.356 . S
C975 C977 1.358 . S
C975 H1033 0.930 . S
C976 N973 1.314 . S
C976 C974 1.353 . S
C976 H1034 0.930 . S
C977 N973 1.279 . S
C977 C975 1.358 . S
C977 H1035 0.930 . S
C978 C981 1.348 . S
C978 C982 1.356 . S
C978 O1029 1.325 . S
C979 N980 1.279 . S
C979 C982 1.358 . S
C979 H1036 0.930 . S
N980 C979 1.279 . S
N980 C983 1.314 . S
C981 C978 1.348 . S
C981 C983 1.353 . S
C981 H1037 0.929 . S
C982 C978 1.356 . S
C982 C979 1.358 . S
C982 H1038 0.930 . S
C983 N980 1.314 . S
C983 C981 1.353 . S
C983 H1039 0.930 . S
C984 N985 1.314 . S
C984 C989 1.353 . S
C984 H990 0.930 . S
N985 Li968 1.990 . S
N985 C984 1.314 . S
N985 C987 1.279 . S
C986 C987 1.358 . S
C986 C988 1.356 . S
C986 H1040 0.930 . S
C987 N985 1.279 . S
C987 C986 1.358 . S
C987 H991 0.930 . S
C988 C986 1.356 . S
C988 C989 1.348 . S
C989 C984 1.353 . S
C989 C988 1.348 . S
C989 H1041 0.929 . S
H990 C984 0.930 . S
H991 C987 0.930 . S
C992 N993 1.314 . S
C992 C994 1.353 . S
C992 H998 0.930 . S
N993 Li969 1.990 . S
N993 C992 1.314 . S
N993 C996 1.279 . S
C994 C992 1.353 . S
C994 C997 1.348 . S
C994 H1042 0.929 . S
C995 C996 1.358 . S
C995 C997 1.356 . S
C995 H1043 0.930 . S
C996 N993 1.279 . S
C996 C995 1.358 . S
C996 H999 0.930 . S
C997 C994 1.348 . S
C997 C995 1.356 . S
H998 C992 0.930 . S
H999 C996 0.930 . S
C1000 C1002 1.348 . S
C1000 C1003 1.356 . S
C1000 O1030 1.325 . S
N1001 C1004 1.314 . S
N1001 C1005 1.279 . S
C1002 C1000 1.348 . S
C1002 C1004 1.353 . S
C1002 H1044 0.929 . S
C1003 C1000 1.356 . S
C1003 C1005 1.358 . S
C1003 H1045 0.930 . S
C1004 N1001 1.314 . S
C1004 C1002 1.353 . S
C1004 H1046 0.930 . S
C1005 N1001 1.279 . S
C1005 C1003 1.358 . S
C1005 H1047 0.930 . S
C1006 C1007 1.348 . S
C1006 C1008 1.356 . S
C1006 O1031 1.325 . S
C1007 C1006 1.348 . S
C1007 C1009 1.353 . S
C1007 H1048 0.929 . S
C1008 C1006 1.356 . S
C1008 C1010 1.358 . S
C1008 H1049 0.930 . S
C1009 C1007 1.353 . S
C1009 N1011 1.314 . S
C1009 H1050 0.930 . S
C1010 C1008 1.358 . S
C1010 N1011 1.279 . S
C1010 H1051 0.930 . S
N1011 C1009 1.314 . S
N1011 C1010 1.279 . S
C1012 C1014 1.353 . S
C1012 N1015 1.314 . S
C1012 H1018 0.930 . S
C1013 N1015 1.279 . S
C1013 C1016 1.358 . S
C1013 H1019 0.930 . S
C1014 C1012 1.353 . S
C1014 C1017 1.348 . S
C1014 H1052 0.929 . S
N1015 Li970 1.990 . S
N1015 C1012 1.314 . S
N1015 C1013 1.279 . S
C1016 C1013 1.358 . S
C1016 C1017 1.356 . S
C1016 H1053 0.930 . S
C1017 C1014 1.348 . S
C1017 C1016 1.356 . S
H1018 C1012 0.930 . S
H1019 C1013 0.930 . S
C1020 N1021 1.314 . S
C1020 C1022 1.353 . S
C1020 H1026 0.930 . S
N1021 Li971 1.990 . S
N1021 C1020 1.314 . S
N1021 C1024 1.279 . S
C1022 C1020 1.353 . S
C1022 C1025 1.348 . S
C1022 H1054 0.929 . S
C1023 C1024 1.358 . S
C1023 C1025 1.356 . S
C1023 H1055 0.930 . S
C1024 N1021 1.279 . S
C1024 C1023 1.358 . S
C1024 H1027 0.930 . S
C1025 C1022 1.348 . S
C1025 C1023 1.356 . S
H1026 C1020 0.930 . S
H1027 C1024 0.930 . S
O1028 Li968 1.956 . S
O1028 Li969 1.970 . S
O1028 Li970 1.961 . S
O1028 C972 1.325 . S
O1029 Li968 1.970 . S
O1029 Li969 1.956 . S
O1029 Li971 1.961 . S
O1029 C978 1.325 . S
O1030 Li968 1.961 . S
O1030 Li970 1.956 . S
O1030 Li971 1.970 . S
O1030 C1000 1.325 . S
O1031 Li969 1.961 . S
O1031 Li970 1.970 . S
O1031 Li971 1.956 . S
O1031 C1006 1.325 . S
H1032 C974 0.929 . S
H1033 C975 0.930 . S
H1034 C976 0.930 . S
H1035 C977 0.930 . S
H1036 C979 0.930 . S
H1037 C981 0.929 . S
H1038 C982 0.930 . S
H1039 C983 0.930 . S
H1040 C986 0.930 . S
H1041 C989 0.929 . S
H1042 C994 0.929 . S
H1043 C995 0.930 . S
H1044 C1002 0.929 . S
H1045 C1003 0.930 . S
H1046 C1004 0.930 . S
H1047 C1005 0.930 . S
H1048 C1007 0.929 . S
H1049 C1008 0.930 . S
H1050 C1009 0.930 . S
H1051 C1010 0.930 . S
H1052 C1014 0.929 . S
H1053 C1016 0.930 . S
H1054 C1022 0.929 . S
H1055 C1023 0.930 . S
H1056 C1064 0.929 . S
H1057 C1066 0.930 1_556 S
H1058 C1068 0.930 . S
H1059 C1071 0.929 . S
H1060 C1074 0.930 . S
H1061 C1076 0.960 . S
H1062 C1076 0.960 . S
H1063 C1076 0.960 . S
C1064 H1056 0.929 . S
C1064 C1065 1.377 . S
C1064 C1066 1.384 . S
C1065 C1064 1.377 . S
C1065 C1071 1.390 . S
C1066 H1057 0.930 1_554 S
C1066 C1064 1.384 . S
C1066 C1067 1.372 . S
C1067 C1066 1.372 . S
C1067 C1068 1.400 . S
C1067 C1072 1.490 1_554 S
C1068 H1058 0.930 . S
C1068 C1067 1.400 . S
C1068 C1071 1.386 . S
H1069 C1085 0.930 . S
H1070 C1086 0.931 . S
C1071 H1059 0.929 . S
C1071 C1065 1.390 . S
C1071 C1068 1.386 . S
C1072 C1067 1.490 1_556 S
C1072 C1074 1.395 . S
C1072 C1075 1.421 . S
H1073 C1079 0.930 . S
C1074 H1060 0.930 . S
C1074 C1072 1.395 . S
C1074 C1077 1.403 . S
C1075 C1072 1.421 . S
C1075 C1076 1.483 1_556 S
C1075 C1079 1.426 . S
C1076 H1061 0.960 . S
C1076 H1062 0.960 . S
C1076 H1063 0.960 . S
C1076 C1075 1.483 1_554 S
C1077 C1074 1.403 . S
C1077 C1078 1.392 . S
C1077 C1081 1.495 . S
C1078 C1077 1.392 . S
C1078 C1079 1.385 . S
C1078 C1080 1.478 . S
C1079 H1073 0.930 . S
C1079 C1075 1.426 . S
C1079 C1078 1.385 . S
C1080 C1078 1.478 . S
C1080 C1082 1.381 . S
C1080 C1086 1.383 . S
C1081 C1077 1.495 . S
C1081 H1087 0.959 . S
C1081 H1088 0.961 . S
C1081 H1089 0.960 . S
C1082 C1080 1.381 . S
C1082 C1083 1.394 . S
C1082 H1090 0.930 . S
C1083 C1082 1.394 . S
C1083 C1084 1.383 . S
C1083 H1091 0.929 . S
C1084 C1083 1.383 . S
C1084 C1085 1.377 . S
C1085 H1069 0.930 . S
C1085 C1084 1.377 . S
C1085 C1086 1.379 . S
C1086 H1070 0.931 . S
C1086 C1080 1.383 . S
C1086 C1085 1.379 . S
H1087 C1081 0.959 . S
H1088 C1081 0.961 . S
H1089 C1081 0.960 . S
H1090 C1082 0.930 . S
H1091 C1083 0.929 . S
H1092 C1100 0.929 . S
H1093 C1102 0.930 . S
H1094 C1104 0.930 1_556 S
H1095 C1107 0.929 . S
H1096 C1110 0.930 . S
H1097 C1112 0.960 . S
H1098 C1112 0.960 . S
H1099 C1112 0.960 . S
C1100 H1092 0.929 . S
C1100 C1101 1.377 . S
C1100 C1102 1.384 . S
C1101 C1100 1.377 . S
C1101 C1107 1.390 . S
C1102 H1093 0.930 . S
C1102 C1100 1.384 . S
C1102 C1103 1.372 . S
C1103 C1102 1.372 . S
C1103 C1104 1.400 . S
C1103 C1108 1.490 1_554 S
C1104 H1094 0.930 1_554 S
C1104 C1103 1.400 . S
C1104 C1107 1.386 . S
H1105 C1121 0.930 . S
H1106 C1122 0.931 . S
C1107 H1095 0.929 . S
C1107 C1101 1.390 . S
C1107 C1104 1.386 . S
C1108 C1103 1.490 1_556 S
C1108 C1110 1.395 . S
C1108 C1111 1.403 . S
H1109 C1115 0.930 . S
C1110 H1096 0.930 . S
C1110 C1108 1.395 . S
C1110 C1113 1.403 . S
C1111 C1108 1.403 . S
C1111 C1112 1.524 1_556 S
C1111 C1115 1.400 . S
C1112 H1097 0.960 . S
C1112 H1098 0.960 . S
C1112 H1099 0.960 . S
C1112 C1111 1.524 1_554 S
C1113 C1110 1.403 . S
C1113 C1114 1.392 . S
C1113 C1117 1.495 . S
C1114 C1113 1.392 . S
C1114 C1115 1.385 . S
C1114 C1116 1.478 . S
C1115 H1109 0.930 . S
C1115 C1111 1.400 . S
C1115 C1114 1.385 . S
C1116 C1114 1.478 . S
C1116 C1118 1.381 . S
C1116 C1122 1.383 . S
C1117 C1113 1.495 . S
C1117 H1123 0.959 . S
C1117 H1124 0.961 . S
C1117 H1125 0.960 . S
C1118 C1116 1.381 . S
C1118 C1119 1.394 . S
C1118 H1126 0.930 . S
C1119 C1118 1.394 . S
C1119 C1120 1.383 . S
C1119 H1127 0.929 . S
C1120 C1119 1.383 . S
C1120 C1121 1.377 . S
C1121 H1105 0.930 . S
C1121 C1120 1.377 . S
C1121 C1122 1.379 . S
C1122 H1106 0.931 . S
C1122 C1116 1.383 . S
C1122 C1121 1.379 . S
H1123 C1117 0.959 . S
H1124 C1117 0.961 . S
H1125 C1117 0.960 . S
H1126 C1118 0.930 . S
H1127 C1119 0.929 . S
H1128 C1136 0.929 . S
H1129 C1138 0.930 . S
H1130 C1140 0.930 . S
H1131 C1143 0.929 . S
H1132 C1146 0.930 . S
H1133 C1148 0.960 . S
H1134 C1148 0.960 . S
H1135 C1148 0.960 . S
C1136 H1128 0.929 . S
C1136 C1137 1.377 . S
C1136 C1138 1.384 1_554 S
C1137 C1136 1.377 . S
C1137 C1143 1.390 . S
C1138 H1129 0.930 . S
C1138 C1136 1.384 1_556 S
C1138 C1139 1.372 1_556 S
C1139 C1138 1.372 1_554 S
C1139 C1140 1.400 . S
C1139 C1144 1.490 1_554 S
C1140 H1130 0.930 . S
C1140 C1139 1.400 . S
C1140 C1143 1.386 . S
H1141 C1157 0.930 . S
H1142 C1158 0.931 . S
C1143 H1131 0.929 . S
C1143 C1137 1.390 . S
C1143 C1140 1.386 . S
C1144 C1139 1.490 1_556 S
C1144 C1146 1.395 . S
C1144 C1147 1.403 . S
H1145 C1151 0.930 . S
C1146 H1132 0.930 . S
C1146 C1144 1.395 . S
C1146 C1149 1.403 . S
C1147 C1144 1.403 . S
C1147 C1148 1.524 . S
C1147 C1151 1.400 . S
C1148 H1133 0.960 . S
C1148 H1134 0.960 . S
C1148 H1135 0.960 . S
C1148 C1147 1.524 . S
C1149 C1146 1.403 . S
C1149 C1150 1.392 . S
C1149 C1153 1.495 . S
C1150 C1149 1.392 . S
C1150 C1151 1.385 . S
C1150 C1152 1.478 . S
C1151 H1145 0.930 . S
C1151 C1147 1.400 . S
C1151 C1150 1.385 . S
C1152 C1150 1.478 . S
C1152 C1154 1.381 . S
C1152 C1158 1.383 . S
C1153 C1149 1.495 . S
C1153 H1159 0.959 . S
C1153 H1160 0.961 . S
C1153 H1161 0.960 . S
C1154 C1152 1.381 . S
C1154 C1155 1.394 . S
C1154 H1162 0.930 . S
C1155 C1154 1.394 . S
C1155 C1156 1.383 . S
C1155 H1163 0.929 . S
C1156 C1155 1.383 . S
C1156 C1157 1.377 . S
C1157 H1141 0.930 . S
C1157 C1156 1.377 . S
C1157 C1158 1.379 . S
C1158 H1142 0.931 . S
C1158 C1152 1.383 . S
C1158 C1157 1.379 . S
H1159 C1153 0.959 . S
H1160 C1153 0.961 . S
H1161 C1153 0.960 . S
H1162 C1154 0.930 . S
H1163 C1155 0.929 . S
H1164 C1172 0.929 . S
H1165 C1174 0.930 . S
H1166 C1176 0.930 . S
H1167 C1179 0.929 . S
H1168 C1182 0.930 . S
H1169 C1184 0.960 . S
H1170 C1184 0.960 . S
H1171 C1184 0.960 . S
C1172 H1164 0.929 . S
C1172 C1173 1.377 . S
C1172 C1174 1.384 . S
C1173 C1172 1.377 . S
C1173 C1179 1.390 . S
C1174 H1165 0.930 . S
C1174 C1172 1.384 . S
C1174 C1175 1.372 . S
C1175 C1174 1.372 . S
C1175 C1176 1.400 . S
C1175 C1180 1.490 . S
C1176 H1166 0.930 . S
C1176 C1175 1.400 . S
C1176 C1179 1.386 . S
H1177 C1193 0.930 . S
H1178 C1194 0.931 . S
C1179 H1167 0.929 . S
C1179 C1173 1.390 . S
C1179 C1176 1.386 . S
C1180 C1175 1.490 . S
C1180 C1182 1.395 . S
C1180 C1183 1.403 . S
H1181 C1187 0.930 . S
C1182 H1168 0.930 . S
C1182 C1180 1.395 . S
C1182 C1185 1.403 . S
C1183 C1180 1.403 . S
C1183 C1184 1.524 . S
C1183 C1187 1.400 . S
C1184 H1169 0.960 . S
C1184 H1170 0.960 . S
C1184 H1171 0.960 . S
C1184 C1183 1.524 . S
C1185 C1182 1.403 . S
C1185 C1186 1.392 . S
C1185 C1189 1.495 . S
C1186 C1185 1.392 . S
C1186 C1187 1.385 . S
C1186 C1188 1.478 . S
C1187 H1181 0.930 . S
C1187 C1183 1.400 . S
C1187 C1186 1.385 . S
C1188 C1186 1.478 . S
C1188 C1190 1.381 . S
C1188 C1194 1.383 . S
C1189 C1185 1.495 . S
C1189 H1195 0.959 . S
C1189 H1196 0.961 . S
C1189 H1197 0.960 . S
C1190 C1188 1.381 . S
C1190 C1191 1.394 . S
C1190 H1198 0.930 . S
C1191 C1190 1.394 . S
C1191 C1192 1.383 . S
C1191 H1199 0.929 . S
C1192 C1191 1.383 . S
C1192 C1193 1.377 . S
C1193 H1177 0.930 . S
C1193 C1192 1.377 . S
C1193 C1194 1.379 . S
C1194 H1178 0.931 . S
C1194 C1188 1.383 . S
C1194 C1193 1.379 . S
H1195 C1189 0.959 . S
H1196 C1189 0.961 . S
H1197 C1189 0.960 . S
H1198 C1190 0.930 . S
H1199 C1191 0.929 . S
H1200 C1208 0.929 . S
H1201 C1210 0.930 . S
H1202 C1212 0.930 . S
H1203 C1215 0.929 . S
H1204 C1218 0.930 . S
H1205 C1220 0.960 . S
H1206 C1220 0.960 . S
H1207 C1220 0.960 . S
C1208 H1200 0.929 . S
C1208 C1209 1.377 . S
C1208 C1210 1.384 . S
C1209 C1208 1.377 . S
C1209 C1215 1.390 . S
C1210 H1201 0.930 . S
C1210 C1208 1.384 . S
C1210 C1211 1.372 . S
C1211 C1210 1.372 . S
C1211 C1212 1.400 . S
C1211 C1216 1.490 . S
C1212 H1202 0.930 . S
C1212 C1211 1.400 . S
C1212 C1215 1.386 . S
H1213 C1229 0.930 . S
H1214 C1230 0.931 . S
C1215 H1203 0.929 . S
C1215 C1209 1.390 . S
C1215 C1212 1.386 . S
C1216 C1211 1.490 . S
C1216 C1218 1.395 . S
C1216 C1219 1.403 . S
H1217 C1223 0.930 . S
C1218 H1204 0.930 . S
C1218 C1216 1.395 . S
C1218 C1221 1.403 . S
C1219 C1216 1.403 . S
C1219 C1220 1.524 . S
C1219 C1223 1.400 . S
C1220 H1205 0.960 . S
C1220 H1206 0.960 . S
C1220 H1207 0.960 . S
C1220 C1219 1.524 . S
C1221 C1218 1.403 . S
C1221 C1222 1.392 . S
C1221 C1225 1.495 . S
C1222 C1221 1.392 . S
C1222 C1223 1.385 . S
C1222 C1224 1.478 . S
C1223 H1217 0.930 . S
C1223 C1219 1.400 . S
C1223 C1222 1.385 . S
C1224 C1222 1.478 . S
C1224 C1226 1.381 . S
C1224 C1230 1.383 . S
C1225 C1221 1.495 . S
C1225 H1231 0.959 . S
C1225 H1232 0.961 . S
C1225 H1233 0.960 . S
C1226 C1224 1.381 . S
C1226 C1227 1.394 . S
C1226 H1234 0.930 . S
C1227 C1226 1.394 . S
C1227 C1228 1.383 . S
C1227 H1235 0.929 . S
C1228 C1227 1.383 . S
C1228 C1229 1.377 . S
C1229 H1213 0.930 . S
C1229 C1228 1.377 . S
C1229 C1230 1.379 . S
C1230 H1214 0.931 . S
C1230 C1224 1.383 . S
C1230 C1229 1.379 . S
H1231 C1225 0.959 . S
H1232 C1225 0.961 . S
H1233 C1225 0.960 . S
H1234 C1226 0.930 . S
H1235 C1227 0.929 . S
H1236 C1244 0.929 . S
H1237 C1246 0.930 . S
H1238 C1248 0.930 . S
H1239 C1251 0.929 . S
H1240 C1254 0.930 . S
H1241 C1256 0.960 . S
H1242 C1256 0.960 . S
H1243 C1256 0.960 . S
C1244 H1236 0.929 . S
C1244 C1245 1.377 . S
C1244 C1246 1.384 . S
C1245 C1244 1.377 . S
C1245 C1251 1.390 . S
C1246 H1237 0.930 . S
C1246 C1244 1.384 . S
C1246 C1247 1.372 . S
C1247 C1246 1.372 . S
C1247 C1248 1.400 . S
C1247 C1252 1.490 . S
C1248 H1238 0.930 . S
C1248 C1247 1.400 . S
C1248 C1251 1.386 . S
H1249 C1265 0.930 . S
H1250 C1266 0.931 . S
C1251 H1239 0.929 . S
C1251 C1245 1.390 . S
C1251 C1248 1.386 . S
C1252 C1247 1.490 . S
C1252 C1254 1.395 . S
C1252 C1255 1.403 . S
H1253 C1259 0.930 . S
C1254 H1240 0.930 . S
C1254 C1252 1.395 . S
C1254 C1257 1.403 . S
C1255 C1252 1.403 . S
C1255 C1256 1.524 . S
C1255 C1259 1.400 . S
C1256 H1241 0.960 . S
C1256 H1242 0.960 . S
C1256 H1243 0.960 . S
C1256 C1255 1.524 . S
C1257 C1254 1.403 . S
C1257 C1258 1.392 . S
C1257 C1261 1.495 . S
C1258 C1257 1.392 . S
C1258 C1259 1.385 . S
C1258 C1260 1.478 . S
C1259 H1253 0.930 . S
C1259 C1255 1.400 . S
C1259 C1258 1.385 . S
C1260 C1258 1.478 . S
C1260 C1262 1.381 . S
C1260 C1266 1.383 . S
C1261 C1257 1.495 . S
C1261 H1267 0.959 . S
C1261 H1268 0.961 . S
C1261 H1269 0.960 . S
C1262 C1260 1.381 . S
C1262 C1263 1.394 . S
C1262 H1270 0.930 . S
C1263 C1262 1.394 . S
C1263 C1264 1.383 . S
C1263 H1271 0.929 . S
C1264 C1263 1.383 . S
C1264 C1265 1.377 . S
C1265 H1249 0.930 . S
C1265 C1264 1.377 . S
C1265 C1266 1.379 . S
C1266 H1250 0.931 . S
C1266 C1260 1.383 . S
C1266 C1265 1.379 . S
H1267 C1261 0.959 . S
H1268 C1261 0.961 . S
H1269 C1261 0.960 . S
H1270 C1262 0.930 . S
H1271 C1263 0.929 . S
H1272 C1280 0.929 . S
H1273 C1282 0.930 . S
H1274 C1284 0.930 . S
H1275 C1287 0.929 . S
H1276 C1290 0.930 . S
H1277 C1292 0.960 1_556 S
H1278 C1292 0.960 . S
H1279 C1292 0.960 . S
C1280 H1272 0.929 . S
C1280 C1281 1.377 . S
C1280 C1282 1.384 . S
C1281 C1280 1.377 . S
C1281 C1287 1.390 . S
C1282 H1273 0.930 . S
C1282 C1280 1.384 . S
C1282 C1283 1.372 . S
C1283 C1282 1.372 . S
C1283 C1284 1.400 . S
C1283 C1288 1.490 . S
C1284 H1274 0.930 . S
C1284 C1283 1.400 . S
C1284 C1287 1.386 . S
H1285 C1301 0.930 . S
H1286 C1302 0.931 . S
C1287 H1275 0.929 . S
C1287 C1281 1.390 . S
C1287 C1284 1.386 . S
C1288 C1283 1.490 . S
C1288 C1290 1.395 . S
C1288 C1291 1.403 . S
H1289 C1295 0.930 1_556 S
C1290 H1276 0.930 . S
C1290 C1288 1.395 . S
C1290 C1293 1.403 . S
C1291 C1288 1.403 . S
C1291 C1292 1.524 . S
C1291 C1295 1.400 . S
C1292 H1277 0.960 1_554 S
C1292 H1278 0.960 . S
C1292 H1279 0.960 . S
C1292 C1291 1.524 . S
C1293 C1290 1.403 . S
C1293 C1294 1.392 . S
C1293 C1297 1.495 . S
C1294 C1293 1.392 . S
C1294 C1295 1.385 . S
C1294 C1296 1.473 1_554 S
C1295 H1289 0.930 1_554 S
C1295 C1291 1.400 . S
C1295 C1294 1.385 . S
C1296 C1294 1.473 1_556 S
C1296 C1298 1.378 1_556 S
C1296 C1302 1.390 . S
C1297 C1293 1.495 . S
C1297 H1303 0.959 . S
C1297 H1304 0.961 . S
C1297 H1305 0.960 . S
C1298 C1296 1.378 1_554 S
C1298 C1299 1.394 1_554 S
C1298 H1306 0.930 . S
C1299 C1298 1.394 1_556 S
C1299 C1300 1.383 . S
C1299 H1307 0.929 . S
C1300 C1299 1.383 . S
C1300 C1301 1.377 . S
C1301 H1285 0.930 . S
C1301 C1300 1.377 . S
C1301 C1302 1.379 . S
C1302 H1286 0.931 . S
C1302 C1296 1.390 . S
C1302 C1301 1.379 . S
H1303 C1297 0.959 . S
H1304 C1297 0.961 . S
H1305 C1297 0.960 . S
H1306 C1298 0.930 . S
H1307 C1299 0.929 . S
H1308 C1316 0.929 . S
H1309 C1318 0.930 . S
H1310 C1320 0.930 . S
H1311 C1323 0.929 . S
H1312 C1326 0.930 . S
H1313 C1328 0.960 1_554 S
H1314 C1328 0.960 . S
H1315 C1328 0.960 1_554 S
C1316 H1308 0.929 . S
C1316 C1317 1.377 . S
C1316 C1318 1.384 . S
C1317 C1316 1.377 . S
C1317 C1323 1.390 . S
C1318 H1309 0.930 . S
C1318 C1316 1.384 . S
C1318 C1319 1.372 . S
C1319 C1318 1.372 . S
C1319 C1320 1.400 1_556 S
C1319 C1324 1.490 1_556 S
C1320 H1310 0.930 . S
C1320 C1319 1.400 1_554 S
C1320 C1323 1.386 1_554 S
H1321 C1337 0.930 . S
H1322 C1338 0.931 . S
C1323 H1311 0.929 . S
C1323 C1317 1.390 . S
C1323 C1320 1.386 1_556 S
C1324 C1319 1.490 1_554 S
C1324 C1326 1.395 . S
C1324 C1327 1.403 . S
H1325 C1331 0.930 . S
C1326 H1312 0.930 . S
C1326 C1324 1.395 . S
C1326 C1329 1.403 . S
C1327 C1324 1.403 . S
C1327 C1328 1.524 1_554 S
C1327 C1331 1.400 . S
C1328 H1313 0.960 1_556 S
C1328 H1314 0.960 . S
C1328 H1315 0.960 1_556 S
C1328 C1327 1.524 1_556 S
C1329 C1326 1.403 . S
C1329 C1330 1.392 . S
C1329 C1333 1.495 . S
C1330 C1329 1.392 . S
C1330 C1331 1.385 . S
C1330 C1332 1.478 . S
C1331 H1325 0.930 . S
C1331 C1327 1.400 . S
C1331 C1330 1.385 . S
C1332 C1330 1.478 . S
C1332 C1334 1.381 . S
C1332 C1338 1.383 . S
C1333 C1329 1.495 . S
C1333 H1339 0.959 . S
C1333 H1340 0.961 . S
C1333 H1341 0.960 . S
C1334 C1332 1.381 . S
C1334 C1335 1.394 . S
C1334 H1342 0.930 . S
C1335 C1334 1.394 . S
C1335 C1336 1.383 . S
C1335 H1343 0.929 . S
C1336 C1335 1.383 . S
C1336 C1337 1.377 . S
C1337 H1321 0.930 . S
C1337 C1336 1.377 . S
C1337 C1338 1.379 . S
C1338 H1322 0.931 . S
C1338 C1332 1.383 . S
C1338 C1337 1.379 . S
H1339 C1333 0.959 . S
H1340 C1333 0.961 . S
H1341 C1333 0.960 . S
H1342 C1334 0.930 . S
H1343 C1335 0.929 . S
H1344 C1352 0.929 . S
H1345 C1354 0.930 . S
H1346 C1356 0.930 . S
H1347 C1359 0.929 . S
H1348 C1362 0.930 . S
H1349 C1364 0.960 . S
H1350 C1364 0.960 . S
H1351 C1364 0.960 . S
C1352 H1344 0.929 . S
C1352 C1353 1.377 . S
C1352 C1354 1.384 . S
C1353 C1352 1.377 . S
C1353 C1359 1.390 . S
C1354 H1345 0.930 . S
C1354 C1352 1.384 . S
C1354 C1355 1.372 . S
C1355 C1354 1.372 . S
C1355 C1356 1.400 . S
C1355 C1360 1.490 . S
C1356 H1346 0.930 . S
C1356 C1355 1.400 . S
C1356 C1359 1.386 . S
H1357 C1373 0.909 1_554 S
H1358 C1374 0.931 . S
C1359 H1347 0.929 . S
C1359 C1353 1.390 . S
C1359 C1356 1.386 . S
C1360 C1355 1.490 . S
C1360 C1362 1.395 . S
C1360 C1363 1.403 . S
H1361 C1367 0.930 . S
C1362 H1348 0.930 . S
C1362 C1360 1.395 . S
C1362 C1365 1.403 . S
C1363 C1360 1.403 . S
C1363 C1364 1.524 . S
C1363 C1367 1.400 . S
C1364 H1349 0.960 . S
C1364 H1350 0.960 . S
C1364 H1351 0.960 . S
C1364 C1363 1.524 . S
C1365 C1362 1.403 . S
C1365 C1366 1.392 . S
C1365 C1369 1.495 1_554 S
C1366 C1365 1.392 . S
C1366 C1367 1.385 . S
C1366 C1368 1.478 1_554 S
C1367 H1361 0.930 . S
C1367 C1363 1.400 . S
C1367 C1366 1.385 . S
C1368 C1366 1.478 1_556 S
C1368 C1370 1.381 . S
C1368 C1374 1.383 1_556 S
C1369 C1365 1.495 1_556 S
C1369 H1375 0.959 . S
C1369 H1376 0.961 . S
C1369 H1377 0.960 . S
C1370 C1368 1.381 . S
C1370 C1371 1.394 . S
C1370 H1378 0.930 . S
C1371 C1370 1.394 . S
C1371 C1372 1.383 . S
C1371 H1379 0.929 . S
C1372 C1371 1.383 . S
C1372 C1373 1.377 . S
C1373 H1357 0.909 1_556 S
C1373 C1372 1.377 . S
C1373 C1374 1.379 1_556 S
C1374 H1358 0.931 . S
C1374 C1368 1.383 1_554 S
C1374 C1373 1.379 1_554 S
H1375 C1369 0.959 . S
H1376 C1369 0.961 . S
H1377 C1369 0.960 . S
H1378 C1370 0.930 . S
H1379 C1371 0.929 . S
H1380 C1388 0.929 . S
H1381 C1390 0.930 . S
H1382 C1392 0.930 . S
H1383 C1395 0.929 . S
H1384 C1398 0.930 . S
H1385 C1400 0.960 . S
H1386 C1400 0.960 . S
H1387 C1400 0.960 . S
C1388 H1380 0.929 . S
C1388 C1389 1.377 . S
C1388 C1390 1.384 . S
C1389 C1388 1.377 . S
C1389 C1395 1.390 . S
C1390 H1381 0.930 . S
C1390 C1388 1.384 . S
C1390 C1391 1.372 . S
C1391 C1390 1.372 . S
C1391 C1392 1.400 . S
C1391 C1396 1.490 . S
C1392 H1382 0.930 . S
C1392 C1391 1.400 . S
C1392 C1395 1.386 . S
H1393 C1409 0.930 . S
H1394 C1410 0.931 . S
C1395 H1383 0.929 . S
C1395 C1389 1.390 . S
C1395 C1392 1.386 . S
C1396 C1391 1.490 . S
C1396 C1398 1.395 . S
C1396 C1399 1.403 . S
H1397 C1403 0.930 . S
C1398 H1384 0.930 . S
C1398 C1396 1.395 . S
C1398 C1401 1.403 . S
C1399 C1396 1.403 . S
C1399 C1400 1.524 . S
C1399 C1403 1.400 . S
C1400 H1385 0.960 . S
C1400 H1386 0.960 . S
C1400 H1387 0.960 . S
C1400 C1399 1.524 . S
C1401 C1398 1.403 . S
C1401 C1402 1.392 . S
C1401 C1405 1.495 . S
C1402 C1401 1.392 . S
C1402 C1403 1.385 . S
C1402 C1404 1.478 . S
C1403 H1397 0.930 . S
C1403 C1399 1.400 . S
C1403 C1402 1.385 . S
C1404 C1402 1.478 . S
C1404 C1406 1.381 . S
C1404 C1410 1.383 . S
C1405 C1401 1.495 . S
C1405 H1411 0.959 . S
C1405 H1412 0.961 . S
C1405 H1413 0.960 . S
C1406 C1404 1.381 . S
C1406 C1407 1.394 . S
C1406 H1414 0.930 . S
C1407 C1406 1.394 . S
C1407 C1408 1.383 . S
C1407 H1415 0.929 . S
C1408 C1407 1.383 . S
C1408 C1409 1.377 . S
C1409 H1393 0.930 . S
C1409 C1408 1.377 . S
C1409 C1410 1.379 . S
C1410 H1394 0.931 . S
C1410 C1404 1.383 . S
C1410 C1409 1.379 . S
H1411 C1405 0.959 . S
H1412 C1405 0.961 . S
H1413 C1405 0.960 . S
H1414 C1406 0.930 . S
H1415 C1407 0.929 . S
H1416 C1424 0.929 . S
H1417 C1426 0.930 . S
H1418 C1428 0.930 . S
H1419 C1431 0.929 . S
H1420 C1434 0.930 . S
H1421 C1436 0.960 . S
H1422 C1436 0.960 . S
H1423 C1436 0.960 . S
C1424 H1416 0.929 . S
C1424 C1425 1.377 . S
C1424 C1426 1.384 . S
C1425 C1424 1.377 . S
C1425 C1431 1.390 . S
C1426 H1417 0.930 . S
C1426 C1424 1.384 . S
C1426 C1427 1.372 . S
C1427 C1426 1.372 . S
C1427 C1428 1.400 . S
C1427 C1432 1.490 . S
C1428 H1418 0.930 . S
C1428 C1427 1.400 . S
C1428 C1431 1.386 . S
H1429 C1445 0.930 . S
H1430 C1446 0.931 . S
C1431 H1419 0.929 . S
C1431 C1425 1.390 . S
C1431 C1428 1.386 . S
C1432 C1427 1.490 . S
C1432 C1434 1.395 . S
C1432 C1435 1.403 . S
H1433 C1439 0.930 . S
C1434 H1420 0.930 . S
C1434 C1432 1.395 . S
C1434 C1437 1.403 . S
C1435 C1432 1.403 . S
C1435 C1436 1.524 . S
C1435 C1439 1.400 . S
C1436 H1421 0.960 . S
C1436 H1422 0.960 . S
C1436 H1423 0.960 . S
C1436 C1435 1.524 . S
C1437 C1434 1.403 . S
C1437 C1438 1.392 . S
C1437 C1441 1.495 . S
C1438 C1437 1.392 . S
C1438 C1439 1.385 . S
C1438 C1440 1.478 . S
C1439 H1433 0.930 . S
C1439 C1435 1.400 . S
C1439 C1438 1.385 . S
C1440 C1438 1.478 . S
C1440 C1442 1.381 . S
C1440 C1446 1.383 . S
C1441 C1437 1.495 . S
C1441 H1447 0.959 . S
C1441 H1448 0.961 . S
C1441 H1449 0.960 . S
C1442 C1440 1.381 . S
C1442 C1443 1.394 . S
C1442 H1450 0.930 . S
C1443 C1442 1.394 . S
C1443 C1444 1.383 . S
C1443 H1451 0.929 . S
C1444 C1443 1.383 . S
C1444 C1445 1.377 . S
C1445 H1429 0.930 . S
C1445 C1444 1.377 . S
C1445 C1446 1.379 . S
C1446 H1430 0.931 . S
C1446 C1440 1.383 . S
C1446 C1445 1.379 . S
H1447 C1441 0.959 . S
H1448 C1441 0.961 . S
H1449 C1441 0.960 . S
H1450 C1442 0.930 . S
H1451 C1443 0.929 . S
H1452 C1460 0.929 . S
H1453 C1462 0.930 . S
H1454 C1464 0.930 . S
H1455 C1467 0.929 . S
H1456 C1470 0.930 . S
H1457 C1472 0.960 . S
H1458 C1472 0.960 . S
H1459 C1472 0.960 . S
C1460 H1452 0.929 . S
C1460 C1461 1.377 . S
C1460 C1462 1.384 . S
C1461 C1460 1.377 . S
C1461 C1467 1.390 . S
C1462 H1453 0.930 . S
C1462 C1460 1.384 . S
C1462 C1463 1.372 . S
C1463 C1462 1.372 . S
C1463 C1464 1.400 . S
C1463 C1468 1.490 . S
C1464 H1454 0.930 . S
C1464 C1463 1.400 . S
C1464 C1467 1.386 . S
H1465 C1481 0.930 . S
H1466 C1482 0.931 . S
C1467 H1455 0.929 . S
C1467 C1461 1.390 . S
C1467 C1464 1.386 . S
C1468 C1463 1.490 . S
C1468 C1470 1.395 . S
C1468 C1471 1.403 . S
H1469 C1475 0.930 . S
C1470 H1456 0.930 . S
C1470 C1468 1.395 . S
C1470 C1473 1.403 . S
C1471 C1468 1.403 . S
C1471 C1472 1.524 . S
C1471 C1475 1.400 . S
C1472 H1457 0.960 . S
C1472 H1458 0.960 . S
C1472 H1459 0.960 . S
C1472 C1471 1.524 . S
C1473 C1470 1.403 . S
C1473 C1474 1.392 . S
C1473 C1477 1.495 . S
C1474 C1473 1.392 . S
C1474 C1475 1.385 . S
C1474 C1476 1.478 . S
C1475 H1469 0.930 . S
C1475 C1471 1.400 . S
C1475 C1474 1.385 . S
C1476 C1474 1.478 . S
C1476 C1478 1.381 . S
C1476 C1482 1.383 . S
C1477 C1473 1.495 . S
C1477 H1483 0.959 . S
C1477 H1484 0.961 . S
C1477 H1485 0.960 . S
C1478 C1476 1.381 . S
C1478 C1479 1.394 . S
C1478 H1486 0.930 . S
C1479 C1478 1.394 . S
C1479 C1480 1.383 . S
C1479 H1487 0.929 . S
C1480 C1479 1.383 . S
C1480 C1481 1.377 . S
C1481 H1465 0.930 . S
C1481 C1480 1.377 . S
C1481 C1482 1.379 . S
C1482 H1466 0.931 . S
C1482 C1476 1.383 . S
C1482 C1481 1.379 . S
H1483 C1477 0.959 . S
H1484 C1477 0.961 . S
H1485 C1477 0.960 . S
H1486 C1478 0.930 . S
H1487 C1479 0.929 . S
H1488 C1496 0.929 . S
H1489 C1498 0.930 . S
H1490 C1500 0.930 . S
H1491 C1503 0.929 . S
H1492 C1506 0.930 . S
H1493 C1508 0.960 . S
H1494 C1508 0.960 . S
H1495 C1508 0.960 . S
C1496 H1488 0.929 . S
C1496 C1497 1.377 . S
C1496 C1498 1.384 . S
C1497 C1496 1.377 . S
C1497 C1503 1.390 . S
C1498 H1489 0.930 . S
C1498 C1496 1.384 . S
C1498 C1499 1.372 . S
C1499 C1498 1.372 . S
C1499 C1500 1.400 . S
C1499 C1504 1.490 . S
C1500 H1490 0.930 . S
C1500 C1499 1.400 . S
C1500 C1503 1.386 . S
H1501 C1517 0.930 . S
H1502 C1518 0.931 . S
C1503 H1491 0.929 . S
C1503 C1497 1.390 . S
C1503 C1500 1.386 . S
C1504 C1499 1.490 . S
C1504 C1506 1.395 . S
C1504 C1507 1.403 . S
H1505 C1511 0.930 . S
C1506 H1492 0.930 . S
C1506 C1504 1.395 . S
C1506 C1509 1.403 . S
C1507 C1504 1.403 . S
C1507 C1508 1.524 . S
C1507 C1511 1.400 . S
C1508 H1493 0.960 . S
C1508 H1494 0.960 . S
C1508 H1495 0.960 . S
C1508 C1507 1.524 . S
C1509 C1506 1.403 . S
C1509 C1510 1.392 . S
C1509 C1513 1.495 . S
C1510 C1509 1.392 . S
C1510 C1511 1.385 . S
C1510 C1512 1.478 . S
C1511 H1505 0.930 . S
C1511 C1507 1.400 . S
C1511 C1510 1.385 . S
C1512 C1510 1.478 . S
C1512 C1514 1.381 . S
C1512 C1518 1.383 . S
C1513 C1509 1.495 . S
C1513 H1519 0.959 . S
C1513 H1520 0.961 . S
C1513 H1521 0.960 . S
C1514 C1512 1.381 . S
C1514 C1515 1.394 . S
C1514 H1522 0.930 . S
C1515 C1514 1.394 . S
C1515 C1516 1.383 . S
C1515 H1523 0.929 . S
C1516 C1515 1.383 . S
C1516 C1517 1.377 . S
C1517 H1501 0.930 . S
C1517 C1516 1.377 . S
C1517 C1518 1.379 . S
C1518 H1502 0.931 . S
C1518 C1512 1.383 . S
C1518 C1517 1.379 . S
H1519 C1513 0.959 . S
H1520 C1513 0.961 . S
H1521 C1513 0.960 . S
H1522 C1514 0.930 . S
H1523 C1515 0.929 . S
H1524 C1532 0.929 . S
H1525 C1534 0.930 . S
H1526 C1536 0.930 . S
H1527 C1539 0.929 . S
H1528 C1542 0.930 . S
H1529 C1544 0.960 . S
H1530 C1544 0.960 . S
H1531 C1544 0.960 . S
C1532 H1524 0.929 . S
C1532 C1533 1.377 . S
C1532 C1534 1.384 . S
C1533 C1532 1.377 . S
C1533 C1539 1.390 . S
C1534 H1525 0.930 . S
C1534 C1532 1.384 . S
C1534 C1535 1.372 . S
C1535 C1534 1.372 . S
C1535 C1536 1.400 . S
C1535 C1540 1.490 . S
C1536 H1526 0.930 . S
C1536 C1535 1.400 . S
C1536 C1539 1.386 . S
H1537 C1553 0.930 . S
H1538 C1554 0.931 . S
C1539 H1527 0.929 . S
C1539 C1533 1.390 . S
C1539 C1536 1.386 . S
C1540 C1535 1.490 . S
C1540 C1542 1.395 . S
C1540 C1543 1.403 . S
H1541 C1547 0.930 . S
C1542 H1528 0.930 . S
C1542 C1540 1.395 . S
C1542 C1545 1.403 . S
C1543 C1540 1.403 . S
C1543 C1544 1.524 . S
C1543 C1547 1.400 . S
C1544 H1529 0.960 . S
C1544 H1530 0.960 . S
C1544 H1531 0.960 . S
C1544 C1543 1.524 . S
C1545 C1542 1.403 . S
C1545 C1546 1.392 . S
C1545 C1549 1.495 . S
C1546 C1545 1.392 . S
C1546 C1547 1.385 . S
C1546 C1548 1.478 . S
C1547 H1541 0.930 . S
C1547 C1543 1.400 . S
C1547 C1546 1.385 . S
C1548 C1546 1.478 . S
C1548 C1550 1.381 . S
C1548 C1554 1.383 . S
C1549 C1545 1.495 . S
C1549 H1555 0.959 . S
C1549 H1556 0.961 . S
C1549 H1557 0.960 . S
C1550 C1548 1.381 . S
C1550 C1551 1.394 . S
C1550 H1558 0.930 . S
C1551 C1550 1.394 . S
C1551 C1552 1.383 . S
C1551 H1559 0.929 . S
C1552 C1551 1.383 . S
C1552 C1553 1.377 . S
C1553 H1537 0.930 . S
C1553 C1552 1.377 . S
C1553 C1554 1.379 . S
C1554 H1538 0.931 . S
C1554 C1548 1.383 . S
C1554 C1553 1.379 . S
H1555 C1549 0.959 . S
H1556 C1549 0.961 . S
H1557 C1549 0.960 . S
H1558 C1550 0.930 . S
H1559 C1551 0.929 . S
H1560 C1568 0.929 . S
H1561 C1570 0.930 . S
H1562 C1572 0.930 . S
H1563 C1575 0.929 . S
H1564 C1578 0.930 . S
H1565 C1580 0.960 . S
H1566 C1580 0.960 . S
H1567 C1580 0.960 . S
C1568 H1560 0.929 . S
C1568 C1569 1.377 . S
C1568 C1570 1.384 . S
C1569 C1568 1.377 . S
C1569 C1575 1.390 . S
C1570 H1561 0.930 . S
C1570 C1568 1.384 . S
C1570 C1571 1.372 . S
C1571 C1570 1.372 . S
C1571 C1572 1.400 . S
C1571 C1576 1.490 . S
C1572 H1562 0.930 . S
C1572 C1571 1.400 . S
C1572 C1575 1.386 . S
H1573 C1589 0.930 . S
H1574 C1590 0.931 . S
C1575 H1563 0.929 . S
C1575 C1569 1.390 . S
C1575 C1572 1.386 . S
C1576 C1571 1.490 . S
C1576 C1578 1.395 . S
C1576 C1579 1.403 . S
H1577 C1583 0.930 . S
C1578 H1564 0.930 . S
C1578 C1576 1.395 . S
C1578 C1581 1.403 . S
C1579 C1576 1.403 . S
C1579 C1580 1.524 . S
C1579 C1583 1.400 . S
C1580 H1565 0.960 . S
C1580 H1566 0.960 . S
C1580 H1567 0.960 . S
C1580 C1579 1.524 . S
C1581 C1578 1.403 . S
C1581 C1582 1.392 . S
C1581 C1585 1.495 . S
C1582 C1581 1.392 . S
C1582 C1583 1.385 . S
C1582 C1584 1.478 . S
C1583 H1577 0.930 . S
C1583 C1579 1.400 . S
C1583 C1582 1.385 . S
C1584 C1582 1.478 . S
C1584 C1586 1.381 . S
C1584 C1590 1.383 . S
C1585 C1581 1.495 . S
C1585 H1591 0.959 . S
C1585 H1592 0.961 . S
C1585 H1593 0.960 . S
C1586 C1584 1.381 . S
C1586 C1587 1.394 . S
C1586 H1594 0.930 . S
C1587 C1586 1.394 . S
C1587 C1588 1.383 . S
C1587 H1595 0.929 . S
C1588 C1587 1.383 . S
C1588 C1589 1.377 . S
C1589 H1573 0.930 . S
C1589 C1588 1.377 . S
C1589 C1590 1.379 . S
C1590 H1574 0.931 . S
C1590 C1584 1.383 . S
C1590 C1589 1.379 . S
H1591 C1585 0.959 . S
H1592 C1585 0.961 . S
H1593 C1585 0.960 . S
H1594 C1586 0.930 . S
H1595 C1587 0.929 . S
H1596 C1604 0.929 . S
H1597 C1606 0.930 . S
H1598 C1608 0.930 . S
H1599 C1611 0.929 . S
H1600 C1614 0.930 . S
H1601 C1616 0.960 . S
H1602 C1616 0.960 . S
H1603 C1616 0.960 . S
C1604 H1596 0.929 . S
C1604 C1605 1.377 . S
C1604 C1606 1.384 . S
C1605 C1604 1.377 . S
C1605 C1611 1.390 . S
C1606 H1597 0.930 . S
C1606 C1604 1.384 . S
C1606 C1607 1.372 . S
C1607 C1606 1.372 . S
C1607 C1608 1.400 . S
C1607 C1612 1.490 . S
C1608 H1598 0.930 . S
C1608 C1607 1.400 . S
C1608 C1611 1.386 . S
H1609 C1625 0.930 . S
H1610 C1626 0.931 . S
C1611 H1599 0.929 . S
C1611 C1605 1.390 . S
C1611 C1608 1.386 . S
C1612 C1607 1.490 . S
C1612 C1614 1.395 . S
C1612 C1615 1.403 . S
H1613 C1619 0.930 . S
C1614 H1600 0.930 . S
C1614 C1612 1.395 . S
C1614 C1617 1.403 . S
C1615 C1612 1.403 . S
C1615 C1616 1.524 . S
C1615 C1619 1.400 . S
C1616 H1601 0.960 . S
C1616 H1602 0.960 . S
C1616 H1603 0.960 . S
C1616 C1615 1.524 . S
C1617 C1614 1.403 . S
C1617 C1618 1.392 . S
C1617 C1621 1.495 . S
C1618 C1617 1.392 . S
C1618 C1619 1.385 . S
C1618 C1620 1.478 . S
C1619 H1613 0.930 . S
C1619 C1615 1.400 . S
C1619 C1618 1.385 . S
C1620 C1618 1.478 . S
C1620 C1622 1.381 . S
C1620 C1626 1.383 . S
C1621 C1617 1.495 . S
C1621 H1627 0.959 . S
C1621 H1628 0.961 . S
C1621 H1629 0.960 . S
C1622 C1620 1.381 . S
C1622 C1623 1.394 . S
C1622 H1630 0.930 . S
C1623 C1622 1.394 . S
C1623 C1624 1.383 . S
C1623 H1631 0.929 . S
C1624 C1623 1.383 . S
C1624 C1625 1.377 . S
C1625 H1609 0.930 . S
C1625 C1624 1.377 . S
C1625 C1626 1.379 . S
C1626 H1610 0.931 . S
C1626 C1620 1.383 . S
C1626 C1625 1.379 . S
H1627 C1621 0.959 . S
H1628 C1621 0.961 . S
H1629 C1621 0.960 . S
H1630 C1622 0.930 . S
H1631 C1623 0.929 . S
H1632 C1640 0.929 . S
H1633 C1642 0.930 . S
H1634 C1644 0.930 . S
H1635 C1647 0.929 . S
H1636 C1650 0.930 . S
H1637 C1652 0.960 . S
H1638 C1652 0.960 . S
H1639 C1652 0.960 . S
C1640 H1632 0.929 . S
C1640 C1641 1.377 . S
C1640 C1642 1.384 . S
C1641 C1640 1.377 . S
C1641 C1647 1.390 . S
C1642 H1633 0.930 . S
C1642 C1640 1.384 . S
C1642 C1643 1.372 . S
C1643 C1642 1.372 . S
C1643 C1644 1.400 . S
C1643 C1648 1.490 . S
C1644 H1634 0.930 . S
C1644 C1643 1.400 . S
C1644 C1647 1.386 . S
H1645 C1661 0.930 . S
H1646 C1662 0.931 . S
C1647 H1635 0.929 . S
C1647 C1641 1.390 . S
C1647 C1644 1.386 . S
C1648 C1643 1.490 . S
C1648 C1650 1.395 . S
C1648 C1651 1.403 . S
H1649 C1655 0.930 . S
C1650 H1636 0.930 . S
C1650 C1648 1.395 . S
C1650 C1653 1.403 . S
C1651 C1648 1.403 . S
C1651 C1652 1.524 . S
C1651 C1655 1.400 . S
C1652 H1637 0.960 . S
C1652 H1638 0.960 . S
C1652 H1639 0.960 . S
C1652 C1651 1.524 . S
C1653 C1650 1.403 . S
C1653 C1654 1.392 . S
C1653 C1657 1.495 . S
C1654 C1653 1.392 . S
C1654 C1655 1.385 . S
C1654 C1656 1.478 . S
C1655 H1649 0.930 . S
C1655 C1651 1.400 . S
C1655 C1654 1.385 . S
C1656 C1654 1.478 . S
C1656 C1658 1.381 . S
C1656 C1662 1.383 . S
C1657 C1653 1.495 . S
C1657 H1663 0.959 . S
C1657 H1664 0.961 . S
C1657 H1665 0.960 . S
C1658 C1656 1.381 . S
C1658 C1659 1.394 . S
C1658 H1666 0.930 . S
C1659 C1658 1.394 . S
C1659 C1660 1.383 . S
C1659 H1667 0.929 . S
C1660 C1659 1.383 . S
C1660 C1661 1.377 . S
C1661 H1645 0.930 . S
C1661 C1660 1.377 . S
C1661 C1662 1.379 . S
C1662 H1646 0.931 . S
C1662 C1656 1.383 . S
C1662 C1661 1.379 . S
H1663 C1657 0.959 . S
H1664 C1657 0.961 . S
H1665 C1657 0.960 . S
H1666 C1658 0.930 . S
H1667 C1659 0.929 . S
H1668 C1676 0.929 . S
H1669 C1678 0.930 . S
H1670 C1680 0.930 . S
H1671 C1683 0.929 . S
H1672 C1686 0.930 . S
H1673 C1688 0.960 . S
H1674 C1688 0.960 . S
H1675 C1688 0.960 . S
C1676 H1668 0.929 . S
C1676 C1677 1.377 . S
C1676 C1678 1.384 . S
C1677 C1676 1.377 . S
C1677 C1683 1.390 . S
C1678 H1669 0.930 . S
C1678 C1676 1.384 . S
C1678 C1679 1.372 . S
C1679 C1678 1.372 . S
C1679 C1680 1.400 . S
C1679 C1684 1.490 . S
C1680 H1670 0.930 . S
C1680 C1679 1.400 . S
C1680 C1683 1.386 . S
H1681 C1697 0.930 . S
H1682 C1698 0.931 . S
C1683 H1671 0.929 . S
C1683 C1677 1.390 . S
C1683 C1680 1.386 . S
C1684 C1679 1.490 . S
C1684 C1686 1.395 . S
C1684 C1687 1.403 . S
H1685 C1691 0.930 . S
C1686 H1672 0.930 . S
C1686 C1684 1.395 . S
C1686 C1689 1.403 . S
C1687 C1684 1.403 . S
C1687 C1688 1.524 . S
C1687 C1691 1.400 . S
C1688 H1673 0.960 . S
C1688 H1674 0.960 . S
C1688 H1675 0.960 . S
C1688 C1687 1.524 . S
C1689 C1686 1.403 . S
C1689 C1690 1.392 . S
C1689 C1693 1.495 . S
C1690 C1689 1.392 . S
C1690 C1691 1.385 . S
C1690 C1692 1.478 . S
C1691 H1685 0.930 . S
C1691 C1687 1.400 . S
C1691 C1690 1.385 . S
C1692 C1690 1.478 . S
C1692 C1694 1.381 . S
C1692 C1698 1.383 . S
C1693 C1689 1.495 . S
C1693 H1699 0.959 . S
C1693 H1700 0.961 . S
C1693 H1701 0.960 . S
C1694 C1692 1.381 . S
C1694 C1695 1.394 . S
C1694 H1702 0.930 . S
C1695 C1694 1.394 . S
C1695 C1696 1.383 . S
C1695 H1703 0.929 . S
C1696 C1695 1.383 . S
C1696 C1697 1.377 . S
C1697 H1681 0.930 . S
C1697 C1696 1.377 . S
C1697 C1698 1.379 . S
C1698 H1682 0.931 . S
C1698 C1692 1.383 . S
C1698 C1697 1.379 . S
H1699 C1693 0.959 . S
H1700 C1693 0.961 . S
H1701 C1693 0.960 . S
H1702 C1694 0.930 . S
H1703 C1695 0.929 . S
H1704 C1712 0.929 . S
H1705 C1714 0.930 . S
H1706 C1716 0.930 1_655 S
H1707 C1719 0.949 . S
H1708 C1722 0.930 . S
H1709 C1724 0.960 . S
H1710 C1724 0.960 . S
H1711 C1724 0.960 . S
C1712 H1704 0.929 . S
C1712 C1713 1.377 . S
C1712 C1714 1.384 . S
C1713 C1712 1.377 . S
C1713 C1719 1.390 . S
C1714 H1705 0.930 . S
C1714 C1712 1.384 . S
C1714 C1715 1.372 . S
C1715 C1714 1.372 . S
C1715 C1716 1.400 . S
C1715 C1720 1.490 . S
C1716 H1706 0.930 1_455 S
C1716 C1715 1.400 . S
C1716 C1719 1.386 . S
H1717 C1733 0.930 . S
H1718 C1734 0.931 . S
C1719 H1707 0.949 . S
C1719 C1713 1.390 . S
C1719 C1716 1.386 . S
C1720 C1715 1.490 . S
C1720 C1722 1.395 1_554 S
C1720 C1723 1.403 . S
H1721 C1727 0.930 . S
C1722 H1708 0.930 . S
C1722 C1720 1.395 1_556 S
C1722 C1725 1.403 1_455 S
C1723 C1720 1.403 . S
C1723 C1724 1.524 . S
C1723 C1727 1.400 1_455 S
C1724 H1709 0.960 . S
C1724 H1710 0.960 . S
C1724 H1711 0.960 . S
C1724 C1723 1.524 . S
C1725 C1722 1.403 1_655 S
C1725 C1726 1.392 . S
C1725 C1729 1.495 . S
C1726 C1725 1.392 . S
C1726 C1727 1.385 1_556 S
C1726 C1728 1.478 . S
C1727 H1721 0.930 . S
C1727 C1723 1.400 1_655 S
C1727 C1726 1.385 1_554 S
C1728 C1726 1.478 . S
C1728 C1730 1.391 . S
C1728 C1734 1.383 . S
C1729 C1725 1.495 . S
C1729 H1735 0.959 . S
C1729 H1736 0.961 . S
C1729 H1737 0.948 1_655 S
C1730 C1728 1.391 . S
C1730 C1731 1.416 . S
C1730 H1738 0.899 1_655 S
C1731 C1730 1.416 . S
C1731 C1732 1.383 . S
C1731 H1739 0.929 1_655 S
C1732 C1731 1.383 . S
C1732 C1733 1.377 . S
C1733 H1717 0.930 . S
C1733 C1732 1.377 . S
C1733 C1734 1.379 . S
C1734 H1718 0.931 . S
C1734 C1728 1.383 . S
C1734 C1733 1.379 . S
H1735 C1729 0.959 . S
H1736 C1729 0.961 . S
H1737 C1729 0.948 1_455 S
H1738 C1730 0.899 1_455 S
H1739 C1731 0.929 1_455 S
H1740 C1748 0.929 . S
H1741 C1750 0.930 . S
H1742 C1752 0.930 . S
H1743 C1755 0.929 . S
H1744 C1758 0.930 . S
H1745 C1760 0.960 . S
H1746 C1760 0.960 . S
H1747 C1760 0.960 . S
C1748 H1740 0.929 . S
C1748 C1749 1.377 . S
C1748 C1750 1.384 . S
C1749 C1748 1.377 . S
C1749 C1755 1.390 . S
C1750 H1741 0.930 . S
C1750 C1748 1.384 . S
C1750 C1751 1.372 . S
C1751 C1750 1.372 . S
C1751 C1752 1.400 . S
C1751 C1756 1.490 . S
C1752 H1742 0.930 . S
C1752 C1751 1.400 . S
C1752 C1755 1.386 . S
H1753 C1769 0.930 . S
H1754 C1770 0.931 . S
C1755 H1743 0.929 . S
C1755 C1749 1.390 . S
C1755 C1752 1.386 . S
C1756 C1751 1.490 . S
C1756 C1758 1.395 . S
C1756 C1759 1.403 1_554 S
H1757 C1763 0.930 . S
C1758 H1744 0.930 . S
C1758 C1756 1.395 . S
C1758 C1761 1.403 . S
C1759 C1756 1.403 1_556 S
C1759 C1760 1.524 . S
C1759 C1763 1.400 . S
C1760 H1745 0.960 . S
C1760 H1746 0.960 . S
C1760 H1747 0.960 . S
C1760 C1759 1.524 . S
C1761 C1758 1.403 . S
C1761 C1762 1.392 1_554 S
C1761 C1765 1.495 . S
C1762 C1761 1.392 1_556 S
C1762 C1763 1.385 . S
C1762 C1764 1.478 . S
C1763 H1757 0.930 . S
C1763 C1759 1.400 . S
C1763 C1762 1.385 . S
C1764 C1762 1.478 . S
C1764 C1766 1.381 . S
C1764 C1770 1.383 . S
C1765 C1761 1.495 . S
C1765 H1771 0.959 . S
C1765 H1772 0.961 . S
C1765 H1773 0.960 . S
C1766 C1764 1.381 . S
C1766 C1767 1.394 . S
C1766 H1774 0.930 . S
C1767 C1766 1.394 . S
C1767 C1768 1.383 . S
C1767 H1775 0.929 . S
C1768 C1767 1.383 . S
C1768 C1769 1.377 . S
C1769 H1753 0.930 . S
C1769 C1768 1.377 . S
C1769 C1770 1.379 . S
C1770 H1754 0.931 . S
C1770 C1764 1.383 . S
C1770 C1769 1.379 . S
H1771 C1765 0.959 . S
H1772 C1765 0.961 . S
H1773 C1765 0.960 . S
H1774 C1766 0.930 . S
H1775 C1767 0.929 . S
H1776 C1784 0.929 . S
H1777 C1786 0.930 . S
H1778 C1788 0.930 . S
H1779 C1791 0.929 . S
H1780 C1794 0.930 . S
H1781 C1796 0.960 1_556 S
H1782 C1796 0.960 1_556 S
H1783 C1796 0.960 . S
C1784 H1776 0.929 . S
C1784 C1785 1.377 . S
C1784 C1786 1.384 . S
C1785 C1784 1.377 . S
C1785 C1791 1.390 . S
C1786 H1777 0.930 . S
C1786 C1784 1.384 . S
C1786 C1787 1.372 . S
C1787 C1786 1.372 . S
C1787 C1788 1.400 . S
C1787 C1792 1.490 . S
C1788 H1778 0.930 . S
C1788 C1787 1.400 . S
C1788 C1791 1.386 . S
H1789 C1805 0.930 . S
H1790 C1806 0.931 . S
C1791 H1779 0.929 . S
C1791 C1785 1.390 . S
C1791 C1788 1.386 . S
C1792 C1787 1.490 . S
C1792 C1794 1.395 1_565 S
C1792 C1795 1.403 . S
H1793 C1799 0.930 . S
C1794 H1780 0.930 . S
C1794 C1792 1.395 1_545 S
C1794 C1797 1.403 1_554 S
C1795 C1792 1.403 . S
C1795 C1796 1.524 . S
C1795 C1799 1.400 1_554 S
C1796 H1781 0.960 1_554 S
C1796 H1782 0.960 1_554 S
C1796 H1783 0.960 . S
C1796 C1795 1.524 . S
C1797 C1794 1.403 1_556 S
C1797 C1798 1.392 . S
C1797 C1801 1.495 . S
C1798 C1797 1.392 . S
C1798 C1799 1.385 1_545 S
C1798 C1800 1.478 . S
C1799 H1793 0.930 . S
C1799 C1795 1.400 1_556 S
C1799 C1798 1.385 1_565 S
C1800 C1798 1.478 . S
C1800 C1802 1.381 . S
C1800 C1806 1.383 . S
C1801 C1797 1.495 . S
C1801 H1807 0.959 1_556 S
C1801 H1808 0.948 1_556 S
C1801 H1809 0.960 . S
C1802 C1800 1.381 . S
C1802 C1803 1.394 . S
C1802 H1810 0.930 . S
C1803 C1802 1.394 . S
C1803 C1804 1.383 . S
C1803 H1811 0.929 . S
C1804 C1803 1.383 . S
C1804 C1805 1.377 . S
C1805 H1789 0.930 . S
C1805 C1804 1.377 . S
C1805 C1806 1.379 . S
C1806 H1790 0.931 . S
C1806 C1800 1.383 . S
C1806 C1805 1.379 . S
H1807 C1801 0.959 1_554 S
H1808 C1801 0.948 1_554 S
H1809 C1801 0.960 . S
H1810 C1802 0.930 . S
H1811 C1803 0.929 . S
H1812 C1820 0.929 1_545 S
H1813 C1822 0.925 1_545 S
H1814 C1824 0.930 . S
H1815 C1827 0.929 . S
H1816 C1830 0.930 . S
H1817 C1832 0.960 . S
H1818 C1832 0.960 . S
H1819 C1832 0.960 . S
C1820 H1812 0.929 1_565 S
C1820 C1821 1.377 . S
C1820 C1822 1.388 . S
C1821 C1820 1.377 . S
C1821 C1827 1.390 . S
C1822 H1813 0.925 1_565 S
C1822 C1820 1.388 . S
C1822 C1823 1.373 . S
C1823 C1822 1.373 . S
C1823 C1824 1.400 . S
C1823 C1828 1.490 . S
C1824 H1814 0.930 . S
C1824 C1823 1.400 . S
C1824 C1827 1.386 . S
H1825 C1841 0.927 1_565 S
H1826 C1842 0.931 1_565 S
C1827 H1815 0.929 . S
C1827 C1821 1.390 . S
C1827 C1824 1.386 . S
C1828 C1823 1.490 . S
C1828 C1830 1.395 1_565 S
C1828 C1831 1.403 . S
H1829 C1835 0.930 . S
C1830 H1816 0.930 . S
C1830 C1828 1.395 1_545 S
C1830 C1833 1.403 . S
C1831 C1828 1.403 . S
C1831 C1832 1.524 . S
C1831 C1835 1.400 . S
C1832 H1817 0.960 . S
C1832 H1818 0.960 . S
C1832 H1819 0.960 . S
C1832 C1831 1.524 . S
C1833 C1830 1.403 . S
C1833 C1834 1.392 . S
C1833 C1837 1.495 . S
C1834 C1833 1.392 . S
C1834 C1835 1.385 1_545 S
C1834 C1836 1.478 . S
C1835 H1829 0.930 . S
C1835 C1831 1.400 . S
C1835 C1834 1.385 1_565 S
C1836 C1834 1.478 . S
C1836 C1838 1.381 . S
C1836 C1842 1.383 . S
C1837 C1833 1.495 . S
C1837 H1843 0.959 . S
C1837 H1844 0.961 . S
C1837 H1845 0.960 . S
C1838 C1836 1.381 . S
C1838 C1839 1.394 . S
C1838 H1846 0.930 . S
C1839 C1838 1.394 . S
C1839 C1840 1.383 . S
C1839 H1847 0.929 . S
C1840 C1839 1.383 . S
C1840 C1841 1.377 . S
C1841 H1825 0.927 1_545 S
C1841 C1840 1.377 . S
C1841 C1842 1.379 . S
C1842 H1826 0.931 1_545 S
C1842 C1836 1.383 . S
C1842 C1841 1.379 . S
H1843 C1837 0.959 . S
H1844 C1837 0.961 . S
H1845 C1837 0.960 . S
H1846 C1838 0.930 . S
H1847 C1839 0.929 . S
H1848 C1856 0.929 . S
H1849 C1858 0.930 1_455 S
H1850 C1860 0.930 . S
H1851 C1863 0.929 . S
H1852 C1866 0.930 . S
H1853 C1868 0.960 . S
H1854 C1868 0.960 . S
H1855 C1868 0.960 . S
C1856 H1848 0.929 . S
C1856 C1857 1.377 . S
C1856 C1858 1.384 . S
C1857 C1856 1.377 . S
C1857 C1863 1.390 . S
C1858 H1849 0.930 1_655 S
C1858 C1856 1.384 . S
C1858 C1859 1.372 . S
C1859 C1858 1.372 . S
C1859 C1860 1.400 . S
C1859 C1864 1.490 . S
C1860 H1850 0.930 . S
C1860 C1859 1.400 . S
C1860 C1863 1.386 . S
H1861 C1877 0.930 . S
H1862 C1878 0.931 1_655 S
C1863 H1851 0.929 . S
C1863 C1857 1.390 . S
C1863 C1860 1.386 . S
C1864 C1859 1.490 . S
C1864 C1866 1.395 . S
C1864 C1867 1.403 1_655 S
H1865 C1871 0.930 . S
C1866 H1852 0.930 . S
C1866 C1864 1.395 . S
C1866 C1869 1.403 . S
C1867 C1864 1.403 1_455 S
C1867 C1868 1.524 . S
C1867 C1871 1.400 . S
C1868 H1853 0.960 . S
C1868 H1854 0.960 . S
C1868 H1855 0.960 . S
C1868 C1867 1.524 . S
C1869 C1866 1.403 . S
C1869 C1870 1.392 1_655 S
C1869 C1873 1.495 . S
C1870 C1869 1.392 1_455 S
C1870 C1871 1.385 . S
C1870 C1872 1.478 . S
C1871 H1865 0.930 . S
C1871 C1867 1.400 . S
C1871 C1870 1.385 . S
C1872 C1870 1.478 . S
C1872 C1874 1.381 . S
C1872 C1878 1.383 . S
C1873 C1869 1.495 . S
C1873 H1879 0.959 . S
C1873 H1880 0.961 . S
C1873 H1881 0.949 1_655 S
C1874 C1872 1.381 . S
C1874 C1875 1.394 . S
C1874 H1882 0.930 . S
C1875 C1874 1.394 . S
C1875 C1876 1.383 . S
C1875 H1883 0.929 . S
C1876 C1875 1.383 . S
C1876 C1877 1.377 . S
C1877 H1861 0.930 . S
C1877 C1876 1.377 . S
C1877 C1878 1.379 . S
C1878 H1862 0.931 1_455 S
C1878 C1872 1.383 . S
C1878 C1877 1.379 . S
H1879 C1873 0.959 . S
H1880 C1873 0.961 . S
H1881 C1873 0.949 1_455 S
H1882 C1874 0.930 . S
H1883 C1875 0.929 . S
H1884 C1892 0.929 . S
H1885 C1894 0.930 . S
H1886 C1896 0.930 . S
H1887 C1899 0.929 . S
H1888 C1902 0.930 . S
H1889 C1904 0.960 . S
H1890 C1904 0.960 . S
H1891 C1904 0.960 . S
C1892 H1884 0.929 . S
C1892 C1893 1.377 . S
C1892 C1894 1.384 . S
C1893 C1892 1.377 . S
C1893 C1899 1.390 . S
C1894 H1885 0.930 . S
C1894 C1892 1.384 . S
C1894 C1895 1.372 . S
C1895 C1894 1.372 . S
C1895 C1896 1.400 . S
C1895 C1900 1.490 . S
C1896 H1886 0.930 . S
C1896 C1895 1.400 . S
C1896 C1899 1.386 . S
H1897 C1913 0.930 . S
H1898 C1914 0.931 . S
C1899 H1887 0.929 . S
C1899 C1893 1.390 . S
C1899 C1896 1.386 . S
C1900 C1895 1.490 . S
C1900 C1902 1.395 . S
C1900 C1903 1.403 . S
H1901 C1907 0.930 . S
C1902 H1888 0.930 . S
C1902 C1900 1.395 . S
C1902 C1905 1.403 . S
C1903 C1900 1.403 . S
C1903 C1904 1.524 . S
C1903 C1907 1.400 . S
C1904 H1889 0.960 . S
C1904 H1890 0.960 . S
C1904 H1891 0.960 . S
C1904 C1903 1.524 . S
C1905 C1902 1.403 . S
C1905 C1906 1.392 . S
C1905 C1909 1.495 . S
C1906 C1905 1.392 . S
C1906 C1907 1.385 . S
C1906 C1908 1.478 . S
C1907 H1901 0.930 . S
C1907 C1903 1.400 . S
C1907 C1906 1.385 . S
C1908 C1906 1.478 . S
C1908 C1910 1.381 . S
C1908 C1914 1.383 . S
C1909 C1905 1.495 . S
C1909 H1915 0.959 . S
C1909 H1916 0.961 . S
C1909 H1917 0.960 . S
C1910 C1908 1.381 . S
C1910 C1911 1.394 . S
C1910 H1918 0.930 . S
C1911 C1910 1.394 . S
C1911 C1912 1.383 . S
C1911 H1919 0.929 . S
C1912 C1911 1.383 . S
C1912 C1913 1.377 . S
C1913 H1897 0.930 . S
C1913 C1912 1.377 . S
C1913 C1914 1.379 . S
C1914 H1898 0.931 . S
C1914 C1908 1.383 . S
C1914 C1913 1.379 . S
H1915 C1909 0.959 . S
H1916 C1909 0.961 . S
H1917 C1909 0.960 . S
H1918 C1910 0.930 . S
H1919 C1911 0.929 . S
C1065 C49 0.266 . S
C1084 C636 0.464 . S
C1101 C145 0.267 . S
C1120 C753 0.463 . S
C1137 C233 0.289 . S
C1156 C577 0.429 . S
C1173 C997 0.435 . S
C1192 C284 0.338 . S
C1209 C372 0.265 . S
C1228 C849 0.417 . S
C1245 C900 0.396 . S
C1264 C469 0.314 . S
C1281 C137 0.410 . S
C1300 C548 0.357 . S
C1317 C673 0.288 . S
C1336 C225 0.430 . S
C1353 C57 0.392 . S
C1372 C733 0.271 . S
C1389 C812 0.283 . S
C1408 C460 0.448 . S
C1425 C937 0.295 . S
C1444 C293 0.480 . S
C1461 C381 0.404 . S
C1480 C1025 0.315 . S
C1497 C489 2.336 . S
C1516 C29 2.322 . S
C1533 C108 2.334 . S
C1552 C321 2.348 . S
C1569 C196 2.333 . S
C1588 C409 2.336 . S
C1605 C585 2.344 . S
C1624 C988 2.360 . S
C1641 C665 2.320 . S
C1660 C821 2.297 . S
C1677 C724 2.327 . S
C1696 C929 2.322 . S
C1713 C20 1.770 . S
C1732 C557 1.787 . S
C1749 C117 1.754 . S
C1768 C645 1.727 . S
C1785 C205 1.753 . S
C1804 C761 1.754 . S
C1821 C313 1.752 . S
C1840 C841 1.740 . S
C1857 C909 1.748 . S
C1876 C401 1.763 . S
C1893 C497 1.771 . S
C1912 C1017 1.769 . S
