# Generated by pormake.
# Topology unw, (4)-cn, num edge types: 1
# Building blocks:
#     Node 0, Type 0, BuildingBlock: KOZSID_clean_sbu_0, # of connection points: 4
#     Node 1, Type 0, BuildingBlock: KOZSID_clean_sbu_0, # of connection points: 4
#     Node 2, Type 0, BuildingBlock: KOZSID_clean_sbu_0, # of connection points: 4
#     Node 3, Type 0, BuildingBlock: KOZSID_clean_sbu_0, # of connection points: 4
#     Node 4, Type 0, BuildingBlock: KOZSID_clean_sbu_0, # of connection points: 4
#     Node 5, Type 0, BuildingBlock: KOZSID_clean_sbu_0, # of connection points: 4
#     Node 6, Type 0, BuildingBlock: KOZSID_clean_sbu_0, # of connection points: 4
#     Node 7, Type 0, BuildingBlock: KOZSID_clean_sbu_0, # of connection points: 4
#     Node 8, Type 0, BuildingBlock: KOZSID_clean_sbu_0, # of connection points: 4
#     Node 9, Type 0, BuildingBlock: KOZSID_clean_sbu_0, # of connection points: 4
#     Node 10, Type 0, BuildingBlock: KOZSID_clean_sbu_0, # of connection points: 4
#     Node 11, Type 0, BuildingBlock: KOZSID_clean_sbu_0, # of connection points: 4
#     Node 12, Type 0, BuildingBlock: KOZSID_clean_sbu_0, # of connection points: 4
#     Node 13, Type 0, BuildingBlock: KOZSID_clean_sbu_0, # of connection points: 4
#     Node 14, Type 0, BuildingBlock: KOZSID_clean_sbu_0, # of connection points: 4
#     Node 15, Type 0, BuildingBlock: KOZSID_clean_sbu_0, # of connection points: 4
#     Node 16, Type 0, BuildingBlock: KOZSID_clean_sbu_0, # of connection points: 4
#     Node 17, Type 0, BuildingBlock: KOZSID_clean_sbu_0, # of connection points: 4
#     Node 18, Type 0, BuildingBlock: KOZSID_clean_sbu_0, # of connection points: 4
#     Node 19, Type 0, BuildingBlock: KOZSID_clean_sbu_0, # of connection points: 4
#     Node 20, Type 0, BuildingBlock: KOZSID_clean_sbu_0, # of connection points: 4
#     Node 21, Type 0, BuildingBlock: KOZSID_clean_sbu_0, # of connection points: 4
#     Node 22, Type 0, BuildingBlock: KOZSID_clean_sbu_0, # of connection points: 4
#     Node 23, Type 0, BuildingBlock: KOZSID_clean_sbu_0, # of connection points: 4
#     Edge 24, Type (0, 0), BuildingBlock: KIFKEQ_clean_linker_1, # of connection points: 2
#     Edge 25, Type (0, 0), BuildingBlock: KIFKEQ_clean_linker_1, # of connection points: 2
#     Edge 26, Type (0, 0), BuildingBlock: KIFKEQ_clean_linker_1, # of connection points: 2
#     Edge 27, Type (0, 0), BuildingBlock: KIFKEQ_clean_linker_1, # of connection points: 2
#     Edge 28, Type (0, 0), BuildingBlock: KIFKEQ_clean_linker_1, # of connection points: 2
#     Edge 29, Type (0, 0), BuildingBlock: KIFKEQ_clean_linker_1, # of connection points: 2
#     Edge 30, Type (0, 0), BuildingBlock: KIFKEQ_clean_linker_1, # of connection points: 2
#     Edge 31, Type (0, 0), BuildingBlock: KIFKEQ_clean_linker_1, # of connection points: 2
#     Edge 32, Type (0, 0), BuildingBlock: KIFKEQ_clean_linker_1, # of connection points: 2
#     Edge 33, Type (0, 0), BuildingBlock: KIFKEQ_clean_linker_1, # of connection points: 2
#     Edge 34, Type (0, 0), BuildingBlock: KIFKEQ_clean_linker_1, # of connection points: 2
#     Edge 35, Type (0, 0), BuildingBlock: KIFKEQ_clean_linker_1, # of connection points: 2
#     Edge 36, Type (0, 0), BuildingBlock: KIFKEQ_clean_linker_1, # of connection points: 2
#     Edge 37, Type (0, 0), BuildingBlock: KIFKEQ_clean_linker_1, # of connection points: 2
#     Edge 38, Type (0, 0), BuildingBlock: KIFKEQ_clean_linker_1, # of connection points: 2
#     Edge 39, Type (0, 0), BuildingBlock: KIFKEQ_clean_linker_1, # of connection points: 2
#     Edge 40, Type (0, 0), BuildingBlock: KIFKEQ_clean_linker_1, # of connection points: 2
#     Edge 41, Type (0, 0), BuildingBlock: KIFKEQ_clean_linker_1, # of connection points: 2
#     Edge 42, Type (0, 0), BuildingBlock: KIFKEQ_clean_linker_1, # of connection points: 2
#     Edge 43, Type (0, 0), BuildingBlock: KIFKEQ_clean_linker_1, # of connection points: 2
#     Edge 44, Type (0, 0), BuildingBlock: KIFKEQ_clean_linker_1, # of connection points: 2
#     Edge 45, Type (0, 0), BuildingBlock: KIFKEQ_clean_linker_1, # of connection points: 2
#     Edge 46, Type (0, 0), BuildingBlock: KIFKEQ_clean_linker_1, # of connection points: 2
#     Edge 47, Type (0, 0), BuildingBlock: KIFKEQ_clean_linker_1, # of connection points: 2
#     Edge 48, Type (0, 0), BuildingBlock: KIFKEQ_clean_linker_1, # of connection points: 2
#     Edge 49, Type (0, 0), BuildingBlock: KIFKEQ_clean_linker_1, # of connection points: 2
#     Edge 50, Type (0, 0), BuildingBlock: KIFKEQ_clean_linker_1, # of connection points: 2
#     Edge 51, Type (0, 0), BuildingBlock: KIFKEQ_clean_linker_1, # of connection points: 2
#     Edge 52, Type (0, 0), BuildingBlock: KIFKEQ_clean_linker_1, # of connection points: 2
#     Edge 53, Type (0, 0), BuildingBlock: KIFKEQ_clean_linker_1, # of connection points: 2
#     Edge 54, Type (0, 0), BuildingBlock: KIFKEQ_clean_linker_1, # of connection points: 2
#     Edge 55, Type (0, 0), BuildingBlock: KIFKEQ_clean_linker_1, # of connection points: 2
#     Edge 56, Type (0, 0), BuildingBlock: KIFKEQ_clean_linker_1, # of connection points: 2
#     Edge 57, Type (0, 0), BuildingBlock: KIFKEQ_clean_linker_1, # of connection points: 2
#     Edge 58, Type (0, 0), BuildingBlock: KIFKEQ_clean_linker_1, # of connection points: 2
#     Edge 59, Type (0, 0), BuildingBlock: KIFKEQ_clean_linker_1, # of connection points: 2
#     Edge 60, Type (0, 0), BuildingBlock: KIFKEQ_clean_linker_1, # of connection points: 2
#     Edge 61, Type (0, 0), BuildingBlock: KIFKEQ_clean_linker_1, # of connection points: 2
#     Edge 62, Type (0, 0), BuildingBlock: KIFKEQ_clean_linker_1, # of connection points: 2
#     Edge 63, Type (0, 0), BuildingBlock: KIFKEQ_clean_linker_1, # of connection points: 2
#     Edge 64, Type (0, 0), BuildingBlock: KIFKEQ_clean_linker_1, # of connection points: 2
#     Edge 65, Type (0, 0), BuildingBlock: KIFKEQ_clean_linker_1, # of connection points: 2
#     Edge 66, Type (0, 0), BuildingBlock: KIFKEQ_clean_linker_1, # of connection points: 2
#     Edge 67, Type (0, 0), BuildingBlock: KIFKEQ_clean_linker_1, # of connection points: 2
#     Edge 68, Type (0, 0), BuildingBlock: KIFKEQ_clean_linker_1, # of connection points: 2
#     Edge 69, Type (0, 0), BuildingBlock: KIFKEQ_clean_linker_1, # of connection points: 2
#     Edge 70, Type (0, 0), BuildingBlock: KIFKEQ_clean_linker_1, # of connection points: 2
#     Edge 71, Type (0, 0), BuildingBlock: KIFKEQ_clean_linker_1, # of connection points: 2
# Relax obj value: 0.341
# Max RMSD: 0.292
# Mean RMSD: 0.270
data_MOF--net-unw--node1-KOZSID_clean_sbu_0--edge1-KIFKEQ_clean_linker_1
_symmetry_space_group_name_H-M    P1
_symmetry_Int_Tables_number       1
_symmetry_cell_setting            triclinic
loop_
_symmetry_equiv_pos_as_xyz
'x, y, z'
_cell_length_a     62.735834
_cell_length_b     53.013498
_cell_length_c     56.045799
_cell_angle_alpha  90.015601
_cell_angle_beta   90.442792
_cell_angle_gamma 90.016674
loop_
_atom_site_label
_atom_site_type_symbol
_atom_site_fract_x
_atom_site_fract_y
_atom_site_fract_z
_atom_type_partial_charge
C0 C 0.13127 0.44049 0.21204 0.0
C1 C 0.11597 0.44345 0.19428 0.0
C2 C 0.1033 0.42219 0.19492 0.0
C3 C 0.11156 0.40734 0.2129 0.0
N4 N 0.12843 0.41824 0.22359 0.0
Co5 Co 0.14744 0.40248 0.24765 0.0
N6 N 0.1388 0.36805 0.23826 0.0
C7 C 0.12085 0.36215 0.22615 0.0
C8 C 0.11849 0.33659 0.22306 0.0
C9 C 0.13588 0.32589 0.23419 0.0
C10 C 0.148 0.34557 0.24347 0.0
N11 N 0.16692 0.38755 0.2717 0.0
C12 C 0.17457 0.36376 0.27338 0.0
C13 C 0.18841 0.36163 0.29279 0.0
C14 C 0.1888 0.38469 0.30389 0.0
C15 C 0.17541 0.39971 0.29064 0.0
N16 N 0.15582 0.43693 0.2569 0.0
C17 C 0.1645 0.44416 0.27778 0.0
C18 C 0.1694 0.46947 0.2781 0.0
C19 C 0.16362 0.47843 0.25593 0.0
C20 C 0.15557 0.45798 0.24337 0.0
N21 N 0.12423 0.40227 0.27134 0.0
C22 C 0.08743 0.39437 0.29899 0.0
C23 C 0.10438 0.3773 0.29948 0.0
C24 C 0.12232 0.38147 0.28566 0.0
C25 C 0.08999 0.41669 0.28568 0.0
C26 C 0.1086 0.42032 0.27199 0.0
N27 N 0.17016 0.40121 0.22394 0.0
C28 C 0.20746 0.39772 0.21477 0.0
C29 C 0.20246 0.38714 0.1924 0.0
C30 C 0.18102 0.38637 0.18539 0.0
C31 C 0.16523 0.39301 0.20144 0.0
C32 C 0.19103 0.40502 0.23014 0.0
H33 H 0.14897 0.38999 0.19596 0.0
H34 H 0.19519 0.41228 0.24755 0.0
H35 H 0.1341 0.36681 0.28573 0.0
H36 H 0.10992 0.43709 0.26114 0.0
C37 C 0.10837 0.38117 0.21536 0.0
C38 C 0.1482 0.45871 0.21849 0.0
C39 C 0.16668 0.34216 0.25928 0.0
C40 C 0.17302 0.42592 0.29324 0.0
H41 H 0.11433 0.4588 0.18175 0.0
H42 H 0.09077 0.41727 0.18239 0.0
H43 H 0.1059 0.32689 0.21346 0.0
H44 H 0.13907 0.30589 0.23571 0.0
H45 H 0.19691 0.34499 0.29871 0.0
H46 H 0.19817 0.39 0.31939 0.0
H47 H 0.17777 0.47976 0.29198 0.0
H48 H 0.16572 0.49748 0.24943 0.0
H49 H 0.10352 0.36015 0.30994 0.0
H50 H 0.07739 0.43061 0.28496 0.0
H51 H 0.22379 0.39902 0.221 0.0
H52 H 0.17627 0.37943 0.16797 0.0
C53 C 0.62391 0.09647 0.31644 0.0
C54 C 0.60981 0.09367 0.33513 0.0
C55 C 0.59817 0.11572 0.33611 0.0
C56 C 0.60581 0.13066 0.31796 0.0
N57 N 0.62132 0.11911 0.30573 0.0
Co58 Co 0.63847 0.1338 0.2799 0.0
N59 N 0.63197 0.16851 0.29028 0.0
C60 C 0.61567 0.17538 0.30435 0.0
C61 C 0.6157 0.20082 0.30904 0.0
C62 C 0.63294 0.21037 0.29701 0.0
C63 C 0.64246 0.1902 0.28539 0.0
N64 N 0.65562 0.14801 0.25384 0.0
C65 C 0.66387 0.1714 0.25157 0.0
C66 C 0.67415 0.17381 0.22977 0.0
C67 C 0.67219 0.15102 0.21829 0.0
C68 C 0.66077 0.13601 0.23351 0.0
N69 N 0.64494 0.09907 0.26979 0.0
C70 C 0.65129 0.09171 0.24804 0.0
C71 C 0.65569 0.0663 0.2472 0.0
C72 C 0.65193 0.0574 0.26987 0.0
C73 C 0.64535 0.07795 0.28325 0.0
N74 N 0.61331 0.13471 0.25878 0.0
C75 C 0.57625 0.13997 0.23088 0.0
C76 C 0.59146 0.15915 0.23193 0.0
C77 C 0.60973 0.15615 0.24576 0.0
C78 C 0.58032 0.11747 0.24336 0.0
C79 C 0.59899 0.11526 0.25737 0.0
N80 N 0.66348 0.13393 0.30083 0.0
C81 C 0.70162 0.13514 0.30472 0.0
C82 C 0.69982 0.14643 0.32724 0.0
C83 C 0.67958 0.14911 0.33714 0.0
C84 C 0.66162 0.14288 0.32361 0.0
C85 C 0.6832 0.12861 0.29195 0.0
H86 H 0.64623 0.14699 0.33103 0.0
H87 H 0.68488 0.12081 0.27428 0.0
H88 H 0.62074 0.1717 0.24631 0.0
H89 H 0.60166 0.09815 0.26744 0.0
C90 C 0.60339 0.15699 0.31615 0.0
C91 C 0.63923 0.07741 0.30847 0.0
C92 C 0.66034 0.19219 0.26853 0.0
C93 C 0.65782 0.1098 0.23132 0.0
H94 H 0.60842 0.07766 0.34699 0.0
H95 H 0.58671 0.12089 0.34959 0.0
H96 H 0.60507 0.21106 0.32068 0.0
H97 H 0.63788 0.22992 0.29684 0.0
H98 H 0.68196 0.19035 0.22268 0.0
H99 H 0.6789 0.14584 0.20124 0.0
H100 H 0.66227 0.05581 0.23242 0.0
H101 H 0.65419 0.03819 0.27583 0.0
H102 H 0.58906 0.17669 0.22235 0.0
H103 H 0.56888 0.10218 0.24297 0.0
H104 H 0.71708 0.13242 0.29665 0.0
H105 H 0.67752 0.15779 0.35447 0.0
C106 C 0.88696 0.55558 0.21337 0.0
C107 C 0.89614 0.55607 0.19097 0.0
C108 C 0.90598 0.57902 0.1889 0.0
C109 C 0.90216 0.59128 0.21003 0.0
N110 N 0.89109 0.57711 0.22573 0.0
Co111 Co 0.87852 0.58848 0.25675 0.0
N112 N 0.88544 0.6246 0.25006 0.0
C113 C 0.89671 0.6336 0.23143 0.0
C114 C 0.89765 0.65945 0.23086 0.0
C115 C 0.88612 0.66734 0.2501 0.0
C116 C 0.87889 0.64576 0.26147 0.0
N117 N 0.86568 0.59933 0.28761 0.0
C118 C 0.86186 0.62278 0.29596 0.0
C119 C 0.85307 0.62209 0.31865 0.0
C120 C 0.85068 0.59726 0.32445 0.0
C121 C 0.85826 0.58426 0.30517 0.0
N122 N 0.87123 0.55247 0.26312 0.0
C123 C 0.86339 0.54249 0.28341 0.0
C124 C 0.85836 0.51737 0.28141 0.0
C125 C 0.86254 0.51125 0.25822 0.0
C126 C 0.86987 0.5331 0.24746 0.0
N127 N 0.90687 0.58492 0.27352 0.0
C128 C 0.94281 0.59651 0.30242 0.0
C129 C 0.92594 0.5822 0.31137 0.0
C130 C 0.90844 0.5763 0.29659 0.0
C131 C 0.94262 0.60178 0.27802 0.0
C132 C 0.9249 0.59538 0.26398 0.0
N133 N 0.8507 0.59321 0.24053 0.0
C134 C 0.81223 0.59559 0.24181 0.0
C135 C 0.81174 0.60783 0.21966 0.0
C136 C 0.83089 0.61134 0.2077 0.0
C137 C 0.85 0.60415 0.21841 0.0
C138 C 0.83184 0.58799 0.2517 0.0
H139 H 0.8641 0.6086 0.20884 0.0
H140 H 0.83162 0.57865 0.26869 0.0
H141 H 0.89615 0.56549 0.30457 0.0
H142 H 0.92605 0.59996 0.24568 0.0
C143 C 0.90413 0.61745 0.21343 0.0
C144 C 0.8729 0.53551 0.22181 0.0
C145 C 0.8653 0.64602 0.28258 0.0
C146 C 0.85738 0.55806 0.30232 0.0
H147 H 0.89491 0.542 0.17708 0.0
H148 H 0.91332 0.58668 0.17307 0.0
H149 H 0.90507 0.67119 0.21749 0.0
H150 H 0.88301 0.68676 0.25485 0.0
H151 H 0.84844 0.63791 0.32966 0.0
H152 H 0.84371 0.58962 0.34051 0.0
H153 H 0.85095 0.50546 0.29467 0.0
H154 H 0.85934 0.49328 0.24974 0.0
H155 H 0.92568 0.57663 0.32995 0.0
H156 H 0.95591 0.61144 0.26981 0.0
H157 H 0.79765 0.59224 0.25153 0.0
H158 H 0.83131 0.6209 0.19062 0.0
C159 C 0.37554 0.93162 0.29942 0.0
C160 C 0.38865 0.93403 0.31926 0.0
C161 C 0.40051 0.91211 0.32054 0.0
C162 C 0.39401 0.89757 0.30141 0.0
N163 N 0.37903 0.90933 0.28828 0.0
Co164 Co 0.36264 0.89478 0.26142 0.0
N165 N 0.36863 0.85995 0.27177 0.0
C166 C 0.38465 0.85294 0.28645 0.0
C167 C 0.38504 0.8273 0.29011 0.0
C168 C 0.36838 0.81781 0.27671 0.0
C169 C 0.35871 0.83822 0.26552 0.0
N170 N 0.34583 0.88105 0.23449 0.0
C171 C 0.33735 0.85781 0.23162 0.0
C172 C 0.32702 0.856 0.20963 0.0
C173 C 0.32934 0.87891 0.19853 0.0
C174 C 0.34095 0.89344 0.21419 0.0
N175 N 0.3568 0.9297 0.25129 0.0
C176 C 0.35115 0.93739 0.22931 0.0
C177 C 0.34678 0.96283 0.22859 0.0
C178 C 0.3497 0.97137 0.2516 0.0
C179 C 0.35573 0.95059 0.26503 0.0
N180 N 0.38862 0.8932 0.24159 0.0
C181 C 0.4282 0.88274 0.22004 0.0
C182 C 0.41072 0.86675 0.21691 0.0
C183 C 0.39139 0.87217 0.22772 0.0
C184 C 0.425 0.90532 0.2328 0.0
C185 C 0.405 0.91023 0.24342 0.0
N186 N 0.33712 0.89472 0.2813 0.0
C187 C 0.2989 0.89324 0.28444 0.0
C188 C 0.30069 0.88266 0.30732 0.0
C189 C 0.32094 0.88015 0.31752 0.0
C190 C 0.33886 0.886 0.3042 0.0
C191 C 0.31738 0.89965 0.27188 0.0
H192 H 0.35414 0.88181 0.31204 0.0
H193 H 0.31574 0.90715 0.25406 0.0
H194 H 0.37912 0.85819 0.22587 0.0
H195 H 0.40309 0.92712 0.25401 0.0
C196 C 0.39648 0.87122 0.29927 0.0
C197 C 0.36031 0.9507 0.29072 0.0
C198 C 0.34123 0.83639 0.24782 0.0
C199 C 0.3445 0.91956 0.21228 0.0
H200 H 0.38919 0.94965 0.33168 0.0
H201 H 0.41126 0.90665 0.33483 0.0
H202 H 0.39565 0.81682 0.30175 0.0
H203 H 0.36396 0.79813 0.27524 0.0
H204 H 0.31903 0.8397 0.20213 0.0
H205 H 0.32282 0.88448 0.18139 0.0
H206 H 0.34055 0.97352 0.21364 0.0
H207 H 0.34715 0.99043 0.25784 0.0
H208 H 0.4122 0.84937 0.20687 0.0
H209 H 0.43805 0.91838 0.23555 0.0
H210 H 0.28342 0.89567 0.27605 0.0
H211 H 0.32305 0.87186 0.33505 0.0
C212 C 0.11762 0.55768 0.79141 0.0
C213 C 0.10766 0.55941 0.81333 0.0
C214 C 0.09651 0.58163 0.81315 0.0
C215 C 0.10045 0.59225 0.79128 0.0
N216 N 0.11285 0.57773 0.77724 0.0
Co217 Co 0.12627 0.58762 0.74623 0.0
N218 N 0.11659 0.62327 0.74953 0.0
C219 C 0.10259 0.63223 0.76566 0.0
C220 C 0.09865 0.65756 0.76313 0.0
C221 C 0.11084 0.66509 0.74426 0.0
C222 C 0.12159 0.64385 0.73637 0.0
N223 N 0.14094 0.59729 0.71602 0.0
C224 C 0.14433 0.62035 0.70651 0.0
C225 C 0.15637 0.61886 0.68583 0.0
C226 C 0.16063 0.59391 0.68216 0.0
C227 C 0.15116 0.58167 0.70081 0.0
N228 N 0.13543 0.55185 0.74277 0.0
C229 C 0.14396 0.54083 0.72337 0.0
C230 C 0.14932 0.516 0.72701 0.0
C231 C 0.14444 0.51125 0.75033 0.0
C232 C 0.13643 0.53355 0.75952 0.0
N233 N 0.09924 0.58067 0.72782 0.0
C234 C 0.06313 0.59103 0.69896 0.0
C235 C 0.08193 0.58195 0.68892 0.0
C236 C 0.09954 0.57652 0.70361 0.0
C237 C 0.06177 0.59116 0.72382 0.0
C238 C 0.07968 0.58519 0.73777 0.0
N239 N 0.15266 0.59574 0.76406 0.0
C240 C 0.19108 0.59819 0.76643 0.0
C241 C 0.18981 0.61421 0.78625 0.0
C242 C 0.16974 0.61971 0.79541 0.0
C243 C 0.15154 0.61054 0.78404 0.0
C244 C 0.17233 0.58878 0.75589 0.0
H245 H 0.13662 0.61642 0.79118 0.0
H246 H 0.17387 0.57651 0.74076 0.0
H247 H 0.11339 0.57 0.69472 0.0
H248 H 0.07733 0.58527 0.75653 0.0
C249 C 0.09565 0.61717 0.78468 0.0
C250 C 0.13241 0.53757 0.78481 0.0
C251 C 0.13634 0.64397 0.71635 0.0
C252 C 0.15144 0.55559 0.70458 0.0
H253 H 0.10895 0.5465 0.8282 0.0
H254 H 0.08779 0.58983 0.82782 0.0
H255 H 0.08864 0.66934 0.77416 0.0
H256 H 0.11189 0.68406 0.73723 0.0
H257 H 0.16156 0.63418 0.67453 0.0
H258 H 0.16967 0.58572 0.66774 0.0
H259 H 0.15757 0.50354 0.71488 0.0
H260 H 0.14765 0.49393 0.75994 0.0
H261 H 0.08352 0.58038 0.66974 0.0
H262 H 0.04708 0.5965 0.73252 0.0
H263 H 0.20639 0.59322 0.75898 0.0
H264 H 0.16802 0.63214 0.81062 0.0
C265 C 0.38367 0.09516 0.69304 0.0
C266 C 0.39831 0.09118 0.67508 0.0
C267 C 0.41072 0.11263 0.67411 0.0
C268 C 0.40297 0.12842 0.69154 0.0
N269 N 0.38664 0.11796 0.70333 0.0
Co270 Co 0.36909 0.13419 0.728 0.0
N271 N 0.37724 0.16827 0.71719 0.0
C272 C 0.39434 0.17392 0.70384 0.0
C273 C 0.39576 0.1993 0.69909 0.0
C274 C 0.37862 0.2101 0.71035 0.0
C275 C 0.36768 0.19067 0.72149 0.0
N276 N 0.35145 0.14991 0.75289 0.0
C277 C 0.34405 0.17375 0.75435 0.0
C278 C 0.33288 0.17713 0.77548 0.0
C279 C 0.3335 0.15456 0.78745 0.0
C280 C 0.34501 0.13868 0.77315 0.0
N281 N 0.36104 0.1001 0.73861 0.0
C282 C 0.35368 0.09367 0.76022 0.0
C283 C 0.34852 0.0685 0.76155 0.0
C284 C 0.35287 0.05874 0.73937 0.0
C285 C 0.36056 0.07858 0.72575 0.0
N286 N 0.39346 0.13445 0.75023 0.0
C287 C 0.43 0.13885 0.77911 0.0
C288 C 0.42558 0.11627 0.76691 0.0
C289 C 0.40718 0.11448 0.75242 0.0
C290 C 0.41531 0.15854 0.77739 0.0
C291 C 0.39729 0.15597 0.76306 0.0
N292 N 0.34489 0.13495 0.70586 0.0
C293 C 0.30699 0.13705 0.69953 0.0
C294 C 0.31004 0.14736 0.67671 0.0
C295 C 0.33089 0.14896 0.66811 0.0
C296 C 0.34802 0.14292 0.68297 0.0
C297 C 0.32465 0.13066 0.7137 0.0
H298 H 0.36383 0.1461 0.67628 0.0
H299 H 0.32195 0.1237 0.73152 0.0
H300 H 0.40429 0.0973 0.74254 0.0
H301 H 0.38675 0.17192 0.76192 0.0
C302 C 0.40631 0.15464 0.69296 0.0
C303 C 0.36755 0.07698 0.70086 0.0
C304 C 0.34941 0.19412 0.73756 0.0
C305 C 0.34706 0.11248 0.77613 0.0
H306 H 0.39959 0.07476 0.6637 0.0
H307 H 0.42285 0.11687 0.66108 0.0
H308 H 0.40737 0.20874 0.68804 0.0
H309 H 0.37473 0.22999 0.71048 0.0
H310 H 0.32541 0.1942 0.78189 0.0
H311 H 0.32594 0.15012 0.80423 0.0
H312 H 0.34109 0.05876 0.77628 0.0
H313 H 0.35024 0.03944 0.73389 0.0
H314 H 0.4366 0.10058 0.76783 0.0
H315 H 0.41796 0.17617 0.78676 0.0
H316 H 0.2912 0.13527 0.70701 0.0
H317 H 0.3341 0.15591 0.65033 0.0
C318 C 0.87442 0.43763 0.79356 0.0
C319 C 0.88982 0.44256 0.81074 0.0
C320 C 0.90304 0.42175 0.81129 0.0
C321 C 0.89497 0.4053 0.79442 0.0
N322 N 0.87772 0.41481 0.78333 0.0
Co323 Co 0.85903 0.39702 0.76032 0.0
N324 N 0.8687 0.36357 0.77139 0.0
C325 C 0.88677 0.35905 0.7838 0.0
C326 C 0.88946 0.33385 0.78871 0.0
C327 C 0.87216 0.32195 0.77851 0.0
C328 C 0.85981 0.34057 0.76779 0.0
N329 N 0.83993 0.38 0.7372 0.0
C330 C 0.83306 0.35583 0.7367 0.0
C331 C 0.82023 0.3517 0.7167 0.0
C332 C 0.8193 0.37405 0.70439 0.0
C333 C 0.83157 0.39059 0.71737 0.0
N334 N 0.84951 0.43054 0.7495 0.0
C335 C 0.84045 0.43624 0.7284 0.0
C336 C 0.83421 0.46112 0.72722 0.0
C337 C 0.83954 0.4714 0.74904 0.0
C338 C 0.84873 0.45213 0.76224 0.0
N339 N 0.88209 0.39636 0.73646 0.0
C340 C 0.91863 0.38852 0.70834 0.0
C341 C 0.90234 0.37061 0.70931 0.0
C342 C 0.88454 0.37475 0.72336 0.0
C343 C 0.91552 0.41149 0.72048 0.0
C344 C 0.89706 0.41507 0.73444 0.0
N345 N 0.83646 0.3962 0.78419 0.0
C346 C 0.79927 0.39191 0.79352 0.0
C347 C 0.8045 0.38279 0.81639 0.0
C348 C 0.82595 0.38314 0.82343 0.0
C349 C 0.84159 0.38947 0.80706 0.0
C350 C 0.81551 0.3989 0.77782 0.0
H351 H 0.85793 0.38741 0.81266 0.0
H352 H 0.81118 0.40498 0.76006 0.0
H353 H 0.87334 0.35952 0.72445 0.0
H354 H 0.8953 0.43243 0.74435 0.0
C355 C 0.89883 0.37914 0.79345 0.0
C356 C 0.85682 0.45454 0.7867 0.0
C357 C 0.84082 0.33573 0.75274 0.0
C358 C 0.83293 0.41676 0.71361 0.0
H359 H 0.891 0.45906 0.82204 0.0
H360 H 0.91588 0.41823 0.82386 0.0
H361 H 0.90212 0.3252 0.79908 0.0
H362 H 0.86911 0.30186 0.77873 0.0
H363 H 0.81278 0.33423 0.71115 0.0
H364 H 0.81033 0.37788 0.68822 0.0
H365 H 0.82533 0.47021 0.713 0.0
H366 H 0.83658 0.49055 0.75481 0.0
H367 H 0.90359 0.35288 0.69979 0.0
H368 H 0.92762 0.42605 0.72007 0.0
H369 H 0.78293 0.39226 0.78721 0.0
H370 H 0.83083 0.3773 0.84116 0.0
C371 C 0.62986 0.93231 0.70581 0.0
C372 C 0.61612 0.93566 0.68659 0.0
C373 C 0.60343 0.91441 0.68548 0.0
C374 C 0.61009 0.89915 0.70397 0.0
N375 N 0.62598 0.90984 0.71659 0.0
Co376 Co 0.64296 0.89353 0.74212 0.0
N377 N 0.63535 0.85937 0.73111 0.0
C378 C 0.61853 0.85362 0.71709 0.0
C379 C 0.61709 0.82816 0.71271 0.0
C380 C 0.63391 0.81744 0.72496 0.0
C381 C 0.64472 0.837 0.73624 0.0
N382 N 0.66037 0.87815 0.76773 0.0
C383 C 0.66815 0.85446 0.7695 0.0
C384 C 0.67927 0.85146 0.7909 0.0
C385 C 0.67815 0.87407 0.80278 0.0
C386 C 0.66645 0.88962 0.78814 0.0
N387 N 0.65038 0.92769 0.75299 0.0
C388 C 0.65693 0.93441 0.77495 0.0
C389 C 0.66178 0.95971 0.77634 0.0
C390 C 0.65821 0.96916 0.75377 0.0
C391 C 0.65141 0.94901 0.73992 0.0
N392 N 0.61778 0.89245 0.76324 0.0
C393 C 0.57878 0.88272 0.78646 0.0
C394 C 0.59611 0.86633 0.78869 0.0
C395 C 0.61507 0.87131 0.77694 0.0
C396 C 0.58199 0.90536 0.77378 0.0
C397 C 0.60169 0.90994 0.76238 0.0
N398 N 0.6676 0.89283 0.72086 0.0
C399 C 0.70536 0.88672 0.71595 0.0
C400 C 0.70179 0.87626 0.69322 0.0
C401 C 0.68117 0.87731 0.68368 0.0
C402 C 0.66439 0.88524 0.69779 0.0
C403 C 0.68799 0.8953 0.72938 0.0
H404 H 0.64862 0.88321 0.69043 0.0
H405 H 0.69088 0.90216 0.74726 0.0
H406 H 0.62704 0.8569 0.77799 0.0
H407 H 0.60356 0.92696 0.752 0.0
C408 C 0.60685 0.87287 0.70549 0.0
C409 C 0.6463 0.95027 0.71437 0.0
C410 C 0.66282 0.83375 0.75296 0.0
C411 C 0.66373 0.91577 0.79109 0.0
H412 H 0.61558 0.95125 0.67421 0.0
H413 H 0.59204 0.90976 0.67156 0.0
H414 H 0.60566 0.81858 0.70133 0.0
H415 H 0.63769 0.79754 0.72562 0.0
H416 H 0.68693 0.83457 0.79756 0.0
H417 H 0.68548 0.87875 0.81976 0.0
H418 H 0.66871 0.96969 0.79136 0.0
H419 H 0.66089 0.98835 0.74795 0.0
H420 H 0.59485 0.84901 0.79884 0.0
H421 H 0.56914 0.91885 0.77175 0.0
H422 H 0.72113 0.88674 0.72393 0.0
H423 H 0.67771 0.87046 0.66585 0.0
C424 C 0.26886 0.09842 0.38878 0.0
C425 C 0.28593 0.10098 0.40438 0.0
C426 C 0.28402 0.12457 0.4146 0.0
C427 C 0.26589 0.13506 0.40469 0.0
N428 N 0.2564 0.11928 0.38917 0.0
Co429 Co 0.2319 0.12709 0.36817 0.0
N430 N 0.23702 0.16368 0.37051 0.0
C431 C 0.24814 0.17518 0.38806 0.0
C432 C 0.24839 0.20094 0.38545 0.0
C433 C 0.23656 0.20576 0.36518 0.0
C434 C 0.22978 0.18258 0.35639 0.0
N435 N 0.20755 0.1342 0.34664 0.0
C436 C 0.20325 0.15517 0.33373 0.0
C437 C 0.185 0.15161 0.31988 0.0
C438 C 0.17742 0.12795 0.32507 0.0
C439 C 0.19149 0.11817 0.3415 0.0
N440 N 0.22701 0.0904 0.36613 0.0
C441 C 0.20876 0.07886 0.35986 0.0
C442 C 0.21112 0.05308 0.35842 0.0
C443 C 0.23219 0.0484 0.36385 0.0
C444 C 0.24149 0.07164 0.36836 0.0
N445 N 0.21279 0.12996 0.39594 0.0
C446 C 0.18842 0.14112 0.43682 0.0
C447 C 0.18562 0.1545 0.41556 0.0
C448 C 0.19785 0.14881 0.39566 0.0
C449 C 0.20346 0.12138 0.43702 0.0
C450 C 0.21529 0.11587 0.41626 0.0
N451 N 0.25078 0.12563 0.34066 0.0
C452 C 0.25621 0.11802 0.29883 0.0
C453 C 0.27494 0.1325 0.29949 0.0
C454 C 0.28194 0.142 0.32147 0.0
C455 C 0.26968 0.1384 0.34171 0.0
C456 C 0.24446 0.11458 0.31973 0.0
H457 H 0.27503 0.14718 0.358 0.0
H458 H 0.22979 0.10398 0.31876 0.0
H459 H 0.19571 0.16073 0.38033 0.0
H460 H 0.22688 0.1008 0.41685 0.0
C461 C 0.26085 0.16096 0.40403 0.0
C462 C 0.26403 0.07591 0.37436 0.0
C463 C 0.21492 0.17924 0.33608 0.0
C464 C 0.19239 0.09287 0.34895 0.0
H465 H 0.29854 0.08746 0.40763 0.0
H466 H 0.29541 0.13366 0.42638 0.0
H467 H 0.25671 0.21457 0.39649 0.0
H468 H 0.23312 0.22424 0.35791 0.0
H469 H 0.17778 0.16469 0.30742 0.0
H470 H 0.1638 0.11863 0.31702 0.0
H471 H 0.19946 0.03951 0.35215 0.0
H472 H 0.23989 0.03015 0.36374 0.0
H473 H 0.17463 0.17022 0.41448 0.0
H474 H 0.20615 0.11041 0.45305 0.0
H475 H 0.2504 0.11004 0.28222 0.0
H476 H 0.29616 0.15351 0.32286 0.0
C477 C 0.90399 0.24127 0.42009 0.0
C478 C 0.9159 0.21963 0.41637 0.0
C479 C 0.92438 0.22173 0.3938 0.0
C480 C 0.91715 0.24443 0.38493 0.0
N481 N 0.90491 0.25658 0.40078 0.0
Co482 Co 0.88846 0.28772 0.39499 0.0
N483 N 0.88857 0.28253 0.36022 0.0
C484 C 0.90244 0.26801 0.34822 0.0
C485 C 0.89869 0.26849 0.32402 0.0
C486 C 0.88158 0.28444 0.32082 0.0
C487 C 0.87577 0.2928 0.34333 0.0
N488 N 0.87188 0.31888 0.38989 0.0
C489 C 0.86029 0.32604 0.37065 0.0
C490 C 0.85111 0.34953 0.37446 0.0
C491 C 0.85753 0.35725 0.39681 0.0
C492 C 0.87019 0.33812 0.40545 0.0
N493 N 0.88843 0.29256 0.42975 0.0
C494 C 0.88538 0.31431 0.44152 0.0
C495 C 0.88457 0.31068 0.46584 0.0
C496 C 0.88703 0.28508 0.46925 0.0
C497 C 0.88918 0.27459 0.44678 0.0
N498 N 0.91504 0.30735 0.39194 0.0
C499 C 0.95387 0.33176 0.38154 0.0
C500 C 0.93519 0.33734 0.36882 0.0
C501 C 0.9162 0.32504 0.37419 0.0
C502 C 0.95248 0.31416 0.4003 0.0
C503 C 0.93286 0.30235 0.40537 0.0
N504 N 0.86208 0.26827 0.39696 0.0
C505 C 0.82503 0.26463 0.4073 0.0
C506 C 0.82375 0.24151 0.39525 0.0
C507 C 0.84208 0.2318 0.38469 0.0
C508 C 0.86091 0.24556 0.38546 0.0
C509 C 0.84451 0.27755 0.4083 0.0
H510 H 0.8744 0.23806 0.37609 0.0
H511 H 0.84527 0.29529 0.41771 0.0
H512 H 0.90262 0.32923 0.36306 0.0
H513 H 0.93222 0.28864 0.41961 0.0
C514 C 0.91597 0.25113 0.3606 0.0
C515 C 0.89186 0.24762 0.44173 0.0
C516 C 0.85933 0.31193 0.34807 0.0
C517 C 0.87745 0.33544 0.42916 0.0
H518 H 0.9178 0.20372 0.42823 0.0
H519 H 0.93319 0.20739 0.38431 0.0
H520 H 0.90688 0.25785 0.31039 0.0
H521 H 0.87433 0.28949 0.3039 0.0
H522 H 0.84099 0.36007 0.36234 0.0
H523 H 0.85283 0.37431 0.40598 0.0
H524 H 0.88087 0.32458 0.47934 0.0
H525 H 0.88665 0.27518 0.48613 0.0
H526 H 0.93534 0.35031 0.3539 0.0
H527 H 0.96644 0.30933 0.41081 0.0
H528 H 0.81109 0.27271 0.41563 0.0
H529 H 0.84161 0.21421 0.37484 0.0
C530 C 0.79349 0.87666 0.42063 0.0
C531 C 0.81091 0.89271 0.41979 0.0
C532 C 0.80908 0.90608 0.39876 0.0
C533 C 0.79075 0.89742 0.38786 0.0
N534 N 0.78105 0.87962 0.40094 0.0
Co535 Co 0.75592 0.85949 0.39117 0.0
N536 N 0.76061 0.86649 0.35705 0.0
C537 C 0.77226 0.88563 0.34829 0.0
C538 C 0.7724 0.88583 0.32377 0.0
C539 C 0.75991 0.86571 0.31688 0.0
C540 C 0.75279 0.85431 0.33764 0.0
N541 N 0.73082 0.83907 0.38204 0.0
C542 C 0.72572 0.82874 0.3607 0.0
C543 C 0.70636 0.81604 0.36201 0.0
C544 C 0.69921 0.81882 0.38496 0.0
C545 C 0.71448 0.83301 0.3964 0.0
N546 N 0.75127 0.85274 0.42524 0.0
C547 C 0.73287 0.84584 0.43543 0.0
C548 C 0.73514 0.84185 0.45959 0.0
C549 C 0.75631 0.84643 0.46462 0.0
C550 C 0.76571 0.8529 0.44319 0.0
N551 N 0.73765 0.88964 0.39264 0.0
C552 C 0.71353 0.93419 0.38974 0.0
C553 C 0.71015 0.91445 0.3737 0.0
C554 C 0.72242 0.8927 0.37524 0.0
C555 C 0.72902 0.93109 0.40774 0.0
C556 C 0.74069 0.90839 0.40914 0.0
N557 N 0.77401 0.82964 0.38855 0.0
C558 C 0.77687 0.78445 0.38683 0.0
C559 C 0.79558 0.78663 0.37354 0.0
C560 C 0.80421 0.81049 0.36964 0.0
C561 C 0.79311 0.83174 0.37709 0.0
C562 C 0.76655 0.80631 0.3947 0.0
H563 H 0.79932 0.84987 0.37204 0.0
H564 H 0.75184 0.80438 0.40437 0.0
H565 H 0.71992 0.87871 0.36163 0.0
H566 H 0.75252 0.90625 0.42311 0.0
C567 C 0.78553 0.90002 0.36349 0.0
C568 C 0.78829 0.8591 0.44015 0.0
C569 C 0.73748 0.83322 0.33849 0.0
C570 C 0.71583 0.83743 0.42111 0.0
H571 H 0.82383 0.89432 0.43255 0.0
H572 H 0.82065 0.91907 0.3915 0.0
H573 H 0.78114 0.89846 0.31225 0.0
H574 H 0.75638 0.86017 0.29869 0.0
H575 H 0.69807 0.80621 0.34778 0.0
H576 H 0.68491 0.81079 0.39253 0.0
H577 H 0.72325 0.83477 0.47178 0.0
H578 H 0.76406 0.84466 0.48186 0.0
H579 H 0.69863 0.91621 0.35929 0.0
H580 H 0.73211 0.94602 0.42049 0.0
H581 H 0.76989 0.76613 0.39026 0.0
H582 H 0.81863 0.81278 0.35934 0.0
C583 C 0.11348 0.76647 0.42774 0.0
C584 C 0.09924 0.78644 0.42692 0.0
C585 C 0.08845 0.78448 0.40544 0.0
C586 C 0.0967 0.76352 0.39429 0.0
N587 N 0.11181 0.75231 0.40766 0.0
Co588 Co 0.13023 0.72396 0.39785 0.0
N589 N 0.12512 0.73069 0.36371 0.0
C590 C 0.10859 0.74381 0.35461 0.0
C591 C 0.10897 0.74472 0.3301 0.0
C592 C 0.12671 0.73114 0.32358 0.0
C593 C 0.13623 0.72269 0.34455 0.0
N594 N 0.14896 0.69568 0.38875 0.0
C595 C 0.15851 0.69102 0.36769 0.0
C596 C 0.17037 0.66891 0.36894 0.0
C597 C 0.16777 0.65939 0.39151 0.0
C598 C 0.15456 0.67614 0.40282 0.0
N599 N 0.13502 0.71725 0.43196 0.0
C600 C 0.14138 0.6954 0.44183 0.0
C601 C 0.14391 0.69731 0.46619 0.0
C602 C 0.13897 0.72194 0.47169 0.0
C603 C 0.13374 0.73358 0.45031 0.0
N604 N 0.10554 0.70096 0.39733 0.0
C605 C 0.06793 0.67296 0.39004 0.0
C606 C 0.08566 0.66946 0.3755 0.0
C607 C 0.10405 0.68364 0.37926 0.0
C608 C 0.06972 0.69009 0.40912 0.0
C609 C 0.08883 0.70361 0.41271 0.0
N610 N 0.15457 0.74702 0.39721 0.0
C611 C 0.19225 0.75511 0.40066 0.0
C612 C 0.1896 0.77845 0.38922 0.0
C613 C 0.16905 0.78612 0.38288 0.0
C614 C 0.15191 0.77012 0.38674 0.0
C615 C 0.17441 0.73981 0.40488 0.0
H616 H 0.13657 0.77613 0.38022 0.0
H617 H 0.17671 0.72181 0.41353 0.0
H618 H 0.11665 0.68134 0.36656 0.0
H619 H 0.0898 0.7169 0.42729 0.0
C620 C 0.09537 0.75819 0.36968 0.0
C621 C 0.12815 0.76025 0.44758 0.0
C622 C 0.15466 0.70553 0.34573 0.0
C623 C 0.14992 0.67638 0.42733 0.0
H624 H 0.0971 0.80115 0.44001 0.0
H625 H 0.0772 0.79791 0.3981 0.0
H626 H 0.09811 0.75473 0.31838 0.0
H627 H 0.13192 0.72767 0.30551 0.0
H628 H 0.17965 0.66032 0.35491 0.0
H629 H 0.17515 0.64267 0.39896 0.0
H630 H 0.15015 0.68315 0.47826 0.0
H631 H 0.13975 0.73057 0.48918 0.0
H632 H 0.08499 0.6568 0.36033 0.0
H633 H 0.05639 0.69329 0.4209 0.0
H634 H 0.20797 0.74859 0.40588 0.0
H635 H 0.16635 0.80383 0.37369 0.0
C636 C 0.2085 0.8798 0.5848 0.0
C637 C 0.19127 0.89617 0.58465 0.0
C638 C 0.19156 0.90838 0.60638 0.0
C639 C 0.20883 0.89878 0.61864 0.0
N640 N 0.21937 0.88154 0.60574 0.0
Co641 Co 0.24329 0.86026 0.61697 0.0
N642 N 0.23578 0.86526 0.65078 0.0
C643 C 0.22335 0.88388 0.65925 0.0
C644 C 0.22046 0.88212 0.68346 0.0
C645 C 0.23201 0.86136 0.69053 0.0
C646 C 0.24158 0.85164 0.67022 0.0
N647 N 0.26724 0.83868 0.62754 0.0
C648 C 0.27072 0.82736 0.64885 0.0
C649 C 0.29023 0.81487 0.64885 0.0
C650 C 0.29907 0.81866 0.62681 0.0
C651 C 0.28466 0.8333 0.61457 0.0
N652 N 0.25068 0.85552 0.58323 0.0
C653 C 0.26975 0.84883 0.57459 0.0
C654 C 0.26934 0.8461 0.55016 0.0
C655 C 0.24866 0.85124 0.54329 0.0
C656 C 0.23769 0.85679 0.56399 0.0
N657 N 0.26201 0.88998 0.61915 0.0
C658 C 0.28553 0.93427 0.6279 0.0
C659 C 0.28729 0.91333 0.64293 0.0
C660 C 0.27537 0.89178 0.63847 0.0
C661 C 0.27263 0.932 0.60735 0.0
C662 C 0.26102 0.90957 0.60325 0.0
N663 N 0.22466 0.83081 0.6159 0.0
C664 C 0.22055 0.78582 0.61318 0.0
C665 C 0.20107 0.78731 0.62527 0.0
C666 C 0.19288 0.81116 0.63057 0.0
C667 C 0.20487 0.83257 0.62577 0.0
C668 C 0.23202 0.80789 0.60843 0.0
H669 H 0.19866 0.85041 0.63163 0.0
H670 H 0.24736 0.80634 0.59997 0.0
H671 H 0.27653 0.8769 0.65141 0.0
H672 H 0.25075 0.90835 0.58772 0.0
C673 C 0.21179 0.89958 0.64353 0.0
C674 C 0.21496 0.86298 0.56519 0.0
C675 C 0.2574 0.83095 0.67017 0.0
C676 C 0.28542 0.83924 0.59013 0.0
H677 H 0.17942 0.8987 0.5708 0.0
H678 H 0.17954 0.92112 0.61311 0.0
H679 H 0.21046 0.89386 0.69452 0.0
H680 H 0.23327 0.85433 0.7086 0.0
H681 H 0.29766 0.80465 0.66339 0.0
H682 H 0.31402 0.81119 0.62038 0.0
H683 H 0.28206 0.83937 0.53887 0.0
H684 H 0.24223 0.85038 0.52534 0.0
H685 H 0.29751 0.9137 0.6586 0.0
H686 H 0.27091 0.94763 0.59506 0.0
H687 H 0.22728 0.76773 0.60834 0.0
H688 H 0.178 0.81332 0.64004 0.0
C689 C 0.10099 0.23493 0.58606 0.0
C690 C 0.0892 0.21327 0.59013 0.0
C691 C 0.08082 0.21564 0.61273 0.0
C692 C 0.08799 0.23852 0.62127 0.0
N693 N 0.1001 0.25052 0.6052 0.0
Co694 Co 0.11645 0.28185 0.61052 0.0
N695 N 0.11644 0.27723 0.64537 0.0
C696 C 0.10264 0.26282 0.6576 0.0
C697 C 0.1064 0.26375 0.68179 0.0
C698 C 0.12345 0.27986 0.68474 0.0
C699 C 0.12921 0.28787 0.6621 0.0
N700 N 0.13301 0.31315 0.61515 0.0
C701 C 0.14459 0.32069 0.63427 0.0
C702 C 0.15375 0.34413 0.63009 0.0
C703 C 0.14729 0.35144 0.60763 0.0
C704 C 0.13464 0.33214 0.59932 0.0
N705 N 0.11634 0.28618 0.5757 0.0
C706 C 0.11927 0.30778 0.56365 0.0
C707 C 0.11989 0.30385 0.53936 0.0
C708 C 0.11744 0.27822 0.53626 0.0
C709 C 0.11548 0.268 0.55886 0.0
N710 N 0.08983 0.30142 0.61343 0.0
C711 C 0.05099 0.3258 0.62381 0.0
C712 C 0.06976 0.33183 0.63615 0.0
C713 C 0.08875 0.31952 0.63083 0.0
C714 C 0.05227 0.30775 0.60541 0.0
C715 C 0.07191 0.29599 0.60032 0.0
N716 N 0.14287 0.26246 0.60871 0.0
C717 C 0.17973 0.25848 0.59768 0.0
C718 C 0.18126 0.23574 0.61036 0.0
C719 C 0.1631 0.22641 0.6216 0.0
C720 C 0.14423 0.2401 0.62077 0.0
C721 C 0.16025 0.27142 0.59681 0.0
H722 H 0.13086 0.23283 0.63052 0.0
H723 H 0.15934 0.28889 0.58699 0.0
H724 H 0.10239 0.32403 0.64175 0.0
H725 H 0.07247 0.28195 0.58635 0.0
C726 C 0.08919 0.24563 0.64549 0.0
C727 C 0.11291 0.24108 0.56421 0.0
C728 C 0.14556 0.30703 0.65707 0.0
C729 C 0.12726 0.32909 0.5757 0.0
H730 H 0.0873 0.19718 0.57848 0.0
H731 H 0.07211 0.20139 0.62245 0.0
H732 H 0.09827 0.25329 0.69559 0.0
H733 H 0.13068 0.28526 0.70157 0.0
H734 H 0.16387 0.35491 0.64202 0.0
H735 H 0.15193 0.36837 0.59821 0.0
H736 H 0.12347 0.31759 0.52568 0.0
H737 H 0.1177 0.26811 0.51948 0.0
H738 H 0.06968 0.34518 0.65078 0.0
H739 H 0.03821 0.30254 0.59522 0.0
H740 H 0.19347 0.26627 0.58872 0.0
H741 H 0.16369 0.20915 0.63194 0.0
C742 C 0.73476 0.0998 0.61532 0.0
C743 C 0.71697 0.10244 0.60069 0.0
C744 C 0.71776 0.12653 0.59141 0.0
C745 C 0.73586 0.13738 0.6009 0.0
N746 N 0.74644 0.12136 0.61527 0.0
Co747 Co 0.7713 0.12965 0.63561 0.0
N748 N 0.7646 0.16594 0.63521 0.0
C749 C 0.75233 0.17766 0.61884 0.0
C750 C 0.7507 0.20311 0.62313 0.0
C751 C 0.76286 0.20748 0.64326 0.0
C752 C 0.77131 0.18438 0.65017 0.0
N753 N 0.7961 0.13716 0.65625 0.0
C754 C 0.80008 0.15778 0.66976 0.0
C755 C 0.81964 0.1555 0.68135 0.0
C756 C 0.82806 0.13265 0.67461 0.0
C757 C 0.81328 0.12226 0.65929 0.0
N758 N 0.77775 0.09338 0.63582 0.0
C759 C 0.79673 0.08268 0.64047 0.0
C760 C 0.79546 0.05674 0.64077 0.0
C761 C 0.77435 0.0511 0.63628 0.0
C762 C 0.76394 0.07396 0.63355 0.0
N763 N 0.7893 0.13491 0.60725 0.0
C764 C 0.81359 0.14739 0.5667 0.0
C765 C 0.8154 0.16118 0.58786 0.0
C766 C 0.8032 0.15484 0.60759 0.0
C767 C 0.79932 0.12686 0.5663 0.0
C768 C 0.78748 0.12074 0.58689 0.0
N769 N 0.75361 0.12569 0.66387 0.0
C770 C 0.75057 0.11631 0.70569 0.0
C771 C 0.7312 0.12947 0.70657 0.0
C772 C 0.72265 0.1391 0.68533 0.0
C773 C 0.73409 0.13709 0.66428 0.0
C774 C 0.76142 0.11437 0.68403 0.0
H775 H 0.72761 0.14607 0.64861 0.0
H776 H 0.77659 0.10479 0.68381 0.0
H777 H 0.80476 0.16678 0.623 0.0
H778 H 0.77661 0.10492 0.58626 0.0
C779 C 0.73978 0.1635 0.60269 0.0
C780 C 0.74098 0.07705 0.62899 0.0
C781 C 0.78682 0.18068 0.66978 0.0
C782 C 0.81314 0.09723 0.6508 0.0
H783 H 0.70439 0.08897 0.59745 0.0
H784 H 0.70556 0.13565 0.58073 0.0
H785 H 0.74116 0.21672 0.6134 0.0
H786 H 0.76529 0.22559 0.65178 0.0
H787 H 0.82718 0.16905 0.69314 0.0
H788 H 0.84285 0.12431 0.68078 0.0
H789 H 0.80794 0.04356 0.64559 0.0
H790 H 0.76728 0.03247 0.6358 0.0
H791 H 0.82575 0.17751 0.58903 0.0
H792 H 0.79737 0.11562 0.55029 0.0
H793 H 0.75756 0.10827 0.72169 0.0
H794 H 0.70784 0.1496 0.68518 0.0
C795 C 0.89261 0.76316 0.57518 0.0
C796 C 0.90662 0.78334 0.57635 0.0
C797 C 0.91744 0.78114 0.59779 0.0
C798 C 0.90945 0.75984 0.60857 0.0
N799 N 0.89446 0.74863 0.595 0.0
Co800 Co 0.87633 0.71984 0.60433 0.0
N801 N 0.88141 0.72596 0.63858 0.0
C802 C 0.89785 0.73908 0.6479 0.0
C803 C 0.89747 0.73951 0.67242 0.0
C804 C 0.87983 0.72563 0.6787 0.0
C805 C 0.87036 0.71749 0.65759 0.0
N806 N 0.85778 0.69121 0.61294 0.0
C807 C 0.84824 0.6861 0.63391 0.0
C808 C 0.83657 0.66387 0.63233 0.0
C809 C 0.83927 0.65475 0.60961 0.0
C810 C 0.85235 0.67185 0.59856 0.0
N811 N 0.87161 0.71367 0.57012 0.0
C812 C 0.86548 0.6919 0.5599 0.0
C813 C 0.86298 0.69419 0.53556 0.0
C814 C 0.8677 0.71897 0.53045 0.0
C815 C 0.87279 0.73032 0.55202 0.0
N816 N 0.9012 0.69714 0.60449 0.0
C817 C 0.93901 0.66959 0.61155 0.0
C818 C 0.92116 0.66526 0.62568 0.0
C819 C 0.90268 0.67929 0.62209 0.0
C820 C 0.93729 0.68729 0.59297 0.0
C821 C 0.91805 0.70053 0.58943 0.0
N822 N 0.85182 0.74258 0.60535 0.0
C823 C 0.81419 0.7505 0.60131 0.0
C824 C 0.81649 0.77345 0.61357 0.0
C825 C 0.8369 0.78103 0.62062 0.0
C826 C 0.8542 0.76534 0.61654 0.0
C827 C 0.83216 0.73544 0.59709 0.0
H828 H 0.86943 0.77129 0.62344 0.0
H829 H 0.8301 0.71771 0.58789 0.0
H830 H 0.89 0.67643 0.63458 0.0
H831 H 0.9171 0.71422 0.57519 0.0
C832 C 0.91089 0.75399 0.63308 0.0
C833 C 0.87804 0.75704 0.5552 0.0
C834 C 0.85194 0.70032 0.65608 0.0
C835 C 0.85705 0.67254 0.57408 0.0
H836 H 0.90859 0.79832 0.5635 0.0
H837 H 0.92857 0.79461 0.60535 0.0
H838 H 0.90825 0.74944 0.68431 0.0
H839 H 0.87462 0.7218 0.6967 0.0
H840 H 0.82738 0.65493 0.64623 0.0
H841 H 0.83205 0.63805 0.60191 0.0
H842 H 0.85688 0.68015 0.52326 0.0
H843 H 0.86685 0.72789 0.5131 0.0
H844 H 0.92184 0.65207 0.64044 0.0
H845 H 0.95077 0.69113 0.58157 0.0
H846 H 0.79862 0.74406 0.59545 0.0
H847 H 0.8394 0.79839 0.63045 0.0
C848 C 0.40178 0.28319 0.09321 0.0
C849 C 0.41507 0.30355 0.09747 0.0
C850 C 0.42257 0.30082 0.12056 0.0
C851 C 0.41345 0.27895 0.12903 0.0
N852 N 0.40094 0.26791 0.11251 0.0
Co853 Co 0.38223 0.23841 0.11715 0.0
N854 N 0.38193 0.24324 0.15204 0.0
C855 C 0.39647 0.25641 0.16474 0.0
C856 C 0.39265 0.25555 0.18883 0.0
C857 C 0.37481 0.24073 0.19129 0.0
C858 C 0.36867 0.23333 0.16848 0.0
N859 N 0.3631 0.2091 0.12106 0.0
C860 C 0.35078 0.20269 0.13977 0.0
C861 C 0.33974 0.18048 0.13503 0.0
C862 C 0.34582 0.17262 0.11276 0.0
C863 C 0.3601 0.19041 0.10509 0.0
N864 N 0.38295 0.2336 0.08232 0.0
C865 C 0.3787 0.21221 0.07035 0.0
C866 C 0.37954 0.21553 0.04604 0.0
C867 C 0.38439 0.24058 0.04273 0.0
C868 C 0.38631 0.25112 0.06531 0.0
N869 N 0.40719 0.21625 0.12142 0.0
C870 C 0.44444 0.19236 0.13794 0.0
C871 C 0.42447 0.1857 0.14679 0.0
C872 C 0.40625 0.19787 0.13853 0.0
C873 C 0.44519 0.20943 0.11876 0.0
C874 C 0.42627 0.22102 0.11058 0.0
N875 N 0.35749 0.2606 0.11411 0.0
C876 C 0.32107 0.26829 0.10239 0.0
C877 C 0.32102 0.29077 0.1156 0.0
C878 C 0.33975 0.29825 0.12716 0.0
C879 C 0.35763 0.28288 0.1264 0.0
C880 C 0.33966 0.25361 0.10157 0.0
H881 H 0.37137 0.28872 0.13657 0.0
H882 H 0.33942 0.23623 0.09153 0.0
H883 H 0.39166 0.19349 0.14749 0.0
H884 H 0.42725 0.23495 0.09656 0.0
C885 C 0.41128 0.2722 0.15319 0.0
C886 C 0.39077 0.2777 0.0706 0.0
C887 C 0.35151 0.21515 0.16321 0.0
C888 C 0.36847 0.19223 0.08199 0.0
H889 H 0.41862 0.31884 0.08535 0.0
H890 H 0.43218 0.31421 0.13048 0.0
H891 H 0.4014 0.2651 0.20289 0.0
H892 H 0.36735 0.23566 0.20797 0.0
H893 H 0.32886 0.17062 0.14667 0.0
H894 H 0.34009 0.15623 0.10314 0.0
H895 H 0.37539 0.20196 0.03234 0.0
H896 H 0.38569 0.24996 0.02569 0.0
H897 H 0.42297 0.17209 0.1611 0.0
H898 H 0.4603 0.21492 0.11113 0.0
H899 H 0.3068 0.26191 0.09322 0.0
H900 H 0.34029 0.31527 0.13788 0.0
C901 C 0.38826 0.72434 0.89125 0.0
C902 C 0.40135 0.70326 0.89204 0.0
C903 C 0.41249 0.70293 0.87085 0.0
C904 C 0.40556 0.72366 0.8582 0.0
N905 N 0.39087 0.73673 0.87034 0.0
Co906 Co 0.37478 0.76594 0.85824 0.0
N907 N 0.3793 0.75609 0.82487 0.0
C908 C 0.39601 0.7426 0.81718 0.0
C909 C 0.39713 0.74238 0.79273 0.0
C910 C 0.37997 0.7565 0.7849 0.0
C911 C 0.36863 0.7637 0.80503 0.0
N912 N 0.35886 0.79544 0.84676 0.0
C913 C 0.35048 0.79968 0.82494 0.0
C914 C 0.34425 0.82475 0.8228 0.0
C915 C 0.34801 0.83594 0.84462 0.0
C916 C 0.35691 0.81737 0.8586 0.0
N917 N 0.37019 0.77561 0.89155 0.0
C918 C 0.36602 0.79892 0.89964 0.0
C919 C 0.36276 0.79914 0.92391 0.0
C920 C 0.36498 0.77441 0.93119 0.0
C921 C 0.36945 0.76049 0.91089 0.0
N922 N 0.40127 0.78621 0.85701 0.0
C923 C 0.43993 0.81279 0.85116 0.0
C924 C 0.42342 0.81464 0.83438 0.0
C925 C 0.40454 0.80126 0.8375 0.0
C926 C 0.43651 0.79751 0.87134 0.0
C927 C 0.41697 0.7846 0.87407 0.0
N928 N 0.34869 0.74577 0.8583 0.0
C929 C 0.31052 0.7423 0.8612 0.0
C930 C 0.31131 0.71779 0.8518 0.0
C931 C 0.33115 0.70736 0.84653 0.0
C932 C 0.34952 0.72169 0.84961 0.0
C933 C 0.32951 0.75587 0.8647 0.0
H934 H 0.36438 0.71352 0.84399 0.0
H935 H 0.32867 0.77479 0.87178 0.0
H936 H 0.3928 0.80267 0.8235 0.0
H937 H 0.4147 0.77291 0.88964 0.0
C938 C 0.40816 0.72802 0.83348 0.0
C939 C 0.37387 0.73325 0.91029 0.0
C940 C 0.3497 0.7805 0.80585 0.0
C941 C 0.36084 0.81836 0.88341 0.0
H942 H 0.40254 0.68933 0.90604 0.0
H943 H 0.42323 0.68833 0.86481 0.0
H944 H 0.40898 0.73316 0.78184 0.0
H945 H 0.37722 0.76196 0.76658 0.0
H946 H 0.33766 0.83395 0.80717 0.0
H947 H 0.34427 0.85511 0.84976 0.0
H948 H 0.35812 0.81504 0.93482 0.0
H949 H 0.36335 0.76737 0.94921 0.0
H950 H 0.42532 0.82566 0.81826 0.0
H951 H 0.44881 0.79548 0.88486 0.0
H952 H 0.29539 0.75096 0.86549 0.0
H953 H 0.33239 0.68863 0.83892 0.0
C954 C 0.23045 0.40326 0.89125 0.0
C955 C 0.21371 0.39746 0.90627 0.0
C956 C 0.21752 0.3734 0.91471 0.0
C957 C 0.23631 0.36581 0.90439 0.0
N958 N 0.2444 0.38381 0.89024 0.0
Co959 Co 0.2694 0.38054 0.86932 0.0
N960 N 0.26733 0.34352 0.86913 0.0
C961 C 0.25726 0.32934 0.88546 0.0
C962 C 0.25859 0.30402 0.88036 0.0
C963 C 0.27029 0.30243 0.85971 0.0
C964 C 0.2755 0.32696 0.85333 0.0
N965 N 0.29417 0.37795 0.84807 0.0
C966 C 0.29981 0.35871 0.83368 0.0
C967 C 0.31843 0.36448 0.82158 0.0
C968 C 0.32449 0.38822 0.8289 0.0
C969 C 0.30933 0.3956 0.84503 0.0
N970 N 0.27153 0.41747 0.8699 0.0
C971 C 0.28892 0.43137 0.86527 0.0
C972 C 0.28475 0.45685 0.86641 0.0
C973 C 0.26344 0.45877 0.87193 0.0
C974 C 0.25589 0.43431 0.87384 0.0
N975 N 0.28851 0.37795 0.89731 0.0
C976 C 0.31244 0.36575 0.93852 0.0
C977 C 0.31729 0.35531 0.91627 0.0
C978 C 0.30507 0.36121 0.89627 0.0
C979 C 0.2962 0.38409 0.93929 0.0
C980 C 0.28456 0.39011 0.91839 0.0
N981 N 0.2505 0.38173 0.84141 0.0
C982 C 0.24524 0.38981 0.79947 0.0
C983 C 0.22831 0.37251 0.79887 0.0
C984 C 0.22159 0.36182 0.82031 0.0
C985 C 0.2328 0.36669 0.84127 0.0
C986 C 0.25614 0.39422 0.82104 0.0
H987 H 0.22788 0.35687 0.85709 0.0
H988 H 0.26979 0.40663 0.82103 0.0
H989 H 0.30857 0.35108 0.88015 0.0
H990 H 0.2718 0.40374 0.9195 0.0
C991 C 0.24345 0.3407 0.90208 0.0
C992 C 0.23374 0.42726 0.87853 0.0
C993 C 0.28896 0.33416 0.83302 0.0
C994 C 0.30657 0.42011 0.8542 0.0
H995 H 0.20004 0.40899 0.91042 0.0
H996 H 0.20697 0.36216 0.9256 0.0
H997 H 0.2511 0.28862 0.8898 0.0
H998 H 0.27439 0.28524 0.8504 0.0
H999 H 0.32685 0.35271 0.809 0.0
H1000 H 0.33788 0.3991 0.8225 0.0
H1001 H 0.29542 0.47216 0.86199 0.0
H1002 H 0.25433 0.47601 0.87359 0.0
H1003 H 0.33015 0.34187 0.91427 0.0
H1004 H 0.29192 0.39296 0.95597 0.0
H1005 H 0.25073 0.39872 0.78325 0.0
H1006 H 0.20825 0.34885 0.82073 0.0
C1007 C 0.6063 0.2786 0.91288 0.0
C1008 C 0.59312 0.2988 0.90761 0.0
C1009 C 0.5857 0.29491 0.88464 0.0
C1010 C 0.59476 0.27257 0.87726 0.0
N1011 N 0.60716 0.26235 0.89432 0.0
Co1012 Co 0.62562 0.23242 0.89122 0.0
N1013 N 0.62605 0.23536 0.85615 0.0
C1014 C 0.61162 0.24791 0.84276 0.0
C1015 C 0.61553 0.24576 0.81876 0.0
C1016 C 0.63333 0.23074 0.8171 0.0
C1017 C 0.63936 0.22455 0.84028 0.0
N1018 N 0.64447 0.20268 0.88875 0.0
C1019 C 0.65678 0.19515 0.8704 0.0
C1020 C 0.66765 0.17312 0.87623 0.0
C1021 C 0.66145 0.16653 0.89882 0.0
C1022 C 0.64729 0.18486 0.90561 0.0
N1023 N 0.62477 0.22953 0.92624 0.0
C1024 C 0.62889 0.2088 0.93925 0.0
C1025 C 0.6281 0.21349 0.96336 0.0
C1026 C 0.62341 0.23874 0.96543 0.0
C1027 C 0.62153 0.24801 0.94237 0.0
N1028 N 0.60047 0.21043 0.88795 0.0
C1029 C 0.56282 0.18695 0.87216 0.0
C1030 C 0.58268 0.17932 0.86366 0.0
C1031 C 0.60112 0.19129 0.87158 0.0
C1032 C 0.56237 0.20471 0.89078 0.0
C1033 C 0.58148 0.21609 0.89861 0.0
N1034 N 0.65054 0.25442 0.89333 0.0
C1035 C 0.68655 0.26306 0.90603 0.0
C1036 C 0.6868 0.28496 0.892 0.0
C1037 C 0.66845 0.29151 0.87921 0.0
C1038 C 0.65067 0.27598 0.87994 0.0
C1039 C 0.66808 0.24817 0.90671 0.0
H1040 H 0.63716 0.2812 0.86911 0.0
H1041 H 0.66811 0.23132 0.91751 0.0
H1042 H 0.61568 0.18617 0.86287 0.0
H1043 H 0.58074 0.23062 0.9121 0.0
C1044 C 0.59689 0.26446 0.85346 0.0
C1045 C 0.61721 0.27429 0.93577 0.0
C1046 C 0.65642 0.2066 0.84651 0.0
C1047 C 0.63895 0.18808 0.9286 0.0
H1048 H 0.58958 0.31472 0.91899 0.0
H1049 H 0.57615 0.30779 0.87407 0.0
H1050 H 0.60689 0.2546 0.80422 0.0
H1051 H 0.64083 0.22476 0.80072 0.0
H1052 H 0.67856 0.16261 0.86516 0.0
H1053 H 0.66707 0.15065 0.90925 0.0
H1054 H 0.63216 0.20066 0.97771 0.0
H1055 H 0.6222 0.24909 0.98198 0.0
H1056 H 0.5839 0.16516 0.84979 0.0
H1057 H 0.54735 0.21095 0.89812 0.0
H1058 H 0.70055 0.25738 0.9161 0.0
H1059 H 0.66812 0.30803 0.86783 0.0
C1060 C 0.77457 0.60331 0.8924 0.0
C1061 C 0.7925 0.60542 0.9068 0.0
C1062 C 0.79184 0.62927 0.91672 0.0
C1063 C 0.77354 0.64034 0.90786 0.0
N1064 N 0.76278 0.62468 0.89328 0.0
Co1065 Co 0.73748 0.63309 0.87383 0.0
N1066 N 0.74369 0.66947 0.87528 0.0
C1067 C 0.75604 0.68089 0.89178 0.0
C1068 C 0.75722 0.70652 0.8882 0.0
C1069 C 0.74472 0.71126 0.86837 0.0
C1070 C 0.73657 0.6882 0.86092 0.0
N1071 N 0.71231 0.6408 0.85388 0.0
C1072 C 0.70806 0.66167 0.84088 0.0
C1073 C 0.6884 0.65948 0.82949 0.0
C1074 C 0.6802 0.63639 0.83583 0.0
C1075 C 0.69521 0.6258 0.85073 0.0
N1076 N 0.73139 0.59667 0.87267 0.0
C1077 C 0.71241 0.58592 0.86802 0.0
C1078 C 0.71384 0.56005 0.8668 0.0
C1079 C 0.73502 0.55447 0.8707 0.0
C1080 C 0.74536 0.57731 0.8742 0.0
N1081 N 0.72001 0.6371 0.90286 0.0
C1082 C 0.69908 0.65057 0.94558 0.0
C1083 C 0.69489 0.66312 0.92408 0.0
C1084 C 0.70557 0.65645 0.90334 0.0
C1085 C 0.71309 0.62978 0.94479 0.0
C1086 C 0.72328 0.62325 0.92321 0.0
N1087 N 0.75482 0.63048 0.8451 0.0
C1088 C 0.75815 0.62152 0.80318 0.0
C1089 C 0.77739 0.63504 0.80243 0.0
C1090 C 0.78554 0.64497 0.82374 0.0
C1091 C 0.77409 0.64251 0.84473 0.0
C1092 C 0.74719 0.61926 0.8248 0.0
H1093 H 0.78045 0.65146 0.86048 0.0
H1094 H 0.73216 0.60935 0.82492 0.0
H1095 H 0.70265 0.66798 0.88788 0.0
H1096 H 0.7344 0.60769 0.92318 0.0
C1097 C 0.76921 0.66645 0.90712 0.0
C1098 C 0.76832 0.58075 0.87869 0.0
C1099 C 0.72126 0.6846 0.84113 0.0
C1100 C 0.69572 0.60055 0.85847 0.0
H1101 H 0.80486 0.59144 0.90942 0.0
H1102 H 0.8041 0.63807 0.92756 0.0
H1103 H 0.76674 0.72001 0.8981 0.0
H1104 H 0.74197 0.72954 0.86034 0.0
H1105 H 0.68068 0.67322 0.81806 0.0
H1106 H 0.66543 0.62802 0.82961 0.0
H1107 H 0.70138 0.54694 0.86171 0.0
H1108 H 0.74196 0.53583 0.87028 0.0
H1109 H 0.6837 0.67865 0.92321 0.0
H1110 H 0.71679 0.61922 0.96082 0.0
H1111 H 0.7514 0.61324 0.78715 0.0
H1112 H 0.80017 0.65582 0.82407 0.0
C1113 C 0.61401 0.72347 0.10658 0.0
C1114 C 0.59984 0.70363 0.10387 0.0
C1115 C 0.58906 0.70163 0.12518 0.0
C1116 C 0.5972 0.72037 0.13967 0.0
N1117 N 0.6122 0.73394 0.12851 0.0
Co1118 Co 0.63015 0.76053 0.14282 0.0
N1119 N 0.62528 0.7479 0.17538 0.0
C1120 C 0.60903 0.73302 0.18211 0.0
C1121 C 0.61001 0.72732 0.20604 0.0
C1122 C 0.62786 0.73954 0.21467 0.0
C1123 C 0.63683 0.75212 0.19548 0.0
N1124 N 0.64835 0.78723 0.15653 0.0
C1125 C 0.65816 0.78807 0.17802 0.0
C1126 C 0.66924 0.81062 0.18073 0.0
C1127 C 0.66607 0.82416 0.16009 0.0
C1128 C 0.65323 0.80927 0.14599 0.0
N1129 N 0.63493 0.77297 0.1102 0.0
C1130 C 0.64104 0.79636 0.10406 0.0
C1131 C 0.64439 0.79854 0.07993 0.0
C1132 C 0.64025 0.77502 0.07057 0.0
C1133 C 0.63447 0.75976 0.08957 0.0
N1134 N 0.60505 0.78275 0.1465 0.0
C1135 C 0.56719 0.80901 0.15754 0.0
C1136 C 0.58477 0.80922 0.17303 0.0
C1137 C 0.60325 0.79607 0.16732 0.0
C1138 C 0.5695 0.79656 0.13548 0.0
C1139 C 0.5886 0.78355 0.13029 0.0
N1140 N 0.65494 0.73826 0.14051 0.0
C1141 C 0.69301 0.73288 0.13894 0.0
C1142 C 0.69106 0.7082 0.1477 0.0
C1143 C 0.67065 0.69841 0.15116 0.0
C1144 C 0.6529 0.71371 0.14764 0.0
C1145 C 0.67467 0.74748 0.13504 0.0
H1146 H 0.63759 0.706 0.15215 0.0
H1147 H 0.6765 0.76664 0.12885 0.0
H1148 H 0.61576 0.79589 0.18054 0.0
H1149 H 0.5898 0.77339 0.11363 0.0
C1150 C 0.5959 0.72126 0.16479 0.0
C1151 C 0.62853 0.73293 0.08809 0.0
C1152 C 0.65546 0.76904 0.19683 0.0
C1153 C 0.6488 0.81301 0.12161 0.0
H1154 H 0.59786 0.69166 0.08837 0.0
H1155 H 0.57786 0.68701 0.13006 0.0
H1156 H 0.59958 0.71488 0.21586 0.0
H1157 H 0.6336 0.73921 0.23292 0.0
H1158 H 0.67844 0.81677 0.19607 0.0
H1159 H 0.67298 0.84224 0.15562 0.0
H1160 H 0.65069 0.81468 0.07049 0.0
H1161 H 0.64188 0.76977 0.05205 0.0
H1162 H 0.58411 0.819 0.18998 0.0
H1163 H 0.55639 0.79596 0.12282 0.0
H1164 H 0.70857 0.74103 0.13576 0.0
H1165 H 0.66839 0.67952 0.15808 0.0
C1166 C 0.22741 0.60709 0.10821 0.0
C1167 C 0.20902 0.60921 0.09448 0.0
C1168 C 0.20952 0.63283 0.08414 0.0
C1169 C 0.22807 0.64395 0.09214 0.0
N1170 N 0.23916 0.62851 0.10661 0.0
Co1171 Co 0.26492 0.63747 0.12516 0.0
N1172 N 0.25847 0.67377 0.12349 0.0
C1173 C 0.24569 0.68489 0.10725 0.0
C1174 C 0.24439 0.71053 0.11069 0.0
C1175 C 0.25727 0.7156 0.13014 0.0
C1176 C 0.26573 0.6927 0.13754 0.0
N1177 N 0.29064 0.64571 0.14397 0.0
C1178 C 0.29513 0.66679 0.15655 0.0
C1179 C 0.31514 0.66496 0.1672 0.0
C1180 C 0.3233 0.64186 0.1608 0.0
C1181 C 0.30791 0.63089 0.14663 0.0
N1182 N 0.27121 0.60122 0.12668 0.0
C1183 C 0.29034 0.5906 0.13063 0.0
C1184 C 0.28904 0.5647 0.13186 0.0
C1185 C 0.26776 0.55901 0.12868 0.0
C1186 C 0.2573 0.58182 0.12574 0.0
N1187 N 0.28161 0.64096 0.09558 0.0
C1188 C 0.30378 0.6507 0.05282 0.0
C1189 C 0.30642 0.66605 0.07295 0.0
C1190 C 0.29536 0.66093 0.09385 0.0
C1191 C 0.2898 0.62998 0.05472 0.0
C1192 C 0.27898 0.62533 0.07632 0.0
N1193 N 0.2484 0.63526 0.15451 0.0
C1194 C 0.24634 0.62726 0.19671 0.0
C1195 C 0.22694 0.64039 0.19783 0.0
C1196 C 0.21809 0.64967 0.1766 0.0
C1197 C 0.229 0.64693 0.15529 0.0
C1198 C 0.25674 0.6247 0.17478 0.0
H1199 H 0.22213 0.65542 0.13959 0.0
H1200 H 0.27188 0.61505 0.17434 0.0
H1201 H 0.29761 0.67382 0.10848 0.0
H1202 H 0.26825 0.60943 0.07735 0.0
C1203 C 0.2323 0.67011 0.09247 0.0
C1204 C 0.2342 0.58489 0.12237 0.0
C1205 C 0.28157 0.6894 0.15685 0.0
C1206 C 0.3073 0.60547 0.13929 0.0
H1207 H 0.19628 0.59568 0.09248 0.0
H1208 H 0.19694 0.64155 0.07371 0.0
H1209 H 0.23454 0.72383 0.10095 0.0
H1210 H 0.2601 0.73399 0.13795 0.0
H1211 H 0.32306 0.6789 0.17824 0.0
H1212 H 0.33829 0.63371 0.16658 0.0
H1213 H 0.30169 0.55163 0.13637 0.0
H1214 H 0.26064 0.54042 0.12918 0.0
H1215 H 0.31653 0.68259 0.07246 0.0
H1216 H 0.28726 0.61746 0.03971 0.0
H1217 H 0.25361 0.61947 0.21267 0.0
H1218 H 0.20331 0.66023 0.17654 0.0
C1219 C 0.7741 0.39969 0.11717 0.0
C1220 C 0.79155 0.39415 0.10305 0.0
C1221 C 0.78761 0.37083 0.09287 0.0
C1222 C 0.76807 0.36334 0.10136 0.0
N1223 N 0.75976 0.38064 0.1161 0.0
Co1224 Co 0.73337 0.37701 0.13448 0.0
N1225 N 0.73475 0.34009 0.13288 0.0
C1226 C 0.74409 0.32695 0.11534 0.0
C1227 C 0.73932 0.30169 0.1166 0.0
C1228 C 0.7263 0.29916 0.1362 0.0
C1229 C 0.72454 0.32294 0.14648 0.0
N1230 N 0.70702 0.37392 0.15292 0.0
C1231 C 0.69937 0.3536 0.16453 0.0
C1232 C 0.67815 0.35752 0.1705 0.0
C1233 C 0.67313 0.38181 0.16374 0.0
C1234 C 0.69121 0.39103 0.15315 0.0
N1235 N 0.73191 0.41385 0.13575 0.0
C1236 C 0.71429 0.42779 0.13884 0.0
C1237 C 0.71885 0.45321 0.13952 0.0
C1238 C 0.74064 0.45495 0.13669 0.0
C1239 C 0.7481 0.43047 0.13445 0.0
N1240 N 0.71634 0.37675 0.10475 0.0
C1241 C 0.6936 0.37124 0.06167 0.0
C1242 C 0.68802 0.35746 0.08187 0.0
C1243 C 0.69964 0.3602 0.10292 0.0
C1244 C 0.71062 0.38837 0.06347 0.0
C1245 C 0.72157 0.39118 0.08537 0.0
N1246 N 0.7502 0.37625 0.16389 0.0
C1247 C 0.75536 0.38661 0.20537 0.0
C1248 C 0.77353 0.37118 0.20633 0.0
C1249 C 0.77981 0.35867 0.18558 0.0
C1250 C 0.76794 0.36133 0.16472 0.0
C1251 C 0.74398 0.38906 0.18384 0.0
H1252 H 0.7729 0.35078 0.1493 0.0
H1253 H 0.73001 0.40096 0.18334 0.0
H1254 H 0.69537 0.34813 0.11753 0.0
H1255 H 0.7346 0.40448 0.0865 0.0
C1256 C 0.75944 0.33868 0.10066 0.0
C1257 C 0.77041 0.42317 0.13072 0.0
C1258 C 0.71149 0.32988 0.16741 0.0
C1259 C 0.69513 0.41611 0.14593 0.0
H1260 H 0.8057 0.4054 0.10047 0.0
H1261 H 0.79835 0.36004 0.08182 0.0
H1262 H 0.74482 0.28682 0.10493 0.0
H1263 H 0.71865 0.28189 0.14179 0.0
H1264 H 0.66729 0.34416 0.17849 0.0
H1265 H 0.65819 0.39155 0.16642 0.0
H1266 H 0.70791 0.46853 0.14299 0.0
H1267 H 0.75001 0.4721 0.13657 0.0
H1268 H 0.6752 0.34376 0.08113 0.0
H1269 H 0.71543 0.39935 0.04814 0.0
H1270 H 0.75003 0.39666 0.22105 0.0
H1271 H 0.79348 0.3462 0.18561 0.0
H1272 H 0.201 0.55548 0.10427 0.0
H1273 H 0.23464 0.57341 0.16951 0.0
H1274 H 0.17856 0.52555 0.12609 0.0
H1275 H 0.21315 0.54245 0.1909 0.0
H1276 H 0.19059 0.46158 0.21021 0.0
H1277 H 0.21002 0.49252 0.18642 0.0
H1278 H 0.15057 0.5262 0.16419 0.0
H1279 H 0.1311 0.49608 0.18918 0.0
C1280 C 0.20321 0.5537 0.12334 0.0
C1281 C 0.21923 0.56755 0.13524 0.0
C1282 C 0.19055 0.5362 0.13578 0.0
C1283 C 0.19407 0.53161 0.16023 0.0
C1284 C 0.21008 0.54546 0.17207 0.0
C1285 C 0.22236 0.56324 0.1598 0.0
C1286 C 0.18161 0.47543 0.20006 0.0
C1287 C 0.15921 0.47587 0.2012 0.0
C1288 C 0.19276 0.4932 0.1865 0.0
C1289 C 0.18185 0.5118 0.17336 0.0
C1290 C 0.15941 0.51189 0.17386 0.0
C1291 C 0.14822 0.49435 0.18791 0.0
H1292 H 0.54939 0.17909 0.2376 0.0
H1293 H 0.55768 0.11248 0.19446 0.0
H1294 H 0.5181 0.19072 0.21417 0.0
H1295 H 0.5259 0.12411 0.17074 0.0
H1296 H 0.48225 0.17423 0.11925 0.0
H1297 H 0.51377 0.15928 0.14161 0.0
H1298 H 0.48172 0.17517 0.20781 0.0
H1299 H 0.4509 0.19044 0.18584 0.0
C1300 C 0.54432 0.16678 0.22319 0.0
C1301 C 0.5559 0.14484 0.21791 0.0
C1302 C 0.52637 0.17342 0.20977 0.0
C1303 C 0.51949 0.15837 0.19055 0.0
C1304 C 0.53092 0.13619 0.18532 0.0
C1305 C 0.5489 0.12937 0.19903 0.0
C1306 C 0.48206 0.17456 0.13856 0.0
C1307 C 0.46399 0.18337 0.15072 0.0
C1308 C 0.49998 0.16576 0.15136 0.0
C1309 C 0.50024 0.16601 0.17651 0.0
C1310 C 0.48215 0.17485 0.18849 0.0
C1311 C 0.46437 0.18343 0.17583 0.0
H1312 H 0.77371 0.43357 0.17778 0.0
H1313 H 0.80513 0.44746 0.11089 0.0
H1314 H 0.7992 0.4611 0.19814 0.0
H1315 H 0.83125 0.47443 0.13147 0.0
H1316 H 0.88468 0.4998 0.18858 0.0
H1317 H 0.86102 0.47224 0.16501 0.0
H1318 H 0.80628 0.50846 0.1962 0.0
H1319 H 0.82985 0.5363 0.21908 0.0
C1320 C 0.78633 0.44217 0.1675 0.0
C1321 C 0.78767 0.43788 0.14282 0.0
C1322 C 0.80086 0.45804 0.17913 0.0
C1323 C 0.81722 0.47001 0.16641 0.0
C1324 C 0.81896 0.46525 0.14179 0.0
C1325 C 0.80416 0.44955 0.13005 0.0
C1326 C 0.8676 0.50231 0.1898 0.0
C1327 C 0.85907 0.52043 0.20535 0.0
C1328 C 0.85406 0.48643 0.17647 0.0
C1329 C 0.83178 0.48805 0.17887 0.0
C1330 C 0.82336 0.50654 0.19414 0.0
C1331 C 0.83683 0.52256 0.20713 0.0
H1332 H 0.53852 0.8391 0.13242 0.0
H1333 H 0.54901 0.80479 0.20133 0.0
H1334 H 0.50564 0.85869 0.14744 0.0
H1335 H 0.51698 0.82462 0.21631 0.0
H1336 H 0.44642 0.83704 0.22755 0.0
H1337 H 0.47916 0.82012 0.21127 0.0
H1338 H 0.49169 0.89134 0.17676 0.0
H1339 H 0.45818 0.90832 0.19298 0.0
C1340 C 0.53383 0.83568 0.15069 0.0
C1341 C 0.54656 0.82041 0.16564 0.0
C1342 C 0.51513 0.84715 0.1594 0.0
C1343 C 0.50856 0.84332 0.18315 0.0
C1344 C 0.52129 0.82791 0.1979 0.0
C1345 C 0.53987 0.81665 0.1893 0.0
C1346 C 0.45613 0.84921 0.21654 0.0
C1347 C 0.44958 0.87406 0.21155 0.0
C1348 C 0.47505 0.83951 0.20726 0.0
C1349 C 0.48822 0.85428 0.19264 0.0
C1350 C 0.48187 0.87932 0.18777 0.0
C1351 C 0.46282 0.88917 0.19728 0.0
H1352 H 0.23045 0.43788 0.83154 0.0
H1353 H 0.19844 0.45056 0.89831 0.0
H1354 H 0.20497 0.46529 0.81128 0.0
H1355 H 0.17232 0.47761 0.87775 0.0
H1356 H 0.11969 0.50285 0.81848 0.0
H1357 H 0.14285 0.47576 0.84319 0.0
H1358 H 0.19822 0.51274 0.81422 0.0
H1359 H 0.17516 0.53994 0.79011 0.0
C1360 C 0.21771 0.44617 0.84182 0.0
C1361 C 0.21628 0.44165 0.86646 0.0
C1362 C 0.20318 0.46201 0.83024 0.0
C1363 C 0.18671 0.47375 0.84294 0.0
C1364 C 0.18476 0.46864 0.86747 0.0
C1365 C 0.19956 0.45292 0.87919 0.0
C1366 C 0.13679 0.50564 0.81804 0.0
C1367 C 0.14567 0.52367 0.80265 0.0
C1368 C 0.15003 0.49006 0.83203 0.0
C1369 C 0.17235 0.49196 0.83046 0.0
C1370 C 0.1811 0.51061 0.81562 0.0
C1371 C 0.16793 0.52628 0.80194 0.0
H1372 H 0.52455 0.17049 0.891 0.0
H1373 H 0.55653 0.18431 0.82431 0.0
H1374 H 0.49263 0.15657 0.86874 0.0
H1375 H 0.52523 0.17017 0.80243 0.0
H1376 H 0.45758 0.17742 0.77295 0.0
H1377 H 0.4891 0.1879 0.79649 0.0
H1378 H 0.47979 0.12122 0.8394 0.0
H1379 H 0.44778 0.11072 0.81556 0.0
C1380 C 0.52479 0.17049 0.87168 0.0
C1381 C 0.54314 0.17835 0.85946 0.0
C1382 C 0.50664 0.1623 0.85896 0.0
C1383 C 0.50643 0.16226 0.83381 0.0
C1384 C 0.5248 0.1701 0.82175 0.0
C1385 C 0.54283 0.17803 0.83435 0.0
C1386 C 0.46232 0.16488 0.78731 0.0
C1387 C 0.45027 0.14323 0.79239 0.0
C1388 C 0.48041 0.17085 0.80077 0.0
C1389 C 0.48695 0.15542 0.81984 0.0
C1390 C 0.47502 0.13358 0.82492 0.0
C1391 C 0.45691 0.12741 0.81116 0.0
H1392 H 0.79702 0.58968 0.84343 0.0
H1393 H 0.77576 0.53143 0.89123 0.0
H1394 H 0.8202 0.55927 0.8233 0.0
H1395 H 0.79876 0.50085 0.87117 0.0
H1396 H 0.81873 0.44878 0.80846 0.0
H1397 H 0.7993 0.47935 0.8327 0.0
H1398 H 0.85168 0.53178 0.82643 0.0
H1399 H 0.87101 0.50091 0.80199 0.0
C1400 C 0.79757 0.57042 0.84984 0.0
C1401 C 0.78436 0.56283 0.86866 0.0
C1402 C 0.81087 0.55294 0.83833 0.0
C1403 C 0.81125 0.5274 0.84535 0.0
C1404 C 0.79862 0.52017 0.8649 0.0
C1405 C 0.78545 0.53769 0.87645 0.0
C1406 C 0.82619 0.4667 0.81263 0.0
C1407 C 0.84645 0.47238 0.80365 0.0
C1408 C 0.8151 0.48425 0.82658 0.0
C1409 C 0.82386 0.50816 0.83167 0.0
C1410 C 0.84433 0.51369 0.8228 0.0
C1411 C 0.85552 0.49596 0.809 0.0
H1412 H 0.54854 0.91121 0.81047 0.0
H1413 H 0.56073 0.83592 0.78459 0.0
H1414 H 0.51551 0.89611 0.82904 0.0
H1415 H 0.52833 0.82099 0.80315 0.0
H1416 H 0.48052 0.79397 0.85651 0.0
H1417 H 0.51383 0.81258 0.84252 0.0
H1418 H 0.4797 0.87912 0.81967 0.0
H1419 H 0.44653 0.86075 0.83415 0.0
C1420 C 0.54417 0.89155 0.80859 0.0
C1421 C 0.55761 0.87477 0.79635 0.0
C1422 C 0.52527 0.88283 0.81932 0.0
C1423 C 0.51941 0.85714 0.8181 0.0
C1424 C 0.53256 0.84068 0.8052 0.0
C1425 C 0.55122 0.84934 0.79445 0.0
C1426 C 0.48019 0.8128 0.84902 0.0
C1427 C 0.46075 0.8257 0.84631 0.0
C1428 C 0.49927 0.82339 0.84069 0.0
C1429 C 0.4995 0.84726 0.82955 0.0
C1430 C 0.48024 0.86076 0.82812 0.0
C1431 C 0.46115 0.85011 0.83631 0.0
H1432 H 0.09464 0.2027 0.53772 0.0
H1433 H 0.15511 0.23702 0.55475 0.0
H1434 H 0.11233 0.1738 0.5102 0.0
H1435 H 0.17281 0.20908 0.52658 0.0
H1436 H 0.20313 0.14759 0.48294 0.0
H1437 H 0.18458 0.16782 0.51615 0.0
H1438 H 0.12804 0.17489 0.47217 0.0
H1439 H 0.14625 0.15393 0.43963 0.0
C1440 C 0.11179 0.20367 0.53601 0.0
C1441 C 0.12353 0.22178 0.54884 0.0
C1442 C 0.12196 0.18738 0.51989 0.0
C1443 C 0.14413 0.18893 0.51597 0.0
C1444 C 0.15584 0.20683 0.52926 0.0
C1445 C 0.14567 0.22303 0.54536 0.0
C1446 C 0.18656 0.15286 0.48062 0.0
C1447 C 0.17629 0.14927 0.45848 0.0
C1448 C 0.17597 0.16482 0.49958 0.0
C1449 C 0.15477 0.17343 0.49694 0.0
C1450 C 0.14422 0.1685 0.47517 0.0
C1451 C 0.15478 0.1566 0.45632 0.0
H1452 H 0.80004 0.15348 0.52011 0.0
H1453 H 0.8556 0.16089 0.56538 0.0
H1454 H 0.81932 0.17392 0.4875 0.0
H1455 H 0.87454 0.18194 0.53341 0.0
H1456 H 0.90954 0.20935 0.46877 0.0
H1457 H 0.89124 0.18043 0.49575 0.0
H1458 H 0.83112 0.2156 0.47768 0.0
H1459 H 0.84946 0.24366 0.45011 0.0
C1460 C 0.81648 0.15903 0.52298 0.0
C1461 C 0.82617 0.15568 0.54546 0.0
C1462 C 0.82749 0.17109 0.50438 0.0
C1463 C 0.84852 0.17997 0.50774 0.0
C1464 C 0.85851 0.1753 0.52987 0.0
C1465 C 0.84753 0.16335 0.54838 0.0
C1466 C 0.89236 0.21032 0.47002 0.0
C1467 C 0.8809 0.22844 0.4569 0.0
C1468 C 0.88183 0.194 0.48581 0.0
C1469 C 0.85957 0.19551 0.48906 0.0
C1470 C 0.84815 0.21341 0.47549 0.0
C1471 C 0.85868 0.22967 0.45974 0.0
H1472 H 0.79379 0.8089 0.44542 0.0
H1473 H 0.81825 0.88007 0.47098 0.0
H1474 H 0.81649 0.78661 0.47411 0.0
H1475 H 0.84184 0.85759 0.49901 0.0
H1476 H 0.89432 0.79423 0.52557 0.0
H1477 H 0.87418 0.82128 0.4978 0.0
H1478 H 0.81549 0.7877 0.52172 0.0
H1479 H 0.83539 0.76167 0.55005 0.0
C1480 C 0.8044 0.81975 0.45682 0.0
C1481 C 0.80454 0.84623 0.45554 0.0
C1482 C 0.81734 0.807 0.47328 0.0
C1483 C 0.83095 0.82035 0.4888 0.0
C1484 C 0.83169 0.84682 0.48706 0.0
C1485 C 0.81838 0.85967 0.47079 0.0
C1486 C 0.87709 0.79341 0.52562 0.0
C1487 C 0.86643 0.77617 0.54043 0.0
C1488 C 0.86558 0.80866 0.50949 0.0
C1489 C 0.84328 0.80647 0.50749 0.0
C1490 C 0.83267 0.78968 0.52271 0.0
C1491 C 0.84406 0.77486 0.53901 0.0
H1492 H 0.17074 0.76569 0.45283 0.0
H1493 H 0.11131 0.79651 0.47779 0.0
H1494 H 0.19023 0.79182 0.4815 0.0
H1495 H 0.13102 0.82369 0.50582 0.0
H1496 H 0.18554 0.88353 0.53345 0.0
H1497 H 0.16276 0.8608 0.50479 0.0
H1498 H 0.18914 0.7902 0.52923 0.0
H1499 H 0.21095 0.81269 0.55863 0.0
C1500 C 0.16186 0.77851 0.46406 0.0
C1501 C 0.13948 0.77934 0.46267 0.0
C1502 C 0.17303 0.7934 0.48052 0.0
C1503 C 0.16215 0.80976 0.49592 0.0
C1504 C 0.13981 0.81143 0.49398 0.0
C1505 C 0.12854 0.79611 0.4777 0.0
C1506 C 0.18581 0.86313 0.5334 0.0
C1507 C 0.19964 0.84987 0.5488 0.0
C1508 C 0.17298 0.85015 0.51676 0.0
C1509 C 0.17421 0.82374 0.51475 0.0
C1510 C 0.18792 0.81055 0.53027 0.0
C1511 C 0.20037 0.82343 0.54713 0.0
H1512 H 0.68933 0.9529 0.71143 0.0
H1513 H 0.63245 0.98796 0.68327 0.0
H1514 H 0.71121 0.98366 0.69027 0.0
H1515 H 0.65447 0.01796 0.66097 0.0
H1516 H 0.70888 0.04837 0.60762 0.0
H1517 H 0.68473 0.01832 0.62682 0.0
H1518 H 0.71564 0.03242 0.69449 0.0
H1519 H 0.73887 0.0635 0.67562 0.0
C1520 C 0.68148 0.96686 0.70031 0.0
C1521 C 0.65908 0.96747 0.69866 0.0
C1522 C 0.69404 0.98455 0.68824 0.0
C1523 C 0.68462 0.00329 0.67388 0.0
C1524 C 0.66224 0.00356 0.67163 0.0
C1525 C 0.6496 0.98608 0.68414 0.0
C1526 C 0.70995 0.04592 0.62673 0.0
C1527 C 0.7254 0.0591 0.64018 0.0
C1528 C 0.6963 0.02835 0.63769 0.0
C1529 C 0.69821 0.02295 0.66221 0.0
C1530 C 0.71377 0.036 0.67556 0.0
C1531 C 0.72706 0.05387 0.66474 0.0
H1532 H 0.94625 0.61935 0.61875 0.0
H1533 H 0.97756 0.69178 0.62051 0.0
H1534 H 0.97751 0.59989 0.63754 0.0
H1535 H 0.00884 0.67236 0.63947 0.0
H1536 H 0.04169 0.63509 0.70566 0.0
H1537 H 0.01368 0.65364 0.68082 0.0
H1538 H 0.01711 0.59009 0.63286 0.0
H1539 H 0.04533 0.57146 0.65781 0.0
C1540 C 0.96005 0.63098 0.62266 0.0
C1541 C 0.95948 0.65708 0.61812 0.0
C1542 C 0.97795 0.61984 0.63341 0.0
C1543 C 0.99558 0.63462 0.64024 0.0
C1544 C 0.99542 0.66052 0.63464 0.0
C1545 C 0.97762 0.67159 0.62354 0.0
C1546 C 0.0364 0.62497 0.68989 0.0
C1547 C 0.04563 0.60168 0.68384 0.0
C1548 C 0.02053 0.63577 0.67549 0.0
C1549 C 0.01325 0.62344 0.65476 0.0
C1550 C 0.02237 0.60005 0.64872 0.0
C1551 C 0.03854 0.58941 0.66297 0.0
H1552 H 0.33969 0.08342 0.66391 0.0
H1553 H 0.37547 0.02643 0.70167 0.0
H1554 H 0.32013 0.05028 0.642 0.0
H1555 H 0.3556 0.99342 0.6804 0.0
H1556 H 0.28859 0.95467 0.67235 0.0
H1557 H 0.31071 0.98963 0.68567 0.0
H1558 H 0.32911 0.00444 0.61307 0.0
H1559 H 0.30744 0.96825 0.59947 0.0
C1560 C 0.34368 0.06381 0.66705 0.0
C1561 C 0.35881 0.05732 0.68463 0.0
C1562 C 0.33253 0.04493 0.65456 0.0
C1563 C 0.3363 0.01937 0.65967 0.0
C1564 C 0.35238 0.01301 0.67621 0.0
C1565 C 0.36368 0.03182 0.6884 0.0
C1566 C 0.29742 0.96515 0.6591 0.0
C1567 C 0.29664 0.95815 0.63486 0.0
C1568 C 0.31002 0.98526 0.66679 0.0
C1569 C 0.32187 0.99938 0.65046 0.0
C1570 C 0.32018 0.99364 0.626 0.0
C1571 C 0.30772 0.97307 0.61825 0.0
H1572 H 0.01217 0.30247 0.62891 0.0
H1573 H 0.04296 0.37479 0.63726 0.0
H1574 H 0.98019 0.31925 0.64771 0.0
H1575 H 0.01125 0.39134 0.65677 0.0
H1576 H 0.94267 0.41734 0.67719 0.0
H1577 H 0.97365 0.4036 0.6539 0.0
H1578 H 0.97101 0.33065 0.688 0.0
H1579 H 0.94048 0.34425 0.71096 0.0
C1580 C 0.01202 0.32206 0.63436 0.0
C1581 C 0.0303 0.33713 0.63171 0.0
C1582 C 0.99376 0.33165 0.64548 0.0
C1583 C 0.99318 0.3566 0.65424 0.0
C1584 C 0.01102 0.37209 0.65033 0.0
C1585 C 0.0293 0.36248 0.63927 0.0
C1586 C 0.9489 0.39849 0.67983 0.0
C1587 C 0.93883 0.38182 0.6957 0.0
C1588 C 0.9666 0.39054 0.66643 0.0
C1589 C 0.97463 0.36575 0.66862 0.0
C1590 C 0.96496 0.34955 0.68517 0.0
C1591 C 0.94744 0.35745 0.69849 0.0
H1592 H 0.7295 0.98144 0.38192 0.0
H1593 H 0.67052 0.94027 0.38771 0.0
H1594 H 0.71008 0.01769 0.3657 0.0
H1595 H 0.65091 0.9766 0.37236 0.0
H1596 H 0.62965 0.02724 0.3099 0.0
H1597 H 0.64672 0.99464 0.33411 0.0
H1598 H 0.68505 0.05162 0.36925 0.0
H1599 H 0.66826 0.08405 0.34416 0.0
C1600 C 0.71228 0.98053 0.38055 0.0
C1601 C 0.70152 0.95806 0.38602 0.0
C1602 C 0.7011 1.00128 0.37118 0.0
C1603 C 0.67888 1.00002 0.36723 0.0
C1604 C 0.66803 0.97811 0.3745 0.0
C1605 C 0.67922 0.95737 0.38359 0.0
C1606 C 0.64165 0.03269 0.32291 0.0
C1607 C 0.64786 0.05798 0.32504 0.0
C1608 C 0.65133 0.01409 0.337 0.0
C1609 C 0.66739 0.02036 0.35374 0.0
C1610 C 0.67301 0.04596 0.35638 0.0
C1611 C 0.6633 0.06457 0.34219 0.0
H1612 H 0.95989 0.6438 0.30157 0.0
H1613 H 0.96437 0.57306 0.3394 0.0
H1614 H 0.98819 0.66125 0.32654 0.0
H1615 H 0.99267 0.59075 0.36479 0.0
H1616 H 0.06175 0.62332 0.37855 0.0
H1617 H 0.03022 0.60432 0.36011 0.0
H1618 H 0.99642 0.67476 0.36767 0.0
H1619 H 0.02815 0.69386 0.38587 0.0
C1620 C 0.96695 0.63192 0.31522 0.0
C1621 C 0.95997 0.6069 0.31827 0.0
C1622 C 0.98301 0.64208 0.32979 0.0
C1623 C 0.99269 0.62748 0.3478 0.0
C1624 C 0.98562 0.60249 0.35103 0.0
C1625 C 0.96934 0.59238 0.33656 0.0
C1626 C 0.04744 0.63461 0.37667 0.0
C1627 C 0.0475 0.66015 0.38357 0.0
C1628 C 0.02932 0.62368 0.36619 0.0
C1629 C 0.01082 0.63806 0.36211 0.0
C1630 C 0.0105 0.66323 0.37022 0.0
C1631 C 0.02859 0.67411 0.38093 0.0
H1632 H 0.32524 0.94171 0.3176 0.0
H1633 H 0.36949 1.00049 0.2992 0.0
H1634 H 0.30363 0.97212 0.33957 0.0
H1635 H 0.34832 0.03111 0.32167 0.0
H1636 H 0.29111 0.08368 0.33739 0.0
H1637 H 0.31584 0.05369 0.31932 0.0
H1638 H 0.29971 0.99868 0.37316 0.0
H1639 H 0.27461 0.02872 0.39067 0.0
C1640 C 0.33058 0.96111 0.31878 0.0
C1641 C 0.34909 0.96872 0.30686 0.0
C1642 C 0.31821 0.97864 0.33142 0.0
C1643 C 0.32402 0.00436 0.3325 0.0
C1644 C 0.34301 0.01169 0.32104 0.0
C1645 C 0.35533 0.99412 0.30836 0.0
C1646 C 0.29314 0.06528 0.3455 0.0
C1647 C 0.28097 0.05852 0.36542 0.0
C1648 C 0.30738 0.04801 0.3352 0.0
C1649 C 0.30989 0.02346 0.34458 0.0
C1650 C 0.29806 0.01711 0.36506 0.0
C1651 C 0.28379 0.03439 0.37529 0.0
H1652 H 0.06711 0.34902 0.29802 0.0
H1653 H 0.06169 0.42378 0.32782 0.0
H1654 H 0.03617 0.33548 0.32032 0.0
H1655 H 0.03041 0.41009 0.35056 0.0
H1656 H 0.96163 0.38031 0.36649 0.0
H1657 H 0.99355 0.39666 0.34735 0.0
H1658 H 0.02536 0.32565 0.36006 0.0
H1659 H 0.99312 0.30897 0.37833 0.0
C1660 C 0.05936 0.3626 0.30951 0.0
C1661 C 0.06715 0.38745 0.31134 0.0
C1662 C 0.04161 0.35474 0.32247 0.0
C1663 C 0.03091 0.37145 0.33774 0.0
C1664 C 0.03821 0.39663 0.33901 0.0
C1665 C 0.05611 0.40455 0.32593 0.0
C1666 C 0.97546 0.36817 0.3653 0.0
C1667 C 0.97459 0.34312 0.37373 0.0
C1668 C 0.99389 0.37768 0.35447 0.0
C1669 C 0.01205 0.36243 0.35172 0.0
C1670 C 0.01157 0.33784 0.36134 0.0
C1671 C 0.99313 0.32833 0.37218 0.0
H1672 H 0.68464 0.62394 0.9852 0.0
H1673 H 0.69174 0.69976 0.95813 0.0
H1674 H 0.66651 0.64093 0.02054 0.0
H1675 H 0.67308 0.71621 0.99246 0.0
H1676 H 0.61769 0.73516 0.04074 0.0
H1677 H 0.6347 0.71321 0.00749 0.0
H1678 H 0.67383 0.67143 0.05728 0.0
H1679 H 0.65701 0.69401 0.09061 0.0
C1680 C 0.68246 0.64413 0.98671 0.0
C1681 C 0.68931 0.66029 0.9683 0.0
C1682 C 0.67198 0.65385 0.00693 0.0
C1683 C 0.66791 0.67991 0.00909 0.0
C1684 C 0.6754 0.69601 0.99112 0.0
C1685 C 0.68607 0.68644 0.97127 0.0
C1686 C 0.62983 0.72118 0.04456 0.0
C1687 C 0.63631 0.71662 0.06819 0.0
C1688 C 0.6396 0.70861 0.02555 0.0
C1689 C 0.65587 0.69078 0.02967 0.0
C1690 C 0.66137 0.68501 0.05346 0.0
C1691 C 0.65175 0.6979 0.07253 0.0
H1692 H 0.34465 0.66827 0.04793 0.0
H1693 H 0.28894 0.64863 0.00626 0.0
H1694 H 0.36147 0.68539 0.0127 0.0
H1695 H 0.30634 0.66457 0.97038 0.0
H1696 H 0.33188 0.7261 0.91922 0.0
H1697 H 0.31553 0.70302 0.95203 0.0
H1698 H 0.37802 0.67946 0.97623 0.0
H1699 H 0.3942 0.70395 0.94425 0.0
C1700 C 0.33603 0.66731 0.03114 0.0
C1701 C 0.3152 0.65735 0.03019 0.0
C1702 C 0.34586 0.6769 0.0107 0.0
C1703 C 0.33536 0.67668 0.98841 0.0
C1704 C 0.3149 0.66559 0.9872 0.0
C1705 C 0.30497 0.65607 0.00778 0.0
C1706 C 0.34205 0.7157 0.93145 0.0
C1707 C 0.36431 0.71641 0.9288 0.0
C1708 C 0.33268 0.70227 0.95023 0.0
C1709 C 0.34531 0.68913 0.96703 0.0
C1710 C 0.36764 0.68945 0.96395 0.0
C1711 C 0.377 0.70309 0.94525 0.0
H1712 H 0.32462 0.3917 0.97965 0.0
H1713 H 0.32554 0.31748 0.94765 0.0
H1714 H 0.34511 0.37515 0.01391 0.0
H1715 H 0.34674 0.30183 0.98077 0.0
H1716 H 0.40564 0.29052 0.02665 0.0
H1717 H 0.3869 0.31543 0.99621 0.0
H1718 H 0.33858 0.33483 0.04736 0.0
H1719 H 0.35713 0.30927 0.07769 0.0
C1720 C 0.3291 0.37198 0.97982 0.0
C1721 C 0.32379 0.35618 0.96041 0.0
C1722 C 0.34093 0.36259 0.99937 0.0
C1723 C 0.3479 0.33736 0.99967 0.0
C1724 C 0.34204 0.3215 0.98073 0.0
C1725 C 0.32997 0.33064 0.9616 0.0
C1726 C 0.39129 0.3006 0.0315 0.0
C1727 C 0.38268 0.2978 0.05436 0.0
C1728 C 0.38057 0.31481 0.01413 0.0
C1729 C 0.36122 0.3269 0.0194 0.0
C1730 C 0.35352 0.32584 0.04287 0.0
C1731 C 0.36413 0.31127 0.0602 0.0
H1732 H 0.6512 0.37637 0.05249 0.0
H1733 H 0.71003 0.35265 0.0203 0.0
H1734 H 0.63112 0.35872 0.01897 0.0
H1735 H 0.69007 0.33383 0.98718 0.0
H1736 H 0.65016 0.30584 0.92581 0.0
H1737 H 0.66796 0.33545 0.95291 0.0
H1738 H 0.62147 0.31812 0.00711 0.0
H1739 H 0.60341 0.28962 0.97949 0.0
C1740 C 0.65983 0.3678 0.0379 0.0
C1741 C 0.68215 0.36594 0.03891 0.0
C1742 C 0.64833 0.35735 0.01881 0.0
C1743 C 0.65883 0.34428 1.00044 0.0
C1744 C 0.68133 0.34387 1.00078 0.0
C1745 C 0.69285 0.35468 0.01976 0.0
C1746 C 0.64355 0.30894 0.94334 0.0
C1747 C 0.62558 0.29532 0.9507 0.0
C1748 C 0.65386 0.32569 0.95902 0.0
C1749 C 0.64642 0.32914 0.98246 0.0
C1750 C 0.62767 0.31636 0.98922 0.0
C1751 C 0.61735 0.29979 0.97348 0.0
H1752 H 0.19182 0.30632 0.23831 0.0
H1753 H 0.15346 0.32068 0.30025 0.0
H1754 H 0.20272 0.26554 0.25519 0.0
H1755 H 0.1651 0.28114 0.31791 0.0
H1756 H 0.17581 0.20114 0.33877 0.0
H1757 H 0.16271 0.23806 0.31755 0.0
H1758 H 0.22451 0.24732 0.2849 0.0
H1759 H 0.23691 0.20892 0.30497 0.0
C1760 C 0.1857 0.30058 0.2555 0.0
C1761 C 0.17191 0.31644 0.26809 0.0
C1762 C 0.19209 0.27743 0.26534 0.0
C1763 C 0.18493 0.26989 0.28807 0.0
C1764 C 0.1707 0.28581 0.30025 0.0
C1765 C 0.1641 0.30862 0.29025 0.0
C1766 C 0.1864 0.21084 0.32666 0.0
C1767 C 0.20718 0.20195 0.32303 0.0
C1768 C 0.17904 0.23227 0.31472 0.0
C1769 C 0.19251 0.24596 0.29945 0.0
C1770 C 0.21348 0.23711 0.29608 0.0
C1771 C 0.2207 0.21527 0.30771 0.0
H1772 H 0.81419 0.19249 0.40505 0.0
H1773 H 0.78774 0.26081 0.37527 0.0
H1774 H 0.78318 0.16871 0.39052 0.0
H1775 H 0.75685 0.23703 0.36053 0.0
H1776 H 0.728 0.17884 0.3074 0.0
H1777 H 0.75629 0.2026 0.32743 0.0
H1778 H 0.74146 0.16567 0.39391 0.0
H1779 H 0.71288 0.14193 0.37381 0.0
C1780 C 0.80145 0.20246 0.3959 0.0
C1781 C 0.80324 0.22842 0.39126 0.0
C1782 C 0.78378 0.1889 0.38761 0.0
C1783 C 0.76782 0.20103 0.37418 0.0
C1784 C 0.76908 0.22724 0.37065 0.0
C1785 C 0.78659 0.24086 0.37928 0.0
C1786 C 0.731 0.17551 0.3262 0.0
C1787 C 0.71843 0.1584 0.33904 0.0
C1788 C 0.74696 0.18935 0.33772 0.0
C1789 C 0.75085 0.18615 0.36225 0.0
C1790 C 0.73871 0.1685 0.37499 0.0
C1791 C 0.72245 0.15493 0.36353 0.0
H1792 H 0.82306 0.65547 0.28524 0.0
H1793 H 0.88449 0.6881 0.30099 0.0
H1794 H 0.8057 0.68887 0.30761 0.0
H1795 H 0.86724 0.72288 0.32193 0.0
H1796 H 0.83385 0.76396 0.3818 0.0
H1797 H 0.85061 0.73108 0.35782 0.0
H1798 H 0.79539 0.73026 0.31098 0.0
H1799 H 0.77836 0.76179 0.33609 0.0
C1800 C 0.83274 0.67043 0.29284 0.0
C1801 C 0.85502 0.66945 0.2913 0.0
C1802 C 0.82284 0.68965 0.30566 0.0
C1803 C 0.835 0.70863 0.31691 0.0
C1804 C 0.85732 0.70832 0.31409 0.0
C1805 C 0.86724 0.68874 0.30166 0.0
C1806 C 0.82526 0.7562 0.36665 0.0
C1807 C 0.80475 0.76484 0.36096 0.0
C1808 C 0.83494 0.73771 0.35261 0.0
C1809 C 0.82451 0.72801 0.33219 0.0
C1810 C 0.80385 0.73679 0.32672 0.0
C1811 C 0.79402 0.75485 0.34107 0.0
H1812 H 0.27235 0.84894 0.28896 0.0
H1813 H 0.28838 0.88926 0.35356 0.0
H1814 H 0.24633 0.8238 0.3109 0.0
H1815 H 0.26232 0.8641 0.37556 0.0
H1816 H 0.19609 0.82869 0.3968 0.0
H1817 H 0.22235 0.85575 0.37729 0.0
H1818 H 0.24984 0.79036 0.34342 0.0
H1819 H 0.22358 0.76333 0.36299 0.0
C1820 C 0.2699 0.85284 0.30772 0.0
C1821 C 0.28225 0.87113 0.31955 0.0
C1822 C 0.25528 0.8382 0.32035 0.0
C1823 C 0.25255 0.84176 0.345 0.0
C1824 C 0.26412 0.86093 0.35659 0.0
C1825 C 0.27896 0.87535 0.34402 0.0
C1826 C 0.20806 0.82011 0.38557 0.0
C1827 C 0.20791 0.79395 0.38144 0.0
C1828 C 0.22303 0.83557 0.37439 0.0
C1829 C 0.23792 0.82519 0.35858 0.0
C1830 C 0.23833 0.79889 0.35525 0.0
C1831 C 0.22354 0.78339 0.3667 0.0
H1832 H 0.11905 0.66492 0.67653 0.0
H1833 H 0.1685 0.67519 0.72941 0.0
H1834 H 0.13418 0.69903 0.65257 0.0
H1835 H 0.18345 0.70983 0.70601 0.0
H1836 H 0.22004 0.74698 0.64691 0.0
H1837 H 0.20282 0.7133 0.66912 0.0
H1838 H 0.14107 0.7437 0.65014 0.0
H1839 H 0.15832 0.77672 0.62696 0.0
C1840 C 0.1328 0.67512 0.68327 0.0
C1841 C 0.14262 0.66782 0.70473 0.0
C1842 C 0.14153 0.69453 0.66959 0.0
C1843 C 0.16022 0.70691 0.6772 0.0
C1844 C 0.16933 0.7003 0.69937 0.0
C1845 C 0.16064 0.68083 0.71297 0.0
C1846 C 0.20279 0.74607 0.6469 0.0
C1847 C 0.19055 0.76457 0.6352 0.0
C1848 C 0.19291 0.72705 0.66003 0.0
C1849 C 0.17057 0.72612 0.66184 0.0
C1850 C 0.15831 0.74388 0.64916 0.0
C1851 C 0.16819 0.76286 0.63596 0.0
H1852 H 0.26847 0.13075 0.67338 0.0
H1853 H 0.31052 0.18982 0.64892 0.0
H1854 H 0.23855 0.15179 0.6539 0.0
H1855 H 0.28102 0.20973 0.62813 0.0
H1856 H 0.21893 0.25617 0.625 0.0
H1857 H 0.25076 0.23371 0.63817 0.0
H1858 H 0.2218 0.16299 0.61717 0.0
H1859 H 0.18969 0.18561 0.6047 0.0
C1860 C 0.27142 0.14802 0.66364 0.0
C1861 C 0.29198 0.15852 0.66285 0.0
C1862 C 0.25429 0.15993 0.65214 0.0
C1863 C 0.25732 0.18256 0.63943 0.0
C1864 C 0.278 0.19256 0.638 0.0
C1865 C 0.29504 0.18083 0.64966 0.0
C1866 C 0.21961 0.2359 0.62268 0.0
C1867 C 0.20187 0.22261 0.61392 0.0
C1868 C 0.23785 0.22295 0.63024 0.0
C1869 C 0.23882 0.19643 0.62898 0.0
C1870 C 0.22145 0.18332 0.61892 0.0
C1871 C 0.20314 0.19627 0.61158 0.0
H1872 H 0.77888 0.19104 0.71659 0.0
H1873 H 0.81194 0.21895 0.65487 0.0
H1874 H 0.79301 0.22636 0.74042 0.0
H1875 H 0.82587 0.25426 0.67827 0.0
H1876 H 0.80298 0.31236 0.76162 0.0
H1877 H 0.78983 0.2732 0.74336 0.0
H1878 H 0.85126 0.26188 0.71071 0.0
H1879 H 0.86404 0.30117 0.72855 0.0
C1880 C 0.78902 0.20493 0.70817 0.0
C1881 C 0.79419 0.20267 0.68397 0.0
C1882 C 0.7971 0.22507 0.72173 0.0
C1883 C 0.81071 0.24302 0.7113 0.0
C1884 C 0.81576 0.24057 0.68698 0.0
C1885 C 0.80762 0.22058 0.67349 0.0
C1886 C 0.81376 0.30097 0.75113 0.0
C1887 C 0.83455 0.30945 0.74671 0.0
C1888 C 0.80627 0.27864 0.74062 0.0
C1889 C 0.81942 0.26459 0.72533 0.0
C1890 C 0.84062 0.27247 0.72207 0.0
C1891 C 0.84807 0.29472 0.73256 0.0
H1892 H 0.78044 0.75661 0.63512 0.0
H1893 H 0.81112 0.82451 0.61037 0.0
H1894 H 0.75283 0.78189 0.65393 0.0
H1895 H 0.78325 0.84994 0.62875 0.0
H1896 H 0.74467 0.8871 0.68898 0.0
H1897 H 0.77164 0.86233 0.66805 0.0
H1898 H 0.72326 0.80859 0.64683 0.0
H1899 H 0.69687 0.83227 0.66867 0.0
C1900 C 0.78093 0.77693 0.63315 0.0
C1901 C 0.79789 0.78858 0.62126 0.0
C1902 C 0.76515 0.79148 0.64401 0.0
C1903 C 0.76588 0.81803 0.64305 0.0
C1904 C 0.78242 0.8296 0.63029 0.0
C1905 C 0.79826 0.81504 0.61956 0.0
C1906 C 0.73988 0.86992 0.67996 0.0
C1907 C 0.71854 0.86191 0.6803 0.0
C1908 C 0.75526 0.85586 0.66772 0.0
C1909 C 0.74962 0.83347 0.65563 0.0
C1910 C 0.72828 0.82555 0.65607 0.0
C1911 C 0.71303 0.83944 0.66835 0.0
H1912 H 0.25744 0.14834 0.25725 0.0
H1913 H 0.31791 0.13444 0.29216 0.0
H1914 H 0.27595 0.1671 0.22346 0.0
H1915 H 0.33634 0.15422 0.25905 0.0
H1916 H 0.36471 0.17374 0.18715 0.0
H1917 H 0.34586 0.15064 0.21826 0.0
H1918 H 0.29498 0.20565 0.21536 0.0
H1919 H 0.31375 0.2281 0.18353 0.0
C1920 C 0.2747 0.14888 0.25752 0.0
C1921 C 0.28621 0.14 0.27741 0.0
C1922 C 0.28529 0.16003 0.23835 0.0
C1923 C 0.30762 0.16254 0.23868 0.0
C1924 C 0.31916 0.15253 0.25809 0.0
C1925 C 0.30858 0.14133 0.27718 0.0
C1926 C 0.34953 0.18082 0.19338 0.0
C1927 C 0.34059 0.2026 0.18326 0.0
C1928 C 0.33874 0.16769 0.21116 0.0
C1929 C 0.31886 0.17623 0.21931 0.0
C1930 C 0.31008 0.1983 0.20923 0.0
C1931 C 0.32086 0.21134 0.19128 0.0
H1932 H 0.82118 0.29456 0.33155 0.0
H1933 H 0.86857 0.35203 0.32003 0.0
H1934 H 0.79973 0.31157 0.29848 0.0
H1935 H 0.84709 0.3696 0.28743 0.0
H1936 H 0.81662 0.37163 0.2125 0.0
H1937 H 0.83687 0.35831 0.24747 0.0
H1938 H 0.77821 0.34785 0.28618 0.0
H1939 H 0.75787 0.36049 0.25069 0.0
C1940 C 0.82687 0.31092 0.32191 0.0
C1941 C 0.84639 0.32205 0.32806 0.0
C1942 C 0.81457 0.32082 0.30319 0.0
C1943 C 0.82166 0.34202 0.29032 0.0
C1944 C 0.84126 0.35313 0.29675 0.0
C1945 C 0.85352 0.34318 0.31539 0.0
C1946 C 0.80805 0.36667 0.22855 0.0
C1947 C 0.78566 0.36693 0.22882 0.0
C1948 C 0.81966 0.3592 0.24867 0.0
C1949 C 0.80918 0.35182 0.26962 0.0
C1950 C 0.78677 0.35306 0.27021 0.0
C1951 C 0.77512 0.36062 0.25002 0.0
H1952 H 0.64091 0.79103 0.23722 0.0
H1953 H 0.69689 0.75753 0.20635 0.0
H1954 H 0.66212 0.80535 0.27145 0.0
H1955 H 0.71833 0.77192 0.24062 0.0
H1956 H 0.71033 0.85684 0.30819 0.0
H1957 H 0.6906 0.8384 0.27466 0.0
H1958 H 0.72302 0.76747 0.28598 0.0
H1959 H 0.74279 0.7862 0.3197 0.0
C1960 C 0.65766 0.78612 0.2382 0.0
C1961 C 0.66729 0.77284 0.21953 0.0
C1962 C 0.66986 0.79459 0.25755 0.0
C1963 C 0.69193 0.78998 0.25857 0.0
C1964 C 0.70136 0.77563 0.24037 0.0
C1965 C 0.68914 0.76732 0.22088 0.0
C1966 C 0.7135 0.83748 0.30312 0.0
C1967 C 0.72823 0.82297 0.31609 0.0
C1968 C 0.70205 0.82682 0.2842 0.0
C1969 C 0.7051 0.8014 0.27788 0.0
C1970 C 0.7204 0.78711 0.29042 0.0
C1971 C 0.73175 0.79778 0.30956 0.0
H1972 H 0.24582 0.65556 0.23969 0.0
H1973 H 0.18439 0.63929 0.20795 0.0
H1974 H 0.22827 0.67059 0.27572 0.0
H1975 H 0.16684 0.65554 0.24324 0.0
H1976 H 0.14155 0.66644 0.3183 0.0
H1977 H 0.1595 0.64821 0.28383 0.0
H1978 H 0.20792 0.70616 0.28875 0.0
H1979 H 0.19015 0.72359 0.32392 0.0
C1980 C 0.22859 0.65487 0.24052 0.0
C1981 C 0.21651 0.64631 0.2209 0.0
C1982 C 0.2185 0.66391 0.26101 0.0
C1983 C 0.1961 0.66463 0.26233 0.0
C1984 C 0.18409 0.65516 0.24302 0.0
C1985 C 0.19416 0.64601 0.22264 0.0
C1986 C 0.15593 0.6753 0.31174 0.0
C1987 C 0.1645 0.69642 0.32341 0.0
C1988 C 0.16623 0.66494 0.29203 0.0
C1989 C 0.18523 0.67565 0.28346 0.0
C1990 C 0.19354 0.69714 0.29508 0.0
C1991 C 0.18329 0.70737 0.31496 0.0
H1992 H 0.34405 0.75441 0.76178 0.0
H1993 H 0.30936 0.80067 0.81159 0.0
H1994 H 0.31809 0.76414 0.73108 0.0
H1995 H 0.2835 0.81038 0.78067 0.0
H1996 H 0.27492 0.85608 0.70779 0.0
H1997 H 0.29236 0.83828 0.74296 0.0
H1998 H 0.27764 0.76316 0.71807 0.0
H1999 H 0.2592 0.78124 0.68309 0.0
C2000 C 0.33166 0.76749 0.76625 0.0
C2001 C 0.33106 0.77998 0.78848 0.0
C2002 C 0.31621 0.77237 0.74863 0.0
C2003 C 0.29942 0.78914 0.75314 0.0
C2004 C 0.29689 0.79837 0.77635 0.0
C2005 C 0.31216 0.79323 0.79393 0.0
C2006 C 0.27463 0.83582 0.71031 0.0
C2007 C 0.26522 0.82003 0.69311 0.0
C2008 C 0.28473 0.82561 0.73036 0.0
C2009 C 0.28621 0.79934 0.73331 0.0
C2010 C 0.27661 0.78347 0.71626 0.0
C2011 C 0.26601 0.79376 0.6964 0.0
H2012 H 0.21287 0.40108 0.76163 0.0
H2013 H 0.22171 0.32418 0.78494 0.0
H2014 H 0.19415 0.38583 0.72578 0.0
H2015 H 0.20282 0.30901 0.74969 0.0
H2016 H 0.18302 0.28832 0.67401 0.0
H2017 H 0.20519 0.30525 0.70652 0.0
H2018 H 0.15958 0.36529 0.71697 0.0
H2019 H 0.13772 0.34835 0.68427 0.0
C2020 C 0.21096 0.38097 0.75896 0.0
C2021 C 0.2185 0.36383 0.77615 0.0
C2022 C 0.20013 0.37223 0.73859 0.0
C2023 C 0.19689 0.34619 0.73495 0.0
C2024 C 0.20516 0.32913 0.7518 0.0
C2025 C 0.2158 0.33784 0.77213 0.0
C2026 C 0.17789 0.30514 0.68333 0.0
C2027 C 0.15884 0.31715 0.67683 0.0
C2028 C 0.19048 0.31483 0.7019 0.0
C2029 C 0.18419 0.3367 0.71429 0.0
C2030 C 0.16507 0.3487 0.70756 0.0
C2031 C 0.15248 0.33894 0.68905 0.0
H2032 H 0.75013 0.14636 0.74759 0.0
H2033 H 0.68879 0.1274 0.71704 0.0
H2034 H 0.73256 0.16318 0.78293 0.0
H2035 H 0.67119 0.14501 0.75184 0.0
H2036 H 0.64587 0.16233 0.8255 0.0
H2037 H 0.6648 0.14019 0.79377 0.0
H2038 H 0.71127 0.20042 0.79173 0.0
H2039 H 0.69246 0.22204 0.82404 0.0
C2040 C 0.73292 0.14532 0.74865 0.0
C2041 C 0.72082 0.13562 0.72953 0.0
C2042 C 0.72284 0.15532 0.76871 0.0
C2043 C 0.70046 0.15575 0.77008 0.0
C2044 C 0.68845 0.14487 0.75146 0.0
C2045 C 0.69851 0.1349 0.73144 0.0
C2046 C 0.6602 0.17064 0.81822 0.0
C2047 C 0.66789 0.19369 0.82704 0.0
C2048 C 0.67099 0.15809 0.80005 0.0
C2049 C 0.68959 0.16849 0.79024 0.0
C2050 C 0.69721 0.19168 0.79917 0.0
C2051 C 0.68641 0.20419 0.81744 0.0
H2052 H 0.81566 0.71755 0.67674 0.0
H2053 H 0.86515 0.66174 0.68412 0.0
H2054 H 0.79742 0.69992 0.71149 0.0
H2055 H 0.84677 0.64332 0.71822 0.0
H2056 H 0.82019 0.6347 0.79358 0.0
H2057 H 0.83832 0.65084 0.75859 0.0
H2058 H 0.77744 0.66391 0.72413 0.0
H2059 H 0.75928 0.64899 0.7598 0.0
C2060 C 0.82262 0.70158 0.686 0.0
C2061 C 0.8418 0.69109 0.67818 0.0
C2062 C 0.8121 0.69123 0.70565 0.0
C2063 C 0.82054 0.67006 0.71765 0.0
C2064 C 0.83993 0.65979 0.7097 0.0
C2065 C 0.85047 0.67026 0.69021 0.0
C2066 C 0.81067 0.64095 0.77851 0.0
C2067 C 0.78828 0.64075 0.77958 0.0
C2068 C 0.82107 0.65003 0.75832 0.0
C2069 C 0.80937 0.65896 0.73855 0.0
C2070 C 0.78697 0.65767 0.7392 0.0
C2071 C 0.77654 0.64869 0.75949 0.0
H2072 H 0.24455 0.40078 0.18597 0.0
H2073 H 0.19796 0.3447 0.16496 0.0
H2074 H 0.2717 0.378 0.16378 0.0
H2075 H 0.22448 0.32334 0.14139 0.0
H2076 H 0.2833 0.27276 0.13177 0.0
H2077 H 0.25391 0.29721 0.14783 0.0
H2078 H 0.28499 0.36615 0.12587 0.0
H2079 H 0.3148 0.34144 0.1106 0.0
C2080 C 0.23999 0.38383 0.17643 0.0
C2081 C 0.21895 0.37475 0.17733 0.0
C2082 C 0.25551 0.37093 0.16337 0.0
C2083 C 0.25034 0.34873 0.15073 0.0
C2084 C 0.22918 0.34012 0.15112 0.0
C2085 C 0.21381 0.35275 0.16439 0.0
C2086 C 0.28352 0.29309 0.12979 0.0
C2087 C 0.30126 0.30523 0.11997 0.0
C2088 C 0.26669 0.3072 0.13905 0.0
C2089 C 0.26712 0.33378 0.13844 0.0
C2090 C 0.28433 0.34579 0.12718 0.0
C2091 C 0.30127 0.33167 0.11817 0.0
H2092 H 0.27852 0.73274 0.82301 0.0
H2093 H 0.30084 0.67014 0.86555 0.0
H2094 H 0.24935 0.70653 0.80742 0.0
H2095 H 0.27161 0.64399 0.85018 0.0
H2096 H 0.20205 0.61638 0.83303 0.0
H2097 H 0.2307 0.64194 0.85055 0.0
H2098 H 0.24843 0.66719 0.78022 0.0
H2099 H 0.21987 0.64145 0.76271 0.0
C2100 C 0.27685 0.71356 0.82942 0.0
C2101 C 0.29179 0.70345 0.84556 0.0
C2102 C 0.26037 0.69848 0.82029 0.0
C2103 C 0.25836 0.67316 0.82743 0.0
C2104 C 0.27276 0.66344 0.8444 0.0
C2105 C 0.28943 0.67837 0.85321 0.0
C2106 C 0.21229 0.62714 0.82134 0.0
C2107 C 0.20886 0.62686 0.79652 0.0
C2108 C 0.22863 0.64176 0.83134 0.0
C2109 C 0.24162 0.65675 0.81676 0.0
C2110 C 0.23847 0.65605 0.7919 0.0
C2111 C 0.22235 0.64109 0.78186 0.0
H2112 H 0.27792 0.32708 0.78643 0.0
H2113 H 0.3186 0.29856 0.84255 0.0
H2114 H 0.29344 0.2966 0.75835 0.0
H2115 H 0.33397 0.26806 0.81493 0.0
H2116 H 0.37181 0.2313 0.75941 0.0
H2117 H 0.3571 0.26802 0.77974 0.0
H2118 H 0.29449 0.24963 0.75219 0.0
H2119 H 0.3095 0.21314 0.73134 0.0
C2120 C 0.29004 0.31405 0.79269 0.0
C2121 C 0.29697 0.31469 0.81652 0.0
C2122 C 0.29893 0.29674 0.77672 0.0
C2123 C 0.31509 0.28015 0.78438 0.0
C2124 C 0.32186 0.28091 0.80836 0.0
C2125 C 0.31291 0.29805 0.82425 0.0
C2126 C 0.35511 0.23582 0.75687 0.0
C2127 C 0.34178 0.21974 0.74363 0.0
C2128 C 0.3466 0.25655 0.76879 0.0
C2129 C 0.32458 0.26141 0.76791 0.0
C2130 C 0.31152 0.24642 0.75312 0.0
C2131 C 0.32008 0.22565 0.74112 0.0
H2132 H 0.69171 0.33581 0.89656 0.0
H2133 H 0.7255 0.26784 0.87799 0.0
H2134 H 0.72145 0.36123 0.88219 0.0
H2135 H 0.75489 0.29298 0.86279 0.0
H2136 H 0.80986 0.34201 0.84583 0.0
H2137 H 0.7835 0.32051 0.86957 0.0
H2138 H 0.73524 0.37244 0.84436 0.0
H2139 H 0.76212 0.39537 0.82195 0.0
C2140 C 0.70573 0.32636 0.88978 0.0
C2141 C 0.7064 0.29992 0.88837 0.0
C2142 C 0.72265 0.34088 0.88129 0.0
C2143 C 0.74049 0.32924 0.87095 0.0
C2144 C 0.74159 0.30268 0.87086 0.0
C2145 C 0.72476 0.28819 0.87961 0.0
C2146 C 0.7938 0.34946 0.84583 0.0
C2147 C 0.78825 0.37065 0.83194 0.0
C2148 C 0.77853 0.33675 0.85921 0.0
C2149 C 0.75714 0.34451 0.85881 0.0
C2150 C 0.75161 0.36604 0.84537 0.0
C2151 C 0.76699 0.37901 0.83218 0.0
H2152 H 0.7304 0.69444 0.7946 0.0
H2153 H 0.69543 0.72275 0.85481 0.0
H2154 H 0.71573 0.72848 0.76953 0.0
H2155 H 0.68077 0.75668 0.83007 0.0
H2156 H 0.64076 0.79761 0.77639 0.0
H2157 H 0.65535 0.76013 0.79597 0.0
H2158 H 0.71714 0.77624 0.7661 0.0
H2159 H 0.70229 0.81372 0.74632 0.0
C2160 C 0.71979 0.70822 0.80244 0.0
C2161 C 0.71419 0.70641 0.82656 0.0
C2162 C 0.71137 0.72757 0.78817 0.0
C2163 C 0.69693 0.74509 0.79778 0.0
C2164 C 0.69158 0.74325 0.82205 0.0
C2165 C 0.70012 0.7241 0.83628 0.0
C2166 C 0.65725 0.79256 0.77336 0.0
C2167 C 0.67037 0.80816 0.7596 0.0
C2168 C 0.6657 0.77137 0.78483 0.0
C2169 C 0.68746 0.76544 0.78283 0.0
C2170 C 0.7003 0.78026 0.76787 0.0
C2171 C 0.69184 0.80158 0.75648 0.0
H2172 H 0.69989 0.65876 0.1381 0.0
H2173 H 0.7241 0.72377 0.17595 0.0
H2174 H 0.72794 0.63269 0.15593 0.0
H2175 H 0.75231 0.69779 0.19362 0.0
H2176 H 0.79628 0.60321 0.17423 0.0
H2177 H 0.7674 0.62736 0.15568 0.0
H2178 H 0.75417 0.66254 0.22348 0.0
H2179 H 0.78322 0.63846 0.24197 0.0
C2180 C 0.71141 0.66751 0.14998 0.0
C2181 C 0.70988 0.6933 0.15557 0.0
C2182 C 0.72746 0.65261 0.16017 0.0
C2183 C 0.74218 0.66312 0.1764 0.0
C2184 C 0.74099 0.68907 0.18147 0.0
C2185 C 0.72507 0.70403 0.17107 0.0
C2186 C 0.78695 0.61582 0.18522 0.0
C2187 C 0.79194 0.61895 0.20954 0.0
C2188 C 0.77043 0.62963 0.17462 0.0
C2189 C 0.75869 0.64708 0.18805 0.0
C2190 C 0.76316 0.64951 0.21259 0.0
C2191 C 0.77956 0.63547 0.22326 0.0
H2192 H 0.36267 0.80001 0.22403 0.0
H2193 H 0.30095 0.81797 0.25267 0.0
H2194 H 0.34748 0.76343 0.20344 0.0
H2195 H 0.28553 0.78133 0.23196 0.0
H2196 H 0.3077 0.72744 0.14358 0.0
H2197 H 0.32234 0.76115 0.16866 0.0
H2198 H 0.28631 0.73325 0.22852 0.0
H2199 H 0.27171 0.6994 0.20314 0.0
C2200 C 0.34597 0.79557 0.22648 0.0
C2201 C 0.33299 0.8114 0.24018 0.0
C2202 C 0.3372 0.7749 0.21446 0.0
C2203 C 0.31526 0.76969 0.21586 0.0
C2204 C 0.30249 0.78479 0.23065 0.0
C2205 C 0.31128 0.80563 0.24257 0.0
C2206 C 0.30276 0.72881 0.16202 0.0
C2207 C 0.28848 0.71122 0.1715 0.0
C2208 C 0.31128 0.74785 0.17645 0.0
C2209 C 0.30564 0.74968 0.20063 0.0
C2210 C 0.29089 0.73234 0.20994 0.0
C2211 C 0.28252 0.71309 0.1955 0.0
H2212 H 0.73204 0.28423 0.17911 0.0
H2213 H 0.69064 0.33994 0.21044 0.0
H2214 H 0.72134 0.25415 0.20905 0.0
H2215 H 0.67993 0.30971 0.24026 0.0
H2216 H 0.64025 0.23371 0.25099 0.0
H2217 H 0.65673 0.27069 0.23311 0.0
H2218 H 0.71901 0.24219 0.25242 0.0
H2219 H 0.70224 0.20528 0.271 0.0
C2220 C 0.71984 0.28996 0.1914 0.0
C2221 C 0.70938 0.31345 0.18937 0.0
C2222 C 0.71432 0.27282 0.20929 0.0
C2223 C 0.69884 0.27913 0.22621 0.0
C2224 C 0.69101 0.30385 0.2266 0.0
C2225 C 0.6967 0.321 0.20884 0.0
C2226 C 0.65737 0.23596 0.25243 0.0
C2227 C 0.66999 0.21701 0.2628 0.0
C2228 C 0.66685 0.25705 0.24207 0.0
C2229 C 0.68917 0.25933 0.24137 0.0
C2230 C 0.70178 0.24089 0.25269 0.0
C2231 C 0.69223 0.21994 0.26344 0.0
loop_
_geom_bond_atom_site_label_1
_geom_bond_atom_site_label_2
_geom_bond_distance
_geom_bond_site_symmetry_2
_ccdc_geom_bond_type
C0 C1 1.443 . S
C0 N4 1.376 . S
C0 C38 1.389 . S
C1 C0 1.443 . S
C1 C2 1.340 . S
C1 H41 0.951 . S
C2 C1 1.340 . S
C2 C3 1.439 . S
C2 H42 0.950 . S
C3 C2 1.439 . S
C3 N4 1.374 . S
C3 C37 1.395 . S
N4 C0 1.376 . S
N4 C3 1.374 . S
N4 Co5 2.008 . S
Co5 N4 2.008 . S
Co5 N6 1.995 . S
Co5 N11 2.008 . S
Co5 N16 1.995 . S
Co5 N21 2.282 . S
Co5 N27 2.282 . S
N6 Co5 1.995 . S
N6 C7 1.376 . S
N6 C10 1.383 . S
C7 N6 1.376 . S
C7 C8 1.446 . S
C7 C37 1.391 . S
C8 C7 1.446 . S
C8 C9 1.339 . S
C8 H43 0.949 . S
C9 C8 1.339 . S
C9 C10 1.439 . S
C9 H44 0.950 . S
C10 N6 1.383 . S
C10 C9 1.439 . S
C10 C39 1.392 . S
N11 Co5 2.008 . S
N11 C12 1.376 . S
N11 C15 1.374 . S
C12 N11 1.376 . S
C12 C13 1.443 . S
C12 C39 1.389 . S
C13 C12 1.443 . S
C13 C14 1.340 . S
C13 H45 0.951 . S
C14 C13 1.340 . S
C14 C15 1.439 . S
C14 H46 0.950 . S
C15 N11 1.374 . S
C15 C14 1.439 . S
C15 C40 1.395 . S
N16 Co5 1.995 . S
N16 C17 1.376 . S
N16 C20 1.383 . S
C17 N16 1.376 . S
C17 C18 1.446 . S
C17 C40 1.391 . S
C18 C17 1.446 . S
C18 C19 1.339 . S
C18 H47 0.949 . S
C19 C18 1.339 . S
C19 C20 1.439 . S
C19 H48 0.950 . S
C20 N16 1.383 . S
C20 C19 1.439 . S
C20 C38 1.392 . S
N21 Co5 2.282 . S
N21 C24 1.332 . S
N21 C26 1.332 . S
C22 C23 1.386 . S
C22 C25 1.388 . S
C23 C22 1.386 . S
C23 C24 1.382 . S
C23 H49 0.950 . S
C24 N21 1.332 . S
C24 C23 1.382 . S
C24 H35 0.952 . S
C25 C22 1.388 . S
C25 C26 1.382 . S
C25 H50 0.950 . S
C26 N21 1.332 . S
C26 C25 1.382 . S
C26 H36 0.948 . S
N27 Co5 2.282 . S
N27 C31 1.332 . S
N27 C32 1.332 . S
C28 C29 1.388 . S
C28 C32 1.382 . S
C28 H51 0.950 . S
C29 C28 1.388 . S
C29 C30 1.386 . S
C30 C29 1.386 . S
C30 C31 1.382 . S
C30 H52 0.950 . S
C31 N27 1.332 . S
C31 C30 1.382 . S
C31 H33 0.952 . S
C32 N27 1.332 . S
C32 C28 1.382 . S
C32 H34 0.948 . S
H33 C31 0.952 . S
H34 C32 0.948 . S
H35 C24 0.952 . S
H36 C26 0.948 . S
C37 C3 1.395 . S
C37 C7 1.391 . S
C38 C0 1.389 . S
C38 C20 1.392 . S
C39 C10 1.392 . S
C39 C12 1.389 . S
C40 C15 1.395 . S
C40 C17 1.391 . S
H41 C1 0.951 . S
H42 C2 0.950 . S
H43 C8 0.949 . S
H44 C9 0.950 . S
H45 C13 0.951 . S
H46 C14 0.950 . S
H47 C18 0.949 . S
H48 C19 0.950 . S
H49 C23 0.950 . S
H50 C25 0.950 . S
H51 C28 0.950 . S
H52 C30 0.950 . S
C53 C54 1.443 . S
C53 N57 1.376 . S
C53 C91 1.389 . S
C54 C53 1.443 . S
C54 C55 1.340 . S
C54 H94 0.951 . S
C55 C54 1.340 . S
C55 C56 1.439 . S
C55 H95 0.950 . S
C56 C55 1.439 . S
C56 N57 1.374 . S
C56 C90 1.395 . S
N57 C53 1.376 . S
N57 C56 1.374 . S
N57 Co58 2.008 . S
Co58 N57 2.008 . S
Co58 N59 1.995 . S
Co58 N64 2.008 . S
Co58 N69 1.995 . S
Co58 N74 2.282 . S
Co58 N80 2.282 . S
N59 Co58 1.995 . S
N59 C60 1.376 . S
N59 C63 1.383 . S
C60 N59 1.376 . S
C60 C61 1.446 . S
C60 C90 1.391 . S
C61 C60 1.446 . S
C61 C62 1.339 . S
C61 H96 0.949 . S
C62 C61 1.339 . S
C62 C63 1.439 . S
C62 H97 0.950 . S
C63 N59 1.383 . S
C63 C62 1.439 . S
C63 C92 1.392 . S
N64 Co58 2.008 . S
N64 C65 1.376 . S
N64 C68 1.374 . S
C65 N64 1.376 . S
C65 C66 1.443 . S
C65 C92 1.389 . S
C66 C65 1.443 . S
C66 C67 1.340 . S
C66 H98 0.951 . S
C67 C66 1.340 . S
C67 C68 1.439 . S
C67 H99 0.950 . S
C68 N64 1.374 . S
C68 C67 1.439 . S
C68 C93 1.395 . S
N69 Co58 1.995 . S
N69 C70 1.376 . S
N69 C73 1.383 . S
C70 N69 1.376 . S
C70 C71 1.446 . S
C70 C93 1.391 . S
C71 C70 1.446 . S
C71 C72 1.339 . S
C71 H100 0.949 . S
C72 C71 1.339 . S
C72 C73 1.439 . S
C72 H101 0.950 . S
C73 N69 1.383 . S
C73 C72 1.439 . S
C73 C91 1.392 . S
N74 Co58 2.282 . S
N74 C77 1.332 . S
N74 C79 1.332 . S
C75 C76 1.386 . S
C75 C78 1.388 . S
C76 C75 1.386 . S
C76 C77 1.382 . S
C76 H102 0.950 . S
C77 N74 1.332 . S
C77 C76 1.382 . S
C77 H88 0.952 . S
C78 C75 1.388 . S
C78 C79 1.382 . S
C78 H103 0.950 . S
C79 N74 1.332 . S
C79 C78 1.382 . S
C79 H89 0.948 . S
N80 Co58 2.282 . S
N80 C84 1.332 . S
N80 C85 1.332 . S
C81 C82 1.388 . S
C81 C85 1.382 . S
C81 H104 0.950 . S
C82 C81 1.388 . S
C82 C83 1.386 . S
C83 C82 1.386 . S
C83 C84 1.382 . S
C83 H105 0.950 . S
C84 N80 1.332 . S
C84 C83 1.382 . S
C84 H86 0.952 . S
C85 N80 1.332 . S
C85 C81 1.382 . S
C85 H87 0.948 . S
H86 C84 0.952 . S
H87 C85 0.948 . S
H88 C77 0.952 . S
H89 C79 0.948 . S
C90 C56 1.395 . S
C90 C60 1.391 . S
C91 C53 1.389 . S
C91 C73 1.392 . S
C92 C63 1.392 . S
C92 C65 1.389 . S
C93 C68 1.395 . S
C93 C70 1.391 . S
H94 C54 0.951 . S
H95 C55 0.950 . S
H96 C61 0.949 . S
H97 C62 0.950 . S
H98 C66 0.951 . S
H99 C67 0.950 . S
H100 C71 0.949 . S
H101 C72 0.950 . S
H102 C76 0.950 . S
H103 C78 0.950 . S
H104 C81 0.950 . S
H105 C83 0.950 . S
C106 C107 1.443 . S
C106 N110 1.376 . S
C106 C144 1.389 . S
C107 C106 1.443 . S
C107 C108 1.340 . S
C107 H147 0.951 . S
C108 C107 1.340 . S
C108 C109 1.439 . S
C108 H148 0.950 . S
C109 C108 1.439 . S
C109 N110 1.374 . S
C109 C143 1.395 . S
N110 C106 1.376 . S
N110 C109 1.374 . S
N110 Co111 2.008 . S
Co111 N110 2.008 . S
Co111 N112 1.995 . S
Co111 N117 2.008 . S
Co111 N122 1.995 . S
Co111 N127 2.282 . S
Co111 N133 2.282 . S
N112 Co111 1.995 . S
N112 C113 1.376 . S
N112 C116 1.383 . S
C113 N112 1.376 . S
C113 C114 1.446 . S
C113 C143 1.391 . S
C114 C113 1.446 . S
C114 C115 1.339 . S
C114 H149 0.949 . S
C115 C114 1.339 . S
C115 C116 1.439 . S
C115 H150 0.950 . S
C116 N112 1.383 . S
C116 C115 1.439 . S
C116 C145 1.392 . S
N117 Co111 2.008 . S
N117 C118 1.376 . S
N117 C121 1.374 . S
C118 N117 1.376 . S
C118 C119 1.443 . S
C118 C145 1.389 . S
C119 C118 1.443 . S
C119 C120 1.340 . S
C119 H151 0.951 . S
C120 C119 1.340 . S
C120 C121 1.439 . S
C120 H152 0.950 . S
C121 N117 1.374 . S
C121 C120 1.439 . S
C121 C146 1.395 . S
N122 Co111 1.995 . S
N122 C123 1.376 . S
N122 C126 1.383 . S
C123 N122 1.376 . S
C123 C124 1.446 . S
C123 C146 1.391 . S
C124 C123 1.446 . S
C124 C125 1.339 . S
C124 H153 0.949 . S
C125 C124 1.339 . S
C125 C126 1.439 . S
C125 H154 0.950 . S
C126 N122 1.383 . S
C126 C125 1.439 . S
C126 C144 1.392 . S
N127 Co111 2.282 . S
N127 C130 1.332 . S
N127 C132 1.332 . S
C128 C129 1.386 . S
C128 C131 1.388 . S
C129 C128 1.386 . S
C129 C130 1.382 . S
C129 H155 0.950 . S
C130 N127 1.332 . S
C130 C129 1.382 . S
C130 H141 0.952 . S
C131 C128 1.388 . S
C131 C132 1.382 . S
C131 H156 0.950 . S
C132 N127 1.332 . S
C132 C131 1.382 . S
C132 H142 0.948 . S
N133 Co111 2.282 . S
N133 C137 1.332 . S
N133 C138 1.332 . S
C134 C135 1.388 . S
C134 C138 1.382 . S
C134 H157 0.950 . S
C135 C134 1.388 . S
C135 C136 1.386 . S
C136 C135 1.386 . S
C136 C137 1.382 . S
C136 H158 0.950 . S
C137 N133 1.332 . S
C137 C136 1.382 . S
C137 H139 0.952 . S
C138 N133 1.332 . S
C138 C134 1.382 . S
C138 H140 0.948 . S
H139 C137 0.952 . S
H140 C138 0.948 . S
H141 C130 0.952 . S
H142 C132 0.948 . S
C143 C109 1.395 . S
C143 C113 1.391 . S
C144 C106 1.389 . S
C144 C126 1.392 . S
C145 C116 1.392 . S
C145 C118 1.389 . S
C146 C121 1.395 . S
C146 C123 1.391 . S
H147 C107 0.951 . S
H148 C108 0.950 . S
H149 C114 0.949 . S
H150 C115 0.950 . S
H151 C119 0.951 . S
H152 C120 0.950 . S
H153 C124 0.949 . S
H154 C125 0.950 . S
H155 C129 0.950 . S
H156 C131 0.950 . S
H157 C134 0.950 . S
H158 C136 0.950 . S
C159 C160 1.443 . S
C159 N163 1.376 . S
C159 C197 1.389 . S
C160 C159 1.443 . S
C160 C161 1.340 . S
C160 H200 0.951 . S
C161 C160 1.340 . S
C161 C162 1.439 . S
C161 H201 0.950 . S
C162 C161 1.439 . S
C162 N163 1.374 . S
C162 C196 1.395 . S
N163 C159 1.376 . S
N163 C162 1.374 . S
N163 Co164 2.008 . S
Co164 N163 2.008 . S
Co164 N165 1.995 . S
Co164 N170 2.008 . S
Co164 N175 1.995 . S
Co164 N180 2.282 . S
Co164 N186 2.282 . S
N165 Co164 1.995 . S
N165 C166 1.376 . S
N165 C169 1.383 . S
C166 N165 1.376 . S
C166 C167 1.446 . S
C166 C196 1.391 . S
C167 C166 1.446 . S
C167 C168 1.339 . S
C167 H202 0.949 . S
C168 C167 1.339 . S
C168 C169 1.439 . S
C168 H203 0.950 . S
C169 N165 1.383 . S
C169 C168 1.439 . S
C169 C198 1.392 . S
N170 Co164 2.008 . S
N170 C171 1.376 . S
N170 C174 1.374 . S
C171 N170 1.376 . S
C171 C172 1.443 . S
C171 C198 1.389 . S
C172 C171 1.443 . S
C172 C173 1.340 . S
C172 H204 0.951 . S
C173 C172 1.340 . S
C173 C174 1.439 . S
C173 H205 0.950 . S
C174 N170 1.374 . S
C174 C173 1.439 . S
C174 C199 1.395 . S
N175 Co164 1.995 . S
N175 C176 1.376 . S
N175 C179 1.383 . S
C176 N175 1.376 . S
C176 C177 1.446 . S
C176 C199 1.391 . S
C177 C176 1.446 . S
C177 C178 1.339 . S
C177 H206 0.949 . S
C178 C177 1.339 . S
C178 C179 1.439 . S
C178 H207 0.950 . S
C179 N175 1.383 . S
C179 C178 1.439 . S
C179 C197 1.392 . S
N180 Co164 2.282 . S
N180 C183 1.332 . S
N180 C185 1.332 . S
C181 C182 1.386 . S
C181 C184 1.388 . S
C182 C181 1.386 . S
C182 C183 1.382 . S
C182 H208 0.950 . S
C183 N180 1.332 . S
C183 C182 1.382 . S
C183 H194 0.952 . S
C184 C181 1.388 . S
C184 C185 1.382 . S
C184 H209 0.950 . S
C185 N180 1.332 . S
C185 C184 1.382 . S
C185 H195 0.948 . S
N186 Co164 2.282 . S
N186 C190 1.332 . S
N186 C191 1.332 . S
C187 C188 1.388 . S
C187 C191 1.382 . S
C187 H210 0.950 . S
C188 C187 1.388 . S
C188 C189 1.386 . S
C189 C188 1.386 . S
C189 C190 1.382 . S
C189 H211 0.950 . S
C190 N186 1.332 . S
C190 C189 1.382 . S
C190 H192 0.952 . S
C191 N186 1.332 . S
C191 C187 1.382 . S
C191 H193 0.948 . S
H192 C190 0.952 . S
H193 C191 0.948 . S
H194 C183 0.952 . S
H195 C185 0.948 . S
C196 C162 1.395 . S
C196 C166 1.391 . S
C197 C159 1.389 . S
C197 C179 1.392 . S
C198 C169 1.392 . S
C198 C171 1.389 . S
C199 C174 1.395 . S
C199 C176 1.391 . S
H200 C160 0.951 . S
H201 C161 0.950 . S
H202 C167 0.949 . S
H203 C168 0.950 . S
H204 C172 0.951 . S
H205 C173 0.950 . S
H206 C177 0.949 . S
H207 C178 0.950 . S
H208 C182 0.950 . S
H209 C184 0.950 . S
H210 C187 0.950 . S
H211 C189 0.950 . S
C212 C213 1.443 . S
C212 N216 1.376 . S
C212 C250 1.389 . S
C213 C212 1.443 . S
C213 C214 1.340 . S
C213 H253 0.951 . S
C214 C213 1.340 . S
C214 C215 1.439 . S
C214 H254 0.950 . S
C215 C214 1.439 . S
C215 N216 1.374 . S
C215 C249 1.395 . S
N216 C212 1.376 . S
N216 C215 1.374 . S
N216 Co217 2.008 . S
Co217 N216 2.008 . S
Co217 N218 1.995 . S
Co217 N223 2.008 . S
Co217 N228 1.995 . S
Co217 N233 2.282 . S
Co217 N239 2.282 . S
N218 Co217 1.995 . S
N218 C219 1.376 . S
N218 C222 1.383 . S
C219 N218 1.376 . S
C219 C220 1.446 . S
C219 C249 1.391 . S
C220 C219 1.446 . S
C220 C221 1.339 . S
C220 H255 0.949 . S
C221 C220 1.339 . S
C221 C222 1.439 . S
C221 H256 0.950 . S
C222 N218 1.383 . S
C222 C221 1.439 . S
C222 C251 1.392 . S
N223 Co217 2.008 . S
N223 C224 1.376 . S
N223 C227 1.374 . S
C224 N223 1.376 . S
C224 C225 1.443 . S
C224 C251 1.389 . S
C225 C224 1.443 . S
C225 C226 1.340 . S
C225 H257 0.951 . S
C226 C225 1.340 . S
C226 C227 1.439 . S
C226 H258 0.950 . S
C227 N223 1.374 . S
C227 C226 1.439 . S
C227 C252 1.395 . S
N228 Co217 1.995 . S
N228 C229 1.376 . S
N228 C232 1.383 . S
C229 N228 1.376 . S
C229 C230 1.446 . S
C229 C252 1.391 . S
C230 C229 1.446 . S
C230 C231 1.339 . S
C230 H259 0.949 . S
C231 C230 1.339 . S
C231 C232 1.439 . S
C231 H260 0.950 . S
C232 N228 1.383 . S
C232 C231 1.439 . S
C232 C250 1.392 . S
N233 Co217 2.282 . S
N233 C236 1.332 . S
N233 C238 1.332 . S
C234 C235 1.386 . S
C234 C237 1.388 . S
C235 C234 1.386 . S
C235 C236 1.382 . S
C235 H261 0.950 . S
C236 N233 1.332 . S
C236 C235 1.382 . S
C236 H247 0.952 . S
C237 C234 1.388 . S
C237 C238 1.382 . S
C237 H262 0.950 . S
C238 N233 1.332 . S
C238 C237 1.382 . S
C238 H248 0.948 . S
N239 Co217 2.282 . S
N239 C243 1.332 . S
N239 C244 1.332 . S
C240 C241 1.388 . S
C240 C244 1.382 . S
C240 H263 0.950 . S
C241 C240 1.388 . S
C241 C242 1.386 . S
C242 C241 1.386 . S
C242 C243 1.382 . S
C242 H264 0.950 . S
C243 N239 1.332 . S
C243 C242 1.382 . S
C243 H245 0.952 . S
C244 N239 1.332 . S
C244 C240 1.382 . S
C244 H246 0.948 . S
H245 C243 0.952 . S
H246 C244 0.948 . S
H247 C236 0.952 . S
H248 C238 0.948 . S
C249 C215 1.395 . S
C249 C219 1.391 . S
C250 C212 1.389 . S
C250 C232 1.392 . S
C251 C222 1.392 . S
C251 C224 1.389 . S
C252 C227 1.395 . S
C252 C229 1.391 . S
H253 C213 0.951 . S
H254 C214 0.950 . S
H255 C220 0.949 . S
H256 C221 0.950 . S
H257 C225 0.951 . S
H258 C226 0.950 . S
H259 C230 0.949 . S
H260 C231 0.950 . S
H261 C235 0.950 . S
H262 C237 0.950 . S
H263 C240 0.950 . S
H264 C242 0.950 . S
C265 C266 1.443 . S
C265 N269 1.376 . S
C265 C303 1.389 . S
C266 C265 1.443 . S
C266 C267 1.340 . S
C266 H306 0.951 . S
C267 C266 1.340 . S
C267 C268 1.439 . S
C267 H307 0.950 . S
C268 C267 1.439 . S
C268 N269 1.374 . S
C268 C302 1.395 . S
N269 C265 1.376 . S
N269 C268 1.374 . S
N269 Co270 2.008 . S
Co270 N269 2.008 . S
Co270 N271 1.995 . S
Co270 N276 2.008 . S
Co270 N281 1.995 . S
Co270 N286 2.282 . S
Co270 N292 2.282 . S
N271 Co270 1.995 . S
N271 C272 1.376 . S
N271 C275 1.383 . S
C272 N271 1.376 . S
C272 C273 1.446 . S
C272 C302 1.391 . S
C273 C272 1.446 . S
C273 C274 1.339 . S
C273 H308 0.949 . S
C274 C273 1.339 . S
C274 C275 1.439 . S
C274 H309 0.950 . S
C275 N271 1.383 . S
C275 C274 1.439 . S
C275 C304 1.392 . S
N276 Co270 2.008 . S
N276 C277 1.376 . S
N276 C280 1.374 . S
C277 N276 1.376 . S
C277 C278 1.443 . S
C277 C304 1.389 . S
C278 C277 1.443 . S
C278 C279 1.340 . S
C278 H310 0.951 . S
C279 C278 1.340 . S
C279 C280 1.439 . S
C279 H311 0.950 . S
C280 N276 1.374 . S
C280 C279 1.439 . S
C280 C305 1.395 . S
N281 Co270 1.995 . S
N281 C282 1.376 . S
N281 C285 1.383 . S
C282 N281 1.376 . S
C282 C283 1.446 . S
C282 C305 1.391 . S
C283 C282 1.446 . S
C283 C284 1.339 . S
C283 H312 0.949 . S
C284 C283 1.339 . S
C284 C285 1.439 . S
C284 H313 0.950 . S
C285 N281 1.383 . S
C285 C284 1.439 . S
C285 C303 1.392 . S
N286 Co270 2.282 . S
N286 C289 1.332 . S
N286 C291 1.332 . S
C287 C288 1.386 . S
C287 C290 1.388 . S
C288 C287 1.386 . S
C288 C289 1.382 . S
C288 H314 0.950 . S
C289 N286 1.332 . S
C289 C288 1.382 . S
C289 H300 0.952 . S
C290 C287 1.388 . S
C290 C291 1.382 . S
C290 H315 0.950 . S
C291 N286 1.332 . S
C291 C290 1.382 . S
C291 H301 0.948 . S
N292 Co270 2.282 . S
N292 C296 1.332 . S
N292 C297 1.332 . S
C293 C294 1.388 . S
C293 C297 1.382 . S
C293 H316 0.950 . S
C294 C293 1.388 . S
C294 C295 1.386 . S
C295 C294 1.386 . S
C295 C296 1.382 . S
C295 H317 0.950 . S
C296 N292 1.332 . S
C296 C295 1.382 . S
C296 H298 0.952 . S
C297 N292 1.332 . S
C297 C293 1.382 . S
C297 H299 0.948 . S
H298 C296 0.952 . S
H299 C297 0.948 . S
H300 C289 0.952 . S
H301 C291 0.948 . S
C302 C268 1.395 . S
C302 C272 1.391 . S
C303 C265 1.389 . S
C303 C285 1.392 . S
C304 C275 1.392 . S
C304 C277 1.389 . S
C305 C280 1.395 . S
C305 C282 1.391 . S
H306 C266 0.951 . S
H307 C267 0.950 . S
H308 C273 0.949 . S
H309 C274 0.950 . S
H310 C278 0.951 . S
H311 C279 0.950 . S
H312 C283 0.949 . S
H313 C284 0.950 . S
H314 C288 0.950 . S
H315 C290 0.950 . S
H316 C293 0.950 . S
H317 C295 0.950 . S
C318 C319 1.443 . S
C318 N322 1.376 . S
C318 C356 1.389 . S
C319 C318 1.443 . S
C319 C320 1.340 . S
C319 H359 0.951 . S
C320 C319 1.340 . S
C320 C321 1.439 . S
C320 H360 0.950 . S
C321 C320 1.439 . S
C321 N322 1.374 . S
C321 C355 1.395 . S
N322 C318 1.376 . S
N322 C321 1.374 . S
N322 Co323 2.008 . S
Co323 N322 2.008 . S
Co323 N324 1.995 . S
Co323 N329 2.008 . S
Co323 N334 1.995 . S
Co323 N339 2.282 . S
Co323 N345 2.282 . S
N324 Co323 1.995 . S
N324 C325 1.376 . S
N324 C328 1.383 . S
C325 N324 1.376 . S
C325 C326 1.446 . S
C325 C355 1.391 . S
C326 C325 1.446 . S
C326 C327 1.339 . S
C326 H361 0.949 . S
C327 C326 1.339 . S
C327 C328 1.439 . S
C327 H362 0.950 . S
C328 N324 1.383 . S
C328 C327 1.439 . S
C328 C357 1.392 . S
N329 Co323 2.008 . S
N329 C330 1.376 . S
N329 C333 1.374 . S
C330 N329 1.376 . S
C330 C331 1.443 . S
C330 C357 1.389 . S
C331 C330 1.443 . S
C331 C332 1.340 . S
C331 H363 0.951 . S
C332 C331 1.340 . S
C332 C333 1.439 . S
C332 H364 0.950 . S
C333 N329 1.374 . S
C333 C332 1.439 . S
C333 C358 1.395 . S
N334 Co323 1.995 . S
N334 C335 1.376 . S
N334 C338 1.383 . S
C335 N334 1.376 . S
C335 C336 1.446 . S
C335 C358 1.391 . S
C336 C335 1.446 . S
C336 C337 1.339 . S
C336 H365 0.949 . S
C337 C336 1.339 . S
C337 C338 1.439 . S
C337 H366 0.950 . S
C338 N334 1.383 . S
C338 C337 1.439 . S
C338 C356 1.392 . S
N339 Co323 2.282 . S
N339 C342 1.332 . S
N339 C344 1.332 . S
C340 C341 1.386 . S
C340 C343 1.388 . S
C341 C340 1.386 . S
C341 C342 1.382 . S
C341 H367 0.950 . S
C342 N339 1.332 . S
C342 C341 1.382 . S
C342 H353 0.952 . S
C343 C340 1.388 . S
C343 C344 1.382 . S
C343 H368 0.950 . S
C344 N339 1.332 . S
C344 C343 1.382 . S
C344 H354 0.948 . S
N345 Co323 2.282 . S
N345 C349 1.332 . S
N345 C350 1.332 . S
C346 C347 1.388 . S
C346 C350 1.382 . S
C346 H369 0.950 . S
C347 C346 1.388 . S
C347 C348 1.386 . S
C348 C347 1.386 . S
C348 C349 1.382 . S
C348 H370 0.950 . S
C349 N345 1.332 . S
C349 C348 1.382 . S
C349 H351 0.952 . S
C350 N345 1.332 . S
C350 C346 1.382 . S
C350 H352 0.948 . S
H351 C349 0.952 . S
H352 C350 0.948 . S
H353 C342 0.952 . S
H354 C344 0.948 . S
C355 C321 1.395 . S
C355 C325 1.391 . S
C356 C318 1.389 . S
C356 C338 1.392 . S
C357 C328 1.392 . S
C357 C330 1.389 . S
C358 C333 1.395 . S
C358 C335 1.391 . S
H359 C319 0.951 . S
H360 C320 0.950 . S
H361 C326 0.949 . S
H362 C327 0.950 . S
H363 C331 0.951 . S
H364 C332 0.950 . S
H365 C336 0.949 . S
H366 C337 0.950 . S
H367 C341 0.950 . S
H368 C343 0.950 . S
H369 C346 0.950 . S
H370 C348 0.950 . S
C371 C372 1.443 . S
C371 N375 1.376 . S
C371 C409 1.389 . S
C372 C371 1.443 . S
C372 C373 1.340 . S
C372 H412 0.951 . S
C373 C372 1.340 . S
C373 C374 1.439 . S
C373 H413 0.950 . S
C374 C373 1.439 . S
C374 N375 1.374 . S
C374 C408 1.395 . S
N375 C371 1.376 . S
N375 C374 1.374 . S
N375 Co376 2.008 . S
Co376 N375 2.008 . S
Co376 N377 1.995 . S
Co376 N382 2.008 . S
Co376 N387 1.995 . S
Co376 N392 2.282 . S
Co376 N398 2.282 . S
N377 Co376 1.995 . S
N377 C378 1.376 . S
N377 C381 1.383 . S
C378 N377 1.376 . S
C378 C379 1.446 . S
C378 C408 1.391 . S
C379 C378 1.446 . S
C379 C380 1.339 . S
C379 H414 0.949 . S
C380 C379 1.339 . S
C380 C381 1.439 . S
C380 H415 0.950 . S
C381 N377 1.383 . S
C381 C380 1.439 . S
C381 C410 1.392 . S
N382 Co376 2.008 . S
N382 C383 1.376 . S
N382 C386 1.374 . S
C383 N382 1.376 . S
C383 C384 1.443 . S
C383 C410 1.389 . S
C384 C383 1.443 . S
C384 C385 1.340 . S
C384 H416 0.951 . S
C385 C384 1.340 . S
C385 C386 1.439 . S
C385 H417 0.950 . S
C386 N382 1.374 . S
C386 C385 1.439 . S
C386 C411 1.395 . S
N387 Co376 1.995 . S
N387 C388 1.376 . S
N387 C391 1.383 . S
C388 N387 1.376 . S
C388 C389 1.446 . S
C388 C411 1.391 . S
C389 C388 1.446 . S
C389 C390 1.339 . S
C389 H418 0.949 . S
C390 C389 1.339 . S
C390 C391 1.439 . S
C390 H419 0.950 . S
C391 N387 1.383 . S
C391 C390 1.439 . S
C391 C409 1.392 . S
N392 Co376 2.282 . S
N392 C395 1.332 . S
N392 C397 1.332 . S
C393 C394 1.386 . S
C393 C396 1.388 . S
C394 C393 1.386 . S
C394 C395 1.382 . S
C394 H420 0.950 . S
C395 N392 1.332 . S
C395 C394 1.382 . S
C395 H406 0.952 . S
C396 C393 1.388 . S
C396 C397 1.382 . S
C396 H421 0.950 . S
C397 N392 1.332 . S
C397 C396 1.382 . S
C397 H407 0.948 . S
N398 Co376 2.282 . S
N398 C402 1.332 . S
N398 C403 1.332 . S
C399 C400 1.388 . S
C399 C403 1.382 . S
C399 H422 0.950 . S
C400 C399 1.388 . S
C400 C401 1.386 . S
C401 C400 1.386 . S
C401 C402 1.382 . S
C401 H423 0.950 . S
C402 N398 1.332 . S
C402 C401 1.382 . S
C402 H404 0.952 . S
C403 N398 1.332 . S
C403 C399 1.382 . S
C403 H405 0.948 . S
H404 C402 0.952 . S
H405 C403 0.948 . S
H406 C395 0.952 . S
H407 C397 0.948 . S
C408 C374 1.395 . S
C408 C378 1.391 . S
C409 C371 1.389 . S
C409 C391 1.392 . S
C410 C381 1.392 . S
C410 C383 1.389 . S
C411 C386 1.395 . S
C411 C388 1.391 . S
H412 C372 0.951 . S
H413 C373 0.950 . S
H414 C379 0.949 . S
H415 C380 0.950 . S
H416 C384 0.951 . S
H417 C385 0.950 . S
H418 C389 0.949 . S
H419 C390 0.950 . S
H420 C394 0.950 . S
H421 C396 0.950 . S
H422 C399 0.950 . S
H423 C401 0.950 . S
C424 C425 1.443 . S
C424 N428 1.376 . S
C424 C462 1.389 . S
C425 C424 1.443 . S
C425 C426 1.340 . S
C425 H465 0.951 . S
C426 C425 1.340 . S
C426 C427 1.439 . S
C426 H466 0.950 . S
C427 C426 1.439 . S
C427 N428 1.374 . S
C427 C461 1.395 . S
N428 C424 1.376 . S
N428 C427 1.374 . S
N428 Co429 2.008 . S
Co429 N428 2.008 . S
Co429 N430 1.995 . S
Co429 N435 2.008 . S
Co429 N440 1.995 . S
Co429 N445 2.282 . S
Co429 N451 2.282 . S
N430 Co429 1.995 . S
N430 C431 1.376 . S
N430 C434 1.383 . S
C431 N430 1.376 . S
C431 C432 1.446 . S
C431 C461 1.391 . S
C432 C431 1.446 . S
C432 C433 1.339 . S
C432 H467 0.949 . S
C433 C432 1.339 . S
C433 C434 1.439 . S
C433 H468 0.950 . S
C434 N430 1.383 . S
C434 C433 1.439 . S
C434 C463 1.392 . S
N435 Co429 2.008 . S
N435 C436 1.376 . S
N435 C439 1.374 . S
C436 N435 1.376 . S
C436 C437 1.443 . S
C436 C463 1.389 . S
C437 C436 1.443 . S
C437 C438 1.340 . S
C437 H469 0.951 . S
C438 C437 1.340 . S
C438 C439 1.439 . S
C438 H470 0.950 . S
C439 N435 1.374 . S
C439 C438 1.439 . S
C439 C464 1.395 . S
N440 Co429 1.995 . S
N440 C441 1.376 . S
N440 C444 1.383 . S
C441 N440 1.376 . S
C441 C442 1.446 . S
C441 C464 1.391 . S
C442 C441 1.446 . S
C442 C443 1.339 . S
C442 H471 0.949 . S
C443 C442 1.339 . S
C443 C444 1.439 . S
C443 H472 0.950 . S
C444 N440 1.383 . S
C444 C443 1.439 . S
C444 C462 1.392 . S
N445 Co429 2.282 . S
N445 C448 1.332 . S
N445 C450 1.332 . S
C446 C447 1.386 . S
C446 C449 1.388 . S
C447 C446 1.386 . S
C447 C448 1.382 . S
C447 H473 0.950 . S
C448 N445 1.332 . S
C448 C447 1.382 . S
C448 H459 0.952 . S
C449 C446 1.388 . S
C449 C450 1.382 . S
C449 H474 0.950 . S
C450 N445 1.332 . S
C450 C449 1.382 . S
C450 H460 0.948 . S
N451 Co429 2.282 . S
N451 C455 1.332 . S
N451 C456 1.332 . S
C452 C453 1.388 . S
C452 C456 1.382 . S
C452 H475 0.950 . S
C453 C452 1.388 . S
C453 C454 1.386 . S
C454 C453 1.386 . S
C454 C455 1.382 . S
C454 H476 0.950 . S
C455 N451 1.332 . S
C455 C454 1.382 . S
C455 H457 0.952 . S
C456 N451 1.332 . S
C456 C452 1.382 . S
C456 H458 0.948 . S
H457 C455 0.952 . S
H458 C456 0.948 . S
H459 C448 0.952 . S
H460 C450 0.948 . S
C461 C427 1.395 . S
C461 C431 1.391 . S
C462 C424 1.389 . S
C462 C444 1.392 . S
C463 C434 1.392 . S
C463 C436 1.389 . S
C464 C439 1.395 . S
C464 C441 1.391 . S
H465 C425 0.951 . S
H466 C426 0.950 . S
H467 C432 0.949 . S
H468 C433 0.950 . S
H469 C437 0.951 . S
H470 C438 0.950 . S
H471 C442 0.949 . S
H472 C443 0.950 . S
H473 C447 0.950 . S
H474 C449 0.950 . S
H475 C452 0.950 . S
H476 C454 0.950 . S
C477 C478 1.443 . S
C477 N481 1.376 . S
C477 C515 1.389 . S
C478 C477 1.443 . S
C478 C479 1.340 . S
C478 H518 0.951 . S
C479 C478 1.340 . S
C479 C480 1.439 . S
C479 H519 0.950 . S
C480 C479 1.439 . S
C480 N481 1.374 . S
C480 C514 1.395 . S
N481 C477 1.376 . S
N481 C480 1.374 . S
N481 Co482 2.008 . S
Co482 N481 2.008 . S
Co482 N483 1.995 . S
Co482 N488 2.008 . S
Co482 N493 1.995 . S
Co482 N498 2.282 . S
Co482 N504 2.282 . S
N483 Co482 1.995 . S
N483 C484 1.376 . S
N483 C487 1.383 . S
C484 N483 1.376 . S
C484 C485 1.446 . S
C484 C514 1.391 . S
C485 C484 1.446 . S
C485 C486 1.339 . S
C485 H520 0.949 . S
C486 C485 1.339 . S
C486 C487 1.439 . S
C486 H521 0.950 . S
C487 N483 1.383 . S
C487 C486 1.439 . S
C487 C516 1.392 . S
N488 Co482 2.008 . S
N488 C489 1.376 . S
N488 C492 1.374 . S
C489 N488 1.376 . S
C489 C490 1.443 . S
C489 C516 1.389 . S
C490 C489 1.443 . S
C490 C491 1.340 . S
C490 H522 0.951 . S
C491 C490 1.340 . S
C491 C492 1.439 . S
C491 H523 0.950 . S
C492 N488 1.374 . S
C492 C491 1.439 . S
C492 C517 1.395 . S
N493 Co482 1.995 . S
N493 C494 1.376 . S
N493 C497 1.383 . S
C494 N493 1.376 . S
C494 C495 1.446 . S
C494 C517 1.391 . S
C495 C494 1.446 . S
C495 C496 1.339 . S
C495 H524 0.949 . S
C496 C495 1.339 . S
C496 C497 1.439 . S
C496 H525 0.950 . S
C497 N493 1.383 . S
C497 C496 1.439 . S
C497 C515 1.392 . S
N498 Co482 2.282 . S
N498 C501 1.332 . S
N498 C503 1.332 . S
C499 C500 1.386 . S
C499 C502 1.388 . S
C500 C499 1.386 . S
C500 C501 1.382 . S
C500 H526 0.950 . S
C501 N498 1.332 . S
C501 C500 1.382 . S
C501 H512 0.952 . S
C502 C499 1.388 . S
C502 C503 1.382 . S
C502 H527 0.950 . S
C503 N498 1.332 . S
C503 C502 1.382 . S
C503 H513 0.948 . S
N504 Co482 2.282 . S
N504 C508 1.332 . S
N504 C509 1.332 . S
C505 C506 1.388 . S
C505 C509 1.382 . S
C505 H528 0.950 . S
C506 C505 1.388 . S
C506 C507 1.386 . S
C507 C506 1.386 . S
C507 C508 1.382 . S
C507 H529 0.950 . S
C508 N504 1.332 . S
C508 C507 1.382 . S
C508 H510 0.952 . S
C509 N504 1.332 . S
C509 C505 1.382 . S
C509 H511 0.948 . S
H510 C508 0.952 . S
H511 C509 0.948 . S
H512 C501 0.952 . S
H513 C503 0.948 . S
C514 C480 1.395 . S
C514 C484 1.391 . S
C515 C477 1.389 . S
C515 C497 1.392 . S
C516 C487 1.392 . S
C516 C489 1.389 . S
C517 C492 1.395 . S
C517 C494 1.391 . S
H518 C478 0.951 . S
H519 C479 0.950 . S
H520 C485 0.949 . S
H521 C486 0.950 . S
H522 C490 0.951 . S
H523 C491 0.950 . S
H524 C495 0.949 . S
H525 C496 0.950 . S
H526 C500 0.950 . S
H527 C502 0.950 . S
H528 C505 0.950 . S
H529 C507 0.950 . S
C530 C531 1.443 . S
C530 N534 1.376 . S
C530 C568 1.389 . S
C531 C530 1.443 . S
C531 C532 1.340 . S
C531 H571 0.951 . S
C532 C531 1.340 . S
C532 C533 1.439 . S
C532 H572 0.950 . S
C533 C532 1.439 . S
C533 N534 1.374 . S
C533 C567 1.395 . S
N534 C530 1.376 . S
N534 C533 1.374 . S
N534 Co535 2.008 . S
Co535 N534 2.008 . S
Co535 N536 1.995 . S
Co535 N541 2.008 . S
Co535 N546 1.995 . S
Co535 N551 2.282 . S
Co535 N557 2.282 . S
N536 Co535 1.995 . S
N536 C537 1.376 . S
N536 C540 1.383 . S
C537 N536 1.376 . S
C537 C538 1.446 . S
C537 C567 1.391 . S
C538 C537 1.446 . S
C538 C539 1.339 . S
C538 H573 0.949 . S
C539 C538 1.339 . S
C539 C540 1.439 . S
C539 H574 0.950 . S
C540 N536 1.383 . S
C540 C539 1.439 . S
C540 C569 1.392 . S
N541 Co535 2.008 . S
N541 C542 1.376 . S
N541 C545 1.374 . S
C542 N541 1.376 . S
C542 C543 1.443 . S
C542 C569 1.389 . S
C543 C542 1.443 . S
C543 C544 1.340 . S
C543 H575 0.951 . S
C544 C543 1.340 . S
C544 C545 1.439 . S
C544 H576 0.950 . S
C545 N541 1.374 . S
C545 C544 1.439 . S
C545 C570 1.395 . S
N546 Co535 1.995 . S
N546 C547 1.376 . S
N546 C550 1.383 . S
C547 N546 1.376 . S
C547 C548 1.446 . S
C547 C570 1.391 . S
C548 C547 1.446 . S
C548 C549 1.339 . S
C548 H577 0.949 . S
C549 C548 1.339 . S
C549 C550 1.439 . S
C549 H578 0.950 . S
C550 N546 1.383 . S
C550 C549 1.439 . S
C550 C568 1.392 . S
N551 Co535 2.282 . S
N551 C554 1.332 . S
N551 C556 1.332 . S
C552 C553 1.386 . S
C552 C555 1.388 . S
C553 C552 1.386 . S
C553 C554 1.382 . S
C553 H579 0.950 . S
C554 N551 1.332 . S
C554 C553 1.382 . S
C554 H565 0.952 . S
C555 C552 1.388 . S
C555 C556 1.382 . S
C555 H580 0.950 . S
C556 N551 1.332 . S
C556 C555 1.382 . S
C556 H566 0.948 . S
N557 Co535 2.282 . S
N557 C561 1.332 . S
N557 C562 1.332 . S
C558 C559 1.388 . S
C558 C562 1.382 . S
C558 H581 0.950 . S
C559 C558 1.388 . S
C559 C560 1.386 . S
C560 C559 1.386 . S
C560 C561 1.382 . S
C560 H582 0.950 . S
C561 N557 1.332 . S
C561 C560 1.382 . S
C561 H563 0.952 . S
C562 N557 1.332 . S
C562 C558 1.382 . S
C562 H564 0.948 . S
H563 C561 0.952 . S
H564 C562 0.948 . S
H565 C554 0.952 . S
H566 C556 0.948 . S
C567 C533 1.395 . S
C567 C537 1.391 . S
C568 C530 1.389 . S
C568 C550 1.392 . S
C569 C540 1.392 . S
C569 C542 1.389 . S
C570 C545 1.395 . S
C570 C547 1.391 . S
H571 C531 0.951 . S
H572 C532 0.950 . S
H573 C538 0.949 . S
H574 C539 0.950 . S
H575 C543 0.951 . S
H576 C544 0.950 . S
H577 C548 0.949 . S
H578 C549 0.950 . S
H579 C553 0.950 . S
H580 C555 0.950 . S
H581 C558 0.950 . S
H582 C560 0.950 . S
C583 C584 1.443 . S
C583 N587 1.376 . S
C583 C621 1.389 . S
C584 C583 1.443 . S
C584 C585 1.340 . S
C584 H624 0.951 . S
C585 C584 1.340 . S
C585 C586 1.439 . S
C585 H625 0.950 . S
C586 C585 1.439 . S
C586 N587 1.374 . S
C586 C620 1.395 . S
N587 C583 1.376 . S
N587 C586 1.374 . S
N587 Co588 2.008 . S
Co588 N587 2.008 . S
Co588 N589 1.995 . S
Co588 N594 2.008 . S
Co588 N599 1.995 . S
Co588 N604 2.282 . S
Co588 N610 2.282 . S
N589 Co588 1.995 . S
N589 C590 1.376 . S
N589 C593 1.383 . S
C590 N589 1.376 . S
C590 C591 1.446 . S
C590 C620 1.391 . S
C591 C590 1.446 . S
C591 C592 1.339 . S
C591 H626 0.949 . S
C592 C591 1.339 . S
C592 C593 1.439 . S
C592 H627 0.950 . S
C593 N589 1.383 . S
C593 C592 1.439 . S
C593 C622 1.392 . S
N594 Co588 2.008 . S
N594 C595 1.376 . S
N594 C598 1.374 . S
C595 N594 1.376 . S
C595 C596 1.443 . S
C595 C622 1.389 . S
C596 C595 1.443 . S
C596 C597 1.340 . S
C596 H628 0.951 . S
C597 C596 1.340 . S
C597 C598 1.439 . S
C597 H629 0.950 . S
C598 N594 1.374 . S
C598 C597 1.439 . S
C598 C623 1.395 . S
N599 Co588 1.995 . S
N599 C600 1.376 . S
N599 C603 1.383 . S
C600 N599 1.376 . S
C600 C601 1.446 . S
C600 C623 1.391 . S
C601 C600 1.446 . S
C601 C602 1.339 . S
C601 H630 0.949 . S
C602 C601 1.339 . S
C602 C603 1.439 . S
C602 H631 0.950 . S
C603 N599 1.383 . S
C603 C602 1.439 . S
C603 C621 1.392 . S
N604 Co588 2.282 . S
N604 C607 1.332 . S
N604 C609 1.332 . S
C605 C606 1.386 . S
C605 C608 1.388 . S
C606 C605 1.386 . S
C606 C607 1.382 . S
C606 H632 0.950 . S
C607 N604 1.332 . S
C607 C606 1.382 . S
C607 H618 0.952 . S
C608 C605 1.388 . S
C608 C609 1.382 . S
C608 H633 0.950 . S
C609 N604 1.332 . S
C609 C608 1.382 . S
C609 H619 0.948 . S
N610 Co588 2.282 . S
N610 C614 1.332 . S
N610 C615 1.332 . S
C611 C612 1.388 . S
C611 C615 1.382 . S
C611 H634 0.950 . S
C612 C611 1.388 . S
C612 C613 1.386 . S
C613 C612 1.386 . S
C613 C614 1.382 . S
C613 H635 0.950 . S
C614 N610 1.332 . S
C614 C613 1.382 . S
C614 H616 0.952 . S
C615 N610 1.332 . S
C615 C611 1.382 . S
C615 H617 0.948 . S
H616 C614 0.952 . S
H617 C615 0.948 . S
H618 C607 0.952 . S
H619 C609 0.948 . S
C620 C586 1.395 . S
C620 C590 1.391 . S
C621 C583 1.389 . S
C621 C603 1.392 . S
C622 C593 1.392 . S
C622 C595 1.389 . S
C623 C598 1.395 . S
C623 C600 1.391 . S
H624 C584 0.951 . S
H625 C585 0.950 . S
H626 C591 0.949 . S
H627 C592 0.950 . S
H628 C596 0.951 . S
H629 C597 0.950 . S
H630 C601 0.949 . S
H631 C602 0.950 . S
H632 C606 0.950 . S
H633 C608 0.950 . S
H634 C611 0.950 . S
H635 C613 0.950 . S
C636 C637 1.443 . S
C636 N640 1.376 . S
C636 C674 1.389 . S
C637 C636 1.443 . S
C637 C638 1.340 . S
C637 H677 0.951 . S
C638 C637 1.340 . S
C638 C639 1.439 . S
C638 H678 0.950 . S
C639 C638 1.439 . S
C639 N640 1.374 . S
C639 C673 1.395 . S
N640 C636 1.376 . S
N640 C639 1.374 . S
N640 Co641 2.008 . S
Co641 N640 2.008 . S
Co641 N642 1.995 . S
Co641 N647 2.008 . S
Co641 N652 1.995 . S
Co641 N657 2.282 . S
Co641 N663 2.282 . S
N642 Co641 1.995 . S
N642 C643 1.376 . S
N642 C646 1.383 . S
C643 N642 1.376 . S
C643 C644 1.446 . S
C643 C673 1.391 . S
C644 C643 1.446 . S
C644 C645 1.339 . S
C644 H679 0.949 . S
C645 C644 1.339 . S
C645 C646 1.439 . S
C645 H680 0.950 . S
C646 N642 1.383 . S
C646 C645 1.439 . S
C646 C675 1.392 . S
N647 Co641 2.008 . S
N647 C648 1.376 . S
N647 C651 1.374 . S
C648 N647 1.376 . S
C648 C649 1.443 . S
C648 C675 1.389 . S
C649 C648 1.443 . S
C649 C650 1.340 . S
C649 H681 0.951 . S
C650 C649 1.340 . S
C650 C651 1.439 . S
C650 H682 0.950 . S
C651 N647 1.374 . S
C651 C650 1.439 . S
C651 C676 1.395 . S
N652 Co641 1.995 . S
N652 C653 1.376 . S
N652 C656 1.383 . S
C653 N652 1.376 . S
C653 C654 1.446 . S
C653 C676 1.391 . S
C654 C653 1.446 . S
C654 C655 1.339 . S
C654 H683 0.949 . S
C655 C654 1.339 . S
C655 C656 1.439 . S
C655 H684 0.950 . S
C656 N652 1.383 . S
C656 C655 1.439 . S
C656 C674 1.392 . S
N657 Co641 2.282 . S
N657 C660 1.332 . S
N657 C662 1.332 . S
C658 C659 1.386 . S
C658 C661 1.388 . S
C659 C658 1.386 . S
C659 C660 1.382 . S
C659 H685 0.950 . S
C660 N657 1.332 . S
C660 C659 1.382 . S
C660 H671 0.952 . S
C661 C658 1.388 . S
C661 C662 1.382 . S
C661 H686 0.950 . S
C662 N657 1.332 . S
C662 C661 1.382 . S
C662 H672 0.948 . S
N663 Co641 2.282 . S
N663 C667 1.332 . S
N663 C668 1.332 . S
C664 C665 1.388 . S
C664 C668 1.382 . S
C664 H687 0.950 . S
C665 C664 1.388 . S
C665 C666 1.386 . S
C666 C665 1.386 . S
C666 C667 1.382 . S
C666 H688 0.950 . S
C667 N663 1.332 . S
C667 C666 1.382 . S
C667 H669 0.952 . S
C668 N663 1.332 . S
C668 C664 1.382 . S
C668 H670 0.948 . S
H669 C667 0.952 . S
H670 C668 0.948 . S
H671 C660 0.952 . S
H672 C662 0.948 . S
C673 C639 1.395 . S
C673 C643 1.391 . S
C674 C636 1.389 . S
C674 C656 1.392 . S
C675 C646 1.392 . S
C675 C648 1.389 . S
C676 C651 1.395 . S
C676 C653 1.391 . S
H677 C637 0.951 . S
H678 C638 0.950 . S
H679 C644 0.949 . S
H680 C645 0.950 . S
H681 C649 0.951 . S
H682 C650 0.950 . S
H683 C654 0.949 . S
H684 C655 0.950 . S
H685 C659 0.950 . S
H686 C661 0.950 . S
H687 C664 0.950 . S
H688 C666 0.950 . S
C689 C690 1.443 . S
C689 N693 1.376 . S
C689 C727 1.389 . S
C690 C689 1.443 . S
C690 C691 1.340 . S
C690 H730 0.951 . S
C691 C690 1.340 . S
C691 C692 1.439 . S
C691 H731 0.950 . S
C692 C691 1.439 . S
C692 N693 1.374 . S
C692 C726 1.395 . S
N693 C689 1.376 . S
N693 C692 1.374 . S
N693 Co694 2.008 . S
Co694 N693 2.008 . S
Co694 N695 1.995 . S
Co694 N700 2.008 . S
Co694 N705 1.995 . S
Co694 N710 2.282 . S
Co694 N716 2.282 . S
N695 Co694 1.995 . S
N695 C696 1.376 . S
N695 C699 1.383 . S
C696 N695 1.376 . S
C696 C697 1.446 . S
C696 C726 1.391 . S
C697 C696 1.446 . S
C697 C698 1.339 . S
C697 H732 0.949 . S
C698 C697 1.339 . S
C698 C699 1.439 . S
C698 H733 0.950 . S
C699 N695 1.383 . S
C699 C698 1.439 . S
C699 C728 1.392 . S
N700 Co694 2.008 . S
N700 C701 1.376 . S
N700 C704 1.374 . S
C701 N700 1.376 . S
C701 C702 1.443 . S
C701 C728 1.389 . S
C702 C701 1.443 . S
C702 C703 1.340 . S
C702 H734 0.951 . S
C703 C702 1.340 . S
C703 C704 1.439 . S
C703 H735 0.950 . S
C704 N700 1.374 . S
C704 C703 1.439 . S
C704 C729 1.395 . S
N705 Co694 1.995 . S
N705 C706 1.376 . S
N705 C709 1.383 . S
C706 N705 1.376 . S
C706 C707 1.446 . S
C706 C729 1.391 . S
C707 C706 1.446 . S
C707 C708 1.339 . S
C707 H736 0.949 . S
C708 C707 1.339 . S
C708 C709 1.439 . S
C708 H737 0.950 . S
C709 N705 1.383 . S
C709 C708 1.439 . S
C709 C727 1.392 . S
N710 Co694 2.282 . S
N710 C713 1.332 . S
N710 C715 1.332 . S
C711 C712 1.386 . S
C711 C714 1.388 . S
C712 C711 1.386 . S
C712 C713 1.382 . S
C712 H738 0.950 . S
C713 N710 1.332 . S
C713 C712 1.382 . S
C713 H724 0.952 . S
C714 C711 1.388 . S
C714 C715 1.382 . S
C714 H739 0.950 . S
C715 N710 1.332 . S
C715 C714 1.382 . S
C715 H725 0.948 . S
N716 Co694 2.282 . S
N716 C720 1.332 . S
N716 C721 1.332 . S
C717 C718 1.388 . S
C717 C721 1.382 . S
C717 H740 0.950 . S
C718 C717 1.388 . S
C718 C719 1.386 . S
C719 C718 1.386 . S
C719 C720 1.382 . S
C719 H741 0.950 . S
C720 N716 1.332 . S
C720 C719 1.382 . S
C720 H722 0.952 . S
C721 N716 1.332 . S
C721 C717 1.382 . S
C721 H723 0.948 . S
H722 C720 0.952 . S
H723 C721 0.948 . S
H724 C713 0.952 . S
H725 C715 0.948 . S
C726 C692 1.395 . S
C726 C696 1.391 . S
C727 C689 1.389 . S
C727 C709 1.392 . S
C728 C699 1.392 . S
C728 C701 1.389 . S
C729 C704 1.395 . S
C729 C706 1.391 . S
H730 C690 0.951 . S
H731 C691 0.950 . S
H732 C697 0.949 . S
H733 C698 0.950 . S
H734 C702 0.951 . S
H735 C703 0.950 . S
H736 C707 0.949 . S
H737 C708 0.950 . S
H738 C712 0.950 . S
H739 C714 0.950 . S
H740 C717 0.950 . S
H741 C719 0.950 . S
C742 C743 1.443 . S
C742 N746 1.376 . S
C742 C780 1.389 . S
C743 C742 1.443 . S
C743 C744 1.340 . S
C743 H783 0.951 . S
C744 C743 1.340 . S
C744 C745 1.439 . S
C744 H784 0.950 . S
C745 C744 1.439 . S
C745 N746 1.374 . S
C745 C779 1.395 . S
N746 C742 1.376 . S
N746 C745 1.374 . S
N746 Co747 2.008 . S
Co747 N746 2.008 . S
Co747 N748 1.995 . S
Co747 N753 2.008 . S
Co747 N758 1.995 . S
Co747 N763 2.282 . S
Co747 N769 2.282 . S
N748 Co747 1.995 . S
N748 C749 1.376 . S
N748 C752 1.383 . S
C749 N748 1.376 . S
C749 C750 1.446 . S
C749 C779 1.391 . S
C750 C749 1.446 . S
C750 C751 1.339 . S
C750 H785 0.949 . S
C751 C750 1.339 . S
C751 C752 1.439 . S
C751 H786 0.950 . S
C752 N748 1.383 . S
C752 C751 1.439 . S
C752 C781 1.392 . S
N753 Co747 2.008 . S
N753 C754 1.376 . S
N753 C757 1.374 . S
C754 N753 1.376 . S
C754 C755 1.443 . S
C754 C781 1.389 . S
C755 C754 1.443 . S
C755 C756 1.340 . S
C755 H787 0.951 . S
C756 C755 1.340 . S
C756 C757 1.439 . S
C756 H788 0.950 . S
C757 N753 1.374 . S
C757 C756 1.439 . S
C757 C782 1.395 . S
N758 Co747 1.995 . S
N758 C759 1.376 . S
N758 C762 1.383 . S
C759 N758 1.376 . S
C759 C760 1.446 . S
C759 C782 1.391 . S
C760 C759 1.446 . S
C760 C761 1.339 . S
C760 H789 0.949 . S
C761 C760 1.339 . S
C761 C762 1.439 . S
C761 H790 0.950 . S
C762 N758 1.383 . S
C762 C761 1.439 . S
C762 C780 1.392 . S
N763 Co747 2.282 . S
N763 C766 1.332 . S
N763 C768 1.332 . S
C764 C765 1.386 . S
C764 C767 1.388 . S
C765 C764 1.386 . S
C765 C766 1.382 . S
C765 H791 0.950 . S
C766 N763 1.332 . S
C766 C765 1.382 . S
C766 H777 0.952 . S
C767 C764 1.388 . S
C767 C768 1.382 . S
C767 H792 0.950 . S
C768 N763 1.332 . S
C768 C767 1.382 . S
C768 H778 0.948 . S
N769 Co747 2.282 . S
N769 C773 1.332 . S
N769 C774 1.332 . S
C770 C771 1.388 . S
C770 C774 1.382 . S
C770 H793 0.950 . S
C771 C770 1.388 . S
C771 C772 1.386 . S
C772 C771 1.386 . S
C772 C773 1.382 . S
C772 H794 0.950 . S
C773 N769 1.332 . S
C773 C772 1.382 . S
C773 H775 0.952 . S
C774 N769 1.332 . S
C774 C770 1.382 . S
C774 H776 0.948 . S
H775 C773 0.952 . S
H776 C774 0.948 . S
H777 C766 0.952 . S
H778 C768 0.948 . S
C779 C745 1.395 . S
C779 C749 1.391 . S
C780 C742 1.389 . S
C780 C762 1.392 . S
C781 C752 1.392 . S
C781 C754 1.389 . S
C782 C757 1.395 . S
C782 C759 1.391 . S
H783 C743 0.951 . S
H784 C744 0.950 . S
H785 C750 0.949 . S
H786 C751 0.950 . S
H787 C755 0.951 . S
H788 C756 0.950 . S
H789 C760 0.949 . S
H790 C761 0.950 . S
H791 C765 0.950 . S
H792 C767 0.950 . S
H793 C770 0.950 . S
H794 C772 0.950 . S
C795 C796 1.443 . S
C795 N799 1.376 . S
C795 C833 1.389 . S
C796 C795 1.443 . S
C796 C797 1.340 . S
C796 H836 0.951 . S
C797 C796 1.340 . S
C797 C798 1.439 . S
C797 H837 0.950 . S
C798 C797 1.439 . S
C798 N799 1.374 . S
C798 C832 1.395 . S
N799 C795 1.376 . S
N799 C798 1.374 . S
N799 Co800 2.008 . S
Co800 N799 2.008 . S
Co800 N801 1.995 . S
Co800 N806 2.008 . S
Co800 N811 1.995 . S
Co800 N816 2.282 . S
Co800 N822 2.282 . S
N801 Co800 1.995 . S
N801 C802 1.376 . S
N801 C805 1.383 . S
C802 N801 1.376 . S
C802 C803 1.446 . S
C802 C832 1.391 . S
C803 C802 1.446 . S
C803 C804 1.339 . S
C803 H838 0.949 . S
C804 C803 1.339 . S
C804 C805 1.439 . S
C804 H839 0.950 . S
C805 N801 1.383 . S
C805 C804 1.439 . S
C805 C834 1.392 . S
N806 Co800 2.008 . S
N806 C807 1.376 . S
N806 C810 1.374 . S
C807 N806 1.376 . S
C807 C808 1.443 . S
C807 C834 1.389 . S
C808 C807 1.443 . S
C808 C809 1.340 . S
C808 H840 0.951 . S
C809 C808 1.340 . S
C809 C810 1.439 . S
C809 H841 0.950 . S
C810 N806 1.374 . S
C810 C809 1.439 . S
C810 C835 1.395 . S
N811 Co800 1.995 . S
N811 C812 1.376 . S
N811 C815 1.383 . S
C812 N811 1.376 . S
C812 C813 1.446 . S
C812 C835 1.391 . S
C813 C812 1.446 . S
C813 C814 1.339 . S
C813 H842 0.949 . S
C814 C813 1.339 . S
C814 C815 1.439 . S
C814 H843 0.950 . S
C815 N811 1.383 . S
C815 C814 1.439 . S
C815 C833 1.392 . S
N816 Co800 2.282 . S
N816 C819 1.332 . S
N816 C821 1.332 . S
C817 C818 1.386 . S
C817 C820 1.388 . S
C818 C817 1.386 . S
C818 C819 1.382 . S
C818 H844 0.950 . S
C819 N816 1.332 . S
C819 C818 1.382 . S
C819 H830 0.952 . S
C820 C817 1.388 . S
C820 C821 1.382 . S
C820 H845 0.950 . S
C821 N816 1.332 . S
C821 C820 1.382 . S
C821 H831 0.948 . S
N822 Co800 2.282 . S
N822 C826 1.332 . S
N822 C827 1.332 . S
C823 C824 1.388 . S
C823 C827 1.382 . S
C823 H846 0.950 . S
C824 C823 1.388 . S
C824 C825 1.386 . S
C825 C824 1.386 . S
C825 C826 1.382 . S
C825 H847 0.950 . S
C826 N822 1.332 . S
C826 C825 1.382 . S
C826 H828 0.952 . S
C827 N822 1.332 . S
C827 C823 1.382 . S
C827 H829 0.948 . S
H828 C826 0.952 . S
H829 C827 0.948 . S
H830 C819 0.952 . S
H831 C821 0.948 . S
C832 C798 1.395 . S
C832 C802 1.391 . S
C833 C795 1.389 . S
C833 C815 1.392 . S
C834 C805 1.392 . S
C834 C807 1.389 . S
C835 C810 1.395 . S
C835 C812 1.391 . S
H836 C796 0.951 . S
H837 C797 0.950 . S
H838 C803 0.949 . S
H839 C804 0.950 . S
H840 C808 0.951 . S
H841 C809 0.950 . S
H842 C813 0.949 . S
H843 C814 0.950 . S
H844 C818 0.950 . S
H845 C820 0.950 . S
H846 C823 0.950 . S
H847 C825 0.950 . S
C848 C849 1.443 . S
C848 N852 1.376 . S
C848 C886 1.389 . S
C849 C848 1.443 . S
C849 C850 1.340 . S
C849 H889 0.951 . S
C850 C849 1.340 . S
C850 C851 1.439 . S
C850 H890 0.950 . S
C851 C850 1.439 . S
C851 N852 1.374 . S
C851 C885 1.395 . S
N852 C848 1.376 . S
N852 C851 1.374 . S
N852 Co853 2.008 . S
Co853 N852 2.008 . S
Co853 N854 1.995 . S
Co853 N859 2.008 . S
Co853 N864 1.995 . S
Co853 N869 2.282 . S
Co853 N875 2.282 . S
N854 Co853 1.995 . S
N854 C855 1.376 . S
N854 C858 1.383 . S
C855 N854 1.376 . S
C855 C856 1.446 . S
C855 C885 1.391 . S
C856 C855 1.446 . S
C856 C857 1.339 . S
C856 H891 0.949 . S
C857 C856 1.339 . S
C857 C858 1.439 . S
C857 H892 0.950 . S
C858 N854 1.383 . S
C858 C857 1.439 . S
C858 C887 1.392 . S
N859 Co853 2.008 . S
N859 C860 1.376 . S
N859 C863 1.374 . S
C860 N859 1.376 . S
C860 C861 1.443 . S
C860 C887 1.389 . S
C861 C860 1.443 . S
C861 C862 1.340 . S
C861 H893 0.951 . S
C862 C861 1.340 . S
C862 C863 1.439 . S
C862 H894 0.950 . S
C863 N859 1.374 . S
C863 C862 1.439 . S
C863 C888 1.395 . S
N864 Co853 1.995 . S
N864 C865 1.376 . S
N864 C868 1.383 . S
C865 N864 1.376 . S
C865 C866 1.446 . S
C865 C888 1.391 . S
C866 C865 1.446 . S
C866 C867 1.339 . S
C866 H895 0.949 . S
C867 C866 1.339 . S
C867 C868 1.439 . S
C867 H896 0.950 . S
C868 N864 1.383 . S
C868 C867 1.439 . S
C868 C886 1.392 . S
N869 Co853 2.282 . S
N869 C872 1.332 . S
N869 C874 1.332 . S
C870 C871 1.386 . S
C870 C873 1.388 . S
C871 C870 1.386 . S
C871 C872 1.382 . S
C871 H897 0.950 . S
C872 N869 1.332 . S
C872 C871 1.382 . S
C872 H883 0.952 . S
C873 C870 1.388 . S
C873 C874 1.382 . S
C873 H898 0.950 . S
C874 N869 1.332 . S
C874 C873 1.382 . S
C874 H884 0.948 . S
N875 Co853 2.282 . S
N875 C879 1.332 . S
N875 C880 1.332 . S
C876 C877 1.388 . S
C876 C880 1.382 . S
C876 H899 0.950 . S
C877 C876 1.388 . S
C877 C878 1.386 . S
C878 C877 1.386 . S
C878 C879 1.382 . S
C878 H900 0.950 . S
C879 N875 1.332 . S
C879 C878 1.382 . S
C879 H881 0.952 . S
C880 N875 1.332 . S
C880 C876 1.382 . S
C880 H882 0.948 . S
H881 C879 0.952 . S
H882 C880 0.948 . S
H883 C872 0.952 . S
H884 C874 0.948 . S
C885 C851 1.395 . S
C885 C855 1.391 . S
C886 C848 1.389 . S
C886 C868 1.392 . S
C887 C858 1.392 . S
C887 C860 1.389 . S
C888 C863 1.395 . S
C888 C865 1.391 . S
H889 C849 0.951 . S
H890 C850 0.950 . S
H891 C856 0.949 . S
H892 C857 0.950 . S
H893 C861 0.951 . S
H894 C862 0.950 . S
H895 C866 0.949 . S
H896 C867 0.950 . S
H897 C871 0.950 . S
H898 C873 0.950 . S
H899 C876 0.950 . S
H900 C878 0.950 . S
C901 C902 1.443 . S
C901 N905 1.376 . S
C901 C939 1.389 . S
C902 C901 1.443 . S
C902 C903 1.340 . S
C902 H942 0.951 . S
C903 C902 1.340 . S
C903 C904 1.439 . S
C903 H943 0.950 . S
C904 C903 1.439 . S
C904 N905 1.374 . S
C904 C938 1.395 . S
N905 C901 1.376 . S
N905 C904 1.374 . S
N905 Co906 2.008 . S
Co906 N905 2.008 . S
Co906 N907 1.995 . S
Co906 N912 2.008 . S
Co906 N917 1.995 . S
Co906 N922 2.282 . S
Co906 N928 2.282 . S
N907 Co906 1.995 . S
N907 C908 1.376 . S
N907 C911 1.383 . S
C908 N907 1.376 . S
C908 C909 1.446 . S
C908 C938 1.391 . S
C909 C908 1.446 . S
C909 C910 1.339 . S
C909 H944 0.949 . S
C910 C909 1.339 . S
C910 C911 1.439 . S
C910 H945 0.950 . S
C911 N907 1.383 . S
C911 C910 1.439 . S
C911 C940 1.392 . S
N912 Co906 2.008 . S
N912 C913 1.376 . S
N912 C916 1.374 . S
C913 N912 1.376 . S
C913 C914 1.443 . S
C913 C940 1.389 . S
C914 C913 1.443 . S
C914 C915 1.340 . S
C914 H946 0.951 . S
C915 C914 1.340 . S
C915 C916 1.439 . S
C915 H947 0.950 . S
C916 N912 1.374 . S
C916 C915 1.439 . S
C916 C941 1.395 . S
N917 Co906 1.995 . S
N917 C918 1.376 . S
N917 C921 1.383 . S
C918 N917 1.376 . S
C918 C919 1.446 . S
C918 C941 1.391 . S
C919 C918 1.446 . S
C919 C920 1.339 . S
C919 H948 0.949 . S
C920 C919 1.339 . S
C920 C921 1.439 . S
C920 H949 0.950 . S
C921 N917 1.383 . S
C921 C920 1.439 . S
C921 C939 1.392 . S
N922 Co906 2.282 . S
N922 C925 1.332 . S
N922 C927 1.332 . S
C923 C924 1.386 . S
C923 C926 1.388 . S
C924 C923 1.386 . S
C924 C925 1.382 . S
C924 H950 0.950 . S
C925 N922 1.332 . S
C925 C924 1.382 . S
C925 H936 0.952 . S
C926 C923 1.388 . S
C926 C927 1.382 . S
C926 H951 0.950 . S
C927 N922 1.332 . S
C927 C926 1.382 . S
C927 H937 0.948 . S
N928 Co906 2.282 . S
N928 C932 1.332 . S
N928 C933 1.332 . S
C929 C930 1.388 . S
C929 C933 1.382 . S
C929 H952 0.950 . S
C930 C929 1.388 . S
C930 C931 1.386 . S
C931 C930 1.386 . S
C931 C932 1.382 . S
C931 H953 0.950 . S
C932 N928 1.332 . S
C932 C931 1.382 . S
C932 H934 0.952 . S
C933 N928 1.332 . S
C933 C929 1.382 . S
C933 H935 0.948 . S
H934 C932 0.952 . S
H935 C933 0.948 . S
H936 C925 0.952 . S
H937 C927 0.948 . S
C938 C904 1.395 . S
C938 C908 1.391 . S
C939 C901 1.389 . S
C939 C921 1.392 . S
C940 C911 1.392 . S
C940 C913 1.389 . S
C941 C916 1.395 . S
C941 C918 1.391 . S
H942 C902 0.951 . S
H943 C903 0.950 . S
H944 C909 0.949 . S
H945 C910 0.950 . S
H946 C914 0.951 . S
H947 C915 0.950 . S
H948 C919 0.949 . S
H949 C920 0.950 . S
H950 C924 0.950 . S
H951 C926 0.950 . S
H952 C929 0.950 . S
H953 C931 0.950 . S
C954 C955 1.443 . S
C954 N958 1.376 . S
C954 C992 1.389 . S
C955 C954 1.443 . S
C955 C956 1.340 . S
C955 H995 0.951 . S
C956 C955 1.340 . S
C956 C957 1.439 . S
C956 H996 0.950 . S
C957 C956 1.439 . S
C957 N958 1.374 . S
C957 C991 1.395 . S
N958 C954 1.376 . S
N958 C957 1.374 . S
N958 Co959 2.008 . S
Co959 N958 2.008 . S
Co959 N960 1.995 . S
Co959 N965 2.008 . S
Co959 N970 1.995 . S
Co959 N975 2.282 . S
Co959 N981 2.282 . S
N960 Co959 1.995 . S
N960 C961 1.376 . S
N960 C964 1.383 . S
C961 N960 1.376 . S
C961 C962 1.446 . S
C961 C991 1.391 . S
C962 C961 1.446 . S
C962 C963 1.339 . S
C962 H997 0.949 . S
C963 C962 1.339 . S
C963 C964 1.439 . S
C963 H998 0.950 . S
C964 N960 1.383 . S
C964 C963 1.439 . S
C964 C993 1.392 . S
N965 Co959 2.008 . S
N965 C966 1.376 . S
N965 C969 1.374 . S
C966 N965 1.376 . S
C966 C967 1.443 . S
C966 C993 1.389 . S
C967 C966 1.443 . S
C967 C968 1.340 . S
C967 H999 0.951 . S
C968 C967 1.340 . S
C968 C969 1.439 . S
C968 H1000 0.950 . S
C969 N965 1.374 . S
C969 C968 1.439 . S
C969 C994 1.395 . S
N970 Co959 1.995 . S
N970 C971 1.376 . S
N970 C974 1.383 . S
C971 N970 1.376 . S
C971 C972 1.446 . S
C971 C994 1.391 . S
C972 C971 1.446 . S
C972 C973 1.339 . S
C972 H1001 0.949 . S
C973 C972 1.339 . S
C973 C974 1.439 . S
C973 H1002 0.950 . S
C974 N970 1.383 . S
C974 C973 1.439 . S
C974 C992 1.392 . S
N975 Co959 2.282 . S
N975 C978 1.332 . S
N975 C980 1.332 . S
C976 C977 1.386 . S
C976 C979 1.388 . S
C977 C976 1.386 . S
C977 C978 1.382 . S
C977 H1003 0.950 . S
C978 N975 1.332 . S
C978 C977 1.382 . S
C978 H989 0.952 . S
C979 C976 1.388 . S
C979 C980 1.382 . S
C979 H1004 0.950 . S
C980 N975 1.332 . S
C980 C979 1.382 . S
C980 H990 0.948 . S
N981 Co959 2.282 . S
N981 C985 1.332 . S
N981 C986 1.332 . S
C982 C983 1.388 . S
C982 C986 1.382 . S
C982 H1005 0.950 . S
C983 C982 1.388 . S
C983 C984 1.386 . S
C984 C983 1.386 . S
C984 C985 1.382 . S
C984 H1006 0.950 . S
C985 N981 1.332 . S
C985 C984 1.382 . S
C985 H987 0.952 . S
C986 N981 1.332 . S
C986 C982 1.382 . S
C986 H988 0.948 . S
H987 C985 0.952 . S
H988 C986 0.948 . S
H989 C978 0.952 . S
H990 C980 0.948 . S
C991 C957 1.395 . S
C991 C961 1.391 . S
C992 C954 1.389 . S
C992 C974 1.392 . S
C993 C964 1.392 . S
C993 C966 1.389 . S
C994 C969 1.395 . S
C994 C971 1.391 . S
H995 C955 0.951 . S
H996 C956 0.950 . S
H997 C962 0.949 . S
H998 C963 0.950 . S
H999 C967 0.951 . S
H1000 C968 0.950 . S
H1001 C972 0.949 . S
H1002 C973 0.950 . S
H1003 C977 0.950 . S
H1004 C979 0.950 . S
H1005 C982 0.950 . S
H1006 C984 0.950 . S
C1007 C1008 1.443 . S
C1007 N1011 1.376 . S
C1007 C1045 1.389 . S
C1008 C1007 1.443 . S
C1008 C1009 1.340 . S
C1008 H1048 0.951 . S
C1009 C1008 1.340 . S
C1009 C1010 1.439 . S
C1009 H1049 0.950 . S
C1010 C1009 1.439 . S
C1010 N1011 1.374 . S
C1010 C1044 1.395 . S
N1011 C1007 1.376 . S
N1011 C1010 1.374 . S
N1011 Co1012 2.008 . S
Co1012 N1011 2.008 . S
Co1012 N1013 1.995 . S
Co1012 N1018 2.008 . S
Co1012 N1023 1.995 . S
Co1012 N1028 2.282 . S
Co1012 N1034 2.282 . S
N1013 Co1012 1.995 . S
N1013 C1014 1.376 . S
N1013 C1017 1.383 . S
C1014 N1013 1.376 . S
C1014 C1015 1.446 . S
C1014 C1044 1.391 . S
C1015 C1014 1.446 . S
C1015 C1016 1.339 . S
C1015 H1050 0.949 . S
C1016 C1015 1.339 . S
C1016 C1017 1.439 . S
C1016 H1051 0.950 . S
C1017 N1013 1.383 . S
C1017 C1016 1.439 . S
C1017 C1046 1.392 . S
N1018 Co1012 2.008 . S
N1018 C1019 1.376 . S
N1018 C1022 1.374 . S
C1019 N1018 1.376 . S
C1019 C1020 1.443 . S
C1019 C1046 1.389 . S
C1020 C1019 1.443 . S
C1020 C1021 1.340 . S
C1020 H1052 0.951 . S
C1021 C1020 1.340 . S
C1021 C1022 1.439 . S
C1021 H1053 0.950 . S
C1022 N1018 1.374 . S
C1022 C1021 1.439 . S
C1022 C1047 1.395 . S
N1023 Co1012 1.995 . S
N1023 C1024 1.376 . S
N1023 C1027 1.383 . S
C1024 N1023 1.376 . S
C1024 C1025 1.446 . S
C1024 C1047 1.391 . S
C1025 C1024 1.446 . S
C1025 C1026 1.339 . S
C1025 H1054 0.949 . S
C1026 C1025 1.339 . S
C1026 C1027 1.439 . S
C1026 H1055 0.950 . S
C1027 N1023 1.383 . S
C1027 C1026 1.439 . S
C1027 C1045 1.392 . S
N1028 Co1012 2.282 . S
N1028 C1031 1.332 . S
N1028 C1033 1.332 . S
C1029 C1030 1.386 . S
C1029 C1032 1.388 . S
C1030 C1029 1.386 . S
C1030 C1031 1.382 . S
C1030 H1056 0.950 . S
C1031 N1028 1.332 . S
C1031 C1030 1.382 . S
C1031 H1042 0.952 . S
C1032 C1029 1.388 . S
C1032 C1033 1.382 . S
C1032 H1057 0.950 . S
C1033 N1028 1.332 . S
C1033 C1032 1.382 . S
C1033 H1043 0.948 . S
N1034 Co1012 2.282 . S
N1034 C1038 1.332 . S
N1034 C1039 1.332 . S
C1035 C1036 1.388 . S
C1035 C1039 1.382 . S
C1035 H1058 0.950 . S
C1036 C1035 1.388 . S
C1036 C1037 1.386 . S
C1037 C1036 1.386 . S
C1037 C1038 1.382 . S
C1037 H1059 0.950 . S
C1038 N1034 1.332 . S
C1038 C1037 1.382 . S
C1038 H1040 0.952 . S
C1039 N1034 1.332 . S
C1039 C1035 1.382 . S
C1039 H1041 0.948 . S
H1040 C1038 0.952 . S
H1041 C1039 0.948 . S
H1042 C1031 0.952 . S
H1043 C1033 0.948 . S
C1044 C1010 1.395 . S
C1044 C1014 1.391 . S
C1045 C1007 1.389 . S
C1045 C1027 1.392 . S
C1046 C1017 1.392 . S
C1046 C1019 1.389 . S
C1047 C1022 1.395 . S
C1047 C1024 1.391 . S
H1048 C1008 0.951 . S
H1049 C1009 0.950 . S
H1050 C1015 0.949 . S
H1051 C1016 0.950 . S
H1052 C1020 0.951 . S
H1053 C1021 0.950 . S
H1054 C1025 0.949 . S
H1055 C1026 0.950 . S
H1056 C1030 0.950 . S
H1057 C1032 0.950 . S
H1058 C1035 0.950 . S
H1059 C1037 0.950 . S
C1060 C1061 1.443 . S
C1060 N1064 1.376 . S
C1060 C1098 1.389 . S
C1061 C1060 1.443 . S
C1061 C1062 1.340 . S
C1061 H1101 0.951 . S
C1062 C1061 1.340 . S
C1062 C1063 1.439 . S
C1062 H1102 0.950 . S
C1063 C1062 1.439 . S
C1063 N1064 1.374 . S
C1063 C1097 1.395 . S
N1064 C1060 1.376 . S
N1064 C1063 1.374 . S
N1064 Co1065 2.008 . S
Co1065 N1064 2.008 . S
Co1065 N1066 1.995 . S
Co1065 N1071 2.008 . S
Co1065 N1076 1.995 . S
Co1065 N1081 2.282 . S
Co1065 N1087 2.282 . S
N1066 Co1065 1.995 . S
N1066 C1067 1.376 . S
N1066 C1070 1.383 . S
C1067 N1066 1.376 . S
C1067 C1068 1.446 . S
C1067 C1097 1.391 . S
C1068 C1067 1.446 . S
C1068 C1069 1.339 . S
C1068 H1103 0.949 . S
C1069 C1068 1.339 . S
C1069 C1070 1.439 . S
C1069 H1104 0.950 . S
C1070 N1066 1.383 . S
C1070 C1069 1.439 . S
C1070 C1099 1.392 . S
N1071 Co1065 2.008 . S
N1071 C1072 1.376 . S
N1071 C1075 1.374 . S
C1072 N1071 1.376 . S
C1072 C1073 1.443 . S
C1072 C1099 1.389 . S
C1073 C1072 1.443 . S
C1073 C1074 1.340 . S
C1073 H1105 0.951 . S
C1074 C1073 1.340 . S
C1074 C1075 1.439 . S
C1074 H1106 0.950 . S
C1075 N1071 1.374 . S
C1075 C1074 1.439 . S
C1075 C1100 1.395 . S
N1076 Co1065 1.995 . S
N1076 C1077 1.376 . S
N1076 C1080 1.383 . S
C1077 N1076 1.376 . S
C1077 C1078 1.446 . S
C1077 C1100 1.391 . S
C1078 C1077 1.446 . S
C1078 C1079 1.339 . S
C1078 H1107 0.949 . S
C1079 C1078 1.339 . S
C1079 C1080 1.439 . S
C1079 H1108 0.950 . S
C1080 N1076 1.383 . S
C1080 C1079 1.439 . S
C1080 C1098 1.392 . S
N1081 Co1065 2.282 . S
N1081 C1084 1.332 . S
N1081 C1086 1.332 . S
C1082 C1083 1.386 . S
C1082 C1085 1.388 . S
C1083 C1082 1.386 . S
C1083 C1084 1.382 . S
C1083 H1109 0.950 . S
C1084 N1081 1.332 . S
C1084 C1083 1.382 . S
C1084 H1095 0.952 . S
C1085 C1082 1.388 . S
C1085 C1086 1.382 . S
C1085 H1110 0.950 . S
C1086 N1081 1.332 . S
C1086 C1085 1.382 . S
C1086 H1096 0.948 . S
N1087 Co1065 2.282 . S
N1087 C1091 1.332 . S
N1087 C1092 1.332 . S
C1088 C1089 1.388 . S
C1088 C1092 1.382 . S
C1088 H1111 0.950 . S
C1089 C1088 1.388 . S
C1089 C1090 1.386 . S
C1090 C1089 1.386 . S
C1090 C1091 1.382 . S
C1090 H1112 0.950 . S
C1091 N1087 1.332 . S
C1091 C1090 1.382 . S
C1091 H1093 0.952 . S
C1092 N1087 1.332 . S
C1092 C1088 1.382 . S
C1092 H1094 0.948 . S
H1093 C1091 0.952 . S
H1094 C1092 0.948 . S
H1095 C1084 0.952 . S
H1096 C1086 0.948 . S
C1097 C1063 1.395 . S
C1097 C1067 1.391 . S
C1098 C1060 1.389 . S
C1098 C1080 1.392 . S
C1099 C1070 1.392 . S
C1099 C1072 1.389 . S
C1100 C1075 1.395 . S
C1100 C1077 1.391 . S
H1101 C1061 0.951 . S
H1102 C1062 0.950 . S
H1103 C1068 0.949 . S
H1104 C1069 0.950 . S
H1105 C1073 0.951 . S
H1106 C1074 0.950 . S
H1107 C1078 0.949 . S
H1108 C1079 0.950 . S
H1109 C1083 0.950 . S
H1110 C1085 0.950 . S
H1111 C1088 0.950 . S
H1112 C1090 0.950 . S
C1113 C1114 1.443 . S
C1113 N1117 1.376 . S
C1113 C1151 1.389 . S
C1114 C1113 1.443 . S
C1114 C1115 1.340 . S
C1114 H1154 0.951 . S
C1115 C1114 1.340 . S
C1115 C1116 1.439 . S
C1115 H1155 0.950 . S
C1116 C1115 1.439 . S
C1116 N1117 1.374 . S
C1116 C1150 1.395 . S
N1117 C1113 1.376 . S
N1117 C1116 1.374 . S
N1117 Co1118 2.008 . S
Co1118 N1117 2.008 . S
Co1118 N1119 1.995 . S
Co1118 N1124 2.008 . S
Co1118 N1129 1.995 . S
Co1118 N1134 2.282 . S
Co1118 N1140 2.282 . S
N1119 Co1118 1.995 . S
N1119 C1120 1.376 . S
N1119 C1123 1.383 . S
C1120 N1119 1.376 . S
C1120 C1121 1.446 . S
C1120 C1150 1.391 . S
C1121 C1120 1.446 . S
C1121 C1122 1.339 . S
C1121 H1156 0.949 . S
C1122 C1121 1.339 . S
C1122 C1123 1.439 . S
C1122 H1157 0.950 . S
C1123 N1119 1.383 . S
C1123 C1122 1.439 . S
C1123 C1152 1.392 . S
N1124 Co1118 2.008 . S
N1124 C1125 1.376 . S
N1124 C1128 1.374 . S
C1125 N1124 1.376 . S
C1125 C1126 1.443 . S
C1125 C1152 1.389 . S
C1126 C1125 1.443 . S
C1126 C1127 1.340 . S
C1126 H1158 0.951 . S
C1127 C1126 1.340 . S
C1127 C1128 1.439 . S
C1127 H1159 0.950 . S
C1128 N1124 1.374 . S
C1128 C1127 1.439 . S
C1128 C1153 1.395 . S
N1129 Co1118 1.995 . S
N1129 C1130 1.376 . S
N1129 C1133 1.383 . S
C1130 N1129 1.376 . S
C1130 C1131 1.446 . S
C1130 C1153 1.391 . S
C1131 C1130 1.446 . S
C1131 C1132 1.339 . S
C1131 H1160 0.949 . S
C1132 C1131 1.339 . S
C1132 C1133 1.439 . S
C1132 H1161 0.950 . S
C1133 N1129 1.383 . S
C1133 C1132 1.439 . S
C1133 C1151 1.392 . S
N1134 Co1118 2.282 . S
N1134 C1137 1.332 . S
N1134 C1139 1.332 . S
C1135 C1136 1.386 . S
C1135 C1138 1.388 . S
C1136 C1135 1.386 . S
C1136 C1137 1.382 . S
C1136 H1162 0.950 . S
C1137 N1134 1.332 . S
C1137 C1136 1.382 . S
C1137 H1148 0.952 . S
C1138 C1135 1.388 . S
C1138 C1139 1.382 . S
C1138 H1163 0.950 . S
C1139 N1134 1.332 . S
C1139 C1138 1.382 . S
C1139 H1149 0.948 . S
N1140 Co1118 2.282 . S
N1140 C1144 1.332 . S
N1140 C1145 1.332 . S
C1141 C1142 1.388 . S
C1141 C1145 1.382 . S
C1141 H1164 0.950 . S
C1142 C1141 1.388 . S
C1142 C1143 1.386 . S
C1143 C1142 1.386 . S
C1143 C1144 1.382 . S
C1143 H1165 0.950 . S
C1144 N1140 1.332 . S
C1144 C1143 1.382 . S
C1144 H1146 0.952 . S
C1145 N1140 1.332 . S
C1145 C1141 1.382 . S
C1145 H1147 0.948 . S
H1146 C1144 0.952 . S
H1147 C1145 0.948 . S
H1148 C1137 0.952 . S
H1149 C1139 0.948 . S
C1150 C1116 1.395 . S
C1150 C1120 1.391 . S
C1151 C1113 1.389 . S
C1151 C1133 1.392 . S
C1152 C1123 1.392 . S
C1152 C1125 1.389 . S
C1153 C1128 1.395 . S
C1153 C1130 1.391 . S
H1154 C1114 0.951 . S
H1155 C1115 0.950 . S
H1156 C1121 0.949 . S
H1157 C1122 0.950 . S
H1158 C1126 0.951 . S
H1159 C1127 0.950 . S
H1160 C1131 0.949 . S
H1161 C1132 0.950 . S
H1162 C1136 0.950 . S
H1163 C1138 0.950 . S
H1164 C1141 0.950 . S
H1165 C1143 0.950 . S
C1166 C1167 1.443 . S
C1166 N1170 1.376 . S
C1166 C1204 1.389 . S
C1167 C1166 1.443 . S
C1167 C1168 1.340 . S
C1167 H1207 0.951 . S
C1168 C1167 1.340 . S
C1168 C1169 1.439 . S
C1168 H1208 0.950 . S
C1169 C1168 1.439 . S
C1169 N1170 1.374 . S
C1169 C1203 1.395 . S
N1170 C1166 1.376 . S
N1170 C1169 1.374 . S
N1170 Co1171 2.008 . S
Co1171 N1170 2.008 . S
Co1171 N1172 1.995 . S
Co1171 N1177 2.008 . S
Co1171 N1182 1.995 . S
Co1171 N1187 2.282 . S
Co1171 N1193 2.282 . S
N1172 Co1171 1.995 . S
N1172 C1173 1.376 . S
N1172 C1176 1.383 . S
C1173 N1172 1.376 . S
C1173 C1174 1.446 . S
C1173 C1203 1.391 . S
C1174 C1173 1.446 . S
C1174 C1175 1.339 . S
C1174 H1209 0.949 . S
C1175 C1174 1.339 . S
C1175 C1176 1.439 . S
C1175 H1210 0.950 . S
C1176 N1172 1.383 . S
C1176 C1175 1.439 . S
C1176 C1205 1.392 . S
N1177 Co1171 2.008 . S
N1177 C1178 1.376 . S
N1177 C1181 1.374 . S
C1178 N1177 1.376 . S
C1178 C1179 1.443 . S
C1178 C1205 1.389 . S
C1179 C1178 1.443 . S
C1179 C1180 1.340 . S
C1179 H1211 0.951 . S
C1180 C1179 1.340 . S
C1180 C1181 1.439 . S
C1180 H1212 0.950 . S
C1181 N1177 1.374 . S
C1181 C1180 1.439 . S
C1181 C1206 1.395 . S
N1182 Co1171 1.995 . S
N1182 C1183 1.376 . S
N1182 C1186 1.383 . S
C1183 N1182 1.376 . S
C1183 C1184 1.446 . S
C1183 C1206 1.391 . S
C1184 C1183 1.446 . S
C1184 C1185 1.339 . S
C1184 H1213 0.949 . S
C1185 C1184 1.339 . S
C1185 C1186 1.439 . S
C1185 H1214 0.950 . S
C1186 N1182 1.383 . S
C1186 C1185 1.439 . S
C1186 C1204 1.392 . S
N1187 Co1171 2.282 . S
N1187 C1190 1.332 . S
N1187 C1192 1.332 . S
C1188 C1189 1.386 . S
C1188 C1191 1.388 . S
C1189 C1188 1.386 . S
C1189 C1190 1.382 . S
C1189 H1215 0.950 . S
C1190 N1187 1.332 . S
C1190 C1189 1.382 . S
C1190 H1201 0.952 . S
C1191 C1188 1.388 . S
C1191 C1192 1.382 . S
C1191 H1216 0.950 . S
C1192 N1187 1.332 . S
C1192 C1191 1.382 . S
C1192 H1202 0.948 . S
N1193 Co1171 2.282 . S
N1193 C1197 1.332 . S
N1193 C1198 1.332 . S
C1194 C1195 1.388 . S
C1194 C1198 1.382 . S
C1194 H1217 0.950 . S
C1195 C1194 1.388 . S
C1195 C1196 1.386 . S
C1196 C1195 1.386 . S
C1196 C1197 1.382 . S
C1196 H1218 0.950 . S
C1197 N1193 1.332 . S
C1197 C1196 1.382 . S
C1197 H1199 0.952 . S
C1198 N1193 1.332 . S
C1198 C1194 1.382 . S
C1198 H1200 0.948 . S
H1199 C1197 0.952 . S
H1200 C1198 0.948 . S
H1201 C1190 0.952 . S
H1202 C1192 0.948 . S
C1203 C1169 1.395 . S
C1203 C1173 1.391 . S
C1204 C1166 1.389 . S
C1204 C1186 1.392 . S
C1205 C1176 1.392 . S
C1205 C1178 1.389 . S
C1206 C1181 1.395 . S
C1206 C1183 1.391 . S
H1207 C1167 0.951 . S
H1208 C1168 0.950 . S
H1209 C1174 0.949 . S
H1210 C1175 0.950 . S
H1211 C1179 0.951 . S
H1212 C1180 0.950 . S
H1213 C1184 0.949 . S
H1214 C1185 0.950 . S
H1215 C1189 0.950 . S
H1216 C1191 0.950 . S
H1217 C1194 0.950 . S
H1218 C1196 0.950 . S
C1219 C1220 1.443 . S
C1219 N1223 1.376 . S
C1219 C1257 1.389 . S
C1220 C1219 1.443 . S
C1220 C1221 1.340 . S
C1220 H1260 0.951 . S
C1221 C1220 1.340 . S
C1221 C1222 1.439 . S
C1221 H1261 0.950 . S
C1222 C1221 1.439 . S
C1222 N1223 1.374 . S
C1222 C1256 1.395 . S
N1223 C1219 1.376 . S
N1223 C1222 1.374 . S
N1223 Co1224 2.008 . S
Co1224 N1223 2.008 . S
Co1224 N1225 1.995 . S
Co1224 N1230 2.008 . S
Co1224 N1235 1.995 . S
Co1224 N1240 2.282 . S
Co1224 N1246 2.282 . S
N1225 Co1224 1.995 . S
N1225 C1226 1.376 . S
N1225 C1229 1.383 . S
C1226 N1225 1.376 . S
C1226 C1227 1.446 . S
C1226 C1256 1.391 . S
C1227 C1226 1.446 . S
C1227 C1228 1.339 . S
C1227 H1262 0.949 . S
C1228 C1227 1.339 . S
C1228 C1229 1.439 . S
C1228 H1263 0.950 . S
C1229 N1225 1.383 . S
C1229 C1228 1.439 . S
C1229 C1258 1.392 . S
N1230 Co1224 2.008 . S
N1230 C1231 1.376 . S
N1230 C1234 1.374 . S
C1231 N1230 1.376 . S
C1231 C1232 1.443 . S
C1231 C1258 1.389 . S
C1232 C1231 1.443 . S
C1232 C1233 1.340 . S
C1232 H1264 0.951 . S
C1233 C1232 1.340 . S
C1233 C1234 1.439 . S
C1233 H1265 0.950 . S
C1234 N1230 1.374 . S
C1234 C1233 1.439 . S
C1234 C1259 1.395 . S
N1235 Co1224 1.995 . S
N1235 C1236 1.376 . S
N1235 C1239 1.383 . S
C1236 N1235 1.376 . S
C1236 C1237 1.446 . S
C1236 C1259 1.391 . S
C1237 C1236 1.446 . S
C1237 C1238 1.339 . S
C1237 H1266 0.949 . S
C1238 C1237 1.339 . S
C1238 C1239 1.439 . S
C1238 H1267 0.950 . S
C1239 N1235 1.383 . S
C1239 C1238 1.439 . S
C1239 C1257 1.392 . S
N1240 Co1224 2.282 . S
N1240 C1243 1.332 . S
N1240 C1245 1.332 . S
C1241 C1242 1.386 . S
C1241 C1244 1.388 . S
C1242 C1241 1.386 . S
C1242 C1243 1.382 . S
C1242 H1268 0.950 . S
C1243 N1240 1.332 . S
C1243 C1242 1.382 . S
C1243 H1254 0.952 . S
C1244 C1241 1.388 . S
C1244 C1245 1.382 . S
C1244 H1269 0.950 . S
C1245 N1240 1.332 . S
C1245 C1244 1.382 . S
C1245 H1255 0.948 . S
N1246 Co1224 2.282 . S
N1246 C1250 1.332 . S
N1246 C1251 1.332 . S
C1247 C1248 1.388 . S
C1247 C1251 1.382 . S
C1247 H1270 0.950 . S
C1248 C1247 1.388 . S
C1248 C1249 1.386 . S
C1249 C1248 1.386 . S
C1249 C1250 1.382 . S
C1249 H1271 0.950 . S
C1250 N1246 1.332 . S
C1250 C1249 1.382 . S
C1250 H1252 0.952 . S
C1251 N1246 1.332 . S
C1251 C1247 1.382 . S
C1251 H1253 0.948 . S
H1252 C1250 0.952 . S
H1253 C1251 0.948 . S
H1254 C1243 0.952 . S
H1255 C1245 0.948 . S
C1256 C1222 1.395 . S
C1256 C1226 1.391 . S
C1257 C1219 1.389 . S
C1257 C1239 1.392 . S
C1258 C1229 1.392 . S
C1258 C1231 1.389 . S
C1259 C1234 1.395 . S
C1259 C1236 1.391 . S
H1260 C1220 0.951 . S
H1261 C1221 0.950 . S
H1262 C1227 0.949 . S
H1263 C1228 0.950 . S
H1264 C1232 0.951 . S
H1265 C1233 0.950 . S
H1266 C1237 0.949 . S
H1267 C1238 0.950 . S
H1268 C1242 0.950 . S
H1269 C1244 0.950 . S
H1270 C1247 0.950 . S
H1271 C1249 0.950 . S
H1272 C1280 0.950 . S
H1273 C1285 0.950 . S
H1274 C1282 0.950 . S
H1275 C1284 0.950 . S
H1276 C1286 0.950 . S
H1277 C1288 0.950 . S
H1278 C1290 0.950 . S
H1279 C1291 0.950 . S
C1280 H1272 0.950 . S
C1280 C1281 1.386 . S
C1280 C1282 1.391 . S
C1281 C1280 1.386 . S
C1281 C1285 1.393 . S
C1282 H1274 0.950 . S
C1282 C1280 1.391 . S
C1282 C1283 1.400 . S
C1283 C1282 1.400 . S
C1283 C1284 1.398 . S
C1283 C1289 1.491 . S
C1284 H1275 0.950 . S
C1284 C1283 1.398 . S
C1284 C1285 1.391 . S
C1285 H1273 0.950 . S
C1285 C1281 1.393 . S
C1285 C1284 1.391 . S
C1286 H1276 0.950 . S
C1286 C1287 1.386 . S
C1286 C1288 1.391 . S
C1287 C1286 1.386 . S
C1287 C1291 1.393 . S
C1288 H1277 0.950 . S
C1288 C1286 1.391 . S
C1288 C1289 1.400 . S
C1289 C1283 1.491 . S
C1289 C1288 1.400 . S
C1289 C1290 1.398 . S
C1290 H1278 0.950 . S
C1290 C1289 1.398 . S
C1290 C1291 1.391 . S
C1291 H1279 0.950 . S
C1291 C1287 1.393 . S
C1291 C1290 1.391 . S
H1292 C1300 0.950 . S
H1293 C1305 0.950 . S
H1294 C1302 0.950 . S
H1295 C1304 0.950 . S
H1296 C1306 0.950 . S
H1297 C1308 0.950 . S
H1298 C1310 0.950 . S
H1299 C1311 0.950 . S
C1300 H1292 0.950 . S
C1300 C1301 1.386 . S
C1300 C1302 1.391 . S
C1301 C1300 1.386 . S
C1301 C1305 1.393 . S
C1302 H1294 0.950 . S
C1302 C1300 1.391 . S
C1302 C1303 1.400 . S
C1303 C1302 1.400 . S
C1303 C1304 1.398 . S
C1303 C1309 1.491 . S
C1304 H1295 0.950 . S
C1304 C1303 1.398 . S
C1304 C1305 1.391 . S
C1305 H1293 0.950 . S
C1305 C1301 1.393 . S
C1305 C1304 1.391 . S
C1306 H1296 0.950 . S
C1306 C1307 1.386 . S
C1306 C1308 1.391 . S
C1307 C1306 1.386 . S
C1307 C1311 1.393 . S
C1308 H1297 0.950 . S
C1308 C1306 1.391 . S
C1308 C1309 1.400 . S
C1309 C1303 1.491 . S
C1309 C1308 1.400 . S
C1309 C1310 1.398 . S
C1310 H1298 0.950 . S
C1310 C1309 1.398 . S
C1310 C1311 1.391 . S
C1311 H1299 0.950 . S
C1311 C1307 1.393 . S
C1311 C1310 1.391 . S
H1312 C1320 0.950 . S
H1313 C1325 0.950 . S
H1314 C1322 0.950 . S
H1315 C1324 0.950 . S
H1316 C1326 0.950 . S
H1317 C1328 0.950 . S
H1318 C1330 0.950 . S
H1319 C1331 0.950 . S
C1320 H1312 0.950 . S
C1320 C1321 1.386 . S
C1320 C1322 1.391 . S
C1321 C1320 1.386 . S
C1321 C1325 1.393 . S
C1322 H1314 0.950 . S
C1322 C1320 1.391 . S
C1322 C1323 1.400 . S
C1323 C1322 1.400 . S
C1323 C1324 1.398 . S
C1323 C1329 1.491 . S
C1324 H1315 0.950 . S
C1324 C1323 1.398 . S
C1324 C1325 1.391 . S
C1325 H1313 0.950 . S
C1325 C1321 1.393 . S
C1325 C1324 1.391 . S
C1326 H1316 0.950 . S
C1326 C1327 1.386 . S
C1326 C1328 1.391 . S
C1327 C1326 1.386 . S
C1327 C1331 1.393 . S
C1328 H1317 0.950 . S
C1328 C1326 1.391 . S
C1328 C1329 1.400 . S
C1329 C1323 1.491 . S
C1329 C1328 1.400 . S
C1329 C1330 1.398 . S
C1330 H1318 0.950 . S
C1330 C1329 1.398 . S
C1330 C1331 1.391 . S
C1331 H1319 0.950 . S
C1331 C1327 1.393 . S
C1331 C1330 1.391 . S
H1332 C1340 0.950 . S
H1333 C1345 0.950 . S
H1334 C1342 0.950 . S
H1335 C1344 0.950 . S
H1336 C1346 0.950 . S
H1337 C1348 0.950 . S
H1338 C1350 0.950 . S
H1339 C1351 0.950 . S
C1340 H1332 0.950 . S
C1340 C1341 1.386 . S
C1340 C1342 1.391 . S
C1341 C1340 1.386 . S
C1341 C1345 1.393 . S
C1342 H1334 0.950 . S
C1342 C1340 1.391 . S
C1342 C1343 1.400 . S
C1343 C1342 1.400 . S
C1343 C1344 1.398 . S
C1343 C1349 1.491 . S
C1344 H1335 0.950 . S
C1344 C1343 1.398 . S
C1344 C1345 1.391 . S
C1345 H1333 0.950 . S
C1345 C1341 1.393 . S
C1345 C1344 1.391 . S
C1346 H1336 0.950 . S
C1346 C1347 1.386 . S
C1346 C1348 1.391 . S
C1347 C1346 1.386 . S
C1347 C1351 1.393 . S
C1348 H1337 0.950 . S
C1348 C1346 1.391 . S
C1348 C1349 1.400 . S
C1349 C1343 1.491 . S
C1349 C1348 1.400 . S
C1349 C1350 1.398 . S
C1350 H1338 0.950 . S
C1350 C1349 1.398 . S
C1350 C1351 1.391 . S
C1351 H1339 0.950 . S
C1351 C1347 1.393 . S
C1351 C1350 1.391 . S
H1352 C1360 0.950 . S
H1353 C1365 0.950 . S
H1354 C1362 0.950 . S
H1355 C1364 0.950 . S
H1356 C1366 0.950 . S
H1357 C1368 0.950 . S
H1358 C1370 0.950 . S
H1359 C1371 0.950 . S
C1360 H1352 0.950 . S
C1360 C1361 1.386 . S
C1360 C1362 1.391 . S
C1361 C1360 1.386 . S
C1361 C1365 1.393 . S
C1362 H1354 0.950 . S
C1362 C1360 1.391 . S
C1362 C1363 1.400 . S
C1363 C1362 1.400 . S
C1363 C1364 1.398 . S
C1363 C1369 1.491 . S
C1364 H1355 0.950 . S
C1364 C1363 1.398 . S
C1364 C1365 1.391 . S
C1365 H1353 0.950 . S
C1365 C1361 1.393 . S
C1365 C1364 1.391 . S
C1366 H1356 0.950 . S
C1366 C1367 1.386 . S
C1366 C1368 1.391 . S
C1367 C1366 1.386 . S
C1367 C1371 1.393 . S
C1368 H1357 0.950 . S
C1368 C1366 1.391 . S
C1368 C1369 1.400 . S
C1369 C1363 1.491 . S
C1369 C1368 1.400 . S
C1369 C1370 1.398 . S
C1370 H1358 0.950 . S
C1370 C1369 1.398 . S
C1370 C1371 1.391 . S
C1371 H1359 0.950 . S
C1371 C1367 1.393 . S
C1371 C1370 1.391 . S
H1372 C1380 0.950 . S
H1373 C1385 0.950 . S
H1374 C1382 0.950 . S
H1375 C1384 0.950 . S
H1376 C1386 0.950 . S
H1377 C1388 0.950 . S
H1378 C1390 0.950 . S
H1379 C1391 0.950 . S
C1380 H1372 0.950 . S
C1380 C1381 1.386 . S
C1380 C1382 1.391 . S
C1381 C1380 1.386 . S
C1381 C1385 1.393 . S
C1382 H1374 0.950 . S
C1382 C1380 1.391 . S
C1382 C1383 1.400 . S
C1383 C1382 1.400 . S
C1383 C1384 1.398 . S
C1383 C1389 1.491 . S
C1384 H1375 0.950 . S
C1384 C1383 1.398 . S
C1384 C1385 1.391 . S
C1385 H1373 0.950 . S
C1385 C1381 1.393 . S
C1385 C1384 1.391 . S
C1386 H1376 0.950 . S
C1386 C1387 1.386 . S
C1386 C1388 1.391 . S
C1387 C1386 1.386 . S
C1387 C1391 1.393 . S
C1388 H1377 0.950 . S
C1388 C1386 1.391 . S
C1388 C1389 1.400 . S
C1389 C1383 1.491 . S
C1389 C1388 1.400 . S
C1389 C1390 1.398 . S
C1390 H1378 0.950 . S
C1390 C1389 1.398 . S
C1390 C1391 1.391 . S
C1391 H1379 0.950 . S
C1391 C1387 1.393 . S
C1391 C1390 1.391 . S
H1392 C1400 0.950 . S
H1393 C1405 0.950 . S
H1394 C1402 0.950 . S
H1395 C1404 0.950 . S
H1396 C1406 0.950 . S
H1397 C1408 0.950 . S
H1398 C1410 0.950 . S
H1399 C1411 0.950 . S
C1400 H1392 0.950 . S
C1400 C1401 1.386 . S
C1400 C1402 1.391 . S
C1401 C1400 1.386 . S
C1401 C1405 1.393 . S
C1402 H1394 0.950 . S
C1402 C1400 1.391 . S
C1402 C1403 1.400 . S
C1403 C1402 1.400 . S
C1403 C1404 1.398 . S
C1403 C1409 1.491 . S
C1404 H1395 0.950 . S
C1404 C1403 1.398 . S
C1404 C1405 1.391 . S
C1405 H1393 0.950 . S
C1405 C1401 1.393 . S
C1405 C1404 1.391 . S
C1406 H1396 0.950 . S
C1406 C1407 1.386 . S
C1406 C1408 1.391 . S
C1407 C1406 1.386 . S
C1407 C1411 1.393 . S
C1408 H1397 0.950 . S
C1408 C1406 1.391 . S
C1408 C1409 1.400 . S
C1409 C1403 1.491 . S
C1409 C1408 1.400 . S
C1409 C1410 1.398 . S
C1410 H1398 0.950 . S
C1410 C1409 1.398 . S
C1410 C1411 1.391 . S
C1411 H1399 0.950 . S
C1411 C1407 1.393 . S
C1411 C1410 1.391 . S
H1412 C1420 0.950 . S
H1413 C1425 0.950 . S
H1414 C1422 0.950 . S
H1415 C1424 0.950 . S
H1416 C1426 0.950 . S
H1417 C1428 0.950 . S
H1418 C1430 0.950 . S
H1419 C1431 0.950 . S
C1420 H1412 0.950 . S
C1420 C1421 1.386 . S
C1420 C1422 1.391 . S
C1421 C1420 1.386 . S
C1421 C1425 1.393 . S
C1422 H1414 0.950 . S
C1422 C1420 1.391 . S
C1422 C1423 1.400 . S
C1423 C1422 1.400 . S
C1423 C1424 1.398 . S
C1423 C1429 1.491 . S
C1424 H1415 0.950 . S
C1424 C1423 1.398 . S
C1424 C1425 1.391 . S
C1425 H1413 0.950 . S
C1425 C1421 1.393 . S
C1425 C1424 1.391 . S
C1426 H1416 0.950 . S
C1426 C1427 1.386 . S
C1426 C1428 1.391 . S
C1427 C1426 1.386 . S
C1427 C1431 1.393 . S
C1428 H1417 0.950 . S
C1428 C1426 1.391 . S
C1428 C1429 1.400 . S
C1429 C1423 1.491 . S
C1429 C1428 1.400 . S
C1429 C1430 1.398 . S
C1430 H1418 0.950 . S
C1430 C1429 1.398 . S
C1430 C1431 1.391 . S
C1431 H1419 0.950 . S
C1431 C1427 1.393 . S
C1431 C1430 1.391 . S
H1432 C1440 0.950 . S
H1433 C1445 0.950 . S
H1434 C1442 0.950 . S
H1435 C1444 0.950 . S
H1436 C1446 0.950 . S
H1437 C1448 0.950 . S
H1438 C1450 0.950 . S
H1439 C1451 0.950 . S
C1440 H1432 0.950 . S
C1440 C1441 1.386 . S
C1440 C1442 1.391 . S
C1441 C1440 1.386 . S
C1441 C1445 1.393 . S
C1442 H1434 0.950 . S
C1442 C1440 1.391 . S
C1442 C1443 1.400 . S
C1443 C1442 1.400 . S
C1443 C1444 1.398 . S
C1443 C1449 1.491 . S
C1444 H1435 0.950 . S
C1444 C1443 1.398 . S
C1444 C1445 1.391 . S
C1445 H1433 0.950 . S
C1445 C1441 1.393 . S
C1445 C1444 1.391 . S
C1446 H1436 0.950 . S
C1446 C1447 1.386 . S
C1446 C1448 1.391 . S
C1447 C1446 1.386 . S
C1447 C1451 1.393 . S
C1448 H1437 0.950 . S
C1448 C1446 1.391 . S
C1448 C1449 1.400 . S
C1449 C1443 1.491 . S
C1449 C1448 1.400 . S
C1449 C1450 1.398 . S
C1450 H1438 0.950 . S
C1450 C1449 1.398 . S
C1450 C1451 1.391 . S
C1451 H1439 0.950 . S
C1451 C1447 1.393 . S
C1451 C1450 1.391 . S
H1452 C1460 0.950 . S
H1453 C1465 0.950 . S
H1454 C1462 0.950 . S
H1455 C1464 0.950 . S
H1456 C1466 0.950 . S
H1457 C1468 0.950 . S
H1458 C1470 0.950 . S
H1459 C1471 0.950 . S
C1460 H1452 0.950 . S
C1460 C1461 1.386 . S
C1460 C1462 1.391 . S
C1461 C1460 1.386 . S
C1461 C1465 1.393 . S
C1462 H1454 0.950 . S
C1462 C1460 1.391 . S
C1462 C1463 1.400 . S
C1463 C1462 1.400 . S
C1463 C1464 1.398 . S
C1463 C1469 1.491 . S
C1464 H1455 0.950 . S
C1464 C1463 1.398 . S
C1464 C1465 1.391 . S
C1465 H1453 0.950 . S
C1465 C1461 1.393 . S
C1465 C1464 1.391 . S
C1466 H1456 0.950 . S
C1466 C1467 1.386 . S
C1466 C1468 1.391 . S
C1467 C1466 1.386 . S
C1467 C1471 1.393 . S
C1468 H1457 0.950 . S
C1468 C1466 1.391 . S
C1468 C1469 1.400 . S
C1469 C1463 1.491 . S
C1469 C1468 1.400 . S
C1469 C1470 1.398 . S
C1470 H1458 0.950 . S
C1470 C1469 1.398 . S
C1470 C1471 1.391 . S
C1471 H1459 0.950 . S
C1471 C1467 1.393 . S
C1471 C1470 1.391 . S
H1472 C1480 0.950 . S
H1473 C1485 0.950 . S
H1474 C1482 0.950 . S
H1475 C1484 0.950 . S
H1476 C1486 0.950 . S
H1477 C1488 0.950 . S
H1478 C1490 0.950 . S
H1479 C1491 0.950 . S
C1480 H1472 0.950 . S
C1480 C1481 1.386 . S
C1480 C1482 1.391 . S
C1481 C1480 1.386 . S
C1481 C1485 1.393 . S
C1482 H1474 0.950 . S
C1482 C1480 1.391 . S
C1482 C1483 1.400 . S
C1483 C1482 1.400 . S
C1483 C1484 1.398 . S
C1483 C1489 1.491 . S
C1484 H1475 0.950 . S
C1484 C1483 1.398 . S
C1484 C1485 1.391 . S
C1485 H1473 0.950 . S
C1485 C1481 1.393 . S
C1485 C1484 1.391 . S
C1486 H1476 0.950 . S
C1486 C1487 1.386 . S
C1486 C1488 1.391 . S
C1487 C1486 1.386 . S
C1487 C1491 1.393 . S
C1488 H1477 0.950 . S
C1488 C1486 1.391 . S
C1488 C1489 1.400 . S
C1489 C1483 1.491 . S
C1489 C1488 1.400 . S
C1489 C1490 1.398 . S
C1490 H1478 0.950 . S
C1490 C1489 1.398 . S
C1490 C1491 1.391 . S
C1491 H1479 0.950 . S
C1491 C1487 1.393 . S
C1491 C1490 1.391 . S
H1492 C1500 0.950 . S
H1493 C1505 0.950 . S
H1494 C1502 0.950 . S
H1495 C1504 0.950 . S
H1496 C1506 0.950 . S
H1497 C1508 0.950 . S
H1498 C1510 0.950 . S
H1499 C1511 0.950 . S
C1500 H1492 0.950 . S
C1500 C1501 1.386 . S
C1500 C1502 1.391 . S
C1501 C1500 1.386 . S
C1501 C1505 1.393 . S
C1502 H1494 0.950 . S
C1502 C1500 1.391 . S
C1502 C1503 1.400 . S
C1503 C1502 1.400 . S
C1503 C1504 1.398 . S
C1503 C1509 1.491 . S
C1504 H1495 0.950 . S
C1504 C1503 1.398 . S
C1504 C1505 1.391 . S
C1505 H1493 0.950 . S
C1505 C1501 1.393 . S
C1505 C1504 1.391 . S
C1506 H1496 0.950 . S
C1506 C1507 1.386 . S
C1506 C1508 1.391 . S
C1507 C1506 1.386 . S
C1507 C1511 1.393 . S
C1508 H1497 0.950 . S
C1508 C1506 1.391 . S
C1508 C1509 1.400 . S
C1509 C1503 1.491 . S
C1509 C1508 1.400 . S
C1509 C1510 1.398 . S
C1510 H1498 0.950 . S
C1510 C1509 1.398 . S
C1510 C1511 1.391 . S
C1511 H1499 0.950 . S
C1511 C1507 1.393 . S
C1511 C1510 1.391 . S
H1512 C1520 0.950 . S
H1513 C1525 0.950 . S
H1514 C1522 0.950 . S
H1515 C1524 0.950 . S
H1516 C1526 0.950 . S
H1517 C1528 0.950 . S
H1518 C1530 0.950 . S
H1519 C1531 0.950 . S
C1520 H1512 0.950 . S
C1520 C1521 1.386 . S
C1520 C1522 1.391 . S
C1521 C1520 1.386 . S
C1521 C1525 1.393 . S
C1522 H1514 0.950 . S
C1522 C1520 1.391 . S
C1522 C1523 1.400 . S
C1523 C1522 1.400 . S
C1523 C1524 1.398 . S
C1523 C1529 1.491 . S
C1524 H1515 0.950 . S
C1524 C1523 1.398 . S
C1524 C1525 1.391 . S
C1525 H1513 0.950 . S
C1525 C1521 1.393 . S
C1525 C1524 1.391 . S
C1526 H1516 0.950 . S
C1526 C1527 1.386 . S
C1526 C1528 1.391 . S
C1527 C1526 1.386 . S
C1527 C1531 1.393 . S
C1528 H1517 0.950 . S
C1528 C1526 1.391 . S
C1528 C1529 1.400 1_545 S
C1529 C1523 1.491 . S
C1529 C1528 1.400 1_565 S
C1529 C1530 1.398 . S
C1530 H1518 0.950 . S
C1530 C1529 1.398 . S
C1530 C1531 1.391 1_565 S
C1531 H1519 0.950 . S
C1531 C1527 1.393 . S
C1531 C1530 1.391 1_545 S
H1532 C1540 0.950 . S
H1533 C1545 0.950 . S
H1534 C1542 0.950 . S
H1535 C1544 0.950 . S
H1536 C1546 0.950 . S
H1537 C1548 0.953 . S
H1538 C1550 0.950 . S
H1539 C1551 0.950 . S
C1540 H1532 0.950 . S
C1540 C1541 1.386 . S
C1540 C1542 1.391 . S
C1541 C1540 1.386 . S
C1541 C1545 1.393 . S
C1542 H1534 0.950 . S
C1542 C1540 1.391 . S
C1542 C1543 1.400 . S
C1543 C1542 1.400 . S
C1543 C1544 1.398 . S
C1543 C1549 1.491 . S
C1544 H1535 0.950 . S
C1544 C1543 1.398 . S
C1544 C1545 1.391 . S
C1545 H1533 0.950 . S
C1545 C1541 1.393 . S
C1545 C1544 1.391 . S
C1546 H1536 0.950 . S
C1546 C1547 1.386 . S
C1546 C1548 1.391 . S
C1547 C1546 1.386 . S
C1547 C1551 1.393 . S
C1548 H1537 0.953 . S
C1548 C1546 1.391 . S
C1548 C1549 1.400 1_455 S
C1549 C1543 1.491 . S
C1549 C1548 1.400 1_655 S
C1549 C1550 1.398 . S
C1550 H1538 0.950 . S
C1550 C1549 1.398 . S
C1550 C1551 1.391 1_655 S
C1551 H1539 0.950 . S
C1551 C1547 1.393 . S
C1551 C1550 1.391 1_455 S
H1552 C1560 0.950 . S
H1553 C1565 0.950 . S
H1554 C1562 0.950 . S
H1555 C1564 0.950 . S
H1556 C1566 0.950 . S
H1557 C1568 0.950 . S
H1558 C1570 0.950 . S
H1559 C1571 0.950 . S
C1560 H1552 0.950 . S
C1560 C1561 1.386 . S
C1560 C1562 1.391 . S
C1561 C1560 1.386 . S
C1561 C1565 1.393 . S
C1562 H1554 0.950 . S
C1562 C1560 1.391 . S
C1562 C1563 1.400 . S
C1563 C1562 1.400 . S
C1563 C1564 1.398 . S
C1563 C1569 1.491 . S
C1564 H1555 0.950 . S
C1564 C1563 1.398 . S
C1564 C1565 1.391 . S
C1565 H1553 0.950 . S
C1565 C1561 1.393 . S
C1565 C1564 1.391 . S
C1566 H1556 0.950 . S
C1566 C1567 1.386 . S
C1566 C1568 1.391 1_565 S
C1567 C1566 1.386 . S
C1567 C1571 1.393 1_565 S
C1568 H1557 0.950 . S
C1568 C1566 1.391 1_545 S
C1568 C1569 1.400 . S
C1569 C1563 1.491 . S
C1569 C1568 1.400 . S
C1569 C1570 1.398 . S
C1570 H1558 0.950 . S
C1570 C1569 1.398 . S
C1570 C1571 1.391 . S
C1571 H1559 0.950 . S
C1571 C1567 1.393 1_545 S
C1571 C1570 1.391 . S
H1572 C1580 0.950 . S
H1573 C1585 0.950 . S
H1574 C1582 0.950 . S
H1575 C1584 0.950 . S
H1576 C1586 0.950 . S
H1577 C1588 0.950 1_455 S
H1578 C1590 0.950 . S
H1579 C1591 0.950 . S
C1580 H1572 0.950 . S
C1580 C1581 1.386 . S
C1580 C1582 1.391 . S
C1581 C1580 1.386 . S
C1581 C1585 1.393 . S
C1582 H1574 0.950 . S
C1582 C1580 1.391 . S
C1582 C1583 1.400 . S
C1583 C1582 1.400 . S
C1583 C1584 1.398 . S
C1583 C1589 1.491 . S
C1584 H1575 0.950 . S
C1584 C1583 1.398 . S
C1584 C1585 1.391 . S
C1585 H1573 0.950 . S
C1585 C1581 1.393 . S
C1585 C1584 1.391 . S
C1586 H1576 0.950 . S
C1586 C1587 1.386 . S
C1586 C1588 1.391 . S
C1587 C1586 1.386 . S
C1587 C1591 1.393 . S
C1588 H1577 0.950 1_655 S
C1588 C1586 1.391 . S
C1588 C1589 1.400 1_655 S
C1589 C1583 1.491 . S
C1589 C1588 1.400 1_455 S
C1589 C1590 1.398 1_455 S
C1590 H1578 0.950 . S
C1590 C1589 1.398 1_655 S
C1590 C1591 1.391 . S
C1591 H1579 0.950 . S
C1591 C1587 1.393 . S
C1591 C1590 1.391 . S
H1592 C1600 0.950 . S
H1593 C1605 0.950 . S
H1594 C1602 0.950 . S
H1595 C1604 0.950 . S
H1596 C1606 0.950 . S
H1597 C1608 0.950 . S
H1598 C1610 0.950 . S
H1599 C1611 0.950 . S
C1600 H1592 0.950 . S
C1600 C1601 1.386 1_545 S
C1600 C1602 1.391 . S
C1601 C1600 1.386 1_565 S
C1601 C1605 1.393 . S
C1602 H1594 0.950 . S
C1602 C1600 1.391 . S
C1602 C1603 1.400 . S
C1603 C1602 1.400 . S
C1603 C1604 1.398 . S
C1603 C1609 1.491 . S
C1604 H1595 0.950 . S
C1604 C1603 1.398 . S
C1604 C1605 1.391 1_545 S
C1605 H1593 0.950 . S
C1605 C1601 1.393 . S
C1605 C1604 1.391 1_565 S
C1606 H1596 0.950 . S
C1606 C1607 1.386 . S
C1606 C1608 1.391 . S
C1607 C1606 1.386 . S
C1607 C1611 1.393 . S
C1608 H1597 0.950 . S
C1608 C1606 1.391 . S
C1608 C1609 1.400 . S
C1609 C1603 1.491 . S
C1609 C1608 1.400 . S
C1609 C1610 1.398 . S
C1610 H1598 0.950 . S
C1610 C1609 1.398 . S
C1610 C1611 1.391 . S
C1611 H1599 0.950 . S
C1611 C1607 1.393 . S
C1611 C1610 1.391 . S
H1612 C1620 0.950 . S
H1613 C1625 0.950 . S
H1614 C1622 0.950 . S
H1615 C1624 0.950 . S
H1616 C1626 0.950 . S
H1617 C1628 0.950 . S
H1618 C1630 0.950 . S
H1619 C1631 0.950 . S
C1620 H1612 0.950 . S
C1620 C1621 1.383 1_455 S
C1620 C1622 1.393 . S
C1621 C1620 1.383 1_655 S
C1621 C1625 1.393 . S
C1622 H1614 0.950 . S
C1622 C1620 1.393 . S
C1622 C1623 1.400 . S
C1623 C1622 1.400 . S
C1623 C1624 1.398 1_455 S
C1623 C1629 1.491 . S
C1624 H1615 0.950 . S
C1624 C1623 1.398 1_655 S
C1624 C1625 1.391 . S
C1625 H1613 0.950 . S
C1625 C1621 1.393 . S
C1625 C1624 1.391 . S
C1626 H1616 0.950 . S
C1626 C1627 1.386 . S
C1626 C1628 1.391 . S
C1627 C1626 1.386 . S
C1627 C1631 1.393 . S
C1628 H1617 0.950 . S
C1628 C1626 1.391 . S
C1628 C1629 1.400 . S
C1629 C1623 1.491 . S
C1629 C1628 1.400 . S
C1629 C1630 1.398 . S
C1630 H1618 0.950 . S
C1630 C1629 1.398 . S
C1630 C1631 1.391 . S
C1631 H1619 0.950 . S
C1631 C1627 1.393 . S
C1631 C1630 1.391 . S
H1632 C1640 0.950 . S
H1633 C1645 0.950 . S
H1634 C1642 0.950 . S
H1635 C1644 0.950 . S
H1636 C1646 0.950 . S
H1637 C1648 0.950 . S
H1638 C1650 0.950 . S
H1639 C1651 0.950 1_565 S
C1640 H1632 0.950 . S
C1640 C1641 1.386 . S
C1640 C1642 1.391 . S
C1641 C1640 1.386 . S
C1641 C1645 1.393 . S
C1642 H1634 0.950 . S
C1642 C1640 1.391 . S
C1642 C1643 1.400 . S
C1643 C1642 1.400 . S
C1643 C1644 1.398 . S
C1643 C1649 1.491 . S
C1644 H1635 0.950 . S
C1644 C1643 1.398 . S
C1644 C1645 1.391 . S
C1645 H1633 0.950 . S
C1645 C1641 1.393 . S
C1645 C1644 1.391 . S
C1646 H1636 0.950 . S
C1646 C1647 1.386 . S
C1646 C1648 1.391 . S
C1647 C1646 1.386 . S
C1647 C1651 1.393 . S
C1648 H1637 0.950 . S
C1648 C1646 1.391 . S
C1648 C1649 1.400 1_545 S
C1649 C1643 1.491 . S
C1649 C1648 1.400 1_565 S
C1649 C1650 1.398 . S
C1650 H1638 0.950 . S
C1650 C1649 1.398 . S
C1650 C1651 1.391 1_565 S
C1651 H1639 0.950 1_545 S
C1651 C1647 1.393 . S
C1651 C1650 1.391 1_545 S
H1652 C1660 0.960 . S
H1653 C1665 0.950 . S
H1654 C1662 0.950 . S
H1655 C1664 0.950 . S
H1656 C1666 0.950 . S
H1657 C1668 0.950 1_455 S
H1658 C1670 0.950 . S
H1659 C1671 0.950 . S
C1660 H1652 0.960 . S
C1660 C1661 1.386 . S
C1660 C1662 1.391 1_455 S
C1661 C1660 1.386 . S
C1661 C1665 1.393 . S
C1662 H1654 0.950 . S
C1662 C1660 1.391 1_655 S
C1662 C1663 1.400 . S
C1663 C1662 1.400 . S
C1663 C1664 1.398 1_655 S
C1663 C1669 1.491 . S
C1664 H1655 0.950 . S
C1664 C1663 1.398 1_455 S
C1664 C1665 1.391 . S
C1665 H1653 0.950 . S
C1665 C1661 1.393 . S
C1665 C1664 1.391 . S
C1666 H1656 0.950 . S
C1666 C1667 1.386 . S
C1666 C1668 1.391 . S
C1667 C1666 1.386 . S
C1667 C1671 1.393 . S
C1668 H1657 0.950 1_655 S
C1668 C1666 1.391 . S
C1668 C1669 1.400 . S
C1669 C1663 1.491 . S
C1669 C1668 1.400 . S
C1669 C1670 1.398 . S
C1670 H1658 0.950 . S
C1670 C1669 1.398 . S
C1670 C1671 1.391 . S
C1671 H1659 0.950 . S
C1671 C1667 1.393 . S
C1671 C1670 1.391 . S
H1672 C1680 0.950 . S
H1673 C1685 0.950 . S
H1674 C1682 0.950 1_554 S
H1675 C1684 0.950 . S
H1676 C1686 0.950 . S
H1677 C1688 0.950 . S
H1678 C1690 0.950 . S
H1679 C1691 0.950 . S
C1680 H1672 0.950 . S
C1680 C1681 1.386 . S
C1680 C1682 1.391 . S
C1681 C1680 1.386 . S
C1681 C1685 1.393 . S
C1682 H1674 0.950 1_556 S
C1682 C1680 1.391 . S
C1682 C1683 1.400 . S
C1683 C1682 1.400 . S
C1683 C1684 1.398 . S
C1683 C1689 1.491 . S
C1684 H1675 0.950 . S
C1684 C1683 1.398 . S
C1684 C1685 1.391 . S
C1685 H1673 0.950 . S
C1685 C1681 1.393 . S
C1685 C1684 1.391 . S
C1686 H1676 0.950 . S
C1686 C1687 1.386 . S
C1686 C1688 1.391 1_554 S
C1687 C1686 1.386 . S
C1687 C1691 1.393 . S
C1688 H1677 0.950 . S
C1688 C1686 1.391 1_556 S
C1688 C1689 1.400 . S
C1689 C1683 1.491 . S
C1689 C1688 1.400 . S
C1689 C1690 1.398 1_556 S
C1690 H1678 0.950 . S
C1690 C1689 1.398 1_554 S
C1690 C1691 1.391 . S
C1691 H1679 0.950 . S
C1691 C1687 1.393 . S
C1691 C1690 1.391 . S
H1692 C1700 0.950 . S
H1693 C1705 0.950 . S
H1694 C1702 0.950 . S
H1695 C1704 0.950 . S
H1696 C1706 0.950 . S
H1697 C1708 0.950 . S
H1698 C1710 0.950 1_554 S
H1699 C1711 0.950 . S
C1700 H1692 0.950 . S
C1700 C1701 1.386 . S
C1700 C1702 1.391 . S
C1701 C1700 1.386 . S
C1701 C1705 1.393 . S
C1702 H1694 0.950 . S
C1702 C1700 1.391 . S
C1702 C1703 1.400 . S
C1703 C1702 1.400 . S
C1703 C1704 1.398 . S
C1703 C1709 1.491 . S
C1704 H1695 0.950 . S
C1704 C1703 1.398 . S
C1704 C1705 1.391 . S
C1705 H1693 0.950 . S
C1705 C1701 1.393 . S
C1705 C1704 1.391 . S
C1706 H1696 0.950 . S
C1706 C1707 1.386 . S
C1706 C1708 1.391 . S
C1707 C1706 1.386 . S
C1707 C1711 1.393 . S
C1708 H1697 0.950 . S
C1708 C1706 1.391 . S
C1708 C1709 1.400 1_556 S
C1709 C1703 1.491 . S
C1709 C1708 1.400 1_554 S
C1709 C1710 1.398 1_554 S
C1710 H1698 0.950 1_556 S
C1710 C1709 1.398 1_556 S
C1710 C1711 1.391 . S
C1711 H1699 0.950 . S
C1711 C1707 1.393 . S
C1711 C1710 1.391 . S
H1712 C1720 0.950 . S
H1713 C1725 0.950 . S
H1714 C1722 0.950 . S
H1715 C1724 0.950 . S
H1716 C1726 0.950 . S
H1717 C1728 0.950 . S
H1718 C1730 0.950 . S
H1719 C1731 0.950 . S
C1720 H1712 0.950 . S
C1720 C1721 1.386 . S
C1720 C1722 1.391 . S
C1721 C1720 1.386 . S
C1721 C1725 1.393 . S
C1722 H1714 0.950 . S
C1722 C1720 1.391 . S
C1722 C1723 1.400 . S
C1723 C1722 1.400 . S
C1723 C1724 1.398 . S
C1723 C1729 1.491 . S
C1724 H1715 0.950 . S
C1724 C1723 1.398 . S
C1724 C1725 1.391 . S
C1725 H1713 0.950 . S
C1725 C1721 1.393 . S
C1725 C1724 1.391 . S
C1726 H1716 0.950 . S
C1726 C1727 1.386 1_556 S
C1726 C1728 1.391 . S
C1727 C1726 1.386 1_554 S
C1727 C1731 1.393 . S
C1728 H1717 0.950 . S
C1728 C1726 1.391 . S
C1728 C1729 1.400 . S
C1729 C1723 1.491 . S
C1729 C1728 1.400 . S
C1729 C1730 1.398 1_556 S
C1730 H1718 0.950 . S
C1730 C1729 1.398 1_554 S
C1730 C1731 1.391 . S
C1731 H1719 0.950 . S
C1731 C1727 1.393 . S
C1731 C1730 1.391 . S
H1732 C1740 0.950 . S
H1733 C1745 0.950 . S
H1734 C1742 0.950 . S
H1735 C1744 0.950 . S
H1736 C1746 0.949 1_554 S
H1737 C1748 0.950 . S
H1738 C1750 0.950 . S
H1739 C1751 0.950 . S
C1740 H1732 0.950 . S
C1740 C1741 1.386 . S
C1740 C1742 1.391 . S
C1741 C1740 1.386 . S
C1741 C1745 1.393 . S
C1742 H1734 0.950 . S
C1742 C1740 1.391 . S
C1742 C1743 1.400 . S
C1743 C1742 1.400 . S
C1743 C1744 1.398 . S
C1743 C1749 1.491 . S
C1744 H1735 0.950 . S
C1744 C1743 1.398 . S
C1744 C1745 1.391 . S
C1745 H1733 0.950 . S
C1745 C1741 1.393 . S
C1745 C1744 1.391 . S
C1746 H1736 0.949 1_556 S
C1746 C1747 1.386 . S
C1746 C1748 1.391 1_556 S
C1747 C1746 1.386 . S
C1747 C1751 1.393 . S
C1748 H1737 0.950 . S
C1748 C1746 1.391 1_554 S
C1748 C1749 1.400 . S
C1749 C1743 1.491 . S
C1749 C1748 1.400 . S
C1749 C1750 1.398 1_554 S
C1750 H1738 0.950 . S
C1750 C1749 1.398 1_556 S
C1750 C1751 1.391 . S
C1751 H1739 0.950 . S
C1751 C1747 1.393 . S
C1751 C1750 1.391 . S
H1752 C1760 0.950 . S
H1753 C1765 0.950 . S
H1754 C1762 0.950 . S
H1755 C1764 0.950 . S
H1756 C1766 0.950 . S
H1757 C1768 0.950 . S
H1758 C1770 0.950 . S
H1759 C1771 0.950 . S
C1760 H1752 0.950 . S
C1760 C1761 1.386 . S
C1760 C1762 1.391 . S
C1761 C1760 1.386 . S
C1761 C1765 1.393 . S
C1762 H1754 0.950 . S
C1762 C1760 1.391 . S
C1762 C1763 1.400 . S
C1763 C1762 1.400 . S
C1763 C1764 1.398 . S
C1763 C1769 1.491 . S
C1764 H1755 0.950 . S
C1764 C1763 1.398 . S
C1764 C1765 1.391 . S
C1765 H1753 0.950 . S
C1765 C1761 1.393 . S
C1765 C1764 1.391 . S
C1766 H1756 0.950 . S
C1766 C1767 1.386 . S
C1766 C1768 1.391 . S
C1767 C1766 1.386 . S
C1767 C1771 1.393 . S
C1768 H1757 0.950 . S
C1768 C1766 1.391 . S
C1768 C1769 1.400 . S
C1769 C1763 1.491 . S
C1769 C1768 1.400 . S
C1769 C1770 1.398 . S
C1770 H1758 0.950 . S
C1770 C1769 1.398 . S
C1770 C1771 1.391 . S
C1771 H1759 0.950 . S
C1771 C1767 1.393 . S
C1771 C1770 1.391 . S
H1772 C1780 0.950 . S
H1773 C1785 0.950 . S
H1774 C1782 0.950 . S
H1775 C1784 0.950 . S
H1776 C1786 0.950 . S
H1777 C1788 0.950 . S
H1778 C1790 0.950 . S
H1779 C1791 0.950 . S
C1780 H1772 0.950 . S
C1780 C1781 1.386 . S
C1780 C1782 1.391 . S
C1781 C1780 1.386 . S
C1781 C1785 1.393 . S
C1782 H1774 0.950 . S
C1782 C1780 1.391 . S
C1782 C1783 1.400 . S
C1783 C1782 1.400 . S
C1783 C1784 1.398 . S
C1783 C1789 1.491 . S
C1784 H1775 0.950 . S
C1784 C1783 1.398 . S
C1784 C1785 1.391 . S
C1785 H1773 0.950 . S
C1785 C1781 1.393 . S
C1785 C1784 1.391 . S
C1786 H1776 0.950 . S
C1786 C1787 1.386 . S
C1786 C1788 1.391 . S
C1787 C1786 1.386 . S
C1787 C1791 1.393 . S
C1788 H1777 0.950 . S
C1788 C1786 1.391 . S
C1788 C1789 1.400 . S
C1789 C1783 1.491 . S
C1789 C1788 1.400 . S
C1789 C1790 1.398 . S
C1790 H1778 0.950 . S
C1790 C1789 1.398 . S
C1790 C1791 1.391 . S
C1791 H1779 0.950 . S
C1791 C1787 1.393 . S
C1791 C1790 1.391 . S
H1792 C1800 0.950 . S
H1793 C1805 0.950 . S
H1794 C1802 0.950 . S
H1795 C1804 0.950 . S
H1796 C1806 0.950 . S
H1797 C1808 0.950 . S
H1798 C1810 0.950 . S
H1799 C1811 0.950 . S
C1800 H1792 0.950 . S
C1800 C1801 1.386 . S
C1800 C1802 1.391 . S
C1801 C1800 1.386 . S
C1801 C1805 1.393 . S
C1802 H1794 0.950 . S
C1802 C1800 1.391 . S
C1802 C1803 1.400 . S
C1803 C1802 1.400 . S
C1803 C1804 1.398 . S
C1803 C1809 1.491 . S
C1804 H1795 0.950 . S
C1804 C1803 1.398 . S
C1804 C1805 1.391 . S
C1805 H1793 0.950 . S
C1805 C1801 1.393 . S
C1805 C1804 1.391 . S
C1806 H1796 0.950 . S
C1806 C1807 1.386 . S
C1806 C1808 1.391 . S
C1807 C1806 1.386 . S
C1807 C1811 1.393 . S
C1808 H1797 0.950 . S
C1808 C1806 1.391 . S
C1808 C1809 1.400 . S
C1809 C1803 1.491 . S
C1809 C1808 1.400 . S
C1809 C1810 1.398 . S
C1810 H1798 0.950 . S
C1810 C1809 1.398 . S
C1810 C1811 1.391 . S
C1811 H1799 0.950 . S
C1811 C1807 1.393 . S
C1811 C1810 1.391 . S
H1812 C1820 0.950 . S
H1813 C1825 0.950 . S
H1814 C1822 0.950 . S
H1815 C1824 0.950 . S
H1816 C1826 0.950 . S
H1817 C1828 0.950 . S
H1818 C1830 0.950 . S
H1819 C1831 0.950 . S
C1820 H1812 0.950 . S
C1820 C1821 1.386 . S
C1820 C1822 1.391 . S
C1821 C1820 1.386 . S
C1821 C1825 1.393 . S
C1822 H1814 0.950 . S
C1822 C1820 1.391 . S
C1822 C1823 1.400 . S
C1823 C1822 1.400 . S
C1823 C1824 1.398 . S
C1823 C1829 1.491 . S
C1824 H1815 0.950 . S
C1824 C1823 1.398 . S
C1824 C1825 1.391 . S
C1825 H1813 0.950 . S
C1825 C1821 1.393 . S
C1825 C1824 1.391 . S
C1826 H1816 0.950 . S
C1826 C1827 1.386 . S
C1826 C1828 1.391 . S
C1827 C1826 1.386 . S
C1827 C1831 1.393 . S
C1828 H1817 0.950 . S
C1828 C1826 1.391 . S
C1828 C1829 1.400 . S
C1829 C1823 1.491 . S
C1829 C1828 1.400 . S
C1829 C1830 1.398 . S
C1830 H1818 0.950 . S
C1830 C1829 1.398 . S
C1830 C1831 1.391 . S
C1831 H1819 0.950 . S
C1831 C1827 1.393 . S
C1831 C1830 1.391 . S
H1832 C1840 0.950 . S
H1833 C1845 0.950 . S
H1834 C1842 0.950 . S
H1835 C1844 0.950 . S
H1836 C1846 0.950 . S
H1837 C1848 0.950 . S
H1838 C1850 0.950 . S
H1839 C1851 0.950 . S
C1840 H1832 0.950 . S
C1840 C1841 1.386 . S
C1840 C1842 1.391 . S
C1841 C1840 1.386 . S
C1841 C1845 1.393 . S
C1842 H1834 0.950 . S
C1842 C1840 1.391 . S
C1842 C1843 1.400 . S
C1843 C1842 1.400 . S
C1843 C1844 1.398 . S
C1843 C1849 1.491 . S
C1844 H1835 0.950 . S
C1844 C1843 1.398 . S
C1844 C1845 1.391 . S
C1845 H1833 0.950 . S
C1845 C1841 1.393 . S
C1845 C1844 1.391 . S
C1846 H1836 0.950 . S
C1846 C1847 1.386 . S
C1846 C1848 1.391 . S
C1847 C1846 1.386 . S
C1847 C1851 1.393 . S
C1848 H1837 0.950 . S
C1848 C1846 1.391 . S
C1848 C1849 1.400 . S
C1849 C1843 1.491 . S
C1849 C1848 1.400 . S
C1849 C1850 1.398 . S
C1850 H1838 0.950 . S
C1850 C1849 1.398 . S
C1850 C1851 1.391 . S
C1851 H1839 0.950 . S
C1851 C1847 1.393 . S
C1851 C1850 1.391 . S
H1852 C1860 0.950 . S
H1853 C1865 0.950 . S
H1854 C1862 0.950 . S
H1855 C1864 0.950 . S
H1856 C1866 0.950 . S
H1857 C1868 0.950 . S
H1858 C1870 0.950 . S
H1859 C1871 0.950 . S
C1860 H1852 0.950 . S
C1860 C1861 1.386 . S
C1860 C1862 1.391 . S
C1861 C1860 1.386 . S
C1861 C1865 1.393 . S
C1862 H1854 0.950 . S
C1862 C1860 1.391 . S
C1862 C1863 1.400 . S
C1863 C1862 1.400 . S
C1863 C1864 1.398 . S
C1863 C1869 1.491 . S
C1864 H1855 0.950 . S
C1864 C1863 1.398 . S
C1864 C1865 1.391 . S
C1865 H1853 0.950 . S
C1865 C1861 1.393 . S
C1865 C1864 1.391 . S
C1866 H1856 0.950 . S
C1866 C1867 1.386 . S
C1866 C1868 1.391 . S
C1867 C1866 1.386 . S
C1867 C1871 1.393 . S
C1868 H1857 0.950 . S
C1868 C1866 1.391 . S
C1868 C1869 1.400 . S
C1869 C1863 1.491 . S
C1869 C1868 1.400 . S
C1869 C1870 1.398 . S
C1870 H1858 0.950 . S
C1870 C1869 1.398 . S
C1870 C1871 1.391 . S
C1871 H1859 0.950 . S
C1871 C1867 1.393 . S
C1871 C1870 1.391 . S
H1872 C1880 0.950 . S
H1873 C1885 0.950 . S
H1874 C1882 0.950 . S
H1875 C1884 0.950 . S
H1876 C1886 0.950 . S
H1877 C1888 0.950 . S
H1878 C1890 0.950 . S
H1879 C1891 0.950 . S
C1880 H1872 0.950 . S
C1880 C1881 1.386 . S
C1880 C1882 1.391 . S
C1881 C1880 1.386 . S
C1881 C1885 1.393 . S
C1882 H1874 0.950 . S
C1882 C1880 1.391 . S
C1882 C1883 1.400 . S
C1883 C1882 1.400 . S
C1883 C1884 1.398 . S
C1883 C1889 1.491 . S
C1884 H1875 0.950 . S
C1884 C1883 1.398 . S
C1884 C1885 1.391 . S
C1885 H1873 0.950 . S
C1885 C1881 1.393 . S
C1885 C1884 1.391 . S
C1886 H1876 0.950 . S
C1886 C1887 1.386 . S
C1886 C1888 1.391 . S
C1887 C1886 1.386 . S
C1887 C1891 1.393 . S
C1888 H1877 0.950 . S
C1888 C1886 1.391 . S
C1888 C1889 1.400 . S
C1889 C1883 1.491 . S
C1889 C1888 1.400 . S
C1889 C1890 1.398 . S
C1890 H1878 0.950 . S
C1890 C1889 1.398 . S
C1890 C1891 1.391 . S
C1891 H1879 0.950 . S
C1891 C1887 1.393 . S
C1891 C1890 1.391 . S
H1892 C1900 0.950 . S
H1893 C1905 0.950 . S
H1894 C1902 0.950 . S
H1895 C1904 0.950 . S
H1896 C1906 0.950 . S
H1897 C1908 0.950 . S
H1898 C1910 0.950 . S
H1899 C1911 0.950 . S
C1900 H1892 0.950 . S
C1900 C1901 1.386 . S
C1900 C1902 1.391 . S
C1901 C1900 1.386 . S
C1901 C1905 1.393 . S
C1902 H1894 0.950 . S
C1902 C1900 1.391 . S
C1902 C1903 1.400 . S
C1903 C1902 1.400 . S
C1903 C1904 1.398 . S
C1903 C1909 1.491 . S
C1904 H1895 0.950 . S
C1904 C1903 1.398 . S
C1904 C1905 1.391 . S
C1905 H1893 0.950 . S
C1905 C1901 1.393 . S
C1905 C1904 1.391 . S
C1906 H1896 0.950 . S
C1906 C1907 1.386 . S
C1906 C1908 1.391 . S
C1907 C1906 1.386 . S
C1907 C1911 1.393 . S
C1908 H1897 0.950 . S
C1908 C1906 1.391 . S
C1908 C1909 1.400 . S
C1909 C1903 1.491 . S
C1909 C1908 1.400 . S
C1909 C1910 1.398 . S
C1910 H1898 0.950 . S
C1910 C1909 1.398 . S
C1910 C1911 1.391 . S
C1911 H1899 0.950 . S
C1911 C1907 1.393 . S
C1911 C1910 1.391 . S
H1912 C1920 0.950 . S
H1913 C1925 0.950 . S
H1914 C1922 0.950 . S
H1915 C1924 0.950 . S
H1916 C1926 0.950 . S
H1917 C1928 0.950 . S
H1918 C1930 0.950 . S
H1919 C1931 0.950 . S
C1920 H1912 0.950 . S
C1920 C1921 1.386 . S
C1920 C1922 1.391 . S
C1921 C1920 1.386 . S
C1921 C1925 1.393 . S
C1922 H1914 0.950 . S
C1922 C1920 1.391 . S
C1922 C1923 1.400 . S
C1923 C1922 1.400 . S
C1923 C1924 1.398 . S
C1923 C1929 1.491 . S
C1924 H1915 0.950 . S
C1924 C1923 1.398 . S
C1924 C1925 1.391 . S
C1925 H1913 0.950 . S
C1925 C1921 1.393 . S
C1925 C1924 1.391 . S
C1926 H1916 0.950 . S
C1926 C1927 1.386 . S
C1926 C1928 1.391 . S
C1927 C1926 1.386 . S
C1927 C1931 1.393 . S
C1928 H1917 0.950 . S
C1928 C1926 1.391 . S
C1928 C1929 1.400 . S
C1929 C1923 1.491 . S
C1929 C1928 1.400 . S
C1929 C1930 1.398 . S
C1930 H1918 0.950 . S
C1930 C1929 1.398 . S
C1930 C1931 1.391 . S
C1931 H1919 0.950 . S
C1931 C1927 1.393 . S
C1931 C1930 1.391 . S
H1932 C1940 0.950 . S
H1933 C1945 0.950 . S
H1934 C1942 0.950 . S
H1935 C1944 0.950 . S
H1936 C1946 0.950 . S
H1937 C1948 0.950 . S
H1938 C1950 0.950 . S
H1939 C1951 0.950 . S
C1940 H1932 0.950 . S
C1940 C1941 1.386 . S
C1940 C1942 1.391 . S
C1941 C1940 1.386 . S
C1941 C1945 1.393 . S
C1942 H1934 0.950 . S
C1942 C1940 1.391 . S
C1942 C1943 1.400 . S
C1943 C1942 1.400 . S
C1943 C1944 1.398 . S
C1943 C1949 1.491 . S
C1944 H1935 0.950 . S
C1944 C1943 1.398 . S
C1944 C1945 1.391 . S
C1945 H1933 0.950 . S
C1945 C1941 1.393 . S
C1945 C1944 1.391 . S
C1946 H1936 0.950 . S
C1946 C1947 1.386 . S
C1946 C1948 1.391 . S
C1947 C1946 1.386 . S
C1947 C1951 1.393 . S
C1948 H1937 0.950 . S
C1948 C1946 1.391 . S
C1948 C1949 1.400 . S
C1949 C1943 1.491 . S
C1949 C1948 1.400 . S
C1949 C1950 1.398 . S
C1950 H1938 0.950 . S
C1950 C1949 1.398 . S
C1950 C1951 1.391 . S
C1951 H1939 0.950 . S
C1951 C1947 1.393 . S
C1951 C1950 1.391 . S
H1952 C1960 0.950 . S
H1953 C1965 0.950 . S
H1954 C1962 0.950 . S
H1955 C1964 0.950 . S
H1956 C1966 0.950 . S
H1957 C1968 0.950 . S
H1958 C1970 0.950 . S
H1959 C1971 0.950 . S
C1960 H1952 0.950 . S
C1960 C1961 1.386 . S
C1960 C1962 1.391 . S
C1961 C1960 1.386 . S
C1961 C1965 1.393 . S
C1962 H1954 0.950 . S
C1962 C1960 1.391 . S
C1962 C1963 1.400 . S
C1963 C1962 1.400 . S
C1963 C1964 1.398 . S
C1963 C1969 1.491 . S
C1964 H1955 0.950 . S
C1964 C1963 1.398 . S
C1964 C1965 1.391 . S
C1965 H1953 0.950 . S
C1965 C1961 1.393 . S
C1965 C1964 1.391 . S
C1966 H1956 0.950 . S
C1966 C1967 1.386 . S
C1966 C1968 1.391 . S
C1967 C1966 1.386 . S
C1967 C1971 1.393 . S
C1968 H1957 0.950 . S
C1968 C1966 1.391 . S
C1968 C1969 1.400 . S
C1969 C1963 1.491 . S
C1969 C1968 1.400 . S
C1969 C1970 1.398 . S
C1970 H1958 0.950 . S
C1970 C1969 1.398 . S
C1970 C1971 1.391 . S
C1971 H1959 0.950 . S
C1971 C1967 1.393 . S
C1971 C1970 1.391 . S
H1972 C1980 0.950 . S
H1973 C1985 0.950 . S
H1974 C1982 0.950 . S
H1975 C1984 0.950 . S
H1976 C1986 0.950 . S
H1977 C1988 0.950 . S
H1978 C1990 0.950 . S
H1979 C1991 0.950 . S
C1980 H1972 0.950 . S
C1980 C1981 1.386 . S
C1980 C1982 1.391 . S
C1981 C1980 1.386 . S
C1981 C1985 1.393 . S
C1982 H1974 0.950 . S
C1982 C1980 1.391 . S
C1982 C1983 1.400 . S
C1983 C1982 1.400 . S
C1983 C1984 1.398 . S
C1983 C1989 1.491 . S
C1984 H1975 0.950 . S
C1984 C1983 1.398 . S
C1984 C1985 1.391 . S
C1985 H1973 0.950 . S
C1985 C1981 1.393 . S
C1985 C1984 1.391 . S
C1986 H1976 0.950 . S
C1986 C1987 1.386 . S
C1986 C1988 1.391 . S
C1987 C1986 1.386 . S
C1987 C1991 1.393 . S
C1988 H1977 0.950 . S
C1988 C1986 1.391 . S
C1988 C1989 1.400 . S
C1989 C1983 1.491 . S
C1989 C1988 1.400 . S
C1989 C1990 1.398 . S
C1990 H1978 0.950 . S
C1990 C1989 1.398 . S
C1990 C1991 1.391 . S
C1991 H1979 0.950 . S
C1991 C1987 1.393 . S
C1991 C1990 1.391 . S
H1992 C2000 0.950 . S
H1993 C2005 0.950 . S
H1994 C2002 0.950 . S
H1995 C2004 0.950 . S
H1996 C2006 0.950 . S
H1997 C2008 0.950 . S
H1998 C2010 0.950 . S
H1999 C2011 0.950 . S
C2000 H1992 0.950 . S
C2000 C2001 1.386 . S
C2000 C2002 1.391 . S
C2001 C2000 1.386 . S
C2001 C2005 1.393 . S
C2002 H1994 0.950 . S
C2002 C2000 1.391 . S
C2002 C2003 1.400 . S
C2003 C2002 1.400 . S
C2003 C2004 1.398 . S
C2003 C2009 1.491 . S
C2004 H1995 0.950 . S
C2004 C2003 1.398 . S
C2004 C2005 1.391 . S
C2005 H1993 0.950 . S
C2005 C2001 1.393 . S
C2005 C2004 1.391 . S
C2006 H1996 0.950 . S
C2006 C2007 1.386 . S
C2006 C2008 1.391 . S
C2007 C2006 1.386 . S
C2007 C2011 1.393 . S
C2008 H1997 0.950 . S
C2008 C2006 1.391 . S
C2008 C2009 1.400 . S
C2009 C2003 1.491 . S
C2009 C2008 1.400 . S
C2009 C2010 1.398 . S
C2010 H1998 0.950 . S
C2010 C2009 1.398 . S
C2010 C2011 1.391 . S
C2011 H1999 0.950 . S
C2011 C2007 1.393 . S
C2011 C2010 1.391 . S
H2012 C2020 0.950 . S
H2013 C2025 0.950 . S
H2014 C2022 0.950 . S
H2015 C2024 0.950 . S
H2016 C2026 0.950 . S
H2017 C2028 0.950 . S
H2018 C2030 0.950 . S
H2019 C2031 0.950 . S
C2020 H2012 0.950 . S
C2020 C2021 1.386 . S
C2020 C2022 1.391 . S
C2021 C2020 1.386 . S
C2021 C2025 1.393 . S
C2022 H2014 0.950 . S
C2022 C2020 1.391 . S
C2022 C2023 1.400 . S
C2023 C2022 1.400 . S
C2023 C2024 1.398 . S
C2023 C2029 1.491 . S
C2024 H2015 0.950 . S
C2024 C2023 1.398 . S
C2024 C2025 1.391 . S
C2025 H2013 0.950 . S
C2025 C2021 1.393 . S
C2025 C2024 1.391 . S
C2026 H2016 0.950 . S
C2026 C2027 1.386 . S
C2026 C2028 1.391 . S
C2027 C2026 1.386 . S
C2027 C2031 1.393 . S
C2028 H2017 0.950 . S
C2028 C2026 1.391 . S
C2028 C2029 1.400 . S
C2029 C2023 1.491 . S
C2029 C2028 1.400 . S
C2029 C2030 1.398 . S
C2030 H2018 0.950 . S
C2030 C2029 1.398 . S
C2030 C2031 1.391 . S
C2031 H2019 0.950 . S
C2031 C2027 1.393 . S
C2031 C2030 1.391 . S
H2032 C2040 0.950 . S
H2033 C2045 0.950 . S
H2034 C2042 0.950 . S
H2035 C2044 0.950 . S
H2036 C2046 0.950 . S
H2037 C2048 0.950 . S
H2038 C2050 0.950 . S
H2039 C2051 0.950 . S
C2040 H2032 0.950 . S
C2040 C2041 1.386 . S
C2040 C2042 1.391 . S
C2041 C2040 1.386 . S
C2041 C2045 1.393 . S
C2042 H2034 0.950 . S
C2042 C2040 1.391 . S
C2042 C2043 1.400 . S
C2043 C2042 1.400 . S
C2043 C2044 1.398 . S
C2043 C2049 1.491 . S
C2044 H2035 0.950 . S
C2044 C2043 1.398 . S
C2044 C2045 1.391 . S
C2045 H2033 0.950 . S
C2045 C2041 1.393 . S
C2045 C2044 1.391 . S
C2046 H2036 0.950 . S
C2046 C2047 1.386 . S
C2046 C2048 1.391 . S
C2047 C2046 1.386 . S
C2047 C2051 1.393 . S
C2048 H2037 0.950 . S
C2048 C2046 1.391 . S
C2048 C2049 1.400 . S
C2049 C2043 1.491 . S
C2049 C2048 1.400 . S
C2049 C2050 1.398 . S
C2050 H2038 0.950 . S
C2050 C2049 1.398 . S
C2050 C2051 1.391 . S
C2051 H2039 0.950 . S
C2051 C2047 1.393 . S
C2051 C2050 1.391 . S
H2052 C2060 0.950 . S
H2053 C2065 0.950 . S
H2054 C2062 0.950 . S
H2055 C2064 0.950 . S
H2056 C2066 0.950 . S
H2057 C2068 0.950 . S
H2058 C2070 0.950 . S
H2059 C2071 0.950 . S
C2060 H2052 0.950 . S
C2060 C2061 1.386 . S
C2060 C2062 1.391 . S
C2061 C2060 1.386 . S
C2061 C2065 1.393 . S
C2062 H2054 0.950 . S
C2062 C2060 1.391 . S
C2062 C2063 1.400 . S
C2063 C2062 1.400 . S
C2063 C2064 1.398 . S
C2063 C2069 1.491 . S
C2064 H2055 0.950 . S
C2064 C2063 1.398 . S
C2064 C2065 1.391 . S
C2065 H2053 0.950 . S
C2065 C2061 1.393 . S
C2065 C2064 1.391 . S
C2066 H2056 0.950 . S
C2066 C2067 1.386 . S
C2066 C2068 1.391 . S
C2067 C2066 1.386 . S
C2067 C2071 1.393 . S
C2068 H2057 0.950 . S
C2068 C2066 1.391 . S
C2068 C2069 1.400 . S
C2069 C2063 1.491 . S
C2069 C2068 1.400 . S
C2069 C2070 1.398 . S
C2070 H2058 0.950 . S
C2070 C2069 1.398 . S
C2070 C2071 1.391 . S
C2071 H2059 0.950 . S
C2071 C2067 1.393 . S
C2071 C2070 1.391 . S
H2072 C2080 0.950 . S
H2073 C2085 0.950 . S
H2074 C2082 0.950 . S
H2075 C2084 0.950 . S
H2076 C2086 0.950 . S
H2077 C2088 0.950 . S
H2078 C2090 0.950 . S
H2079 C2091 0.950 . S
C2080 H2072 0.950 . S
C2080 C2081 1.386 . S
C2080 C2082 1.391 . S
C2081 C2080 1.386 . S
C2081 C2085 1.393 . S
C2082 H2074 0.950 . S
C2082 C2080 1.391 . S
C2082 C2083 1.400 . S
C2083 C2082 1.400 . S
C2083 C2084 1.398 . S
C2083 C2089 1.491 . S
C2084 H2075 0.950 . S
C2084 C2083 1.398 . S
C2084 C2085 1.391 . S
C2085 H2073 0.950 . S
C2085 C2081 1.393 . S
C2085 C2084 1.391 . S
C2086 H2076 0.950 . S
C2086 C2087 1.386 . S
C2086 C2088 1.391 . S
C2087 C2086 1.386 . S
C2087 C2091 1.393 . S
C2088 H2077 0.950 . S
C2088 C2086 1.391 . S
C2088 C2089 1.400 . S
C2089 C2083 1.491 . S
C2089 C2088 1.400 . S
C2089 C2090 1.398 . S
C2090 H2078 0.950 . S
C2090 C2089 1.398 . S
C2090 C2091 1.391 . S
C2091 H2079 0.950 . S
C2091 C2087 1.393 . S
C2091 C2090 1.391 . S
H2092 C2100 0.950 . S
H2093 C2105 0.950 . S
H2094 C2102 0.950 . S
H2095 C2104 0.950 . S
H2096 C2106 0.950 . S
H2097 C2108 0.950 . S
H2098 C2110 0.950 . S
H2099 C2111 0.950 . S
C2100 H2092 0.950 . S
C2100 C2101 1.386 . S
C2100 C2102 1.391 . S
C2101 C2100 1.386 . S
C2101 C2105 1.393 . S
C2102 H2094 0.950 . S
C2102 C2100 1.391 . S
C2102 C2103 1.400 . S
C2103 C2102 1.400 . S
C2103 C2104 1.398 . S
C2103 C2109 1.491 . S
C2104 H2095 0.950 . S
C2104 C2103 1.398 . S
C2104 C2105 1.391 . S
C2105 H2093 0.950 . S
C2105 C2101 1.393 . S
C2105 C2104 1.391 . S
C2106 H2096 0.950 . S
C2106 C2107 1.386 . S
C2106 C2108 1.391 . S
C2107 C2106 1.386 . S
C2107 C2111 1.393 . S
C2108 H2097 0.950 . S
C2108 C2106 1.391 . S
C2108 C2109 1.400 . S
C2109 C2103 1.491 . S
C2109 C2108 1.400 . S
C2109 C2110 1.398 . S
C2110 H2098 0.950 . S
C2110 C2109 1.398 . S
C2110 C2111 1.391 . S
C2111 H2099 0.950 . S
C2111 C2107 1.393 . S
C2111 C2110 1.391 . S
H2112 C2120 0.950 . S
H2113 C2125 0.950 . S
H2114 C2122 0.950 . S
H2115 C2124 0.950 . S
H2116 C2126 0.950 . S
H2117 C2128 0.950 . S
H2118 C2130 0.950 . S
H2119 C2131 0.950 . S
C2120 H2112 0.950 . S
C2120 C2121 1.386 . S
C2120 C2122 1.391 . S
C2121 C2120 1.386 . S
C2121 C2125 1.393 . S
C2122 H2114 0.950 . S
C2122 C2120 1.391 . S
C2122 C2123 1.400 . S
C2123 C2122 1.400 . S
C2123 C2124 1.398 . S
C2123 C2129 1.491 . S
C2124 H2115 0.950 . S
C2124 C2123 1.398 . S
C2124 C2125 1.391 . S
C2125 H2113 0.950 . S
C2125 C2121 1.393 . S
C2125 C2124 1.391 . S
C2126 H2116 0.950 . S
C2126 C2127 1.386 . S
C2126 C2128 1.391 . S
C2127 C2126 1.386 . S
C2127 C2131 1.393 . S
C2128 H2117 0.950 . S
C2128 C2126 1.391 . S
C2128 C2129 1.400 . S
C2129 C2123 1.491 . S
C2129 C2128 1.400 . S
C2129 C2130 1.398 . S
C2130 H2118 0.950 . S
C2130 C2129 1.398 . S
C2130 C2131 1.391 . S
C2131 H2119 0.950 . S
C2131 C2127 1.393 . S
C2131 C2130 1.391 . S
H2132 C2140 0.950 . S
H2133 C2145 0.950 . S
H2134 C2142 0.950 . S
H2135 C2144 0.950 . S
H2136 C2146 0.950 . S
H2137 C2148 0.950 . S
H2138 C2150 0.950 . S
H2139 C2151 0.950 . S
C2140 H2132 0.950 . S
C2140 C2141 1.386 . S
C2140 C2142 1.391 . S
C2141 C2140 1.386 . S
C2141 C2145 1.393 . S
C2142 H2134 0.950 . S
C2142 C2140 1.391 . S
C2142 C2143 1.400 . S
C2143 C2142 1.400 . S
C2143 C2144 1.398 . S
C2143 C2149 1.491 . S
C2144 H2135 0.950 . S
C2144 C2143 1.398 . S
C2144 C2145 1.391 . S
C2145 H2133 0.950 . S
C2145 C2141 1.393 . S
C2145 C2144 1.391 . S
C2146 H2136 0.950 . S
C2146 C2147 1.386 . S
C2146 C2148 1.391 . S
C2147 C2146 1.386 . S
C2147 C2151 1.393 . S
C2148 H2137 0.950 . S
C2148 C2146 1.391 . S
C2148 C2149 1.400 . S
C2149 C2143 1.491 . S
C2149 C2148 1.400 . S
C2149 C2150 1.398 . S
C2150 H2138 0.950 . S
C2150 C2149 1.398 . S
C2150 C2151 1.391 . S
C2151 H2139 0.950 . S
C2151 C2147 1.393 . S
C2151 C2150 1.391 . S
H2152 C2160 0.950 . S
H2153 C2165 0.950 . S
H2154 C2162 0.950 . S
H2155 C2164 0.950 . S
H2156 C2166 0.950 . S
H2157 C2168 0.950 . S
H2158 C2170 0.950 . S
H2159 C2171 0.950 . S
C2160 H2152 0.950 . S
C2160 C2161 1.386 . S
C2160 C2162 1.391 . S
C2161 C2160 1.386 . S
C2161 C2165 1.393 . S
C2162 H2154 0.950 . S
C2162 C2160 1.391 . S
C2162 C2163 1.400 . S
C2163 C2162 1.400 . S
C2163 C2164 1.398 . S
C2163 C2169 1.491 . S
C2164 H2155 0.950 . S
C2164 C2163 1.398 . S
C2164 C2165 1.391 . S
C2165 H2153 0.950 . S
C2165 C2161 1.393 . S
C2165 C2164 1.391 . S
C2166 H2156 0.950 . S
C2166 C2167 1.386 . S
C2166 C2168 1.391 . S
C2167 C2166 1.386 . S
C2167 C2171 1.393 . S
C2168 H2157 0.950 . S
C2168 C2166 1.391 . S
C2168 C2169 1.400 . S
C2169 C2163 1.491 . S
C2169 C2168 1.400 . S
C2169 C2170 1.398 . S
C2170 H2158 0.950 . S
C2170 C2169 1.398 . S
C2170 C2171 1.391 . S
C2171 H2159 0.950 . S
C2171 C2167 1.393 . S
C2171 C2170 1.391 . S
H2172 C2180 0.950 . S
H2173 C2185 0.950 . S
H2174 C2182 0.950 . S
H2175 C2184 0.950 . S
H2176 C2186 0.950 . S
H2177 C2188 0.950 . S
H2178 C2190 0.950 . S
H2179 C2191 0.950 . S
C2180 H2172 0.950 . S
C2180 C2181 1.386 . S
C2180 C2182 1.391 . S
C2181 C2180 1.386 . S
C2181 C2185 1.393 . S
C2182 H2174 0.950 . S
C2182 C2180 1.391 . S
C2182 C2183 1.400 . S
C2183 C2182 1.400 . S
C2183 C2184 1.398 . S
C2183 C2189 1.491 . S
C2184 H2175 0.950 . S
C2184 C2183 1.398 . S
C2184 C2185 1.391 . S
C2185 H2173 0.950 . S
C2185 C2181 1.393 . S
C2185 C2184 1.391 . S
C2186 H2176 0.950 . S
C2186 C2187 1.386 . S
C2186 C2188 1.391 . S
C2187 C2186 1.386 . S
C2187 C2191 1.393 . S
C2188 H2177 0.950 . S
C2188 C2186 1.391 . S
C2188 C2189 1.400 . S
C2189 C2183 1.491 . S
C2189 C2188 1.400 . S
C2189 C2190 1.398 . S
C2190 H2178 0.950 . S
C2190 C2189 1.398 . S
C2190 C2191 1.391 . S
C2191 H2179 0.950 . S
C2191 C2187 1.393 . S
C2191 C2190 1.391 . S
H2192 C2200 0.950 . S
H2193 C2205 0.950 . S
H2194 C2202 0.950 . S
H2195 C2204 0.950 . S
H2196 C2206 0.950 . S
H2197 C2208 0.950 . S
H2198 C2210 0.950 . S
H2199 C2211 0.950 . S
C2200 H2192 0.950 . S
C2200 C2201 1.386 . S
C2200 C2202 1.391 . S
C2201 C2200 1.386 . S
C2201 C2205 1.393 . S
C2202 H2194 0.950 . S
C2202 C2200 1.391 . S
C2202 C2203 1.400 . S
C2203 C2202 1.400 . S
C2203 C2204 1.398 . S
C2203 C2209 1.491 . S
C2204 H2195 0.950 . S
C2204 C2203 1.398 . S
C2204 C2205 1.391 . S
C2205 H2193 0.950 . S
C2205 C2201 1.393 . S
C2205 C2204 1.391 . S
C2206 H2196 0.950 . S
C2206 C2207 1.386 . S
C2206 C2208 1.391 . S
C2207 C2206 1.386 . S
C2207 C2211 1.393 . S
C2208 H2197 0.950 . S
C2208 C2206 1.391 . S
C2208 C2209 1.400 . S
C2209 C2203 1.491 . S
C2209 C2208 1.400 . S
C2209 C2210 1.398 . S
C2210 H2198 0.950 . S
C2210 C2209 1.398 . S
C2210 C2211 1.391 . S
C2211 H2199 0.950 . S
C2211 C2207 1.393 . S
C2211 C2210 1.391 . S
H2212 C2220 0.950 . S
H2213 C2225 0.950 . S
H2214 C2222 0.950 . S
H2215 C2224 0.950 . S
H2216 C2226 0.950 . S
H2217 C2228 0.950 . S
H2218 C2230 0.950 . S
H2219 C2231 0.950 . S
C2220 H2212 0.950 . S
C2220 C2221 1.386 . S
C2220 C2222 1.391 . S
C2221 C2220 1.386 . S
C2221 C2225 1.393 . S
C2222 H2214 0.950 . S
C2222 C2220 1.391 . S
C2222 C2223 1.400 . S
C2223 C2222 1.400 . S
C2223 C2224 1.398 . S
C2223 C2229 1.491 . S
C2224 H2215 0.950 . S
C2224 C2223 1.398 . S
C2224 C2225 1.391 . S
C2225 H2213 0.950 . S
C2225 C2221 1.393 . S
C2225 C2224 1.391 . S
C2226 H2216 0.950 . S
C2226 C2227 1.386 . S
C2226 C2228 1.391 . S
C2227 C2226 1.386 . S
C2227 C2231 1.393 . S
C2228 H2217 0.950 . S
C2228 C2226 1.391 . S
C2228 C2229 1.400 . S
C2229 C2223 1.491 . S
C2229 C2228 1.400 . S
C2229 C2230 1.398 . S
C2230 H2218 0.950 . S
C2230 C2229 1.398 . S
C2230 C2231 1.391 . S
C2231 H2219 0.950 . S
C2231 C2227 1.393 . S
C2231 C2230 1.391 . S
C1281 C1204 2.450 . S
C1287 C38 2.358 . S
C1301 C75 2.328 . S
C1307 C870 2.226 . S
C1321 C1257 2.213 . S
C1327 C144 2.120 . S
C1341 C1135 2.219 . S
C1347 C181 2.285 . S
C1361 C992 2.213 . S
C1367 C250 2.116 . S
C1381 C1029 2.218 . S
C1387 C287 2.330 . S
C1401 C1098 2.444 . S
C1407 C356 2.350 . S
C1421 C393 2.290 . S
C1427 C923 2.209 . S
C1441 C727 2.239 . S
C1447 C446 2.182 . S
C1461 C764 2.167 . S
C1467 C515 2.227 . S
C1481 C568 2.224 . S
C1487 C833 2.258 . S
C1501 C621 2.258 . S
C1507 C674 2.219 . S
C1521 C409 2.288 . S
C1527 C780 2.375 . S
C1541 C817 2.322 . S
C1547 C234 2.393 . S
C1561 C303 2.119 . S
C1567 C658 2.179 . S
C1581 C711 2.271 . S
C1587 C340 2.359 . S
C1601 C552 2.170 . S
C1607 C91 2.104 . S
C1621 C128 2.383 . S
C1627 C605 2.313 . S
C1641 C197 2.303 . S
C1647 C462 2.382 . S
C1661 C22 2.360 . S
C1667 C499 2.280 . S
C1681 C1082 2.217 . S
C1687 C1151 2.289 . S
C1701 C1188 2.231 . S
C1707 C939 2.294 . S
C1721 C976 2.133 . S
C1727 C886 2.210 . S
C1741 C1241 2.145 . S
C1747 C1045 2.220 . S
C1761 C39 1.869 . S
C1767 C463 1.938 . S
C1781 C506 1.316 . S
C1787 C82 1.327 . S
C1801 C145 1.485 . S
C1807 C559 1.533 . S
C1821 C188 1.433 . S
C1827 C612 1.400 . S
C1841 C251 1.505 . S
C1847 C665 1.552 . S
C1861 C294 1.309 . S
C1867 C718 1.301 . S
C1881 C781 1.953 . S
C1887 C357 1.873 . S
C1901 C824 1.397 . S
C1907 C400 1.457 . S
C1921 C453 1.630 . S
C1927 C887 1.629 . S
C1941 C516 1.649 . S
C1947 C1248 1.639 . S
C1961 C1152 1.935 . S
C1967 C569 1.968 . S
C1981 C1195 1.628 . S
C1987 C622 1.632 . S
C2001 C940 1.935 . S
C2007 C675 1.961 . S
C2021 C983 1.654 . S
C2027 C728 1.631 . S
C2041 C771 1.639 . S
C2047 C1046 1.623 . S
C2061 C834 1.631 . S
C2067 C1089 1.630 . S
C2081 C29 1.415 . S
C2087 C877 1.405 . S
C2101 C930 1.411 . S
C2107 C241 1.401 . S
C2121 C993 1.948 . S
C2127 C304 1.884 . S
C2141 C1036 1.412 . S
C2147 C347 1.426 . S
C2161 C1099 1.978 . S
C2167 C410 1.927 . S
C2181 C1142 1.428 . S
C2187 C135 1.400 . S
C2201 C198 1.926 . S
C2207 C1205 1.998 . S
C2221 C1258 1.947 . S
C2227 C92 1.887 . S
