# Generated by pormake.
# Topology smm, (6)-cn, num edge types: 1
# Building blocks:
#     Node 0, Type 0, BuildingBlock: KUMBOL_clean_sbu_1, # of connection points: 6
#     Node 1, Type 0, BuildingBlock: KUMBOL_clean_sbu_1, # of connection points: 6
#     Node 2, Type 0, BuildingBlock: KUMBOL_clean_sbu_1, # of connection points: 6
#     Node 3, Type 0, BuildingBlock: KUMBOL_clean_sbu_1, # of connection points: 6
#     Node 4, Type 0, BuildingBlock: KUMBOL_clean_sbu_1, # of connection points: 6
#     Node 5, Type 0, BuildingBlock: KUMBOL_clean_sbu_1, # of connection points: 6
#     Node 6, Type 0, BuildingBlock: KUMBOL_clean_sbu_1, # of connection points: 6
#     Node 7, Type 0, BuildingBlock: KUMBOL_clean_sbu_1, # of connection points: 6
#     Node 8, Type 0, BuildingBlock: KUMBOL_clean_sbu_1, # of connection points: 6
#     Edge 9, Type (0, 0), BuildingBlock: KIFKEQ_clean_linker_1, # of connection points: 2
#     Edge 10, Type (0, 0), BuildingBlock: KIFKEQ_clean_linker_1, # of connection points: 2
#     Edge 11, Type (0, 0), BuildingBlock: KIFKEQ_clean_linker_1, # of connection points: 2
#     Edge 12, Type (0, 0), BuildingBlock: KIFKEQ_clean_linker_1, # of connection points: 2
#     Edge 13, Type (0, 0), BuildingBlock: KIFKEQ_clean_linker_1, # of connection points: 2
#     Edge 14, Type (0, 0), BuildingBlock: KIFKEQ_clean_linker_1, # of connection points: 2
#     Edge 15, Type (0, 0), BuildingBlock: KIFKEQ_clean_linker_1, # of connection points: 2
#     Edge 16, Type (0, 0), BuildingBlock: KIFKEQ_clean_linker_1, # of connection points: 2
#     Edge 17, Type (0, 0), BuildingBlock: KIFKEQ_clean_linker_1, # of connection points: 2
#     Edge 18, Type (0, 0), BuildingBlock: KIFKEQ_clean_linker_1, # of connection points: 2
#     Edge 19, Type (0, 0), BuildingBlock: KIFKEQ_clean_linker_1, # of connection points: 2
#     Edge 20, Type (0, 0), BuildingBlock: KIFKEQ_clean_linker_1, # of connection points: 2
#     Edge 21, Type (0, 0), BuildingBlock: KIFKEQ_clean_linker_1, # of connection points: 2
#     Edge 22, Type (0, 0), BuildingBlock: KIFKEQ_clean_linker_1, # of connection points: 2
#     Edge 23, Type (0, 0), BuildingBlock: KIFKEQ_clean_linker_1, # of connection points: 2
#     Edge 24, Type (0, 0), BuildingBlock: KIFKEQ_clean_linker_1, # of connection points: 2
#     Edge 25, Type (0, 0), BuildingBlock: KIFKEQ_clean_linker_1, # of connection points: 2
#     Edge 26, Type (0, 0), BuildingBlock: KIFKEQ_clean_linker_1, # of connection points: 2
#     Edge 27, Type (0, 0), BuildingBlock: KIFKEQ_clean_linker_1, # of connection points: 2
#     Edge 28, Type (0, 0), BuildingBlock: KIFKEQ_clean_linker_1, # of connection points: 2
#     Edge 29, Type (0, 0), BuildingBlock: KIFKEQ_clean_linker_1, # of connection points: 2
#     Edge 30, Type (0, 0), BuildingBlock: KIFKEQ_clean_linker_1, # of connection points: 2
#     Edge 31, Type (0, 0), BuildingBlock: KIFKEQ_clean_linker_1, # of connection points: 2
#     Edge 32, Type (0, 0), BuildingBlock: KIFKEQ_clean_linker_1, # of connection points: 2
#     Edge 33, Type (0, 0), BuildingBlock: KIFKEQ_clean_linker_1, # of connection points: 2
#     Edge 34, Type (0, 0), BuildingBlock: KIFKEQ_clean_linker_1, # of connection points: 2
#     Edge 35, Type (0, 0), BuildingBlock: KIFKEQ_clean_linker_1, # of connection points: 2
# Relax obj value: 0.107
# Max RMSD: 0.220
# Mean RMSD: 0.173
data_MOF--net-smm--node1-KUMBOL_clean_sbu_1--edge1-KIFKEQ_clean_linker_1
_symmetry_space_group_name_H-M    P1
_symmetry_Int_Tables_number       1
_symmetry_cell_setting            triclinic
loop_
_symmetry_equiv_pos_as_xyz
'x, y, z'
_cell_length_a     60.879912
_cell_length_b     75.876313
_cell_length_c     15.24111
_cell_angle_alpha  96.471184
_cell_angle_beta   96.901776
_cell_angle_gamma 121.3734
loop_
_atom_site_label
_atom_site_type_symbol
_atom_site_fract_x
_atom_site_fract_y
_atom_site_fract_z
_atom_type_partial_charge
C0 C 0.14748 0.23572 0.24889 0.0
C1 C 0.16653 0.22962 0.12639 0.0
C2 C 0.14676 0.23163 0.15621 0.0
C3 C 0.18708 0.232 0.19 0.0
C4 C 0.16797 0.23787 0.31256 0.0
C5 C 0.18779 0.23611 0.28262 0.0
N6 N 0.12765 0.2368 0.27644 0.0
C7 C 0.12775 0.24093 0.36605 0.0
C8 C 0.16782 0.24155 0.4046 0.0
C9 C 0.14768 0.24316 0.43139 0.0
Gd10 Gd 0.02868 0.17885 0.09699 0.0
Gd11 Gd 0.09692 0.2343 0.16007 0.0
N12 N 0.12607 0.22855 0.0955 0.0
C13 C 0.16487 0.22497 0.03335 0.0
C14 C 0.12481 0.22471 0.00497 0.0
C15 C 0.14399 0.2226 0.97247 0.0
H16 H 0.10944 0.22368 0.95757 0.0
H17 H 0.1428 0.21937 0.90047 0.0
H18 H 1.01312 0.17762 0.30081 0.0
H19 H 0.11304 0.24324 0.38765 0.0
H20 H 0.9779 0.17609 0.3705 0.0
H21 H 0.17967 0.22328 0.00781 0.0
H22 H 0.20243 0.2305 0.1682 0.0
H23 H 1.00666 0.16755 0.87232 0.0
H24 H 0.18324 0.2433 0.45552 0.0
H25 H 0.14767 0.24638 0.50241 0.0
H26 H 0.91394 0.16615 0.11957 0.0
H27 H 0.2037 0.23773 0.33065 0.0
H28 H 0.93168 0.16051 0.82299 0.0
H29 H 0.96861 0.16159 0.76561 0.0
N30 N 0.99257 0.17142 0.98908 0.0
C31 C 0.97206 0.17004 0.02186 0.0
C32 C 0.99125 0.16793 0.89832 0.0
C33 C 0.9486 0.16349 0.87023 0.0
C34 C 0.96944 0.16417 0.83757 0.0
C35 C 0.94958 0.16619 0.96333 0.0
H36 H 0.91141 0.16216 0.95549 0.0
N37 N 0.99557 0.17624 0.16904 0.0
C38 C 0.97352 0.17238 0.1145 0.0
C39 C 0.95443 0.17265 0.2443 0.0
C40 C 0.9525 0.17079 0.15083 0.0
C41 C 0.99686 0.17673 0.25923 0.0
C42 C 0.97658 0.17535 0.29857 0.0
O43 O 0.09627 0.2038 0.17003 0.0
O44 O 0.06371 0.18175 0.05016 0.0
O45 O 1.02408 0.15376 0.16515 0.0
O46 O 1.00722 0.1467 0.02233 0.0
O47 O 0.07344 0.22619 0.01779 0.0
O48 O 0.04847 0.18981 0.98068 0.0
O49 O 1.02259 0.20641 0.11203 0.0
O50 O 0.06265 0.23854 0.1646 0.0
O51 O 0.1185 0.26114 0.09757 0.0
O52 O 0.12344 0.26552 0.24294 0.0
O53 O 0.05421 0.19162 0.23861 0.0
O54 O 0.07311 0.22738 0.26746 0.0
C55 C 0.08426 0.18622 0.10857 0.0
C56 C 0.0594 0.20832 0.95772 0.0
C57 C 0.98712 0.11945 0.10074 0.0
C58 C 0.96694 0.0823 0.10671 0.0
C59 C 0.94039 0.09766 0.09544 0.0
C60 C 0.96264 0.11721 0.0955 0.0
C61 C 0.94242 0.08028 0.10031 0.0
C62 C 0.9893 0.10212 0.10713 0.0
C63 C 1.01021 0.13916 0.09211 0.0
C64 C 0.93024 0.16729 0.09286 0.0
C65 C 0.9288 0.16501 -0.0006 0.0
H66 H 0.9387 0.17153 0.2749 0.0
C67 C 0.03662 0.22717 0.14004 0.0
C68 C 0.06183 0.20934 0.29362 0.0
C69 C 0.12859 0.29377 0.17783 0.0
C70 C 0.14518 0.32795 0.13716 0.0
C71 C 0.11239 0.31541 0.23004 0.0
C72 C 0.11266 0.29711 0.22756 0.0
C73 C 0.12856 0.3308 0.18519 0.0
C74 C 0.14489 0.30925 0.133 0.0
C75 C 0.12917 0.27463 0.17444 0.0
H76 H 0.92143 0.09589 0.09021 0.0
H77 H 0.96064 0.13039 0.08955 0.0
H78 H 0.92466 0.06518 0.09759 0.0
H79 H 1.00843 0.10413 0.11191 0.0
H80 H 0.09995 0.31785 0.26809 0.0
H81 H 0.1008 0.28572 0.26561 0.0
H82 H 0.12858 0.34516 0.19007 0.0
H83 H 0.1574 0.30675 0.09527 0.0
C84 C 0.9744 0.81064 0.98629 0.0
C85 C 1.00511 0.8206 0.1283 0.0
C86 C 0.9807 0.8158 0.08082 0.0
C87 C 1.0231 0.8201 0.08016 0.0
C88 C 0.99246 0.81006 0.93816 0.0
C89 C 1.01681 0.81487 0.98554 0.0
N90 N 0.95074 0.8062 0.94161 0.0
C91 C 0.94329 0.79974 0.84997 0.0
C92 C 0.98543 0.80449 0.84368 0.0
C93 C 0.96066 0.79914 0.7995 0.0
Gd94 Gd 0.92238 0.86005 0.06763 0.0
Gd95 Gd 0.92337 0.80678 0.03503 0.0
N96 N 0.96344 0.81716 0.12602 0.0
C97 C 1.01083 0.82598 0.22286 0.0
C98 C 0.96834 0.82139 0.21807 0.0
C99 C 0.99227 0.8262 0.26789 0.0
H100 H 0.9537 0.82064 0.25328 0.0
H101 H 0.99626 0.82983 0.34097 0.0
H102 H 0.91201 0.86911 0.85979 0.0
H103 H 0.92369 0.79435 0.8157 0.0
H104 H 0.87938 0.87258 0.76467 0.0
H105 H 0.02939 0.82977 0.26175 0.0
H106 H 0.042 0.8238 0.11553 0.0
H107 H 0.90863 0.85988 0.27284 0.0
H108 H 0.99879 0.80388 0.80432 0.0
H109 H 0.95476 0.79421 0.72668 0.0
H110 H 0.82049 0.86833 0.95665 0.0
H111 H 0.03094 0.81454 0.94954 0.0
H112 H 0.83824 0.86002 0.25931 0.0
H113 H 0.87405 0.85852 0.34658 0.0
N114 N 0.89079 0.85925 0.14335 0.0
C115 C 0.87276 0.862 0.09633 0.0
C116 C 0.89224 0.85912 0.23313 0.0
C117 C 0.85305 0.86005 0.22628 0.0
C118 C 0.87308 0.85902 0.27558 0.0
C119 C 0.85299 0.86196 0.13592 0.0
H120 H 0.8186 0.86395 0.11365 0.0
N121 N 0.89339 0.86461 0.9719 0.0
C122 C 0.87412 0.86477 0.00812 0.0
C123 C 0.85712 0.86972 0.86787 0.0
C124 C 0.85533 0.86717 0.9568 0.0
C125 C 0.89579 0.86787 0.88641 0.0
C126 C 0.87755 0.87022 0.83279 0.0
O127 O 0.96428 0.84145 0.06722 0.0
O128 O 0.95509 0.86325 0.00223 0.0
O129 O 0.9361 0.89274 0.06132 0.0
O130 O 0.95099 0.88505 0.18017 0.0
O131 O 0.90878 0.81354 0.15466 0.0
O132 O 0.93596 0.84915 0.1831 0.0
O133 O 0.88165 0.83039 0.04937 0.0
O134 O 0.88097 0.79992 0.99625 0.0
O135 O 0.91364 0.7816 0.11185 0.0
O136 O 0.90904 0.77416 0.96963 0.0
O137 O 0.9261 0.84852 0.92936 0.0
O138 O 0.90765 0.81217 0.90427 0.0
C139 C 0.9727 0.85955 0.03681 0.0
C140 C 0.92033 0.83177 0.20999 0.0
C141 C 0.96777 0.92214 0.18531 0.0
C142 C 0.98057 0.95874 0.1947 0.0
C143 C 1.00298 0.94969 0.3064 0.0
C144 C 0.98711 0.92855 0.26318 0.0
C145 C 0.99979 0.9647 0.2726 0.0
C146 C 0.96439 0.9373 0.15136 0.0
C147 C 0.95109 0.89961 0.14166 0.0
C148 C 0.83522 0.86667 0.99531 0.0
C149 C 0.83408 0.86411 0.08465 0.0
H150 H 0.84299 0.87152 0.82608 0.0
C151 C 0.86888 0.81007 0.01296 0.0
C152 C 0.91561 0.82992 0.87517 0.0
C153 C 0.88271 0.74482 0.03988 0.0
C154 C 0.85972 0.70684 0.05708 0.0
C155 C 0.83496 0.72262 0.01231 0.0
C156 C 0.85799 0.74196 0.01591 0.0
C157 C 0.83579 0.70546 0.03266 0.0
C158 C 0.88358 0.72692 0.06026 0.0
C159 C 0.9068 0.76661 0.04313 0.0
H160 H 1.01778 0.95447 0.36658 0.0
H161 H 0.99002 0.9172 0.29087 0.0
H162 H 1.01216 0.98099 0.30838 0.0
H163 H 0.94941 0.9325 0.0915 0.0
H164 H 0.81611 0.72091 0.99371 0.0
H165 H 0.8565 0.75488 -0.00028 0.0
H166 H 0.81731 0.6908 0.0292 0.0
H167 H 0.90245 0.7287 0.07949 0.0
C168 C 0.19709 0.95332 0.07346 0.0
C169 C 0.17158 0.92992 0.92765 0.0
C170 C 0.18986 0.95033 0.97985 0.0
C171 C 0.16081 0.91261 0.97019 0.0
C172 C 0.18636 0.93594 0.11613 0.0
C173 C 0.16819 0.91561 0.06401 0.0
N174 N 0.21466 0.9732 0.12264 0.0
C175 C 0.22341 0.97663 0.21318 0.0
C176 C 0.19434 0.93952 0.20993 0.0
C177 C 0.21309 0.95994 0.25855 0.0
Gd178 Gd 0.2074 0.03977 0.03798 0.0
Gd179 Gd 0.2319 0.99951 0.03893 0.0
N180 N 0.20011 0.96747 0.94055 0.0
C181 C 0.16461 0.92749 0.83414 0.0
C182 C 0.19429 0.96504 0.84903 0.0
C183 C 0.17615 0.94511 0.79466 0.0
H184 H 0.20412 0.97819 0.81691 0.0
H185 H 0.17143 0.94331 0.72214 0.0
H186 H 0.23133 0.05906 0.26561 0.0
H187 H 0.23912 0.99206 0.2497 0.0
H188 H 0.26482 0.09275 0.36561 0.0
H189 H 0.15063 0.91205 0.79169 0.0
H190 H 0.14673 0.89681 0.93107 0.0
H191 H 0.20876 0.04854 0.82754 0.0
H192 H 0.18652 0.92657 0.24519 0.0
H193 H 0.21998 0.96278 0.33065 0.0
H194 H 0.29853 0.14076 0.16639 0.0
H195 H 0.15971 0.90207 0.09565 0.0
H196 H 0.26501 0.11414 0.84798 0.0
H197 H 0.23229 0.07866 0.75431 0.0
N198 N 0.23006 0.06626 0.95999 0.0
C199 C 0.24714 0.08575 0.01353 0.0
C200 C 0.22413 0.06365 0.86843 0.0
C201 C 0.25515 0.10085 0.88032 0.0
C202 C 0.23689 0.08082 0.82707 0.0
C203 C 0.26035 0.10355 0.97462 0.0
H204 H 0.28919 0.13717 0.00179 0.0
N205 N 0.23981 0.07021 0.14411 0.0
C206 C 0.25251 0.08771 0.10755 0.0
C207 C 0.276 0.10927 0.25688 0.0
C208 C 0.27113 0.10764 0.1633 0.0
C209 C 0.24337 0.07206 0.23562 0.0
C210 C 0.2619 0.09145 0.29313 0.0
O211 O 0.1869 0.98382 0.03992 0.0
O212 O 0.17124 1.00596 0.03085 0.0
O213 O 0.18953 0.0549 0.10613 0.0
O214 O 0.18148 0.04671 0.96104 0.0
O215 O 0.23299 1.01454 0.91815 0.0
O216 O 0.19682 1.01713 0.90697 0.0
O217 O 0.25095 0.05244 0.02075 0.0
O218 O 0.26566 0.03412 0.09128 0.0
O219 O 0.25319 0.99114 0.95414 0.0
O220 O 0.26247 0.99498 0.09821 0.0
O221 O 0.20488 0.02525 0.16138 0.0
O222 O 0.23881 0.01956 0.17379 0.0
C223 C 0.16719 0.98701 0.03518 0.0
C224 C 0.21453 1.01577 0.87046 0.0
C225 C 0.15368 0.05586 0.02299 0.0
C226 C 0.12976 0.07411 0.03226 0.0
C227 C 0.10693 0.03683 0.95967 0.0
C228 C 0.13007 0.03717 0.97905 0.0
C229 C 0.10677 0.055 0.98496 0.0
C230 C 0.15356 0.07448 0.04978 0.0
C231 C 0.17863 0.05636 0.0307 0.0
C232 C 0.28418 0.12536 0.12436 0.0
C233 C 0.27879 0.12333 0.03055 0.0
H234 H 0.29016 0.12432 0.30187 0.0
C235 C 0.27072 0.05098 0.05865 0.0
C236 C 0.22108 0.02142 0.20815 0.0
C237 C 0.26892 0.97058 0.01093 0.0
C238 C 0.28925 0.95159 0.95844 0.0
C239 C 0.25454 0.93585 0.04249 0.0
C240 C 0.25315 0.95366 0.05077 0.0
C241 C 0.27231 0.93475 0.99652 0.0
C242 C 0.28749 0.96963 0.96563 0.0
C243 C 0.26688 0.98948 0.02151 0.0
H244 H 0.08894 0.0224 0.92362 0.0
H245 H 0.12968 0.02289 0.95715 0.0
H246 H 0.08838 0.05402 0.96617 0.0
H247 H 0.17178 0.08904 0.08345 0.0
H248 H 0.24208 0.92295 0.07342 0.0
H249 H 0.24018 0.95433 0.09082 0.0
H250 H 0.27333 0.92085 0.99277 0.0
H251 H 0.30043 0.98276 0.9366 0.0
C252 C 0.67669 0.47356 0.05775 0.0
C253 C 0.66081 0.45902 0.18733 0.0
C254 C 0.6805 0.47467 0.15073 0.0
C255 C 0.63769 0.44209 0.12947 0.0
C256 C 0.6533 0.4568 -0.00032 0.0
C257 C 0.63391 0.44102 0.03602 0.0
N258 N 0.69626 0.48852 0.02387 0.0
C259 C 0.69317 0.48846 0.9337 0.0
C260 C 0.65031 0.45624 0.90661 0.0
C261 C 0.67027 0.47223 0.87359 0.0
Gd262 Gd 0.7954 0.5098 0.14645 0.0
Gd263 Gd 0.73336 0.5152 0.13003 0.0
N264 N 0.70318 0.49119 0.2053 0.0
C265 C 0.66472 0.46105 0.28124 0.0
C266 C 0.70587 0.49422 0.29682 0.0
C267 C 0.68714 0.47894 0.33626 0.0
H268 H 0.72173 0.50877 0.33967 0.0
H269 H 0.68971 0.48123 0.40904 0.0
H270 H 0.81788 0.52268 0.96195 0.0
H271 H 0.70817 0.50102 0.90794 0.0
H272 H 0.85656 0.55199 0.91956 0.0
H273 H 0.6501 0.44933 0.31199 0.0
H274 H 0.62245 0.42985 0.15646 0.0
H275 H 0.8126 0.5155 0.37428 0.0
H276 H 0.63263 0.4436 0.85978 0.0
H277 H 0.66798 0.4721 0.80195 0.0
H278 H 0.9098 0.59916 0.20381 0.0
H279 H 0.6159 0.42791 0.9924 0.0
H280 H 0.88216 0.57668 0.47399 0.0
H281 H 0.84571 0.54342 0.50202 0.0
N282 N 0.82707 0.53409 0.27521 0.0
C283 C 0.84821 0.5514 0.25773 0.0
C284 C 0.82702 0.53052 0.36115 0.0
C285 C 0.86694 0.56479 0.41764 0.0
C286 C 0.84635 0.54609 0.43382 0.0
C287 C 0.86857 0.56731 0.3286 0.0
H288 H 0.90612 0.59723 0.36196 0.0
N289 N 0.83085 0.53678 0.10145 0.0
C290 C 0.8505 0.55251 0.16847 0.0
C291 C 0.87482 0.56939 0.05707 0.0
C292 C 0.87284 0.56951 0.14786 0.0
C293 C 0.83313 0.53595 0.01342 0.0
C294 C 0.85499 0.55241 0.98965 0.0
O295 O 0.7267 0.4826 0.07967 0.0
O296 O 0.75798 0.48201 0.17529 0.0
O297 O 0.79849 0.48614 0.06234 0.0
O298 O 0.82376 0.5018 0.19311 0.0
O299 O 0.75999 0.52604 0.26802 0.0
O300 O 0.77412 0.50331 0.26196 0.0
O301 O 0.80054 0.54107 0.11103 0.0
O302 O 0.77322 0.54547 0.18721 0.0
O303 O 0.71225 0.52744 0.19202 0.0
O304 O 0.72168 0.53336 0.05948 0.0
O305 O 0.76995 0.49995 0.00668 0.0
O306 O 0.75243 0.52075 0.00881 0.0
C307 C 0.73391 0.4721 0.12581 0.0
C308 C 0.768 0.51529 0.30753 0.0
C309 C 0.81081 0.46656 0.14404 0.0
C310 C 0.82272 0.4404 0.15803 0.0
C311 C 0.78215 0.43469 0.19634 0.0
C312 C 0.78781 0.45375 0.17458 0.0
C313 C 0.79934 0.42803 0.18788 0.0
C314 C 0.82863 0.45997 0.13685 0.0
C315 C 0.81612 0.48695 0.12334 0.0
C316 C 0.89256 0.58583 0.21825 0.0
C317 C 0.89041 0.58476 0.30834 0.0
H318 H 0.89172 0.58217 0.03846 0.0
C319 C 0.79293 0.55344 0.14542 0.0
C320 C 0.76111 0.51022 0.9662 0.0
C321 C 0.69783 0.54777 0.1205 0.0
C322 C 0.68522 0.57034 0.19552 0.0
C323 C 0.67448 0.55983 0.03151 0.0
C324 C 0.68655 0.54852 0.03641 0.0
C325 C 0.67388 0.57073 0.11028 0.0
C326 C 0.69685 0.55847 0.20027 0.0
C327 C 0.71073 0.53595 0.124 0.0
H328 H 0.76429 0.42501 0.21987 0.0
H329 H 0.77421 0.45853 0.18208 0.0
H330 H 0.7944 0.41311 0.20527 0.0
H331 H 0.8466 0.46975 0.11397 0.0
H332 H 0.66569 0.56026 0.96636 0.0
H333 H 0.68692 0.54024 0.97441 0.0
H334 H 0.66447 0.57947 0.10451 0.0
H335 H 0.70589 0.55817 0.26541 0.0
C336 C 0.57443 0.16412 0.02842 0.0
C337 C 0.60618 0.17515 0.16855 0.0
C338 C 0.58143 0.17009 0.12294 0.0
C339 C 0.62362 0.17409 0.11896 0.0
C340 C 0.59199 0.16314 0.97876 0.0
C341 C 0.61653 0.16808 0.02455 0.0
N342 N 0.55106 0.16037 0.98489 0.0
C343 C 0.54338 0.15452 0.89317 0.0
C344 C 0.58456 0.15765 0.88424 0.0
C345 C 0.56011 0.15325 0.84134 0.0
Gd346 Gd 0.52776 0.21667 0.11695 0.0
Gd347 Gd 0.52442 0.16173 0.07873 0.0
N348 N 0.56454 0.1717 0.16974 0.0
C349 C 0.61283 0.1813 0.26283 0.0
C350 C 0.57045 0.17669 0.26183 0.0
C351 C 0.5948 0.18189 0.30961 0.0
H352 H 0.55636 0.17613 0.29934 0.0
H353 H 0.59951 0.18608 0.38266 0.0
H354 H 0.5005 0.21123 0.9007 0.0
H355 H 0.52418 0.15049 0.86005 0.0
H356 H 0.46161 0.20896 0.81882 0.0
H357 H 0.6317 0.18537 0.30022 0.0
H358 H 0.64276 0.17804 0.15303 0.0
H359 H 0.53212 0.23231 0.33595 0.0
H360 H 0.59755 0.15676 0.84378 0.0
H361 H 0.5541 0.14876 0.76844 0.0
H362 H 0.42186 0.22102 0.0525 0.0
H363 H 0.63034 0.16753 0.98746 0.0
H364 H 0.46487 0.23534 0.36032 0.0
H365 H 0.50575 0.23835 0.43156 0.0
N366 N 0.50542 0.22427 0.21327 0.0
C367 C 0.48365 0.22335 0.1724 0.0
C368 C 0.51378 0.23007 0.30479 0.0
C369 C 0.47614 0.23227 0.31831 0.0
C370 C 0.49914 0.23391 0.35883 0.0
C371 C 0.4683 0.2272 0.22398 0.0
H372 H 0.43377 0.22894 0.21851 0.0
N373 N 0.49211 0.2152 0.03059 0.0
C374 C 0.4769 0.21885 0.07849 0.0
C375 C 0.4489 0.21412 0.93967 0.0
C376 C 0.45467 0.21813 0.03419 0.0
C377 C 0.48734 0.21238 0.93866 0.0
C378 C 0.46549 0.21148 0.8918 0.0
O379 O 0.55874 0.1917 0.05217 0.0
O380 O 0.56411 0.21594 0.16769 0.0
O381 O 0.55219 0.24202 0.04877 0.0
O382 O 0.5499 0.25001 0.18498 0.0
O383 O 0.51526 0.1708 0.20958 0.0
O384 O 0.53887 0.20718 0.24223 0.0
O385 O 0.48418 0.18626 0.09902 0.0
O386 O 0.48378 0.1551 0.07637 0.0
O387 O 0.52099 0.13657 0.14264 0.0
O388 O 0.50418 0.12979 5e-05 0.0
O389 O 0.53035 0.20363 0.97993 0.0
O390 O 0.50541 0.16713 0.95637 0.0
C391 C 0.57435 0.20932 0.11176 0.0
C392 C 0.52515 0.18888 0.2659 0.0
C393 C 0.56362 0.27763 0.10055 0.0
C394 C 0.59076 0.31576 0.0932 0.0
C395 C 0.54271 0.29604 0.0558 0.0
C396 C 0.54091 0.2777 0.07281 0.0
C397 C 0.56717 0.31471 0.06549 0.0
C398 C 0.58885 0.29694 0.11166 0.0
C399 C 0.56058 0.25739 0.11783 0.0
C400 C 0.43909 0.2216 0.08541 0.0
C401 C 0.44587 0.22611 0.17998 0.0
H402 H 0.432 0.21346 0.90312 0.0
C403 C 0.47146 0.16503 0.08555 0.0
C404 C 0.51639 0.1848 0.92606 0.0
C405 C 0.48597 0.1014 0.07882 0.0
C406 C 0.47126 0.07121 0.15317 0.0
C407 C 0.4435 0.06914 0.0176 0.0
C408 C 0.46234 0.0898 0.01393 0.0
C409 C 0.448 0.0598 0.08552 0.0
C410 C 0.49013 0.09218 0.14901 0.0
C411 C 0.50762 0.12214 0.06916 0.0
H412 H 0.52492 0.29578 0.03443 0.0
H413 H 0.52162 0.26345 0.0642 0.0
H414 H 0.56765 0.32856 0.05117 0.0
H415 H 0.60666 0.2972 0.13281 0.0
H416 H 0.42553 0.06013 0.96629 0.0
H417 H 0.45865 0.09646 0.95908 0.0
H418 H 0.43332 0.04344 0.08344 0.0
H419 H 0.50827 0.10138 0.19957 0.0
C420 C 0.96768 0.40071 0.17922 0.0
C421 C 0.9667 0.42204 0.30863 0.0
C422 C 0.96628 0.40412 0.26961 0.0
C423 C 0.96734 0.43606 0.25468 0.0
C424 C 0.9693 0.41522 0.12593 0.0
C425 C 0.96848 0.43259 0.16351 0.0
N426 N 0.96896 0.38398 0.145 0.0
C427 C 0.97519 0.38249 0.06239 0.0
C428 C 0.97267 0.41228 0.03737 0.0
C429 C 0.97614 0.39607 0.00612 0.0
Gd430 Gd 0.89091 0.30997 0.17737 0.0
Gd431 Gd 0.96566 0.36184 0.24585 0.0
N432 N 0.96443 0.38981 0.31952 0.0
C433 C 0.96652 0.42535 0.40087 0.0
C434 C 0.96559 0.3934 0.41026 0.0
C435 C 0.96627 0.41109 0.4521 0.0
H436 H 0.96563 0.3824 0.44953 0.0
H437 H 0.96662 0.41372 0.52366 0.0
H438 H 0.87937 0.29815 0.94931 0.0
H439 H 0.98009 0.37121 0.03993 0.0
H440 H 0.87141 0.26944 0.83072 0.0
H441 H 0.96687 0.43897 0.43335 0.0
H442 H 0.96729 0.44978 0.28309 0.0
H443 H 0.88921 0.2931 0.37029 0.0
H444 H 0.97387 0.42301 0.99416 0.0
H445 H 0.98021 0.39435 0.93956 0.0
H446 H 0.86424 0.21637 0.99117 0.0
H447 H 0.96947 0.44377 0.12326 0.0
H448 H 0.87288 0.23049 0.31244 0.0
H449 H 0.88217 0.26133 0.42268 0.0
N450 N 0.88552 0.28091 0.23333 0.0
C451 C 0.87941 0.26391 0.17103 0.0
C452 C 0.88593 0.28002 0.3223 0.0
C453 C 0.87619 0.2445 0.28931 0.0
C454 C 0.88157 0.26191 0.35185 0.0
C455 C 0.87489 0.24529 0.19754 0.0
H456 H 0.86628 0.21386 0.15119 0.0
N457 N 0.88187 0.28333 0.05732 0.0
C458 C 0.87813 0.26533 0.08071 0.0
C459 C 0.87069 0.24991 0.92402 0.0
C460 C 0.8725 0.24815 0.01468 0.0
C461 C 0.87865 0.28466 0.96862 0.0
C462 C 0.87355 0.26818 0.90087 0.0
O463 O 0.92953 0.363 0.2648 0.0
O464 O 0.89924 0.34037 0.1393 0.0
O465 O 0.85027 0.29321 0.10238 0.0
O466 O 0.85941 0.30734 0.24246 0.0
O467 O 0.9512 0.34206 0.35066 0.0
O468 O 0.90637 0.32802 0.32318 0.0
O469 O 0.92444 0.304 0.21424 0.0
O470 O 0.96334 0.33184 0.18799 0.0
O471 O 0.99797 0.3703 0.35738 0.0
O472 O 1.00609 0.38565 0.24471 0.0
O473 O 0.90833 0.32846 0.07039 0.0
O474 O 0.95302 0.34217 0.10333 0.0
C475 C 0.91008 0.35802 0.19851 0.0
C476 C 0.929 0.33511 0.37854 0.0
C477 C 0.8156 0.27755 0.18139 0.0
C478 C 0.7674 0.25782 0.17127 0.0
C479 C 0.79253 0.24222 0.21183 0.0
C480 C 0.8157 0.26025 0.20454 0.0
C481 C 0.76871 0.24098 0.19534 0.0
C482 C 0.79123 0.27639 0.16518 0.0
C483 C 0.84074 0.29616 0.17046 0.0
C484 C 0.86849 0.2297 0.04095 0.0
C485 C 0.86958 0.22825 0.13207 0.0
H486 H 0.86649 0.23709 0.87129 0.0
C487 C 0.94854 0.31209 0.19781 0.0
C488 C 0.93058 0.334 0.04484 0.0
C489 C 0.04156 0.38639 0.33034 0.0
C490 C 0.08937 0.40619 0.39172 0.0
C491 C 0.06779 0.37409 0.27433 0.0
C492 C 0.04348 0.37166 0.27357 0.0
C493 C 0.09047 0.3912 0.3318 0.0
C494 C 0.06453 0.40369 0.38966 0.0
C495 C 1.01605 0.38463 0.32275 0.0
H496 H 0.79301 0.22901 0.22981 0.0
H497 H 0.83373 0.26056 0.21638 0.0
H498 H 0.75108 0.22667 0.20152 0.0
H499 H 0.79073 0.28951 0.14591 0.0
H500 H 0.06916 0.36279 0.22909 0.0
H501 H 0.0262 0.35856 0.2271 0.0
H502 H 0.10903 0.39278 0.32784 0.0
H503 H 0.06295 0.41506 0.43368 0.0
C504 C 0.52182 0.92601 0.88613 0.0
C505 C 0.54571 0.9214 0.77856 0.0
C506 C 0.52377 0.92161 0.79751 0.0
C507 C 0.56523 0.92489 0.85022 0.0
C508 C 0.54181 0.93022 0.95823 0.0
C509 C 0.56327 0.92925 0.93981 0.0
N510 N 0.5011 0.92724 0.90165 0.0
C511 C 0.50007 0.93397 0.98717 0.0
C512 C 0.53999 0.93583 0.04655 0.0
C513 C 0.51918 0.93795 0.06096 0.0
Gd514 Gd 0.4025 0.86395 0.70733 0.0
Gd515 Gd 0.46946 0.91881 0.77294 0.0
N516 N 0.50444 0.91802 0.72956 0.0
C517 C 0.5476 0.91813 0.68813 0.0
C518 C 0.50692 0.91619 0.64171 0.0
C519 C 0.52828 0.9158 0.61947 0.0
H520 H 0.49213 0.91463 0.58902 0.0
H521 H 0.52988 0.91376 0.54958 0.0
H522 H 0.38649 0.84889 0.90358 0.0
H523 H 0.48472 0.93655 -0.00112 0.0
H524 H 0.3547 0.84613 0.99509 0.0
H525 H 0.56417 0.91786 0.67074 0.0
H526 H 0.58217 0.92464 0.83709 0.0
H527 H 0.38277 0.87036 0.50753 0.0
H528 H 0.55494 0.93916 0.10381 0.0
H529 H 0.51803 0.94292 0.12876 0.0
H530 H 0.2971 0.85864 0.80768 0.0
H531 H 0.57875 0.93232 0.99437 0.0
H532 H 0.312 0.86954 0.51082 0.0
H533 H 0.3462 0.87225 0.42972 0.0
N534 N 0.3697 0.86734 0.63132 0.0
C535 C 0.35044 0.86461 0.67543 0.0
C536 C 0.36799 0.86934 0.54321 0.0
C537 C 0.32796 0.86867 0.54498 0.0
C538 C 0.34727 0.87029 0.49904 0.0
C539 C 0.3293 0.86568 0.63411 0.0
H540 H 0.29411 0.86486 0.65289 0.0
N541 N 0.37183 0.85864 0.79781 0.0
C542 C 0.35198 0.86078 0.76218 0.0
C543 C 0.33414 0.85368 0.89648 0.0
C544 C 0.33261 0.85839 0.81062 0.0
C545 C 0.37229 0.85256 0.87869 0.0
C546 C 0.35389 0.85051 0.93015 0.0
O547 O 0.47153 0.88949 0.73173 0.0
O548 O 0.43665 0.86295 0.77721 0.0
O549 O 0.37671 0.83024 0.70091 0.0
O550 O 0.39001 0.84193 0.58229 0.0
O551 O 0.44601 0.90829 0.63055 0.0
O552 O 0.42815 0.87296 0.60513 0.0
O553 O 0.40407 0.89459 0.70057 0.0
O554 O 0.43559 0.91819 0.82206 0.0
O555 O 0.47129 0.94081 0.6887 0.0
O556 O 0.49716 0.95239 0.82282 0.0
O557 O 0.42466 0.87202 0.85205 0.0
O558 O 0.44785 0.9084 0.88682 0.0
C559 C 0.46045 0.8716 0.76067 0.0
C560 C 0.43738 0.89047 0.57555 0.0
C561 C 0.38578 0.81012 0.59678 0.0
C562 C 0.39361 0.78351 0.6377 0.0
C563 C 0.3997 0.79323 0.49204 0.0
C564 C 0.39233 0.8075 0.51293 0.0
C565 C 0.40022 0.78118 0.55374 0.0
C566 C 0.38666 0.79818 0.65916 0.0
C567 C 0.37833 0.82545 0.61795 0.0
C568 C 0.31206 0.86029 0.77118 0.0
C569 C 0.31031 0.86378 0.68294 0.0
H570 H 0.3197 0.85182 0.93606 0.0
C571 C 0.41234 0.90997 0.77033 0.0
C572 C 0.43682 0.89004 0.91115 0.0
C573 C 0.50171 0.97897 0.73794 0.0
C574 C 0.50571 1.00484 0.64845 0.0
C575 C 0.53394 1.0163 0.79676 0.0
C576 C 0.52194 0.99544 0.80683 0.0
C577 C 0.526 0.021 0.71791 0.0
C578 C 0.4934 0.98375 0.6586 0.0
C579 C 0.48981 0.95702 0.74978 0.0
H580 H 0.40469 0.79129 0.42736 0.0
H581 H 0.39178 0.81651 0.46337 0.0
H582 H 0.40517 0.76969 0.53474 0.0
H583 H 0.38195 0.80029 0.72435 0.0
H584 H 0.54953 0.02888 0.85022 0.0
H585 H 0.52862 0.99223 0.86859 0.0
H586 H 0.5356 0.03731 0.71124 0.0
H587 H 0.47776 0.97124 0.60481 0.0
C588 C 0.38492 0.54181 0.77492 0.0
C589 C 0.41018 0.54942 0.92569 0.0
C590 C 0.38684 0.5442 0.86784 0.0
C591 C 0.43179 0.55276 0.88901 0.0
C592 C 0.40637 0.54464 0.73778 0.0
C593 C 0.42991 0.55041 0.79536 0.0
N594 N 0.36189 0.53619 0.72082 0.0
C595 C 0.35844 0.53177 0.62906 0.0
C596 C 0.4034 0.54124 0.64372 0.0
C597 C 0.37921 0.53453 0.58915 0.0
Gd598 Gd 0.31039 0.57521 0.81665 0.0
Gd599 Gd 0.32887 0.53272 0.79573 0.0
N600 N 0.36593 0.54157 0.90172 0.0
C601 C 0.41107 0.55117 0.01871 0.0
C602 C 0.36607 0.54191 0.99143 0.0
C603 C 0.38878 0.54712 0.05155 0.0
H604 H 0.34859 0.53771 0.01672 0.0
H605 H 0.38895 0.54774 0.12296 0.0
H606 H 0.3074 0.59052 0.61766 0.0
H607 H 0.33955 0.52555 0.58621 0.0
H608 H 0.27352 0.58656 0.49707 0.0
H609 H 0.42865 0.55519 0.06542 0.0
H610 H 0.44999 0.557 0.93243 0.0
H611 H 0.28176 0.55997 0.99027 0.0
H612 H 0.41942 0.54324 0.61256 0.0
H613 H 0.37643 0.5312 0.51632 0.0
H614 H 0.19495 0.5544 0.61531 0.0
H615 H 0.44667 0.55281 0.76802 0.0
H616 H 0.20165 0.54162 0.91538 0.0
H617 H 0.23832 0.54673 0.02843 0.0
N618 N 0.26933 0.56086 0.85548 0.0
C619 C 0.25005 0.55949 0.79441 0.0
C620 C 0.26571 0.55718 0.93987 0.0
C621 C 0.22064 0.54724 0.89814 0.0
C622 C 0.24122 0.54997 0.96197 0.0
C623 C 0.22496 0.55221 0.81347 0.0
H624 H 0.18559 0.54433 0.76072 0.0
N625 N 0.28042 0.57373 0.69913 0.0
C626 C 0.25554 0.56549 0.71294 0.0
C627 C 0.24219 0.57095 0.56798 0.0
C628 C 0.23576 0.56389 0.64767 0.0
C629 C 0.2872 0.58203 0.62449 0.0
C630 C 0.26811 0.58029 0.55687 0.0
O631 O 0.36334 0.56702 0.85177 0.0
O632 O 0.35093 0.58742 0.78715 0.0
O633 O 0.31728 0.60644 0.81828 0.0
O634 O 0.31937 0.59565 0.94301 0.0
O635 O 0.31133 0.53674 0.91266 0.0
O636 O 0.33165 0.57215 0.93867 0.0
O637 O 0.27809 0.5402 0.79817 0.0
O638 O 0.29136 0.5239 0.70412 0.0
O639 O 0.3061 0.50511 0.85384 0.0
O640 O 0.32484 0.50345 0.74125 0.0
O641 O 0.3253 0.57298 0.6885 0.0
O642 O 0.31761 0.53928 0.6615 0.0
C643 C 0.36927 0.58429 0.82122 0.0
C644 C 0.32148 0.55473 0.96859 0.0
C645 C 0.34646 0.63204 0.95051 0.0
C646 C 0.37131 0.67003 0.96284 0.0
C647 C 0.38337 0.65482 0.07653 0.0
C648 C 0.36295 0.63468 0.03066 0.0
C649 C 0.38743 0.67246 0.04348 0.0
C650 C 0.35104 0.64969 0.91637 0.0
C651 C 0.32304 0.61136 0.90637 0.0
C652 C 0.21042 0.55585 0.6649 0.0
C653 C 0.20509 0.55014 0.74778 0.0
H654 H 0.22752 0.56991 0.51605 0.0
C655 C 0.27244 0.52506 0.73093 0.0
C656 C 0.32207 0.55658 0.63433 0.0
C657 C 0.30044 0.4713 0.79584 0.0
C658 C 0.27172 0.43843 0.8412 0.0
C659 C 0.29772 0.43928 0.73134 0.0
C660 C 0.30815 0.46076 0.73775 0.0
C661 C 0.27946 0.42811 0.78242 0.0
C662 C 0.28232 0.46008 0.84859 0.0
C663 C 0.31047 0.49362 0.79718 0.0
H664 H 0.3958 0.6568 0.13874 0.0
H665 H 0.35982 0.62129 0.05902 0.0
H666 H 0.40291 0.68796 0.08183 0.0
H667 H 0.33856 0.6475 0.85371 0.0
H668 H 0.30363 0.43125 0.68607 0.0
H669 H 0.32208 0.46904 0.69643 0.0
H670 H 0.27131 0.41136 0.77614 0.0
H671 H 0.27599 0.46793 0.89321 0.0
C672 C 0.56349 0.65172 0.89001 0.0
C673 C 0.53074 0.63481 0.74935 0.0
C674 C 0.55577 0.65129 0.79929 0.0
C675 C 0.51359 0.61902 0.79157 0.0
C676 C 0.54621 0.63601 0.93266 0.0
C677 C 0.52129 0.61962 0.88285 0.0
N678 N 0.58726 0.66825 0.93787 0.0
C679 C 0.59538 0.66978 0.02732 0.0
C680 C 0.55424 0.63757 0.02485 0.0
C681 C 0.57894 0.65451 0.0723 0.0
Gd682 Gd 0.612 0.74547 0.86898 0.0
Gd683 Gd 0.61299 0.69293 0.8568 0.0
N684 N 0.57234 0.66732 0.76099 0.0
C685 C 0.52363 0.63472 0.65844 0.0
C686 C 0.56618 0.66644 0.6709 0.0
C687 C 0.54159 0.65044 0.61878 0.0
H688 H 0.58032 0.67743 0.63766 0.0
H689 H 0.53667 0.65005 0.54763 0.0
H690 H 0.62961 0.76245 0.09825 0.0
H691 H 0.61467 0.68262 0.06365 0.0
H692 H 0.66751 0.79161 0.20915 0.0
H693 H 0.50457 0.62235 0.61781 0.0
H694 H 0.49422 0.60633 0.75432 0.0
H695 H 0.62277 0.75686 0.66701 0.0
H696 H 0.54147 0.62584 0.06011 0.0
H697 H 0.58534 0.65581 0.14344 0.0
H698 H 0.72441 0.836 0.03052 0.0
H699 H 0.50768 0.60745 0.91456 0.0
H700 H 0.6966 0.81535 0.70828 0.0
H701 H 0.6572 0.7846 0.60463 0.0
N702 N 0.64345 0.77061 0.80286 0.0
C703 C 0.66426 0.78779 0.86158 0.0
C704 C 0.64042 0.76957 0.71203 0.0
C705 C 0.68172 0.80295 0.73571 0.0
C706 C 0.65963 0.78556 0.6769 0.0
C707 C 0.68416 0.80432 0.82923 0.0
H708 H 0.72138 0.83442 0.86724 0.0
N709 N 0.64652 0.77232 0.9842 0.0
C710 C 0.666 0.78853 0.95442 0.0
C711 C 0.68848 0.8068 0.10873 0.0
C712 C 0.68766 0.80606 0.01617 0.0
C713 C 0.64633 0.77379 0.07426 0.0
C714 C 0.66756 0.79074 0.13779 0.0
O715 O 0.57792 0.69231 0.89532 0.0
O716 O 0.57211 0.71407 0.8169 0.0
O717 O 0.59248 0.75894 0.93605 0.0
O718 O 0.59892 0.76356 0.80361 0.0
O719 O 0.62221 0.70997 0.73974 0.0
O720 O 0.59659 0.7239 0.73234 0.0
O721 O 0.65246 0.74848 0.8622 0.0
O722 O 0.65277 0.72181 0.9215 0.0
O723 O 0.62343 0.67681 0.75961 0.0
O724 O 0.62902 0.67491 0.9003 0.0
O725 O 0.60527 0.73018 0.99163 0.0
O726 O 0.62987 0.71495 0.99416 0.0
C727 C 0.56252 0.6974 0.85436 0.0
C728 C 0.60952 0.71688 0.69402 0.0
C729 C 0.56226 0.7635 0.84098 0.0
C730 C 0.53244 0.77639 0.81487 0.0
C731 C 0.51589 0.73882 0.77501 0.0
C732 C 0.5408 0.74284 0.80628 0.0
C733 C 0.51177 0.75528 0.77844 0.0
C734 C 0.5581 0.78045 0.84504 0.0
C735 C 0.58883 0.76697 0.86873 0.0
C736 C 0.7076 0.82246 0.98391 0.0
C737 C 0.70585 0.82159 0.89087 0.0
H738 H 0.7048 0.82001 0.15824 0.0
C739 C 0.66535 0.74027 0.89845 0.0
C740 C 0.61805 0.72291 0.03485 0.0
C741 C 0.65645 0.67081 0.81344 0.0
C742 C 0.67966 0.65836 0.73226 0.0
C743 C 0.70239 0.68459 0.87296 0.0
C744 C 0.67946 0.68408 0.88001 0.0
C745 C 0.70255 0.67184 0.79974 0.0
C746 C 0.65658 0.65792 0.73985 0.0
C747 C 0.63192 0.66972 0.82019 0.0
H748 H 0.49958 0.72276 0.74728 0.0
H749 H 0.54336 0.72972 0.80212 0.0
H750 H 0.49211 0.75133 0.75145 0.0
H751 H 0.57454 0.79649 0.87222 0.0
H752 H 0.72008 0.69482 0.92469 0.0
H753 H 0.67965 0.69389 0.93777 0.0
H754 H 0.72054 0.67235 0.79649 0.0
H755 H 0.6388 0.64774 0.68816 0.0
H756 H 0.19717 0.34334 0.1421 0.0
H757 H 0.13392 0.35052 0.03481 0.0
H758 H 0.22735 0.37218 0.07529 0.0
H759 H 0.16421 0.37974 0.97053 0.0
H760 H 0.21982 0.41097 0.77555 0.0
H761 H 0.18856 0.38461 0.84968 0.0
H762 H 0.24862 0.41098 0.09431 0.0
H763 H 0.27994 0.43725 0.01877 0.0
C764 C 0.18974 0.35105 0.104 0.0
C765 C 0.16325 0.34478 0.09375 0.0
C766 C 0.20706 0.36773 0.06694 0.0
C767 C 0.19814 0.37833 0.01866 0.0
C768 C 0.17159 0.37183 0.00736 0.0
C769 C 0.15431 0.35522 0.04455 0.0
C770 C 0.22599 0.41136 0.84584 0.0
C771 C 0.25199 0.42598 0.89211 0.0
C772 C 0.20822 0.39633 0.88824 0.0
C773 C 0.21628 0.39565 0.97743 0.0
C774 C 0.24205 0.411 0.02508 0.0
C775 C 0.25981 0.42614 0.98261 0.0
H776 H 0.83911 0.82513 0.95037 0.0
H777 H 0.82943 0.76858 0.01893 0.0
H778 H 0.79252 0.81032 0.92989 0.0
H779 H 0.78178 0.7522 0.98858 0.0
H780 H 0.69671 0.72985 0.99386 0.0
H781 H 0.74348 0.74519 0.01707 0.0
H782 H 0.75041 0.79175 0.86332 0.0
H783 H 0.70305 0.7761 0.84123 0.0
C784 C 0.82705 0.80949 0.96203 0.0
C785 C 0.83887 0.79863 0.98935 0.0
C786 C 0.79962 0.8005 0.9476 0.0
C787 C 0.78202 0.77965 0.95713 0.0
C788 C 0.79382 0.76838 0.98173 0.0
C789 C 0.82157 0.7777 0.99787 0.0
C790 C 0.70802 0.74329 0.96404 0.0
C791 C 0.69531 0.7514 0.91459 0.0
C792 C 0.73544 0.75225 0.97735 0.0
C793 C 0.75201 0.76999 0.94212 0.0
C794 C 0.73928 0.77835 0.89345 0.0
C795 C 0.71164 0.76928 0.88015 0.0
H796 H 0.27904 0.92078 0.81989 0.0
H797 H 0.34327 0.97684 0.00317 0.0
H798 H 0.30966 0.91217 0.77155 0.0
H799 H 0.37438 0.96854 0.95359 0.0
H800 H 0.4147 0.93082 0.93329 0.0
H801 H 0.3865 0.94323 0.97065 0.0
H802 H 0.34442 0.9208 0.69245 0.0
H803 H 0.37311 0.90885 0.65541 0.0
C804 C 0.2999 0.93163 0.84777 0.0
C805 C 0.30874 0.94962 0.91459 0.0
C806 C 0.31753 0.9267 0.82012 0.0
C807 C 0.34463 0.93956 0.85871 0.0
C808 C 0.35365 0.9581 0.92298 0.0
C809 C 0.33591 0.96309 0.95039 0.0
C810 C 0.39952 0.92864 0.87997 0.0
C811 C 0.39571 0.91829 0.79163 0.0
C812 C 0.38338 0.93588 0.90132 0.0
C813 C 0.36295 0.933 0.83485 0.0
C814 C 0.35958 0.92303 0.74602 0.0
C815 C 0.3759 0.91598 0.72468 0.0
H816 H 0.44406 0.12242 0.08346 0.0
H817 H 0.42911 0.17201 0.08012 0.0
H818 H 0.39833 0.09709 0.07568 0.0
H819 H 0.38206 0.14598 0.07405 0.0
H820 H 0.29253 0.08894 0.99379 0.0
H821 H 0.33853 0.1167 0.00384 0.0
H822 H 0.3628 0.08074 0.13862 0.0
H823 H 0.31698 0.05351 0.13005 0.0
C824 C 0.43117 0.12826 0.08151 0.0
C825 C 0.44152 0.14999 0.08257 0.0
C826 C 0.40421 0.11329 0.07791 0.0
C827 C 0.38522 0.11874 0.07524 0.0
C828 C 0.39531 0.14051 0.07566 0.0
C829 C 0.42274 0.15574 0.07969 0.0
C830 C 0.30749 0.08704 0.02756 0.0
C831 C 0.29992 0.06862 0.06292 0.0
C832 C 0.33445 0.1032 0.03289 0.0
C833 C 0.35566 0.10172 0.07206 0.0
C834 C 0.34797 0.0831 0.10648 0.0
C835 C 0.3211 0.06717 0.10218 0.0
H836 H 0.99608 0.32289 0.15526 0.0
H837 H 0.9283 0.27066 0.21994 0.0
H838 H 1.01592 0.30238 0.14157 0.0
H839 H 0.94777 0.24958 0.20313 0.0
H840 H 0.98303 0.21181 0.09076 0.0
H841 H 0.96119 0.23112 0.10485 0.0
H842 H 0.03638 0.28843 0.22248 0.0
H843 H 0.05774 0.26916 0.20793 0.0
C844 C 0.98522 0.307 0.16686 0.0
C845 C 0.96022 0.29865 0.18869 0.0
C846 C 0.99676 0.29508 0.15897 0.0
C847 C 0.98375 0.27409 0.17145 0.0
C848 C 0.95854 0.26554 0.19195 0.0
C849 C 0.94716 0.27768 0.20132 0.0
C850 C 0.99494 0.22846 0.12028 0.0
C851 C 1.02249 0.23871 0.14831 0.0
C852 C 0.98231 0.23966 0.12855 0.0
C853 C 0.99679 0.26161 0.16443 0.0
C854 C 1.02427 0.27173 0.19281 0.0
C855 C 0.03673 0.26054 0.1849 0.0
H856 H 0.841 0.68799 0.19766 0.0
H857 H 0.87018 0.67856 0.96548 0.0
H858 H 0.82721 0.65279 0.21995 0.0
H859 H 0.85553 0.64259 0.98504 0.0
H860 H 0.83349 0.57774 0.05624 0.0
H861 H 0.85273 0.6145 0.04085 0.0
H862 H 0.79811 0.6181 0.18636 0.0
H863 H 0.78024 0.58218 0.20497 0.0
C864 C 0.84509 0.67855 0.15208 0.0
C865 C 0.85755 0.68687 0.08105 0.0
C866 C 0.8365 0.65777 0.16359 0.0
C867 C 0.83933 0.64369 0.10366 0.0
C868 C 0.85271 0.65232 0.03401 0.0
C869 C 0.8615 0.67333 0.02285 0.0
C870 C 0.8259 0.58647 0.08649 0.0
C871 C 0.80542 0.5765 0.13387 0.0
C872 C 0.83685 0.60784 0.07671 0.0
C873 C 0.82775 0.62038 0.11317 0.0
C874 C 0.80687 0.61005 0.15896 0.0
C875 C 0.79618 0.5889 0.16924 0.0
H876 H 0.22631 0.5164 0.78228 0.0
H877 H 0.25533 0.49512 0.57777 0.0
H878 H 0.18096 0.48944 0.70374 0.0
H879 H 0.21035 0.46738 0.50355 0.0
H880 H 0.13131 0.40543 0.47499 0.0
H881 H 0.17431 0.43476 0.55614 0.0
H882 H 0.14795 0.47735 0.53943 0.0
H883 H 0.10469 0.44791 0.45233 0.0
C884 C 0.2231 0.50639 0.71971 0.0
C885 C 0.24462 0.50849 0.68537 0.0
C886 C 0.19708 0.49073 0.67526 0.0
C887 C 0.19203 0.47629 0.59721 0.0
C888 C 0.21354 0.47824 0.56355 0.0
C889 C 0.2394 0.49417 0.60646 0.0
C890 C 0.13449 0.421 0.48692 0.0
C891 C 0.11441 0.42416 0.4538 0.0
C892 C 0.15925 0.43785 0.53437 0.0
C893 C 0.16472 0.45843 0.55295 0.0
C894 C 0.14434 0.46163 0.52567 0.0
C895 C 0.11948 0.4447 0.47608 0.0
H896 H 0.71752 0.67004 0.6328 0.0
H897 H 0.64297 0.61664 0.65475 0.0
H898 H 0.71967 0.64833 0.50806 0.0
H899 H 0.64485 0.59489 0.52775 0.0
H900 H 0.67284 0.55844 0.35582 0.0
H901 H 0.67125 0.57931 0.48749 0.0
H902 H 0.69648 0.63152 0.3512 0.0
H903 H 0.69851 0.61098 0.22159 0.0
C904 C 0.70161 0.65362 0.61109 0.0
C905 C 0.68017 0.64505 0.65404 0.0
C906 C 0.70274 0.64121 0.5391 0.0
C907 C 0.68246 0.61987 0.50807 0.0
C908 C 0.66092 0.61122 0.55079 0.0
C909 C 0.65971 0.62373 0.62275 0.0
C910 C 0.67825 0.57444 0.35467 0.0
C911 C 0.68557 0.58302 0.27809 0.0
C912 C 0.67709 0.5863 0.42952 0.0
C913 C 0.68362 0.60704 0.42956 0.0
C914 C 0.69148 0.61567 0.35367 0.0
C915 C 0.69244 0.60383 0.27903 0.0
H916 H 0.43456 0.04035 0.22881 0.0
H917 H 0.51854 0.07874 0.24464 0.0
H918 H 0.44128 0.02178 0.33654 0.0
H919 H 0.52546 0.06192 0.36114 0.0
H920 H 0.53232 1.01739 0.51444 0.0
H921 H 0.52338 0.03234 0.39187 0.0
H922 H 0.45396 0.02253 0.48382 0.0
H923 H 0.46232 1.00634 0.60197 0.0
C924 C 0.45453 0.04495 0.25506 0.0
C925 C 0.47588 0.06099 0.2258 0.0
C926 C 0.45846 0.03449 0.31899 0.0
C927 C 0.48395 0.04013 0.35833 0.0
C928 C 0.50542 0.05662 0.33127 0.0
C929 C 0.50145 0.0667 0.26531 0.0
C930 C 0.51481 0.018 0.50633 0.0
C931 C 0.49783 1.01058 0.56645 0.0
C932 C 0.50986 0.02691 0.43715 0.0
C933 C 0.4881 0.02907 0.42783 0.0
C934 C 0.47071 0.02097 0.48715 0.0
C935 C 0.47544 1.01169 0.55523 0.0
H936 H 0.08962 0.07407 0.09639 0.0
H937 H 0.16462 0.11707 0.03371 0.0
H938 H 0.08083 0.10182 0.11574 0.0
H939 H 0.15608 0.14552 0.05807 0.0
H940 H 0.13096 0.19195 0.19786 0.0
H941 H 0.14545 0.16717 0.18466 0.0
H942 H 0.07216 0.12105 2e-05 0.0
H943 H 0.05829 0.14595 0.00943 0.0
C944 C 0.10442 0.08949 0.08693 0.0
C945 C 0.12756 0.09288 0.06052 0.0
C946 C 0.09933 0.10551 0.09857 0.0
C947 C 0.11744 0.12588 0.0869 0.0
C948 C 0.14156 0.12996 0.0671 0.0
C949 C 0.14652 0.11364 0.05356 0.0
C950 C 0.11813 0.17671 0.1531 0.0
C951 C 0.09353 0.17126 0.10376 0.0
C952 C 0.12647 0.16245 0.14567 0.0
C953 C 0.11003 0.14204 0.09112 0.0
C954 C 0.08538 0.13657 0.0428 0.0
C955 C 0.07741 0.15095 0.04826 0.0
H956 H 0.93502 0.95757 0.14222 0.0
H957 H 1.01937 0.9971 0.17358 0.0
H958 H 0.93123 0.98689 0.11042 0.0
H959 H 1.01577 0.02651 0.14539 0.0
H960 H 0.99829 0.07171 0.02942 0.0
H961 H 1.00063 0.04079 0.03694 0.0
H962 H 0.9425 0.01989 0.2031 0.0
H963 H 0.94047 0.05085 0.19713 0.0
C964 C 0.95268 0.9724 0.14089 0.0
C965 C 0.97753 0.97516 0.16157 0.0
C966 C 0.95057 0.98926 0.12379 0.0
C967 C 0.97325 1.00912 0.12671 0.0
C968 C 0.99791 1.01144 0.14222 0.0
C969 C 1.0 0.99463 0.1592 0.0
C970 C 0.98615 0.06063 0.0682 0.0
C971 C 0.96898 0.06372 0.11207 0.0
C972 C 0.98741 0.04284 0.07208 0.0
C973 C 0.97146 0.02772 0.11954 0.0
C974 C 0.95453 0.03093 0.16392 0.0
C975 C 0.95339 0.04873 0.16054 0.0
H976 H 1.02185 0.86184 0.08107 0.0
H977 H 0.99205 0.89937 0.0016 0.0
H978 H 0.06666 0.89104 0.08213 0.0
H979 H 0.0356 0.92783 0.00063 0.0
H980 H 0.11892 0.98459 0.01896 0.0
H981 H 0.07523 0.95556 0.02305 0.0
H982 H 0.1057 0.91609 0.0591 0.0
H983 H 0.14918 0.94554 0.05851 0.0
C984 C 1.0245 0.87617 0.06387 0.0
C985 C 1.00209 0.87741 0.04128 0.0
C986 C 0.0508 0.89338 0.0639 0.0
C987 C 0.0565 0.91301 0.04161 0.0
C988 C 0.03383 0.91393 0.0195 0.0
C989 C 1.0079 0.89694 0.01948 0.0
C990 C 0.11653 0.96977 0.0277 0.0
C991 C 0.13885 0.96816 0.03693 0.0
C992 C 0.09071 0.9525 0.02967 0.0
C993 C 0.08509 0.93215 0.04065 0.0
C994 C 0.10763 0.93073 0.05045 0.0
C995 C 0.13339 0.94807 0.04908 0.0
H996 H 0.80902 0.40338 0.05452 0.0
H997 H 0.87402 0.45726 0.24566 0.0
H998 H 0.83183 0.38499 0.06263 0.0
H999 H 0.8976 0.43901 0.2527 0.0
H1000 H 0.91275 0.38755 0.32986 0.0
H1001 H 0.89547 0.41003 0.31265 0.0
H1002 H 0.86657 0.38217 0.02755 0.0
H1003 H 0.88406 0.36003 0.04518 0.0
C1004 C 0.82863 0.41154 0.0964 0.0
C1005 C 0.83977 0.43184 0.14879 0.0
C1006 C 0.84182 0.40098 0.10114 0.0
C1007 C 0.86668 0.41037 0.1586 0.0
C1008 C 0.87837 0.43112 0.20845 0.0
C1009 C 0.86509 0.44175 0.20341 0.0
C1010 C 0.90315 0.38656 0.26332 0.0
C1011 C 0.9001 0.37214 0.18889 0.0
C1012 C 0.89318 0.39946 0.25327 0.0
C1013 C 0.87946 0.39802 0.16859 0.0
C1014 C 0.87665 0.38364 0.09414 0.0
C1015 C 0.88674 0.3709 0.10419 0.0
H1016 H 0.68886 0.44347 0.99763 0.0
H1017 H 0.73498 0.44699 0.24396 0.0
H1018 H 0.65649 0.40676 0.99389 0.0
H1019 H 0.70401 0.40942 0.23599 0.0
H1020 H 0.63097 0.34367 0.24197 0.0
H1021 H 0.66559 0.38067 0.25166 0.0
H1022 H 0.64207 0.3727 0.96357 0.0
H1023 H 0.6072 0.33645 0.95618 0.0
C1024 C 0.69218 0.43643 0.05137 0.0
C1025 C 0.71465 0.4487 0.12167 0.0
C1026 C 0.67369 0.41487 0.04827 0.0
C1027 C 0.67709 0.40419 0.11397 0.0
C1028 C 0.69991 0.41652 0.18401 0.0
C1029 C 0.71814 0.43828 0.18802 0.0
C1030 C 0.63366 0.34974 0.18051 0.0
C1031 C 0.61622 0.33673 0.09803 0.0
C1032 C 0.6536 0.37124 0.18585 0.0
C1033 C 0.65699 0.38059 0.10877 0.0
C1034 C 0.64022 0.367 0.02584 0.0
C1035 C 0.62027 0.34576 0.0209 0.0
H1036 H 0.61566 0.23554 0.259 0.0
H1037 H 0.59932 0.20681 0.97904 0.0
H1038 H 0.6626 0.2492 0.2692 0.0
H1039 H 0.6456 0.22049 0.988 0.0
H1040 H 0.72367 0.22556 0.05342 0.0
H1041 H 0.67835 0.21545 0.04114 0.0
H1042 H 0.70404 0.27242 0.23264 0.0
H1043 H 0.74986 0.28206 0.24738 0.0
C1044 C 0.6221 0.23243 0.19925 0.0
C1045 C 0.60352 0.21993 0.11838 0.0
C1046 C 0.64912 0.24028 0.2049 0.0
C1047 C 0.65838 0.23593 0.12971 0.0
C1048 C 0.63967 0.22396 0.04836 0.0
C1049 C 0.61288 0.21616 0.04291 0.0
C1050 C 0.71975 0.23615 0.09193 0.0
C1051 C 0.7406 0.25469 0.15112 0.0
C1052 C 0.69355 0.23037 0.08468 0.0
C1053 C 0.68698 0.243 0.13576 0.0
C1054 C 0.70798 0.26204 0.19281 0.0
C1055 C 0.73442 0.26782 0.20022 0.0
H1056 H 0.48851 0.77347 0.85822 0.0
H1057 H 0.56078 0.81751 0.78309 0.0
H1058 H 0.47287 0.79631 0.84197 0.0
H1059 H 0.54612 0.84207 0.77572 0.0
H1060 H 0.50122 0.87377 0.68614 0.0
H1061 H 0.52069 0.85277 0.70463 0.0
H1062 H 0.47131 0.82373 0.89285 0.0
H1063 H 0.45121 0.84348 0.86943 0.0
C1064 C 0.5014 0.78829 0.83924 0.0
C1065 C 0.52584 0.79318 0.82021 0.0
C1066 C 0.49251 0.80187 0.83157 0.0
C1067 C 0.50802 0.8216 0.80805 0.0
C1068 C 0.53313 0.82703 0.79271 0.0
C1069 C 0.54186 0.81304 0.79846 0.0
C1070 C 0.49466 0.86289 0.73152 0.0
C1071 C 0.47439 0.86028 0.77549 0.0
C1072 C 0.50592 0.85077 0.74262 0.0
C1073 C 0.49753 0.83586 0.79917 0.0
C1074 C 0.47797 0.83413 0.84569 0.0
C1075 C 0.46646 0.84581 0.83312 0.0
H1076 H 0.41803 0.70636 0.96656 0.0
H1077 H 0.3338 0.6756 0.87736 0.0
H1078 H 0.42483 0.7365 0.90498 0.0
H1079 H 0.34076 0.70462 0.8071 0.0
H1080 H 0.35695 0.76476 0.7398 0.0
H1081 H 0.35325 0.73985 0.8331 0.0
H1082 H 0.42309 0.74513 0.76401 0.0
H1083 H 0.42811 0.77148 0.67778 0.0
C1084 C 0.40096 0.70604 0.93419 0.0
C1085 C 0.37541 0.68855 0.9269 0.0
C1086 C 0.40488 0.72318 0.89751 0.0
C1087 C 0.38337 0.72295 0.85078 0.0
C1088 C 0.35777 0.70552 0.84406 0.0
C1089 C 0.35381 0.68863 0.88278 0.0
C1090 C 0.37194 0.76106 0.74673 0.0
C1091 C 0.39268 0.76988 0.70068 0.0
C1092 C 0.36957 0.74651 0.79901 0.0
C1093 C 0.38762 0.74023 0.80481 0.0
C1094 C 0.40894 0.74972 0.76167 0.0
C1095 C 0.4116 0.76457 0.71092 0.0
H1096 H 0.54016 0.67404 0.97749 0.0
H1097 H 0.51952 0.68782 0.72508 0.0
H1098 H 0.49442 0.64732 0.96891 0.0
H1099 H 0.47315 0.66053 0.71489 0.0
H1100 H 0.38853 0.62092 0.75668 0.0
H1101 H 0.43406 0.64876 0.76541 0.0
H1102 H 0.46001 0.61377 0.90167 0.0
H1103 H 0.41458 0.5869 0.89892 0.0
C1104 C 0.52574 0.67139 0.91984 0.0
C1105 C 0.5337 0.68313 0.85173 0.0
C1106 C 0.49929 0.65578 0.91441 0.0
C1107 C 0.4796 0.65123 0.84048 0.0
C1108 C 0.48746 0.66349 0.77346 0.0
C1109 C 0.51413 0.67926 0.77916 0.0
C1110 C 0.40392 0.61915 0.78902 0.0
C1111 C 0.39753 0.60128 0.82632 0.0
C1112 C 0.43025 0.63516 0.79319 0.0
C1113 C 0.45123 0.63384 0.83418 0.0
C1114 C 0.44476 0.61583 0.8708 0.0
C1115 C 0.41843 0.60001 0.86781 0.0
H1116 H 0.07731 0.2426 0.8771 0.0
H1117 H 0.0435 0.17537 0.81782 0.0
H1118 H 0.0793 0.24343 0.71885 0.0
H1119 H 0.04299 0.17577 0.65946 0.0
H1120 H 0.06724 0.18354 0.39248 0.0
H1121 H 0.06805 0.18414 0.55269 0.0
H1122 H 0.05609 0.23579 0.57373 0.0
H1123 H 0.05706 0.2359 0.41428 0.0
C1124 C 0.06979 0.22792 0.83014 0.0
C1125 C 0.05964 0.20886 0.86043 0.0
C1126 C 0.07071 0.22834 0.73885 0.0
C1127 C 0.06116 0.20965 0.67506 0.0
C1128 C 0.05094 0.1906 0.70581 0.0
C1129 C 0.05062 0.19028 0.79711 0.0
C1130 C 0.06482 0.19502 0.43161 0.0
C1131 C 0.06201 0.20963 0.391 0.0
C1132 C 0.06508 0.19531 0.52365 0.0
C1133 C 0.06188 0.2099 0.57721 0.0
C1134 C 0.05906 0.22453 0.53588 0.0
C1135 C 0.0594 0.22452 0.44415 0.0
H1136 H 0.9425 0.86379 0.7969 0.0
H1137 H 0.889 0.79607 0.73012 0.0
H1138 H 0.94234 0.86451 0.63895 0.0
H1139 H 0.89103 0.79645 0.57167 0.0
H1140 H 0.88031 0.8038 0.28139 0.0
H1141 H 0.87833 0.80342 0.4397 0.0
H1142 H 0.95752 0.85889 0.51687 0.0
H1143 H 0.95848 0.85989 0.35814 0.0
C1144 C 0.93064 0.84895 0.74851 0.0
C1145 C 0.91552 0.82985 0.77703 0.0
C1146 C 0.931 0.84932 0.65714 0.0
C1147 C 0.91685 0.83054 0.59082 0.0
C1148 C 0.90189 0.81137 0.61955 0.0
C1149 C 0.90099 0.81107 0.71109 0.0
C1150 C 0.89724 0.81593 0.33249 0.0
C1151 C 0.91955 0.83185 0.30726 0.0
C1152 C 0.89624 0.81565 0.42373 0.0
C1153 C 0.91779 0.83103 0.49276 0.0
C1154 C 0.9402 0.84695 0.46683 0.0
C1155 C 0.94093 0.84749 0.37544 0.0
H1156 H 0.17293 0.99918 0.72644 0.0
H1157 H 0.25767 0.03507 0.79688 0.0
H1158 H 0.1745 1.00017 0.56774 0.0
H1159 H 0.25965 0.03763 0.64039 0.0
H1160 H 0.25836 0.02479 0.34338 0.0
H1161 H 0.25588 0.02221 0.49948 0.0
H1162 H 0.18174 0.01824 0.45456 0.0
H1163 H 0.18303 0.01847 0.29627 0.0
C1164 C 0.19191 1.00752 0.70787 0.0
C1165 C 0.21513 1.01688 0.7739 0.0
C1166 C 0.19293 1.0083 0.61668 0.0
C1167 C 0.21726 0.01897 0.58931 0.0
C1168 C 0.24046 0.02871 0.65673 0.0
C1169 C 0.23938 0.02741 0.74722 0.0
C1170 C 0.24118 0.02279 0.3662 0.0
C1171 C 0.22052 0.02115 0.30588 0.0
C1172 C 0.23996 0.02177 0.45698 0.0
C1173 C 0.2185 0.01991 0.49153 0.0
C1174 C 0.19829 0.01905 0.43141 0.0
C1175 C 0.19918 0.01946 0.34011 0.0
H1176 H 0.77609 0.54655 0.4414 0.0
H1177 H 0.75934 0.4832 0.39198 0.0
H1178 H 0.77531 0.54566 0.60069 0.0
H1179 H 0.75722 0.48174 0.54948 0.0
H1180 H 0.77798 0.49113 0.85306 0.0
H1181 H 0.78123 0.49335 0.69691 0.0
H1182 H 0.74783 0.5316 0.70145 0.0
H1183 H 0.74629 0.53057 0.85928 0.0
C1184 C 0.77211 0.5324 0.46473 0.0
C1185 C 0.76792 0.51501 0.40456 0.0
C1186 C 0.77144 0.53178 0.55591 0.0
C1187 C 0.76614 0.51359 0.58875 0.0
C1188 C 0.7619 0.4962 0.52781 0.0
C1189 C 0.76298 0.49697 0.43714 0.0
C1190 C 0.77142 0.5001 0.82096 0.0
C1191 C 0.76189 0.51067 0.86926 0.0
C1192 C 0.77308 0.50124 0.73075 0.0
C1193 C 0.76476 0.51264 0.68563 0.0
C1194 C 0.75491 0.52299 0.73383 0.0
C1195 C 0.7537 0.52217 0.82447 0.0
H1196 H 0.49312 0.15486 0.33555 0.0
H1197 H 0.55481 0.22089 0.41657 0.0
H1198 H 0.49142 0.15285 0.4926 0.0
H1199 H 0.55135 0.21952 0.57295 0.0
H1200 H 0.55873 0.20874 0.85568 0.0
H1201 H 0.56117 0.20905 0.69798 0.0
H1202 H 0.47823 0.16015 0.61912 0.0
H1203 H 0.47658 0.15904 0.7781 0.0
C1204 C 0.50606 0.16909 0.3868 0.0
C1205 C 0.52375 0.18816 0.36265 0.0
C1206 C 0.50487 0.168 0.47741 0.0
C1207 C 0.52109 0.18602 0.54696 0.0
C1208 C 0.53873 0.20513 0.52241 0.0
C1209 C 0.54033 0.20609 0.43189 0.0
C1210 C 0.54104 0.19801 0.80438 0.0
C1211 C 0.5174 0.18397 0.82905 0.0
C1212 C 0.54234 0.1983 0.71352 0.0
C1213 C 0.51982 0.18489 0.64432 0.0
C1214 C 0.49616 0.17059 0.66953 0.0
C1215 C 0.49507 0.16996 0.7608 0.0
H1216 H 0.88775 0.32202 0.46518 0.0
H1217 H 0.97165 0.34914 0.51539 0.0
H1218 H 0.88839 0.32128 0.62424 0.0
H1219 H 0.97256 0.34949 0.67558 0.0
H1220 H 0.96205 0.32853 0.94574 0.0
H1221 H 0.96171 0.32866 0.78515 0.0
H1222 H 0.90039 0.34182 0.7672 0.0
H1223 H 0.90005 0.34069 0.92568 0.0
C1224 C 0.90641 0.32796 0.51016 0.0
C1225 C 0.92958 0.33542 0.47675 0.0
C1226 C 0.90683 0.32773 0.60205 0.0
C1227 C 0.93055 0.33532 0.66377 0.0
C1228 C 0.95381 0.34311 0.63041 0.0
C1229 C 0.95332 0.34308 0.53824 0.0
C1230 C 0.94852 0.3314 0.907 0.0
C1231 C 0.93098 0.33444 0.948 0.0
C1232 C 0.94839 0.33163 0.81502 0.0
C1233 C 0.93094 0.33518 0.7622 0.0
C1234 C 0.91369 0.33853 0.80434 0.0
C1235 C 0.91358 0.338 0.89566 0.0
H1236 H 0.41459 0.85602 0.43642 0.0
H1237 H 0.46046 0.92417 0.49397 0.0
H1238 H 0.41385 0.85564 0.27623 0.0
H1239 H 0.46105 0.92388 0.33497 0.0
H1240 H 0.43618 0.91808 0.03688 0.0
H1241 H 0.43557 0.91768 0.19576 0.0
H1242 H 0.43829 0.8615 0.16383 0.0
H1243 H 0.43738 0.8614 0.00318 0.0
C1244 C 0.42475 0.87094 0.41503 0.0
C1245 C 0.4375 0.89013 0.47814 0.0
C1246 C 0.42451 0.87073 0.32299 0.0
C1247 C 0.43736 0.88973 0.29184 0.0
C1248 C 0.45042 0.9089 0.35554 0.0
C1249 C 0.45028 0.90909 0.44722 0.0
C1250 C 0.4366 0.90564 0.06395 0.0
C1251 C 0.43677 0.88974 0.00782 0.0
C1252 C 0.43646 0.90547 0.1554 0.0
C1253 C 0.43703 0.88962 0.19359 0.0
C1254 C 0.43736 0.87376 0.13699 0.0
C1255 C 0.43699 0.87373 0.04496 0.0
H1256 H 0.28644 0.52403 0.04544 0.0
H1257 H 0.35606 0.58697 0.11045 0.0
H1258 H 0.28543 0.52511 0.20473 0.0
H1259 H 0.35651 0.58765 0.27076 0.0
H1260 H 0.34067 0.59062 0.55208 0.0
H1261 H 0.33886 0.59043 0.39171 0.0
H1262 H 0.30385 0.52289 0.33774 0.0
H1263 H 0.30281 0.52289 0.49559 0.0
C1264 C 0.30178 0.53799 0.0943 0.0
C1265 C 0.32132 0.55538 0.06579 0.0
C1266 C 0.30139 0.53861 0.18604 0.0
C1267 C 0.32105 0.55641 0.252 0.0
C1268 C 0.3407 0.5738 0.22276 0.0
C1269 C 0.34063 0.57338 0.1307 0.0
C1270 C 0.33204 0.57569 0.50555 0.0
C1271 C 0.32181 0.55679 0.53702 0.0
C1272 C 0.33143 0.57559 0.41334 0.0
C1273 C 0.32123 0.55664 0.35045 0.0
C1274 C 0.31133 0.53779 0.38274 0.0
C1275 C 0.31123 0.53784 0.47426 0.0
H1276 H 0.63705 0.70641 0.59304 0.0
H1277 H 0.58125 0.72534 0.57069 0.0
H1278 H 0.63793 0.70633 0.43404 0.0
H1279 H 0.58366 0.72698 0.41392 0.0
H1280 H 0.57638 0.71362 0.11277 0.0
H1281 H 0.57286 0.71011 0.26795 0.0
H1282 H 0.6534 0.72653 0.32889 0.0
H1283 H 0.65592 0.72847 0.17144 0.0
C1284 C 0.62511 0.71075 0.55443 0.0
C1285 C 0.60941 0.71622 0.59557 0.0
C1286 C 0.62584 0.71095 0.4629 0.0
C1287 C 0.61117 0.71693 0.40981 0.0
C1288 C 0.59505 0.72199 0.45099 0.0
C1289 C 0.59387 0.72131 0.54188 0.0
C1290 C 0.59331 0.71649 0.15968 0.0
C1291 C 0.61648 0.72145 0.13031 0.0
C1292 C 0.5914 0.71461 0.24923 0.0
C1293 C 0.61289 0.71817 0.31277 0.0
C1294 C 0.63616 0.72322 0.28264 0.0
C1295 C 0.63779 0.72457 0.19236 0.0
loop_
_geom_bond_atom_site_label_1
_geom_bond_atom_site_label_2
_geom_bond_distance
_geom_bond_site_symmetry_2
_ccdc_geom_bond_type
C0 C2 1.422 . S
C0 C4 1.415 . S
C0 N6 1.369 . S
C1 C2 1.421 . S
C1 C3 1.417 . S
C1 C13 1.422 . S
C2 C0 1.422 . S
C2 C1 1.421 . S
C2 N12 1.359 . S
C3 C1 1.417 . S
C3 C5 1.329 . S
C3 H22 0.930 . S
C4 C0 1.415 . S
C4 C5 1.437 . S
C4 C8 1.413 . S
C5 C3 1.329 . S
C5 C4 1.437 . S
C5 H27 0.929 . S
N6 C0 1.369 . S
N6 C7 1.338 . S
N6 Gd11 2.622 . S
C7 N6 1.338 . S
C7 C9 1.378 . S
C7 H19 0.929 . S
C8 C4 1.413 . S
C8 C9 1.348 . S
C8 H24 0.931 . S
C9 C7 1.378 . S
C9 C8 1.348 . S
C9 H25 0.930 . S
Gd10 N30 2.622 1_454 S
Gd10 N37 2.570 1_455 S
Gd10 O44 2.353 . S
Gd10 O45 2.468 1_455 S
Gd10 O46 2.427 1_455 S
Gd10 O48 2.388 1_554 S
Gd10 O49 2.386 . S
Gd10 O53 2.307 . S
Gd10 C63 2.805 1_455 S
Gd11 N6 2.622 . S
Gd11 N12 2.570 . S
Gd11 O43 2.386 . S
Gd11 O47 2.307 . S
Gd11 O50 2.353 . S
Gd11 O51 2.468 . S
Gd11 O52 2.427 . S
Gd11 O54 2.388 . S
Gd11 C75 2.805 . S
N12 C2 1.359 . S
N12 Gd11 2.570 . S
N12 C14 1.343 . S
C13 C1 1.422 . S
C13 C15 1.321 . S
C13 H21 0.931 . S
C14 N12 1.343 . S
C14 C15 1.390 . S
C14 H16 0.931 . S
C15 C13 1.321 . S
C15 C14 1.390 . S
C15 H17 0.930 1_554 S
H16 C14 0.931 . S
H17 C15 0.930 1_556 S
H18 C41 0.931 . S
H19 C7 0.929 . S
H20 C42 0.930 . S
H21 C13 0.931 . S
H22 C3 0.930 . S
H23 C32 0.929 . S
H24 C8 0.931 . S
H25 C9 0.930 . S
H26 C64 0.930 . S
H27 C5 0.929 . S
H28 C33 0.931 . S
H29 C34 0.930 . S
N30 Gd10 2.622 1_656 S
N30 C31 1.369 . S
N30 C32 1.338 . S
C31 N30 1.369 . S
C31 C35 1.415 . S
C31 C38 1.422 1_556 S
C32 H23 0.929 . S
C32 N30 1.338 . S
C32 C34 1.378 . S
C33 H28 0.931 . S
C33 C34 1.348 . S
C33 C35 1.413 . S
C34 H29 0.930 . S
C34 C32 1.378 . S
C34 C33 1.348 . S
C35 C31 1.415 . S
C35 C33 1.413 . S
C35 C65 1.437 . S
H36 C65 0.929 . S
N37 Gd10 2.570 1_655 S
N37 C38 1.359 . S
N37 C41 1.343 . S
C38 C31 1.422 1_554 S
C38 N37 1.359 . S
C38 C40 1.421 . S
C39 C40 1.422 . S
C39 C42 1.321 . S
C39 H66 0.931 . S
C40 C38 1.421 . S
C40 C39 1.422 . S
C40 C64 1.417 . S
C41 H18 0.931 . S
C41 N37 1.343 . S
C41 C42 1.390 . S
C42 H20 0.930 . S
C42 C39 1.321 . S
C42 C41 1.390 . S
O43 Gd11 2.386 . S
O43 C55 1.265 . S
O44 Gd10 2.353 . S
O44 C55 1.242 . S
O45 Gd10 2.468 1_655 S
O45 C63 1.263 . S
O46 Gd10 2.427 1_655 S
O46 C63 1.252 . S
O47 Gd11 2.307 . S
O47 C56 1.261 1_554 S
O48 Gd10 2.388 1_556 S
O48 C56 1.252 . S
O49 Gd10 2.386 . S
O49 C67 1.265 . S
O50 Gd11 2.353 . S
O50 C67 1.242 . S
O51 Gd11 2.468 . S
O51 C75 1.263 . S
O52 Gd11 2.427 . S
O52 C75 1.252 . S
O53 Gd10 2.307 . S
O53 C68 1.261 . S
O54 Gd11 2.388 . S
O54 C68 1.252 . S
C55 O43 1.265 . S
C55 O44 1.242 . S
C56 O47 1.261 1_556 S
C56 O48 1.252 . S
C57 C60 1.394 . S
C57 C62 1.370 . S
C57 C63 1.500 . S
C58 C61 1.383 . S
C58 C62 1.395 . S
C59 C60 1.396 . S
C59 C61 1.365 . S
C59 H76 0.929 1_554 S
C60 C57 1.394 . S
C60 C59 1.396 . S
C60 H77 0.930 1_554 S
C61 C58 1.383 . S
C61 C59 1.365 . S
C61 H78 0.931 . S
C62 C57 1.370 . S
C62 C58 1.395 . S
C62 H79 0.930 . S
C63 Gd10 2.805 1_655 S
C63 O45 1.263 . S
C63 O46 1.252 . S
C63 C57 1.500 . S
C64 H26 0.930 . S
C64 C40 1.417 . S
C64 C65 1.329 1_554 S
C65 C35 1.437 . S
C65 H36 0.929 . S
C65 C64 1.329 1_556 S
H66 C39 0.931 . S
C67 O49 1.265 . S
C67 O50 1.242 . S
C68 O53 1.261 . S
C68 O54 1.252 . S
C69 C72 1.394 . S
C69 C74 1.370 . S
C69 C75 1.500 . S
C70 C73 1.383 . S
C70 C74 1.395 . S
C71 C72 1.396 . S
C71 C73 1.365 . S
C71 H80 0.929 . S
C72 C69 1.394 . S
C72 C71 1.396 . S
C72 H81 0.930 . S
C73 C70 1.383 . S
C73 C71 1.365 . S
C73 H82 0.931 . S
C74 C69 1.370 . S
C74 C70 1.395 . S
C74 H83 0.930 . S
C75 Gd11 2.805 . S
C75 O51 1.263 . S
C75 O52 1.252 . S
C75 C69 1.500 . S
H76 C59 0.929 1_556 S
H77 C60 0.930 1_556 S
H78 C61 0.931 . S
H79 C62 0.930 . S
H80 C71 0.929 . S
H81 C72 0.930 . S
H82 C73 0.931 . S
H83 C74 0.930 . S
C84 C86 1.422 . S
C84 C88 1.415 1_554 S
C84 N90 1.369 1_554 S
C85 C86 1.421 . S
C85 C87 1.417 . S
C85 C97 1.422 . S
C86 C84 1.422 . S
C86 C85 1.421 . S
C86 N96 1.359 . S
C87 C85 1.417 . S
C87 C89 1.324 1_554 S
C87 H106 0.930 1_655 S
C88 C84 1.415 1_556 S
C88 C89 1.439 . S
C88 C92 1.413 . S
C89 C87 1.324 1_556 S
C89 C88 1.439 . S
C89 H111 0.933 . S
N90 C84 1.369 1_556 S
N90 C91 1.338 . S
N90 Gd95 2.622 1_556 S
C91 N90 1.338 . S
C91 C93 1.378 . S
C91 H103 0.929 . S
C92 C88 1.413 . S
C92 C93 1.348 . S
C92 H108 0.931 . S
C93 C91 1.378 . S
C93 C92 1.348 . S
C93 H109 0.930 . S
Gd94 N114 2.622 . S
Gd94 N121 2.570 . S
Gd94 O128 2.353 . S
Gd94 O129 2.468 . S
Gd94 O130 2.427 . S
Gd94 O132 2.388 . S
Gd94 O133 2.386 . S
Gd94 O137 2.307 . S
Gd94 C147 2.805 . S
Gd95 N90 2.622 1_554 S
Gd95 N96 2.570 . S
Gd95 O127 2.386 . S
Gd95 O131 2.307 . S
Gd95 O134 2.353 . S
Gd95 O135 2.468 . S
Gd95 O136 2.427 . S
Gd95 O138 2.388 1_554 S
Gd95 C159 2.805 . S
N96 C86 1.359 . S
N96 Gd95 2.570 . S
N96 C98 1.343 . S
C97 C85 1.422 . S
C97 C99 1.321 . S
C97 H105 0.931 . S
C98 N96 1.343 . S
C98 C99 1.390 . S
C98 H100 0.931 . S
C99 C97 1.321 . S
C99 C98 1.390 . S
C99 H101 0.930 . S
H100 C98 0.931 . S
H101 C99 0.930 . S
H102 C125 0.931 . S
H103 C91 0.929 . S
H104 C126 0.930 . S
H105 C97 0.931 . S
H106 C87 0.930 1_455 S
H107 C116 0.929 . S
H108 C92 0.931 . S
H109 C93 0.930 . S
H110 C148 0.930 . S
H111 C89 0.933 . S
H112 C117 0.931 . S
H113 C118 0.930 . S
N114 Gd94 2.622 . S
N114 C115 1.369 . S
N114 C116 1.338 . S
C115 N114 1.369 . S
C115 C119 1.415 . S
C115 C122 1.422 . S
C116 H107 0.929 . S
C116 N114 1.338 . S
C116 C118 1.378 . S
C117 H112 0.931 . S
C117 C118 1.348 . S
C117 C119 1.413 . S
C118 H113 0.930 . S
C118 C116 1.378 . S
C118 C117 1.348 . S
C119 C115 1.415 . S
C119 C117 1.413 . S
C119 C149 1.437 . S
H120 C149 0.929 . S
N121 Gd94 2.570 . S
N121 C122 1.359 . S
N121 C125 1.343 1_554 S
C122 C115 1.422 . S
C122 N121 1.359 . S
C122 C124 1.421 . S
C123 C124 1.422 1_556 S
C123 C126 1.321 . S
C123 H150 0.931 . S
C124 C122 1.421 . S
C124 C123 1.422 1_554 S
C124 C148 1.417 . S
C125 H102 0.931 . S
C125 N121 1.343 1_556 S
C125 C126 1.390 . S
C126 H104 0.930 . S
C126 C123 1.321 . S
C126 C125 1.390 . S
O127 Gd95 2.386 . S
O127 C139 1.265 . S
O128 Gd94 2.353 . S
O128 C139 1.242 . S
O129 Gd94 2.468 . S
O129 C147 1.263 . S
O130 Gd94 2.427 . S
O130 C147 1.252 . S
O131 Gd95 2.307 . S
O131 C140 1.261 . S
O132 Gd94 2.388 . S
O132 C140 1.252 . S
O133 Gd94 2.386 . S
O133 C151 1.265 . S
O134 Gd95 2.353 . S
O134 C151 1.242 . S
O135 Gd95 2.468 . S
O135 C159 1.263 . S
O136 Gd95 2.427 . S
O136 C159 1.252 . S
O137 Gd94 2.307 . S
O137 C152 1.261 1_554 S
O138 Gd95 2.388 1_556 S
O138 C152 1.252 . S
C139 O127 1.265 . S
C139 O128 1.242 . S
C140 O131 1.261 . S
C140 O132 1.252 . S
C141 C144 1.394 . S
C141 C146 1.370 . S
C141 C147 1.500 . S
C142 C145 1.383 . S
C142 C146 1.395 . S
C143 C144 1.396 . S
C143 C145 1.365 . S
C143 H160 0.929 . S
C144 C141 1.394 . S
C144 C143 1.396 . S
C144 H161 0.930 . S
C145 C142 1.383 . S
C145 C143 1.365 . S
C145 H162 0.931 . S
C146 C141 1.370 . S
C146 C142 1.395 . S
C146 H163 0.930 . S
C147 Gd94 2.805 . S
C147 O129 1.263 . S
C147 O130 1.252 . S
C147 C141 1.500 . S
C148 H110 0.930 . S
C148 C124 1.417 . S
C148 C149 1.329 . S
C149 C119 1.437 . S
C149 H120 0.929 . S
C149 C148 1.329 . S
H150 C123 0.931 . S
C151 O133 1.265 . S
C151 O134 1.242 . S
C152 O137 1.261 1_556 S
C152 O138 1.252 . S
C153 C156 1.394 1_554 S
C153 C158 1.370 . S
C153 C159 1.500 . S
C154 C157 1.383 . S
C154 C158 1.395 . S
C155 C156 1.396 . S
C155 C157 1.365 1_556 S
C155 H164 0.929 . S
C156 C153 1.394 1_556 S
C156 C155 1.396 . S
C156 H165 0.930 . S
C157 C154 1.383 . S
C157 C155 1.365 1_554 S
C157 H166 0.931 . S
C158 C153 1.370 . S
C158 C154 1.395 . S
C158 H167 0.930 . S
C159 Gd95 2.805 . S
C159 O135 1.263 . S
C159 O136 1.252 . S
C159 C153 1.500 . S
H160 C143 0.929 . S
H161 C144 0.930 . S
H162 C145 0.931 . S
H163 C146 0.930 . S
H164 C155 0.929 . S
H165 C156 0.930 . S
H166 C157 0.931 . S
H167 C158 0.930 . S
C168 C170 1.422 1_554 S
C168 C172 1.415 . S
C168 N174 1.369 . S
C169 C170 1.421 . S
C169 C171 1.417 . S
C169 C181 1.422 . S
C170 C168 1.422 1_556 S
C170 C169 1.421 . S
C170 N180 1.359 . S
C171 C169 1.417 . S
C171 C173 1.329 1_556 S
C171 H190 0.930 . S
C172 C168 1.415 . S
C172 C173 1.437 . S
C172 C176 1.413 . S
C173 C171 1.329 1_554 S
C173 C172 1.437 . S
C173 H195 0.929 . S
N174 C168 1.369 . S
N174 C175 1.338 . S
N174 Gd179 2.622 . S
C175 N174 1.338 . S
C175 C177 1.378 . S
C175 H187 0.929 . S
C176 C172 1.413 . S
C176 C177 1.348 . S
C176 H192 0.931 . S
C177 C175 1.378 . S
C177 C176 1.348 . S
C177 H193 0.930 . S
Gd178 N198 2.622 . S
Gd178 N205 2.570 1_556 S
Gd178 O212 2.353 . S
Gd178 O213 2.468 1_556 S
Gd178 O214 2.427 . S
Gd178 O216 2.388 . S
Gd178 O217 2.386 . S
Gd178 O221 2.307 1_556 S
Gd178 C231 2.805 1_556 S
Gd179 N174 2.622 . S
Gd179 N180 2.570 1_554 S
Gd179 O211 2.386 . S
Gd179 O215 2.307 1_554 S
Gd179 O218 2.353 1_565 S
Gd179 O219 2.468 1_554 S
Gd179 O220 2.427 . S
Gd179 O222 2.388 1_565 S
Gd179 C243 2.803 1_554 S
N180 C170 1.359 . S
N180 Gd179 2.570 1_556 S
N180 C182 1.343 . S
C181 C169 1.422 . S
C181 C183 1.321 . S
C181 H189 0.931 . S
C182 N180 1.343 . S
C182 C183 1.390 . S
C182 H184 0.931 . S
C183 C181 1.321 . S
C183 C182 1.390 . S
C183 H185 0.930 . S
H184 C182 0.931 . S
H185 C183 0.930 . S
H186 C209 0.931 . S
H187 C175 0.929 . S
H188 C210 0.930 . S
H189 C181 0.931 . S
H190 C171 0.930 . S
H191 C200 0.929 . S
H192 C176 0.931 . S
H193 C177 0.930 . S
H194 C232 0.930 . S
H195 C173 0.929 . S
H196 C201 0.931 . S
H197 C202 0.930 . S
N198 Gd178 2.622 . S
N198 C199 1.369 . S
N198 C200 1.338 . S
C199 N198 1.369 . S
C199 C203 1.415 . S
C199 C206 1.422 1_556 S
C200 H191 0.929 . S
C200 N198 1.338 . S
C200 C202 1.378 . S
C201 H196 0.931 . S
C201 C202 1.348 . S
C201 C203 1.413 . S
C202 H197 0.930 . S
C202 C200 1.378 . S
C202 C201 1.348 . S
C203 C199 1.415 . S
C203 C201 1.413 . S
C203 C233 1.437 . S
H204 C233 0.929 . S
N205 Gd178 2.570 1_554 S
N205 C206 1.359 . S
N205 C209 1.343 . S
C206 C199 1.422 1_554 S
C206 N205 1.359 . S
C206 C208 1.421 . S
C207 C208 1.422 . S
C207 C210 1.321 . S
C207 H234 0.931 . S
C208 C206 1.421 . S
C208 C207 1.422 . S
C208 C232 1.417 . S
C209 H186 0.931 . S
C209 N205 1.343 . S
C209 C210 1.390 . S
C210 H188 0.930 . S
C210 C207 1.321 . S
C210 C209 1.390 . S
O211 Gd179 2.386 . S
O211 C223 1.265 1_554 S
O212 Gd178 2.353 . S
O212 C223 1.242 1_545 S
O213 Gd178 2.468 1_554 S
O213 C231 1.263 . S
O214 Gd178 2.427 . S
O214 C231 1.252 1_556 S
O215 Gd179 2.307 1_556 S
O215 C224 1.261 1_565 S
O216 Gd178 2.388 . S
O216 C224 1.252 . S
O217 Gd178 2.386 . S
O217 C235 1.265 1_556 S
O218 Gd179 2.353 1_545 S
O218 C235 1.242 . S
O219 Gd179 2.468 1_556 S
O219 C243 1.271 . S
O220 Gd179 2.427 . S
O220 C243 1.243 1_554 S
O221 Gd178 2.307 1_554 S
O221 C236 1.261 . S
O222 Gd179 2.388 1_545 S
O222 C236 1.252 . S
C223 O211 1.265 1_556 S
C223 O212 1.242 1_565 S
C224 O215 1.261 1_545 S
C224 O216 1.252 . S
C225 C228 1.394 1_554 S
C225 C230 1.370 . S
C225 C231 1.500 . S
C226 C229 1.383 . S
C226 C230 1.395 . S
C227 C228 1.396 . S
C227 C229 1.365 1_556 S
C227 H244 0.929 . S
C228 C225 1.394 1_556 S
C228 C227 1.396 . S
C228 H245 0.930 . S
C229 C226 1.383 . S
C229 C227 1.365 1_554 S
C229 H246 0.931 . S
C230 C225 1.370 . S
C230 C226 1.395 . S
C230 H247 0.930 . S
C231 Gd178 2.805 1_554 S
C231 O213 1.263 . S
C231 O214 1.252 1_554 S
C231 C225 1.500 . S
C232 H194 0.930 . S
C232 C208 1.417 . S
C232 C233 1.329 1_554 S
C233 C203 1.437 . S
C233 H204 0.929 . S
C233 C232 1.329 1_556 S
H234 C207 0.931 . S
C235 O217 1.265 1_554 S
C235 O218 1.242 . S
C236 O221 1.261 . S
C236 O222 1.252 . S
C237 C240 1.394 1_556 S
C237 C242 1.370 . S
C237 C243 1.502 . S
C238 C241 1.383 . S
C238 C242 1.395 . S
C239 C240 1.396 . S
C239 C241 1.365 1_554 S
C239 H248 0.929 . S
C240 C237 1.394 1_554 S
C240 C239 1.396 . S
C240 H249 0.930 . S
C241 C238 1.383 . S
C241 C239 1.365 1_556 S
C241 H250 0.931 . S
C242 C237 1.370 . S
C242 C238 1.395 . S
C242 H251 0.930 . S
C243 Gd179 2.803 1_556 S
C243 O219 1.271 . S
C243 O220 1.243 1_556 S
C243 C237 1.502 . S
H244 C227 0.929 . S
H245 C228 0.930 . S
H246 C229 0.931 . S
H247 C230 0.930 . S
H248 C239 0.929 . S
H249 C240 0.930 . S
H250 C241 0.931 . S
H251 C242 0.930 . S
C252 C254 1.422 . S
C252 C256 1.415 1_554 S
C252 N258 1.369 1_554 S
C253 C254 1.421 . S
C253 C255 1.417 . S
C253 C265 1.422 . S
C254 C252 1.422 . S
C254 C253 1.421 . S
C254 N264 1.359 . S
C255 C253 1.417 . S
C255 C257 1.329 1_554 S
C255 H274 0.930 . S
C256 C252 1.415 1_556 S
C256 C257 1.437 . S
C256 C260 1.413 . S
C257 C255 1.329 1_556 S
C257 C256 1.437 . S
C257 H279 0.929 . S
N258 C252 1.369 1_556 S
N258 C259 1.338 . S
N258 Gd263 2.622 1_556 S
C259 N258 1.338 . S
C259 C261 1.378 . S
C259 H271 0.929 . S
C260 C256 1.413 . S
C260 C261 1.348 . S
C260 H276 0.931 . S
C261 C259 1.378 . S
C261 C260 1.348 . S
C261 H277 0.930 . S
Gd262 N282 2.622 . S
Gd262 N289 2.570 . S
Gd262 O296 2.353 . S
Gd262 O297 2.468 . S
Gd262 O298 2.427 . S
Gd262 O300 2.388 . S
Gd262 O301 2.386 . S
Gd262 O305 2.307 . S
Gd262 C315 2.805 . S
Gd263 N258 2.622 1_554 S
Gd263 N264 2.570 . S
Gd263 O295 2.386 . S
Gd263 O299 2.307 . S
Gd263 O302 2.353 . S
Gd263 O303 2.468 . S
Gd263 O304 2.427 . S
Gd263 O306 2.388 1_554 S
Gd263 C327 2.805 . S
N264 C254 1.359 . S
N264 Gd263 2.570 . S
N264 C266 1.343 . S
C265 C253 1.422 . S
C265 C267 1.321 . S
C265 H273 0.931 . S
C266 N264 1.343 . S
C266 C267 1.390 . S
C266 H268 0.931 . S
C267 C265 1.321 . S
C267 C266 1.390 . S
C267 H269 0.930 . S
H268 C266 0.931 . S
H269 C267 0.930 . S
H270 C293 0.931 . S
H271 C259 0.929 . S
H272 C294 0.930 1_556 S
H273 C265 0.931 . S
H274 C255 0.930 . S
H275 C284 0.929 . S
H276 C260 0.931 . S
H277 C261 0.930 . S
H278 C316 0.930 . S
H279 C257 0.929 . S
H280 C285 0.931 . S
H281 C286 0.930 . S
N282 Gd262 2.622 . S
N282 C283 1.369 . S
N282 C284 1.338 . S
C283 N282 1.369 . S
C283 C287 1.415 . S
C283 C290 1.422 . S
C284 H275 0.929 . S
C284 N282 1.338 . S
C284 C286 1.378 . S
C285 H280 0.931 . S
C285 C286 1.348 . S
C285 C287 1.413 . S
C286 H281 0.930 . S
C286 C284 1.378 . S
C286 C285 1.348 . S
C287 C283 1.415 . S
C287 C285 1.413 . S
C287 C317 1.437 . S
H288 C317 0.929 . S
N289 Gd262 2.570 . S
N289 C290 1.359 . S
N289 C293 1.343 . S
C290 C283 1.422 . S
C290 N289 1.359 . S
C290 C292 1.421 . S
C291 C292 1.422 . S
C291 C294 1.321 . S
C291 H318 0.931 . S
C292 C290 1.421 . S
C292 C291 1.422 . S
C292 C316 1.417 . S
C293 H270 0.931 . S
C293 N289 1.343 . S
C293 C294 1.390 . S
C294 H272 0.930 1_554 S
C294 C291 1.321 . S
C294 C293 1.390 . S
O295 Gd263 2.386 . S
O295 C307 1.265 . S
O296 Gd262 2.353 . S
O296 C307 1.242 . S
O297 Gd262 2.468 . S
O297 C315 1.263 . S
O298 Gd262 2.427 . S
O298 C315 1.252 . S
O299 Gd263 2.307 . S
O299 C308 1.261 . S
O300 Gd262 2.388 . S
O300 C308 1.252 . S
O301 Gd262 2.386 . S
O301 C319 1.265 . S
O302 Gd263 2.353 . S
O302 C319 1.242 . S
O303 Gd263 2.468 . S
O303 C327 1.263 . S
O304 Gd263 2.427 . S
O304 C327 1.252 . S
O305 Gd262 2.307 . S
O305 C320 1.261 1_554 S
O306 Gd263 2.388 1_556 S
O306 C320 1.252 . S
C307 O295 1.265 . S
C307 O296 1.242 . S
C308 O299 1.261 . S
C308 O300 1.252 . S
C309 C312 1.394 . S
C309 C314 1.370 . S
C309 C315 1.500 . S
C310 C313 1.383 . S
C310 C314 1.395 . S
C311 C312 1.396 . S
C311 C313 1.365 . S
C311 H328 0.929 . S
C312 C309 1.394 . S
C312 C311 1.396 . S
C312 H329 0.930 . S
C313 C310 1.383 . S
C313 C311 1.365 . S
C313 H330 0.931 . S
C314 C309 1.370 . S
C314 C310 1.395 . S
C314 H331 0.930 1_554 S
C315 Gd262 2.805 . S
C315 O297 1.263 . S
C315 O298 1.252 . S
C315 C309 1.500 . S
C316 H278 0.930 . S
C316 C292 1.417 . S
C316 C317 1.329 . S
C317 C287 1.437 . S
C317 H288 0.929 . S
C317 C316 1.329 . S
H318 C291 0.931 . S
C319 O301 1.265 . S
C319 O302 1.242 . S
C320 O305 1.261 1_556 S
C320 O306 1.252 . S
C321 C324 1.394 . S
C321 C326 1.370 . S
C321 C327 1.500 . S
C322 C325 1.383 . S
C322 C326 1.395 . S
C323 C324 1.396 . S
C323 C325 1.365 . S
C323 H332 0.929 . S
C324 C321 1.394 . S
C324 C323 1.396 . S
C324 H333 0.930 . S
C325 C322 1.383 . S
C325 C323 1.365 . S
C325 H334 0.931 . S
C326 C321 1.370 . S
C326 C322 1.395 . S
C326 H335 0.930 . S
C327 Gd263 2.805 . S
C327 O303 1.263 . S
C327 O304 1.252 . S
C327 C321 1.500 . S
H328 C311 0.929 . S
H329 C312 0.930 . S
H330 C313 0.931 . S
H331 C314 0.930 1_556 S
H332 C323 0.929 . S
H333 C324 0.930 . S
H334 C325 0.931 . S
H335 C326 0.930 . S
C336 C338 1.422 1_556 S
C336 C340 1.415 . S
C336 N342 1.369 . S
C337 C338 1.421 . S
C337 C339 1.417 . S
C337 C349 1.422 . S
C338 C336 1.422 1_554 S
C338 C337 1.421 . S
C338 N348 1.359 . S
C339 C337 1.417 . S
C339 C341 1.329 1_554 S
C339 H358 0.930 . S
C340 C336 1.415 . S
C340 C341 1.437 . S
C340 C344 1.413 . S
C341 C339 1.329 1_556 S
C341 C340 1.437 . S
C341 H363 0.929 . S
N342 C336 1.369 . S
N342 C343 1.338 . S
N342 Gd347 2.622 1_556 S
C343 N342 1.338 . S
C343 C345 1.378 . S
C343 H355 0.929 . S
C344 C340 1.413 . S
C344 C345 1.348 . S
C344 H360 0.931 . S
C345 C343 1.378 . S
C345 C344 1.348 . S
C345 H361 0.930 . S
Gd346 N366 2.622 . S
Gd346 N373 2.570 . S
Gd346 O380 2.353 . S
Gd346 O381 2.468 . S
Gd346 O382 2.427 . S
Gd346 O384 2.388 . S
Gd346 O385 2.386 . S
Gd346 O389 2.307 1_554 S
Gd346 C399 2.805 . S
Gd347 N342 2.622 1_554 S
Gd347 N348 2.570 . S
Gd347 O379 2.386 . S
Gd347 O383 2.307 . S
Gd347 O386 2.353 . S
Gd347 O387 2.468 . S
Gd347 O388 2.427 1_554 S
Gd347 O390 2.388 1_554 S
Gd347 C411 2.805 . S
N348 C338 1.359 . S
N348 Gd347 2.570 . S
N348 C350 1.343 . S
C349 C337 1.422 . S
C349 C351 1.321 . S
C349 H357 0.931 . S
C350 N348 1.343 . S
C350 C351 1.390 . S
C350 H352 0.931 . S
C351 C349 1.321 . S
C351 C350 1.390 . S
C351 H353 0.930 . S
H352 C350 0.931 . S
H353 C351 0.930 . S
H354 C377 0.931 . S
H355 C343 0.929 . S
H356 C378 0.930 . S
H357 C349 0.931 . S
H358 C339 0.930 . S
H359 C368 0.929 . S
H360 C344 0.931 . S
H361 C345 0.930 . S
H362 C400 0.930 . S
H363 C341 0.929 . S
H364 C369 0.931 . S
H365 C370 0.930 . S
N366 Gd346 2.622 . S
N366 C367 1.369 . S
N366 C368 1.338 . S
C367 N366 1.369 . S
C367 C371 1.415 . S
C367 C374 1.422 . S
C368 H359 0.929 . S
C368 N366 1.338 . S
C368 C370 1.378 . S
C369 H364 0.931 . S
C369 C370 1.348 . S
C369 C371 1.413 . S
C370 H365 0.930 . S
C370 C368 1.378 . S
C370 C369 1.348 . S
C371 C367 1.415 . S
C371 C369 1.413 . S
C371 C401 1.437 . S
H372 C401 0.929 . S
N373 Gd346 2.570 . S
N373 C374 1.359 . S
N373 C377 1.343 1_554 S
C374 C367 1.422 . S
C374 N373 1.359 . S
C374 C376 1.421 . S
C375 C376 1.422 1_556 S
C375 C378 1.321 . S
C375 H402 0.931 . S
C376 C374 1.421 . S
C376 C375 1.422 1_554 S
C376 C400 1.417 . S
C377 H354 0.931 . S
C377 N373 1.343 1_556 S
C377 C378 1.390 . S
C378 H356 0.930 . S
C378 C375 1.321 . S
C378 C377 1.390 . S
O379 Gd347 2.386 . S
O379 C391 1.265 . S
O380 Gd346 2.353 . S
O380 C391 1.242 . S
O381 Gd346 2.468 . S
O381 C399 1.263 . S
O382 Gd346 2.427 . S
O382 C399 1.252 . S
O383 Gd347 2.307 . S
O383 C392 1.261 . S
O384 Gd346 2.388 . S
O384 C392 1.252 . S
O385 Gd346 2.386 . S
O385 C403 1.265 . S
O386 Gd347 2.353 . S
O386 C403 1.242 . S
O387 Gd347 2.468 . S
O387 C411 1.263 . S
O388 Gd347 2.427 1_556 S
O388 C411 1.252 1_556 S
O389 Gd346 2.307 1_556 S
O389 C404 1.261 . S
O390 Gd347 2.388 1_556 S
O390 C404 1.252 . S
C391 O379 1.265 . S
C391 O380 1.242 . S
C392 O383 1.261 . S
C392 O384 1.252 . S
C393 C396 1.394 . S
C393 C398 1.370 1_554 S
C393 C399 1.500 . S
C394 C397 1.383 1_556 S
C394 C398 1.395 . S
C395 C396 1.396 . S
C395 C397 1.365 . S
C395 H412 0.929 . S
C396 C393 1.394 . S
C396 C395 1.396 . S
C396 H413 0.930 . S
C397 C394 1.383 1_554 S
C397 C395 1.365 . S
C397 H414 0.931 . S
C398 C393 1.370 1_556 S
C398 C394 1.395 . S
C398 H415 0.930 . S
C399 Gd346 2.805 . S
C399 O381 1.263 . S
C399 O382 1.252 . S
C399 C393 1.500 . S
C400 H362 0.930 . S
C400 C376 1.417 . S
C400 C401 1.329 . S
C401 C371 1.437 . S
C401 H372 0.929 . S
C401 C400 1.329 . S
H402 C375 0.931 . S
C403 O385 1.265 . S
C403 O386 1.242 . S
C404 O389 1.261 . S
C404 O390 1.252 . S
C405 C408 1.394 1_554 S
C405 C410 1.370 . S
C405 C411 1.500 . S
C406 C409 1.383 . S
C406 C410 1.395 . S
C407 C408 1.396 . S
C407 C409 1.365 1_556 S
C407 H416 0.929 . S
C408 C405 1.394 1_556 S
C408 C407 1.396 . S
C408 H417 0.930 . S
C409 C406 1.383 . S
C409 C407 1.365 1_554 S
C409 H418 0.931 . S
C410 C405 1.370 . S
C410 C406 1.395 . S
C410 H419 0.930 . S
C411 Gd347 2.805 . S
C411 O387 1.263 . S
C411 O388 1.252 1_554 S
C411 C405 1.500 . S
H412 C395 0.929 . S
H413 C396 0.930 . S
H414 C397 0.931 . S
H415 C398 0.930 . S
H416 C407 0.929 . S
H417 C408 0.930 . S
H418 C409 0.931 . S
H419 C410 0.930 . S
C420 C422 1.422 . S
C420 C424 1.415 . S
C420 N426 1.369 . S
C421 C422 1.421 . S
C421 C423 1.417 . S
C421 C433 1.422 . S
C422 C420 1.422 . S
C422 C421 1.421 . S
C422 N432 1.359 . S
C423 C421 1.417 . S
C423 C425 1.329 . S
C423 H442 0.930 . S
C424 C420 1.415 . S
C424 C425 1.437 . S
C424 C428 1.413 . S
C425 C423 1.329 . S
C425 C424 1.437 . S
C425 H447 0.929 . S
N426 C420 1.369 . S
N426 C427 1.338 . S
N426 Gd431 2.622 . S
C427 N426 1.338 . S
C427 C429 1.378 1_554 S
C427 H439 0.929 1_554 S
C428 C424 1.413 . S
C428 C429 1.348 1_554 S
C428 H444 0.931 1_554 S
C429 C427 1.378 1_556 S
C429 C428 1.348 1_556 S
C429 H445 0.930 . S
Gd430 N450 2.622 . S
Gd430 N457 2.570 . S
Gd430 O464 2.353 . S
Gd430 O465 2.468 . S
Gd430 O466 2.427 . S
Gd430 O468 2.388 . S
Gd430 O469 2.386 . S
Gd430 O473 2.307 . S
Gd430 C483 2.805 . S
Gd431 N426 2.622 . S
Gd431 N432 2.570 . S
Gd431 O463 2.386 . S
Gd431 O467 2.307 . S
Gd431 O470 2.353 . S
Gd431 O471 2.468 . S
Gd431 O472 2.427 . S
Gd431 O474 2.388 . S
Gd431 C495 2.805 . S
N432 C422 1.359 . S
N432 Gd431 2.570 . S
N432 C434 1.343 . S
C433 C421 1.422 . S
C433 C435 1.321 . S
C433 H441 0.931 . S
C434 N432 1.343 . S
C434 C435 1.390 . S
C434 H436 0.931 . S
C435 C433 1.321 . S
C435 C434 1.390 . S
C435 H437 0.930 . S
H436 C434 0.931 . S
H437 C435 0.930 . S
H438 C461 0.931 1_556 S
H439 C427 0.929 1_556 S
H440 C462 0.930 . S
H441 C433 0.931 . S
H442 C423 0.930 . S
H443 C452 0.929 . S
H444 C428 0.931 1_556 S
H445 C429 0.930 . S
H446 C484 0.930 . S
H447 C425 0.929 . S
H448 C453 0.931 . S
H449 C454 0.930 . S
N450 Gd430 2.622 . S
N450 C451 1.369 . S
N450 C452 1.338 . S
C451 N450 1.369 . S
C451 C455 1.415 . S
C451 C458 1.422 . S
C452 H443 0.929 . S
C452 N450 1.338 . S
C452 C454 1.378 . S
C453 H448 0.931 . S
C453 C454 1.348 . S
C453 C455 1.413 . S
C454 H449 0.930 . S
C454 C452 1.378 . S
C454 C453 1.348 . S
C455 C451 1.415 . S
C455 C453 1.413 . S
C455 C485 1.437 . S
H456 C485 0.929 . S
N457 Gd430 2.570 . S
N457 C458 1.359 . S
N457 C461 1.343 . S
C458 C451 1.422 . S
C458 N457 1.359 . S
C458 C460 1.421 . S
C459 C460 1.422 . S
C459 C462 1.321 1_554 S
C459 H486 0.931 1_554 S
C460 C458 1.421 . S
C460 C459 1.422 . S
C460 C484 1.417 . S
C461 H438 0.931 1_554 S
C461 N457 1.343 . S
C461 C462 1.390 1_554 S
C462 H440 0.930 . S
C462 C459 1.321 1_556 S
C462 C461 1.390 1_556 S
O463 Gd431 2.386 . S
O463 C475 1.265 . S
O464 Gd430 2.353 . S
O464 C475 1.242 . S
O465 Gd430 2.468 . S
O465 C483 1.263 . S
O466 Gd430 2.427 . S
O466 C483 1.252 . S
O467 Gd431 2.307 . S
O467 C476 1.261 . S
O468 Gd430 2.388 . S
O468 C476 1.252 . S
O469 Gd430 2.386 . S
O469 C487 1.265 . S
O470 Gd431 2.353 . S
O470 C487 1.242 . S
O471 Gd431 2.468 . S
O471 C495 1.263 . S
O472 Gd431 2.427 . S
O472 C495 1.252 . S
O473 Gd430 2.307 . S
O473 C488 1.261 . S
O474 Gd431 2.388 . S
O474 C488 1.252 . S
C475 O463 1.265 . S
C475 O464 1.242 . S
C476 O467 1.261 . S
C476 O468 1.252 . S
C477 C480 1.394 . S
C477 C482 1.370 . S
C477 C483 1.500 . S
C478 C481 1.383 1_556 S
C478 C482 1.395 1_556 S
C479 C480 1.396 . S
C479 C481 1.365 . S
C479 H496 0.929 . S
C480 C477 1.394 . S
C480 C479 1.396 . S
C480 H497 0.930 . S
C481 C478 1.383 1_554 S
C481 C479 1.365 . S
C481 H498 0.931 . S
C482 C477 1.370 . S
C482 C478 1.395 1_554 S
C482 H499 0.930 1_554 S
C483 Gd430 2.805 . S
C483 O465 1.263 . S
C483 O466 1.252 . S
C483 C477 1.500 . S
C484 H446 0.930 . S
C484 C460 1.417 . S
C484 C485 1.329 . S
C485 C455 1.437 . S
C485 H456 0.929 . S
C485 C484 1.329 . S
H486 C459 0.931 1_556 S
C487 O469 1.265 . S
C487 O470 1.242 . S
C488 O473 1.261 . S
C488 O474 1.252 . S
C489 C492 1.394 . S
C489 C494 1.370 . S
C489 C495 1.500 1_455 S
C490 C493 1.383 . S
C490 C494 1.395 . S
C491 C492 1.396 . S
C491 C493 1.365 . S
C491 H500 0.929 . S
C492 C489 1.394 . S
C492 C491 1.396 . S
C492 H501 0.930 . S
C493 C490 1.383 . S
C493 C491 1.365 . S
C493 H502 0.931 . S
C494 C489 1.370 . S
C494 C490 1.395 . S
C494 H503 0.930 . S
C495 Gd431 2.805 . S
C495 O471 1.263 . S
C495 O472 1.252 . S
C495 C489 1.500 1_655 S
H496 C479 0.929 . S
H497 C480 0.930 . S
H498 C481 0.931 . S
H499 C482 0.930 1_556 S
H500 C491 0.929 . S
H501 C492 0.930 . S
H502 C493 0.931 . S
H503 C494 0.930 . S
C504 C506 1.422 . S
C504 C508 1.415 . S
C504 N510 1.369 . S
C505 C506 1.421 . S
C505 C507 1.417 . S
C505 C517 1.422 . S
C506 C504 1.422 . S
C506 C505 1.421 . S
C506 N516 1.359 . S
C507 C505 1.417 . S
C507 C509 1.329 . S
C507 H526 0.930 . S
C508 C504 1.415 . S
C508 C509 1.437 . S
C508 C512 1.413 1_556 S
C509 C507 1.329 . S
C509 C508 1.437 . S
C509 H531 0.929 . S
N510 C504 1.369 . S
N510 C511 1.338 . S
N510 Gd515 2.622 . S
C511 N510 1.338 . S
C511 C513 1.378 1_556 S
C511 H523 0.929 1_556 S
C512 C508 1.413 1_554 S
C512 C513 1.348 . S
C512 H528 0.931 . S
C513 C511 1.378 1_554 S
C513 C512 1.348 . S
C513 H529 0.930 . S
Gd514 N534 2.622 . S
Gd514 N541 2.570 . S
Gd514 O548 2.353 . S
Gd514 O549 2.468 . S
Gd514 O550 2.427 . S
Gd514 O552 2.388 . S
Gd514 O553 2.386 . S
Gd514 O557 2.307 . S
Gd514 C567 2.805 . S
Gd515 N510 2.622 . S
Gd515 N516 2.570 . S
Gd515 O547 2.386 . S
Gd515 O551 2.307 . S
Gd515 O554 2.353 . S
Gd515 O555 2.468 . S
Gd515 O556 2.427 . S
Gd515 O558 2.388 . S
Gd515 C579 2.805 . S
N516 C506 1.359 . S
N516 Gd515 2.570 . S
N516 C518 1.343 . S
C517 C505 1.422 . S
C517 C519 1.321 . S
C517 H525 0.931 . S
C518 N516 1.343 . S
C518 C519 1.390 . S
C518 H520 0.931 . S
C519 C517 1.321 . S
C519 C518 1.390 . S
C519 H521 0.930 . S
H520 C518 0.931 . S
H521 C519 0.930 . S
H522 C545 0.931 . S
H523 C511 0.929 1_554 S
H524 C546 0.930 . S
H525 C517 0.931 . S
H526 C507 0.930 . S
H527 C536 0.929 . S
H528 C512 0.931 . S
H529 C513 0.930 . S
H530 C568 0.930 . S
H531 C509 0.929 . S
H532 C537 0.931 . S
H533 C538 0.930 . S
N534 Gd514 2.622 . S
N534 C535 1.369 . S
N534 C536 1.338 . S
C535 N534 1.369 . S
C535 C539 1.415 . S
C535 C542 1.422 . S
C536 H527 0.929 . S
C536 N534 1.338 . S
C536 C538 1.378 . S
C537 H532 0.931 . S
C537 C538 1.348 . S
C537 C539 1.413 . S
C538 H533 0.930 . S
C538 C536 1.378 . S
C538 C537 1.348 . S
C539 C535 1.415 . S
C539 C537 1.413 . S
C539 C569 1.437 . S
H540 C569 0.929 . S
N541 Gd514 2.570 . S
N541 C542 1.359 . S
N541 C545 1.343 . S
C542 C535 1.422 . S
C542 N541 1.359 . S
C542 C544 1.421 . S
C543 C544 1.422 . S
C543 C546 1.321 . S
C543 H570 0.931 . S
C544 C542 1.421 . S
C544 C543 1.422 . S
C544 C568 1.417 . S
C545 H522 0.931 . S
C545 N541 1.343 . S
C545 C546 1.390 . S
C546 H524 0.930 . S
C546 C543 1.321 . S
C546 C545 1.390 . S
O547 Gd515 2.386 . S
O547 C559 1.265 . S
O548 Gd514 2.353 . S
O548 C559 1.242 . S
O549 Gd514 2.468 . S
O549 C567 1.263 . S
O550 Gd514 2.427 . S
O550 C567 1.252 . S
O551 Gd515 2.307 . S
O551 C560 1.261 . S
O552 Gd514 2.388 . S
O552 C560 1.252 . S
O553 Gd514 2.386 . S
O553 C571 1.265 . S
O554 Gd515 2.353 . S
O554 C571 1.242 . S
O555 Gd515 2.468 . S
O555 C579 1.263 . S
O556 Gd515 2.427 . S
O556 C579 1.252 . S
O557 Gd514 2.307 . S
O557 C572 1.261 . S
O558 Gd515 2.388 . S
O558 C572 1.252 . S
C559 O547 1.265 . S
C559 O548 1.242 . S
C560 O551 1.261 . S
C560 O552 1.252 . S
C561 C564 1.394 . S
C561 C566 1.370 . S
C561 C567 1.500 . S
C562 C565 1.383 . S
C562 C566 1.395 . S
C563 C564 1.396 . S
C563 C565 1.365 . S
C563 H580 0.929 . S
C564 C561 1.394 . S
C564 C563 1.396 . S
C564 H581 0.930 . S
C565 C562 1.383 . S
C565 C563 1.365 . S
C565 H582 0.931 . S
C566 C561 1.370 . S
C566 C562 1.395 . S
C566 H583 0.930 . S
C567 Gd514 2.805 . S
C567 O549 1.263 . S
C567 O550 1.252 . S
C567 C561 1.500 . S
C568 H530 0.930 . S
C568 C544 1.417 . S
C568 C569 1.329 . S
C569 C539 1.437 . S
C569 H540 0.929 . S
C569 C568 1.329 . S
H570 C543 0.931 . S
C571 O553 1.265 . S
C571 O554 1.242 . S
C572 O557 1.261 . S
C572 O558 1.252 . S
C573 C576 1.394 . S
C573 C578 1.370 . S
C573 C579 1.500 . S
C574 C577 1.383 1_565 S
C574 C578 1.395 . S
C575 C576 1.396 . S
C575 C577 1.365 1_565 S
C575 H584 0.929 1_565 S
C576 C573 1.394 . S
C576 C575 1.396 . S
C576 H585 0.930 . S
C577 C574 1.383 1_545 S
C577 C575 1.365 1_545 S
C577 H586 0.931 . S
C578 C573 1.370 . S
C578 C574 1.395 . S
C578 H587 0.930 . S
C579 Gd515 2.805 . S
C579 O555 1.263 . S
C579 O556 1.252 . S
C579 C573 1.500 . S
H580 C563 0.929 . S
H581 C564 0.930 . S
H582 C565 0.931 . S
H583 C566 0.930 . S
H584 C575 0.929 1_545 S
H585 C576 0.930 . S
H586 C577 0.931 . S
H587 C578 0.930 . S
C588 C590 1.422 . S
C588 C592 1.415 . S
C588 N594 1.369 . S
C589 C590 1.421 . S
C589 C591 1.417 . S
C589 C601 1.422 1_556 S
C590 C588 1.422 . S
C590 C589 1.421 . S
C590 N600 1.359 . S
C591 C589 1.417 . S
C591 C593 1.329 . S
C591 H610 0.930 . S
C592 C588 1.415 . S
C592 C593 1.437 . S
C592 C596 1.413 . S
C593 C591 1.329 . S
C593 C592 1.437 . S
C593 H615 0.929 . S
N594 C588 1.369 . S
N594 C595 1.338 . S
N594 Gd599 2.622 . S
C595 N594 1.338 . S
C595 C597 1.378 . S
C595 H607 0.929 . S
C596 C592 1.413 . S
C596 C597 1.348 . S
C596 H612 0.931 . S
C597 C595 1.378 . S
C597 C596 1.348 . S
C597 H613 0.930 . S
Gd598 N618 2.622 . S
Gd598 N625 2.570 . S
Gd598 O632 2.353 . S
Gd598 O633 2.468 . S
Gd598 O634 2.427 . S
Gd598 O636 2.388 1_556 S
Gd598 O637 2.386 . S
Gd598 O641 2.307 . S
Gd598 C651 2.805 . S
Gd599 N594 2.622 . S
Gd599 N600 2.570 . S
Gd599 O631 2.386 . S
Gd599 O635 2.307 . S
Gd599 O638 2.353 . S
Gd599 O639 2.468 . S
Gd599 O640 2.427 . S
Gd599 O642 2.388 . S
Gd599 C663 2.805 . S
N600 C590 1.359 . S
N600 Gd599 2.570 . S
N600 C602 1.343 1_556 S
C601 C589 1.422 1_554 S
C601 C603 1.321 . S
C601 H609 0.931 . S
C602 N600 1.343 1_554 S
C602 C603 1.390 . S
C602 H604 0.931 . S
C603 C601 1.321 . S
C603 C602 1.390 . S
C603 H605 0.930 . S
H604 C602 0.931 . S
H605 C603 0.930 . S
H606 C629 0.931 . S
H607 C595 0.929 . S
H608 C630 0.930 . S
H609 C601 0.931 . S
H610 C591 0.930 . S
H611 C620 0.929 . S
H612 C596 0.931 . S
H613 C597 0.930 . S
H614 C652 0.930 . S
H615 C593 0.929 . S
H616 C621 0.931 . S
H617 C622 0.930 . S
N618 Gd598 2.622 . S
N618 C619 1.369 . S
N618 C620 1.338 1_556 S
C619 N618 1.369 . S
C619 C623 1.415 . S
C619 C626 1.422 . S
C620 H611 0.929 . S
C620 N618 1.338 1_554 S
C620 C622 1.378 . S
C621 H616 0.931 . S
C621 C622 1.348 . S
C621 C623 1.413 1_554 S
C622 H617 0.930 . S
C622 C620 1.378 . S
C622 C621 1.348 . S
C623 C619 1.415 . S
C623 C621 1.413 1_556 S
C623 C653 1.437 . S
H624 C653 0.929 . S
N625 Gd598 2.570 . S
N625 C626 1.359 . S
N625 C629 1.343 . S
C626 C619 1.422 . S
C626 N625 1.359 . S
C626 C628 1.421 . S
C627 C628 1.422 . S
C627 C630 1.321 . S
C627 H654 0.931 . S
C628 C626 1.421 . S
C628 C627 1.422 . S
C628 C652 1.417 . S
C629 H606 0.931 . S
C629 N625 1.343 . S
C629 C630 1.390 . S
C630 H608 0.930 . S
C630 C627 1.321 . S
C630 C629 1.390 . S
O631 Gd599 2.386 . S
O631 C643 1.265 . S
O632 Gd598 2.353 . S
O632 C643 1.242 . S
O633 Gd598 2.468 . S
O633 C651 1.263 . S
O634 Gd598 2.427 . S
O634 C651 1.252 . S
O635 Gd599 2.307 . S
O635 C644 1.261 1_556 S
O636 Gd598 2.388 1_554 S
O636 C644 1.252 . S
O637 Gd598 2.386 . S
O637 C655 1.265 . S
O638 Gd599 2.353 . S
O638 C655 1.242 . S
O639 Gd599 2.468 . S
O639 C663 1.263 . S
O640 Gd599 2.427 . S
O640 C663 1.252 . S
O641 Gd598 2.307 . S
O641 C656 1.261 . S
O642 Gd599 2.388 . S
O642 C656 1.252 . S
C643 O631 1.265 . S
C643 O632 1.242 . S
C644 O635 1.261 1_554 S
C644 O636 1.252 . S
C645 C648 1.394 . S
C645 C650 1.370 . S
C645 C651 1.500 . S
C646 C649 1.383 . S
C646 C650 1.395 . S
C647 C648 1.396 . S
C647 C649 1.365 . S
C647 H664 0.929 . S
C648 C645 1.394 . S
C648 C647 1.396 . S
C648 H665 0.930 . S
C649 C646 1.383 . S
C649 C647 1.365 . S
C649 H666 0.931 . S
C650 C645 1.370 . S
C650 C646 1.395 . S
C650 H667 0.930 . S
C651 Gd598 2.805 . S
C651 O633 1.263 . S
C651 O634 1.252 . S
C651 C645 1.500 . S
C652 H614 0.930 . S
C652 C628 1.417 . S
C652 C653 1.329 . S
C653 C623 1.437 . S
C653 H624 0.929 . S
C653 C652 1.329 . S
H654 C627 0.931 . S
C655 O637 1.265 . S
C655 O638 1.242 . S
C656 O641 1.261 . S
C656 O642 1.252 . S
C657 C660 1.394 . S
C657 C662 1.370 . S
C657 C663 1.500 . S
C658 C661 1.383 . S
C658 C662 1.395 . S
C659 C660 1.396 . S
C659 C661 1.365 . S
C659 H668 0.929 . S
C660 C657 1.394 . S
C660 C659 1.396 . S
C660 H669 0.930 . S
C661 C658 1.383 . S
C661 C659 1.365 . S
C661 H670 0.931 . S
C662 C657 1.370 . S
C662 C658 1.395 . S
C662 H671 0.930 . S
C663 Gd599 2.805 . S
C663 O639 1.263 . S
C663 O640 1.252 . S
C663 C657 1.500 . S
H664 C647 0.929 . S
H665 C648 0.930 . S
H666 C649 0.931 . S
H667 C650 0.930 . S
H668 C659 0.929 . S
H669 C660 0.930 . S
H670 C661 0.931 . S
H671 C662 0.930 . S
C672 C674 1.422 . S
C672 C676 1.415 . S
C672 N678 1.369 . S
C673 C674 1.421 . S
C673 C675 1.417 . S
C673 C685 1.422 . S
C674 C672 1.422 . S
C674 C673 1.421 . S
C674 N684 1.359 . S
C675 C673 1.417 . S
C675 C677 1.329 . S
C675 H694 0.930 . S
C676 C672 1.415 . S
C676 C677 1.437 . S
C676 C680 1.413 1_556 S
C677 C675 1.329 . S
C677 C676 1.437 . S
C677 H699 0.929 . S
N678 C672 1.369 . S
N678 C679 1.338 1_556 S
N678 Gd683 2.622 . S
C679 N678 1.338 1_554 S
C679 C681 1.378 . S
C679 H691 0.929 . S
C680 C676 1.413 1_554 S
C680 C681 1.348 . S
C680 H696 0.931 . S
C681 C679 1.378 . S
C681 C680 1.348 . S
C681 H697 0.930 . S
Gd682 N702 2.622 . S
Gd682 N709 2.570 . S
Gd682 O716 2.353 . S
Gd682 O717 2.468 . S
Gd682 O718 2.427 . S
Gd682 O720 2.388 . S
Gd682 O721 2.386 . S
Gd682 O725 2.307 . S
Gd682 C735 2.805 . S
Gd683 N678 2.622 . S
Gd683 N684 2.570 . S
Gd683 O715 2.386 . S
Gd683 O719 2.307 . S
Gd683 O722 2.353 . S
Gd683 O723 2.468 . S
Gd683 O724 2.427 . S
Gd683 O726 2.388 . S
Gd683 C747 2.805 . S
N684 C674 1.359 . S
N684 Gd683 2.570 . S
N684 C686 1.343 . S
C685 C673 1.422 . S
C685 C687 1.321 . S
C685 H693 0.931 . S
C686 N684 1.343 . S
C686 C687 1.390 . S
C686 H688 0.931 . S
C687 C685 1.321 . S
C687 C686 1.390 . S
C687 H689 0.930 . S
H688 C686 0.931 . S
H689 C687 0.930 . S
H690 C713 0.931 . S
H691 C679 0.929 . S
H692 C714 0.930 . S
H693 C685 0.931 . S
H694 C675 0.930 . S
H695 C704 0.929 . S
H696 C680 0.931 . S
H697 C681 0.930 . S
H698 C736 0.930 . S
H699 C677 0.929 . S
H700 C705 0.931 . S
H701 C706 0.930 . S
N702 Gd682 2.622 . S
N702 C703 1.369 . S
N702 C704 1.338 . S
C703 N702 1.369 . S
C703 C707 1.415 . S
C703 C710 1.422 . S
C704 H695 0.929 . S
C704 N702 1.338 . S
C704 C706 1.378 . S
C705 H700 0.931 . S
C705 C706 1.348 . S
C705 C707 1.413 . S
C706 H701 0.930 . S
C706 C704 1.378 . S
C706 C705 1.348 . S
C707 C703 1.415 . S
C707 C705 1.413 . S
C707 C737 1.437 . S
H708 C737 0.929 . S
N709 Gd682 2.570 . S
N709 C710 1.359 . S
N709 C713 1.343 1_556 S
C710 C703 1.422 . S
C710 N709 1.359 . S
C710 C712 1.421 . S
C711 C712 1.422 1_554 S
C711 C714 1.321 . S
C711 H738 0.931 . S
C712 C710 1.421 . S
C712 C711 1.422 1_556 S
C712 C736 1.417 . S
C713 H690 0.931 . S
C713 N709 1.343 1_554 S
C713 C714 1.390 . S
C714 H692 0.930 . S
C714 C711 1.321 . S
C714 C713 1.390 . S
O715 Gd683 2.386 . S
O715 C727 1.265 . S
O716 Gd682 2.353 . S
O716 C727 1.242 . S
O717 Gd682 2.468 . S
O717 C735 1.263 . S
O718 Gd682 2.427 . S
O718 C735 1.252 . S
O719 Gd683 2.307 . S
O719 C728 1.261 . S
O720 Gd682 2.388 . S
O720 C728 1.252 . S
O721 Gd682 2.386 . S
O721 C739 1.265 . S
O722 Gd683 2.353 . S
O722 C739 1.242 . S
O723 Gd683 2.468 . S
O723 C747 1.263 . S
O724 Gd683 2.427 . S
O724 C747 1.252 . S
O725 Gd682 2.307 . S
O725 C740 1.261 1_556 S
O726 Gd683 2.388 . S
O726 C740 1.252 1_556 S
C727 O715 1.265 . S
C727 O716 1.242 . S
C728 O719 1.261 . S
C728 O720 1.252 . S
C729 C732 1.394 . S
C729 C734 1.370 . S
C729 C735 1.500 . S
C730 C733 1.383 . S
C730 C734 1.395 . S
C731 C732 1.396 . S
C731 C733 1.365 . S
C731 H748 0.929 . S
C732 C729 1.394 . S
C732 C731 1.396 . S
C732 H749 0.930 . S
C733 C730 1.383 . S
C733 C731 1.365 . S
C733 H750 0.931 . S
C734 C729 1.370 . S
C734 C730 1.395 . S
C734 H751 0.930 1_556 S
C735 Gd682 2.805 . S
C735 O717 1.263 . S
C735 O718 1.252 . S
C735 C729 1.500 . S
C736 H698 0.930 . S
C736 C712 1.417 . S
C736 C737 1.329 . S
C737 C707 1.437 . S
C737 H708 0.929 . S
C737 C736 1.329 . S
H738 C711 0.931 . S
C739 O721 1.265 . S
C739 O722 1.242 . S
C740 O725 1.261 1_554 S
C740 O726 1.252 1_554 S
C741 C744 1.394 . S
C741 C746 1.370 . S
C741 C747 1.500 . S
C742 C745 1.383 . S
C742 C746 1.395 . S
C743 C744 1.396 . S
C743 C745 1.365 . S
C743 H752 0.929 . S
C744 C741 1.394 . S
C744 C743 1.396 . S
C744 H753 0.930 . S
C745 C742 1.383 . S
C745 C743 1.365 . S
C745 H754 0.931 . S
C746 C741 1.370 . S
C746 C742 1.395 . S
C746 H755 0.930 . S
C747 Gd683 2.805 . S
C747 O723 1.263 . S
C747 O724 1.252 . S
C747 C741 1.500 . S
H748 C731 0.929 . S
H749 C732 0.930 . S
H750 C733 0.931 . S
H751 C734 0.930 1_554 S
H752 C743 0.929 . S
H753 C744 0.930 . S
H754 C745 0.931 . S
H755 C746 0.930 . S
H756 C764 0.950 . S
H757 C769 0.950 . S
H758 C766 0.950 . S
H759 C768 0.950 . S
H760 C770 0.950 . S
H761 C772 0.950 . S
H762 C774 0.950 . S
H763 C775 0.950 . S
C764 H756 0.950 . S
C764 C765 1.386 . S
C764 C766 1.391 . S
C765 C764 1.386 . S
C765 C769 1.393 1_554 S
C766 H758 0.950 . S
C766 C764 1.391 . S
C766 C767 1.400 . S
C767 C766 1.400 . S
C767 C768 1.398 1_554 S
C767 C773 1.490 1_554 S
C768 H759 0.950 . S
C768 C767 1.398 1_556 S
C768 C769 1.391 . S
C769 H757 0.950 . S
C769 C765 1.393 1_556 S
C769 C768 1.391 . S
C770 H760 0.950 . S
C770 C771 1.386 . S
C770 C772 1.391 . S
C771 C770 1.386 . S
C771 C775 1.393 1_556 S
C772 H761 0.950 . S
C772 C770 1.391 . S
C772 C773 1.403 . S
C773 C767 1.490 1_556 S
C773 C772 1.403 . S
C773 C774 1.397 1_556 S
C774 H762 0.950 . S
C774 C773 1.397 1_554 S
C774 C775 1.391 . S
C775 H763 0.950 . S
C775 C771 1.393 1_554 S
C775 C774 1.391 . S
H776 C784 0.950 . S
H777 C789 0.950 . S
H778 C786 0.950 . S
H779 C788 0.950 . S
H780 C790 0.950 . S
H781 C792 0.950 1_554 S
H782 C794 0.950 . S
H783 C795 0.950 . S
C784 H776 0.950 . S
C784 C785 1.386 1_556 S
C784 C786 1.391 . S
C785 C784 1.386 1_554 S
C785 C789 1.393 . S
C786 H778 0.950 . S
C786 C784 1.391 . S
C786 C787 1.400 . S
C787 C786 1.400 . S
C787 C788 1.398 1_556 S
C787 C793 1.491 . S
C788 H779 0.950 . S
C788 C787 1.398 1_554 S
C788 C789 1.391 . S
C789 H777 0.950 . S
C789 C785 1.393 . S
C789 C788 1.391 . S
C790 H780 0.950 . S
C790 C791 1.386 . S
C790 C792 1.391 . S
C791 C790 1.386 . S
C791 C795 1.393 . S
C792 H781 0.950 1_556 S
C792 C790 1.391 . S
C792 C793 1.400 . S
C793 C787 1.491 . S
C793 C792 1.400 . S
C793 C794 1.398 . S
C794 H782 0.950 . S
C794 C793 1.398 . S
C794 C795 1.391 . S
C795 H783 0.950 . S
C795 C791 1.393 . S
C795 C794 1.391 . S
H796 C804 0.950 . S
H797 C809 0.950 . S
H798 C806 0.950 . S
H799 C808 0.950 . S
H800 C810 0.950 . S
H801 C812 0.950 . S
H802 C814 0.950 . S
H803 C815 0.950 . S
C804 H796 0.950 . S
C804 C805 1.386 . S
C804 C806 1.391 . S
C805 C804 1.386 . S
C805 C809 1.393 . S
C806 H798 0.950 . S
C806 C804 1.391 . S
C806 C807 1.400 . S
C807 C806 1.400 . S
C807 C808 1.398 . S
C807 C813 1.491 . S
C808 H799 0.950 . S
C808 C807 1.398 . S
C808 C809 1.391 . S
C809 H797 0.950 . S
C809 C805 1.393 . S
C809 C808 1.391 . S
C810 H800 0.950 . S
C810 C811 1.386 . S
C810 C812 1.391 . S
C811 C810 1.386 . S
C811 C815 1.393 . S
C812 H801 0.950 . S
C812 C810 1.391 . S
C812 C813 1.400 . S
C813 C807 1.491 . S
C813 C812 1.400 . S
C813 C814 1.398 . S
C814 H802 0.950 . S
C814 C813 1.398 . S
C814 C815 1.391 . S
C815 H803 0.950 . S
C815 C811 1.393 . S
C815 C814 1.391 . S
H816 C824 0.950 . S
H817 C829 0.950 . S
H818 C826 0.950 . S
H819 C828 0.950 . S
H820 C830 0.950 . S
H821 C832 0.950 . S
H822 C834 0.950 . S
H823 C835 0.950 . S
C824 H816 0.950 . S
C824 C825 1.386 . S
C824 C826 1.391 . S
C825 C824 1.386 . S
C825 C829 1.393 1_554 S
C826 H818 0.950 . S
C826 C824 1.391 . S
C826 C827 1.400 . S
C827 C826 1.400 . S
C827 C828 1.398 1_554 S
C827 C833 1.491 . S
C828 H819 0.950 . S
C828 C827 1.398 1_556 S
C828 C829 1.391 . S
C829 H817 0.950 . S
C829 C825 1.393 1_556 S
C829 C828 1.391 . S
C830 H820 0.950 . S
C830 C831 1.386 1_556 S
C830 C832 1.391 . S
C831 C830 1.386 1_554 S
C831 C835 1.393 . S
C832 H821 0.950 . S
C832 C830 1.391 . S
C832 C833 1.400 1_556 S
C833 C827 1.491 . S
C833 C832 1.400 1_554 S
C833 C834 1.398 . S
C834 H822 0.950 . S
C834 C833 1.398 . S
C834 C835 1.391 . S
C835 H823 0.950 . S
C835 C831 1.393 . S
C835 C834 1.391 . S
H836 C844 0.950 . S
H837 C849 0.950 . S
H838 C846 0.950 1_455 S
H839 C848 0.950 . S
H840 C850 0.950 . S
H841 C852 0.950 . S
H842 C854 0.950 . S
H843 C855 0.950 . S
C844 H836 0.950 . S
C844 C845 1.386 . S
C844 C846 1.391 . S
C845 C844 1.386 . S
C845 C849 1.393 . S
C846 H838 0.950 1_655 S
C846 C844 1.391 . S
C846 C847 1.400 . S
C847 C846 1.400 . S
C847 C848 1.398 . S
C847 C853 1.491 . S
C848 H839 0.950 . S
C848 C847 1.398 . S
C848 C849 1.391 . S
C849 H837 0.950 . S
C849 C845 1.393 . S
C849 C848 1.391 . S
C850 H840 0.950 . S
C850 C851 1.386 1_655 S
C850 C852 1.391 . S
C851 C850 1.386 1_455 S
C851 C855 1.393 . S
C852 H841 0.950 . S
C852 C850 1.391 . S
C852 C853 1.400 . S
C853 C847 1.491 . S
C853 C852 1.400 . S
C853 C854 1.398 1_655 S
C854 H842 0.950 . S
C854 C853 1.398 1_455 S
C854 C855 1.391 . S
C855 H843 0.950 . S
C855 C851 1.393 . S
C855 C854 1.391 . S
H856 C864 0.950 . S
H857 C869 0.950 . S
H858 C866 0.950 . S
H859 C868 0.950 . S
H860 C870 0.950 . S
H861 C872 0.950 . S
H862 C874 0.950 . S
H863 C875 0.950 . S
C864 H856 0.950 . S
C864 C865 1.386 . S
C864 C866 1.391 . S
C865 C864 1.386 . S
C865 C869 1.393 . S
C866 H858 0.950 . S
C866 C864 1.391 . S
C866 C867 1.400 . S
C867 C866 1.400 . S
C867 C868 1.398 . S
C867 C873 1.491 . S
C868 H859 0.950 . S
C868 C867 1.398 . S
C868 C869 1.391 . S
C869 H857 0.950 . S
C869 C865 1.393 . S
C869 C868 1.391 . S
C870 H860 0.950 . S
C870 C871 1.386 . S
C870 C872 1.391 . S
C871 C870 1.386 . S
C871 C875 1.393 . S
C872 H861 0.950 . S
C872 C870 1.391 . S
C872 C873 1.400 . S
C873 C867 1.491 . S
C873 C872 1.400 . S
C873 C874 1.398 . S
C874 H862 0.950 . S
C874 C873 1.398 . S
C874 C875 1.391 . S
C875 H863 0.950 . S
C875 C871 1.393 . S
C875 C874 1.391 . S
H876 C884 0.950 . S
H877 C889 0.950 . S
H878 C886 0.950 . S
H879 C888 0.950 . S
H880 C890 0.950 . S
H881 C892 0.950 . S
H882 C894 0.950 . S
H883 C895 0.950 . S
C884 H876 0.950 . S
C884 C885 1.386 . S
C884 C886 1.391 . S
C885 C884 1.386 . S
C885 C889 1.393 . S
C886 H878 0.950 . S
C886 C884 1.391 . S
C886 C887 1.400 . S
C887 C886 1.400 . S
C887 C888 1.398 . S
C887 C893 1.491 . S
C888 H879 0.950 . S
C888 C887 1.398 . S
C888 C889 1.391 . S
C889 H877 0.950 . S
C889 C885 1.393 . S
C889 C888 1.391 . S
C890 H880 0.950 . S
C890 C891 1.386 . S
C890 C892 1.391 . S
C891 C890 1.386 . S
C891 C895 1.393 . S
C892 H881 0.950 . S
C892 C890 1.391 . S
C892 C893 1.400 . S
C893 C887 1.491 . S
C893 C892 1.400 . S
C893 C894 1.398 . S
C894 H882 0.950 . S
C894 C893 1.398 . S
C894 C895 1.391 . S
C895 H883 0.950 . S
C895 C891 1.393 . S
C895 C894 1.391 . S
H896 C904 0.950 . S
H897 C909 0.950 . S
H898 C906 0.950 . S
H899 C908 0.950 . S
H900 C910 0.950 . S
H901 C912 0.950 . S
H902 C914 0.950 . S
H903 C915 0.950 . S
C904 H896 0.950 . S
C904 C905 1.386 . S
C904 C906 1.391 . S
C905 C904 1.386 . S
C905 C909 1.393 . S
C906 H898 0.950 . S
C906 C904 1.391 . S
C906 C907 1.400 . S
C907 C906 1.400 . S
C907 C908 1.398 . S
C907 C913 1.491 . S
C908 H899 0.950 . S
C908 C907 1.398 . S
C908 C909 1.391 . S
C909 H897 0.950 . S
C909 C905 1.393 . S
C909 C908 1.391 . S
C910 H900 0.950 . S
C910 C911 1.386 . S
C910 C912 1.391 . S
C911 C910 1.386 . S
C911 C915 1.393 . S
C912 H901 0.950 . S
C912 C910 1.391 . S
C912 C913 1.400 . S
C913 C907 1.491 . S
C913 C912 1.400 . S
C913 C914 1.398 . S
C914 H902 0.950 . S
C914 C913 1.398 . S
C914 C915 1.391 . S
C915 H903 0.950 . S
C915 C911 1.393 . S
C915 C914 1.391 . S
H916 C924 0.950 . S
H917 C929 0.950 . S
H918 C926 0.950 . S
H919 C928 0.950 . S
H920 C930 0.950 . S
H921 C932 0.950 . S
H922 C934 0.950 1_565 S
H923 C935 0.950 . S
C924 H916 0.950 . S
C924 C925 1.386 . S
C924 C926 1.391 . S
C925 C924 1.386 . S
C925 C929 1.393 . S
C926 H918 0.950 . S
C926 C924 1.391 . S
C926 C927 1.400 . S
C927 C926 1.400 . S
C927 C928 1.398 . S
C927 C933 1.491 . S
C928 H919 0.950 . S
C928 C927 1.398 . S
C928 C929 1.391 . S
C929 H917 0.950 . S
C929 C925 1.393 . S
C929 C928 1.391 . S
C930 H920 0.950 . S
C930 C931 1.386 1_545 S
C930 C932 1.391 . S
C931 C930 1.386 1_565 S
C931 C935 1.393 . S
C932 H921 0.950 . S
C932 C930 1.391 . S
C932 C933 1.400 . S
C933 C927 1.491 . S
C933 C932 1.400 . S
C933 C934 1.398 . S
C934 H922 0.950 1_545 S
C934 C933 1.398 . S
C934 C935 1.391 1_545 S
C935 H923 0.950 . S
C935 C931 1.393 . S
C935 C934 1.391 1_565 S
H936 C944 0.950 . S
H937 C949 0.950 . S
H938 C946 0.950 . S
H939 C948 0.950 . S
H940 C950 0.950 . S
H941 C952 0.950 . S
H942 C954 0.950 . S
H943 C955 0.950 . S
C944 H936 0.950 . S
C944 C945 1.386 . S
C944 C946 1.391 . S
C945 C944 1.386 . S
C945 C949 1.393 . S
C946 H938 0.950 . S
C946 C944 1.391 . S
C946 C947 1.400 . S
C947 C946 1.400 . S
C947 C948 1.398 . S
C947 C953 1.491 . S
C948 H939 0.950 . S
C948 C947 1.398 . S
C948 C949 1.391 . S
C949 H937 0.950 . S
C949 C945 1.393 . S
C949 C948 1.391 . S
C950 H940 0.950 . S
C950 C951 1.386 . S
C950 C952 1.391 . S
C951 C950 1.386 . S
C951 C955 1.393 . S
C952 H941 0.950 . S
C952 C950 1.391 . S
C952 C953 1.400 . S
C953 C947 1.491 . S
C953 C952 1.400 . S
C953 C954 1.398 . S
C954 H942 0.950 . S
C954 C953 1.398 . S
C954 C955 1.391 . S
C955 H943 0.950 . S
C955 C951 1.393 . S
C955 C954 1.391 . S
H956 C964 0.950 . S
H957 C969 0.950 . S
H958 C966 0.950 . S
H959 C968 0.950 . S
H960 C970 0.951 . S
H961 C972 0.950 . S
H962 C974 0.950 1_565 S
H963 C975 0.950 . S
C964 H956 0.950 . S
C964 C965 1.386 . S
C964 C966 1.391 . S
C965 C964 1.386 . S
C965 C969 1.393 . S
C966 H958 0.950 . S
C966 C964 1.391 . S
C966 C967 1.400 . S
C967 C966 1.400 . S
C967 C968 1.398 . S
C967 C973 1.491 1_565 S
C968 H959 0.950 . S
C968 C967 1.398 . S
C968 C969 1.391 . S
C969 H957 0.950 . S
C969 C965 1.393 . S
C969 C968 1.391 . S
C970 H960 0.951 . S
C970 C971 1.386 . S
C970 C972 1.391 . S
C971 C970 1.386 . S
C971 C975 1.393 . S
C972 H961 0.950 . S
C972 C970 1.391 . S
C972 C973 1.400 . S
C973 C967 1.491 1_545 S
C973 C972 1.400 . S
C973 C974 1.398 . S
C974 H962 0.950 1_545 S
C974 C973 1.398 . S
C974 C975 1.391 . S
C975 H963 0.950 . S
C975 C971 1.393 . S
C975 C974 1.391 . S
H976 C984 0.950 . S
H977 C989 0.950 . S
H978 C986 0.950 . S
H979 C988 0.950 . S
H980 C990 0.950 . S
H981 C992 0.950 . S
H982 C994 0.950 . S
H983 C995 0.950 . S
C984 H976 0.950 . S
C984 C985 1.386 1_455 S
C984 C986 1.391 . S
C985 C984 1.386 1_655 S
C985 C989 1.393 . S
C986 H978 0.950 . S
C986 C984 1.391 . S
C986 C987 1.400 . S
C987 C986 1.400 . S
C987 C988 1.398 . S
C987 C993 1.491 . S
C988 H979 0.950 . S
C988 C987 1.398 . S
C988 C989 1.391 1_455 S
C989 H977 0.950 . S
C989 C985 1.393 . S
C989 C988 1.391 1_655 S
C990 H980 0.950 . S
C990 C991 1.386 . S
C990 C992 1.391 . S
C991 C990 1.386 . S
C991 C995 1.393 . S
C992 H981 0.950 . S
C992 C990 1.391 . S
C992 C993 1.400 . S
C993 C987 1.491 . S
C993 C992 1.400 . S
C993 C994 1.398 . S
C994 H982 0.950 . S
C994 C993 1.398 . S
C994 C995 1.391 . S
C995 H983 0.950 . S
C995 C991 1.393 . S
C995 C994 1.391 . S
H996 C1004 0.950 1_556 S
H997 C1009 0.950 . S
H998 C1006 0.950 . S
H999 C1008 0.950 . S
H1000 C1010 0.950 . S
H1001 C1012 0.950 . S
H1002 C1014 0.950 . S
H1003 C1015 0.950 . S
C1004 H996 0.950 1_554 S
C1004 C1005 1.386 . S
C1004 C1006 1.391 . S
C1005 C1004 1.386 . S
C1005 C1009 1.393 . S
C1006 H998 0.950 . S
C1006 C1004 1.391 . S
C1006 C1007 1.400 . S
C1007 C1006 1.400 . S
C1007 C1008 1.398 . S
C1007 C1013 1.491 . S
C1008 H999 0.950 . S
C1008 C1007 1.398 . S
C1008 C1009 1.391 . S
C1009 H997 0.950 . S
C1009 C1005 1.393 . S
C1009 C1008 1.391 . S
C1010 H1000 0.950 . S
C1010 C1011 1.386 . S
C1010 C1012 1.391 . S
C1011 C1010 1.386 . S
C1011 C1015 1.393 . S
C1012 H1001 0.950 . S
C1012 C1010 1.391 . S
C1012 C1013 1.400 . S
C1013 C1007 1.491 . S
C1013 C1012 1.400 . S
C1013 C1014 1.398 . S
C1014 H1002 0.950 . S
C1014 C1013 1.398 . S
C1014 C1015 1.391 . S
C1015 H1003 0.950 . S
C1015 C1011 1.393 . S
C1015 C1014 1.391 . S
H1016 C1024 0.950 1_556 S
H1017 C1029 0.950 . S
H1018 C1026 0.950 . S
H1019 C1028 0.950 . S
H1020 C1030 0.950 . S
H1021 C1032 0.950 . S
H1022 C1034 0.950 . S
H1023 C1035 0.950 . S
C1024 H1016 0.950 1_554 S
C1024 C1025 1.386 . S
C1024 C1026 1.391 1_554 S
C1025 C1024 1.386 . S
C1025 C1029 1.393 . S
C1026 H1018 0.950 . S
C1026 C1024 1.391 1_556 S
C1026 C1027 1.400 1_556 S
C1027 C1026 1.400 1_554 S
C1027 C1028 1.398 . S
C1027 C1033 1.491 . S
C1028 H1019 0.950 . S
C1028 C1027 1.398 . S
C1028 C1029 1.391 . S
C1029 H1017 0.950 . S
C1029 C1025 1.393 . S
C1029 C1028 1.391 . S
C1030 H1020 0.950 . S
C1030 C1031 1.386 1_554 S
C1030 C1032 1.391 . S
C1031 C1030 1.386 1_556 S
C1031 C1035 1.393 . S
C1032 H1021 0.950 . S
C1032 C1030 1.391 . S
C1032 C1033 1.400 . S
C1033 C1027 1.491 . S
C1033 C1032 1.400 . S
C1033 C1034 1.398 1_554 S
C1034 H1022 0.950 . S
C1034 C1033 1.398 1_556 S
C1034 C1035 1.391 . S
C1035 H1023 0.950 . S
C1035 C1031 1.393 . S
C1035 C1034 1.391 . S
H1036 C1044 0.950 . S
H1037 C1049 0.950 . S
H1038 C1046 0.950 . S
H1039 C1048 0.950 . S
H1040 C1050 0.950 . S
H1041 C1052 0.950 . S
H1042 C1054 0.950 . S
H1043 C1055 0.950 . S
C1044 H1036 0.950 . S
C1044 C1045 1.386 . S
C1044 C1046 1.391 . S
C1045 C1044 1.386 . S
C1045 C1049 1.393 1_554 S
C1046 H1038 0.950 . S
C1046 C1044 1.391 . S
C1046 C1047 1.400 . S
C1047 C1046 1.400 . S
C1047 C1048 1.398 1_554 S
C1047 C1053 1.491 . S
C1048 H1039 0.950 . S
C1048 C1047 1.398 1_556 S
C1048 C1049 1.391 . S
C1049 H1037 0.950 . S
C1049 C1045 1.393 1_556 S
C1049 C1048 1.391 . S
C1050 H1040 0.950 . S
C1050 C1051 1.386 . S
C1050 C1052 1.391 . S
C1051 C1050 1.386 . S
C1051 C1055 1.393 1_556 S
C1052 H1041 0.950 . S
C1052 C1050 1.391 . S
C1052 C1053 1.400 1_556 S
C1053 C1047 1.491 . S
C1053 C1052 1.400 1_554 S
C1053 C1054 1.398 . S
C1054 H1042 0.950 . S
C1054 C1053 1.398 . S
C1054 C1055 1.391 . S
C1055 H1043 0.950 . S
C1055 C1051 1.393 1_554 S
C1055 C1054 1.391 . S
H1056 C1064 0.950 . S
H1057 C1069 0.950 . S
H1058 C1066 0.950 1_554 S
H1059 C1068 0.950 . S
H1060 C1070 0.950 . S
H1061 C1072 0.950 . S
H1062 C1074 0.950 . S
H1063 C1075 0.950 . S
C1064 H1056 0.950 . S
C1064 C1065 1.386 1_554 S
C1064 C1066 1.391 1_554 S
C1065 C1064 1.386 1_556 S
C1065 C1069 1.393 . S
C1066 H1058 0.950 1_556 S
C1066 C1064 1.391 1_556 S
C1066 C1067 1.400 . S
C1067 C1066 1.400 . S
C1067 C1068 1.398 . S
C1067 C1073 1.491 . S
C1068 H1059 0.950 . S
C1068 C1067 1.398 . S
C1068 C1069 1.391 . S
C1069 H1057 0.950 . S
C1069 C1065 1.393 . S
C1069 C1068 1.391 . S
C1070 H1060 0.950 . S
C1070 C1071 1.386 . S
C1070 C1072 1.391 . S
C1071 C1070 1.386 . S
C1071 C1075 1.393 . S
C1072 H1061 0.950 . S
C1072 C1070 1.391 . S
C1072 C1073 1.400 . S
C1073 C1067 1.491 . S
C1073 C1072 1.400 . S
C1073 C1074 1.398 . S
C1074 H1062 0.950 . S
C1074 C1073 1.398 . S
C1074 C1075 1.391 . S
C1075 H1063 0.950 . S
C1075 C1071 1.393 . S
C1075 C1074 1.391 . S
H1076 C1084 0.950 . S
H1077 C1089 0.950 . S
H1078 C1086 0.950 . S
H1079 C1088 0.950 . S
H1080 C1090 0.950 . S
H1081 C1092 0.950 . S
H1082 C1094 0.950 . S
H1083 C1095 0.950 . S
C1084 H1076 0.950 . S
C1084 C1085 1.386 . S
C1084 C1086 1.391 . S
C1085 C1084 1.386 . S
C1085 C1089 1.393 . S
C1086 H1078 0.950 . S
C1086 C1084 1.391 . S
C1086 C1087 1.400 . S
C1087 C1086 1.400 . S
C1087 C1088 1.398 . S
C1087 C1093 1.491 . S
C1088 H1079 0.950 . S
C1088 C1087 1.398 . S
C1088 C1089 1.391 . S
C1089 H1077 0.950 . S
C1089 C1085 1.393 . S
C1089 C1088 1.391 . S
C1090 H1080 0.950 . S
C1090 C1091 1.386 . S
C1090 C1092 1.391 . S
C1091 C1090 1.386 . S
C1091 C1095 1.393 . S
C1092 H1081 0.950 . S
C1092 C1090 1.391 . S
C1092 C1093 1.400 . S
C1093 C1087 1.491 . S
C1093 C1092 1.400 . S
C1093 C1094 1.398 . S
C1094 H1082 0.950 . S
C1094 C1093 1.398 . S
C1094 C1095 1.391 . S
C1095 H1083 0.950 . S
C1095 C1091 1.393 . S
C1095 C1094 1.391 . S
H1096 C1104 0.950 . S
H1097 C1109 0.950 . S
H1098 C1106 0.950 . S
H1099 C1108 0.950 . S
H1100 C1110 0.950 . S
H1101 C1112 0.950 . S
H1102 C1114 0.950 . S
H1103 C1115 0.950 . S
C1104 H1096 0.950 . S
C1104 C1105 1.386 . S
C1104 C1106 1.391 . S
C1105 C1104 1.386 . S
C1105 C1109 1.393 . S
C1106 H1098 0.950 . S
C1106 C1104 1.391 . S
C1106 C1107 1.400 . S
C1107 C1106 1.400 . S
C1107 C1108 1.398 . S
C1107 C1113 1.491 . S
C1108 H1099 0.950 . S
C1108 C1107 1.398 . S
C1108 C1109 1.391 . S
C1109 H1097 0.950 . S
C1109 C1105 1.393 . S
C1109 C1108 1.391 . S
C1110 H1100 0.950 . S
C1110 C1111 1.386 . S
C1110 C1112 1.391 . S
C1111 C1110 1.386 . S
C1111 C1115 1.393 . S
C1112 H1101 0.950 . S
C1112 C1110 1.391 . S
C1112 C1113 1.400 . S
C1113 C1107 1.491 . S
C1113 C1112 1.400 . S
C1113 C1114 1.398 . S
C1114 H1102 0.950 . S
C1114 C1113 1.398 . S
C1114 C1115 1.391 . S
C1115 H1103 0.950 . S
C1115 C1111 1.393 . S
C1115 C1114 1.391 . S
H1116 C1124 0.950 . S
H1117 C1129 0.950 . S
H1118 C1126 0.950 . S
H1119 C1128 0.950 . S
H1120 C1130 0.950 . S
H1121 C1132 0.950 . S
H1122 C1134 0.950 . S
H1123 C1135 0.950 . S
C1124 H1116 0.950 . S
C1124 C1125 1.386 . S
C1124 C1126 1.391 . S
C1125 C1124 1.386 . S
C1125 C1129 1.393 . S
C1126 H1118 0.950 . S
C1126 C1124 1.391 . S
C1126 C1127 1.400 . S
C1127 C1126 1.400 . S
C1127 C1128 1.398 . S
C1127 C1133 1.491 . S
C1128 H1119 0.950 . S
C1128 C1127 1.398 . S
C1128 C1129 1.391 . S
C1129 H1117 0.950 . S
C1129 C1125 1.393 . S
C1129 C1128 1.391 . S
C1130 H1120 0.950 . S
C1130 C1131 1.386 . S
C1130 C1132 1.391 . S
C1131 C1130 1.386 . S
C1131 C1135 1.393 . S
C1132 H1121 0.950 . S
C1132 C1130 1.391 . S
C1132 C1133 1.400 . S
C1133 C1127 1.491 . S
C1133 C1132 1.400 . S
C1133 C1134 1.398 . S
C1134 H1122 0.950 . S
C1134 C1133 1.398 . S
C1134 C1135 1.391 . S
C1135 H1123 0.950 . S
C1135 C1131 1.393 . S
C1135 C1134 1.391 . S
H1136 C1144 0.950 . S
H1137 C1149 0.950 . S
H1138 C1146 0.950 . S
H1139 C1148 0.950 . S
H1140 C1150 0.950 . S
H1141 C1152 0.950 . S
H1142 C1154 0.950 . S
H1143 C1155 0.950 . S
C1144 H1136 0.950 . S
C1144 C1145 1.386 . S
C1144 C1146 1.391 . S
C1145 C1144 1.386 . S
C1145 C1149 1.393 . S
C1146 H1138 0.950 . S
C1146 C1144 1.391 . S
C1146 C1147 1.400 . S
C1147 C1146 1.400 . S
C1147 C1148 1.398 . S
C1147 C1153 1.491 . S
C1148 H1139 0.950 . S
C1148 C1147 1.398 . S
C1148 C1149 1.391 . S
C1149 H1137 0.950 . S
C1149 C1145 1.393 . S
C1149 C1148 1.391 . S
C1150 H1140 0.950 . S
C1150 C1151 1.386 . S
C1150 C1152 1.391 . S
C1151 C1150 1.386 . S
C1151 C1155 1.393 . S
C1152 H1141 0.950 . S
C1152 C1150 1.391 . S
C1152 C1153 1.400 . S
C1153 C1147 1.491 . S
C1153 C1152 1.400 . S
C1153 C1154 1.398 . S
C1154 H1142 0.950 . S
C1154 C1153 1.398 . S
C1154 C1155 1.391 . S
C1155 H1143 0.950 . S
C1155 C1151 1.393 . S
C1155 C1154 1.391 . S
H1156 C1164 0.950 . S
H1157 C1169 0.950 . S
H1158 C1166 0.950 . S
H1159 C1168 0.950 . S
H1160 C1170 0.950 . S
H1161 C1172 0.950 . S
H1162 C1174 0.950 . S
H1163 C1175 0.950 . S
C1164 H1156 0.950 . S
C1164 C1165 1.386 . S
C1164 C1166 1.391 . S
C1165 C1164 1.386 . S
C1165 C1169 1.393 . S
C1166 H1158 0.950 . S
C1166 C1164 1.391 . S
C1166 C1167 1.400 . S
C1167 C1166 1.400 . S
C1167 C1168 1.398 . S
C1167 C1173 1.491 . S
C1168 H1159 0.950 . S
C1168 C1167 1.398 . S
C1168 C1169 1.391 . S
C1169 H1157 0.950 . S
C1169 C1165 1.393 . S
C1169 C1168 1.391 . S
C1170 H1160 0.950 . S
C1170 C1171 1.386 . S
C1170 C1172 1.391 . S
C1171 C1170 1.386 . S
C1171 C1175 1.393 . S
C1172 H1161 0.950 . S
C1172 C1170 1.391 . S
C1172 C1173 1.400 . S
C1173 C1167 1.491 . S
C1173 C1172 1.400 . S
C1173 C1174 1.398 . S
C1174 H1162 0.950 . S
C1174 C1173 1.398 . S
C1174 C1175 1.391 . S
C1175 H1163 0.950 . S
C1175 C1171 1.393 . S
C1175 C1174 1.391 . S
H1176 C1184 0.950 . S
H1177 C1189 0.950 . S
H1178 C1186 0.950 . S
H1179 C1188 0.950 . S
H1180 C1190 0.950 . S
H1181 C1192 0.950 . S
H1182 C1194 0.950 . S
H1183 C1195 0.950 . S
C1184 H1176 0.950 . S
C1184 C1185 1.386 . S
C1184 C1186 1.391 . S
C1185 C1184 1.386 . S
C1185 C1189 1.393 . S
C1186 H1178 0.950 . S
C1186 C1184 1.391 . S
C1186 C1187 1.400 . S
C1187 C1186 1.400 . S
C1187 C1188 1.398 . S
C1187 C1193 1.491 . S
C1188 H1179 0.950 . S
C1188 C1187 1.398 . S
C1188 C1189 1.391 . S
C1189 H1177 0.950 . S
C1189 C1185 1.393 . S
C1189 C1188 1.391 . S
C1190 H1180 0.950 . S
C1190 C1191 1.386 . S
C1190 C1192 1.391 . S
C1191 C1190 1.386 . S
C1191 C1195 1.393 . S
C1192 H1181 0.950 . S
C1192 C1190 1.391 . S
C1192 C1193 1.400 . S
C1193 C1187 1.491 . S
C1193 C1192 1.400 . S
C1193 C1194 1.398 . S
C1194 H1182 0.950 . S
C1194 C1193 1.398 . S
C1194 C1195 1.391 . S
C1195 H1183 0.950 . S
C1195 C1191 1.393 . S
C1195 C1194 1.391 . S
H1196 C1204 0.950 . S
H1197 C1209 0.950 . S
H1198 C1206 0.950 . S
H1199 C1208 0.950 . S
H1200 C1210 0.950 . S
H1201 C1212 0.950 . S
H1202 C1214 0.950 . S
H1203 C1215 0.950 . S
C1204 H1196 0.950 . S
C1204 C1205 1.386 . S
C1204 C1206 1.391 . S
C1205 C1204 1.386 . S
C1205 C1209 1.393 . S
C1206 H1198 0.950 . S
C1206 C1204 1.391 . S
C1206 C1207 1.400 . S
C1207 C1206 1.400 . S
C1207 C1208 1.398 . S
C1207 C1213 1.491 . S
C1208 H1199 0.950 . S
C1208 C1207 1.398 . S
C1208 C1209 1.391 . S
C1209 H1197 0.950 . S
C1209 C1205 1.393 . S
C1209 C1208 1.391 . S
C1210 H1200 0.950 . S
C1210 C1211 1.386 . S
C1210 C1212 1.391 . S
C1211 C1210 1.386 . S
C1211 C1215 1.393 . S
C1212 H1201 0.950 . S
C1212 C1210 1.391 . S
C1212 C1213 1.400 . S
C1213 C1207 1.491 . S
C1213 C1212 1.400 . S
C1213 C1214 1.398 . S
C1214 H1202 0.950 . S
C1214 C1213 1.398 . S
C1214 C1215 1.391 . S
C1215 H1203 0.950 . S
C1215 C1211 1.393 . S
C1215 C1214 1.391 . S
H1216 C1224 0.950 . S
H1217 C1229 0.950 . S
H1218 C1226 0.950 . S
H1219 C1228 0.950 . S
H1220 C1230 0.950 . S
H1221 C1232 0.950 . S
H1222 C1234 0.950 . S
H1223 C1235 0.950 . S
C1224 H1216 0.950 . S
C1224 C1225 1.386 . S
C1224 C1226 1.391 . S
C1225 C1224 1.386 . S
C1225 C1229 1.393 . S
C1226 H1218 0.950 . S
C1226 C1224 1.391 . S
C1226 C1227 1.400 . S
C1227 C1226 1.400 . S
C1227 C1228 1.398 . S
C1227 C1233 1.491 . S
C1228 H1219 0.950 . S
C1228 C1227 1.398 . S
C1228 C1229 1.391 . S
C1229 H1217 0.950 . S
C1229 C1225 1.393 . S
C1229 C1228 1.391 . S
C1230 H1220 0.950 . S
C1230 C1231 1.386 . S
C1230 C1232 1.391 . S
C1231 C1230 1.386 . S
C1231 C1235 1.393 . S
C1232 H1221 0.950 . S
C1232 C1230 1.391 . S
C1232 C1233 1.400 . S
C1233 C1227 1.491 . S
C1233 C1232 1.400 . S
C1233 C1234 1.398 . S
C1234 H1222 0.950 . S
C1234 C1233 1.398 . S
C1234 C1235 1.391 . S
C1235 H1223 0.950 . S
C1235 C1231 1.393 . S
C1235 C1234 1.391 . S
H1236 C1244 0.950 . S
H1237 C1249 0.950 . S
H1238 C1246 0.950 . S
H1239 C1248 0.950 . S
H1240 C1250 0.950 1_556 S
H1241 C1252 0.950 . S
H1242 C1254 0.950 . S
H1243 C1255 0.950 . S
C1244 H1236 0.950 . S
C1244 C1245 1.386 . S
C1244 C1246 1.391 . S
C1245 C1244 1.386 . S
C1245 C1249 1.393 . S
C1246 H1238 0.950 . S
C1246 C1244 1.391 . S
C1246 C1247 1.400 . S
C1247 C1246 1.400 . S
C1247 C1248 1.398 . S
C1247 C1253 1.491 . S
C1248 H1239 0.950 . S
C1248 C1247 1.398 . S
C1248 C1249 1.391 . S
C1249 H1237 0.950 . S
C1249 C1245 1.393 . S
C1249 C1248 1.391 . S
C1250 H1240 0.950 1_554 S
C1250 C1251 1.386 . S
C1250 C1252 1.391 . S
C1251 C1250 1.386 . S
C1251 C1255 1.393 . S
C1252 H1241 0.950 . S
C1252 C1250 1.391 . S
C1252 C1253 1.400 . S
C1253 C1247 1.491 . S
C1253 C1252 1.400 . S
C1253 C1254 1.398 . S
C1254 H1242 0.950 . S
C1254 C1253 1.398 . S
C1254 C1255 1.391 . S
C1255 H1243 0.950 . S
C1255 C1251 1.393 . S
C1255 C1254 1.391 . S
H1256 C1264 0.950 . S
H1257 C1269 0.950 . S
H1258 C1266 0.950 . S
H1259 C1268 0.950 . S
H1260 C1270 0.950 . S
H1261 C1272 0.950 . S
H1262 C1274 0.950 . S
H1263 C1275 0.950 . S
C1264 H1256 0.950 . S
C1264 C1265 1.386 . S
C1264 C1266 1.391 . S
C1265 C1264 1.386 . S
C1265 C1269 1.393 . S
C1266 H1258 0.950 . S
C1266 C1264 1.391 . S
C1266 C1267 1.400 . S
C1267 C1266 1.400 . S
C1267 C1268 1.398 . S
C1267 C1273 1.491 . S
C1268 H1259 0.950 . S
C1268 C1267 1.398 . S
C1268 C1269 1.391 . S
C1269 H1257 0.950 . S
C1269 C1265 1.393 . S
C1269 C1268 1.391 . S
C1270 H1260 0.950 . S
C1270 C1271 1.386 . S
C1270 C1272 1.391 . S
C1271 C1270 1.386 . S
C1271 C1275 1.393 . S
C1272 H1261 0.950 . S
C1272 C1270 1.391 . S
C1272 C1273 1.400 . S
C1273 C1267 1.491 . S
C1273 C1272 1.400 . S
C1273 C1274 1.398 . S
C1274 H1262 0.950 . S
C1274 C1273 1.398 . S
C1274 C1275 1.391 . S
C1275 H1263 0.950 . S
C1275 C1271 1.393 . S
C1275 C1274 1.391 . S
H1276 C1284 0.950 . S
H1277 C1289 0.950 . S
H1278 C1286 0.950 . S
H1279 C1288 0.950 . S
H1280 C1290 0.950 . S
H1281 C1292 0.950 . S
H1282 C1294 0.950 . S
H1283 C1295 0.950 . S
C1284 H1276 0.950 . S
C1284 C1285 1.386 . S
C1284 C1286 1.391 . S
C1285 C1284 1.386 . S
C1285 C1289 1.393 . S
C1286 H1278 0.950 . S
C1286 C1284 1.391 . S
C1286 C1287 1.400 . S
C1287 C1286 1.400 . S
C1287 C1288 1.398 . S
C1287 C1293 1.491 . S
C1288 H1279 0.950 . S
C1288 C1287 1.398 . S
C1288 C1289 1.391 . S
C1289 H1277 0.950 . S
C1289 C1285 1.393 . S
C1289 C1288 1.391 . S
C1290 H1280 0.950 . S
C1290 C1291 1.386 . S
C1290 C1292 1.391 . S
C1291 C1290 1.386 . S
C1291 C1295 1.393 . S
C1292 H1281 0.950 . S
C1292 C1290 1.391 . S
C1292 C1293 1.400 . S
C1293 C1287 1.491 . S
C1293 C1292 1.400 . S
C1293 C1294 1.398 . S
C1294 H1282 0.950 . S
C1294 C1293 1.398 . S
C1294 C1295 1.391 . S
C1295 H1283 0.950 . S
C1295 C1291 1.393 . S
C1295 C1294 1.391 . S
C765 C70 1.117 . S
C771 C658 1.144 . S
C785 C151 2.231 . S
C791 C739 2.237 . S
C805 C238 1.303 . S
C811 C571 1.499 . S
C825 C403 2.366 . S
C831 C235 2.379 . S
C845 C487 2.262 . S
C851 C67 2.255 . S
C865 C154 1.898 . S
C871 C319 2.166 . S
C885 C655 1.587 . S
C891 C490 1.470 . S
C905 C742 1.236 . S
C911 C322 1.253 . S
C925 C406 1.562 . S
C931 C574 1.600 . S
C945 C226 1.425 . S
C951 C55 1.757 . S
C965 C142 1.171 . S
C971 C58 1.195 . S
C985 C139 2.958 . S
C991 C223 2.986 1_554 S
C1005 C310 1.630 . S
C1011 C475 2.069 . S
C1025 C307 2.040 . S
C1031 C394 1.643 . S
C1045 C391 1.987 . S
C1051 C478 1.504 . S
C1065 C730 1.746 . S
C1071 C559 2.273 . S
C1085 C646 0.847 . S
C1091 C562 0.849 . S
C1105 C727 2.043 . S
C1111 C643 2.033 . S
C1125 C56 1.451 . S
C1131 C68 1.451 . S
C1145 C152 1.477 . S
C1151 C140 1.477 . S
C1165 C224 1.511 . S
C1171 C236 1.511 . S
C1185 C308 1.483 . S
C1191 C320 1.483 . S
C1205 C392 1.468 . S
C1211 C404 1.468 . S
C1225 C476 1.481 . S
C1231 C488 1.481 1_556 S
C1245 C560 1.446 . S
C1251 C572 1.446 1_554 S
C1265 C644 1.441 . S
C1271 C656 1.441 . S
C1285 C728 1.480 . S
C1291 C740 1.480 . S
