# Generated by pormake.
# Topology vme, (6)-cn, num edge types: 1
# Building blocks:
#     Node 0, Type 0, BuildingBlock: MIDCAF_clean_sbu_0, # of connection points: 6
#     Node 1, Type 0, BuildingBlock: MIDCAF_clean_sbu_0, # of connection points: 6
#     Node 2, Type 0, BuildingBlock: MIDCAF_clean_sbu_0, # of connection points: 6
#     Node 3, Type 0, BuildingBlock: MIDCAF_clean_sbu_0, # of connection points: 6
#     Edge 4, Type (0, 0), BuildingBlock: CIFDUS_clean_linker_0, # of connection points: 2
#     Edge 5, Type (0, 0), BuildingBlock: CIFDUS_clean_linker_0, # of connection points: 2
#     Edge 6, Type (0, 0), BuildingBlock: CIFDUS_clean_linker_0, # of connection points: 2
#     Edge 7, Type (0, 0), BuildingBlock: CIFDUS_clean_linker_0, # of connection points: 2
#     Edge 8, Type (0, 0), BuildingBlock: CIFDUS_clean_linker_0, # of connection points: 2
#     Edge 9, Type (0, 0), BuildingBlock: CIFDUS_clean_linker_0, # of connection points: 2
#     Edge 10, Type (0, 0), BuildingBlock: CIFDUS_clean_linker_0, # of connection points: 2
#     Edge 11, Type (0, 0), BuildingBlock: CIFDUS_clean_linker_0, # of connection points: 2
#     Edge 12, Type (0, 0), BuildingBlock: CIFDUS_clean_linker_0, # of connection points: 2
#     Edge 13, Type (0, 0), BuildingBlock: CIFDUS_clean_linker_0, # of connection points: 2
#     Edge 14, Type (0, 0), BuildingBlock: CIFDUS_clean_linker_0, # of connection points: 2
#     Edge 15, Type (0, 0), BuildingBlock: CIFDUS_clean_linker_0, # of connection points: 2
# Relax obj value: 0.250
# Max RMSD: 0.207
# Mean RMSD: 0.207
data_MOF--net-vme--node1-MIDCAF_clean_sbu_0--edge1-CIFDUS_clean_linker_0
_symmetry_space_group_name_H-M    P1
_symmetry_Int_Tables_number       1
_symmetry_cell_setting            triclinic
loop_
_symmetry_equiv_pos_as_xyz
'x, y, z'
_cell_length_a     19.751981
_cell_length_b     22.02632
_cell_length_c     23.604603
_cell_angle_alpha  92.110033
_cell_angle_beta   99.091541
_cell_angle_gamma 87.825658
loop_
_atom_site_label
_atom_site_type_symbol
_atom_site_fract_x
_atom_site_fract_y
_atom_site_fract_z
_atom_type_partial_charge
Zn0 Zn 0.24408 0.48919 0.26576 0.0
Zn1 Zn 0.20985 0.20818 0.38775 0.0
Zn2 Zn 0.20501 0.39135 0.32077 0.0
C3 C 0.29206 0.3158 0.41402 0.0
C4 C 0.19716 0.25959 0.27581 0.0
O5 O 0.12047 0.45747 0.3183 0.0
O6 O 0.15621 0.5351 0.27583 0.0
C7 C 0.34107 0.46744 0.36609 0.0
O8 O 0.27462 0.37103 0.4011 0.0
O9 O 0.27929 0.27537 0.37402 0.0
O10 O 0.24055 0.2526 0.32105 0.0
O11 O 0.1852 0.31417 0.25883 0.0
O12 O 0.32759 0.50279 0.32448 0.0
O13 O 0.30117 0.42368 0.37055 0.0
O14 O 0.22657 0.36106 0.23551 0.0
O15 O 0.25453 0.44141 0.19218 0.0
C16 C 0.24547 0.38479 0.19188 0.0
O17 O 0.15832 0.32844 0.36918 0.0
O18 O 0.12736 0.25474 0.41852 0.0
C19 C 0.11112 0.51143 0.29981 0.0
C20 C 0.12186 0.31056 0.40491 0.0
Zn21 Zn 0.91587 0.84148 0.11164 0.0
Zn22 Zn 0.75635 0.99003 0.19975 0.0
Zn23 Zn 0.82822 0.91146 0.14894 0.0
C24 C 0.75428 0.88257 0.25728 0.0
C25 C 0.68578 0.97245 0.0879 0.0
O26 O 0.92437 0.9592 0.14164 0.0
O27 O 0.99921 0.88899 0.11919 0.0
C28 C 0.88543 0.77845 0.19964 0.0
O29 O 0.79576 0.86541 0.22217 0.0
O30 O 0.7296 0.93626 0.25653 0.0
O31 O 0.68659 1.00545 0.1328 0.0
O32 O 0.73399 0.93157 0.0849 0.0
O33 O 0.91804 0.77017 0.15817 0.0
O34 O 0.85004 0.82851 0.20461 0.0
O35 O 0.78013 0.88945 0.05876 0.0
O36 O 0.86699 0.83426 0.03323 0.0
C37 C 0.80807 0.85858 0.02053 0.0
O38 O 0.88624 0.99552 0.1776 0.0
O39 O 0.82074 0.05538 0.22517 0.0
C40 C 0.98429 0.94409 0.12907 0.0
C41 C 0.87682 0.04496 0.20695 0.0
Zn42 Zn 0.76973 0.54215 0.67703 0.0
Zn43 Zn 0.90588 0.68283 0.57851 0.0
Zn44 Zn 0.8278 0.62232 0.62477 0.0
C45 C 0.79019 0.6616 0.49696 0.0
C46 C 0.87642 0.757 0.66671 0.0
O47 O 0.89375 0.53848 0.64123 0.0
O48 O 0.83937 0.47451 0.6867 0.0
C49 C 0.68125 0.56602 0.57473 0.0
O50 O 0.76631 0.64311 0.54076 0.0
O51 O 0.8514 0.67759 0.50189 0.0
O52 O 0.90068 0.76023 0.62073 0.0
O53 O 0.85022 0.70722 0.67897 0.0
O54 O 0.68949 0.5316 0.61702 0.0
O55 O 0.72688 0.60522 0.5702 0.0
O56 O 0.80952 0.66936 0.70722 0.0
O57 O 0.75674 0.5967 0.74324 0.0
C58 C 0.77802 0.65031 0.74683 0.0
O59 O 0.92157 0.57296 0.60084 0.0
O60 O 0.99489 0.63924 0.58094 0.0
C61 C 0.89152 0.48718 0.66534 0.0
C62 C 0.97915 0.58475 0.58461 0.0
Zn63 Zn 0.11818 0.15924 0.82583 0.0
Zn64 Zn 0.26663 0.02961 0.76445 0.0
Zn65 Zn 0.20975 0.11257 0.80271 0.0
C66 C 0.26672 0.12629 0.68905 0.0
C67 C 0.34862 0.06625 0.86973 0.0
O68 O 0.22322 0.10323 0.89712 0.0
O69 O 0.11036 0.10058 0.88749 0.0
C70 C 0.10846 0.19035 0.72333 0.0
O71 O 0.24225 0.15508 0.72989 0.0
O72 O 0.2764 0.06921 0.69123 0.0
O73 O 0.34732 0.03141 0.82585 0.0
O74 O 0.29737 0.10358 0.87355 0.0
O75 O 0.06817 0.15793 0.74495 0.0
O76 O 0.17255 0.18819 0.74485 0.0
O77 O 0.25092 0.16447 0.88207 0.0
O78 O 0.17183 0.23511 0.85632 0.0
C79 C 0.22779 0.21972 0.88726 0.0
O80 O 0.13179 0.04432 0.79043 0.0
O81 O 0.19719 0.96675 0.76952 0.0
C82 C 0.16863 0.09029 0.9174 0.0
C83 C 0.14021 0.98742 0.78102 0.0
H84 H 1.01483 0.02834 0.2372 0.0
H85 H 0.85539 0.16652 0.19906 0.0
H86 H 0.9408 0.24538 0.21214 0.0
H87 H 0.06073 0.27532 0.23644 0.0
H88 H 0.22015 0.13776 0.27817 0.0
H89 H 0.13543 0.05826 0.25998 0.0
C90 C 0.99913 0.07573 0.23151 0.0
C91 C 0.92926 0.09175 0.21674 0.0
C92 C 0.04856 0.12082 0.23907 0.0
C93 C 0.90907 0.15328 0.21047 0.0
C94 C 0.95785 0.1983 0.21757 0.0
C95 C 0.07695 0.22788 0.24065 0.0
C96 C 0.14649 0.21223 0.25821 0.0
C97 C 0.02775 0.18264 0.23188 0.0
C98 C 0.16675 0.1507 0.26451 0.0
C99 C 0.11837 0.10532 0.25446 0.0
H100 H 0.08597 0.61886 0.35374 0.0
H101 H 0.98946 0.48052 0.23826 0.0
H102 H 0.89458 0.55163 0.20491 0.0
H103 H 0.85754 0.65916 0.19148 0.0
H104 H 0.95295 0.79742 0.30745 0.0
H105 H 0.02808 0.72031 0.35961 0.0
C106 C 0.04244 0.60366 0.32327 0.0
C107 C 0.04465 0.54484 0.29806 0.0
C108 C 0.98831 0.64511 0.30403 0.0
C109 C 0.98846 0.52547 0.25842 0.0
C110 C 0.93458 0.56639 0.23892 0.0
C111 C 0.89216 0.67181 0.23016 0.0
C112 C 0.9003 0.73379 0.2454 0.0
C113 C 0.93626 0.62726 0.25894 0.0
C114 C 0.94549 0.74995 0.29524 0.0
C115 C 0.98936 0.70588 0.3244 0.0
H116 H 1.00356 1.00019 0.7392 0.0
H117 H 0.15547 0.87772 0.82903 0.0
H118 H 0.07349 0.79641 0.81704 0.0
H119 H 0.96962 0.75458 0.76166 0.0
H120 H 0.82421 0.87257 0.65993 0.0
H121 H 0.88992 0.96123 0.69756 0.0
C122 C 1.01772 0.95617 0.75748 0.0
C123 C 0.08553 0.94437 0.78397 0.0
C124 C 0.97105 0.90863 0.74811 0.0
C125 C 0.10372 0.88727 0.8075 0.0
C126 C 0.05686 0.84081 0.80076 0.0
C127 C 0.9506 0.80012 0.75033 0.0
C128 C 0.89231 0.80739 0.70853 0.0
C129 C 0.99169 0.85001 0.76848 0.0
C130 C 0.86866 0.86626 0.69275 0.0
C131 C 0.90702 0.91678 0.71341 0.0
H132 H 0.88228 0.37252 0.62314 0.0
H133 H 0.027 0.50039 0.70828 0.0
H134 H 0.11633 0.41919 0.72271 0.0
H135 H 0.14515 0.30851 0.72603 0.0
H136 H 0.99847 0.18237 0.63982 0.0
H137 H 0.91916 0.26633 0.60818 0.0
C138 C 0.93377 0.38255 0.64408 0.0
C139 C 0.94804 0.44145 0.66617 0.0
C140 C 0.98457 0.33603 0.65142 0.0
C141 C 1.01502 0.45484 0.69186 0.0
C142 C 0.06594 0.4085 0.69996 0.0
C143 C 0.09714 0.29973 0.69816 0.0
C144 C 0.07712 0.23939 0.68588 0.0
C145 C 0.05048 0.34837 0.68191 0.0
C146 C 1.01465 0.22849 0.65004 0.0
C147 C 0.96888 0.27643 0.63261 0.0
H148 H 0.94008 0.47002 0.55246 0.0
H149 H 0.10706 0.59164 0.55567 0.0
H150 H 0.16307 0.51887 0.49617 0.0
H151 H 0.16138 0.42331 0.43952 0.0
H152 H 1.00351 0.29549 0.44765 0.0
H153 H 0.94694 0.36818 0.50767 0.0
C154 C 0.99028 0.47959 0.54276 0.0
C155 C 1.01985 0.53584 0.55972 0.0
C156 C 0.02289 0.43707 0.50963 0.0
C157 C 0.08337 0.5485 0.54375 0.0
C158 C 0.11521 0.50713 0.50937 0.0
C159 C 0.11457 0.41142 0.45442 0.0
C160 C 0.08571 0.35484 0.4385 0.0
C161 C 0.08467 0.45189 0.49115 0.0
C162 C 0.02588 0.33931 0.45888 0.0
C163 C 0.99391 0.38061 0.49336 0.0
H164 H 0.11641 0.92817 0.11008 0.0
H165 H 0.95171 0.06321 0.10762 0.0
H166 H 1.01296 0.13154 0.0577 0.0
H167 H 0.09381 0.14049 -0.00847 0.0
H168 H 0.24389 0.99717 0.97368 0.0
H169 H 0.20936 0.94479 0.05425 0.0
C170 C 0.09494 0.97327 0.10007 0.0
C171 C 0.02978 0.9907 0.11372 0.0
C172 C 0.12737 0.01022 0.06592 0.0
C173 C 1.00253 0.04911 0.09992 0.0
C174 C 0.03707 0.08796 0.07009 0.0
C175 C 0.12047 0.09876 0.00679 0.0
C176 C 0.16992 0.07165 0.97653 0.0
C177 C 0.09682 0.06726 0.04961 0.0
C178 C 0.20531 0.01838 -0.00348 0.0
C179 C 0.18482 0.98821 0.04196 0.0
H180 H 0.26586 0.18425 -0.00344 0.0
H181 H 0.23598 0.34242 0.89224 0.0
H182 H 0.24447 0.40859 0.97847 0.0
H183 H 0.2459 0.42059 0.08265 0.0
H184 H 0.26965 0.26163 0.1863 0.0
H185 H 0.27699 0.19678 0.10152 0.0
C186 C 0.26365 0.23325 -0.00713 0.0
C187 C 0.25131 0.25858 0.93827 0.0
C188 C 0.26527 0.27081 0.04253 0.0
C189 C 0.24634 0.32208 0.93396 0.0
C190 C 0.25042 0.35983 -0.01679 0.0
C191 C 0.2534 0.37183 0.08681 0.0
C192 C 0.25531 0.34604 0.14074 0.0
C193 C 0.25746 0.33461 0.03763 0.0
C194 C 0.26554 0.28272 0.14524 0.0
C195 C 0.2706 0.24552 0.09675 0.0
H196 H 0.76658 0.75818 0.25923 0.0
H197 H 0.69706 0.91507 0.35165 0.0
H198 H 0.67764 0.85148 0.42899 0.0
H199 H 0.70385 0.7566 0.47914 0.0
H200 H 0.78931 0.60296 0.39398 0.0
H201 H 0.77705 0.65838 0.30482 0.0
C202 C 0.74799 0.77839 0.29653 0.0
C203 C 0.73649 0.84163 0.30069 0.0
C204 C 0.73871 0.74166 0.34199 0.0
C205 C 0.70811 0.86668 0.34779 0.0
C206 C 0.69663 0.83032 0.39212 0.0
C207 C 0.71594 0.73427 0.44002 0.0
C208 C 0.74705 0.67607 0.44268 0.0
C209 C 0.71452 0.76829 0.39082 0.0
C210 C 0.76416 0.6476 0.39238 0.0
C211 C 0.75884 0.67989 0.34187 0.0
H212 H 0.73422 0.76144 -0.01165 0.0
H213 H 0.8138 0.91917 0.92328 0.0
H214 H 0.80708 0.86924 0.82799 0.0
H215 H 0.79637 0.77362 0.76844 0.0
H216 H 0.7284 0.61348 0.84023 0.0
H217 H 0.7123 0.67094 0.92669 0.0
C218 C 0.74658 0.78593 0.95242 0.0
C219 C 0.77288 0.84422 0.96229 0.0
C220 C 0.74713 0.75535 0.89925 0.0
C221 C 0.7914 0.87485 0.91612 0.0
C222 C 0.78908 0.8457 0.86201 0.0
C223 C 0.77868 0.7513 0.80306 0.0
C224 C 0.76588 0.68869 0.79788 0.0
C225 C 0.77045 0.78467 0.85394 0.0
C226 C 0.74003 0.66126 0.84276 0.0
C227 C 0.73036 0.69417 0.8925 0.0
H228 H 0.24362 0.24684 0.66134 0.0
H229 H 0.32731 0.07579 0.60278 0.0
H230 H 0.34989 0.12213 0.51658 0.0
H231 H 0.3387 0.20776 0.45407 0.0
H232 H 0.25535 0.37989 0.5084 0.0
H233 H 0.24106 0.33706 0.60014 0.0
C234 C 0.26715 0.21993 0.62985 0.0
C235 C 0.2828 0.15761 0.63847 0.0
C236 C 0.28016 0.24697 0.57953 0.0
C237 C 0.31382 0.12358 0.5973 0.0
C238 C 0.3271 0.15004 0.54785 0.0
C239 C 0.31822 0.23625 0.48628 0.0
C240 C 0.29653 0.29632 0.4739 0.0
C241 C 0.30949 0.21122 0.5381 0.0
C242 C 0.27139 0.33308 0.51647 0.0
C243 C 0.26298 0.3085 0.56885 0.0
H244 H 0.43022 0.55992 0.37171 0.0
H245 H 0.39167 0.39877 0.45912 0.0
H246 H 0.49265 0.41589 0.53006 0.0
H247 H 0.59181 0.47538 0.56723 0.0
H248 H 0.63093 0.63839 0.4834 0.0
H249 H 0.52997 0.62128 0.4106 0.0
C250 C 0.44383 0.52839 0.4062 0.0
C251 C 0.4029 0.47783 0.40961 0.0
C252 C 0.50229 0.53867 0.44733 0.0
C253 C 0.42154 0.43787 0.4549 0.0
C254 C 0.47959 0.44765 0.49571 0.0
C255 C 0.57851 0.50752 0.5332 0.0
C256 C 0.61973 0.55785 0.53047 0.0
C257 C 0.52021 0.49778 0.49227 0.0
C258 C 0.60117 0.59872 0.48596 0.0
C259 C 0.54309 0.58912 0.44457 0.0
H260 H 0.4582 0.98905 0.8686 0.0
H261 H 0.37358 0.12622 0.97542 0.0
H262 H 0.4715 0.10908 0.05175 0.0
H263 H 0.5791 0.05404 0.08777 0.0
H264 H 0.66088 0.91495 -0.01871 0.0
H265 H 0.56498 0.93418 0.90443 0.0
C266 C 0.46079 0.01559 0.90845 0.0
C267 C 0.40826 0.05911 0.91618 0.0
C268 C 0.5165 1.005 0.95196 0.0
C269 C 0.41309 0.09271 0.96823 0.0
C270 C 0.46901 0.08274 0.01183 0.0
C271 C 0.57638 0.02774 0.04778 0.0
C272 C 0.62792 0.983 0.04036 0.0
C273 C 0.52074 0.03879 0.00413 0.0
C274 C 0.62272 0.94963 -0.01179 0.0
C275 C 0.56769 0.96066 0.9443 0.0
loop_
_geom_bond_atom_site_label_1
_geom_bond_atom_site_label_2
_geom_bond_distance
_geom_bond_site_symmetry_2
_ccdc_geom_bond_type
Zn0 O6 1.920 . S
Zn0 O12 1.898 . S
Zn0 O15 1.905 . S
Zn1 O9 1.905 . S
Zn1 O10 1.898 . S
Zn1 O18 1.920 . S
Zn2 O5 2.080 . S
Zn2 O8 2.114 . S
Zn2 O11 2.120 . S
Zn2 O13 2.120 . S
Zn2 O14 2.114 . S
Zn2 O17 2.080 . S
C3 O8 1.166 . S
C3 O9 1.182 . S
C4 O10 1.167 . S
C4 O11 1.299 . S
O5 Zn2 2.080 . S
O5 C19 1.305 . S
O6 Zn0 1.920 . S
O6 C19 1.234 . S
C7 O12 1.167 . S
C7 O13 1.299 . S
O8 Zn2 2.114 . S
O8 C3 1.166 . S
O9 Zn1 1.905 . S
O9 C3 1.182 . S
O10 Zn1 1.898 . S
O10 C4 1.167 . S
O11 Zn2 2.120 . S
O11 C4 1.299 . S
O12 Zn0 1.898 . S
O12 C7 1.167 . S
O13 Zn2 2.120 . S
O13 C7 1.299 . S
O14 Zn2 2.114 . S
O14 C16 1.166 . S
O15 Zn0 1.905 . S
O15 C16 1.182 . S
C16 O14 1.166 . S
C16 O15 1.182 . S
O17 Zn2 2.080 . S
O17 C20 1.305 . S
O18 Zn1 1.920 . S
O18 C20 1.234 . S
C19 O5 1.305 . S
C19 O6 1.234 . S
C20 O17 1.305 . S
C20 O18 1.234 . S
Zn21 O27 1.920 . S
Zn21 O33 1.898 . S
Zn21 O36 1.905 1_554 S
Zn22 O30 1.905 . S
Zn22 O31 1.898 . S
Zn22 O39 1.920 1_565 S
Zn23 O26 2.080 . S
Zn23 O29 2.114 . S
Zn23 O32 2.120 . S
Zn23 O34 2.120 . S
Zn23 O35 2.114 . S
Zn23 O38 2.080 . S
C24 O29 1.166 . S
C24 O30 1.182 . S
C25 O31 1.167 . S
C25 O32 1.299 . S
O26 Zn23 2.080 . S
O26 C40 1.305 . S
O27 Zn21 1.920 . S
O27 C40 1.234 . S
C28 O33 1.167 . S
C28 O34 1.299 . S
O29 Zn23 2.114 . S
O29 C24 1.166 . S
O30 Zn22 1.905 . S
O30 C24 1.182 . S
O31 Zn22 1.898 . S
O31 C25 1.167 . S
O32 Zn23 2.120 . S
O32 C25 1.299 . S
O33 Zn21 1.898 . S
O33 C28 1.167 . S
O34 Zn23 2.120 . S
O34 C28 1.299 . S
O35 Zn23 2.114 . S
O35 C37 1.166 . S
O36 Zn21 1.905 1_556 S
O36 C37 1.182 1_556 S
C37 O35 1.166 . S
C37 O36 1.182 1_554 S
O38 Zn23 2.080 . S
O38 C41 1.305 1_565 S
O39 Zn22 1.920 1_545 S
O39 C41 1.234 . S
C40 O26 1.305 . S
C40 O27 1.234 . S
C41 O38 1.305 1_545 S
C41 O39 1.234 . S
Zn42 O48 1.920 . S
Zn42 O54 1.898 . S
Zn42 O57 1.905 . S
Zn43 O51 1.905 . S
Zn43 O52 1.898 . S
Zn43 O60 1.920 . S
Zn44 O47 2.080 . S
Zn44 O50 2.114 . S
Zn44 O53 2.120 . S
Zn44 O55 2.120 . S
Zn44 O56 2.114 . S
Zn44 O59 2.080 . S
C45 O50 1.166 . S
C45 O51 1.182 . S
C46 O52 1.167 . S
C46 O53 1.299 . S
O47 Zn44 2.080 . S
O47 C61 1.305 . S
O48 Zn42 1.920 . S
O48 C61 1.234 . S
C49 O54 1.167 . S
C49 O55 1.299 . S
O50 Zn44 2.114 . S
O50 C45 1.166 . S
O51 Zn43 1.905 . S
O51 C45 1.182 . S
O52 Zn43 1.898 . S
O52 C46 1.167 . S
O53 Zn44 2.120 . S
O53 C46 1.299 . S
O54 Zn42 1.898 . S
O54 C49 1.167 . S
O55 Zn44 2.120 . S
O55 C49 1.299 . S
O56 Zn44 2.114 . S
O56 C58 1.166 . S
O57 Zn42 1.905 . S
O57 C58 1.182 . S
C58 O56 1.166 . S
C58 O57 1.182 . S
O59 Zn44 2.080 . S
O59 C62 1.305 . S
O60 Zn43 1.920 . S
O60 C62 1.234 . S
C61 O47 1.305 . S
C61 O48 1.234 . S
C62 O59 1.305 . S
C62 O60 1.234 . S
Zn63 O69 1.920 . S
Zn63 O75 1.898 . S
Zn63 O78 1.905 1_556 S
Zn64 O72 1.905 . S
Zn64 O73 1.898 . S
Zn64 O81 1.920 1_545 S
Zn65 O68 2.080 . S
Zn65 O71 2.114 . S
Zn65 O74 2.120 . S
Zn65 O76 2.120 . S
Zn65 O77 2.114 . S
Zn65 O80 2.080 . S
C66 O71 1.166 . S
C66 O72 1.182 . S
C67 O73 1.167 . S
C67 O74 1.299 . S
O68 Zn65 2.080 . S
O68 C82 1.305 . S
O69 Zn63 1.920 . S
O69 C82 1.234 . S
C70 O75 1.167 . S
C70 O76 1.299 . S
O71 Zn65 2.114 . S
O71 C66 1.166 . S
O72 Zn64 1.905 . S
O72 C66 1.182 . S
O73 Zn64 1.898 . S
O73 C67 1.167 . S
O74 Zn65 2.120 . S
O74 C67 1.299 . S
O75 Zn63 1.898 . S
O75 C70 1.167 . S
O76 Zn65 2.120 . S
O76 C70 1.299 . S
O77 Zn65 2.114 . S
O77 C79 1.166 . S
O78 Zn63 1.905 1_554 S
O78 C79 1.182 1_554 S
C79 O77 1.166 . S
C79 O78 1.182 1_556 S
O80 Zn65 2.080 . S
O80 C83 1.305 1_545 S
O81 Zn64 1.920 1_565 S
O81 C83 1.234 . S
C82 O68 1.305 . S
C82 O69 1.234 . S
C83 O80 1.305 1_565 S
C83 O81 1.234 . S
H84 C90 0.930 . S
H85 C93 0.930 . S
H86 C94 0.930 . S
H87 C95 0.930 . S
H88 C98 0.930 . S
H89 C99 0.930 . S
C90 H84 0.930 . S
C90 C91 1.355 . S
C90 C92 1.415 . S
C91 C90 1.355 . S
C91 C93 1.419 . S
C92 C90 1.415 . S
C92 C97 1.425 . S
C92 C99 1.409 . S
C93 H85 0.930 . S
C93 C91 1.419 . S
C93 C94 1.362 . S
C94 H86 0.930 . S
C94 C93 1.362 . S
C94 C97 1.409 . S
C95 H87 0.930 . S
C95 C96 1.355 . S
C95 C97 1.415 1_455 S
C96 C95 1.355 . S
C96 C98 1.419 . S
C97 C92 1.425 . S
C97 C94 1.409 . S
C97 C95 1.415 1_655 S
C98 H88 0.930 . S
C98 C96 1.419 . S
C98 C99 1.362 1_455 S
C99 H89 0.930 . S
C99 C92 1.409 . S
C99 C98 1.362 1_655 S
H100 C106 0.930 . S
H101 C109 0.930 . S
H102 C110 0.930 1_655 S
H103 C111 0.930 . S
H104 C114 0.930 . S
H105 C115 0.930 . S
C106 H100 0.930 . S
C106 C107 1.355 . S
C106 C108 1.415 . S
C107 C106 1.355 . S
C107 C109 1.419 . S
C108 C106 1.415 . S
C108 C113 1.425 . S
C108 C115 1.409 . S
C109 H101 0.930 . S
C109 C107 1.419 . S
C109 C110 1.362 . S
C110 H102 0.930 1_455 S
C110 C109 1.362 . S
C110 C113 1.409 . S
C111 H103 0.930 . S
C111 C112 1.355 . S
C111 C113 1.415 1_655 S
C112 C111 1.355 . S
C112 C114 1.419 1_655 S
C113 C108 1.425 . S
C113 C110 1.409 . S
C113 C111 1.415 1_455 S
C114 H104 0.930 . S
C114 C112 1.419 1_455 S
C114 C115 1.362 . S
C115 H105 0.930 . S
C115 C108 1.409 . S
C115 C114 1.362 . S
H116 C122 0.930 . S
H117 C125 0.930 . S
H118 C126 0.930 . S
H119 C127 0.930 . S
H120 C130 0.930 . S
H121 C131 0.930 . S
C122 H116 0.930 . S
C122 C123 1.355 . S
C122 C124 1.415 . S
C123 C122 1.355 . S
C123 C125 1.419 . S
C124 C122 1.415 . S
C124 C129 1.425 . S
C124 C131 1.409 1_455 S
C125 H117 0.930 . S
C125 C123 1.419 . S
C125 C126 1.362 . S
C126 H118 0.930 . S
C126 C125 1.362 . S
C126 C129 1.409 . S
C127 H119 0.930 . S
C127 C128 1.355 1_455 S
C127 C129 1.415 . S
C128 C127 1.355 1_655 S
C128 C130 1.419 . S
C129 C124 1.425 . S
C129 C126 1.409 . S
C129 C127 1.415 . S
C130 H120 0.930 . S
C130 C128 1.419 . S
C130 C131 1.362 . S
C131 H121 0.930 . S
C131 C124 1.409 1_655 S
C131 C130 1.362 . S
H132 C138 0.930 . S
H133 C141 0.930 . S
H134 C142 0.930 . S
H135 C143 0.930 . S
H136 C146 0.930 . S
H137 C147 0.930 . S
C138 H132 0.930 . S
C138 C139 1.355 . S
C138 C140 1.415 . S
C139 C138 1.355 . S
C139 C141 1.419 . S
C140 C138 1.415 . S
C140 C145 1.425 1_655 S
C140 C147 1.409 . S
C141 H133 0.930 . S
C141 C139 1.419 . S
C141 C142 1.362 1_655 S
C142 H134 0.930 . S
C142 C141 1.362 1_455 S
C142 C145 1.409 . S
C143 H135 0.930 . S
C143 C144 1.355 . S
C143 C145 1.415 . S
C144 C143 1.355 . S
C144 C146 1.419 1_455 S
C145 C140 1.425 1_455 S
C145 C142 1.409 . S
C145 C143 1.415 . S
C146 H136 0.930 . S
C146 C144 1.419 1_655 S
C146 C147 1.362 . S
C147 H137 0.930 . S
C147 C140 1.409 . S
C147 C146 1.362 . S
H148 C154 0.930 . S
H149 C157 0.930 . S
H150 C158 0.930 . S
H151 C159 0.930 . S
H152 C162 0.930 . S
H153 C163 0.930 . S
C154 H148 0.930 . S
C154 C155 1.355 . S
C154 C156 1.415 . S
C155 C154 1.355 . S
C155 C157 1.419 . S
C156 C154 1.415 . S
C156 C161 1.425 1_655 S
C156 C163 1.409 . S
C157 H149 0.930 . S
C157 C155 1.419 . S
C157 C158 1.362 1_655 S
C158 H150 0.930 . S
C158 C157 1.362 1_455 S
C158 C161 1.409 . S
C159 H151 0.930 . S
C159 C160 1.355 . S
C159 C161 1.415 . S
C160 C159 1.355 . S
C160 C162 1.419 . S
C161 C156 1.425 1_455 S
C161 C158 1.409 . S
C161 C159 1.415 . S
C162 H152 0.930 . S
C162 C160 1.419 . S
C162 C163 1.362 1_455 S
C163 H153 0.930 . S
C163 C156 1.409 . S
C163 C162 1.362 1_655 S
H164 C170 0.930 1_545 S
H165 C173 0.930 . S
H166 C174 0.930 . S
H167 C175 0.930 1_565 S
H168 C178 0.930 . S
H169 C179 0.930 . S
C170 H164 0.930 1_565 S
C170 C171 1.355 . S
C170 C172 1.415 1_665 S
C171 C170 1.355 . S
C171 C173 1.419 1_554 S
C172 C170 1.415 1_445 S
C172 C177 1.425 1_444 S
C172 C179 1.409 . S
C173 H165 0.930 . S
C173 C171 1.419 1_556 S
C173 C174 1.362 . S
C174 H166 0.930 . S
C174 C173 1.362 . S
C174 C177 1.409 . S
C175 H167 0.930 1_545 S
C175 C176 1.355 . S
C175 C177 1.415 1_445 S
C176 C175 1.355 . S
C176 C178 1.419 1_556 S
C177 C172 1.425 1_666 S
C177 C174 1.409 . S
C177 C175 1.415 1_665 S
C178 H168 0.930 . S
C178 C176 1.419 1_554 S
C178 C179 1.362 . S
C179 H169 0.930 . S
C179 C172 1.409 . S
C179 C178 1.362 . S
H180 C186 0.930 . S
H181 C189 0.930 . S
H182 C190 0.930 . S
H183 C191 0.930 . S
H184 C194 0.930 . S
H185 C195 0.930 . S
C186 H180 0.930 . S
C186 C187 1.355 . S
C186 C188 1.415 . S
C187 C186 1.355 . S
C187 C189 1.419 . S
C188 C186 1.415 . S
C188 C193 1.425 . S
C188 C195 1.409 . S
C189 H181 0.930 . S
C189 C187 1.419 . S
C189 C190 1.362 . S
C190 H182 0.930 . S
C190 C189 1.362 . S
C190 C193 1.409 . S
C191 H183 0.930 . S
C191 C192 1.355 . S
C191 C193 1.415 . S
C192 C191 1.355 . S
C192 C194 1.419 . S
C193 C188 1.425 . S
C193 C190 1.409 . S
C193 C191 1.415 . S
C194 H184 0.930 . S
C194 C192 1.419 . S
C194 C195 1.362 . S
C195 H185 0.930 . S
C195 C188 1.409 . S
C195 C194 1.362 . S
H196 C202 0.930 . S
H197 C205 0.930 . S
H198 C206 0.930 . S
H199 C207 0.930 . S
H200 C210 0.930 . S
H201 C211 0.930 . S
C202 H196 0.930 . S
C202 C203 1.355 . S
C202 C204 1.415 . S
C203 C202 1.355 . S
C203 C205 1.419 . S
C204 C202 1.415 . S
C204 C209 1.425 . S
C204 C211 1.409 . S
C205 H197 0.930 . S
C205 C203 1.419 . S
C205 C206 1.362 . S
C206 H198 0.930 . S
C206 C205 1.362 . S
C206 C209 1.409 . S
C207 H199 0.930 . S
C207 C208 1.355 . S
C207 C209 1.415 . S
C208 C207 1.355 . S
C208 C210 1.419 . S
C209 C204 1.425 . S
C209 C206 1.409 . S
C209 C207 1.415 . S
C210 H200 0.930 . S
C210 C208 1.419 . S
C210 C211 1.362 . S
C211 H201 0.930 . S
C211 C204 1.409 . S
C211 C210 1.362 . S
H212 C218 0.930 . S
H213 C221 0.930 . S
H214 C222 0.930 . S
H215 C223 0.930 . S
H216 C226 0.930 . S
H217 C227 0.930 . S
C218 H212 0.930 . S
C218 C219 1.355 . S
C218 C220 1.415 . S
C219 C218 1.355 . S
C219 C221 1.419 . S
C220 C218 1.415 . S
C220 C225 1.425 . S
C220 C227 1.409 . S
C221 H213 0.930 . S
C221 C219 1.419 . S
C221 C222 1.362 . S
C222 H214 0.930 . S
C222 C221 1.362 . S
C222 C225 1.409 . S
C223 H215 0.930 . S
C223 C224 1.355 . S
C223 C225 1.415 . S
C224 C223 1.355 . S
C224 C226 1.419 . S
C225 C220 1.425 . S
C225 C222 1.409 . S
C225 C223 1.415 . S
C226 H216 0.930 . S
C226 C224 1.419 . S
C226 C227 1.362 . S
C227 H217 0.930 . S
C227 C220 1.409 . S
C227 C226 1.362 . S
H228 C234 0.930 . S
H229 C237 0.930 . S
H230 C238 0.930 . S
H231 C239 0.930 . S
H232 C242 0.930 . S
H233 C243 0.930 . S
C234 H228 0.930 . S
C234 C235 1.355 . S
C234 C236 1.415 . S
C235 C234 1.355 . S
C235 C237 1.419 . S
C236 C234 1.415 . S
C236 C241 1.425 . S
C236 C243 1.409 . S
C237 H229 0.930 . S
C237 C235 1.419 . S
C237 C238 1.362 . S
C238 H230 0.930 . S
C238 C237 1.362 . S
C238 C241 1.409 . S
C239 H231 0.930 . S
C239 C240 1.355 . S
C239 C241 1.415 . S
C240 C239 1.355 . S
C240 C242 1.419 . S
C241 C236 1.425 . S
C241 C238 1.409 . S
C241 C239 1.415 . S
C242 H232 0.930 . S
C242 C240 1.419 . S
C242 C243 1.362 . S
C243 H233 0.930 . S
C243 C236 1.409 . S
C243 C242 1.362 . S
H244 C250 0.930 . S
H245 C253 0.930 . S
H246 C254 0.930 . S
H247 C255 0.930 . S
H248 C258 0.930 . S
H249 C259 0.930 . S
C250 H244 0.930 . S
C250 C251 1.355 . S
C250 C252 1.415 . S
C251 C250 1.355 . S
C251 C253 1.419 . S
C252 C250 1.415 . S
C252 C257 1.425 . S
C252 C259 1.409 . S
C253 H245 0.930 . S
C253 C251 1.419 . S
C253 C254 1.362 . S
C254 H246 0.930 . S
C254 C253 1.362 . S
C254 C257 1.409 . S
C255 H247 0.930 . S
C255 C256 1.355 . S
C255 C257 1.415 . S
C256 C255 1.355 . S
C256 C258 1.419 . S
C257 C252 1.425 . S
C257 C254 1.409 . S
C257 C255 1.415 . S
C258 H248 0.930 . S
C258 C256 1.419 . S
C258 C259 1.362 . S
C259 H249 0.930 . S
C259 C252 1.409 . S
C259 C258 1.362 . S
H260 C266 0.930 . S
H261 C269 0.930 . S
H262 C270 0.930 . S
H263 C271 0.930 . S
H264 C274 0.930 . S
H265 C275 0.930 . S
C266 H260 0.930 . S
C266 C267 1.355 . S
C266 C268 1.415 1_556 S
C267 C266 1.355 . S
C267 C269 1.419 1_545 S
C268 C266 1.415 1_554 S
C268 C273 1.425 1_544 S
C268 C275 1.409 . S
C269 H261 0.930 . S
C269 C267 1.419 1_565 S
C269 C270 1.362 . S
C270 H262 0.930 . S
C270 C269 1.362 . S
C270 C273 1.409 . S
C271 H263 0.930 . S
C271 C272 1.355 . S
C271 C273 1.415 1_554 S
C272 C271 1.355 . S
C272 C274 1.419 1_565 S
C273 C268 1.425 1_566 S
C273 C270 1.409 . S
C273 C271 1.415 1_556 S
C274 H264 0.930 . S
C274 C272 1.419 1_545 S
C274 C275 1.362 . S
C275 H265 0.930 . S
C275 C268 1.409 . S
C275 C274 1.362 . S
C91 C41 1.682 . S
C96 C4 1.524 . S
C107 C19 1.690 . S
C112 C28 1.581 . S
C123 C83 1.649 . S
C128 C46 1.594 . S
C139 C61 1.703 . S
C144 C70 1.546 . S
C155 C62 0.716 . S
C160 C20 0.716 . S
C171 C40 0.663 . S
C176 C82 0.663 . S
C187 C79 1.218 1_554 S
C192 C16 1.474 . S
C203 C24 1.381 . S
C208 C45 1.210 . S
C219 C37 1.268 1_556 S
C224 C58 1.404 . S
C235 C66 1.383 . S
C240 C3 1.162 . S
C251 C7 1.244 . S
C256 C49 1.244 . S
C267 C67 1.224 . S
C272 C25 1.224 . S
