# Generated by pormake.
# Topology umh, (4)-cn, num edge types: 1
# Building blocks:
#     Node 0, Type 0, BuildingBlock: KOZSID_clean_sbu_0, # of connection points: 4
#     Node 1, Type 0, BuildingBlock: KOZSID_clean_sbu_0, # of connection points: 4
#     Node 2, Type 0, BuildingBlock: KOZSID_clean_sbu_0, # of connection points: 4
#     Node 3, Type 0, BuildingBlock: KOZSID_clean_sbu_0, # of connection points: 4
#     Node 4, Type 0, BuildingBlock: KOZSID_clean_sbu_0, # of connection points: 4
#     Node 5, Type 0, BuildingBlock: KOZSID_clean_sbu_0, # of connection points: 4
#     Node 6, Type 0, BuildingBlock: KOZSID_clean_sbu_0, # of connection points: 4
#     Node 7, Type 0, BuildingBlock: KOZSID_clean_sbu_0, # of connection points: 4
#     Node 8, Type 0, BuildingBlock: KOZSID_clean_sbu_0, # of connection points: 4
#     Node 9, Type 0, BuildingBlock: KOZSID_clean_sbu_0, # of connection points: 4
#     Node 10, Type 0, BuildingBlock: KOZSID_clean_sbu_0, # of connection points: 4
#     Node 11, Type 0, BuildingBlock: KOZSID_clean_sbu_0, # of connection points: 4
#     Node 12, Type 0, BuildingBlock: KOZSID_clean_sbu_0, # of connection points: 4
#     Node 13, Type 0, BuildingBlock: KOZSID_clean_sbu_0, # of connection points: 4
#     Node 14, Type 0, BuildingBlock: KOZSID_clean_sbu_0, # of connection points: 4
#     Node 15, Type 0, BuildingBlock: KOZSID_clean_sbu_0, # of connection points: 4
#     Edge 16, Type (0, 0), BuildingBlock: XIVTED_clean_linker_0, # of connection points: 2
#     Edge 17, Type (0, 0), BuildingBlock: XIVTED_clean_linker_0, # of connection points: 2
#     Edge 18, Type (0, 0), BuildingBlock: XIVTED_clean_linker_0, # of connection points: 2
#     Edge 19, Type (0, 0), BuildingBlock: XIVTED_clean_linker_0, # of connection points: 2
#     Edge 20, Type (0, 0), BuildingBlock: XIVTED_clean_linker_0, # of connection points: 2
#     Edge 21, Type (0, 0), BuildingBlock: XIVTED_clean_linker_0, # of connection points: 2
#     Edge 22, Type (0, 0), BuildingBlock: XIVTED_clean_linker_0, # of connection points: 2
#     Edge 23, Type (0, 0), BuildingBlock: XIVTED_clean_linker_0, # of connection points: 2
#     Edge 24, Type (0, 0), BuildingBlock: XIVTED_clean_linker_0, # of connection points: 2
#     Edge 25, Type (0, 0), BuildingBlock: XIVTED_clean_linker_0, # of connection points: 2
#     Edge 26, Type (0, 0), BuildingBlock: XIVTED_clean_linker_0, # of connection points: 2
#     Edge 27, Type (0, 0), BuildingBlock: XIVTED_clean_linker_0, # of connection points: 2
#     Edge 28, Type (0, 0), BuildingBlock: XIVTED_clean_linker_0, # of connection points: 2
#     Edge 29, Type (0, 0), BuildingBlock: XIVTED_clean_linker_0, # of connection points: 2
#     Edge 30, Type (0, 0), BuildingBlock: XIVTED_clean_linker_0, # of connection points: 2
#     Edge 31, Type (0, 0), BuildingBlock: XIVTED_clean_linker_0, # of connection points: 2
#     Edge 32, Type (0, 0), BuildingBlock: XIVTED_clean_linker_0, # of connection points: 2
#     Edge 33, Type (0, 0), BuildingBlock: XIVTED_clean_linker_0, # of connection points: 2
#     Edge 34, Type (0, 0), BuildingBlock: XIVTED_clean_linker_0, # of connection points: 2
#     Edge 35, Type (0, 0), BuildingBlock: XIVTED_clean_linker_0, # of connection points: 2
#     Edge 36, Type (0, 0), BuildingBlock: XIVTED_clean_linker_0, # of connection points: 2
#     Edge 37, Type (0, 0), BuildingBlock: XIVTED_clean_linker_0, # of connection points: 2
#     Edge 38, Type (0, 0), BuildingBlock: XIVTED_clean_linker_0, # of connection points: 2
#     Edge 39, Type (0, 0), BuildingBlock: XIVTED_clean_linker_0, # of connection points: 2
#     Edge 40, Type (0, 0), BuildingBlock: XIVTED_clean_linker_0, # of connection points: 2
#     Edge 41, Type (0, 0), BuildingBlock: XIVTED_clean_linker_0, # of connection points: 2
#     Edge 42, Type (0, 0), BuildingBlock: XIVTED_clean_linker_0, # of connection points: 2
#     Edge 43, Type (0, 0), BuildingBlock: XIVTED_clean_linker_0, # of connection points: 2
#     Edge 44, Type (0, 0), BuildingBlock: XIVTED_clean_linker_0, # of connection points: 2
#     Edge 45, Type (0, 0), BuildingBlock: XIVTED_clean_linker_0, # of connection points: 2
#     Edge 46, Type (0, 0), BuildingBlock: XIVTED_clean_linker_0, # of connection points: 2
#     Edge 47, Type (0, 0), BuildingBlock: XIVTED_clean_linker_0, # of connection points: 2
# Relax obj value: 0.072
# Max RMSD: 0.155
# Mean RMSD: 0.155
data_MOF--net-umh--node1-KOZSID_clean_sbu_0--edge1-XIVTED_clean_linker_0
_symmetry_space_group_name_H-M    P1
_symmetry_Int_Tables_number       1
_symmetry_cell_setting            triclinic
loop_
_symmetry_equiv_pos_as_xyz
'x, y, z'
_cell_length_a     54.52806
_cell_length_b     54.519326
_cell_length_c     59.706906
_cell_angle_alpha  89.957225
_cell_angle_beta   89.977598
_cell_angle_gamma 90.009968
loop_
_atom_site_label
_atom_site_type_symbol
_atom_site_fract_x
_atom_site_fract_y
_atom_site_fract_z
_atom_type_partial_charge
C0 C 0.30514 0.08438 0.16542 0.0
C1 C 0.28469 0.06915 0.16596 0.0
C2 C 0.2838 0.05738 0.1457 0.0
C3 C 0.30346 0.06621 0.13382 0.0
N4 N 0.31659 0.08283 0.14536 0.0
Co5 Co 0.34545 0.1011 0.13415 0.0
N6 N 0.33641 0.09447 0.10263 0.0
C7 C 0.3214 0.07648 0.09551 0.0
C8 C 0.31895 0.07594 0.07266 0.0
C9 C 0.33349 0.09462 0.06493 0.0
C10 C 0.34403 0.10559 0.08362 0.0
N11 N 0.37438 0.1193 0.12292 0.0
C12 C 0.37902 0.12823 0.10214 0.0
C13 C 0.40182 0.13953 0.10147 0.0
C14 C 0.41178 0.13723 0.12252 0.0
C15 C 0.39456 0.12473 0.13489 0.0
N16 N 0.35423 0.10747 0.16578 0.0
C17 C 0.37654 0.11389 0.17338 0.0
C18 C 0.37677 0.11748 0.19618 0.0
C19 C 0.35315 0.11297 0.20322 0.0
C20 C 0.33978 0.10695 0.18425 0.0
N21 N 0.3653 0.07074 0.13466 0.0
C22 C 0.39738 0.02997 0.13633 0.0
C23 C 0.38139 0.03527 0.15418 0.0
C24 C 0.36544 0.05556 0.15296 0.0
C25 C 0.39645 0.04539 0.11752 0.0
C26 C 0.38045 0.06547 0.11702 0.0
N27 N 0.3263 0.13169 0.13364 0.0
C28 C 0.32326 0.17458 0.14321 0.0
C29 C 0.30026 0.17629 0.13296 0.0
C30 C 0.29054 0.15512 0.12292 0.0
C31 C 0.30373 0.13294 0.12367 0.0
C32 C 0.336 0.15236 0.14316 0.0
H33 H 0.29572 0.11681 0.11616 0.0
H34 H 0.35386 0.152 0.15082 0.0
H35 H 0.3535 0.0592 0.16699 0.0
H36 H 0.38083 0.07707 0.10242 0.0
C37 C 0.30702 0.06334 0.11077 0.0
C38 C 0.31391 0.09926 0.18435 0.0
C39 C 0.36302 0.12465 0.08255 0.0
C40 C 0.39492 0.12113 0.15823 0.0
H41 H 0.27154 0.06689 0.17935 0.0
H42 H 0.26967 0.04498 0.13989 0.0
H43 H 0.3074 0.06393 0.06281 0.0
H44 H 0.3363 0.09932 0.04751 0.0
H45 H 0.41042 0.14833 0.08724 0.0
H46 H 0.42914 0.1445 0.12826 0.0
H47 H 0.39194 0.12378 0.20634 0.0
H48 H 0.34652 0.11403 0.22027 0.0
H49 H 0.38109 0.0238 0.16898 0.0
H50 H 0.40853 0.04245 0.10338 0.0
H51 H 0.33162 0.19049 0.15094 0.0
H52 H 0.27274 0.1556 0.11489 0.0
C53 C 0.43029 0.30944 0.67126 0.0
C54 C 0.44723 0.29078 0.67458 0.0
C55 C 0.46067 0.28903 0.65518 0.0
C56 C 0.45132 0.30676 0.64123 0.0
N57 N 0.43293 0.31947 0.65072 0.0
Co58 Co 0.41492 0.34703 0.63702 0.0
N59 N 0.42398 0.33613 0.60654 0.0
C60 C 0.44291 0.32132 0.60135 0.0
C61 C 0.44513 0.31741 0.57874 0.0
C62 C 0.42659 0.33079 0.56916 0.0
C63 C 0.41403 0.34217 0.58655 0.0
N64 N 0.39703 0.37474 0.62323 0.0
C65 C 0.38949 0.37782 0.60178 0.0
C66 C 0.37777 0.40024 0.59923 0.0
C67 C 0.37837 0.41158 0.61979 0.0
C68 C 0.39033 0.3955 0.63375 0.0
N69 N 0.40613 0.35755 0.66774 0.0
C70 C 0.3983 0.38 0.67372 0.0
C71 C 0.39157 0.38101 0.69589 0.0
C72 C 0.39548 0.3578 0.70422 0.0
C73 C 0.4047 0.34386 0.6867 0.0
N74 N 0.44478 0.36755 0.63817 0.0
C75 C 0.48545 0.39972 0.63999 0.0
C76 C 0.47899 0.38504 0.65847 0.0
C77 C 0.45875 0.36905 0.65718 0.0
C78 C 0.47112 0.39757 0.62058 0.0
C79 C 0.45108 0.38155 0.62001 0.0
N80 N 0.38483 0.32716 0.63581 0.0
C81 C 0.34143 0.32383 0.64299 0.0
C82 C 0.34092 0.30008 0.63416 0.0
C83 C 0.36295 0.29014 0.62602 0.0
C84 C 0.38478 0.30388 0.62724 0.0
C85 C 0.36334 0.33705 0.64343 0.0
H86 H 0.40158 0.29574 0.62122 0.0
H87 H 0.36277 0.35543 0.64995 0.0
H88 H 0.45422 0.35808 0.67167 0.0
H89 H 0.4404 0.38088 0.60485 0.0
C90 C 0.45572 0.30876 0.61818 0.0
C91 C 0.41276 0.31803 0.68818 0.0
C92 C 0.39473 0.36064 0.58336 0.0
C93 C 0.39197 0.39726 0.6572 0.0
H94 H 0.44957 0.27958 0.6894 0.0
H95 H 0.47474 0.27566 0.65138 0.0
H96 H 0.45824 0.30576 0.57025 0.0
H97 H 0.42309 0.33239 0.55137 0.0
H98 H 0.36976 0.40769 0.5841 0.0
H99 H 0.37025 0.42905 0.62417 0.0
H100 H 0.38317 0.39626 0.70458 0.0
H101 H 0.39135 0.35192 0.72109 0.0
H102 H 0.48957 0.38574 0.6738 0.0
H103 H 0.47493 0.40867 0.60594 0.0
H104 H 0.32483 0.33236 0.64922 0.0
H105 H 0.36338 0.27178 0.61913 0.0
C106 C 0.21089 0.43266 0.16686 0.0
C107 C 0.23125 0.44797 0.16779 0.0
C108 C 0.23222 0.46025 0.14776 0.0
C109 C 0.21269 0.45162 0.13562 0.0
N110 N 0.19957 0.43465 0.14678 0.0
Co111 Co 0.17085 0.41655 0.13513 0.0
N112 N 0.1801 0.42393 0.10379 0.0
C113 C 0.19505 0.44216 0.09706 0.0
C114 C 0.19766 0.44319 0.07423 0.0
C115 C 0.18331 0.42458 0.06612 0.0
C116 C 0.17271 0.41315 0.08457 0.0
N117 N 0.14207 0.39852 0.12344 0.0
C118 C 0.13767 0.38998 0.10251 0.0
C119 C 0.11492 0.37861 0.10149 0.0
C120 C 0.10475 0.38047 0.1225 0.0
C121 C 0.1218 0.39278 0.13519 0.0
N122 N 0.16186 0.40943 0.16658 0.0
C123 C 0.13953 0.40278 0.17395 0.0
C124 C 0.13917 0.39866 0.19668 0.0
C125 C 0.16273 0.40305 0.2039 0.0
C126 C 0.17621 0.40954 0.18511 0.0
N127 N 0.15091 0.44682 0.13607 0.0
C128 C 0.11867 0.48741 0.13835 0.0
C129 C 0.1346 0.48177 0.15615 0.0
C130 C 0.15063 0.46158 0.15462 0.0
C131 C 0.11976 0.47245 0.11926 0.0
C132 C 0.13584 0.45245 0.11846 0.0
N133 N 0.1901 0.38603 0.13418 0.0
C134 C 0.19315 0.34291 0.1429 0.0
C135 C 0.21624 0.3415 0.13276 0.0
C136 C 0.226 0.36296 0.12322 0.0
C137 C 0.21276 0.38509 0.12433 0.0
C138 C 0.18037 0.36511 0.14323 0.0
H139 H 0.22078 0.40141 0.11718 0.0
H140 H 0.16245 0.36524 0.15079 0.0
H141 H 0.16251 0.45766 0.16863 0.0
H142 H 0.13559 0.44118 0.10365 0.0
C143 C 0.20926 0.45503 0.11261 0.0
C144 C 0.20205 0.41726 0.18543 0.0
C145 C 0.1539 0.39395 0.08312 0.0
C146 C 0.12126 0.39586 0.15858 0.0
H147 H 0.24429 0.44998 0.1813 0.0
H148 H 0.24633 0.47286 0.14226 0.0
H149 H 0.20921 0.45547 0.06464 0.0
H150 H 0.18067 0.4202 0.04861 0.0
H151 H 0.1065 0.37005 0.08707 0.0
H152 H 0.08737 0.37301 0.12801 0.0
H153 H 0.12395 0.39208 0.20666 0.0
H154 H 0.16927 0.4016 0.22096 0.0
H155 H 0.13478 0.49289 0.17116 0.0
H156 H 0.10774 0.47567 0.10514 0.0
H157 H 0.18475 0.32679 0.15024 0.0
H158 H 0.24386 0.36273 0.11529 0.0
C159 C 0.08483 0.21084 0.66661 0.0
C160 C 0.06968 0.23133 0.66737 0.0
C161 C 0.0576 0.23232 0.64726 0.0
C162 C 0.06618 0.21268 0.63524 0.0
N163 N 0.08294 0.19946 0.64656 0.0
Co164 Co 0.10092 0.17056 0.63511 0.0
N165 N 0.0939 0.17976 0.60368 0.0
C166 C 0.07586 0.19484 0.5968 0.0
C167 C 0.07495 0.19733 0.57396 0.0
C168 C 0.09345 0.18273 0.56599 0.0
C169 C 0.10469 0.17213 0.58453 0.0
N170 N 0.11883 0.14159 0.62362 0.0
C171 C 0.12744 0.13698 0.60274 0.0
C172 C 0.13868 0.11415 0.60192 0.0
C173 C 0.13663 0.10414 0.62298 0.0
C174 C 0.12436 0.12135 0.63551 0.0
N175 N 0.10769 0.16164 0.66664 0.0
C176 C 0.11411 0.13929 0.67414 0.0
C177 C 0.11803 0.13898 0.6969 0.0
C178 C 0.11373 0.16261 0.70401 0.0
C179 C 0.1075 0.17606 0.68513 0.0
N180 N 0.07051 0.15084 0.63593 0.0
C181 C 0.02983 0.11875 0.63813 0.0
C182 C 0.03545 0.13466 0.65594 0.0
C183 C 0.05567 0.15064 0.65445 0.0
C184 C 0.04484 0.1198 0.61907 0.0
C185 C 0.06491 0.13579 0.61831 0.0
N186 N 0.13158 0.18958 0.63431 0.0
C187 C 0.17452 0.19245 0.64364 0.0
C188 C 0.17618 0.21554 0.63354 0.0
C189 C 0.15499 0.22538 0.62364 0.0
C190 C 0.13279 0.21222 0.62444 0.0
C191 C 0.15229 0.17974 0.64362 0.0
H192 H 0.11663 0.22032 0.61708 0.0
H193 H 0.15195 0.16182 0.65118 0.0
H194 H 0.05957 0.16252 0.66845 0.0
H195 H 0.07625 0.13547 0.60354 0.0
C196 C 0.06297 0.2092 0.61223 0.0
C197 C 0.09996 0.20196 0.68532 0.0
C198 C 0.12361 0.15303 0.5832 0.0
C199 C 0.12106 0.12093 0.65888 0.0
H200 H 0.06765 0.24444 0.68081 0.0
H201 H 0.04516 0.24651 0.64162 0.0
H202 H 0.06281 0.20891 0.56427 0.0
H203 H 0.09782 0.17992 0.5485 0.0
H204 H 0.14727 0.10557 0.58759 0.0
H205 H 0.14393 0.08674 0.62862 0.0
H206 H 0.12441 0.12376 0.70697 0.0
H207 H 0.11507 0.1692 0.72106 0.0
H208 H 0.02427 0.13485 0.67094 0.0
H209 H 0.04161 0.10778 0.60494 0.0
H210 H 0.19046 0.18402 0.65126 0.0
H211 H 0.15546 0.24325 0.61573 0.0
C212 C 0.30686 0.4304 0.33512 0.0
C213 C 0.28657 0.44571 0.3334 0.0
C214 C 0.28472 0.45798 0.35336 0.0
C215 C 0.30376 0.44941 0.36619 0.0
N216 N 0.31739 0.43248 0.35553 0.0
Co217 Co 0.34596 0.41484 0.36809 0.0
N218 N 0.33557 0.42224 0.39912 0.0
C219 C 0.32 0.44016 0.40532 0.0
C220 C 0.31664 0.44133 0.42806 0.0
C221 C 0.33117 0.42315 0.43671 0.0
C222 C 0.34263 0.41183 0.41865 0.0
N223 N 0.37475 0.3975 0.38069 0.0
C224 C 0.37879 0.38936 0.40183 0.0
C225 C 0.40171 0.37844 0.40347 0.0
C226 C 0.41239 0.38021 0.38268 0.0
C227 C 0.39545 0.39201 0.36948 0.0
N228 N 0.35597 0.40748 0.33694 0.0
C229 C 0.37857 0.40095 0.33019 0.0
C230 C 0.37969 0.39667 0.30751 0.0
C231 C 0.35634 0.40083 0.29964 0.0
C232 C 0.34223 0.40738 0.31801 0.0
N233 N 0.36546 0.44543 0.36737 0.0
C234 C 0.39724 0.48643 0.36552 0.0
C235 C 0.38204 0.48031 0.34733 0.0
C236 C 0.36624 0.45992 0.34864 0.0
C237 C 0.39563 0.47172 0.38477 0.0
C238 C 0.37978 0.45153 0.38536 0.0
N239 N 0.32715 0.38403 0.36879 0.0
C240 C 0.32586 0.34034 0.36246 0.0
C241 C 0.30144 0.33901 0.3698 0.0
C242 C 0.29025 0.36105 0.3767 0.0
C243 C 0.30342 0.38325 0.37619 0.0
C244 C 0.33816 0.36282 0.36187 0.0
H245 H 0.29442 0.3998 0.38174 0.0
H246 H 0.35678 0.36291 0.35589 0.0
H247 H 0.35494 0.45564 0.33431 0.0
H248 H 0.37963 0.44049 0.40032 0.0
C249 C 0.30624 0.45284 0.38929 0.0
C250 C 0.31639 0.415 0.31691 0.0
C251 C 0.36204 0.3933 0.42085 0.0
C252 C 0.39653 0.39464 0.34606 0.0
H253 H 0.2742 0.44771 0.31937 0.0
H254 H 0.27039 0.4706 0.35832 0.0
H255 H 0.30458 0.45348 0.43723 0.0
H256 H 0.33342 0.41906 0.45432 0.0
H257 H 0.40992 0.37021 0.41816 0.0
H258 H 0.43003 0.37298 0.37763 0.0
H259 H 0.39529 0.39022 0.29798 0.0
H260 H 0.35037 0.39925 0.28242 0.0
H261 H 0.38226 0.49122 0.33217 0.0
H262 H 0.4071 0.47528 0.39921 0.0
H263 H 0.3358 0.32408 0.35743 0.0
H264 H 0.27136 0.36133 0.38227 0.0
C265 C 0.08499 0.30696 0.83441 0.0
C266 C 0.06956 0.2868 0.8323 0.0
C267 C 0.05684 0.28489 0.85203 0.0
C268 C 0.06528 0.30376 0.86512 0.0
N269 N 0.08255 0.31735 0.85484 0.0
Co270 Co 0.10011 0.34571 0.86785 0.0
N271 N 0.09203 0.33508 0.89868 0.0
C272 C 0.07387 0.3196 0.9045 0.0
C273 C 0.07224 0.31605 0.92719 0.0
C274 C 0.09038 0.33036 0.93621 0.0
C275 C 0.10213 0.34188 0.91841 0.0
N276 N 0.11737 0.37428 0.88092 0.0
C277 C 0.12515 0.37805 0.90219 0.0
C278 C 0.13619 0.4009 0.90417 0.0
C279 C 0.13488 0.41179 0.88343 0.0
C280 C 0.12321 0.39505 0.86993 0.0
N281 N 0.10815 0.35593 0.83689 0.0
C282 C 0.11494 0.37855 0.8304 0.0
C283 C 0.1197 0.37982 0.8078 0.0
C284 C 0.11557 0.35654 0.79971 0.0
C285 C 0.10857 0.34233 0.81789 0.0
N286 N 0.06968 0.36537 0.86681 0.0
C287 C 0.0288 0.39721 0.86471 0.0
C288 C 0.03519 0.38222 0.84645 0.0
C289 C 0.05553 0.36638 0.84789 0.0
C290 C 0.04318 0.3954 0.88412 0.0
C291 C 0.06333 0.37952 0.88484 0.0
N292 N 0.13077 0.32673 0.86891 0.0
C293 C 0.17461 0.32531 0.86356 0.0
C294 C 0.17545 0.30094 0.87089 0.0
C295 C 0.15328 0.28962 0.87701 0.0
C296 C 0.13119 0.3029 0.87612 0.0
C297 C 0.15222 0.33771 0.8625 0.0
H298 H 0.11446 0.29395 0.8813 0.0
H299 H 0.15236 0.35632 0.85647 0.0
H300 H 0.06004 0.35522 0.83354 0.0
H301 H 0.07411 0.3792 0.89994 0.0
C302 C 0.06139 0.30608 0.88818 0.0
C303 C 0.10085 0.31652 0.81652 0.0
C304 C 0.12077 0.36112 0.921 0.0
C305 C 0.12105 0.39634 0.84648 0.0
H306 H 0.06776 0.27456 0.81815 0.0
H307 H 0.04402 0.27061 0.85669 0.0
H308 H 0.05982 0.30401 0.9361 0.0
H309 H 0.09415 0.33242 0.9539 0.0
H310 H 0.1442 0.4089 0.91904 0.0
H311 H 0.14233 0.42943 0.87863 0.0
H312 H 0.12644 0.39545 0.79847 0.0
H313 H 0.11748 0.35069 0.78249 0.0
H314 H 0.02454 0.38262 0.83116 0.0
H315 H 0.03939 0.40672 0.89861 0.0
H316 H 0.19115 0.33469 0.85831 0.0
H317 H 0.15307 0.27079 0.88282 0.0
C318 C 0.20947 0.0831 0.33416 0.0
C319 C 0.22944 0.06745 0.33193 0.0
C320 C 0.23134 0.05471 0.35166 0.0
C321 C 0.21267 0.06337 0.36488 0.0
N322 N 0.19921 0.08078 0.35467 0.0
Co323 Co 0.17118 0.0987 0.36789 0.0
N324 N 0.18195 0.09053 0.39864 0.0
C325 C 0.19725 0.0722 0.40437 0.0
C326 C 0.20101 0.07062 0.42704 0.0
C327 C 0.18704 0.08898 0.43613 0.0
C328 C 0.17548 0.10079 0.41839 0.0
N329 N 0.14294 0.11632 0.38115 0.0
C330 C 0.13946 0.12419 0.40244 0.0
C331 C 0.11675 0.13544 0.40461 0.0
C332 C 0.10565 0.1342 0.38397 0.0
C333 C 0.12214 0.12235 0.37034 0.0
N334 N 0.16082 0.10683 0.337 0.0
C335 C 0.13823 0.11388 0.33067 0.0
C336 C 0.13685 0.11866 0.30808 0.0
C337 C 0.16002 0.11427 0.29983 0.0
C338 C 0.17428 0.10711 0.3179 0.0
N339 N 0.15111 0.06849 0.36705 0.0
C340 C 0.11866 0.02799 0.36529 0.0
C341 C 0.13363 0.03415 0.34691 0.0
C342 C 0.14976 0.05429 0.34817 0.0
C343 C 0.12082 0.04243 0.38463 0.0
C344 C 0.137 0.06236 0.38518 0.0
N345 N 0.19055 0.12915 0.36877 0.0
C346 C 0.19234 0.17303 0.36362 0.0
C347 C 0.21675 0.17363 0.37083 0.0
C348 C 0.22792 0.15131 0.37674 0.0
C349 C 0.21443 0.12933 0.37581 0.0
C350 C 0.17974 0.15075 0.3625 0.0
H351 H 0.22325 0.11249 0.38088 0.0
H352 H 0.1611 0.15109 0.35658 0.0
H353 H 0.16087 0.05862 0.33372 0.0
H354 H 0.13759 0.07317 0.40026 0.0
C355 C 0.21049 0.05954 0.38796 0.0
C356 C 0.19999 0.0991 0.31634 0.0
C357 C 0.15657 0.11973 0.42108 0.0
C358 C 0.12063 0.12019 0.3469 0.0
H359 H 0.24157 0.06552 0.3177 0.0
H360 H 0.24551 0.04174 0.35623 0.0
H361 H 0.21301 0.0581 0.43587 0.0
H362 H 0.18523 0.09289 0.45382 0.0
H363 H 0.10897 0.14355 0.41955 0.0
H364 H 0.08805 0.14182 0.37931 0.0
H365 H 0.12123 0.12557 0.29886 0.0
H366 H 0.16577 0.11613 0.28256 0.0
H367 H 0.13299 0.02345 0.33165 0.0
H368 H 0.10955 0.03887 0.39921 0.0
H369 H 0.18307 0.1897 0.35854 0.0
H370 H 0.24676 0.15091 0.38244 0.0
C371 C 0.42946 0.20613 0.83027 0.0
C372 C 0.44632 0.2247 0.82618 0.0
C373 C 0.46009 0.2271 0.84531 0.0
C374 C 0.451 0.20982 0.85986 0.0
N375 N 0.43246 0.19677 0.85101 0.0
Co376 Co 0.41498 0.16943 0.86567 0.0
N377 N 0.4246 0.18123 0.89572 0.0
C378 C 0.44339 0.19648 0.90022 0.0
C379 C 0.4461 0.201 0.92268 0.0
C380 C 0.42804 0.18756 0.93294 0.0
C381 C 0.41526 0.17552 0.91606 0.0
N382 N 0.39788 0.14176 0.88043 0.0
C383 C 0.39106 0.139 0.90212 0.0
C384 C 0.37978 0.11645 0.90535 0.0
C385 C 0.37993 0.1047 0.88499 0.0
C386 C 0.39121 0.12066 0.87045 0.0
N387 N 0.40538 0.15814 0.83538 0.0
C388 C 0.39747 0.13554 0.83002 0.0
C389 C 0.39021 0.13396 0.80802 0.0
C390 C 0.39385 0.15697 0.79913 0.0
C391 C 0.40344 0.17136 0.81617 0.0
N392 N 0.445 0.14918 0.86422 0.0
C393 C 0.48544 0.11682 0.8618 0.0
C394 C 0.47831 0.13099 0.84322 0.0
C395 C 0.4582 0.14709 0.8448 0.0
C396 C 0.47199 0.11968 0.88167 0.0
C397 C 0.45204 0.1358 0.88253 0.0
N398 N 0.3847 0.18899 0.86708 0.0
C399 C 0.34079 0.19084 0.86257 0.0
C400 C 0.34037 0.21575 0.86842 0.0
C401 C 0.36293 0.22689 0.87382 0.0
C402 C 0.38482 0.21319 0.87314 0.0
C403 C 0.36291 0.17803 0.86181 0.0
H404 H 0.40186 0.22214 0.8774 0.0
H405 H 0.36225 0.15905 0.85691 0.0
H406 H 0.45311 0.15761 0.83019 0.0
H407 H 0.44198 0.13696 0.89802 0.0
C408 C 0.4558 0.2086 0.88287 0.0
C409 C 0.41153 0.19711 0.81392 0.0
C410 C 0.39653 0.15665 0.92011 0.0
C411 C 0.39198 0.11851 0.84699 0.0
H412 H 0.44838 0.23543 0.81104 0.0
H413 H 0.47419 0.24061 0.84854 0.0
H414 H 0.45928 0.21301 0.93065 0.0
H415 H 0.42506 0.1863 0.95082 0.0
H416 H 0.37231 0.1092 0.92079 0.0
H417 H 0.37192 0.08704 0.88111 0.0
H418 H 0.38175 0.11844 0.79979 0.0
H419 H 0.38943 0.16243 0.78221 0.0
H420 H 0.48823 0.12976 0.82755 0.0
H421 H 0.47637 0.10902 0.89645 0.0
H422 H 0.32408 0.18097 0.85881 0.0
H423 H 0.36383 0.2461 0.87828 0.0
C424 C 0.6724 0.90274 0.81593 0.0
C425 C 0.65842 0.8929 0.79873 0.0
C426 C 0.63526 0.88918 0.80727 0.0
C427 C 0.63635 0.89665 0.82923 0.0
N428 N 0.65878 0.90478 0.83489 0.0
Co429 Co 0.66944 0.91465 0.86528 0.0
N430 N 0.64169 0.89739 0.8797 0.0
C431 C 0.6208 0.89053 0.86947 0.0
C432 C 0.60473 0.87914 0.88384 0.0
C433 C 0.6162 0.8791 0.90434 0.0
C434 C 0.63871 0.89054 0.90135 0.0
N435 N 0.68064 0.92452 0.89544 0.0
C436 C 0.67476 0.91511 0.9157 0.0
C437 C 0.68641 0.92803 0.93272 0.0
C438 C 0.69979 0.94625 0.92261 0.0
C439 C 0.69562 0.94349 0.90009 0.0
N440 N 0.69686 0.9323 0.85095 0.0
C441 C 0.70959 0.95101 0.85988 0.0
C442 C 0.72713 0.96006 0.84556 0.0
C443 C 0.72524 0.94608 0.82652 0.0
C444 C 0.70669 0.92915 0.8304 0.0
N445 N 0.64897 0.94449 0.86344 0.0
C446 C 0.61658 0.98488 0.8606 0.0
C447 C 0.61917 0.97143 0.8805 0.0
C448 C 0.6353 0.95151 0.88157 0.0
C449 C 0.63099 0.97774 0.84218 0.0
C450 C 0.64711 0.95766 0.84397 0.0
N451 N 0.68924 0.88457 0.86717 0.0
C452 C 0.72714 0.86328 0.87498 0.0
C453 C 0.71602 0.84059 0.87037 0.0
C454 C 0.69139 0.84054 0.86385 0.0
C455 C 0.6785 0.86256 0.86214 0.0
C456 C 0.71335 0.88505 0.87352 0.0
H457 H 0.65971 0.86168 0.85674 0.0
H458 H 0.72211 0.90224 0.87758 0.0
H459 H 0.63626 0.94146 0.89708 0.0
H460 H 0.65784 0.95258 0.8295 0.0
C461 C 0.61904 0.89115 0.84597 0.0
C462 C 0.69815 0.91096 0.81408 0.0
C463 C 0.65615 0.89607 0.91949 0.0
C464 C 0.70793 0.95593 0.88286 0.0
H465 H 0.66424 0.88834 0.78195 0.0
H466 H 0.61996 0.88052 0.79885 0.0
H467 H 0.5872 0.87096 0.87976 0.0
H468 H 0.60881 0.87158 0.91971 0.0
H469 H 0.68496 0.92498 0.95058 0.0
H470 H 0.71157 0.95953 0.93071 0.0
H471 H 0.74051 0.97425 0.84894 0.0
H472 H 0.7363 0.94802 0.81157 0.0
H473 H 0.60829 0.9758 0.89515 0.0
H474 H 0.62996 0.98765 0.82648 0.0
H475 H 0.74618 0.86415 0.88007 0.0
H476 H 0.68215 0.82353 0.85975 0.0
C477 C 0.60608 0.67598 0.31734 0.0
C478 C 0.61255 0.66236 0.29865 0.0
C479 C 0.61697 0.63885 0.30606 0.0
C480 C 0.61289 0.63941 0.32879 0.0
N481 N 0.60624 0.66179 0.336 0.0
Co482 Co 0.59912 0.67102 0.3674 0.0
N483 N 0.6171 0.64229 0.37931 0.0
C484 C 0.62288 0.62196 0.36768 0.0
C485 C 0.63513 0.60496 0.38047 0.0
C486 C 0.6369 0.6152 0.40144 0.0
C487 C 0.62553 0.63794 0.4003 0.0
N488 N 0.59173 0.68051 0.39867 0.0
C489 C 0.60237 0.67315 0.41798 0.0
C490 C 0.59088 0.68388 0.43633 0.0
C491 C 0.57239 0.69828 0.42807 0.0
C492 C 0.57353 0.69556 0.40526 0.0
N493 N 0.58108 0.69968 0.35552 0.0
C494 C 0.56409 0.71287 0.36655 0.0
C495 C 0.55536 0.73223 0.35419 0.0
C496 C 0.56759 0.73105 0.33416 0.0
C497 C 0.58301 0.71079 0.33533 0.0
N498 N 0.56883 0.65109 0.36657 0.0
C499 C 0.52829 0.61875 0.36444 0.0
C500 C 0.54322 0.62 0.38354 0.0
C501 C 0.56319 0.63613 0.38427 0.0
C502 C 0.53393 0.63459 0.34655 0.0
C503 C 0.55409 0.65067 0.348 0.0
N504 N 0.62967 0.69025 0.36823 0.0
C505 C 0.65279 0.72624 0.37885 0.0
C506 C 0.67418 0.71643 0.36928 0.0
C507 C 0.67273 0.69325 0.35933 0.0
C508 C 0.65055 0.68044 0.3592 0.0
C509 C 0.63065 0.71298 0.37792 0.0
H510 H 0.65039 0.66246 0.35178 0.0
H511 H 0.61436 0.72106 0.38505 0.0
H512 H 0.57443 0.63599 0.3991 0.0
H513 H 0.55802 0.66246 0.33392 0.0
C514 C 0.61982 0.62126 0.34429 0.0
C515 C 0.59836 0.70182 0.31682 0.0
C516 C 0.62138 0.65417 0.41965 0.0
C517 C 0.56069 0.70965 0.38958 0.0
H518 H 0.61397 0.66876 0.28154 0.0
H519 H 0.62354 0.62356 0.29619 0.0
H520 H 0.64259 0.58754 0.37507 0.0
H521 H 0.64539 0.60682 0.41593 0.0
H522 H 0.59511 0.68127 0.45388 0.0
H523 H 0.56008 0.70989 0.43754 0.0
H524 H 0.54266 0.74632 0.35953 0.0
H525 H 0.56547 0.74383 0.32044 0.0
H526 H 0.54001 0.60805 0.39774 0.0
H527 H 0.52284 0.63465 0.33152 0.0
H528 H 0.65306 0.74417 0.38664 0.0
H529 H 0.68882 0.68482 0.35196 0.0
C530 C 0.84172 0.60798 0.81702 0.0
C531 C 0.85562 0.61449 0.7985 0.0
C532 C 0.87914 0.61833 0.80609 0.0
C533 C 0.87833 0.6139 0.82876 0.0
N534 N 0.85576 0.60756 0.83576 0.0
Co535 Co 0.8461 0.60024 0.867 0.0
N536 N 0.87517 0.61733 0.8793 0.0
C537 C 0.8958 0.62263 0.86788 0.0
C538 C 0.91296 0.63433 0.8809 0.0
C539 C 0.90251 0.63623 0.90178 0.0
C540 C 0.87948 0.62549 0.90037 0.0
N541 N 0.83604 0.59288 0.89813 0.0
C542 C 0.84337 0.60327 0.91756 0.0
C543 C 0.8321 0.59198 0.93575 0.0
C544 C 0.81738 0.57385 0.92727 0.0
C545 C 0.82046 0.57502 0.9045 0.0
N546 N 0.81723 0.58284 0.85475 0.0
C547 C 0.8036 0.566 0.86556 0.0
C548 C 0.78418 0.5578 0.85303 0.0
C549 C 0.78578 0.57022 0.83311 0.0
C550 C 0.80636 0.58519 0.83451 0.0
N551 N 0.86534 0.56953 0.8661 0.0
C552 C 0.89712 0.52862 0.86379 0.0
C553 C 0.89568 0.54315 0.88313 0.0
C554 C 0.87983 0.56332 0.88394 0.0
C555 C 0.88169 0.5348 0.84577 0.0
C556 C 0.86588 0.55514 0.84731 0.0
N557 N 0.82758 0.63117 0.86786 0.0
C558 C 0.79102 0.65452 0.87605 0.0
C559 C 0.8023 0.67636 0.86875 0.0
C560 C 0.8266 0.67479 0.86116 0.0
C561 C 0.8387 0.65224 0.86067 0.0
C562 C 0.80398 0.6322 0.87556 0.0
H563 H 0.85723 0.65195 0.85449 0.0
H564 H 0.79491 0.61577 0.88133 0.0
H565 H 0.87986 0.57428 0.89894 0.0
H566 H 0.85442 0.55952 0.83312 0.0
C567 C 0.89657 0.62001 0.84444 0.0
C568 C 0.81577 0.60065 0.81623 0.0
C569 C 0.86283 0.62176 0.91951 0.0
C570 C 0.80639 0.56248 0.88862 0.0
H571 H 0.84939 0.61628 0.78136 0.0
H572 H 0.89466 0.6247 0.79638 0.0
H573 H 0.9306 0.64143 0.87568 0.0
H574 H 0.91092 0.64445 0.91637 0.0
H575 H 0.83458 0.59606 0.95334 0.0
H576 H 0.80537 0.56176 0.93658 0.0
H577 H 0.76973 0.54542 0.8582 0.0
H578 H 0.77299 0.56856 0.81936 0.0
H579 H 0.90732 0.5395 0.89744 0.0
H580 H 0.88178 0.52401 0.83055 0.0
H581 H 0.77222 0.6545 0.88186 0.0
H582 H 0.83658 0.69094 0.85584 0.0
C583 C 0.9082 0.83997 0.31825 0.0
C584 C 0.90203 0.85333 0.2993 0.0
C585 C 0.89758 0.87696 0.30633 0.0
C586 C 0.90134 0.87674 0.32911 0.0
N587 N 0.90782 0.85444 0.33671 0.0
Co588 Co 0.91454 0.84573 0.3683 0.0
N589 N 0.89656 0.87473 0.37961 0.0
C590 C 0.89102 0.8949 0.36763 0.0
C591 C 0.87869 0.91216 0.38005 0.0
C592 C 0.87659 0.90225 0.40115 0.0
C593 C 0.88785 0.87943 0.40045 0.0
N594 N 0.92153 0.83677 0.39979 0.0
C595 C 0.91062 0.84445 0.41887 0.0
C596 C 0.92177 0.83395 0.4375 0.0
C597 C 0.94034 0.81936 0.42966 0.0
C598 C 0.93956 0.82175 0.4068 0.0
N599 N 0.9326 0.81678 0.35704 0.0
C600 C 0.94936 0.80367 0.36846 0.0
C601 C 0.95812 0.78405 0.35652 0.0
C602 C 0.94617 0.78495 0.33634 0.0
C603 C 0.93089 0.80534 0.337 0.0
N604 N 0.94494 0.8655 0.36742 0.0
C605 C 0.98577 0.89747 0.36513 0.0
C606 C 0.97061 0.89668 0.38412 0.0
C607 C 0.95049 0.88073 0.38492 0.0
C608 C 0.98019 0.88138 0.34744 0.0
C609 C 0.95989 0.86549 0.34897 0.0
N610 N 0.88392 0.82663 0.36918 0.0
C611 C 0.86059 0.79092 0.38023 0.0
C612 C 0.83929 0.80065 0.37044 0.0
C613 C 0.8409 0.82365 0.36012 0.0
C614 C 0.86314 0.83635 0.35988 0.0
C615 C 0.88278 0.80407 0.37921 0.0
H616 H 0.86344 0.8542 0.35217 0.0
H617 H 0.89899 0.79605 0.38655 0.0
H618 H 0.93908 0.88121 0.39964 0.0
H619 H 0.95604 0.85347 0.33504 0.0
C620 C 0.89434 0.89518 0.34426 0.0
C621 C 0.91591 0.81411 0.31814 0.0
C622 C 0.89158 0.86344 0.42004 0.0
C623 C 0.95249 0.8073 0.39147 0.0
H624 H 0.90085 0.84669 0.28226 0.0
H625 H 0.89123 0.89213 0.29617 0.0
H626 H 0.87138 0.92952 0.37432 0.0
H627 H 0.86795 0.91089 0.41543 0.0
H628 H 0.91725 0.83681 0.45495 0.0
H629 H 0.95243 0.80782 0.43944 0.0
H630 H 0.97063 0.76996 0.36223 0.0
H631 H 0.94839 0.77189 0.32287 0.0
H632 H 0.97378 0.90884 0.39815 0.0
H633 H 0.99146 0.88096 0.33251 0.0
H634 H 0.86021 0.77312 0.3883 0.0
H635 H 0.82489 0.83204 0.35258 0.0
C636 C 0.6744 0.60959 0.68474 0.0
C637 C 0.66043 0.61671 0.70302 0.0
C638 C 0.63707 0.62086 0.69513 0.0
C639 C 0.63805 0.61599 0.67254 0.0
N640 N 0.66057 0.60911 0.66587 0.0
Co641 Co 0.67039 0.60089 0.63487 0.0
N642 N 0.64175 0.61818 0.62199 0.0
C643 C 0.62109 0.62406 0.63311 0.0
C644 C 0.60426 0.63572 0.61968 0.0
C645 C 0.61497 0.63698 0.59886 0.0
C646 C 0.63782 0.62595 0.60072 0.0
N647 N 0.68062 0.59264 0.60399 0.0
C648 C 0.67372 0.60278 0.58431 0.0
C649 C 0.68501 0.59097 0.56643 0.0
C650 C 0.69927 0.57274 0.57537 0.0
C651 C 0.69593 0.57439 0.5981 0.0
N652 N 0.69884 0.58328 0.64769 0.0
C653 C 0.71223 0.56592 0.63735 0.0
C654 C 0.73126 0.55752 0.65028 0.0
C655 C 0.72965 0.57035 0.66996 0.0
C656 C 0.70949 0.58581 0.668 0.0
N657 N 0.65063 0.57053 0.63626 0.0
C658 C 0.61828 0.53009 0.63912 0.0
C659 C 0.62005 0.5442 0.61952 0.0
C660 C 0.63619 0.56414 0.61843 0.0
C661 C 0.63364 0.53645 0.65712 0.0
C662 C 0.64973 0.55656 0.65531 0.0
N663 N 0.68946 0.63149 0.63349 0.0
C664 C 0.72655 0.65391 0.62509 0.0
C665 C 0.71534 0.67611 0.63123 0.0
C666 C 0.69103 0.67534 0.6387 0.0
C667 C 0.67858 0.65299 0.6399 0.0
C668 C 0.71322 0.63184 0.62613 0.0
H669 H 0.66003 0.65319 0.64606 0.0
H670 H 0.72207 0.61507 0.62094 0.0
H671 H 0.63645 0.57478 0.60323 0.0
H672 H 0.66113 0.56108 0.6695 0.0
C673 C 0.62007 0.62203 0.65659 0.0
C674 C 0.7002 0.60178 0.6859 0.0
C675 C 0.65467 0.62162 0.58187 0.0
C676 C 0.70961 0.56193 0.61434 0.0
H677 H 0.66649 0.61868 0.72018 0.0
H678 H 0.62156 0.62767 0.70458 0.0
H679 H 0.58668 0.64321 0.62459 0.0
H680 H 0.60687 0.64498 0.58401 0.0
H681 H 0.68284 0.59481 0.54876 0.0
H682 H 0.71119 0.56027 0.5664 0.0
H683 H 0.74544 0.54464 0.64553 0.0
H684 H 0.7421 0.56862 0.68396 0.0
H685 H 0.60849 0.54041 0.6052 0.0
H686 H 0.6333 0.52598 0.67253 0.0
H687 H 0.74533 0.65364 0.61918 0.0
H688 H 0.68173 0.69192 0.64397 0.0
C689 C 0.90766 0.67471 0.18471 0.0
C690 C 0.90053 0.66059 0.20291 0.0
C691 C 0.89619 0.63734 0.19486 0.0
C692 C 0.90095 0.63853 0.17226 0.0
N693 N 0.90796 0.66107 0.16573 0.0
Co694 Co 0.91603 0.67117 0.13475 0.0
N695 N 0.89847 0.64274 0.12175 0.0
C696 C 0.8925 0.62203 0.13275 0.0
C697 C 0.88068 0.60537 0.11928 0.0
C698 C 0.8794 0.61625 0.09854 0.0
C699 C 0.8906 0.63902 0.10049 0.0
N700 N 0.92412 0.68167 0.10388 0.0
C701 C 0.91387 0.67497 0.0842 0.0
C702 C 0.92563 0.6864 0.06635 0.0
C703 C 0.94393 0.70055 0.0753 0.0
C704 C 0.94238 0.697 0.09801 0.0
N705 N 0.93391 0.69938 0.14771 0.0
C706 C 0.95123 0.71283 0.13735 0.0
C707 C 0.95977 0.73172 0.15035 0.0
C708 C 0.94708 0.72997 0.17011 0.0
C709 C 0.93158 0.70984 0.16813 0.0
N710 N 0.9463 0.65121 0.13574 0.0
C711 C 0.98701 0.61907 0.13769 0.0
C712 C 0.97251 0.62096 0.11835 0.0
C713 C 0.95247 0.63698 0.1177 0.0
C714 C 0.98078 0.63412 0.15597 0.0
C715 C 0.96053 0.6501 0.15461 0.0
N716 N 0.88554 0.69046 0.13372 0.0
C717 C 0.86337 0.72779 0.1256 0.0
C718 C 0.84108 0.71664 0.1316 0.0
C719 C 0.84168 0.69226 0.13891 0.0
C720 C 0.86397 0.67967 0.14007 0.0
C721 C 0.88535 0.71431 0.12655 0.0
H722 H 0.86365 0.66106 0.14609 0.0
H723 H 0.90217 0.72311 0.12141 0.0
H724 H 0.94163 0.63737 0.10264 0.0
H725 H 0.95616 0.6613 0.16897 0.0
C726 C 0.89468 0.62075 0.1562 0.0
C727 C 0.91567 0.70043 0.18606 0.0
C728 C 0.89503 0.65593 0.08168 0.0
C729 C 0.955 0.71045 0.11428 0.0
H730 H 0.89869 0.66649 0.22013 0.0
H731 H 0.88931 0.62178 0.20421 0.0
H732 H 0.87311 0.58779 0.12411 0.0
H733 H 0.8713 0.6083 0.08368 0.0
H734 H 0.92172 0.6844 0.04868 0.0
H735 H 0.95639 0.71251 0.06635 0.0
H736 H 0.97261 0.74595 0.1456 0.0
H737 H 0.94892 0.74234 0.18415 0.0
H738 H 0.97614 0.6096 0.10385 0.0
H739 H 0.99151 0.63367 0.17121 0.0
H740 H 0.86376 0.74661 0.11981 0.0
H741 H 0.82502 0.683 0.14406 0.0
C742 C 0.84413 0.90425 0.68609 0.0
C743 C 0.85841 0.89467 0.70323 0.0
C744 C 0.88152 0.89121 0.69451 0.0
C745 C 0.88011 0.89857 0.67251 0.0
N746 N 0.85753 0.90639 0.66701 0.0
Co747 Co 0.84639 0.91592 0.63666 0.0
N748 N 0.87416 0.89886 0.62207 0.0
C749 C 0.89522 0.89228 0.63217 0.0
C750 C 0.91128 0.881 0.61773 0.0
C751 C 0.89962 0.88076 0.59731 0.0
C752 C 0.87703 0.89199 0.60042 0.0
N753 N 0.83472 0.92547 0.60654 0.0
C754 C 0.84054 0.9161 0.58625 0.0
C755 C 0.82858 0.92885 0.5693 0.0
C756 C 0.81506 0.9469 0.57945 0.0
C757 C 0.81946 0.94423 0.60194 0.0
N758 N 0.81895 0.93333 0.65115 0.0
C759 C 0.80589 0.95184 0.64224 0.0
C760 C 0.7884 0.96072 0.65667 0.0
C761 C 0.79067 0.94685 0.67577 0.0
C762 C 0.80938 0.93014 0.67179 0.0
N763 N 0.86657 0.946 0.63809 0.0
C764 C 0.8988 0.9866 0.64043 0.0
C765 C 0.89614 0.97296 0.62065 0.0
C766 C 0.88007 0.95297 0.61982 0.0
C767 C 0.88449 0.97955 0.65897 0.0
C768 C 0.86848 0.95935 0.65743 0.0
N769 N 0.82691 0.88558 0.63522 0.0
C770 C 0.78911 0.86371 0.62834 0.0
C771 C 0.80026 0.84117 0.63382 0.0
C772 C 0.82513 0.84166 0.63979 0.0
C773 C 0.83789 0.86382 0.64059 0.0
C774 C 0.80275 0.88564 0.62905 0.0
H775 H 0.85684 0.86321 0.64558 0.0
H776 H 0.79378 0.90264 0.62472 0.0
H777 H 0.87905 0.94281 0.60439 0.0
H778 H 0.85789 0.9543 0.67201 0.0
C779 C 0.89726 0.89311 0.65564 0.0
C780 C 0.81828 0.91209 0.6881 0.0
C781 C 0.85944 0.89738 0.58234 0.0
C782 C 0.80722 0.95663 0.61922 0.0
H783 H 0.85281 0.89011 0.72008 0.0
H784 H 0.897 0.88276 0.70283 0.0
H785 H 0.92893 0.87304 0.6217 0.0
H786 H 0.90695 0.87327 0.58193 0.0
H787 H 0.82992 0.92583 0.55142 0.0
H788 H 0.80306 0.96004 0.5714 0.0
H789 H 0.7748 0.97472 0.65335 0.0
H790 H 0.77973 0.9487 0.6908 0.0
H791 H 0.90692 0.97722 0.60592 0.0
H792 H 0.88554 0.98959 0.67457 0.0
H793 H 0.76991 0.86455 0.6238 0.0
H794 H 0.83502 0.82498 0.64362 0.0
C795 C 0.6076 0.84205 0.18436 0.0
C796 C 0.61412 0.85582 0.20294 0.0
C797 C 0.6184 0.8793 0.19538 0.0
C798 C 0.6142 0.87857 0.17268 0.0
N799 N 0.60761 0.85611 0.16562 0.0
Co800 Co 0.60038 0.84666 0.13431 0.0
N801 N 0.61793 0.87557 0.12216 0.0
C802 C 0.62343 0.89607 0.13366 0.0
C803 C 0.63542 0.91316 0.12074 0.0
C804 C 0.6373 0.90279 0.09983 0.0
C805 C 0.62626 0.87989 0.10113 0.0
N806 N 0.59313 0.83681 0.10311 0.0
C807 C 0.60372 0.84413 0.08374 0.0
C808 C 0.59246 0.83303 0.06547 0.0
C809 C 0.57415 0.81845 0.07383 0.0
C810 C 0.57518 0.82143 0.09662 0.0
N811 N 0.58253 0.81795 0.14643 0.0
C812 C 0.56565 0.80453 0.13548 0.0
C813 C 0.55706 0.78521 0.14795 0.0
C814 C 0.56924 0.78664 0.16798 0.0
C815 C 0.5845 0.80703 0.16669 0.0
N816 N 0.56989 0.86628 0.13511 0.0
C817 C 0.5291 0.89832 0.1372 0.0
C818 C 0.5439 0.89695 0.11801 0.0
C819 C 0.56398 0.88096 0.11729 0.0
C820 C 0.535 0.88271 0.1552 0.0
C821 C 0.55528 0.8668 0.15377 0.0
N822 N 0.6311 0.82771 0.13355 0.0
C823 C 0.65395 0.79081 0.12537 0.0
C824 C 0.67599 0.80179 0.13254 0.0
C825 C 0.67473 0.82613 0.14012 0.0
C826 C 0.65232 0.83852 0.1407 0.0
C827 C 0.63181 0.80408 0.12588 0.0
H828 H 0.65228 0.85706 0.14689 0.0
H829 H 0.61527 0.79524 0.12014 0.0
H830 H 0.57511 0.88101 0.10238 0.0
H831 H 0.55941 0.85522 0.16795 0.0
C832 C 0.62067 0.89678 0.15707 0.0
C833 C 0.59982 0.81622 0.18512 0.0
C834 C 0.62241 0.86343 0.0819 0.0
C835 C 0.56238 0.80743 0.1124 0.0
H836 H 0.6156 0.84956 0.22009 0.0
H837 H 0.62487 0.89471 0.20514 0.0
H838 H 0.6427 0.93069 0.12604 0.0
H839 H 0.64569 0.91119 0.0853 0.0
H840 H 0.59669 0.83554 0.04791 0.0
H841 H 0.56201 0.80658 0.06443 0.0
H842 H 0.54453 0.77093 0.14268 0.0
H843 H 0.56724 0.77389 0.18173 0.0
H844 H 0.54052 0.90872 0.10372 0.0
H845 H 0.52401 0.88271 0.1703 0.0
H846 H 0.65361 0.772 0.1196 0.0
H847 H 0.691 0.83592 0.14535 0.0
H848 H 0.41543 0.12061 0.94651 0.0
H849 H 0.34049 0.15907 0.05654 0.0
H850 H 0.36455 0.18096 0.94748 0.0
H851 H 0.40091 0.10827 0.0569 0.0
H852 H 0.34816 0.16726 0.01664 0.0
H853 H 0.40872 0.11457 0.98674 0.0
C854 C 0.40248 0.13226 0.95522 0.0
C855 C 0.39009 0.15094 0.94374 0.0
C856 C 0.36001 0.15463 0.02551 0.0
C857 C 0.38277 0.14469 0.9898 0.0
C858 C 0.35578 0.15018 0.04827 0.0
C859 C 0.37047 0.13343 0.05998 0.0
C860 C 0.3788 0.14186 0.01435 0.0
C861 C 0.38958 0.12173 0.04849 0.0
C862 C 0.39885 0.12904 0.97819 0.0
C863 C 0.37405 0.16608 0.95578 0.0
N864 N 0.39309 0.12604 0.02628 0.0
N865 N 0.37078 0.1626 0.97818 0.0
H866 H 0.39927 0.41126 0.44635 0.0
H867 H 0.36208 0.33616 0.55691 0.0
H868 H 0.33946 0.35973 0.44786 0.0
H869 H 0.4122 0.39718 0.55667 0.0
H870 H 0.3547 0.34261 0.51668 0.0
H871 H 0.40654 0.40366 0.48626 0.0
C872 C 0.38808 0.39788 0.45507 0.0
C873 C 0.36911 0.38567 0.44386 0.0
C874 C 0.36709 0.35478 0.52547 0.0
C875 C 0.37671 0.3774 0.48959 0.0
C876 C 0.37111 0.35121 0.54839 0.0
C877 C 0.38731 0.36653 0.56003 0.0
C878 C 0.37973 0.37354 0.51412 0.0
C879 C 0.39916 0.38536 0.54827 0.0
C880 C 0.39198 0.39377 0.47787 0.0
C881 C 0.35455 0.3691 0.45594 0.0
N882 N 0.39522 0.38828 0.52595 0.0
N883 N 0.35864 0.36544 0.47819 0.0
H884 H 0.10268 0.3981 0.94672 0.0
H885 H 0.17711 0.36 0.05718 0.0
H886 H 0.15377 0.33792 0.94809 0.0
H887 H 0.11632 0.41037 0.05714 0.0
H888 H 0.17016 0.3522 0.01713 0.0
H889 H 0.10969 0.4047 0.98682 0.0
C890 C 0.11584 0.38668 0.95546 0.0
C891 C 0.12811 0.36782 0.94416 0.0
C892 C 0.15808 0.36466 0.02594 0.0
C893 C 0.13568 0.37463 0.99008 0.0
C894 C 0.1619 0.36888 0.04878 0.0
C895 C 0.14689 0.38537 0.06041 0.0
C896 C 0.13938 0.37741 0.01464 0.0
C897 C 0.12789 0.39709 0.04877 0.0
C898 C 0.1196 0.39019 0.97836 0.0
C899 C 0.14437 0.35295 0.95625 0.0
N900 N 0.12477 0.393 0.0265 0.0
N901 N 0.14771 0.35667 0.97859 0.0
H902 H 0.10706 0.11467 0.5583 0.0
H903 H 0.18013 0.15343 0.44708 0.0
H904 H 0.15698 0.17582 0.55619 0.0
H905 H 0.12038 0.10182 0.4479 0.0
H906 H 0.17389 0.16074 0.48733 0.0
H907 H 0.11467 0.10729 0.51841 0.0
C908 C 0.12016 0.12609 0.54948 0.0
C909 C 0.13186 0.14551 0.5605 0.0
C910 C 0.16192 0.14806 0.47867 0.0
C911 C 0.14005 0.13783 0.51477 0.0
C912 C 0.16535 0.1441 0.45573 0.0
C913 C 0.15035 0.12746 0.44424 0.0
C914 C 0.14365 0.13493 0.4902 0.0
C915 C 0.13191 0.1152 0.45617 0.0
C916 C 0.12424 0.12214 0.52667 0.0
C917 C 0.14803 0.16037 0.54827 0.0
N918 N 0.12914 0.11909 0.47852 0.0
N919 N 0.15163 0.15626 0.52602 0.0
H920 H 0.60531 0.90123 0.05653 0.0
H921 H 0.68037 0.86338 0.94615 0.0
H922 H 0.656 0.84072 0.05506 0.0
H923 H 0.62026 0.91456 0.94631 0.0
H924 H 0.67387 0.85622 0.98642 0.0
H925 H 0.61345 0.9088 0.01675 0.0
C926 C 0.61863 0.88995 0.04786 0.0
C927 C 0.63044 0.87069 0.05904 0.0
C928 C 0.66193 0.86882 0.97762 0.0
C929 C 0.63931 0.87864 0.01344 0.0
C930 C 0.66554 0.87274 0.95468 0.0
C931 C 0.65047 0.88914 0.943 0.0
C932 C 0.64337 0.88175 0.98894 0.0
C933 C 0.63189 0.90138 0.95475 0.0
C934 C 0.62305 0.89404 0.02512 0.0
C935 C 0.64694 0.85604 0.04701 0.0
N936 N 0.62891 0.8975 0.97708 0.0
N937 N 0.65089 0.86029 0.02482 0.0
H938 H 0.67789 0.65546 0.55573 0.0
H939 H 0.60478 0.61604 0.44488 0.0
H940 H 0.61822 0.60376 0.55536 0.0
H941 H 0.65448 0.67737 0.44659 0.0
H942 H 0.61228 0.609 0.48485 0.0
H943 H 0.67141 0.66274 0.51551 0.0
C944 C 0.66306 0.64612 0.54719 0.0
C945 C 0.64818 0.62946 0.55879 0.0
C946 C 0.62182 0.62383 0.47648 0.0
C947 C 0.64121 0.63686 0.51285 0.0
C948 C 0.61779 0.62758 0.45364 0.0
C949 C 0.62948 0.64694 0.44248 0.0
C950 C 0.63756 0.63964 0.48828 0.0
C951 C 0.64554 0.66196 0.45462 0.0
C952 C 0.6595 0.65006 0.52427 0.0
C953 C 0.62967 0.61718 0.547 0.0
N954 N 0.64911 0.65802 0.47691 0.0
N955 N 0.62678 0.62103 0.52465 0.0
H956 H 0.90031 0.60443 0.94511 0.0
H957 H 0.86146 0.67918 0.05528 0.0
H958 H 0.83995 0.65531 0.94622 0.0
H959 H 0.91292 0.61931 0.05538 0.0
H960 H 0.85421 0.67235 0.01511 0.0
H961 H 0.90729 0.61218 0.98504 0.0
C962 C 0.88895 0.61773 0.95374 0.0
C963 C 0.86991 0.6297 0.94241 0.0
C964 C 0.86684 0.66048 0.02396 0.0
C965 C 0.87715 0.63809 0.98817 0.0
C966 C 0.87077 0.66425 0.04686 0.0
C967 C 0.88734 0.6494 0.05858 0.0
C968 C 0.87995 0.642 0.0127 0.0
C969 C 0.89958 0.63075 0.04693 0.0
C970 C 0.89269 0.62191 0.97655 0.0
C971 C 0.85512 0.64614 0.95438 0.0
N972 N 0.89572 0.62764 0.02462 0.0
N973 N 0.85903 0.64986 0.97665 0.0
H974 H 0.85728 0.84084 0.44614 0.0
H975 H 0.89557 0.91617 0.55596 0.0
H976 H 0.90802 0.90134 0.44563 0.0
H977 H 0.83522 0.86526 0.55507 0.0
H978 H 0.90171 0.90929 0.51577 0.0
H979 H 0.84912 0.84857 0.48602 0.0
C980 C 0.86618 0.85615 0.45437 0.0
C981 C 0.88288 0.87085 0.44263 0.0
C982 C 0.88722 0.89945 0.52433 0.0
C983 C 0.87447 0.87926 0.48824 0.0
C984 C 0.88394 0.90317 0.54728 0.0
C985 C 0.86523 0.89083 0.55876 0.0
C986 C 0.8716 0.88331 0.51276 0.0
C987 C 0.85013 0.87473 0.54676 0.0
C988 C 0.86173 0.86042 0.47712 0.0
C989 C 0.89459 0.88999 0.45407 0.0
N990 N 0.85366 0.87136 0.52439 0.0
N991 N 0.89028 0.89355 0.47627 0.0
H992 H 0.23836 0.31859 0.09693 0.0
H993 H 0.29111 0.20636 0.1686 0.0
H994 H 0.22452 0.3099 0.16758 0.0
H995 H 0.27919 0.20079 0.09743 0.0
H996 H 0.27119 0.24663 0.16838 0.0
H997 H 0.2582 0.27801 0.09655 0.0
C998 C 0.2397 0.30825 0.11238 0.0
C999 C 0.22973 0.31765 0.13231 0.0
C1000 C 0.27283 0.2366 0.15281 0.0
C1001 C 0.25244 0.27129 0.13201 0.0
C1002 C 0.28425 0.21362 0.15292 0.0
C1003 C 0.28679 0.20015 0.13301 0.0
C1004 C 0.26422 0.24654 0.13257 0.0
C1005 C 0.27744 0.21045 0.11318 0.0
C1006 C 0.25083 0.28503 0.11211 0.0
C1007 C 0.23179 0.30332 0.15181 0.0
N1008 N 0.26677 0.23312 0.11341 0.0
N1009 N 0.24298 0.28101 0.15119 0.0
H1010 H 0.31918 0.27649 0.59857 0.0
H1011 H 0.20576 0.22505 0.66938 0.0
H1012 H 0.30881 0.29245 0.66862 0.0
H1013 H 0.20109 0.23615 0.59804 0.0
H1014 H 0.24607 0.24491 0.66938 0.0
H1015 H 0.27869 0.2564 0.59794 0.0
C1016 C 0.3085 0.27552 0.61385 0.0
C1017 C 0.31736 0.28616 0.63367 0.0
C1018 C 0.23622 0.24311 0.65372 0.0
C1019 C 0.27116 0.26322 0.6331 0.0
C1020 C 0.21323 0.23174 0.65371 0.0
C1021 C 0.20001 0.229 0.63369 0.0
C1022 C 0.24644 0.25144 0.63349 0.0
C1023 C 0.21057 0.23808 0.61387 0.0
C1024 C 0.28534 0.26427 0.61343 0.0
C1025 C 0.30264 0.28461 0.65295 0.0
N1026 N 0.23326 0.24869 0.61422 0.0
N1027 N 0.28041 0.27329 0.65221 0.0
H1028 H 0.26478 0.32322 0.39874 0.0
H1029 H 0.26258 0.18474 0.35449 0.0
H1030 H 0.30738 0.29885 0.34191 0.0
H1031 H 0.20139 0.21699 0.38944 0.0
H1032 H 0.28305 0.22492 0.35443 0.0
H1033 H 0.24443 0.28322 0.39957 0.0
C1034 C 0.26985 0.30969 0.38633 0.0
C1035 C 0.28813 0.31478 0.3703 0.0
C1036 C 0.26516 0.22317 0.36217 0.0
C1037 C 0.26517 0.26836 0.37168 0.0
C1038 C 0.25357 0.20021 0.36235 0.0
C1039 C 0.2302 0.19749 0.37192 0.0
C1040 C 0.25355 0.24354 0.37199 0.0
C1041 C 0.2193 0.21828 0.3817 0.0
C1042 C 0.25828 0.28671 0.38696 0.0
C1043 C 0.29398 0.29594 0.355 0.0
N1044 N 0.23107 0.24035 0.38158 0.0
N1045 N 0.28272 0.27367 0.35618 0.0
H1046 H 0.32609 0.25407 0.89614 0.0
H1047 H 0.18634 0.25486 0.85511 0.0
H1048 H 0.29954 0.20922 0.84166 0.0
H1049 H 0.21921 0.31683 0.8884 0.0
H1050 H 0.22652 0.23453 0.85464 0.0
H1051 H 0.28619 0.27471 0.89733 0.0
C1052 C 0.31209 0.24858 0.88432 0.0
C1053 C 0.31646 0.22954 0.86891 0.0
C1054 C 0.22492 0.25256 0.8621 0.0
C1055 C 0.27029 0.25285 0.87067 0.0
C1056 C 0.20195 0.26408 0.86252 0.0
C1057 C 0.19938 0.28762 0.87175 0.0
C1058 C 0.24549 0.26444 0.8713 0.0
C1059 C 0.22037 0.29878 0.88094 0.0
C1060 C 0.28919 0.26032 0.88515 0.0
C1061 C 0.29714 0.22322 0.8543 0.0
N1062 N 0.24246 0.28709 0.88056 0.0
N1063 N 0.275 0.23465 0.85566 0.0
H1064 H 0.70183 0.79849 0.89178 0.0
H1065 H 0.80757 0.71546 0.83962 0.0
H1066 H 0.76091 0.82858 0.85242 0.0
H1067 H 0.76681 0.69324 0.8983 0.0
H1068 H 0.788 0.75557 0.84145 0.0
H1069 H 0.72273 0.75865 0.89194 0.0
C1070 C 0.71928 0.79672 0.88325 0.0
C1071 C 0.72964 0.81692 0.87206 0.0
C1072 C 0.78341 0.74193 0.85396 0.0
C1073 C 0.75351 0.7712 0.8719 0.0
C1074 C 0.79469 0.71892 0.85305 0.0
C1075 C 0.78923 0.70067 0.86903 0.0
C1076 C 0.76606 0.74688 0.87071 0.0
C1077 C 0.77159 0.7064 0.88546 0.0
C1078 C 0.73121 0.77399 0.88339 0.0
C1079 C 0.75235 0.81358 0.86138 0.0
N1080 N 0.76064 0.7289 0.88583 0.0
N1081 N 0.76338 0.79112 0.86136 0.0
H1082 H 0.70473 0.72524 0.33389 0.0
H1083 H 0.8159 0.77885 0.40621 0.0
H1084 H 0.69808 0.738 0.40486 0.0
H1085 H 0.80807 0.79216 0.3354 0.0
H1086 H 0.77532 0.759 0.40636 0.0
H1087 H 0.74495 0.74527 0.33435 0.0
C1088 C 0.71174 0.73232 0.34958 0.0
C1089 C 0.69798 0.72998 0.36936 0.0
C1090 C 0.78253 0.76627 0.39081 0.0
C1091 C 0.74432 0.75267 0.37009 0.0
C1092 C 0.80575 0.7774 0.39068 0.0
C1093 C 0.8154 0.78722 0.37077 0.0
C1094 C 0.76903 0.7645 0.3708 0.0
C1095 C 0.8013 0.78501 0.35116 0.0
C1096 C 0.73469 0.7438 0.34983 0.0
C1097 C 0.70798 0.73959 0.3892 0.0
N1098 N 0.77899 0.77381 0.35165 0.0
N1099 N 0.73062 0.75031 0.38912 0.0
H1100 H 0.76214 0.82682 0.60593 0.0
H1101 H 0.76143 0.68699 0.64695 0.0
H1102 H 0.80676 0.80032 0.66061 0.0
H1103 H 0.69949 0.71983 0.61358 0.0
H1104 H 0.78174 0.7272 0.64742 0.0
H1105 H 0.7416 0.78686 0.60464 0.0
C1106 C 0.7676 0.81281 0.61777 0.0
C1107 C 0.78655 0.81722 0.63328 0.0
C1108 C 0.76372 0.72558 0.63994 0.0
C1109 C 0.76338 0.77098 0.6314 0.0
C1110 C 0.75222 0.7026 0.63951 0.0
C1111 C 0.72869 0.70002 0.63027 0.0
C1112 C 0.75183 0.74615 0.63073 0.0
C1113 C 0.71753 0.721 0.62105 0.0
C1114 C 0.75593 0.78988 0.61689 0.0
C1115 C 0.79284 0.7979 0.64791 0.0
N1116 N 0.7292 0.74311 0.62143 0.0
N1117 N 0.78148 0.77572 0.64649 0.0
H1118 H 0.83004 0.76244 0.148 0.0
H1119 H 0.69179 0.76538 0.10337 0.0
H1120 H 0.79769 0.70136 0.11299 0.0
H1121 H 0.71599 0.80722 0.1607 0.0
H1122 H 0.7317 0.74487 0.10259 0.0
H1123 H 0.78992 0.78298 0.14804 0.0
C1124 C 0.81456 0.75347 0.14012 0.0
C1125 C 0.81724 0.73011 0.13053 0.0
C1126 C 0.72819 0.75859 0.1153 0.0
C1127 C 0.77125 0.75355 0.13043 0.0
C1128 C 0.70526 0.77025 0.1159 0.0
C1129 C 0.70016 0.78837 0.13205 0.0
C1130 C 0.74647 0.76524 0.13072 0.0
C1131 C 0.71892 0.79396 0.14751 0.0
C1132 C 0.79163 0.7651 0.1403 0.0
C1133 C 0.79643 0.71927 0.12073 0.0
N1134 N 0.74114 0.78263 0.14635 0.0
N1135 N 0.77439 0.73108 0.12084 0.0
H1136 H 0.20622 0.06424 0.28421 0.0
H1137 H 0.29244 0.14035 0.20209 0.0
H1138 H 0.22594 0.13858 0.30054 0.0
H1139 H 0.30103 0.06283 0.2135 0.0
H1140 H 0.26342 0.14217 0.23385 0.0
H1141 H 0.23484 0.06542 0.25249 0.0
C1142 C 0.21632 0.08094 0.2808 0.0
C1143 C 0.21398 0.10127 0.295 0.0
C1144 C 0.27177 0.12482 0.2294 0.0
C1145 C 0.24663 0.10282 0.25882 0.0
C1146 C 0.28833 0.1238 0.21142 0.0
C1147 C 0.29873 0.10133 0.20504 0.0
C1148 C 0.26537 0.10312 0.24072 0.0
C1149 C 0.29303 0.08041 0.2177 0.0
C1150 C 0.23278 0.08155 0.26289 0.0
C1151 C 0.22737 0.12254 0.28993 0.0
N1152 N 0.27645 0.08173 0.23467 0.0
N1153 N 0.24321 0.1228 0.27222 0.0
H1154 H 0.42171 0.32531 0.73329 0.0
H1155 H 0.4199 0.18877 0.76885 0.0
H1156 H 0.39327 0.27214 0.68665 0.0
H1157 H 0.39206 0.24295 0.81483 0.0
H1158 H 0.41532 0.21839 0.73815 0.0
H1159 H 0.41622 0.29553 0.7637 0.0
C1160 C 0.41346 0.30773 0.72955 0.0
C1161 C 0.40697 0.30155 0.70752 0.0
C1162 C 0.4097 0.22355 0.75489 0.0
C1163 C 0.40244 0.26682 0.74197 0.0
C1164 C 0.41194 0.20654 0.77237 0.0
C1165 C 0.40548 0.2131 0.79433 0.0
C1166 C 0.40198 0.24758 0.75957 0.0
C1167 C 0.39682 0.23704 0.79807 0.0
C1168 C 0.4107 0.29061 0.74687 0.0
C1169 C 0.39803 0.27776 0.70349 0.0
N1170 N 0.3957 0.25354 0.78097 0.0
N1171 N 0.39636 0.26114 0.72046 0.0
H1172 H 0.22402 0.37592 0.20213 0.0
H1173 H 0.3095 0.45068 0.28562 0.0
H1174 H 0.2143 0.45291 0.21551 0.0
H1175 H 0.29079 0.37567 0.30042 0.0
H1176 H 0.28071 0.45003 0.25405 0.0
H1177 H 0.25312 0.37352 0.23378 0.0
C1178 C 0.22788 0.39221 0.21189 0.0
C1179 C 0.21715 0.41472 0.20611 0.0
C1180 C 0.28302 0.43364 0.26409 0.0
C1181 C 0.25058 0.4123 0.24164 0.0
C1182 C 0.29957 0.43395 0.28191 0.0
C1183 C 0.30225 0.41327 0.29563 0.0
C1184 C 0.26941 0.41232 0.25964 0.0
C1185 C 0.28909 0.39198 0.29018 0.0
C1186 C 0.24448 0.39087 0.2298 0.0
C1187 C 0.22254 0.43531 0.21927 0.0
N1188 N 0.27315 0.39201 0.27257 0.0
N1189 N 0.23917 0.43371 0.23616 0.0
H1190 H 0.14123 0.22374 0.70236 0.0
H1191 H 0.06595 0.31028 0.78446 0.0
H1192 H 0.06403 0.21447 0.71503 0.0
H1193 H 0.14024 0.29043 0.80084 0.0
H1194 H 0.06697 0.28143 0.75294 0.0
H1195 H 0.14338 0.25295 0.73394 0.0
C1196 C 0.12484 0.22772 0.71195 0.0
C1197 C 0.10234 0.21708 0.70599 0.0
C1198 C 0.08314 0.28353 0.7633 0.0
C1199 C 0.1045 0.25065 0.74141 0.0
C1200 C 0.08262 0.30011 0.78109 0.0
C1201 C 0.10298 0.30248 0.79523 0.0
C1202 C 0.10434 0.26956 0.75933 0.0
C1203 C 0.12419 0.28898 0.79025 0.0
C1204 C 0.12604 0.24438 0.72982 0.0
C1205 C 0.08162 0.22263 0.71894 0.0
N1206 N 0.12436 0.27301 0.77266 0.0
N1207 N 0.0831 0.23933 0.73577 0.0
H1208 H 0.74396 0.89159 0.81643 0.0
H1209 H 0.77278 0.89204 0.68578 0.0
H1210 H 0.69105 0.91823 0.76864 0.0
H1211 H 0.82539 0.91923 0.73355 0.0
H1212 H 0.74261 0.88785 0.71617 0.0
H1213 H 0.77424 0.88796 0.78605 0.0
C1214 C 0.73849 0.89593 0.79943 0.0
C1215 C 0.7147 0.90455 0.79498 0.0
C1216 C 0.76097 0.89414 0.72001 0.0
C1217 C 0.74914 0.90031 0.76027 0.0
C1218 C 0.77821 0.89639 0.70278 0.0
C1219 C 0.80189 0.90533 0.70721 0.0
C1220 C 0.76756 0.90046 0.74195 0.0
C1221 C 0.80779 0.91125 0.72946 0.0
C1222 C 0.75579 0.89401 0.78221 0.0
C1223 C 0.70875 0.91048 0.77274 0.0
N1224 N 0.79078 0.90861 0.74603 0.0
N1225 N 0.72582 0.90815 0.75619 0.0
H1226 H 0.56244 0.71125 0.2863 0.0
H1227 H 0.64038 0.79297 0.202 0.0
H1228 H 0.63854 0.72595 0.3001 0.0
H1229 H 0.56393 0.80604 0.21558 0.0
H1230 H 0.6417 0.76416 0.23394 0.0
H1231 H 0.56402 0.74034 0.25496 0.0
C1232 C 0.57956 0.72045 0.28248 0.0
C1233 C 0.60029 0.71658 0.29588 0.0
C1234 C 0.62473 0.7735 0.22998 0.0
C1235 C 0.60235 0.74965 0.26004 0.0
C1236 C 0.624 0.78996 0.2119 0.0
C1237 C 0.60195 0.80158 0.20613 0.0
C1238 C 0.60311 0.76843 0.24197 0.0
C1239 C 0.5812 0.79719 0.21942 0.0
C1240 C 0.58042 0.73714 0.26476 0.0
C1241 C 0.62214 0.72867 0.29017 0.0
N1242 N 0.58218 0.78068 0.23647 0.0
N1243 N 0.62264 0.74475 0.27264 0.0
H1244 H 0.79323 0.64195 0.80005 0.0
H1245 H 0.70716 0.56689 0.71789 0.0
H1246 H 0.80466 0.56548 0.7854 0.0
H1247 H 0.72621 0.64138 0.70133 0.0
H1248 H 0.73659 0.56803 0.74897 0.0
H1249 H 0.76389 0.64427 0.76856 0.0
C1250 C 0.78977 0.62579 0.78999 0.0
C1251 C 0.80106 0.60343 0.79535 0.0
C1252 C 0.73418 0.5842 0.73866 0.0
C1253 C 0.76726 0.60572 0.76012 0.0
C1254 C 0.71727 0.58363 0.72113 0.0
C1255 C 0.71453 0.604 0.70704 0.0
C1256 C 0.74806 0.6055 0.74247 0.0
C1257 C 0.72795 0.62531 0.71187 0.0
C1258 C 0.77301 0.62708 0.77219 0.0
C1259 C 0.79607 0.58297 0.78189 0.0
N1260 N 0.74423 0.62555 0.72924 0.0
N1261 N 0.77923 0.58448 0.76517 0.0
H1262 H 0.95258 0.80343 0.28868 0.0
H1263 H 0.87521 0.72455 0.20206 0.0
H1264 H 0.87568 0.7909 0.30048 0.0
H1265 H 0.9507 0.70898 0.2177 0.0
H1266 H 0.87363 0.75302 0.23421 0.0
H1267 H 0.95122 0.77433 0.2574 0.0
C1268 C 0.93536 0.79466 0.28447 0.0
C1269 C 0.91432 0.79914 0.29731 0.0
C1270 C 0.89044 0.74317 0.23067 0.0
C1271 C 0.9125 0.76611 0.26146 0.0
C1272 C 0.8913 0.72691 0.21248 0.0
C1273 C 0.91318 0.71467 0.20724 0.0
C1274 C 0.91176 0.74746 0.24331 0.0
C1275 C 0.93357 0.71827 0.22115 0.0
C1276 C 0.93461 0.77798 0.26677 0.0
C1277 C 0.89232 0.78768 0.29103 0.0
N1278 N 0.9325 0.73463 0.2383 0.0
N1279 N 0.89194 0.77161 0.27351 0.0
H1280 H 0.41106 0.9988 0.10223 0.0
H1281 H 0.51287 0.92578 0.17334 0.0
H1282 H 0.42463 0.01277 0.17225 0.0
H1283 H 0.49718 0.91214 0.10362 0.0
H1284 H 0.47994 0.95643 0.17398 0.0
H1285 H 0.44183 0.96632 0.10306 0.0
C1286 C 0.42052 0.99513 0.11782 0.0
C1287 C 0.41518 0.00888 0.13716 0.0
C1288 C 0.48366 0.94667 0.15856 0.0
C1289 C 0.45071 0.97113 0.13826 0.0
C1290 C 0.50242 0.92898 0.1582 0.0
C1291 C 0.50811 0.91624 0.13835 0.0
C1292 C 0.4703 0.95176 0.13894 0.0
C1293 C 0.49395 0.92165 0.11925 0.0
C1294 C 0.43809 0.9764 0.1183 0.0
C1295 C 0.42787 1.00268 0.15693 0.0
N1296 N 0.47589 0.93891 0.12003 0.0
N1297 N 0.44506 0.98443 0.15694 0.0
H1298 H 0.58975 0.51573 0.67521 0.0
H1299 H 0.51848 0.4108 0.60656 0.0
H1300 H 0.60512 0.49686 0.60646 0.0
H1301 H 0.50112 0.42913 0.67505 0.0
H1302 H 0.55123 0.44126 0.60705 0.0
H1303 H 0.55874 0.48313 0.67638 0.0
C1304 C 0.58684 0.50464 0.66041 0.0
C1305 C 0.60017 0.50932 0.64065 0.0
C1306 C 0.54035 0.43863 0.62203 0.0
C1307 C 0.56429 0.47191 0.64185 0.0
C1308 C 0.52145 0.42125 0.62174 0.0
C1309 C 0.50667 0.41735 0.64074 0.0
C1310 C 0.54476 0.45249 0.64146 0.0
C1311 C 0.51202 0.43125 0.66002 0.0
C1312 C 0.56896 0.48609 0.66107 0.0
C1313 C 0.59516 0.49439 0.62197 0.0
N1314 N 0.53047 0.44822 0.65984 0.0
N1315 N 0.57771 0.47652 0.62304 0.0
H1316 H 0.09126 0.50346 0.17456 0.0
H1317 H 0.01952 0.60681 0.10416 0.0
H1318 H 0.10477 0.51935 0.10484 0.0
H1319 H 1.00293 0.5904 0.17323 0.0
H1320 H 0.05195 0.57603 0.10496 0.0
H1321 H 0.06055 0.53636 0.17531 0.0
C1322 C 0.088 0.51395 0.15945 0.0
C1323 C 0.10072 0.50835 0.13957 0.0
C1324 C 0.0413 0.57915 0.12 0.0
C1325 C 0.06519 0.54613 0.14029 0.0
C1326 C 0.02259 0.59673 0.11953 0.0
C1327 C 0.0081 0.60127 0.1386 0.0
C1328 C 0.04585 0.56574 0.13968 0.0
C1329 C 0.0136 0.5878 0.15813 0.0
C1330 C 0.07029 0.53268 0.15987 0.0
C1331 C 0.09529 0.52256 0.12049 0.0
N1332 N 0.03187 0.57064 0.15813 0.0
N1333 N 0.07803 0.54062 0.12134 0.0
H1334 H 0.92847 1.00111 0.67571 0.0
H1335 H 0.99762 0.10566 0.60471 0.0
H1336 H 0.91025 0.02036 0.60759 0.0
H1337 H 0.01398 0.0908 0.67409 0.0
H1338 H 0.96525 0.07478 0.60598 0.0
H1339 H 0.95898 0.03418 0.67609 0.0
C1340 C 0.93064 0.01236 0.66089 0.0
C1341 C 0.91667 1.00763 0.64153 0.0
C1342 C 0.97582 0.07827 0.62099 0.0
C1343 C 0.95203 0.04556 0.64181 0.0
C1344 C 0.99448 0.0959 0.62025 0.0
C1345 C 0.00884 0.1009 0.63928 0.0
C1346 C 0.97129 0.06523 0.6409 0.0
C1347 C 1.00337 0.08781 0.65902 0.0
C1348 C 0.94824 0.0312 0.66109 0.0
C1349 C 0.92076 0.02281 0.6228 0.0
N1350 N 0.9852 0.07054 0.65927 0.0
N1351 N 0.938 0.0409 0.6234 0.0
H1352 H 0.51232 0.59116 0.32833 0.0
H1353 H 0.4097 0.51875 0.39913 0.0
H1354 H 0.49642 0.60482 0.398 0.0
H1355 H 0.4255 0.50272 0.32986 0.0
H1356 H 0.44032 0.55136 0.39824 0.0
H1357 H 0.47955 0.56029 0.32771 0.0
C1358 C 0.50185 0.58791 0.34346 0.0
C1359 C 0.50741 0.60071 0.36329 0.0
C1360 C 0.4371 0.54079 0.38318 0.0
C1361 C 0.4698 0.56499 0.36272 0.0
C1362 C 0.41961 0.52198 0.3837 0.0
C1363 C 0.41495 0.50761 0.36459 0.0
C1364 C 0.45029 0.54555 0.36341 0.0
C1365 C 0.4282 0.5133 0.34499 0.0
C1366 C 0.4832 0.5701 0.34311 0.0
C1367 C 0.49325 0.59527 0.38239 0.0
N1368 N 0.44528 0.53166 0.34494 0.0
N1369 N 0.47527 0.57792 0.38162 0.0
H1370 H 0.99583 0.40899 0.89798 0.0
H1371 H 0.9253 0.51332 0.82783 0.0
H1372 H 0.01325 0.42608 0.82922 0.0
H1373 H 0.91003 0.49585 0.89693 0.0
H1374 H 0.95599 0.4804 0.8271 0.0
H1375 H 0.96329 0.43965 0.89706 0.0
C1376 C 0.99291 0.4192 0.88265 0.0
C1377 C 1.00764 0.4149 0.86371 0.0
C1378 C 0.94585 0.48373 0.84239 0.0
C1379 C 0.96982 0.45028 0.86248 0.0
C1380 C 0.92816 0.50246 0.8428 0.0
C1381 C 0.91497 0.50763 0.86252 0.0
C1382 C 0.95047 0.46986 0.86183 0.0
C1383 C 0.91989 0.49298 0.88143 0.0
C1384 C 0.97414 0.43671 0.88212 0.0
C1385 C 1.00237 0.42851 0.84422 0.0
N1386 N 0.93716 0.47494 0.8806 0.0
N1387 N 0.98405 0.44561 0.84416 0.0
H1388 H 1.0023 0.9244 0.32877 0.0
H1389 H 0.10616 0.99562 0.39891 0.0
H1390 H 0.01752 0.91151 0.3987 0.0
H1391 H 0.08975 0.01226 0.32986 0.0
H1392 H 0.07504 0.96349 0.39826 0.0
H1393 H 0.03547 0.95484 0.32792 0.0
C1394 C 0.0127 0.92774 0.34391 0.0
C1395 C 1.00684 0.91528 0.36388 0.0
C1396 C 0.07823 0.9741 0.38319 0.0
C1397 C 0.04494 0.95048 0.36303 0.0
C1398 C 0.09601 0.99264 0.38357 0.0
C1399 C 0.10065 1.00705 0.36447 0.0
C1400 C 0.06474 0.96963 0.36355 0.0
C1401 C 0.08709 1.00165 0.34499 0.0
C1402 C 0.03159 0.94529 0.34343 0.0
C1403 C 0.02094 0.9208 0.38298 0.0
N1404 N 0.06975 0.98354 0.34507 0.0
N1405 N 0.03917 0.93789 0.38207 0.0
H1406 H 0.58644 0.99844 0.82538 0.0
H1407 H 0.51986 0.1063 0.89418 0.0
H1408 H 0.60554 0.01932 0.89284 0.0
H1409 H 0.4991 0.08623 0.82692 0.0
H1410 H 0.55222 0.07544 0.89313 0.0
H1411 H 0.55581 0.0314 0.82465 0.0
C1412 C 0.58442 0.01004 0.83997 0.0
C1413 C 0.59867 1.00581 0.85926 0.0
C1414 C 0.54067 0.07778 0.87854 0.0
C1415 C 0.56325 0.04365 0.85858 0.0
C1416 C 0.52201 0.0954 0.87916 0.0
C1417 C 0.5064 0.09893 0.86067 0.0
C1418 C 0.544 0.06332 0.85929 0.0
C1419 C 0.51068 0.08442 0.84154 0.0
C1420 C 0.56676 0.0288 0.83958 0.0
C1421 C 0.59482 0.02142 0.87771 0.0
N1422 N 0.52891 0.06723 0.8414 0.0
N1423 N 0.57756 0.03947 0.87691 0.0
loop_
_geom_bond_atom_site_label_1
_geom_bond_atom_site_label_2
_geom_bond_distance
_geom_bond_site_symmetry_2
_ccdc_geom_bond_type
C0 C1 1.443 . S
C0 N4 1.376 . S
C0 C38 1.389 . S
C1 C0 1.443 . S
C1 C2 1.340 . S
C1 H41 0.951 . S
C2 C1 1.340 . S
C2 C3 1.439 . S
C2 H42 0.950 . S
C3 C2 1.439 . S
C3 N4 1.374 . S
C3 C37 1.395 . S
N4 C0 1.376 . S
N4 C3 1.374 . S
N4 Co5 2.008 . S
Co5 N4 2.008 . S
Co5 N6 1.995 . S
Co5 N11 2.008 . S
Co5 N16 1.995 . S
Co5 N21 2.282 . S
Co5 N27 2.282 . S
N6 Co5 1.995 . S
N6 C7 1.376 . S
N6 C10 1.383 . S
C7 N6 1.376 . S
C7 C8 1.446 . S
C7 C37 1.391 . S
C8 C7 1.446 . S
C8 C9 1.339 . S
C8 H43 0.949 . S
C9 C8 1.339 . S
C9 C10 1.439 . S
C9 H44 0.950 . S
C10 N6 1.383 . S
C10 C9 1.439 . S
C10 C39 1.392 . S
N11 Co5 2.008 . S
N11 C12 1.376 . S
N11 C15 1.374 . S
C12 N11 1.376 . S
C12 C13 1.443 . S
C12 C39 1.389 . S
C13 C12 1.443 . S
C13 C14 1.340 . S
C13 H45 0.951 . S
C14 C13 1.340 . S
C14 C15 1.439 . S
C14 H46 0.950 . S
C15 N11 1.374 . S
C15 C14 1.439 . S
C15 C40 1.395 . S
N16 Co5 1.995 . S
N16 C17 1.376 . S
N16 C20 1.383 . S
C17 N16 1.376 . S
C17 C18 1.446 . S
C17 C40 1.391 . S
C18 C17 1.446 . S
C18 C19 1.339 . S
C18 H47 0.949 . S
C19 C18 1.339 . S
C19 C20 1.439 . S
C19 H48 0.950 . S
C20 N16 1.383 . S
C20 C19 1.439 . S
C20 C38 1.392 . S
N21 Co5 2.282 . S
N21 C24 1.332 . S
N21 C26 1.332 . S
C22 C23 1.386 . S
C22 C25 1.388 . S
C23 C22 1.386 . S
C23 C24 1.382 . S
C23 H49 0.950 . S
C24 N21 1.332 . S
C24 C23 1.382 . S
C24 H35 0.952 . S
C25 C22 1.388 . S
C25 C26 1.382 . S
C25 H50 0.950 . S
C26 N21 1.332 . S
C26 C25 1.382 . S
C26 H36 0.948 . S
N27 Co5 2.282 . S
N27 C31 1.332 . S
N27 C32 1.332 . S
C28 C29 1.388 . S
C28 C32 1.382 . S
C28 H51 0.950 . S
C29 C28 1.388 . S
C29 C30 1.386 . S
C30 C29 1.386 . S
C30 C31 1.382 . S
C30 H52 0.950 . S
C31 N27 1.332 . S
C31 C30 1.382 . S
C31 H33 0.952 . S
C32 N27 1.332 . S
C32 C28 1.382 . S
C32 H34 0.948 . S
H33 C31 0.952 . S
H34 C32 0.948 . S
H35 C24 0.952 . S
H36 C26 0.948 . S
C37 C3 1.395 . S
C37 C7 1.391 . S
C38 C0 1.389 . S
C38 C20 1.392 . S
C39 C10 1.392 . S
C39 C12 1.389 . S
C40 C15 1.395 . S
C40 C17 1.391 . S
H41 C1 0.951 . S
H42 C2 0.950 . S
H43 C8 0.949 . S
H44 C9 0.950 . S
H45 C13 0.951 . S
H46 C14 0.950 . S
H47 C18 0.949 . S
H48 C19 0.950 . S
H49 C23 0.950 . S
H50 C25 0.950 . S
H51 C28 0.950 . S
H52 C30 0.950 . S
C53 C54 1.443 . S
C53 N57 1.376 . S
C53 C91 1.389 . S
C54 C53 1.443 . S
C54 C55 1.340 . S
C54 H94 0.951 . S
C55 C54 1.340 . S
C55 C56 1.439 . S
C55 H95 0.950 . S
C56 C55 1.439 . S
C56 N57 1.374 . S
C56 C90 1.395 . S
N57 C53 1.376 . S
N57 C56 1.374 . S
N57 Co58 2.008 . S
Co58 N57 2.008 . S
Co58 N59 1.995 . S
Co58 N64 2.008 . S
Co58 N69 1.995 . S
Co58 N74 2.282 . S
Co58 N80 2.282 . S
N59 Co58 1.995 . S
N59 C60 1.376 . S
N59 C63 1.383 . S
C60 N59 1.376 . S
C60 C61 1.446 . S
C60 C90 1.391 . S
C61 C60 1.446 . S
C61 C62 1.339 . S
C61 H96 0.949 . S
C62 C61 1.339 . S
C62 C63 1.439 . S
C62 H97 0.950 . S
C63 N59 1.383 . S
C63 C62 1.439 . S
C63 C92 1.392 . S
N64 Co58 2.008 . S
N64 C65 1.376 . S
N64 C68 1.374 . S
C65 N64 1.376 . S
C65 C66 1.443 . S
C65 C92 1.389 . S
C66 C65 1.443 . S
C66 C67 1.340 . S
C66 H98 0.951 . S
C67 C66 1.340 . S
C67 C68 1.439 . S
C67 H99 0.950 . S
C68 N64 1.374 . S
C68 C67 1.439 . S
C68 C93 1.395 . S
N69 Co58 1.995 . S
N69 C70 1.376 . S
N69 C73 1.383 . S
C70 N69 1.376 . S
C70 C71 1.446 . S
C70 C93 1.391 . S
C71 C70 1.446 . S
C71 C72 1.339 . S
C71 H100 0.949 . S
C72 C71 1.339 . S
C72 C73 1.439 . S
C72 H101 0.950 . S
C73 N69 1.383 . S
C73 C72 1.439 . S
C73 C91 1.392 . S
N74 Co58 2.282 . S
N74 C77 1.332 . S
N74 C79 1.332 . S
C75 C76 1.386 . S
C75 C78 1.388 . S
C76 C75 1.386 . S
C76 C77 1.382 . S
C76 H102 0.950 . S
C77 N74 1.332 . S
C77 C76 1.382 . S
C77 H88 0.952 . S
C78 C75 1.388 . S
C78 C79 1.382 . S
C78 H103 0.950 . S
C79 N74 1.332 . S
C79 C78 1.382 . S
C79 H89 0.948 . S
N80 Co58 2.282 . S
N80 C84 1.332 . S
N80 C85 1.332 . S
C81 C82 1.388 . S
C81 C85 1.382 . S
C81 H104 0.950 . S
C82 C81 1.388 . S
C82 C83 1.386 . S
C83 C82 1.386 . S
C83 C84 1.382 . S
C83 H105 0.950 . S
C84 N80 1.332 . S
C84 C83 1.382 . S
C84 H86 0.952 . S
C85 N80 1.332 . S
C85 C81 1.382 . S
C85 H87 0.948 . S
H86 C84 0.952 . S
H87 C85 0.948 . S
H88 C77 0.952 . S
H89 C79 0.948 . S
C90 C56 1.395 . S
C90 C60 1.391 . S
C91 C53 1.389 . S
C91 C73 1.392 . S
C92 C63 1.392 . S
C92 C65 1.389 . S
C93 C68 1.395 . S
C93 C70 1.391 . S
H94 C54 0.951 . S
H95 C55 0.950 . S
H96 C61 0.949 . S
H97 C62 0.950 . S
H98 C66 0.951 . S
H99 C67 0.950 . S
H100 C71 0.949 . S
H101 C72 0.950 . S
H102 C76 0.950 . S
H103 C78 0.950 . S
H104 C81 0.950 . S
H105 C83 0.950 . S
C106 C107 1.443 . S
C106 N110 1.376 . S
C106 C144 1.389 . S
C107 C106 1.443 . S
C107 C108 1.340 . S
C107 H147 0.951 . S
C108 C107 1.340 . S
C108 C109 1.439 . S
C108 H148 0.950 . S
C109 C108 1.439 . S
C109 N110 1.374 . S
C109 C143 1.395 . S
N110 C106 1.376 . S
N110 C109 1.374 . S
N110 Co111 2.008 . S
Co111 N110 2.008 . S
Co111 N112 1.995 . S
Co111 N117 2.008 . S
Co111 N122 1.995 . S
Co111 N127 2.282 . S
Co111 N133 2.282 . S
N112 Co111 1.995 . S
N112 C113 1.376 . S
N112 C116 1.383 . S
C113 N112 1.376 . S
C113 C114 1.446 . S
C113 C143 1.391 . S
C114 C113 1.446 . S
C114 C115 1.339 . S
C114 H149 0.949 . S
C115 C114 1.339 . S
C115 C116 1.439 . S
C115 H150 0.950 . S
C116 N112 1.383 . S
C116 C115 1.439 . S
C116 C145 1.392 . S
N117 Co111 2.008 . S
N117 C118 1.376 . S
N117 C121 1.374 . S
C118 N117 1.376 . S
C118 C119 1.443 . S
C118 C145 1.389 . S
C119 C118 1.443 . S
C119 C120 1.340 . S
C119 H151 0.951 . S
C120 C119 1.340 . S
C120 C121 1.439 . S
C120 H152 0.950 . S
C121 N117 1.374 . S
C121 C120 1.439 . S
C121 C146 1.395 . S
N122 Co111 1.995 . S
N122 C123 1.376 . S
N122 C126 1.383 . S
C123 N122 1.376 . S
C123 C124 1.446 . S
C123 C146 1.391 . S
C124 C123 1.446 . S
C124 C125 1.339 . S
C124 H153 0.949 . S
C125 C124 1.339 . S
C125 C126 1.439 . S
C125 H154 0.950 . S
C126 N122 1.383 . S
C126 C125 1.439 . S
C126 C144 1.392 . S
N127 Co111 2.282 . S
N127 C130 1.332 . S
N127 C132 1.332 . S
C128 C129 1.386 . S
C128 C131 1.388 . S
C129 C128 1.386 . S
C129 C130 1.382 . S
C129 H155 0.950 . S
C130 N127 1.332 . S
C130 C129 1.382 . S
C130 H141 0.952 . S
C131 C128 1.388 . S
C131 C132 1.382 . S
C131 H156 0.950 . S
C132 N127 1.332 . S
C132 C131 1.382 . S
C132 H142 0.948 . S
N133 Co111 2.282 . S
N133 C137 1.332 . S
N133 C138 1.332 . S
C134 C135 1.388 . S
C134 C138 1.382 . S
C134 H157 0.950 . S
C135 C134 1.388 . S
C135 C136 1.386 . S
C136 C135 1.386 . S
C136 C137 1.382 . S
C136 H158 0.950 . S
C137 N133 1.332 . S
C137 C136 1.382 . S
C137 H139 0.952 . S
C138 N133 1.332 . S
C138 C134 1.382 . S
C138 H140 0.948 . S
H139 C137 0.952 . S
H140 C138 0.948 . S
H141 C130 0.952 . S
H142 C132 0.948 . S
C143 C109 1.395 . S
C143 C113 1.391 . S
C144 C106 1.389 . S
C144 C126 1.392 . S
C145 C116 1.392 . S
C145 C118 1.389 . S
C146 C121 1.395 . S
C146 C123 1.391 . S
H147 C107 0.951 . S
H148 C108 0.950 . S
H149 C114 0.949 . S
H150 C115 0.950 . S
H151 C119 0.951 . S
H152 C120 0.950 . S
H153 C124 0.949 . S
H154 C125 0.950 . S
H155 C129 0.950 . S
H156 C131 0.950 . S
H157 C134 0.950 . S
H158 C136 0.950 . S
C159 C160 1.443 . S
C159 N163 1.376 . S
C159 C197 1.389 . S
C160 C159 1.443 . S
C160 C161 1.340 . S
C160 H200 0.951 . S
C161 C160 1.340 . S
C161 C162 1.439 . S
C161 H201 0.950 . S
C162 C161 1.439 . S
C162 N163 1.374 . S
C162 C196 1.395 . S
N163 C159 1.376 . S
N163 C162 1.374 . S
N163 Co164 2.008 . S
Co164 N163 2.008 . S
Co164 N165 1.995 . S
Co164 N170 2.008 . S
Co164 N175 1.995 . S
Co164 N180 2.282 . S
Co164 N186 2.282 . S
N165 Co164 1.995 . S
N165 C166 1.376 . S
N165 C169 1.383 . S
C166 N165 1.376 . S
C166 C167 1.446 . S
C166 C196 1.391 . S
C167 C166 1.446 . S
C167 C168 1.339 . S
C167 H202 0.949 . S
C168 C167 1.339 . S
C168 C169 1.439 . S
C168 H203 0.950 . S
C169 N165 1.383 . S
C169 C168 1.439 . S
C169 C198 1.392 . S
N170 Co164 2.008 . S
N170 C171 1.376 . S
N170 C174 1.374 . S
C171 N170 1.376 . S
C171 C172 1.443 . S
C171 C198 1.389 . S
C172 C171 1.443 . S
C172 C173 1.340 . S
C172 H204 0.951 . S
C173 C172 1.340 . S
C173 C174 1.439 . S
C173 H205 0.950 . S
C174 N170 1.374 . S
C174 C173 1.439 . S
C174 C199 1.395 . S
N175 Co164 1.995 . S
N175 C176 1.376 . S
N175 C179 1.383 . S
C176 N175 1.376 . S
C176 C177 1.446 . S
C176 C199 1.391 . S
C177 C176 1.446 . S
C177 C178 1.339 . S
C177 H206 0.949 . S
C178 C177 1.339 . S
C178 C179 1.439 . S
C178 H207 0.950 . S
C179 N175 1.383 . S
C179 C178 1.439 . S
C179 C197 1.392 . S
N180 Co164 2.282 . S
N180 C183 1.332 . S
N180 C185 1.332 . S
C181 C182 1.386 . S
C181 C184 1.388 . S
C182 C181 1.386 . S
C182 C183 1.382 . S
C182 H208 0.950 . S
C183 N180 1.332 . S
C183 C182 1.382 . S
C183 H194 0.952 . S
C184 C181 1.388 . S
C184 C185 1.382 . S
C184 H209 0.950 . S
C185 N180 1.332 . S
C185 C184 1.382 . S
C185 H195 0.948 . S
N186 Co164 2.282 . S
N186 C190 1.332 . S
N186 C191 1.332 . S
C187 C188 1.388 . S
C187 C191 1.382 . S
C187 H210 0.950 . S
C188 C187 1.388 . S
C188 C189 1.386 . S
C189 C188 1.386 . S
C189 C190 1.382 . S
C189 H211 0.950 . S
C190 N186 1.332 . S
C190 C189 1.382 . S
C190 H192 0.952 . S
C191 N186 1.332 . S
C191 C187 1.382 . S
C191 H193 0.948 . S
H192 C190 0.952 . S
H193 C191 0.948 . S
H194 C183 0.952 . S
H195 C185 0.948 . S
C196 C162 1.395 . S
C196 C166 1.391 . S
C197 C159 1.389 . S
C197 C179 1.392 . S
C198 C169 1.392 . S
C198 C171 1.389 . S
C199 C174 1.395 . S
C199 C176 1.391 . S
H200 C160 0.951 . S
H201 C161 0.950 . S
H202 C167 0.949 . S
H203 C168 0.950 . S
H204 C172 0.951 . S
H205 C173 0.950 . S
H206 C177 0.949 . S
H207 C178 0.950 . S
H208 C182 0.950 . S
H209 C184 0.950 . S
H210 C187 0.950 . S
H211 C189 0.950 . S
C212 C213 1.443 . S
C212 N216 1.376 . S
C212 C250 1.389 . S
C213 C212 1.443 . S
C213 C214 1.340 . S
C213 H253 0.951 . S
C214 C213 1.340 . S
C214 C215 1.439 . S
C214 H254 0.950 . S
C215 C214 1.439 . S
C215 N216 1.374 . S
C215 C249 1.395 . S
N216 C212 1.376 . S
N216 C215 1.374 . S
N216 Co217 2.008 . S
Co217 N216 2.008 . S
Co217 N218 1.995 . S
Co217 N223 2.008 . S
Co217 N228 1.995 . S
Co217 N233 2.282 . S
Co217 N239 2.282 . S
N218 Co217 1.995 . S
N218 C219 1.376 . S
N218 C222 1.383 . S
C219 N218 1.376 . S
C219 C220 1.446 . S
C219 C249 1.391 . S
C220 C219 1.446 . S
C220 C221 1.339 . S
C220 H255 0.949 . S
C221 C220 1.339 . S
C221 C222 1.439 . S
C221 H256 0.950 . S
C222 N218 1.383 . S
C222 C221 1.439 . S
C222 C251 1.392 . S
N223 Co217 2.008 . S
N223 C224 1.376 . S
N223 C227 1.374 . S
C224 N223 1.376 . S
C224 C225 1.443 . S
C224 C251 1.389 . S
C225 C224 1.443 . S
C225 C226 1.340 . S
C225 H257 0.951 . S
C226 C225 1.340 . S
C226 C227 1.439 . S
C226 H258 0.950 . S
C227 N223 1.374 . S
C227 C226 1.439 . S
C227 C252 1.395 . S
N228 Co217 1.995 . S
N228 C229 1.376 . S
N228 C232 1.383 . S
C229 N228 1.376 . S
C229 C230 1.446 . S
C229 C252 1.391 . S
C230 C229 1.446 . S
C230 C231 1.339 . S
C230 H259 0.949 . S
C231 C230 1.339 . S
C231 C232 1.439 . S
C231 H260 0.950 . S
C232 N228 1.383 . S
C232 C231 1.439 . S
C232 C250 1.392 . S
N233 Co217 2.282 . S
N233 C236 1.332 . S
N233 C238 1.332 . S
C234 C235 1.386 . S
C234 C237 1.388 . S
C235 C234 1.386 . S
C235 C236 1.382 . S
C235 H261 0.950 . S
C236 N233 1.332 . S
C236 C235 1.382 . S
C236 H247 0.952 . S
C237 C234 1.388 . S
C237 C238 1.382 . S
C237 H262 0.950 . S
C238 N233 1.332 . S
C238 C237 1.382 . S
C238 H248 0.948 . S
N239 Co217 2.282 . S
N239 C243 1.332 . S
N239 C244 1.332 . S
C240 C241 1.388 . S
C240 C244 1.382 . S
C240 H263 0.950 . S
C241 C240 1.388 . S
C241 C242 1.386 . S
C242 C241 1.386 . S
C242 C243 1.382 . S
C242 H264 0.950 . S
C243 N239 1.332 . S
C243 C242 1.382 . S
C243 H245 0.952 . S
C244 N239 1.332 . S
C244 C240 1.382 . S
C244 H246 0.948 . S
H245 C243 0.952 . S
H246 C244 0.948 . S
H247 C236 0.952 . S
H248 C238 0.948 . S
C249 C215 1.395 . S
C249 C219 1.391 . S
C250 C212 1.389 . S
C250 C232 1.392 . S
C251 C222 1.392 . S
C251 C224 1.389 . S
C252 C227 1.395 . S
C252 C229 1.391 . S
H253 C213 0.951 . S
H254 C214 0.950 . S
H255 C220 0.949 . S
H256 C221 0.950 . S
H257 C225 0.951 . S
H258 C226 0.950 . S
H259 C230 0.949 . S
H260 C231 0.950 . S
H261 C235 0.950 . S
H262 C237 0.950 . S
H263 C240 0.950 . S
H264 C242 0.950 . S
C265 C266 1.443 . S
C265 N269 1.376 . S
C265 C303 1.389 . S
C266 C265 1.443 . S
C266 C267 1.340 . S
C266 H306 0.951 . S
C267 C266 1.340 . S
C267 C268 1.439 . S
C267 H307 0.950 . S
C268 C267 1.439 . S
C268 N269 1.374 . S
C268 C302 1.395 . S
N269 C265 1.376 . S
N269 C268 1.374 . S
N269 Co270 2.008 . S
Co270 N269 2.008 . S
Co270 N271 1.995 . S
Co270 N276 2.008 . S
Co270 N281 1.995 . S
Co270 N286 2.282 . S
Co270 N292 2.282 . S
N271 Co270 1.995 . S
N271 C272 1.376 . S
N271 C275 1.383 . S
C272 N271 1.376 . S
C272 C273 1.446 . S
C272 C302 1.391 . S
C273 C272 1.446 . S
C273 C274 1.339 . S
C273 H308 0.949 . S
C274 C273 1.339 . S
C274 C275 1.439 . S
C274 H309 0.950 . S
C275 N271 1.383 . S
C275 C274 1.439 . S
C275 C304 1.392 . S
N276 Co270 2.008 . S
N276 C277 1.376 . S
N276 C280 1.374 . S
C277 N276 1.376 . S
C277 C278 1.443 . S
C277 C304 1.389 . S
C278 C277 1.443 . S
C278 C279 1.340 . S
C278 H310 0.951 . S
C279 C278 1.340 . S
C279 C280 1.439 . S
C279 H311 0.950 . S
C280 N276 1.374 . S
C280 C279 1.439 . S
C280 C305 1.395 . S
N281 Co270 1.995 . S
N281 C282 1.376 . S
N281 C285 1.383 . S
C282 N281 1.376 . S
C282 C283 1.446 . S
C282 C305 1.391 . S
C283 C282 1.446 . S
C283 C284 1.339 . S
C283 H312 0.949 . S
C284 C283 1.339 . S
C284 C285 1.439 . S
C284 H313 0.950 . S
C285 N281 1.383 . S
C285 C284 1.439 . S
C285 C303 1.392 . S
N286 Co270 2.282 . S
N286 C289 1.332 . S
N286 C291 1.332 . S
C287 C288 1.386 . S
C287 C290 1.388 . S
C288 C287 1.386 . S
C288 C289 1.382 . S
C288 H314 0.950 . S
C289 N286 1.332 . S
C289 C288 1.382 . S
C289 H300 0.952 . S
C290 C287 1.388 . S
C290 C291 1.382 . S
C290 H315 0.950 . S
C291 N286 1.332 . S
C291 C290 1.382 . S
C291 H301 0.948 . S
N292 Co270 2.282 . S
N292 C296 1.332 . S
N292 C297 1.332 . S
C293 C294 1.388 . S
C293 C297 1.382 . S
C293 H316 0.950 . S
C294 C293 1.388 . S
C294 C295 1.386 . S
C295 C294 1.386 . S
C295 C296 1.382 . S
C295 H317 0.950 . S
C296 N292 1.332 . S
C296 C295 1.382 . S
C296 H298 0.952 . S
C297 N292 1.332 . S
C297 C293 1.382 . S
C297 H299 0.948 . S
H298 C296 0.952 . S
H299 C297 0.948 . S
H300 C289 0.952 . S
H301 C291 0.948 . S
C302 C268 1.395 . S
C302 C272 1.391 . S
C303 C265 1.389 . S
C303 C285 1.392 . S
C304 C275 1.392 . S
C304 C277 1.389 . S
C305 C280 1.395 . S
C305 C282 1.391 . S
H306 C266 0.951 . S
H307 C267 0.950 . S
H308 C273 0.949 . S
H309 C274 0.950 . S
H310 C278 0.951 . S
H311 C279 0.950 . S
H312 C283 0.949 . S
H313 C284 0.950 . S
H314 C288 0.950 . S
H315 C290 0.950 . S
H316 C293 0.950 . S
H317 C295 0.950 . S
C318 C319 1.443 . S
C318 N322 1.376 . S
C318 C356 1.389 . S
C319 C318 1.443 . S
C319 C320 1.340 . S
C319 H359 0.951 . S
C320 C319 1.340 . S
C320 C321 1.439 . S
C320 H360 0.950 . S
C321 C320 1.439 . S
C321 N322 1.374 . S
C321 C355 1.395 . S
N322 C318 1.376 . S
N322 C321 1.374 . S
N322 Co323 2.008 . S
Co323 N322 2.008 . S
Co323 N324 1.995 . S
Co323 N329 2.008 . S
Co323 N334 1.995 . S
Co323 N339 2.282 . S
Co323 N345 2.282 . S
N324 Co323 1.995 . S
N324 C325 1.376 . S
N324 C328 1.383 . S
C325 N324 1.376 . S
C325 C326 1.446 . S
C325 C355 1.391 . S
C326 C325 1.446 . S
C326 C327 1.339 . S
C326 H361 0.949 . S
C327 C326 1.339 . S
C327 C328 1.439 . S
C327 H362 0.950 . S
C328 N324 1.383 . S
C328 C327 1.439 . S
C328 C357 1.392 . S
N329 Co323 2.008 . S
N329 C330 1.376 . S
N329 C333 1.374 . S
C330 N329 1.376 . S
C330 C331 1.443 . S
C330 C357 1.389 . S
C331 C330 1.443 . S
C331 C332 1.340 . S
C331 H363 0.951 . S
C332 C331 1.340 . S
C332 C333 1.439 . S
C332 H364 0.950 . S
C333 N329 1.374 . S
C333 C332 1.439 . S
C333 C358 1.395 . S
N334 Co323 1.995 . S
N334 C335 1.376 . S
N334 C338 1.383 . S
C335 N334 1.376 . S
C335 C336 1.446 . S
C335 C358 1.391 . S
C336 C335 1.446 . S
C336 C337 1.339 . S
C336 H365 0.949 . S
C337 C336 1.339 . S
C337 C338 1.439 . S
C337 H366 0.950 . S
C338 N334 1.383 . S
C338 C337 1.439 . S
C338 C356 1.392 . S
N339 Co323 2.282 . S
N339 C342 1.332 . S
N339 C344 1.332 . S
C340 C341 1.386 . S
C340 C343 1.388 . S
C341 C340 1.386 . S
C341 C342 1.382 . S
C341 H367 0.950 . S
C342 N339 1.332 . S
C342 C341 1.382 . S
C342 H353 0.952 . S
C343 C340 1.388 . S
C343 C344 1.382 . S
C343 H368 0.950 . S
C344 N339 1.332 . S
C344 C343 1.382 . S
C344 H354 0.948 . S
N345 Co323 2.282 . S
N345 C349 1.332 . S
N345 C350 1.332 . S
C346 C347 1.388 . S
C346 C350 1.382 . S
C346 H369 0.950 . S
C347 C346 1.388 . S
C347 C348 1.386 . S
C348 C347 1.386 . S
C348 C349 1.382 . S
C348 H370 0.950 . S
C349 N345 1.332 . S
C349 C348 1.382 . S
C349 H351 0.952 . S
C350 N345 1.332 . S
C350 C346 1.382 . S
C350 H352 0.948 . S
H351 C349 0.952 . S
H352 C350 0.948 . S
H353 C342 0.952 . S
H354 C344 0.948 . S
C355 C321 1.395 . S
C355 C325 1.391 . S
C356 C318 1.389 . S
C356 C338 1.392 . S
C357 C328 1.392 . S
C357 C330 1.389 . S
C358 C333 1.395 . S
C358 C335 1.391 . S
H359 C319 0.951 . S
H360 C320 0.950 . S
H361 C326 0.949 . S
H362 C327 0.950 . S
H363 C331 0.951 . S
H364 C332 0.950 . S
H365 C336 0.949 . S
H366 C337 0.950 . S
H367 C341 0.950 . S
H368 C343 0.950 . S
H369 C346 0.950 . S
H370 C348 0.950 . S
C371 C372 1.443 . S
C371 N375 1.376 . S
C371 C409 1.389 . S
C372 C371 1.443 . S
C372 C373 1.340 . S
C372 H412 0.951 . S
C373 C372 1.340 . S
C373 C374 1.439 . S
C373 H413 0.950 . S
C374 C373 1.439 . S
C374 N375 1.374 . S
C374 C408 1.395 . S
N375 C371 1.376 . S
N375 C374 1.374 . S
N375 Co376 2.008 . S
Co376 N375 2.008 . S
Co376 N377 1.995 . S
Co376 N382 2.008 . S
Co376 N387 1.995 . S
Co376 N392 2.282 . S
Co376 N398 2.282 . S
N377 Co376 1.995 . S
N377 C378 1.376 . S
N377 C381 1.383 . S
C378 N377 1.376 . S
C378 C379 1.446 . S
C378 C408 1.391 . S
C379 C378 1.446 . S
C379 C380 1.339 . S
C379 H414 0.949 . S
C380 C379 1.339 . S
C380 C381 1.439 . S
C380 H415 0.950 . S
C381 N377 1.383 . S
C381 C380 1.439 . S
C381 C410 1.392 . S
N382 Co376 2.008 . S
N382 C383 1.376 . S
N382 C386 1.374 . S
C383 N382 1.376 . S
C383 C384 1.443 . S
C383 C410 1.389 . S
C384 C383 1.443 . S
C384 C385 1.340 . S
C384 H416 0.951 . S
C385 C384 1.340 . S
C385 C386 1.439 . S
C385 H417 0.950 . S
C386 N382 1.374 . S
C386 C385 1.439 . S
C386 C411 1.395 . S
N387 Co376 1.995 . S
N387 C388 1.376 . S
N387 C391 1.383 . S
C388 N387 1.376 . S
C388 C389 1.446 . S
C388 C411 1.391 . S
C389 C388 1.446 . S
C389 C390 1.339 . S
C389 H418 0.949 . S
C390 C389 1.339 . S
C390 C391 1.439 . S
C390 H419 0.950 . S
C391 N387 1.383 . S
C391 C390 1.439 . S
C391 C409 1.392 . S
N392 Co376 2.282 . S
N392 C395 1.332 . S
N392 C397 1.332 . S
C393 C394 1.386 . S
C393 C396 1.388 . S
C394 C393 1.386 . S
C394 C395 1.382 . S
C394 H420 0.950 . S
C395 N392 1.332 . S
C395 C394 1.382 . S
C395 H406 0.952 . S
C396 C393 1.388 . S
C396 C397 1.382 . S
C396 H421 0.950 . S
C397 N392 1.332 . S
C397 C396 1.382 . S
C397 H407 0.948 . S
N398 Co376 2.282 . S
N398 C402 1.332 . S
N398 C403 1.332 . S
C399 C400 1.388 . S
C399 C403 1.382 . S
C399 H422 0.950 . S
C400 C399 1.388 . S
C400 C401 1.386 . S
C401 C400 1.386 . S
C401 C402 1.382 . S
C401 H423 0.950 . S
C402 N398 1.332 . S
C402 C401 1.382 . S
C402 H404 0.952 . S
C403 N398 1.332 . S
C403 C399 1.382 . S
C403 H405 0.948 . S
H404 C402 0.952 . S
H405 C403 0.948 . S
H406 C395 0.952 . S
H407 C397 0.948 . S
C408 C374 1.395 . S
C408 C378 1.391 . S
C409 C371 1.389 . S
C409 C391 1.392 . S
C410 C381 1.392 . S
C410 C383 1.389 . S
C411 C386 1.395 . S
C411 C388 1.391 . S
H412 C372 0.951 . S
H413 C373 0.950 . S
H414 C379 0.949 . S
H415 C380 0.950 . S
H416 C384 0.951 . S
H417 C385 0.950 . S
H418 C389 0.949 . S
H419 C390 0.950 . S
H420 C394 0.950 . S
H421 C396 0.950 . S
H422 C399 0.950 . S
H423 C401 0.950 . S
C424 C425 1.443 . S
C424 N428 1.376 . S
C424 C462 1.389 . S
C425 C424 1.443 . S
C425 C426 1.340 . S
C425 H465 0.951 . S
C426 C425 1.340 . S
C426 C427 1.439 . S
C426 H466 0.950 . S
C427 C426 1.439 . S
C427 N428 1.374 . S
C427 C461 1.395 . S
N428 C424 1.376 . S
N428 C427 1.374 . S
N428 Co429 2.008 . S
Co429 N428 2.008 . S
Co429 N430 1.995 . S
Co429 N435 2.008 . S
Co429 N440 1.995 . S
Co429 N445 2.282 . S
Co429 N451 2.282 . S
N430 Co429 1.995 . S
N430 C431 1.376 . S
N430 C434 1.383 . S
C431 N430 1.376 . S
C431 C432 1.446 . S
C431 C461 1.391 . S
C432 C431 1.446 . S
C432 C433 1.339 . S
C432 H467 0.949 . S
C433 C432 1.339 . S
C433 C434 1.439 . S
C433 H468 0.950 . S
C434 N430 1.383 . S
C434 C433 1.439 . S
C434 C463 1.392 . S
N435 Co429 2.008 . S
N435 C436 1.376 . S
N435 C439 1.374 . S
C436 N435 1.376 . S
C436 C437 1.443 . S
C436 C463 1.389 . S
C437 C436 1.443 . S
C437 C438 1.340 . S
C437 H469 0.951 . S
C438 C437 1.340 . S
C438 C439 1.439 . S
C438 H470 0.950 . S
C439 N435 1.374 . S
C439 C438 1.439 . S
C439 C464 1.395 . S
N440 Co429 1.995 . S
N440 C441 1.376 . S
N440 C444 1.383 . S
C441 N440 1.376 . S
C441 C442 1.446 . S
C441 C464 1.391 . S
C442 C441 1.446 . S
C442 C443 1.339 . S
C442 H471 0.949 . S
C443 C442 1.339 . S
C443 C444 1.439 . S
C443 H472 0.950 . S
C444 N440 1.383 . S
C444 C443 1.439 . S
C444 C462 1.392 . S
N445 Co429 2.282 . S
N445 C448 1.332 . S
N445 C450 1.332 . S
C446 C447 1.386 . S
C446 C449 1.388 . S
C447 C446 1.386 . S
C447 C448 1.382 . S
C447 H473 0.950 . S
C448 N445 1.332 . S
C448 C447 1.382 . S
C448 H459 0.952 . S
C449 C446 1.388 . S
C449 C450 1.382 . S
C449 H474 0.950 . S
C450 N445 1.332 . S
C450 C449 1.382 . S
C450 H460 0.948 . S
N451 Co429 2.282 . S
N451 C455 1.332 . S
N451 C456 1.332 . S
C452 C453 1.388 . S
C452 C456 1.382 . S
C452 H475 0.950 . S
C453 C452 1.388 . S
C453 C454 1.386 . S
C454 C453 1.386 . S
C454 C455 1.382 . S
C454 H476 0.950 . S
C455 N451 1.332 . S
C455 C454 1.382 . S
C455 H457 0.952 . S
C456 N451 1.332 . S
C456 C452 1.382 . S
C456 H458 0.948 . S
H457 C455 0.952 . S
H458 C456 0.948 . S
H459 C448 0.952 . S
H460 C450 0.948 . S
C461 C427 1.395 . S
C461 C431 1.391 . S
C462 C424 1.389 . S
C462 C444 1.392 . S
C463 C434 1.392 . S
C463 C436 1.389 . S
C464 C439 1.395 . S
C464 C441 1.391 . S
H465 C425 0.951 . S
H466 C426 0.950 . S
H467 C432 0.949 . S
H468 C433 0.950 . S
H469 C437 0.951 . S
H470 C438 0.950 . S
H471 C442 0.949 . S
H472 C443 0.950 . S
H473 C447 0.950 . S
H474 C449 0.950 . S
H475 C452 0.950 . S
H476 C454 0.950 . S
C477 C478 1.443 . S
C477 N481 1.376 . S
C477 C515 1.389 . S
C478 C477 1.443 . S
C478 C479 1.340 . S
C478 H518 0.951 . S
C479 C478 1.340 . S
C479 C480 1.439 . S
C479 H519 0.950 . S
C480 C479 1.439 . S
C480 N481 1.374 . S
C480 C514 1.395 . S
N481 C477 1.376 . S
N481 C480 1.374 . S
N481 Co482 2.008 . S
Co482 N481 2.008 . S
Co482 N483 1.995 . S
Co482 N488 2.008 . S
Co482 N493 1.995 . S
Co482 N498 2.282 . S
Co482 N504 2.282 . S
N483 Co482 1.995 . S
N483 C484 1.376 . S
N483 C487 1.383 . S
C484 N483 1.376 . S
C484 C485 1.446 . S
C484 C514 1.391 . S
C485 C484 1.446 . S
C485 C486 1.339 . S
C485 H520 0.949 . S
C486 C485 1.339 . S
C486 C487 1.439 . S
C486 H521 0.950 . S
C487 N483 1.383 . S
C487 C486 1.439 . S
C487 C516 1.392 . S
N488 Co482 2.008 . S
N488 C489 1.376 . S
N488 C492 1.374 . S
C489 N488 1.376 . S
C489 C490 1.443 . S
C489 C516 1.389 . S
C490 C489 1.443 . S
C490 C491 1.340 . S
C490 H522 0.951 . S
C491 C490 1.340 . S
C491 C492 1.439 . S
C491 H523 0.950 . S
C492 N488 1.374 . S
C492 C491 1.439 . S
C492 C517 1.395 . S
N493 Co482 1.995 . S
N493 C494 1.376 . S
N493 C497 1.383 . S
C494 N493 1.376 . S
C494 C495 1.446 . S
C494 C517 1.391 . S
C495 C494 1.446 . S
C495 C496 1.339 . S
C495 H524 0.949 . S
C496 C495 1.339 . S
C496 C497 1.439 . S
C496 H525 0.950 . S
C497 N493 1.383 . S
C497 C496 1.439 . S
C497 C515 1.392 . S
N498 Co482 2.282 . S
N498 C501 1.332 . S
N498 C503 1.332 . S
C499 C500 1.386 . S
C499 C502 1.388 . S
C500 C499 1.386 . S
C500 C501 1.382 . S
C500 H526 0.950 . S
C501 N498 1.332 . S
C501 C500 1.382 . S
C501 H512 0.952 . S
C502 C499 1.388 . S
C502 C503 1.382 . S
C502 H527 0.950 . S
C503 N498 1.332 . S
C503 C502 1.382 . S
C503 H513 0.948 . S
N504 Co482 2.282 . S
N504 C508 1.332 . S
N504 C509 1.332 . S
C505 C506 1.388 . S
C505 C509 1.382 . S
C505 H528 0.950 . S
C506 C505 1.388 . S
C506 C507 1.386 . S
C507 C506 1.386 . S
C507 C508 1.382 . S
C507 H529 0.950 . S
C508 N504 1.332 . S
C508 C507 1.382 . S
C508 H510 0.952 . S
C509 N504 1.332 . S
C509 C505 1.382 . S
C509 H511 0.948 . S
H510 C508 0.952 . S
H511 C509 0.948 . S
H512 C501 0.952 . S
H513 C503 0.948 . S
C514 C480 1.395 . S
C514 C484 1.391 . S
C515 C477 1.389 . S
C515 C497 1.392 . S
C516 C487 1.392 . S
C516 C489 1.389 . S
C517 C492 1.395 . S
C517 C494 1.391 . S
H518 C478 0.951 . S
H519 C479 0.950 . S
H520 C485 0.949 . S
H521 C486 0.950 . S
H522 C490 0.951 . S
H523 C491 0.950 . S
H524 C495 0.949 . S
H525 C496 0.950 . S
H526 C500 0.950 . S
H527 C502 0.950 . S
H528 C505 0.950 . S
H529 C507 0.950 . S
C530 C531 1.443 . S
C530 N534 1.376 . S
C530 C568 1.389 . S
C531 C530 1.443 . S
C531 C532 1.340 . S
C531 H571 0.951 . S
C532 C531 1.340 . S
C532 C533 1.439 . S
C532 H572 0.950 . S
C533 C532 1.439 . S
C533 N534 1.374 . S
C533 C567 1.395 . S
N534 C530 1.376 . S
N534 C533 1.374 . S
N534 Co535 2.008 . S
Co535 N534 2.008 . S
Co535 N536 1.995 . S
Co535 N541 2.008 . S
Co535 N546 1.995 . S
Co535 N551 2.282 . S
Co535 N557 2.282 . S
N536 Co535 1.995 . S
N536 C537 1.376 . S
N536 C540 1.383 . S
C537 N536 1.376 . S
C537 C538 1.446 . S
C537 C567 1.391 . S
C538 C537 1.446 . S
C538 C539 1.339 . S
C538 H573 0.949 . S
C539 C538 1.339 . S
C539 C540 1.439 . S
C539 H574 0.950 . S
C540 N536 1.383 . S
C540 C539 1.439 . S
C540 C569 1.392 . S
N541 Co535 2.008 . S
N541 C542 1.376 . S
N541 C545 1.374 . S
C542 N541 1.376 . S
C542 C543 1.443 . S
C542 C569 1.389 . S
C543 C542 1.443 . S
C543 C544 1.340 . S
C543 H575 0.951 . S
C544 C543 1.340 . S
C544 C545 1.439 . S
C544 H576 0.950 . S
C545 N541 1.374 . S
C545 C544 1.439 . S
C545 C570 1.395 . S
N546 Co535 1.995 . S
N546 C547 1.376 . S
N546 C550 1.383 . S
C547 N546 1.376 . S
C547 C548 1.446 . S
C547 C570 1.391 . S
C548 C547 1.446 . S
C548 C549 1.339 . S
C548 H577 0.949 . S
C549 C548 1.339 . S
C549 C550 1.439 . S
C549 H578 0.950 . S
C550 N546 1.383 . S
C550 C549 1.439 . S
C550 C568 1.392 . S
N551 Co535 2.282 . S
N551 C554 1.332 . S
N551 C556 1.332 . S
C552 C553 1.386 . S
C552 C555 1.388 . S
C553 C552 1.386 . S
C553 C554 1.382 . S
C553 H579 0.950 . S
C554 N551 1.332 . S
C554 C553 1.382 . S
C554 H565 0.952 . S
C555 C552 1.388 . S
C555 C556 1.382 . S
C555 H580 0.950 . S
C556 N551 1.332 . S
C556 C555 1.382 . S
C556 H566 0.948 . S
N557 Co535 2.282 . S
N557 C561 1.332 . S
N557 C562 1.332 . S
C558 C559 1.388 . S
C558 C562 1.382 . S
C558 H581 0.950 . S
C559 C558 1.388 . S
C559 C560 1.386 . S
C560 C559 1.386 . S
C560 C561 1.382 . S
C560 H582 0.950 . S
C561 N557 1.332 . S
C561 C560 1.382 . S
C561 H563 0.952 . S
C562 N557 1.332 . S
C562 C558 1.382 . S
C562 H564 0.948 . S
H563 C561 0.952 . S
H564 C562 0.948 . S
H565 C554 0.952 . S
H566 C556 0.948 . S
C567 C533 1.395 . S
C567 C537 1.391 . S
C568 C530 1.389 . S
C568 C550 1.392 . S
C569 C540 1.392 . S
C569 C542 1.389 . S
C570 C545 1.395 . S
C570 C547 1.391 . S
H571 C531 0.951 . S
H572 C532 0.950 . S
H573 C538 0.949 . S
H574 C539 0.950 . S
H575 C543 0.951 . S
H576 C544 0.950 . S
H577 C548 0.949 . S
H578 C549 0.950 . S
H579 C553 0.950 . S
H580 C555 0.950 . S
H581 C558 0.950 . S
H582 C560 0.950 . S
C583 C584 1.443 . S
C583 N587 1.376 . S
C583 C621 1.389 . S
C584 C583 1.443 . S
C584 C585 1.340 . S
C584 H624 0.951 . S
C585 C584 1.340 . S
C585 C586 1.439 . S
C585 H625 0.950 . S
C586 C585 1.439 . S
C586 N587 1.374 . S
C586 C620 1.395 . S
N587 C583 1.376 . S
N587 C586 1.374 . S
N587 Co588 2.008 . S
Co588 N587 2.008 . S
Co588 N589 1.995 . S
Co588 N594 2.008 . S
Co588 N599 1.995 . S
Co588 N604 2.282 . S
Co588 N610 2.282 . S
N589 Co588 1.995 . S
N589 C590 1.376 . S
N589 C593 1.383 . S
C590 N589 1.376 . S
C590 C591 1.446 . S
C590 C620 1.391 . S
C591 C590 1.446 . S
C591 C592 1.339 . S
C591 H626 0.949 . S
C592 C591 1.339 . S
C592 C593 1.439 . S
C592 H627 0.950 . S
C593 N589 1.383 . S
C593 C592 1.439 . S
C593 C622 1.392 . S
N594 Co588 2.008 . S
N594 C595 1.376 . S
N594 C598 1.374 . S
C595 N594 1.376 . S
C595 C596 1.443 . S
C595 C622 1.389 . S
C596 C595 1.443 . S
C596 C597 1.340 . S
C596 H628 0.951 . S
C597 C596 1.340 . S
C597 C598 1.439 . S
C597 H629 0.950 . S
C598 N594 1.374 . S
C598 C597 1.439 . S
C598 C623 1.395 . S
N599 Co588 1.995 . S
N599 C600 1.376 . S
N599 C603 1.383 . S
C600 N599 1.376 . S
C600 C601 1.446 . S
C600 C623 1.391 . S
C601 C600 1.446 . S
C601 C602 1.339 . S
C601 H630 0.949 . S
C602 C601 1.339 . S
C602 C603 1.439 . S
C602 H631 0.950 . S
C603 N599 1.383 . S
C603 C602 1.439 . S
C603 C621 1.392 . S
N604 Co588 2.282 . S
N604 C607 1.332 . S
N604 C609 1.332 . S
C605 C606 1.386 . S
C605 C608 1.388 . S
C606 C605 1.386 . S
C606 C607 1.382 . S
C606 H632 0.950 . S
C607 N604 1.332 . S
C607 C606 1.382 . S
C607 H618 0.952 . S
C608 C605 1.388 . S
C608 C609 1.382 . S
C608 H633 0.950 . S
C609 N604 1.332 . S
C609 C608 1.382 . S
C609 H619 0.948 . S
N610 Co588 2.282 . S
N610 C614 1.332 . S
N610 C615 1.332 . S
C611 C612 1.388 . S
C611 C615 1.382 . S
C611 H634 0.950 . S
C612 C611 1.388 . S
C612 C613 1.386 . S
C613 C612 1.386 . S
C613 C614 1.382 . S
C613 H635 0.950 . S
C614 N610 1.332 . S
C614 C613 1.382 . S
C614 H616 0.952 . S
C615 N610 1.332 . S
C615 C611 1.382 . S
C615 H617 0.948 . S
H616 C614 0.952 . S
H617 C615 0.948 . S
H618 C607 0.952 . S
H619 C609 0.948 . S
C620 C586 1.395 . S
C620 C590 1.391 . S
C621 C583 1.389 . S
C621 C603 1.392 . S
C622 C593 1.392 . S
C622 C595 1.389 . S
C623 C598 1.395 . S
C623 C600 1.391 . S
H624 C584 0.951 . S
H625 C585 0.950 . S
H626 C591 0.949 . S
H627 C592 0.950 . S
H628 C596 0.951 . S
H629 C597 0.950 . S
H630 C601 0.949 . S
H631 C602 0.950 . S
H632 C606 0.950 . S
H633 C608 0.950 . S
H634 C611 0.950 . S
H635 C613 0.950 . S
C636 C637 1.443 . S
C636 N640 1.376 . S
C636 C674 1.389 . S
C637 C636 1.443 . S
C637 C638 1.340 . S
C637 H677 0.951 . S
C638 C637 1.340 . S
C638 C639 1.439 . S
C638 H678 0.950 . S
C639 C638 1.439 . S
C639 N640 1.374 . S
C639 C673 1.395 . S
N640 C636 1.376 . S
N640 C639 1.374 . S
N640 Co641 2.008 . S
Co641 N640 2.008 . S
Co641 N642 1.995 . S
Co641 N647 2.008 . S
Co641 N652 1.995 . S
Co641 N657 2.282 . S
Co641 N663 2.282 . S
N642 Co641 1.995 . S
N642 C643 1.376 . S
N642 C646 1.383 . S
C643 N642 1.376 . S
C643 C644 1.446 . S
C643 C673 1.391 . S
C644 C643 1.446 . S
C644 C645 1.339 . S
C644 H679 0.949 . S
C645 C644 1.339 . S
C645 C646 1.439 . S
C645 H680 0.950 . S
C646 N642 1.383 . S
C646 C645 1.439 . S
C646 C675 1.392 . S
N647 Co641 2.008 . S
N647 C648 1.376 . S
N647 C651 1.374 . S
C648 N647 1.376 . S
C648 C649 1.443 . S
C648 C675 1.389 . S
C649 C648 1.443 . S
C649 C650 1.340 . S
C649 H681 0.951 . S
C650 C649 1.340 . S
C650 C651 1.439 . S
C650 H682 0.950 . S
C651 N647 1.374 . S
C651 C650 1.439 . S
C651 C676 1.395 . S
N652 Co641 1.995 . S
N652 C653 1.376 . S
N652 C656 1.383 . S
C653 N652 1.376 . S
C653 C654 1.446 . S
C653 C676 1.391 . S
C654 C653 1.446 . S
C654 C655 1.339 . S
C654 H683 0.949 . S
C655 C654 1.339 . S
C655 C656 1.439 . S
C655 H684 0.950 . S
C656 N652 1.383 . S
C656 C655 1.439 . S
C656 C674 1.392 . S
N657 Co641 2.282 . S
N657 C660 1.332 . S
N657 C662 1.332 . S
C658 C659 1.386 . S
C658 C661 1.388 . S
C659 C658 1.386 . S
C659 C660 1.382 . S
C659 H685 0.950 . S
C660 N657 1.332 . S
C660 C659 1.382 . S
C660 H671 0.952 . S
C661 C658 1.388 . S
C661 C662 1.382 . S
C661 H686 0.950 . S
C662 N657 1.332 . S
C662 C661 1.382 . S
C662 H672 0.948 . S
N663 Co641 2.282 . S
N663 C667 1.332 . S
N663 C668 1.332 . S
C664 C665 1.388 . S
C664 C668 1.382 . S
C664 H687 0.950 . S
C665 C664 1.388 . S
C665 C666 1.386 . S
C666 C665 1.386 . S
C666 C667 1.382 . S
C666 H688 0.950 . S
C667 N663 1.332 . S
C667 C666 1.382 . S
C667 H669 0.952 . S
C668 N663 1.332 . S
C668 C664 1.382 . S
C668 H670 0.948 . S
H669 C667 0.952 . S
H670 C668 0.948 . S
H671 C660 0.952 . S
H672 C662 0.948 . S
C673 C639 1.395 . S
C673 C643 1.391 . S
C674 C636 1.389 . S
C674 C656 1.392 . S
C675 C646 1.392 . S
C675 C648 1.389 . S
C676 C651 1.395 . S
C676 C653 1.391 . S
H677 C637 0.951 . S
H678 C638 0.950 . S
H679 C644 0.949 . S
H680 C645 0.950 . S
H681 C649 0.951 . S
H682 C650 0.950 . S
H683 C654 0.949 . S
H684 C655 0.950 . S
H685 C659 0.950 . S
H686 C661 0.950 . S
H687 C664 0.950 . S
H688 C666 0.950 . S
C689 C690 1.443 . S
C689 N693 1.376 . S
C689 C727 1.389 . S
C690 C689 1.443 . S
C690 C691 1.340 . S
C690 H730 0.951 . S
C691 C690 1.340 . S
C691 C692 1.439 . S
C691 H731 0.950 . S
C692 C691 1.439 . S
C692 N693 1.374 . S
C692 C726 1.395 . S
N693 C689 1.376 . S
N693 C692 1.374 . S
N693 Co694 2.008 . S
Co694 N693 2.008 . S
Co694 N695 1.995 . S
Co694 N700 2.008 . S
Co694 N705 1.995 . S
Co694 N710 2.282 . S
Co694 N716 2.282 . S
N695 Co694 1.995 . S
N695 C696 1.376 . S
N695 C699 1.383 . S
C696 N695 1.376 . S
C696 C697 1.446 . S
C696 C726 1.391 . S
C697 C696 1.446 . S
C697 C698 1.339 . S
C697 H732 0.949 . S
C698 C697 1.339 . S
C698 C699 1.439 . S
C698 H733 0.950 . S
C699 N695 1.383 . S
C699 C698 1.439 . S
C699 C728 1.392 . S
N700 Co694 2.008 . S
N700 C701 1.376 . S
N700 C704 1.374 . S
C701 N700 1.376 . S
C701 C702 1.443 . S
C701 C728 1.389 . S
C702 C701 1.443 . S
C702 C703 1.340 . S
C702 H734 0.951 . S
C703 C702 1.340 . S
C703 C704 1.439 . S
C703 H735 0.950 . S
C704 N700 1.374 . S
C704 C703 1.439 . S
C704 C729 1.395 . S
N705 Co694 1.995 . S
N705 C706 1.376 . S
N705 C709 1.383 . S
C706 N705 1.376 . S
C706 C707 1.446 . S
C706 C729 1.391 . S
C707 C706 1.446 . S
C707 C708 1.339 . S
C707 H736 0.949 . S
C708 C707 1.339 . S
C708 C709 1.439 . S
C708 H737 0.950 . S
C709 N705 1.383 . S
C709 C708 1.439 . S
C709 C727 1.392 . S
N710 Co694 2.282 . S
N710 C713 1.332 . S
N710 C715 1.332 . S
C711 C712 1.386 . S
C711 C714 1.388 . S
C712 C711 1.386 . S
C712 C713 1.382 . S
C712 H738 0.950 . S
C713 N710 1.332 . S
C713 C712 1.382 . S
C713 H724 0.952 . S
C714 C711 1.388 . S
C714 C715 1.382 . S
C714 H739 0.950 . S
C715 N710 1.332 . S
C715 C714 1.382 . S
C715 H725 0.948 . S
N716 Co694 2.282 . S
N716 C720 1.332 . S
N716 C721 1.332 . S
C717 C718 1.388 . S
C717 C721 1.382 . S
C717 H740 0.950 . S
C718 C717 1.388 . S
C718 C719 1.386 . S
C719 C718 1.386 . S
C719 C720 1.382 . S
C719 H741 0.950 . S
C720 N716 1.332 . S
C720 C719 1.382 . S
C720 H722 0.952 . S
C721 N716 1.332 . S
C721 C717 1.382 . S
C721 H723 0.948 . S
H722 C720 0.952 . S
H723 C721 0.948 . S
H724 C713 0.952 . S
H725 C715 0.948 . S
C726 C692 1.395 . S
C726 C696 1.391 . S
C727 C689 1.389 . S
C727 C709 1.392 . S
C728 C699 1.392 . S
C728 C701 1.389 . S
C729 C704 1.395 . S
C729 C706 1.391 . S
H730 C690 0.951 . S
H731 C691 0.950 . S
H732 C697 0.949 . S
H733 C698 0.950 . S
H734 C702 0.951 . S
H735 C703 0.950 . S
H736 C707 0.949 . S
H737 C708 0.950 . S
H738 C712 0.950 . S
H739 C714 0.950 . S
H740 C717 0.950 . S
H741 C719 0.950 . S
C742 C743 1.443 . S
C742 N746 1.376 . S
C742 C780 1.389 . S
C743 C742 1.443 . S
C743 C744 1.340 . S
C743 H783 0.951 . S
C744 C743 1.340 . S
C744 C745 1.439 . S
C744 H784 0.950 . S
C745 C744 1.439 . S
C745 N746 1.374 . S
C745 C779 1.395 . S
N746 C742 1.376 . S
N746 C745 1.374 . S
N746 Co747 2.008 . S
Co747 N746 2.008 . S
Co747 N748 1.995 . S
Co747 N753 2.008 . S
Co747 N758 1.995 . S
Co747 N763 2.282 . S
Co747 N769 2.282 . S
N748 Co747 1.995 . S
N748 C749 1.376 . S
N748 C752 1.383 . S
C749 N748 1.376 . S
C749 C750 1.446 . S
C749 C779 1.391 . S
C750 C749 1.446 . S
C750 C751 1.339 . S
C750 H785 0.949 . S
C751 C750 1.339 . S
C751 C752 1.439 . S
C751 H786 0.950 . S
C752 N748 1.383 . S
C752 C751 1.439 . S
C752 C781 1.392 . S
N753 Co747 2.008 . S
N753 C754 1.376 . S
N753 C757 1.374 . S
C754 N753 1.376 . S
C754 C755 1.443 . S
C754 C781 1.389 . S
C755 C754 1.443 . S
C755 C756 1.340 . S
C755 H787 0.951 . S
C756 C755 1.340 . S
C756 C757 1.439 . S
C756 H788 0.950 . S
C757 N753 1.374 . S
C757 C756 1.439 . S
C757 C782 1.395 . S
N758 Co747 1.995 . S
N758 C759 1.376 . S
N758 C762 1.383 . S
C759 N758 1.376 . S
C759 C760 1.446 . S
C759 C782 1.391 . S
C760 C759 1.446 . S
C760 C761 1.339 . S
C760 H789 0.949 . S
C761 C760 1.339 . S
C761 C762 1.439 . S
C761 H790 0.950 . S
C762 N758 1.383 . S
C762 C761 1.439 . S
C762 C780 1.392 . S
N763 Co747 2.282 . S
N763 C766 1.332 . S
N763 C768 1.332 . S
C764 C765 1.386 . S
C764 C767 1.388 . S
C765 C764 1.386 . S
C765 C766 1.382 . S
C765 H791 0.950 . S
C766 N763 1.332 . S
C766 C765 1.382 . S
C766 H777 0.952 . S
C767 C764 1.388 . S
C767 C768 1.382 . S
C767 H792 0.950 . S
C768 N763 1.332 . S
C768 C767 1.382 . S
C768 H778 0.948 . S
N769 Co747 2.282 . S
N769 C773 1.332 . S
N769 C774 1.332 . S
C770 C771 1.388 . S
C770 C774 1.382 . S
C770 H793 0.950 . S
C771 C770 1.388 . S
C771 C772 1.386 . S
C772 C771 1.386 . S
C772 C773 1.382 . S
C772 H794 0.950 . S
C773 N769 1.332 . S
C773 C772 1.382 . S
C773 H775 0.952 . S
C774 N769 1.332 . S
C774 C770 1.382 . S
C774 H776 0.948 . S
H775 C773 0.952 . S
H776 C774 0.948 . S
H777 C766 0.952 . S
H778 C768 0.948 . S
C779 C745 1.395 . S
C779 C749 1.391 . S
C780 C742 1.389 . S
C780 C762 1.392 . S
C781 C752 1.392 . S
C781 C754 1.389 . S
C782 C757 1.395 . S
C782 C759 1.391 . S
H783 C743 0.951 . S
H784 C744 0.950 . S
H785 C750 0.949 . S
H786 C751 0.950 . S
H787 C755 0.951 . S
H788 C756 0.950 . S
H789 C760 0.949 . S
H790 C761 0.950 . S
H791 C765 0.950 . S
H792 C767 0.950 . S
H793 C770 0.950 . S
H794 C772 0.950 . S
C795 C796 1.443 . S
C795 N799 1.376 . S
C795 C833 1.389 . S
C796 C795 1.443 . S
C796 C797 1.340 . S
C796 H836 0.951 . S
C797 C796 1.340 . S
C797 C798 1.439 . S
C797 H837 0.950 . S
C798 C797 1.439 . S
C798 N799 1.374 . S
C798 C832 1.395 . S
N799 C795 1.376 . S
N799 C798 1.374 . S
N799 Co800 2.008 . S
Co800 N799 2.008 . S
Co800 N801 1.995 . S
Co800 N806 2.008 . S
Co800 N811 1.995 . S
Co800 N816 2.282 . S
Co800 N822 2.282 . S
N801 Co800 1.995 . S
N801 C802 1.376 . S
N801 C805 1.383 . S
C802 N801 1.376 . S
C802 C803 1.446 . S
C802 C832 1.391 . S
C803 C802 1.446 . S
C803 C804 1.339 . S
C803 H838 0.949 . S
C804 C803 1.339 . S
C804 C805 1.439 . S
C804 H839 0.950 . S
C805 N801 1.383 . S
C805 C804 1.439 . S
C805 C834 1.392 . S
N806 Co800 2.008 . S
N806 C807 1.376 . S
N806 C810 1.374 . S
C807 N806 1.376 . S
C807 C808 1.443 . S
C807 C834 1.389 . S
C808 C807 1.443 . S
C808 C809 1.340 . S
C808 H840 0.951 . S
C809 C808 1.340 . S
C809 C810 1.439 . S
C809 H841 0.950 . S
C810 N806 1.374 . S
C810 C809 1.439 . S
C810 C835 1.395 . S
N811 Co800 1.995 . S
N811 C812 1.376 . S
N811 C815 1.383 . S
C812 N811 1.376 . S
C812 C813 1.446 . S
C812 C835 1.391 . S
C813 C812 1.446 . S
C813 C814 1.339 . S
C813 H842 0.949 . S
C814 C813 1.339 . S
C814 C815 1.439 . S
C814 H843 0.950 . S
C815 N811 1.383 . S
C815 C814 1.439 . S
C815 C833 1.392 . S
N816 Co800 2.282 . S
N816 C819 1.332 . S
N816 C821 1.332 . S
C817 C818 1.386 . S
C817 C820 1.388 . S
C818 C817 1.386 . S
C818 C819 1.382 . S
C818 H844 0.950 . S
C819 N816 1.332 . S
C819 C818 1.382 . S
C819 H830 0.952 . S
C820 C817 1.388 . S
C820 C821 1.382 . S
C820 H845 0.950 . S
C821 N816 1.332 . S
C821 C820 1.382 . S
C821 H831 0.948 . S
N822 Co800 2.282 . S
N822 C826 1.332 . S
N822 C827 1.332 . S
C823 C824 1.388 . S
C823 C827 1.382 . S
C823 H846 0.950 . S
C824 C823 1.388 . S
C824 C825 1.386 . S
C825 C824 1.386 . S
C825 C826 1.382 . S
C825 H847 0.950 . S
C826 N822 1.332 . S
C826 C825 1.382 . S
C826 H828 0.952 . S
C827 N822 1.332 . S
C827 C823 1.382 . S
C827 H829 0.948 . S
H828 C826 0.952 . S
H829 C827 0.948 . S
H830 C819 0.952 . S
H831 C821 0.948 . S
C832 C798 1.395 . S
C832 C802 1.391 . S
C833 C795 1.389 . S
C833 C815 1.392 . S
C834 C805 1.392 . S
C834 C807 1.389 . S
C835 C810 1.395 . S
C835 C812 1.391 . S
H836 C796 0.951 . S
H837 C797 0.950 . S
H838 C803 0.949 . S
H839 C804 0.950 . S
H840 C808 0.951 . S
H841 C809 0.950 . S
H842 C813 0.949 . S
H843 C814 0.950 . S
H844 C818 0.950 . S
H845 C820 0.950 . S
H846 C823 0.950 . S
H847 C825 0.950 . S
H848 C854 0.930 . S
H849 C858 0.930 . S
H850 C863 0.929 . S
H851 C861 0.929 . S
H852 C856 0.929 . S
H853 C862 0.929 . S
C854 H848 0.930 . S
C854 C855 1.367 . S
C854 C862 1.378 . S
C855 C854 1.367 . S
C855 C863 1.433 . S
C856 H852 0.929 . S
C856 C858 1.378 . S
C856 C860 1.350 . S
C857 C860 1.463 1_556 S
C857 C862 1.350 . S
C857 N865 1.427 . S
C858 H849 0.930 . S
C858 C856 1.378 . S
C858 C859 1.367 . S
C859 C858 1.367 . S
C859 C861 1.433 . S
C860 C856 1.350 . S
C860 C857 1.463 1_554 S
C860 N864 1.427 . S
C861 H851 0.929 . S
C861 C859 1.433 . S
C861 N864 1.384 . S
C862 H853 0.929 . S
C862 C854 1.378 . S
C862 C857 1.350 . S
C863 H850 0.929 . S
C863 C855 1.433 . S
C863 N865 1.384 . S
N864 C860 1.427 . S
N864 C861 1.384 . S
N865 C857 1.427 . S
N865 C863 1.384 . S
H866 C872 0.930 . S
H867 C876 0.930 . S
H868 C881 0.929 . S
H869 C879 0.929 . S
H870 C874 0.929 . S
H871 C880 0.929 . S
C872 H866 0.930 . S
C872 C873 1.367 . S
C872 C880 1.378 . S
C873 C872 1.367 . S
C873 C881 1.433 . S
C874 H870 0.929 . S
C874 C876 1.378 . S
C874 C878 1.350 . S
C875 C878 1.463 . S
C875 C880 1.350 . S
C875 N883 1.427 . S
C876 H867 0.930 . S
C876 C874 1.378 . S
C876 C877 1.367 . S
C877 C876 1.367 . S
C877 C879 1.433 . S
C878 C874 1.350 . S
C878 C875 1.463 . S
C878 N882 1.427 . S
C879 H869 0.929 . S
C879 C877 1.433 . S
C879 N882 1.384 . S
C880 H871 0.929 . S
C880 C872 1.378 . S
C880 C875 1.350 . S
C881 H868 0.929 . S
C881 C873 1.433 . S
C881 N883 1.384 . S
N882 C878 1.427 . S
N882 C879 1.384 . S
N883 C875 1.427 . S
N883 C881 1.384 . S
H884 C890 0.930 . S
H885 C894 0.930 . S
H886 C899 0.929 . S
H887 C897 0.929 . S
H888 C892 0.929 . S
H889 C898 0.929 . S
C890 H884 0.930 . S
C890 C891 1.367 . S
C890 C898 1.378 . S
C891 C890 1.367 . S
C891 C899 1.433 . S
C892 H888 0.929 . S
C892 C894 1.378 . S
C892 C896 1.350 . S
C893 C896 1.463 1_556 S
C893 C898 1.350 . S
C893 N901 1.427 . S
C894 H885 0.930 . S
C894 C892 1.378 . S
C894 C895 1.367 . S
C895 C894 1.367 . S
C895 C897 1.433 . S
C896 C892 1.350 . S
C896 C893 1.463 1_554 S
C896 N900 1.427 . S
C897 H887 0.929 . S
C897 C895 1.433 . S
C897 N900 1.384 . S
C898 H889 0.929 . S
C898 C890 1.378 . S
C898 C893 1.350 . S
C899 H886 0.929 . S
C899 C891 1.433 . S
C899 N901 1.384 . S
N900 C896 1.427 . S
N900 C897 1.384 . S
N901 C893 1.427 . S
N901 C899 1.384 . S
H902 C908 0.930 . S
H903 C912 0.930 . S
H904 C917 0.929 . S
H905 C915 0.929 . S
H906 C910 0.929 . S
H907 C916 0.929 . S
C908 H902 0.930 . S
C908 C909 1.367 . S
C908 C916 1.378 . S
C909 C908 1.367 . S
C909 C917 1.433 . S
C910 H906 0.929 . S
C910 C912 1.378 . S
C910 C914 1.350 . S
C911 C914 1.463 . S
C911 C916 1.350 . S
C911 N919 1.427 . S
C912 H903 0.930 . S
C912 C910 1.378 . S
C912 C913 1.367 . S
C913 C912 1.367 . S
C913 C915 1.433 . S
C914 C910 1.350 . S
C914 C911 1.463 . S
C914 N918 1.427 . S
C915 H905 0.929 . S
C915 C913 1.433 . S
C915 N918 1.384 . S
C916 H907 0.929 . S
C916 C908 1.378 . S
C916 C911 1.350 . S
C917 H904 0.929 . S
C917 C909 1.433 . S
C917 N919 1.384 . S
N918 C914 1.427 . S
N918 C915 1.384 . S
N919 C911 1.427 . S
N919 C917 1.384 . S
H920 C926 0.930 . S
H921 C930 0.930 . S
H922 C935 0.929 . S
H923 C933 0.929 . S
H924 C928 0.929 . S
H925 C934 0.929 . S
C926 H920 0.930 . S
C926 C927 1.367 . S
C926 C934 1.378 . S
C927 C926 1.367 . S
C927 C935 1.433 . S
C928 H924 0.929 . S
C928 C930 1.378 . S
C928 C932 1.350 . S
C929 C932 1.463 1_554 S
C929 C934 1.350 . S
C929 N937 1.427 . S
C930 H921 0.930 . S
C930 C928 1.378 . S
C930 C931 1.367 . S
C931 C930 1.367 . S
C931 C933 1.433 . S
C932 C928 1.350 . S
C932 C929 1.463 1_556 S
C932 N936 1.427 . S
C933 H923 0.929 . S
C933 C931 1.433 . S
C933 N936 1.384 . S
C934 H925 0.929 . S
C934 C926 1.378 . S
C934 C929 1.350 . S
C935 H922 0.929 . S
C935 C927 1.433 . S
C935 N937 1.384 . S
N936 C932 1.427 . S
N936 C933 1.384 . S
N937 C929 1.427 . S
N937 C935 1.384 . S
H938 C944 0.930 . S
H939 C948 0.930 . S
H940 C953 0.929 . S
H941 C951 0.929 . S
H942 C946 0.929 . S
H943 C952 0.929 . S
C944 H938 0.930 . S
C944 C945 1.367 . S
C944 C952 1.378 . S
C945 C944 1.367 . S
C945 C953 1.433 . S
C946 H942 0.929 . S
C946 C948 1.378 . S
C946 C950 1.350 . S
C947 C950 1.463 . S
C947 C952 1.350 . S
C947 N955 1.427 . S
C948 H939 0.930 . S
C948 C946 1.378 . S
C948 C949 1.367 . S
C949 C948 1.367 . S
C949 C951 1.433 . S
C950 C946 1.350 . S
C950 C947 1.463 . S
C950 N954 1.427 . S
C951 H941 0.929 . S
C951 C949 1.433 . S
C951 N954 1.384 . S
C952 H943 0.929 . S
C952 C944 1.378 . S
C952 C947 1.350 . S
C953 H940 0.929 . S
C953 C945 1.433 . S
C953 N955 1.384 . S
N954 C950 1.427 . S
N954 C951 1.384 . S
N955 C947 1.427 . S
N955 C953 1.384 . S
H956 C962 0.930 . S
H957 C966 0.930 . S
H958 C971 0.929 . S
H959 C969 0.929 . S
H960 C964 0.929 . S
H961 C970 0.929 . S
C962 H956 0.930 . S
C962 C963 1.367 . S
C962 C970 1.378 . S
C963 C962 1.367 . S
C963 C971 1.433 . S
C964 H960 0.929 . S
C964 C966 1.378 . S
C964 C968 1.350 . S
C965 C968 1.463 1_556 S
C965 C970 1.350 . S
C965 N973 1.427 . S
C966 H957 0.930 . S
C966 C964 1.378 . S
C966 C967 1.367 . S
C967 C966 1.367 . S
C967 C969 1.433 . S
C968 C964 1.350 . S
C968 C965 1.463 1_554 S
C968 N972 1.427 . S
C969 H959 0.929 . S
C969 C967 1.433 . S
C969 N972 1.384 . S
C970 H961 0.929 . S
C970 C962 1.378 . S
C970 C965 1.350 . S
C971 H958 0.929 . S
C971 C963 1.433 . S
C971 N973 1.384 . S
N972 C968 1.427 . S
N972 C969 1.384 . S
N973 C965 1.427 . S
N973 C971 1.384 . S
H974 C980 0.930 . S
H975 C984 0.930 . S
H976 C989 0.929 . S
H977 C987 0.929 . S
H978 C982 0.929 . S
H979 C988 0.929 . S
C980 H974 0.930 . S
C980 C981 1.367 . S
C980 C988 1.378 . S
C981 C980 1.367 . S
C981 C989 1.433 . S
C982 H978 0.929 . S
C982 C984 1.378 . S
C982 C986 1.350 . S
C983 C986 1.463 . S
C983 C988 1.350 . S
C983 N991 1.427 . S
C984 H975 0.930 . S
C984 C982 1.378 . S
C984 C985 1.367 . S
C985 C984 1.367 . S
C985 C987 1.433 . S
C986 C982 1.350 . S
C986 C983 1.463 . S
C986 N990 1.427 . S
C987 H977 0.929 . S
C987 C985 1.433 . S
C987 N990 1.384 . S
C988 H979 0.929 . S
C988 C980 1.378 . S
C988 C983 1.350 . S
C989 H976 0.929 . S
C989 C981 1.433 . S
C989 N991 1.384 . S
N990 C986 1.427 . S
N990 C987 1.384 . S
N991 C983 1.427 . S
N991 C989 1.384 . S
H992 C998 0.930 . S
H993 C1002 0.930 . S
H994 C1007 0.929 . S
H995 C1005 0.929 . S
H996 C1000 0.929 . S
H997 C1006 0.929 . S
C998 H992 0.930 . S
C998 C999 1.367 . S
C998 C1006 1.378 . S
C999 C998 1.367 . S
C999 C1007 1.433 . S
C1000 H996 0.929 . S
C1000 C1002 1.378 . S
C1000 C1004 1.350 . S
C1001 C1004 1.463 . S
C1001 C1006 1.350 . S
C1001 N1009 1.427 . S
C1002 H993 0.930 . S
C1002 C1000 1.378 . S
C1002 C1003 1.367 . S
C1003 C1002 1.367 . S
C1003 C1005 1.433 . S
C1004 C1000 1.350 . S
C1004 C1001 1.463 . S
C1004 N1008 1.427 . S
C1005 H995 0.929 . S
C1005 C1003 1.433 . S
C1005 N1008 1.384 . S
C1006 H997 0.929 . S
C1006 C998 1.378 . S
C1006 C1001 1.350 . S
C1007 H994 0.929 . S
C1007 C999 1.433 . S
C1007 N1009 1.384 . S
N1008 C1004 1.427 . S
N1008 C1005 1.384 . S
N1009 C1001 1.427 . S
N1009 C1007 1.384 . S
H1010 C1016 0.930 . S
H1011 C1020 0.930 . S
H1012 C1025 0.929 . S
H1013 C1023 0.929 . S
H1014 C1018 0.929 . S
H1015 C1024 0.929 . S
C1016 H1010 0.930 . S
C1016 C1017 1.367 . S
C1016 C1024 1.378 . S
C1017 C1016 1.367 . S
C1017 C1025 1.433 . S
C1018 H1014 0.929 . S
C1018 C1020 1.378 . S
C1018 C1022 1.350 . S
C1019 C1022 1.463 . S
C1019 C1024 1.350 . S
C1019 N1027 1.427 . S
C1020 H1011 0.930 . S
C1020 C1018 1.378 . S
C1020 C1021 1.367 . S
C1021 C1020 1.367 . S
C1021 C1023 1.433 . S
C1022 C1018 1.350 . S
C1022 C1019 1.463 . S
C1022 N1026 1.427 . S
C1023 H1013 0.929 . S
C1023 C1021 1.433 . S
C1023 N1026 1.384 . S
C1024 H1015 0.929 . S
C1024 C1016 1.378 . S
C1024 C1019 1.350 . S
C1025 H1012 0.929 . S
C1025 C1017 1.433 . S
C1025 N1027 1.384 . S
N1026 C1022 1.427 . S
N1026 C1023 1.384 . S
N1027 C1019 1.427 . S
N1027 C1025 1.384 . S
H1028 C1034 0.930 . S
H1029 C1038 0.930 . S
H1030 C1043 0.929 . S
H1031 C1041 0.929 . S
H1032 C1036 0.929 . S
H1033 C1042 0.929 . S
C1034 H1028 0.930 . S
C1034 C1035 1.367 . S
C1034 C1042 1.378 . S
C1035 C1034 1.367 . S
C1035 C1043 1.433 . S
C1036 H1032 0.929 . S
C1036 C1038 1.378 . S
C1036 C1040 1.350 . S
C1037 C1040 1.463 . S
C1037 C1042 1.350 . S
C1037 N1045 1.427 . S
C1038 H1029 0.930 . S
C1038 C1036 1.378 . S
C1038 C1039 1.367 . S
C1039 C1038 1.367 . S
C1039 C1041 1.433 . S
C1040 C1036 1.350 . S
C1040 C1037 1.463 . S
C1040 N1044 1.427 . S
C1041 H1031 0.929 . S
C1041 C1039 1.433 . S
C1041 N1044 1.384 . S
C1042 H1033 0.929 . S
C1042 C1034 1.378 . S
C1042 C1037 1.350 . S
C1043 H1030 0.929 . S
C1043 C1035 1.433 . S
C1043 N1045 1.384 . S
N1044 C1040 1.427 . S
N1044 C1041 1.384 . S
N1045 C1037 1.427 . S
N1045 C1043 1.384 . S
H1046 C1052 0.930 . S
H1047 C1056 0.930 . S
H1048 C1061 0.929 . S
H1049 C1059 0.929 . S
H1050 C1054 0.929 . S
H1051 C1060 0.929 . S
C1052 H1046 0.930 . S
C1052 C1053 1.367 . S
C1052 C1060 1.378 . S
C1053 C1052 1.367 . S
C1053 C1061 1.433 . S
C1054 H1050 0.929 . S
C1054 C1056 1.378 . S
C1054 C1058 1.350 . S
C1055 C1058 1.463 . S
C1055 C1060 1.350 . S
C1055 N1063 1.427 . S
C1056 H1047 0.930 . S
C1056 C1054 1.378 . S
C1056 C1057 1.367 . S
C1057 C1056 1.367 . S
C1057 C1059 1.433 . S
C1058 C1054 1.350 . S
C1058 C1055 1.463 . S
C1058 N1062 1.427 . S
C1059 H1049 0.929 . S
C1059 C1057 1.433 . S
C1059 N1062 1.384 . S
C1060 H1051 0.929 . S
C1060 C1052 1.378 . S
C1060 C1055 1.350 . S
C1061 H1048 0.929 . S
C1061 C1053 1.433 . S
C1061 N1063 1.384 . S
N1062 C1058 1.427 . S
N1062 C1059 1.384 . S
N1063 C1055 1.427 . S
N1063 C1061 1.384 . S
H1064 C1070 0.930 . S
H1065 C1074 0.930 . S
H1066 C1079 0.929 . S
H1067 C1077 0.929 . S
H1068 C1072 0.929 . S
H1069 C1078 0.929 . S
C1070 H1064 0.930 . S
C1070 C1071 1.367 . S
C1070 C1078 1.378 . S
C1071 C1070 1.367 . S
C1071 C1079 1.433 . S
C1072 H1068 0.929 . S
C1072 C1074 1.378 . S
C1072 C1076 1.350 . S
C1073 C1076 1.463 . S
C1073 C1078 1.350 . S
C1073 N1081 1.427 . S
C1074 H1065 0.930 . S
C1074 C1072 1.378 . S
C1074 C1075 1.367 . S
C1075 C1074 1.367 . S
C1075 C1077 1.433 . S
C1076 C1072 1.350 . S
C1076 C1073 1.463 . S
C1076 N1080 1.427 . S
C1077 H1067 0.929 . S
C1077 C1075 1.433 . S
C1077 N1080 1.384 . S
C1078 H1069 0.929 . S
C1078 C1070 1.378 . S
C1078 C1073 1.350 . S
C1079 H1066 0.929 . S
C1079 C1071 1.433 . S
C1079 N1081 1.384 . S
N1080 C1076 1.427 . S
N1080 C1077 1.384 . S
N1081 C1073 1.427 . S
N1081 C1079 1.384 . S
H1082 C1088 0.930 . S
H1083 C1092 0.930 . S
H1084 C1097 0.929 . S
H1085 C1095 0.929 . S
H1086 C1090 0.929 . S
H1087 C1096 0.929 . S
C1088 H1082 0.930 . S
C1088 C1089 1.367 . S
C1088 C1096 1.378 . S
C1089 C1088 1.367 . S
C1089 C1097 1.433 . S
C1090 H1086 0.929 . S
C1090 C1092 1.378 . S
C1090 C1094 1.350 . S
C1091 C1094 1.463 . S
C1091 C1096 1.350 . S
C1091 N1099 1.427 . S
C1092 H1083 0.930 . S
C1092 C1090 1.378 . S
C1092 C1093 1.367 . S
C1093 C1092 1.367 . S
C1093 C1095 1.433 . S
C1094 C1090 1.350 . S
C1094 C1091 1.463 . S
C1094 N1098 1.427 . S
C1095 H1085 0.929 . S
C1095 C1093 1.433 . S
C1095 N1098 1.384 . S
C1096 H1087 0.929 . S
C1096 C1088 1.378 . S
C1096 C1091 1.350 . S
C1097 H1084 0.929 . S
C1097 C1089 1.433 . S
C1097 N1099 1.384 . S
N1098 C1094 1.427 . S
N1098 C1095 1.384 . S
N1099 C1091 1.427 . S
N1099 C1097 1.384 . S
H1100 C1106 0.930 . S
H1101 C1110 0.930 . S
H1102 C1115 0.929 . S
H1103 C1113 0.929 . S
H1104 C1108 0.929 . S
H1105 C1114 0.929 . S
C1106 H1100 0.930 . S
C1106 C1107 1.367 . S
C1106 C1114 1.378 . S
C1107 C1106 1.367 . S
C1107 C1115 1.433 . S
C1108 H1104 0.929 . S
C1108 C1110 1.378 . S
C1108 C1112 1.350 . S
C1109 C1112 1.463 . S
C1109 C1114 1.350 . S
C1109 N1117 1.427 . S
C1110 H1101 0.930 . S
C1110 C1108 1.378 . S
C1110 C1111 1.367 . S
C1111 C1110 1.367 . S
C1111 C1113 1.433 . S
C1112 C1108 1.350 . S
C1112 C1109 1.463 . S
C1112 N1116 1.427 . S
C1113 H1103 0.929 . S
C1113 C1111 1.433 . S
C1113 N1116 1.384 . S
C1114 H1105 0.929 . S
C1114 C1106 1.378 . S
C1114 C1109 1.350 . S
C1115 H1102 0.929 . S
C1115 C1107 1.433 . S
C1115 N1117 1.384 . S
N1116 C1112 1.427 . S
N1116 C1113 1.384 . S
N1117 C1109 1.427 . S
N1117 C1115 1.384 . S
H1118 C1124 0.930 . S
H1119 C1128 0.930 . S
H1120 C1133 0.929 . S
H1121 C1131 0.929 . S
H1122 C1126 0.929 . S
H1123 C1132 0.929 . S
C1124 H1118 0.930 . S
C1124 C1125 1.367 . S
C1124 C1132 1.378 . S
C1125 C1124 1.367 . S
C1125 C1133 1.433 . S
C1126 H1122 0.929 . S
C1126 C1128 1.378 . S
C1126 C1130 1.350 . S
C1127 C1130 1.463 . S
C1127 C1132 1.350 . S
C1127 N1135 1.427 . S
C1128 H1119 0.930 . S
C1128 C1126 1.378 . S
C1128 C1129 1.367 . S
C1129 C1128 1.367 . S
C1129 C1131 1.433 . S
C1130 C1126 1.350 . S
C1130 C1127 1.463 . S
C1130 N1134 1.427 . S
C1131 H1121 0.929 . S
C1131 C1129 1.433 . S
C1131 N1134 1.384 . S
C1132 H1123 0.929 . S
C1132 C1124 1.378 . S
C1132 C1127 1.350 . S
C1133 H1120 0.929 . S
C1133 C1125 1.433 . S
C1133 N1135 1.384 . S
N1134 C1130 1.427 . S
N1134 C1131 1.384 . S
N1135 C1127 1.427 . S
N1135 C1133 1.384 . S
H1136 C1142 0.930 . S
H1137 C1146 0.930 . S
H1138 C1151 0.929 . S
H1139 C1149 0.929 . S
H1140 C1144 0.929 . S
H1141 C1150 0.929 . S
C1142 H1136 0.930 . S
C1142 C1143 1.367 . S
C1142 C1150 1.378 . S
C1143 C1142 1.367 . S
C1143 C1151 1.433 . S
C1144 H1140 0.929 . S
C1144 C1146 1.378 . S
C1144 C1148 1.350 . S
C1145 C1148 1.463 . S
C1145 C1150 1.350 . S
C1145 N1153 1.427 . S
C1146 H1137 0.930 . S
C1146 C1144 1.378 . S
C1146 C1147 1.367 . S
C1147 C1146 1.367 . S
C1147 C1149 1.433 . S
C1148 C1144 1.350 . S
C1148 C1145 1.463 . S
C1148 N1152 1.427 . S
C1149 H1139 0.929 . S
C1149 C1147 1.433 . S
C1149 N1152 1.384 . S
C1150 H1141 0.929 . S
C1150 C1142 1.378 . S
C1150 C1145 1.350 . S
C1151 H1138 0.929 . S
C1151 C1143 1.433 . S
C1151 N1153 1.384 . S
N1152 C1148 1.427 . S
N1152 C1149 1.384 . S
N1153 C1145 1.427 . S
N1153 C1151 1.384 . S
H1154 C1160 0.930 . S
H1155 C1164 0.930 . S
H1156 C1169 0.929 . S
H1157 C1167 0.929 . S
H1158 C1162 0.929 . S
H1159 C1168 0.929 . S
C1160 H1154 0.930 . S
C1160 C1161 1.367 . S
C1160 C1168 1.378 . S
C1161 C1160 1.367 . S
C1161 C1169 1.433 . S
C1162 H1158 0.929 . S
C1162 C1164 1.378 . S
C1162 C1166 1.350 . S
C1163 C1166 1.463 . S
C1163 C1168 1.350 . S
C1163 N1171 1.427 . S
C1164 H1155 0.930 . S
C1164 C1162 1.378 . S
C1164 C1165 1.367 . S
C1165 C1164 1.367 . S
C1165 C1167 1.433 . S
C1166 C1162 1.350 . S
C1166 C1163 1.463 . S
C1166 N1170 1.427 . S
C1167 H1157 0.929 . S
C1167 C1165 1.433 . S
C1167 N1170 1.384 . S
C1168 H1159 0.929 . S
C1168 C1160 1.378 . S
C1168 C1163 1.350 . S
C1169 H1156 0.929 . S
C1169 C1161 1.433 . S
C1169 N1171 1.384 . S
N1170 C1166 1.427 . S
N1170 C1167 1.384 . S
N1171 C1163 1.427 . S
N1171 C1169 1.384 . S
H1172 C1178 0.930 . S
H1173 C1182 0.930 . S
H1174 C1187 0.929 . S
H1175 C1185 0.929 . S
H1176 C1180 0.929 . S
H1177 C1186 0.929 . S
C1178 H1172 0.930 . S
C1178 C1179 1.367 . S
C1178 C1186 1.378 . S
C1179 C1178 1.367 . S
C1179 C1187 1.433 . S
C1180 H1176 0.929 . S
C1180 C1182 1.378 . S
C1180 C1184 1.350 . S
C1181 C1184 1.463 . S
C1181 C1186 1.350 . S
C1181 N1189 1.427 . S
C1182 H1173 0.930 . S
C1182 C1180 1.378 . S
C1182 C1183 1.367 . S
C1183 C1182 1.367 . S
C1183 C1185 1.433 . S
C1184 C1180 1.350 . S
C1184 C1181 1.463 . S
C1184 N1188 1.427 . S
C1185 H1175 0.929 . S
C1185 C1183 1.433 . S
C1185 N1188 1.384 . S
C1186 H1177 0.929 . S
C1186 C1178 1.378 . S
C1186 C1181 1.350 . S
C1187 H1174 0.929 . S
C1187 C1179 1.433 . S
C1187 N1189 1.384 . S
N1188 C1184 1.427 . S
N1188 C1185 1.384 . S
N1189 C1181 1.427 . S
N1189 C1187 1.384 . S
H1190 C1196 0.930 . S
H1191 C1200 0.930 . S
H1192 C1205 0.929 . S
H1193 C1203 0.929 . S
H1194 C1198 0.929 . S
H1195 C1204 0.929 . S
C1196 H1190 0.930 . S
C1196 C1197 1.367 . S
C1196 C1204 1.378 . S
C1197 C1196 1.367 . S
C1197 C1205 1.433 . S
C1198 H1194 0.929 . S
C1198 C1200 1.378 . S
C1198 C1202 1.350 . S
C1199 C1202 1.463 . S
C1199 C1204 1.350 . S
C1199 N1207 1.427 . S
C1200 H1191 0.930 . S
C1200 C1198 1.378 . S
C1200 C1201 1.367 . S
C1201 C1200 1.367 . S
C1201 C1203 1.433 . S
C1202 C1198 1.350 . S
C1202 C1199 1.463 . S
C1202 N1206 1.427 . S
C1203 H1193 0.929 . S
C1203 C1201 1.433 . S
C1203 N1206 1.384 . S
C1204 H1195 0.929 . S
C1204 C1196 1.378 . S
C1204 C1199 1.350 . S
C1205 H1192 0.929 . S
C1205 C1197 1.433 . S
C1205 N1207 1.384 . S
N1206 C1202 1.427 . S
N1206 C1203 1.384 . S
N1207 C1199 1.427 . S
N1207 C1205 1.384 . S
H1208 C1214 0.930 . S
H1209 C1218 0.930 . S
H1210 C1223 0.929 . S
H1211 C1221 0.929 . S
H1212 C1216 0.929 . S
H1213 C1222 0.929 . S
C1214 H1208 0.930 . S
C1214 C1215 1.367 . S
C1214 C1222 1.378 . S
C1215 C1214 1.367 . S
C1215 C1223 1.433 . S
C1216 H1212 0.929 . S
C1216 C1218 1.378 . S
C1216 C1220 1.350 . S
C1217 C1220 1.463 . S
C1217 C1222 1.350 . S
C1217 N1225 1.427 . S
C1218 H1209 0.930 . S
C1218 C1216 1.378 . S
C1218 C1219 1.367 . S
C1219 C1218 1.367 . S
C1219 C1221 1.433 . S
C1220 C1216 1.350 . S
C1220 C1217 1.463 . S
C1220 N1224 1.427 . S
C1221 H1211 0.929 . S
C1221 C1219 1.433 . S
C1221 N1224 1.384 . S
C1222 H1213 0.929 . S
C1222 C1214 1.378 . S
C1222 C1217 1.350 . S
C1223 H1210 0.929 . S
C1223 C1215 1.433 . S
C1223 N1225 1.384 . S
N1224 C1220 1.427 . S
N1224 C1221 1.384 . S
N1225 C1217 1.427 . S
N1225 C1223 1.384 . S
H1226 C1232 0.930 . S
H1227 C1236 0.930 . S
H1228 C1241 0.929 . S
H1229 C1239 0.929 . S
H1230 C1234 0.929 . S
H1231 C1240 0.929 . S
C1232 H1226 0.930 . S
C1232 C1233 1.367 . S
C1232 C1240 1.378 . S
C1233 C1232 1.367 . S
C1233 C1241 1.433 . S
C1234 H1230 0.929 . S
C1234 C1236 1.378 . S
C1234 C1238 1.350 . S
C1235 C1238 1.463 . S
C1235 C1240 1.350 . S
C1235 N1243 1.427 . S
C1236 H1227 0.930 . S
C1236 C1234 1.378 . S
C1236 C1237 1.367 . S
C1237 C1236 1.367 . S
C1237 C1239 1.433 . S
C1238 C1234 1.350 . S
C1238 C1235 1.463 . S
C1238 N1242 1.427 . S
C1239 H1229 0.929 . S
C1239 C1237 1.433 . S
C1239 N1242 1.384 . S
C1240 H1231 0.929 . S
C1240 C1232 1.378 . S
C1240 C1235 1.350 . S
C1241 H1228 0.929 . S
C1241 C1233 1.433 . S
C1241 N1243 1.384 . S
N1242 C1238 1.427 . S
N1242 C1239 1.384 . S
N1243 C1235 1.427 . S
N1243 C1241 1.384 . S
H1244 C1250 0.930 . S
H1245 C1254 0.930 . S
H1246 C1259 0.929 . S
H1247 C1257 0.929 . S
H1248 C1252 0.929 . S
H1249 C1258 0.929 . S
C1250 H1244 0.930 . S
C1250 C1251 1.367 . S
C1250 C1258 1.378 . S
C1251 C1250 1.367 . S
C1251 C1259 1.433 . S
C1252 H1248 0.929 . S
C1252 C1254 1.378 . S
C1252 C1256 1.350 . S
C1253 C1256 1.463 . S
C1253 C1258 1.350 . S
C1253 N1261 1.427 . S
C1254 H1245 0.930 . S
C1254 C1252 1.378 . S
C1254 C1255 1.367 . S
C1255 C1254 1.367 . S
C1255 C1257 1.433 . S
C1256 C1252 1.350 . S
C1256 C1253 1.463 . S
C1256 N1260 1.427 . S
C1257 H1247 0.929 . S
C1257 C1255 1.433 . S
C1257 N1260 1.384 . S
C1258 H1249 0.929 . S
C1258 C1250 1.378 . S
C1258 C1253 1.350 . S
C1259 H1246 0.929 . S
C1259 C1251 1.433 . S
C1259 N1261 1.384 . S
N1260 C1256 1.427 . S
N1260 C1257 1.384 . S
N1261 C1253 1.427 . S
N1261 C1259 1.384 . S
H1262 C1268 0.930 . S
H1263 C1272 0.930 . S
H1264 C1277 0.929 . S
H1265 C1275 0.929 . S
H1266 C1270 0.929 . S
H1267 C1276 0.929 . S
C1268 H1262 0.930 . S
C1268 C1269 1.367 . S
C1268 C1276 1.378 . S
C1269 C1268 1.367 . S
C1269 C1277 1.433 . S
C1270 H1266 0.929 . S
C1270 C1272 1.378 . S
C1270 C1274 1.350 . S
C1271 C1274 1.463 . S
C1271 C1276 1.350 . S
C1271 N1279 1.427 . S
C1272 H1263 0.930 . S
C1272 C1270 1.378 . S
C1272 C1273 1.367 . S
C1273 C1272 1.367 . S
C1273 C1275 1.433 . S
C1274 C1270 1.350 . S
C1274 C1271 1.463 . S
C1274 N1278 1.427 . S
C1275 H1265 0.929 . S
C1275 C1273 1.433 . S
C1275 N1278 1.384 . S
C1276 H1267 0.929 . S
C1276 C1268 1.378 . S
C1276 C1271 1.350 . S
C1277 H1264 0.929 . S
C1277 C1269 1.433 . S
C1277 N1279 1.384 . S
N1278 C1274 1.427 . S
N1278 C1275 1.384 . S
N1279 C1271 1.427 . S
N1279 C1277 1.384 . S
H1280 C1286 0.930 . S
H1281 C1290 0.930 . S
H1282 C1295 0.929 . S
H1283 C1293 0.929 . S
H1284 C1288 0.929 . S
H1285 C1294 0.929 . S
C1286 H1280 0.930 . S
C1286 C1287 1.367 1_565 S
C1286 C1294 1.378 . S
C1287 C1286 1.367 1_545 S
C1287 C1295 1.433 . S
C1288 H1284 0.929 . S
C1288 C1290 1.378 . S
C1288 C1292 1.350 . S
C1289 C1292 1.463 . S
C1289 C1294 1.350 . S
C1289 N1297 1.427 . S
C1290 H1281 0.930 . S
C1290 C1288 1.378 . S
C1290 C1291 1.367 . S
C1291 C1290 1.367 . S
C1291 C1293 1.433 . S
C1292 C1288 1.350 . S
C1292 C1289 1.463 . S
C1292 N1296 1.427 . S
C1293 H1283 0.929 . S
C1293 C1291 1.433 . S
C1293 N1296 1.384 . S
C1294 H1285 0.929 . S
C1294 C1286 1.378 . S
C1294 C1289 1.350 . S
C1295 H1282 0.929 . S
C1295 C1287 1.433 . S
C1295 N1297 1.384 1_545 S
N1296 C1292 1.427 . S
N1296 C1293 1.384 . S
N1297 C1289 1.427 . S
N1297 C1295 1.384 1_565 S
H1298 C1304 0.930 . S
H1299 C1308 0.930 . S
H1300 C1313 0.929 . S
H1301 C1311 0.929 . S
H1302 C1306 0.929 . S
H1303 C1312 0.929 . S
C1304 H1298 0.930 . S
C1304 C1305 1.367 . S
C1304 C1312 1.378 . S
C1305 C1304 1.367 . S
C1305 C1313 1.433 . S
C1306 H1302 0.929 . S
C1306 C1308 1.378 . S
C1306 C1310 1.350 . S
C1307 C1310 1.463 . S
C1307 C1312 1.350 . S
C1307 N1315 1.427 . S
C1308 H1299 0.930 . S
C1308 C1306 1.378 . S
C1308 C1309 1.367 . S
C1309 C1308 1.367 . S
C1309 C1311 1.433 . S
C1310 C1306 1.350 . S
C1310 C1307 1.463 . S
C1310 N1314 1.427 . S
C1311 H1301 0.929 . S
C1311 C1309 1.433 . S
C1311 N1314 1.384 . S
C1312 H1303 0.929 . S
C1312 C1304 1.378 . S
C1312 C1307 1.350 . S
C1313 H1300 0.929 . S
C1313 C1305 1.433 . S
C1313 N1315 1.384 . S
N1314 C1310 1.427 . S
N1314 C1311 1.384 . S
N1315 C1307 1.427 . S
N1315 C1313 1.384 . S
H1316 C1322 0.930 . S
H1317 C1326 0.930 . S
H1318 C1331 0.929 . S
H1319 C1329 0.929 . S
H1320 C1324 0.929 . S
H1321 C1330 0.929 . S
C1322 H1316 0.930 . S
C1322 C1323 1.367 . S
C1322 C1330 1.378 . S
C1323 C1322 1.367 . S
C1323 C1331 1.433 . S
C1324 H1320 0.929 . S
C1324 C1326 1.378 . S
C1324 C1328 1.350 . S
C1325 C1328 1.463 . S
C1325 C1330 1.350 . S
C1325 N1333 1.427 . S
C1326 H1317 0.930 . S
C1326 C1324 1.378 . S
C1326 C1327 1.367 1_455 S
C1327 C1326 1.367 1_655 S
C1327 C1329 1.433 . S
C1328 C1324 1.350 . S
C1328 C1325 1.463 . S
C1328 N1332 1.427 . S
C1329 H1319 0.929 . S
C1329 C1327 1.433 . S
C1329 N1332 1.384 1_655 S
C1330 H1321 0.929 . S
C1330 C1322 1.378 . S
C1330 C1325 1.350 . S
C1331 H1318 0.929 . S
C1331 C1323 1.433 . S
C1331 N1333 1.384 . S
N1332 C1328 1.427 . S
N1332 C1329 1.384 1_455 S
N1333 C1325 1.427 . S
N1333 C1331 1.384 . S
H1334 C1340 0.930 . S
H1335 C1344 0.930 . S
H1336 C1349 0.929 . S
H1337 C1347 0.929 . S
H1338 C1342 0.929 . S
H1339 C1348 0.929 . S
C1340 H1334 0.930 . S
C1340 C1341 1.367 . S
C1340 C1348 1.378 1_565 S
C1341 C1340 1.367 . S
C1341 C1349 1.433 1_565 S
C1342 H1338 0.929 . S
C1342 C1344 1.378 . S
C1342 C1346 1.350 . S
C1343 C1346 1.463 . S
C1343 C1348 1.350 . S
C1343 N1351 1.427 . S
C1344 H1335 0.930 . S
C1344 C1342 1.378 . S
C1344 C1345 1.367 1_655 S
C1345 C1344 1.367 1_455 S
C1345 C1347 1.433 . S
C1346 C1342 1.350 . S
C1346 C1343 1.463 . S
C1346 N1350 1.427 . S
C1347 H1337 0.929 . S
C1347 C1345 1.433 . S
C1347 N1350 1.384 1_455 S
C1348 H1339 0.929 . S
C1348 C1340 1.378 1_545 S
C1348 C1343 1.350 . S
C1349 H1336 0.929 . S
C1349 C1341 1.433 1_545 S
C1349 N1351 1.384 . S
N1350 C1346 1.427 . S
N1350 C1347 1.384 1_655 S
N1351 C1343 1.427 . S
N1351 C1349 1.384 . S
H1352 C1358 0.930 . S
H1353 C1362 0.930 . S
H1354 C1367 0.929 . S
H1355 C1365 0.929 . S
H1356 C1360 0.929 . S
H1357 C1366 0.929 . S
C1358 H1352 0.930 . S
C1358 C1359 1.367 . S
C1358 C1366 1.378 . S
C1359 C1358 1.367 . S
C1359 C1367 1.433 . S
C1360 H1356 0.929 . S
C1360 C1362 1.378 . S
C1360 C1364 1.350 . S
C1361 C1364 1.463 . S
C1361 C1366 1.350 . S
C1361 N1369 1.427 . S
C1362 H1353 0.930 . S
C1362 C1360 1.378 . S
C1362 C1363 1.367 . S
C1363 C1362 1.367 . S
C1363 C1365 1.433 . S
C1364 C1360 1.350 . S
C1364 C1361 1.463 . S
C1364 N1368 1.427 . S
C1365 H1355 0.929 . S
C1365 C1363 1.433 . S
C1365 N1368 1.384 . S
C1366 H1357 0.929 . S
C1366 C1358 1.378 . S
C1366 C1361 1.350 . S
C1367 H1354 0.929 . S
C1367 C1359 1.433 . S
C1367 N1369 1.384 . S
N1368 C1364 1.427 . S
N1368 C1365 1.384 . S
N1369 C1361 1.427 . S
N1369 C1367 1.384 . S
H1370 C1376 0.930 . S
H1371 C1380 0.930 . S
H1372 C1385 0.929 . S
H1373 C1383 0.929 . S
H1374 C1378 0.929 . S
H1375 C1384 0.929 . S
C1376 H1370 0.930 . S
C1376 C1377 1.367 1_655 S
C1376 C1384 1.378 . S
C1377 C1376 1.367 1_455 S
C1377 C1385 1.433 . S
C1378 H1374 0.929 . S
C1378 C1380 1.378 . S
C1378 C1382 1.350 . S
C1379 C1382 1.463 . S
C1379 C1384 1.350 . S
C1379 N1387 1.427 . S
C1380 H1371 0.930 . S
C1380 C1378 1.378 . S
C1380 C1381 1.367 . S
C1381 C1380 1.367 . S
C1381 C1383 1.433 . S
C1382 C1378 1.350 . S
C1382 C1379 1.463 . S
C1382 N1386 1.427 . S
C1383 H1373 0.929 . S
C1383 C1381 1.433 . S
C1383 N1386 1.384 . S
C1384 H1375 0.929 . S
C1384 C1376 1.378 . S
C1384 C1379 1.350 . S
C1385 H1372 0.929 . S
C1385 C1377 1.433 . S
C1385 N1387 1.384 1_455 S
N1386 C1382 1.427 . S
N1386 C1383 1.384 . S
N1387 C1379 1.427 . S
N1387 C1385 1.384 1_655 S
H1388 C1394 0.930 . S
H1389 C1398 0.930 . S
H1390 C1403 0.929 . S
H1391 C1401 0.929 . S
H1392 C1396 0.929 . S
H1393 C1402 0.929 . S
C1394 H1388 0.930 . S
C1394 C1395 1.367 . S
C1394 C1402 1.378 1_655 S
C1395 C1394 1.367 . S
C1395 C1403 1.433 1_655 S
C1396 H1392 0.929 . S
C1396 C1398 1.378 . S
C1396 C1400 1.350 . S
C1397 C1400 1.463 . S
C1397 C1402 1.350 . S
C1397 N1405 1.427 . S
C1398 H1389 0.930 . S
C1398 C1396 1.378 . S
C1398 C1399 1.367 1_565 S
C1399 C1398 1.367 1_545 S
C1399 C1401 1.433 . S
C1400 C1396 1.350 . S
C1400 C1397 1.463 . S
C1400 N1404 1.427 . S
C1401 H1391 0.929 . S
C1401 C1399 1.433 . S
C1401 N1404 1.384 1_545 S
C1402 H1393 0.929 . S
C1402 C1394 1.378 1_455 S
C1402 C1397 1.350 . S
C1403 H1390 0.929 . S
C1403 C1395 1.433 1_455 S
C1403 N1405 1.384 . S
N1404 C1400 1.427 . S
N1404 C1401 1.384 1_565 S
N1405 C1397 1.427 . S
N1405 C1403 1.384 . S
H1406 C1412 0.930 . S
H1407 C1416 0.930 . S
H1408 C1421 0.929 . S
H1409 C1419 0.929 . S
H1410 C1414 0.929 . S
H1411 C1420 0.929 1_565 S
C1412 H1406 0.930 . S
C1412 C1413 1.367 . S
C1412 C1420 1.378 1_565 S
C1413 C1412 1.367 . S
C1413 C1421 1.433 1_565 S
C1414 H1410 0.929 . S
C1414 C1416 1.378 . S
C1414 C1418 1.350 . S
C1415 C1418 1.463 . S
C1415 C1420 1.350 . S
C1415 N1423 1.427 . S
C1416 H1407 0.930 . S
C1416 C1414 1.378 . S
C1416 C1417 1.367 . S
C1417 C1416 1.367 . S
C1417 C1419 1.433 . S
C1418 C1414 1.350 . S
C1418 C1415 1.463 . S
C1418 N1422 1.427 . S
C1419 H1409 0.929 . S
C1419 C1417 1.433 . S
C1419 N1422 1.384 . S
C1420 H1411 0.929 1_545 S
C1420 C1412 1.378 1_545 S
C1420 C1415 1.350 . S
C1421 H1408 0.929 . S
C1421 C1413 1.433 1_545 S
C1421 N1423 1.384 . S
N1422 C1418 1.427 . S
N1422 C1419 1.384 . S
N1423 C1415 1.427 . S
N1423 C1421 1.384 . S
C855 C410 1.825 . S
C859 C39 1.818 . S
C873 C251 1.821 . S
C877 C92 1.818 . S
C891 C304 1.825 . S
C895 C145 1.819 . S
C909 C198 1.825 . S
C913 C357 1.818 . S
C927 C834 1.815 . S
C931 C463 1.814 . S
C945 C675 1.815 . S
C949 C516 1.821 . S
C963 C569 1.821 . S
C967 C728 1.816 . S
C981 C622 1.817 . S
C985 C781 1.821 . S
C999 C135 1.438 . S
C1003 C29 1.440 . S
C1017 C82 1.435 . S
C1021 C188 1.438 . S
C1035 C241 1.440 . S
C1039 C347 1.442 . S
C1053 C400 1.440 . S
C1057 C294 1.442 . S
C1071 C453 1.436 . S
C1075 C559 1.438 . S
C1089 C506 1.442 . S
C1093 C612 1.439 . S
C1107 C771 1.440 . S
C1111 C665 1.443 . S
C1125 C718 1.444 . S
C1129 C824 1.442 . S
C1143 C356 1.854 . S
C1147 C38 1.855 . S
C1161 C91 1.856 . S
C1165 C409 1.856 . S
C1179 C144 1.849 . S
C1183 C250 1.849 . S
C1197 C197 1.850 . S
C1201 C303 1.850 . S
C1215 C462 1.854 . S
C1219 C780 1.854 . S
C1233 C515 1.860 . S
C1237 C833 1.860 . S
C1251 C568 1.860 . S
C1255 C674 1.860 . S
C1269 C621 1.857 . S
C1273 C727 1.856 . S
C1287 C22 1.522 . S
C1291 C817 1.517 . S
C1305 C658 1.518 . S
C1309 C75 1.522 . S
C1323 C128 1.521 . S
C1327 C711 1.520 . S
C1341 C764 1.518 . S
C1345 C181 1.522 . S
C1359 C499 1.519 . S
C1363 C234 1.521 . S
C1377 C287 1.521 . S
C1381 C552 1.519 . S
C1395 C605 1.518 . S
C1399 C340 1.522 . S
C1413 C446 1.518 . S
C1417 C393 1.522 . S
