# Generated by pormake.
# Topology umm, (4)-cn, num edge types: 1
# Building blocks:
#     Node 0, Type 0, BuildingBlock: KOZSID_clean_sbu_0, # of connection points: 4
#     Node 1, Type 0, BuildingBlock: KOZSID_clean_sbu_0, # of connection points: 4
#     Node 2, Type 0, BuildingBlock: KOZSID_clean_sbu_0, # of connection points: 4
#     Node 3, Type 0, BuildingBlock: KOZSID_clean_sbu_0, # of connection points: 4
#     Node 4, Type 0, BuildingBlock: KOZSID_clean_sbu_0, # of connection points: 4
#     Node 5, Type 0, BuildingBlock: KOZSID_clean_sbu_0, # of connection points: 4
#     Node 6, Type 0, BuildingBlock: KOZSID_clean_sbu_0, # of connection points: 4
#     Node 7, Type 0, BuildingBlock: KOZSID_clean_sbu_0, # of connection points: 4
#     Node 8, Type 0, BuildingBlock: KOZSID_clean_sbu_0, # of connection points: 4
#     Node 9, Type 0, BuildingBlock: KOZSID_clean_sbu_0, # of connection points: 4
#     Node 10, Type 0, BuildingBlock: KOZSID_clean_sbu_0, # of connection points: 4
#     Node 11, Type 0, BuildingBlock: KOZSID_clean_sbu_0, # of connection points: 4
#     Edge 12, Type (0, 0), BuildingBlock: KIFKEQ_clean_linker_1, # of connection points: 2
#     Edge 13, Type (0, 0), BuildingBlock: KIFKEQ_clean_linker_1, # of connection points: 2
#     Edge 14, Type (0, 0), BuildingBlock: KIFKEQ_clean_linker_1, # of connection points: 2
#     Edge 15, Type (0, 0), BuildingBlock: KIFKEQ_clean_linker_1, # of connection points: 2
#     Edge 16, Type (0, 0), BuildingBlock: KIFKEQ_clean_linker_1, # of connection points: 2
#     Edge 17, Type (0, 0), BuildingBlock: KIFKEQ_clean_linker_1, # of connection points: 2
#     Edge 18, Type (0, 0), BuildingBlock: KIFKEQ_clean_linker_1, # of connection points: 2
#     Edge 19, Type (0, 0), BuildingBlock: KIFKEQ_clean_linker_1, # of connection points: 2
#     Edge 20, Type (0, 0), BuildingBlock: KIFKEQ_clean_linker_1, # of connection points: 2
#     Edge 21, Type (0, 0), BuildingBlock: KIFKEQ_clean_linker_1, # of connection points: 2
#     Edge 22, Type (0, 0), BuildingBlock: KIFKEQ_clean_linker_1, # of connection points: 2
#     Edge 23, Type (0, 0), BuildingBlock: KIFKEQ_clean_linker_1, # of connection points: 2
#     Edge 24, Type (0, 0), BuildingBlock: KIFKEQ_clean_linker_1, # of connection points: 2
#     Edge 25, Type (0, 0), BuildingBlock: KIFKEQ_clean_linker_1, # of connection points: 2
#     Edge 26, Type (0, 0), BuildingBlock: KIFKEQ_clean_linker_1, # of connection points: 2
#     Edge 27, Type (0, 0), BuildingBlock: KIFKEQ_clean_linker_1, # of connection points: 2
#     Edge 28, Type (0, 0), BuildingBlock: KIFKEQ_clean_linker_1, # of connection points: 2
#     Edge 29, Type (0, 0), BuildingBlock: KIFKEQ_clean_linker_1, # of connection points: 2
#     Edge 30, Type (0, 0), BuildingBlock: KIFKEQ_clean_linker_1, # of connection points: 2
#     Edge 31, Type (0, 0), BuildingBlock: KIFKEQ_clean_linker_1, # of connection points: 2
#     Edge 32, Type (0, 0), BuildingBlock: KIFKEQ_clean_linker_1, # of connection points: 2
#     Edge 33, Type (0, 0), BuildingBlock: KIFKEQ_clean_linker_1, # of connection points: 2
#     Edge 34, Type (0, 0), BuildingBlock: KIFKEQ_clean_linker_1, # of connection points: 2
#     Edge 35, Type (0, 0), BuildingBlock: KIFKEQ_clean_linker_1, # of connection points: 2
# Relax obj value: 0.060
# Max RMSD: 0.165
# Mean RMSD: 0.165
data_MOF--net-umm--node1-KOZSID_clean_sbu_0--edge1-KIFKEQ_clean_linker_1
_symmetry_space_group_name_H-M    P1
_symmetry_Int_Tables_number       1
_symmetry_cell_setting            triclinic
loop_
_symmetry_equiv_pos_as_xyz
'x, y, z'
_cell_length_a     62.531289
_cell_length_b     62.527439
_cell_length_c     38.703311
_cell_angle_alpha  89.981783
_cell_angle_beta   90.051968
_cell_angle_gamma 119.98139
loop_
_atom_site_label
_atom_site_type_symbol
_atom_site_fract_x
_atom_site_fract_y
_atom_site_fract_z
_atom_type_partial_charge
C0 C 0.36261 0.55709 0.08626 0.0
C1 C 0.33769 0.53955 0.08753 0.0
C2 C 0.33618 0.51833 0.10022 0.0
C3 C 0.36016 0.52413 0.10602 0.0
N4 N 0.37658 0.54764 0.09782 0.0
Co5 Co 0.41292 0.56367 0.10171 0.0
N6 N 0.41163 0.53133 0.10222 0.0
C7 C 0.39149 0.50934 0.10904 0.0
C8 C 0.39599 0.49004 0.10724 0.0
C9 C 0.42054 0.50056 0.09924 0.0
C10 C 0.42978 0.52587 0.0969 0.0
N11 N 0.44935 0.57977 0.10569 0.0
C12 C 0.46449 0.57031 0.10075 0.0
C13 C 0.48882 0.58796 0.10774 0.0
C14 C 0.48873 0.60902 0.11767 0.0
C15 C 0.46444 0.60313 0.11627 0.0
N16 N 0.4138 0.59582 0.10126 0.0
C17 C 0.43251 0.61747 0.11248 0.0
C18 C 0.42791 0.63662 0.10787 0.0
C19 C 0.40488 0.62624 0.09289 0.0
C20 C 0.3967 0.60127 0.08924 0.0
N21 N 0.4106 0.56294 0.15236 0.0
C22 C 0.41546 0.57133 0.22388 0.0
C23 C 0.39869 0.57525 0.20468 0.0
C24 C 0.39655 0.57096 0.16891 0.0
C25 C 0.42828 0.56139 0.20693 0.0
C26 C 0.42542 0.55711 0.17141 0.0
N27 N 0.4159 0.56508 0.05139 0.0
C28 C 0.43517 0.58928 1.00066 0.0
C29 C 0.42052 0.56909 0.97947 0.0
C30 C 0.40368 0.54659 0.99496 0.0
C31 C 0.40149 0.54503 0.03109 0.0
C32 C 0.43274 0.58684 0.03636 0.0
H33 H 0.3881 0.52774 0.04261 0.0
H34 H 0.44449 0.60277 0.05178 0.0
H35 H 0.38441 0.57524 0.15441 0.0
H36 H 0.43623 0.55022 0.15917 0.0
C37 C 0.36815 0.50716 0.11187 0.0
C38 C 0.37239 0.58283 0.07566 0.0
C39 C 0.45617 0.54419 0.09324 0.0
C40 C 0.45551 0.61967 0.12008 0.0
H41 H 0.32228 0.54182 0.07992 0.0
H42 H 0.31965 0.50051 0.10309 0.0
H43 H 0.38287 0.47057 0.11034 0.0
H44 H 0.43054 0.4907 0.09604 0.0
H45 H 0.50487 0.5857 0.10646 0.0
H46 H 0.50457 0.62664 0.12438 0.0
H47 H 0.44031 0.65601 0.11301 0.0
H48 H 0.39536 0.63595 0.08529 0.0
H49 H 0.38826 0.58275 0.21683 0.0
H50 H 0.44099 0.55752 0.22091 0.0
H51 H 0.44863 0.60688 0.9897 0.0
H52 H 0.392 0.53056 0.97931 0.0
C53 C 0.81418 0.35823 0.42055 0.0
C54 C 0.80691 0.33332 0.42162 0.0
C55 C 0.82666 0.33184 0.4342 0.0
C56 C 0.84478 0.35583 0.44013 0.0
N57 N 0.83759 0.37222 0.43211 0.0
Co58 Co 0.85776 0.40855 0.43635 0.0
N59 N 0.88887 0.40739 0.43668 0.0
C60 C 0.89083 0.38728 0.44334 0.0
C61 C 0.91467 0.3919 0.4415 0.0
C62 C 0.9286 0.41648 0.43362 0.0
C63 C 0.91243 0.42562 0.43139 0.0
N64 N 0.87795 0.44496 0.44067 0.0
C65 C 0.90252 0.46019 0.43565 0.0
C66 C 0.9091 0.48448 0.44283 0.0
C67 C 0.88793 0.48426 0.45294 0.0
C68 C 0.86961 0.45994 0.45147 0.0
N69 N 0.82642 0.40929 0.43609 0.0
C70 C 0.82339 0.42789 0.44754 0.0
C71 C 0.79961 0.42323 0.44301 0.0
C72 C 0.78704 0.40026 0.42784 0.0
C73 C 0.8039 0.39218 0.424 0.0
N74 N 0.85616 0.40591 0.48696 0.0
C75 C 0.85296 0.40863 0.55919 0.0
C76 C 0.83216 0.39267 0.5394 0.0
C77 C 0.83416 0.39154 0.50343 0.0
C78 C 0.87557 0.42224 0.54194 0.0
C79 C 0.8768 0.42047 0.50614 0.0
N80 N 0.85934 0.4118 0.38607 0.0
C81 C 0.85437 0.43127 0.33555 0.0
C82 C 0.86005 0.4168 0.3142 0.0
C83 C 0.86579 0.39995 0.3295 0.0
C84 C 0.86511 0.39756 0.3656 0.0
C85 C 0.85433 0.42865 0.37122 0.0
H86 H 0.86907 0.38416 0.37697 0.0
H87 H 0.85004 0.44026 0.38679 0.0
H88 H 0.81773 0.37962 0.48881 0.0
H89 H 0.89441 0.43176 0.49389 0.0
C90 C 0.86975 0.36388 0.44602 0.0
C91 C 0.79814 0.36797 0.41019 0.0
C92 C 0.92035 0.45199 0.42781 0.0
C93 C 0.84413 0.4509 0.4553 0.0
H94 H 0.78926 0.3179 0.41398 0.0
H95 H 0.82804 0.31535 0.43694 0.0
H96 H 0.92111 0.37883 0.44446 0.0
H97 H 0.94844 0.42656 0.43042 0.0
H98 H 0.92737 0.50058 0.44152 0.0
H99 H 0.88607 0.50003 0.45979 0.0
H100 H 0.79254 0.43554 0.44834 0.0
H101 H 0.76781 0.39071 0.42025 0.0
H102 H 0.81436 0.38132 0.55148 0.0
H103 H 0.89219 0.43504 0.5557 0.0
H104 H 0.85016 0.44474 0.32473 0.0
H105 H 0.87024 0.38841 0.31372 0.0
C106 C 0.46477 0.80946 0.75188 0.0
C107 C 0.48233 0.80208 0.75253 0.0
C108 C 0.50367 0.82174 0.76501 0.0
C109 C 0.49792 0.83991 0.77131 0.0
N110 N 0.47433 0.83285 0.7636 0.0
Co111 Co 0.45833 0.85314 0.76858 0.0
N112 N 0.49066 0.88416 0.769 0.0
C113 C 0.51272 0.88598 0.77524 0.0
C114 C 0.53199 0.90979 0.77347 0.0
C115 C 0.52139 0.92386 0.76609 0.0
C116 C 0.49607 0.90779 0.76405 0.0
N117 N 0.44229 0.87346 0.77369 0.0
C118 C 0.45169 0.89807 0.769 0.0
C119 C 0.43411 0.90473 0.77666 0.0
C120 C 0.41316 0.88355 0.78672 0.0
C121 C 0.41903 0.86514 0.78474 0.0
N122 N 0.42617 0.82189 0.7682 0.0
C123 C 0.40463 0.81891 0.77998 0.0
C124 C 0.38544 0.79519 0.77544 0.0
C125 C 0.39566 0.78259 0.75992 0.0
C126 C 0.4206 0.79937 0.75592 0.0
N127 N 0.45955 0.85117 0.81914 0.0
C128 C 0.45347 0.84752 0.89134 0.0
C129 C 0.44856 0.82681 0.87129 0.0
C130 C 0.45178 0.82903 0.83533 0.0
C131 C 0.46276 0.87028 0.87438 0.0
C132 C 0.46585 0.87173 0.8386 0.0
N133 N 0.4565 0.85517 0.71838 0.0
C134 C 0.43252 0.85265 0.66836 0.0
C135 C 0.45279 0.85922 0.64671 0.0
C136 C 0.47497 0.86327 0.66182 0.0
C137 C 0.47642 0.86111 0.69772 0.0
C138 C 0.43478 0.85088 0.70384 0.0
H139 H 0.49365 0.86443 0.70882 0.0
H140 H 0.41882 0.84607 0.71955 0.0
H141 H 0.44714 0.81266 0.82049 0.0
H142 H 0.47229 0.88944 0.82658 0.0
C143 C 0.51493 0.86481 0.77739 0.0
C144 C 0.43891 0.79349 0.74184 0.0
C145 C 0.4777 0.91585 0.76096 0.0
C146 C 0.40251 0.83966 0.78828 0.0
H147 H 0.47999 0.78442 0.74472 0.0
H148 H 0.52151 0.82302 0.76748 0.0
H149 H 0.55149 0.91612 0.77614 0.0
H150 H 0.53121 0.94372 0.76306 0.0
H151 H 0.43635 0.92303 0.77567 0.0
H152 H 0.39559 0.88173 0.79384 0.0
H153 H 0.3661 0.78818 0.78104 0.0
H154 H 0.38589 0.76338 0.75226 0.0
H155 H 0.4419 0.80889 0.88314 0.0
H156 H 0.46665 0.88685 0.88831 0.0
H157 H 0.41481 0.84868 0.65802 0.0
H158 H 0.4912 0.86848 0.6462 0.0
C159 C 0.66415 0.45996 0.08664 0.0
C160 C 0.68908 0.47752 0.08758 0.0
C161 C 0.69066 0.49882 0.10005 0.0
C162 C 0.66671 0.49304 0.10607 0.0
N163 N 0.65025 0.46948 0.09819 0.0
Co164 Co 0.61394 0.45345 0.10263 0.0
N165 N 0.61521 0.48577 0.10291 0.0
C166 C 0.63539 0.50781 0.10938 0.0
C167 C 0.63085 0.52709 0.10747 0.0
C168 C 0.60624 0.5165 0.09975 0.0
C169 C 0.59701 0.49118 0.09769 0.0
N170 N 0.57756 0.43737 0.10718 0.0
C171 C 0.56236 0.44677 0.10224 0.0
C172 C 0.53809 0.42916 0.1096 0.0
C173 C 0.53827 0.40819 0.11973 0.0
C174 C 0.56256 0.41408 0.11809 0.0
N175 N 0.61307 0.4213 0.10239 0.0
C176 C 0.59446 0.39973 0.11396 0.0
C177 C 0.59904 0.38055 0.10949 0.0
C178 C 0.62195 0.39083 0.09424 0.0
C179 C 0.6301 0.41578 0.0903 0.0
N180 N 0.61677 0.45455 0.15323 0.0
C181 C 0.61397 0.44833 0.22541 0.0
C182 C 0.62994 0.44355 0.20558 0.0
C183 C 0.63111 0.44683 0.16963 0.0
C184 C 0.6005 0.45756 0.20825 0.0
C185 C 0.60232 0.46072 0.17247 0.0
N186 N 0.6105 0.45172 0.05237 0.0
C187 C 0.59034 0.42746 1.00198 0.0
C188 C 0.60473 0.44759 0.98052 0.0
C189 C 0.62201 0.47003 0.99579 0.0
C190 C 0.62474 0.47166 0.03184 0.0
C191 C 0.59339 0.42994 0.03762 0.0
H192 H 0.63836 0.48895 0.04312 0.0
H193 H 0.58182 0.41407 0.05325 0.0
H194 H 0.64297 0.44228 0.15496 0.0
H195 H 0.59108 0.46714 0.16028 0.0
C196 C 0.65876 0.51004 0.11193 0.0
C197 C 0.65432 0.43414 0.07643 0.0
C198 C 0.57061 0.47281 0.0943 0.0
C199 C 0.57152 0.39756 0.12187 0.0
H200 H 0.70445 0.47521 0.07992 0.0
H201 H 0.7072 0.51666 0.10268 0.0
H202 H 0.64398 0.54659 0.11028 0.0
H203 H 0.59621 0.52632 0.09654 0.0
H204 H 0.52202 0.43139 0.10838 0.0
H205 H 0.52249 0.3906 0.1267 0.0
H206 H 0.58669 0.36119 0.11494 0.0
H207 H 0.63144 0.38109 0.08669 0.0
H208 H 0.64121 0.43695 0.21758 0.0
H209 H 0.5877 0.46136 0.22201 0.0
H210 H 0.57651 0.40991 0.99131 0.0
H211 H 0.63355 0.48603 0.98001 0.0
C212 C 0.21249 0.65984 0.41842 0.0
C213 C 0.21988 0.68478 0.4193 0.0
C214 C 0.20024 0.68643 0.43186 0.0
C215 C 0.18206 0.66251 0.43799 0.0
N216 N 0.18909 0.64599 0.4301 0.0
Co217 Co 0.16878 0.60969 0.43471 0.0
N218 N 0.13778 0.61105 0.4352 0.0
C219 C 0.13597 0.63127 0.4416 0.0
C220 C 0.11217 0.62678 0.43977 0.0
C221 C 0.0981 0.60216 0.43218 0.0
C222 C 0.11415 0.59287 0.43011 0.0
N223 N 0.14844 0.57332 0.43949 0.0
C224 C 0.12383 0.55816 0.43476 0.0
C225 C 0.11716 0.53389 0.44225 0.0
C226 C 0.13833 0.53405 0.45226 0.0
C227 C 0.15674 0.55831 0.45041 0.0
N228 N 0.20001 0.60873 0.4342 0.0
C229 C 0.20297 0.59011 0.44579 0.0
C230 C 0.22669 0.59463 0.4412 0.0
C231 C 0.2393 0.61752 0.42586 0.0
C232 C 0.22253 0.62571 0.42199 0.0
N233 N 0.17071 0.61257 0.48529 0.0
C234 C 0.17457 0.60806 0.55679 0.0
C235 C 0.19521 0.62463 0.5374 0.0
C236 C 0.19289 0.62661 0.50162 0.0
C237 C 0.1517 0.59534 0.54008 0.0
C238 C 0.15013 0.59803 0.50456 0.0
N239 N 0.16678 0.60609 0.38448 0.0
C240 C 0.16914 0.58469 0.33436 0.0
C241 C 0.16284 0.59866 0.31281 0.0
C242 C 0.15897 0.61687 0.32798 0.0
C243 C 0.16104 0.62029 0.36392 0.0
C244 C 0.17091 0.5886 0.36985 0.0
H245 H 0.15784 0.63424 0.37512 0.0
H246 H 0.17559 0.5773 0.38546 0.0
H247 H 0.20925 0.63855 0.48694 0.0
H248 H 0.13235 0.58723 0.4925 0.0
C249 C 0.15715 0.65462 0.44398 0.0
C250 C 0.22841 0.64996 0.40814 0.0
C251 C 0.10606 0.56645 0.42688 0.0
C252 C 0.18222 0.56722 0.45395 0.0
H253 H 0.23754 0.70012 0.41153 0.0
H254 H 0.19897 0.703 0.43447 0.0
H255 H 0.10586 0.63996 0.44254 0.0
H256 H 0.07825 0.59217 0.42906 0.0
H257 H 0.09884 0.51784 0.44121 0.0
H258 H 0.14012 0.51826 0.45927 0.0
H259 H 0.2337 0.58227 0.44666 0.0
H260 H 0.25851 0.62697 0.41822 0.0
H261 H 0.21321 0.63499 0.5494 0.0
H262 H 0.13518 0.5828 0.55423 0.0
H263 H 0.17296 0.57087 0.32392 0.0
H264 H 0.15401 0.6281 0.31237 0.0
C265 C 0.56177 0.20792 0.75291 0.0
C266 C 0.54415 0.21523 0.7537 0.0
C267 C 0.52287 0.19552 0.76615 0.0
C268 C 0.5287 0.17738 0.77231 0.0
N269 N 0.55228 0.18451 0.76453 0.0
Co270 Co 0.56838 0.1643 0.7692 0.0
N271 N 0.5361 0.13322 0.76947 0.0
C272 C 0.51403 0.13132 0.77584 0.0
C273 C 0.49479 0.10749 0.77399 0.0
C274 C 0.50544 0.0935 0.76643 0.0
C275 C 0.53075 0.10963 0.76438 0.0
N276 N 0.58453 0.14405 0.774 0.0
C277 C 0.57518 0.11946 0.76915 0.0
C278 C 0.59282 0.11285 0.77666 0.0
C279 C 0.61376 0.13403 0.7868 0.0
C280 C 0.60781 0.15239 0.78501 0.0
N281 N 0.60049 0.1956 0.76898 0.0
C282 C 0.62207 0.19861 0.78068 0.0
C283 C 0.64121 0.22237 0.7762 0.0
C284 C 0.6309 0.23495 0.76082 0.0
C285 C 0.60597 0.21812 0.75681 0.0
N286 N 0.56723 0.16609 0.81977 0.0
C287 C 0.57311 0.16959 0.89199 0.0
C288 C 0.57798 0.19032 0.87203 0.0
C289 C 0.57486 0.18816 0.83606 0.0
C290 C 0.56405 0.14689 0.87494 0.0
C291 C 0.56106 0.14551 0.83913 0.0
N292 N 0.57018 0.16254 0.71898 0.0
C293 C 0.59453 0.16669 0.66874 0.0
C294 C 0.57443 0.16094 0.64718 0.0
C295 C 0.55195 0.15572 0.66231 0.0
C296 C 0.55026 0.15681 0.69834 0.0
C297 C 0.59199 0.16724 0.70436 0.0
H298 H 0.53294 0.15311 0.70953 0.0
H299 H 0.60784 0.17156 0.72007 0.0
H300 H 0.57942 0.20455 0.8213 0.0
H301 H 0.55473 0.12785 0.82702 0.0
C302 C 0.51175 0.15244 0.77823 0.0
C303 C 0.58759 0.22393 0.7428 0.0
C304 C 0.54916 0.10164 0.76114 0.0
C305 C 0.62428 0.17787 0.78873 0.0
H306 H 0.54643 0.23289 0.74597 0.0
H307 H 0.50501 0.19418 0.76869 0.0
H308 H 0.47529 0.1011 0.77675 0.0
H309 H 0.49567 0.07365 0.76332 0.0
H310 H 0.59063 0.09456 0.77553 0.0
H311 H 0.63135 0.13587 0.79386 0.0
H312 H 0.66057 0.22942 0.78174 0.0
H313 H 0.64061 0.25417 0.75323 0.0
H314 H 0.58447 0.20818 0.88396 0.0
H315 H 0.56019 0.13032 0.88885 0.0
H316 H 0.61212 0.17045 0.65817 0.0
H317 H 0.53597 0.15124 0.64645 0.0
C318 C 0.46458 0.65932 0.61812 0.0
C319 C 0.48223 0.68423 0.61774 0.0
C320 C 0.50362 0.68583 0.60569 0.0
C321 C 0.49782 0.66191 0.59934 0.0
N322 N 0.47415 0.64544 0.60662 0.0
Co323 Co 0.45804 0.60916 0.6015 0.0
N324 N 0.4903 0.6103 0.60184 0.0
C325 C 0.51245 0.63048 0.59598 0.0
C326 C 0.53164 0.62582 0.59815 0.0
C327 C 0.52088 0.60113 0.60539 0.0
C328 C 0.49556 0.59199 0.60693 0.0
N329 N 0.44189 0.57282 0.59627 0.0
C330 C 0.45116 0.5575 0.60116 0.0
C331 C 0.43357 0.53333 0.59321 0.0
C332 C 0.41275 0.5337 0.58273 0.0
C333 C 0.41872 0.558 0.58477 0.0
N334 N 0.42597 0.60844 0.60113 0.0
C335 C 0.40449 0.58999 0.58898 0.0
C336 C 0.38533 0.59462 0.59315 0.0
C337 C 0.39552 0.6174 0.60882 0.0
C338 C 0.4204 0.62543 0.61329 0.0
N339 N 0.45973 0.61246 0.55096 0.0
C340 C 0.4544 0.61042 0.47864 0.0
C341 C 0.44938 0.62618 0.49856 0.0
C342 C 0.45223 0.62699 0.53457 0.0
C343 C 0.46336 0.59672 0.49582 0.0
C344 C 0.46607 0.59816 0.53168 0.0
N345 N 0.45571 0.60525 0.65169 0.0
C346 C 0.43068 0.58499 0.70139 0.0
C347 C 0.45049 0.59925 0.7234 0.0
C348 C 0.47323 0.61641 0.7088 0.0
C349 C 0.4754 0.61927 0.67278 0.0
C350 C 0.4337 0.58813 0.66582 0.0
H351 H 0.49288 0.63288 0.66199 0.0
H352 H 0.41804 0.5767 0.64975 0.0
H353 H 0.44754 0.63874 0.54928 0.0
H354 H 0.4723 0.58676 0.54386 0.0
C355 C 0.5148 0.65392 0.59371 0.0
C356 C 0.43867 0.6495 0.62774 0.0
C357 C 0.47708 0.56558 0.60963 0.0
C358 C 0.40232 0.56709 0.58079 0.0
H359 H 0.47991 0.69958 0.62549 0.0
H360 H 0.52152 0.70235 0.60355 0.0
H361 H 0.55118 0.63892 0.5958 0.0
H362 H 0.53059 0.59099 0.6086 0.0
H363 H 0.43572 0.5172 0.59427 0.0
H364 H 0.39522 0.51803 0.57527 0.0
H365 H 0.36603 0.58239 0.58723 0.0
H366 H 0.38575 0.62688 0.6163 0.0
H367 H 0.44297 0.6376 0.48654 0.0
H368 H 0.46733 0.58407 0.48195 0.0
H369 H 0.41291 0.57128 0.71161 0.0
H370 H 0.48899 0.62782 0.72506 0.0
C371 C 0.81424 0.46048 0.95221 0.0
C372 C 0.80681 0.47801 0.95159 0.0
C373 C 0.82652 0.49943 0.93945 0.0
C374 C 0.84476 0.49375 0.93331 0.0
N375 N 0.8377 0.47014 0.94077 0.0
Co376 Co 0.85809 0.45423 0.93613 0.0
N377 N 0.88908 0.4866 0.93635 0.0
C378 C 0.89089 0.50867 0.93034 0.0
C379 C 0.91466 0.52798 0.93256 0.0
C380 C 0.92872 0.51738 0.93998 0.0
C381 C 0.91269 0.49203 0.94156 0.0
N382 N 0.87849 0.43825 0.93134 0.0
C383 C 0.9031 0.44769 0.93622 0.0
C384 C 0.90983 0.43017 0.92851 0.0
C385 C 0.88873 0.40923 0.91818 0.0
C386 C 0.87029 0.41505 0.92007 0.0
N387 N 0.82687 0.42204 0.93589 0.0
C388 C 0.824 0.40056 0.924 0.0
C389 C 0.80027 0.38132 0.92821 0.0
C390 C 0.78754 0.39145 0.94363 0.0
C391 C 0.80427 0.41637 0.94792 0.0
N392 N 0.85655 0.45565 0.88553 0.0
C393 C 0.85312 0.44784 0.8139 0.0
C394 C 0.83238 0.44366 0.83313 0.0
C395 C 0.83449 0.44768 0.86896 0.0
C396 C 0.87589 0.45783 0.83087 0.0
C397 C 0.87725 0.46182 0.86646 0.0
N398 N 0.85959 0.45211 0.98637 0.0
C399 C 0.85487 0.42726 0.03631 0.0
C400 C 0.86021 0.44709 0.05814 0.0
C401 C 0.86567 0.46975 0.04334 0.0
C402 C 0.86506 0.47182 1.00728 0.0
C403 C 0.85483 0.43018 1.00071 0.0
H404 H 0.86883 0.48923 0.99632 0.0
H405 H 0.85076 0.4145 0.98479 0.0
H406 H 0.81803 0.44317 0.88348 0.0
H407 H 0.89495 0.46869 0.87872 0.0
C408 C 0.86971 0.51085 0.92781 0.0
C409 C 0.7983 0.43459 0.96209 0.0
C410 C 0.92084 0.47371 0.94435 0.0
C411 C 0.84484 0.39852 0.91605 0.0
H412 H 0.7891 0.4756 0.95926 0.0
H413 H 0.82779 0.51728 0.93717 0.0
H414 H 0.92096 0.54749 0.93011 0.0
H415 H 0.94855 0.52722 0.94328 0.0
H416 H 0.92816 0.43246 0.92957 0.0
H417 H 0.887 0.39173 0.91087 0.0
H418 H 0.79333 0.36201 0.92248 0.0
H419 H 0.76829 0.38161 0.95106 0.0
H420 H 0.81445 0.43613 0.82095 0.0
H421 H 0.89249 0.4619 0.81687 0.0
H422 H 0.8509 0.40955 0.04669 0.0
H423 H 0.86985 0.48552 0.05947 0.0
C424 C 0.36266 0.80989 0.28413 0.0
C425 C 0.33775 0.80265 0.28341 0.0
C426 C 0.33621 0.82238 0.27089 0.0
C427 C 0.36016 0.84044 0.26463 0.0
N428 N 0.37659 0.83326 0.27242 0.0
Co429 Co 0.41288 0.85337 0.26753 0.0
N430 N 0.41176 0.8845 0.26707 0.0
C431 C 0.39161 0.88646 0.26071 0.0
C432 C 0.39628 0.91033 0.26243 0.0
C433 C 0.42094 0.92427 0.26992 0.0
C434 C 0.43005 0.90808 0.27207 0.0
N435 N 0.44924 0.87351 0.26252 0.0
C436 C 0.46454 0.8981 0.26729 0.0
C437 C 0.48875 0.90463 0.25971 0.0
C438 C 0.48841 0.88339 0.24962 0.0
C439 C 0.4641 0.86508 0.25151 0.0
N440 N 0.41361 0.82202 0.26795 0.0
C441 C 0.4321 0.81891 0.25622 0.0
C442 C 0.42744 0.79514 0.26076 0.0
C443 C 0.40459 0.78265 0.27623 0.0
C444 C 0.39656 0.79954 0.2802 0.0
N445 N 0.40975 0.85141 0.21696 0.0
C446 C 0.41223 0.84773 0.14477 0.0
C447 C 0.39632 0.82706 0.1648 0.0
C448 C 0.39531 0.8293 0.20075 0.0
C449 C 0.42579 0.87047 0.16175 0.0
C450 C 0.42413 0.87194 0.19752 0.0
N451 N 0.41668 0.85539 0.31774 0.0
C452 C 0.438 0.85273 0.36783 0.0
C453 C 0.42435 0.85941 0.38942 0.0
C454 C 0.40633 0.86359 0.37426 0.0
C455 C 0.40275 0.86144 0.33835 0.0
C456 C 0.43401 0.85097 0.33233 0.0
H457 H 0.38892 0.86485 0.3272 0.0
H458 H 0.44511 0.84608 0.31667 0.0
H459 H 0.3835 0.81296 0.21558 0.0
H460 H 0.43545 0.88964 0.20955 0.0
C461 C 0.36818 0.86538 0.25851 0.0
C462 C 0.37241 0.79381 0.29422 0.0
C463 C 0.45643 0.91597 0.27536 0.0
C464 C 0.45503 0.83958 0.24796 0.0
H465 H 0.32237 0.78503 0.29121 0.0
H466 H 0.31971 0.82376 0.26836 0.0
H467 H 0.3832 0.91677 0.25967 0.0
H468 H 0.43106 0.94413 0.27295 0.0
H469 H 0.50487 0.92289 0.26078 0.0
H470 H 0.50411 0.88147 0.24256 0.0
H471 H 0.43968 0.78802 0.2552 0.0
H472 H 0.39506 0.76343 0.28387 0.0
H473 H 0.385 0.80916 0.15295 0.0
H474 H 0.43855 0.88701 0.14784 0.0
H475 H 0.45167 0.84867 0.37821 0.0
H476 H 0.39535 0.86888 0.38984 0.0
C477 C 0.56133 0.35775 0.61841 0.0
C478 C 0.54375 0.33282 0.61779 0.0
C479 C 0.52242 0.33117 0.60531 0.0
C480 C 0.52819 0.35508 0.59896 0.0
N481 N 0.55178 0.37159 0.60666 0.0
Co482 Co 0.56782 0.40787 0.60164 0.0
N483 N 0.5355 0.40661 0.60125 0.0
C484 C 0.51344 0.3864 0.59501 0.0
C485 C 0.49419 0.39098 0.59676 0.0
C486 C 0.50482 0.41565 0.60413 0.0
C487 C 0.53014 0.42486 0.60619 0.0
N488 N 0.58389 0.44421 0.59645 0.0
C489 C 0.57452 0.45945 0.60116 0.0
C490 C 0.59211 0.48367 0.59345 0.0
C491 C 0.61303 0.4834 0.58334 0.0
C492 C 0.60714 0.45912 0.58534 0.0
N493 N 0.59996 0.40873 0.60202 0.0
C494 C 0.6215 0.42726 0.59021 0.0
C495 C 0.64068 0.4227 0.59477 0.0
C496 C 0.63044 0.39988 0.61033 0.0
C497 C 0.60551 0.39177 0.61435 0.0
N498 N 0.56656 0.40465 0.55109 0.0
C499 C 0.5726 0.40705 0.47889 0.0
C500 C 0.57752 0.39125 0.49895 0.0
C501 C 0.57432 0.39027 0.53491 0.0
C502 C 0.56333 0.42054 0.49583 0.0
C503 C 0.56027 0.41893 0.53162 0.0
N504 N 0.56968 0.41175 0.65183 0.0
C505 C 0.5937 0.43322 0.70179 0.0
C506 C 0.57353 0.41932 0.7235 0.0
C507 C 0.55136 0.40115 0.70847 0.0
C508 C 0.54983 0.39766 0.67255 0.0
C509 C 0.59137 0.42925 0.6663 0.0
H510 H 0.53261 0.38371 0.66148 0.0
H511 H 0.60728 0.44047 0.65055 0.0
H512 H 0.57896 0.37854 0.54977 0.0
H513 H 0.55384 0.4302 0.54362 0.0
C514 C 0.5112 0.36301 0.59287 0.0
C515 C 0.58719 0.36761 0.62846 0.0
C516 C 0.54853 0.45126 0.6093 0.0
C517 C 0.62364 0.45013 0.58184 0.0
H518 H 0.54607 0.31748 0.62564 0.0
H519 H 0.50457 0.31462 0.60285 0.0
H520 H 0.47468 0.37785 0.59407 0.0
H521 H 0.49503 0.42572 0.60713 0.0
H522 H 0.58989 0.49975 0.59446 0.0
H523 H 0.6306 0.49913 0.57619 0.0
H524 H 0.66002 0.43499 0.58914 0.0
H525 H 0.6402 0.39043 0.61801 0.0
H526 H 0.58417 0.37998 0.48712 0.0
H527 H 0.55944 0.43323 0.48189 0.0
H528 H 0.61139 0.44702 0.7121 0.0
H529 H 0.53523 0.38998 0.72419 0.0
C530 C 0.21263 0.55719 0.9504 0.0
C531 C 0.21983 0.5395 0.94961 0.0
C532 C 0.20006 0.51826 0.93712 0.0
C533 C 0.182 0.52419 0.93094 0.0
N534 N 0.18923 0.54779 0.93874 0.0
Co535 Co 0.16915 0.56403 0.93405 0.0
N536 N 0.138 0.53182 0.93373 0.0
C537 C 0.13599 0.50971 0.92728 0.0
C538 C 0.11211 0.49055 0.92905 0.0
C539 C 0.09822 0.50129 0.93666 0.0
C540 C 0.11444 0.52658 0.93884 0.0
N541 N 0.14903 0.58031 0.92925 0.0
C542 C 0.12447 0.57106 0.93414 0.0
C543 C 0.11794 0.58877 0.92665 0.0
C544 C 0.13916 0.60964 0.91647 0.0
C545 C 0.15745 0.6036 0.91823 0.0
N546 N 0.20052 0.59606 0.93431 0.0
C547 C 0.20363 0.61768 0.92261 0.0
C548 C 0.22743 0.63675 0.92708 0.0
C549 C 0.23993 0.62636 0.94248 0.0
C550 C 0.22302 0.60145 0.94649 0.0
N551 N 0.17092 0.56284 0.88349 0.0
C552 C 0.1744 0.56861 0.81126 0.0
C553 C 0.19511 0.57344 0.83124 0.0
C554 C 0.19297 0.57037 0.86722 0.0
C555 C 0.15172 0.55967 0.82831 0.0
C556 C 0.15035 0.55674 0.86412 0.0
N557 N 0.1674 0.56585 0.98427 0.0
C558 C 0.17157 0.59022 0.03452 0.0
C559 C 0.16565 0.57008 0.05605 0.0
C560 C 0.16037 0.54757 0.0409 0.0
C561 C 0.16154 0.54589 1.00487 0.0
C562 C 0.1722 0.5877 0.9989 0.0
H563 H 0.15777 0.52855 0.99367 0.0
H564 H 0.17661 0.60357 0.98321 0.0
H565 H 0.20934 0.57488 0.88199 0.0
H566 H 0.13271 0.5505 0.87622 0.0
C567 C 0.15705 0.50732 0.92492 0.0
C568 C 0.22873 0.58301 0.96051 0.0
C569 C 0.10659 0.54509 0.94225 0.0
C570 C 0.18295 0.61998 0.91452 0.0
H571 H 0.23745 0.54169 0.95737 0.0
H572 H 0.19864 0.50036 0.93457 0.0
H573 H 0.10564 0.47103 0.92621 0.0
H574 H 0.07837 0.4916 0.93972 0.0
H575 H 0.0997 0.58666 0.92783 0.0
H576 H 0.14107 0.62727 0.90943 0.0
H577 H 0.23455 0.65611 0.92154 0.0
H578 H 0.25916 0.636 0.95007 0.0
H579 H 0.21295 0.57984 0.81932 0.0
H580 H 0.13516 0.55586 0.81437 0.0
H581 H 0.17538 0.60783 0.0451 0.0
H582 H 0.15578 0.53157 0.05674 0.0
C583 C 0.66463 0.20804 0.28495 0.0
C584 C 0.68957 0.21542 0.28418 0.0
C585 C 0.69122 0.19576 0.27169 0.0
C586 C 0.66729 0.17758 0.26549 0.0
N587 N 0.65078 0.18464 0.27327 0.0
Co588 Co 0.61449 0.16434 0.26855 0.0
N589 N 0.61582 0.13332 0.26817 0.0
C590 C 0.63604 0.13149 0.26187 0.0
C591 C 0.63153 0.10769 0.26374 0.0
C592 C 0.6069 0.09364 0.27124 0.0
C593 C 0.59763 0.1097 0.27324 0.0
N594 N 0.57812 0.14402 0.26367 0.0
C595 C 0.56294 0.11941 0.2684 0.0
C596 C 0.53869 0.11275 0.2608 0.0
C597 C 0.53887 0.13391 0.25073 0.0
C598 C 0.56314 0.15232 0.25264 0.0
N599 N 0.61355 0.19558 0.26895 0.0
C600 C 0.59495 0.19856 0.25726 0.0
C601 C 0.59949 0.22229 0.26179 0.0
C602 C 0.62237 0.2349 0.2772 0.0
C603 C 0.63053 0.21811 0.28117 0.0
N604 N 0.6174 0.16621 0.21797 0.0
C605 C 0.61289 0.16997 0.14645 0.0
C606 C 0.62946 0.19063 0.16583 0.0
C607 C 0.63144 0.18836 0.20162 0.0
C608 C 0.60018 0.14712 0.16318 0.0
C609 C 0.60287 0.14559 0.19871 0.0
N610 N 0.61084 0.1624 0.31877 0.0
C611 C 0.58941 0.16485 0.36879 0.0
C612 C 0.60333 0.15853 0.39043 0.0
C613 C 0.62153 0.15462 0.37535 0.0
C614 C 0.625 0.15666 0.33942 0.0
C615 C 0.59335 0.16657 0.33331 0.0
H616 H 0.63895 0.15342 0.3283 0.0
H617 H 0.58208 0.17126 0.31762 0.0
H618 H 0.64339 0.20474 0.2163 0.0
H619 H 0.59207 0.12783 0.21078 0.0
C620 C 0.6594 0.15266 0.25954 0.0
C621 C 0.65475 0.22399 0.29513 0.0
C622 C 0.5712 0.10163 0.27637 0.0
C623 C 0.57207 0.1778 0.24905 0.0
H624 H 0.7049 0.23309 0.29198 0.0
H625 H 0.70778 0.19447 0.26917 0.0
H626 H 0.6447 0.10136 0.26104 0.0
H627 H 0.59688 0.07378 0.27436 0.0
H628 H 0.52263 0.09444 0.26182 0.0
H629 H 0.5231 0.13572 0.24363 0.0
H630 H 0.58716 0.2293 0.25623 0.0
H631 H 0.63183 0.25412 0.28481 0.0
H632 H 0.63981 0.20862 0.15382 0.0
H633 H 0.58763 0.13058 0.14904 0.0
H634 H 0.5756 0.1687 0.37914 0.0
H635 H 0.63273 0.14965 0.39103 0.0
H636 H 0.38272 0.56155 0.27709 0.0
H637 H 0.46055 0.59843 0.25388 0.0
H638 H 0.39227 0.57236 0.33812 0.0
H639 H 0.47023 0.61016 0.31419 0.0
H640 H 0.4808 0.60272 0.42829 0.0
H641 H 0.47071 0.59365 0.36768 0.0
H642 H 0.40754 0.60352 0.3808 0.0
H643 H 0.41667 0.61083 0.44229 0.0
C644 C 0.40186 0.57222 0.28502 0.0
C645 C 0.42087 0.57883 0.2608 0.0
C646 C 0.40739 0.57857 0.31999 0.0
C647 C 0.4321 0.592 0.33146 0.0
C648 C 0.45102 0.59925 0.30678 0.0
C649 C 0.44548 0.59261 0.27207 0.0
C650 C 0.4646 0.60275 0.41847 0.0
C651 C 0.44949 0.60735 0.44057 0.0
C652 C 0.45898 0.59789 0.38335 0.0
C653 C 0.43826 0.59782 0.36896 0.0
C654 C 0.42345 0.60302 0.39086 0.0
C655 C 0.42894 0.60765 0.42617 0.0
H656 H 0.81481 0.40826 0.59541 0.0
H657 H 0.88721 0.41675 0.60956 0.0
H658 H 0.81305 0.41572 0.65686 0.0
H659 H 0.88624 0.42598 0.67009 0.0
H660 H 0.87131 0.42098 0.78382 0.0
H661 H 0.8693 0.40935 0.7235 0.0
H662 H 0.82881 0.44687 0.69962 0.0
H663 H 0.83003 0.45759 0.76069 0.0
C664 C 0.83032 0.41157 0.61156 0.0
C665 C 0.85119 0.41191 0.59721 0.0
C666 C 0.82947 0.41628 0.64683 0.0
C667 C 0.84953 0.4216 0.66875 0.0
C668 C 0.87023 0.42163 0.6544 0.0
C669 C 0.87096 0.41668 0.61933 0.0
C670 C 0.862 0.42677 0.76564 0.0
C671 C 0.85107 0.44045 0.77694 0.0
C672 C 0.86092 0.42019 0.73092 0.0
C673 C 0.84918 0.42739 0.70625 0.0
C674 C 0.8378 0.44071 0.71774 0.0
C675 C 0.83859 0.44701 0.75273 0.0
H676 H 0.47901 0.88138 0.94253 0.0
H677 H 0.41517 0.80913 0.92656 0.0
H678 H 0.46742 0.88014 1.00282 0.0
H679 H 0.40426 0.80765 0.98749 0.0
H680 H 0.41189 0.80918 0.10959 0.0
H681 H 0.42128 0.8076 0.04868 0.0
H682 H 0.43114 0.8803 0.03329 0.0
H683 H 0.42081 0.88165 0.09357 0.0
C684 C 0.46251 0.8652 0.95173 0.0
C685 C 0.44791 0.84549 0.92924 0.0
C686 C 0.45592 0.8645 0.98641 0.0
C687 C 0.43478 0.84392 0.99981 0.0
C688 C 0.4207 0.82374 0.97791 0.0
C689 C 0.42709 0.82457 0.94299 0.0
C690 C 0.41551 0.82465 0.09316 0.0
C691 C 0.41577 0.84566 0.10689 0.0
C692 C 0.42105 0.82375 0.05824 0.0
C693 C 0.42729 0.84396 0.03633 0.0
C694 C 0.42688 0.86464 0.04971 0.0
C695 C 0.42102 0.8654 0.08439 0.0
H696 H 0.60519 0.47364 0.27643 0.0
H697 H 0.6142 0.41012 0.26075 0.0
H698 H 0.59481 0.46202 0.33672 0.0
H699 H 0.60476 0.39919 0.32167 0.0
H700 H 0.61089 0.40693 0.44369 0.0
H701 H 0.62177 0.41632 0.38274 0.0
H702 H 0.55861 0.42568 0.36737 0.0
H703 H 0.54705 0.41537 0.42769 0.0
C704 C 0.60498 0.4572 0.28569 0.0
C705 C 0.6103 0.44271 0.26329 0.0
C706 C 0.59909 0.4506 0.32037 0.0
C707 C 0.59871 0.42955 0.33386 0.0
C708 C 0.60498 0.41557 0.31203 0.0
C709 C 0.61055 0.42197 0.27711 0.0
C710 C 0.59896 0.41044 0.42725 0.0
C711 C 0.57815 0.41057 0.44099 0.0
C712 C 0.60533 0.41597 0.39232 0.0
C713 C 0.59125 0.42208 0.3704 0.0
C714 C 0.57012 0.42154 0.3838 0.0
C715 C 0.56355 0.41568 0.41849 0.0
H716 H 0.19759 0.64079 0.61007 0.0
H717 H 0.15679 0.56298 0.58654 0.0
H718 H 0.19882 0.63115 0.6711 0.0
H719 H 0.15882 0.55322 0.64681 0.0
H720 H 0.1404 0.54244 0.76067 0.0
H721 H 0.14159 0.55271 0.70011 0.0
H722 H 0.21463 0.61574 0.71385 0.0
H723 H 0.21265 0.60643 0.77531 0.0
C724 C 0.18916 0.62164 0.61793 0.0
C725 C 0.17679 0.60265 0.59365 0.0
C726 C 0.18995 0.61605 0.65289 0.0
C727 C 0.17869 0.59133 0.66424 0.0
C728 C 0.1671 0.57244 0.63948 0.0
C729 C 0.16602 0.57803 0.60479 0.0
C730 C 0.15667 0.55865 0.75099 0.0
C731 C 0.17633 0.57366 0.77324 0.0
C732 C 0.15753 0.56437 0.71591 0.0
C733 C 0.17824 0.5851 0.70172 0.0
C734 C 0.1982 0.59983 0.72377 0.0
C735 C 0.19723 0.59423 0.75905 0.0
H736 H 0.64556 0.1929 0.09313 0.0
H737 H 0.56778 0.15217 0.11672 0.0
H738 H 0.63586 0.19407 0.03211 0.0
H739 H 0.55795 0.15413 0.05645 0.0
H740 H 0.54698 0.13564 0.94262 0.0
H741 H 0.55734 0.13686 1.00315 0.0
H742 H 0.62044 0.20983 0.98934 0.0
H743 H 0.61104 0.20782 0.92791 0.0
C744 C 0.6264 0.18447 0.08528 0.0
C745 C 0.60744 0.17214 0.10958 0.0
C746 C 0.62078 0.18522 0.05033 0.0
C747 C 0.59605 0.17396 0.03899 0.0
C748 C 0.57719 0.16241 0.06376 0.0
C749 C 0.58281 0.16137 0.09845 0.0
C750 C 0.56323 0.1519 0.95227 0.0
C751 C 0.57823 0.17154 0.93001 0.0
C752 C 0.569 0.15278 0.98734 0.0
C753 C 0.58978 0.17349 1.00151 0.0
C754 C 0.6045 0.19341 0.97944 0.0
C755 C 0.59885 0.19242 0.94418 0.0
H756 H 0.34734 0.60425 0.10322 0.0
H757 H 0.35849 0.57519 1.00835 0.0
H758 H 0.31466 0.60909 0.07563 0.0
H759 H 0.32577 0.57971 0.98062 0.0
H760 H 0.27499 0.60363 0.93244 0.0
H761 H 0.3125 0.60835 0.9599 0.0
H762 H 0.27254 0.58058 0.05563 0.0
H763 H 0.2353 0.57616 0.02802 0.0
C764 C 0.34317 0.59952 0.07618 0.0
C765 C 0.35567 0.58979 0.05765 0.0
C766 C 0.32428 0.60199 0.06046 0.0
C767 C 0.31748 0.59477 0.02584 0.0
C768 C 0.33069 0.58582 1.0071 0.0
C769 C 0.34943 0.5832 0.02291 0.0
C770 C 0.27455 0.59923 0.9596 0.0
C771 C 0.25247 0.58998 0.97837 0.0
C772 C 0.2959 0.60163 0.97525 0.0
C773 C 0.29562 0.59482 1.01004 0.0
C774 C 0.27363 0.58636 0.02901 0.0
C775 C 0.25227 0.58381 1.01326 0.0
H776 H 0.75173 0.34269 0.43786 0.0
H777 H 0.79183 0.35424 0.34282 0.0
H778 H 0.71427 0.30992 0.41031 0.0
H779 H 0.75465 0.32143 0.31513 0.0
H780 H 0.68002 0.27031 0.26713 0.0
H781 H 0.71266 0.30791 0.29457 0.0
H782 H 0.70095 0.26789 0.3902 0.0
H783 H 0.66829 0.23057 0.3626 0.0
C784 C 0.75228 0.3386 0.41079 0.0
C785 C 0.77446 0.35123 0.3922 0.0
C786 C 0.73096 0.31966 0.39509 0.0
C787 C 0.73136 0.31294 0.36044 0.0
C788 C 0.75346 0.32628 0.34163 0.0
C789 C 0.77479 0.34508 0.35743 0.0
C790 C 0.68404 0.26987 0.29426 0.0
C791 C 0.67139 0.24775 0.31301 0.0
C792 C 0.7029 0.29127 0.30991 0.0
C793 C 0.70953 0.29101 0.34466 0.0
C794 C 0.69617 0.26897 0.36361 0.0
C795 C 0.67746 0.24756 0.34787 0.0
H796 H 0.41755 0.74714 0.76984 0.0
H797 H 0.44611 0.78688 0.67452 0.0
H798 H 0.41254 0.70948 0.74256 0.0
H799 H 0.44144 0.7495 0.64711 0.0
H800 H 0.41775 0.67486 0.59949 0.0
H801 H 0.41289 0.7076 0.62675 0.0
H802 H 0.44088 0.69573 0.72263 0.0
H803 H 0.4454 0.66294 0.69522 0.0
C804 C 0.42212 0.74757 0.74276 0.0
C805 C 0.43175 0.7697 0.72402 0.0
C806 C 0.41955 0.72613 0.72722 0.0
C807 C 0.42659 0.72637 0.69257 0.0
C808 C 0.43545 0.74844 0.67361 0.0
C809 C 0.43815 0.76987 0.68925 0.0
C810 C 0.42214 0.67885 0.62665 0.0
C811 C 0.43149 0.66613 0.64551 0.0
C812 C 0.41967 0.69778 0.64219 0.0
C813 C 0.42652 0.70441 0.67695 0.0
C814 C 0.43505 0.69096 0.69602 0.0
C815 C 0.43767 0.67217 0.6804 0.0
H816 H 0.66806 0.4414 1.00909 0.0
H817 H 0.67947 0.41289 0.10436 0.0
H818 H 0.70083 0.4369 0.98161 0.0
H819 H 0.7122 0.40806 0.07701 0.0
H820 H 0.7916 0.44132 0.02957 0.0
H821 H 0.75424 0.43661 0.05702 0.0
H822 H 0.71435 0.40846 0.96123 0.0
H823 H 0.752 0.41349 0.93392 0.0
C824 C 0.67718 0.4335 0.02379 0.0
C825 C 0.671 0.42707 0.05857 0.0
C826 C 0.69595 0.43089 1.00812 0.0
C827 C 0.70925 0.42211 0.02704 0.0
C828 C 0.7025 0.41502 0.0617 0.0
C829 C 0.68358 0.41749 0.07728 0.0
C830 C 0.77463 0.43351 1.01477 0.0
C831 C 0.77449 0.42734 0.97989 0.0
C832 C 0.7532 0.43079 0.03043 0.0
C833 C 0.73118 0.42215 1.01139 0.0
C834 C 0.73097 0.41531 0.97663 0.0
C835 C 0.7524 0.41789 0.96106 0.0
H836 H 0.27474 0.67503 0.4362 0.0
H837 H 0.23498 0.66377 0.3408 0.0
H838 H 0.31235 0.70776 0.40897 0.0
H839 H 0.27232 0.69653 0.31342 0.0
H840 H 0.34711 0.74753 0.26604 0.0
H841 H 0.31434 0.70994 0.29324 0.0
H842 H 0.32586 0.74984 0.38893 0.0
H843 H 0.35867 0.78716 0.36158 0.0
C844 C 0.2743 0.67917 0.40912 0.0
C845 C 0.25217 0.66663 0.39034 0.0
C846 C 0.29571 0.69808 0.3936 0.0
C847 C 0.29544 0.70487 0.35894 0.0
C848 C 0.27339 0.69162 0.33994 0.0
C849 C 0.25198 0.67285 0.35556 0.0
C850 C 0.34302 0.74795 0.29314 0.0
C851 C 0.35567 0.77003 0.31197 0.0
C852 C 0.32408 0.72655 0.30865 0.0
C853 C 0.31736 0.72678 0.34334 0.0
C854 C 0.33071 0.74879 0.36238 0.0
C855 C 0.34951 0.77019 0.34678 0.0
H856 H 0.58042 0.23047 0.67541 0.0
H857 H 0.60867 0.27026 0.77082 0.0
H858 H 0.58488 0.26775 0.64793 0.0
H859 H 0.61344 0.30782 0.74348 0.0
H860 H 0.58015 0.35393 0.69585 0.0
H861 H 0.58481 0.32121 0.72331 0.0
H862 H 0.61332 0.30978 0.62772 0.0
H863 H 0.60835 0.34245 0.6004 0.0
C864 C 0.58826 0.24747 0.69015 0.0
C865 C 0.59464 0.24768 0.72496 0.0
C866 C 0.59084 0.26885 0.67447 0.0
C867 C 0.59953 0.29089 0.69344 0.0
C868 C 0.60655 0.29118 0.72813 0.0
C869 C 0.60412 0.2698 0.74371 0.0
C870 C 0.58803 0.34481 0.6811 0.0
C871 C 0.59433 0.35096 0.64628 0.0
C872 C 0.59072 0.32607 0.69676 0.0
C873 C 0.59945 0.31277 0.67778 0.0
C874 C 0.6064 0.31948 0.64308 0.0
C875 C 0.60385 0.33837 0.62751 0.0
H876 H 0.46715 0.52352 0.14704 0.0
H877 H 0.48552 0.54455 0.04052 0.0
H878 H 0.49331 0.50489 0.14715 0.0
H879 H 0.51291 0.52698 0.04064 0.0
H880 H 0.54106 0.47194 0.04143 0.0
H881 H 0.51364 0.48948 0.04103 0.0
H882 H 0.53358 0.51254 0.1472 0.0
H883 H 0.55977 0.49394 0.14763 0.0
C884 C 0.47721 0.52445 0.12378 0.0
C885 C 0.47431 0.53531 0.09374 0.0
C886 C 0.49234 0.51388 0.12379 0.0
C887 C 0.50535 0.51425 0.09385 0.0
C888 C 0.50288 0.52583 0.064 0.0
C889 C 0.48747 0.53619 0.06395 0.0
C890 C 0.53917 0.4805 0.06468 0.0
C891 C 0.55244 0.48166 0.09452 0.0
C892 C 0.52375 0.49084 0.06443 0.0
C893 C 0.52138 0.50269 0.09403 0.0
C894 C 0.53449 0.50334 0.12403 0.0
C895 C 0.54963 0.49279 0.12433 0.0
H896 H 0.94902 0.48109 0.3747 0.0
H897 H 0.95225 0.46332 0.48137 0.0
H898 H 0.99396 0.50851 0.37434 0.0
H899 H 0.99703 0.48952 0.48101 0.0
H900 H 0.07438 0.55596 0.48045 0.0
H901 H 0.0296 0.5298 0.4805 0.0
H902 H 0.03218 0.50921 0.37452 0.0
H903 H 0.07712 0.53661 0.37443 0.0
C904 C 0.95945 0.48319 0.39806 0.0
C905 C 0.94734 0.47021 0.42804 0.0
C906 C 0.98521 0.49862 0.39784 0.0
C907 C 0.9994 0.50125 0.42759 0.0
C908 C 0.98694 0.48841 0.45771 0.0
C909 C 0.96126 0.47327 0.45798 0.0
C910 C 0.06527 0.54569 0.45729 0.0
C911 C 0.07905 0.54832 0.42739 0.0
C912 C 0.03959 0.53056 0.45727 0.0
C913 C 0.02698 0.51728 0.42746 0.0
C914 C 0.04104 0.51946 0.39777 0.0
C915 C 0.0668 0.53488 0.39774 0.0
H916 H 0.52845 0.06987 0.81476 0.0
H917 H 0.54966 0.0728 0.70829 0.0
H918 H 0.50981 0.02508 0.81459 0.0
H919 H 0.53207 0.02784 0.70813 0.0
H920 H 0.47692 0.94471 0.70831 0.0
H921 H 0.49453 0.98967 0.70824 0.0
H922 H 0.51744 0.99242 0.81442 0.0
H923 H 0.49878 0.94762 0.81452 0.0
C924 C 0.52943 0.0608 0.79146 0.0
C925 C 0.54036 0.07463 0.76151 0.0
C926 C 0.51885 0.0351 0.7913 0.0
C927 C 0.51927 0.02255 0.76129 0.0
C928 C 0.5309 0.03666 0.73154 0.0
C929 C 0.54128 0.06243 0.73165 0.0
C930 C 0.48546 0.95507 0.73163 0.0
C931 C 0.48656 0.94287 0.76139 0.0
C932 C 0.49584 0.98085 0.73157 0.0
C933 C 0.50767 0.99495 0.76127 0.0
C934 C 0.50826 0.98239 0.79118 0.0
C935 C 0.49767 0.9567 0.79129 0.0
H936 H 0.47619 0.53581 0.66216 0.0
H937 H 0.49817 0.55495 0.55608 0.0
H938 H 0.49378 0.50844 0.66219 0.0
H939 H 0.51681 0.52879 0.55614 0.0
H940 H 0.5278 0.46232 0.55567 0.0
H941 H 0.50914 0.48847 0.55585 0.0
H942 H 0.53139 0.50789 0.66239 0.0
H943 H 0.549 0.48054 0.66221 0.0
C944 C 0.48474 0.53401 0.63885 0.0
C945 C 0.48587 0.54737 0.60914 0.0
C946 C 0.49512 0.51862 0.63889 0.0
C947 C 0.50697 0.51638 0.60922 0.0
C948 C 0.5076 0.52959 0.57935 0.0
C949 C 0.49702 0.5447 0.57926 0.0
C950 C 0.52877 0.47236 0.57899 0.0
C951 C 0.5397 0.46944 0.60895 0.0
C952 C 0.51818 0.48746 0.57915 0.0
C953 C 0.51859 0.50041 0.60918 0.0
C954 C 0.53023 0.49792 0.63895 0.0
C955 C 0.54061 0.48253 0.63883 0.0
H956 H 0.07461 0.52496 0.88869 0.0
H957 H 0.07802 0.54518 0.99573 0.0
H958 H 0.02983 0.50639 0.88927 0.0
H959 H 0.03308 0.52766 0.99635 0.0
H960 H 0.94995 0.47248 0.99633 0.0
H961 H 0.9949 0.4901 0.99593 0.0
H962 H 0.99719 0.51406 0.89045 0.0
H963 H 0.95239 0.49538 0.89077 0.0
C964 C 0.06565 0.52575 0.91221 0.0
C965 C 0.07961 0.53639 0.94217 0.0
C966 C 0.03996 0.51521 0.91261 0.0
C967 C 0.02755 0.51536 0.94291 0.0
C968 C 0.04179 0.5267 0.9727 0.0
C969 C 0.06756 0.53704 0.97233 0.0
C970 C 0.9602 0.48126 0.97305 0.0
C971 C 0.94787 0.48265 0.94362 0.0
C972 C 0.98598 0.49165 0.97285 0.0
C973 C 0.99996 0.50377 0.94321 0.0
C974 C 0.98727 0.50466 0.91362 0.0
C975 C 0.96158 0.49406 0.91376 0.0
H976 H 0.48567 0.94461 0.32843 0.0
H977 H 0.46771 0.94787 0.22184 0.0
H978 H 0.51318 0.98954 0.32882 0.0
H979 H 0.49403 0.99265 0.22222 0.0
H980 H 0.56067 0.06991 0.2228 0.0
H981 H 0.53441 0.02513 0.22272 0.0
H982 H 0.51393 0.02781 0.32869 0.0
H983 H 0.5414 0.07275 0.32881 0.0
C984 C 0.48775 0.95504 0.30509 0.0
C985 C 0.47468 0.94295 0.27513 0.0
C986 C 0.50323 0.9808 0.30533 0.0
C987 C 0.50585 0.995 0.2756 0.0
C988 C 0.49293 0.98255 0.2455 0.0
C989 C 0.47773 0.95687 0.24522 0.0
C990 C 0.5504 0.06082 0.24595 0.0
C991 C 0.55306 0.07462 0.27585 0.0
C992 C 0.53522 0.03514 0.24596 0.0
C993 C 0.52194 0.02257 0.27575 0.0
C994 C 0.52417 0.03665 0.30545 0.0
C995 C 0.53963 0.06241 0.3055 0.0
H996 H 0.41385 0.59902 0.76134 0.0
H997 H 0.47872 0.59176 0.77067 0.0
H998 H 0.40573 0.59067 0.823 0.0
H999 H 0.47057 0.58334 0.8327 0.0
H1000 H 0.42891 0.5412 0.93285 0.0
H1001 H 0.43685 0.54894 0.87064 0.0
H1002 H 0.42619 0.61186 0.87892 0.0
H1003 H 0.41839 0.60417 0.94077 0.0
C1004 C 0.42642 0.59572 0.7767 0.0
C1005 C 0.44692 0.59603 0.7613 0.0
C1006 C 0.42181 0.59101 0.81196 0.0
C1007 C 0.43744 0.58623 0.83259 0.0
C1008 C 0.45808 0.58672 0.8173 0.0
C1009 C 0.4629 0.59179 0.78198 0.0
C1010 C 0.42801 0.55647 0.92116 0.0
C1011 C 0.42303 0.57208 0.94147 0.0
C1012 C 0.4328 0.56106 0.88575 0.0
C1013 C 0.43226 0.58108 0.87002 0.0
C1014 C 0.42664 0.59625 0.89029 0.0
C1015 C 0.42223 0.59189 0.92565 0.0
H1016 H 0.89642 0.42543 0.26764 0.0
H1017 H 0.82291 0.41484 0.27548 0.0
H1018 H 0.89668 0.43354 0.20547 0.0
H1019 H 0.82308 0.42281 0.21366 0.0
H1020 H 0.82375 0.4105 0.09605 0.0
H1021 H 0.82389 0.4024 0.15774 0.0
H1022 H 0.89597 0.4673 0.16755 0.0
H1023 H 0.89578 0.47544 0.10548 0.0
C1024 C 0.88026 0.42456 0.25594 0.0
C1025 C 0.85964 0.41951 0.27622 0.0
C1026 C 0.88049 0.42945 0.22055 0.0
C1027 C 0.85995 0.42893 0.20482 0.0
C1028 C 0.83913 0.42325 0.22505 0.0
C1029 C 0.83905 0.41874 0.26039 0.0
C1030 C 0.83957 0.4231 0.11144 0.0
C1031 C 0.85975 0.4436 0.09607 0.0
C1032 C 0.83962 0.4185 0.14672 0.0
C1033 C 0.85999 0.43414 0.16739 0.0
C1034 C 0.88014 0.4548 0.15212 0.0
C1035 C 0.87993 0.45961 0.11678 0.0
H1036 H 0.42718 0.87818 0.61353 0.0
H1037 H 0.47292 0.84573 0.59372 0.0
H1038 H 0.42045 0.8792 0.55172 0.0
H1039 H 0.46669 0.8475 0.53168 0.0
H1040 H 0.46886 0.8782 0.42269 0.0
H1041 H 0.47654 0.87913 0.48451 0.0
H1042 H 0.39863 0.8477 0.5044 0.0
H1043 H 0.39071 0.84604 0.44234 0.0
C1044 C 0.43576 0.87118 0.59606 0.0
C1045 C 0.4504 0.8616 0.60876 0.0
C1046 C 0.43192 0.87185 0.56061 0.0
C1047 C 0.4429 0.86329 0.53689 0.0
C1048 C 0.45813 0.85439 0.54938 0.0
C1049 C 0.46178 0.85347 0.58493 0.0
C1050 C 0.45328 0.87125 0.44013 0.0
C1051 C 0.42909 0.86177 0.42738 0.0
C1052 C 0.45774 0.87186 0.47559 0.0
C1053 C 0.43819 0.86334 0.49927 0.0
C1054 C 0.4141 0.85456 0.48673 0.0
C1055 C 0.40957 0.8537 0.45117 0.0
H1056 H 0.55441 0.38526 0.77602 0.0
H1057 H 0.59858 0.46368 0.75716 0.0
H1058 H 0.56127 0.39272 0.83793 0.0
H1059 H 0.60668 0.47099 0.81865 0.0
H1060 H 0.59921 0.47801 0.93503 0.0
H1061 H 0.58986 0.4712 0.87333 0.0
H1062 H 0.5935 0.40401 0.8788 0.0
H1063 H 0.60209 0.41058 0.94044 0.0
C1064 C 0.56546 0.4041 0.78504 0.0
C1065 C 0.57611 0.42382 0.76149 0.0
C1066 C 0.56972 0.40837 0.82056 0.0
C1067 C 0.58483 0.43246 0.8334 0.0
C1068 C 0.59485 0.45222 0.80987 0.0
C1069 C 0.59045 0.44797 0.77446 0.0
C1070 C 0.59822 0.46195 0.92285 0.0
C1071 C 0.60128 0.44479 0.94252 0.0
C1072 C 0.59285 0.45799 0.88751 0.0
C1073 C 0.59066 0.43689 0.871 0.0
C1074 C 0.59438 0.42011 0.89068 0.0
C1075 C 0.59951 0.42396 0.92599 0.0
H1076 H 0.20012 0.60696 0.09621 0.0
H1077 H 0.12947 0.53993 0.10134 0.0
H1078 H 0.19799 0.61364 0.15778 0.0
H1079 H 0.12686 0.54688 0.16296 0.0
H1080 H 0.14306 0.55428 0.2792 0.0
H1081 H 0.14375 0.54691 0.21773 0.0
H1082 H 0.17716 0.62523 0.19839 0.0
H1083 H 0.17785 0.63273 0.26031 0.0
C1084 C 0.18406 0.59369 0.11059 0.0
C1085 C 0.16493 0.57294 0.09401 0.0
C1086 C 0.18273 0.59761 0.14584 0.0
C1087 C 0.16211 0.58098 0.16541 0.0
C1088 C 0.14313 0.55997 0.14885 0.0
C1089 C 0.1446 0.55593 0.11356 0.0
C1090 C 0.15073 0.56999 0.26189 0.0
C1091 C 0.16075 0.59416 0.27483 0.0
C1092 C 0.15081 0.5657 0.22649 0.0
C1093 C 0.1607 0.58546 0.20296 0.0
C1094 C 0.16984 0.60958 0.21578 0.0
C1095 C 0.16991 0.61389 0.25128 0.0
H1096 H 0.54424 0.12495 0.60161 0.0
H1097 H 0.61141 0.19545 0.60727 0.0
H1098 H 0.55125 0.12248 0.53998 0.0
H1099 H 0.61815 0.19349 0.54568 0.0
H1100 H 0.63731 0.17344 0.44309 0.0
H1101 H 0.62971 0.1727 0.50498 0.0
H1102 H 0.55145 0.1395 0.48528 0.0
H1103 H 0.5589 0.13886 0.42384 0.0
C1104 C 0.56029 0.14008 0.5895 0.0
C1105 C 0.57732 0.16033 0.6092 0.0
C1106 C 0.56435 0.1387 0.5542 0.0
C1107 C 0.58543 0.15768 0.53779 0.0
C1108 C 0.60208 0.17822 0.55751 0.0
C1109 C 0.59812 0.17947 0.59277 0.0
C1110 C 0.61845 0.16555 0.45203 0.0
C1111 C 0.59877 0.15645 0.42838 0.0
C1112 C 0.6141 0.16545 0.48752 0.0
C1113 C 0.58996 0.15634 0.50023 0.0
C1114 C 0.57025 0.14654 0.47661 0.0
C1115 C 0.57458 0.14648 0.44122 0.0
loop_
_geom_bond_atom_site_label_1
_geom_bond_atom_site_label_2
_geom_bond_distance
_geom_bond_site_symmetry_2
_ccdc_geom_bond_type
C0 C1 1.443 . S
C0 N4 1.376 . S
C0 C38 1.389 . S
C1 C0 1.443 . S
C1 C2 1.340 . S
C1 H41 0.951 . S
C2 C1 1.340 . S
C2 C3 1.439 . S
C2 H42 0.950 . S
C3 C2 1.439 . S
C3 N4 1.374 . S
C3 C37 1.395 . S
N4 C0 1.376 . S
N4 C3 1.374 . S
N4 Co5 2.008 . S
Co5 N4 2.008 . S
Co5 N6 1.995 . S
Co5 N11 2.008 . S
Co5 N16 1.995 . S
Co5 N21 2.282 . S
Co5 N27 2.282 . S
N6 Co5 1.995 . S
N6 C7 1.376 . S
N6 C10 1.383 . S
C7 N6 1.376 . S
C7 C8 1.446 . S
C7 C37 1.391 . S
C8 C7 1.446 . S
C8 C9 1.339 . S
C8 H43 0.949 . S
C9 C8 1.339 . S
C9 C10 1.439 . S
C9 H44 0.950 . S
C10 N6 1.383 . S
C10 C9 1.439 . S
C10 C39 1.392 . S
N11 Co5 2.008 . S
N11 C12 1.376 . S
N11 C15 1.374 . S
C12 N11 1.376 . S
C12 C13 1.443 . S
C12 C39 1.389 . S
C13 C12 1.443 . S
C13 C14 1.340 . S
C13 H45 0.951 . S
C14 C13 1.340 . S
C14 C15 1.439 . S
C14 H46 0.950 . S
C15 N11 1.374 . S
C15 C14 1.439 . S
C15 C40 1.395 . S
N16 Co5 1.995 . S
N16 C17 1.376 . S
N16 C20 1.383 . S
C17 N16 1.376 . S
C17 C18 1.446 . S
C17 C40 1.391 . S
C18 C17 1.446 . S
C18 C19 1.339 . S
C18 H47 0.949 . S
C19 C18 1.339 . S
C19 C20 1.439 . S
C19 H48 0.950 . S
C20 N16 1.383 . S
C20 C19 1.439 . S
C20 C38 1.392 . S
N21 Co5 2.282 . S
N21 C24 1.332 . S
N21 C26 1.332 . S
C22 C23 1.386 . S
C22 C25 1.388 . S
C23 C22 1.386 . S
C23 C24 1.382 . S
C23 H49 0.950 . S
C24 N21 1.332 . S
C24 C23 1.382 . S
C24 H35 0.952 . S
C25 C22 1.388 . S
C25 C26 1.382 . S
C25 H50 0.950 . S
C26 N21 1.332 . S
C26 C25 1.382 . S
C26 H36 0.948 . S
N27 Co5 2.282 . S
N27 C31 1.332 . S
N27 C32 1.332 . S
C28 C29 1.388 . S
C28 C32 1.382 1_556 S
C28 H51 0.950 . S
C29 C28 1.388 . S
C29 C30 1.386 . S
C30 C29 1.386 . S
C30 C31 1.382 1_556 S
C30 H52 0.950 . S
C31 N27 1.332 . S
C31 C30 1.382 1_554 S
C31 H33 0.952 . S
C32 N27 1.332 . S
C32 C28 1.382 1_554 S
C32 H34 0.948 . S
H33 C31 0.952 . S
H34 C32 0.948 . S
H35 C24 0.952 . S
H36 C26 0.948 . S
C37 C3 1.395 . S
C37 C7 1.391 . S
C38 C0 1.389 . S
C38 C20 1.392 . S
C39 C10 1.392 . S
C39 C12 1.389 . S
C40 C15 1.395 . S
C40 C17 1.391 . S
H41 C1 0.951 . S
H42 C2 0.950 . S
H43 C8 0.949 . S
H44 C9 0.950 . S
H45 C13 0.951 . S
H46 C14 0.950 . S
H47 C18 0.949 . S
H48 C19 0.950 . S
H49 C23 0.950 . S
H50 C25 0.950 . S
H51 C28 0.950 . S
H52 C30 0.950 . S
C53 C54 1.443 . S
C53 N57 1.376 . S
C53 C91 1.389 . S
C54 C53 1.443 . S
C54 C55 1.340 . S
C54 H94 0.951 . S
C55 C54 1.340 . S
C55 C56 1.439 . S
C55 H95 0.950 . S
C56 C55 1.439 . S
C56 N57 1.374 . S
C56 C90 1.395 . S
N57 C53 1.376 . S
N57 C56 1.374 . S
N57 Co58 2.008 . S
Co58 N57 2.008 . S
Co58 N59 1.995 . S
Co58 N64 2.008 . S
Co58 N69 1.995 . S
Co58 N74 2.282 . S
Co58 N80 2.282 . S
N59 Co58 1.995 . S
N59 C60 1.376 . S
N59 C63 1.383 . S
C60 N59 1.376 . S
C60 C61 1.446 . S
C60 C90 1.391 . S
C61 C60 1.446 . S
C61 C62 1.339 . S
C61 H96 0.949 . S
C62 C61 1.339 . S
C62 C63 1.439 . S
C62 H97 0.950 . S
C63 N59 1.383 . S
C63 C62 1.439 . S
C63 C92 1.392 . S
N64 Co58 2.008 . S
N64 C65 1.376 . S
N64 C68 1.374 . S
C65 N64 1.376 . S
C65 C66 1.443 . S
C65 C92 1.389 . S
C66 C65 1.443 . S
C66 C67 1.340 . S
C66 H98 0.951 . S
C67 C66 1.340 . S
C67 C68 1.439 . S
C67 H99 0.950 . S
C68 N64 1.374 . S
C68 C67 1.439 . S
C68 C93 1.395 . S
N69 Co58 1.995 . S
N69 C70 1.376 . S
N69 C73 1.383 . S
C70 N69 1.376 . S
C70 C71 1.446 . S
C70 C93 1.391 . S
C71 C70 1.446 . S
C71 C72 1.339 . S
C71 H100 0.949 . S
C72 C71 1.339 . S
C72 C73 1.439 . S
C72 H101 0.950 . S
C73 N69 1.383 . S
C73 C72 1.439 . S
C73 C91 1.392 . S
N74 Co58 2.282 . S
N74 C77 1.332 . S
N74 C79 1.332 . S
C75 C76 1.386 . S
C75 C78 1.388 . S
C76 C75 1.386 . S
C76 C77 1.382 . S
C76 H102 0.950 . S
C77 N74 1.332 . S
C77 C76 1.382 . S
C77 H88 0.952 . S
C78 C75 1.388 . S
C78 C79 1.382 . S
C78 H103 0.950 . S
C79 N74 1.332 . S
C79 C78 1.382 . S
C79 H89 0.948 . S
N80 Co58 2.282 . S
N80 C84 1.332 . S
N80 C85 1.332 . S
C81 C82 1.388 . S
C81 C85 1.382 . S
C81 H104 0.950 . S
C82 C81 1.388 . S
C82 C83 1.386 . S
C83 C82 1.386 . S
C83 C84 1.382 . S
C83 H105 0.950 . S
C84 N80 1.332 . S
C84 C83 1.382 . S
C84 H86 0.952 . S
C85 N80 1.332 . S
C85 C81 1.382 . S
C85 H87 0.948 . S
H86 C84 0.952 . S
H87 C85 0.948 . S
H88 C77 0.952 . S
H89 C79 0.948 . S
C90 C56 1.395 . S
C90 C60 1.391 . S
C91 C53 1.389 . S
C91 C73 1.392 . S
C92 C63 1.392 . S
C92 C65 1.389 . S
C93 C68 1.395 . S
C93 C70 1.391 . S
H94 C54 0.951 . S
H95 C55 0.950 . S
H96 C61 0.949 . S
H97 C62 0.950 . S
H98 C66 0.951 . S
H99 C67 0.950 . S
H100 C71 0.949 . S
H101 C72 0.950 . S
H102 C76 0.950 . S
H103 C78 0.950 . S
H104 C81 0.950 . S
H105 C83 0.950 . S
C106 C107 1.443 . S
C106 N110 1.376 . S
C106 C144 1.389 . S
C107 C106 1.443 . S
C107 C108 1.340 . S
C107 H147 0.951 . S
C108 C107 1.340 . S
C108 C109 1.439 . S
C108 H148 0.950 . S
C109 C108 1.439 . S
C109 N110 1.374 . S
C109 C143 1.395 . S
N110 C106 1.376 . S
N110 C109 1.374 . S
N110 Co111 2.008 . S
Co111 N110 2.008 . S
Co111 N112 1.995 . S
Co111 N117 2.008 . S
Co111 N122 1.995 . S
Co111 N127 2.282 . S
Co111 N133 2.282 . S
N112 Co111 1.995 . S
N112 C113 1.376 . S
N112 C116 1.383 . S
C113 N112 1.376 . S
C113 C114 1.446 . S
C113 C143 1.391 . S
C114 C113 1.446 . S
C114 C115 1.339 . S
C114 H149 0.949 . S
C115 C114 1.339 . S
C115 C116 1.439 . S
C115 H150 0.950 . S
C116 N112 1.383 . S
C116 C115 1.439 . S
C116 C145 1.392 . S
N117 Co111 2.008 . S
N117 C118 1.376 . S
N117 C121 1.374 . S
C118 N117 1.376 . S
C118 C119 1.443 . S
C118 C145 1.389 . S
C119 C118 1.443 . S
C119 C120 1.340 . S
C119 H151 0.951 . S
C120 C119 1.340 . S
C120 C121 1.439 . S
C120 H152 0.950 . S
C121 N117 1.374 . S
C121 C120 1.439 . S
C121 C146 1.395 . S
N122 Co111 1.995 . S
N122 C123 1.376 . S
N122 C126 1.383 . S
C123 N122 1.376 . S
C123 C124 1.446 . S
C123 C146 1.391 . S
C124 C123 1.446 . S
C124 C125 1.339 . S
C124 H153 0.949 . S
C125 C124 1.339 . S
C125 C126 1.439 . S
C125 H154 0.950 . S
C126 N122 1.383 . S
C126 C125 1.439 . S
C126 C144 1.392 . S
N127 Co111 2.282 . S
N127 C130 1.332 . S
N127 C132 1.332 . S
C128 C129 1.386 . S
C128 C131 1.388 . S
C129 C128 1.386 . S
C129 C130 1.382 . S
C129 H155 0.950 . S
C130 N127 1.332 . S
C130 C129 1.382 . S
C130 H141 0.952 . S
C131 C128 1.388 . S
C131 C132 1.382 . S
C131 H156 0.950 . S
C132 N127 1.332 . S
C132 C131 1.382 . S
C132 H142 0.948 . S
N133 Co111 2.282 . S
N133 C137 1.332 . S
N133 C138 1.332 . S
C134 C135 1.388 . S
C134 C138 1.382 . S
C134 H157 0.950 . S
C135 C134 1.388 . S
C135 C136 1.386 . S
C136 C135 1.386 . S
C136 C137 1.382 . S
C136 H158 0.950 . S
C137 N133 1.332 . S
C137 C136 1.382 . S
C137 H139 0.952 . S
C138 N133 1.332 . S
C138 C134 1.382 . S
C138 H140 0.948 . S
H139 C137 0.952 . S
H140 C138 0.948 . S
H141 C130 0.952 . S
H142 C132 0.948 . S
C143 C109 1.395 . S
C143 C113 1.391 . S
C144 C106 1.389 . S
C144 C126 1.392 . S
C145 C116 1.392 . S
C145 C118 1.389 . S
C146 C121 1.395 . S
C146 C123 1.391 . S
H147 C107 0.951 . S
H148 C108 0.950 . S
H149 C114 0.949 . S
H150 C115 0.950 . S
H151 C119 0.951 . S
H152 C120 0.950 . S
H153 C124 0.949 . S
H154 C125 0.950 . S
H155 C129 0.950 . S
H156 C131 0.950 . S
H157 C134 0.950 . S
H158 C136 0.950 . S
C159 C160 1.443 . S
C159 N163 1.376 . S
C159 C197 1.389 . S
C160 C159 1.443 . S
C160 C161 1.340 . S
C160 H200 0.951 . S
C161 C160 1.340 . S
C161 C162 1.439 . S
C161 H201 0.950 . S
C162 C161 1.439 . S
C162 N163 1.374 . S
C162 C196 1.395 . S
N163 C159 1.376 . S
N163 C162 1.374 . S
N163 Co164 2.008 . S
Co164 N163 2.008 . S
Co164 N165 1.995 . S
Co164 N170 2.008 . S
Co164 N175 1.995 . S
Co164 N180 2.282 . S
Co164 N186 2.282 . S
N165 Co164 1.995 . S
N165 C166 1.376 . S
N165 C169 1.383 . S
C166 N165 1.376 . S
C166 C167 1.446 . S
C166 C196 1.391 . S
C167 C166 1.446 . S
C167 C168 1.339 . S
C167 H202 0.949 . S
C168 C167 1.339 . S
C168 C169 1.439 . S
C168 H203 0.950 . S
C169 N165 1.383 . S
C169 C168 1.439 . S
C169 C198 1.392 . S
N170 Co164 2.008 . S
N170 C171 1.376 . S
N170 C174 1.374 . S
C171 N170 1.376 . S
C171 C172 1.443 . S
C171 C198 1.389 . S
C172 C171 1.443 . S
C172 C173 1.340 . S
C172 H204 0.951 . S
C173 C172 1.340 . S
C173 C174 1.439 . S
C173 H205 0.950 . S
C174 N170 1.374 . S
C174 C173 1.439 . S
C174 C199 1.395 . S
N175 Co164 1.995 . S
N175 C176 1.376 . S
N175 C179 1.383 . S
C176 N175 1.376 . S
C176 C177 1.446 . S
C176 C199 1.391 . S
C177 C176 1.446 . S
C177 C178 1.339 . S
C177 H206 0.949 . S
C178 C177 1.339 . S
C178 C179 1.439 . S
C178 H207 0.950 . S
C179 N175 1.383 . S
C179 C178 1.439 . S
C179 C197 1.392 . S
N180 Co164 2.282 . S
N180 C183 1.332 . S
N180 C185 1.332 . S
C181 C182 1.386 . S
C181 C184 1.388 . S
C182 C181 1.386 . S
C182 C183 1.382 . S
C182 H208 0.950 . S
C183 N180 1.332 . S
C183 C182 1.382 . S
C183 H194 0.952 . S
C184 C181 1.388 . S
C184 C185 1.382 . S
C184 H209 0.950 . S
C185 N180 1.332 . S
C185 C184 1.382 . S
C185 H195 0.948 . S
N186 Co164 2.282 . S
N186 C190 1.332 . S
N186 C191 1.332 . S
C187 C188 1.388 . S
C187 C191 1.382 1_556 S
C187 H210 0.950 . S
C188 C187 1.388 . S
C188 C189 1.386 . S
C189 C188 1.386 . S
C189 C190 1.382 1_556 S
C189 H211 0.950 . S
C190 N186 1.332 . S
C190 C189 1.382 1_554 S
C190 H192 0.952 . S
C191 N186 1.332 . S
C191 C187 1.382 1_554 S
C191 H193 0.948 . S
H192 C190 0.952 . S
H193 C191 0.948 . S
H194 C183 0.952 . S
H195 C185 0.948 . S
C196 C162 1.395 . S
C196 C166 1.391 . S
C197 C159 1.389 . S
C197 C179 1.392 . S
C198 C169 1.392 . S
C198 C171 1.389 . S
C199 C174 1.395 . S
C199 C176 1.391 . S
H200 C160 0.951 . S
H201 C161 0.950 . S
H202 C167 0.949 . S
H203 C168 0.950 . S
H204 C172 0.951 . S
H205 C173 0.950 . S
H206 C177 0.949 . S
H207 C178 0.950 . S
H208 C182 0.950 . S
H209 C184 0.950 . S
H210 C187 0.950 . S
H211 C189 0.950 . S
C212 C213 1.443 . S
C212 N216 1.376 . S
C212 C250 1.389 . S
C213 C212 1.443 . S
C213 C214 1.340 . S
C213 H253 0.951 . S
C214 C213 1.340 . S
C214 C215 1.439 . S
C214 H254 0.950 . S
C215 C214 1.439 . S
C215 N216 1.374 . S
C215 C249 1.395 . S
N216 C212 1.376 . S
N216 C215 1.374 . S
N216 Co217 2.008 . S
Co217 N216 2.008 . S
Co217 N218 1.995 . S
Co217 N223 2.008 . S
Co217 N228 1.995 . S
Co217 N233 2.282 . S
Co217 N239 2.282 . S
N218 Co217 1.995 . S
N218 C219 1.376 . S
N218 C222 1.383 . S
C219 N218 1.376 . S
C219 C220 1.446 . S
C219 C249 1.391 . S
C220 C219 1.446 . S
C220 C221 1.339 . S
C220 H255 0.949 . S
C221 C220 1.339 . S
C221 C222 1.439 . S
C221 H256 0.950 . S
C222 N218 1.383 . S
C222 C221 1.439 . S
C222 C251 1.392 . S
N223 Co217 2.008 . S
N223 C224 1.376 . S
N223 C227 1.374 . S
C224 N223 1.376 . S
C224 C225 1.443 . S
C224 C251 1.389 . S
C225 C224 1.443 . S
C225 C226 1.340 . S
C225 H257 0.951 . S
C226 C225 1.340 . S
C226 C227 1.439 . S
C226 H258 0.950 . S
C227 N223 1.374 . S
C227 C226 1.439 . S
C227 C252 1.395 . S
N228 Co217 1.995 . S
N228 C229 1.376 . S
N228 C232 1.383 . S
C229 N228 1.376 . S
C229 C230 1.446 . S
C229 C252 1.391 . S
C230 C229 1.446 . S
C230 C231 1.339 . S
C230 H259 0.949 . S
C231 C230 1.339 . S
C231 C232 1.439 . S
C231 H260 0.950 . S
C232 N228 1.383 . S
C232 C231 1.439 . S
C232 C250 1.392 . S
N233 Co217 2.282 . S
N233 C236 1.332 . S
N233 C238 1.332 . S
C234 C235 1.386 . S
C234 C237 1.388 . S
C235 C234 1.386 . S
C235 C236 1.382 . S
C235 H261 0.950 . S
C236 N233 1.332 . S
C236 C235 1.382 . S
C236 H247 0.952 . S
C237 C234 1.388 . S
C237 C238 1.382 . S
C237 H262 0.950 . S
C238 N233 1.332 . S
C238 C237 1.382 . S
C238 H248 0.948 . S
N239 Co217 2.282 . S
N239 C243 1.332 . S
N239 C244 1.332 . S
C240 C241 1.388 . S
C240 C244 1.382 . S
C240 H263 0.950 . S
C241 C240 1.388 . S
C241 C242 1.386 . S
C242 C241 1.386 . S
C242 C243 1.382 . S
C242 H264 0.950 . S
C243 N239 1.332 . S
C243 C242 1.382 . S
C243 H245 0.952 . S
C244 N239 1.332 . S
C244 C240 1.382 . S
C244 H246 0.948 . S
H245 C243 0.952 . S
H246 C244 0.948 . S
H247 C236 0.952 . S
H248 C238 0.948 . S
C249 C215 1.395 . S
C249 C219 1.391 . S
C250 C212 1.389 . S
C250 C232 1.392 . S
C251 C222 1.392 . S
C251 C224 1.389 . S
C252 C227 1.395 . S
C252 C229 1.391 . S
H253 C213 0.951 . S
H254 C214 0.950 . S
H255 C220 0.949 . S
H256 C221 0.950 . S
H257 C225 0.951 . S
H258 C226 0.950 . S
H259 C230 0.949 . S
H260 C231 0.950 . S
H261 C235 0.950 . S
H262 C237 0.950 . S
H263 C240 0.950 . S
H264 C242 0.950 . S
C265 C266 1.443 . S
C265 N269 1.376 . S
C265 C303 1.389 . S
C266 C265 1.443 . S
C266 C267 1.340 . S
C266 H306 0.951 . S
C267 C266 1.340 . S
C267 C268 1.439 . S
C267 H307 0.950 . S
C268 C267 1.439 . S
C268 N269 1.374 . S
C268 C302 1.395 . S
N269 C265 1.376 . S
N269 C268 1.374 . S
N269 Co270 2.008 . S
Co270 N269 2.008 . S
Co270 N271 1.995 . S
Co270 N276 2.008 . S
Co270 N281 1.995 . S
Co270 N286 2.282 . S
Co270 N292 2.282 . S
N271 Co270 1.995 . S
N271 C272 1.376 . S
N271 C275 1.383 . S
C272 N271 1.376 . S
C272 C273 1.446 . S
C272 C302 1.391 . S
C273 C272 1.446 . S
C273 C274 1.339 . S
C273 H308 0.949 . S
C274 C273 1.339 . S
C274 C275 1.439 . S
C274 H309 0.950 . S
C275 N271 1.383 . S
C275 C274 1.439 . S
C275 C304 1.392 . S
N276 Co270 2.008 . S
N276 C277 1.376 . S
N276 C280 1.374 . S
C277 N276 1.376 . S
C277 C278 1.443 . S
C277 C304 1.389 . S
C278 C277 1.443 . S
C278 C279 1.340 . S
C278 H310 0.951 . S
C279 C278 1.340 . S
C279 C280 1.439 . S
C279 H311 0.950 . S
C280 N276 1.374 . S
C280 C279 1.439 . S
C280 C305 1.395 . S
N281 Co270 1.995 . S
N281 C282 1.376 . S
N281 C285 1.383 . S
C282 N281 1.376 . S
C282 C283 1.446 . S
C282 C305 1.391 . S
C283 C282 1.446 . S
C283 C284 1.339 . S
C283 H312 0.949 . S
C284 C283 1.339 . S
C284 C285 1.439 . S
C284 H313 0.950 . S
C285 N281 1.383 . S
C285 C284 1.439 . S
C285 C303 1.392 . S
N286 Co270 2.282 . S
N286 C289 1.332 . S
N286 C291 1.332 . S
C287 C288 1.386 . S
C287 C290 1.388 . S
C288 C287 1.386 . S
C288 C289 1.382 . S
C288 H314 0.950 . S
C289 N286 1.332 . S
C289 C288 1.382 . S
C289 H300 0.952 . S
C290 C287 1.388 . S
C290 C291 1.382 . S
C290 H315 0.950 . S
C291 N286 1.332 . S
C291 C290 1.382 . S
C291 H301 0.948 . S
N292 Co270 2.282 . S
N292 C296 1.332 . S
N292 C297 1.332 . S
C293 C294 1.388 . S
C293 C297 1.382 . S
C293 H316 0.950 . S
C294 C293 1.388 . S
C294 C295 1.386 . S
C295 C294 1.386 . S
C295 C296 1.382 . S
C295 H317 0.950 . S
C296 N292 1.332 . S
C296 C295 1.382 . S
C296 H298 0.952 . S
C297 N292 1.332 . S
C297 C293 1.382 . S
C297 H299 0.948 . S
H298 C296 0.952 . S
H299 C297 0.948 . S
H300 C289 0.952 . S
H301 C291 0.948 . S
C302 C268 1.395 . S
C302 C272 1.391 . S
C303 C265 1.389 . S
C303 C285 1.392 . S
C304 C275 1.392 . S
C304 C277 1.389 . S
C305 C280 1.395 . S
C305 C282 1.391 . S
H306 C266 0.951 . S
H307 C267 0.950 . S
H308 C273 0.949 . S
H309 C274 0.950 . S
H310 C278 0.951 . S
H311 C279 0.950 . S
H312 C283 0.949 . S
H313 C284 0.950 . S
H314 C288 0.950 . S
H315 C290 0.950 . S
H316 C293 0.950 . S
H317 C295 0.950 . S
C318 C319 1.443 . S
C318 N322 1.376 . S
C318 C356 1.389 . S
C319 C318 1.443 . S
C319 C320 1.340 . S
C319 H359 0.951 . S
C320 C319 1.340 . S
C320 C321 1.439 . S
C320 H360 0.950 . S
C321 C320 1.439 . S
C321 N322 1.374 . S
C321 C355 1.395 . S
N322 C318 1.376 . S
N322 C321 1.374 . S
N322 Co323 2.008 . S
Co323 N322 2.008 . S
Co323 N324 1.995 . S
Co323 N329 2.008 . S
Co323 N334 1.995 . S
Co323 N339 2.282 . S
Co323 N345 2.282 . S
N324 Co323 1.995 . S
N324 C325 1.376 . S
N324 C328 1.383 . S
C325 N324 1.376 . S
C325 C326 1.446 . S
C325 C355 1.391 . S
C326 C325 1.446 . S
C326 C327 1.339 . S
C326 H361 0.949 . S
C327 C326 1.339 . S
C327 C328 1.439 . S
C327 H362 0.950 . S
C328 N324 1.383 . S
C328 C327 1.439 . S
C328 C357 1.392 . S
N329 Co323 2.008 . S
N329 C330 1.376 . S
N329 C333 1.374 . S
C330 N329 1.376 . S
C330 C331 1.443 . S
C330 C357 1.389 . S
C331 C330 1.443 . S
C331 C332 1.340 . S
C331 H363 0.951 . S
C332 C331 1.340 . S
C332 C333 1.439 . S
C332 H364 0.950 . S
C333 N329 1.374 . S
C333 C332 1.439 . S
C333 C358 1.395 . S
N334 Co323 1.995 . S
N334 C335 1.376 . S
N334 C338 1.383 . S
C335 N334 1.376 . S
C335 C336 1.446 . S
C335 C358 1.391 . S
C336 C335 1.446 . S
C336 C337 1.339 . S
C336 H365 0.949 . S
C337 C336 1.339 . S
C337 C338 1.439 . S
C337 H366 0.950 . S
C338 N334 1.383 . S
C338 C337 1.439 . S
C338 C356 1.392 . S
N339 Co323 2.282 . S
N339 C342 1.332 . S
N339 C344 1.332 . S
C340 C341 1.386 . S
C340 C343 1.388 . S
C341 C340 1.386 . S
C341 C342 1.382 . S
C341 H367 0.950 . S
C342 N339 1.332 . S
C342 C341 1.382 . S
C342 H353 0.952 . S
C343 C340 1.388 . S
C343 C344 1.382 . S
C343 H368 0.950 . S
C344 N339 1.332 . S
C344 C343 1.382 . S
C344 H354 0.948 . S
N345 Co323 2.282 . S
N345 C349 1.332 . S
N345 C350 1.332 . S
C346 C347 1.388 . S
C346 C350 1.382 . S
C346 H369 0.950 . S
C347 C346 1.388 . S
C347 C348 1.386 . S
C348 C347 1.386 . S
C348 C349 1.382 . S
C348 H370 0.950 . S
C349 N345 1.332 . S
C349 C348 1.382 . S
C349 H351 0.952 . S
C350 N345 1.332 . S
C350 C346 1.382 . S
C350 H352 0.948 . S
H351 C349 0.952 . S
H352 C350 0.948 . S
H353 C342 0.952 . S
H354 C344 0.948 . S
C355 C321 1.395 . S
C355 C325 1.391 . S
C356 C318 1.389 . S
C356 C338 1.392 . S
C357 C328 1.392 . S
C357 C330 1.389 . S
C358 C333 1.395 . S
C358 C335 1.391 . S
H359 C319 0.951 . S
H360 C320 0.950 . S
H361 C326 0.949 . S
H362 C327 0.950 . S
H363 C331 0.951 . S
H364 C332 0.950 . S
H365 C336 0.949 . S
H366 C337 0.950 . S
H367 C341 0.950 . S
H368 C343 0.950 . S
H369 C346 0.950 . S
H370 C348 0.950 . S
C371 C372 1.443 . S
C371 N375 1.376 . S
C371 C409 1.389 . S
C372 C371 1.443 . S
C372 C373 1.340 . S
C372 H412 0.951 . S
C373 C372 1.340 . S
C373 C374 1.439 . S
C373 H413 0.950 . S
C374 C373 1.439 . S
C374 N375 1.374 . S
C374 C408 1.395 . S
N375 C371 1.376 . S
N375 C374 1.374 . S
N375 Co376 2.008 . S
Co376 N375 2.008 . S
Co376 N377 1.995 . S
Co376 N382 2.008 . S
Co376 N387 1.995 . S
Co376 N392 2.282 . S
Co376 N398 2.282 . S
N377 Co376 1.995 . S
N377 C378 1.376 . S
N377 C381 1.383 . S
C378 N377 1.376 . S
C378 C379 1.446 . S
C378 C408 1.391 . S
C379 C378 1.446 . S
C379 C380 1.339 . S
C379 H414 0.949 . S
C380 C379 1.339 . S
C380 C381 1.439 . S
C380 H415 0.950 . S
C381 N377 1.383 . S
C381 C380 1.439 . S
C381 C410 1.392 . S
N382 Co376 2.008 . S
N382 C383 1.376 . S
N382 C386 1.374 . S
C383 N382 1.376 . S
C383 C384 1.443 . S
C383 C410 1.389 . S
C384 C383 1.443 . S
C384 C385 1.340 . S
C384 H416 0.951 . S
C385 C384 1.340 . S
C385 C386 1.439 . S
C385 H417 0.950 . S
C386 N382 1.374 . S
C386 C385 1.439 . S
C386 C411 1.395 . S
N387 Co376 1.995 . S
N387 C388 1.376 . S
N387 C391 1.383 . S
C388 N387 1.376 . S
C388 C389 1.446 . S
C388 C411 1.391 . S
C389 C388 1.446 . S
C389 C390 1.339 . S
C389 H418 0.949 . S
C390 C389 1.339 . S
C390 C391 1.439 . S
C390 H419 0.950 . S
C391 N387 1.383 . S
C391 C390 1.439 . S
C391 C409 1.392 . S
N392 Co376 2.282 . S
N392 C395 1.332 . S
N392 C397 1.332 . S
C393 C394 1.386 . S
C393 C396 1.388 . S
C394 C393 1.386 . S
C394 C395 1.382 . S
C394 H420 0.950 . S
C395 N392 1.332 . S
C395 C394 1.382 . S
C395 H406 0.952 . S
C396 C393 1.388 . S
C396 C397 1.382 . S
C396 H421 0.950 . S
C397 N392 1.332 . S
C397 C396 1.382 . S
C397 H407 0.948 . S
N398 Co376 2.282 . S
N398 C402 1.332 . S
N398 C403 1.332 . S
C399 C400 1.388 . S
C399 C403 1.382 1_554 S
C399 H422 0.950 . S
C400 C399 1.388 . S
C400 C401 1.386 . S
C401 C400 1.386 . S
C401 C402 1.382 1_554 S
C401 H423 0.950 . S
C402 N398 1.332 . S
C402 C401 1.382 1_556 S
C402 H404 0.952 . S
C403 N398 1.332 . S
C403 C399 1.382 1_556 S
C403 H405 0.948 . S
H404 C402 0.952 . S
H405 C403 0.948 . S
H406 C395 0.952 . S
H407 C397 0.948 . S
C408 C374 1.395 . S
C408 C378 1.391 . S
C409 C371 1.389 . S
C409 C391 1.392 . S
C410 C381 1.392 . S
C410 C383 1.389 . S
C411 C386 1.395 . S
C411 C388 1.391 . S
H412 C372 0.951 . S
H413 C373 0.950 . S
H414 C379 0.949 . S
H415 C380 0.950 . S
H416 C384 0.951 . S
H417 C385 0.950 . S
H418 C389 0.949 . S
H419 C390 0.950 . S
H420 C394 0.950 . S
H421 C396 0.950 . S
H422 C399 0.950 . S
H423 C401 0.950 . S
C424 C425 1.443 . S
C424 N428 1.376 . S
C424 C462 1.389 . S
C425 C424 1.443 . S
C425 C426 1.340 . S
C425 H465 0.951 . S
C426 C425 1.340 . S
C426 C427 1.439 . S
C426 H466 0.950 . S
C427 C426 1.439 . S
C427 N428 1.374 . S
C427 C461 1.395 . S
N428 C424 1.376 . S
N428 C427 1.374 . S
N428 Co429 2.008 . S
Co429 N428 2.008 . S
Co429 N430 1.995 . S
Co429 N435 2.008 . S
Co429 N440 1.995 . S
Co429 N445 2.282 . S
Co429 N451 2.282 . S
N430 Co429 1.995 . S
N430 C431 1.376 . S
N430 C434 1.383 . S
C431 N430 1.376 . S
C431 C432 1.446 . S
C431 C461 1.391 . S
C432 C431 1.446 . S
C432 C433 1.339 . S
C432 H467 0.949 . S
C433 C432 1.339 . S
C433 C434 1.439 . S
C433 H468 0.950 . S
C434 N430 1.383 . S
C434 C433 1.439 . S
C434 C463 1.392 . S
N435 Co429 2.008 . S
N435 C436 1.376 . S
N435 C439 1.374 . S
C436 N435 1.376 . S
C436 C437 1.443 . S
C436 C463 1.389 . S
C437 C436 1.443 . S
C437 C438 1.340 . S
C437 H469 0.951 . S
C438 C437 1.340 . S
C438 C439 1.439 . S
C438 H470 0.950 . S
C439 N435 1.374 . S
C439 C438 1.439 . S
C439 C464 1.395 . S
N440 Co429 1.995 . S
N440 C441 1.376 . S
N440 C444 1.383 . S
C441 N440 1.376 . S
C441 C442 1.446 . S
C441 C464 1.391 . S
C442 C441 1.446 . S
C442 C443 1.339 . S
C442 H471 0.949 . S
C443 C442 1.339 . S
C443 C444 1.439 . S
C443 H472 0.950 . S
C444 N440 1.383 . S
C444 C443 1.439 . S
C444 C462 1.392 . S
N445 Co429 2.282 . S
N445 C448 1.332 . S
N445 C450 1.332 . S
C446 C447 1.386 . S
C446 C449 1.388 . S
C447 C446 1.386 . S
C447 C448 1.382 . S
C447 H473 0.950 . S
C448 N445 1.332 . S
C448 C447 1.382 . S
C448 H459 0.952 . S
C449 C446 1.388 . S
C449 C450 1.382 . S
C449 H474 0.950 . S
C450 N445 1.332 . S
C450 C449 1.382 . S
C450 H460 0.948 . S
N451 Co429 2.282 . S
N451 C455 1.332 . S
N451 C456 1.332 . S
C452 C453 1.388 . S
C452 C456 1.382 . S
C452 H475 0.950 . S
C453 C452 1.388 . S
C453 C454 1.386 . S
C454 C453 1.386 . S
C454 C455 1.382 . S
C454 H476 0.950 . S
C455 N451 1.332 . S
C455 C454 1.382 . S
C455 H457 0.952 . S
C456 N451 1.332 . S
C456 C452 1.382 . S
C456 H458 0.948 . S
H457 C455 0.952 . S
H458 C456 0.948 . S
H459 C448 0.952 . S
H460 C450 0.948 . S
C461 C427 1.395 . S
C461 C431 1.391 . S
C462 C424 1.389 . S
C462 C444 1.392 . S
C463 C434 1.392 . S
C463 C436 1.389 . S
C464 C439 1.395 . S
C464 C441 1.391 . S
H465 C425 0.951 . S
H466 C426 0.950 . S
H467 C432 0.949 . S
H468 C433 0.950 . S
H469 C437 0.951 . S
H470 C438 0.950 . S
H471 C442 0.949 . S
H472 C443 0.950 . S
H473 C447 0.950 . S
H474 C449 0.950 . S
H475 C452 0.950 . S
H476 C454 0.950 . S
C477 C478 1.443 . S
C477 N481 1.376 . S
C477 C515 1.389 . S
C478 C477 1.443 . S
C478 C479 1.340 . S
C478 H518 0.951 . S
C479 C478 1.340 . S
C479 C480 1.439 . S
C479 H519 0.950 . S
C480 C479 1.439 . S
C480 N481 1.374 . S
C480 C514 1.395 . S
N481 C477 1.376 . S
N481 C480 1.374 . S
N481 Co482 2.008 . S
Co482 N481 2.008 . S
Co482 N483 1.995 . S
Co482 N488 2.008 . S
Co482 N493 1.995 . S
Co482 N498 2.282 . S
Co482 N504 2.282 . S
N483 Co482 1.995 . S
N483 C484 1.376 . S
N483 C487 1.383 . S
C484 N483 1.376 . S
C484 C485 1.446 . S
C484 C514 1.391 . S
C485 C484 1.446 . S
C485 C486 1.339 . S
C485 H520 0.949 . S
C486 C485 1.339 . S
C486 C487 1.439 . S
C486 H521 0.950 . S
C487 N483 1.383 . S
C487 C486 1.439 . S
C487 C516 1.392 . S
N488 Co482 2.008 . S
N488 C489 1.376 . S
N488 C492 1.374 . S
C489 N488 1.376 . S
C489 C490 1.443 . S
C489 C516 1.389 . S
C490 C489 1.443 . S
C490 C491 1.340 . S
C490 H522 0.951 . S
C491 C490 1.340 . S
C491 C492 1.439 . S
C491 H523 0.950 . S
C492 N488 1.374 . S
C492 C491 1.439 . S
C492 C517 1.395 . S
N493 Co482 1.995 . S
N493 C494 1.376 . S
N493 C497 1.383 . S
C494 N493 1.376 . S
C494 C495 1.446 . S
C494 C517 1.391 . S
C495 C494 1.446 . S
C495 C496 1.339 . S
C495 H524 0.949 . S
C496 C495 1.339 . S
C496 C497 1.439 . S
C496 H525 0.950 . S
C497 N493 1.383 . S
C497 C496 1.439 . S
C497 C515 1.392 . S
N498 Co482 2.282 . S
N498 C501 1.332 . S
N498 C503 1.332 . S
C499 C500 1.386 . S
C499 C502 1.388 . S
C500 C499 1.386 . S
C500 C501 1.382 . S
C500 H526 0.950 . S
C501 N498 1.332 . S
C501 C500 1.382 . S
C501 H512 0.952 . S
C502 C499 1.388 . S
C502 C503 1.382 . S
C502 H527 0.950 . S
C503 N498 1.332 . S
C503 C502 1.382 . S
C503 H513 0.948 . S
N504 Co482 2.282 . S
N504 C508 1.332 . S
N504 C509 1.332 . S
C505 C506 1.388 . S
C505 C509 1.382 . S
C505 H528 0.950 . S
C506 C505 1.388 . S
C506 C507 1.386 . S
C507 C506 1.386 . S
C507 C508 1.382 . S
C507 H529 0.950 . S
C508 N504 1.332 . S
C508 C507 1.382 . S
C508 H510 0.952 . S
C509 N504 1.332 . S
C509 C505 1.382 . S
C509 H511 0.948 . S
H510 C508 0.952 . S
H511 C509 0.948 . S
H512 C501 0.952 . S
H513 C503 0.948 . S
C514 C480 1.395 . S
C514 C484 1.391 . S
C515 C477 1.389 . S
C515 C497 1.392 . S
C516 C487 1.392 . S
C516 C489 1.389 . S
C517 C492 1.395 . S
C517 C494 1.391 . S
H518 C478 0.951 . S
H519 C479 0.950 . S
H520 C485 0.949 . S
H521 C486 0.950 . S
H522 C490 0.951 . S
H523 C491 0.950 . S
H524 C495 0.949 . S
H525 C496 0.950 . S
H526 C500 0.950 . S
H527 C502 0.950 . S
H528 C505 0.950 . S
H529 C507 0.950 . S
C530 C531 1.443 . S
C530 N534 1.376 . S
C530 C568 1.389 . S
C531 C530 1.443 . S
C531 C532 1.340 . S
C531 H571 0.951 . S
C532 C531 1.340 . S
C532 C533 1.439 . S
C532 H572 0.950 . S
C533 C532 1.439 . S
C533 N534 1.374 . S
C533 C567 1.395 . S
N534 C530 1.376 . S
N534 C533 1.374 . S
N534 Co535 2.008 . S
Co535 N534 2.008 . S
Co535 N536 1.995 . S
Co535 N541 2.008 . S
Co535 N546 1.995 . S
Co535 N551 2.282 . S
Co535 N557 2.282 . S
N536 Co535 1.995 . S
N536 C537 1.376 . S
N536 C540 1.383 . S
C537 N536 1.376 . S
C537 C538 1.446 . S
C537 C567 1.391 . S
C538 C537 1.446 . S
C538 C539 1.339 . S
C538 H573 0.949 . S
C539 C538 1.339 . S
C539 C540 1.439 . S
C539 H574 0.950 . S
C540 N536 1.383 . S
C540 C539 1.439 . S
C540 C569 1.392 . S
N541 Co535 2.008 . S
N541 C542 1.376 . S
N541 C545 1.374 . S
C542 N541 1.376 . S
C542 C543 1.443 . S
C542 C569 1.389 . S
C543 C542 1.443 . S
C543 C544 1.340 . S
C543 H575 0.951 . S
C544 C543 1.340 . S
C544 C545 1.439 . S
C544 H576 0.950 . S
C545 N541 1.374 . S
C545 C544 1.439 . S
C545 C570 1.395 . S
N546 Co535 1.995 . S
N546 C547 1.376 . S
N546 C550 1.383 . S
C547 N546 1.376 . S
C547 C548 1.446 . S
C547 C570 1.391 . S
C548 C547 1.446 . S
C548 C549 1.339 . S
C548 H577 0.949 . S
C549 C548 1.339 . S
C549 C550 1.439 . S
C549 H578 0.950 . S
C550 N546 1.383 . S
C550 C549 1.439 . S
C550 C568 1.392 . S
N551 Co535 2.282 . S
N551 C554 1.332 . S
N551 C556 1.332 . S
C552 C553 1.386 . S
C552 C555 1.388 . S
C553 C552 1.386 . S
C553 C554 1.382 . S
C553 H579 0.950 . S
C554 N551 1.332 . S
C554 C553 1.382 . S
C554 H565 0.952 . S
C555 C552 1.388 . S
C555 C556 1.382 . S
C555 H580 0.950 . S
C556 N551 1.332 . S
C556 C555 1.382 . S
C556 H566 0.948 . S
N557 Co535 2.282 . S
N557 C561 1.332 . S
N557 C562 1.332 . S
C558 C559 1.388 . S
C558 C562 1.382 1_554 S
C558 H581 0.950 . S
C559 C558 1.388 . S
C559 C560 1.386 . S
C560 C559 1.386 . S
C560 C561 1.382 1_554 S
C560 H582 0.950 . S
C561 N557 1.332 . S
C561 C560 1.382 1_556 S
C561 H563 0.952 . S
C562 N557 1.332 . S
C562 C558 1.382 1_556 S
C562 H564 0.948 . S
H563 C561 0.952 . S
H564 C562 0.948 . S
H565 C554 0.952 . S
H566 C556 0.948 . S
C567 C533 1.395 . S
C567 C537 1.391 . S
C568 C530 1.389 . S
C568 C550 1.392 . S
C569 C540 1.392 . S
C569 C542 1.389 . S
C570 C545 1.395 . S
C570 C547 1.391 . S
H571 C531 0.951 . S
H572 C532 0.950 . S
H573 C538 0.949 . S
H574 C539 0.950 . S
H575 C543 0.951 . S
H576 C544 0.950 . S
H577 C548 0.949 . S
H578 C549 0.950 . S
H579 C553 0.950 . S
H580 C555 0.950 . S
H581 C558 0.950 . S
H582 C560 0.950 . S
C583 C584 1.443 . S
C583 N587 1.376 . S
C583 C621 1.389 . S
C584 C583 1.443 . S
C584 C585 1.340 . S
C584 H624 0.951 . S
C585 C584 1.340 . S
C585 C586 1.439 . S
C585 H625 0.950 . S
C586 C585 1.439 . S
C586 N587 1.374 . S
C586 C620 1.395 . S
N587 C583 1.376 . S
N587 C586 1.374 . S
N587 Co588 2.008 . S
Co588 N587 2.008 . S
Co588 N589 1.995 . S
Co588 N594 2.008 . S
Co588 N599 1.995 . S
Co588 N604 2.282 . S
Co588 N610 2.282 . S
N589 Co588 1.995 . S
N589 C590 1.376 . S
N589 C593 1.383 . S
C590 N589 1.376 . S
C590 C591 1.446 . S
C590 C620 1.391 . S
C591 C590 1.446 . S
C591 C592 1.339 . S
C591 H626 0.949 . S
C592 C591 1.339 . S
C592 C593 1.439 . S
C592 H627 0.950 . S
C593 N589 1.383 . S
C593 C592 1.439 . S
C593 C622 1.392 . S
N594 Co588 2.008 . S
N594 C595 1.376 . S
N594 C598 1.374 . S
C595 N594 1.376 . S
C595 C596 1.443 . S
C595 C622 1.389 . S
C596 C595 1.443 . S
C596 C597 1.340 . S
C596 H628 0.951 . S
C597 C596 1.340 . S
C597 C598 1.439 . S
C597 H629 0.950 . S
C598 N594 1.374 . S
C598 C597 1.439 . S
C598 C623 1.395 . S
N599 Co588 1.995 . S
N599 C600 1.376 . S
N599 C603 1.383 . S
C600 N599 1.376 . S
C600 C601 1.446 . S
C600 C623 1.391 . S
C601 C600 1.446 . S
C601 C602 1.339 . S
C601 H630 0.949 . S
C602 C601 1.339 . S
C602 C603 1.439 . S
C602 H631 0.950 . S
C603 N599 1.383 . S
C603 C602 1.439 . S
C603 C621 1.392 . S
N604 Co588 2.282 . S
N604 C607 1.332 . S
N604 C609 1.332 . S
C605 C606 1.386 . S
C605 C608 1.388 . S
C606 C605 1.386 . S
C606 C607 1.382 . S
C606 H632 0.950 . S
C607 N604 1.332 . S
C607 C606 1.382 . S
C607 H618 0.952 . S
C608 C605 1.388 . S
C608 C609 1.382 . S
C608 H633 0.950 . S
C609 N604 1.332 . S
C609 C608 1.382 . S
C609 H619 0.948 . S
N610 Co588 2.282 . S
N610 C614 1.332 . S
N610 C615 1.332 . S
C611 C612 1.388 . S
C611 C615 1.382 . S
C611 H634 0.950 . S
C612 C611 1.388 . S
C612 C613 1.386 . S
C613 C612 1.386 . S
C613 C614 1.382 . S
C613 H635 0.950 . S
C614 N610 1.332 . S
C614 C613 1.382 . S
C614 H616 0.952 . S
C615 N610 1.332 . S
C615 C611 1.382 . S
C615 H617 0.948 . S
H616 C614 0.952 . S
H617 C615 0.948 . S
H618 C607 0.952 . S
H619 C609 0.948 . S
C620 C586 1.395 . S
C620 C590 1.391 . S
C621 C583 1.389 . S
C621 C603 1.392 . S
C622 C593 1.392 . S
C622 C595 1.389 . S
C623 C598 1.395 . S
C623 C600 1.391 . S
H624 C584 0.951 . S
H625 C585 0.950 . S
H626 C591 0.949 . S
H627 C592 0.950 . S
H628 C596 0.951 . S
H629 C597 0.950 . S
H630 C601 0.949 . S
H631 C602 0.950 . S
H632 C606 0.950 . S
H633 C608 0.950 . S
H634 C611 0.950 . S
H635 C613 0.950 . S
H636 C644 0.950 . S
H637 C649 0.950 . S
H638 C646 0.950 . S
H639 C648 0.950 . S
H640 C650 0.950 . S
H641 C652 0.950 . S
H642 C654 0.950 . S
H643 C655 0.950 . S
C644 H636 0.950 . S
C644 C645 1.386 . S
C644 C646 1.391 . S
C645 C644 1.386 . S
C645 C649 1.393 . S
C646 H638 0.950 . S
C646 C644 1.391 . S
C646 C647 1.400 . S
C647 C646 1.400 . S
C647 C648 1.398 . S
C647 C653 1.491 . S
C648 H639 0.950 . S
C648 C647 1.398 . S
C648 C649 1.391 . S
C649 H637 0.950 . S
C649 C645 1.393 . S
C649 C648 1.391 . S
C650 H640 0.950 . S
C650 C651 1.386 . S
C650 C652 1.391 . S
C651 C650 1.386 . S
C651 C655 1.393 . S
C652 H641 0.950 . S
C652 C650 1.391 . S
C652 C653 1.400 . S
C653 C647 1.491 . S
C653 C652 1.400 . S
C653 C654 1.398 . S
C654 H642 0.950 . S
C654 C653 1.398 . S
C654 C655 1.391 . S
C655 H643 0.950 . S
C655 C651 1.393 . S
C655 C654 1.391 . S
H656 C664 0.950 . S
H657 C669 0.950 . S
H658 C666 0.950 . S
H659 C668 0.950 . S
H660 C670 0.950 . S
H661 C672 0.950 . S
H662 C674 0.950 . S
H663 C675 0.950 . S
C664 H656 0.950 . S
C664 C665 1.386 . S
C664 C666 1.391 . S
C665 C664 1.386 . S
C665 C669 1.393 . S
C666 H658 0.950 . S
C666 C664 1.391 . S
C666 C667 1.400 . S
C667 C666 1.400 . S
C667 C668 1.398 . S
C667 C673 1.491 . S
C668 H659 0.950 . S
C668 C667 1.398 . S
C668 C669 1.391 . S
C669 H657 0.950 . S
C669 C665 1.393 . S
C669 C668 1.391 . S
C670 H660 0.950 . S
C670 C671 1.386 . S
C670 C672 1.391 . S
C671 C670 1.386 . S
C671 C675 1.393 . S
C672 H661 0.950 . S
C672 C670 1.391 . S
C672 C673 1.400 . S
C673 C667 1.491 . S
C673 C672 1.400 . S
C673 C674 1.398 . S
C674 H662 0.950 . S
C674 C673 1.398 . S
C674 C675 1.391 . S
C675 H663 0.950 . S
C675 C671 1.393 . S
C675 C674 1.391 . S
H676 C684 0.950 . S
H677 C689 0.950 . S
H678 C686 0.950 . S
H679 C688 0.950 . S
H680 C690 0.950 . S
H681 C692 0.950 . S
H682 C694 0.950 . S
H683 C695 0.950 . S
C684 H676 0.950 . S
C684 C685 1.386 . S
C684 C686 1.391 . S
C685 C684 1.386 . S
C685 C689 1.393 . S
C686 H678 0.950 . S
C686 C684 1.391 . S
C686 C687 1.400 . S
C687 C686 1.400 . S
C687 C688 1.398 . S
C687 C693 1.491 1_556 S
C688 H679 0.950 . S
C688 C687 1.398 . S
C688 C689 1.391 . S
C689 H677 0.950 . S
C689 C685 1.393 . S
C689 C688 1.391 . S
C690 H680 0.950 . S
C690 C691 1.386 . S
C690 C692 1.391 . S
C691 C690 1.386 . S
C691 C695 1.393 . S
C692 H681 0.950 . S
C692 C690 1.391 . S
C692 C693 1.400 . S
C693 C687 1.491 1_554 S
C693 C692 1.400 . S
C693 C694 1.398 . S
C694 H682 0.950 . S
C694 C693 1.398 . S
C694 C695 1.391 . S
C695 H683 0.950 . S
C695 C691 1.393 . S
C695 C694 1.391 . S
H696 C704 0.950 . S
H697 C709 0.950 . S
H698 C706 0.950 . S
H699 C708 0.950 . S
H700 C710 0.950 . S
H701 C712 0.950 . S
H702 C714 0.950 . S
H703 C715 0.950 . S
C704 H696 0.950 . S
C704 C705 1.386 . S
C704 C706 1.391 . S
C705 C704 1.386 . S
C705 C709 1.393 . S
C706 H698 0.950 . S
C706 C704 1.391 . S
C706 C707 1.400 . S
C707 C706 1.400 . S
C707 C708 1.398 . S
C707 C713 1.491 . S
C708 H699 0.950 . S
C708 C707 1.398 . S
C708 C709 1.391 . S
C709 H697 0.950 . S
C709 C705 1.393 . S
C709 C708 1.391 . S
C710 H700 0.950 . S
C710 C711 1.386 . S
C710 C712 1.391 . S
C711 C710 1.386 . S
C711 C715 1.393 . S
C712 H701 0.950 . S
C712 C710 1.391 . S
C712 C713 1.400 . S
C713 C707 1.491 . S
C713 C712 1.400 . S
C713 C714 1.398 . S
C714 H702 0.950 . S
C714 C713 1.398 . S
C714 C715 1.391 . S
C715 H703 0.950 . S
C715 C711 1.393 . S
C715 C714 1.391 . S
H716 C724 0.950 . S
H717 C729 0.950 . S
H718 C726 0.950 . S
H719 C728 0.950 . S
H720 C730 0.950 . S
H721 C732 0.950 . S
H722 C734 0.950 . S
H723 C735 0.950 . S
C724 H716 0.950 . S
C724 C725 1.386 . S
C724 C726 1.391 . S
C725 C724 1.386 . S
C725 C729 1.393 . S
C726 H718 0.950 . S
C726 C724 1.391 . S
C726 C727 1.400 . S
C727 C726 1.400 . S
C727 C728 1.398 . S
C727 C733 1.491 . S
C728 H719 0.950 . S
C728 C727 1.398 . S
C728 C729 1.391 . S
C729 H717 0.950 . S
C729 C725 1.393 . S
C729 C728 1.391 . S
C730 H720 0.950 . S
C730 C731 1.386 . S
C730 C732 1.391 . S
C731 C730 1.386 . S
C731 C735 1.393 . S
C732 H721 0.950 . S
C732 C730 1.391 . S
C732 C733 1.400 . S
C733 C727 1.491 . S
C733 C732 1.400 . S
C733 C734 1.398 . S
C734 H722 0.950 . S
C734 C733 1.398 . S
C734 C735 1.391 . S
C735 H723 0.950 . S
C735 C731 1.393 . S
C735 C734 1.391 . S
H736 C744 0.950 . S
H737 C749 0.950 . S
H738 C746 0.950 . S
H739 C748 0.950 . S
H740 C750 0.950 . S
H741 C752 0.950 . S
H742 C754 0.950 . S
H743 C755 0.950 . S
C744 H736 0.950 . S
C744 C745 1.386 . S
C744 C746 1.391 . S
C745 C744 1.386 . S
C745 C749 1.393 . S
C746 H738 0.950 . S
C746 C744 1.391 . S
C746 C747 1.400 . S
C747 C746 1.400 . S
C747 C748 1.398 . S
C747 C753 1.491 1_554 S
C748 H739 0.950 . S
C748 C747 1.398 . S
C748 C749 1.391 . S
C749 H737 0.950 . S
C749 C745 1.393 . S
C749 C748 1.391 . S
C750 H740 0.950 . S
C750 C751 1.386 . S
C750 C752 1.391 . S
C751 C750 1.386 . S
C751 C755 1.393 . S
C752 H741 0.950 . S
C752 C750 1.391 . S
C752 C753 1.400 . S
C753 C747 1.491 1_556 S
C753 C752 1.400 . S
C753 C754 1.398 . S
C754 H742 0.950 . S
C754 C753 1.398 . S
C754 C755 1.391 . S
C755 H743 0.950 . S
C755 C751 1.393 . S
C755 C754 1.391 . S
H756 C764 0.950 . S
H757 C769 0.950 . S
H758 C766 0.950 . S
H759 C768 0.950 . S
H760 C770 0.950 . S
H761 C772 0.950 . S
H762 C774 0.950 . S
H763 C775 0.950 . S
C764 H756 0.950 . S
C764 C765 1.386 . S
C764 C766 1.391 . S
C765 C764 1.386 . S
C765 C769 1.393 . S
C766 H758 0.950 . S
C766 C764 1.391 . S
C766 C767 1.400 . S
C767 C766 1.400 . S
C767 C768 1.398 1_554 S
C767 C773 1.491 1_554 S
C768 H759 0.950 . S
C768 C767 1.398 1_556 S
C768 C769 1.391 1_556 S
C769 H757 0.950 . S
C769 C765 1.393 . S
C769 C768 1.391 1_554 S
C770 H760 0.950 . S
C770 C771 1.386 . S
C770 C772 1.391 . S
C771 C770 1.386 . S
C771 C775 1.393 . S
C772 H761 0.950 . S
C772 C770 1.391 . S
C772 C773 1.400 . S
C773 C767 1.491 1_556 S
C773 C772 1.400 . S
C773 C774 1.398 1_556 S
C774 H762 0.950 . S
C774 C773 1.398 1_554 S
C774 C775 1.391 1_554 S
C775 H763 0.950 . S
C775 C771 1.393 . S
C775 C774 1.391 1_556 S
H776 C784 0.950 . S
H777 C789 0.950 . S
H778 C786 0.950 . S
H779 C788 0.950 . S
H780 C790 0.950 . S
H781 C792 0.950 . S
H782 C794 0.950 . S
H783 C795 0.950 . S
C784 H776 0.950 . S
C784 C785 1.386 . S
C784 C786 1.391 . S
C785 C784 1.386 . S
C785 C789 1.393 . S
C786 H778 0.950 . S
C786 C784 1.391 . S
C786 C787 1.400 . S
C787 C786 1.400 . S
C787 C788 1.398 . S
C787 C793 1.491 . S
C788 H779 0.950 . S
C788 C787 1.398 . S
C788 C789 1.391 . S
C789 H777 0.950 . S
C789 C785 1.393 . S
C789 C788 1.391 . S
C790 H780 0.950 . S
C790 C791 1.386 . S
C790 C792 1.391 . S
C791 C790 1.386 . S
C791 C795 1.393 . S
C792 H781 0.950 . S
C792 C790 1.391 . S
C792 C793 1.400 . S
C793 C787 1.491 . S
C793 C792 1.400 . S
C793 C794 1.398 . S
C794 H782 0.950 . S
C794 C793 1.398 . S
C794 C795 1.391 . S
C795 H783 0.950 . S
C795 C791 1.393 . S
C795 C794 1.391 . S
H796 C804 0.950 . S
H797 C809 0.950 . S
H798 C806 0.950 . S
H799 C808 0.950 . S
H800 C810 0.950 . S
H801 C812 0.950 . S
H802 C814 0.950 . S
H803 C815 0.950 . S
C804 H796 0.950 . S
C804 C805 1.386 . S
C804 C806 1.391 . S
C805 C804 1.386 . S
C805 C809 1.393 . S
C806 H798 0.950 . S
C806 C804 1.391 . S
C806 C807 1.400 . S
C807 C806 1.400 . S
C807 C808 1.398 . S
C807 C813 1.491 . S
C808 H799 0.950 . S
C808 C807 1.398 . S
C808 C809 1.391 . S
C809 H797 0.950 . S
C809 C805 1.393 . S
C809 C808 1.391 . S
C810 H800 0.950 . S
C810 C811 1.386 . S
C810 C812 1.391 . S
C811 C810 1.386 . S
C811 C815 1.393 . S
C812 H801 0.950 . S
C812 C810 1.391 . S
C812 C813 1.400 . S
C813 C807 1.491 . S
C813 C812 1.400 . S
C813 C814 1.398 . S
C814 H802 0.950 . S
C814 C813 1.398 . S
C814 C815 1.391 . S
C815 H803 0.950 . S
C815 C811 1.393 . S
C815 C814 1.391 . S
H816 C824 0.950 . S
H817 C829 0.950 . S
H818 C826 0.950 1_556 S
H819 C828 0.950 . S
H820 C830 0.950 . S
H821 C832 0.950 1_554 S
H822 C834 0.950 . S
H823 C835 0.950 . S
C824 H816 0.950 . S
C824 C825 1.386 . S
C824 C826 1.391 . S
C825 C824 1.386 . S
C825 C829 1.393 . S
C826 H818 0.950 1_554 S
C826 C824 1.391 . S
C826 C827 1.400 . S
C827 C826 1.400 . S
C827 C828 1.398 . S
C827 C833 1.491 1_554 S
C828 H819 0.950 . S
C828 C827 1.398 . S
C828 C829 1.391 . S
C829 H817 0.950 . S
C829 C825 1.393 . S
C829 C828 1.391 . S
C830 H820 0.950 . S
C830 C831 1.386 . S
C830 C832 1.391 . S
C831 C830 1.386 . S
C831 C835 1.393 . S
C832 H821 0.950 1_556 S
C832 C830 1.391 . S
C832 C833 1.400 . S
C833 C827 1.491 1_556 S
C833 C832 1.400 . S
C833 C834 1.398 . S
C834 H822 0.950 . S
C834 C833 1.398 . S
C834 C835 1.391 . S
C835 H823 0.950 . S
C835 C831 1.393 . S
C835 C834 1.391 . S
H836 C844 0.950 . S
H837 C849 0.950 . S
H838 C846 0.950 . S
H839 C848 0.950 . S
H840 C850 0.950 . S
H841 C852 0.950 . S
H842 C854 0.950 . S
H843 C855 0.950 . S
C844 H836 0.950 . S
C844 C845 1.386 . S
C844 C846 1.391 . S
C845 C844 1.386 . S
C845 C849 1.393 . S
C846 H838 0.950 . S
C846 C844 1.391 . S
C846 C847 1.400 . S
C847 C846 1.400 . S
C847 C848 1.398 . S
C847 C853 1.491 . S
C848 H839 0.950 . S
C848 C847 1.398 . S
C848 C849 1.391 . S
C849 H837 0.950 . S
C849 C845 1.393 . S
C849 C848 1.391 . S
C850 H840 0.950 . S
C850 C851 1.386 . S
C850 C852 1.391 . S
C851 C850 1.386 . S
C851 C855 1.393 . S
C852 H841 0.950 . S
C852 C850 1.391 . S
C852 C853 1.400 . S
C853 C847 1.491 . S
C853 C852 1.400 . S
C853 C854 1.398 . S
C854 H842 0.950 . S
C854 C853 1.398 . S
C854 C855 1.391 . S
C855 H843 0.950 . S
C855 C851 1.393 . S
C855 C854 1.391 . S
H856 C864 0.950 . S
H857 C869 0.950 . S
H858 C866 0.950 . S
H859 C868 0.950 . S
H860 C870 0.950 . S
H861 C872 0.950 . S
H862 C874 0.950 . S
H863 C875 0.950 . S
C864 H856 0.950 . S
C864 C865 1.386 . S
C864 C866 1.391 . S
C865 C864 1.386 . S
C865 C869 1.393 . S
C866 H858 0.950 . S
C866 C864 1.391 . S
C866 C867 1.400 . S
C867 C866 1.400 . S
C867 C868 1.398 . S
C867 C873 1.491 . S
C868 H859 0.950 . S
C868 C867 1.398 . S
C868 C869 1.391 . S
C869 H857 0.950 . S
C869 C865 1.393 . S
C869 C868 1.391 . S
C870 H860 0.950 . S
C870 C871 1.386 . S
C870 C872 1.391 . S
C871 C870 1.386 . S
C871 C875 1.393 . S
C872 H861 0.950 . S
C872 C870 1.391 . S
C872 C873 1.400 . S
C873 C867 1.491 . S
C873 C872 1.400 . S
C873 C874 1.398 . S
C874 H862 0.950 . S
C874 C873 1.398 . S
C874 C875 1.391 . S
C875 H863 0.950 . S
C875 C871 1.393 . S
C875 C874 1.391 . S
H876 C884 0.950 . S
H877 C889 0.950 . S
H878 C886 0.950 . S
H879 C888 0.950 . S
H880 C890 0.950 . S
H881 C892 0.950 . S
H882 C894 0.950 . S
H883 C895 0.950 . S
C884 H876 0.950 . S
C884 C885 1.386 . S
C884 C886 1.391 . S
C885 C884 1.386 . S
C885 C889 1.393 . S
C886 H878 0.950 . S
C886 C884 1.391 . S
C886 C887 1.400 . S
C887 C886 1.400 . S
C887 C888 1.398 . S
C887 C893 1.491 . S
C888 H879 0.950 . S
C888 C887 1.398 . S
C888 C889 1.391 . S
C889 H877 0.950 . S
C889 C885 1.393 . S
C889 C888 1.391 . S
C890 H880 0.950 . S
C890 C891 1.386 . S
C890 C892 1.391 . S
C891 C890 1.386 . S
C891 C895 1.393 . S
C892 H881 0.950 . S
C892 C890 1.391 . S
C892 C893 1.400 . S
C893 C887 1.491 . S
C893 C892 1.400 . S
C893 C894 1.398 . S
C894 H882 0.950 . S
C894 C893 1.398 . S
C894 C895 1.391 . S
C895 H883 0.950 . S
C895 C891 1.393 . S
C895 C894 1.391 . S
H896 C904 0.950 . S
H897 C909 0.950 . S
H898 C906 0.950 . S
H899 C908 0.950 . S
H900 C910 0.950 . S
H901 C912 0.950 . S
H902 C914 0.950 . S
H903 C915 0.950 . S
C904 H896 0.950 . S
C904 C905 1.386 . S
C904 C906 1.391 . S
C905 C904 1.386 . S
C905 C909 1.393 . S
C906 H898 0.950 . S
C906 C904 1.391 . S
C906 C907 1.400 . S
C907 C906 1.400 . S
C907 C908 1.398 . S
C907 C913 1.491 1_655 S
C908 H899 0.950 . S
C908 C907 1.398 . S
C908 C909 1.391 . S
C909 H897 0.950 . S
C909 C905 1.393 . S
C909 C908 1.391 . S
C910 H900 0.950 . S
C910 C911 1.386 . S
C910 C912 1.391 . S
C911 C910 1.386 . S
C911 C915 1.393 . S
C912 H901 0.950 . S
C912 C910 1.391 . S
C912 C913 1.400 . S
C913 C907 1.491 1_455 S
C913 C912 1.400 . S
C913 C914 1.398 . S
C914 H902 0.950 . S
C914 C913 1.398 . S
C914 C915 1.391 . S
C915 H903 0.950 . S
C915 C911 1.393 . S
C915 C914 1.391 . S
H916 C924 0.950 . S
H917 C929 0.950 . S
H918 C926 0.950 . S
H919 C928 0.950 . S
H920 C930 0.950 . S
H921 C932 0.950 . S
H922 C934 0.950 . S
H923 C935 0.950 . S
C924 H916 0.950 . S
C924 C925 1.386 . S
C924 C926 1.391 . S
C925 C924 1.386 . S
C925 C929 1.393 . S
C926 H918 0.950 . S
C926 C924 1.391 . S
C926 C927 1.400 . S
C927 C926 1.400 . S
C927 C928 1.398 . S
C927 C933 1.491 1_545 S
C928 H919 0.950 . S
C928 C927 1.398 . S
C928 C929 1.391 . S
C929 H917 0.950 . S
C929 C925 1.393 . S
C929 C928 1.391 . S
C930 H920 0.950 . S
C930 C931 1.386 . S
C930 C932 1.391 . S
C931 C930 1.386 . S
C931 C935 1.393 . S
C932 H921 0.950 . S
C932 C930 1.391 . S
C932 C933 1.400 . S
C933 C927 1.491 1_565 S
C933 C932 1.400 . S
C933 C934 1.398 . S
C934 H922 0.950 . S
C934 C933 1.398 . S
C934 C935 1.391 . S
C935 H923 0.950 . S
C935 C931 1.393 . S
C935 C934 1.391 . S
H936 C944 0.950 . S
H937 C949 0.950 . S
H938 C946 0.950 . S
H939 C948 0.950 . S
H940 C950 0.950 . S
H941 C952 0.950 . S
H942 C954 0.950 . S
H943 C955 0.950 . S
C944 H936 0.950 . S
C944 C945 1.386 . S
C944 C946 1.391 . S
C945 C944 1.386 . S
C945 C949 1.393 . S
C946 H938 0.950 . S
C946 C944 1.391 . S
C946 C947 1.400 . S
C947 C946 1.400 . S
C947 C948 1.398 . S
C947 C953 1.491 . S
C948 H939 0.950 . S
C948 C947 1.398 . S
C948 C949 1.391 . S
C949 H937 0.950 . S
C949 C945 1.393 . S
C949 C948 1.391 . S
C950 H940 0.950 . S
C950 C951 1.386 . S
C950 C952 1.391 . S
C951 C950 1.386 . S
C951 C955 1.393 . S
C952 H941 0.950 . S
C952 C950 1.391 . S
C952 C953 1.400 . S
C953 C947 1.491 . S
C953 C952 1.400 . S
C953 C954 1.398 . S
C954 H942 0.950 . S
C954 C953 1.398 . S
C954 C955 1.391 . S
C955 H943 0.950 . S
C955 C951 1.393 . S
C955 C954 1.391 . S
H956 C964 0.950 . S
H957 C969 0.950 . S
H958 C966 0.950 . S
H959 C968 0.950 . S
H960 C970 0.950 . S
H961 C972 0.950 . S
H962 C974 0.950 . S
H963 C975 0.950 . S
C964 H956 0.950 . S
C964 C965 1.386 . S
C964 C966 1.391 . S
C965 C964 1.386 . S
C965 C969 1.393 . S
C966 H958 0.950 . S
C966 C964 1.391 . S
C966 C967 1.400 . S
C967 C966 1.400 . S
C967 C968 1.398 . S
C967 C973 1.491 1_455 S
C968 H959 0.950 . S
C968 C967 1.398 . S
C968 C969 1.391 . S
C969 H957 0.950 . S
C969 C965 1.393 . S
C969 C968 1.391 . S
C970 H960 0.950 . S
C970 C971 1.386 . S
C970 C972 1.391 . S
C971 C970 1.386 . S
C971 C975 1.393 . S
C972 H961 0.950 . S
C972 C970 1.391 . S
C972 C973 1.400 . S
C973 C967 1.491 1_655 S
C973 C972 1.400 . S
C973 C974 1.398 . S
C974 H962 0.950 . S
C974 C973 1.398 . S
C974 C975 1.391 . S
C975 H963 0.950 . S
C975 C971 1.393 . S
C975 C974 1.391 . S
H976 C984 0.950 . S
H977 C989 0.950 . S
H978 C986 0.950 . S
H979 C988 0.950 . S
H980 C990 0.950 . S
H981 C992 0.950 . S
H982 C994 0.950 . S
H983 C995 0.950 . S
C984 H976 0.950 . S
C984 C985 1.386 . S
C984 C986 1.391 . S
C985 C984 1.386 . S
C985 C989 1.393 . S
C986 H978 0.950 . S
C986 C984 1.391 . S
C986 C987 1.400 . S
C987 C986 1.400 . S
C987 C988 1.398 . S
C987 C993 1.491 1_565 S
C988 H979 0.950 . S
C988 C987 1.398 . S
C988 C989 1.391 . S
C989 H977 0.950 . S
C989 C985 1.393 . S
C989 C988 1.391 . S
C990 H980 0.950 . S
C990 C991 1.386 . S
C990 C992 1.391 . S
C991 C990 1.386 . S
C991 C995 1.393 . S
C992 H981 0.950 . S
C992 C990 1.391 . S
C992 C993 1.400 . S
C993 C987 1.491 1_545 S
C993 C992 1.400 . S
C993 C994 1.398 . S
C994 H982 0.950 . S
C994 C993 1.398 . S
C994 C995 1.391 . S
C995 H983 0.950 . S
C995 C991 1.393 . S
C995 C994 1.391 . S
H996 C1004 0.950 . S
H997 C1009 0.950 . S
H998 C1006 0.950 . S
H999 C1008 0.950 . S
H1000 C1010 0.950 . S
H1001 C1012 0.950 . S
H1002 C1014 0.950 . S
H1003 C1015 0.950 . S
C1004 H996 0.950 . S
C1004 C1005 1.386 . S
C1004 C1006 1.391 . S
C1005 C1004 1.386 . S
C1005 C1009 1.393 . S
C1006 H998 0.950 . S
C1006 C1004 1.391 . S
C1006 C1007 1.400 . S
C1007 C1006 1.400 . S
C1007 C1008 1.398 . S
C1007 C1013 1.491 . S
C1008 H999 0.950 . S
C1008 C1007 1.398 . S
C1008 C1009 1.391 . S
C1009 H997 0.950 . S
C1009 C1005 1.393 . S
C1009 C1008 1.391 . S
C1010 H1000 0.950 . S
C1010 C1011 1.386 . S
C1010 C1012 1.391 . S
C1011 C1010 1.386 . S
C1011 C1015 1.393 . S
C1012 H1001 0.950 . S
C1012 C1010 1.391 . S
C1012 C1013 1.400 . S
C1013 C1007 1.491 . S
C1013 C1012 1.400 . S
C1013 C1014 1.398 . S
C1014 H1002 0.950 . S
C1014 C1013 1.398 . S
C1014 C1015 1.391 . S
C1015 H1003 0.950 . S
C1015 C1011 1.393 . S
C1015 C1014 1.391 . S
H1016 C1024 0.950 . S
H1017 C1029 0.950 . S
H1018 C1026 0.950 . S
H1019 C1028 0.950 . S
H1020 C1030 0.950 . S
H1021 C1032 0.950 . S
H1022 C1034 0.950 . S
H1023 C1035 0.950 . S
C1024 H1016 0.950 . S
C1024 C1025 1.386 . S
C1024 C1026 1.391 . S
C1025 C1024 1.386 . S
C1025 C1029 1.393 . S
C1026 H1018 0.950 . S
C1026 C1024 1.391 . S
C1026 C1027 1.400 . S
C1027 C1026 1.400 . S
C1027 C1028 1.398 . S
C1027 C1033 1.491 . S
C1028 H1019 0.950 . S
C1028 C1027 1.398 . S
C1028 C1029 1.391 . S
C1029 H1017 0.950 . S
C1029 C1025 1.393 . S
C1029 C1028 1.391 . S
C1030 H1020 0.950 . S
C1030 C1031 1.386 . S
C1030 C1032 1.391 . S
C1031 C1030 1.386 . S
C1031 C1035 1.393 . S
C1032 H1021 0.950 . S
C1032 C1030 1.391 . S
C1032 C1033 1.400 . S
C1033 C1027 1.491 . S
C1033 C1032 1.400 . S
C1033 C1034 1.398 . S
C1034 H1022 0.950 . S
C1034 C1033 1.398 . S
C1034 C1035 1.391 . S
C1035 H1023 0.950 . S
C1035 C1031 1.393 . S
C1035 C1034 1.391 . S
H1036 C1044 0.950 . S
H1037 C1049 0.950 . S
H1038 C1046 0.950 . S
H1039 C1048 0.950 . S
H1040 C1050 0.950 . S
H1041 C1052 0.950 . S
H1042 C1054 0.950 . S
H1043 C1055 0.950 . S
C1044 H1036 0.950 . S
C1044 C1045 1.386 . S
C1044 C1046 1.391 . S
C1045 C1044 1.386 . S
C1045 C1049 1.393 . S
C1046 H1038 0.950 . S
C1046 C1044 1.391 . S
C1046 C1047 1.400 . S
C1047 C1046 1.400 . S
C1047 C1048 1.398 . S
C1047 C1053 1.491 . S
C1048 H1039 0.950 . S
C1048 C1047 1.398 . S
C1048 C1049 1.391 . S
C1049 H1037 0.950 . S
C1049 C1045 1.393 . S
C1049 C1048 1.391 . S
C1050 H1040 0.950 . S
C1050 C1051 1.386 . S
C1050 C1052 1.391 . S
C1051 C1050 1.386 . S
C1051 C1055 1.393 . S
C1052 H1041 0.950 . S
C1052 C1050 1.391 . S
C1052 C1053 1.400 . S
C1053 C1047 1.491 . S
C1053 C1052 1.400 . S
C1053 C1054 1.398 . S
C1054 H1042 0.950 . S
C1054 C1053 1.398 . S
C1054 C1055 1.391 . S
C1055 H1043 0.950 . S
C1055 C1051 1.393 . S
C1055 C1054 1.391 . S
H1056 C1064 0.950 . S
H1057 C1069 0.950 . S
H1058 C1066 0.950 . S
H1059 C1068 0.950 . S
H1060 C1070 0.950 . S
H1061 C1072 0.950 . S
H1062 C1074 0.950 . S
H1063 C1075 0.950 . S
C1064 H1056 0.950 . S
C1064 C1065 1.386 . S
C1064 C1066 1.391 . S
C1065 C1064 1.386 . S
C1065 C1069 1.393 . S
C1066 H1058 0.950 . S
C1066 C1064 1.391 . S
C1066 C1067 1.400 . S
C1067 C1066 1.400 . S
C1067 C1068 1.398 . S
C1067 C1073 1.491 . S
C1068 H1059 0.950 . S
C1068 C1067 1.398 . S
C1068 C1069 1.391 . S
C1069 H1057 0.950 . S
C1069 C1065 1.393 . S
C1069 C1068 1.391 . S
C1070 H1060 0.950 . S
C1070 C1071 1.386 . S
C1070 C1072 1.391 . S
C1071 C1070 1.386 . S
C1071 C1075 1.393 . S
C1072 H1061 0.950 . S
C1072 C1070 1.391 . S
C1072 C1073 1.400 . S
C1073 C1067 1.491 . S
C1073 C1072 1.400 . S
C1073 C1074 1.398 . S
C1074 H1062 0.950 . S
C1074 C1073 1.398 . S
C1074 C1075 1.391 . S
C1075 H1063 0.950 . S
C1075 C1071 1.393 . S
C1075 C1074 1.391 . S
H1076 C1084 0.950 . S
H1077 C1089 0.950 . S
H1078 C1086 0.950 . S
H1079 C1088 0.950 . S
H1080 C1090 0.950 . S
H1081 C1092 0.950 . S
H1082 C1094 0.950 . S
H1083 C1095 0.950 . S
C1084 H1076 0.950 . S
C1084 C1085 1.386 . S
C1084 C1086 1.391 . S
C1085 C1084 1.386 . S
C1085 C1089 1.393 . S
C1086 H1078 0.950 . S
C1086 C1084 1.391 . S
C1086 C1087 1.400 . S
C1087 C1086 1.400 . S
C1087 C1088 1.398 . S
C1087 C1093 1.491 . S
C1088 H1079 0.950 . S
C1088 C1087 1.398 . S
C1088 C1089 1.391 . S
C1089 H1077 0.950 . S
C1089 C1085 1.393 . S
C1089 C1088 1.391 . S
C1090 H1080 0.950 . S
C1090 C1091 1.386 . S
C1090 C1092 1.391 . S
C1091 C1090 1.386 . S
C1091 C1095 1.393 . S
C1092 H1081 0.950 . S
C1092 C1090 1.391 . S
C1092 C1093 1.400 . S
C1093 C1087 1.491 . S
C1093 C1092 1.400 . S
C1093 C1094 1.398 . S
C1094 H1082 0.950 . S
C1094 C1093 1.398 . S
C1094 C1095 1.391 . S
C1095 H1083 0.950 . S
C1095 C1091 1.393 . S
C1095 C1094 1.391 . S
H1096 C1104 0.950 . S
H1097 C1109 0.950 . S
H1098 C1106 0.950 . S
H1099 C1108 0.950 . S
H1100 C1110 0.950 . S
H1101 C1112 0.950 . S
H1102 C1114 0.950 . S
H1103 C1115 0.950 . S
C1104 H1096 0.950 . S
C1104 C1105 1.386 . S
C1104 C1106 1.391 . S
C1105 C1104 1.386 . S
C1105 C1109 1.393 . S
C1106 H1098 0.950 . S
C1106 C1104 1.391 . S
C1106 C1107 1.400 . S
C1107 C1106 1.400 . S
C1107 C1108 1.398 . S
C1107 C1113 1.491 . S
C1108 H1099 0.950 . S
C1108 C1107 1.398 . S
C1108 C1109 1.391 . S
C1109 H1097 0.950 . S
C1109 C1105 1.393 . S
C1109 C1108 1.391 . S
C1110 H1100 0.950 . S
C1110 C1111 1.386 . S
C1110 C1112 1.391 . S
C1111 C1110 1.386 . S
C1111 C1115 1.393 . S
C1112 H1101 0.950 . S
C1112 C1110 1.391 . S
C1112 C1113 1.400 . S
C1113 C1107 1.491 . S
C1113 C1112 1.400 . S
C1113 C1114 1.398 . S
C1114 H1102 0.950 . S
C1114 C1113 1.398 . S
C1114 C1115 1.391 . S
C1115 H1103 0.950 . S
C1115 C1111 1.393 . S
C1115 C1114 1.391 . S
C645 C22 1.639 . S
C651 C340 1.635 . S
C665 C75 1.636 . S
C671 C393 1.639 . S
C685 C128 1.633 . S
C691 C446 1.634 . S
C705 C181 1.632 . S
C711 C499 1.635 . S
C725 C234 1.639 . S
C731 C552 1.636 . S
C745 C605 1.638 . S
C751 C287 1.634 . S
C765 C38 1.865 . S
C771 C568 1.859 . S
C785 C91 1.864 . S
C791 C621 1.861 . S
C805 C144 1.870 . S
C811 C356 1.865 . S
C825 C197 1.866 . S
C831 C409 1.869 . S
C845 C250 1.871 . S
C851 C462 1.865 . S
C865 C303 1.867 . S
C871 C515 1.869 . S
C885 C39 1.934 . S
C891 C198 1.924 . S
C905 C92 1.932 . S
C911 C251 1.940 . S
C925 C304 1.923 . S
C931 C145 1.931 . S
C945 C357 1.936 . S
C951 C516 1.941 . S
C965 C569 1.930 . S
C971 C410 1.923 . S
C985 C463 1.930 . S
C991 C622 1.940 . S
C1005 C347 1.304 . S
C1011 C29 1.307 . S
C1025 C82 1.315 . S
C1031 C400 1.317 . S
C1045 C135 1.310 . S
C1051 C453 1.315 . S
C1065 C506 1.309 . S
C1071 C188 1.305 . S
C1085 C559 1.306 . S
C1091 C241 1.310 . S
C1105 C294 1.314 . S
C1111 C612 1.310 . S
