# Generated by pormake.
# Topology ecv, (8)-cn, num edge types: 1
# Building blocks:
#     Node 0, Type 0, BuildingBlock: EBIMEJ_clean_sbu_0, # of connection points: 8
#     Node 1, Type 0, BuildingBlock: EBIMEJ_clean_sbu_0, # of connection points: 8
#     Node 2, Type 0, BuildingBlock: EBIMEJ_clean_sbu_0, # of connection points: 8
#     Node 3, Type 0, BuildingBlock: EBIMEJ_clean_sbu_0, # of connection points: 8
#     Node 4, Type 0, BuildingBlock: EBIMEJ_clean_sbu_0, # of connection points: 8
#     Node 5, Type 0, BuildingBlock: EBIMEJ_clean_sbu_0, # of connection points: 8
#     Node 6, Type 0, BuildingBlock: EBIMEJ_clean_sbu_0, # of connection points: 8
#     Node 7, Type 0, BuildingBlock: EBIMEJ_clean_sbu_0, # of connection points: 8
#     Node 8, Type 0, BuildingBlock: EBIMEJ_clean_sbu_0, # of connection points: 8
#     Node 9, Type 0, BuildingBlock: EBIMEJ_clean_sbu_0, # of connection points: 8
#     Node 10, Type 0, BuildingBlock: EBIMEJ_clean_sbu_0, # of connection points: 8
#     Node 11, Type 0, BuildingBlock: EBIMEJ_clean_sbu_0, # of connection points: 8
#     Node 12, Type 0, BuildingBlock: EBIMEJ_clean_sbu_0, # of connection points: 8
#     Node 13, Type 0, BuildingBlock: EBIMEJ_clean_sbu_0, # of connection points: 8
#     Node 14, Type 0, BuildingBlock: EBIMEJ_clean_sbu_0, # of connection points: 8
#     Node 15, Type 0, BuildingBlock: EBIMEJ_clean_sbu_0, # of connection points: 8
#     Edge 16, Type (0, 0), BuildingBlock: ZUJKAS_clean_linker_0, # of connection points: 2
#     Edge 17, Type (0, 0), BuildingBlock: ZUJKAS_clean_linker_0, # of connection points: 2
#     Edge 18, Type (0, 0), BuildingBlock: ZUJKAS_clean_linker_0, # of connection points: 2
#     Edge 19, Type (0, 0), BuildingBlock: ZUJKAS_clean_linker_0, # of connection points: 2
#     Edge 20, Type (0, 0), BuildingBlock: ZUJKAS_clean_linker_0, # of connection points: 2
#     Edge 21, Type (0, 0), BuildingBlock: ZUJKAS_clean_linker_0, # of connection points: 2
#     Edge 22, Type (0, 0), BuildingBlock: ZUJKAS_clean_linker_0, # of connection points: 2
#     Edge 23, Type (0, 0), BuildingBlock: ZUJKAS_clean_linker_0, # of connection points: 2
#     Edge 24, Type (0, 0), BuildingBlock: ZUJKAS_clean_linker_0, # of connection points: 2
#     Edge 25, Type (0, 0), BuildingBlock: ZUJKAS_clean_linker_0, # of connection points: 2
#     Edge 26, Type (0, 0), BuildingBlock: ZUJKAS_clean_linker_0, # of connection points: 2
#     Edge 27, Type (0, 0), BuildingBlock: ZUJKAS_clean_linker_0, # of connection points: 2
#     Edge 28, Type (0, 0), BuildingBlock: ZUJKAS_clean_linker_0, # of connection points: 2
#     Edge 29, Type (0, 0), BuildingBlock: ZUJKAS_clean_linker_0, # of connection points: 2
#     Edge 30, Type (0, 0), BuildingBlock: ZUJKAS_clean_linker_0, # of connection points: 2
#     Edge 31, Type (0, 0), BuildingBlock: ZUJKAS_clean_linker_0, # of connection points: 2
#     Edge 32, Type (0, 0), BuildingBlock: ZUJKAS_clean_linker_0, # of connection points: 2
#     Edge 33, Type (0, 0), BuildingBlock: ZUJKAS_clean_linker_0, # of connection points: 2
#     Edge 34, Type (0, 0), BuildingBlock: ZUJKAS_clean_linker_0, # of connection points: 2
#     Edge 35, Type (0, 0), BuildingBlock: ZUJKAS_clean_linker_0, # of connection points: 2
#     Edge 36, Type (0, 0), BuildingBlock: ZUJKAS_clean_linker_0, # of connection points: 2
#     Edge 37, Type (0, 0), BuildingBlock: ZUJKAS_clean_linker_0, # of connection points: 2
#     Edge 38, Type (0, 0), BuildingBlock: ZUJKAS_clean_linker_0, # of connection points: 2
#     Edge 39, Type (0, 0), BuildingBlock: ZUJKAS_clean_linker_0, # of connection points: 2
#     Edge 40, Type (0, 0), BuildingBlock: ZUJKAS_clean_linker_0, # of connection points: 2
#     Edge 41, Type (0, 0), BuildingBlock: ZUJKAS_clean_linker_0, # of connection points: 2
#     Edge 42, Type (0, 0), BuildingBlock: ZUJKAS_clean_linker_0, # of connection points: 2
#     Edge 43, Type (0, 0), BuildingBlock: ZUJKAS_clean_linker_0, # of connection points: 2
#     Edge 44, Type (0, 0), BuildingBlock: ZUJKAS_clean_linker_0, # of connection points: 2
#     Edge 45, Type (0, 0), BuildingBlock: ZUJKAS_clean_linker_0, # of connection points: 2
#     Edge 46, Type (0, 0), BuildingBlock: ZUJKAS_clean_linker_0, # of connection points: 2
#     Edge 47, Type (0, 0), BuildingBlock: ZUJKAS_clean_linker_0, # of connection points: 2
#     Edge 48, Type (0, 0), BuildingBlock: ZUJKAS_clean_linker_0, # of connection points: 2
#     Edge 49, Type (0, 0), BuildingBlock: ZUJKAS_clean_linker_0, # of connection points: 2
#     Edge 50, Type (0, 0), BuildingBlock: ZUJKAS_clean_linker_0, # of connection points: 2
#     Edge 51, Type (0, 0), BuildingBlock: ZUJKAS_clean_linker_0, # of connection points: 2
#     Edge 52, Type (0, 0), BuildingBlock: ZUJKAS_clean_linker_0, # of connection points: 2
#     Edge 53, Type (0, 0), BuildingBlock: ZUJKAS_clean_linker_0, # of connection points: 2
#     Edge 54, Type (0, 0), BuildingBlock: ZUJKAS_clean_linker_0, # of connection points: 2
#     Edge 55, Type (0, 0), BuildingBlock: ZUJKAS_clean_linker_0, # of connection points: 2
#     Edge 56, Type (0, 0), BuildingBlock: ZUJKAS_clean_linker_0, # of connection points: 2
#     Edge 57, Type (0, 0), BuildingBlock: ZUJKAS_clean_linker_0, # of connection points: 2
#     Edge 58, Type (0, 0), BuildingBlock: ZUJKAS_clean_linker_0, # of connection points: 2
#     Edge 59, Type (0, 0), BuildingBlock: ZUJKAS_clean_linker_0, # of connection points: 2
#     Edge 60, Type (0, 0), BuildingBlock: ZUJKAS_clean_linker_0, # of connection points: 2
#     Edge 61, Type (0, 0), BuildingBlock: ZUJKAS_clean_linker_0, # of connection points: 2
#     Edge 62, Type (0, 0), BuildingBlock: ZUJKAS_clean_linker_0, # of connection points: 2
#     Edge 63, Type (0, 0), BuildingBlock: ZUJKAS_clean_linker_0, # of connection points: 2
#     Edge 64, Type (0, 0), BuildingBlock: ZUJKAS_clean_linker_0, # of connection points: 2
#     Edge 65, Type (0, 0), BuildingBlock: ZUJKAS_clean_linker_0, # of connection points: 2
#     Edge 66, Type (0, 0), BuildingBlock: ZUJKAS_clean_linker_0, # of connection points: 2
#     Edge 67, Type (0, 0), BuildingBlock: ZUJKAS_clean_linker_0, # of connection points: 2
#     Edge 68, Type (0, 0), BuildingBlock: ZUJKAS_clean_linker_0, # of connection points: 2
#     Edge 69, Type (0, 0), BuildingBlock: ZUJKAS_clean_linker_0, # of connection points: 2
#     Edge 70, Type (0, 0), BuildingBlock: ZUJKAS_clean_linker_0, # of connection points: 2
#     Edge 71, Type (0, 0), BuildingBlock: ZUJKAS_clean_linker_0, # of connection points: 2
#     Edge 72, Type (0, 0), BuildingBlock: ZUJKAS_clean_linker_0, # of connection points: 2
#     Edge 73, Type (0, 0), BuildingBlock: ZUJKAS_clean_linker_0, # of connection points: 2
#     Edge 74, Type (0, 0), BuildingBlock: ZUJKAS_clean_linker_0, # of connection points: 2
#     Edge 75, Type (0, 0), BuildingBlock: ZUJKAS_clean_linker_0, # of connection points: 2
#     Edge 76, Type (0, 0), BuildingBlock: ZUJKAS_clean_linker_0, # of connection points: 2
#     Edge 77, Type (0, 0), BuildingBlock: ZUJKAS_clean_linker_0, # of connection points: 2
#     Edge 78, Type (0, 0), BuildingBlock: ZUJKAS_clean_linker_0, # of connection points: 2
#     Edge 79, Type (0, 0), BuildingBlock: ZUJKAS_clean_linker_0, # of connection points: 2
# Relax obj value: 0.076
# Max RMSD: 0.181
# Mean RMSD: 0.181
data_MOF--net-ecv--node1-EBIMEJ_clean_sbu_0--edge1-ZUJKAS_clean_linker_0
_symmetry_space_group_name_H-M    P1
_symmetry_Int_Tables_number       1
_symmetry_cell_setting            triclinic
loop_
_symmetry_equiv_pos_as_xyz
'x, y, z'
_cell_length_a     20.044452
_cell_length_b     36.595738
_cell_length_c     169.53767
_cell_angle_alpha  100.20791
_cell_angle_beta   90.008179
_cell_angle_gamma 89.98374
loop_
_atom_site_label
_atom_site_type_symbol
_atom_site_fract_x
_atom_site_fract_y
_atom_site_fract_z
_atom_type_partial_charge
Co0 Co 0.17134 0.16869 0.43719 0.0
Co1 Co 0.08719 0.10973 0.44612 0.0
Co2 Co 0.16868 0.16953 0.45623 0.0
H3 H 0.16889 0.15872 0.44667 0.0
O4 O 0.17267 0.13508 0.44516 0.0
H5 H 0.09392 0.11752 0.45568 0.0
O6 O 0.08768 0.14082 0.45746 0.0
Co7 Co 0.10225 0.1046 0.4648 0.0
O8 O 0.02069 0.07506 0.46039 0.0
O9 O 0.00314 0.08403 0.44778 0.0
O10 O 0.14338 0.14413 0.47338 0.0
O11 O 0.16783 0.19375 0.46779 0.0
O12 O 0.16992 0.17725 0.42545 0.0
O13 O 0.25766 0.16125 0.43031 0.0
O14 O 0.18297 0.0776 0.45967 0.0
O15 O 0.13986 0.06342 0.44742 0.0
C16 C 0.27064 0.2118 0.44878 0.0
C17 C 0.07717 0.10998 0.42874 0.0
C18 C 0.07558 0.07986 0.47741 0.0
C19 C 0.0833 0.22151 0.44766 0.0
C20 C 0.98665 0.07029 0.45391 0.0
C21 C 0.16222 0.17784 0.47391 0.0
C22 C 0.2305 0.16968 0.42419 0.0
C23 C 0.18169 0.05736 0.45277 0.0
O24 O 0.24376 0.20411 0.44188 0.0
O25 O 0.25011 0.19848 0.4548 0.0
O26 O 0.07951 0.09001 0.43425 0.0
O27 O 0.1011 0.14272 0.42967 0.0
O28 O 0.10598 0.06196 0.47147 0.0
O29 O 0.06053 0.11172 0.47618 0.0
O30 O 0.098 0.20521 0.44062 0.0
O31 O 0.10902 0.21171 0.45391 0.0
Co32 Co 0.17018 0.10411 0.84089 0.0
Co33 Co 0.08513 0.16529 0.83277 0.0
Co34 Co 0.16319 0.10596 0.822 0.0
H35 H 0.16567 0.11534 0.83154 0.0
O36 O 0.1701 0.1388 0.83324 0.0
H37 H 0.09013 0.15885 0.82309 0.0
O38 O 0.08275 0.13566 0.82129 0.0
Co39 Co 0.09392 0.17159 0.81382 0.0
O40 O 0.00222 0.16778 0.81885 0.0
O41 O 0.00267 0.19342 0.83146 0.0
O42 O 0.14434 0.13628 0.80526 0.0
O43 O 0.15941 0.084 0.81029 0.0
O44 O 0.21208 0.07419 0.84889 0.0
O45 O 0.21684 0.1316 0.8512 0.0
O46 O 0.17025 0.2035 0.81873 0.0
O47 O 0.14036 0.21091 0.83166 0.0
C48 C 0.26922 0.06359 0.82891 0.0
C49 C 0.06861 0.15753 0.84927 0.0
C50 C 0.06766 0.19924 0.80157 0.0
C51 C 0.08099 0.05205 0.83044 0.0
C52 C 0.97846 0.19196 0.82449 0.0
C53 C 0.15914 0.1018 0.80441 0.0
C54 C 0.23152 0.10226 0.8537 0.0
C55 C 0.17578 0.21987 0.82598 0.0
O56 O 0.24618 0.07198 0.836 0.0
O57 O 0.24419 0.07566 0.82294 0.0
O58 O 0.07933 0.18174 0.84477 0.0
O59 O 0.08899 0.12415 0.84729 0.0
O60 O 0.10916 0.2126 0.80686 0.0
O61 O 0.04136 0.17052 0.80326 0.0
O62 O 0.09891 0.06662 0.83748 0.0
O63 O 0.10309 0.06368 0.8242 0.0
Co64 Co 0.90075 0.92029 0.56391 0.0
Co65 Co 0.82936 0.85389 0.57179 0.0
Co66 Co 0.90647 0.91296 0.58263 0.0
H67 H 0.90382 0.90658 0.57302 0.0
O68 O 0.91061 0.88337 0.57116 0.0
H69 H 0.82597 0.86347 0.58132 0.0
O70 O 0.82109 0.88695 0.58296 0.0
Co71 Co 0.82151 0.8522 0.59065 0.0
O72 O 0.74282 0.82208 0.58579 0.0
O73 O 0.74762 0.82431 0.57267 0.0
O74 O 0.90392 0.87117 0.59691 0.0
O75 O 0.9108 0.92918 0.59466 0.0
O76 O 0.8984 0.96281 0.55721 0.0
O77 O 0.94447 0.91307 0.55263 0.0
O78 O 0.89329 0.81465 0.58737 0.0
O79 O 0.8886 0.81151 0.57411 0.0
C80 C 0.0107 0.95387 0.57577 0.0
C81 C 0.84182 0.84769 0.55423 0.0
C82 C 0.76374 0.85192 0.60374 0.0
C83 C 0.81738 0.9678 0.57577 0.0
C84 C 0.72047 0.81348 0.57866 0.0
C85 C 0.9227 0.90472 0.59907 0.0
C86 C 0.92971 0.94488 0.55135 0.0
C87 C 0.91116 0.80005 0.58033 0.0
O88 O 0.98078 0.94947 0.56901 0.0
O89 O 0.99054 0.93966 0.58169 0.0
O90 O 0.83426 0.83099 0.5602 0.0
O91 O 0.86122 0.88141 0.55502 0.0
O92 O 0.82393 0.84375 0.60238 0.0
O93 O 0.73611 0.86046 0.59766 0.0
O94 O 0.82146 0.94953 0.56868 0.0
O95 O 0.85324 0.95946 0.58148 0.0
Co96 Co 0.90448 0.85579 0.2146 0.0
Co97 Co 0.83253 0.92034 0.2062 0.0
Co98 Co 0.91103 0.86003 0.19578 0.0
H99 H 0.9079 0.8682 0.20537 0.0
O100 O 0.91423 0.89157 0.20709 0.0
H101 H 0.83072 0.90973 0.19664 0.0
O102 O 0.82596 0.88615 0.19512 0.0
Co103 Co 0.82771 0.91993 0.18719 0.0
O104 O 0.75562 0.95519 0.19209 0.0
O105 O 0.7507 0.94931 0.20501 0.0
O106 O 0.89722 0.89389 0.17957 0.0
O107 O 0.91521 0.84023 0.1839 0.0
O108 O 0.8713 0.8392 0.22502 0.0
O109 O 0.97176 0.83629 0.2222 0.0
O110 O 0.90197 0.956 0.1905 0.0
O111 O 0.89123 0.96265 0.20379 0.0
C112 C 0.01656 0.82161 0.2032 0.0
C113 C 0.84678 0.92942 0.22391 0.0
C114 C 0.76935 0.9215 0.17417 0.0
C115 C 0.82297 0.80557 0.2031 0.0
C116 C 0.72951 0.9628 0.19904 0.0
C117 C 0.91873 0.86061 0.17847 0.0
C118 C 0.92831 0.83046 0.22717 0.0
C119 C 0.91685 0.97234 0.19753 0.0
O120 O 0.98669 0.82765 0.20996 0.0
O121 O 0.9953 0.83371 0.19705 0.0
O122 O 0.83553 0.94455 0.21777 0.0
O123 O 0.86881 0.89634 0.22334 0.0
O124 O 0.8282 0.93208 0.17574 0.0
O125 O 0.74345 0.90973 0.18 0.0
O126 O 0.82726 0.8242 0.21015 0.0
O127 O 0.85725 0.81417 0.19729 0.0
Co128 Co 0.1775 0.67053 0.9372 0.0
Co129 Co 0.09099 0.61068 0.94568 0.0
Co130 Co 0.1683 0.67104 0.95622 0.0
H131 H 0.17168 0.66042 0.94666 0.0
O132 O 0.17623 0.63683 0.94515 0.0
H133 H 0.09461 0.61823 0.95528 0.0
O134 O 0.0875 0.64148 0.95705 0.0
Co135 Co 0.09988 0.60539 0.96446 0.0
O136 O 0.01829 0.57672 0.95973 0.0
O137 O 0.00694 0.58406 0.94691 0.0
O138 O 0.13685 0.64547 0.97324 0.0
O139 O 0.16388 0.69506 0.96778 0.0
O140 O 0.18312 0.68858 0.92634 0.0
O141 O 0.25469 0.65244 0.92928 0.0
O142 O 0.1803 0.57719 0.95971 0.0
O143 O 0.14456 0.56472 0.94709 0.0
C144 C 0.27427 0.71296 0.94921 0.0
C145 C 0.08294 0.6132 0.92848 0.0
C146 C 0.07588 0.57937 0.97698 0.0
C147 C 0.0916 0.72589 0.94744 0.0
C148 C 0.98726 0.57115 0.95303 0.0
C149 C 0.15598 0.67916 0.97387 0.0
C150 C 0.23535 0.67082 0.9241 0.0
C151 C 0.1826 0.55769 0.95273 0.0
O152 O 0.25145 0.70419 0.94212 0.0
O153 O 0.24951 0.70087 0.95518 0.0
O154 O 0.08686 0.59186 0.93373 0.0
O155 O 0.10441 0.6465 0.92985 0.0
O156 O 0.13085 0.59293 0.97539 0.0
O157 O 0.03457 0.58059 0.97146 0.0
O158 O 0.11287 0.71198 0.94051 0.0
O159 O 0.10836 0.71275 0.95371 0.0
Co160 Co 0.17219 0.60549 0.34088 0.0
Co161 Co 0.09001 0.66669 0.33242 0.0
Co162 Co 0.16601 0.60559 0.32191 0.0
H163 H 0.16858 0.61601 0.33146 0.0
O164 O 0.17407 0.63953 0.33301 0.0
H165 H 0.09337 0.65878 0.32283 0.0
O166 O 0.08578 0.63557 0.32107 0.0
Co167 Co 0.09867 0.67148 0.31365 0.0
O168 O 0.0184 0.70135 0.31835 0.0
O169 O 0.00702 0.69422 0.33117 0.0
O170 O 0.13711 0.63176 0.30492 0.0
O171 O 0.16183 0.58174 0.31033 0.0
O172 O 0.2074 0.57511 0.34919 0.0
O173 O 0.22642 0.63155 0.35073 0.0
O174 O 0.17801 0.70099 0.31822 0.0
O175 O 0.14555 0.71202 0.33098 0.0
C176 C 0.267 0.56114 0.32888 0.0
C177 C 0.08275 0.66572 0.34973 0.0
C178 C 0.07408 0.6967 0.30108 0.0
C179 C 0.08136 0.5537 0.33062 0.0
C180 C 0.98779 0.70738 0.32506 0.0
C181 C 0.15533 0.59793 0.30427 0.0
C182 C 0.2343 0.60237 0.35358 0.0
C183 C 0.18179 0.71982 0.32525 0.0
O184 O 0.24134 0.56872 0.33585 0.0
O185 O 0.24664 0.57548 0.32299 0.0
O186 O 0.08617 0.68612 0.34431 0.0
O187 O 0.10446 0.63246 0.34864 0.0
O188 O 0.13134 0.68856 0.30326 0.0
O189 O 0.03077 0.69033 0.30602 0.0
O190 O 0.0979 0.56939 0.33764 0.0
O191 O 0.10561 0.56393 0.32434 0.0
Co192 Co 0.90519 0.42086 0.06367 0.0
Co193 Co 0.83356 0.35563 0.07185 0.0
Co194 Co 0.91169 0.41528 0.08247 0.0
H195 H 0.90869 0.40793 0.07286 0.0
O196 O 0.91522 0.38462 0.07109 0.0
H197 H 0.83033 0.36602 0.08138 0.0
O198 O 0.82599 0.38959 0.08294 0.0
Co199 Co 0.82509 0.35537 0.09076 0.0
O200 O 0.7478 0.3241 0.08593 0.0
O201 O 0.75133 0.32652 0.07283 0.0
O202 O 0.90235 0.37708 0.09769 0.0
O203 O 0.91585 0.43324 0.09445 0.0
O204 O 0.8745 0.43301 0.05271 0.0
O205 O 0.97047 0.44583 0.05671 0.0
O206 O 0.89818 0.3184 0.08764 0.0
O207 O 0.89208 0.31332 0.07434 0.0
C208 C 0.01756 0.45395 0.07523 0.0
C209 C 0.84844 0.34723 0.05423 0.0
C210 C 0.76243 0.35285 0.10346 0.0
C211 C 0.82318 0.46992 0.07537 0.0
C212 C 0.72492 0.31552 0.07884 0.0
C213 C 0.9223 0.41063 0.09941 0.0
C214 C 0.92936 0.44679 0.05115 0.0
C215 C 0.91519 0.30274 0.08064 0.0
O216 O 0.98755 0.44842 0.06847 0.0
O217 O 0.99629 0.44154 0.08135 0.0
O218 O 0.83805 0.33169 0.06032 0.0
O219 O 0.86937 0.38058 0.05485 0.0
O220 O 0.77696 0.32507 0.09826 0.0
O221 O 0.7826 0.38227 0.10139 0.0
O222 O 0.82697 0.45126 0.06832 0.0
O223 O 0.85859 0.46161 0.08113 0.0
Co224 Co 0.90443 0.35531 0.71437 0.0
Co225 Co 0.83417 0.42015 0.70594 0.0
Co226 Co 0.91318 0.36009 0.69553 0.0
H227 H 0.909 0.36783 0.70515 0.0
O228 O 0.91545 0.39116 0.70689 0.0
H229 H 0.83313 0.40989 0.6964 0.0
O230 O 0.82838 0.38635 0.69482 0.0
Co231 Co 0.83099 0.4207 0.68702 0.0
O232 O 0.75802 0.45555 0.69183 0.0
O233 O 0.75254 0.44923 0.70471 0.0
O234 O 0.90314 0.39591 0.67964 0.0
O235 O 0.91869 0.34119 0.68358 0.0
O236 O 0.89726 0.31432 0.72143 0.0
O237 O 0.95044 0.36231 0.72552 0.0
O238 O 0.90496 0.45677 0.69042 0.0
O239 O 0.89343 0.46256 0.70368 0.0
C240 C 0.01643 0.32055 0.703 0.0
C241 C 0.84559 0.4287 0.72362 0.0
C242 C 0.77202 0.42248 0.67407 0.0
C243 C 0.82276 0.30606 0.70262 0.0
C244 C 0.73145 0.46283 0.69875 0.0
C245 C 0.9238 0.36244 0.67832 0.0
C246 C 0.93177 0.33159 0.72708 0.0
C247 C 0.91944 0.47271 0.69749 0.0
O248 O 0.98535 0.32614 0.70968 0.0
O249 O 0.99696 0.33348 0.69688 0.0
O250 O 0.83642 0.44407 0.71749 0.0
O251 O 0.8665 0.39538 0.7231 0.0
O252 O 0.82955 0.43501 0.67577 0.0
O253 O 0.74783 0.40871 0.67973 0.0
O254 O 0.82644 0.32472 0.70967 0.0
O255 O 0.85871 0.31419 0.69689 0.0
Co256 Co 0.67014 0.17182 0.93767 0.0
Co257 Co 0.5874 0.11122 0.94592 0.0
Co258 Co 0.66626 0.17071 0.9565 0.0
H259 H 0.66797 0.16063 0.947 0.0
O260 O 0.67269 0.13713 0.94536 0.0
H261 H 0.591 0.1183 0.95554 0.0
O262 O 0.58483 0.14165 0.95733 0.0
Co263 Co 0.59354 0.10546 0.96474 0.0
O264 O 0.50987 0.07923 0.96006 0.0
O265 O 0.50304 0.08467 0.94709 0.0
O266 O 0.63287 0.14505 0.97346 0.0
O267 O 0.66315 0.19427 0.96806 0.0
O268 O 0.70991 0.20178 0.92957 0.0
O269 O 0.71803 0.14445 0.92746 0.0
O270 O 0.66244 0.06858 0.96008 0.0
O271 O 0.6414 0.06472 0.947 0.0
C272 C 0.77088 0.21274 0.94938 0.0
C273 C 0.56853 0.11878 0.92948 0.0
C274 C 0.56905 0.08109 0.9774 0.0
C275 C 0.58002 0.22267 0.94802 0.0
C276 C 0.48061 0.07317 0.95326 0.0
C277 C 0.65396 0.17837 0.97411 0.0
C278 C 0.73075 0.17376 0.92485 0.0
C279 C 0.66991 0.05271 0.95284 0.0
O280 O 0.74566 0.20491 0.94239 0.0
O281 O 0.74794 0.20006 0.95538 0.0
O282 O 0.58146 0.09453 0.93391 0.0
O283 O 0.5877 0.15234 0.93149 0.0
O284 O 0.61119 0.06729 0.97223 0.0
O285 O 0.54145 0.10897 0.97542 0.0
O286 O 0.59395 0.20637 0.94096 0.0
O287 O 0.6072 0.21321 0.95422 0.0
Co288 Co 0.67341 0.10716 0.34116 0.0
Co289 Co 0.58806 0.16593 0.33242 0.0
Co290 Co 0.66818 0.10604 0.32211 0.0
H291 H 0.66974 0.11693 0.33166 0.0
O292 O 0.67379 0.14058 0.33315 0.0
H293 H 0.59179 0.1576 0.32283 0.0
O294 O 0.58595 0.13418 0.32113 0.0
Co295 Co 0.59545 0.16984 0.31359 0.0
O296 O 0.51086 0.19601 0.31804 0.0
O297 O 0.50309 0.19141 0.33104 0.0
O298 O 0.63294 0.12966 0.3049 0.0
O299 O 0.66579 0.08156 0.31055 0.0
O300 O 0.67109 0.09761 0.35282 0.0
O301 O 0.75864 0.11524 0.3482 0.0
O302 O 0.67306 0.20105 0.31812 0.0
O303 O 0.64098 0.21209 0.3309 0.0
C304 C 0.77508 0.0665 0.32945 0.0
C305 C 0.57977 0.16554 0.34974 0.0
C306 C 0.57022 0.19501 0.30103 0.0
C307 C 0.5863 0.05319 0.33085 0.0
C308 C 0.48078 0.2022 0.32479 0.0
C309 C 0.65505 0.09661 0.30439 0.0
C310 C 0.73123 0.10594 0.35421 0.0
C311 C 0.67652 0.22013 0.32513 0.0
O312 O 0.74998 0.0748 0.33644 0.0
O313 O 0.75085 0.07781 0.32336 0.0
O314 O 0.58293 0.18588 0.3443 0.0
O315 O 0.60244 0.13249 0.34868 0.0
O316 O 0.62223 0.20212 0.30517 0.0
O317 O 0.53283 0.17348 0.30401 0.0
O318 O 0.60183 0.06942 0.33786 0.0
O319 O 0.61028 0.06347 0.32456 0.0
Co320 Co 0.40316 0.92031 0.06376 0.0
Co321 Co 0.33427 0.85509 0.07212 0.0
Co322 Co 0.41102 0.91609 0.08257 0.0
H323 H 0.40776 0.90794 0.07297 0.0
O324 O 0.41497 0.88466 0.07125 0.0
H325 H 0.33175 0.86579 0.08167 0.0
O326 O 0.32656 0.88935 0.08318 0.0
Co327 Co 0.32795 0.85575 0.09113 0.0
O328 O 0.25485 0.82119 0.08626 0.0
O329 O 0.25316 0.8254 0.07324 0.0
O330 O 0.39852 0.88148 0.09865 0.0
O331 O 0.41501 0.9356 0.09447 0.0
O332 O 0.38744 0.95898 0.05633 0.0
O333 O 0.45671 0.91702 0.05318 0.0
O334 O 0.40004 0.81828 0.08789 0.0
O335 O 0.39416 0.81333 0.07459 0.0
C336 C 0.51424 0.95591 0.07516 0.0
C337 C 0.34612 0.84668 0.05444 0.0
C338 C 0.26881 0.8546 0.1041 0.0
C339 C 0.32021 0.96936 0.0753 0.0
C340 C 0.23024 0.81285 0.07925 0.0
C341 C 0.41947 0.91489 0.09984 0.0
C342 C 0.42982 0.94508 0.0512 0.0
C343 C 0.41722 0.80273 0.08089 0.0
O344 O 0.48385 0.94971 0.06843 0.0
O345 O 0.49441 0.94327 0.0813 0.0
O346 O 0.33826 0.83092 0.06055 0.0
O347 O 0.36534 0.88031 0.05503 0.0
O348 O 0.3284 0.84504 0.1027 0.0
O349 O 0.24265 0.86511 0.09814 0.0
O350 O 0.32429 0.95044 0.06828 0.0
O351 O 0.35593 0.96154 0.08108 0.0
Co352 Co 0.40178 0.85617 0.71473 0.0
Co353 Co 0.33311 0.92087 0.70625 0.0
Co354 Co 0.41219 0.86047 0.69597 0.0
H355 H 0.40771 0.86869 0.70555 0.0
O356 O 0.41437 0.89202 0.70727 0.0
H357 H 0.33147 0.90997 0.6967 0.0
O358 O 0.32707 0.88635 0.69521 0.0
Co359 Co 0.32778 0.91982 0.68722 0.0
O360 O 0.25258 0.9531 0.69195 0.0
O361 O 0.2511 0.94966 0.70501 0.0
O362 O 0.39731 0.89363 0.6796 0.0
O363 O 0.41752 0.84057 0.68411 0.0
O364 O 0.40071 0.81288 0.7212 0.0
O365 O 0.44004 0.86385 0.72628 0.0
O366 O 0.40196 0.95611 0.69046 0.0
O367 O 0.39199 0.96306 0.70377 0.0
C368 C 0.51561 0.82178 0.7036 0.0
C369 C 0.34106 0.92911 0.72389 0.0
C370 C 0.26558 0.92241 0.6745 0.0
C371 C 0.32049 0.80732 0.70305 0.0
C372 C 0.22739 0.96133 0.69893 0.0
C373 C 0.42033 0.86066 0.67862 0.0
C374 C 0.42779 0.83136 0.72732 0.0
C375 C 0.41715 0.97267 0.69747 0.0
O376 O 0.48407 0.82759 0.71025 0.0
O377 O 0.49622 0.83425 0.69741 0.0
O378 O 0.33584 0.94524 0.7178 0.0
O379 O 0.35969 0.89536 0.7233 0.0
O380 O 0.28729 0.95026 0.67921 0.0
O381 O 0.27868 0.89297 0.67705 0.0
O382 O 0.32253 0.82679 0.71003 0.0
O383 O 0.35833 0.81462 0.69742 0.0
Co384 Co 0.67817 0.67214 0.43739 0.0
Co385 Co 0.59272 0.61066 0.44544 0.0
Co386 Co 0.66874 0.67044 0.45624 0.0
H387 H 0.6725 0.66073 0.44671 0.0
O388 O 0.67753 0.63725 0.44508 0.0
H389 H 0.59621 0.61714 0.45504 0.0
O390 O 0.58861 0.64026 0.4569 0.0
Co391 Co 0.60133 0.60366 0.46414 0.0
O392 O 0.52029 0.57503 0.45925 0.0
O393 O 0.50904 0.58346 0.4465 0.0
O394 O 0.64005 0.64271 0.47303 0.0
O395 O 0.66339 0.69349 0.46782 0.0
O396 O 0.67531 0.68074 0.42567 0.0
O397 O 0.76175 0.66112 0.43015 0.0
O398 O 0.6807 0.57491 0.45929 0.0
O399 O 0.64701 0.56437 0.44656 0.0
C400 C 0.77793 0.7112 0.44939 0.0
C401 C 0.57734 0.61895 0.42899 0.0
C402 C 0.57516 0.57841 0.47667 0.0
C403 C 0.59559 0.72795 0.44789 0.0
C404 C 0.48939 0.56996 0.45254 0.0
C405 C 0.65736 0.67675 0.4738 0.0
C406 C 0.73454 0.67078 0.42416 0.0
C407 C 0.68382 0.5563 0.45222 0.0
O408 O 0.7571 0.70189 0.44222 0.0
O409 O 0.74952 0.7009 0.45536 0.0
O410 O 0.58821 0.59448 0.43343 0.0
O411 O 0.59523 0.65263 0.43125 0.0
O412 O 0.62119 0.56664 0.47184 0.0
O413 O 0.54432 0.60459 0.47439 0.0
O414 O 0.62039 0.71653 0.44101 0.0
O415 O 0.60773 0.71195 0.4539 0.0
Co416 Co 0.68026 0.60112 0.84029 0.0
Co417 Co 0.59248 0.66336 0.83242 0.0
Co418 Co 0.66646 0.60327 0.82146 0.0
H419 H 0.67209 0.61278 0.831 0.0
O420 O 0.67724 0.63627 0.83261 0.0
H421 H 0.59356 0.65646 0.82279 0.0
O422 O 0.58583 0.6333 0.82101 0.0
Co423 Co 0.59579 0.66945 0.81359 0.0
O424 O 0.51527 0.69777 0.81867 0.0
O425 O 0.5088 0.69111 0.83158 0.0
O426 O 0.63231 0.63003 0.8046 0.0
O427 O 0.65942 0.58006 0.80991 0.0
O428 O 0.68474 0.58439 0.85129 0.0
O429 O 0.75895 0.61822 0.84806 0.0
O430 O 0.67421 0.70004 0.81806 0.0
O431 O 0.64685 0.7091 0.83101 0.0
C432 C 0.7727 0.55887 0.82774 0.0
C433 C 0.58736 0.65882 0.84947 0.0
C434 C 0.56794 0.6952 0.80117 0.0
C435 C 0.59444 0.54617 0.82997 0.0
C436 C 0.48684 0.70377 0.82552 0.0
C437 C 0.65119 0.59626 0.80389 0.0
C438 C 0.73833 0.60105 0.85339 0.0
C439 C 0.68006 0.71803 0.82515 0.0
O440 O 0.75172 0.5663 0.83494 0.0
O441 O 0.74731 0.57282 0.82205 0.0
O442 O 0.59127 0.68102 0.8444 0.0
O443 O 0.60806 0.62535 0.84784 0.0
O444 O 0.59783 0.7129 0.80716 0.0
O445 O 0.55406 0.66293 0.80223 0.0
O446 O 0.62006 0.55766 0.83681 0.0
O447 O 0.60631 0.5618 0.82391 0.0
Co448 Co 0.41015 0.42217 0.56361 0.0
Co449 Co 0.34074 0.3567 0.57179 0.0
Co450 Co 0.41666 0.41732 0.5824 0.0
H451 H 0.41412 0.40953 0.57281 0.0
O452 O 0.42151 0.38628 0.57107 0.0
H453 H 0.3373 0.367 0.58134 0.0
O454 O 0.332 0.39054 0.58289 0.0
Co455 Co 0.33279 0.35644 0.59076 0.0
O456 O 0.26368 0.31972 0.5856 0.0
O457 O 0.25991 0.3268 0.57274 0.0
O458 O 0.40143 0.38269 0.59849 0.0
O459 O 0.41958 0.43666 0.5943 0.0
O460 O 0.39048 0.45923 0.55591 0.0
O461 O 0.46726 0.42121 0.55337 0.0
O462 O 0.40672 0.31999 0.58756 0.0
O463 O 0.4001 0.31479 0.57425 0.0
C464 C 0.52228 0.456 0.57509 0.0
C465 C 0.35293 0.34905 0.55416 0.0
C466 C 0.27293 0.35483 0.60369 0.0
C467 C 0.32612 0.47056 0.57514 0.0
C468 C 0.23903 0.31228 0.57857 0.0
C469 C 0.42275 0.41602 0.59968 0.0
C470 C 0.43649 0.44742 0.55109 0.0
C471 C 0.42369 0.30442 0.58055 0.0
O472 O 0.49276 0.44977 0.5683 0.0
O473 O 0.50047 0.44425 0.58126 0.0
O474 O 0.34581 0.33293 0.56022 0.0
O475 O 0.37146 0.38283 0.55481 0.0
O476 O 0.3291 0.34064 0.60187 0.0
O477 O 0.25056 0.37023 0.59817 0.0
O478 O 0.33052 0.45175 0.56811 0.0
O479 O 0.36206 0.46288 0.5809 0.0
Co480 Co 0.40077 0.35371 0.21443 0.0
Co481 Co 0.33377 0.42004 0.2063 0.0
Co482 Co 0.4106 0.3598 0.19571 0.0
H483 H 0.40644 0.36682 0.2053 0.0
O484 O 0.41388 0.39 0.20712 0.0
H485 H 0.33093 0.40977 0.19677 0.0
O486 O 0.3258 0.38626 0.19519 0.0
Co487 Co 0.32714 0.42039 0.18737 0.0
O488 O 0.25058 0.45258 0.19212 0.0
O489 O 0.25322 0.45028 0.20524 0.0
O490 O 0.40927 0.40049 0.18116 0.0
O491 O 0.41608 0.34288 0.18371 0.0
O492 O 0.37435 0.32118 0.22282 0.0
O493 O 0.46384 0.34972 0.22395 0.0
O494 O 0.39661 0.45913 0.19066 0.0
O495 O 0.3945 0.46176 0.20392 0.0
C496 C 0.51521 0.32104 0.20313 0.0
C497 C 0.3429 0.42666 0.2239 0.0
C498 C 0.27015 0.42079 0.17424 0.0
C499 C 0.31862 0.30609 0.20252 0.0
C500 C 0.22788 0.46171 0.19921 0.0
C501 C 0.42866 0.36693 0.17922 0.0
C502 C 0.42654 0.32814 0.22693 0.0
C503 C 0.4155 0.4736 0.19766 0.0
O504 O 0.48441 0.32682 0.20984 0.0
O505 O 0.4944 0.3329 0.19693 0.0
O506 O 0.33801 0.44343 0.2179 0.0
O507 O 0.36001 0.3926 0.22317 0.0
O508 O 0.3183 0.44124 0.17688 0.0
O509 O 0.2542 0.3998 0.17906 0.0
O510 O 0.3214 0.32498 0.20956 0.0
O511 O 0.35619 0.31369 0.19688 0.0
H512 H 0.34619 0.23696 0.43753 0.0
H513 H 0.38955 0.2998 0.43873 0.0
H514 H 0.34535 0.32009 0.46403 0.0
H515 H 0.30094 0.25727 0.46288 0.0
H516 H 0.27286 0.36385 0.45503 0.0
H517 H 0.54327 0.36689 0.44822 0.0
H518 H 0.49741 0.33355 0.44124 0.0
H519 H 0.50382 0.32787 0.45153 0.0
C520 C 0.34822 0.25426 0.44342 0.0
C521 C 0.31873 0.24261 0.45007 0.0
C522 C 0.37336 0.29012 0.4441 0.0
C523 C 0.36991 0.31453 0.45145 0.0
C524 C 0.34809 0.3015 0.45831 0.0
H525 H 0.41304 0.54777 0.46408 0.0
H526 H 0.3667 0.48571 0.46316 0.0
C527 C 0.32308 0.26554 0.45764 0.0
C528 C 0.37597 0.35467 0.45158 0.0
H529 H 0.48046 0.42106 0.44699 0.0
C530 C 0.31844 0.37654 0.45336 0.0
C531 C 0.4351 0.37074 0.44927 0.0
C532 C 0.4986 0.34863 0.44752 0.0
C533 C 0.3183 0.4142 0.45277 0.0
C534 C 0.37728 0.43018 0.4504 0.0
C535 C 0.43489 0.40837 0.44866 0.0
C536 C 0.38312 0.47021 0.45039 0.0
C537 C 0.25505 0.43646 0.45457 0.0
C538 C 0.40359 0.48265 0.44341 0.0
C539 C 0.43015 0.51819 0.44391 0.0
C540 C 0.43748 0.54117 0.45143 0.0
C541 C 0.40859 0.53039 0.45822 0.0
C542 C 0.38188 0.49496 0.45771 0.0
H543 H 0.21032 0.41828 0.45415 0.0
H544 H 0.25767 0.45249 0.46077 0.0
H545 H 0.24886 0.45645 0.4504 0.0
H546 H 0.40461 0.46376 0.43772 0.0
H547 H 0.45182 0.52581 0.43858 0.0
H548 H 0.94741 0.02501 0.44021 0.0
H549 H 0.90379 0.9626 0.43973 0.0
H550 H 0.86887 0.98636 0.46524 0.0
H551 H 0.91369 0.04872 0.4658 0.0
H552 H 0.96403 0.93218 0.46057 0.0
H553 H 0.73562 0.90313 0.44204 0.0
H554 H 0.79973 0.92611 0.43737 0.0
H555 H 0.761 0.94968 0.44642 0.0
C556 C 0.92716 0.01768 0.44565 0.0
C557 C 0.93527 0.04129 0.45307 0.0
C558 C 0.90228 0.9819 0.44536 0.0
C559 C 0.88404 0.96988 0.45247 0.0
C560 C 0.88328 0.99521 0.45971 0.0
H561 H 0.80595 0.75659 0.4636 0.0
H562 H 0.84991 0.81933 0.46476 0.0
C563 C 0.90859 0.03083 0.46001 0.0
C564 C 0.8795 0.92987 0.4526 0.0
H565 H 0.79858 0.85061 0.44435 0.0
C566 C 0.92738 0.91433 0.4571 0.0
C567 C 0.83239 0.90683 0.44797 0.0
C568 C 0.77888 0.92229 0.44323 0.0
C569 C 0.92976 0.87604 0.457 0.0
C570 C 0.88298 0.85303 0.45232 0.0
C571 C 0.83501 0.86854 0.44785 0.0
C572 C 0.87922 0.81295 0.45231 0.0
C573 C 0.98266 0.86035 0.46178 0.0
C574 C 0.88562 0.78809 0.44506 0.0
C575 C 0.8605 0.75221 0.44436 0.0
C576 C 0.82782 0.74115 0.45089 0.0
C577 C 0.83023 0.76441 0.45844 0.0
C578 C 0.85539 0.80034 0.45912 0.0
H579 H 0.02372 0.88048 0.4636 0.0
H580 H 0.95984 0.85339 0.4673 0.0
H581 H 0.00396 0.83445 0.45828 0.0
H582 H 0.9044 0.79747 0.43977 0.0
H583 H 0.8605 0.73461 0.4385 0.0
H584 H 0.29057 0.01535 0.81492 0.0
H585 H 0.33207 0.95206 0.81411 0.0
H586 H 0.39529 0.9778 0.83878 0.0
H587 H 0.3537 0.04109 0.83969 0.0
H588 H 0.4546 0.91329 0.81884 0.0
H589 H 0.2283 0.90547 0.83752 0.0
H590 H 0.24269 0.94314 0.83215 0.0
H591 H 0.28697 0.94152 0.84128 0.0
C592 C 0.31609 1.00812 0.82007 0.0
C593 C 0.31726 0.03275 0.82744 0.0
C594 C 0.33942 0.97188 0.8196 0.0
C595 C 0.36459 0.96033 0.82646 0.0
C596 C 0.37472 0.98632 0.83348 0.0
H597 H 0.45824 0.75176 0.8393 0.0
H598 H 0.41412 0.81423 0.83967 0.0
C599 C 0.3512 0.02244 0.83397 0.0
C600 C 0.36961 0.92049 0.82669 0.0
H601 H 0.29461 0.85136 0.8346 0.0
C602 C 0.41973 0.89963 0.82226 0.0
C603 C 0.32329 0.90305 0.83113 0.0
C604 C 0.26686 0.92428 0.83575 0.0
C605 C 0.42587 0.86155 0.82229 0.0
C606 C 0.37963 0.84412 0.82675 0.0
C607 C 0.32937 0.86498 0.83116 0.0
C608 C 0.38559 0.80449 0.82716 0.0
C609 C 0.48264 0.84042 0.81771 0.0
C610 C 0.3782 0.77781 0.8202 0.0
C611 C 0.40319 0.74215 0.81997 0.0
C612 C 0.43577 0.73302 0.82671 0.0
C613 C 0.4337 0.75811 0.83401 0.0
C614 C 0.40897 0.7939 0.83422 0.0
H615 H 0.52118 0.85931 0.81597 0.0
H616 H 0.50679 0.82164 0.82134 0.0
H617 H 0.46292 0.82313 0.81216 0.0
H618 H 0.35886 0.78552 0.81476 0.0
H619 H 0.40334 0.72308 0.8143 0.0
H620 H 0.06026 0.24403 0.8208 0.0
H621 H 0.03328 0.30754 0.81967 0.0
H622 H 0.82435 0.28446 0.82263 0.0
H623 H 0.85268 0.22046 0.8241 0.0
H624 H 0.96112 0.34207 0.81033 0.0
H625 H 0.85718 0.36737 0.84116 0.0
H626 H 0.89963 0.32496 0.83698 0.0
H627 H 0.81372 0.33172 0.83449 0.0
C628 C 0.00867 0.25233 0.82107 0.0
C629 C 0.95863 0.22773 0.82255 0.0
C630 C 0.99315 0.28861 0.82042 0.0
C631 C 0.92698 0.30092 0.82122 0.0
C632 C 0.87599 0.27565 0.82219 0.0
H633 H 0.78194 0.51148 0.81355 0.0
H634 H 0.83244 0.45026 0.81144 0.0
C635 C 0.89191 0.2392 0.82296 0.0
C636 C 0.91319 0.34085 0.82166 0.0
H637 H 0.84851 0.4164 0.83387 0.0
C638 C 0.93655 0.35843 0.81548 0.0
C639 C 0.88329 0.36226 0.82851 0.0
C640 C 0.86266 0.34574 0.8357 0.0
C641 C 0.92995 0.39687 0.8159 0.0
C642 C 0.89682 0.41793 0.82256 0.0
C643 C 0.87408 0.40031 0.82877 0.0
C644 C 0.8806 0.4577 0.82306 0.0
C645 C 0.95986 0.41444 0.80931 0.0
C646 C 0.89205 0.48277 0.83023 0.0
C647 C 0.86132 0.51751 0.83155 0.0
C648 C 0.81981 0.52788 0.82566 0.0
C649 C 0.81417 0.50435 0.81818 0.0
C650 C 0.84344 0.46928 0.81694 0.0
H651 H 0.00389 0.39848 0.80661 0.0
H652 H 0.92235 0.41425 0.80449 0.0
H653 H 0.97544 0.44355 0.81153 0.0
H654 H 0.92087 0.47444 0.83502 0.0
H655 H 0.86667 0.53525 0.83735 0.0
H656 H 0.59821 0.47777 0.56344 0.0
H657 H 0.64154 0.54035 0.5642 0.0
H658 H 0.60642 0.56249 0.5897 0.0
H659 H 0.56218 0.49995 0.589 0.0
H660 H 0.52346 0.60165 0.58036 0.0
H661 H 0.79144 0.61361 0.57284 0.0
H662 H 0.74712 0.57737 0.5664 0.0
H663 H 0.75839 0.57455 0.57679 0.0
C664 C 0.60277 0.4953 0.56928 0.0
C665 C 0.57474 0.48453 0.57612 0.0
C666 C 0.62784 0.53105 0.56971 0.0
C667 C 0.62596 0.55603 0.57699 0.0
C668 C 0.6077 0.54346 0.58403 0.0
H669 H 0.64067 0.78883 0.58965 0.0
H670 H 0.59892 0.72571 0.58828 0.0
C671 C 0.58272 0.50763 0.58361 0.0
C672 C 0.627 0.59607 0.57686 0.0
H673 H 0.72225 0.66553 0.57196 0.0
C674 C 0.56708 0.61582 0.5786 0.0
C675 C 0.68344 0.61392 0.57437 0.0
C676 C 0.74896 0.59391 0.57255 0.0
C677 C 0.56209 0.65323 0.5779 0.0
C678 C 0.61873 0.67122 0.57548 0.0
C679 C 0.67854 0.65137 0.57369 0.0
C680 C 0.6203 0.71149 0.57559 0.0
C681 C 0.49629 0.67302 0.57967 0.0
C682 C 0.64174 0.72506 0.56879 0.0
C683 C 0.66619 0.76117 0.56956 0.0
C684 C 0.67026 0.78368 0.57718 0.0
C685 C 0.63936 0.77181 0.58373 0.0
C686 C 0.61502 0.73574 0.58295 0.0
H687 H 0.4538 0.6532 0.5789 0.0
H688 H 0.49614 0.68769 0.58599 0.0
H689 H 0.48832 0.69387 0.57573 0.0
H690 H 0.6456 0.70665 0.56305 0.0
H691 H 0.68881 0.76967 0.56437 0.0
H692 H 0.10514 0.96972 0.56538 0.0
H693 H 0.15797 0.0304 0.56602 0.0
H694 H 0.07444 0.0662 0.5896 0.0
H695 H 0.02548 1.00522 0.58918 0.0
H696 H 0.07662 0.08609 0.56611 0.0
H697 H 0.24365 0.12219 0.59226 0.0
H698 H 0.21769 0.075 0.5886 0.0
H699 H 0.16455 0.10636 0.59521 0.0
C700 C 0.10142 0.98997 0.57086 0.0
C701 C 0.06134 0.98306 0.57722 0.0
C702 C 0.13112 0.02463 0.57121 0.0
C703 C 0.11988 0.05287 0.57784 0.0
C704 C 0.08523 0.04468 0.5845 0.0
H705 H 0.14625 0.29007 0.58843 0.0
H706 H 0.10381 0.22672 0.58733 0.0
C707 C 0.05709 1.00973 0.58425 0.0
C708 C 0.13228 0.09192 0.57716 0.0
H709 H 0.19536 0.17351 0.58712 0.0
C710 C 0.10345 0.10513 0.57065 0.0
C711 C 0.16626 0.11677 0.58315 0.0
C712 C 0.20028 0.10419 0.59015 0.0
C713 C 0.10634 0.14272 0.57004 0.0
C714 C 0.13942 0.16762 0.57609 0.0
C715 C 0.16897 0.15437 0.58255 0.0
C716 C 0.14792 0.20725 0.57569 0.0
C717 C 0.07276 0.15539 0.56302 0.0
C718 C 0.18283 0.21765 0.56927 0.0
C719 C 0.20537 0.25399 0.56979 0.0
C720 C 0.19496 0.27995 0.57684 0.0
C721 C 0.15483 0.27042 0.58294 0.0
C722 C 0.13103 0.23428 0.58234 0.0
H723 H 0.0319 0.13624 0.56054 0.0
H724 H 0.05199 0.18382 0.56472 0.0
H725 H 0.10996 0.15556 0.55818 0.0
H726 H 0.19763 0.19711 0.56416 0.0
H727 H 0.23705 0.26053 0.56505 0.0
H728 H 0.70259 1.00842 0.21322 0.0
H729 H 0.66241 0.07203 0.21445 0.0
H730 H 0.61208 0.05236 0.18931 0.0
H731 H 0.65267 0.98872 0.188 0.0
H732 H 0.71621 0.10504 0.19412 0.0
H733 H 0.49052 0.13375 0.21332 0.0
H734 H 0.55487 0.10716 0.21707 0.0
H735 H 0.51121 0.08779 0.20805 0.0
C736 C 0.68 0.01701 0.20804 0.0
C737 C 0.68228 0.99401 0.20046 0.0
C738 C 0.65711 0.05343 0.20875 0.0
C739 C 0.63533 0.06679 0.20194 0.0
C740 C 0.62931 0.0424 0.19461 0.0
H741 H 0.55479 0.27525 0.18948 0.0
H742 H 0.60401 0.21421 0.1892 0.0
C743 C 0.65238 1.0061 0.19388 0.0
C744 C 0.63183 0.107 0.20208 0.0
H745 H 0.54891 0.18568 0.21024 0.0
C746 C 0.67948 0.12276 0.19761 0.0
C747 C 0.58465 0.12977 0.20676 0.0
C748 C 0.53201 0.11386 0.21153 0.0
C749 C 0.68094 0.16102 0.19767 0.0
C750 C 0.63314 0.18377 0.20225 0.0
C751 C 0.58605 0.16804 0.2068 0.0
C752 C 0.62637 0.22346 0.2019 0.0
C753 C 0.7336 0.17681 0.19287 0.0
C754 C 0.62693 0.24953 0.20902 0.0
C755 C 0.59859 0.28438 0.20921 0.0
C756 C 0.56885 0.29325 0.20227 0.0
C757 C 0.57715 0.26911 0.19492 0.0
C758 C 0.60529 0.23414 0.19475 0.0
H759 H 0.77734 0.15798 0.19166 0.0
H760 H 0.71217 0.18039 0.18702 0.0
H761 H 0.75088 0.20437 0.19604 0.0
H762 H 0.64346 0.2417 0.21458 0.0
H763 H 0.59364 0.30275 0.21494 0.0
H764 H 0.0559 0.77775 0.18925 0.0
H765 H 0.10058 0.71518 0.18846 0.0
H766 H 0.1365 0.73659 0.21393 0.0
H767 H 0.09235 0.79926 0.21482 0.0
H768 H 0.22943 0.68268 0.20304 0.0
H769 H 0.95561 0.65656 0.20035 0.0
H770 H 0.99257 0.68259 0.19341 0.0
H771 H 0.98979 0.70215 0.20388 0.0
C772 C 0.07643 0.76989 0.19462 0.0
C773 C 0.06861 0.79284 0.20215 0.0
C774 C 0.10156 0.73406 0.19416 0.0
C775 C 0.11968 0.72133 0.20118 0.0
C776 C 0.12184 0.74607 0.20848 0.0
H777 H 0.20012 0.50724 0.21342 0.0
H778 H 0.16005 0.57095 0.2146 0.0
C779 C 0.09662 0.78183 0.20896 0.0
C780 C 0.12328 0.68135 0.20122 0.0
H781 H 0.02506 0.60454 0.20032 0.0
C782 C 0.18501 0.66548 0.20244 0.0
C783 C 0.0646 0.65949 0.20054 0.0
C784 C 0.99667 0.67594 0.19953 0.0
C785 C 0.18994 0.62768 0.20281 0.0
C786 C 0.13126 0.60579 0.20213 0.0
C787 C 0.06951 0.62172 0.20093 0.0
C788 C 0.13466 0.56568 0.20206 0.0
C789 C 0.25796 0.61121 0.20376 0.0
C790 C 0.1275 0.5412 0.19477 0.0
C791 C 0.14997 0.50478 0.19406 0.0
C792 C 0.18016 0.49274 0.20065 0.0
C793 C 0.17793 0.51583 0.20821 0.0
C794 C 0.15551 0.55231 0.2089 0.0
H795 H 0.2989 0.63039 0.20278 0.0
H796 H 0.26291 0.60513 0.20992 0.0
H797 H 0.2643 0.58472 0.19948 0.0
H798 H 0.11052 0.55115 0.18946 0.0
H799 H 0.14987 0.48734 0.18819 0.0
H800 H 0.40023 0.05421 0.96483 0.0
H801 H 0.35542 0.99194 0.96443 0.0
H802 H 0.39983 0.96464 0.9392 0.0
H803 H 0.44468 0.02684 0.9395 0.0
H804 H 0.28078 0.9269 0.94562 0.0
H805 H 0.52444 0.91913 0.9611 0.0
H806 H 0.46842 0.95556 0.96546 0.0
H807 H 0.50425 0.95631 0.95579 0.0
C808 C 0.39749 0.03556 0.95911 0.0
C809 C 0.42783 0.04486 0.95225 0.0
C810 C 0.37212 1.00002 0.95891 0.0
C811 C 0.37656 0.97375 0.95185 0.0
C812 C 0.39691 0.98471 0.94471 0.0
H813 H 0.35404 0.73831 0.93833 0.0
H814 H 0.39239 0.80233 0.93955 0.0
C815 C 0.42216 0.02035 0.9449 0.0
C816 C 0.37284 0.93404 0.95222 0.0
H817 H 0.45956 0.86453 0.95866 0.0
C818 C 0.31954 0.9132 0.94849 0.0
C819 C 0.42429 0.91655 0.95591 0.0
C820 C 0.48396 0.93785 0.95976 0.0
C821 C 0.31586 0.87497 0.94843 0.0
C822 C 0.36749 0.85746 0.95207 0.0
C823 C 0.42056 0.87831 0.95586 0.0
C824 C 0.36555 0.81738 0.95205 0.0
C825 C 0.25671 0.85351 0.9445 0.0
C826 C 0.34348 0.80437 0.95888 0.0
C827 C 0.32175 0.76776 0.95823 0.0
C828 C 0.32136 0.74425 0.95071 0.0
C829 C 0.35261 0.75606 0.94417 0.0
C830 C 0.37443 0.79258 0.94484 0.0
H831 H 0.21598 0.87212 0.94318 0.0
H832 H 0.27277 0.83613 0.93878 0.0
H833 H 0.23666 0.83468 0.9484 0.0
H834 H 0.33708 0.82333 0.96451 0.0
H835 H 0.2985 0.75938 0.9634 0.0
H836 H 0.8478 0.23812 0.93827 0.0
H837 H 0.89082 0.30102 0.93959 0.0
H838 H 0.84524 0.32054 0.96485 0.0
H839 H 0.80098 0.25765 0.96358 0.0
H840 H 0.77339 0.36463 0.95603 0.0
H841 H 0.04334 0.36826 0.94911 0.0
H842 H 0.99779 0.33533 0.942 0.0
H843 H 0.00411 0.32876 0.95224 0.0
C844 C 0.84949 0.25522 0.94418 0.0
C845 C 0.8195 0.24334 0.95078 0.0
C846 C 0.87444 0.29116 0.94493 0.0
C847 C 0.87047 0.3154 0.9523 0.0
C848 C 0.84836 0.3021 0.95911 0.0
H849 H 0.91135 0.54948 0.96469 0.0
H850 H 0.86622 0.48727 0.96397 0.0
C851 C 0.82344 0.26608 0.95838 0.0
C852 C 0.87632 0.35562 0.95248 0.0
H853 H 0.97988 0.42224 0.9478 0.0
C854 C 0.81876 0.37741 0.95433 0.0
C855 C 0.93517 0.37184 0.95013 0.0
C856 C 0.99879 0.3499 0.94833 0.0
C857 C 0.81823 0.41508 0.95374 0.0
C858 C 0.87686 0.43117 0.9513 0.0
C859 C 0.93457 0.40947 0.94952 0.0
C860 C 0.88216 0.47116 0.9512 0.0
C861 C 0.7549 0.43721 0.9556 0.0
C862 C 0.90195 0.4833 0.94416 0.0
C863 C 0.92796 0.51891 0.94455 0.0
C864 C 0.93541 0.54229 0.95202 0.0
C865 C 0.90701 0.53178 0.95887 0.0
C866 C 0.88093 0.49626 0.95847 0.0
H867 H 0.71033 0.41894 0.95524 0.0
H868 H 0.7579 0.45336 0.96178 0.0
H869 H 0.74811 0.4571 0.95142 0.0
H870 H 0.9029 0.46416 0.9385 0.0
H871 H 0.94918 0.5263 0.93917 0.0
H872 H 0.40527 0.22241 0.3129 0.0
H873 H 0.35761 0.28412 0.31355 0.0
H874 H 0.38745 0.30681 0.33914 0.0
H875 H 0.43573 0.24522 0.33858 0.0
H876 H 0.26175 0.33802 0.32397 0.0
H877 H 0.53459 0.36536 0.32761 0.0
H878 H 0.50141 0.31951 0.3241 0.0
H879 H 0.49636 0.33974 0.33453 0.0
C880 C 0.39886 0.23984 0.31872 0.0
C881 C 0.42649 0.22965 0.32565 0.0
C882 C 0.37155 0.27506 0.31908 0.0
C883 C 0.3712 0.3 0.32635 0.0
C884 C 0.38843 0.28778 0.33346 0.0
H885 H 0.34196 0.53298 0.33977 0.0
H886 H 0.37944 0.46871 0.3382 0.0
C887 C 0.41573 0.25251 0.33312 0.0
C888 C 0.36733 0.33989 0.32621 0.0
H889 H 0.46485 0.41713 0.3275 0.0
C890 C 0.30589 0.35543 0.32474 0.0
C891 C 0.42571 0.362 0.32709 0.0
C892 C 0.49348 0.34592 0.32836 0.0
C893 C 0.30084 0.39323 0.32435 0.0
C894 C 0.35916 0.41542 0.32529 0.0
C895 C 0.42069 0.39973 0.32669 0.0
C896 C 0.35549 0.45567 0.32557 0.0
C897 C 0.23299 0.40939 0.32317 0.0
C898 C 0.33516 0.46998 0.31882 0.0
C899 C 0.31388 0.50674 0.31968 0.0
C900 C 0.31242 0.52916 0.32733 0.0
C901 C 0.34151 0.51605 0.33384 0.0
C902 C 0.36287 0.47938 0.33296 0.0
H903 H 0.19197 0.3899 0.32394 0.0
H904 H 0.22528 0.43569 0.32748 0.0
H905 H 0.22967 0.41576 0.31702 0.0
H906 H 0.33052 0.45195 0.31304 0.0
H907 H 0.29222 0.5162 0.31454 0.0
H908 H 0.85524 0.04464 0.34073 0.0
H909 H 0.90215 0.98255 0.33979 0.0
H910 H 0.85385 0.95858 0.31461 0.0
H911 H 0.80717 0.0206 0.31546 0.0
H912 H 0.80135 0.928 0.33523 0.0
H913 H 0.02827 0.89974 0.3163 0.0
H914 H 0.00536 0.94589 0.32127 0.0
H915 H 0.96356 0.9249 0.31222 0.0
C916 C 0.85727 0.02674 0.33491 0.0
C917 C 0.82579 0.03697 0.32822 0.0
C918 C 0.88412 0.99132 0.3344 0.0
C919 C 0.88039 0.96604 0.32717 0.0
C920 C 0.85743 0.9779 0.32023 0.0
H921 H 0.91277 0.73045 0.31349 0.0
H922 H 0.87003 0.7934 0.31433 0.0
C923 C 0.83067 0.0134 0.32074 0.0
C924 C 0.88577 0.92608 0.32728 0.0
H925 H 0.96845 0.84735 0.31908 0.0
C926 C 0.83826 0.91031 0.33176 0.0
C927 C 0.93322 0.90334 0.32264 0.0
C928 C 0.98591 0.91927 0.31788 0.0
C929 C 0.83648 0.87202 0.33166 0.0
C930 C 0.88389 0.84924 0.32702 0.0
C931 C 0.93157 0.86504 0.32255 0.0
C932 C 0.88834 0.80916 0.32705 0.0
C933 C 0.7834 0.8562 0.33639 0.0
C934 C 0.90785 0.79665 0.33405 0.0
C935 C 0.9318 0.76058 0.33361 0.0
C936 C 0.93762 0.73713 0.32613 0.0
C937 C 0.90967 0.7482 0.31932 0.0
C938 C 0.88548 0.78415 0.31977 0.0
H939 H 0.74053 0.87552 0.33779 0.0
H940 H 0.76476 0.82923 0.33308 0.0
H941 H 0.80502 0.85136 0.34215 0.0
H942 H 0.91082 0.81573 0.33971 0.0
H943 H 0.95292 0.7528 0.33896 0.0
H944 H 0.54829 1.00249 0.08894 0.0
H945 H 0.58955 0.06554 0.08938 0.0
H946 H 0.63272 0.04033 0.06408 0.0
H947 H 0.59116 0.97727 0.06355 0.0
H948 H 0.70483 0.10466 0.08352 0.0
H949 H 0.46567 0.11235 0.06717 0.0
H950 H 0.48564 0.07432 0.07223 0.0
H951 H 0.52294 0.07679 0.06271 0.0
C952 C 0.56964 1.00972 0.08355 0.0
C953 C 0.56472 0.98545 0.07616 0.0
C954 C 0.59277 0.04584 0.08381 0.0
C955 C 0.61177 0.05755 0.0767 0.0
C956 C 0.61678 0.03171 0.06958 0.0
H957 H 0.6983 0.26861 0.0648 0.0
H958 H 0.65466 0.20582 0.06397 0.0
C959 C 0.59341 0.9957 0.06931 0.0
C960 C 0.61508 0.09741 0.07647 0.0
H961 H 0.5314 0.16682 0.06961 0.0
C962 C 0.66711 0.11834 0.08049 0.0
C963 C 0.56491 0.11489 0.07257 0.0
C964 C 0.50624 0.0936 0.06847 0.0
C965 C 0.67122 0.15655 0.08056 0.0
C966 C 0.62124 0.174 0.07663 0.0
C967 C 0.56912 0.15311 0.07263 0.0
C968 C 0.62493 0.21384 0.07642 0.0
C969 C 0.72945 0.17797 0.08473 0.0
C970 C 0.61685 0.23959 0.08351 0.0
C971 C 0.64167 0.27544 0.08402 0.0
C972 C 0.67502 0.28561 0.07743 0.0
C973 C 0.67355 0.26144 0.07 0.0
C974 C 0.64885 0.2255 0.06951 0.0
H975 H 0.76932 0.15933 0.08627 0.0
H976 H 0.75123 0.19661 0.08091 0.0
H977 H 0.71184 0.19551 0.09037 0.0
H978 H 0.59743 0.23093 0.08885 0.0
H979 H 0.64098 0.29378 0.08979 0.0
H980 H 0.09807 0.47355 0.06375 0.0
H981 H 0.14504 0.53542 0.06433 0.0
H982 H 0.09845 0.56186 0.08954 0.0
H983 H 0.0522 0.50002 0.08904 0.0
H984 H 0.04888 0.59039 0.06823 0.0
H985 H 0.27022 0.61999 0.08798 0.0
H986 H 0.24542 0.57334 0.08359 0.0
H987 H 0.20353 0.5976 0.09235 0.0
C988 C 0.10085 0.49192 0.0695 0.0
C989 C 0.07003 0.48242 0.0763 0.0
C990 C 0.12751 0.52725 0.06981 0.0
C991 C 0.12418 0.55321 0.07695 0.0
C992 C 0.1019 0.54206 0.084 0.0
H993 H 0.15028 0.78886 0.09027 0.0
H994 H 0.10769 0.72573 0.08916 0.0
C995 C 0.07552 0.5066 0.0837 0.0
C996 C 0.13016 0.59302 0.07667 0.0
H997 H 0.20989 0.67237 0.0851 0.0
C998 C 0.0846 0.60834 0.07185 0.0
C999 C 0.176 0.61619 0.08148 0.0
C1000 C 0.22698 0.60093 0.08659 0.0
C1001 C 0.08308 0.64654 0.07181 0.0
C1002 C 0.12861 0.6697 0.07668 0.0
C1003 C 0.17441 0.65438 0.08146 0.0
C1004 C 0.13305 0.70975 0.07662 0.0
C1005 C 0.03221 0.66191 0.06671 0.0
C1006 C 0.15675 0.72212 0.06978 0.0
C1007 C 0.18079 0.75825 0.07037 0.0
C1008 C 0.18234 0.78196 0.07786 0.0
C1009 C 0.15062 0.77092 0.08445 0.0
C1010 C 0.12636 0.7349 0.08384 0.0
H1011 H 0.99042 0.64218 0.06497 0.0
H1012 H 0.01156 0.68862 0.06991 0.0
H1013 H 0.05662 0.6672 0.06115 0.0
H1014 H 0.16267 0.70293 0.06417 0.0
H1015 H 0.20476 0.76602 0.06518 0.0
H1016 H 0.58738 0.7989 0.71545 0.0
H1017 H 0.63286 0.7367 0.71462 0.0
H1018 H 0.60486 0.71629 0.68899 0.0
H1019 H 0.5585 0.77845 0.68976 0.0
H1020 H 0.52389 0.67334 0.69781 0.0
H1021 H 0.79142 0.66915 0.70621 0.0
H1022 H 0.74221 0.7033 0.71261 0.0
H1023 H 0.75523 0.70761 0.70233 0.0
C1024 C 0.59381 0.78184 0.70959 0.0
C1025 C 0.56771 0.79306 0.7027 0.0
C1026 C 0.62005 0.74632 0.70913 0.0
C1027 C 0.62123 0.72196 0.70176 0.0
C1028 C 0.60391 0.73487 0.69473 0.0
H1029 H 0.65765 0.48999 0.68761 0.0
H1030 H 0.61417 0.55291 0.68921 0.0
C1031 C 0.57779 0.77048 0.69518 0.0
C1032 C 0.62611 0.68184 0.70169 0.0
H1033 H 0.72792 0.61447 0.70636 0.0
C1034 C 0.56866 0.6603 0.69961 0.0
C1035 C 0.68399 0.66541 0.70423 0.0
C1036 C 0.74696 0.68744 0.70642 0.0
C1037 C 0.56762 0.62245 0.7 0.0
C1038 C 0.6258 0.60588 0.70244 0.0
C1039 C 0.68305 0.62752 0.70459 0.0
C1040 C 0.63153 0.56551 0.702 0.0
C1041 C 0.50431 0.60063 0.69787 0.0
C1042 C 0.65209 0.55122 0.70876 0.0
C1043 C 0.67731 0.51522 0.70786 0.0
C1044 C 0.68308 0.49351 0.70017 0.0
C1045 C 0.65462 0.50633 0.69359 0.0
C1046 C 0.62935 0.54225 0.6945 0.0
H1047 H 0.45971 0.61896 0.69862 0.0
H1048 H 0.50663 0.58682 0.6915 0.0
H1049 H 0.498 0.57886 0.70162 0.0
H1050 H 0.65381 0.56891 0.7146 0.0
H1051 H 0.69851 0.50602 0.71305 0.0
H1052 H 0.05332 0.27551 0.68912 0.0
H1053 H 0.0951 0.21244 0.6885 0.0
H1054 H 0.13401 0.23536 0.71391 0.0
H1055 H 0.09204 0.29844 0.71463 0.0
H1056 H 0.21024 0.17266 0.69474 0.0
H1057 H 0.96502 0.16372 0.70974 0.0
H1058 H 0.98708 0.20205 0.70486 0.0
H1059 H 0.02092 0.19925 0.71454 0.0
C1060 C 0.07392 0.2678 0.69451 0.0
C1061 C 0.06754 0.29135 0.70198 0.0
C1062 C 0.09738 0.23169 0.69414 0.0
C1063 C 0.11526 0.21932 0.70121 0.0
C1064 C 0.11904 0.24454 0.70844 0.0
H1065 H 0.19741 1.00784 0.71291 0.0
H1066 H 0.15335 0.07052 0.71367 0.0
C1067 C 0.09537 0.28054 0.70882 0.0
C1068 C 0.11794 0.17935 0.70129 0.0
H1069 H 0.03106 0.10931 0.70748 0.0
C1070 C 0.17127 0.15871 0.69751 0.0
C1071 C 0.06611 0.16155 0.70484 0.0
C1072 C 0.00617 0.18262 0.70868 0.0
C1073 C 0.17506 0.12044 0.69736 0.0
C1074 C 0.1235 0.10269 0.70096 0.0
C1075 C 0.07 0.12328 0.70471 0.0
C1076 C 0.12697 0.06283 0.70112 0.0
C1077 C 0.23463 0.09927 0.69345 0.0
C1078 C 0.12093 0.03732 0.69396 0.0
C1079 C 0.14604 1.00155 0.69349 0.0
C1080 C 0.17756 0.99126 0.70018 0.0
C1081 C 0.17405 0.01515 0.70764 0.0
C1082 C 0.14909 0.051 0.70809 0.0
H1083 H 0.27502 0.11808 0.69213 0.0
H1084 H 0.25506 0.08061 0.69736 0.0
H1085 H 0.2189 0.08176 0.68773 0.0
H1086 H 0.10298 0.04614 0.68857 0.0
H1087 H 0.14696 0.98339 0.6877 0.0
H1088 H 0.15479 0.98861 0.44384 0.0
H1089 H 0.22001 0.93141 0.44325 0.0
H1090 H 0.37303 0.99316 0.45778 0.0
H1091 H 0.30618 0.04961 0.45877 0.0
H1092 H 0.33158 0.90574 0.4378 0.0
H1093 H 0.35041 0.91435 0.47051 0.0
H1094 H 0.29839 0.9455 0.46611 0.0
H1095 H 0.38629 0.95486 0.46766 0.0
C1096 C 0.20257 0.98997 0.44686 0.0
C1097 C 0.22504 0.02368 0.45139 0.0
C1098 C 0.23986 0.95715 0.44656 0.0
C1099 C 0.30094 0.95731 0.45069 0.0
C1100 C 0.325 0.99154 0.45482 0.0
H1101 H 0.60179 0.7845 0.43944 0.0
H1102 H 0.52954 0.83857 0.44033 0.0
C1103 C 0.28707 0.02406 0.45529 0.0
C1104 C 0.3398 0.92203 0.45061 0.0
H1105 H 0.42651 0.87238 0.46259 0.0
C1106 C 0.35173 0.89841 0.44325 0.0
C1107 C 0.36499 0.91134 0.4577 0.0
C1108 C 0.34866 0.93265 0.46594 0.0
C1109 C 0.38944 0.86553 0.44276 0.0
C1110 C 0.41914 0.85647 0.44977 0.0
C1111 C 0.40531 0.87937 0.45716 0.0
C1112 C 0.46531 0.82387 0.44955 0.0
C1113 C 0.39541 0.84049 0.43469 0.0
C1114 C 0.45679 0.79826 0.45479 0.0
C1115 C 0.49987 0.76758 0.45447 0.0
C1116 C 0.55197 0.76157 0.44882 0.0
C1117 C 0.5614 0.78775 0.44376 0.0
C1118 C 0.51946 0.81866 0.4442 0.0
H1119 H 0.35168 0.84359 0.43084 0.0
H1120 H 0.44045 0.84831 0.43157 0.0
H1121 H 0.39951 0.81086 0.43529 0.0
H1122 H 0.4161 0.80164 0.45906 0.0
H1123 H 0.49127 0.74807 0.45847 0.0
H1124 H 0.05629 0.27519 0.46099 0.0
H1125 H 0.98779 0.33127 0.4616 0.0
H1126 H 0.93798 0.29832 0.43662 0.0
H1127 H 0.00678 0.24299 0.43592 0.0
H1128 H 0.97221 0.36996 0.43968 0.0
H1129 H 0.78826 0.34444 0.46247 0.0
H1130 H 0.87297 0.34417 0.46588 0.0
H1131 H 0.8452 0.30904 0.45774 0.0
C1132 C 0.03004 0.27961 0.45565 0.0
C1133 C 0.03721 0.25424 0.44842 0.0
C1134 C 0.99057 0.31174 0.45601 0.0
C1135 C 0.95667 0.31909 0.44917 0.0
C1136 C 0.9633 0.29354 0.44199 0.0
H1137 H 0.69712 0.50098 0.43877 0.0
H1138 H 0.76264 0.44335 0.43757 0.0
C1139 C 0.00277 0.26168 0.44161 0.0
C1140 C 0.9162 0.3538 0.44934 0.0
H1141 H 0.78597 0.40418 0.45879 0.0
C1142 C 0.93122 0.37725 0.44383 0.0
C1143 C 0.86231 0.36353 0.45472 0.0
C1144 C 0.84067 0.33882 0.46049 0.0
C1145 C 0.89525 0.4103 0.44368 0.0
C1146 C 0.84202 0.42024 0.44913 0.0
C1147 C 0.82668 0.3967 0.4546 0.0
C1148 C 0.80378 0.45578 0.44956 0.0
C1149 C 0.91577 0.43488 0.43784 0.0
C1150 C 0.80465 0.48206 0.45666 0.0
C1151 C 0.7676 0.51489 0.45735 0.0
C1152 C 0.72777 0.52254 0.45097 0.0
C1153 C 0.72749 0.49638 0.44378 0.0
C1154 C 0.76506 0.46336 0.44309 0.0
H1155 H 0.96598 0.42752 0.43527 0.0
H1156 H 0.87932 0.43175 0.43284 0.0
H1157 H 0.91608 0.46451 0.44079 0.0
H1158 H 0.83395 0.47707 0.46174 0.0
H1159 H 0.76946 0.53406 0.463 0.0
H1160 H 0.3016 0.22582 0.82037 0.0
H1161 H 0.37056 0.28161 0.82145 0.0
H1162 H 0.2152 0.34552 0.83514 0.0
H1163 H 0.14826 0.28899 0.83452 0.0
H1164 H 0.35668 0.34021 0.81581 0.0
H1165 H 0.36538 0.38607 0.84867 0.0
H1166 H 0.3319 0.34159 0.84417 0.0
H1167 H 0.28133 0.38289 0.84503 0.0
C1168 C 0.28305 0.25164 0.8238 0.0
C1169 C 0.22022 0.25287 0.82752 0.0
C1170 C 0.32226 0.2837 0.82436 0.0
C1171 C 0.29912 0.31816 0.82849 0.0
C1172 C 0.23587 0.31937 0.83217 0.0
H1173 H 0.49133 0.52522 0.81928 0.0
H1174 H 0.41681 0.47154 0.8187 0.0
C1175 C 0.19736 0.28699 0.8318 0.0
C1176 C 0.34014 0.35265 0.82856 0.0
H1177 H 0.40361 0.42934 0.84076 0.0
C1178 C 0.3672 0.35951 0.8213 0.0
C1179 C 0.35483 0.37806 0.83569 0.0
C1180 C 0.33242 0.3716 0.84383 0.0
C1181 C 0.40861 0.39036 0.82096 0.0
C1182 C 0.42139 0.41641 0.82804 0.0
C1183 C 0.39372 0.40978 0.83529 0.0
C1184 C 0.46625 0.44947 0.82822 0.0
C1185 C 0.44026 0.39368 0.81304 0.0
C1186 C 0.51796 0.45604 0.8339 0.0
C1187 C 0.5592 0.4872 0.83438 0.0
C1188 C 0.55076 0.51266 0.82913 0.0
C1189 C 0.49967 0.50601 0.82336 0.0
C1190 C 0.45727 0.47507 0.82299 0.0
H1191 H 0.44237 0.36641 0.80894 0.0
H1192 H 0.40992 0.41268 0.81007 0.0
H1193 H 0.49172 0.40491 0.81387 0.0
H1194 H 0.52662 0.43695 0.838 0.0
H1195 H 0.59825 0.49121 0.83887 0.0
H1196 H 0.74213 0.74862 0.81353 0.0
H1197 H 0.80714 0.80541 0.8149 0.0
H1198 H 0.78049 0.82325 0.84052 0.0
H1199 H 0.71437 0.76578 0.83921 0.0
H1200 H 0.76675 0.87841 0.82149 0.0
H1201 H 0.98487 0.8337 0.83767 0.0
H1202 H 0.92505 0.80113 0.83248 0.0
H1203 H 0.90451 0.82841 0.84205 0.0
C1204 C 0.75027 0.7642 0.8195 0.0
C1205 C 0.723 0.75211 0.82628 0.0
C1206 C 0.78747 0.79696 0.82026 0.0
C1207 C 0.79939 0.81863 0.8278 0.0
C1208 C 0.77279 0.80678 0.83462 0.0
H1209 H 0.0239 0.0225 0.84254 0.0
H1210 H 0.95505 0.9673 0.84166 0.0
C1211 C 0.73484 0.77391 0.83387 0.0
C1212 C 0.83873 0.85379 0.82838 0.0
H1213 H 0.98547 0.89534 0.83531 0.0
C1214 C 0.81457 0.88211 0.82452 0.0
C1215 C 0.90125 0.85871 0.83231 0.0
C1216 C 0.93102 0.82885 0.83632 0.0
C1217 C 0.85066 0.91523 0.82455 0.0
C1218 C 0.91356 0.92 0.8284 0.0
C1219 C 0.9375 0.89175 0.83231 0.0
C1220 C 0.95432 0.95457 0.82872 0.0
C1221 C 0.8203 0.94519 0.82062 0.0
C1222 C 0.97736 0.96627 0.82171 0.0
C1223 C 0.01727 0.99828 0.82218 0.0
C1224 C 0.0352 0.01923 0.82967 0.0
C1225 C 0.01141 1.0074 0.83664 0.0
C1226 C 0.97191 0.97557 0.83616 0.0
H1227 H 0.76562 0.94137 0.81976 0.0
H1228 H 0.82961 0.97311 0.82423 0.0
H1229 H 0.84336 0.94425 0.81463 0.0
H1230 H 0.96558 0.95025 0.81588 0.0
H1231 H 0.03495 1.00621 0.81668 0.0
H1232 H 0.44741 0.24941 0.5674 0.0
H1233 H 0.51413 0.1927 0.56693 0.0
H1234 H 0.57083 0.22871 0.59161 0.0
H1235 H 0.5036 0.28461 0.59218 0.0
H1236 H 0.64573 0.17963 0.56923 0.0
H1237 H 0.50057 0.12692 0.59264 0.0
H1238 H 0.4724 0.16533 0.58815 0.0
H1239 H 0.53364 0.17251 0.59604 0.0
C1240 C 0.47444 0.24538 0.57271 0.0
C1241 C 0.46944 0.27164 0.57984 0.0
C1242 C 0.51247 0.21281 0.57244 0.0
C1243 C 0.54635 0.20571 0.5793 0.0
C1244 C 0.54362 0.23268 0.5863 0.0
H1245 H 0.80835 0.02461 0.58898 0.0
H1246 H 0.7437 0.08255 0.59007 0.0
C1247 C 0.5054 0.26496 0.58659 0.0
C1248 C 0.58495 0.17042 0.57915 0.0
H1249 H 0.60208 0.09539 0.58858 0.0
C1250 C 0.63583 0.16119 0.57344 0.0
C1251 C 0.57255 0.14611 0.58465 0.0
C1252 C 0.51641 0.15296 0.59066 0.0
C1253 C 0.67495 0.12893 0.57315 0.0
C1254 C 0.66261 0.10471 0.57866 0.0
C1255 C 0.61203 0.11397 0.5844 0.0
C1256 C 0.69954 0.06883 0.57827 0.0
C1257 C 0.72998 0.12131 0.56701 0.0
C1258 C 0.69476 0.04125 0.5714 0.0
C1259 C 0.73115 1.00822 0.57078 0.0
C1260 C 0.77349 1.00153 0.57702 0.0
C1261 C 0.77637 0.02861 0.58405 0.0
C1262 C 0.73957 0.06186 0.58467 0.0
H1263 H 0.7449 0.14685 0.56476 0.0
H1264 H 0.77461 0.10959 0.56954 0.0
H1265 H 0.71217 0.10078 0.56182 0.0
H1266 H 0.66314 0.04541 0.56646 0.0
H1267 H 0.72679 0.9881 0.56529 0.0
H1268 H 0.24458 0.49357 0.56403 0.0
H1269 H 0.17756 0.54963 0.5653 0.0
H1270 H 0.23675 0.58019 0.59004 0.0
H1271 H 0.30602 0.52399 0.58876 0.0
H1272 H 0.07222 0.57369 0.57436 0.0
H1273 H 0.27864 0.67482 0.58192 0.0
H1274 H 0.29345 0.626 0.57844 0.0
H1275 H 0.27048 0.64264 0.58871 0.0
C1276 C 0.24364 0.512 0.56978 0.0
C1277 C 0.28136 0.50397 0.5763 0.0
C1278 C 0.20495 0.54427 0.57049 0.0
C1279 C 0.20256 0.56977 0.57772 0.0
C1280 C 0.23877 0.56155 0.58432 0.0
H1281 H 0.98516 0.77716 0.59212 0.0
H1282 H 0.05493 0.72203 0.59126 0.0
C1283 C 0.27793 0.52912 0.58361 0.0
C1284 C 0.16146 0.60446 0.57823 0.0
H1285 H 0.16917 0.6995 0.58222 0.0
C1286 C 0.09363 0.60117 0.57606 0.0
C1287 C 0.18899 0.64054 0.58042 0.0
C1288 C 0.26198 0.64639 0.58243 0.0
C1289 C 0.05274 0.6326 0.57612 0.0
C1290 C 0.0803 0.66862 0.57829 0.0
C1291 C 0.14794 0.67198 0.58051 0.0
C1292 C 0.0392 0.70308 0.57858 0.0
C1293 C 0.97988 0.62692 0.57401 0.0
C1294 C 0.00775 0.71159 0.5717 0.0
C1295 C 0.96761 0.7435 0.57215 0.0
C1296 C 0.95786 0.7676 0.57951 0.0
C1297 C 0.99088 0.75933 0.58634 0.0
C1298 C 0.03111 0.7277 0.58587 0.0
H1299 H 0.96314 0.59827 0.57432 0.0
H1300 H 0.94828 0.64687 0.57809 0.0
H1301 H 0.97169 0.63172 0.5678 0.0
H1302 H 0.01403 0.69345 0.56596 0.0
H1303 H 0.94315 0.74885 0.56677 0.0
H1304 H 0.46334 0.51923 0.21136 0.0
H1305 H 0.53315 0.57509 0.21208 0.0
H1306 H 0.541 0.55814 0.18629 0.0
H1307 H 0.47196 0.50302 0.18549 0.0
H1308 H 0.66298 0.58472 0.2058 0.0
H1309 H 0.47507 0.66542 0.19208 0.0
H1310 H 0.45405 0.62392 0.19592 0.0
H1311 H 0.4926 0.62055 0.18624 0.0
C1312 C 0.48014 0.5273 0.20584 0.0
C1313 C 0.46131 0.50644 0.19838 0.0
C1314 C 0.52002 0.55933 0.20626 0.0
C1315 C 0.54141 0.5714 0.19923 0.0
C1316 C 0.52406 0.55009 0.19181 0.0
H1317 H 0.78925 0.75747 0.18905 0.0
H1318 H 0.72273 0.70004 0.18776 0.0
C1319 C 0.48464 0.51824 0.19138 0.0
C1320 C 0.58226 0.60594 0.19957 0.0
H1321 H 0.58444 0.69077 0.19363 0.0
C1322 C 0.64557 0.60795 0.20318 0.0
C1323 C 0.56004 0.63634 0.19609 0.0
C1324 C 0.4915 0.63675 0.19242 0.0
C1325 C 0.68729 0.63911 0.20332 0.0
C1326 C 0.66501 0.66949 0.19986 0.0
C1327 C 0.60189 0.66744 0.19622 0.0
C1328 C 0.70471 0.70453 0.20048 0.0
C1329 C 0.75546 0.63914 0.20709 0.0
C1330 C 0.7157 0.72656 0.20801 0.0
C1331 C 0.7528 0.75937 0.20875 0.0
C1332 C 0.78048 0.77129 0.20198 0.0
C1333 C 0.76886 0.74935 0.19439 0.0
C1334 C 0.73088 0.71646 0.19365 0.0
H1335 H 0.77171 0.61068 0.20765 0.0
H1336 H 0.79318 0.6514 0.20353 0.0
H1337 H 0.754 0.65624 0.21319 0.0
H1338 H 0.69538 0.71837 0.21335 0.0
H1339 H 0.76042 0.77517 0.21472 0.0
H1340 H 0.30684 0.24995 0.18921 0.0
H1341 H 0.23819 0.19342 0.18792 0.0
H1342 H 0.16321 0.22932 0.21186 0.0
H1343 H 0.22956 0.28553 0.21313 0.0
H1344 H 0.24068 0.13712 0.19672 0.0
H1345 H 0.99154 0.20296 0.19998 0.0
H1346 H 0.06565 0.22814 0.19814 0.0
H1347 H 0.04582 0.22122 0.20813 0.0
C1348 C 0.27487 0.2461 0.19414 0.0
C1349 C 0.27373 0.27275 0.20124 0.0
C1350 C 0.23581 0.21361 0.19342 0.0
C1351 C 0.19429 0.20717 0.19974 0.0
C1352 C 0.19314 0.2338 0.2068 0.0
H1353 H 0.94075 0.02716 0.21073 0.0
H1354 H 0.00996 0.08309 0.21133 0.0
C1355 C 0.2318 0.26607 0.20752 0.0
C1356 C 0.1542 0.17215 0.19919 0.0
H1357 H 0.99666 0.13952 0.20167 0.0
C1358 C 0.18723 0.1377 0.19772 0.0
C1359 C 0.08428 0.17258 0.20054 0.0
C1360 C 0.04463 0.20819 0.20171 0.0
C1361 C 0.15286 0.10406 0.19777 0.0
C1362 C 0.0832 0.1046 0.19923 0.0
C1363 C 0.05008 0.13898 0.20064 0.0
C1364 C 0.0434 0.06976 0.19902 0.0
C1365 C 0.19178 0.06821 0.19643 0.0
C1366 C 0.03879 0.04355 0.19192 0.0
C1367 C 0.99926 1.01171 0.19155 0.0
C1368 C 0.96298 1.00501 0.19828 0.0
C1369 C 0.9683 0.03108 0.20544 0.0
C1370 C 0.00766 0.06321 0.20579 0.0
H1371 H 0.246 0.07309 0.1975 0.0
H1372 H 0.17359 0.04929 0.20041 0.0
H1373 H 0.18515 0.05405 0.19013 0.0
H1374 H 0.06471 0.04811 0.18657 0.0
H1375 H 0.99649 0.99251 0.18591 0.0
H1376 H 0.18749 0.49899 0.93991 0.0
H1377 H 0.25263 0.44133 0.93893 0.0
H1378 H 0.34177 0.4824 0.96192 0.0
H1379 H 0.27741 0.53949 0.96297 0.0
H1380 H 0.39366 0.42869 0.93961 0.0
H1381 H 0.26411 0.3821 0.96497 0.0
H1382 H 0.23146 0.41835 0.9601 0.0
H1383 H 0.29747 0.42827 0.96734 0.0
C1384 C 0.22142 0.4959 0.94472 0.0
C1385 C 0.22655 0.52403 0.95154 0.0
C1386 C 0.2585 0.46282 0.94417 0.0
C1387 C 0.30114 0.45705 0.95044 0.0
C1388 C 0.30811 0.48564 0.95709 0.0
H1389 H 0.56251 0.27956 0.96096 0.0
H1390 H 0.49489 0.336 0.96149 0.0
C1391 C 0.27134 0.51853 0.95765 0.0
C1392 C 0.33862 0.42139 0.9501 0.0
H1393 H 0.36158 0.34868 0.96007 0.0
C1394 C 0.38625 0.41105 0.94405 0.0
C1395 C 0.32951 0.39836 0.95592 0.0
C1396 C 0.27747 0.40706 0.96241 0.0
C1397 C 0.42599 0.37901 0.94376 0.0
C1398 C 0.41689 0.35592 0.94959 0.0
C1399 C 0.36896 0.36622 0.95562 0.0
C1400 C 0.45588 0.3208 0.94944 0.0
C1401 C 0.47886 0.37091 0.93735 0.0
C1402 C 0.45508 0.29271 0.94262 0.0
C1403 C 0.49377 0.2606 0.9423 0.0
C1404 C 0.53379 0.25524 0.94884 0.0
C1405 C 0.53231 0.2826 0.95582 0.0
C1406 C 0.49378 0.31501 0.95611 0.0
H1407 H 0.49311 0.39632 0.93501 0.0
H1408 H 0.52436 0.35902 0.93965 0.0
H1409 H 0.45909 0.35052 0.93226 0.0
H1410 H 0.42479 0.29571 0.93749 0.0
H1411 H 0.49281 0.24005 0.93685 0.0
H1412 H 0.0152 0.76021 0.96032 0.0
H1413 H 0.94205 0.81466 0.96088 0.0
H1414 H 0.9975 0.82262 0.93668 0.0
H1415 H 0.06863 0.76839 0.936 0.0
H1416 H 0.96873 0.88636 0.95926 0.0
H1417 H 0.79792 0.8251 0.93479 0.0
H1418 H 0.85668 0.79742 0.93925 0.0
H1419 H 0.88368 0.82337 0.93175 0.0
C1420 C 0.01144 0.77342 0.95511 0.0
C1421 C 0.0473 0.7593 0.94808 0.0
C1422 C 0.96956 0.80462 0.95543 0.0
C1423 C 0.96258 0.82238 0.94874 0.0
C1424 C 0.99984 0.80888 0.94183 0.0
H1425 H 0.74081 0.01942 0.93932 0.0
H1426 H 0.813 0.96399 0.93807 0.0
C1427 C 0.04106 0.77776 0.94148 0.0
C1428 C 0.91818 0.8556 0.949 0.0
H1429 H 0.78891 0.89034 0.93931 0.0
C1430 C 0.92916 0.88706 0.95493 0.0
C1431 C 0.86671 0.85695 0.9433 0.0
C1432 C 0.85003 0.82379 0.93696 0.0
C1433 C 0.89113 0.91972 0.95525 0.0
C1434 C 0.83935 0.921 0.94959 0.0
C1435 C 0.82861 0.88964 0.94363 0.0
C1436 C 0.79375 0.95385 0.95007 0.0
C1437 C 0.90788 0.95286 0.9616 0.0
C1438 C 0.75707 0.966 0.95709 0.0
C1439 C 0.71667 0.99755 0.95782 0.0
C1440 C 0.71053 0.01782 0.95152 0.0
C1441 C 0.74463 1.00471 0.94431 0.0
C1442 C 0.78599 0.97304 0.94361 0.0
H1443 H 0.96029 0.95175 0.96368 0.0
H1444 H 0.90038 0.97928 0.95935 0.0
H1445 H 0.87491 0.95296 0.96686 0.0
H1446 H 0.75988 0.95111 0.96206 0.0
H1447 H 0.69002 1.00607 0.96341 0.0
H1448 H 0.20503 0.77161 0.33908 0.0
H1449 H 0.27164 0.82894 0.34037 0.0
H1450 H 0.32328 0.80213 0.31535 0.0
H1451 H 0.25805 0.74536 0.314 0.0
H1452 H 0.41367 0.83851 0.3364 0.0
H1453 H 0.24316 0.90858 0.31802 0.0
H1454 H 0.21756 0.86949 0.32247 0.0
H1455 H 0.26708 0.86226 0.3135 0.0
C1456 C 0.23093 0.77778 0.33387 0.0
C1457 C 0.22566 0.75359 0.32644 0.0
C1458 C 0.26892 0.81065 0.33461 0.0
C1459 C 0.30169 0.82027 0.32792 0.0
C1460 C 0.29765 0.7958 0.32057 0.0
H1461 H 0.54883 1.00346 0.31725 0.0
H1462 H 0.48035 0.94722 0.31658 0.0
C1463 C 0.26037 0.76303 0.31984 0.0
C1464 C 0.34061 0.85558 0.32851 0.0
H1465 H 0.34878 0.93684 0.32114 0.0
C1466 C 0.39916 0.86016 0.33313 0.0
C1467 C 0.32222 0.88378 0.32417 0.0
C1468 C 0.2588 0.8811 0.31931 0.0
C1469 C 0.44042 0.8916 0.33338 0.0
C1470 C 0.42206 0.91985 0.32903 0.0
C1471 C 0.36327 0.9153 0.32445 0.0
C1472 C 0.46232 0.95464 0.32935 0.0
C1473 C 0.50446 0.89368 0.33812 0.0
C1474 C 0.4738 0.97823 0.3367 0.0
C1475 C 0.5127 1.0103 0.3371 0.0
C1476 C 0.54113 0.02008 0.33015 0.0
C1477 C 0.52801 0.99698 0.32274 0.0
C1478 C 0.48887 0.96472 0.32235 0.0
H1479 H 0.52081 0.86581 0.33909 0.0
H1480 H 0.54517 0.9062 0.33504 0.0
H1481 H 0.49646 0.91124 0.34408 0.0
H1482 H 0.45265 0.97182 0.34217 0.0
H1483 H 0.52087 0.02732 0.34293 0.0
H1484 H 0.04628 0.50308 0.31707 0.0
H1485 H 0.97619 0.44745 0.31638 0.0
H1486 H 0.94399 0.47379 0.34188 0.0
H1487 H 0.01252 0.52919 0.34263 0.0
H1488 H 0.99484 0.38649 0.32407 0.0
H1489 H 0.75447 0.45495 0.33374 0.0
H1490 H 0.82435 0.47996 0.33059 0.0
H1491 H 0.82211 0.46913 0.34053 0.0
C1492 C 0.02347 0.49736 0.32251 0.0
C1493 C 0.03502 0.52106 0.32989 0.0
C1494 C 0.98357 0.46538 0.32212 0.0
C1495 C 0.95364 0.45652 0.32906 0.0
C1496 C 0.96493 0.48023 0.3364 0.0
H1497 H 0.70137 0.2717 0.33897 0.0
H1498 H 0.77027 0.32816 0.34027 0.0
C1499 C 0.00474 0.51199 0.33681 0.0
C1500 C 0.91302 0.42183 0.32874 0.0
H1501 H 0.75929 0.38963 0.33314 0.0
C1502 C 0.94321 0.38725 0.326 0.0
C1503 C 0.84576 0.42252 0.33137 0.0
C1504 C 0.80946 0.45862 0.33416 0.0
C1505 C 0.9086 0.3536 0.3259 0.0
C1506 C 0.84101 0.35426 0.32843 0.0
C1507 C 0.81097 0.38886 0.33123 0.0
C1508 C 0.79986 0.31954 0.32779 0.0
C1509 C 0.94558 0.3176 0.32325 0.0
C1510 C 0.79248 0.29594 0.32036 0.0
C1511 C 0.75378 0.26369 0.31962 0.0
C1512 C 0.72014 0.25402 0.32627 0.0
C1513 C 0.7268 0.27789 0.33373 0.0
C1514 C 0.76609 0.31032 0.33447 0.0
H1515 H 1.00028 0.32131 0.32411 0.0
H1516 H 0.92855 0.29581 0.32659 0.0
H1517 H 0.93647 0.30772 0.31677 0.0
H1518 H 0.816 0.30273 0.31506 0.0
H1519 H 0.74955 0.24658 0.31374 0.0
H1520 H 0.4573 0.75385 0.06728 0.0
H1521 H 0.52638 0.69783 0.06664 0.0
H1522 H 0.55024 0.72135 0.09229 0.0
H1523 H 0.48148 0.77665 0.09302 0.0
H1524 H 0.65753 0.68772 0.0715 0.0
H1525 H 0.48279 0.61503 0.08879 0.0
H1526 H 0.45889 0.65557 0.08476 0.0
H1527 H 0.50593 0.66042 0.09393 0.0
C1528 C 0.47747 0.74721 0.07279 0.0
C1529 C 0.46308 0.76992 0.08021 0.0
C1530 C 0.51692 0.71505 0.07241 0.0
C1531 C 0.54251 0.70472 0.07944 0.0
C1532 C 0.52984 0.72796 0.0868 0.0
H1533 H 0.79817 0.52099 0.08928 0.0
H1534 H 0.73165 0.57842 0.09059 0.0
C1535 C 0.49064 0.75992 0.08719 0.0
C1536 C 0.58298 0.67002 0.07914 0.0
H1537 H 0.59047 0.58815 0.0863 0.0
C1538 C 0.64259 0.66592 0.07471 0.0
C1539 C 0.56401 0.64142 0.08335 0.0
C1540 C 0.49912 0.64305 0.08792 0.0
C1541 C 0.68384 0.63449 0.07446 0.0
C1542 C 0.66485 0.60594 0.07867 0.0
C1543 C 0.60547 0.61008 0.08313 0.0
C1544 C 0.70389 0.57066 0.07806 0.0
C1545 C 0.74808 0.63228 0.06976 0.0
C1546 C 0.70922 0.54669 0.07066 0.0
C1547 C 0.74644 0.5139 0.06992 0.0
C1548 C 0.77983 0.50391 0.07656 0.0
C1549 C 0.77336 0.52761 0.08404 0.0
C1550 C 0.7354 0.56052 0.08479 0.0
H1551 H 0.76397 0.65997 0.06863 0.0
H1552 H 0.78877 0.62041 0.07297 0.0
H1553 H 0.74076 0.61388 0.06388 0.0
H1554 H 0.68456 0.55341 0.06542 0.0
H1555 H 0.74969 0.49662 0.06404 0.0
H1556 H 0.29492 0.02088 0.08913 0.0
H1557 H 0.22579 0.07726 0.0904 0.0
H1558 H 0.17985 0.05148 0.0652 0.0
H1559 H 0.24648 0.99538 0.06391 0.0
H1560 H 0.23672 0.13855 0.08326 0.0
H1561 H 0.99572 0.07026 0.07424 0.0
H1562 H 0.06747 0.04475 0.07672 0.0
H1563 H 0.05943 0.05661 0.0669 0.0
C1564 C 0.26933 0.02695 0.08388 0.0
C1565 C 0.27601 1.00301 0.07644 0.0
C1566 C 0.22994 0.05934 0.08461 0.0
C1567 C 0.1961 0.06846 0.07793 0.0
C1568 C 0.20342 0.04477 0.07051 0.0
H1569 H 0.95129 0.2524 0.0671 0.0
H1570 H 0.02125 0.19672 0.06643 0.0
C1571 C 0.24221 1.01254 0.06978 0.0
C1572 C 0.15499 0.10318 0.07855 0.0
H1573 H 0.00121 0.13542 0.07416 0.0
C1574 C 0.18504 0.13777 0.08134 0.0
C1575 C 0.08741 0.10252 0.07602 0.0
C1576 C 0.0504 0.06652 0.07338 0.0
C1577 C 0.15025 0.17144 0.08148 0.0
C1578 C 0.08303 0.17074 0.07884 0.0
C1579 C 0.05283 0.13617 0.0761 0.0
C1580 C 0.04244 0.20541 0.07914 0.0
C1581 C 0.18644 0.20755 0.08427 0.0
C1582 C 0.03046 0.2289 0.08649 0.0
C1583 C 0.99065 0.26066 0.08689 0.0
C1584 C 0.96115 0.26996 0.07995 0.0
C1585 C 0.97343 0.24648 0.07256 0.0
C1586 C 0.01328 0.21448 0.07218 0.0
H1587 H 0.24145 0.20388 0.08392 0.0
H1588 H 0.17187 0.22878 0.08065 0.0
H1589 H 0.17327 0.21822 0.09061 0.0
H1590 H 0.0509 0.2223 0.09198 0.0
H1591 H 0.98234 0.27772 0.09271 0.0
H1592 H 0.44711 0.02583 0.7108 0.0
H1593 H 0.51584 0.08186 0.71132 0.0
H1594 H 0.56044 0.04976 0.68618 0.0
H1595 H 0.49162 0.9945 0.68557 0.0
H1596 H 0.64831 0.09254 0.70813 0.0
H1597 H 0.49418 0.15423 0.68675 0.0
H1598 H 0.46612 0.11531 0.69108 0.0
H1599 H 0.52271 0.10827 0.68271 0.0
C1600 C 0.47177 0.03059 0.70539 0.0
C1601 C 0.46307 1.00549 0.69813 0.0
C1602 C 0.51103 0.06278 0.70569 0.0
C1603 C 0.54234 0.07077 0.69874 0.0
C1604 C 0.53547 0.04509 0.69158 0.0
H1605 H 0.80699 0.25136 0.68908 0.0
H1606 H 0.74061 0.19396 0.68787 0.0
C1607 C 0.49626 0.01314 0.69127 0.0
C1608 C 0.58279 0.10553 0.69896 0.0
H1609 H 0.59884 0.18309 0.69033 0.0
C1610 C 0.63715 0.11237 0.70426 0.0
C1611 C 0.56888 0.13161 0.69389 0.0
C1612 C 0.50944 0.12726 0.68834 0.0
C1613 C 0.67808 0.14397 0.70455 0.0
C1614 C 0.6641 0.17002 0.6995 0.0
C1615 C 0.61007 0.16313 0.69416 0.0
C1616 C 0.70278 0.20548 0.70001 0.0
C1617 C 0.73679 0.14892 0.71021 0.0
C1618 C 0.7024 0.23166 0.70714 0.0
C1619 C 0.73972 0.26442 0.70783 0.0
C1620 C 0.77878 0.27227 0.7014 0.0
C1621 C 0.77769 0.24648 0.69416 0.0
C1622 C 0.73983 0.21354 0.69346 0.0
H1623 H 0.75151 0.12232 0.71202 0.0
H1624 H 0.78052 0.16036 0.70745 0.0
H1625 H 0.72308 0.16874 0.71571 0.0
H1626 H 0.67328 0.22668 0.71222 0.0
H1627 H 0.73852 0.28343 0.7135 0.0
H1628 H 0.99776 0.49456 0.68594 0.0
H1629 H 0.06681 0.54993 0.68688 0.0
H1630 H 0.0132 0.58213 0.71177 0.0
H1631 H 0.94463 0.526 0.71092 0.0
H1632 H 0.03274 0.62145 0.68995 0.0
H1633 H 0.21224 0.59543 0.71317 0.0
H1634 H 0.1559 0.56012 0.70828 0.0
H1635 H 0.12697 0.59513 0.71638 0.0
C1636 C 0.00101 0.51309 0.69167 0.0
C1637 C 0.96554 0.50543 0.69837 0.0
C1638 C 0.04062 0.54498 0.69218 0.0
C1639 C 0.04626 0.57031 0.69941 0.0
C1640 C 0.01124 0.56275 0.70615 0.0
H1641 H 0.23462 0.78512 0.71383 0.0
H1642 H 0.16939 0.72828 0.71249 0.0
C1643 C 0.97172 0.5306 0.70566 0.0
C1644 C 0.08684 0.60506 0.69973 0.0
H1645 H 0.2154 0.65535 0.70959 0.0
C1646 C 0.07294 0.62868 0.69422 0.0
C1647 C 0.13968 0.61473 0.70527 0.0
C1648 C 0.16014 0.58987 0.71106 0.0
C1649 C 0.10902 0.66179 0.69421 0.0
C1650 C 0.16126 0.67163 0.69981 0.0
C1651 C 0.17543 0.64796 0.70529 0.0
C1652 C 0.20004 0.70702 0.70032 0.0
C1653 C 0.08968 0.6865 0.68835 0.0
C1654 C 0.23937 0.7145 0.6939 0.0
C1655 C 0.27723 0.74739 0.69464 0.0
C1656 C 0.27675 0.77353 0.70183 0.0
C1657 C 0.23655 0.76595 0.70818 0.0
C1658 C 0.19911 0.73322 0.70745 0.0
H1659 H 0.03954 0.67945 0.68572 0.0
H1660 H 0.08982 0.71614 0.69128 0.0
H1661 H 0.12647 0.68305 0.68338 0.0
H1662 H 0.24195 0.69454 0.68838 0.0
H1663 H 0.30786 0.75195 0.68964 0.0
H1664 H 0.36361 0.15948 0.42073 0.0
H1665 H 0.42068 0.16335 0.4081 0.0
H1666 H 0.23296 0.18624 0.39754 0.0
H1667 H 0.17596 0.18298 0.41018 0.0
H1668 H 0.40404 0.12224 0.39303 0.0
H1669 H 0.34723 0.26989 0.39223 0.0
H1670 H 0.33449 0.2497 0.40109 0.0
H1671 H 0.27496 0.24182 0.39303 0.0
C1672 C 0.33455 0.16546 0.41572 0.0
C1673 C 0.26529 0.17119 0.41649 0.0
C1674 C 0.36724 0.16768 0.40849 0.0
C1675 C 0.33155 0.17586 0.40187 0.0
C1676 C 0.26212 0.18092 0.40259 0.0
H1677 H 0.45259 0.19267 0.35267 0.0
H1678 H 0.39079 0.19652 0.36536 0.0
C1679 C 0.22945 0.17878 0.40982 0.0
C1680 C 0.36678 0.17805 0.39417 0.0
H1681 H 0.39889 0.23538 0.38068 0.0
C1682 C 0.40309 0.14706 0.39036 0.0
C1683 C 0.36518 0.21028 0.3906 0.0
C1684 C 0.32888 0.24495 0.39447 0.0
C1685 C 0.43719 0.14723 0.38311 0.0
C1686 C 0.43677 0.17971 0.3796 0.0
C1687 C 0.39969 0.21055 0.38335 0.0
C1688 C 0.47546 0.18218 0.37215 0.0
C1689 C 0.47208 0.11211 0.37918 0.0
C1690 C 0.54431 0.17489 0.37181 0.0
C1691 C 0.5793 0.17261 0.36459 0.0
C1692 C 0.54688 0.17855 0.35757 0.0
C1693 C 0.47916 0.18871 0.35802 0.0
C1694 C 0.44373 0.1905 0.36526 0.0
H1695 H 0.45055 0.08721 0.38114 0.0
H1696 H 0.46885 0.10828 0.37254 0.0
H1697 H 0.52551 0.11368 0.38092 0.0
H1698 H 0.57068 0.16953 0.37706 0.0
H1699 H 0.63135 0.1645 0.36442 0.0
H1700 H 0.67619 0.09045 0.36802 0.0
H1701 H 0.7323 0.08768 0.38076 0.0
H1702 H 0.91941 0.11462 0.37063 0.0
H1703 H 0.86337 0.11794 0.35792 0.0
H1704 H 0.8347 0.04295 0.38431 0.0
H1705 H 0.9123 0.19041 0.39119 0.0
H1706 H 0.85248 0.17351 0.38344 0.0
H1707 H 0.94043 0.16713 0.38156 0.0
C1708 C 0.72928 0.09591 0.36851 0.0
C1709 C 0.76528 0.10458 0.36196 0.0
C1710 C 0.76134 0.09426 0.3758 0.0
C1711 C 0.83006 0.10143 0.37673 0.0
C1712 C 0.86616 0.10975 0.37015 0.0
H1713 H 0.12592 0.11349 0.41405 0.0
H1714 H 0.06388 0.10775 0.40151 0.0
C1715 C 0.83411 0.11147 0.36287 0.0
C1716 C 0.86413 0.09966 0.38451 0.0
H1717 H 0.96033 0.15009 0.39919 0.0
C1718 C 0.86188 0.06644 0.38759 0.0
C1719 C 0.89932 0.13034 0.38884 0.0
C1720 C 0.90084 0.16747 0.38614 0.0
C1721 C 0.89575 0.06264 0.3947 0.0
C1722 C 0.93211 0.0931 0.39895 0.0
C1723 C 0.9331 0.12654 0.39593 0.0
C1724 C 0.97127 0.09103 0.40639 0.0
C1725 C 0.89395 0.02566 0.39745 0.0
C1726 C 0.94093 0.08233 0.41333 0.0
C1727 C 0.97712 0.08492 0.42053 0.0
C1728 C 0.04391 0.09679 0.42093 0.0
C1729 C 0.07472 0.1039 0.41391 0.0
C1730 C 0.03904 0.10092 0.40674 0.0
H1731 H 0.87982 1.0028 0.39251 0.0
H1732 H 0.94306 0.01902 0.39988 0.0
H1733 H 0.85622 0.02676 0.40228 0.0
H1734 H 0.88842 0.07544 0.41331 0.0
H1735 H 0.95159 0.08027 0.4259 0.0
H1736 H 0.54283 0.05065 0.91957 0.0
H1737 H 0.48641 0.04112 0.90638 0.0
H1738 H 0.44785 0.15858 0.9093 0.0
H1739 H 0.50279 0.16828 0.92222 0.0
H1740 H 0.35117 0.0634 0.90164 0.0
H1741 H 0.55282 0.13487 0.88798 0.0
H1742 H 0.56386 0.11779 0.89725 0.0
H1743 H 0.52155 0.16108 0.89719 0.0
C1744 C 0.52168 0.07427 0.91742 0.0
C1745 C 0.52854 0.11025 0.92194 0.0
C1746 C 0.48967 0.06886 0.90987 0.0
C1747 C 0.46434 0.09934 0.90676 0.0
C1748 C 0.46835 0.13477 0.91146 0.0
H1749 H 0.27212 0.16021 0.86526 0.0
H1750 H 0.32825 0.15699 0.87799 0.0
C1751 C 0.49992 0.14016 0.91889 0.0
C1752 C 0.43434 0.09524 0.89858 0.0
H1753 H 0.44945 0.12702 0.88086 0.0
C1754 C 0.37314 0.0767 0.89703 0.0
C1755 C 0.46256 0.11305 0.8926 0.0
C1756 C 0.52912 0.13255 0.89379 0.0
C1757 C 0.33826 0.07673 0.8898 0.0
C1758 C 0.36594 0.09518 0.88387 0.0
C1759 C 0.42791 0.11298 0.88537 0.0
C1760 C 0.33117 0.09692 0.87613 0.0
C1761 C 0.27068 0.05839 0.88873 0.0
C1762 C 0.31475 0.06435 0.87076 0.0
C1763 C 0.28258 0.06616 0.86349 0.0
C1764 C 0.2665 0.10062 0.86138 0.0
C1765 C 0.28371 0.13324 0.86671 0.0
C1766 C 0.31583 0.1314 0.87399 0.0
H1767 H 0.24887 0.0545 0.89455 0.0
H1768 H 0.23538 0.07498 0.88575 0.0
H1769 H 0.27589 0.03061 0.88491 0.0
H1770 H 0.32736 0.03742 0.87215 0.0
H1771 H 0.27046 0.0405 0.8595 0.0
H1772 H 0.76332 0.23545 0.91867 0.0
H1773 H 0.81544 0.23835 0.90572 0.0
H1774 H 0.82785 0.11885 0.90063 0.0
H1775 H 0.77476 0.11579 0.91353 0.0
H1776 H 0.93772 0.21401 0.89948 0.0
H1777 H 0.73559 0.14098 0.88069 0.0
H1778 H 0.72541 0.15784 0.89129 0.0
H1779 H 0.76828 0.11479 0.88781 0.0
C1780 C 0.77702 0.20977 0.91478 0.0
C1781 C 0.76446 0.17536 0.91711 0.0
C1782 C 0.80692 0.21148 0.90738 0.0
C1783 C 0.82457 0.17884 0.90211 0.0
C1784 C 0.81333 0.14444 0.9045 0.0
H1785 H 0.02154 0.10762 0.85797 0.0
H1786 H 0.96096 0.1182 0.87047 0.0
C1787 C 0.78339 0.1427 0.9119 0.0
C1788 C 0.8553 0.1808 0.89416 0.0
H1789 H 0.83773 0.14965 0.87403 0.0
C1790 C 0.91547 0.20033 0.8939 0.0
C1791 C 0.82611 0.16319 0.88686 0.0
C1792 C 0.75996 0.14333 0.88664 0.0
C1793 C 0.94877 0.20118 0.88661 0.0
C1794 C 0.92058 0.18259 0.87934 0.0
C1795 C 0.85932 0.16409 0.87959 0.0
C1796 C 0.95731 0.17789 0.87156 0.0
C1797 C 0.01541 0.22042 0.88677 0.0
C1798 C 0.97549 0.20805 0.86785 0.0
C1799 C 0.011 0.20211 0.86054 0.0
C1800 C 0.02898 0.16591 0.85685 0.0
C1801 C 0.00951 0.13605 0.86059 0.0
C1802 C 0.97432 0.14195 0.86778 0.0
H1803 H 0.03562 0.22789 0.89295 0.0
H1804 H 0.05223 0.20248 0.88301 0.0
H1805 H 0.00973 0.2463 0.88428 0.0
H1806 H 0.96206 0.23609 0.87059 0.0
H1807 H 0.02485 0.22571 0.85785 0.0
H1808 H 0.54689 0.8328 0.67565 0.0
H1809 H 0.60798 0.82786 0.66289 0.0
H1810 H 0.42791 0.855 0.65125 0.0
H1811 H 0.368 0.86125 0.66396 0.0
H1812 H 0.59818 0.78826 0.6476 0.0
H1813 H 0.54938 0.93657 0.64698 0.0
H1814 H 0.53129 0.91592 0.65564 0.0
H1815 H 0.47393 0.91065 0.64733 0.0
C1816 C 0.52012 0.8366 0.6703 0.0
C1817 C 0.45264 0.8472 0.67078 0.0
C1818 C 0.55514 0.83415 0.66302 0.0
C1819 C 0.52315 0.84219 0.65613 0.0
C1820 C 0.45444 0.84985 0.65651 0.0
H1821 H 0.63111 0.86277 0.60738 0.0
H1822 H 0.57517 0.85937 0.6201 0.0
C1823 C 0.4199 0.85283 0.66376 0.0
C1824 C 0.56146 0.84414 0.64863 0.0
H1825 H 0.59421 0.90086 0.63506 0.0
C1826 C 0.59767 0.81296 0.64489 0.0
C1827 C 0.56141 0.87647 0.64508 0.0
C1828 C 0.52751 0.91192 0.64901 0.0
C1829 C 0.63161 0.81275 0.63759 0.0
C1830 C 0.63025 0.84481 0.63396 0.0
C1831 C 0.5949 0.87615 0.63777 0.0
C1832 C 0.66473 0.84651 0.6262 0.0
C1833 C 0.66702 0.77776 0.63372 0.0
C1834 C 0.734 0.84105 0.62538 0.0
C1835 C 0.76602 0.8429 0.6181 0.0
C1836 C 0.72965 0.85063 0.61149 0.0
C1837 C 0.66055 0.85672 0.61235 0.0
C1838 C 0.62851 0.85475 0.61962 0.0
H1839 H 0.64849 0.75306 0.63603 0.0
H1840 H 0.66078 0.7728 0.62711 0.0
H1841 H 0.72111 0.78062 0.63509 0.0
H1842 H 0.76354 0.83566 0.6304 0.0
H1843 H 0.81941 0.8384 0.61767 0.0
H1844 H 0.96558 0.97278 0.6078 0.0
H1845 H 0.02863 0.98276 0.62055 0.0
H1846 H 0.03024 0.86477 0.62023 0.0
H1847 H 0.96915 0.85455 0.60777 0.0
H1848 H 0.99278 0.95952 0.63567 0.0
H1849 H 0.22755 0.89284 0.62338 0.0
H1850 H 0.16419 0.90793 0.61709 0.0
H1851 H 0.15543 0.8645 0.62057 0.0
C1852 C 0.97985 0.94906 0.61044 0.0
C1853 C 0.96209 0.91292 0.60668 0.0
C1854 C 0.01574 0.95476 0.61773 0.0
C1855 C 0.03521 0.9244 0.62129 0.0
C1856 C 0.01717 0.88859 0.61755 0.0
H1857 H 0.22486 0.86459 0.66295 0.0
H1858 H 0.16885 0.86781 0.65023 0.0
C1859 C 0.98152 0.88291 0.61039 0.0
C1860 C 0.07268 0.92916 0.62903 0.0
H1861 H 0.21249 0.8992 0.63757 0.0
C1862 C 0.04141 0.947 0.63608 0.0
C1863 C 0.13576 0.91231 0.62959 0.0
C1864 C 0.17301 0.8936 0.62224 0.0
C1865 C 0.07016 0.94711 0.64368 0.0
C1866 C 0.13265 0.92956 0.64426 0.0
C1867 C 0.16458 0.91254 0.63718 0.0
C1868 C 0.16534 0.92786 0.65212 0.0
C1869 C 0.03183 0.96454 0.65105 0.0
C1870 C 0.18273 0.96046 0.65744 0.0
C1871 C 0.21474 0.95865 0.66472 0.0
C1872 C 0.2304 0.92419 0.66685 0.0
C1873 C 0.2132 0.89156 0.66152 0.0
C1874 C 0.18129 0.8934 0.65423 0.0
H1875 H 0.97807 0.96778 0.64973 0.0
H1876 H 0.03629 0.94767 0.65587 0.0
H1877 H 0.05248 0.99253 0.65334 0.0
H1878 H 0.1724 0.9874 0.65591 0.0
H1879 H 0.22756 0.9843 0.66867 0.0
H1880 H 0.64027 0.9024 0.16989 0.0
H1881 H 0.58419 0.90602 0.15719 0.0
H1882 H 0.76455 0.94872 0.14834 0.0
H1883 H 0.82105 0.94444 0.16095 0.0
H1884 H 0.559 0.96592 0.15016 0.0
H1885 H 0.71846 0.86686 0.1299 0.0
H1886 H 0.72123 0.87089 0.14066 0.0
H1887 H 0.7644 0.90397 0.13583 0.0
C1888 C 0.66809 0.91229 0.16522 0.0
C1889 C 0.73519 0.92304 0.16643 0.0
C1890 C 0.63594 0.91444 0.15795 0.0
C1891 C 0.6702 0.92716 0.15171 0.0
C1892 C 0.73722 0.93802 0.15295 0.0
H1893 H 0.53852 0.9524 0.10312 0.0
H1894 H 0.60126 0.95996 0.11584 0.0
C1895 C 0.76939 0.93584 0.1602 0.0
C1896 C 0.63515 0.93016 0.14405 0.0
H1897 H 0.63992 0.90119 0.1237 0.0
C1898 C 0.57683 0.95174 0.14438 0.0
C1899 C 0.65825 0.91184 0.13646 0.0
C1900 C 0.71863 0.88681 0.13567 0.0
C1901 C 0.54128 0.95554 0.1374 0.0
C1902 C 0.56391 0.93692 0.12983 0.0
C1903 C 0.6228 0.91581 0.12947 0.0
C1904 C 0.52414 0.93635 0.12234 0.0
C1905 C 0.47975 0.97966 0.13821 0.0
C1906 C 0.4597 0.92115 0.12177 0.0
C1907 C 0.42408 0.91704 0.11458 0.0
C1908 C 0.45175 0.92796 0.10773 0.0
C1909 C 0.51525 0.94455 0.10834 0.0
C1910 C 0.55138 0.94843 0.11558 0.0
H1911 H 0.48102 1.00078 0.14379 0.0
H1912 H 0.47415 0.99409 0.13301 0.0
H1913 H 0.4351 0.962 0.13849 0.0
H1914 H 0.43786 0.91092 0.1268 0.0
H1915 H 0.37561 0.90381 0.11428 0.0
H1916 H 0.0436 0.83027 0.17542 0.0
H1917 H 0.10585 0.8259 0.16275 0.0
H1918 H 0.92939 0.85885 0.15124 0.0
H1919 H 0.86833 0.8643 0.16386 0.0
H1920 H 0.09403 0.78845 0.1472 0.0
H1921 H 0.05812 0.93884 0.14773 0.0
H1922 H 0.03768 0.91712 0.15617 0.0
H1923 H 0.98059 0.91459 0.14789 0.0
C1924 C 0.01778 0.83543 0.17011 0.0
C1925 C 0.95104 0.84741 0.17061 0.0
C1926 C 0.0535 0.83333 0.16289 0.0
C1927 C 0.02297 0.84315 0.15607 0.0
C1928 C 0.95485 0.85226 0.15645 0.0
H1929 H 0.1372 0.869 0.10784 0.0
H1930 H 0.08 0.86532 0.12047 0.0
C1931 C 0.91962 0.85481 0.16364 0.0
C1932 C 0.06226 0.84539 0.14866 0.0
H1933 H 0.1013 0.90381 0.13564 0.0
C1934 C 0.096 0.81374 0.1447 0.0
C1935 C 0.06537 0.87848 0.14539 0.0
C1936 C 0.0341 0.91428 0.14956 0.0
C1937 C 0.13052 0.81385 0.13745 0.0
C1938 C 0.13241 0.84672 0.1341 0.0
C1939 C 0.09954 0.87851 0.13814 0.0
C1940 C 0.16768 0.84877 0.12641 0.0
C1941 C 0.16296 0.77837 0.13333 0.0
C1942 C 0.23637 0.84136 0.12554 0.0
C1943 C 0.26908 0.84334 0.11831 0.0
C1944 C 0.23404 0.85316 0.1118 0.0
C1945 C 0.1656 0.86126 0.11272 0.0
C1946 C 0.13285 0.85915 0.11995 0.0
H1947 H 0.1419 0.75368 0.13542 0.0
H1948 H 0.15686 0.7747 0.12672 0.0
H1949 H 0.21712 0.77948 0.1347 0.0
H1950 H 0.26496 0.83431 0.13048 0.0
H1951 H 0.32198 0.8373 0.11783 0.0
H1952 H 0.48267 0.70783 0.85397 0.0
H1953 H 0.42103 0.71662 0.86678 0.0
H1954 H 0.55616 0.64147 0.8756 0.0
H1955 H 0.61765 0.63327 0.86308 0.0
H1956 H 0.35551 0.66177 0.87355 0.0
H1957 H 0.552 0.7265 0.89431 0.0
H1958 H 0.55808 0.72373 0.8836 0.0
H1959 H 0.57998 0.68441 0.88813 0.0
C1960 C 0.50018 0.69409 0.85874 0.0
C1961 C 0.55545 0.67003 0.85749 0.0
C1962 C 0.46458 0.69882 0.86603 0.0
C1963 C 0.4843 0.68007 0.87224 0.0
C1964 C 0.54049 0.65692 0.87103 0.0
H1965 H 0.35095 0.6356 0.91833 0.0
H1966 H 0.40781 0.63867 0.90564 0.0
C1967 C 0.57556 0.6521 0.8638 0.0
C1968 C 0.4449 0.6825 0.87982 0.0
H1969 H 0.46081 0.69873 0.90025 0.0
C1970 C 0.37819 0.67044 0.87939 0.0
C1971 C 0.47446 0.69338 0.88747 0.0
C1972 C 0.54487 0.70807 0.88842 0.0
C1973 C 0.3413 0.66766 0.88635 0.0
C1974 C 0.37138 0.67789 0.894 0.0
C1975 C 0.43763 0.69065 0.89442 0.0
C1976 C 0.33545 0.67535 0.90164 0.0
C1977 C 0.2713 0.65232 0.88542 0.0
C1978 C 0.27596 0.6951 0.9037 0.0
C1979 C 0.24334 0.69329 0.91094 0.0
C1980 C 0.26964 0.67191 0.91635 0.0
C1981 C 0.32926 0.65224 0.9143 0.0
C1982 C 0.36188 0.65405 0.90704 0.0
H1983 H 0.26244 0.63635 0.87931 0.0
H1984 H 0.26101 0.63398 0.88984 0.0
H1985 H 0.23519 0.67566 0.88646 0.0
H1986 H 0.25513 0.71241 0.89976 0.0
H1987 H 0.19768 0.70893 0.91235 0.0
H1988 H 0.11967 0.6326 0.91445 0.0
H1989 H 0.05777 0.62471 0.90194 0.0
H1990 H 0.91009 0.55967 0.91174 0.0
H1991 H 0.97217 0.56821 0.92451 0.0
H1992 H 0.02034 0.56544 0.891 0.0
H1993 H 0.79576 0.64021 0.90467 0.0
H1994 H 0.87346 0.63994 0.91004 0.0
H1995 H 0.81936 0.60019 0.90882 0.0
C1996 C 0.07446 0.61615 0.91395 0.0
C1997 C 0.05086 0.60111 0.92052 0.0
C1998 C 0.03895 0.61169 0.90675 0.0
C1999 C 0.97835 0.59225 0.90589 0.0
C2000 C 0.956 0.57549 0.91229 0.0
H2001 H 0.69582 0.5674 0.86565 0.0
H2002 H 0.75302 0.56399 0.87827 0.0
C2003 C 0.99202 0.57984 0.91955 0.0
C2004 C 0.93915 0.59067 0.89831 0.0
H2005 H 0.79263 0.61819 0.89075 0.0
C2006 C 0.97037 0.57679 0.89096 0.0
C2007 C 0.87402 0.60572 0.89821 0.0
C2008 C 0.83867 0.62268 0.90584 0.0
C2009 C 0.93869 0.57751 0.88357 0.0
C2010 C 0.87405 0.5931 0.88346 0.0
C2011 C 0.84218 0.60632 0.8908 0.0
C2012 C 0.83883 0.59599 0.8758 0.0
C2013 C 0.97474 0.56121 0.87595 0.0
C2014 C 0.86708 0.61576 0.87022 0.0
C2015 C 0.83442 0.6177 0.86297 0.0
C2016 C 0.77253 0.6001 0.86116 0.0
C2017 C 0.74365 0.58106 0.86682 0.0
C2018 C 0.77627 0.57914 0.87406 0.0
H2019 H 0.01405 0.54127 0.87704 0.0
H2020 H 0.9396 0.54673 0.87137 0.0
H2021 H 0.99931 0.58389 0.87347 0.0
H2022 H 0.91445 0.6298 0.87147 0.0
H2023 H 0.8578 0.63283 0.85877 0.0
H2024 H 0.28855 0.65935 0.36435 0.0
H2025 H 0.34391 0.65575 0.3771 0.0
H2026 H 0.31179 0.5374 0.37304 0.0
H2027 H 0.2575 0.54079 0.36025 0.0
H2028 H 0.29484 0.63242 0.39042 0.0
H2029 H 0.50871 0.5432 0.37848 0.0
H2030 H 0.45537 0.56523 0.37214 0.0
H2031 H 0.42862 0.5236 0.37548 0.0
C2032 C 0.29383 0.63252 0.36615 0.0
C2033 C 0.26899 0.60033 0.36126 0.0
C2034 C 0.32536 0.63048 0.37345 0.0
C2035 C 0.33317 0.59619 0.37602 0.0
C2036 C 0.30795 0.56406 0.37115 0.0
H2037 H 0.5198 0.55245 0.42126 0.0
H2038 H 0.45602 0.54269 0.40857 0.0
C2039 C 0.27645 0.56608 0.36385 0.0
C2040 C 0.3657 0.59439 0.38389 0.0
H2041 H 0.49747 0.55693 0.3926 0.0
C2042 C 0.33897 0.61576 0.39088 0.0
C2043 C 0.42321 0.5725 0.38455 0.0
C2044 C 0.45614 0.55007 0.37726 0.0
C2045 C 0.3683 0.6162 0.39844 0.0
C2046 C 0.42662 0.59502 0.39908 0.0
C2047 C 0.45242 0.57283 0.39214 0.0
C2048 C 0.46573 0.59944 0.40669 0.0
C2049 C 0.3369 0.63981 0.40569 0.0
C2050 C 0.49354 0.63411 0.40974 0.0
C2051 C 0.52968 0.63965 0.41687 0.0
C2052 C 0.53978 0.61063 0.42124 0.0
C2053 C 0.51301 0.57545 0.41811 0.0
C2054 C 0.47654 0.56987 0.41086 0.0
H2055 H 0.28311 0.64479 0.40469 0.0
H2056 H 0.34209 0.62666 0.41108 0.0
H2057 H 0.36224 0.66719 0.4069 0.0
H2058 H 0.48725 0.65716 0.40658 0.0
H2059 H 0.54938 0.66721 0.41896 0.0
H2060 H 0.86631 0.65763 0.4204 0.0
H2061 H 0.92278 0.66159 0.40775 0.0
H2062 H 0.73607 0.68961 0.39767 0.0
H2063 H 0.67968 0.68636 0.41035 0.0
H2064 H 0.90273 0.62228 0.39265 0.0
H2065 H 0.85521 0.77156 0.39255 0.0
H2066 H 0.84147 0.75077 0.4013 0.0
H2067 H 0.78134 0.7447 0.3933 0.0
C2068 C 0.83732 0.66469 0.41549 0.0
C2069 C 0.76857 0.67189 0.4164 0.0
C2070 C 0.86967 0.66699 0.40825 0.0
C2071 C 0.83414 0.67666 0.40177 0.0
C2072 C 0.76514 0.68312 0.40263 0.0
H2073 H 0.95734 0.69518 0.35274 0.0
H2074 H 0.89519 0.6994 0.36541 0.0
C2075 C 0.73281 0.68096 0.40987 0.0
C2076 C 0.86911 0.67889 0.39406 0.0
H2077 H 0.90513 0.73711 0.38088 0.0
C2078 C 0.9034 0.64746 0.3901 0.0
C2079 C 0.86958 0.7116 0.39065 0.0
C2080 C 0.83545 0.7467 0.39469 0.0
C2081 C 0.93763 0.64768 0.38286 0.0
C2082 C 0.93943 0.68064 0.37953 0.0
C2083 C 0.90424 0.71193 0.38342 0.0
C2084 C 0.97864 0.68311 0.37213 0.0
C2085 C 0.97035 0.61218 0.37877 0.0
C2086 C 0.04704 0.67461 0.37177 0.0
C2087 C 0.08221 0.67206 0.36457 0.0
C2088 C 0.05045 0.67896 0.35758 0.0
C2089 C 0.98341 0.69042 0.35806 0.0
C2090 C 0.94775 0.69244 0.36529 0.0
H2091 H 0.94719 0.58742 0.38061 0.0
H2092 H 0.96707 0.60908 0.37214 0.0
H2093 H 0.0238 0.61255 0.38048 0.0
H2094 H 0.07277 0.66844 0.377 0.0
H2095 H 0.13372 0.66293 0.36436 0.0
H2096 H 0.45267 0.29903 0.16919 0.0
H2097 H 0.51411 0.28922 0.15634 0.0
H2098 H 0.55756 0.40628 0.15967 0.0
H2099 H 0.49831 0.41613 0.1723 0.0
H2100 H 0.48701 0.32306 0.14261 0.0
H2101 H 0.74033 0.36063 0.15422 0.0
H2102 H 0.67382 0.34933 0.16056 0.0
H2103 H 0.67937 0.39506 0.15807 0.0
C2104 C 0.47636 0.32244 0.16723 0.0
C2105 C 0.4703 0.35831 0.17182 0.0
C2106 C 0.51114 0.31689 0.15987 0.0
C2107 C 0.54136 0.34698 0.15707 0.0
C2108 C 0.53605 0.38248 0.16173 0.0
H2109 H 0.73999 0.40911 0.11616 0.0
H2110 H 0.68535 0.40514 0.12894 0.0
C2111 C 0.50142 0.38804 0.16897 0.0
C2112 C 0.57586 0.34258 0.14913 0.0
H2113 H 0.72145 0.36342 0.14036 0.0
C2114 C 0.53866 0.33117 0.1421 0.0
C2115 C 0.64305 0.35368 0.14845 0.0
C2116 C 0.68666 0.36504 0.15573 0.0
C2117 C 0.56587 0.33202 0.13446 0.0
C2118 C 0.63263 0.34394 0.1338 0.0
C2119 C 0.67025 0.35445 0.14083 0.0
C2120 C 0.66424 0.34631 0.12591 0.0
C2121 C 0.52184 0.32176 0.12719 0.0
C2122 C 0.6712 0.31459 0.11993 0.0
C2123 C 0.70245 0.31683 0.11263 0.0
C2124 C 0.72766 0.35083 0.11113 0.0
C2125 C 0.72074 0.38256 0.1171 0.0
C2126 C 0.68966 0.38028 0.12442 0.0
H2127 H 0.4681 0.32281 0.12882 0.0
H2128 H 0.53054 0.34058 0.12282 0.0
H2129 H 0.53362 0.29301 0.12419 0.0
H2130 H 0.65335 0.28791 0.12096 0.0
H2131 H 0.70723 0.29183 0.10816 0.0
H2132 H 0.29799 0.46621 0.1635 0.0
H2133 H 0.23955 0.47036 0.15099 0.0
H2134 H 0.10689 0.38255 0.15488 0.0
H2135 H 0.16454 0.37873 0.16748 0.0
H2136 H 0.21999 0.41909 0.13723 0.0
H2137 H 0.97594 0.46228 0.15119 0.0
H2138 H 0.05136 0.46212 0.157 0.0
H2139 H 0.00663 0.41959 0.15363 0.0
C2140 C 0.25626 0.44782 0.1617 0.0
C2141 C 0.23562 0.42232 0.16652 0.0
C2142 C 0.22291 0.4502 0.15453 0.0
C2143 C 0.16788 0.42729 0.15203 0.0
C2144 C 0.1481 0.40121 0.15676 0.0
H2145 H 0.8987 0.38056 0.11259 0.0
H2146 H 0.96046 0.38888 0.12506 0.0
C2147 C 0.18139 0.39886 0.16394 0.0
C2148 C 0.13167 0.43054 0.14446 0.0
H2149 H 0.97746 0.44546 0.13699 0.0
C2150 C 0.16707 0.4252 0.13718 0.0
C2151 C 0.06262 0.4387 0.14437 0.0
C2152 C 0.02197 0.44637 0.15197 0.0
C2153 C 0.1349 0.42618 0.12981 0.0
C2154 C 0.06551 0.43363 0.12971 0.0
C2155 C 0.03062 0.43992 0.13703 0.0
C2156 C 0.02655 0.43113 0.12209 0.0
C2157 C 0.17503 0.41753 0.12218 0.0
C2158 C 0.04138 0.4529 0.11622 0.0
C2159 C 0.00566 0.44809 0.10893 0.0
C2160 C 0.95451 0.42144 0.10742 0.0
C2161 C 0.93813 0.40113 0.11348 0.0
C2162 C 0.97349 0.40588 0.12067 0.0
H2163 H 0.22372 0.40445 0.12313 0.0
H2164 H 0.14707 0.39866 0.11747 0.0
H2165 H 0.1852 0.44369 0.11994 0.0
H2166 H 0.08108 0.47324 0.11723 0.0
H2167 H 0.01969 0.46408 0.1044 0.0
H2168 H 0.37824 0.40478 0.61409 0.0
H2169 H 0.44058 0.4113 0.62661 0.0
H2170 H 0.60532 0.45913 0.61561 0.0
H2171 H 0.54173 0.45336 0.60302 0.0
H2172 H 0.55505 0.3752 0.62831 0.0
H2173 H 0.5981 0.52675 0.63726 0.0
H2174 H 0.53774 0.50797 0.62972 0.0
H2175 H 0.62507 0.50738 0.6273 0.0
C2176 C 0.42694 0.41781 0.6144 0.0
C2177 C 0.45477 0.42894 0.60759 0.0
C2178 C 0.46282 0.42127 0.62156 0.0
C2179 C 0.52781 0.43576 0.62212 0.0
C2180 C 0.55483 0.44852 0.61542 0.0
H2181 H 0.82134 0.44783 0.661 0.0
H2182 H 0.76466 0.45043 0.6483 0.0
C2183 C 0.51839 0.44538 0.60822 0.0
C2184 C 0.56814 0.43435 0.62949 0.0
H2185 H 0.65202 0.48755 0.645 0.0
C2186 C 0.57609 0.39985 0.63196 0.0
C2187 C 0.59644 0.46632 0.63424 0.0
C2188 C 0.58859 0.50428 0.63206 0.0
C2189 C 0.61084 0.39645 0.639 0.0
C2190 C 0.63765 0.42855 0.64387 0.0
C2191 C 0.63115 0.46294 0.64132 0.0
C2192 C 0.67198 0.42699 0.65164 0.0
C2193 C 0.61932 0.3583 0.64109 0.0
C2194 C 0.6388 0.4133 0.65783 0.0
C2195 C 0.67125 0.41164 0.66509 0.0
C2196 C 0.73745 0.42397 0.66637 0.0
C2197 C 0.77035 0.43807 0.66021 0.0
C2198 C 0.73794 0.43964 0.65294 0.0
H2199 H 0.61415 0.33616 0.63572 0.0
H2200 H 0.66875 0.35535 0.64387 0.0
H2201 H 0.58007 0.35379 0.64543 0.0
H2202 H 0.58748 0.40412 0.65707 0.0
H2203 H 0.64434 0.40089 0.66973 0.0
H2204 H 0.31718 0.32334 0.61619 0.0
H2205 H 0.2591 0.31907 0.62871 0.0
H2206 H 0.09256 0.37942 0.62128 0.0
H2207 H 0.15001 0.38313 0.60867 0.0
H2208 H 0.21412 0.372 0.64094 0.0
H2209 H 0.99942 0.28968 0.62696 0.0
H2210 H 0.07354 0.29683 0.62139 0.0
H2211 H 0.01082 0.33248 0.62336 0.0
C2212 C 0.26802 0.33556 0.61721 0.0
C2213 C 0.23796 0.35324 0.61138 0.0
C2214 C 0.23487 0.33317 0.62439 0.0
C2215 C 0.17067 0.34822 0.62592 0.0
C2216 C 0.14121 0.36668 0.62019 0.0
H2217 H 0.88479 0.37926 0.66414 0.0
H2218 H 0.94753 0.3723 0.65169 0.0
C2219 C 0.17433 0.36903 0.61299 0.0
C2220 C 0.13507 0.34488 0.63354 0.0
H2221 H 0.99037 0.31424 0.64088 0.0
C2222 C 0.16546 0.35904 0.64093 0.0
C2223 C 0.07155 0.32789 0.63357 0.0
C2224 C 0.03713 0.31052 0.6259 0.0
C2225 C 0.13324 0.35796 0.64829 0.0
C2226 C 0.06923 0.34146 0.64831 0.0
C2227 C 0.03948 0.3267 0.64091 0.0
C2228 C 0.02956 0.34226 0.65583 0.0
C2229 C 0.16691 0.37594 0.65596 0.0
C2230 C 0.05309 0.32645 0.66232 0.0
C2231 C 0.01662 0.33029 0.66954 0.0
C2232 C 0.95607 0.35004 0.67038 0.0
C2233 C 0.93129 0.36396 0.66372 0.0
C2234 C 0.9673 0.36005 0.65657 0.0
H2235 H 0.20835 0.39452 0.65484 0.0
H2236 H 0.13063 0.39237 0.6601 0.0
H2237 H 0.18801 0.35405 0.65899 0.0
H2238 H 0.1003 0.31187 0.66187 0.0
H2239 H 0.03743 0.31962 0.67458 0.0
H2240 H 0.37916 0.37171 0.53998 0.0
H2241 H 0.346 0.34252 0.52655 0.0
H2242 H 0.25832 0.25166 0.53598 0.0
H2243 H 0.29043 0.28122 0.54961 0.0
H2244 H 0.3778 0.27525 0.51752 0.0
H2245 H 0.10487 0.28504 0.52311 0.0
H2246 H 0.16491 0.30932 0.53006 0.0
H2247 H 0.1501 0.2606 0.5297 0.0
C2248 C 0.35287 0.34547 0.53926 0.0
C2249 C 0.33706 0.329 0.54594 0.0
C2250 C 0.33403 0.32877 0.53153 0.0
C2251 C 0.29866 0.29522 0.53024 0.0
C2252 C 0.2844 0.27797 0.53684 0.0
H2253 H 0.13904 0.15555 0.4882 0.0
H2254 H 0.17277 0.18548 0.50154 0.0
C2255 C 0.30334 0.29472 0.54462 0.0
C2256 C 0.277 0.27874 0.52197 0.0
H2257 H 0.13947 0.2533 0.51037 0.0
C2258 C 0.32566 0.27051 0.51595 0.0
C2259 C 0.20893 0.27281 0.51991 0.0
C2260 C 0.15403 0.28268 0.52601 0.0
C2261 C 0.30832 0.25582 0.50798 0.0
C2262 C 0.24027 0.24979 0.50592 0.0
C2263 C 0.1916 0.2581 0.51194 0.0
C2264 C 0.21864 0.2328 0.49768 0.0
C2265 C 0.36315 0.24598 0.50187 0.0
C2266 C 0.23203 0.24975 0.49102 0.0
C2267 C 0.21265 0.23257 0.48328 0.0
C2268 C 0.17942 0.19814 0.48208 0.0
C2269 C 0.16482 0.1819 0.48883 0.0
C2270 C 0.184 0.19903 0.4965 0.0
H2271 H 0.41252 0.24415 0.50476 0.0
H2272 H 0.35266 0.21908 0.4979 0.0
H2273 H 0.36629 0.26777 0.4981 0.0
H2274 H 0.25762 0.2762 0.4918 0.0
H2275 H 0.22467 0.24591 0.47824 0.0
H2276 H 0.90532 0.01394 0.54774 0.0
H2277 H 0.92911 0.03602 0.53517 0.0
H2278 H 0.01307 0.92931 0.52524 0.0
H2279 H 0.98858 0.90703 0.53773 0.0
H2280 H 0.04691 0.04323 0.52745 0.0
H2281 H 0.88525 0.94389 0.50762 0.0
H2282 H 0.88055 0.95006 0.5184 0.0
H2283 H 0.94515 0.92172 0.51307 0.0
C2284 C 0.92864 0.99514 0.54286 0.0
C2285 C 0.94484 0.95866 0.54375 0.0
C2286 C 0.94232 1.00781 0.53567 0.0
C2287 C 0.97199 0.98426 0.52914 0.0
C2288 C 0.98881 0.94791 0.53006 0.0
H2289 H 0.10001 1.01053 0.48091 0.0
H2290 H 0.07611 0.98797 0.49342 0.0
C2291 C 0.97526 0.93525 0.53726 0.0
C2292 C 0.98672 0.99799 0.52147 0.0
H2293 H 0.95855 0.98042 0.5012 0.0
C2294 C 0.02722 0.02956 0.52172 0.0
C2295 C 0.96145 0.98026 0.51394 0.0
C2296 C 0.91517 0.94732 0.51322 0.0
C2297 C 0.04406 0.04337 0.51471 0.0
C2298 C 0.01871 0.02568 0.50718 0.0
C2299 C 0.97826 0.99408 0.50693 0.0
C2300 C 0.03323 0.03959 0.49952 0.0
C2301 C 0.0904 0.07628 0.51543 0.0
C2302 C 0.0164 0.07601 0.49865 0.0
C2303 C 0.03009 0.08896 0.4915 0.0
C2304 C 0.06062 0.06578 0.48498 0.0
C2305 C 0.07671 0.0292 0.4858 0.0
C2306 C 0.06292 0.01623 0.49297 0.0
H2307 H 0.12051 0.07958 0.52102 0.0
H2308 H 0.12487 0.07361 0.51024 0.0
H2309 H 0.06046 0.10192 0.51562 0.0
H2310 H 0.99208 0.09446 0.5035 0.0
H2311 H 0.01673 0.11723 0.49107 0.0
H2312 H 0.35065 0.90297 0.73796 0.0
H2313 H 0.31886 0.9333 0.75131 0.0
H2314 H 0.26127 0.03123 0.7421 0.0
H2315 H 0.29206 1.00053 0.7285 0.0
H2316 H 0.36581 0.99558 0.76062 0.0
H2317 H 0.09601 1.01147 0.7546 0.0
H2318 H 0.15054 0.98297 0.74758 0.0
H2319 H 0.15061 0.03259 0.74831 0.0
C2320 C 0.33126 0.93098 0.73869 0.0
C2321 C 0.3238 0.94919 0.73207 0.0
C2322 C 0.3131 0.94833 0.74639 0.0
C2323 C 0.28677 0.98435 0.74773 0.0
C2324 C 0.28022 1.00309 0.7412 0.0
H2325 H 0.15126 0.12973 0.79054 0.0
H2326 H 0.18301 0.10029 0.77709 0.0
C2327 C 0.29836 0.98562 0.73343 0.0
C2328 C 0.26714 1.00189 0.75602 0.0
H2329 H 0.1347 0.03785 0.76754 0.0
C2330 C 0.31524 1.00481 0.76213 0.0
C2331 C 0.20106 0.0137 0.75801 0.0
C2332 C 0.14633 1.00978 0.75181 0.0
C2333 C 0.29943 0.01968 0.77014 0.0
C2334 C 0.23336 0.03148 0.77213 0.0
C2335 C 0.18528 0.02866 0.76602 0.0
C2336 C 0.21369 0.04853 0.78045 0.0
C2337 C 0.35403 0.02338 0.77636 0.0
C2338 C 0.21946 0.02906 0.78687 0.0
C2339 C 0.2014 0.04596 0.79467 0.0
C2340 C 0.17698 0.0826 0.79618 0.0
C2341 C 0.17028 0.10159 0.78968 0.0
C2342 C 0.18826 0.08476 0.78193 0.0
H2343 H 0.4044 0.02167 0.77359 0.0
H2344 H 0.34986 0.05011 0.78061 0.0
H2345 H 0.34951 1.00048 0.77983 0.0
H2346 H 0.23773 1.00077 0.78585 0.0
H2347 H 0.20699 0.03044 0.79951 0.0
H2348 H 0.10782 0.26544 0.79749 0.0
H2349 H 0.08394 0.28878 0.78505 0.0
H2350 H 0.97495 0.1885 0.77604 0.0
H2351 H 0.9969 0.16574 0.7885 0.0
H2352 H 0.11576 0.2638 0.7697 0.0
H2353 H 0.84046 0.26333 0.77194 0.0
H2354 H 0.89351 0.25679 0.78017 0.0
H2355 H 0.87577 0.21855 0.77219 0.0
C2356 C 0.07831 0.24853 0.79287 0.0
C2357 C 0.05365 0.21389 0.79405 0.0
C2358 C 0.06473 0.26187 0.78574 0.0
C2359 C 0.02619 0.24091 0.7796 0.0
C2360 C 0.00285 0.20594 0.78073 0.0
H2361 H 0.8986 0.26482 0.73132 0.0
H2362 H 0.92306 0.24336 0.74394 0.0
C2363 C 0.01587 0.19278 0.78787 0.0
C2364 C 0.01183 0.25506 0.77196 0.0
H2365 H 0.88565 0.27143 0.75937 0.0
C2366 C 0.06534 0.26571 0.76749 0.0
C2367 C 0.94608 0.25765 0.76898 0.0
C2368 C 0.88566 0.24884 0.77361 0.0
C2369 C 0.05523 0.27786 0.76012 0.0
C2370 C 0.98955 0.28011 0.75712 0.0
C2371 C 0.93604 0.26963 0.7616 0.0
C2372 C 0.9752 0.29328 0.74938 0.0
C2373 C 0.11539 0.28723 0.75552 0.0
C2374 C 0.99535 0.32874 0.74819 0.0
C2375 C 0.98157 0.341 0.74096 0.0
C2376 C 0.94671 0.31828 0.73474 0.0
C2377 C 0.92576 0.283 0.73596 0.0
C2378 C 0.93968 0.27071 0.74319 0.0
H2379 H 0.16149 0.27419 0.75738 0.0
H2380 H 0.10844 0.27807 0.74897 0.0
H2381 H 0.12284 0.31775 0.7567 0.0
H2382 H 0.02122 0.34722 0.7529 0.0
H2383 H 0.99786 0.36848 0.74027 0.0
H2384 H 0.63686 0.65174 0.48786 0.0
H2385 H 0.6676 0.68132 0.50134 0.0
H2386 H 0.74356 0.77592 0.49224 0.0
H2387 H 0.71383 0.74606 0.47855 0.0
H2388 H 0.83065 0.74982 0.50286 0.0
H2389 H 0.57673 0.76678 0.51591 0.0
H2390 H 0.59455 0.72004 0.51113 0.0
H2391 H 0.59117 0.75636 0.50524 0.0
C2392 C 0.65963 0.67899 0.48867 0.0
C2393 C 0.67259 0.69653 0.48206 0.0
C2394 C 0.67678 0.69599 0.49643 0.0
C2395 C 0.70684 0.73112 0.49784 0.0
C2396 C 0.71987 0.7489 0.4913 0.0
H2397 H 0.86099 0.87326 0.5402 0.0
H2398 H 0.83001 0.84395 0.52672 0.0
C2399 C 0.70261 0.73186 0.48348 0.0
C2400 C 0.72706 0.74825 0.50612 0.0
H2401 H 0.66741 0.77537 0.52515 0.0
C2402 C 0.7949 0.7557 0.50772 0.0
C2403 C 0.68048 0.7556 0.51249 0.0
C2404 C 0.60659 0.74962 0.51111 0.0
C2405 C 0.81757 0.76963 0.51552 0.0
C2406 C 0.771 0.77693 0.52189 0.0
C2407 C 0.70315 0.76951 0.52029 0.0
C2408 C 0.79127 0.79395 0.53017 0.0
C2409 C 0.89144 0.77567 0.5169 0.0
C2410 C 0.77859 0.77596 0.53669 0.0
C2411 C 0.79609 0.79283 0.54452 0.0
C2412 C 0.82603 0.82818 0.54596 0.0
C2413 C 0.83849 0.84595 0.53938 0.0
C2414 C 0.82112 0.82912 0.53161 0.0
H2415 H 0.92136 0.75868 0.51207 0.0
H2416 H 0.90335 0.8053 0.51693 0.0
H2417 H 0.90693 0.76875 0.52275 0.0
H2418 H 0.75506 0.74889 0.53573 0.0
H2419 H 0.78524 0.77844 0.54943 0.0
H2420 H 0.88767 0.91152 0.23808 0.0
H2421 H 0.85471 0.93971 0.25159 0.0
H2422 H 0.73666 0.02057 0.24216 0.0
H2423 H 0.77034 0.9926 0.22846 0.0
H2424 H 0.8104 0.05111 0.25569 0.0
H2425 H 0.67353 0.92679 0.26139 0.0
H2426 H 0.75847 0.91722 0.25838 0.0
H2427 H 0.70039 0.93207 0.25149 0.0
C2428 C 0.85485 0.93541 0.23883 0.0
C2429 C 0.83126 0.94957 0.23213 0.0
C2430 C 0.83564 0.95134 0.24659 0.0
C2431 C 0.79176 0.98163 0.2479 0.0
C2432 C 0.77003 0.99691 0.24128 0.0
H2433 H 0.61421 0.11401 0.29017 0.0
H2434 H 0.64754 0.08558 0.27669 0.0
C2435 C 0.78953 0.981 0.23346 0.0
C2436 C 0.76932 0.99727 0.25619 0.0
H2437 H 0.69241 0.97441 0.27268 0.0
C2438 C 0.78419 0.03442 0.25938 0.0
C2439 C 0.73549 0.97541 0.26105 0.0
C2440 C 0.71544 0.93577 0.25789 0.0
C2441 C 0.76734 0.05009 0.26732 0.0
C2442 C 0.73346 0.02824 0.27217 0.0
C2443 C 0.71864 0.99109 0.26899 0.0
C2444 C 0.71077 0.04396 0.28045 0.0
C2445 C 0.78735 0.08974 0.27048 0.0
C2446 C 0.73256 0.02893 0.2871 0.0
C2447 C 0.71289 0.04498 0.2949 0.0
C2448 C 0.67093 0.07632 0.29619 0.0
C2449 C 0.64727 0.09022 0.28946 0.0
C2450 C 0.66665 0.07414 0.28171 0.0
H2451 H 0.82928 0.09871 0.26699 0.0
H2452 H 0.74431 0.10828 0.26998 0.0
H2453 H 0.80234 0.09345 0.27688 0.0
H2454 H 0.76612 1.00535 0.28626 0.0
H2455 H 0.73211 0.03358 0.29993 0.0
H2456 H 0.95312 0.71711 0.29568 0.0
H2457 H 0.92879 0.73905 0.28312 0.0
H2458 H 0.13735 0.73041 0.27685 0.0
H2459 H 0.16168 0.70787 0.28933 0.0
H2460 H 0.97216 0.80026 0.27745 0.0
H2461 H 0.05359 0.67395 0.25664 0.0
H2462 H 0.04206 0.67469 0.26722 0.0
H2463 H 0.11706 0.69316 0.26362 0.0
C2464 C 0.99377 0.71973 0.29161 0.0
C2465 C 0.05933 0.71056 0.2935 0.0
C2466 C 0.97981 0.73235 0.28442 0.0
C2467 C 0.03093 0.73588 0.27892 0.0
C2468 C 0.09662 0.72717 0.28087 0.0
H2469 H 0.04888 0.80955 0.23257 0.0
H2470 H 0.07287 0.78769 0.24514 0.0
C2471 C 0.11061 0.71454 0.28805 0.0
C2472 C 0.01567 0.74942 0.27126 0.0
H2473 H 0.02935 0.72695 0.25083 0.0
C2474 C 0.98438 0.7841 0.27164 0.0
C2475 C 0.0316 0.72853 0.26363 0.0
C2476 C 0.06234 0.69037 0.26272 0.0
C2477 C 0.96992 0.79869 0.26466 0.0
C2478 C 0.98585 0.7778 0.25702 0.0
C2479 C 0.01711 0.74311 0.25665 0.0
C2480 C 0.97077 0.79136 0.24936 0.0
C2481 C 0.93928 0.83688 0.26557 0.0
C2482 C 0.90521 0.80034 0.24742 0.0
C2483 C 0.89142 0.81295 0.24023 0.0
C2484 C 0.94276 0.81661 0.23476 0.0
C2485 C 0.00818 0.80717 0.23665 0.0
C2486 C 0.02195 0.7946 0.24384 0.0
H2487 H 0.94819 0.85331 0.27165 0.0
H2488 H 0.95952 0.85254 0.26106 0.0
H2489 H 0.88454 0.83414 0.26469 0.0
H2490 H 0.86441 0.79731 0.25143 0.0
H2491 H 0.84045 0.81983 0.23895 0.0
H2492 H 0.37582 0.86809 0.04022 0.0
H2493 H 0.34258 0.83907 0.02679 0.0
H2494 H 0.24817 0.75025 0.03628 0.0
H2495 H 0.28037 0.77971 0.04992 0.0
H2496 H 0.37099 0.77129 0.01783 0.0
H2497 H 0.09822 0.78581 0.02322 0.0
H2498 H 0.15895 0.80911 0.03021 0.0
H2499 H 0.14146 0.76066 0.02984 0.0
C2500 C 0.34805 0.84232 0.03952 0.0
C2501 C 0.33037 0.82644 0.04622 0.0
C2502 C 0.32917 0.82571 0.03178 0.0
C2503 C 0.29186 0.79281 0.0305 0.0
C2504 C 0.27577 0.77608 0.03713 0.0
H2505 H 0.1263 0.6576 0.98808 0.0
H2506 H 0.16023 0.68627 1.00151 0.0
C2507 C 0.29478 0.79275 0.04492 0.0
C2508 C 0.27003 0.77657 0.02221 0.0
H2509 H 0.13217 0.75393 1.01049 0.0
C2510 C 0.31875 0.76752 0.01622 0.0
C2511 C 0.20184 0.77189 0.02009 0.0
C2512 C 0.14696 0.78266 0.02615 0.0
C2513 C 0.30132 0.75331 1.00823 0.0
C2514 C 0.23313 0.74863 1.00611 0.0
C2515 C 0.18442 0.75768 1.0121 0.0
C2516 C 0.21123 0.73248 0.99781 0.0
C2517 C 0.3562 0.74257 1.00217 0.0
C2518 C 0.22729 0.74929 0.9912 0.0
C2519 C 0.20793 0.7328 0.98341 0.0
C2520 C 0.17196 0.69923 0.9821 0.0
C2521 C 0.15436 0.68326 0.98879 0.0
C2522 C 0.17363 0.69968 0.99652 0.0
H2523 H 0.40491 0.73934 1.0051 0.0
H2524 H 0.34415 0.71618 0.99809 0.0
H2525 H 0.36179 0.76463 0.99849 0.0
H2526 H 0.25511 0.77505 0.99206 0.0
H2527 H 0.22235 0.74589 0.97842 0.0
H2528 H 0.15678 0.58038 0.99007 0.0
H2529 H 0.13192 0.55748 1.00251 0.0
H2530 H 0.93565 0.52452 0.99356 0.0
H2531 H 0.96068 0.54686 0.98108 0.0
H2532 H 0.03642 0.5781 1.01393 0.0
H2533 H 0.99894 0.43019 1.00049 0.0
H2534 H 0.03541 0.46309 0.99498 0.0
H2535 H 0.94638 0.46123 0.9962 0.0
C2536 C 0.1085 0.56797 0.99072 0.0
C2537 C 0.06096 0.56519 0.98453 0.0
C2538 C 0.09421 0.55496 0.99786 0.0
C2539 C 0.03223 0.53854 0.99898 0.0
C2540 C 0.98443 0.53615 0.99283 0.0
H2541 H 0.84873 0.44554 0.03803 0.0
H2542 H 0.87372 0.4684 0.02559 0.0
C2543 C 0.99865 0.5492 0.98569 0.0
C2544 C 0.01721 0.52477 1.00664 0.0
H2545 H 0.96916 0.44794 0.01419 0.0
C2546 C 0.02207 0.54957 1.01398 0.0
C2547 C 0.99823 0.48754 1.00677 0.0
C2548 C 0.995 0.45885 0.9992 0.0
C2549 C 0.00734 0.53851 0.02135 0.0
C2550 C 0.98836 0.50127 0.02149 0.0
C2551 C 0.98351 0.47647 0.01415 0.0
C2552 C 0.97328 0.4875 0.02914 0.0
C2553 C 0.01056 0.5672 0.02892 0.0
C2554 C 0.02097 0.48998 0.03531 0.0
C2555 C 0.00665 0.47698 0.04245 0.0
C2556 C 0.94438 0.46092 0.0436 0.0
C2557 C 0.89698 0.45802 0.03739 0.0
C2558 C 0.91134 0.471 0.03025 0.0
H2559 H 0.00658 0.59586 0.02764 0.0
H2560 H 0.97015 0.56296 0.03315 0.0
H2561 H 0.05918 0.56484 0.03192 0.0
H2562 H 0.06973 0.50166 0.03459 0.0
H2563 H 0.04454 0.4794 0.04707 0.0
H2564 H 0.21491 0.52918 0.29964 0.0
H2565 H 0.24821 0.50004 0.286 0.0
H2566 H 0.16573 0.59259 0.27671 0.0
H2567 H 0.13284 0.62178 0.29013 0.0
H2568 H 0.17056 0.47969 0.27186 0.0
H2569 H 0.35674 0.58732 0.26809 0.0
H2570 H 0.32268 0.58298 0.27774 0.0
H2571 H 0.27558 0.6057 0.27098 0.0
C2572 C 0.20356 0.5432 0.29469 0.0
C2573 C 0.17162 0.57802 0.29604 0.0
C2574 C 0.22279 0.52657 0.2869 0.0
C2575 C 0.2108 0.54456 0.28036 0.0
C2576 C 0.17708 0.57862 0.28167 0.0
H2577 H 0.28445 0.49563 0.22861 0.0
H2578 H 0.25124 0.52454 0.24226 0.0
C2579 C 0.15793 0.59517 0.28939 0.0
C2580 C 0.23252 0.52786 0.27211 0.0
H2581 H 0.32772 0.54436 0.25636 0.0
C2582 C 0.20531 0.49366 0.26849 0.0
C2583 C 0.27744 0.5463 0.26768 0.0
C2584 C 0.31033 0.58245 0.27133 0.0
C2585 C 0.2208 0.47774 0.26053 0.0
C2586 C 0.26579 0.49616 0.2561 0.0
C2587 C 0.29299 0.53036 0.25973 0.0
C2588 C 0.28736 0.47952 0.24784 0.0
C2589 C 0.18765 0.44169 0.25687 0.0
C2590 C 0.32033 0.44521 0.24648 0.0
C2591 C 0.33933 0.42876 0.23875 0.0
C2592 C 0.32635 0.44628 0.23214 0.0
C2593 C 0.29521 0.48132 0.23354 0.0
C2594 C 0.27605 0.49782 0.24133 0.0
H2595 H 0.14103 0.43699 0.26009 0.0
H2596 H 0.17556 0.44114 0.25046 0.0
H2597 H 0.22208 0.41832 0.25726 0.0
H2598 H 0.33124 0.431 0.25142 0.0
H2599 H 0.36385 0.40197 0.23797 0.0
H2600 H 0.72528 0.24329 0.97859 0.0
H2601 H 0.7599 0.27163 0.99221 0.0
H2602 H 0.65444 0.1865 1.00176 0.0
H2603 H 0.62051 0.15793 0.98831 0.0
H2604 H 0.68528 0.29894 1.00596 0.0
H2605 H 0.84063 0.17973 1.01094 0.0
H2606 H 0.81047 0.18461 1.00115 0.0
H2607 H 0.75639 0.1671 1.00809 0.0
C2608 C 0.70913 0.23077 0.9836 0.0
C2609 C 0.6706 0.19811 0.98232 0.0
C2610 C 0.72913 0.24691 0.99137 0.0
C2611 C 0.71111 0.23064 0.99799 0.0
C2612 C 0.67056 0.19896 0.99674 0.0
H2613 H 0.77686 0.2824 0.04975 0.0
H2614 H 0.74293 0.25387 0.03612 0.0
C2615 C 0.65083 0.18279 0.98902 0.0
C2616 C 0.7339 0.24674 1.00622 0.0
H2617 H 0.81892 0.22614 0.02237 0.0
C2618 C 0.7149 0.28313 1.00953 0.0
C2619 C 0.77224 0.22599 1.0109 0.0
C2620 C 0.7967 0.18732 1.00757 0.0
C2621 C 0.73205 0.2991 0.01743 0.0
C2622 C 0.77031 0.27833 0.02211 0.0
C2623 C 0.78933 0.24195 0.0188 0.0
C2624 C 0.79298 0.29442 0.03034 0.0
C2625 C 0.70778 0.33781 0.02075 0.0
C2626 C 0.83405 0.32589 0.03158 0.0
C2627 C 0.8535 0.34213 0.03932 0.0
C2628 C 0.83279 0.32714 0.04602 0.0
C2629 C 0.79378 0.29466 0.04474 0.0
C2630 C 0.77414 0.27841 0.03696 0.0
H2631 H 0.66421 0.34558 0.01734 0.0
H2632 H 0.69354 0.34045 0.02715 0.0
H2633 H 0.74838 0.35794 0.02029 0.0
H2634 H 0.85072 0.33815 0.02656 0.0
H2635 H 0.8842 0.36685 0.04002 0.0
H2636 H 0.61252 0.61487 0.78967 0.0
H2637 H 0.64446 0.58573 0.77618 0.0
H2638 H 0.75988 0.50435 0.7858 0.0
H2639 H 0.72643 0.53293 0.79942 0.0
H2640 H 0.76662 0.57883 0.76972 0.0
H2641 H 0.65723 0.43868 0.7684 0.0
H2642 H 0.63708 0.47707 0.77628 0.0
H2643 H 0.71378 0.45183 0.77662 0.0
C2644 C 0.64396 0.59046 0.78895 0.0
C2645 C 0.66653 0.57616 0.79567 0.0
C2646 C 0.66238 0.57386 0.7812 0.0
C2647 C 0.70405 0.54258 0.77993 0.0
C2648 C 0.72639 0.52794 0.7866 0.0
H2649 H 0.88513 0.41162 0.73793 0.0
H2650 H 0.85199 0.44107 0.75136 0.0
C2651 C 0.70736 0.54437 0.79439 0.0
C2652 C 0.72602 0.5266 0.77164 0.0
H2653 H 0.72777 0.44704 0.75762 0.0
C2654 C 0.75785 0.55003 0.76706 0.0
C2655 C 0.71463 0.48904 0.76815 0.0
C2656 C 0.67826 0.46275 0.77258 0.0
C2657 C 0.77957 0.53685 0.75919 0.0
C2658 C 0.7683 0.49928 0.75571 0.0
C2659 C 0.73641 0.47586 0.76028 0.0
C2660 C 0.79086 0.4832 0.74745 0.0
C2661 C 0.81582 0.5631 0.75474 0.0
C2662 C 0.76809 0.49723 0.74072 0.0
C2663 C 0.7876 0.48055 0.73296 0.0
C2664 C 0.82947 0.44918 0.73179 0.0
C2665 C 0.8527 0.43563 0.73857 0.0
C2666 C 0.83366 0.45241 0.74628 0.0
H2667 H 0.83601 0.58751 0.75889 0.0
H2668 H 0.8576 0.54887 0.75113 0.0
H2669 H 0.7805 0.57346 0.7506 0.0
H2670 H 0.7339 0.52049 0.74145 0.0
H2671 H 0.76816 0.49145 0.72788 0.0
H2672 H 0.62362 0.0207 0.98257 0.0
H2673 H 0.59956 0.99762 0.99501 0.0
H2674 H 0.46004 0.08725 1.00192 0.0
H2675 H 0.48322 0.11006 0.98946 0.0
H2676 H 0.61486 0.03032 1.01078 0.0
H2677 H 0.34753 0.99856 1.00472 0.0
H2678 H 0.40395 1.00849 0.99708 0.0
H2679 H 0.3691 0.04572 1.00426 0.0
C2680 C 0.58756 0.03538 0.98672 0.0
C2681 C 0.55493 0.06707 0.98498 0.0
C2682 C 0.57389 0.02218 0.99385 0.0
C2683 C 0.52696 0.04018 0.99939 0.0
C2684 C 0.49516 0.0722 0.9977 0.0
H2685 H 0.37631 1.00563 0.046 0.0
H2686 H 0.40129 0.02862 0.03357 0.0
C2687 C 0.50877 0.08539 0.99057 0.0
C2688 C 0.51231 0.02593 1.00698 0.0
H2689 H 0.38619 0.99564 0.01784 0.0
C2690 C 0.56488 0.02256 1.01229 0.0
C2691 C 0.4471 0.01578 1.00901 0.0
C2692 C 0.38875 0.01695 1.00344 0.0
C2693 C 0.55396 1.01016 0.01961 0.0
C2694 C 0.48872 1.00007 0.02165 0.0
C2695 C 0.43617 1.0034 0.01633 0.0
C2696 C 0.47391 0.98598 0.02926 0.0
C2697 C 0.61231 1.00894 0.02518 0.0
C2698 C 0.50552 0.95398 0.03099 0.0
C2699 C 0.49137 0.94083 0.0381 0.0
C2700 C 0.44488 0.95919 0.04365 0.0
C2701 C 0.4126 0.99091 0.04188 0.0
C2702 C 0.4268 1.00406 0.03476 0.0
H2703 H 0.65363 0.02725 0.02389 0.0
H2704 H 0.59717 0.01746 0.03154 0.0
H2705 H 0.63182 0.98014 0.02437 0.0
H2706 H 0.54078 0.93887 0.02679 0.0
H2707 H 0.51668 0.91613 0.03924 0.0
H2708 H 0.46124 0.18036 0.29123 0.0
H2709 H 0.43825 0.20245 0.27866 0.0
H2710 H 0.62284 0.26385 0.28114 0.0
H2711 H 0.64653 0.24132 0.29364 0.0
H2712 H 0.42113 0.27243 0.27554 0.0
H2713 H 0.63944 0.20805 0.25842 0.0
H2714 H 0.61454 0.19596 0.26786 0.0
H2715 H 0.66151 0.23767 0.26765 0.0
C2716 C 0.49709 0.19847 0.28908 0.0
C2717 C 0.55591 0.20891 0.29344 0.0
C2718 C 0.48384 0.21114 0.28189 0.0
C2719 C 0.52921 0.23441 0.27882 0.0
C2720 C 0.58764 0.24525 0.28323 0.0
H2721 H 0.53585 0.34256 0.23669 0.0
H2722 H 0.559 0.32041 0.24924 0.0
C2723 C 0.60095 0.23255 0.29043 0.0
C2724 C 0.51453 0.24791 0.27114 0.0
H2725 H 0.57606 0.25053 0.25239 0.0
C2726 C 0.45492 0.26745 0.27047 0.0
C2727 C 0.55844 0.2416 0.26447 0.0
C2728 C 0.62175 0.21938 0.26458 0.0
C2729 C 0.43874 0.28137 0.26346 0.0
C2730 C 0.48265 0.27505 0.25679 0.0
C2731 C 0.54226 0.25552 0.25746 0.0
C2732 C 0.46794 0.28854 0.24911 0.0
C2733 C 0.37545 0.30361 0.26336 0.0
C2734 C 0.40942 0.27777 0.24471 0.0
C2735 C 0.39601 0.29052 0.23752 0.0
C2736 C 0.44105 0.31412 0.2345 0.0
C2737 C 0.49999 0.32448 0.23884 0.0
C2738 C 0.51333 0.31177 0.24603 0.0
H2739 H 0.35784 0.31497 0.26952 0.0
H2740 H 0.38264 0.327 0.26007 0.0
H2741 H 0.33564 0.28531 0.2603 0.0
H2742 H 0.37419 0.25921 0.24681 0.0
H2743 H 0.35032 0.28183 0.23432 0.0
H2744 H 0.51453 0.65767 0.78718 0.0
H2745 H 0.49259 0.6809 0.77474 0.0
H2746 H 0.56387 0.78913 0.78574 0.0
H2747 H 0.58762 0.76568 0.79813 0.0
H2748 H 0.41043 0.73415 0.77142 0.0
H2749 H 0.66945 0.77375 0.76529 0.0
H2750 H 0.6499 0.74627 0.77283 0.0
H2751 H 0.63971 0.79592 0.77493 0.0
C2752 C 0.52589 0.68639 0.78694 0.0
C2753 C 0.55332 0.70972 0.79365 0.0
C2754 C 0.5132 0.6997 0.77981 0.0
C2755 C 0.52759 0.7367 0.77918 0.0
C2756 C 0.55391 0.76024 0.78594 0.0
H2757 H 0.47745 0.8698 0.74143 0.0
H2758 H 0.49971 0.84675 0.7539 0.0
C2759 C 0.56702 0.74686 0.79307 0.0
C2760 C 0.5135 0.75069 0.77153 0.0
H2761 H 0.58471 0.79317 0.75715 0.0
C2762 C 0.44873 0.74688 0.76829 0.0
C2763 C 0.56318 0.76741 0.76738 0.0
C2764 C 0.6346 0.77079 0.77023 0.0
C2765 C 0.43203 0.75983 0.76118 0.0
C2766 C 0.48167 0.77661 0.75704 0.0
C2767 C 0.54643 0.78044 0.76028 0.0
C2768 C 0.46755 0.79049 0.74939 0.0
C2769 C 0.36076 0.75621 0.75828 0.0
C2770 C 0.4427 0.76663 0.74259 0.0
C2771 C 0.42971 0.77983 0.73544 0.0
C2772 C 0.44189 0.81715 0.73488 0.0
C2773 C 0.46752 0.84089 0.74164 0.0
C2774 C 0.48032 0.82771 0.74879 0.0
H2775 H 0.32578 0.75287 0.76319 0.0
H2776 H 0.34522 0.78081 0.75573 0.0
H2777 H 0.35618 0.73124 0.75353 0.0
H2778 H 0.43385 0.73761 0.74277 0.0
H2779 H 0.4104 0.76072 0.73034 0.0
H2780 H 0.53189 0.42296 0.53982 0.0
H2781 H 0.55551 0.44573 0.52735 0.0
H2782 H 0.39631 0.52558 0.5326 0.0
H2783 H 0.37328 0.50329 0.54514 0.0
H2784 H 0.4781 0.44738 0.5142 0.0
H2785 H 0.54712 0.59146 0.52776 0.0
H2786 H 0.53874 0.5551 0.53363 0.0
H2787 H 0.46591 0.57813 0.53068 0.0
C2788 C 0.5022 0.44556 0.53835 0.0
C2789 C 0.45102 0.46149 0.54353 0.0
C2790 C 0.51566 0.45853 0.53119 0.0
C2791 C 0.47861 0.48792 0.52904 0.0
C2792 C 0.42688 0.50355 0.53417 0.0
H2793 H 0.48004 0.60303 0.48796 0.0
H2794 H 0.45673 0.58044 0.50046 0.0
C2795 C 0.41342 0.4906 0.54133 0.0
C2796 C 0.49312 0.50147 0.52136 0.0
H2797 H 0.53421 0.57884 0.51361 0.0
C2798 C 0.4907 0.47611 0.51409 0.0
C2799 C 0.50951 0.53899 0.52115 0.0
C2800 C 0.51615 0.56745 0.52872 0.0
C2801 C 0.50281 0.48723 0.50666 0.0
C2802 C 0.5192 0.52474 0.50645 0.0
C2803 C 0.52162 0.55011 0.51372 0.0
C2804 C 0.53367 0.53828 0.49877 0.0
C2805 C 0.49613 0.45877 0.49909 0.0
C2806 C 0.58535 0.52261 0.49364 0.0
C2807 C 0.59862 0.53545 0.48646 0.0
C2808 C 0.56088 0.56448 0.48425 0.0
C2809 C 0.50981 0.58047 0.48944 0.0
C2810 C 0.49653 0.56761 0.49661 0.0
H2811 H 0.46519 0.43476 0.50006 0.0
H2812 H 0.4735 0.47112 0.49419 0.0
H2813 H 0.54636 0.4481 0.49712 0.0
H2814 H 0.61599 0.50063 0.49521 0.0
H2815 H 0.63871 0.52273 0.48265 0.0
loop_
_geom_bond_atom_site_label_1
_geom_bond_atom_site_label_2
_geom_bond_distance
_geom_bond_site_symmetry_2
_ccdc_geom_bond_type
Co0 H3 2.400 . S
Co0 O4 2.009 . S
Co0 O12 2.115 . S
Co0 O13 2.315 . S
Co0 O24 2.053 . S
Co0 O27 2.094 . S
Co0 O30 2.122 . S
Co1 O4 2.126 . S
Co1 H5 2.388 . S
Co1 O6 2.053 . S
Co1 O9 2.047 . S
Co1 O15 2.113 . S
Co1 O26 2.063 . S
Co2 H3 2.388 . S
Co2 O4 2.053 . S
Co2 O6 2.126 . S
Co2 O11 2.063 . S
Co2 O25 2.047 . S
Co2 O31 2.113 . S
H3 Co0 2.400 . S
H3 Co2 2.388 . S
H3 O4 0.760 . S
O4 Co0 2.009 . S
O4 Co1 2.126 . S
O4 Co2 2.053 . S
O4 H3 0.760 . S
H5 Co1 2.388 . S
H5 O6 0.760 . S
H5 Co7 2.400 . S
O6 Co1 2.053 . S
O6 Co2 2.126 . S
O6 H5 0.760 . S
O6 Co7 2.009 . S
Co7 H5 2.400 . S
Co7 O6 2.009 . S
Co7 O8 2.053 . S
Co7 O10 2.094 . S
Co7 O14 2.122 . S
Co7 O28 2.115 . S
Co7 O29 2.315 . S
O8 Co7 2.053 . S
O8 C20 1.259 . S
O9 Co1 2.047 . S
O9 C20 1.257 . S
O10 Co7 2.094 . S
O10 C21 1.253 . S
O11 Co2 2.063 . S
O11 C21 1.268 . S
O12 Co0 2.115 . S
O12 C22 1.281 . S
O13 Co0 2.315 . S
O13 C22 1.252 . S
O14 Co7 2.122 . S
O14 C23 1.272 . S
O15 Co1 2.113 . S
O15 C23 1.245 . S
C16 O24 1.259 . S
C16 O25 1.257 . S
C17 O26 1.268 . S
C17 O27 1.253 . S
C18 O28 1.281 . S
C18 O29 1.252 . S
C19 O30 1.272 . S
C19 O31 1.245 . S
C20 O8 1.259 . S
C20 O9 1.257 . S
C21 O10 1.253 . S
C21 O11 1.268 . S
C22 O12 1.281 . S
C22 O13 1.252 . S
C23 O14 1.272 . S
C23 O15 1.245 . S
O24 Co0 2.053 . S
O24 C16 1.259 . S
O25 Co2 2.047 . S
O25 C16 1.257 . S
O26 Co1 2.063 . S
O26 C17 1.268 . S
O27 Co0 2.094 . S
O27 C17 1.253 . S
O28 Co7 2.115 . S
O28 C18 1.281 . S
O29 Co7 2.315 . S
O29 C18 1.252 . S
O30 Co0 2.122 . S
O30 C19 1.272 . S
O31 Co2 2.113 . S
O31 C19 1.245 . S
Co32 H35 2.400 . S
Co32 O36 2.009 . S
Co32 O44 2.115 . S
Co32 O45 2.315 . S
Co32 O56 2.053 . S
Co32 O59 2.094 . S
Co32 O62 2.122 . S
Co33 O36 2.126 . S
Co33 H37 2.388 . S
Co33 O38 2.053 . S
Co33 O41 2.047 . S
Co33 O47 2.113 . S
Co33 O58 2.063 . S
Co34 H35 2.388 . S
Co34 O36 2.053 . S
Co34 O38 2.126 . S
Co34 O43 2.063 . S
Co34 O57 2.047 . S
Co34 O63 2.113 . S
H35 Co32 2.400 . S
H35 Co34 2.388 . S
H35 O36 0.760 . S
O36 Co32 2.009 . S
O36 Co33 2.126 . S
O36 Co34 2.053 . S
O36 H35 0.760 . S
H37 Co33 2.388 . S
H37 O38 0.760 . S
H37 Co39 2.400 . S
O38 Co33 2.053 . S
O38 Co34 2.126 . S
O38 H37 0.760 . S
O38 Co39 2.009 . S
Co39 H37 2.400 . S
Co39 O38 2.009 . S
Co39 O40 2.053 . S
Co39 O42 2.094 . S
Co39 O46 2.122 . S
Co39 O60 2.115 . S
Co39 O61 2.315 . S
O40 Co39 2.053 . S
O40 C52 1.259 . S
O41 Co33 2.047 . S
O41 C52 1.257 . S
O42 Co39 2.094 . S
O42 C53 1.253 . S
O43 Co34 2.063 . S
O43 C53 1.268 . S
O44 Co32 2.115 . S
O44 C54 1.281 . S
O45 Co32 2.315 . S
O45 C54 1.252 . S
O46 Co39 2.122 . S
O46 C55 1.272 . S
O47 Co33 2.113 . S
O47 C55 1.245 . S
C48 O56 1.259 . S
C48 O57 1.257 . S
C49 O58 1.268 . S
C49 O59 1.253 . S
C50 O60 1.281 . S
C50 O61 1.252 . S
C51 O62 1.272 . S
C51 O63 1.245 . S
C52 O40 1.259 . S
C52 O41 1.257 . S
C53 O42 1.253 . S
C53 O43 1.268 . S
C54 O44 1.281 . S
C54 O45 1.252 . S
C55 O46 1.272 . S
C55 O47 1.245 . S
O56 Co32 2.053 . S
O56 C48 1.259 . S
O57 Co34 2.047 . S
O57 C48 1.257 . S
O58 Co33 2.063 . S
O58 C49 1.268 . S
O59 Co32 2.094 . S
O59 C49 1.253 . S
O60 Co39 2.115 . S
O60 C50 1.281 . S
O61 Co39 2.315 . S
O61 C50 1.252 . S
O62 Co32 2.122 . S
O62 C51 1.272 . S
O63 Co34 2.113 . S
O63 C51 1.245 . S
Co64 H67 2.400 . S
Co64 O68 2.009 . S
Co64 O76 2.115 . S
Co64 O77 2.315 . S
Co64 O88 2.053 . S
Co64 O91 2.094 . S
Co64 O94 2.122 . S
Co65 O68 2.126 . S
Co65 H69 2.388 . S
Co65 O70 2.053 . S
Co65 O73 2.047 . S
Co65 O79 2.113 . S
Co65 O90 2.063 . S
Co66 H67 2.388 . S
Co66 O68 2.053 . S
Co66 O70 2.126 . S
Co66 O75 2.063 . S
Co66 O89 2.047 . S
Co66 O95 2.113 . S
H67 Co64 2.400 . S
H67 Co66 2.388 . S
H67 O68 0.760 . S
O68 Co64 2.009 . S
O68 Co65 2.126 . S
O68 Co66 2.053 . S
O68 H67 0.760 . S
H69 Co65 2.388 . S
H69 O70 0.760 . S
H69 Co71 2.400 . S
O70 Co65 2.053 . S
O70 Co66 2.126 . S
O70 H69 0.760 . S
O70 Co71 2.009 . S
Co71 H69 2.400 . S
Co71 O70 2.009 . S
Co71 O72 2.053 . S
Co71 O74 2.094 . S
Co71 O78 2.122 . S
Co71 O92 2.115 . S
Co71 O93 2.315 . S
O72 Co71 2.053 . S
O72 C84 1.259 . S
O73 Co65 2.047 . S
O73 C84 1.257 . S
O74 Co71 2.094 . S
O74 C85 1.253 . S
O75 Co66 2.063 . S
O75 C85 1.268 . S
O76 Co64 2.115 . S
O76 C86 1.281 . S
O77 Co64 2.315 . S
O77 C86 1.252 . S
O78 Co71 2.122 . S
O78 C87 1.272 . S
O79 Co65 2.113 . S
O79 C87 1.245 . S
C80 O88 1.259 . S
C80 O89 1.257 . S
C81 O90 1.268 . S
C81 O91 1.253 . S
C82 O92 1.281 . S
C82 O93 1.252 . S
C83 O94 1.272 . S
C83 O95 1.245 . S
C84 O72 1.259 . S
C84 O73 1.257 . S
C85 O74 1.253 . S
C85 O75 1.268 . S
C86 O76 1.281 . S
C86 O77 1.252 . S
C87 O78 1.272 . S
C87 O79 1.245 . S
O88 Co64 2.053 . S
O88 C80 1.259 . S
O89 Co66 2.047 . S
O89 C80 1.257 . S
O90 Co65 2.063 . S
O90 C81 1.268 . S
O91 Co64 2.094 . S
O91 C81 1.253 . S
O92 Co71 2.115 . S
O92 C82 1.281 . S
O93 Co71 2.315 . S
O93 C82 1.252 . S
O94 Co64 2.122 . S
O94 C83 1.272 . S
O95 Co66 2.113 . S
O95 C83 1.245 . S
Co96 H99 2.400 . S
Co96 O100 2.009 . S
Co96 O108 2.115 . S
Co96 O109 2.315 . S
Co96 O120 2.053 . S
Co96 O123 2.094 . S
Co96 O126 2.122 . S
Co97 O100 2.126 . S
Co97 H101 2.388 . S
Co97 O102 2.053 . S
Co97 O105 2.047 . S
Co97 O111 2.113 . S
Co97 O122 2.063 . S
Co98 H99 2.388 . S
Co98 O100 2.053 . S
Co98 O102 2.126 . S
Co98 O107 2.063 . S
Co98 O121 2.047 . S
Co98 O127 2.113 . S
H99 Co96 2.400 . S
H99 Co98 2.388 . S
H99 O100 0.760 . S
O100 Co96 2.009 . S
O100 Co97 2.126 . S
O100 Co98 2.053 . S
O100 H99 0.760 . S
H101 Co97 2.388 . S
H101 O102 0.760 . S
H101 Co103 2.400 . S
O102 Co97 2.053 . S
O102 Co98 2.126 . S
O102 H101 0.760 . S
O102 Co103 2.009 . S
Co103 H101 2.400 . S
Co103 O102 2.009 . S
Co103 O104 2.053 . S
Co103 O106 2.094 . S
Co103 O110 2.122 . S
Co103 O124 2.115 . S
Co103 O125 2.315 . S
O104 Co103 2.053 . S
O104 C116 1.259 . S
O105 Co97 2.047 . S
O105 C116 1.257 . S
O106 Co103 2.094 . S
O106 C117 1.253 . S
O107 Co98 2.063 . S
O107 C117 1.268 . S
O108 Co96 2.115 . S
O108 C118 1.281 . S
O109 Co96 2.315 . S
O109 C118 1.252 . S
O110 Co103 2.122 . S
O110 C119 1.272 . S
O111 Co97 2.113 . S
O111 C119 1.245 . S
C112 O120 1.259 . S
C112 O121 1.257 . S
C113 O122 1.268 . S
C113 O123 1.253 . S
C114 O124 1.281 . S
C114 O125 1.252 . S
C115 O126 1.272 . S
C115 O127 1.245 . S
C116 O104 1.259 . S
C116 O105 1.257 . S
C117 O106 1.253 . S
C117 O107 1.268 . S
C118 O108 1.281 . S
C118 O109 1.252 . S
C119 O110 1.272 . S
C119 O111 1.245 . S
O120 Co96 2.053 . S
O120 C112 1.259 . S
O121 Co98 2.047 . S
O121 C112 1.257 . S
O122 Co97 2.063 . S
O122 C113 1.268 . S
O123 Co96 2.094 . S
O123 C113 1.253 . S
O124 Co103 2.115 . S
O124 C114 1.281 . S
O125 Co103 2.315 . S
O125 C114 1.252 . S
O126 Co96 2.122 . S
O126 C115 1.272 . S
O127 Co98 2.113 . S
O127 C115 1.245 . S
Co128 H131 2.400 . S
Co128 O132 2.009 . S
Co128 O140 2.115 . S
Co128 O141 2.315 . S
Co128 O152 2.053 . S
Co128 O155 2.094 . S
Co128 O158 2.122 . S
Co129 O132 2.126 . S
Co129 H133 2.388 . S
Co129 O134 2.053 . S
Co129 O137 2.047 . S
Co129 O143 2.113 . S
Co129 O154 2.063 . S
Co130 H131 2.388 . S
Co130 O132 2.053 . S
Co130 O134 2.126 . S
Co130 O139 2.063 . S
Co130 O153 2.047 . S
Co130 O159 2.113 . S
H131 Co128 2.400 . S
H131 Co130 2.388 . S
H131 O132 0.760 . S
O132 Co128 2.009 . S
O132 Co129 2.126 . S
O132 Co130 2.053 . S
O132 H131 0.760 . S
H133 Co129 2.388 . S
H133 O134 0.760 . S
H133 Co135 2.400 . S
O134 Co129 2.053 . S
O134 Co130 2.126 . S
O134 H133 0.760 . S
O134 Co135 2.009 . S
Co135 H133 2.400 . S
Co135 O134 2.009 . S
Co135 O136 2.053 . S
Co135 O138 2.094 . S
Co135 O142 2.122 . S
Co135 O156 2.115 . S
Co135 O157 2.315 . S
O136 Co135 2.053 . S
O136 C148 1.259 . S
O137 Co129 2.047 . S
O137 C148 1.257 . S
O138 Co135 2.094 . S
O138 C149 1.253 . S
O139 Co130 2.063 . S
O139 C149 1.268 . S
O140 Co128 2.115 . S
O140 C150 1.281 . S
O141 Co128 2.315 . S
O141 C150 1.252 . S
O142 Co135 2.122 . S
O142 C151 1.272 . S
O143 Co129 2.113 . S
O143 C151 1.245 . S
C144 O152 1.259 . S
C144 O153 1.257 . S
C145 O154 1.268 . S
C145 O155 1.253 . S
C146 O156 1.281 . S
C146 O157 1.252 . S
C147 O158 1.272 . S
C147 O159 1.245 . S
C148 O136 1.259 . S
C148 O137 1.257 . S
C149 O138 1.253 . S
C149 O139 1.268 . S
C150 O140 1.281 . S
C150 O141 1.252 . S
C151 O142 1.272 . S
C151 O143 1.245 . S
O152 Co128 2.053 . S
O152 C144 1.259 . S
O153 Co130 2.047 . S
O153 C144 1.257 . S
O154 Co129 2.063 . S
O154 C145 1.268 . S
O155 Co128 2.094 . S
O155 C145 1.253 . S
O156 Co135 2.115 . S
O156 C146 1.281 . S
O157 Co135 2.315 . S
O157 C146 1.252 . S
O158 Co128 2.122 . S
O158 C147 1.272 . S
O159 Co130 2.113 . S
O159 C147 1.245 . S
Co160 H163 2.400 . S
Co160 O164 2.009 . S
Co160 O172 2.115 . S
Co160 O173 2.315 . S
Co160 O184 2.053 . S
Co160 O187 2.094 . S
Co160 O190 2.122 . S
Co161 O164 2.126 . S
Co161 H165 2.388 . S
Co161 O166 2.053 . S
Co161 O169 2.047 . S
Co161 O175 2.113 . S
Co161 O186 2.063 . S
Co162 H163 2.388 . S
Co162 O164 2.053 . S
Co162 O166 2.126 . S
Co162 O171 2.063 . S
Co162 O185 2.047 . S
Co162 O191 2.113 . S
H163 Co160 2.400 . S
H163 Co162 2.388 . S
H163 O164 0.760 . S
O164 Co160 2.009 . S
O164 Co161 2.126 . S
O164 Co162 2.053 . S
O164 H163 0.760 . S
H165 Co161 2.388 . S
H165 O166 0.760 . S
H165 Co167 2.400 . S
O166 Co161 2.053 . S
O166 Co162 2.126 . S
O166 H165 0.760 . S
O166 Co167 2.009 . S
Co167 H165 2.400 . S
Co167 O166 2.009 . S
Co167 O168 2.053 . S
Co167 O170 2.094 . S
Co167 O174 2.122 . S
Co167 O188 2.115 . S
Co167 O189 2.315 . S
O168 Co167 2.053 . S
O168 C180 1.259 . S
O169 Co161 2.047 . S
O169 C180 1.257 . S
O170 Co167 2.094 . S
O170 C181 1.253 . S
O171 Co162 2.063 . S
O171 C181 1.268 . S
O172 Co160 2.115 . S
O172 C182 1.281 . S
O173 Co160 2.315 . S
O173 C182 1.252 . S
O174 Co167 2.122 . S
O174 C183 1.272 . S
O175 Co161 2.113 . S
O175 C183 1.245 . S
C176 O184 1.259 . S
C176 O185 1.257 . S
C177 O186 1.268 . S
C177 O187 1.253 . S
C178 O188 1.281 . S
C178 O189 1.252 . S
C179 O190 1.272 . S
C179 O191 1.245 . S
C180 O168 1.259 . S
C180 O169 1.257 . S
C181 O170 1.253 . S
C181 O171 1.268 . S
C182 O172 1.281 . S
C182 O173 1.252 . S
C183 O174 1.272 . S
C183 O175 1.245 . S
O184 Co160 2.053 . S
O184 C176 1.259 . S
O185 Co162 2.047 . S
O185 C176 1.257 . S
O186 Co161 2.063 . S
O186 C177 1.268 . S
O187 Co160 2.094 . S
O187 C177 1.253 . S
O188 Co167 2.115 . S
O188 C178 1.281 . S
O189 Co167 2.315 . S
O189 C178 1.252 . S
O190 Co160 2.122 . S
O190 C179 1.272 . S
O191 Co162 2.113 . S
O191 C179 1.245 . S
Co192 H195 2.400 . S
Co192 O196 2.009 . S
Co192 O204 2.115 . S
Co192 O205 2.315 . S
Co192 O216 2.053 . S
Co192 O219 2.094 . S
Co192 O222 2.122 . S
Co193 O196 2.126 . S
Co193 H197 2.388 . S
Co193 O198 2.053 . S
Co193 O201 2.047 . S
Co193 O207 2.113 . S
Co193 O218 2.063 . S
Co194 H195 2.388 . S
Co194 O196 2.053 . S
Co194 O198 2.126 . S
Co194 O203 2.063 . S
Co194 O217 2.047 . S
Co194 O223 2.113 . S
H195 Co192 2.400 . S
H195 Co194 2.388 . S
H195 O196 0.760 . S
O196 Co192 2.009 . S
O196 Co193 2.126 . S
O196 Co194 2.053 . S
O196 H195 0.760 . S
H197 Co193 2.388 . S
H197 O198 0.760 . S
H197 Co199 2.400 . S
O198 Co193 2.053 . S
O198 Co194 2.126 . S
O198 H197 0.760 . S
O198 Co199 2.009 . S
Co199 H197 2.400 . S
Co199 O198 2.009 . S
Co199 O200 2.053 . S
Co199 O202 2.094 . S
Co199 O206 2.122 . S
Co199 O220 2.115 . S
Co199 O221 2.315 . S
O200 Co199 2.053 . S
O200 C212 1.259 . S
O201 Co193 2.047 . S
O201 C212 1.257 . S
O202 Co199 2.094 . S
O202 C213 1.253 . S
O203 Co194 2.063 . S
O203 C213 1.268 . S
O204 Co192 2.115 . S
O204 C214 1.281 . S
O205 Co192 2.315 . S
O205 C214 1.252 . S
O206 Co199 2.122 . S
O206 C215 1.272 . S
O207 Co193 2.113 . S
O207 C215 1.245 . S
C208 O216 1.259 . S
C208 O217 1.257 . S
C209 O218 1.268 . S
C209 O219 1.253 . S
C210 O220 1.281 . S
C210 O221 1.252 . S
C211 O222 1.272 . S
C211 O223 1.245 . S
C212 O200 1.259 . S
C212 O201 1.257 . S
C213 O202 1.253 . S
C213 O203 1.268 . S
C214 O204 1.281 . S
C214 O205 1.252 . S
C215 O206 1.272 . S
C215 O207 1.245 . S
O216 Co192 2.053 . S
O216 C208 1.259 . S
O217 Co194 2.047 . S
O217 C208 1.257 . S
O218 Co193 2.063 . S
O218 C209 1.268 . S
O219 Co192 2.094 . S
O219 C209 1.253 . S
O220 Co199 2.115 . S
O220 C210 1.281 . S
O221 Co199 2.315 . S
O221 C210 1.252 . S
O222 Co192 2.122 . S
O222 C211 1.272 . S
O223 Co194 2.113 . S
O223 C211 1.245 . S
Co224 H227 2.400 . S
Co224 O228 2.009 . S
Co224 O236 2.115 . S
Co224 O237 2.315 . S
Co224 O248 2.053 . S
Co224 O251 2.094 . S
Co224 O254 2.122 . S
Co225 O228 2.126 . S
Co225 H229 2.388 . S
Co225 O230 2.053 . S
Co225 O233 2.047 . S
Co225 O239 2.113 . S
Co225 O250 2.063 . S
Co226 H227 2.388 . S
Co226 O228 2.053 . S
Co226 O230 2.126 . S
Co226 O235 2.063 . S
Co226 O249 2.047 . S
Co226 O255 2.113 . S
H227 Co224 2.400 . S
H227 Co226 2.388 . S
H227 O228 0.760 . S
O228 Co224 2.009 . S
O228 Co225 2.126 . S
O228 Co226 2.053 . S
O228 H227 0.760 . S
H229 Co225 2.388 . S
H229 O230 0.760 . S
H229 Co231 2.400 . S
O230 Co225 2.053 . S
O230 Co226 2.126 . S
O230 H229 0.760 . S
O230 Co231 2.009 . S
Co231 H229 2.400 . S
Co231 O230 2.009 . S
Co231 O232 2.053 . S
Co231 O234 2.094 . S
Co231 O238 2.122 . S
Co231 O252 2.115 . S
Co231 O253 2.315 . S
O232 Co231 2.053 . S
O232 C244 1.259 . S
O233 Co225 2.047 . S
O233 C244 1.257 . S
O234 Co231 2.094 . S
O234 C245 1.253 . S
O235 Co226 2.063 . S
O235 C245 1.268 . S
O236 Co224 2.115 . S
O236 C246 1.281 . S
O237 Co224 2.315 . S
O237 C246 1.252 . S
O238 Co231 2.122 . S
O238 C247 1.272 . S
O239 Co225 2.113 . S
O239 C247 1.245 . S
C240 O248 1.259 . S
C240 O249 1.257 . S
C241 O250 1.268 . S
C241 O251 1.253 . S
C242 O252 1.281 . S
C242 O253 1.252 . S
C243 O254 1.272 . S
C243 O255 1.245 . S
C244 O232 1.259 . S
C244 O233 1.257 . S
C245 O234 1.253 . S
C245 O235 1.268 . S
C246 O236 1.281 . S
C246 O237 1.252 . S
C247 O238 1.272 . S
C247 O239 1.245 . S
O248 Co224 2.053 . S
O248 C240 1.259 . S
O249 Co226 2.047 . S
O249 C240 1.257 . S
O250 Co225 2.063 . S
O250 C241 1.268 . S
O251 Co224 2.094 . S
O251 C241 1.253 . S
O252 Co231 2.115 . S
O252 C242 1.281 . S
O253 Co231 2.315 . S
O253 C242 1.252 . S
O254 Co224 2.122 . S
O254 C243 1.272 . S
O255 Co226 2.113 . S
O255 C243 1.245 . S
Co256 H259 2.400 . S
Co256 O260 2.009 . S
Co256 O268 2.115 . S
Co256 O269 2.315 . S
Co256 O280 2.053 . S
Co256 O283 2.094 . S
Co256 O286 2.122 . S
Co257 O260 2.126 . S
Co257 H261 2.388 . S
Co257 O262 2.053 . S
Co257 O265 2.047 . S
Co257 O271 2.113 . S
Co257 O282 2.063 . S
Co258 H259 2.388 . S
Co258 O260 2.053 . S
Co258 O262 2.126 . S
Co258 O267 2.063 . S
Co258 O281 2.047 . S
Co258 O287 2.113 . S
H259 Co256 2.400 . S
H259 Co258 2.388 . S
H259 O260 0.760 . S
O260 Co256 2.009 . S
O260 Co257 2.126 . S
O260 Co258 2.053 . S
O260 H259 0.760 . S
H261 Co257 2.388 . S
H261 O262 0.760 . S
H261 Co263 2.400 . S
O262 Co257 2.053 . S
O262 Co258 2.126 . S
O262 H261 0.760 . S
O262 Co263 2.009 . S
Co263 H261 2.400 . S
Co263 O262 2.009 . S
Co263 O264 2.053 . S
Co263 O266 2.094 . S
Co263 O270 2.122 . S
Co263 O284 2.115 . S
Co263 O285 2.315 . S
O264 Co263 2.053 . S
O264 C276 1.259 . S
O265 Co257 2.047 . S
O265 C276 1.257 . S
O266 Co263 2.094 . S
O266 C277 1.253 . S
O267 Co258 2.063 . S
O267 C277 1.268 . S
O268 Co256 2.115 . S
O268 C278 1.281 . S
O269 Co256 2.315 . S
O269 C278 1.252 . S
O270 Co263 2.122 . S
O270 C279 1.272 . S
O271 Co257 2.113 . S
O271 C279 1.245 . S
C272 O280 1.259 . S
C272 O281 1.257 . S
C273 O282 1.268 . S
C273 O283 1.253 . S
C274 O284 1.281 . S
C274 O285 1.252 . S
C275 O286 1.272 . S
C275 O287 1.245 . S
C276 O264 1.259 . S
C276 O265 1.257 . S
C277 O266 1.253 . S
C277 O267 1.268 . S
C278 O268 1.281 . S
C278 O269 1.252 . S
C279 O270 1.272 . S
C279 O271 1.245 . S
O280 Co256 2.053 . S
O280 C272 1.259 . S
O281 Co258 2.047 . S
O281 C272 1.257 . S
O282 Co257 2.063 . S
O282 C273 1.268 . S
O283 Co256 2.094 . S
O283 C273 1.253 . S
O284 Co263 2.115 . S
O284 C274 1.281 . S
O285 Co263 2.315 . S
O285 C274 1.252 . S
O286 Co256 2.122 . S
O286 C275 1.272 . S
O287 Co258 2.113 . S
O287 C275 1.245 . S
Co288 H291 2.400 . S
Co288 O292 2.009 . S
Co288 O300 2.115 . S
Co288 O301 2.315 . S
Co288 O312 2.053 . S
Co288 O315 2.094 . S
Co288 O318 2.122 . S
Co289 O292 2.126 . S
Co289 H293 2.388 . S
Co289 O294 2.053 . S
Co289 O297 2.047 . S
Co289 O303 2.113 . S
Co289 O314 2.063 . S
Co290 H291 2.388 . S
Co290 O292 2.053 . S
Co290 O294 2.126 . S
Co290 O299 2.063 . S
Co290 O313 2.047 . S
Co290 O319 2.113 . S
H291 Co288 2.400 . S
H291 Co290 2.388 . S
H291 O292 0.760 . S
O292 Co288 2.009 . S
O292 Co289 2.126 . S
O292 Co290 2.053 . S
O292 H291 0.760 . S
H293 Co289 2.388 . S
H293 O294 0.760 . S
H293 Co295 2.400 . S
O294 Co289 2.053 . S
O294 Co290 2.126 . S
O294 H293 0.760 . S
O294 Co295 2.009 . S
Co295 H293 2.400 . S
Co295 O294 2.009 . S
Co295 O296 2.053 . S
Co295 O298 2.094 . S
Co295 O302 2.122 . S
Co295 O316 2.115 . S
Co295 O317 2.315 . S
O296 Co295 2.053 . S
O296 C308 1.259 . S
O297 Co289 2.047 . S
O297 C308 1.257 . S
O298 Co295 2.094 . S
O298 C309 1.253 . S
O299 Co290 2.063 . S
O299 C309 1.268 . S
O300 Co288 2.115 . S
O300 C310 1.281 . S
O301 Co288 2.315 . S
O301 C310 1.252 . S
O302 Co295 2.122 . S
O302 C311 1.272 . S
O303 Co289 2.113 . S
O303 C311 1.245 . S
C304 O312 1.259 . S
C304 O313 1.257 . S
C305 O314 1.268 . S
C305 O315 1.253 . S
C306 O316 1.281 . S
C306 O317 1.252 . S
C307 O318 1.272 . S
C307 O319 1.245 . S
C308 O296 1.259 . S
C308 O297 1.257 . S
C309 O298 1.253 . S
C309 O299 1.268 . S
C310 O300 1.281 . S
C310 O301 1.252 . S
C311 O302 1.272 . S
C311 O303 1.245 . S
O312 Co288 2.053 . S
O312 C304 1.259 . S
O313 Co290 2.047 . S
O313 C304 1.257 . S
O314 Co289 2.063 . S
O314 C305 1.268 . S
O315 Co288 2.094 . S
O315 C305 1.253 . S
O316 Co295 2.115 . S
O316 C306 1.281 . S
O317 Co295 2.315 . S
O317 C306 1.252 . S
O318 Co288 2.122 . S
O318 C307 1.272 . S
O319 Co290 2.113 . S
O319 C307 1.245 . S
Co320 H323 2.400 . S
Co320 O324 2.009 . S
Co320 O332 2.115 . S
Co320 O333 2.315 . S
Co320 O344 2.053 . S
Co320 O347 2.094 . S
Co320 O350 2.122 . S
Co321 O324 2.126 . S
Co321 H325 2.388 . S
Co321 O326 2.053 . S
Co321 O329 2.047 . S
Co321 O335 2.113 . S
Co321 O346 2.063 . S
Co322 H323 2.388 . S
Co322 O324 2.053 . S
Co322 O326 2.126 . S
Co322 O331 2.063 . S
Co322 O345 2.047 . S
Co322 O351 2.113 . S
H323 Co320 2.400 . S
H323 Co322 2.388 . S
H323 O324 0.760 . S
O324 Co320 2.009 . S
O324 Co321 2.126 . S
O324 Co322 2.053 . S
O324 H323 0.760 . S
H325 Co321 2.388 . S
H325 O326 0.760 . S
H325 Co327 2.400 . S
O326 Co321 2.053 . S
O326 Co322 2.126 . S
O326 H325 0.760 . S
O326 Co327 2.009 . S
Co327 H325 2.400 . S
Co327 O326 2.009 . S
Co327 O328 2.053 . S
Co327 O330 2.094 . S
Co327 O334 2.122 . S
Co327 O348 2.115 . S
Co327 O349 2.315 . S
O328 Co327 2.053 . S
O328 C340 1.259 . S
O329 Co321 2.047 . S
O329 C340 1.257 . S
O330 Co327 2.094 . S
O330 C341 1.253 . S
O331 Co322 2.063 . S
O331 C341 1.268 . S
O332 Co320 2.115 . S
O332 C342 1.281 . S
O333 Co320 2.315 . S
O333 C342 1.252 . S
O334 Co327 2.122 . S
O334 C343 1.272 . S
O335 Co321 2.113 . S
O335 C343 1.245 . S
C336 O344 1.259 . S
C336 O345 1.257 . S
C337 O346 1.268 . S
C337 O347 1.253 . S
C338 O348 1.281 . S
C338 O349 1.252 . S
C339 O350 1.272 . S
C339 O351 1.245 . S
C340 O328 1.259 . S
C340 O329 1.257 . S
C341 O330 1.253 . S
C341 O331 1.268 . S
C342 O332 1.281 . S
C342 O333 1.252 . S
C343 O334 1.272 . S
C343 O335 1.245 . S
O344 Co320 2.053 . S
O344 C336 1.259 . S
O345 Co322 2.047 . S
O345 C336 1.257 . S
O346 Co321 2.063 . S
O346 C337 1.268 . S
O347 Co320 2.094 . S
O347 C337 1.253 . S
O348 Co327 2.115 . S
O348 C338 1.281 . S
O349 Co327 2.315 . S
O349 C338 1.252 . S
O350 Co320 2.122 . S
O350 C339 1.272 . S
O351 Co322 2.113 . S
O351 C339 1.245 . S
Co352 H355 2.400 . S
Co352 O356 2.009 . S
Co352 O364 2.115 . S
Co352 O365 2.315 . S
Co352 O376 2.053 . S
Co352 O379 2.094 . S
Co352 O382 2.122 . S
Co353 O356 2.126 . S
Co353 H357 2.388 . S
Co353 O358 2.053 . S
Co353 O361 2.047 . S
Co353 O367 2.113 . S
Co353 O378 2.063 . S
Co354 H355 2.388 . S
Co354 O356 2.053 . S
Co354 O358 2.126 . S
Co354 O363 2.063 . S
Co354 O377 2.047 . S
Co354 O383 2.113 . S
H355 Co352 2.400 . S
H355 Co354 2.388 . S
H355 O356 0.760 . S
O356 Co352 2.009 . S
O356 Co353 2.126 . S
O356 Co354 2.053 . S
O356 H355 0.760 . S
H357 Co353 2.388 . S
H357 O358 0.760 . S
H357 Co359 2.400 . S
O358 Co353 2.053 . S
O358 Co354 2.126 . S
O358 H357 0.760 . S
O358 Co359 2.009 . S
Co359 H357 2.400 . S
Co359 O358 2.009 . S
Co359 O360 2.053 . S
Co359 O362 2.094 . S
Co359 O366 2.122 . S
Co359 O380 2.115 . S
Co359 O381 2.315 . S
O360 Co359 2.053 . S
O360 C372 1.259 . S
O361 Co353 2.047 . S
O361 C372 1.257 . S
O362 Co359 2.094 . S
O362 C373 1.253 . S
O363 Co354 2.063 . S
O363 C373 1.268 . S
O364 Co352 2.115 . S
O364 C374 1.281 . S
O365 Co352 2.315 . S
O365 C374 1.252 . S
O366 Co359 2.122 . S
O366 C375 1.272 . S
O367 Co353 2.113 . S
O367 C375 1.245 . S
C368 O376 1.259 . S
C368 O377 1.257 . S
C369 O378 1.268 . S
C369 O379 1.253 . S
C370 O380 1.281 . S
C370 O381 1.252 . S
C371 O382 1.272 . S
C371 O383 1.245 . S
C372 O360 1.259 . S
C372 O361 1.257 . S
C373 O362 1.253 . S
C373 O363 1.268 . S
C374 O364 1.281 . S
C374 O365 1.252 . S
C375 O366 1.272 . S
C375 O367 1.245 . S
O376 Co352 2.053 . S
O376 C368 1.259 . S
O377 Co354 2.047 . S
O377 C368 1.257 . S
O378 Co353 2.063 . S
O378 C369 1.268 . S
O379 Co352 2.094 . S
O379 C369 1.253 . S
O380 Co359 2.115 . S
O380 C370 1.281 . S
O381 Co359 2.315 . S
O381 C370 1.252 . S
O382 Co352 2.122 . S
O382 C371 1.272 . S
O383 Co354 2.113 . S
O383 C371 1.245 . S
Co384 H387 2.400 . S
Co384 O388 2.009 . S
Co384 O396 2.115 . S
Co384 O397 2.315 . S
Co384 O408 2.053 . S
Co384 O411 2.094 . S
Co384 O414 2.122 . S
Co385 O388 2.126 . S
Co385 H389 2.388 . S
Co385 O390 2.053 . S
Co385 O393 2.047 . S
Co385 O399 2.113 . S
Co385 O410 2.063 . S
Co386 H387 2.388 . S
Co386 O388 2.053 . S
Co386 O390 2.126 . S
Co386 O395 2.063 . S
Co386 O409 2.047 . S
Co386 O415 2.113 . S
H387 Co384 2.400 . S
H387 Co386 2.388 . S
H387 O388 0.760 . S
O388 Co384 2.009 . S
O388 Co385 2.126 . S
O388 Co386 2.053 . S
O388 H387 0.760 . S
H389 Co385 2.388 . S
H389 O390 0.760 . S
H389 Co391 2.400 . S
O390 Co385 2.053 . S
O390 Co386 2.126 . S
O390 H389 0.760 . S
O390 Co391 2.009 . S
Co391 H389 2.400 . S
Co391 O390 2.009 . S
Co391 O392 2.053 . S
Co391 O394 2.094 . S
Co391 O398 2.122 . S
Co391 O412 2.115 . S
Co391 O413 2.315 . S
O392 Co391 2.053 . S
O392 C404 1.259 . S
O393 Co385 2.047 . S
O393 C404 1.257 . S
O394 Co391 2.094 . S
O394 C405 1.253 . S
O395 Co386 2.063 . S
O395 C405 1.268 . S
O396 Co384 2.115 . S
O396 C406 1.281 . S
O397 Co384 2.315 . S
O397 C406 1.252 . S
O398 Co391 2.122 . S
O398 C407 1.272 . S
O399 Co385 2.113 . S
O399 C407 1.245 . S
C400 O408 1.259 . S
C400 O409 1.257 . S
C401 O410 1.268 . S
C401 O411 1.253 . S
C402 O412 1.281 . S
C402 O413 1.252 . S
C403 O414 1.272 . S
C403 O415 1.245 . S
C404 O392 1.259 . S
C404 O393 1.257 . S
C405 O394 1.253 . S
C405 O395 1.268 . S
C406 O396 1.281 . S
C406 O397 1.252 . S
C407 O398 1.272 . S
C407 O399 1.245 . S
O408 Co384 2.053 . S
O408 C400 1.259 . S
O409 Co386 2.047 . S
O409 C400 1.257 . S
O410 Co385 2.063 . S
O410 C401 1.268 . S
O411 Co384 2.094 . S
O411 C401 1.253 . S
O412 Co391 2.115 . S
O412 C402 1.281 . S
O413 Co391 2.315 . S
O413 C402 1.252 . S
O414 Co384 2.122 . S
O414 C403 1.272 . S
O415 Co386 2.113 . S
O415 C403 1.245 . S
Co416 H419 2.400 . S
Co416 O420 2.009 . S
Co416 O428 2.115 . S
Co416 O429 2.315 . S
Co416 O440 2.053 . S
Co416 O443 2.094 . S
Co416 O446 2.122 . S
Co417 O420 2.126 . S
Co417 H421 2.388 . S
Co417 O422 2.053 . S
Co417 O425 2.047 . S
Co417 O431 2.113 . S
Co417 O442 2.063 . S
Co418 H419 2.388 . S
Co418 O420 2.053 . S
Co418 O422 2.126 . S
Co418 O427 2.063 . S
Co418 O441 2.047 . S
Co418 O447 2.113 . S
H419 Co416 2.400 . S
H419 Co418 2.388 . S
H419 O420 0.760 . S
O420 Co416 2.009 . S
O420 Co417 2.126 . S
O420 Co418 2.053 . S
O420 H419 0.760 . S
H421 Co417 2.388 . S
H421 O422 0.760 . S
H421 Co423 2.400 . S
O422 Co417 2.053 . S
O422 Co418 2.126 . S
O422 H421 0.760 . S
O422 Co423 2.009 . S
Co423 H421 2.400 . S
Co423 O422 2.009 . S
Co423 O424 2.053 . S
Co423 O426 2.094 . S
Co423 O430 2.122 . S
Co423 O444 2.115 . S
Co423 O445 2.315 . S
O424 Co423 2.053 . S
O424 C436 1.259 . S
O425 Co417 2.047 . S
O425 C436 1.257 . S
O426 Co423 2.094 . S
O426 C437 1.253 . S
O427 Co418 2.063 . S
O427 C437 1.268 . S
O428 Co416 2.115 . S
O428 C438 1.281 . S
O429 Co416 2.315 . S
O429 C438 1.252 . S
O430 Co423 2.122 . S
O430 C439 1.272 . S
O431 Co417 2.113 . S
O431 C439 1.245 . S
C432 O440 1.259 . S
C432 O441 1.257 . S
C433 O442 1.268 . S
C433 O443 1.253 . S
C434 O444 1.281 . S
C434 O445 1.252 . S
C435 O446 1.272 . S
C435 O447 1.245 . S
C436 O424 1.259 . S
C436 O425 1.257 . S
C437 O426 1.253 . S
C437 O427 1.268 . S
C438 O428 1.281 . S
C438 O429 1.252 . S
C439 O430 1.272 . S
C439 O431 1.245 . S
O440 Co416 2.053 . S
O440 C432 1.259 . S
O441 Co418 2.047 . S
O441 C432 1.257 . S
O442 Co417 2.063 . S
O442 C433 1.268 . S
O443 Co416 2.094 . S
O443 C433 1.253 . S
O444 Co423 2.115 . S
O444 C434 1.281 . S
O445 Co423 2.315 . S
O445 C434 1.252 . S
O446 Co416 2.122 . S
O446 C435 1.272 . S
O447 Co418 2.113 . S
O447 C435 1.245 . S
Co448 H451 2.400 . S
Co448 O452 2.009 . S
Co448 O460 2.115 . S
Co448 O461 2.315 . S
Co448 O472 2.053 . S
Co448 O475 2.094 . S
Co448 O478 2.122 . S
Co449 O452 2.126 . S
Co449 H453 2.388 . S
Co449 O454 2.053 . S
Co449 O457 2.047 . S
Co449 O463 2.113 . S
Co449 O474 2.063 . S
Co450 H451 2.388 . S
Co450 O452 2.053 . S
Co450 O454 2.126 . S
Co450 O459 2.063 . S
Co450 O473 2.047 . S
Co450 O479 2.113 . S
H451 Co448 2.400 . S
H451 Co450 2.388 . S
H451 O452 0.760 . S
O452 Co448 2.009 . S
O452 Co449 2.126 . S
O452 Co450 2.053 . S
O452 H451 0.760 . S
H453 Co449 2.388 . S
H453 O454 0.760 . S
H453 Co455 2.400 . S
O454 Co449 2.053 . S
O454 Co450 2.126 . S
O454 H453 0.760 . S
O454 Co455 2.009 . S
Co455 H453 2.400 . S
Co455 O454 2.009 . S
Co455 O456 2.053 . S
Co455 O458 2.094 . S
Co455 O462 2.122 . S
Co455 O476 2.115 . S
Co455 O477 2.315 . S
O456 Co455 2.053 . S
O456 C468 1.259 . S
O457 Co449 2.047 . S
O457 C468 1.257 . S
O458 Co455 2.094 . S
O458 C469 1.253 . S
O459 Co450 2.063 . S
O459 C469 1.268 . S
O460 Co448 2.115 . S
O460 C470 1.281 . S
O461 Co448 2.315 . S
O461 C470 1.252 . S
O462 Co455 2.122 . S
O462 C471 1.272 . S
O463 Co449 2.113 . S
O463 C471 1.245 . S
C464 O472 1.259 . S
C464 O473 1.257 . S
C465 O474 1.268 . S
C465 O475 1.253 . S
C466 O476 1.281 . S
C466 O477 1.252 . S
C467 O478 1.272 . S
C467 O479 1.245 . S
C468 O456 1.259 . S
C468 O457 1.257 . S
C469 O458 1.253 . S
C469 O459 1.268 . S
C470 O460 1.281 . S
C470 O461 1.252 . S
C471 O462 1.272 . S
C471 O463 1.245 . S
O472 Co448 2.053 . S
O472 C464 1.259 . S
O473 Co450 2.047 . S
O473 C464 1.257 . S
O474 Co449 2.063 . S
O474 C465 1.268 . S
O475 Co448 2.094 . S
O475 C465 1.253 . S
O476 Co455 2.115 . S
O476 C466 1.281 . S
O477 Co455 2.315 . S
O477 C466 1.252 . S
O478 Co448 2.122 . S
O478 C467 1.272 . S
O479 Co450 2.113 . S
O479 C467 1.245 . S
Co480 H483 2.400 . S
Co480 O484 2.009 . S
Co480 O492 2.115 . S
Co480 O493 2.315 . S
Co480 O504 2.053 . S
Co480 O507 2.094 . S
Co480 O510 2.122 . S
Co481 O484 2.126 . S
Co481 H485 2.388 . S
Co481 O486 2.053 . S
Co481 O489 2.047 . S
Co481 O495 2.113 . S
Co481 O506 2.063 . S
Co482 H483 2.388 . S
Co482 O484 2.053 . S
Co482 O486 2.126 . S
Co482 O491 2.063 . S
Co482 O505 2.047 . S
Co482 O511 2.113 . S
H483 Co480 2.400 . S
H483 Co482 2.388 . S
H483 O484 0.760 . S
O484 Co480 2.009 . S
O484 Co481 2.126 . S
O484 Co482 2.053 . S
O484 H483 0.760 . S
H485 Co481 2.388 . S
H485 O486 0.760 . S
H485 Co487 2.400 . S
O486 Co481 2.053 . S
O486 Co482 2.126 . S
O486 H485 0.760 . S
O486 Co487 2.009 . S
Co487 H485 2.400 . S
Co487 O486 2.009 . S
Co487 O488 2.053 . S
Co487 O490 2.094 . S
Co487 O494 2.122 . S
Co487 O508 2.115 . S
Co487 O509 2.315 . S
O488 Co487 2.053 . S
O488 C500 1.259 . S
O489 Co481 2.047 . S
O489 C500 1.257 . S
O490 Co487 2.094 . S
O490 C501 1.253 . S
O491 Co482 2.063 . S
O491 C501 1.268 . S
O492 Co480 2.115 . S
O492 C502 1.281 . S
O493 Co480 2.315 . S
O493 C502 1.252 . S
O494 Co487 2.122 . S
O494 C503 1.272 . S
O495 Co481 2.113 . S
O495 C503 1.245 . S
C496 O504 1.259 . S
C496 O505 1.257 . S
C497 O506 1.268 . S
C497 O507 1.253 . S
C498 O508 1.281 . S
C498 O509 1.252 . S
C499 O510 1.272 . S
C499 O511 1.245 . S
C500 O488 1.259 . S
C500 O489 1.257 . S
C501 O490 1.253 . S
C501 O491 1.268 . S
C502 O492 1.281 . S
C502 O493 1.252 . S
C503 O494 1.272 . S
C503 O495 1.245 . S
O504 Co480 2.053 . S
O504 C496 1.259 . S
O505 Co482 2.047 . S
O505 C496 1.257 . S
O506 Co481 2.063 . S
O506 C497 1.268 . S
O507 Co480 2.094 . S
O507 C497 1.253 . S
O508 Co487 2.115 . S
O508 C498 1.281 . S
O509 Co487 2.315 . S
O509 C498 1.252 . S
O510 Co480 2.122 . S
O510 C499 1.272 . S
O511 Co482 2.113 . S
O511 C499 1.245 . S
H512 C520 0.929 . S
H513 C522 0.930 . S
H514 C524 0.930 . S
H515 C527 0.929 . S
H516 C530 0.930 . S
H517 C532 0.960 . S
H518 C532 0.960 . S
H519 C532 0.960 . S
C520 H512 0.929 . S
C520 C521 1.377 . S
C520 C522 1.384 . S
C521 C520 1.377 . S
C521 C527 1.390 . S
C522 H513 0.930 . S
C522 C520 1.384 . S
C522 C523 1.372 . S
C523 C522 1.372 . S
C523 C524 1.400 . S
C523 C528 1.490 . S
C524 H514 0.930 . S
C524 C523 1.400 . S
C524 C527 1.386 . S
H525 C541 0.930 . S
H526 C542 0.931 . S
C527 H515 0.929 . S
C527 C521 1.390 . S
C527 C524 1.386 . S
C528 C523 1.490 . S
C528 C530 1.395 . S
C528 C531 1.403 . S
H529 C535 0.930 . S
C530 H516 0.930 . S
C530 C528 1.395 . S
C530 C533 1.403 . S
C531 C528 1.403 . S
C531 C532 1.524 . S
C531 C535 1.400 . S
C532 H517 0.960 . S
C532 H518 0.960 . S
C532 H519 0.960 . S
C532 C531 1.524 . S
C533 C530 1.403 . S
C533 C534 1.392 . S
C533 C537 1.495 . S
C534 C533 1.392 . S
C534 C535 1.385 . S
C534 C536 1.478 . S
C535 H529 0.930 . S
C535 C531 1.400 . S
C535 C534 1.385 . S
C536 C534 1.478 . S
C536 C538 1.381 . S
C536 C542 1.383 . S
C537 C533 1.495 . S
C537 H543 0.959 . S
C537 H544 0.961 . S
C537 H545 0.960 . S
C538 C536 1.381 . S
C538 C539 1.394 . S
C538 H546 0.930 . S
C539 C538 1.394 . S
C539 C540 1.383 . S
C539 H547 0.929 . S
C540 C539 1.383 . S
C540 C541 1.377 . S
C541 H525 0.930 . S
C541 C540 1.377 . S
C541 C542 1.379 . S
C542 H526 0.931 . S
C542 C536 1.383 . S
C542 C541 1.379 . S
H543 C537 0.959 . S
H544 C537 0.961 . S
H545 C537 0.960 . S
H546 C538 0.930 . S
H547 C539 0.929 . S
H548 C556 0.929 . S
H549 C558 0.930 . S
H550 C560 0.930 . S
H551 C563 0.929 . S
H552 C566 0.930 1_455 S
H553 C568 0.960 . S
H554 C568 0.960 . S
H555 C568 0.960 . S
C556 H548 0.929 . S
C556 C557 1.377 1_565 S
C556 C558 1.384 . S
C557 C556 1.377 1_545 S
C557 C563 1.390 1_455 S
C558 H549 0.930 . S
C558 C556 1.384 . S
C558 C559 1.372 1_455 S
C559 C558 1.372 1_655 S
C559 C560 1.400 . S
C559 C564 1.490 . S
C560 H550 0.930 . S
C560 C559 1.400 . S
C560 C563 1.386 1_565 S
H561 C577 0.930 . S
H562 C578 0.931 . S
C563 H551 0.929 . S
C563 C557 1.390 1_655 S
C563 C560 1.386 1_545 S
C564 C559 1.490 . S
C564 C566 1.395 . S
C564 C567 1.403 . S
H565 C571 0.930 . S
C566 H552 0.930 1_655 S
C566 C564 1.395 . S
C566 C569 1.403 . S
C567 C564 1.403 . S
C567 C568 1.524 . S
C567 C571 1.400 . S
C568 H553 0.960 . S
C568 H554 0.960 . S
C568 H555 0.960 . S
C568 C567 1.524 . S
C569 C566 1.403 . S
C569 C570 1.392 . S
C569 C573 1.495 . S
C570 C569 1.392 . S
C570 C571 1.385 . S
C570 C572 1.478 . S
C571 H565 0.930 . S
C571 C567 1.400 . S
C571 C570 1.385 . S
C572 C570 1.478 . S
C572 C574 1.381 . S
C572 C578 1.383 . S
C573 C569 1.495 . S
C573 H579 0.959 1_655 S
C573 H580 0.961 . S
C573 H581 0.960 . S
C574 C572 1.381 . S
C574 C575 1.394 . S
C574 H582 0.930 . S
C575 C574 1.394 . S
C575 C576 1.383 . S
C575 H583 0.929 . S
C576 C575 1.383 . S
C576 C577 1.377 . S
C577 H561 0.930 . S
C577 C576 1.377 . S
C577 C578 1.379 . S
C578 H562 0.931 . S
C578 C572 1.383 . S
C578 C577 1.379 . S
H579 C573 0.959 1_455 S
H580 C573 0.961 . S
H581 C573 0.960 . S
H582 C574 0.930 . S
H583 C575 0.929 . S
H584 C592 0.929 . S
H585 C594 0.930 . S
H586 C596 0.930 . S
H587 C599 0.929 . S
H588 C602 0.930 . S
H589 C604 0.960 . S
H590 C604 0.960 . S
H591 C604 0.960 . S
C592 H584 0.929 . S
C592 C593 1.377 1_565 S
C592 C594 1.384 . S
C593 C592 1.377 1_545 S
C593 C599 1.390 . S
C594 H585 0.930 . S
C594 C592 1.384 . S
C594 C595 1.372 . S
C595 C594 1.372 . S
C595 C596 1.400 . S
C595 C600 1.490 . S
C596 H586 0.930 . S
C596 C595 1.400 . S
C596 C599 1.386 1_565 S
H597 C613 0.930 . S
H598 C614 0.931 . S
C599 H587 0.929 . S
C599 C593 1.390 . S
C599 C596 1.386 1_545 S
C600 C595 1.490 . S
C600 C602 1.395 . S
C600 C603 1.403 . S
H601 C607 0.930 . S
C602 H588 0.930 . S
C602 C600 1.395 . S
C602 C605 1.403 . S
C603 C600 1.403 . S
C603 C604 1.524 . S
C603 C607 1.400 . S
C604 H589 0.960 . S
C604 H590 0.960 . S
C604 H591 0.960 . S
C604 C603 1.524 . S
C605 C602 1.403 . S
C605 C606 1.392 . S
C605 C609 1.495 . S
C606 C605 1.392 . S
C606 C607 1.385 . S
C606 C608 1.478 . S
C607 H601 0.930 . S
C607 C603 1.400 . S
C607 C606 1.385 . S
C608 C606 1.478 . S
C608 C610 1.381 . S
C608 C614 1.383 . S
C609 C605 1.495 . S
C609 H615 0.959 . S
C609 H616 0.961 . S
C609 H617 0.960 . S
C610 C608 1.381 . S
C610 C611 1.394 . S
C610 H618 0.930 . S
C611 C610 1.394 . S
C611 C612 1.383 . S
C611 H619 0.929 . S
C612 C611 1.383 . S
C612 C613 1.377 . S
C613 H597 0.930 . S
C613 C612 1.377 . S
C613 C614 1.379 . S
C614 H598 0.931 . S
C614 C608 1.383 . S
C614 C613 1.379 . S
H615 C609 0.959 . S
H616 C609 0.961 . S
H617 C609 0.960 . S
H618 C610 0.930 . S
H619 C611 0.929 . S
H620 C628 0.929 . S
H621 C630 0.930 . S
H622 C632 0.930 . S
H623 C635 0.929 . S
H624 C638 0.930 . S
H625 C640 0.960 . S
H626 C640 0.960 . S
H627 C640 0.960 . S
C628 H620 0.929 . S
C628 C629 1.377 . S
C628 C630 1.384 . S
C629 C628 1.377 . S
C629 C635 1.390 1_455 S
C630 H621 0.930 . S
C630 C628 1.384 . S
C630 C631 1.372 1_455 S
C631 C630 1.372 1_655 S
C631 C632 1.400 . S
C631 C636 1.490 . S
C632 H622 0.930 . S
C632 C631 1.400 . S
C632 C635 1.386 . S
H633 C649 0.930 . S
H634 C650 0.931 . S
C635 H623 0.929 . S
C635 C629 1.390 1_655 S
C635 C632 1.386 . S
C636 C631 1.490 . S
C636 C638 1.395 . S
C636 C639 1.403 . S
H637 C643 0.930 . S
C638 H624 0.930 . S
C638 C636 1.395 . S
C638 C641 1.403 . S
C639 C636 1.403 . S
C639 C640 1.524 . S
C639 C643 1.400 . S
C640 H625 0.960 . S
C640 H626 0.960 . S
C640 H627 0.960 . S
C640 C639 1.524 . S
C641 C638 1.403 . S
C641 C642 1.392 . S
C641 C645 1.495 . S
C642 C641 1.392 . S
C642 C643 1.385 . S
C642 C644 1.478 . S
C643 H637 0.930 . S
C643 C639 1.400 . S
C643 C642 1.385 . S
C644 C642 1.478 . S
C644 C646 1.381 . S
C644 C650 1.383 . S
C645 C641 1.495 . S
C645 H651 0.959 . S
C645 H652 0.961 . S
C645 H653 0.960 . S
C646 C644 1.381 . S
C646 C647 1.394 . S
C646 H654 0.930 . S
C647 C646 1.394 . S
C647 C648 1.383 . S
C647 H655 0.929 . S
C648 C647 1.383 . S
C648 C649 1.377 . S
C649 H633 0.930 . S
C649 C648 1.377 . S
C649 C650 1.379 . S
C650 H634 0.931 . S
C650 C644 1.383 . S
C650 C649 1.379 . S
H651 C645 0.959 . S
H652 C645 0.961 . S
H653 C645 0.960 . S
H654 C646 0.930 . S
H655 C647 0.929 . S
H656 C664 0.929 . S
H657 C666 0.930 . S
H658 C668 0.930 . S
H659 C671 0.929 . S
H660 C674 0.930 . S
H661 C676 0.960 . S
H662 C676 0.960 . S
H663 C676 0.960 . S
C664 H656 0.929 . S
C664 C665 1.377 . S
C664 C666 1.384 . S
C665 C664 1.377 . S
C665 C671 1.390 . S
C666 H657 0.930 . S
C666 C664 1.384 . S
C666 C667 1.372 . S
C667 C666 1.372 . S
C667 C668 1.400 . S
C667 C672 1.490 . S
C668 H658 0.930 . S
C668 C667 1.400 . S
C668 C671 1.386 . S
H669 C685 0.930 . S
H670 C686 0.931 . S
C671 H659 0.929 . S
C671 C665 1.390 . S
C671 C668 1.386 . S
C672 C667 1.490 . S
C672 C674 1.395 . S
C672 C675 1.403 . S
H673 C679 0.930 . S
C674 H660 0.930 . S
C674 C672 1.395 . S
C674 C677 1.403 . S
C675 C672 1.403 . S
C675 C676 1.524 . S
C675 C679 1.400 . S
C676 H661 0.960 . S
C676 H662 0.960 . S
C676 H663 0.960 . S
C676 C675 1.524 . S
C677 C674 1.403 . S
C677 C678 1.392 . S
C677 C681 1.495 . S
C678 C677 1.392 . S
C678 C679 1.385 . S
C678 C680 1.478 . S
C679 H673 0.930 . S
C679 C675 1.400 . S
C679 C678 1.385 . S
C680 C678 1.478 . S
C680 C682 1.381 . S
C680 C686 1.383 . S
C681 C677 1.495 . S
C681 H687 0.959 . S
C681 H688 0.961 . S
C681 H689 0.960 . S
C682 C680 1.381 . S
C682 C683 1.394 . S
C682 H690 0.930 . S
C683 C682 1.394 . S
C683 C684 1.383 . S
C683 H691 0.929 . S
C684 C683 1.383 . S
C684 C685 1.377 . S
C685 H669 0.930 . S
C685 C684 1.377 . S
C685 C686 1.379 . S
C686 H670 0.931 . S
C686 C680 1.383 . S
C686 C685 1.379 . S
H687 C681 0.959 . S
H688 C681 0.961 . S
H689 C681 0.960 . S
H690 C682 0.930 . S
H691 C683 0.929 . S
H692 C700 0.929 . S
H693 C702 0.930 . S
H694 C704 0.930 . S
H695 C707 0.929 . S
H696 C710 0.930 . S
H697 C712 0.960 . S
H698 C712 0.960 . S
H699 C712 0.960 . S
C700 H692 0.929 . S
C700 C701 1.377 1_455 S
C700 C702 1.384 1_565 S
C701 C700 1.377 1_655 S
C701 C707 1.390 1_565 S
C702 H693 0.930 . S
C702 C700 1.384 1_545 S
C702 C703 1.372 . S
C703 C702 1.372 . S
C703 C704 1.400 1_455 S
C703 C708 1.490 . S
C704 H694 0.930 . S
C704 C703 1.400 1_655 S
C704 C707 1.386 . S
H705 C721 0.930 . S
H706 C722 0.931 . S
C707 H695 0.929 . S
C707 C701 1.390 1_545 S
C707 C704 1.386 . S
C708 C703 1.490 . S
C708 C710 1.395 . S
C708 C711 1.403 . S
H709 C715 0.930 . S
C710 H696 0.930 . S
C710 C708 1.395 . S
C710 C713 1.403 . S
C711 C708 1.403 . S
C711 C712 1.524 1_455 S
C711 C715 1.400 . S
C712 H697 0.960 . S
C712 H698 0.960 . S
C712 H699 0.960 . S
C712 C711 1.524 1_655 S
C713 C710 1.403 . S
C713 C714 1.392 . S
C713 C717 1.495 . S
C714 C713 1.392 . S
C714 C715 1.385 . S
C714 C716 1.478 . S
C715 H709 0.930 . S
C715 C711 1.400 . S
C715 C714 1.385 . S
C716 C714 1.478 . S
C716 C718 1.381 . S
C716 C722 1.383 . S
C717 C713 1.495 . S
C717 H723 0.959 . S
C717 H724 0.961 . S
C717 H725 0.960 . S
C718 C716 1.381 . S
C718 C719 1.394 . S
C718 H726 0.930 . S
C719 C718 1.394 . S
C719 C720 1.383 . S
C719 H727 0.929 . S
C720 C719 1.383 . S
C720 C721 1.377 . S
C721 H705 0.930 . S
C721 C720 1.377 . S
C721 C722 1.379 . S
C722 H706 0.931 . S
C722 C716 1.383 . S
C722 C721 1.379 . S
H723 C717 0.959 . S
H724 C717 0.961 . S
H725 C717 0.960 . S
H726 C718 0.930 . S
H727 C719 0.929 . S
H728 C736 0.929 . S
H729 C738 0.930 . S
H730 C740 0.930 . S
H731 C743 0.929 . S
H732 C746 0.930 . S
H733 C748 0.960 . S
H734 C748 0.960 . S
H735 C748 0.960 . S
C736 H728 0.929 . S
C736 C737 1.377 1_545 S
C736 C738 1.384 . S
C737 C736 1.377 1_565 S
C737 C743 1.390 . S
C738 H729 0.930 . S
C738 C736 1.384 . S
C738 C739 1.372 . S
C739 C738 1.372 . S
C739 C740 1.400 . S
C739 C744 1.490 . S
C740 H730 0.930 . S
C740 C739 1.400 . S
C740 C743 1.386 1_545 S
H741 C757 0.930 . S
H742 C758 0.931 . S
C743 H731 0.929 . S
C743 C737 1.390 . S
C743 C740 1.386 1_565 S
C744 C739 1.490 . S
C744 C746 1.395 . S
C744 C747 1.403 . S
H745 C751 0.930 . S
C746 H732 0.930 . S
C746 C744 1.395 . S
C746 C749 1.403 . S
C747 C744 1.403 . S
C747 C748 1.524 . S
C747 C751 1.400 . S
C748 H733 0.960 . S
C748 H734 0.960 . S
C748 H735 0.960 . S
C748 C747 1.524 . S
C749 C746 1.403 . S
C749 C750 1.392 . S
C749 C753 1.495 . S
C750 C749 1.392 . S
C750 C751 1.385 . S
C750 C752 1.478 . S
C751 H745 0.930 . S
C751 C747 1.400 . S
C751 C750 1.385 . S
C752 C750 1.478 . S
C752 C754 1.381 . S
C752 C758 1.383 . S
C753 C749 1.495 . S
C753 H759 0.959 . S
C753 H760 0.961 . S
C753 H761 0.960 . S
C754 C752 1.381 . S
C754 C755 1.394 . S
C754 H762 0.930 . S
C755 C754 1.394 . S
C755 C756 1.383 . S
C755 H763 0.929 . S
C756 C755 1.383 . S
C756 C757 1.377 . S
C757 H741 0.930 . S
C757 C756 1.377 . S
C757 C758 1.379 . S
C758 H742 0.931 . S
C758 C752 1.383 . S
C758 C757 1.379 . S
H759 C753 0.959 . S
H760 C753 0.961 . S
H761 C753 0.960 . S
H762 C754 0.930 . S
H763 C755 0.929 . S
H764 C772 0.929 . S
H765 C774 0.930 . S
H766 C776 0.930 . S
H767 C779 0.929 . S
H768 C782 0.930 . S
H769 C784 0.960 . S
H770 C784 0.960 . S
H771 C784 0.960 . S
C772 H764 0.929 . S
C772 C773 1.377 1_455 S
C772 C774 1.384 . S
C773 C772 1.377 1_655 S
C773 C779 1.390 . S
C774 H765 0.930 . S
C774 C772 1.384 . S
C774 C775 1.372 . S
C775 C774 1.372 . S
C775 C776 1.400 1_455 S
C775 C780 1.490 . S
C776 H766 0.930 . S
C776 C775 1.400 1_655 S
C776 C779 1.386 . S
H777 C793 0.930 . S
H778 C794 0.931 . S
C779 H767 0.929 . S
C779 C773 1.390 . S
C779 C776 1.386 . S
C780 C775 1.490 . S
C780 C782 1.395 . S
C780 C783 1.403 . S
H781 C787 0.930 . S
C782 H768 0.930 . S
C782 C780 1.395 . S
C782 C785 1.403 . S
C783 C780 1.403 . S
C783 C784 1.524 1_455 S
C783 C787 1.400 . S
C784 H769 0.960 . S
C784 H770 0.960 . S
C784 H771 0.960 . S
C784 C783 1.524 1_655 S
C785 C782 1.403 . S
C785 C786 1.392 . S
C785 C789 1.495 . S
C786 C785 1.392 . S
C786 C787 1.385 . S
C786 C788 1.478 . S
C787 H781 0.930 . S
C787 C783 1.400 . S
C787 C786 1.385 . S
C788 C786 1.478 . S
C788 C790 1.381 . S
C788 C794 1.383 . S
C789 C785 1.495 . S
C789 H795 0.959 . S
C789 H796 0.961 . S
C789 H797 0.960 . S
C790 C788 1.381 . S
C790 C791 1.394 . S
C790 H798 0.930 . S
C791 C790 1.394 . S
C791 C792 1.383 . S
C791 H799 0.929 . S
C792 C791 1.383 . S
C792 C793 1.377 . S
C793 H777 0.930 . S
C793 C792 1.377 . S
C793 C794 1.379 . S
C794 H778 0.931 . S
C794 C788 1.383 . S
C794 C793 1.379 . S
H795 C789 0.959 . S
H796 C789 0.961 . S
H797 C789 0.960 . S
H798 C790 0.930 . S
H799 C791 0.929 . S
H800 C808 0.929 . S
H801 C810 0.930 . S
H802 C812 0.930 . S
H803 C815 0.929 . S
H804 C818 0.930 . S
H805 C820 0.960 . S
H806 C820 0.960 . S
H807 C820 0.960 . S
C808 H800 0.929 . S
C808 C809 1.377 . S
C808 C810 1.384 1_545 S
C809 C808 1.377 . S
C809 C815 1.390 1_545 S
C810 H801 0.930 . S
C810 C808 1.384 1_565 S
C810 C811 1.372 . S
C811 C810 1.372 . S
C811 C812 1.400 . S
C811 C816 1.490 . S
C812 H802 0.930 . S
C812 C811 1.400 . S
C812 C815 1.386 . S
H813 C829 0.930 . S
H814 C830 0.931 . S
C815 H803 0.929 . S
C815 C809 1.390 1_565 S
C815 C812 1.386 . S
C816 C811 1.490 . S
C816 C818 1.395 . S
C816 C819 1.403 . S
H817 C823 0.930 . S
C818 H804 0.930 . S
C818 C816 1.395 . S
C818 C821 1.403 . S
C819 C816 1.403 . S
C819 C820 1.524 . S
C819 C823 1.400 . S
C820 H805 0.960 . S
C820 H806 0.960 . S
C820 H807 0.960 . S
C820 C819 1.524 . S
C821 C818 1.403 . S
C821 C822 1.392 . S
C821 C825 1.495 . S
C822 C821 1.392 . S
C822 C823 1.385 . S
C822 C824 1.478 . S
C823 H817 0.930 . S
C823 C819 1.400 . S
C823 C822 1.385 . S
C824 C822 1.478 . S
C824 C826 1.381 . S
C824 C830 1.383 . S
C825 C821 1.495 . S
C825 H831 0.959 . S
C825 H832 0.961 . S
C825 H833 0.960 . S
C826 C824 1.381 . S
C826 C827 1.394 . S
C826 H834 0.930 . S
C827 C826 1.394 . S
C827 C828 1.383 . S
C827 H835 0.929 . S
C828 C827 1.383 . S
C828 C829 1.377 . S
C829 H813 0.930 . S
C829 C828 1.377 . S
C829 C830 1.379 . S
C830 H814 0.931 . S
C830 C824 1.383 . S
C830 C829 1.379 . S
H831 C825 0.959 . S
H832 C825 0.961 . S
H833 C825 0.960 . S
H834 C826 0.930 . S
H835 C827 0.929 . S
H836 C844 0.929 . S
H837 C846 0.930 . S
H838 C848 0.930 . S
H839 C851 0.929 . S
H840 C854 0.930 . S
H841 C856 0.960 1_455 S
H842 C856 0.960 . S
H843 C856 0.960 . S
C844 H836 0.929 . S
C844 C845 1.377 . S
C844 C846 1.384 . S
C845 C844 1.377 . S
C845 C851 1.390 . S
C846 H837 0.930 . S
C846 C844 1.384 . S
C846 C847 1.372 . S
C847 C846 1.372 . S
C847 C848 1.400 . S
C847 C852 1.490 . S
C848 H838 0.930 . S
C848 C847 1.400 . S
C848 C851 1.386 . S
H849 C865 0.930 . S
H850 C866 0.931 . S
C851 H839 0.929 . S
C851 C845 1.390 . S
C851 C848 1.386 . S
C852 C847 1.490 . S
C852 C854 1.395 . S
C852 C855 1.403 . S
H853 C859 0.930 1_455 S
C854 H840 0.930 . S
C854 C852 1.395 . S
C854 C857 1.403 . S
C855 C852 1.403 . S
C855 C856 1.524 . S
C855 C859 1.400 . S
C856 H841 0.960 1_655 S
C856 H842 0.960 . S
C856 H843 0.960 . S
C856 C855 1.524 . S
C857 C854 1.403 . S
C857 C858 1.392 . S
C857 C861 1.495 . S
C858 C857 1.392 . S
C858 C859 1.385 . S
C858 C860 1.478 . S
C859 H853 0.930 1_655 S
C859 C855 1.400 . S
C859 C858 1.385 . S
C860 C858 1.478 . S
C860 C862 1.381 . S
C860 C866 1.383 . S
C861 C857 1.495 . S
C861 H867 0.959 . S
C861 H868 0.961 . S
C861 H869 0.960 . S
C862 C860 1.381 . S
C862 C863 1.394 . S
C862 H870 0.930 . S
C863 C862 1.394 . S
C863 C864 1.383 1_655 S
C863 H871 0.929 . S
C864 C863 1.383 1_455 S
C864 C865 1.377 . S
C865 H849 0.930 . S
C865 C864 1.377 . S
C865 C866 1.379 1_455 S
C866 H850 0.931 . S
C866 C860 1.383 . S
C866 C865 1.379 1_655 S
H867 C861 0.959 . S
H868 C861 0.961 . S
H869 C861 0.960 . S
H870 C862 0.930 . S
H871 C863 0.929 . S
H872 C880 0.929 . S
H873 C882 0.930 . S
H874 C884 0.930 . S
H875 C887 0.929 . S
H876 C890 0.930 . S
H877 C892 0.960 . S
H878 C892 0.960 . S
H879 C892 0.960 . S
C880 H872 0.929 . S
C880 C881 1.377 . S
C880 C882 1.384 . S
C881 C880 1.377 . S
C881 C887 1.390 . S
C882 H873 0.930 . S
C882 C880 1.384 . S
C882 C883 1.372 . S
C883 C882 1.372 . S
C883 C884 1.400 . S
C883 C888 1.490 . S
C884 H874 0.930 . S
C884 C883 1.400 . S
C884 C887 1.386 . S
H885 C901 0.930 . S
H886 C902 0.931 . S
C887 H875 0.929 . S
C887 C881 1.390 . S
C887 C884 1.386 . S
C888 C883 1.490 . S
C888 C890 1.395 . S
C888 C891 1.403 . S
H889 C895 0.930 . S
C890 H876 0.930 . S
C890 C888 1.395 . S
C890 C893 1.403 . S
C891 C888 1.403 . S
C891 C892 1.524 . S
C891 C895 1.400 . S
C892 H877 0.960 . S
C892 H878 0.960 . S
C892 H879 0.960 . S
C892 C891 1.524 . S
C893 C890 1.403 . S
C893 C894 1.392 . S
C893 C897 1.495 . S
C894 C893 1.392 . S
C894 C895 1.385 . S
C894 C896 1.478 . S
C895 H889 0.930 . S
C895 C891 1.400 . S
C895 C894 1.385 . S
C896 C894 1.478 . S
C896 C898 1.381 . S
C896 C902 1.383 . S
C897 C893 1.495 . S
C897 H903 0.959 . S
C897 H904 0.961 . S
C897 H905 0.960 . S
C898 C896 1.381 . S
C898 C899 1.394 . S
C898 H906 0.930 . S
C899 C898 1.394 . S
C899 C900 1.383 . S
C899 H907 0.929 . S
C900 C899 1.383 . S
C900 C901 1.377 . S
C901 H885 0.930 . S
C901 C900 1.377 . S
C901 C902 1.379 . S
C902 H886 0.931 . S
C902 C896 1.383 . S
C902 C901 1.379 . S
H903 C897 0.959 . S
H904 C897 0.961 . S
H905 C897 0.960 . S
H906 C898 0.930 . S
H907 C899 0.929 . S
H908 C916 0.929 . S
H909 C918 0.930 . S
H910 C920 0.930 . S
H911 C923 0.929 . S
H912 C926 0.930 . S
H913 C928 0.960 . S
H914 C928 0.960 . S
H915 C928 0.960 . S
C916 H908 0.929 . S
C916 C917 1.377 . S
C916 C918 1.384 1_545 S
C917 C916 1.377 . S
C917 C923 1.390 1_545 S
C918 H909 0.930 . S
C918 C916 1.384 1_565 S
C918 C919 1.372 . S
C919 C918 1.372 . S
C919 C920 1.400 . S
C919 C924 1.490 . S
C920 H910 0.930 . S
C920 C919 1.400 . S
C920 C923 1.386 . S
H921 C937 0.930 . S
H922 C938 0.931 . S
C923 H911 0.929 . S
C923 C917 1.390 1_565 S
C923 C920 1.386 . S
C924 C919 1.490 . S
C924 C926 1.395 . S
C924 C927 1.403 . S
H925 C931 0.930 . S
C926 H912 0.930 . S
C926 C924 1.395 . S
C926 C929 1.403 . S
C927 C924 1.403 . S
C927 C928 1.524 . S
C927 C931 1.400 . S
C928 H913 0.960 . S
C928 H914 0.960 . S
C928 H915 0.960 . S
C928 C927 1.524 . S
C929 C926 1.403 . S
C929 C930 1.392 . S
C929 C933 1.495 . S
C930 C929 1.392 . S
C930 C931 1.385 . S
C930 C932 1.478 . S
C931 H925 0.930 . S
C931 C927 1.400 . S
C931 C930 1.385 . S
C932 C930 1.478 . S
C932 C934 1.381 1_655 S
C932 C938 1.383 . S
C933 C929 1.495 . S
C933 H939 0.959 . S
C933 H940 0.961 . S
C933 H941 0.960 . S
C934 C932 1.381 1_455 S
C934 C935 1.394 . S
C934 H942 0.930 . S
C935 C934 1.394 . S
C935 C936 1.383 . S
C935 H943 0.929 . S
C936 C935 1.383 . S
C936 C937 1.377 1_455 S
C937 H921 0.930 . S
C937 C936 1.377 1_655 S
C937 C938 1.379 . S
C938 H922 0.931 . S
C938 C932 1.383 . S
C938 C937 1.379 . S
H939 C933 0.959 . S
H940 C933 0.961 . S
H941 C933 0.960 . S
H942 C934 0.930 . S
H943 C935 0.929 . S
H944 C952 0.929 . S
H945 C954 0.930 . S
H946 C956 0.930 . S
H947 C959 0.929 . S
H948 C962 0.930 . S
H949 C964 0.960 . S
H950 C964 0.960 . S
H951 C964 0.960 . S
C952 H944 0.929 . S
C952 C953 1.377 1_545 S
C952 C954 1.384 . S
C953 C952 1.377 1_565 S
C953 C959 1.390 . S
C954 H945 0.930 . S
C954 C952 1.384 . S
C954 C955 1.372 . S
C955 C954 1.372 . S
C955 C956 1.400 . S
C955 C960 1.490 . S
C956 H946 0.930 . S
C956 C955 1.400 . S
C956 C959 1.386 1_545 S
H957 C973 0.930 . S
H958 C974 0.931 . S
C959 H947 0.929 . S
C959 C953 1.390 . S
C959 C956 1.386 1_565 S
C960 C955 1.490 . S
C960 C962 1.395 . S
C960 C963 1.403 . S
H961 C967 0.930 . S
C962 H948 0.930 . S
C962 C960 1.395 . S
C962 C965 1.403 . S
C963 C960 1.403 . S
C963 C964 1.524 . S
C963 C967 1.400 . S
C964 H949 0.960 . S
C964 H950 0.960 . S
C964 H951 0.960 . S
C964 C963 1.524 . S
C965 C962 1.403 . S
C965 C966 1.392 . S
C965 C969 1.495 . S
C966 C965 1.392 . S
C966 C967 1.385 . S
C966 C968 1.478 . S
C967 H961 0.930 . S
C967 C963 1.400 . S
C967 C966 1.385 . S
C968 C966 1.478 . S
C968 C970 1.381 . S
C968 C974 1.383 . S
C969 C965 1.495 . S
C969 H975 0.959 . S
C969 H976 0.961 . S
C969 H977 0.960 . S
C970 C968 1.381 . S
C970 C971 1.394 . S
C970 H978 0.930 . S
C971 C970 1.394 . S
C971 C972 1.383 . S
C971 H979 0.929 . S
C972 C971 1.383 . S
C972 C973 1.377 . S
C973 H957 0.930 . S
C973 C972 1.377 . S
C973 C974 1.379 . S
C974 H958 0.931 . S
C974 C968 1.383 . S
C974 C973 1.379 . S
H975 C969 0.959 . S
H976 C969 0.961 . S
H977 C969 0.960 . S
H978 C970 0.930 . S
H979 C971 0.929 . S
H980 C988 0.929 . S
H981 C990 0.930 . S
H982 C992 0.930 . S
H983 C995 0.929 . S
H984 C998 0.930 . S
H985 C1000 0.960 . S
H986 C1000 0.960 . S
H987 C1000 0.960 1_655 S
C988 H980 0.929 . S
C988 C989 1.377 1_455 S
C988 C990 1.384 . S
C989 C988 1.377 1_655 S
C989 C995 1.390 . S
C990 H981 0.930 . S
C990 C988 1.384 . S
C990 C991 1.372 . S
C991 C990 1.372 . S
C991 C992 1.400 1_455 S
C991 C996 1.490 . S
C992 H982 0.930 . S
C992 C991 1.400 1_655 S
C992 C995 1.386 . S
H993 C1009 0.930 . S
H994 C1010 0.931 . S
C995 H983 0.929 . S
C995 C989 1.390 . S
C995 C992 1.386 . S
C996 C991 1.490 . S
C996 C998 1.395 . S
C996 C999 1.403 . S
H997 C1003 0.930 . S
C998 H984 0.930 . S
C998 C996 1.395 . S
C998 C1001 1.403 . S
C999 C996 1.403 . S
C999 C1000 1.524 . S
C999 C1003 1.400 . S
C1000 H985 0.960 . S
C1000 H986 0.960 . S
C1000 H987 0.960 1_455 S
C1000 C999 1.524 . S
C1001 C998 1.403 . S
C1001 C1002 1.392 . S
C1001 C1005 1.495 . S
C1002 C1001 1.392 . S
C1002 C1003 1.385 . S
C1002 C1004 1.478 . S
C1003 H997 0.930 . S
C1003 C999 1.400 . S
C1003 C1002 1.385 . S
C1004 C1002 1.478 . S
C1004 C1006 1.381 . S
C1004 C1010 1.383 . S
C1005 C1001 1.495 . S
C1005 H1011 0.959 . S
C1005 H1012 0.961 . S
C1005 H1013 0.960 . S
C1006 C1004 1.381 . S
C1006 C1007 1.394 . S
C1006 H1014 0.930 . S
C1007 C1006 1.394 . S
C1007 C1008 1.383 . S
C1007 H1015 0.929 . S
C1008 C1007 1.383 . S
C1008 C1009 1.377 . S
C1009 H993 0.930 . S
C1009 C1008 1.377 . S
C1009 C1010 1.379 . S
C1010 H994 0.931 . S
C1010 C1004 1.383 . S
C1010 C1009 1.379 . S
H1011 C1005 0.959 . S
H1012 C1005 0.961 . S
H1013 C1005 0.960 . S
H1014 C1006 0.930 . S
H1015 C1007 0.929 . S
H1016 C1024 0.929 . S
H1017 C1026 0.930 . S
H1018 C1028 0.930 . S
H1019 C1031 0.929 . S
H1020 C1034 0.930 . S
H1021 C1036 0.960 . S
H1022 C1036 0.960 . S
H1023 C1036 0.960 . S
C1024 H1016 0.929 . S
C1024 C1025 1.377 . S
C1024 C1026 1.384 . S
C1025 C1024 1.377 . S
C1025 C1031 1.390 . S
C1026 H1017 0.930 . S
C1026 C1024 1.384 . S
C1026 C1027 1.372 . S
C1027 C1026 1.372 . S
C1027 C1028 1.400 . S
C1027 C1032 1.490 . S
C1028 H1018 0.930 . S
C1028 C1027 1.400 . S
C1028 C1031 1.386 . S
H1029 C1045 0.930 . S
H1030 C1046 0.931 . S
C1031 H1019 0.929 . S
C1031 C1025 1.390 . S
C1031 C1028 1.386 . S
C1032 C1027 1.490 . S
C1032 C1034 1.395 . S
C1032 C1035 1.403 . S
H1033 C1039 0.930 . S
C1034 H1020 0.930 . S
C1034 C1032 1.395 . S
C1034 C1037 1.403 . S
C1035 C1032 1.403 . S
C1035 C1036 1.524 . S
C1035 C1039 1.400 . S
C1036 H1021 0.960 . S
C1036 H1022 0.960 . S
C1036 H1023 0.960 . S
C1036 C1035 1.524 . S
C1037 C1034 1.403 . S
C1037 C1038 1.392 . S
C1037 C1041 1.495 . S
C1038 C1037 1.392 . S
C1038 C1039 1.385 . S
C1038 C1040 1.478 . S
C1039 H1033 0.930 . S
C1039 C1035 1.400 . S
C1039 C1038 1.385 . S
C1040 C1038 1.478 . S
C1040 C1042 1.381 . S
C1040 C1046 1.383 . S
C1041 C1037 1.495 . S
C1041 H1047 0.959 . S
C1041 H1048 0.961 . S
C1041 H1049 0.960 . S
C1042 C1040 1.381 . S
C1042 C1043 1.394 . S
C1042 H1050 0.930 . S
C1043 C1042 1.394 . S
C1043 C1044 1.383 . S
C1043 H1051 0.929 . S
C1044 C1043 1.383 . S
C1044 C1045 1.377 . S
C1045 H1029 0.930 . S
C1045 C1044 1.377 . S
C1045 C1046 1.379 . S
C1046 H1030 0.931 . S
C1046 C1040 1.383 . S
C1046 C1045 1.379 . S
H1047 C1041 0.959 . S
H1048 C1041 0.961 . S
H1049 C1041 0.960 . S
H1050 C1042 0.930 . S
H1051 C1043 0.929 . S
H1052 C1060 0.929 . S
H1053 C1062 0.930 . S
H1054 C1064 0.930 . S
H1055 C1067 0.929 . S
H1056 C1070 0.930 . S
H1057 C1072 0.960 . S
H1058 C1072 0.960 . S
H1059 C1072 0.960 . S
C1060 H1052 0.929 . S
C1060 C1061 1.377 . S
C1060 C1062 1.384 . S
C1061 C1060 1.377 . S
C1061 C1067 1.390 1_655 S
C1062 H1053 0.930 . S
C1062 C1060 1.384 . S
C1062 C1063 1.372 1_655 S
C1063 C1062 1.372 1_455 S
C1063 C1064 1.400 . S
C1063 C1068 1.490 . S
C1064 H1054 0.930 . S
C1064 C1063 1.400 . S
C1064 C1067 1.386 . S
H1065 C1081 0.930 . S
H1066 C1082 0.931 . S
C1067 H1055 0.929 . S
C1067 C1061 1.390 1_455 S
C1067 C1064 1.386 . S
C1068 C1063 1.490 . S
C1068 C1070 1.395 . S
C1068 C1071 1.403 . S
H1069 C1075 0.930 . S
C1070 H1056 0.930 . S
C1070 C1068 1.395 . S
C1070 C1073 1.403 . S
C1071 C1068 1.403 . S
C1071 C1072 1.524 . S
C1071 C1075 1.400 . S
C1072 H1057 0.960 . S
C1072 H1058 0.960 . S
C1072 H1059 0.960 . S
C1072 C1071 1.524 . S
C1073 C1070 1.403 . S
C1073 C1074 1.392 . S
C1073 C1077 1.495 . S
C1074 C1073 1.392 . S
C1074 C1075 1.385 . S
C1074 C1076 1.478 . S
C1075 H1069 0.930 . S
C1075 C1071 1.400 . S
C1075 C1074 1.385 . S
C1076 C1074 1.478 . S
C1076 C1078 1.381 . S
C1076 C1082 1.383 . S
C1077 C1073 1.495 . S
C1077 H1083 0.959 . S
C1077 H1084 0.961 . S
C1077 H1085 0.960 . S
C1078 C1076 1.381 . S
C1078 C1079 1.394 1_545 S
C1078 H1086 0.930 . S
C1079 C1078 1.394 1_565 S
C1079 C1080 1.383 . S
C1079 H1087 0.929 . S
C1080 C1079 1.383 . S
C1080 C1081 1.377 1_565 S
C1081 H1065 0.930 . S
C1081 C1080 1.377 1_545 S
C1081 C1082 1.379 . S
C1082 H1066 0.931 . S
C1082 C1076 1.383 . S
C1082 C1081 1.379 . S
H1083 C1077 0.959 . S
H1084 C1077 0.961 . S
H1085 C1077 0.960 . S
H1086 C1078 0.930 . S
H1087 C1079 0.929 . S
H1088 C1096 0.929 . S
H1089 C1098 0.930 . S
H1090 C1100 0.930 . S
H1091 C1103 0.929 . S
H1092 C1106 0.930 . S
H1093 C1108 0.960 . S
H1094 C1108 0.960 . S
H1095 C1108 0.960 . S
C1096 H1088 0.929 . S
C1096 C1097 1.377 1_565 S
C1096 C1098 1.384 . S
C1097 C1096 1.377 1_545 S
C1097 C1103 1.390 . S
C1098 H1089 0.930 . S
C1098 C1096 1.384 . S
C1098 C1099 1.372 . S
C1099 C1098 1.372 . S
C1099 C1100 1.400 . S
C1099 C1104 1.490 . S
C1100 H1090 0.930 . S
C1100 C1099 1.400 . S
C1100 C1103 1.386 1_565 S
H1101 C1117 0.930 . S
H1102 C1118 0.931 . S
C1103 H1091 0.929 . S
C1103 C1097 1.390 . S
C1103 C1100 1.386 1_545 S
C1104 C1099 1.490 . S
C1104 C1106 1.395 . S
C1104 C1107 1.403 . S
H1105 C1111 0.930 . S
C1106 H1092 0.930 . S
C1106 C1104 1.395 . S
C1106 C1109 1.403 . S
C1107 C1104 1.403 . S
C1107 C1108 1.524 . S
C1107 C1111 1.400 . S
C1108 H1093 0.960 . S
C1108 H1094 0.960 . S
C1108 H1095 0.960 . S
C1108 C1107 1.524 . S
C1109 C1106 1.403 . S
C1109 C1110 1.392 . S
C1109 C1113 1.495 . S
C1110 C1109 1.392 . S
C1110 C1111 1.385 . S
C1110 C1112 1.478 . S
C1111 H1105 0.930 . S
C1111 C1107 1.400 . S
C1111 C1110 1.385 . S
C1112 C1110 1.478 . S
C1112 C1114 1.381 . S
C1112 C1118 1.383 . S
C1113 C1109 1.495 . S
C1113 H1119 0.959 . S
C1113 H1120 0.961 . S
C1113 H1121 0.960 . S
C1114 C1112 1.381 . S
C1114 C1115 1.394 . S
C1114 H1122 0.930 . S
C1115 C1114 1.394 . S
C1115 C1116 1.383 . S
C1115 H1123 0.929 . S
C1116 C1115 1.383 . S
C1116 C1117 1.377 . S
C1117 H1101 0.930 . S
C1117 C1116 1.377 . S
C1117 C1118 1.379 . S
C1118 H1102 0.931 . S
C1118 C1112 1.383 . S
C1118 C1117 1.379 . S
H1119 C1113 0.959 . S
H1120 C1113 0.961 . S
H1121 C1113 0.960 . S
H1122 C1114 0.930 . S
H1123 C1115 0.929 . S
H1124 C1132 0.929 . S
H1125 C1134 0.930 . S
H1126 C1136 0.930 . S
H1127 C1139 0.929 . S
H1128 C1142 0.930 . S
H1129 C1144 0.960 . S
H1130 C1144 0.960 . S
H1131 C1144 0.960 . S
C1132 H1124 0.929 . S
C1132 C1133 1.377 . S
C1132 C1134 1.384 . S
C1133 C1132 1.377 . S
C1133 C1139 1.390 1_455 S
C1134 H1125 0.930 . S
C1134 C1132 1.384 . S
C1134 C1135 1.372 1_455 S
C1135 C1134 1.372 1_655 S
C1135 C1136 1.400 . S
C1135 C1140 1.490 . S
C1136 H1126 0.930 . S
C1136 C1135 1.400 . S
C1136 C1139 1.386 . S
H1137 C1153 0.930 . S
H1138 C1154 0.931 . S
C1139 H1127 0.929 . S
C1139 C1133 1.390 1_655 S
C1139 C1136 1.386 . S
C1140 C1135 1.490 . S
C1140 C1142 1.395 . S
C1140 C1143 1.403 . S
H1141 C1147 0.930 . S
C1142 H1128 0.930 . S
C1142 C1140 1.395 . S
C1142 C1145 1.403 . S
C1143 C1140 1.403 . S
C1143 C1144 1.524 . S
C1143 C1147 1.400 . S
C1144 H1129 0.960 . S
C1144 H1130 0.960 . S
C1144 H1131 0.960 . S
C1144 C1143 1.524 . S
C1145 C1142 1.403 . S
C1145 C1146 1.392 . S
C1145 C1149 1.495 . S
C1146 C1145 1.392 . S
C1146 C1147 1.385 . S
C1146 C1148 1.478 . S
C1147 H1141 0.930 . S
C1147 C1143 1.400 . S
C1147 C1146 1.385 . S
C1148 C1146 1.478 . S
C1148 C1150 1.381 . S
C1148 C1154 1.383 . S
C1149 C1145 1.495 . S
C1149 H1155 0.959 . S
C1149 H1156 0.961 . S
C1149 H1157 0.960 . S
C1150 C1148 1.381 . S
C1150 C1151 1.394 . S
C1150 H1158 0.930 . S
C1151 C1150 1.394 . S
C1151 C1152 1.383 . S
C1151 H1159 0.929 . S
C1152 C1151 1.383 . S
C1152 C1153 1.377 . S
C1153 H1137 0.930 . S
C1153 C1152 1.377 . S
C1153 C1154 1.379 . S
C1154 H1138 0.931 . S
C1154 C1148 1.383 . S
C1154 C1153 1.379 . S
H1155 C1149 0.959 . S
H1156 C1149 0.961 . S
H1157 C1149 0.960 . S
H1158 C1150 0.930 . S
H1159 C1151 0.929 . S
H1160 C1168 0.929 . S
H1161 C1170 0.930 . S
H1162 C1172 0.930 . S
H1163 C1175 0.929 . S
H1164 C1178 0.930 . S
H1165 C1180 0.960 . S
H1166 C1180 0.960 . S
H1167 C1180 0.960 . S
C1168 H1160 0.929 . S
C1168 C1169 1.377 . S
C1168 C1170 1.384 . S
C1169 C1168 1.377 . S
C1169 C1175 1.390 . S
C1170 H1161 0.930 . S
C1170 C1168 1.384 . S
C1170 C1171 1.372 . S
C1171 C1170 1.372 . S
C1171 C1172 1.400 . S
C1171 C1176 1.490 . S
C1172 H1162 0.930 . S
C1172 C1171 1.400 . S
C1172 C1175 1.386 . S
H1173 C1189 0.930 . S
H1174 C1190 0.931 . S
C1175 H1163 0.929 . S
C1175 C1169 1.390 . S
C1175 C1172 1.386 . S
C1176 C1171 1.490 . S
C1176 C1178 1.395 . S
C1176 C1179 1.403 . S
H1177 C1183 0.930 . S
C1178 H1164 0.930 . S
C1178 C1176 1.395 . S
C1178 C1181 1.403 . S
C1179 C1176 1.403 . S
C1179 C1180 1.524 . S
C1179 C1183 1.400 . S
C1180 H1165 0.960 . S
C1180 H1166 0.960 . S
C1180 H1167 0.960 . S
C1180 C1179 1.524 . S
C1181 C1178 1.403 . S
C1181 C1182 1.392 . S
C1181 C1185 1.495 . S
C1182 C1181 1.392 . S
C1182 C1183 1.385 . S
C1182 C1184 1.478 . S
C1183 H1177 0.930 . S
C1183 C1179 1.400 . S
C1183 C1182 1.385 . S
C1184 C1182 1.478 . S
C1184 C1186 1.381 . S
C1184 C1190 1.383 . S
C1185 C1181 1.495 . S
C1185 H1191 0.959 . S
C1185 H1192 0.961 . S
C1185 H1193 0.960 . S
C1186 C1184 1.381 . S
C1186 C1187 1.394 . S
C1186 H1194 0.930 . S
C1187 C1186 1.394 . S
C1187 C1188 1.383 . S
C1187 H1195 0.929 . S
C1188 C1187 1.383 . S
C1188 C1189 1.377 . S
C1189 H1173 0.930 . S
C1189 C1188 1.377 . S
C1189 C1190 1.379 . S
C1190 H1174 0.931 . S
C1190 C1184 1.383 . S
C1190 C1189 1.379 . S
H1191 C1185 0.959 . S
H1192 C1185 0.961 . S
H1193 C1185 0.960 . S
H1194 C1186 0.930 . S
H1195 C1187 0.929 . S
H1196 C1204 0.929 . S
H1197 C1206 0.930 . S
H1198 C1208 0.930 . S
H1199 C1211 0.929 . S
H1200 C1214 0.930 . S
H1201 C1216 0.960 1_455 S
H1202 C1216 0.960 . S
H1203 C1216 0.960 . S
C1204 H1196 0.929 . S
C1204 C1205 1.377 . S
C1204 C1206 1.384 . S
C1205 C1204 1.377 . S
C1205 C1211 1.390 . S
C1206 H1197 0.930 . S
C1206 C1204 1.384 . S
C1206 C1207 1.372 . S
C1207 C1206 1.372 . S
C1207 C1208 1.400 . S
C1207 C1212 1.490 . S
C1208 H1198 0.930 . S
C1208 C1207 1.400 . S
C1208 C1211 1.386 . S
H1209 C1225 0.936 . S
H1210 C1226 0.931 . S
C1211 H1199 0.929 . S
C1211 C1205 1.390 . S
C1211 C1208 1.386 . S
C1212 C1207 1.490 . S
C1212 C1214 1.395 . S
C1212 C1215 1.403 . S
H1213 C1219 0.930 1_455 S
C1214 H1200 0.930 . S
C1214 C1212 1.395 . S
C1214 C1217 1.403 . S
C1215 C1212 1.403 . S
C1215 C1216 1.524 . S
C1215 C1219 1.400 . S
C1216 H1201 0.960 1_655 S
C1216 H1202 0.960 . S
C1216 H1203 0.960 . S
C1216 C1215 1.524 . S
C1217 C1214 1.403 . S
C1217 C1218 1.392 . S
C1217 C1221 1.495 . S
C1218 C1217 1.392 . S
C1218 C1219 1.385 . S
C1218 C1220 1.478 . S
C1219 H1213 0.930 1_655 S
C1219 C1215 1.400 . S
C1219 C1218 1.385 . S
C1220 C1218 1.478 . S
C1220 C1222 1.381 . S
C1220 C1226 1.383 1_655 S
C1221 C1217 1.495 . S
C1221 H1227 0.959 . S
C1221 H1228 0.961 . S
C1221 H1229 0.960 . S
C1222 C1220 1.381 . S
C1222 C1223 1.394 . S
C1222 H1230 0.930 . S
C1223 C1222 1.394 . S
C1223 C1224 1.383 1_665 S
C1223 H1231 0.929 1_565 S
C1224 C1223 1.383 1_445 S
C1224 C1225 1.377 1_545 S
C1225 H1209 0.936 . S
C1225 C1224 1.377 1_565 S
C1225 C1226 1.379 . S
C1226 H1210 0.931 . S
C1226 C1220 1.383 1_455 S
C1226 C1225 1.379 . S
H1227 C1221 0.959 . S
H1228 C1221 0.961 . S
H1229 C1221 0.960 . S
H1230 C1222 0.930 . S
H1231 C1223 0.929 1_545 S
H1232 C1240 0.929 . S
H1233 C1242 0.930 . S
H1234 C1244 0.930 . S
H1235 C1247 0.929 . S
H1236 C1250 0.930 . S
H1237 C1252 0.960 . S
H1238 C1252 0.960 . S
H1239 C1252 0.960 . S
C1240 H1232 0.929 . S
C1240 C1241 1.377 . S
C1240 C1242 1.384 . S
C1241 C1240 1.377 . S
C1241 C1247 1.390 . S
C1242 H1233 0.930 . S
C1242 C1240 1.384 . S
C1242 C1243 1.372 . S
C1243 C1242 1.372 . S
C1243 C1244 1.400 . S
C1243 C1248 1.490 . S
C1244 H1234 0.930 . S
C1244 C1243 1.400 . S
C1244 C1247 1.386 . S
H1245 C1261 0.930 . S
H1246 C1262 0.931 . S
C1247 H1235 0.929 . S
C1247 C1241 1.390 . S
C1247 C1244 1.386 . S
C1248 C1243 1.490 . S
C1248 C1250 1.395 . S
C1248 C1251 1.403 . S
H1249 C1255 0.930 . S
C1250 H1236 0.930 . S
C1250 C1248 1.395 . S
C1250 C1253 1.403 . S
C1251 C1248 1.403 . S
C1251 C1252 1.524 . S
C1251 C1255 1.400 . S
C1252 H1237 0.960 . S
C1252 H1238 0.960 . S
C1252 H1239 0.960 . S
C1252 C1251 1.524 . S
C1253 C1250 1.403 . S
C1253 C1254 1.392 . S
C1253 C1257 1.495 . S
C1254 C1253 1.392 . S
C1254 C1255 1.385 . S
C1254 C1256 1.478 . S
C1255 H1249 0.930 . S
C1255 C1251 1.400 . S
C1255 C1254 1.385 . S
C1256 C1254 1.478 . S
C1256 C1258 1.381 . S
C1256 C1262 1.383 . S
C1257 C1253 1.495 . S
C1257 H1263 0.959 . S
C1257 H1264 0.961 . S
C1257 H1265 0.960 . S
C1258 C1256 1.381 . S
C1258 C1259 1.394 1_545 S
C1258 H1266 0.930 . S
C1259 C1258 1.394 1_565 S
C1259 C1260 1.383 . S
C1259 H1267 0.929 . S
C1260 C1259 1.383 . S
C1260 C1261 1.377 1_565 S
C1261 H1245 0.930 . S
C1261 C1260 1.377 1_545 S
C1261 C1262 1.379 . S
C1262 H1246 0.931 . S
C1262 C1256 1.383 . S
C1262 C1261 1.379 . S
H1263 C1257 0.959 . S
H1264 C1257 0.961 . S
H1265 C1257 0.960 . S
H1266 C1258 0.930 . S
H1267 C1259 0.929 . S
H1268 C1276 0.929 . S
H1269 C1278 0.930 . S
H1270 C1280 0.930 . S
H1271 C1283 0.929 . S
H1272 C1286 0.930 . S
H1273 C1288 0.960 . S
H1274 C1288 0.960 . S
H1275 C1288 0.960 . S
C1276 H1268 0.929 . S
C1276 C1277 1.377 . S
C1276 C1278 1.384 . S
C1277 C1276 1.377 . S
C1277 C1283 1.390 . S
C1278 H1269 0.930 . S
C1278 C1276 1.384 . S
C1278 C1279 1.372 . S
C1279 C1278 1.372 . S
C1279 C1280 1.400 . S
C1279 C1284 1.490 . S
C1280 H1270 0.930 . S
C1280 C1279 1.400 . S
C1280 C1283 1.386 . S
H1281 C1297 0.930 . S
H1282 C1298 0.931 . S
C1283 H1271 0.929 . S
C1283 C1277 1.390 . S
C1283 C1280 1.386 . S
C1284 C1279 1.490 . S
C1284 C1286 1.395 . S
C1284 C1287 1.403 . S
H1285 C1291 0.930 . S
C1286 H1272 0.930 . S
C1286 C1284 1.395 . S
C1286 C1289 1.403 . S
C1287 C1284 1.403 . S
C1287 C1288 1.524 . S
C1287 C1291 1.400 . S
C1288 H1273 0.960 . S
C1288 H1274 0.960 . S
C1288 H1275 0.960 . S
C1288 C1287 1.524 . S
C1289 C1286 1.403 . S
C1289 C1290 1.392 . S
C1289 C1293 1.495 1_455 S
C1290 C1289 1.392 . S
C1290 C1291 1.385 . S
C1290 C1292 1.478 . S
C1291 H1285 0.930 . S
C1291 C1287 1.400 . S
C1291 C1290 1.385 . S
C1292 C1290 1.478 . S
C1292 C1294 1.381 1_455 S
C1292 C1298 1.383 . S
C1293 C1289 1.495 1_655 S
C1293 H1299 0.959 . S
C1293 H1300 0.961 . S
C1293 H1301 0.960 . S
C1294 C1292 1.381 1_655 S
C1294 C1295 1.394 . S
C1294 H1302 0.930 1_655 S
C1295 C1294 1.394 . S
C1295 C1296 1.383 . S
C1295 H1303 0.929 . S
C1296 C1295 1.383 . S
C1296 C1297 1.377 . S
C1297 H1281 0.930 . S
C1297 C1296 1.377 . S
C1297 C1298 1.379 1_655 S
C1298 H1282 0.931 . S
C1298 C1292 1.383 . S
C1298 C1297 1.379 1_455 S
H1299 C1293 0.959 . S
H1300 C1293 0.961 . S
H1301 C1293 0.960 . S
H1302 C1294 0.930 1_455 S
H1303 C1295 0.929 . S
H1304 C1312 0.929 . S
H1305 C1314 0.930 . S
H1306 C1316 0.930 . S
H1307 C1319 0.929 . S
H1308 C1322 0.930 . S
H1309 C1324 0.960 . S
H1310 C1324 0.960 . S
H1311 C1324 0.960 . S
C1312 H1304 0.929 . S
C1312 C1313 1.377 . S
C1312 C1314 1.384 . S
C1313 C1312 1.377 . S
C1313 C1319 1.390 . S
C1314 H1305 0.930 . S
C1314 C1312 1.384 . S
C1314 C1315 1.372 . S
C1315 C1314 1.372 . S
C1315 C1316 1.400 . S
C1315 C1320 1.490 . S
C1316 H1306 0.930 . S
C1316 C1315 1.400 . S
C1316 C1319 1.386 . S
H1317 C1333 0.930 . S
H1318 C1334 0.931 . S
C1319 H1307 0.929 . S
C1319 C1313 1.390 . S
C1319 C1316 1.386 . S
C1320 C1315 1.490 . S
C1320 C1322 1.395 . S
C1320 C1323 1.403 . S
H1321 C1327 0.930 . S
C1322 H1308 0.930 . S
C1322 C1320 1.395 . S
C1322 C1325 1.403 . S
C1323 C1320 1.403 . S
C1323 C1324 1.524 . S
C1323 C1327 1.400 . S
C1324 H1309 0.960 . S
C1324 H1310 0.960 . S
C1324 H1311 0.960 . S
C1324 C1323 1.524 . S
C1325 C1322 1.403 . S
C1325 C1326 1.392 . S
C1325 C1329 1.495 . S
C1326 C1325 1.392 . S
C1326 C1327 1.385 . S
C1326 C1328 1.478 . S
C1327 H1321 0.930 . S
C1327 C1323 1.400 . S
C1327 C1326 1.385 . S
C1328 C1326 1.478 . S
C1328 C1330 1.381 . S
C1328 C1334 1.383 . S
C1329 C1325 1.495 . S
C1329 H1335 0.959 . S
C1329 H1336 0.961 . S
C1329 H1337 0.960 . S
C1330 C1328 1.381 . S
C1330 C1331 1.394 . S
C1330 H1338 0.930 . S
C1331 C1330 1.394 . S
C1331 C1332 1.383 . S
C1331 H1339 0.929 . S
C1332 C1331 1.383 . S
C1332 C1333 1.377 . S
C1333 H1317 0.930 . S
C1333 C1332 1.377 . S
C1333 C1334 1.379 . S
C1334 H1318 0.931 . S
C1334 C1328 1.383 . S
C1334 C1333 1.379 . S
H1335 C1329 0.959 . S
H1336 C1329 0.961 . S
H1337 C1329 0.960 . S
H1338 C1330 0.930 . S
H1339 C1331 0.929 . S
H1340 C1348 0.929 . S
H1341 C1350 0.930 . S
H1342 C1352 0.930 . S
H1343 C1355 0.929 . S
H1344 C1358 0.930 . S
H1345 C1360 0.960 1_655 S
H1346 C1360 0.960 . S
H1347 C1360 0.960 . S
C1348 H1340 0.929 . S
C1348 C1349 1.377 . S
C1348 C1350 1.384 . S
C1349 C1348 1.377 . S
C1349 C1355 1.390 . S
C1350 H1341 0.930 . S
C1350 C1348 1.384 . S
C1350 C1351 1.372 . S
C1351 C1350 1.372 . S
C1351 C1352 1.400 . S
C1351 C1356 1.490 . S
C1352 H1342 0.930 . S
C1352 C1351 1.400 . S
C1352 C1355 1.386 . S
H1353 C1369 0.930 . S
H1354 C1370 0.931 . S
C1355 H1343 0.929 . S
C1355 C1349 1.390 . S
C1355 C1352 1.386 . S
C1356 C1351 1.490 . S
C1356 C1358 1.395 . S
C1356 C1359 1.403 . S
H1357 C1363 0.930 1_655 S
C1358 H1344 0.930 . S
C1358 C1356 1.395 . S
C1358 C1361 1.403 . S
C1359 C1356 1.403 . S
C1359 C1360 1.524 . S
C1359 C1363 1.400 . S
C1360 H1345 0.960 1_455 S
C1360 H1346 0.960 . S
C1360 H1347 0.960 . S
C1360 C1359 1.524 . S
C1361 C1358 1.403 . S
C1361 C1362 1.392 . S
C1361 C1365 1.495 . S
C1362 C1361 1.392 . S
C1362 C1363 1.385 . S
C1362 C1364 1.478 . S
C1363 H1357 0.930 1_455 S
C1363 C1359 1.400 . S
C1363 C1362 1.385 . S
C1364 C1362 1.478 . S
C1364 C1366 1.381 . S
C1364 C1370 1.383 1_455 S
C1365 C1361 1.495 . S
C1365 H1371 0.959 . S
C1365 H1372 0.961 . S
C1365 H1373 0.960 . S
C1366 C1364 1.381 . S
C1366 C1367 1.394 1_545 S
C1366 H1374 0.930 . S
C1367 C1366 1.394 1_565 S
C1367 C1368 1.383 1_455 S
C1367 H1375 0.929 . S
C1368 C1367 1.383 1_655 S
C1368 C1369 1.377 1_565 S
C1369 H1353 0.930 . S
C1369 C1368 1.377 1_545 S
C1369 C1370 1.379 . S
C1370 H1354 0.931 . S
C1370 C1364 1.383 1_655 S
C1370 C1369 1.379 . S
H1371 C1365 0.959 . S
H1372 C1365 0.961 . S
H1373 C1365 0.960 . S
H1374 C1366 0.930 . S
H1375 C1367 0.929 . S
H1376 C1384 0.929 . S
H1377 C1386 0.930 . S
H1378 C1388 0.930 . S
H1379 C1391 0.929 . S
H1380 C1394 0.930 . S
H1381 C1396 0.960 . S
H1382 C1396 0.960 . S
H1383 C1396 0.960 . S
C1384 H1376 0.929 . S
C1384 C1385 1.377 . S
C1384 C1386 1.384 . S
C1385 C1384 1.377 . S
C1385 C1391 1.390 . S
C1386 H1377 0.930 . S
C1386 C1384 1.384 . S
C1386 C1387 1.372 . S
C1387 C1386 1.372 . S
C1387 C1388 1.400 . S
C1387 C1392 1.490 . S
C1388 H1378 0.930 . S
C1388 C1387 1.400 . S
C1388 C1391 1.386 . S
H1389 C1405 0.930 . S
H1390 C1406 0.931 . S
C1391 H1379 0.929 . S
C1391 C1385 1.390 . S
C1391 C1388 1.386 . S
C1392 C1387 1.490 . S
C1392 C1394 1.395 . S
C1392 C1395 1.403 . S
H1393 C1399 0.930 . S
C1394 H1380 0.930 . S
C1394 C1392 1.395 . S
C1394 C1397 1.403 . S
C1395 C1392 1.403 . S
C1395 C1396 1.524 . S
C1395 C1399 1.400 . S
C1396 H1381 0.960 . S
C1396 H1382 0.960 . S
C1396 H1383 0.960 . S
C1396 C1395 1.524 . S
C1397 C1394 1.403 . S
C1397 C1398 1.392 . S
C1397 C1401 1.495 . S
C1398 C1397 1.392 . S
C1398 C1399 1.385 . S
C1398 C1400 1.478 . S
C1399 H1393 0.930 . S
C1399 C1395 1.400 . S
C1399 C1398 1.385 . S
C1400 C1398 1.478 . S
C1400 C1402 1.381 . S
C1400 C1406 1.383 . S
C1401 C1397 1.495 . S
C1401 H1407 0.959 . S
C1401 H1408 0.961 . S
C1401 H1409 0.960 . S
C1402 C1400 1.381 . S
C1402 C1403 1.394 . S
C1402 H1410 0.930 . S
C1403 C1402 1.394 . S
C1403 C1404 1.383 . S
C1403 H1411 0.929 . S
C1404 C1403 1.383 . S
C1404 C1405 1.377 . S
C1405 H1389 0.930 . S
C1405 C1404 1.377 . S
C1405 C1406 1.379 . S
C1406 H1390 0.931 . S
C1406 C1400 1.383 . S
C1406 C1405 1.379 . S
H1407 C1401 0.959 . S
H1408 C1401 0.961 . S
H1409 C1401 0.960 . S
H1410 C1402 0.930 . S
H1411 C1403 0.929 . S
H1412 C1420 0.929 . S
H1413 C1422 0.930 . S
H1414 C1424 0.930 . S
H1415 C1427 0.929 . S
H1416 C1430 0.930 . S
H1417 C1432 0.960 . S
H1418 C1432 0.960 . S
H1419 C1432 0.960 1_455 S
C1420 H1412 0.929 . S
C1420 C1421 1.377 1_655 S
C1420 C1422 1.384 . S
C1421 C1420 1.377 1_455 S
C1421 C1427 1.390 . S
C1422 H1413 0.930 . S
C1422 C1420 1.384 . S
C1422 C1423 1.372 . S
C1423 C1422 1.372 . S
C1423 C1424 1.400 1_655 S
C1423 C1428 1.490 . S
C1424 H1414 0.930 . S
C1424 C1423 1.400 1_455 S
C1424 C1427 1.386 . S
H1425 C1441 0.930 . S
H1426 C1442 0.931 . S
C1427 H1415 0.929 . S
C1427 C1421 1.390 . S
C1427 C1424 1.386 . S
C1428 C1423 1.490 . S
C1428 C1430 1.395 . S
C1428 C1431 1.403 . S
H1429 C1435 0.930 . S
C1430 H1416 0.930 . S
C1430 C1428 1.395 . S
C1430 C1433 1.403 . S
C1431 C1428 1.403 . S
C1431 C1432 1.524 . S
C1431 C1435 1.400 . S
C1432 H1417 0.960 . S
C1432 H1418 0.960 . S
C1432 H1419 0.960 1_655 S
C1432 C1431 1.524 . S
C1433 C1430 1.403 . S
C1433 C1434 1.392 . S
C1433 C1437 1.495 . S
C1434 C1433 1.392 . S
C1434 C1435 1.385 . S
C1434 C1436 1.478 . S
C1435 H1429 0.930 . S
C1435 C1431 1.400 . S
C1435 C1434 1.385 . S
C1436 C1434 1.478 . S
C1436 C1438 1.381 . S
C1436 C1442 1.383 . S
C1437 C1433 1.495 . S
C1437 H1443 0.959 . S
C1437 H1444 0.961 . S
C1437 H1445 0.960 . S
C1438 C1436 1.381 . S
C1438 C1439 1.394 . S
C1438 H1446 0.930 . S
C1439 C1438 1.394 . S
C1439 C1440 1.383 1_565 S
C1439 H1447 0.929 . S
C1440 C1439 1.383 1_545 S
C1440 C1441 1.377 . S
C1441 H1425 0.930 . S
C1441 C1440 1.377 . S
C1441 C1442 1.379 1_545 S
C1442 H1426 0.931 . S
C1442 C1436 1.383 . S
C1442 C1441 1.379 1_565 S
H1443 C1437 0.959 . S
H1444 C1437 0.961 . S
H1445 C1437 0.960 . S
H1446 C1438 0.930 . S
H1447 C1439 0.929 . S
H1448 C1456 0.929 . S
H1449 C1458 0.930 . S
H1450 C1460 0.930 . S
H1451 C1463 0.929 . S
H1452 C1466 0.930 . S
H1453 C1468 0.960 . S
H1454 C1468 0.960 . S
H1455 C1468 0.960 . S
C1456 H1448 0.929 . S
C1456 C1457 1.377 . S
C1456 C1458 1.384 . S
C1457 C1456 1.377 . S
C1457 C1463 1.390 . S
C1458 H1449 0.930 . S
C1458 C1456 1.384 . S
C1458 C1459 1.372 . S
C1459 C1458 1.372 . S
C1459 C1460 1.400 . S
C1459 C1464 1.490 . S
C1460 H1450 0.930 . S
C1460 C1459 1.400 . S
C1460 C1463 1.386 . S
H1461 C1477 0.930 . S
H1462 C1478 0.931 . S
C1463 H1451 0.929 . S
C1463 C1457 1.390 . S
C1463 C1460 1.386 . S
C1464 C1459 1.490 . S
C1464 C1466 1.395 . S
C1464 C1467 1.403 . S
H1465 C1471 0.930 . S
C1466 H1452 0.930 . S
C1466 C1464 1.395 . S
C1466 C1469 1.403 . S
C1467 C1464 1.403 . S
C1467 C1468 1.524 . S
C1467 C1471 1.400 . S
C1468 H1453 0.960 . S
C1468 H1454 0.960 . S
C1468 H1455 0.960 . S
C1468 C1467 1.524 . S
C1469 C1466 1.403 . S
C1469 C1470 1.392 . S
C1469 C1473 1.495 . S
C1470 C1469 1.392 . S
C1470 C1471 1.385 . S
C1470 C1472 1.478 . S
C1471 H1465 0.930 . S
C1471 C1467 1.400 . S
C1471 C1470 1.385 . S
C1472 C1470 1.478 . S
C1472 C1474 1.381 . S
C1472 C1478 1.383 . S
C1473 C1469 1.495 . S
C1473 H1479 0.959 . S
C1473 H1480 0.961 . S
C1473 H1481 0.960 . S
C1474 C1472 1.381 . S
C1474 C1475 1.394 . S
C1474 H1482 0.930 . S
C1475 C1474 1.394 . S
C1475 C1476 1.383 1_565 S
C1475 H1483 0.929 1_565 S
C1476 C1475 1.383 1_545 S
C1476 C1477 1.377 1_545 S
C1477 H1461 0.930 . S
C1477 C1476 1.377 1_565 S
C1477 C1478 1.379 . S
C1478 H1462 0.931 . S
C1478 C1472 1.383 . S
C1478 C1477 1.379 . S
H1479 C1473 0.959 . S
H1480 C1473 0.961 . S
H1481 C1473 0.960 . S
H1482 C1474 0.930 . S
H1483 C1475 0.929 1_545 S
H1484 C1492 0.929 1_655 S
H1485 C1494 0.930 . S
H1486 C1496 0.930 . S
H1487 C1499 0.929 . S
H1488 C1502 0.930 . S
H1489 C1504 0.960 . S
H1490 C1504 0.960 . S
H1491 C1504 0.960 . S
C1492 H1484 0.929 1_455 S
C1492 C1493 1.377 . S
C1492 C1494 1.384 1_455 S
C1493 C1492 1.377 . S
C1493 C1499 1.390 . S
C1494 H1485 0.930 . S
C1494 C1492 1.384 1_655 S
C1494 C1495 1.372 . S
C1495 C1494 1.372 . S
C1495 C1496 1.400 1_655 S
C1495 C1500 1.490 . S
C1496 H1486 0.930 . S
C1496 C1495 1.400 1_455 S
C1496 C1499 1.386 . S
H1497 C1513 0.930 . S
H1498 C1514 0.931 . S
C1499 H1487 0.929 . S
C1499 C1493 1.390 . S
C1499 C1496 1.386 . S
C1500 C1495 1.490 . S
C1500 C1502 1.395 . S
C1500 C1503 1.403 . S
H1501 C1507 0.930 . S
C1502 H1488 0.930 . S
C1502 C1500 1.395 . S
C1502 C1505 1.403 . S
C1503 C1500 1.403 . S
C1503 C1504 1.524 . S
C1503 C1507 1.400 . S
C1504 H1489 0.960 . S
C1504 H1490 0.960 . S
C1504 H1491 0.960 . S
C1504 C1503 1.524 . S
C1505 C1502 1.403 . S
C1505 C1506 1.392 . S
C1505 C1509 1.495 . S
C1506 C1505 1.392 . S
C1506 C1507 1.385 . S
C1506 C1508 1.478 . S
C1507 H1501 0.930 . S
C1507 C1503 1.400 . S
C1507 C1506 1.385 . S
C1508 C1506 1.478 . S
C1508 C1510 1.381 . S
C1508 C1514 1.383 . S
C1509 C1505 1.495 . S
C1509 H1515 0.959 . S
C1509 H1516 0.961 . S
C1509 H1517 0.960 . S
C1510 C1508 1.381 . S
C1510 C1511 1.394 . S
C1510 H1518 0.930 . S
C1511 C1510 1.394 . S
C1511 C1512 1.383 . S
C1511 H1519 0.929 . S
C1512 C1511 1.383 . S
C1512 C1513 1.377 . S
C1513 H1497 0.930 . S
C1513 C1512 1.377 . S
C1513 C1514 1.379 . S
C1514 H1498 0.931 . S
C1514 C1508 1.383 . S
C1514 C1513 1.379 . S
H1515 C1509 0.959 . S
H1516 C1509 0.961 . S
H1517 C1509 0.960 . S
H1518 C1510 0.930 . S
H1519 C1511 0.929 . S
H1520 C1528 0.929 . S
H1521 C1530 0.930 . S
H1522 C1532 0.930 . S
H1523 C1535 0.929 . S
H1524 C1538 0.930 . S
H1525 C1540 0.960 . S
H1526 C1540 0.960 . S
H1527 C1540 0.960 . S
C1528 H1520 0.929 . S
C1528 C1529 1.377 . S
C1528 C1530 1.384 . S
C1529 C1528 1.377 . S
C1529 C1535 1.390 . S
C1530 H1521 0.930 . S
C1530 C1528 1.384 . S
C1530 C1531 1.372 . S
C1531 C1530 1.372 . S
C1531 C1532 1.400 . S
C1531 C1536 1.490 . S
C1532 H1522 0.930 . S
C1532 C1531 1.400 . S
C1532 C1535 1.386 . S
H1533 C1549 0.930 . S
H1534 C1550 0.931 . S
C1535 H1523 0.929 . S
C1535 C1529 1.390 . S
C1535 C1532 1.386 . S
C1536 C1531 1.490 . S
C1536 C1538 1.395 . S
C1536 C1539 1.403 . S
H1537 C1543 0.930 . S
C1538 H1524 0.930 . S
C1538 C1536 1.395 . S
C1538 C1541 1.403 . S
C1539 C1536 1.403 . S
C1539 C1540 1.524 . S
C1539 C1543 1.400 . S
C1540 H1525 0.960 . S
C1540 H1526 0.960 . S
C1540 H1527 0.960 . S
C1540 C1539 1.524 . S
C1541 C1538 1.403 . S
C1541 C1542 1.392 . S
C1541 C1545 1.495 . S
C1542 C1541 1.392 . S
C1542 C1543 1.385 . S
C1542 C1544 1.478 . S
C1543 H1537 0.930 . S
C1543 C1539 1.400 . S
C1543 C1542 1.385 . S
C1544 C1542 1.478 . S
C1544 C1546 1.381 . S
C1544 C1550 1.383 . S
C1545 C1541 1.495 . S
C1545 H1551 0.959 . S
C1545 H1552 0.961 . S
C1545 H1553 0.960 . S
C1546 C1544 1.381 . S
C1546 C1547 1.394 . S
C1546 H1554 0.930 . S
C1547 C1546 1.394 . S
C1547 C1548 1.383 . S
C1547 H1555 0.929 . S
C1548 C1547 1.383 . S
C1548 C1549 1.377 . S
C1549 H1533 0.930 . S
C1549 C1548 1.377 . S
C1549 C1550 1.379 . S
C1550 H1534 0.931 . S
C1550 C1544 1.383 . S
C1550 C1549 1.379 . S
H1551 C1545 0.959 . S
H1552 C1545 0.961 . S
H1553 C1545 0.960 . S
H1554 C1546 0.930 . S
H1555 C1547 0.929 . S
H1556 C1564 0.914 1_565 S
H1557 C1566 0.930 . S
H1558 C1568 0.930 . S
H1559 C1571 0.922 1_565 S
H1560 C1574 0.930 . S
H1561 C1576 0.960 1_655 S
H1562 C1576 0.960 . S
H1563 C1576 0.960 . S
C1564 H1556 0.914 1_545 S
C1564 C1565 1.377 1_545 S
C1564 C1566 1.384 . S
C1565 C1564 1.377 1_565 S
C1565 C1571 1.380 1_565 S
C1566 H1557 0.930 . S
C1566 C1564 1.384 . S
C1566 C1567 1.372 . S
C1567 C1566 1.372 . S
C1567 C1568 1.400 . S
C1567 C1572 1.490 . S
C1568 H1558 0.930 . S
C1568 C1567 1.400 . S
C1568 C1571 1.403 . S
H1569 C1585 0.930 . S
H1570 C1586 0.931 . S
C1571 H1559 0.922 1_545 S
C1571 C1565 1.380 1_545 S
C1571 C1568 1.403 . S
C1572 C1567 1.490 . S
C1572 C1574 1.395 . S
C1572 C1575 1.403 . S
H1573 C1579 0.930 . S
C1574 H1560 0.930 . S
C1574 C1572 1.395 . S
C1574 C1577 1.403 . S
C1575 C1572 1.403 . S
C1575 C1576 1.524 . S
C1575 C1579 1.400 . S
C1576 H1561 0.960 1_455 S
C1576 H1562 0.960 . S
C1576 H1563 0.960 . S
C1576 C1575 1.524 . S
C1577 C1574 1.403 . S
C1577 C1578 1.392 . S
C1577 C1581 1.495 . S
C1578 C1577 1.392 . S
C1578 C1579 1.385 . S
C1578 C1580 1.478 . S
C1579 H1573 0.930 . S
C1579 C1575 1.400 . S
C1579 C1578 1.385 . S
C1580 C1578 1.478 . S
C1580 C1582 1.381 . S
C1580 C1586 1.383 . S
C1581 C1577 1.495 . S
C1581 H1587 0.959 . S
C1581 H1588 0.961 . S
C1581 H1589 0.960 . S
C1582 C1580 1.381 . S
C1582 C1583 1.394 1_455 S
C1582 H1590 0.930 . S
C1583 C1582 1.394 1_655 S
C1583 C1584 1.383 . S
C1583 H1591 0.929 . S
C1584 C1583 1.383 . S
C1584 C1585 1.377 . S
C1585 H1569 0.930 . S
C1585 C1584 1.377 . S
C1585 C1586 1.379 1_655 S
C1586 H1570 0.931 . S
C1586 C1580 1.383 . S
C1586 C1585 1.379 1_455 S
H1587 C1581 0.959 . S
H1588 C1581 0.961 . S
H1589 C1581 0.960 . S
H1590 C1582 0.930 . S
H1591 C1583 0.929 . S
H1592 C1600 0.929 . S
H1593 C1602 0.930 . S
H1594 C1604 0.930 . S
H1595 C1607 0.929 . S
H1596 C1610 0.930 . S
H1597 C1612 0.960 . S
H1598 C1612 0.960 . S
H1599 C1612 0.960 . S
C1600 H1592 0.929 . S
C1600 C1601 1.377 1_545 S
C1600 C1602 1.384 . S
C1601 C1600 1.377 1_565 S
C1601 C1607 1.390 . S
C1602 H1593 0.930 . S
C1602 C1600 1.384 . S
C1602 C1603 1.372 . S
C1603 C1602 1.372 . S
C1603 C1604 1.400 . S
C1603 C1608 1.490 . S
C1604 H1594 0.930 . S
C1604 C1603 1.400 . S
C1604 C1607 1.386 1_545 S
H1605 C1621 0.930 . S
H1606 C1622 0.931 . S
C1607 H1595 0.929 . S
C1607 C1601 1.390 . S
C1607 C1604 1.386 1_565 S
C1608 C1603 1.490 . S
C1608 C1610 1.395 . S
C1608 C1611 1.403 . S
H1609 C1615 0.930 . S
C1610 H1596 0.930 . S
C1610 C1608 1.395 . S
C1610 C1613 1.403 . S
C1611 C1608 1.403 . S
C1611 C1612 1.524 . S
C1611 C1615 1.400 . S
C1612 H1597 0.960 . S
C1612 H1598 0.960 . S
C1612 H1599 0.960 . S
C1612 C1611 1.524 . S
C1613 C1610 1.403 . S
C1613 C1614 1.392 . S
C1613 C1617 1.495 . S
C1614 C1613 1.392 . S
C1614 C1615 1.385 . S
C1614 C1616 1.478 . S
C1615 H1609 0.930 . S
C1615 C1611 1.400 . S
C1615 C1614 1.385 . S
C1616 C1614 1.478 . S
C1616 C1618 1.381 . S
C1616 C1622 1.383 . S
C1617 C1613 1.495 . S
C1617 H1623 0.959 . S
C1617 H1624 0.961 . S
C1617 H1625 0.960 . S
C1618 C1616 1.381 . S
C1618 C1619 1.394 . S
C1618 H1626 0.930 . S
C1619 C1618 1.394 . S
C1619 C1620 1.383 . S
C1619 H1627 0.929 . S
C1620 C1619 1.383 . S
C1620 C1621 1.377 . S
C1621 H1605 0.930 . S
C1621 C1620 1.377 . S
C1621 C1622 1.379 . S
C1622 H1606 0.931 . S
C1622 C1616 1.383 . S
C1622 C1621 1.379 . S
H1623 C1617 0.959 . S
H1624 C1617 0.961 . S
H1625 C1617 0.960 . S
H1626 C1618 0.930 . S
H1627 C1619 0.929 . S
H1628 C1636 0.929 . S
H1629 C1638 0.930 . S
H1630 C1640 0.930 . S
H1631 C1643 0.929 . S
H1632 C1646 0.930 . S
H1633 C1648 0.960 . S
H1634 C1648 0.960 . S
H1635 C1648 0.960 . S
C1636 H1628 0.929 . S
C1636 C1637 1.377 1_455 S
C1636 C1638 1.384 . S
C1637 C1636 1.377 1_655 S
C1637 C1643 1.390 . S
C1638 H1629 0.930 . S
C1638 C1636 1.384 . S
C1638 C1639 1.372 . S
C1639 C1638 1.372 . S
C1639 C1640 1.400 1_455 S
C1639 C1644 1.490 . S
C1640 H1630 0.930 . S
C1640 C1639 1.400 1_655 S
C1640 C1643 1.386 . S
H1641 C1657 0.930 . S
H1642 C1658 0.931 . S
C1643 H1631 0.929 . S
C1643 C1637 1.390 . S
C1643 C1640 1.386 . S
C1644 C1639 1.490 . S
C1644 C1646 1.395 . S
C1644 C1647 1.403 . S
H1645 C1651 0.930 . S
C1646 H1632 0.930 . S
C1646 C1644 1.395 . S
C1646 C1649 1.403 . S
C1647 C1644 1.403 . S
C1647 C1648 1.524 . S
C1647 C1651 1.400 . S
C1648 H1633 0.960 . S
C1648 H1634 0.960 . S
C1648 H1635 0.960 . S
C1648 C1647 1.524 . S
C1649 C1646 1.403 . S
C1649 C1650 1.392 . S
C1649 C1653 1.495 . S
C1650 C1649 1.392 . S
C1650 C1651 1.385 . S
C1650 C1652 1.478 . S
C1651 H1645 0.930 . S
C1651 C1647 1.400 . S
C1651 C1650 1.385 . S
C1652 C1650 1.478 . S
C1652 C1654 1.381 . S
C1652 C1658 1.383 . S
C1653 C1649 1.495 . S
C1653 H1659 0.959 . S
C1653 H1660 0.961 . S
C1653 H1661 0.960 . S
C1654 C1652 1.381 . S
C1654 C1655 1.394 . S
C1654 H1662 0.930 . S
C1655 C1654 1.394 . S
C1655 C1656 1.383 . S
C1655 H1663 0.929 . S
C1656 C1655 1.383 . S
C1656 C1657 1.377 . S
C1657 H1641 0.930 . S
C1657 C1656 1.377 . S
C1657 C1658 1.379 . S
C1658 H1642 0.931 . S
C1658 C1652 1.383 . S
C1658 C1657 1.379 . S
H1659 C1653 0.959 . S
H1660 C1653 0.961 . S
H1661 C1653 0.960 . S
H1662 C1654 0.930 . S
H1663 C1655 0.929 . S
H1664 C1672 0.929 . S
H1665 C1674 0.930 . S
H1666 C1676 0.930 . S
H1667 C1679 0.929 . S
H1668 C1682 0.930 . S
H1669 C1684 0.960 . S
H1670 C1684 0.960 . S
H1671 C1684 0.960 . S
C1672 H1664 0.929 . S
C1672 C1673 1.377 . S
C1672 C1674 1.384 . S
C1673 C1672 1.377 . S
C1673 C1679 1.390 . S
C1674 H1665 0.930 . S
C1674 C1672 1.384 . S
C1674 C1675 1.372 . S
C1675 C1674 1.372 . S
C1675 C1676 1.400 . S
C1675 C1680 1.490 . S
C1676 H1666 0.930 . S
C1676 C1675 1.400 . S
C1676 C1679 1.386 . S
H1677 C1693 0.930 . S
H1678 C1694 0.931 . S
C1679 H1667 0.929 . S
C1679 C1673 1.390 . S
C1679 C1676 1.386 . S
C1680 C1675 1.490 . S
C1680 C1682 1.395 . S
C1680 C1683 1.403 . S
H1681 C1687 0.930 . S
C1682 H1668 0.930 . S
C1682 C1680 1.395 . S
C1682 C1685 1.403 . S
C1683 C1680 1.403 . S
C1683 C1684 1.524 . S
C1683 C1687 1.400 . S
C1684 H1669 0.960 . S
C1684 H1670 0.960 . S
C1684 H1671 0.960 . S
C1684 C1683 1.524 . S
C1685 C1682 1.403 . S
C1685 C1686 1.392 . S
C1685 C1689 1.495 . S
C1686 C1685 1.392 . S
C1686 C1687 1.385 . S
C1686 C1688 1.478 . S
C1687 H1681 0.930 . S
C1687 C1683 1.400 . S
C1687 C1686 1.385 . S
C1688 C1686 1.478 . S
C1688 C1690 1.381 . S
C1688 C1694 1.383 . S
C1689 C1685 1.495 . S
C1689 H1695 0.959 . S
C1689 H1696 0.961 . S
C1689 H1697 0.960 . S
C1690 C1688 1.381 . S
C1690 C1691 1.394 . S
C1690 H1698 0.930 . S
C1691 C1690 1.394 . S
C1691 C1692 1.383 . S
C1691 H1699 0.929 . S
C1692 C1691 1.383 . S
C1692 C1693 1.377 . S
C1693 H1677 0.930 . S
C1693 C1692 1.377 . S
C1693 C1694 1.379 . S
C1694 H1678 0.931 . S
C1694 C1688 1.383 . S
C1694 C1693 1.379 . S
H1695 C1689 0.959 . S
H1696 C1689 0.961 . S
H1697 C1689 0.960 . S
H1698 C1690 0.930 . S
H1699 C1691 0.929 . S
H1700 C1708 0.929 . S
H1701 C1710 0.930 . S
H1702 C1712 0.930 . S
H1703 C1715 0.929 . S
H1704 C1718 0.930 . S
H1705 C1720 0.960 . S
H1706 C1720 0.960 . S
H1707 C1720 0.960 . S
C1708 H1700 0.929 . S
C1708 C1709 1.377 . S
C1708 C1710 1.384 . S
C1709 C1708 1.377 . S
C1709 C1715 1.390 . S
C1710 H1701 0.930 . S
C1710 C1708 1.384 . S
C1710 C1711 1.372 . S
C1711 C1710 1.372 . S
C1711 C1712 1.400 . S
C1711 C1716 1.490 . S
C1712 H1702 0.930 . S
C1712 C1711 1.400 . S
C1712 C1715 1.386 . S
H1713 C1729 0.930 . S
H1714 C1730 0.931 . S
C1715 H1703 0.929 . S
C1715 C1709 1.390 . S
C1715 C1712 1.386 . S
C1716 C1711 1.490 . S
C1716 C1718 1.395 . S
C1716 C1719 1.403 . S
H1717 C1723 0.930 . S
C1718 H1704 0.930 . S
C1718 C1716 1.395 . S
C1718 C1721 1.403 . S
C1719 C1716 1.403 . S
C1719 C1720 1.524 . S
C1719 C1723 1.400 . S
C1720 H1705 0.960 . S
C1720 H1706 0.960 . S
C1720 H1707 0.960 . S
C1720 C1719 1.524 . S
C1721 C1718 1.403 . S
C1721 C1722 1.392 . S
C1721 C1725 1.495 . S
C1722 C1721 1.392 . S
C1722 C1723 1.385 . S
C1722 C1724 1.478 . S
C1723 H1717 0.930 . S
C1723 C1719 1.400 . S
C1723 C1722 1.385 . S
C1724 C1722 1.478 . S
C1724 C1726 1.381 . S
C1724 C1730 1.383 1_655 S
C1725 C1721 1.495 . S
C1725 H1731 0.959 1_545 S
C1725 H1732 0.961 . S
C1725 H1733 0.960 . S
C1726 C1724 1.381 . S
C1726 C1727 1.394 1_655 S
C1726 H1734 0.930 . S
C1727 C1726 1.394 1_455 S
C1727 C1728 1.383 . S
C1727 H1735 0.929 1_455 S
C1728 C1727 1.383 . S
C1728 C1729 1.377 . S
C1729 H1713 0.930 . S
C1729 C1728 1.377 . S
C1729 C1730 1.379 . S
C1730 H1714 0.931 . S
C1730 C1724 1.383 1_455 S
C1730 C1729 1.379 . S
H1731 C1725 0.959 1_565 S
H1732 C1725 0.961 . S
H1733 C1725 0.960 . S
H1734 C1726 0.930 . S
H1735 C1727 0.929 1_655 S
H1736 C1744 0.929 . S
H1737 C1746 0.930 . S
H1738 C1748 0.930 . S
H1739 C1751 0.929 . S
H1740 C1754 0.930 . S
H1741 C1756 0.960 . S
H1742 C1756 0.960 . S
H1743 C1756 0.960 . S
C1744 H1736 0.929 . S
C1744 C1745 1.377 . S
C1744 C1746 1.384 . S
C1745 C1744 1.377 . S
C1745 C1751 1.390 . S
C1746 H1737 0.930 . S
C1746 C1744 1.384 . S
C1746 C1747 1.372 . S
C1747 C1746 1.372 . S
C1747 C1748 1.400 . S
C1747 C1752 1.490 . S
C1748 H1738 0.930 . S
C1748 C1747 1.400 . S
C1748 C1751 1.386 . S
H1749 C1765 0.930 . S
H1750 C1766 0.931 . S
C1751 H1739 0.929 . S
C1751 C1745 1.390 . S
C1751 C1748 1.386 . S
C1752 C1747 1.490 . S
C1752 C1754 1.395 . S
C1752 C1755 1.403 . S
H1753 C1759 0.930 . S
C1754 H1740 0.930 . S
C1754 C1752 1.395 . S
C1754 C1757 1.403 . S
C1755 C1752 1.403 . S
C1755 C1756 1.524 . S
C1755 C1759 1.400 . S
C1756 H1741 0.960 . S
C1756 H1742 0.960 . S
C1756 H1743 0.960 . S
C1756 C1755 1.524 . S
C1757 C1754 1.403 . S
C1757 C1758 1.392 . S
C1757 C1761 1.495 . S
C1758 C1757 1.392 . S
C1758 C1759 1.385 . S
C1758 C1760 1.478 . S
C1759 H1753 0.930 . S
C1759 C1755 1.400 . S
C1759 C1758 1.385 . S
C1760 C1758 1.478 . S
C1760 C1762 1.381 . S
C1760 C1766 1.383 . S
C1761 C1757 1.495 . S
C1761 H1767 0.959 . S
C1761 H1768 0.961 . S
C1761 H1769 0.960 . S
C1762 C1760 1.381 . S
C1762 C1763 1.394 . S
C1762 H1770 0.930 . S
C1763 C1762 1.394 . S
C1763 C1764 1.383 . S
C1763 H1771 0.929 . S
C1764 C1763 1.383 . S
C1764 C1765 1.377 . S
C1765 H1749 0.930 . S
C1765 C1764 1.377 . S
C1765 C1766 1.379 . S
C1766 H1750 0.931 . S
C1766 C1760 1.383 . S
C1766 C1765 1.379 . S
H1767 C1761 0.959 . S
H1768 C1761 0.961 . S
H1769 C1761 0.960 . S
H1770 C1762 0.930 . S
H1771 C1763 0.929 . S
H1772 C1780 0.929 . S
H1773 C1782 0.930 . S
H1774 C1784 0.930 . S
H1775 C1787 0.929 . S
H1776 C1790 0.930 . S
H1777 C1792 0.960 . S
H1778 C1792 0.960 . S
H1779 C1792 0.960 . S
C1780 H1772 0.929 . S
C1780 C1781 1.377 . S
C1780 C1782 1.384 . S
C1781 C1780 1.377 . S
C1781 C1787 1.390 . S
C1782 H1773 0.930 . S
C1782 C1780 1.384 . S
C1782 C1783 1.372 . S
C1783 C1782 1.372 . S
C1783 C1784 1.400 . S
C1783 C1788 1.490 . S
C1784 H1774 0.930 . S
C1784 C1783 1.400 . S
C1784 C1787 1.386 . S
H1785 C1801 0.930 . S
H1786 C1802 0.931 . S
C1787 H1775 0.929 . S
C1787 C1781 1.390 . S
C1787 C1784 1.386 . S
C1788 C1783 1.490 . S
C1788 C1790 1.395 . S
C1788 C1791 1.403 . S
H1789 C1795 0.930 . S
C1790 H1776 0.930 . S
C1790 C1788 1.395 . S
C1790 C1793 1.403 . S
C1791 C1788 1.403 . S
C1791 C1792 1.524 . S
C1791 C1795 1.400 . S
C1792 H1777 0.960 . S
C1792 H1778 0.960 . S
C1792 H1779 0.960 . S
C1792 C1791 1.524 . S
C1793 C1790 1.403 . S
C1793 C1794 1.392 . S
C1793 C1797 1.495 1_655 S
C1794 C1793 1.392 . S
C1794 C1795 1.385 . S
C1794 C1796 1.478 1_655 S
C1795 H1789 0.930 . S
C1795 C1791 1.400 . S
C1795 C1794 1.385 . S
C1796 C1794 1.478 1_455 S
C1796 C1798 1.381 . S
C1796 C1802 1.383 . S
C1797 C1793 1.495 1_455 S
C1797 H1803 0.959 . S
C1797 H1804 0.961 . S
C1797 H1805 0.960 . S
C1798 C1796 1.381 . S
C1798 C1799 1.394 . S
C1798 H1806 0.930 . S
C1799 C1798 1.394 . S
C1799 C1800 1.383 . S
C1799 H1807 0.929 . S
C1800 C1799 1.383 . S
C1800 C1801 1.377 . S
C1801 H1785 0.930 . S
C1801 C1800 1.377 . S
C1801 C1802 1.379 . S
C1802 H1786 0.931 . S
C1802 C1796 1.383 . S
C1802 C1801 1.379 . S
H1803 C1797 0.959 . S
H1804 C1797 0.961 . S
H1805 C1797 0.960 . S
H1806 C1798 0.930 . S
H1807 C1799 0.929 . S
H1808 C1816 0.929 . S
H1809 C1818 0.930 . S
H1810 C1820 0.930 . S
H1811 C1823 0.929 . S
H1812 C1826 0.930 . S
H1813 C1828 0.960 . S
H1814 C1828 0.960 . S
H1815 C1828 0.960 . S
C1816 H1808 0.929 . S
C1816 C1817 1.377 . S
C1816 C1818 1.384 . S
C1817 C1816 1.377 . S
C1817 C1823 1.390 . S
C1818 H1809 0.930 . S
C1818 C1816 1.384 . S
C1818 C1819 1.372 . S
C1819 C1818 1.372 . S
C1819 C1820 1.400 . S
C1819 C1824 1.490 . S
C1820 H1810 0.930 . S
C1820 C1819 1.400 . S
C1820 C1823 1.386 . S
H1821 C1837 0.930 . S
H1822 C1838 0.931 . S
C1823 H1811 0.929 . S
C1823 C1817 1.390 . S
C1823 C1820 1.386 . S
C1824 C1819 1.490 . S
C1824 C1826 1.395 . S
C1824 C1827 1.403 . S
H1825 C1831 0.930 . S
C1826 H1812 0.930 . S
C1826 C1824 1.395 . S
C1826 C1829 1.403 . S
C1827 C1824 1.403 . S
C1827 C1828 1.524 . S
C1827 C1831 1.400 . S
C1828 H1813 0.960 . S
C1828 H1814 0.960 . S
C1828 H1815 0.960 . S
C1828 C1827 1.524 . S
C1829 C1826 1.403 . S
C1829 C1830 1.392 . S
C1829 C1833 1.495 . S
C1830 C1829 1.392 . S
C1830 C1831 1.385 . S
C1830 C1832 1.478 . S
C1831 H1825 0.930 . S
C1831 C1827 1.400 . S
C1831 C1830 1.385 . S
C1832 C1830 1.478 . S
C1832 C1834 1.381 . S
C1832 C1838 1.383 . S
C1833 C1829 1.495 . S
C1833 H1839 0.959 . S
C1833 H1840 0.961 . S
C1833 H1841 0.960 . S
C1834 C1832 1.381 . S
C1834 C1835 1.394 . S
C1834 H1842 0.930 . S
C1835 C1834 1.394 . S
C1835 C1836 1.383 . S
C1835 H1843 0.929 . S
C1836 C1835 1.383 . S
C1836 C1837 1.377 . S
C1837 H1821 0.930 . S
C1837 C1836 1.377 . S
C1837 C1838 1.379 . S
C1838 H1822 0.931 . S
C1838 C1832 1.383 . S
C1838 C1837 1.379 . S
H1839 C1833 0.959 . S
H1840 C1833 0.961 . S
H1841 C1833 0.960 . S
H1842 C1834 0.930 . S
H1843 C1835 0.929 . S
H1844 C1852 0.929 . S
H1845 C1854 0.930 . S
H1846 C1856 0.930 . S
H1847 C1859 0.929 . S
H1848 C1862 0.930 1_655 S
H1849 C1864 0.960 . S
H1850 C1864 0.960 . S
H1851 C1864 0.960 . S
C1852 H1844 0.929 . S
C1852 C1853 1.377 . S
C1852 C1854 1.384 . S
C1853 C1852 1.377 . S
C1853 C1859 1.390 . S
C1854 H1845 0.930 . S
C1854 C1852 1.384 . S
C1854 C1855 1.372 1_655 S
C1855 C1854 1.372 1_455 S
C1855 C1856 1.400 . S
C1855 C1860 1.490 . S
C1856 H1846 0.930 . S
C1856 C1855 1.400 . S
C1856 C1859 1.386 1_455 S
H1857 C1873 0.930 . S
H1858 C1874 0.931 . S
C1859 H1847 0.929 . S
C1859 C1853 1.390 . S
C1859 C1856 1.386 1_655 S
C1860 C1855 1.490 . S
C1860 C1862 1.395 . S
C1860 C1863 1.403 . S
H1861 C1867 0.930 . S
C1862 H1848 0.930 1_455 S
C1862 C1860 1.395 . S
C1862 C1865 1.403 . S
C1863 C1860 1.403 . S
C1863 C1864 1.524 . S
C1863 C1867 1.400 . S
C1864 H1849 0.960 . S
C1864 H1850 0.960 . S
C1864 H1851 0.960 . S
C1864 C1863 1.524 . S
C1865 C1862 1.403 . S
C1865 C1866 1.392 . S
C1865 C1869 1.495 . S
C1866 C1865 1.392 . S
C1866 C1867 1.385 . S
C1866 C1868 1.478 . S
C1867 H1861 0.930 . S
C1867 C1863 1.400 . S
C1867 C1866 1.385 . S
C1868 C1866 1.478 . S
C1868 C1870 1.381 . S
C1868 C1874 1.383 . S
C1869 C1865 1.495 . S
C1869 H1875 0.959 1_455 S
C1869 H1876 0.961 . S
C1869 H1877 0.960 . S
C1870 C1868 1.381 . S
C1870 C1871 1.394 . S
C1870 H1878 0.930 . S
C1871 C1870 1.394 . S
C1871 C1872 1.383 . S
C1871 H1879 0.929 . S
C1872 C1871 1.383 . S
C1872 C1873 1.377 . S
C1873 H1857 0.930 . S
C1873 C1872 1.377 . S
C1873 C1874 1.379 . S
C1874 H1858 0.931 . S
C1874 C1868 1.383 . S
C1874 C1873 1.379 . S
H1875 C1869 0.959 1_655 S
H1876 C1869 0.961 . S
H1877 C1869 0.960 . S
H1878 C1870 0.930 . S
H1879 C1871 0.929 . S
H1880 C1888 0.929 . S
H1881 C1890 0.930 . S
H1882 C1892 0.930 . S
H1883 C1895 0.929 . S
H1884 C1898 0.930 . S
H1885 C1900 0.960 . S
H1886 C1900 0.960 . S
H1887 C1900 0.960 . S
C1888 H1880 0.929 . S
C1888 C1889 1.377 . S
C1888 C1890 1.384 . S
C1889 C1888 1.377 . S
C1889 C1895 1.390 . S
C1890 H1881 0.930 . S
C1890 C1888 1.384 . S
C1890 C1891 1.372 . S
C1891 C1890 1.372 . S
C1891 C1892 1.400 . S
C1891 C1896 1.490 . S
C1892 H1882 0.930 . S
C1892 C1891 1.400 . S
C1892 C1895 1.386 . S
H1893 C1909 0.930 . S
H1894 C1910 0.931 . S
C1895 H1883 0.929 . S
C1895 C1889 1.390 . S
C1895 C1892 1.386 . S
C1896 C1891 1.490 . S
C1896 C1898 1.395 . S
C1896 C1899 1.403 . S
H1897 C1903 0.930 . S
C1898 H1884 0.930 . S
C1898 C1896 1.395 . S
C1898 C1901 1.403 . S
C1899 C1896 1.403 . S
C1899 C1900 1.524 . S
C1899 C1903 1.400 . S
C1900 H1885 0.960 . S
C1900 H1886 0.960 . S
C1900 H1887 0.960 . S
C1900 C1899 1.524 . S
C1901 C1898 1.403 . S
C1901 C1902 1.392 . S
C1901 C1905 1.495 . S
C1902 C1901 1.392 . S
C1902 C1903 1.385 . S
C1902 C1904 1.478 . S
C1903 H1897 0.930 . S
C1903 C1899 1.400 . S
C1903 C1902 1.385 . S
C1904 C1902 1.478 . S
C1904 C1906 1.381 . S
C1904 C1910 1.383 . S
C1905 C1901 1.495 . S
C1905 H1911 0.959 . S
C1905 H1912 0.961 . S
C1905 H1913 0.960 . S
C1906 C1904 1.381 . S
C1906 C1907 1.394 . S
C1906 H1914 0.930 . S
C1907 C1906 1.394 . S
C1907 C1908 1.383 . S
C1907 H1915 0.929 . S
C1908 C1907 1.383 . S
C1908 C1909 1.377 . S
C1909 H1893 0.930 . S
C1909 C1908 1.377 . S
C1909 C1910 1.379 . S
C1910 H1894 0.931 . S
C1910 C1904 1.383 . S
C1910 C1909 1.379 . S
H1911 C1905 0.959 . S
H1912 C1905 0.961 . S
H1913 C1905 0.960 . S
H1914 C1906 0.930 . S
H1915 C1907 0.929 . S
H1916 C1924 0.935 . S
H1917 C1926 0.930 . S
H1918 C1928 0.930 . S
H1919 C1931 0.929 . S
H1920 C1934 0.930 . S
H1921 C1936 0.960 . S
H1922 C1936 0.960 . S
H1923 C1936 0.960 . S
C1924 H1916 0.935 . S
C1924 C1925 1.364 1_455 S
C1924 C1926 1.391 . S
C1925 C1924 1.364 1_655 S
C1925 C1931 1.390 . S
C1926 H1917 0.930 . S
C1926 C1924 1.391 . S
C1926 C1927 1.372 . S
C1927 C1926 1.372 . S
C1927 C1928 1.400 1_455 S
C1927 C1932 1.490 . S
C1928 H1918 0.930 . S
C1928 C1927 1.400 1_655 S
C1928 C1931 1.386 . S
H1929 C1945 0.930 . S
H1930 C1946 0.931 . S
C1931 H1919 0.929 . S
C1931 C1925 1.390 . S
C1931 C1928 1.386 . S
C1932 C1927 1.490 . S
C1932 C1934 1.395 . S
C1932 C1935 1.403 . S
H1933 C1939 0.930 . S
C1934 H1920 0.930 . S
C1934 C1932 1.395 . S
C1934 C1937 1.403 . S
C1935 C1932 1.403 . S
C1935 C1936 1.524 1_455 S
C1935 C1939 1.400 . S
C1936 H1921 0.960 . S
C1936 H1922 0.960 . S
C1936 H1923 0.960 . S
C1936 C1935 1.524 1_655 S
C1937 C1934 1.403 . S
C1937 C1938 1.392 . S
C1937 C1941 1.495 . S
C1938 C1937 1.392 . S
C1938 C1939 1.385 . S
C1938 C1940 1.478 . S
C1939 H1933 0.930 . S
C1939 C1935 1.400 . S
C1939 C1938 1.385 . S
C1940 C1938 1.478 . S
C1940 C1942 1.381 . S
C1940 C1946 1.383 . S
C1941 C1937 1.495 . S
C1941 H1947 0.959 . S
C1941 H1948 0.961 . S
C1941 H1949 0.960 . S
C1942 C1940 1.381 . S
C1942 C1943 1.394 . S
C1942 H1950 0.930 . S
C1943 C1942 1.394 . S
C1943 C1944 1.383 . S
C1943 H1951 0.929 . S
C1944 C1943 1.383 . S
C1944 C1945 1.377 . S
C1945 H1929 0.930 . S
C1945 C1944 1.377 . S
C1945 C1946 1.379 . S
C1946 H1930 0.931 . S
C1946 C1940 1.383 . S
C1946 C1945 1.379 . S
H1947 C1941 0.959 . S
H1948 C1941 0.961 . S
H1949 C1941 0.960 . S
H1950 C1942 0.930 . S
H1951 C1943 0.929 . S
H1952 C1960 0.929 . S
H1953 C1962 0.930 . S
H1954 C1964 0.930 . S
H1955 C1967 0.929 . S
H1956 C1970 0.930 . S
H1957 C1972 0.960 . S
H1958 C1972 0.960 . S
H1959 C1972 0.960 . S
C1960 H1952 0.929 . S
C1960 C1961 1.377 . S
C1960 C1962 1.384 . S
C1961 C1960 1.377 . S
C1961 C1967 1.390 . S
C1962 H1953 0.930 . S
C1962 C1960 1.384 . S
C1962 C1963 1.372 . S
C1963 C1962 1.372 . S
C1963 C1964 1.400 . S
C1963 C1968 1.490 . S
C1964 H1954 0.930 . S
C1964 C1963 1.400 . S
C1964 C1967 1.386 . S
H1965 C1981 0.930 . S
H1966 C1982 0.931 . S
C1967 H1955 0.929 . S
C1967 C1961 1.390 . S
C1967 C1964 1.386 . S
C1968 C1963 1.490 . S
C1968 C1970 1.395 . S
C1968 C1971 1.403 . S
H1969 C1975 0.930 . S
C1970 H1956 0.930 . S
C1970 C1968 1.395 . S
C1970 C1973 1.403 . S
C1971 C1968 1.403 . S
C1971 C1972 1.524 . S
C1971 C1975 1.400 . S
C1972 H1957 0.960 . S
C1972 H1958 0.960 . S
C1972 H1959 0.960 . S
C1972 C1971 1.524 . S
C1973 C1970 1.403 . S
C1973 C1974 1.392 . S
C1973 C1977 1.495 . S
C1974 C1973 1.392 . S
C1974 C1975 1.385 . S
C1974 C1976 1.478 . S
C1975 H1969 0.930 . S
C1975 C1971 1.400 . S
C1975 C1974 1.385 . S
C1976 C1974 1.478 . S
C1976 C1978 1.381 . S
C1976 C1982 1.383 . S
C1977 C1973 1.495 . S
C1977 H1983 0.959 . S
C1977 H1984 0.961 . S
C1977 H1985 0.960 . S
C1978 C1976 1.381 . S
C1978 C1979 1.394 . S
C1978 H1986 0.930 . S
C1979 C1978 1.394 . S
C1979 C1980 1.383 . S
C1979 H1987 0.929 . S
C1980 C1979 1.383 . S
C1980 C1981 1.377 . S
C1981 H1965 0.930 . S
C1981 C1980 1.377 . S
C1981 C1982 1.379 . S
C1982 H1966 0.931 . S
C1982 C1976 1.383 . S
C1982 C1981 1.379 . S
H1983 C1977 0.959 . S
H1984 C1977 0.961 . S
H1985 C1977 0.960 . S
H1986 C1978 0.930 . S
H1987 C1979 0.929 . S
H1988 C1996 0.929 . S
H1989 C1998 0.930 . S
H1990 C2000 0.930 . S
H1991 C2003 0.929 . S
H1992 C2006 0.930 1_455 S
H1993 C2008 0.960 . S
H1994 C2008 0.960 . S
H1995 C2008 0.960 . S
C1996 H1988 0.929 . S
C1996 C1997 1.377 . S
C1996 C1998 1.384 . S
C1997 C1996 1.377 . S
C1997 C2003 1.390 1_455 S
C1998 H1989 0.930 . S
C1998 C1996 1.384 . S
C1998 C1999 1.372 1_455 S
C1999 C1998 1.372 1_655 S
C1999 C2000 1.400 . S
C1999 C2004 1.490 . S
C2000 H1990 0.930 . S
C2000 C1999 1.400 . S
C2000 C2003 1.386 . S
H2001 C2017 0.930 . S
H2002 C2018 0.931 . S
C2003 H1991 0.929 . S
C2003 C1997 1.390 1_655 S
C2003 C2000 1.386 . S
C2004 C1999 1.490 . S
C2004 C2006 1.395 . S
C2004 C2007 1.403 . S
H2005 C2011 0.930 . S
C2006 H1992 0.930 1_655 S
C2006 C2004 1.395 . S
C2006 C2009 1.403 . S
C2007 C2004 1.403 . S
C2007 C2008 1.524 . S
C2007 C2011 1.400 . S
C2008 H1993 0.960 . S
C2008 H1994 0.960 . S
C2008 H1995 0.960 . S
C2008 C2007 1.524 . S
C2009 C2006 1.403 . S
C2009 C2010 1.392 . S
C2009 C2013 1.495 . S
C2010 C2009 1.392 . S
C2010 C2011 1.385 . S
C2010 C2012 1.478 . S
C2011 H2005 0.930 . S
C2011 C2007 1.400 . S
C2011 C2010 1.385 . S
C2012 C2010 1.478 . S
C2012 C2014 1.381 . S
C2012 C2018 1.383 . S
C2013 C2009 1.495 . S
C2013 H2019 0.959 1_655 S
C2013 H2020 0.961 . S
C2013 H2021 0.960 . S
C2014 C2012 1.381 . S
C2014 C2015 1.394 . S
C2014 H2022 0.930 . S
C2015 C2014 1.394 . S
C2015 C2016 1.383 . S
C2015 H2023 0.929 . S
C2016 C2015 1.383 . S
C2016 C2017 1.377 . S
C2017 H2001 0.930 . S
C2017 C2016 1.377 . S
C2017 C2018 1.379 . S
C2018 H2002 0.931 . S
C2018 C2012 1.383 . S
C2018 C2017 1.379 . S
H2019 C2013 0.959 1_455 S
H2020 C2013 0.961 . S
H2021 C2013 0.960 . S
H2022 C2014 0.930 . S
H2023 C2015 0.929 . S
H2024 C2032 0.929 . S
H2025 C2034 0.930 . S
H2026 C2036 0.930 . S
H2027 C2039 0.929 . S
H2028 C2042 0.930 . S
H2029 C2044 0.960 . S
H2030 C2044 0.960 . S
H2031 C2044 0.960 . S
C2032 H2024 0.929 . S
C2032 C2033 1.377 . S
C2032 C2034 1.384 . S
C2033 C2032 1.377 . S
C2033 C2039 1.390 . S
C2034 H2025 0.930 . S
C2034 C2032 1.384 . S
C2034 C2035 1.372 . S
C2035 C2034 1.372 . S
C2035 C2036 1.400 . S
C2035 C2040 1.490 . S
C2036 H2026 0.930 . S
C2036 C2035 1.400 . S
C2036 C2039 1.386 . S
H2037 C2053 0.930 . S
H2038 C2054 0.931 . S
C2039 H2027 0.929 . S
C2039 C2033 1.390 . S
C2039 C2036 1.386 . S
C2040 C2035 1.490 . S
C2040 C2042 1.395 . S
C2040 C2043 1.403 . S
H2041 C2047 0.930 . S
C2042 H2028 0.930 . S
C2042 C2040 1.395 . S
C2042 C2045 1.403 . S
C2043 C2040 1.403 . S
C2043 C2044 1.524 . S
C2043 C2047 1.400 . S
C2044 H2029 0.960 . S
C2044 H2030 0.960 . S
C2044 H2031 0.960 . S
C2044 C2043 1.524 . S
C2045 C2042 1.403 . S
C2045 C2046 1.392 . S
C2045 C2049 1.495 . S
C2046 C2045 1.392 . S
C2046 C2047 1.385 . S
C2046 C2048 1.478 . S
C2047 H2041 0.930 . S
C2047 C2043 1.400 . S
C2047 C2046 1.385 . S
C2048 C2046 1.478 . S
C2048 C2050 1.381 . S
C2048 C2054 1.383 . S
C2049 C2045 1.495 . S
C2049 H2055 0.959 . S
C2049 H2056 0.961 . S
C2049 H2057 0.960 . S
C2050 C2048 1.381 . S
C2050 C2051 1.394 . S
C2050 H2058 0.930 . S
C2051 C2050 1.394 . S
C2051 C2052 1.383 . S
C2051 H2059 0.929 . S
C2052 C2051 1.383 . S
C2052 C2053 1.377 . S
C2053 H2037 0.930 . S
C2053 C2052 1.377 . S
C2053 C2054 1.379 . S
C2054 H2038 0.931 . S
C2054 C2048 1.383 . S
C2054 C2053 1.379 . S
H2055 C2049 0.959 . S
H2056 C2049 0.961 . S
H2057 C2049 0.960 . S
H2058 C2050 0.930 . S
H2059 C2051 0.929 . S
H2060 C2068 0.929 . S
H2061 C2070 0.930 . S
H2062 C2072 0.930 . S
H2063 C2075 0.929 . S
H2064 C2078 0.930 . S
H2065 C2080 0.960 . S
H2066 C2080 0.960 . S
H2067 C2080 0.960 . S
C2068 H2060 0.929 . S
C2068 C2069 1.377 . S
C2068 C2070 1.384 . S
C2069 C2068 1.377 . S
C2069 C2075 1.390 . S
C2070 H2061 0.930 . S
C2070 C2068 1.384 . S
C2070 C2071 1.372 . S
C2071 C2070 1.372 . S
C2071 C2072 1.400 . S
C2071 C2076 1.490 . S
C2072 H2062 0.930 . S
C2072 C2071 1.400 . S
C2072 C2075 1.386 . S
H2073 C2089 0.930 1_655 S
H2074 C2090 0.931 . S
C2075 H2063 0.929 . S
C2075 C2069 1.390 . S
C2075 C2072 1.386 . S
C2076 C2071 1.490 . S
C2076 C2078 1.395 . S
C2076 C2079 1.403 . S
H2077 C2083 0.930 . S
C2078 H2064 0.930 . S
C2078 C2076 1.395 . S
C2078 C2081 1.403 . S
C2079 C2076 1.403 . S
C2079 C2080 1.524 . S
C2079 C2083 1.400 . S
C2080 H2065 0.960 . S
C2080 H2066 0.960 . S
C2080 H2067 0.960 . S
C2080 C2079 1.524 . S
C2081 C2078 1.403 . S
C2081 C2082 1.392 . S
C2081 C2085 1.495 1_655 S
C2082 C2081 1.392 . S
C2082 C2083 1.385 . S
C2082 C2084 1.478 1_655 S
C2083 H2077 0.930 . S
C2083 C2079 1.400 . S
C2083 C2082 1.385 . S
C2084 C2082 1.478 1_455 S
C2084 C2086 1.381 . S
C2084 C2090 1.383 1_455 S
C2085 C2081 1.495 1_455 S
C2085 H2091 0.959 . S
C2085 H2092 0.961 . S
C2085 H2093 0.960 . S
C2086 C2084 1.381 . S
C2086 C2087 1.394 . S
C2086 H2094 0.930 . S
C2087 C2086 1.394 . S
C2087 C2088 1.383 . S
C2087 H2095 0.929 . S
C2088 C2087 1.383 . S
C2088 C2089 1.377 . S
C2089 H2073 0.930 1_455 S
C2089 C2088 1.377 . S
C2089 C2090 1.379 1_455 S
C2090 H2074 0.931 . S
C2090 C2084 1.383 1_655 S
C2090 C2089 1.379 1_655 S
H2091 C2085 0.959 . S
H2092 C2085 0.961 . S
H2093 C2085 0.960 . S
H2094 C2086 0.930 . S
H2095 C2087 0.929 . S
H2096 C2104 0.929 . S
H2097 C2106 0.930 . S
H2098 C2108 0.930 . S
H2099 C2111 0.929 . S
H2100 C2114 0.930 . S
H2101 C2116 0.960 . S
H2102 C2116 0.960 . S
H2103 C2116 0.960 . S
C2104 H2096 0.929 . S
C2104 C2105 1.377 . S
C2104 C2106 1.384 . S
C2105 C2104 1.377 . S
C2105 C2111 1.390 . S
C2106 H2097 0.930 . S
C2106 C2104 1.384 . S
C2106 C2107 1.372 . S
C2107 C2106 1.372 . S
C2107 C2108 1.400 . S
C2107 C2112 1.490 . S
C2108 H2098 0.930 . S
C2108 C2107 1.400 . S
C2108 C2111 1.386 . S
H2109 C2125 0.930 . S
H2110 C2126 0.931 . S
C2111 H2099 0.929 . S
C2111 C2105 1.390 . S
C2111 C2108 1.386 . S
C2112 C2107 1.490 . S
C2112 C2114 1.395 . S
C2112 C2115 1.403 . S
H2113 C2119 0.930 . S
C2114 H2100 0.930 . S
C2114 C2112 1.395 . S
C2114 C2117 1.403 . S
C2115 C2112 1.403 . S
C2115 C2116 1.524 . S
C2115 C2119 1.400 . S
C2116 H2101 0.960 . S
C2116 H2102 0.960 . S
C2116 H2103 0.960 . S
C2116 C2115 1.524 . S
C2117 C2114 1.403 . S
C2117 C2118 1.392 . S
C2117 C2121 1.495 . S
C2118 C2117 1.392 . S
C2118 C2119 1.385 . S
C2118 C2120 1.478 . S
C2119 H2113 0.930 . S
C2119 C2115 1.400 . S
C2119 C2118 1.385 . S
C2120 C2118 1.478 . S
C2120 C2122 1.381 . S
C2120 C2126 1.383 . S
C2121 C2117 1.495 . S
C2121 H2127 0.959 . S
C2121 H2128 0.961 . S
C2121 H2129 0.960 . S
C2122 C2120 1.381 . S
C2122 C2123 1.394 . S
C2122 H2130 0.930 . S
C2123 C2122 1.394 . S
C2123 C2124 1.383 . S
C2123 H2131 0.929 . S
C2124 C2123 1.383 . S
C2124 C2125 1.377 . S
C2125 H2109 0.930 . S
C2125 C2124 1.377 . S
C2125 C2126 1.379 . S
C2126 H2110 0.931 . S
C2126 C2120 1.383 . S
C2126 C2125 1.379 . S
H2127 C2121 0.959 . S
H2128 C2121 0.961 . S
H2129 C2121 0.960 . S
H2130 C2122 0.930 . S
H2131 C2123 0.929 . S
H2132 C2140 0.929 . S
H2133 C2142 0.930 . S
H2134 C2144 0.930 . S
H2135 C2147 0.929 . S
H2136 C2150 0.930 . S
H2137 C2152 0.960 1_655 S
H2138 C2152 0.960 . S
H2139 C2152 0.960 . S
C2140 H2132 0.929 . S
C2140 C2141 1.377 . S
C2140 C2142 1.384 . S
C2141 C2140 1.377 . S
C2141 C2147 1.390 . S
C2142 H2133 0.930 . S
C2142 C2140 1.384 . S
C2142 C2143 1.372 . S
C2143 C2142 1.372 . S
C2143 C2144 1.400 . S
C2143 C2148 1.490 . S
C2144 H2134 0.930 . S
C2144 C2143 1.400 . S
C2144 C2147 1.386 . S
H2145 C2161 0.930 . S
H2146 C2162 0.931 . S
C2147 H2135 0.929 . S
C2147 C2141 1.390 . S
C2147 C2144 1.386 . S
C2148 C2143 1.490 . S
C2148 C2150 1.395 . S
C2148 C2151 1.403 . S
H2149 C2155 0.930 1_655 S
C2150 H2136 0.930 . S
C2150 C2148 1.395 . S
C2150 C2153 1.403 . S
C2151 C2148 1.403 . S
C2151 C2152 1.524 . S
C2151 C2155 1.400 . S
C2152 H2137 0.960 1_455 S
C2152 H2138 0.960 . S
C2152 H2139 0.960 . S
C2152 C2151 1.524 . S
C2153 C2150 1.403 . S
C2153 C2154 1.392 . S
C2153 C2157 1.495 . S
C2154 C2153 1.392 . S
C2154 C2155 1.385 . S
C2154 C2156 1.478 . S
C2155 H2149 0.930 1_455 S
C2155 C2151 1.400 . S
C2155 C2154 1.385 . S
C2156 C2154 1.478 . S
C2156 C2158 1.381 . S
C2156 C2162 1.383 1_455 S
C2157 C2153 1.495 . S
C2157 H2163 0.959 . S
C2157 H2164 0.961 . S
C2157 H2165 0.960 . S
C2158 C2156 1.381 . S
C2158 C2159 1.394 1_455 S
C2158 H2166 0.930 . S
C2159 C2158 1.394 1_655 S
C2159 C2160 1.383 . S
C2159 H2167 0.929 . S
C2160 C2159 1.383 . S
C2160 C2161 1.377 . S
C2161 H2145 0.930 . S
C2161 C2160 1.377 . S
C2161 C2162 1.379 . S
C2162 H2146 0.931 . S
C2162 C2156 1.383 1_655 S
C2162 C2161 1.379 . S
H2163 C2157 0.959 . S
H2164 C2157 0.961 . S
H2165 C2157 0.960 . S
H2166 C2158 0.930 . S
H2167 C2159 0.929 . S
H2168 C2176 0.929 . S
H2169 C2178 0.930 . S
H2170 C2180 0.930 . S
H2171 C2183 0.929 . S
H2172 C2186 0.930 . S
H2173 C2188 0.960 . S
H2174 C2188 0.960 . S
H2175 C2188 0.960 . S
C2176 H2168 0.929 . S
C2176 C2177 1.377 . S
C2176 C2178 1.384 . S
C2177 C2176 1.377 . S
C2177 C2183 1.390 . S
C2178 H2169 0.930 . S
C2178 C2176 1.384 . S
C2178 C2179 1.372 . S
C2179 C2178 1.372 . S
C2179 C2180 1.400 . S
C2179 C2184 1.490 . S
C2180 H2170 0.930 . S
C2180 C2179 1.400 . S
C2180 C2183 1.386 . S
H2181 C2197 0.930 . S
H2182 C2198 0.931 . S
C2183 H2171 0.929 . S
C2183 C2177 1.390 . S
C2183 C2180 1.386 . S
C2184 C2179 1.490 . S
C2184 C2186 1.395 . S
C2184 C2187 1.403 . S
H2185 C2191 0.930 . S
C2186 H2172 0.930 . S
C2186 C2184 1.395 . S
C2186 C2189 1.403 . S
C2187 C2184 1.403 . S
C2187 C2188 1.524 . S
C2187 C2191 1.400 . S
C2188 H2173 0.960 . S
C2188 H2174 0.960 . S
C2188 H2175 0.960 . S
C2188 C2187 1.524 . S
C2189 C2186 1.403 . S
C2189 C2190 1.392 . S
C2189 C2193 1.495 . S
C2190 C2189 1.392 . S
C2190 C2191 1.385 . S
C2190 C2192 1.478 . S
C2191 H2185 0.930 . S
C2191 C2187 1.400 . S
C2191 C2190 1.385 . S
C2192 C2190 1.478 . S
C2192 C2194 1.381 . S
C2192 C2198 1.383 . S
C2193 C2189 1.495 . S
C2193 H2199 0.959 . S
C2193 H2200 0.961 . S
C2193 H2201 0.960 . S
C2194 C2192 1.381 . S
C2194 C2195 1.394 . S
C2194 H2202 0.930 . S
C2195 C2194 1.394 . S
C2195 C2196 1.383 . S
C2195 H2203 0.929 . S
C2196 C2195 1.383 . S
C2196 C2197 1.377 . S
C2197 H2181 0.930 . S
C2197 C2196 1.377 . S
C2197 C2198 1.379 . S
C2198 H2182 0.931 . S
C2198 C2192 1.383 . S
C2198 C2197 1.379 . S
H2199 C2193 0.959 . S
H2200 C2193 0.961 . S
H2201 C2193 0.960 . S
H2202 C2194 0.930 . S
H2203 C2195 0.929 . S
H2204 C2212 0.929 . S
H2205 C2214 0.930 . S
H2206 C2216 0.930 . S
H2207 C2219 0.929 . S
H2208 C2222 0.930 . S
H2209 C2224 0.960 1_655 S
H2210 C2224 0.960 . S
H2211 C2224 0.960 . S
C2212 H2204 0.929 . S
C2212 C2213 1.377 . S
C2212 C2214 1.384 . S
C2213 C2212 1.377 . S
C2213 C2219 1.390 . S
C2214 H2205 0.930 . S
C2214 C2212 1.384 . S
C2214 C2215 1.372 . S
C2215 C2214 1.372 . S
C2215 C2216 1.400 . S
C2215 C2220 1.490 . S
C2216 H2206 0.930 . S
C2216 C2215 1.400 . S
C2216 C2219 1.386 . S
H2217 C2233 0.930 . S
H2218 C2234 0.931 . S
C2219 H2207 0.929 . S
C2219 C2213 1.390 . S
C2219 C2216 1.386 . S
C2220 C2215 1.490 . S
C2220 C2222 1.395 . S
C2220 C2223 1.403 . S
H2221 C2227 0.930 1_655 S
C2222 H2208 0.930 . S
C2222 C2220 1.395 . S
C2222 C2225 1.403 . S
C2223 C2220 1.403 . S
C2223 C2224 1.524 . S
C2223 C2227 1.400 . S
C2224 H2209 0.960 1_455 S
C2224 H2210 0.960 . S
C2224 H2211 0.960 . S
C2224 C2223 1.524 . S
C2225 C2222 1.403 . S
C2225 C2226 1.392 . S
C2225 C2229 1.495 . S
C2226 C2225 1.392 . S
C2226 C2227 1.385 . S
C2226 C2228 1.478 . S
C2227 H2221 0.930 1_455 S
C2227 C2223 1.400 . S
C2227 C2226 1.385 . S
C2228 C2226 1.478 . S
C2228 C2230 1.381 . S
C2228 C2234 1.383 1_455 S
C2229 C2225 1.495 . S
C2229 H2235 0.959 . S
C2229 H2236 0.961 . S
C2229 H2237 0.960 . S
C2230 C2228 1.381 . S
C2230 C2231 1.394 1_455 S
C2230 H2238 0.930 . S
C2231 C2230 1.394 1_655 S
C2231 C2232 1.383 . S
C2231 H2239 0.929 . S
C2232 C2231 1.383 . S
C2232 C2233 1.377 . S
C2233 H2217 0.930 . S
C2233 C2232 1.377 . S
C2233 C2234 1.379 . S
C2234 H2218 0.931 . S
C2234 C2228 1.383 1_655 S
C2234 C2233 1.379 . S
H2235 C2229 0.959 . S
H2236 C2229 0.961 . S
H2237 C2229 0.960 . S
H2238 C2230 0.930 . S
H2239 C2231 0.929 . S
H2240 C2248 0.929 . S
H2241 C2250 0.930 . S
H2242 C2252 0.930 . S
H2243 C2255 0.929 . S
H2244 C2258 0.930 . S
H2245 C2260 0.960 . S
H2246 C2260 0.960 . S
H2247 C2260 0.960 . S
C2248 H2240 0.929 . S
C2248 C2249 1.377 . S
C2248 C2250 1.384 . S
C2249 C2248 1.377 . S
C2249 C2255 1.390 . S
C2250 H2241 0.930 . S
C2250 C2248 1.384 . S
C2250 C2251 1.372 . S
C2251 C2250 1.372 . S
C2251 C2252 1.400 . S
C2251 C2256 1.490 . S
C2252 H2242 0.930 . S
C2252 C2251 1.400 . S
C2252 C2255 1.386 . S
H2253 C2269 0.930 . S
H2254 C2270 0.931 . S
C2255 H2243 0.929 . S
C2255 C2249 1.390 . S
C2255 C2252 1.386 . S
C2256 C2251 1.490 . S
C2256 C2258 1.395 . S
C2256 C2259 1.403 . S
H2257 C2263 0.930 . S
C2258 H2244 0.930 . S
C2258 C2256 1.395 . S
C2258 C2261 1.403 . S
C2259 C2256 1.403 . S
C2259 C2260 1.524 . S
C2259 C2263 1.400 . S
C2260 H2245 0.960 . S
C2260 H2246 0.960 . S
C2260 H2247 0.960 . S
C2260 C2259 1.524 . S
C2261 C2258 1.403 . S
C2261 C2262 1.392 . S
C2261 C2265 1.495 . S
C2262 C2261 1.392 . S
C2262 C2263 1.385 . S
C2262 C2264 1.478 . S
C2263 H2257 0.930 . S
C2263 C2259 1.400 . S
C2263 C2262 1.385 . S
C2264 C2262 1.478 . S
C2264 C2266 1.381 . S
C2264 C2270 1.383 . S
C2265 C2261 1.495 . S
C2265 H2271 0.959 . S
C2265 H2272 0.961 . S
C2265 H2273 0.960 . S
C2266 C2264 1.381 . S
C2266 C2267 1.394 . S
C2266 H2274 0.930 . S
C2267 C2266 1.394 . S
C2267 C2268 1.383 . S
C2267 H2275 0.929 . S
C2268 C2267 1.383 . S
C2268 C2269 1.377 . S
C2269 H2253 0.930 . S
C2269 C2268 1.377 . S
C2269 C2270 1.379 . S
C2270 H2254 0.931 . S
C2270 C2264 1.383 . S
C2270 C2269 1.379 . S
H2271 C2265 0.959 . S
H2272 C2265 0.961 . S
H2273 C2265 0.960 . S
H2274 C2266 0.930 . S
H2275 C2267 0.929 . S
H2276 C2284 0.929 . S
H2277 C2286 0.930 1_545 S
H2278 C2288 0.930 . S
H2279 C2291 0.929 . S
H2280 C2294 0.930 . S
H2281 C2296 0.960 . S
H2282 C2296 0.960 . S
H2283 C2296 0.960 . S
C2284 H2276 0.929 . S
C2284 C2285 1.377 . S
C2284 C2286 1.384 . S
C2285 C2284 1.377 . S
C2285 C2291 1.390 . S
C2286 H2277 0.930 1_565 S
C2286 C2284 1.384 . S
C2286 C2287 1.372 . S
C2287 C2286 1.372 . S
C2287 C2288 1.400 . S
C2287 C2292 1.490 . S
C2288 H2278 0.930 . S
C2288 C2287 1.400 . S
C2288 C2291 1.386 . S
H2289 C2305 0.930 . S
H2290 C2306 0.931 1_565 S
C2291 H2279 0.929 . S
C2291 C2285 1.390 . S
C2291 C2288 1.386 . S
C2292 C2287 1.490 . S
C2292 C2294 1.395 1_665 S
C2292 C2295 1.403 . S
H2293 C2299 0.930 . S
C2294 H2280 0.930 . S
C2294 C2292 1.395 1_445 S
C2294 C2297 1.403 . S
C2295 C2292 1.403 . S
C2295 C2296 1.524 . S
C2295 C2299 1.400 . S
C2296 H2281 0.960 . S
C2296 H2282 0.960 . S
C2296 H2283 0.960 . S
C2296 C2295 1.524 . S
C2297 C2294 1.403 . S
C2297 C2298 1.392 . S
C2297 C2301 1.495 . S
C2298 C2297 1.392 . S
C2298 C2299 1.385 1_445 S
C2298 C2300 1.478 . S
C2299 H2293 0.930 . S
C2299 C2295 1.400 . S
C2299 C2298 1.385 1_665 S
C2300 C2298 1.478 . S
C2300 C2302 1.381 . S
C2300 C2306 1.383 . S
C2301 C2297 1.495 . S
C2301 H2307 0.959 . S
C2301 H2308 0.961 . S
C2301 H2309 0.960 . S
C2302 C2300 1.381 . S
C2302 C2303 1.394 . S
C2302 H2310 0.930 . S
C2303 C2302 1.394 . S
C2303 C2304 1.383 . S
C2303 H2311 0.929 . S
C2304 C2303 1.383 . S
C2304 C2305 1.377 . S
C2305 H2289 0.930 . S
C2305 C2304 1.377 . S
C2305 C2306 1.379 . S
C2306 H2290 0.931 1_545 S
C2306 C2300 1.383 . S
C2306 C2305 1.379 . S
H2307 C2301 0.959 . S
H2308 C2301 0.961 . S
H2309 C2301 0.960 . S
H2310 C2302 0.930 . S
H2311 C2303 0.929 . S
H2312 C2320 0.929 . S
H2313 C2322 0.930 . S
H2314 C2324 0.930 1_545 S
H2315 C2327 0.929 . S
H2316 C2330 0.930 . S
H2317 C2332 0.960 . S
H2318 C2332 0.960 1_565 S
H2319 C2332 0.960 . S
C2320 H2312 0.929 . S
C2320 C2321 1.377 . S
C2320 C2322 1.384 . S
C2321 C2320 1.377 . S
C2321 C2327 1.390 . S
C2322 H2313 0.930 . S
C2322 C2320 1.384 . S
C2322 C2323 1.372 . S
C2323 C2322 1.372 . S
C2323 C2324 1.400 . S
C2323 C2328 1.490 . S
C2324 H2314 0.930 1_565 S
C2324 C2323 1.400 . S
C2324 C2327 1.386 . S
H2325 C2341 0.930 . S
H2326 C2342 0.931 . S
C2327 H2315 0.929 . S
C2327 C2321 1.390 . S
C2327 C2324 1.386 . S
C2328 C2323 1.490 . S
C2328 C2330 1.395 . S
C2328 C2331 1.414 . S
H2329 C2335 0.930 . S
C2330 H2316 0.930 . S
C2330 C2328 1.395 . S
C2330 C2333 1.403 . S
C2331 C2328 1.414 . S
C2331 C2332 1.520 1_565 S
C2331 C2335 1.393 1_565 S
C2332 H2317 0.960 . S
C2332 H2318 0.960 1_545 S
C2332 H2319 0.960 . S
C2332 C2331 1.520 1_545 S
C2333 C2330 1.403 . S
C2333 C2334 1.392 1_565 S
C2333 C2337 1.495 . S
C2334 C2333 1.392 1_545 S
C2334 C2335 1.385 . S
C2334 C2336 1.478 . S
C2335 H2329 0.930 . S
C2335 C2331 1.393 1_545 S
C2335 C2334 1.385 . S
C2336 C2334 1.478 . S
C2336 C2338 1.381 . S
C2336 C2342 1.383 . S
C2337 C2333 1.495 . S
C2337 H2343 0.959 . S
C2337 H2344 0.961 1_565 S
C2337 H2345 0.960 . S
C2338 C2336 1.381 . S
C2338 C2339 1.394 . S
C2338 H2346 0.930 1_545 S
C2339 C2338 1.394 . S
C2339 C2340 1.383 . S
C2339 H2347 0.929 . S
C2340 C2339 1.383 . S
C2340 C2341 1.377 . S
C2341 H2325 0.930 . S
C2341 C2340 1.377 . S
C2341 C2342 1.379 . S
C2342 H2326 0.931 . S
C2342 C2336 1.383 . S
C2342 C2341 1.379 . S
H2343 C2337 0.959 . S
H2344 C2337 0.961 1_545 S
H2345 C2337 0.960 . S
H2346 C2338 0.930 1_565 S
H2347 C2339 0.929 . S
H2348 C2356 0.929 . S
H2349 C2358 0.930 . S
H2350 C2360 0.930 . S
H2351 C2363 0.929 . S
H2352 C2366 0.930 . S
H2353 C2368 0.960 . S
H2354 C2368 0.960 . S
H2355 C2368 0.960 . S
C2356 H2348 0.929 . S
C2356 C2357 1.377 . S
C2356 C2358 1.384 . S
C2357 C2356 1.377 . S
C2357 C2363 1.390 . S
C2358 H2349 0.930 . S
C2358 C2356 1.384 . S
C2358 C2359 1.372 . S
C2359 C2358 1.372 . S
C2359 C2360 1.400 . S
C2359 C2364 1.490 . S
C2360 H2350 0.930 . S
C2360 C2359 1.400 . S
C2360 C2363 1.386 . S
H2361 C2377 0.930 . S
H2362 C2378 0.931 . S
C2363 H2351 0.929 . S
C2363 C2357 1.390 . S
C2363 C2360 1.386 . S
C2364 C2359 1.490 . S
C2364 C2366 1.395 . S
C2364 C2367 1.403 1_455 S
H2365 C2371 0.930 . S
C2366 H2352 0.930 . S
C2366 C2364 1.395 . S
C2366 C2369 1.403 . S
C2367 C2364 1.403 1_655 S
C2367 C2368 1.524 . S
C2367 C2371 1.400 . S
C2368 H2353 0.960 . S
C2368 H2354 0.960 . S
C2368 H2355 0.960 . S
C2368 C2367 1.524 . S
C2369 C2366 1.403 . S
C2369 C2370 1.392 1_455 S
C2369 C2373 1.495 . S
C2370 C2369 1.392 1_655 S
C2370 C2371 1.385 . S
C2370 C2372 1.478 . S
C2371 H2365 0.930 . S
C2371 C2367 1.400 . S
C2371 C2370 1.385 . S
C2372 C2370 1.478 . S
C2372 C2374 1.381 . S
C2372 C2378 1.383 . S
C2373 C2369 1.495 . S
C2373 H2379 0.959 . S
C2373 H2380 0.961 . S
C2373 H2381 0.960 . S
C2374 C2372 1.381 . S
C2374 C2375 1.394 . S
C2374 H2382 0.930 . S
C2375 C2374 1.394 . S
C2375 C2376 1.383 . S
C2375 H2383 0.929 . S
C2376 C2375 1.383 . S
C2376 C2377 1.377 . S
C2377 H2361 0.930 . S
C2377 C2376 1.377 . S
C2377 C2378 1.379 . S
C2378 H2362 0.931 . S
C2378 C2372 1.383 . S
C2378 C2377 1.379 . S
H2379 C2373 0.959 . S
H2380 C2373 0.961 . S
H2381 C2373 0.960 . S
H2382 C2374 0.930 . S
H2383 C2375 0.929 . S
H2384 C2392 0.929 . S
H2385 C2394 0.930 . S
H2386 C2396 0.930 . S
H2387 C2399 0.929 . S
H2388 C2402 0.930 . S
H2389 C2404 0.960 . S
H2390 C2404 0.960 . S
H2391 C2404 0.960 . S
C2392 H2384 0.929 . S
C2392 C2393 1.377 . S
C2392 C2394 1.384 . S
C2393 C2392 1.377 . S
C2393 C2399 1.390 . S
C2394 H2385 0.930 . S
C2394 C2392 1.384 . S
C2394 C2395 1.372 . S
C2395 C2394 1.372 . S
C2395 C2396 1.400 . S
C2395 C2400 1.490 . S
C2396 H2386 0.930 . S
C2396 C2395 1.400 . S
C2396 C2399 1.386 . S
H2397 C2413 0.930 . S
H2398 C2414 0.931 . S
C2399 H2387 0.929 . S
C2399 C2393 1.390 . S
C2399 C2396 1.386 . S
C2400 C2395 1.490 . S
C2400 C2402 1.395 . S
C2400 C2403 1.403 . S
H2401 C2407 0.930 . S
C2402 H2388 0.930 . S
C2402 C2400 1.395 . S
C2402 C2405 1.403 . S
C2403 C2400 1.403 . S
C2403 C2404 1.524 . S
C2403 C2407 1.400 . S
C2404 H2389 0.960 . S
C2404 H2390 0.960 . S
C2404 H2391 0.960 . S
C2404 C2403 1.524 . S
C2405 C2402 1.403 . S
C2405 C2406 1.392 . S
C2405 C2409 1.495 . S
C2406 C2405 1.392 . S
C2406 C2407 1.385 . S
C2406 C2408 1.478 . S
C2407 H2401 0.930 . S
C2407 C2403 1.400 . S
C2407 C2406 1.385 . S
C2408 C2406 1.478 . S
C2408 C2410 1.381 . S
C2408 C2414 1.383 . S
C2409 C2405 1.495 . S
C2409 H2415 0.959 . S
C2409 H2416 0.961 . S
C2409 H2417 0.960 . S
C2410 C2408 1.381 . S
C2410 C2411 1.394 . S
C2410 H2418 0.930 . S
C2411 C2410 1.394 . S
C2411 C2412 1.383 . S
C2411 H2419 0.929 . S
C2412 C2411 1.383 . S
C2412 C2413 1.377 . S
C2413 H2397 0.930 . S
C2413 C2412 1.377 . S
C2413 C2414 1.379 . S
C2414 H2398 0.931 . S
C2414 C2408 1.383 . S
C2414 C2413 1.379 . S
H2415 C2409 0.959 . S
H2416 C2409 0.961 . S
H2417 C2409 0.960 . S
H2418 C2410 0.930 . S
H2419 C2411 0.929 . S
H2420 C2428 0.929 . S
H2421 C2430 0.930 . S
H2422 C2432 0.930 . S
H2423 C2435 0.929 . S
H2424 C2438 0.930 . S
H2425 C2440 0.960 . S
H2426 C2440 0.960 . S
H2427 C2440 0.960 . S
C2428 H2420 0.929 . S
C2428 C2429 1.377 . S
C2428 C2430 1.384 . S
C2429 C2428 1.377 . S
C2429 C2435 1.390 . S
C2430 H2421 0.930 . S
C2430 C2428 1.384 . S
C2430 C2431 1.372 . S
C2431 C2430 1.372 . S
C2431 C2432 1.400 . S
C2431 C2436 1.490 . S
C2432 H2422 0.930 . S
C2432 C2431 1.400 . S
C2432 C2435 1.386 . S
H2433 C2449 0.930 . S
H2434 C2450 0.931 . S
C2435 H2423 0.929 . S
C2435 C2429 1.390 . S
C2435 C2432 1.386 . S
C2436 C2431 1.490 . S
C2436 C2438 1.395 1_565 S
C2436 C2439 1.403 . S
H2437 C2443 0.930 . S
C2438 H2424 0.930 . S
C2438 C2436 1.395 1_545 S
C2438 C2441 1.403 . S
C2439 C2436 1.403 . S
C2439 C2440 1.524 . S
C2439 C2443 1.400 . S
C2440 H2425 0.960 . S
C2440 H2426 0.960 . S
C2440 H2427 0.960 . S
C2440 C2439 1.524 . S
C2441 C2438 1.403 . S
C2441 C2442 1.392 . S
C2441 C2445 1.495 . S
C2442 C2441 1.392 . S
C2442 C2443 1.385 1_545 S
C2442 C2444 1.478 . S
C2443 H2437 0.930 . S
C2443 C2439 1.400 . S
C2443 C2442 1.385 1_565 S
C2444 C2442 1.478 . S
C2444 C2446 1.381 . S
C2444 C2450 1.383 . S
C2445 C2441 1.495 . S
C2445 H2451 0.959 . S
C2445 H2452 0.961 . S
C2445 H2453 0.960 . S
C2446 C2444 1.381 . S
C2446 C2447 1.394 . S
C2446 H2454 0.930 . S
C2447 C2446 1.394 . S
C2447 C2448 1.383 . S
C2447 H2455 0.929 . S
C2448 C2447 1.383 . S
C2448 C2449 1.377 . S
C2449 H2433 0.930 . S
C2449 C2448 1.377 . S
C2449 C2450 1.379 . S
C2450 H2434 0.931 . S
C2450 C2444 1.383 . S
C2450 C2449 1.379 . S
H2451 C2445 0.959 . S
H2452 C2445 0.961 . S
H2453 C2445 0.960 . S
H2454 C2446 0.930 . S
H2455 C2447 0.929 . S
H2456 C2464 0.929 . S
H2457 C2466 0.930 . S
H2458 C2468 0.930 . S
H2459 C2471 0.929 . S
H2460 C2474 0.930 . S
H2461 C2476 0.960 . S
H2462 C2476 0.960 . S
H2463 C2476 0.960 . S
C2464 H2456 0.929 . S
C2464 C2465 1.377 1_655 S
C2464 C2466 1.384 . S
C2465 C2464 1.377 1_455 S
C2465 C2471 1.390 . S
C2466 H2457 0.930 . S
C2466 C2464 1.384 . S
C2466 C2467 1.372 1_655 S
C2467 C2466 1.372 1_455 S
C2467 C2468 1.400 . S
C2467 C2472 1.490 . S
C2468 H2458 0.930 . S
C2468 C2467 1.400 . S
C2468 C2471 1.386 . S
H2469 C2485 0.930 . S
H2470 C2486 0.931 . S
C2471 H2459 0.929 . S
C2471 C2465 1.390 . S
C2471 C2468 1.386 . S
C2472 C2467 1.490 . S
C2472 C2474 1.395 1_455 S
C2472 C2475 1.403 . S
H2473 C2479 0.930 . S
C2474 H2460 0.930 . S
C2474 C2472 1.395 1_655 S
C2474 C2477 1.403 . S
C2475 C2472 1.403 . S
C2475 C2476 1.524 . S
C2475 C2479 1.400 . S
C2476 H2461 0.960 . S
C2476 H2462 0.960 . S
C2476 H2463 0.960 . S
C2476 C2475 1.524 . S
C2477 C2474 1.403 . S
C2477 C2478 1.392 . S
C2477 C2481 1.495 . S
C2478 C2477 1.392 . S
C2478 C2479 1.385 1_655 S
C2478 C2480 1.478 . S
C2479 H2473 0.930 . S
C2479 C2475 1.400 . S
C2479 C2478 1.385 1_455 S
C2480 C2478 1.478 . S
C2480 C2482 1.381 . S
C2480 C2486 1.383 1_655 S
C2481 C2477 1.495 . S
C2481 H2487 0.959 . S
C2481 H2488 0.961 . S
C2481 H2489 0.960 . S
C2482 C2480 1.381 . S
C2482 C2483 1.394 . S
C2482 H2490 0.930 . S
C2483 C2482 1.394 . S
C2483 C2484 1.383 . S
C2483 H2491 0.929 . S
C2484 C2483 1.383 . S
C2484 C2485 1.377 1_655 S
C2485 H2469 0.930 . S
C2485 C2484 1.377 1_455 S
C2485 C2486 1.379 . S
C2486 H2470 0.931 . S
C2486 C2480 1.383 1_455 S
C2486 C2485 1.379 . S
H2487 C2481 0.959 . S
H2488 C2481 0.961 . S
H2489 C2481 0.960 . S
H2490 C2482 0.930 . S
H2491 C2483 0.929 . S
H2492 C2500 0.929 . S
H2493 C2502 0.930 . S
H2494 C2504 0.930 . S
H2495 C2507 0.929 . S
H2496 C2510 0.930 . S
H2497 C2512 1.010 . S
H2498 C2512 0.960 . S
H2499 C2512 0.960 . S
C2500 H2492 0.929 . S
C2500 C2501 1.377 . S
C2500 C2502 1.384 . S
C2501 C2500 1.377 . S
C2501 C2507 1.390 . S
C2502 H2493 0.930 . S
C2502 C2500 1.384 . S
C2502 C2503 1.372 . S
C2503 C2502 1.372 . S
C2503 C2504 1.400 . S
C2503 C2508 1.490 . S
C2504 H2494 0.930 . S
C2504 C2503 1.400 . S
C2504 C2507 1.386 . S
H2505 C2521 0.930 . S
H2506 C2522 0.931 . S
C2507 H2495 0.929 . S
C2507 C2501 1.390 . S
C2507 C2504 1.386 . S
C2508 C2503 1.490 . S
C2508 C2510 1.395 . S
C2508 C2511 1.403 . S
H2509 C2515 0.930 . S
C2510 H2496 0.930 . S
C2510 C2508 1.395 . S
C2510 C2513 1.403 1_554 S
C2511 C2508 1.403 . S
C2511 C2512 1.524 . S
C2511 C2515 1.400 1_554 S
C2512 H2497 1.010 . S
C2512 H2498 0.960 . S
C2512 H2499 0.960 . S
C2512 C2511 1.524 . S
C2513 C2510 1.403 1_556 S
C2513 C2514 1.392 . S
C2513 C2517 1.495 . S
C2514 C2513 1.392 . S
C2514 C2515 1.385 . S
C2514 C2516 1.478 . S
C2515 H2509 0.930 . S
C2515 C2511 1.400 1_556 S
C2515 C2514 1.385 . S
C2516 C2514 1.478 . S
C2516 C2518 1.381 . S
C2516 C2522 1.383 . S
C2517 C2513 1.495 . S
C2517 H2523 1.073 . S
C2517 H2524 0.961 . S
C2517 H2525 0.960 . S
C2518 C2516 1.381 . S
C2518 C2519 1.394 . S
C2518 H2526 0.930 . S
C2519 C2518 1.394 . S
C2519 C2520 1.383 . S
C2519 H2527 0.929 . S
C2520 C2519 1.383 . S
C2520 C2521 1.377 . S
C2521 H2505 0.930 . S
C2521 C2520 1.377 . S
C2521 C2522 1.379 . S
C2522 H2506 0.931 . S
C2522 C2516 1.383 . S
C2522 C2521 1.379 . S
H2523 C2517 1.073 . S
H2524 C2517 0.961 . S
H2525 C2517 0.960 . S
H2526 C2518 0.930 . S
H2527 C2519 0.929 . S
H2528 C2536 0.929 . S
H2529 C2538 0.930 . S
H2530 C2540 0.930 . S
H2531 C2543 0.929 1_655 S
H2532 C2546 0.918 . S
H2533 C2548 0.960 . S
H2534 C2548 0.960 . S
H2535 C2548 0.960 . S
C2536 H2528 0.929 . S
C2536 C2537 1.377 . S
C2536 C2538 1.384 . S
C2537 C2536 1.377 . S
C2537 C2543 1.390 . S
C2538 H2529 0.930 . S
C2538 C2536 1.384 . S
C2538 C2539 1.372 . S
C2539 C2538 1.372 . S
C2539 C2540 1.400 1_455 S
C2539 C2544 1.490 . S
C2540 H2530 0.930 . S
C2540 C2539 1.400 1_655 S
C2540 C2543 1.386 1_655 S
H2541 C2557 0.930 . S
H2542 C2558 0.931 . S
C2543 H2531 0.929 1_455 S
C2543 C2537 1.390 . S
C2543 C2540 1.386 1_455 S
C2544 C2539 1.490 . S
C2544 C2546 1.293 1_456 S
C2544 C2547 1.403 . S
H2545 C2551 0.933 . S
C2546 H2532 0.918 . S
C2546 C2544 1.293 1_654 S
C2546 C2549 1.532 . S
C2547 C2544 1.403 . S
C2547 C2548 1.524 . S
C2547 C2551 1.325 1_556 S
C2548 H2533 0.960 . S
C2548 H2534 0.960 . S
C2548 H2535 0.960 . S
C2548 C2547 1.524 . S
C2549 C2546 1.532 . S
C2549 C2550 1.392 . S
C2549 C2553 1.495 . S
C2550 C2549 1.392 . S
C2550 C2551 1.448 1_655 S
C2550 C2552 1.478 . S
C2551 H2545 0.933 . S
C2551 C2547 1.325 1_554 S
C2551 C2550 1.448 1_455 S
C2552 C2550 1.478 . S
C2552 C2554 1.381 1_655 S
C2552 C2558 1.383 . S
C2553 C2549 1.495 . S
C2553 H2559 0.959 . S
C2553 H2560 0.961 . S
C2553 H2561 0.960 . S
C2554 C2552 1.381 1_455 S
C2554 C2555 1.394 1_455 S
C2554 H2562 0.930 . S
C2555 C2554 1.394 1_655 S
C2555 C2556 1.383 . S
C2555 H2563 0.929 1_655 S
C2556 C2555 1.383 . S
C2556 C2557 1.377 . S
C2557 H2541 0.930 . S
C2557 C2556 1.377 . S
C2557 C2558 1.379 . S
C2558 H2542 0.931 . S
C2558 C2552 1.383 . S
C2558 C2557 1.379 . S
H2559 C2553 0.959 . S
H2560 C2553 0.961 . S
H2561 C2553 0.960 . S
H2562 C2554 0.930 . S
H2563 C2555 0.929 1_455 S
H2564 C2572 0.929 . S
H2565 C2574 0.930 . S
H2566 C2576 0.930 . S
H2567 C2579 0.929 . S
H2568 C2582 0.930 . S
H2569 C2584 0.960 . S
H2570 C2584 0.960 . S
H2571 C2584 0.960 . S
C2572 H2564 0.929 . S
C2572 C2573 1.377 . S
C2572 C2574 1.384 . S
C2573 C2572 1.377 . S
C2573 C2579 1.390 . S
C2574 H2565 0.930 . S
C2574 C2572 1.384 . S
C2574 C2575 1.372 . S
C2575 C2574 1.372 . S
C2575 C2576 1.400 . S
C2575 C2580 1.490 . S
C2576 H2566 0.930 . S
C2576 C2575 1.400 . S
C2576 C2579 1.386 . S
H2577 C2593 0.930 . S
H2578 C2594 0.931 . S
C2579 H2567 0.929 . S
C2579 C2573 1.390 . S
C2579 C2576 1.386 . S
C2580 C2575 1.490 . S
C2580 C2582 1.395 . S
C2580 C2583 1.403 . S
H2581 C2587 0.930 . S
C2582 H2568 0.930 . S
C2582 C2580 1.395 . S
C2582 C2585 1.403 . S
C2583 C2580 1.403 . S
C2583 C2584 1.524 . S
C2583 C2587 1.400 . S
C2584 H2569 0.960 . S
C2584 H2570 0.960 . S
C2584 H2571 0.960 . S
C2584 C2583 1.524 . S
C2585 C2582 1.403 . S
C2585 C2586 1.392 . S
C2585 C2589 1.495 . S
C2586 C2585 1.392 . S
C2586 C2587 1.385 . S
C2586 C2588 1.478 . S
C2587 H2581 0.930 . S
C2587 C2583 1.400 . S
C2587 C2586 1.385 . S
C2588 C2586 1.478 . S
C2588 C2590 1.381 . S
C2588 C2594 1.383 . S
C2589 C2585 1.495 . S
C2589 H2595 0.959 . S
C2589 H2596 0.961 . S
C2589 H2597 0.960 . S
C2590 C2588 1.381 . S
C2590 C2591 1.394 . S
C2590 H2598 0.930 . S
C2591 C2590 1.394 . S
C2591 C2592 1.383 . S
C2591 H2599 0.929 . S
C2592 C2591 1.383 . S
C2592 C2593 1.377 . S
C2593 H2577 0.930 . S
C2593 C2592 1.377 . S
C2593 C2594 1.379 . S
C2594 H2578 0.931 . S
C2594 C2588 1.383 . S
C2594 C2593 1.379 . S
H2595 C2589 0.959 . S
H2596 C2589 0.961 . S
H2597 C2589 0.960 . S
H2598 C2590 0.930 . S
H2599 C2591 0.929 . S
H2600 C2608 0.929 . S
H2601 C2610 0.930 . S
H2602 C2612 0.930 . S
H2603 C2615 0.929 . S
H2604 C2618 0.930 . S
H2605 C2620 1.086 . S
H2606 C2620 0.960 . S
H2607 C2620 0.960 . S
C2608 H2600 0.929 . S
C2608 C2609 1.377 . S
C2608 C2610 1.384 . S
C2609 C2608 1.377 . S
C2609 C2615 1.390 . S
C2610 H2601 0.930 . S
C2610 C2608 1.384 . S
C2610 C2611 1.372 . S
C2611 C2610 1.372 . S
C2611 C2612 1.400 . S
C2611 C2616 1.490 . S
C2612 H2602 0.930 . S
C2612 C2611 1.400 . S
C2612 C2615 1.386 . S
H2613 C2629 0.930 . S
H2614 C2630 0.931 . S
C2615 H2603 0.929 . S
C2615 C2609 1.390 . S
C2615 C2612 1.386 . S
C2616 C2611 1.490 . S
C2616 C2618 1.395 . S
C2616 C2619 1.403 . S
H2617 C2623 0.930 . S
C2618 H2604 0.930 . S
C2618 C2616 1.395 . S
C2618 C2621 1.403 1_556 S
C2619 C2616 1.403 . S
C2619 C2620 1.524 . S
C2619 C2623 1.400 1_556 S
C2620 H2605 1.086 . S
C2620 H2606 0.960 . S
C2620 H2607 0.960 . S
C2620 C2619 1.524 . S
C2621 C2618 1.403 1_554 S
C2621 C2622 1.392 . S
C2621 C2625 1.495 . S
C2622 C2621 1.392 . S
C2622 C2623 1.385 . S
C2622 C2624 1.478 . S
C2623 H2617 0.930 . S
C2623 C2619 1.400 1_554 S
C2623 C2622 1.385 . S
C2624 C2622 1.478 . S
C2624 C2626 1.381 . S
C2624 C2630 1.383 . S
C2625 C2621 1.495 . S
C2625 H2631 1.054 . S
C2625 H2632 0.961 . S
C2625 H2633 0.960 . S
C2626 C2624 1.381 . S
C2626 C2627 1.394 . S
C2626 H2634 0.930 . S
C2627 C2626 1.394 . S
C2627 C2628 1.383 . S
C2627 H2635 0.929 . S
C2628 C2627 1.383 . S
C2628 C2629 1.377 . S
C2629 H2613 0.930 . S
C2629 C2628 1.377 . S
C2629 C2630 1.379 . S
C2630 H2614 0.931 . S
C2630 C2624 1.383 . S
C2630 C2629 1.379 . S
H2631 C2625 1.054 . S
H2632 C2625 0.961 . S
H2633 C2625 0.960 . S
H2634 C2626 0.930 . S
H2635 C2627 0.929 . S
H2636 C2644 0.929 . S
H2637 C2646 0.930 . S
H2638 C2648 0.930 . S
H2639 C2651 0.929 . S
H2640 C2654 0.930 . S
H2641 C2656 0.960 . S
H2642 C2656 0.960 . S
H2643 C2656 0.960 . S
C2644 H2636 0.929 . S
C2644 C2645 1.377 . S
C2644 C2646 1.384 . S
C2645 C2644 1.377 . S
C2645 C2651 1.390 . S
C2646 H2637 0.930 . S
C2646 C2644 1.384 . S
C2646 C2647 1.372 . S
C2647 C2646 1.372 . S
C2647 C2648 1.400 . S
C2647 C2652 1.490 . S
C2648 H2638 0.930 . S
C2648 C2647 1.400 . S
C2648 C2651 1.386 . S
H2649 C2665 0.930 . S
H2650 C2666 0.931 . S
C2651 H2639 0.929 . S
C2651 C2645 1.390 . S
C2651 C2648 1.386 . S
C2652 C2647 1.490 . S
C2652 C2654 1.395 . S
C2652 C2655 1.403 . S
H2653 C2659 0.930 . S
C2654 H2640 0.930 . S
C2654 C2652 1.395 . S
C2654 C2657 1.403 . S
C2655 C2652 1.403 . S
C2655 C2656 1.524 . S
C2655 C2659 1.400 . S
C2656 H2641 0.960 . S
C2656 H2642 0.960 . S
C2656 H2643 0.960 . S
C2656 C2655 1.524 . S
C2657 C2654 1.403 . S
C2657 C2658 1.392 . S
C2657 C2661 1.495 . S
C2658 C2657 1.392 . S
C2658 C2659 1.385 . S
C2658 C2660 1.478 . S
C2659 H2653 0.930 . S
C2659 C2655 1.400 . S
C2659 C2658 1.385 . S
C2660 C2658 1.478 . S
C2660 C2662 1.381 . S
C2660 C2666 1.383 . S
C2661 C2657 1.495 . S
C2661 H2667 0.959 . S
C2661 H2668 0.961 . S
C2661 H2669 0.960 . S
C2662 C2660 1.381 . S
C2662 C2663 1.394 . S
C2662 H2670 0.930 . S
C2663 C2662 1.394 . S
C2663 C2664 1.383 . S
C2663 H2671 0.929 . S
C2664 C2663 1.383 . S
C2664 C2665 1.377 . S
C2665 H2649 0.930 . S
C2665 C2664 1.377 . S
C2665 C2666 1.379 . S
C2666 H2650 0.931 . S
C2666 C2660 1.383 . S
C2666 C2665 1.379 . S
H2667 C2661 0.959 . S
H2668 C2661 0.961 . S
H2669 C2661 0.960 . S
H2670 C2662 0.930 . S
H2671 C2663 0.929 . S
H2672 C2680 0.929 . S
H2673 C2682 0.930 1_565 S
H2674 C2684 0.930 . S
H2675 C2687 0.929 . S
H2676 C2690 0.973 . S
H2677 C2692 0.960 . S
H2678 C2692 0.960 . S
H2679 C2692 0.960 1_545 S
C2680 H2672 0.929 . S
C2680 C2681 1.377 . S
C2680 C2682 1.384 . S
C2681 C2680 1.377 . S
C2681 C2687 1.390 . S
C2682 H2673 0.930 1_545 S
C2682 C2680 1.384 . S
C2682 C2683 1.372 . S
C2683 C2682 1.372 . S
C2683 C2684 1.400 . S
C2683 C2688 1.490 . S
C2684 H2674 0.930 . S
C2684 C2683 1.400 . S
C2684 C2687 1.386 . S
H2685 C2701 0.930 . S
H2686 C2702 0.931 1_545 S
C2687 H2675 0.929 . S
C2687 C2681 1.390 . S
C2687 C2684 1.386 . S
C2688 C2683 1.490 . S
C2688 C2690 1.496 . S
C2688 C2691 1.391 1_545 S
H2689 C2695 0.930 . S
C2690 H2676 0.973 . S
C2690 C2688 1.496 . S
C2690 C2693 1.256 1_546 S
C2691 C2688 1.391 1_565 S
C2691 C2692 1.522 . S
C2691 C2695 1.415 1_556 S
C2692 H2677 0.960 . S
C2692 H2678 0.960 . S
C2692 H2679 0.960 1_565 S
C2692 C2691 1.522 . S
C2693 C2690 1.256 1_564 S
C2693 C2694 1.406 . S
C2693 C2697 1.499 . S
C2694 C2693 1.406 . S
C2694 C2695 1.385 . S
C2694 C2696 1.478 . S
C2695 H2689 0.930 . S
C2695 C2691 1.415 1_554 S
C2695 C2694 1.385 . S
C2696 C2694 1.478 . S
C2696 C2698 1.381 . S
C2696 C2702 1.383 . S
C2697 C2693 1.499 . S
C2697 H2703 0.959 1_565 S
C2697 H2704 0.961 1_565 S
C2697 H2705 0.961 . S
C2698 C2696 1.381 . S
C2698 C2699 1.394 . S
C2698 H2706 0.930 . S
C2699 C2698 1.394 . S
C2699 C2700 1.383 . S
C2699 H2707 0.929 . S
C2700 C2699 1.383 . S
C2700 C2701 1.377 . S
C2701 H2685 0.930 . S
C2701 C2700 1.377 . S
C2701 C2702 1.379 . S
C2702 H2686 0.931 1_565 S
C2702 C2696 1.383 . S
C2702 C2701 1.379 . S
H2703 C2697 0.959 1_545 S
H2704 C2697 0.961 1_545 S
H2705 C2697 0.961 . S
H2706 C2698 0.930 . S
H2707 C2699 0.929 . S
H2708 C2716 0.929 . S
H2709 C2718 0.930 . S
H2710 C2720 0.930 . S
H2711 C2723 0.929 . S
H2712 C2726 0.930 . S
H2713 C2728 0.960 . S
H2714 C2728 0.960 . S
H2715 C2728 0.960 . S
C2716 H2708 0.929 . S
C2716 C2717 1.377 . S
C2716 C2718 1.384 . S
C2717 C2716 1.377 . S
C2717 C2723 1.390 . S
C2718 H2709 0.930 . S
C2718 C2716 1.384 . S
C2718 C2719 1.372 . S
C2719 C2718 1.372 . S
C2719 C2720 1.400 . S
C2719 C2724 1.490 . S
C2720 H2710 0.930 . S
C2720 C2719 1.400 . S
C2720 C2723 1.386 . S
H2721 C2737 0.930 . S
H2722 C2738 0.931 . S
C2723 H2711 0.929 . S
C2723 C2717 1.390 . S
C2723 C2720 1.386 . S
C2724 C2719 1.490 . S
C2724 C2726 1.395 . S
C2724 C2727 1.403 . S
H2725 C2731 0.930 . S
C2726 H2712 0.930 . S
C2726 C2724 1.395 . S
C2726 C2729 1.403 . S
C2727 C2724 1.403 . S
C2727 C2728 1.524 . S
C2727 C2731 1.400 . S
C2728 H2713 0.960 . S
C2728 H2714 0.960 . S
C2728 H2715 0.960 . S
C2728 C2727 1.524 . S
C2729 C2726 1.403 . S
C2729 C2730 1.392 . S
C2729 C2733 1.495 . S
C2730 C2729 1.392 . S
C2730 C2731 1.385 . S
C2730 C2732 1.478 . S
C2731 H2725 0.930 . S
C2731 C2727 1.400 . S
C2731 C2730 1.385 . S
C2732 C2730 1.478 . S
C2732 C2734 1.381 . S
C2732 C2738 1.383 . S
C2733 C2729 1.495 . S
C2733 H2739 0.959 . S
C2733 H2740 0.961 . S
C2733 H2741 0.960 . S
C2734 C2732 1.381 . S
C2734 C2735 1.394 . S
C2734 H2742 0.930 . S
C2735 C2734 1.394 . S
C2735 C2736 1.383 . S
C2735 H2743 0.929 . S
C2736 C2735 1.383 . S
C2736 C2737 1.377 . S
C2737 H2721 0.930 . S
C2737 C2736 1.377 . S
C2737 C2738 1.379 . S
C2738 H2722 0.931 . S
C2738 C2732 1.383 . S
C2738 C2737 1.379 . S
H2739 C2733 0.959 . S
H2740 C2733 0.961 . S
H2741 C2733 0.960 . S
H2742 C2734 0.930 . S
H2743 C2735 0.929 . S
H2744 C2752 0.929 . S
H2745 C2754 0.930 . S
H2746 C2756 0.930 . S
H2747 C2759 0.929 . S
H2748 C2762 0.930 . S
H2749 C2764 0.960 . S
H2750 C2764 0.960 . S
H2751 C2764 0.960 . S
C2752 H2744 0.929 . S
C2752 C2753 1.377 . S
C2752 C2754 1.384 . S
C2753 C2752 1.377 . S
C2753 C2759 1.390 . S
C2754 H2745 0.930 . S
C2754 C2752 1.384 . S
C2754 C2755 1.372 . S
C2755 C2754 1.372 . S
C2755 C2756 1.400 . S
C2755 C2760 1.490 . S
C2756 H2746 0.930 . S
C2756 C2755 1.400 . S
C2756 C2759 1.386 . S
H2757 C2773 0.930 . S
H2758 C2774 0.931 . S
C2759 H2747 0.929 . S
C2759 C2753 1.390 . S
C2759 C2756 1.386 . S
C2760 C2755 1.490 . S
C2760 C2762 1.395 . S
C2760 C2763 1.403 . S
H2761 C2767 0.930 . S
C2762 H2748 0.930 . S
C2762 C2760 1.395 . S
C2762 C2765 1.403 . S
C2763 C2760 1.403 . S
C2763 C2764 1.524 . S
C2763 C2767 1.400 . S
C2764 H2749 0.960 . S
C2764 H2750 0.960 . S
C2764 H2751 0.960 . S
C2764 C2763 1.524 . S
C2765 C2762 1.403 . S
C2765 C2766 1.392 . S
C2765 C2769 1.495 . S
C2766 C2765 1.392 . S
C2766 C2767 1.385 . S
C2766 C2768 1.478 . S
C2767 H2761 0.930 . S
C2767 C2763 1.400 . S
C2767 C2766 1.385 . S
C2768 C2766 1.478 . S
C2768 C2770 1.381 . S
C2768 C2774 1.383 . S
C2769 C2765 1.495 . S
C2769 H2775 0.959 . S
C2769 H2776 0.961 . S
C2769 H2777 0.960 . S
C2770 C2768 1.381 . S
C2770 C2771 1.394 . S
C2770 H2778 0.930 . S
C2771 C2770 1.394 . S
C2771 C2772 1.383 . S
C2771 H2779 0.929 . S
C2772 C2771 1.383 . S
C2772 C2773 1.377 . S
C2773 H2757 0.930 . S
C2773 C2772 1.377 . S
C2773 C2774 1.379 . S
C2774 H2758 0.931 . S
C2774 C2768 1.383 . S
C2774 C2773 1.379 . S
H2775 C2769 0.959 . S
H2776 C2769 0.961 . S
H2777 C2769 0.960 . S
H2778 C2770 0.930 . S
H2779 C2771 0.929 . S
H2780 C2788 0.929 . S
H2781 C2790 0.930 . S
H2782 C2792 0.930 . S
H2783 C2795 0.929 . S
H2784 C2798 0.930 . S
H2785 C2800 0.960 . S
H2786 C2800 0.960 . S
H2787 C2800 0.960 . S
C2788 H2780 0.929 . S
C2788 C2789 1.377 . S
C2788 C2790 1.384 . S
C2789 C2788 1.377 . S
C2789 C2795 1.390 . S
C2790 H2781 0.930 . S
C2790 C2788 1.384 . S
C2790 C2791 1.372 . S
C2791 C2790 1.372 . S
C2791 C2792 1.400 . S
C2791 C2796 1.490 . S
C2792 H2782 0.930 . S
C2792 C2791 1.400 . S
C2792 C2795 1.386 . S
H2793 C2809 0.930 . S
H2794 C2810 0.931 . S
C2795 H2783 0.929 . S
C2795 C2789 1.390 . S
C2795 C2792 1.386 . S
C2796 C2791 1.490 . S
C2796 C2798 1.395 . S
C2796 C2799 1.403 . S
H2797 C2803 0.930 . S
C2798 H2784 0.930 . S
C2798 C2796 1.395 . S
C2798 C2801 1.403 . S
C2799 C2796 1.403 . S
C2799 C2800 1.524 . S
C2799 C2803 1.400 . S
C2800 H2785 0.960 . S
C2800 H2786 0.960 . S
C2800 H2787 0.960 . S
C2800 C2799 1.524 . S
C2801 C2798 1.403 . S
C2801 C2802 1.392 . S
C2801 C2805 1.495 . S
C2802 C2801 1.392 . S
C2802 C2803 1.385 . S
C2802 C2804 1.478 . S
C2803 H2797 0.930 . S
C2803 C2799 1.400 . S
C2803 C2802 1.385 . S
C2804 C2802 1.478 . S
C2804 C2806 1.381 . S
C2804 C2810 1.383 . S
C2805 C2801 1.495 . S
C2805 H2811 0.959 . S
C2805 H2812 0.961 . S
C2805 H2813 0.960 . S
C2806 C2804 1.381 . S
C2806 C2807 1.394 . S
C2806 H2814 0.930 . S
C2807 C2806 1.394 . S
C2807 C2808 1.383 . S
C2807 H2815 0.929 . S
C2808 C2807 1.383 . S
C2808 C2809 1.377 . S
C2809 H2793 0.930 . S
C2809 C2808 1.377 . S
C2809 C2810 1.379 . S
C2810 H2794 0.931 . S
C2810 C2804 1.383 . S
C2810 C2809 1.379 . S
H2811 C2805 0.959 . S
H2812 C2805 0.961 . S
H2813 C2805 0.960 . S
H2814 C2806 0.930 . S
H2815 C2807 0.929 . S
C521 C16 0.752 . S
C540 C404 0.770 . S
C557 C20 0.755 . S
C576 C400 0.776 . S
C593 C48 0.748 . S
C612 C436 0.750 . S
C629 C52 0.752 . S
C648 C432 0.771 . S
C665 C464 0.750 . S
C684 C84 0.764 . S
C701 C80 0.757 . S
C720 C468 0.748 . S
C737 C116 0.756 . S
C756 C496 0.776 . S
C773 C112 0.755 . S
C792 C500 0.738 . S
C809 C276 0.751 . S
C828 C144 0.729 . S
C845 C272 0.751 . S
C864 C148 0.767 . S
C881 C308 0.748 . S
C900 C176 0.748 . S
C917 C304 0.758 . S
C936 C180 0.771 . S
C953 C336 0.749 . S
C972 C212 0.730 . S
C989 C208 0.758 . S
C1008 C340 0.756 . S
C1025 C368 0.751 . S
C1044 C244 0.766 . S
C1061 C240 0.748 . S
C1080 C372 0.734 . S
C1097 C23 1.439 . S
C1116 C403 1.429 . S
C1133 C19 1.445 . S
C1152 C407 1.464 . S
C1169 C55 1.448 . S
C1188 C435 1.449 . S
C1205 C439 1.441 . S
C1224 C51 1.452 . S
C1241 C471 1.439 . S
C1260 C83 1.422 . S
C1277 C467 1.439 . S
C1296 C87 1.431 . S
C1313 C503 1.445 . S
C1332 C115 1.425 . S
C1349 C499 1.448 . S
C1368 C119 1.460 . S
C1385 C151 1.439 . S
C1404 C275 1.428 . S
C1421 C147 1.443 . S
C1440 C279 1.418 . S
C1457 C183 1.444 . S
C1476 C307 1.421 . S
C1493 C179 1.448 . S
C1512 C311 1.438 . S
C1529 C343 1.445 . S
C1548 C211 1.422 . S
C1565 C339 1.448 . S
C1584 C215 1.443 . S
C1601 C375 1.439 . S
C1620 C243 1.420 . S
C1637 C247 1.446 . S
C1656 C371 1.464 . S
C1673 C22 2.029 . S
C1692 C305 1.992 . S
C1709 C310 2.031 . S
C1728 C17 2.007 . S
C1745 C273 1.998 . S
C1764 C54 2.035 . S
C1781 C278 2.031 . S
C1800 C49 2.007 . S
C1817 C373 1.991 . S
C1836 C82 2.035 . S
C1853 C85 1.996 . S
C1872 C370 2.012 . S
C1889 C114 2.027 . S
C1908 C341 2.010 . S
C1925 C117 1.991 . S
C1944 C338 2.034 . S
C1961 C433 1.999 . S
C1980 C150 2.037 . S
C1997 C145 1.993 . S
C2016 C438 2.018 . S
C2033 C182 2.026 . S
C2052 C401 1.974 . S
C2069 C406 2.028 . S
C2088 C177 1.989 . S
C2105 C501 1.998 . S
C2124 C210 2.012 . S
C2141 C498 2.027 . S
C2160 C213 1.981 . S
C2177 C469 1.998 . S
C2196 C242 2.025 . S
C2213 C466 2.029 . S
C2232 C245 1.975 . S
C2249 C465 1.644 . S
C2268 C21 1.644 . S
C2285 C86 1.867 . S
C2304 C18 1.874 . S
C2321 C369 1.645 . S
C2340 C53 1.644 . S
C2357 C50 1.867 . S
C2376 C246 1.873 . S
C2393 C405 1.644 . S
C2412 C81 1.637 . S
C2429 C113 1.644 . S
C2448 C309 1.643 . S
C2465 C178 1.871 . S
C2484 C118 1.881 . S
C2501 C337 1.644 . S
C2520 C149 1.644 . S
C2537 C146 1.868 . S
C2556 C214 1.849 . S
C2573 C181 1.644 . S
C2592 C497 1.644 . S
C2609 C277 1.645 . S
C2628 C209 1.644 . S
C2645 C437 1.644 . S
C2664 C241 1.642 . S
C2681 C274 1.866 . S
C2700 C342 1.859 . S
C2717 C306 1.872 . S
C2736 C502 1.873 . S
C2753 C434 1.871 . S
C2772 C374 1.860 . S
C2789 C470 1.868 . S
C2808 C402 1.848 . S
