# Generated by pormake.
# Topology lcv, (4)-cn, num edge types: 1
# Building blocks:
#     Node 0, Type 0, BuildingBlock: ESEHIV_clean_sbu_0, # of connection points: 4
#     Node 1, Type 0, BuildingBlock: ESEHIV_clean_sbu_0, # of connection points: 4
#     Node 2, Type 0, BuildingBlock: ESEHIV_clean_sbu_0, # of connection points: 4
#     Node 3, Type 0, BuildingBlock: ESEHIV_clean_sbu_0, # of connection points: 4
#     Node 4, Type 0, BuildingBlock: ESEHIV_clean_sbu_0, # of connection points: 4
#     Node 5, Type 0, BuildingBlock: ESEHIV_clean_sbu_0, # of connection points: 4
#     Node 6, Type 0, BuildingBlock: ESEHIV_clean_sbu_0, # of connection points: 4
#     Node 7, Type 0, BuildingBlock: ESEHIV_clean_sbu_0, # of connection points: 4
#     Node 8, Type 0, BuildingBlock: ESEHIV_clean_sbu_0, # of connection points: 4
#     Node 9, Type 0, BuildingBlock: ESEHIV_clean_sbu_0, # of connection points: 4
#     Node 10, Type 0, BuildingBlock: ESEHIV_clean_sbu_0, # of connection points: 4
#     Node 11, Type 0, BuildingBlock: ESEHIV_clean_sbu_0, # of connection points: 4
#     Edge 12, Type (0, 0), BuildingBlock: MIFKUJ_clean_linker_0, # of connection points: 2
#     Edge 13, Type (0, 0), BuildingBlock: MIFKUJ_clean_linker_0, # of connection points: 2
#     Edge 14, Type (0, 0), BuildingBlock: MIFKUJ_clean_linker_0, # of connection points: 2
#     Edge 15, Type (0, 0), BuildingBlock: MIFKUJ_clean_linker_0, # of connection points: 2
#     Edge 16, Type (0, 0), BuildingBlock: MIFKUJ_clean_linker_0, # of connection points: 2
#     Edge 17, Type (0, 0), BuildingBlock: MIFKUJ_clean_linker_0, # of connection points: 2
#     Edge 18, Type (0, 0), BuildingBlock: MIFKUJ_clean_linker_0, # of connection points: 2
#     Edge 19, Type (0, 0), BuildingBlock: MIFKUJ_clean_linker_0, # of connection points: 2
#     Edge 20, Type (0, 0), BuildingBlock: MIFKUJ_clean_linker_0, # of connection points: 2
#     Edge 21, Type (0, 0), BuildingBlock: MIFKUJ_clean_linker_0, # of connection points: 2
#     Edge 22, Type (0, 0), BuildingBlock: MIFKUJ_clean_linker_0, # of connection points: 2
#     Edge 23, Type (0, 0), BuildingBlock: MIFKUJ_clean_linker_0, # of connection points: 2
#     Edge 24, Type (0, 0), BuildingBlock: MIFKUJ_clean_linker_0, # of connection points: 2
#     Edge 25, Type (0, 0), BuildingBlock: MIFKUJ_clean_linker_0, # of connection points: 2
#     Edge 26, Type (0, 0), BuildingBlock: MIFKUJ_clean_linker_0, # of connection points: 2
#     Edge 27, Type (0, 0), BuildingBlock: MIFKUJ_clean_linker_0, # of connection points: 2
#     Edge 28, Type (0, 0), BuildingBlock: MIFKUJ_clean_linker_0, # of connection points: 2
#     Edge 29, Type (0, 0), BuildingBlock: MIFKUJ_clean_linker_0, # of connection points: 2
#     Edge 30, Type (0, 0), BuildingBlock: MIFKUJ_clean_linker_0, # of connection points: 2
#     Edge 31, Type (0, 0), BuildingBlock: MIFKUJ_clean_linker_0, # of connection points: 2
#     Edge 32, Type (0, 0), BuildingBlock: MIFKUJ_clean_linker_0, # of connection points: 2
#     Edge 33, Type (0, 0), BuildingBlock: MIFKUJ_clean_linker_0, # of connection points: 2
#     Edge 34, Type (0, 0), BuildingBlock: MIFKUJ_clean_linker_0, # of connection points: 2
#     Edge 35, Type (0, 0), BuildingBlock: MIFKUJ_clean_linker_0, # of connection points: 2
# Relax obj value: 0.155
# Max RMSD: 0.299
# Mean RMSD: 0.278
data_MOF--net-lcv--node1-ESEHIV_clean_sbu_0--edge1-MIFKUJ_clean_linker_0
_symmetry_space_group_name_H-M    P1
_symmetry_Int_Tables_number       1
_symmetry_cell_setting            triclinic
loop_
_symmetry_equiv_pos_as_xyz
'x, y, z'
_cell_length_a     63.774312
_cell_length_b     62.283767
_cell_length_c     63.025915
_cell_angle_alpha  94.359913
_cell_angle_beta   90.034862
_cell_angle_gamma 98.567879
loop_
_atom_site_label
_atom_site_type_symbol
_atom_site_fract_x
_atom_site_fract_y
_atom_site_fract_z
_atom_type_partial_charge
Cu0 Cu 0.04248 0.23965 0.2117 0.0
N1 N 0.0437 0.21208 0.22072 0.0
N2 N 0.05727 0.18181 0.22594 0.0
C3 C 0.06141 0.2028 0.22131 0.0
C4 C 0.03605 0.17773 0.22843 0.0
C5 C 0.02771 0.19648 0.22519 0.0
O6 O 0.06356 0.24403 0.18971 0.0
C7 C 0.03965 0.26032 0.25274 0.0
O8 O 0.02657 0.24253 0.25603 0.0
H9 H 0.07691 0.21098 0.21734 0.0
H10 H 0.01113 0.1984 0.22537 0.0
N11 N 0.01565 0.24142 0.20086 0.0
N12 N 0.98513 0.25391 0.1957 0.0
C13 C 0.00275 0.2556 0.20795 0.0
C14 C 0.00586 0.23028 0.18361 0.0
C15 C 0.98703 0.23801 0.18033 0.0
C16 C 0.0829 0.25041 0.19488 0.0
O17 O 0.08787 0.25581 0.21501 0.0
H18 H 0.00664 0.26757 0.22127 0.0
H19 H 0.01225 0.21782 0.17383 0.0
O20 O 0.04868 0.26195 0.23484 0.0
H21 H 0.02716 0.16225 0.232 0.0
H22 H 0.97576 0.23258 0.16749 0.0
Cu23 Cu 0.17277 0.79593 0.48242 0.0
N24 N 0.16464 0.81474 0.46361 0.0
N25 N 0.16473 0.84346 0.44444 0.0
C26 C 0.17591 0.83335 0.4578 0.0
C27 C 0.14572 0.83061 0.44185 0.0
C28 C 0.14573 0.81295 0.45372 0.0
O29 O 0.20218 0.80547 0.49041 0.0
C30 C 0.16669 0.74985 0.47965 0.0
O31 O 0.1715 0.7524 0.50005 0.0
H32 H 0.19198 0.83924 0.46324 0.0
H33 H 0.13277 0.79985 0.45532 0.0
N34 N 0.15626 0.79792 0.50655 0.0
N35 N 0.12847 0.79464 0.52825 0.0
C36 C 0.13597 0.78885 0.50892 0.0
C37 C 0.16187 0.80986 0.52486 0.0
C38 C 0.1448 0.80788 0.53829 0.0
C39 C 0.21802 0.79801 0.48208 0.0
O40 O 0.21492 0.78184 0.46723 0.0
H41 H 0.12698 0.77827 0.49665 0.0
H42 H 0.1772 0.81965 0.52802 0.0
O43 O 0.16727 0.76656 0.46915 0.0
H44 H 0.13254 0.83394 0.43246 0.0
H45 H 0.14438 0.81607 0.55401 0.0
Cu46 Cu 0.70815 0.8779 0.71925 0.0
N47 N 0.73434 0.88572 0.73296 0.0
N48 N 0.75761 0.87737 0.75645 0.0
C49 C 0.73728 0.87968 0.75265 0.0
C50 C 0.76801 0.88255 0.73846 0.0
C51 C 0.75361 0.88757 0.72396 0.0
O52 O 0.70619 0.84653 0.71612 0.0
C53 C 0.68902 0.906 0.74705 0.0
O54 O 0.70841 0.91665 0.74841 0.0
H55 H 0.7242 0.87372 0.76262 0.0
H56 H 0.75649 0.88931 0.70724 0.0
N57 N 0.70634 0.88977 0.69316 0.0
N58 N 0.68992 0.89993 0.66506 0.0
C59 C 0.68829 0.88729 0.68162 0.0
C60 C 0.72 0.90453 0.68364 0.0
C61 C 0.70995 0.91071 0.66617 0.0
C62 C 0.71554 0.83797 0.70055 0.0
O63 O 0.71882 0.8486 0.68336 0.0
H64 H 0.67402 0.87687 0.68584 0.0
H65 H 0.73569 0.91125 0.68956 0.0
O66 O 0.68553 0.88772 0.73621 0.0
H67 H 0.78432 0.88062 0.7352 0.0
H68 H 0.7165 0.92307 0.65584 0.0
Cu69 Cu 0.59954 0.36572 0.96973 0.0
N70 N 0.59753 0.39316 0.96064 0.0
N71 N 0.60605 0.42777 0.95312 0.0
C72 C 0.61338 0.40908 0.95654 0.0
C73 C 0.58482 0.42347 0.95511 0.0
C74 C 0.57961 0.40209 0.95973 0.0
O75 O 0.62704 0.36636 0.98313 0.0
C76 C 0.58693 0.34525 0.9286 0.0
O77 O 0.58245 0.3644 0.92441 0.0
H78 H 0.63 0.4074 0.95714 0.0
H79 H 0.56393 0.39379 0.96293 0.0
N80 N 0.57863 0.36011 0.98998 0.0
N81 N 0.54887 0.34613 0.00565 0.0
C82 C 0.5623 0.34365 0.98939 0.0
C83 C 0.5755 0.37335 0.00718 0.0
C84 C 0.55712 0.3648 0.01688 0.0
C85 C 0.64424 0.36813 0.97276 0.0
O86 O 0.64354 0.3688 0.95198 0.0
H87 H 0.55984 0.33064 0.97683 0.0
H88 H 0.58557 0.38852 0.01192 0.0
O89 O 0.5948 0.34287 0.94669 0.0
H90 H 0.57392 0.43506 0.95365 0.0
H91 H 0.55023 0.37184 0.03096 0.0
Cu92 Cu 0.25678 0.04082 0.29297 0.0
N93 N 0.23894 0.03722 0.26917 0.0
N94 N 0.21516 0.04647 0.24693 0.0
C95 C 0.22698 0.05233 0.2647 0.0
C96 C 0.2198 0.02673 0.23986 0.0
C97 C 0.23473 0.02112 0.25357 0.0
O98 O 0.26803 0.07157 0.29429 0.0
C99 C 0.22581 0.01673 0.31644 0.0
O100 O 0.21953 0.00822 0.29738 0.0
H101 H 0.22657 0.06717 0.27472 0.0
H102 H 0.24176 0.00632 0.25242 0.0
N103 N 0.27824 0.02359 0.29045 0.0
N104 N 0.30326 0.00544 0.30168 0.0
C105 C 0.28706 0.01625 0.3073 0.0
C106 C 0.28908 0.01716 0.27341 0.0
C107 C 0.30467 0.006 0.28034 0.0
C108 C 0.28688 0.07853 0.2889 0.0
O109 O 0.30145 0.06581 0.29005 0.0
H110 H 0.28222 0.01965 0.32351 0.0
H111 H 0.28626 0.02087 0.25725 0.0
O112 O 0.24109 0.03245 0.31819 0.0
H113 H 0.21293 0.01711 0.22585 0.0
H114 H 0.31627 0.99911 0.27049 0.0
Cu115 Cu 0.45967 0.94587 0.52234 0.0
N116 N 0.45607 0.95954 0.49754 0.0
N117 N 0.44272 0.96694 0.46658 0.0
C118 C 0.43944 0.95538 0.48388 0.0
C119 C 0.46215 0.97884 0.46958 0.0
C120 C 0.47034 0.97421 0.48866 0.0
O121 O 0.43586 0.92306 0.5248 0.0
C122 C 0.45777 0.98536 0.54891 0.0
O123 O 0.45021 0.99309 0.53215 0.0
H124 H 0.42552 0.94361 0.48628 0.0
H125 H 0.48575 0.98077 0.49545 0.0
N126 N 0.48473 0.93395 0.52051 0.0
N127 N 0.51585 0.92505 0.53004 0.0
C128 C 0.498 0.93253 0.53678 0.0
C129 C 0.49442 0.92709 0.50286 0.0
C130 C 0.51368 0.9216 0.50869 0.0
C131 C 0.41809 0.92788 0.5311 0.0
O132 O 0.41649 0.94834 0.53661 0.0
H133 H 0.49497 0.93772 0.55313 0.0
H134 H 0.48815 0.92667 0.48686 0.0
O135 O 0.46213 0.96602 0.54761 0.0
H136 H 0.4699 0.99013 0.45879 0.0
H137 H 0.52523 0.91571 0.49804 0.0
Cu138 Cu 0.50811 0.10153 0.79688 0.0
N139 N 0.53029 0.08636 0.80241 0.0
N140 N 0.55239 0.06164 0.80197 0.0
C141 C 0.53396 0.0666 0.7944 0.0
C142 C 0.56045 0.07904 0.81517 0.0
C143 C 0.54681 0.09416 0.81541 0.0
O144 O 0.50046 0.09784 0.76691 0.0
C145 C 0.51448 0.1487 0.79881 0.0
O146 O 0.50426 0.14724 0.78053 0.0
H147 H 0.52338 0.05621 0.78321 0.0
H148 H 0.54893 0.10996 0.82418 0.0
N149 N 0.4846 0.09083 0.81238 0.0
N150 N 0.45816 0.08939 0.83572 0.0
C151 C 0.47531 0.10174 0.82807 0.0
C152 C 0.47306 0.07089 0.80995 0.0
C153 C 0.45673 0.06993 0.82434 0.0
C154 C 0.51397 0.09728 0.75212 0.0
O155 O 0.53429 0.10071 0.75702 0.0
H156 H 0.48116 0.11838 0.83379 0.0
H157 H 0.4762 0.05807 0.79837 0.0
O158 O 0.51733 0.13149 0.8073 0.0
H159 H 0.57547 0.0811 0.82361 0.0
H160 H 0.44455 0.05609 0.82594 0.0
Cu161 Cu 0.31358 0.19309 0.05456 0.0
N162 N 0.3126 0.172 0.03165 0.0
N163 N 0.3226 0.1536 0.00252 0.0
C164 C 0.32824 0.16994 0.01765 0.0
C165 C 0.30256 0.14508 0.00702 0.0
C166 C 0.29633 0.15665 0.02487 0.0
O167 O 0.33913 0.21386 0.05215 0.0
C168 C 0.30139 0.16414 0.08678 0.0
O169 O 0.28794 0.1538 0.07236 0.0
H170 H 0.34348 0.18025 0.01846 0.0
H171 H 0.28087 0.15431 0.03209 0.0
N172 N 0.29009 0.20745 0.05349 0.0
N173 N 0.25929 0.21859 0.06204 0.0
C174 C 0.27279 0.20451 0.06574 0.0
C175 C 0.28746 0.22388 0.04155 0.0
C176 C 0.26846 0.23085 0.04684 0.0
C177 C 0.35714 0.20793 0.05472 0.0
O178 O 0.35799 0.18799 0.05978 0.0
H179 H 0.27052 0.19285 0.07772 0.0
H180 H 0.29879 0.23059 0.03014 0.0
O181 O 0.31404 0.18081 0.082 0.0
H182 H 0.29293 0.13187 0.99774 0.0
H183 H 0.26196 0.24398 0.04014 0.0
Cu184 Cu 0.83808 0.45384 0.14785 0.0
N185 N 0.82261 0.47699 0.14779 0.0
N186 N 0.81123 0.50511 0.13368 0.0
C187 C 0.82582 0.49149 0.13297 0.0
C188 C 0.79817 0.49884 0.14968 0.0
C189 C 0.80526 0.48141 0.1584 0.0
O190 O 0.83 0.43678 0.12113 0.0
C191 C 0.87303 0.48167 0.16516 0.0
O192 O 0.85805 0.49298 0.17143 0.0
H193 H 0.838 0.49112 0.12106 0.0
H194 H 0.7978 0.47209 0.17088 0.0
N195 N 0.83225 0.43542 0.16971 0.0
N196 N 0.8415 0.40761 0.18635 0.0
C197 C 0.83779 0.4154 0.16749 0.0
C198 C 0.83178 0.44049 0.1908 0.0
C199 C 0.83722 0.42324 0.20112 0.0
C200 C 0.81086 0.42725 0.1211 0.0
O201 O 0.79987 0.42896 0.13862 0.0
H202 H 0.84134 0.40796 0.15213 0.0
H203 H 0.83025 0.45647 0.19808 0.0
O204 O 0.86817 0.46477 0.15236 0.0
H205 H 0.78422 0.50592 0.15438 0.0
H206 H 0.84005 0.42334 0.21804 0.0
Cu207 Cu 0.01901 0.51375 0.38976 0.0
N208 N 0.02619 0.48691 0.39531 0.0
N209 N 0.03365 0.45314 0.38916 0.0
C210 C 0.03099 0.47175 0.38055 0.0
C211 C 0.03037 0.45677 0.4102 0.0
C212 C 0.02582 0.47771 0.41396 0.0
O213 O 0.0089 0.51099 0.36035 0.0
C214 C 0.04618 0.55375 0.38618 0.0
O215 O 0.0326 0.55693 0.3715 0.0
H216 H 0.03157 0.47401 0.36369 0.0
H217 H 0.02192 0.48546 0.42909 0.0
N218 N 0.99828 0.52048 0.40888 0.0
N219 N 0.9838 0.53404 0.43826 0.0
C220 C 0.00186 0.5328 0.42738 0.0
C221 C 0.97728 0.51357 0.40797 0.0
C222 C 0.96827 0.522 0.42605 0.0
C223 C 0.99581 0.52201 0.35273 0.0
O224 O 0.98864 0.53728 0.36495 0.0
H225 H 0.01746 0.5407 0.43267 0.0
H226 H 0.96917 0.50296 0.39518 0.0
O227 O 0.04362 0.53587 0.39499 0.0
H228 H 0.03094 0.44508 0.42196 0.0
H229 H 0.95165 0.51904 0.43008 0.0
Cu230 Cu 0.91274 0.69615 0.6571 0.0
N231 N 0.92705 0.67215 0.65423 0.0
N232 N 0.94129 0.64581 0.63603 0.0
C233 C 0.92816 0.66081 0.63539 0.0
C234 C 0.94897 0.64792 0.65618 0.0
C235 C 0.9401 0.66425 0.66744 0.0
O236 O 0.92571 0.7157 0.63671 0.0
C237 C 0.8737 0.66882 0.65816 0.0
O238 O 0.8847 0.65259 0.65593 0.0
H239 H 0.92017 0.66432 0.62118 0.0
H240 H 0.94352 0.67043 0.68378 0.0
N241 N 0.91428 0.71091 0.68398 0.0
N242 N 0.89752 0.73369 0.70458 0.0
C243 C 0.90728 0.73026 0.68591 0.0
C244 C 0.90963 0.70203 0.70253 0.0
C245 C 0.89942 0.71615 0.71535 0.0
C246 C 0.94433 0.72507 0.64184 0.0
O247 O 0.95208 0.72207 0.66053 0.0
H248 H 0.90596 0.73973 0.67238 0.0
H249 H 0.91018 0.68516 0.70508 0.0
O250 O 0.88235 0.68759 0.65345 0.0
H251 H 0.96041 0.63863 0.66223 0.0
H252 H 0.89112 0.71221 0.72986 0.0
Cu253 Cu 0.77601 0.65013 0.90362 0.0
N254 N 0.77064 0.67877 0.90668 0.0
N255 N 0.77025 0.71277 0.8978 0.0
C256 C 0.77174 0.69206 0.89077 0.0
C257 C 0.76789 0.71243 0.91908 0.0
C258 C 0.76829 0.69142 0.92453 0.0
O259 O 0.78882 0.64643 0.8759 0.0
C260 C 0.73673 0.62944 0.91894 0.0
O261 O 0.73855 0.64587 0.93351 0.0
H262 H 0.77414 0.68667 0.87437 0.0
H263 H 0.76783 0.68596 0.94044 0.0
N264 N 0.79381 0.6452 0.92566 0.0
N265 N 0.80417 0.63295 0.95581 0.0
C266 C 0.78816 0.63254 0.94171 0.0
C267 C 0.81413 0.65396 0.92965 0.0
C268 C 0.82061 0.64636 0.94822 0.0
C269 C 0.77658 0.64334 0.85961 0.0
O270 O 0.75598 0.64115 0.86242 0.0
H271 H 0.77262 0.62307 0.94295 0.0
H272 H 0.82344 0.66528 0.91989 0.0
O273 O 0.75055 0.62908 0.90446 0.0
H274 H 0.76691 0.72648 0.93003 0.0
H275 H 0.83607 0.65073 0.95575 0.0
H276 H 0.04995 0.13809 0.21626 0.0
H277 H 0.07608 0.11298 0.21548 0.0
H278 H 0.12493 0.16624 0.23571 0.0
H279 H 0.09898 0.19139 0.23629 0.0
H280 H 0.13864 0.14136 0.20387 0.0
H281 H 0.10282 0.12933 0.27023 0.0
H282 H 0.07189 0.12032 0.29311 0.0
H283 H 0.05699 0.05762 0.2588 0.0
H284 H 0.0877 0.06638 0.23552 0.0
H285 H 0.21832 0.09014 0.24756 0.0
H286 H 0.19051 0.11101 0.23866 0.0
H287 H 0.14953 0.05141 0.21843 0.0
H288 H 0.17738 0.03035 0.22785 0.0
H289 H 0.13001 0.07658 0.24599 0.0
H290 H 0.16844 0.08774 0.18184 0.0
H291 H 0.19957 0.09719 0.15935 0.0
H292 H 0.21022 0.16184 0.19013 0.0
H293 H 0.17942 0.15261 0.21315 0.0
C294 C 0.0662 0.1444 0.22075 0.0
C295 C 0.07237 0.16675 0.22636 0.0
C296 C 0.08115 0.13005 0.22023 0.0
C297 C 0.10248 0.13771 0.2256 0.0
C298 C 0.10861 0.15998 0.23133 0.0
C299 C 0.09375 0.17434 0.23167 0.0
C300 C 0.11849 0.12264 0.22535 0.0
C301 C 0.13685 0.12731 0.21323 0.0
C302 C 0.11586 0.10389 0.237 0.0
C303 C 0.0974 0.09861 0.25098 0.0
C304 C 0.09284 0.11369 0.26745 0.0
C305 C 0.07537 0.10862 0.28051 0.0
C306 C 0.06244 0.08844 0.27736 0.0
C307 C 0.06699 0.07326 0.26119 0.0
C308 C 0.08443 0.07826 0.24806 0.0
C309 C 0.20346 0.08149 0.24101 0.0
C310 C 0.19991 0.05862 0.23859 0.0
C311 C 0.18764 0.09345 0.23572 0.0
C312 C 0.16795 0.0828 0.22776 0.0
C313 C 0.16463 0.05996 0.2245 0.0
C314 C 0.18056 0.04796 0.22974 0.0
C315 C 0.15036 0.09552 0.22481 0.0
C316 C 0.1317 0.09046 0.23637 0.0
C317 C 0.1528 0.11398 0.21274 0.0
C318 C 0.1716 0.11948 0.19922 0.0
C319 C 0.17752 0.10391 0.18394 0.0
C320 C 0.1951 0.10923 0.17109 0.0
C321 C 0.20685 0.1301 0.1733 0.0
C322 C 0.20109 0.14569 0.18842 0.0
C323 C 0.18354 0.14043 0.20134 0.0
H324 H 0.22037 0.13417 0.16325 0.0
H325 H 0.04893 0.08453 0.2875 0.0
H326 H 0.41518 0.88457 0.51792 0.0
H327 H 0.38287 0.85802 0.51279 0.0
H328 H 0.3455 0.90673 0.53659 0.0
H329 H 0.37767 0.93327 0.54205 0.0
H330 H 0.33118 0.86552 0.55041 0.0
H331 H 0.35228 0.89819 0.48405 0.0
H332 H 0.38015 0.9073 0.45768 0.0
H333 H 0.38362 0.83935 0.44385 0.0
H334 H 0.35606 0.82987 0.47045 0.0
H335 H 0.22942 0.83563 0.50702 0.0
H336 H 0.26497 0.85336 0.51719 0.0
H337 H 0.29161 0.80163 0.48246 0.0
H338 H 0.25583 0.78399 0.47161 0.0
H339 H 0.31379 0.83942 0.47516 0.0
H340 H 0.29018 0.80559 0.53761 0.0
H341 H 0.26588 0.7951 0.56671 0.0
H342 H 0.26904 0.86227 0.58945 0.0
H343 H 0.29313 0.87321 0.5603 0.0
C344 C 0.40012 0.88956 0.52236 0.0
C345 C 0.39897 0.91112 0.53016 0.0
C346 C 0.38168 0.87436 0.5194 0.0
C347 C 0.36178 0.88051 0.52405 0.0
C348 C 0.3607 0.90167 0.53289 0.0
C349 C 0.37911 0.91685 0.53588 0.0
C350 C 0.34194 0.86564 0.51809 0.0
C351 C 0.32726 0.85988 0.53398 0.0
C352 C 0.33722 0.85775 0.4967 0.0
C353 C 0.35228 0.86334 0.47936 0.0
C354 C 0.35898 0.8852 0.47535 0.0
C355 C 0.3748 0.89044 0.46048 0.0
C356 C 0.38381 0.87392 0.44929 0.0
C357 C 0.37673 0.85212 0.45264 0.0
C358 C 0.36099 0.84681 0.46761 0.0
C359 C 0.24279 0.8279 0.5016 0.0
C360 C 0.23975 0.8083 0.4886 0.0
C361 C 0.26316 0.83804 0.50753 0.0
C362 C 0.281 0.82864 0.50095 0.0
C363 C 0.27808 0.80914 0.48783 0.0
C364 C 0.25763 0.79905 0.48169 0.0
C365 C 0.30261 0.83964 0.50748 0.0
C366 C 0.31767 0.84474 0.49166 0.0
C367 C 0.30779 0.84671 0.52901 0.0
C368 C 0.29336 0.84022 0.54666 0.0
C369 C 0.28558 0.81814 0.54872 0.0
C370 C 0.27186 0.81211 0.56525 0.0
C371 C 0.26589 0.82801 0.5799 0.0
C372 C 0.27367 0.84997 0.57808 0.0
C373 C 0.28739 0.85609 0.56158 0.0
H374 H 0.25526 0.82331 0.59268 0.0
H375 H 0.3962 0.87799 0.43792 0.0
H376 H 0.58222 0.04637 0.82492 0.0
H377 H 0.60167 0.01668 0.81414 0.0
H378 H 0.56425 0.00278 0.75644 0.0
H379 H 0.54504 0.03318 0.76669 0.0
H380 H 0.57321 0.9643 0.78055 0.0
H381 H 0.60721 0.02784 0.74833 0.0
H382 H 0.62248 0.0666 0.74809 0.0
H383 H 0.66853 0.05842 0.79539 0.0
H384 H 0.6533 0.01967 0.79616 0.0
H385 H 0.64841 0.90061 0.73137 0.0
H386 H 0.62143 0.92389 0.74021 0.0
H387 H 0.66275 0.95968 0.78921 0.0
H388 H 0.69 0.93707 0.77978 0.0
H389 H 0.64939 0.98669 0.7656 0.0
H390 H 0.61518 0.92392 0.79935 0.0
H391 H 0.59966 0.88539 0.80104 0.0
H392 H 0.55426 0.8917 0.75241 0.0
H393 H 0.56969 0.93023 0.75026 0.0
C394 C 0.57808 0.03717 0.80988 0.0
C395 C 0.56225 0.04255 0.79652 0.0
C396 C 0.58912 0.02003 0.80385 0.0
C397 C 0.58446 0.00769 0.78446 0.0
C398 C 0.56799 0.01214 0.77152 0.0
C399 C 0.55703 0.02953 0.77744 0.0
C400 C 0.59801 0.99128 0.77732 0.0
C401 C 0.5898 0.96908 0.77691 0.0
C402 C 0.61968 0.99765 0.77297 0.0
C403 C 0.62898 0.02091 0.77244 0.0
C404 C 0.62047 0.03436 0.75882 0.0
C405 C 0.62914 0.05631 0.75856 0.0
C406 C 0.64643 0.06498 0.77175 0.0
C407 C 0.65512 0.05169 0.7852 0.0
C408 C 0.64649 0.02972 0.78554 0.0
C409 C 0.6515 0.91313 0.74435 0.0
C410 C 0.67129 0.91708 0.7549 0.0
C411 C 0.63606 0.92644 0.74941 0.0
C412 C 0.64 0.94357 0.76542 0.0
C413 C 0.65937 0.94669 0.77669 0.0
C414 C 0.67491 0.9337 0.77138 0.0
C415 C 0.62488 0.95943 0.76941 0.0
C416 C 0.6328 0.98169 0.7691 0.0
C417 C 0.60301 0.95302 0.7732 0.0
C418 C 0.59373 0.92989 0.77449 0.0
C419 C 0.60199 0.91705 0.7889 0.0
C420 C 0.59319 0.89522 0.78996 0.0
C421 C 0.57602 0.88609 0.77679 0.0
C422 C 0.56758 0.89879 0.76258 0.0
C423 C 0.57633 0.92062 0.76145 0.0
H424 H 0.56923 0.86918 0.77764 0.0
H425 H 0.65313 0.08198 0.77153 0.0
H426 H 0.54057 0.3023 0.99925 0.0
H427 H 0.50755 0.27892 0.00706 0.0
H428 H 0.47962 0.33576 0.02817 0.0
H429 H 0.51287 0.35899 0.02109 0.0
H430 H 0.46961 0.30729 0.0545 0.0
H431 H 0.46621 0.30491 0.97884 0.0
H432 H 0.47823 0.29986 0.94192 0.0
H433 H 0.48309 0.23301 0.95046 0.0
H434 H 0.47121 0.23773 0.98756 0.0
H435 H 0.36233 0.25196 0.0514 0.0
H436 H 0.39491 0.27574 0.04277 0.0
H437 H 0.42876 0.22062 0.03848 0.0
H438 H 0.39642 0.1968 0.04739 0.0
H439 H 0.43484 0.24824 0.00331 0.0
H440 H 0.43699 0.25287 0.08039 0.0
H441 H 0.42229 0.25966 0.11604 0.0
H442 H 0.41693 0.32518 0.10253 0.0
H443 H 0.43133 0.31867 0.06667 0.0
C444 C 0.5273 0.30973 0.00542 0.0
C445 C 0.52926 0.33242 0.00962 0.0
C446 C 0.5084 0.2964 0.00981 0.0
C447 C 0.4909 0.30555 0.01796 0.0
C448 C 0.49285 0.32826 0.02197 0.0
C449 C 0.51186 0.34154 0.01795 0.0
C450 C 0.47082 0.29147 0.02295 0.0
C451 C 0.4619 0.29462 0.04313 0.0
C452 C 0.46077 0.27467 0.0083 0.0
C453 C 0.46805 0.27175 0.98605 0.0
C454 C 0.47002 0.28918 0.9729 0.0
C455 C 0.47678 0.28636 0.95192 0.0
C456 C 0.48155 0.26615 0.94386 0.0
C457 C 0.47946 0.24868 0.95675 0.0
C458 C 0.47267 0.25141 0.97774 0.0
C459 C 0.37674 0.24493 0.04871 0.0
C460 C 0.37684 0.22253 0.05017 0.0
C461 C 0.3953 0.25852 0.0438 0.0
C462 C 0.41419 0.24989 0.04003 0.0
C463 C 0.41431 0.22754 0.04133 0.0
C464 C 0.39585 0.21401 0.04654 0.0
C465 C 0.43387 0.26418 0.03473 0.0
C466 C 0.44265 0.26101 0.01454 0.0
C467 C 0.44354 0.28125 0.04917 0.0
C468 C 0.43503 0.28521 0.07078 0.0
C469 C 0.43251 0.26867 0.08496 0.0
C470 C 0.42427 0.27248 0.10522 0.0
C471 C 0.41863 0.29282 0.11153 0.0
C472 C 0.42128 0.30942 0.09761 0.0
C473 C 0.4295 0.30569 0.07733 0.0
H474 H 0.41224 0.29574 0.12721 0.0
H475 H 0.48679 0.264 0.9276 0.0
H476 H 0.1902 0.98708 0.31846 0.0
H477 H 0.18006 0.9634 0.34686 0.0
H478 H 0.23291 0.99646 0.38525 0.0
H479 H 0.24341 0.02018 0.35654 0.0
H480 H 0.23248 0.95344 0.38264 0.0
H481 H 0.18202 1.00007 0.40076 0.0
H482 H 0.15395 0.02233 0.39495 0.0
H483 H 0.11218 0.96521 0.37069 0.0
H484 H 0.14009 0.94263 0.37605 0.0
H485 H 0.19536 0.87644 0.45923 0.0
H486 H 0.20645 0.91083 0.44322 0.0
H487 H 0.16037 0.8912 0.3927 0.0
H488 H 0.14942 0.85678 0.40833 0.0
H489 H 0.15946 0.93288 0.40882 0.0
H490 H 0.21251 0.88796 0.38566 0.0
H491 H 0.2411 0.86612 0.39074 0.0
H492 H 0.27842 0.92108 0.42479 0.0
H493 H 0.24987 0.94315 0.42022 0.0
C494 C 0.19944 0.98966 0.3331 0.0
C495 C 0.21765 0.00545 0.33522 0.0
C496 C 0.19355 0.97616 0.34941 0.0
C497 C 0.20564 0.97823 0.36827 0.0
C498 C 0.22332 0.99464 0.37085 0.0
C499 C 0.22922 0.00826 0.3545 0.0
C500 C 0.20086 0.96175 0.38408 0.0
C501 C 0.21664 0.94931 0.38886 0.0
C502 C 0.18014 0.95617 0.39195 0.0
C503 C 0.16322 0.96966 0.38873 0.0
C504 C 0.1669 0.99226 0.39405 0.0
C505 C 0.151 0.00494 0.39086 0.0
C506 C 0.1313 0.99519 0.38244 0.0
C507 C 0.12744 0.97274 0.37722 0.0
C508 C 0.14329 0.95999 0.38038 0.0
C509 C 0.18771 0.87932 0.44461 0.0
C510 C 0.17145 0.86377 0.43509 0.0
C511 C 0.19403 0.89905 0.43553 0.0
C512 C 0.18425 0.90354 0.41676 0.0
C513 C 0.16801 0.88812 0.40729 0.0
C514 C 0.16173 0.86844 0.4163 0.0
C515 C 0.19086 0.92418 0.40667 0.0
C516 C 0.1754 0.93738 0.40303 0.0
C517 C 0.21189 0.93049 0.39992 0.0
C518 C 0.22892 0.91711 0.40288 0.0
C519 C 0.2267 0.89531 0.39445 0.0
C520 C 0.24292 0.8829 0.3972 0.0
C521 C 0.26153 0.89218 0.40816 0.0
C522 C 0.26397 0.91389 0.41637 0.0
C523 C 0.24777 0.92635 0.41372 0.0
H524 H 0.27409 0.88256 0.41023 0.0
H525 H 0.11901 0.00504 0.37997 0.0
H526 H 0.55711 0.9302 0.51849 0.0
H527 H 0.58773 0.92684 0.5407 0.0
H528 H 0.54608 0.91066 0.59294 0.0
H529 H 0.51549 0.91444 0.57086 0.0
H530 H 0.57879 0.93836 0.60698 0.0
H531 H 0.56962 0.87161 0.56215 0.0
H532 H 0.56597 0.84893 0.52815 0.0
H533 H 0.62749 0.87892 0.50939 0.0
H534 H 0.6314 0.90199 0.54318 0.0
H535 H 0.64762 0.89353 0.67259 0.0
H536 H 0.61921 0.89856 0.64853 0.0
H537 H 0.66517 0.91907 0.6012 0.0
H538 H 0.69387 0.91332 0.62505 0.0
H539 H 0.63175 0.89083 0.5839 0.0
H540 H 0.64113 0.9563 0.63051 0.0
H541 H 0.64442 0.97752 0.66533 0.0
H542 H 0.58173 0.94842 0.68153 0.0
H543 H 0.57817 0.9268 0.64691 0.0
C544 C 0.55448 0.92572 0.53463 0.0
C545 C 0.53388 0.9225 0.54291 0.0
C546 C 0.57199 0.92381 0.54734 0.0
C547 C 0.56923 0.91823 0.56845 0.0
C548 C 0.54865 0.91503 0.57673 0.0
C549 C 0.53117 0.91719 0.56411 0.0
C550 C 0.58773 0.91597 0.58204 0.0
C551 C 0.59022 0.92777 0.602 0.0
C552 C 0.60299 0.90257 0.57539 0.0
C553 C 0.6007 0.88868 0.5551 0.0
C554 C 0.5823 0.87348 0.55071 0.0
C555 C 0.5802 0.86054 0.53149 0.0
C556 C 0.59646 0.86253 0.5166 0.0
C557 C 0.61489 0.87742 0.52092 0.0
C558 C 0.61707 0.89042 0.54011 0.0
C559 C 0.65178 0.89884 0.65699 0.0
C560 C 0.6731 0.90294 0.65075 0.0
C561 C 0.63547 0.90197 0.64333 0.0
C562 C 0.64007 0.90948 0.62318 0.0
C563 C 0.66128 0.91337 0.61673 0.0
C564 C 0.67766 0.91022 0.63043 0.0
C565 C 0.62263 0.91304 0.60885 0.0
C566 C 0.62036 0.90151 0.58877 0.0
C567 C 0.60748 0.92655 0.61546 0.0
C568 C 0.60945 0.9398 0.63617 0.0
C569 C 0.62809 0.95433 0.64155 0.0
C570 C 0.63 0.96644 0.66124 0.0
C571 C 0.61331 0.96428 0.67565 0.0
C572 C 0.59465 0.95006 0.67036 0.0
C573 C 0.59267 0.9379 0.65069 0.0
H574 H 0.61483 0.97365 0.69091 0.0
H575 H 0.5948 0.85249 0.50172 0.0
H576 H 0.57143 0.34476 0.88801 0.0
H577 H 0.5607 0.31304 0.86298 0.0
H578 H 0.57899 0.27102 0.9088 0.0
H579 H 0.59013 0.30263 0.93375 0.0
H580 H 0.5913 0.25878 0.86981 0.0
H581 H 0.52721 0.27824 0.90145 0.0
H582 H 0.50152 0.30316 0.91096 0.0
H583 H 0.49053 0.31019 0.84481 0.0
H584 H 0.51665 0.28578 0.83489 0.0
H585 H 0.53436 0.15648 0.8375 0.0
H586 H 0.54787 0.19142 0.85617 0.0
H587 H 0.52705 0.22472 0.80429 0.0
H588 H 0.51305 0.18954 0.78546 0.0
H589 H 0.51715 0.24337 0.84253 0.0
H590 H 0.57946 0.2216 0.81089 0.0
H591 H 0.60525 0.19668 0.80161 0.0
H592 H 0.61917 0.19352 0.86786 0.0
H593 H 0.59324 0.21819 0.87757 0.0
C594 C 0.5733 0.32878 0.89272 0.0
C595 C 0.58155 0.32623 0.91294 0.0
C596 C 0.56708 0.31065 0.87841 0.0
C597 C 0.56876 0.28961 0.88411 0.0
C598 C 0.57752 0.28709 0.90406 0.0
C599 C 0.58384 0.30519 0.91833 0.0
C600 C 0.56102 0.27011 0.86959 0.0
C601 C 0.57504 0.25533 0.86398 0.0
C602 C 0.53996 0.2659 0.86147 0.0
C603 C 0.52408 0.28038 0.86743 0.0
C604 C 0.51946 0.28524 0.88893 0.0
C605 C 0.50479 0.29925 0.8944 0.0
C606 C 0.49438 0.30824 0.87851 0.0
C607 C 0.49862 0.30323 0.85711 0.0
C608 C 0.51338 0.28934 0.85155 0.0
C609 C 0.53266 0.17118 0.82995 0.0
C610 C 0.52269 0.17017 0.80989 0.0
C611 C 0.54051 0.19119 0.84064 0.0
C612 C 0.5388 0.2107 0.83149 0.0
C613 C 0.52863 0.20984 0.81159 0.0
C614 C 0.52069 0.18974 0.80084 0.0
C615 C 0.54734 0.23187 0.84307 0.0
C616 C 0.53348 0.24695 0.84814 0.0
C617 C 0.56855 0.23635 0.85073 0.0
C618 C 0.58429 0.22164 0.84495 0.0
C619 C 0.58792 0.21548 0.82349 0.0
C620 C 0.60258 0.20142 0.81815 0.0
C621 C 0.61381 0.19349 0.83414 0.0
C622 C 0.61045 0.19966 0.8555 0.0
C623 C 0.5958 0.21371 0.86092 0.0
H624 H 0.62515 0.1826 0.82997 0.0
H625 H 0.48301 0.31906 0.88279 0.0
H626 H 0.23189 0.18656 0.07796 0.0
H627 H 0.19963 0.19056 0.09791 0.0
H628 H 0.21107 0.2599 0.09188 0.0
H629 H 0.24299 0.25581 0.07149 0.0
H630 H 0.19352 0.20978 0.134 0.0
H631 H 0.16589 0.28119 0.092 0.0
H632 H 0.16601 0.29443 0.05608 0.0
H633 H 0.16961 0.22999 0.02828 0.0
H634 H 0.16923 0.21631 0.06399 0.0
H635 H 0.12563 0.26134 0.20119 0.0
H636 H 0.15376 0.25475 0.17638 0.0
H637 H 0.10691 0.22828 0.12824 0.0
H638 H 0.0786 0.23509 0.15291 0.0
H639 H 0.13918 0.25278 0.11104 0.0
H640 H 0.1305 0.19518 0.15641 0.0
H641 H 0.12733 0.17769 0.19026 0.0
H642 H 0.1913 0.20582 0.20721 0.0
H643 H 0.1947 0.22398 0.17368 0.0
C644 C 0.22744 0.20262 0.08084 0.0
C645 C 0.2399 0.22086 0.0731 0.0
C646 C 0.209 0.20491 0.09223 0.0
C647 C 0.20273 0.2255 0.09623 0.0
C648 C 0.21524 0.24375 0.08858 0.0
C649 C 0.23351 0.24142 0.07694 0.0
C650 C 0.18358 0.22803 0.10908 0.0
C651 C 0.18163 0.21915 0.12894 0.0
C652 C 0.1677 0.23973 0.10227 0.0
C653 C 0.16773 0.24778 0.0807 0.0
C654 C 0.16662 0.26983 0.07822 0.0
C655 C 0.16675 0.27742 0.05789 0.0
C656 C 0.16788 0.26307 0.03991 0.0
C657 C 0.16882 0.2411 0.04222 0.0
C658 C 0.16868 0.23343 0.0625 0.0
C659 C 0.12127 0.25433 0.18526 0.0
C660 C 0.09985 0.24862 0.17908 0.0
C661 C 0.13738 0.25046 0.17113 0.0
C662 C 0.13243 0.24066 0.15059 0.0
C663 C 0.11109 0.23577 0.14405 0.0
C664 C 0.09493 0.23967 0.15818 0.0
C665 C 0.14954 0.23511 0.13616 0.0
C666 C 0.15107 0.24338 0.11604 0.0
C667 C 0.16464 0.2222 0.14242 0.0
C668 C 0.16274 0.21123 0.16262 0.0
C669 C 0.14382 0.19786 0.16745 0.0
C670 C 0.14198 0.18781 0.18659 0.0
C671 C 0.15905 0.19078 0.20094 0.0
C672 C 0.17805 0.20366 0.19612 0.0
C673 C 0.17993 0.21385 0.17705 0.0
H674 H 0.15757 0.18305 0.21578 0.0
H675 H 0.16799 0.26898 0.0242 0.0
H676 H 0.25698 0.10057 0.27291 0.0
H677 H 0.26037 0.12027 0.24084 0.0
H678 H 0.32735 0.11655 0.23943 0.0
H679 H 0.32403 0.09627 0.27124 0.0
H680 H 0.28165 0.15531 0.2235 0.0
H681 H 0.33914 0.0974 0.19007 0.0
H682 H 0.3482 0.06124 0.19647 0.0
H683 H 0.28585 0.04224 0.22082 0.0
H684 H 0.27633 0.0781 0.21422 0.0
H685 H 0.32043 0.18658 0.12247 0.0
H686 H 0.31778 0.17597 0.1591 0.0
H687 H 0.27796 0.11608 0.13763 0.0
H688 H 0.28043 0.12658 0.10101 0.0
H689 H 0.30832 0.10902 0.16499 0.0
H690 H 0.25601 0.15465 0.1616 0.0
H691 H 0.23964 0.18703 0.15523 0.0
H692 H 0.28094 0.22516 0.20232 0.0
H693 H 0.29765 0.19297 0.20889 0.0
C694 C 0.27259 0.10449 0.26622 0.0
C695 C 0.29016 0.09631 0.27434 0.0
C696 C 0.27449 0.11584 0.24785 0.0
C697 C 0.29399 0.11935 0.23744 0.0
C698 C 0.31205 0.11359 0.247 0.0
C699 C 0.31014 0.10206 0.26525 0.0
C700 C 0.29481 0.12594 0.21529 0.0
C701 C 0.28773 0.14538 0.21073 0.0
C702 C 0.30173 0.11239 0.19846 0.0
C703 C 0.30714 0.09053 0.20187 0.0
C704 C 0.32735 0.08545 0.19668 0.0
C705 C 0.33256 0.06501 0.20035 0.0
C706 C 0.31764 0.04948 0.20912 0.0
C707 C 0.29743 0.0543 0.2141 0.0
C708 C 0.29212 0.07468 0.21039 0.0
C709 C 0.31119 0.17111 0.12552 0.0
C710 C 0.30065 0.1574 0.10882 0.0
C711 C 0.30959 0.16514 0.14648 0.0
C712 C 0.29756 0.14531 0.15108 0.0
C713 C 0.28732 0.13145 0.13441 0.0
C714 C 0.28873 0.1375 0.1135 0.0
C715 C 0.29589 0.13884 0.17325 0.0
C716 C 0.30263 0.11924 0.17778 0.0
C717 C 0.28782 0.15183 0.18982 0.0
C718 C 0.27824 0.17142 0.18558 0.0
C719 C 0.26174 0.16997 0.17046 0.0
C720 C 0.25236 0.18829 0.16685 0.0
C721 C 0.25929 0.20817 0.17832 0.0
C722 C 0.27561 0.20975 0.19343 0.0
C723 C 0.28502 0.19146 0.19712 0.0
H724 H 0.25199 0.22233 0.17552 0.0
H725 H 0.32173 0.0337 0.21202 0.0
H726 H 0.3997 0.95836 0.46609 0.0
H727 H 0.37596 0.96029 0.43603 0.0
H728 H 0.43009 0.97617 0.39602 0.0
H729 H 0.4538 0.97455 0.42606 0.0
H730 H 0.40426 0.00345 0.39153 0.0
H731 H 0.39505 0.9251 0.38923 0.0
H732 H 0.38619 0.88803 0.40108 0.0
H733 H 0.32412 0.9011 0.41905 0.0
H734 H 0.33256 0.93821 0.40716 0.0
H735 H 0.34488 0.00182 0.29625 0.0
H736 H 0.36892 0.99112 0.3225 0.0
H737 H 0.31712 0.98006 0.36624 0.0
H738 H 0.29297 0.99008 0.3399 0.0
H739 H 0.3422 0.94924 0.36756 0.0
H740 H 0.35151 0.02749 0.37028 0.0
H741 H 0.35897 0.0633 0.35541 0.0
H742 H 0.42074 0.0501 0.33647 0.0
H743 H 0.41352 0.01406 0.35096 0.0
C744 C 0.40653 0.96194 0.45081 0.0
C745 C 0.42866 0.96654 0.44855 0.0
C746 C 0.39293 0.96295 0.43357 0.0
C747 C 0.40119 0.96826 0.41363 0.0
C748 C 0.42329 0.97216 0.41123 0.0
C749 C 0.43686 0.97134 0.42846 0.0
C750 C 0.38697 0.9716 0.3958 0.0
C751 C 0.39094 0.99136 0.38607 0.0
C752 C 0.36912 0.95622 0.38901 0.0
C753 C 0.36452 0.93448 0.39748 0.0
C754 C 0.37961 0.92015 0.39595 0.0
C755 C 0.37461 0.89909 0.40255 0.0
C756 C 0.3546 0.89221 0.4108 0.0
C757 C 0.33959 0.90644 0.41262 0.0
C758 C 0.34446 0.92746 0.40589 0.0
C759 C 0.33855 0.99672 0.31129 0.0
C760 C 0.31707 0.99706 0.31609 0.0
C761 C 0.35233 0.9908 0.32636 0.0
C762 C 0.34488 0.98517 0.34649 0.0
C763 C 0.32325 0.98449 0.35089 0.0
C764 C 0.3095 0.9904 0.33587 0.0
C765 C 0.35967 0.9809 0.36334 0.0
C766 C 0.35569 0.96114 0.37297 0.0
C767 C 0.37747 0.99628 0.3701 0.0
C768 C 0.38189 0.01799 0.3615 0.0
C769 C 0.36662 0.03216 0.3628 0.0
C770 C 0.37082 0.05251 0.35446 0.0
C771 C 0.39029 0.05895 0.34495 0.0
C772 C 0.40564 0.04507 0.34381 0.0
C773 C 0.40152 0.02469 0.35209 0.0
H774 H 0.39351 0.07471 0.3385 0.0
H775 H 0.35071 0.87586 0.4158 0.0
H776 H 0.53831 0.08958 0.71737 0.0
H777 H 0.5261 0.07461 0.68179 0.0
H778 H 0.46116 0.07456 0.70096 0.0
H779 H 0.47322 0.08918 0.73668 0.0
H780 H 0.46542 0.03672 0.68199 0.0
H781 H 0.48456 0.11026 0.66576 0.0
H782 H 0.50726 0.14584 0.66472 0.0
H783 H 0.55301 0.1158 0.62767 0.0
H784 H 0.53071 0.07996 0.62873 0.0
H785 H 0.45014 0.02731 0.55796 0.0
H786 H 0.45687 0.0497 0.59165 0.0
H787 H 0.48136 0.99702 0.61917 0.0
H788 H 0.47445 0.97452 0.58585 0.0
H789 H 0.49264 0.06455 0.61401 0.0
H790 H 0.46849 0.99588 0.67068 0.0
H791 H 0.44311 0.96193 0.67135 0.0
H792 H 0.40228 0.98564 0.62728 0.0
H793 H 0.42725 0.01985 0.62658 0.0
C794 C 0.52143 0.08667 0.71396 0.0
C795 C 0.50675 0.0905 0.72993 0.0
C796 C 0.51447 0.07818 0.69355 0.0
C797 C 0.4927 0.07354 0.68863 0.0
C798 C 0.47803 0.07796 0.70437 0.0
C799 C 0.48497 0.08638 0.72479 0.0
C800 C 0.48522 0.06265 0.66759 0.0
C801 C 0.47131 0.04289 0.66715 0.0
C802 C 0.49253 0.07087 0.64815 0.0
C803 C 0.50603 0.09238 0.64747 0.0
C804 C 0.49954 0.1112 0.65753 0.0
C805 C 0.51232 0.13143 0.65691 0.0
C806 C 0.53158 0.13307 0.64618 0.0
C807 C 0.53809 0.1145 0.636 0.0
C808 C 0.52537 0.09423 0.63658 0.0
C809 C 0.45688 0.02047 0.57122 0.0
C810 C 0.46163 0.99906 0.56923 0.0
C811 C 0.46079 0.03332 0.59043 0.0
C812 C 0.46939 0.02497 0.60801 0.0
C813 C 0.47436 0.0037 0.60596 0.0
C814 C 0.47045 0.99086 0.58683 0.0
C815 C 0.47337 0.03837 0.62854 0.0
C816 C 0.48664 0.05853 0.62888 0.0
C817 C 0.46512 0.03077 0.6479 0.0
C818 C 0.44984 0.01036 0.64846 0.0
C819 C 0.45405 0.9939 0.66122 0.0
C820 C 0.43974 0.9746 0.66159 0.0
C821 C 0.42113 0.97161 0.64933 0.0
C822 C 0.41674 0.98795 0.63672 0.0
C823 C 0.43098 0.00728 0.63631 0.0
H824 H 0.41008 0.95665 0.64962 0.0
H825 H 0.54146 0.14875 0.64571 0.0
H826 H 0.45172 0.13047 0.8489 0.0
H827 H 0.4284 0.14111 0.8772 0.0
H828 H 0.40907 0.07363 0.88839 0.0
H829 H 0.43262 0.06279 0.86032 0.0
H830 H 0.37527 0.09637 0.88691 0.0
H831 H 0.44387 0.10541 0.92157 0.0
H832 H 0.48195 0.11966 0.92597 0.0
H833 H 0.46789 0.18516 0.93021 0.0
H834 H 0.42974 0.17129 0.9255 0.0
H835 H 0.3233 0.11266 0.9852 0.0
H836 H 0.346 0.10141 0.95639 0.0
H837 H 0.37295 0.16861 0.95119 0.0
H838 H 0.35081 0.1797 0.98045 0.0
H839 H 0.40304 0.14574 0.94934 0.0
H840 H 0.33558 0.13854 0.9141 0.0
H841 H 0.29733 0.12591 0.90837 0.0
H842 H 0.30865 0.05946 0.90351 0.0
H843 H 0.34694 0.07169 0.90949 0.0
C844 C 0.44274 0.11785 0.85749 0.0
C845 C 0.44421 0.09573 0.85233 0.0
C846 C 0.42933 0.12399 0.87364 0.0
C847 C 0.41715 0.10817 0.88502 0.0
C848 C 0.41833 0.08609 0.87977 0.0
C849 C 0.43177 0.07993 0.86365 0.0
C850 C 0.40314 0.11465 0.90238 0.0
C851 C 0.38134 0.10694 0.90072 0.0
C852 C 0.41102 0.12897 0.92004 0.0
C853 C 0.43396 0.1373 0.92297 0.0
C854 C 0.44891 0.12285 0.92326 0.0
C855 C 0.47051 0.13086 0.92584 0.0
C856 C 0.47734 0.1533 0.92831 0.0
C857 C 0.46258 0.16778 0.92826 0.0
C858 C 0.44097 0.15985 0.92565 0.0
C859 C 0.33397 0.12498 0.97775 0.0
C860 C 0.33532 0.14703 0.98504 0.0
C861 C 0.3469 0.11858 0.96125 0.0
C862 C 0.36104 0.13418 0.95136 0.0
C863 C 0.36225 0.15624 0.95856 0.0
C864 C 0.3496 0.16258 0.97529 0.0
C865 C 0.37502 0.12755 0.93392 0.0
C866 C 0.39687 0.1352 0.93555 0.0
C867 C 0.36712 0.11344 0.91606 0.0
C868 C 0.3441 0.10603 0.91246 0.0
C869 C 0.32989 0.12123 0.91197 0.0
C870 C 0.30821 0.11414 0.90865 0.0
C871 C 0.30056 0.09189 0.90564 0.0
C872 C 0.31459 0.07669 0.90588 0.0
C873 C 0.33629 0.08369 0.90922 0.0
H874 H 0.28377 0.08644 0.90306 0.0
H875 H 0.49406 0.15947 0.9303 0.0
H876 H 0.77493 0.39809 0.11935 0.0
H877 H 0.75284 0.38454 0.08846 0.0
H878 H 0.79902 0.41802 0.04768 0.0
H879 H 0.8213 0.43219 0.07906 0.0
H880 H 0.76022 0.42663 0.03929 0.0
H881 H 0.78927 0.36171 0.04473 0.0
H882 H 0.8014 0.33159 0.06221 0.0
H883 H 0.73788 0.31032 0.08229 0.0
H884 H 0.72539 0.34048 0.06521 0.0
H885 H 0.68379 0.38175 0.95735 0.0
H886 H 0.71753 0.38849 0.97715 0.0
H887 H 0.68511 0.3676 0.03372 0.0
H888 H 0.65139 0.36096 0.01416 0.0
H889 H 0.72319 0.35077 0.02698 0.0
H890 H 0.69663 0.42009 0.02717 0.0
H891 H 0.68461 0.45047 0.00998 0.0
H892 H 0.74453 0.46311 0.97878 0.0
H893 H 0.75678 0.43255 0.99554 0.0
C894 C 0.78065 0.40231 0.1038 0.0
C895 C 0.79985 0.41628 0.10166 0.0
C896 C 0.76802 0.39438 0.08606 0.0
C897 C 0.77431 0.40002 0.06565 0.0
C898 C 0.79389 0.41335 0.06328 0.0
C899 C 0.80667 0.42131 0.08116 0.0
C900 C 0.75926 0.3935 0.04743 0.0
C901 C 0.75257 0.40992 0.03616 0.0
C902 C 0.74902 0.37175 0.04349 0.0
C903 C 0.7564 0.35344 0.05372 0.0
C904 C 0.7779 0.35069 0.05297 0.0
C905 C 0.78484 0.33359 0.06281 0.0
C906 C 0.77042 0.31906 0.07337 0.0
C907 C 0.74902 0.32157 0.07409 0.0
C908 C 0.74199 0.33865 0.06429 0.0
C909 C 0.68388 0.37841 0.97396 0.0
C910 C 0.66489 0.37089 0.98421 0.0
C911 C 0.70316 0.38233 0.98524 0.0
C912 C 0.7038 0.37863 0.00692 0.0
C913 C 0.68497 0.37051 0.01699 0.0
C914 C 0.66569 0.36681 0.00581 0.0
C915 C 0.72381 0.38398 0.01952 0.0
C916 C 0.73133 0.36733 0.02971 0.0
C917 C 0.73487 0.40547 0.02238 0.0
C918 C 0.72751 0.42385 0.01236 0.0
C919 C 0.70717 0.42921 0.01648 0.0
C920 C 0.70033 0.44648 0.00685 0.0
C921 C 0.71377 0.45866 0.99323 0.0
C922 C 0.73411 0.45362 0.98928 0.0
C923 C 0.74101 0.43633 0.99883 0.0
H924 H 0.70845 0.47203 0.9858 0.0
H925 H 0.77583 0.30584 0.08098 0.0
H926 H 0.05551 0.44898 0.35278 0.0
H927 H 0.05873 0.41526 0.33142 0.0
H928 H 0.02303 0.37819 0.37803 0.0
H929 H 0.0199 0.41197 0.39956 0.0
H930 H 0.05534 0.35806 0.36292 0.0
H931 H 0.99892 0.38956 0.33345 0.0
H932 H 0.98214 0.41871 0.31914 0.0
H933 H 0.02641 0.42246 0.26778 0.0
H934 H 0.04369 0.39355 0.28198 0.0
H935 H 0.02316 0.26246 0.29282 0.0
H936 H 0.02467 0.29464 0.3179 0.0
H937 H 0.06281 0.33305 0.27393 0.0
H938 H 0.06137 0.30104 0.24876 0.0
H939 H 0.02889 0.35198 0.28831 0.0
H940 H 0.08496 0.31961 0.31827 0.0
H941 H 0.10097 0.29019 0.33302 0.0
H942 H 0.05583 0.28727 0.38362 0.0
H943 H 0.03935 0.31649 0.36901 0.0
C944 C 0.0484 0.43365 0.35849 0.0
C945 C 0.03723 0.43314 0.37771 0.0
C946 C 0.05027 0.41439 0.3463 0.0
C947 C 0.04077 0.39425 0.35294 0.0
C948 C 0.03043 0.39358 0.37259 0.0
C949 C 0.02868 0.41288 0.38489 0.0
C950 C 0.04087 0.37406 0.33889 0.0
C951 C 0.04933 0.3566 0.34668 0.0
C952 C 0.03324 0.3723 0.31762 0.0
C953 C 0.02274 0.38953 0.3089 0.0
C954 C 0.00518 0.39671 0.31919 0.0
C955 C 0.99557 0.41318 0.31109 0.0
C956 C 0.00324 0.42247 0.2926 0.0
C957 C 0.02051 0.41526 0.28213 0.0
C958 C 0.03021 0.39883 0.29018 0.0
C959 C 0.03207 0.27769 0.28858 0.0
C960 C 0.04209 0.27919 0.26876 0.0
C961 C 0.03296 0.29605 0.30296 0.0
C962 C 0.0439 0.31621 0.29778 0.0
C963 C 0.05427 0.31764 0.27821 0.0
C964 C 0.05348 0.2993 0.26388 0.0
C965 C 0.0436 0.33607 0.31223 0.0
C966 C 0.03497 0.35344 0.30452 0.0
C967 C 0.05089 0.33764 0.33359 0.0
C968 C 0.06078 0.32009 0.34242 0.0
C969 C 0.07833 0.31257 0.33244 0.0
C970 C 0.08751 0.29595 0.34079 0.0
C971 C 0.07938 0.28683 0.35921 0.0
C972 C 0.06209 0.29434 0.36934 0.0
C973 C 0.05283 0.31094 0.36104 0.0
H974 H 0.08652 0.27397 0.36566 0.0
H975 H 0.99578 0.43523 0.28636 0.0
H976 H 0.98099 0.75233 0.6507 0.0
H977 H 0.00729 0.76711 0.62573 0.0
H978 H 0.96642 0.73889 0.57311 0.0
H979 H 0.93986 0.72363 0.5983 0.0
H980 H 0.00585 0.72897 0.56818 0.0
H981 H 0.97702 0.79412 0.58242 0.0
H982 H 0.96298 0.82343 0.60389 0.0
H983 H 0.02326 0.84171 0.63571 0.0
H984 H 0.03759 0.81231 0.61467 0.0
H985 H 0.0922 0.77936 0.50548 0.0
H986 H 0.05663 0.76958 0.51956 0.0
H987 H 0.08102 0.78669 0.58338 0.0
H988 H 0.11658 0.79594 0.56964 0.0
H989 H 0.04465 0.8044 0.57519 0.0
H990 H 0.07053 0.73472 0.56475 0.0
H991 H 0.08412 0.70503 0.54339 0.0
H992 H 0.0283 0.69561 0.50363 0.0
H993 H 0.01453 0.7255 0.52458 0.0
C994 C 0.97737 0.74955 0.63383 0.0
C995 C 0.95837 0.73677 0.62647 0.0
C996 C 0.99241 0.75814 0.61954 0.0
C997 C 0.98878 0.75429 0.59752 0.0
C998 C 0.96949 0.74214 0.59005 0.0
C999 C 0.9543 0.73355 0.60443 0.0
C1000 C 0.00609 0.76147 0.58274 0.0
C1001 C 0.014 0.74561 0.56926 0.0
C1002 C 0.01686 0.78312 0.58429 0.0
C1003 C 0.00836 0.80092 0.59699 0.0
C1004 C 0.98725 0.80429 0.59409 0.0
C1005 C 0.97925 0.82094 0.60617 0.0
C1006 C 0.99221 0.83441 0.62116 0.0
C1007 C 0.01323 0.83127 0.62408 0.0
C1008 C 0.02132 0.81464 0.61205 0.0
C1009 C 0.09011 0.78083 0.52252 0.0
C1010 C 0.10741 0.78855 0.53638 0.0
C1011 C 0.0697 0.77532 0.53052 0.0
C1012 C 0.06621 0.77746 0.5525 0.0
C1013 C 0.08336 0.78511 0.56634 0.0
C1014 C 0.10373 0.79048 0.55841 0.0
C1015 C 0.04477 0.77174 0.56139 0.0
C1016 C 0.03614 0.78791 0.57371 0.0
C1017 C 0.0333 0.75043 0.55866 0.0
C1018 C 0.04165 0.73255 0.54603 0.0
C1019 C 0.06126 0.72648 0.55131 0.0
C1020 C 0.06898 0.70959 0.53931 0.0
C1021 C 0.05712 0.6985 0.52211 0.0
C1022 C 0.0375 0.70426 0.51691 0.0
C1023 C 0.02974 0.72117 0.52884 0.0
H1024 H 0.06311 0.68542 0.51284 0.0
H1025 H 0.98598 0.84729 0.63051 0.0
H1026 H 0.07234 0.55511 0.42086 0.0
H1027 H 0.0967 0.58639 0.43644 0.0
H1028 H 0.08151 0.62455 0.38583 0.0
H1029 H 0.05716 0.59336 0.37007 0.0
H1030 H 0.12453 0.63125 0.3962 0.0
H1031 H 0.05718 0.6285 0.43217 0.0
H1032 H 0.02734 0.6106 0.45245 0.0
H1033 H 0.07003 0.60328 0.50319 0.0
H1034 H 0.1002 0.62074 0.48303 0.0
H1035 H 0.15097 0.73977 0.4392 0.0
H1036 H 0.13448 0.70437 0.4234 0.0
H1037 H 0.14728 0.67488 0.48088 0.0
H1038 H 0.1634 0.71049 0.49706 0.0
H1039 H 0.10796 0.66149 0.46832 0.0
H1040 H 0.17497 0.66605 0.43433 0.0
H1041 H 0.20555 0.6826 0.4142 0.0
H1042 H 0.16491 0.68548 0.36047 0.0
H1043 H 0.13402 0.66922 0.38038 0.0
C1044 C 0.07438 0.57006 0.41286 0.0
C1045 C 0.06269 0.57179 0.39429 0.0
C1046 C 0.08826 0.58793 0.42185 0.0
C1047 C 0.09069 0.60784 0.41243 0.0
C1048 C 0.07981 0.60933 0.39337 0.0
C1049 C 0.06586 0.5915 0.38442 0.0
C1050 C 0.10372 0.62746 0.42294 0.0
C1051 C 0.12086 0.638 0.4119 0.0
C1052 C 0.09923 0.63583 0.44368 0.0
C1053 C 0.081 0.6257 0.45597 0.0
C1054 C 0.06023 0.62293 0.44758 0.0
C1055 C 0.04325 0.61288 0.45906 0.0
C1056 C 0.0468 0.60576 0.47906 0.0
C1057 C 0.06732 0.60876 0.48767 0.0
C1058 C 0.08436 0.61873 0.47622 0.0
C1059 C 0.15053 0.72574 0.44844 0.0
C1060 C 0.15853 0.72798 0.46942 0.0
C1061 C 0.14116 0.70544 0.43932 0.0
C1062 C 0.13983 0.68686 0.45084 0.0
C1063 C 0.14814 0.68897 0.47167 0.0
C1064 C 0.15742 0.70933 0.48087 0.0
C1065 C 0.12875 0.66555 0.44149 0.0
C1066 C 0.11188 0.65468 0.45272 0.0
C1067 C 0.13359 0.65679 0.42098 0.0
C1068 C 0.15214 0.66657 0.40892 0.0
C1069 C 0.17252 0.67037 0.41828 0.0
C1070 C 0.18992 0.67967 0.40689 0.0
C1071 C 0.18717 0.68513 0.38608 0.0
C1072 C 0.16702 0.68126 0.3766 0.0
C1073 C 0.14956 0.67197 0.38792 0.0
H1074 H 0.20066 0.69233 0.37729 0.0
H1075 H 0.03367 0.59793 0.48791 0.0
H1076 H 0.70538 0.62343 0.94858 0.0
H1077 H 0.68173 0.58968 0.95417 0.0
H1078 H 0.70925 0.55725 0.90052 0.0
H1079 H 0.73242 0.59094 0.89446 0.0
H1080 H 0.66876 0.54444 0.90006 0.0
H1081 H 0.72391 0.55128 0.95228 0.0
H1082 H 0.7474 0.56858 0.98182 0.0
H1083 H 0.69346 0.57155 0.0221 0.0
H1084 H 0.66961 0.5545 0.9927 0.0
H1085 H 0.64167 0.43462 0.92996 0.0
H1086 H 0.66275 0.46993 0.92393 0.0
H1087 H 0.61985 0.50269 0.9629 0.0
H1088 H 0.59854 0.46748 0.96866 0.0
H1089 H 0.66734 0.51515 0.9712 0.0
H1090 H 0.61286 0.50613 0.91581 0.0
H1091 H 0.59239 0.48584 0.88553 0.0
H1092 H 0.64976 0.48389 0.85029 0.0
H1093 H 0.67061 0.50389 0.88051 0.0
C1094 C 0.70621 0.60918 0.93782 0.0
C1095 C 0.72087 0.60985 0.92115 0.0
C1096 C 0.69279 0.58986 0.94113 0.0
C1097 C 0.694 0.57081 0.92801 0.0
C1098 C 0.70807 0.57169 0.91089 0.0
C1099 C 0.72134 0.59101 0.90747 0.0
C1100 C 0.68094 0.54983 0.93227 0.0
C1101 C 0.66862 0.53801 0.91559 0.0
C1102 C 0.68068 0.54137 0.95254 0.0
C1103 C 0.69495 0.55184 0.9702 0.0
C1104 C 0.71704 0.55582 0.96737 0.0
C1105 C 0.73042 0.56554 0.98411 0.0
C1106 C 0.72192 0.57122 0.00381 0.0
C1107 C 0.70002 0.56717 0.00682 0.0
C1108 C 0.68656 0.55747 0.99013 0.0
C1109 C 0.63681 0.44938 0.93724 0.0
C1110 C 0.61846 0.4484 0.94966 0.0
C1111 C 0.64879 0.46946 0.93377 0.0
C1112 C 0.64276 0.48881 0.94297 0.0
C1113 C 0.62468 0.48788 0.95569 0.0
C1114 C 0.61248 0.46784 0.95882 0.0
C1115 C 0.65522 0.51006 0.93906 0.0
C1116 C 0.66745 0.5218 0.95577 0.0
C1117 C 0.65585 0.51818 0.91871 0.0
C1118 C 0.64331 0.5063 0.9005 0.0
C1119 C 0.62113 0.5012 0.90168 0.0
C1120 C 0.60945 0.48979 0.88452 0.0
C1121 C 0.61978 0.48353 0.86602 0.0
C1122 C 0.64179 0.48872 0.86463 0.0
C1123 C 0.65354 0.50011 0.88177 0.0
H1124 H 0.61071 0.4747 0.85274 0.0
H1125 H 0.73228 0.57868 0.01678 0.0
H1126 H 0.78496 0.84783 0.75276 0.0
H1127 H 0.78992 0.82135 0.77839 0.0
H1128 H 0.75026 0.85194 0.82308 0.0
H1129 H 0.74477 0.87815 0.79722 0.0
H1130 H 0.78778 0.8392 0.84129 0.0
H1131 H 0.72829 0.81236 0.79676 0.0
H1132 H 0.70603 0.79959 0.76509 0.0
H1133 H 0.74366 0.74888 0.75021 0.0
H1134 H 0.7666 0.76176 0.78144 0.0
H1135 H 0.75508 0.75091 0.90701 0.0
H1136 H 0.75707 0.7816 0.88465 0.0
H1137 H 0.79159 0.74752 0.8376 0.0
H1138 H 0.79003 0.71708 0.85983 0.0
H1139 H 0.75731 0.76239 0.82089 0.0
H1140 H 0.81672 0.79048 0.86706 0.0
H1141 H 0.83471 0.80124 0.90172 0.0
H1142 H 0.79249 0.84792 0.91588 0.0
H1143 H 0.77405 0.83722 0.88143 0.0
C1144 C 0.7777 0.84927 0.76821 0.0
C1145 C 0.76426 0.86493 0.77292 0.0
C1146 C 0.78042 0.83401 0.78277 0.0
C1147 C 0.77017 0.83451 0.80245 0.0
C1148 C 0.75816 0.85119 0.80788 0.0
C1149 C 0.75505 0.86613 0.79315 0.0
C1150 C 0.77108 0.81703 0.81692 0.0
C1151 C 0.78101 0.82242 0.83689 0.0
C1152 C 0.76231 0.79512 0.81106 0.0
C1153 C 0.7496 0.78846 0.79122 0.0
C1154 C 0.73224 0.79888 0.78645 0.0
C1155 C 0.71934 0.79147 0.76866 0.0
C1156 C 0.72347 0.77348 0.75559 0.0
C1157 C 0.74051 0.76287 0.76029 0.0
C1158 C 0.75354 0.7703 0.77798 0.0
C1159 C 0.76336 0.75006 0.89206 0.0
C1160 C 0.77216 0.73136 0.88518 0.0
C1161 C 0.76449 0.76763 0.8793 0.0
C1162 C 0.77451 0.76682 0.85949 0.0
C1163 C 0.78368 0.7484 0.85278 0.0
C1164 C 0.78261 0.73091 0.8655 0.0
C1165 C 0.77429 0.78448 0.84506 0.0
C1166 C 0.76436 0.77913 0.82512 0.0
C1167 C 0.78276 0.80639 0.85106 0.0
C1168 C 0.79388 0.8129 0.87175 0.0
C1169 C 0.81116 0.80291 0.87764 0.0
C1170 C 0.82146 0.80903 0.89724 0.0
C1171 C 0.81471 0.82521 0.91102 0.0
C1172 C 0.79769 0.83536 0.9052 0.0
C1173 C 0.78732 0.8293 0.88563 0.0
H1174 H 0.82271 0.82993 0.92618 0.0
H1175 H 0.71346 0.76777 0.74182 0.0
H1176 H 0.96371 0.26757 0.16353 0.0
H1177 H 0.9379 0.29302 0.16648 0.0
H1178 H 0.94387 0.29714 0.23486 0.0
H1179 H 0.96995 0.27173 0.23199 0.0
H1180 H 0.89958 0.29277 0.21643 0.0
H1181 H 0.96827 0.33656 0.21584 0.0
H1182 H 0.00438 0.34715 0.2025 0.0
H1183 H 0.97869 0.35793 0.14188 0.0
H1184 H 0.94242 0.34707 0.15478 0.0
H1185 H 0.84531 0.38747 0.22288 0.0
H1186 H 0.86899 0.36094 0.22911 0.0
H1187 H 0.88689 0.35979 0.16311 0.0
H1188 H 0.86486 0.38696 0.15712 0.0
H1189 H 0.92072 0.36411 0.1865 0.0
H1190 H 0.85264 0.3175 0.18523 0.0
H1191 H 0.81625 0.30577 0.19734 0.0
H1192 H 0.84004 0.29954 0.25998 0.0
H1193 H 0.87657 0.3115 0.24829 0.0
C1194 C 0.95931 0.27363 0.1792 0.0
C1195 C 0.96888 0.26771 0.19753 0.0
C1196 C 0.94463 0.28822 0.18086 0.0
C1197 C 0.93905 0.29696 0.20088 0.0
C1198 C 0.94797 0.29053 0.21928 0.0
C1199 C 0.96294 0.27617 0.21761 0.0
C1200 C 0.92477 0.31372 0.20229 0.0
C1201 C 0.90424 0.30854 0.21023 0.0
C1202 C 0.93086 0.33414 0.194 0.0
C1203 C 0.95264 0.34081 0.18622 0.0
C1204 C 0.97033 0.341 0.19961 0.0
C1205 C 0.99082 0.34709 0.19214 0.0
C1206 C 0.99383 0.35316 0.17134 0.0
C1207 C 0.97634 0.35321 0.15799 0.0
C1208 C 0.95581 0.34711 0.16538 0.0
C1209 C 0.8544 0.38169 0.20973 0.0
C1210 C 0.85319 0.38983 0.18958 0.0
C1211 C 0.86776 0.36629 0.21327 0.0
C1212 C 0.8798 0.35835 0.19657 0.0
C1213 C 0.87793 0.36576 0.17632 0.0
C1214 C 0.86494 0.38129 0.17287 0.0
C1215 C 0.89507 0.34297 0.19991 0.0
C1216 C 0.91598 0.34847 0.19294 0.0
C1217 C 0.88921 0.32282 0.20894 0.0
C1218 C 0.86728 0.31564 0.21596 0.0
C1219 C 0.85008 0.3138 0.20163 0.0
C1220 C 0.82944 0.30708 0.20841 0.0
C1221 C 0.82583 0.30199 0.22944 0.0
C1222 C 0.84286 0.30354 0.24371 0.0
C1223 C 0.86353 0.31027 0.23702 0.0
H1224 H 0.80983 0.29678 0.23466 0.0
H1225 H 0.00971 0.35787 0.16558 0.0
H1226 H 0.8874 0.75546 0.74126 0.0
H1227 H 0.8575 0.77625 0.74643 0.0
H1228 H 0.83977 0.76104 0.68027 0.0
H1229 H 0.86966 0.74153 0.67499 0.0
H1230 H 0.83642 0.802 0.69174 0.0
H1231 H 0.82036 0.73233 0.72754 0.0
H1232 H 0.82998 0.71169 0.75707 0.0
H1233 H 0.81561 0.76228 0.80238 0.0
H1234 H 0.80729 0.78389 0.77316 0.0
H1235 H 0.73338 0.81196 0.67134 0.0
H1236 H 0.76416 0.79393 0.67709 0.0
H1237 H 0.76134 0.81044 0.74455 0.0
H1238 H 0.73044 0.82838 0.73901 0.0
H1239 H 0.77815 0.77577 0.73964 0.0
H1240 H 0.79283 0.8441 0.71249 0.0
H1241 H 0.78957 0.8735 0.6892 0.0
H1242 H 0.80952 0.83486 0.63576 0.0
H1243 H 0.81261 0.80507 0.65869 0.0
C1244 C 0.87721 0.75694 0.72787 0.0
C1245 C 0.88102 0.74709 0.70771 0.0
C1246 C 0.86011 0.76868 0.73081 0.0
C1247 C 0.84616 0.76999 0.71378 0.0
C1248 C 0.85029 0.76041 0.69366 0.0
C1249 C 0.8675 0.74926 0.69063 0.0
C1250 C 0.82673 0.7805 0.71628 0.0
C1251 C 0.82362 0.79612 0.70213 0.0
C1252 C 0.81046 0.77396 0.73081 0.0
C1253 C 0.8136 0.7599 0.74814 0.0
C1254 C 0.81933 0.73909 0.74379 0.0
C1255 C 0.82469 0.72728 0.76047 0.0
C1256 C 0.82355 0.73573 0.78155 0.0
C1257 C 0.81674 0.75587 0.78604 0.0
C1258 C 0.81188 0.76798 0.76942 0.0
C1259 C 0.73896 0.81124 0.68747 0.0
C1260 C 0.72966 0.82188 0.70464 0.0
C1261 C 0.75668 0.8011 0.69075 0.0
C1262 C 0.76573 0.80185 0.71119 0.0
C1263 C 0.75508 0.81034 0.7286 0.0
C1264 C 0.73722 0.82036 0.72539 0.0
C1265 C 0.78728 0.79587 0.71392 0.0
C1266 C 0.79086 0.78155 0.72923 0.0
C1267 C 0.80438 0.80434 0.70119 0.0
C1268 C 0.8028 0.82228 0.6873 0.0
C1269 C 0.79641 0.84182 0.69575 0.0
C1270 C 0.79459 0.85855 0.68261 0.0
C1271 C 0.79929 0.85603 0.661 0.0
C1272 C 0.80587 0.83678 0.6525 0.0
C1273 C 0.80769 0.81997 0.66557 0.0
H1274 H 0.79786 0.869 0.65085 0.0
H1275 H 0.82787 0.72664 0.79442 0.0
H1276 H 0.81785 0.65533 0.84806 0.0
H1277 H 0.83121 0.66119 0.81227 0.0
H1278 H 0.76812 0.64129 0.78623 0.0
H1279 H 0.7546 0.63576 0.82195 0.0
H1280 H 0.83305 0.63571 0.77826 0.0
H1281 H 0.76304 0.67337 0.74055 0.0
H1282 H 0.73647 0.69673 0.75177 0.0
H1283 H 0.77217 0.71871 0.80907 0.0
H1284 H 0.79911 0.69582 0.79814 0.0
H1285 H 0.84921 0.63198 0.66987 0.0
H1286 H 0.82828 0.62853 0.70222 0.0
H1287 H 0.83895 0.69834 0.715 0.0
H1288 H 0.85925 0.70193 0.68231 0.0
H1289 H 0.80094 0.68143 0.72994 0.0
H1290 H 0.8727 0.669 0.73547 0.0
H1291 H 0.9044 0.65232 0.72549 0.0
H1292 H 0.87098 0.58917 0.73658 0.0
H1293 H 0.83901 0.60543 0.74648 0.0
C1294 C 0.80685 0.65204 0.83471 0.0
C1295 C 0.78516 0.64511 0.83788 0.0
C1296 C 0.8145 0.65543 0.81425 0.0
C1297 C 0.80062 0.65196 0.79656 0.0
C1298 C 0.77907 0.64447 0.79964 0.0
C1299 C 0.7714 0.64118 0.82009 0.0
C1300 C 0.80879 0.65591 0.7749 0.0
C1301 C 0.8259 0.64565 0.76774 0.0
C1302 C 0.79981 0.66937 0.76128 0.0
C1303 C 0.78312 0.68259 0.76854 0.0
C1304 C 0.76528 0.68316 0.75555 0.0
C1305 C 0.75012 0.69636 0.76187 0.0
C1306 C 0.75259 0.70914 0.78116 0.0
C1307 C 0.7702 0.70871 0.79419 0.0
C1308 C 0.78539 0.69553 0.78796 0.0
C1309 C 0.84647 0.64665 0.67916 0.0
C1310 C 0.85617 0.66721 0.67367 0.0
C1311 C 0.83461 0.64464 0.69773 0.0
C1312 C 0.83253 0.66313 0.71133 0.0
C1313 C 0.84041 0.68383 0.70482 0.0
C1314 C 0.85203 0.68586 0.68608 0.0
C1315 C 0.8246 0.66066 0.73331 0.0
C1316 C 0.80768 0.67122 0.74049 0.0
C1317 C 0.83419 0.64822 0.74736 0.0
C1318 C 0.85341 0.6384 0.74152 0.0
C1319 C 0.87207 0.65154 0.73565 0.0
C1320 C 0.89008 0.64217 0.73002 0.0
C1321 C 0.88967 0.61971 0.73031 0.0
C1322 C 0.87126 0.60656 0.73632 0.0
C1323 C 0.8532 0.61584 0.74197 0.0
H1324 H 0.90363 0.61249 0.72594 0.0
H1325 H 0.74088 0.7194 0.78598 0.0
H1326 H 0.83732 0.61962 0.97537 0.0
H1327 H 0.83621 0.59927 0.00711 0.0
H1328 H 0.76878 0.5996 0.01136 0.0
H1329 H 0.76981 0.62028 0.97982 0.0
H1330 H 0.78776 0.60734 0.05046 0.0
H1331 H 0.78613 0.55447 0.99178 0.0
H1332 H 0.79739 0.53806 0.95764 0.0
H1333 H 0.85814 0.53371 0.98504 0.0
H1334 H 0.84734 0.55039 0.0193 0.0
H1335 H 0.77506 0.51918 0.12102 0.0
H1336 H 0.77166 0.54291 0.09224 0.0
H1337 H 0.83929 0.55045 0.08312 0.0
H1338 H 0.84284 0.52726 0.11196 0.0
H1339 H 0.81655 0.53742 0.04594 0.0
H1340 H 0.81698 0.59181 0.10508 0.0
H1341 H 0.804 0.60738 0.13883 0.0
H1342 H 0.74292 0.6072 0.11004 0.0
H1343 H 0.75547 0.59133 0.07617 0.0
C1344 C 0.82229 0.61557 0.98315 0.0
C1345 C 0.80365 0.62147 0.97491 0.0
C1346 C 0.82164 0.60379 1.00122 0.0
C1347 C 0.80234 0.59764 0.01144 0.0
C1348 C 0.7838 0.60403 0.00365 0.0
C1349 C 0.78441 0.61571 0.98549 0.0
C1350 C 0.80156 0.58409 0.02993 0.0
C1351 C 0.79378 0.59191 0.04942 0.0
C1352 C 0.80943 0.56397 0.02859 0.0
C1353 C 0.81599 0.55386 0.00805 0.0
C1354 C 0.80195 0.55017 0.99048 0.0
C1355 C 0.80824 0.54079 0.97112 0.0
C1356 C 0.82849 0.53489 0.96915 0.0
C1357 C 0.84247 0.53831 0.98658 0.0
C1358 C 0.83627 0.54771 0.00598 0.0
C1359 C 0.78924 0.52626 0.11319 0.0
C1360 C 0.8092 0.52107 0.11863 0.0
C1361 C 0.78727 0.53975 0.09669 0.0
C1362 C 0.80522 0.54832 0.08544 0.0
C1363 C 0.8252 0.54384 0.09143 0.0
C1364 C 0.82719 0.5305 0.10789 0.0
C1365 C 0.80333 0.56094 0.06664 0.0
C1366 C 0.81048 0.55283 0.04699 0.0
C1367 C 0.79463 0.58061 0.06783 0.0
C1368 C 0.78709 0.59015 0.08817 0.0
C1369 C 0.80073 0.5949 0.106 0.0
C1370 C 0.79346 0.60382 0.12514 0.0
C1371 C 0.77263 0.60821 0.1266 0.0
C1372 C 0.75904 0.60375 0.1089 0.0
C1373 C 0.76623 0.59481 0.08972 0.0
H1374 H 0.76703 0.61512 0.14143 0.0
H1375 H 0.83333 0.52763 0.95415 0.0
H1376 H 0.90037 0.45268 0.1723 0.0
H1377 H 0.92858 0.45759 0.1995 0.0
H1378 H 0.91873 0.52423 0.21341 0.0
H1379 H 0.89099 0.51955 0.18615 0.0
H1380 H 0.95938 0.52159 0.21801 0.0
H1381 H 0.8932 0.48262 0.24186 0.0
H1382 H 0.86296 0.45292 0.24182 0.0
H1383 H 0.90578 0.40634 0.24634 0.0
H1384 H 0.93633 0.43585 0.24641 0.0
H1385 H 0.9746 0.54687 0.32881 0.0
H1386 H 0.96099 0.53818 0.29239 0.0
H1387 H 0.98593 0.47738 0.28967 0.0
H1388 H 0.99981 0.48604 0.32607 0.0
H1389 H 0.94355 0.47297 0.27659 0.0
H1390 H 0.00931 0.51545 0.26106 0.0
H1391 H 0.03771 0.54706 0.26476 0.0
H1392 H 0.99415 0.58878 0.24629 0.0
H1393 H 0.96539 0.55748 0.24279 0.0
C1394 C 0.90475 0.46858 0.18065 0.0
C1395 C 0.89337 0.48571 0.17718 0.0
C1396 C 0.92072 0.4713 0.19636 0.0
C1397 C 0.9255 0.49116 0.20884 0.0
C1398 C 0.91533 0.50874 0.2041 0.0
C1399 C 0.89942 0.50602 0.18849 0.0
C1400 C 0.93938 0.49332 0.22814 0.0
C1401 C 0.95594 0.51094 0.2308 0.0
C1402 C 0.93522 0.4792 0.24474 0.0
C1403 C 0.91701 0.46137 0.24389 0.0
C1404 C 0.89616 0.46601 0.24262 0.0
C1405 C 0.87898 0.44923 0.24266 0.0
C1406 C 0.88247 0.42776 0.24407 0.0
C1407 C 0.90314 0.42299 0.24526 0.0
C1408 C 0.92038 0.43974 0.24529 0.0
C1409 C 0.97734 0.53172 0.32043 0.0
C1410 C 0.98829 0.51716 0.33036 0.0
C1411 C 0.96965 0.52683 0.29957 0.0
C1412 C 0.97261 0.50722 0.28825 0.0
C1413 C 0.98357 0.49265 0.29807 0.0
C1414 C 0.99152 0.49766 0.31886 0.0
C1415 C 0.96315 0.50153 0.26663 0.0
C1416 C 0.94739 0.48328 0.26358 0.0
C1417 C 0.96788 0.51523 0.24982 0.0
C1418 C 0.98515 0.53412 0.25179 0.0
C1419 C 0.00574 0.53139 0.25794 0.0
C1420 C 0.02191 0.54925 0.25997 0.0
C1421 C 0.01773 0.56992 0.25579 0.0
C1422 C 0.99736 0.57276 0.24952 0.0
C1423 C 0.98112 0.55496 0.24748 0.0
H1424 H 0.03027 0.58373 0.25738 0.0
H1425 H 0.86915 0.41486 0.24444 0.0
H1426 H 0.94906 0.55013 0.45341 0.0
H1427 H 0.94519 0.56911 0.48819 0.0
H1428 H 0.00969 0.56336 0.50449 0.0
H1429 H 0.01357 0.54393 0.46981 0.0
H1430 H 0.98273 0.55349 0.53726 0.0
H1431 H 0.99879 0.61182 0.4926 0.0
H1432 H 0.99587 0.63245 0.46112 0.0
H1433 H 0.93129 0.63826 0.47658 0.0
H1434 H 0.93376 0.61744 0.50803 0.0
H1435 H 0.97891 0.63093 0.62902 0.0
H1436 H 0.98926 0.61116 0.59641 0.0
H1437 H 0.92682 0.61034 0.56974 0.0
H1438 H 0.91641 0.62976 0.60214 0.0
H1439 H 0.95784 0.62545 0.54271 0.0
H1440 H 0.94204 0.56467 0.58668 0.0
H1441 H 0.94613 0.54462 0.61834 0.0
H1442 H 0.01202 0.54449 0.60443 0.0
H1443 H 0.00838 0.5648 0.57283 0.0
C1444 C 0.96239 0.55275 0.46441 0.0
C1445 C 0.98162 0.54549 0.45876 0.0
C1446 C 0.96022 0.56378 0.48424 0.0
C1447 C 0.97723 0.56786 0.49887 0.0
C1448 C 0.99639 0.56047 0.49342 0.0
C1449 C 0.99862 0.54951 0.4735 0.0
C1450 C 0.97476 0.5797 0.51987 0.0
C1451 C 0.97764 0.56939 0.5385 0.0
C1452 C 0.96801 0.60038 0.52148 0.0
C1453 C 0.96641 0.61289 0.50256 0.0
C1454 C 0.98391 0.61733 0.48918 0.0
C1455 C 0.98235 0.62909 0.47137 0.0
C1456 C 0.96339 0.6366 0.46681 0.0
C1457 C 0.94597 0.63241 0.48011 0.0
C1458 C 0.94745 0.62066 0.49795 0.0
C1459 C 0.96731 0.62616 0.61635 0.0
C1460 C 0.94691 0.63212 0.61807 0.0
C1461 C 0.97325 0.61494 0.59771 0.0
C1462 C 0.95884 0.6094 0.58058 0.0
C1463 C 0.93828 0.61466 0.58264 0.0
C1464 C 0.93236 0.62581 0.60116 0.0
C1465 C 0.96516 0.59896 0.56008 0.0
C1466 C 0.96311 0.60962 0.54151 0.0
C1467 C 0.97282 0.57872 0.55859 0.0
C1468 C 0.97499 0.56647 0.57755 0.0
C1469 C 0.95744 0.56053 0.59048 0.0
C1470 C 0.95967 0.54909 0.60839 0.0
C1471 C 0.97934 0.54335 0.61343 0.0
C1472 C 0.99681 0.54898 0.60053 0.0
C1473 C 0.99466 0.56045 0.58262 0.0
H1474 H 0.98104 0.53449 0.6273 0.0
H1475 H 0.96221 0.6457 0.45301 0.0
loop_
_geom_bond_atom_site_label_1
_geom_bond_atom_site_label_2
_geom_bond_distance
_geom_bond_site_symmetry_2
_ccdc_geom_bond_type
Cu0 N1 1.999 . S
Cu0 O6 1.974 . S
Cu0 N11 1.985 . S
Cu0 O20 1.959 . S
N1 Cu0 1.999 . S
N1 C3 1.263 . S
N1 C5 1.389 . S
N2 C3 1.358 . S
N2 C4 1.400 . S
C3 N1 1.263 . S
C3 N2 1.358 . S
C3 H9 0.930 . S
C4 N2 1.400 . S
C4 C5 1.351 . S
C4 H21 0.930 . S
C5 N1 1.389 . S
C5 C4 1.351 . S
C5 H10 0.930 . S
O6 Cu0 1.974 . S
O6 C16 1.282 . S
C7 O8 1.261 . S
C7 O20 1.251 . S
O8 C7 1.261 . S
H9 C3 0.930 . S
H10 C5 0.930 . S
N11 Cu0 1.985 . S
N11 C13 1.335 . S
N11 C14 1.390 . S
N12 C13 1.345 . S
N12 C15 1.336 . S
C13 N11 1.335 . S
C13 N12 1.345 . S
C13 H18 0.912 1_455 S
C14 N11 1.390 . S
C14 C15 1.346 . S
C14 H19 0.930 . S
C15 N12 1.336 . S
C15 C14 1.346 . S
C15 H22 0.929 . S
C16 O6 1.282 . S
C16 O17 1.216 . S
O17 C16 1.216 . S
H18 C13 0.912 1_655 S
H19 C14 0.930 . S
O20 Cu0 1.959 . S
O20 C7 1.251 . S
H21 C4 0.930 . S
H22 C15 0.929 . S
Cu23 N24 1.999 . S
Cu23 O29 1.974 . S
Cu23 N34 1.985 . S
Cu23 O43 1.959 . S
N24 Cu23 1.999 . S
N24 C26 1.263 . S
N24 C28 1.389 . S
N25 C26 1.358 . S
N25 C27 1.400 . S
C26 N24 1.263 . S
C26 N25 1.358 . S
C26 H32 0.930 . S
C27 N25 1.400 . S
C27 C28 1.351 . S
C27 H44 0.930 . S
C28 N24 1.389 . S
C28 C27 1.351 . S
C28 H33 0.930 . S
O29 Cu23 1.974 . S
O29 C39 1.282 . S
C30 O31 1.261 . S
C30 O43 1.251 . S
O31 C30 1.261 . S
H32 C26 0.930 . S
H33 C28 0.930 . S
N34 Cu23 1.985 . S
N34 C36 1.335 . S
N34 C37 1.390 . S
N35 C36 1.345 . S
N35 C38 1.336 . S
C36 N34 1.335 . S
C36 N35 1.345 . S
C36 H41 0.930 . S
C37 N34 1.390 . S
C37 C38 1.346 . S
C37 H42 0.930 . S
C38 N35 1.336 . S
C38 C37 1.346 . S
C38 H45 0.929 . S
C39 O29 1.282 . S
C39 O40 1.216 . S
O40 C39 1.216 . S
H41 C36 0.930 . S
H42 C37 0.930 . S
O43 Cu23 1.959 . S
O43 C30 1.251 . S
H44 C27 0.930 . S
H45 C38 0.929 . S
Cu46 N47 1.999 . S
Cu46 O52 1.974 . S
Cu46 N57 1.985 . S
Cu46 O66 1.959 . S
N47 Cu46 1.999 . S
N47 C49 1.263 . S
N47 C51 1.389 . S
N48 C49 1.358 . S
N48 C50 1.400 . S
C49 N47 1.263 . S
C49 N48 1.358 . S
C49 H55 0.930 . S
C50 N48 1.400 . S
C50 C51 1.351 . S
C50 H67 0.930 . S
C51 N47 1.389 . S
C51 C50 1.351 . S
C51 H56 0.930 . S
O52 Cu46 1.974 . S
O52 C62 1.282 . S
C53 O54 1.261 . S
C53 O66 1.251 . S
O54 C53 1.261 . S
H55 C49 0.930 . S
H56 C51 0.930 . S
N57 Cu46 1.985 . S
N57 C59 1.335 . S
N57 C60 1.390 . S
N58 C59 1.345 . S
N58 C61 1.336 . S
C59 N57 1.335 . S
C59 N58 1.345 . S
C59 H64 0.930 . S
C60 N57 1.390 . S
C60 C61 1.346 . S
C60 H65 0.930 . S
C61 N58 1.336 . S
C61 C60 1.346 . S
C61 H68 0.929 . S
C62 O52 1.282 . S
C62 O63 1.216 . S
O63 C62 1.216 . S
H64 C59 0.930 . S
H65 C60 0.930 . S
O66 Cu46 1.959 . S
O66 C53 1.251 . S
H67 C50 0.930 . S
H68 C61 0.929 . S
Cu69 N70 1.999 . S
Cu69 O75 1.970 1_556 S
Cu69 N80 1.985 . S
Cu69 O89 1.959 . S
N70 Cu69 1.999 . S
N70 C72 1.263 . S
N70 C74 1.389 . S
N71 C72 1.358 . S
N71 C73 1.400 . S
C72 N70 1.263 . S
C72 N71 1.358 . S
C72 H78 0.930 . S
C73 N71 1.400 . S
C73 C74 1.351 . S
C73 H90 0.930 . S
C74 N70 1.389 . S
C74 C73 1.351 . S
C74 H79 0.930 . S
O75 Cu69 1.970 1_554 S
O75 C85 1.284 . S
C76 O77 1.261 . S
C76 O89 1.251 . S
O77 C76 1.261 . S
H78 C72 0.930 . S
H79 C74 0.930 . S
N80 Cu69 1.985 . S
N80 C82 1.335 . S
N80 C83 1.390 1_556 S
N81 C82 1.340 . S
N81 C84 1.341 1_556 S
C82 N80 1.335 . S
C82 N81 1.340 . S
C82 H87 0.930 . S
C83 N80 1.390 1_554 S
C83 C84 1.346 . S
C83 H88 0.930 . S
C84 N81 1.341 1_554 S
C84 C83 1.346 . S
C84 H91 0.929 . S
C85 O75 1.284 . S
C85 O86 1.216 . S
O86 C85 1.216 . S
H87 C82 0.930 . S
H88 C83 0.930 . S
O89 Cu69 1.959 . S
O89 C76 1.251 . S
H90 C73 0.930 . S
H91 C84 0.929 . S
Cu92 N93 1.999 . S
Cu92 O98 1.974 . S
Cu92 N103 1.985 . S
Cu92 O112 1.959 1_545 S
N93 Cu92 1.999 . S
N93 C95 1.263 . S
N93 C97 1.389 . S
N94 C95 1.358 . S
N94 C96 1.400 . S
C95 N93 1.263 . S
C95 N94 1.358 . S
C95 H101 0.930 . S
C96 N94 1.400 . S
C96 C97 1.351 . S
C96 H113 0.930 . S
C97 N93 1.389 . S
C97 C96 1.351 . S
C97 H102 0.930 . S
O98 Cu92 1.974 . S
O98 C108 1.282 . S
C99 O100 1.261 . S
C99 O112 1.251 . S
O100 C99 1.261 . S
H101 C95 0.930 . S
H102 C97 0.930 . S
N103 Cu92 1.985 . S
N103 C105 1.335 1_545 S
N103 C106 1.390 . S
N104 C105 1.345 . S
N104 C107 1.336 . S
C105 N103 1.335 1_565 S
C105 N104 1.345 . S
C105 H110 0.930 . S
C106 N103 1.390 . S
C106 C107 1.346 1_545 S
C106 H111 0.930 . S
C107 N104 1.336 . S
C107 C106 1.346 1_565 S
C107 H114 0.929 . S
C108 O98 1.282 . S
C108 O109 1.216 . S
O109 C108 1.216 . S
H110 C105 0.930 . S
H111 C106 0.930 . S
O112 Cu92 1.959 1_565 S
O112 C99 1.251 . S
H113 C96 0.930 . S
H114 C107 0.929 . S
Cu115 N116 1.999 . S
Cu115 O121 1.974 . S
Cu115 N126 1.985 . S
Cu115 O135 1.959 . S
N116 Cu115 1.999 . S
N116 C118 1.263 . S
N116 C120 1.389 . S
N117 C118 1.358 . S
N117 C119 1.400 . S
C118 N116 1.263 . S
C118 N117 1.358 . S
C118 H124 0.930 . S
C119 N117 1.400 . S
C119 C120 1.351 . S
C119 H136 0.930 1_565 S
C120 N116 1.389 . S
C120 C119 1.351 . S
C120 H125 0.930 . S
O121 Cu115 1.974 . S
O121 C131 1.282 . S
C122 O123 1.261 . S
C122 O135 1.251 . S
O123 C122 1.261 . S
H124 C118 0.930 . S
H125 C120 0.930 . S
N126 Cu115 1.985 . S
N126 C128 1.335 . S
N126 C129 1.390 . S
N127 C128 1.345 . S
N127 C130 1.336 . S
C128 N126 1.335 . S
C128 N127 1.345 . S
C128 H133 0.930 . S
C129 N126 1.390 . S
C129 C130 1.346 . S
C129 H134 0.930 . S
C130 N127 1.336 . S
C130 C129 1.346 . S
C130 H137 0.929 . S
C131 O121 1.282 . S
C131 O132 1.216 . S
O132 C131 1.216 . S
H133 C128 0.930 . S
H134 C129 0.930 . S
O135 Cu115 1.959 . S
O135 C122 1.251 . S
H136 C119 0.930 1_545 S
H137 C130 0.929 . S
Cu138 N139 1.999 . S
Cu138 O144 1.974 . S
Cu138 N149 1.985 . S
Cu138 O158 1.959 . S
N139 Cu138 1.999 . S
N139 C141 1.263 . S
N139 C143 1.389 . S
N140 C141 1.358 . S
N140 C142 1.400 . S
C141 N139 1.263 . S
C141 N140 1.358 . S
C141 H147 0.930 . S
C142 N140 1.400 . S
C142 C143 1.351 . S
C142 H159 0.930 . S
C143 N139 1.389 . S
C143 C142 1.351 . S
C143 H148 0.930 . S
O144 Cu138 1.974 . S
O144 C154 1.282 . S
C145 O146 1.261 . S
C145 O158 1.251 . S
O146 C145 1.261 . S
H147 C141 0.930 . S
H148 C143 0.930 . S
N149 Cu138 1.985 . S
N149 C151 1.335 . S
N149 C152 1.390 . S
N150 C151 1.345 . S
N150 C153 1.336 . S
C151 N149 1.335 . S
C151 N150 1.345 . S
C151 H156 0.930 . S
C152 N149 1.390 . S
C152 C153 1.346 . S
C152 H157 0.930 . S
C153 N150 1.336 . S
C153 C152 1.346 . S
C153 H160 0.929 . S
C154 O144 1.282 . S
C154 O155 1.216 . S
O155 C154 1.216 . S
H156 C151 0.930 . S
H157 C152 0.930 . S
O158 Cu138 1.959 . S
O158 C145 1.251 . S
H159 C142 0.930 . S
H160 C153 0.929 . S
Cu161 N162 1.999 . S
Cu161 O167 1.974 . S
Cu161 N172 1.985 . S
Cu161 O181 1.959 . S
N162 Cu161 1.999 . S
N162 C164 1.263 1_554 S
N162 C166 1.389 1_554 S
N163 C164 1.358 . S
N163 C165 1.400 . S
C164 N162 1.263 1_556 S
C164 N163 1.358 . S
C164 H170 0.930 1_556 S
C165 N163 1.400 . S
C165 C166 1.351 . S
C165 H182 0.930 . S
C166 N162 1.389 1_556 S
C166 C165 1.351 . S
C166 H171 0.930 . S
O167 Cu161 1.974 . S
O167 C177 1.282 . S
C168 O169 1.261 . S
C168 O181 1.251 . S
O169 C168 1.261 . S
H170 C164 0.930 1_554 S
H171 C166 0.930 . S
N172 Cu161 1.985 . S
N172 C174 1.335 . S
N172 C175 1.390 . S
N173 C174 1.345 . S
N173 C176 1.336 . S
C174 N172 1.335 . S
C174 N173 1.345 . S
C174 H179 0.930 . S
C175 N172 1.390 . S
C175 C176 1.346 . S
C175 H180 0.930 . S
C176 N173 1.336 . S
C176 C175 1.346 . S
C176 H183 0.929 . S
C177 O167 1.282 . S
C177 O178 1.216 . S
O178 C177 1.216 . S
H179 C174 0.930 . S
H180 C175 0.930 . S
O181 Cu161 1.959 . S
O181 C168 1.251 . S
H182 C165 0.930 . S
H183 C176 0.929 . S
Cu184 N185 1.999 . S
Cu184 O190 1.974 . S
Cu184 N195 1.985 . S
Cu184 O204 1.959 . S
N185 Cu184 1.999 . S
N185 C187 1.263 . S
N185 C189 1.389 . S
N186 C187 1.358 . S
N186 C188 1.400 . S
C187 N185 1.263 . S
C187 N186 1.358 . S
C187 H193 0.930 . S
C188 N186 1.400 . S
C188 C189 1.351 . S
C188 H205 0.930 . S
C189 N185 1.389 . S
C189 C188 1.351 . S
C189 H194 0.930 . S
O190 Cu184 1.974 . S
O190 C200 1.282 . S
C191 O192 1.261 . S
C191 O204 1.251 . S
O192 C191 1.261 . S
H193 C187 0.930 . S
H194 C189 0.930 . S
N195 Cu184 1.985 . S
N195 C197 1.335 . S
N195 C198 1.390 . S
N196 C197 1.345 . S
N196 C199 1.336 . S
C197 N195 1.335 . S
C197 N196 1.345 . S
C197 H202 0.930 . S
C198 N195 1.390 . S
C198 C199 1.346 . S
C198 H203 0.930 . S
C199 N196 1.336 . S
C199 C198 1.346 . S
C199 H206 0.929 . S
C200 O190 1.282 . S
C200 O201 1.216 . S
O201 C200 1.216 . S
H202 C197 0.930 . S
H203 C198 0.930 . S
O204 Cu184 1.959 . S
O204 C191 1.251 . S
H205 C188 0.930 . S
H206 C199 0.929 . S
Cu207 N208 1.999 1_655 S
Cu207 O213 1.974 . S
Cu207 N218 1.985 . S
Cu207 O227 1.959 1_655 S
N208 Cu207 1.999 1_455 S
N208 C210 1.263 . S
N208 C212 1.389 . S
N209 C210 1.358 . S
N209 C211 1.400 . S
C210 N208 1.263 . S
C210 N209 1.358 . S
C210 H216 0.930 1_455 S
C211 N209 1.400 . S
C211 C212 1.351 . S
C211 H228 0.930 . S
C212 N208 1.389 . S
C212 C211 1.351 . S
C212 H217 0.930 . S
O213 Cu207 1.974 . S
O213 C223 1.282 . S
C214 O215 1.261 . S
C214 O227 1.251 . S
O215 C214 1.261 . S
H216 C210 0.930 1_655 S
H217 C212 0.930 . S
N218 Cu207 1.985 . S
N218 C220 1.335 . S
N218 C221 1.390 . S
N219 C220 1.345 . S
N219 C222 1.336 . S
C220 N218 1.335 . S
C220 N219 1.345 . S
C220 H225 0.930 . S
C221 N218 1.390 . S
C221 C222 1.346 . S
C221 H226 0.930 . S
C222 N219 1.336 . S
C222 C221 1.346 . S
C222 H229 0.929 . S
C223 O213 1.282 . S
C223 O224 1.216 . S
O224 C223 1.216 . S
H225 C220 0.930 . S
H226 C221 0.930 . S
O227 Cu207 1.959 1_455 S
O227 C214 1.251 . S
H228 C211 0.930 . S
H229 C222 0.929 . S
Cu230 N231 1.999 . S
Cu230 O236 1.974 . S
Cu230 N241 1.985 . S
Cu230 O250 1.959 . S
N231 Cu230 1.999 . S
N231 C233 1.263 . S
N231 C235 1.389 . S
N232 C233 1.358 . S
N232 C234 1.400 . S
C233 N231 1.263 . S
C233 N232 1.358 . S
C233 H239 0.930 . S
C234 N232 1.400 . S
C234 C235 1.351 . S
C234 H251 0.930 . S
C235 N231 1.389 . S
C235 C234 1.351 . S
C235 H240 0.930 . S
O236 Cu230 1.974 . S
O236 C246 1.282 . S
C237 O238 1.261 . S
C237 O250 1.251 . S
O238 C237 1.261 . S
H239 C233 0.930 . S
H240 C235 0.930 . S
N241 Cu230 1.985 . S
N241 C243 1.335 . S
N241 C244 1.390 . S
N242 C243 1.345 . S
N242 C245 1.336 . S
C243 N241 1.335 . S
C243 N242 1.345 . S
C243 H248 0.930 . S
C244 N241 1.390 . S
C244 C245 1.346 . S
C244 H249 0.930 . S
C245 N242 1.336 . S
C245 C244 1.346 . S
C245 H252 0.929 . S
C246 O236 1.282 . S
C246 O247 1.216 . S
O247 C246 1.216 . S
H248 C243 0.930 . S
H249 C244 0.930 . S
O250 Cu230 1.959 . S
O250 C237 1.251 . S
H251 C234 0.930 . S
H252 C245 0.929 . S
Cu253 N254 1.999 . S
Cu253 O259 1.974 . S
Cu253 N264 1.985 . S
Cu253 O273 1.959 . S
N254 Cu253 1.999 . S
N254 C256 1.263 . S
N254 C258 1.389 . S
N255 C256 1.358 . S
N255 C257 1.400 . S
C256 N254 1.263 . S
C256 N255 1.358 . S
C256 H262 0.930 . S
C257 N255 1.400 . S
C257 C258 1.351 . S
C257 H274 0.930 . S
C258 N254 1.389 . S
C258 C257 1.351 . S
C258 H263 0.930 . S
O259 Cu253 1.974 . S
O259 C269 1.282 . S
C260 O261 1.261 . S
C260 O273 1.251 . S
O261 C260 1.261 . S
H262 C256 0.930 . S
H263 C258 0.930 . S
N264 Cu253 1.985 . S
N264 C266 1.335 . S
N264 C267 1.390 . S
N265 C266 1.345 . S
N265 C268 1.336 . S
C266 N264 1.335 . S
C266 N265 1.345 . S
C266 H271 0.930 . S
C267 N264 1.390 . S
C267 C268 1.346 . S
C267 H272 0.930 . S
C268 N265 1.336 . S
C268 C267 1.346 . S
C268 H275 0.929 . S
C269 O259 1.282 . S
C269 O270 1.216 . S
O270 C269 1.216 . S
H271 C266 0.930 . S
H272 C267 0.930 . S
O273 Cu253 1.959 . S
O273 C260 1.251 . S
H274 C257 0.930 . S
H275 C268 0.929 . S
H276 C294 0.951 . S
H277 C296 0.951 . S
H278 C298 0.950 . S
H279 C299 0.950 . S
H280 C301 0.950 . S
H281 C304 0.950 . S
H282 C305 0.950 . S
H283 C307 0.950 . S
H284 C308 0.950 . S
H285 C309 0.951 . S
H286 C311 0.951 . S
H287 C313 0.950 . S
H288 C314 0.950 . S
H289 C316 0.950 . S
H290 C319 0.950 . S
H291 C320 0.950 . S
H292 C322 0.950 . S
H293 C323 0.950 . S
C294 H276 0.951 . S
C294 C295 1.366 . S
C294 C296 1.388 . S
C295 C294 1.366 . S
C295 C299 1.385 . S
C296 H277 0.951 . S
C296 C294 1.388 . S
C296 C297 1.366 . S
C297 C296 1.366 . S
C297 C298 1.414 . S
C297 C300 1.499 . S
C298 H278 0.950 . S
C298 C297 1.414 . S
C298 C299 1.374 . S
C299 H279 0.950 . S
C299 C295 1.385 . S
C299 C298 1.374 . S
C300 C297 1.499 . S
C300 C301 1.373 . S
C300 C302 1.389 . S
C301 H280 0.950 . S
C301 C300 1.373 . S
C301 C317 1.377 . S
C302 C300 1.389 . S
C302 C303 1.524 . S
C302 C316 1.377 . S
C303 C302 1.524 . S
C303 C304 1.397 . S
C303 C308 1.363 . S
C304 H281 0.950 . S
C304 C303 1.397 . S
C304 C305 1.334 . S
C305 H282 0.950 . S
C305 C304 1.334 . S
C305 C306 1.287 . S
C306 C305 1.287 . S
C306 C307 1.524 . S
C306 H325 0.913 . S
C307 H283 0.950 . S
C307 C306 1.524 . S
C307 C308 1.415 . S
C308 H284 0.950 . S
C308 C303 1.363 . S
C308 C307 1.415 . S
C309 H285 0.951 . S
C309 C310 1.366 . S
C309 C311 1.388 . S
C310 C309 1.366 . S
C310 C314 1.385 . S
C311 H286 0.951 . S
C311 C309 1.388 . S
C311 C312 1.366 . S
C312 C311 1.366 . S
C312 C313 1.414 . S
C312 C315 1.499 . S
C313 H287 0.950 . S
C313 C312 1.414 . S
C313 C314 1.374 . S
C314 H288 0.950 . S
C314 C310 1.385 . S
C314 C313 1.374 . S
C315 C312 1.499 . S
C315 C316 1.373 . S
C315 C317 1.389 . S
C316 H289 0.950 . S
C316 C302 1.377 . S
C316 C315 1.373 . S
C317 C301 1.377 . S
C317 C315 1.389 . S
C317 C318 1.524 . S
C318 C317 1.524 . S
C318 C319 1.397 . S
C318 C323 1.363 . S
C319 H290 0.950 . S
C319 C318 1.397 . S
C319 C320 1.334 . S
C320 H291 0.950 . S
C320 C319 1.334 . S
C320 C321 1.287 . S
C321 C320 1.287 . S
C321 C322 1.524 . S
C321 H324 0.999 . S
C322 H292 0.950 . S
C322 C321 1.524 . S
C322 C323 1.415 . S
C323 H293 0.950 . S
C323 C318 1.363 . S
C323 C322 1.415 . S
H324 C321 0.999 . S
H325 C306 0.913 . S
H326 C344 0.951 . S
H327 C346 0.951 . S
H328 C348 0.950 . S
H329 C349 0.950 . S
H330 C351 0.950 . S
H331 C354 0.950 . S
H332 C355 0.950 . S
H333 C357 0.950 . S
H334 C358 0.950 . S
H335 C359 0.951 . S
H336 C361 0.951 . S
H337 C363 0.950 . S
H338 C364 0.950 . S
H339 C366 0.950 . S
H340 C369 0.950 . S
H341 C370 0.950 . S
H342 C372 0.950 . S
H343 C373 0.950 . S
C344 H326 0.951 . S
C344 C345 1.366 . S
C344 C346 1.388 . S
C345 C344 1.366 . S
C345 C349 1.385 . S
C346 H327 0.951 . S
C346 C344 1.388 . S
C346 C347 1.366 . S
C347 C346 1.366 . S
C347 C348 1.414 . S
C347 C350 1.499 . S
C348 H328 0.950 . S
C348 C347 1.414 . S
C348 C349 1.374 . S
C349 H329 0.950 . S
C349 C345 1.385 . S
C349 C348 1.374 . S
C350 C347 1.499 . S
C350 C351 1.373 . S
C350 C352 1.389 . S
C351 H330 0.950 . S
C351 C350 1.373 . S
C351 C367 1.377 . S
C352 C350 1.389 . S
C352 C353 1.524 . S
C352 C366 1.377 . S
C353 C352 1.524 . S
C353 C354 1.397 . S
C353 C358 1.363 . S
C354 H331 0.950 . S
C354 C353 1.397 . S
C354 C355 1.334 . S
C355 H332 0.950 . S
C355 C354 1.334 . S
C355 C356 1.287 . S
C356 C355 1.287 . S
C356 C357 1.524 . S
C356 H375 0.913 . S
C357 H333 0.950 . S
C357 C356 1.524 . S
C357 C358 1.415 . S
C358 H334 0.950 . S
C358 C353 1.363 . S
C358 C357 1.415 . S
C359 H335 0.951 . S
C359 C360 1.366 . S
C359 C361 1.388 . S
C360 C359 1.366 . S
C360 C364 1.385 . S
C361 H336 0.951 . S
C361 C359 1.388 . S
C361 C362 1.366 . S
C362 C361 1.366 . S
C362 C363 1.414 . S
C362 C365 1.499 . S
C363 H337 0.950 . S
C363 C362 1.414 . S
C363 C364 1.374 . S
C364 H338 0.950 . S
C364 C360 1.385 . S
C364 C363 1.374 . S
C365 C362 1.499 . S
C365 C366 1.373 . S
C365 C367 1.389 . S
C366 H339 0.950 . S
C366 C352 1.377 . S
C366 C365 1.373 . S
C367 C351 1.377 . S
C367 C365 1.389 . S
C367 C368 1.524 . S
C368 C367 1.524 . S
C368 C369 1.397 . S
C368 C373 1.363 . S
C369 H340 0.950 . S
C369 C368 1.397 . S
C369 C370 1.334 . S
C370 H341 0.950 . S
C370 C369 1.334 . S
C370 C371 1.287 . S
C371 C370 1.287 . S
C371 C372 1.524 . S
C371 H374 0.999 . S
C372 H342 0.950 . S
C372 C371 1.524 . S
C372 C373 1.415 . S
C373 H343 0.950 . S
C373 C368 1.363 . S
C373 C372 1.415 . S
H374 C371 0.999 . S
H375 C356 0.913 . S
H376 C394 0.951 . S
H377 C396 0.951 . S
H378 C398 0.950 . S
H379 C399 0.950 . S
H380 C401 0.950 . S
H381 C404 0.950 . S
H382 C405 0.950 . S
H383 C407 0.950 . S
H384 C408 0.950 . S
H385 C409 0.951 . S
H386 C411 0.951 . S
H387 C413 0.950 . S
H388 C414 0.950 . S
H389 C416 0.950 . S
H390 C419 0.950 . S
H391 C420 0.950 . S
H392 C422 0.950 . S
H393 C423 0.950 . S
C394 H376 0.951 . S
C394 C395 1.366 . S
C394 C396 1.388 . S
C395 C394 1.366 . S
C395 C399 1.385 . S
C396 H377 0.951 . S
C396 C394 1.388 . S
C396 C397 1.366 . S
C397 C396 1.366 . S
C397 C398 1.414 . S
C397 C400 1.499 . S
C398 H378 0.950 . S
C398 C397 1.414 . S
C398 C399 1.374 . S
C399 H379 0.950 . S
C399 C395 1.385 . S
C399 C398 1.374 . S
C400 C397 1.499 . S
C400 C401 1.373 . S
C400 C402 1.389 . S
C401 H380 0.950 . S
C401 C400 1.373 . S
C401 C417 1.377 . S
C402 C400 1.389 . S
C402 C403 1.524 . S
C402 C416 1.377 . S
C403 C402 1.524 . S
C403 C404 1.397 . S
C403 C408 1.363 . S
C404 H381 0.950 . S
C404 C403 1.397 . S
C404 C405 1.334 . S
C405 H382 0.950 . S
C405 C404 1.334 . S
C405 C406 1.287 . S
C406 C405 1.287 . S
C406 C407 1.524 . S
C406 H425 0.913 . S
C407 H383 0.950 . S
C407 C406 1.524 . S
C407 C408 1.415 . S
C408 H384 0.950 . S
C408 C403 1.363 . S
C408 C407 1.415 . S
C409 H385 0.951 . S
C409 C410 1.366 . S
C409 C411 1.388 . S
C410 C409 1.366 . S
C410 C414 1.385 . S
C411 H386 0.951 . S
C411 C409 1.388 . S
C411 C412 1.366 . S
C412 C411 1.366 . S
C412 C413 1.414 . S
C412 C415 1.499 1_565 S
C413 H387 0.950 . S
C413 C412 1.414 . S
C413 C414 1.374 . S
C414 H388 0.950 . S
C414 C410 1.385 . S
C414 C413 1.374 . S
C415 C412 1.499 1_545 S
C415 C416 1.373 . S
C415 C417 1.389 . S
C416 H389 0.950 . S
C416 C402 1.377 . S
C416 C415 1.373 . S
C417 C401 1.377 . S
C417 C415 1.389 . S
C417 C418 1.524 1_545 S
C418 C417 1.524 1_565 S
C418 C419 1.397 . S
C418 C423 1.363 . S
C419 H390 0.950 . S
C419 C418 1.397 . S
C419 C420 1.334 . S
C420 H391 0.950 . S
C420 C419 1.334 . S
C420 C421 1.287 . S
C421 C420 1.287 . S
C421 C422 1.524 . S
C421 H424 0.999 . S
C422 H392 0.950 . S
C422 C421 1.524 . S
C422 C423 1.415 . S
C423 H393 0.950 . S
C423 C418 1.363 . S
C423 C422 1.415 . S
H424 C421 0.999 . S
H425 C406 0.913 . S
H426 C444 0.951 . S
H427 C446 0.951 . S
H428 C448 0.950 . S
H429 C449 0.950 . S
H430 C451 0.950 . S
H431 C454 0.950 . S
H432 C455 0.950 . S
H433 C457 0.950 . S
H434 C458 0.950 . S
H435 C459 0.951 . S
H436 C461 0.951 . S
H437 C463 0.950 . S
H438 C464 0.950 . S
H439 C466 0.950 . S
H440 C469 0.950 . S
H441 C470 0.950 . S
H442 C472 0.950 . S
H443 C473 0.950 . S
C444 H426 0.951 . S
C444 C445 1.366 1_556 S
C444 C446 1.388 . S
C445 C444 1.366 1_554 S
C445 C449 1.384 . S
C446 H427 0.951 . S
C446 C444 1.388 . S
C446 C447 1.366 1_556 S
C447 C446 1.366 1_554 S
C447 C448 1.414 . S
C447 C450 1.499 . S
C448 H428 0.950 . S
C448 C447 1.414 . S
C448 C449 1.374 . S
C449 H429 0.950 . S
C449 C445 1.384 . S
C449 C448 1.374 . S
C450 C447 1.499 . S
C450 C451 1.373 . S
C450 C452 1.389 1_554 S
C451 H430 0.950 . S
C451 C450 1.373 . S
C451 C467 1.377 . S
C452 C450 1.389 1_556 S
C452 C453 1.524 . S
C452 C466 1.377 . S
C453 C452 1.524 . S
C453 C454 1.397 . S
C453 C458 1.363 . S
C454 H431 0.950 . S
C454 C453 1.397 . S
C454 C455 1.334 . S
C455 H432 0.950 . S
C455 C454 1.334 . S
C455 C456 1.287 . S
C456 C455 1.287 . S
C456 C457 1.524 . S
C456 H475 0.913 . S
C457 H433 0.950 . S
C457 C456 1.524 . S
C457 C458 1.415 . S
C458 H434 0.950 . S
C458 C453 1.363 . S
C458 C457 1.415 . S
C459 H435 0.951 . S
C459 C460 1.366 . S
C459 C461 1.388 . S
C460 C459 1.366 . S
C460 C464 1.385 . S
C461 H436 0.951 . S
C461 C459 1.388 . S
C461 C462 1.366 . S
C462 C461 1.366 . S
C462 C463 1.414 . S
C462 C465 1.499 . S
C463 H437 0.950 . S
C463 C462 1.414 . S
C463 C464 1.374 . S
C464 H438 0.950 . S
C464 C460 1.385 . S
C464 C463 1.374 . S
C465 C462 1.499 . S
C465 C466 1.373 1_554 S
C465 C467 1.389 . S
C466 H439 0.950 . S
C466 C452 1.377 . S
C466 C465 1.373 1_556 S
C467 C451 1.377 . S
C467 C465 1.389 . S
C467 C468 1.524 . S
C468 C467 1.524 . S
C468 C469 1.397 . S
C468 C473 1.363 . S
C469 H440 0.950 . S
C469 C468 1.397 . S
C469 C470 1.334 . S
C470 H441 0.950 . S
C470 C469 1.334 . S
C470 C471 1.287 . S
C471 C470 1.287 . S
C471 C472 1.524 . S
C471 H474 0.999 . S
C472 H442 0.950 . S
C472 C471 1.524 . S
C472 C473 1.415 . S
C473 H443 0.950 . S
C473 C468 1.363 . S
C473 C472 1.415 . S
H474 C471 0.999 . S
H475 C456 0.913 . S
H476 C494 0.951 . S
H477 C496 0.951 . S
H478 C498 0.950 . S
H479 C499 0.950 . S
H480 C501 0.950 . S
H481 C504 0.950 . S
H482 C505 0.950 . S
H483 C507 0.950 . S
H484 C508 0.950 . S
H485 C509 0.951 . S
H486 C511 0.951 . S
H487 C513 0.950 . S
H488 C514 0.950 . S
H489 C516 0.950 . S
H490 C519 0.950 . S
H491 C520 0.950 . S
H492 C522 0.950 . S
H493 C523 0.950 . S
C494 H476 0.951 . S
C494 C495 1.366 . S
C494 C496 1.388 . S
C495 C494 1.366 . S
C495 C499 1.385 . S
C496 H477 0.951 . S
C496 C494 1.388 . S
C496 C497 1.366 . S
C497 C496 1.366 . S
C497 C498 1.414 . S
C497 C500 1.499 . S
C498 H478 0.950 . S
C498 C497 1.414 . S
C498 C499 1.374 . S
C499 H479 0.950 . S
C499 C495 1.385 . S
C499 C498 1.374 . S
C500 C497 1.499 . S
C500 C501 1.373 . S
C500 C502 1.389 . S
C501 H480 0.950 . S
C501 C500 1.373 . S
C501 C517 1.377 . S
C502 C500 1.389 . S
C502 C503 1.524 . S
C502 C516 1.377 . S
C503 C502 1.524 . S
C503 C504 1.397 . S
C503 C508 1.363 . S
C504 H481 0.950 . S
C504 C503 1.397 . S
C504 C505 1.334 . S
C505 H482 0.950 . S
C505 C504 1.334 . S
C505 C506 1.287 . S
C506 C505 1.287 . S
C506 C507 1.524 . S
C506 H525 0.913 . S
C507 H483 0.950 . S
C507 C506 1.524 . S
C507 C508 1.415 . S
C508 H484 0.950 . S
C508 C503 1.363 . S
C508 C507 1.415 . S
C509 H485 0.951 . S
C509 C510 1.366 . S
C509 C511 1.388 . S
C510 C509 1.366 . S
C510 C514 1.385 . S
C511 H486 0.951 . S
C511 C509 1.388 . S
C511 C512 1.366 . S
C512 C511 1.366 . S
C512 C513 1.414 . S
C512 C515 1.499 . S
C513 H487 0.950 . S
C513 C512 1.414 . S
C513 C514 1.374 . S
C514 H488 0.950 . S
C514 C510 1.385 . S
C514 C513 1.374 . S
C515 C512 1.499 . S
C515 C516 1.373 . S
C515 C517 1.389 . S
C516 H489 0.950 . S
C516 C502 1.377 . S
C516 C515 1.373 . S
C517 C501 1.377 . S
C517 C515 1.389 . S
C517 C518 1.524 . S
C518 C517 1.524 . S
C518 C519 1.397 . S
C518 C523 1.363 . S
C519 H490 0.950 . S
C519 C518 1.397 . S
C519 C520 1.334 . S
C520 H491 0.950 . S
C520 C519 1.334 . S
C520 C521 1.287 . S
C521 C520 1.287 . S
C521 C522 1.524 . S
C521 H524 0.999 . S
C522 H492 0.950 . S
C522 C521 1.524 . S
C522 C523 1.415 . S
C523 H493 0.950 . S
C523 C518 1.363 . S
C523 C522 1.415 . S
H524 C521 0.999 . S
H525 C506 0.913 . S
H526 C544 0.951 . S
H527 C546 0.951 . S
H528 C548 0.950 . S
H529 C549 0.950 . S
H530 C551 0.950 . S
H531 C554 0.950 . S
H532 C555 0.950 . S
H533 C557 0.950 . S
H534 C558 0.950 . S
H535 C559 0.951 . S
H536 C561 0.951 . S
H537 C563 0.950 . S
H538 C564 0.950 . S
H539 C566 0.950 . S
H540 C569 0.950 . S
H541 C570 0.933 1_545 S
H542 C572 0.950 . S
H543 C573 0.950 . S
C544 H526 0.951 . S
C544 C545 1.366 . S
C544 C546 1.388 . S
C545 C544 1.366 . S
C545 C549 1.385 . S
C546 H527 0.951 . S
C546 C544 1.388 . S
C546 C547 1.366 . S
C547 C546 1.366 . S
C547 C548 1.414 . S
C547 C550 1.499 . S
C548 H528 0.950 . S
C548 C547 1.414 . S
C548 C549 1.374 . S
C549 H529 0.950 . S
C549 C545 1.385 . S
C549 C548 1.374 . S
C550 C547 1.499 . S
C550 C551 1.373 . S
C550 C552 1.389 . S
C551 H530 0.950 . S
C551 C550 1.373 . S
C551 C567 1.377 . S
C552 C550 1.389 . S
C552 C553 1.524 . S
C552 C566 1.377 . S
C553 C552 1.524 . S
C553 C554 1.397 . S
C553 C558 1.363 . S
C554 H531 0.950 . S
C554 C553 1.397 . S
C554 C555 1.334 . S
C555 H532 0.950 . S
C555 C554 1.334 . S
C555 C556 1.287 . S
C556 C555 1.287 . S
C556 C557 1.524 . S
C556 H575 0.913 . S
C557 H533 0.950 . S
C557 C556 1.524 . S
C557 C558 1.415 . S
C558 H534 0.950 . S
C558 C553 1.363 . S
C558 C557 1.415 . S
C559 H535 0.951 . S
C559 C560 1.366 . S
C559 C561 1.388 . S
C560 C559 1.366 . S
C560 C564 1.385 . S
C561 H536 0.951 . S
C561 C559 1.388 . S
C561 C562 1.366 . S
C562 C561 1.366 . S
C562 C563 1.414 . S
C562 C565 1.499 . S
C563 H537 0.950 . S
C563 C562 1.414 . S
C563 C564 1.374 . S
C564 H538 0.950 . S
C564 C560 1.385 . S
C564 C563 1.374 . S
C565 C562 1.499 . S
C565 C566 1.373 . S
C565 C567 1.389 . S
C566 H539 0.950 . S
C566 C552 1.377 . S
C566 C565 1.373 . S
C567 C551 1.377 . S
C567 C565 1.389 . S
C567 C568 1.524 . S
C568 C567 1.524 . S
C568 C569 1.397 . S
C568 C573 1.363 . S
C569 H540 0.950 . S
C569 C568 1.397 . S
C569 C570 1.334 . S
C570 H541 0.933 1_565 S
C570 C569 1.334 . S
C570 C571 1.287 . S
C571 C570 1.287 . S
C571 C572 1.524 . S
C571 H574 0.999 1_565 S
C572 H542 0.950 . S
C572 C571 1.524 . S
C572 C573 1.415 . S
C573 H543 0.950 . S
C573 C568 1.363 . S
C573 C572 1.415 . S
H574 C571 0.999 1_545 S
H575 C556 0.913 . S
H576 C594 0.951 . S
H577 C596 0.951 . S
H578 C598 0.950 . S
H579 C599 0.950 . S
H580 C601 0.950 . S
H581 C604 0.950 . S
H582 C605 0.950 . S
H583 C607 0.950 . S
H584 C608 0.950 . S
H585 C609 0.951 . S
H586 C611 0.951 . S
H587 C613 0.950 . S
H588 C614 0.950 . S
H589 C616 0.950 . S
H590 C619 0.950 . S
H591 C620 0.950 . S
H592 C622 0.950 . S
H593 C623 0.950 . S
C594 H576 0.951 . S
C594 C595 1.366 . S
C594 C596 1.388 . S
C595 C594 1.366 . S
C595 C599 1.385 . S
C596 H577 0.951 . S
C596 C594 1.388 . S
C596 C597 1.366 . S
C597 C596 1.366 . S
C597 C598 1.414 . S
C597 C600 1.499 . S
C598 H578 0.950 . S
C598 C597 1.414 . S
C598 C599 1.374 . S
C599 H579 0.950 . S
C599 C595 1.385 . S
C599 C598 1.374 . S
C600 C597 1.499 . S
C600 C601 1.373 . S
C600 C602 1.389 . S
C601 H580 0.950 . S
C601 C600 1.373 . S
C601 C617 1.377 . S
C602 C600 1.389 . S
C602 C603 1.524 . S
C602 C616 1.377 . S
C603 C602 1.524 . S
C603 C604 1.397 . S
C603 C608 1.363 . S
C604 H581 0.950 . S
C604 C603 1.397 . S
C604 C605 1.334 . S
C605 H582 0.950 . S
C605 C604 1.334 . S
C605 C606 1.287 . S
C606 C605 1.287 . S
C606 C607 1.524 . S
C606 H625 0.913 . S
C607 H583 0.950 . S
C607 C606 1.524 . S
C607 C608 1.415 . S
C608 H584 0.950 . S
C608 C603 1.363 . S
C608 C607 1.415 . S
C609 H585 0.951 . S
C609 C610 1.366 . S
C609 C611 1.388 . S
C610 C609 1.366 . S
C610 C614 1.385 . S
C611 H586 0.951 . S
C611 C609 1.388 . S
C611 C612 1.366 . S
C612 C611 1.366 . S
C612 C613 1.414 . S
C612 C615 1.499 . S
C613 H587 0.950 . S
C613 C612 1.414 . S
C613 C614 1.374 . S
C614 H588 0.950 . S
C614 C610 1.385 . S
C614 C613 1.374 . S
C615 C612 1.499 . S
C615 C616 1.373 . S
C615 C617 1.389 . S
C616 H589 0.950 . S
C616 C602 1.377 . S
C616 C615 1.373 . S
C617 C601 1.377 . S
C617 C615 1.389 . S
C617 C618 1.524 . S
C618 C617 1.524 . S
C618 C619 1.397 . S
C618 C623 1.363 . S
C619 H590 0.950 . S
C619 C618 1.397 . S
C619 C620 1.334 . S
C620 H591 0.950 . S
C620 C619 1.334 . S
C620 C621 1.287 . S
C621 C620 1.287 . S
C621 C622 1.524 . S
C621 H624 0.999 . S
C622 H592 0.950 . S
C622 C621 1.524 . S
C622 C623 1.415 . S
C623 H593 0.950 . S
C623 C618 1.363 . S
C623 C622 1.415 . S
H624 C621 0.999 . S
H625 C606 0.913 . S
H626 C644 0.951 . S
H627 C646 0.951 . S
H628 C648 0.950 . S
H629 C649 0.950 . S
H630 C651 0.950 . S
H631 C654 0.950 . S
H632 C655 0.950 . S
H633 C657 0.950 . S
H634 C658 0.950 . S
H635 C659 0.951 . S
H636 C661 0.951 . S
H637 C663 0.950 . S
H638 C664 0.950 . S
H639 C666 0.950 . S
H640 C669 0.950 . S
H641 C670 0.950 . S
H642 C672 0.950 . S
H643 C673 0.950 . S
C644 H626 0.951 . S
C644 C645 1.366 . S
C644 C646 1.388 . S
C645 C644 1.366 . S
C645 C649 1.385 . S
C646 H627 0.951 . S
C646 C644 1.388 . S
C646 C647 1.366 . S
C647 C646 1.366 . S
C647 C648 1.414 . S
C647 C650 1.499 . S
C648 H628 0.950 . S
C648 C647 1.414 . S
C648 C649 1.374 . S
C649 H629 0.950 . S
C649 C645 1.385 . S
C649 C648 1.374 . S
C650 C647 1.499 . S
C650 C651 1.373 . S
C650 C652 1.389 . S
C651 H630 0.950 . S
C651 C650 1.373 . S
C651 C667 1.377 . S
C652 C650 1.389 . S
C652 C653 1.524 . S
C652 C666 1.377 . S
C653 C652 1.524 . S
C653 C654 1.397 . S
C653 C658 1.363 . S
C654 H631 0.950 . S
C654 C653 1.397 . S
C654 C655 1.334 . S
C655 H632 0.950 . S
C655 C654 1.334 . S
C655 C656 1.287 . S
C656 C655 1.287 . S
C656 C657 1.524 . S
C656 H675 0.913 . S
C657 H633 0.950 . S
C657 C656 1.524 . S
C657 C658 1.415 . S
C658 H634 0.950 . S
C658 C653 1.363 . S
C658 C657 1.415 . S
C659 H635 0.951 . S
C659 C660 1.366 . S
C659 C661 1.388 . S
C660 C659 1.366 . S
C660 C664 1.385 . S
C661 H636 0.951 . S
C661 C659 1.388 . S
C661 C662 1.366 . S
C662 C661 1.366 . S
C662 C663 1.414 . S
C662 C665 1.499 . S
C663 H637 0.950 . S
C663 C662 1.414 . S
C663 C664 1.374 . S
C664 H638 0.950 . S
C664 C660 1.385 . S
C664 C663 1.374 . S
C665 C662 1.499 . S
C665 C666 1.373 . S
C665 C667 1.389 . S
C666 H639 0.950 . S
C666 C652 1.377 . S
C666 C665 1.373 . S
C667 C651 1.377 . S
C667 C665 1.389 . S
C667 C668 1.524 . S
C668 C667 1.524 . S
C668 C669 1.397 . S
C668 C673 1.363 . S
C669 H640 0.950 . S
C669 C668 1.397 . S
C669 C670 1.334 . S
C670 H641 0.950 . S
C670 C669 1.334 . S
C670 C671 1.287 . S
C671 C670 1.287 . S
C671 C672 1.524 . S
C671 H674 0.999 . S
C672 H642 0.950 . S
C672 C671 1.524 . S
C672 C673 1.415 . S
C673 H643 0.950 . S
C673 C668 1.363 . S
C673 C672 1.415 . S
H674 C671 0.999 . S
H675 C656 0.913 . S
H676 C694 0.951 . S
H677 C696 0.951 . S
H678 C698 0.950 . S
H679 C699 0.950 . S
H680 C701 0.950 . S
H681 C704 0.950 . S
H682 C705 0.950 . S
H683 C707 0.950 1_565 S
H684 C708 0.950 . S
H685 C709 0.951 . S
H686 C711 0.951 . S
H687 C713 0.950 . S
H688 C714 0.950 . S
H689 C716 0.950 . S
H690 C719 0.950 . S
H691 C720 0.950 . S
H692 C722 0.950 . S
H693 C723 0.950 . S
C694 H676 0.951 . S
C694 C695 1.366 . S
C694 C696 1.388 . S
C695 C694 1.366 . S
C695 C699 1.385 . S
C696 H677 0.951 . S
C696 C694 1.388 . S
C696 C697 1.366 . S
C697 C696 1.366 . S
C697 C698 1.414 . S
C697 C700 1.499 . S
C698 H678 0.950 . S
C698 C697 1.414 . S
C698 C699 1.374 . S
C699 H679 0.950 . S
C699 C695 1.385 . S
C699 C698 1.374 . S
C700 C697 1.499 . S
C700 C701 1.373 . S
C700 C702 1.389 . S
C701 H680 0.950 . S
C701 C700 1.373 . S
C701 C717 1.377 . S
C702 C700 1.389 . S
C702 C703 1.524 . S
C702 C716 1.377 . S
C703 C702 1.524 . S
C703 C704 1.397 . S
C703 C708 1.363 . S
C704 H681 0.950 . S
C704 C703 1.397 . S
C704 C705 1.334 . S
C705 H682 0.950 . S
C705 C704 1.334 . S
C705 C706 1.287 . S
C706 C705 1.287 . S
C706 C707 1.524 . S
C706 H725 0.913 1_545 S
C707 H683 0.950 1_545 S
C707 C706 1.524 . S
C707 C708 1.415 . S
C708 H684 0.950 . S
C708 C703 1.363 . S
C708 C707 1.415 . S
C709 H685 0.951 . S
C709 C710 1.366 . S
C709 C711 1.388 . S
C710 C709 1.366 . S
C710 C714 1.385 . S
C711 H686 0.951 . S
C711 C709 1.388 . S
C711 C712 1.366 . S
C712 C711 1.366 . S
C712 C713 1.414 . S
C712 C715 1.499 . S
C713 H687 0.950 . S
C713 C712 1.414 . S
C713 C714 1.374 . S
C714 H688 0.950 . S
C714 C710 1.385 . S
C714 C713 1.374 . S
C715 C712 1.499 . S
C715 C716 1.373 . S
C715 C717 1.389 . S
C716 H689 0.950 . S
C716 C702 1.377 . S
C716 C715 1.373 . S
C717 C701 1.377 . S
C717 C715 1.389 . S
C717 C718 1.524 . S
C718 C717 1.524 . S
C718 C719 1.397 . S
C718 C723 1.363 . S
C719 H690 0.950 . S
C719 C718 1.397 . S
C719 C720 1.334 . S
C720 H691 0.950 . S
C720 C719 1.334 . S
C720 C721 1.287 . S
C721 C720 1.287 . S
C721 C722 1.524 . S
C721 H724 0.999 . S
C722 H692 0.950 . S
C722 C721 1.524 . S
C722 C723 1.415 . S
C723 H693 0.950 . S
C723 C718 1.363 . S
C723 C722 1.415 . S
H724 C721 0.999 . S
H725 C706 0.913 1_565 S
H726 C744 0.951 . S
H727 C746 0.951 . S
H728 C748 0.950 . S
H729 C749 0.950 . S
H730 C751 0.950 1_545 S
H731 C754 0.950 . S
H732 C755 0.950 . S
H733 C757 0.950 . S
H734 C758 0.950 . S
H735 C759 0.951 . S
H736 C761 0.951 . S
H737 C763 0.950 . S
H738 C764 0.950 . S
H739 C766 0.950 . S
H740 C769 0.950 . S
H741 C770 0.950 . S
H742 C772 0.950 . S
H743 C773 0.950 . S
C744 H726 0.951 . S
C744 C745 1.366 . S
C744 C746 1.388 . S
C745 C744 1.366 . S
C745 C749 1.385 . S
C746 H727 0.951 . S
C746 C744 1.388 . S
C746 C747 1.366 . S
C747 C746 1.366 . S
C747 C748 1.414 . S
C747 C750 1.499 . S
C748 H728 0.950 . S
C748 C747 1.414 . S
C748 C749 1.374 . S
C749 H729 0.950 . S
C749 C745 1.385 . S
C749 C748 1.374 . S
C750 C747 1.499 . S
C750 C751 1.373 . S
C750 C752 1.389 . S
C751 H730 0.950 1_565 S
C751 C750 1.373 . S
C751 C767 1.377 1_565 S
C752 C750 1.389 . S
C752 C753 1.524 . S
C752 C766 1.377 . S
C753 C752 1.524 . S
C753 C754 1.397 . S
C753 C758 1.363 . S
C754 H731 0.950 . S
C754 C753 1.397 . S
C754 C755 1.334 . S
C755 H732 0.950 . S
C755 C754 1.334 . S
C755 C756 1.287 . S
C756 C755 1.287 . S
C756 C757 1.524 . S
C756 H775 0.913 . S
C757 H733 0.950 . S
C757 C756 1.524 . S
C757 C758 1.415 . S
C758 H734 0.950 . S
C758 C753 1.363 . S
C758 C757 1.415 . S
C759 H735 0.951 . S
C759 C760 1.366 . S
C759 C761 1.388 . S
C760 C759 1.366 . S
C760 C764 1.385 . S
C761 H736 0.951 . S
C761 C759 1.388 . S
C761 C762 1.366 . S
C762 C761 1.366 . S
C762 C763 1.414 . S
C762 C765 1.499 . S
C763 H737 0.950 . S
C763 C762 1.414 . S
C763 C764 1.374 . S
C764 H738 0.950 . S
C764 C760 1.385 . S
C764 C763 1.374 . S
C765 C762 1.499 . S
C765 C766 1.373 . S
C765 C767 1.390 1_565 S
C766 H739 0.950 . S
C766 C752 1.377 . S
C766 C765 1.373 . S
C767 C751 1.377 1_545 S
C767 C765 1.390 1_545 S
C767 C768 1.523 . S
C768 C767 1.523 . S
C768 C769 1.397 . S
C768 C773 1.363 . S
C769 H740 0.950 . S
C769 C768 1.397 . S
C769 C770 1.334 . S
C770 H741 0.950 . S
C770 C769 1.334 . S
C770 C771 1.287 . S
C771 C770 1.287 . S
C771 C772 1.524 . S
C771 H774 0.999 . S
C772 H742 0.950 . S
C772 C771 1.524 . S
C772 C773 1.415 . S
C773 H743 0.950 . S
C773 C768 1.363 . S
C773 C772 1.415 . S
H774 C771 0.999 . S
H775 C756 0.913 . S
H776 C794 0.951 . S
H777 C796 0.951 . S
H778 C798 0.950 . S
H779 C799 0.950 . S
H780 C801 0.950 . S
H781 C804 0.950 . S
H782 C805 0.950 . S
H783 C807 0.950 . S
H784 C808 0.950 . S
H785 C809 0.954 . S
H786 C811 0.951 . S
H787 C813 0.950 . S
H788 C814 0.950 . S
H789 C816 0.950 . S
H790 C819 0.950 . S
H791 C820 0.950 . S
H792 C822 0.950 . S
H793 C823 0.926 1_545 S
C794 H776 0.951 . S
C794 C795 1.366 . S
C794 C796 1.388 . S
C795 C794 1.366 . S
C795 C799 1.385 . S
C796 H777 0.951 . S
C796 C794 1.388 . S
C796 C797 1.366 . S
C797 C796 1.366 . S
C797 C798 1.414 . S
C797 C800 1.499 . S
C798 H778 0.950 . S
C798 C797 1.414 . S
C798 C799 1.374 . S
C799 H779 0.950 . S
C799 C795 1.385 . S
C799 C798 1.374 . S
C800 C797 1.499 . S
C800 C801 1.373 . S
C800 C802 1.389 . S
C801 H780 0.950 . S
C801 C800 1.373 . S
C801 C817 1.377 . S
C802 C800 1.389 . S
C802 C803 1.524 . S
C802 C816 1.377 . S
C803 C802 1.524 . S
C803 C804 1.397 . S
C803 C808 1.363 . S
C804 H781 0.950 . S
C804 C803 1.397 . S
C804 C805 1.334 . S
C805 H782 0.950 . S
C805 C804 1.334 . S
C805 C806 1.287 . S
C806 C805 1.287 . S
C806 C807 1.524 . S
C806 H825 0.913 . S
C807 H783 0.950 . S
C807 C806 1.524 . S
C807 C808 1.415 . S
C808 H784 0.950 . S
C808 C803 1.363 . S
C808 C807 1.415 . S
C809 H785 0.954 . S
C809 C810 1.366 1_565 S
C809 C811 1.385 1_565 S
C810 C809 1.366 1_545 S
C810 C814 1.385 . S
C811 H786 0.951 . S
C811 C809 1.385 1_545 S
C811 C812 1.366 . S
C812 C811 1.366 . S
C812 C813 1.414 . S
C812 C815 1.499 . S
C813 H787 0.950 . S
C813 C812 1.414 . S
C813 C814 1.374 . S
C814 H788 0.950 . S
C814 C810 1.385 . S
C814 C813 1.374 . S
C815 C812 1.499 . S
C815 C816 1.373 . S
C815 C817 1.389 . S
C816 H789 0.950 . S
C816 C802 1.377 . S
C816 C815 1.373 . S
C817 C801 1.377 . S
C817 C815 1.389 . S
C817 C818 1.524 1_545 S
C818 C817 1.524 1_565 S
C818 C819 1.397 . S
C818 C823 1.363 . S
C819 H790 0.950 . S
C819 C818 1.397 . S
C819 C820 1.334 . S
C820 H791 0.950 . S
C820 C819 1.334 . S
C820 C821 1.287 . S
C821 C820 1.287 . S
C821 C822 1.524 . S
C821 H824 0.999 . S
C822 H792 0.950 . S
C822 C821 1.524 . S
C822 C823 1.415 . S
C823 H793 0.926 1_565 S
C823 C818 1.363 . S
C823 C822 1.415 . S
H824 C821 0.999 . S
H825 C806 0.913 . S
H826 C844 0.951 . S
H827 C846 0.951 . S
H828 C848 0.950 . S
H829 C849 0.950 . S
H830 C851 0.950 . S
H831 C854 0.950 . S
H832 C855 0.950 . S
H833 C857 0.950 . S
H834 C858 0.950 . S
H835 C859 0.951 . S
H836 C861 0.951 . S
H837 C863 0.950 . S
H838 C864 0.950 . S
H839 C866 0.950 . S
H840 C869 0.950 . S
H841 C870 0.950 . S
H842 C872 0.950 . S
H843 C873 0.950 . S
C844 H826 0.951 . S
C844 C845 1.366 . S
C844 C846 1.388 . S
C845 C844 1.366 . S
C845 C849 1.385 . S
C846 H827 0.951 . S
C846 C844 1.388 . S
C846 C847 1.366 . S
C847 C846 1.366 . S
C847 C848 1.414 . S
C847 C850 1.499 . S
C848 H828 0.950 . S
C848 C847 1.414 . S
C848 C849 1.374 . S
C849 H829 0.950 . S
C849 C845 1.385 . S
C849 C848 1.374 . S
C850 C847 1.499 . S
C850 C851 1.373 . S
C850 C852 1.389 . S
C851 H830 0.950 . S
C851 C850 1.373 . S
C851 C867 1.377 . S
C852 C850 1.389 . S
C852 C853 1.524 . S
C852 C866 1.377 . S
C853 C852 1.524 . S
C853 C854 1.397 . S
C853 C858 1.363 . S
C854 H831 0.950 . S
C854 C853 1.397 . S
C854 C855 1.334 . S
C855 H832 0.950 . S
C855 C854 1.334 . S
C855 C856 1.287 . S
C856 C855 1.287 . S
C856 C857 1.524 . S
C856 H875 0.913 . S
C857 H833 0.950 . S
C857 C856 1.524 . S
C857 C858 1.415 . S
C858 H834 0.950 . S
C858 C853 1.363 . S
C858 C857 1.415 . S
C859 H835 0.951 . S
C859 C860 1.366 . S
C859 C861 1.388 . S
C860 C859 1.366 . S
C860 C864 1.385 . S
C861 H836 0.951 . S
C861 C859 1.388 . S
C861 C862 1.366 . S
C862 C861 1.366 . S
C862 C863 1.414 . S
C862 C865 1.499 . S
C863 H837 0.950 . S
C863 C862 1.414 . S
C863 C864 1.374 . S
C864 H838 0.950 . S
C864 C860 1.385 . S
C864 C863 1.374 . S
C865 C862 1.499 . S
C865 C866 1.373 . S
C865 C867 1.389 . S
C866 H839 0.950 . S
C866 C852 1.377 . S
C866 C865 1.373 . S
C867 C851 1.377 . S
C867 C865 1.389 . S
C867 C868 1.524 . S
C868 C867 1.524 . S
C868 C869 1.397 . S
C868 C873 1.363 . S
C869 H840 0.950 . S
C869 C868 1.397 . S
C869 C870 1.334 . S
C870 H841 0.950 . S
C870 C869 1.334 . S
C870 C871 1.287 . S
C871 C870 1.287 . S
C871 C872 1.524 . S
C871 H874 0.999 . S
C872 H842 0.950 . S
C872 C871 1.524 . S
C872 C873 1.415 . S
C873 H843 0.950 . S
C873 C868 1.363 . S
C873 C872 1.415 . S
H874 C871 0.999 . S
H875 C856 0.913 . S
H876 C894 0.951 . S
H877 C896 0.951 . S
H878 C898 0.950 . S
H879 C899 0.950 . S
H880 C901 0.950 . S
H881 C904 0.950 . S
H882 C905 0.950 . S
H883 C907 0.950 . S
H884 C908 0.950 . S
H885 C909 0.970 . S
H886 C911 0.951 . S
H887 C913 0.950 . S
H888 C914 0.950 . S
H889 C916 0.950 . S
H890 C919 0.950 . S
H891 C920 0.950 . S
H892 C922 0.950 . S
H893 C923 0.950 . S
C894 H876 0.951 . S
C894 C895 1.366 . S
C894 C896 1.388 . S
C895 C894 1.366 . S
C895 C899 1.385 . S
C896 H877 0.951 . S
C896 C894 1.388 . S
C896 C897 1.366 . S
C897 C896 1.366 . S
C897 C898 1.414 . S
C897 C900 1.499 . S
C898 H878 0.950 . S
C898 C897 1.414 . S
C898 C899 1.374 . S
C899 H879 0.950 . S
C899 C895 1.385 . S
C899 C898 1.374 . S
C900 C897 1.499 . S
C900 C901 1.373 . S
C900 C902 1.389 . S
C901 H880 0.950 . S
C901 C900 1.373 . S
C901 C917 1.377 . S
C902 C900 1.389 . S
C902 C903 1.524 . S
C902 C916 1.377 . S
C903 C902 1.524 . S
C903 C904 1.397 . S
C903 C908 1.363 . S
C904 H881 0.950 . S
C904 C903 1.397 . S
C904 C905 1.334 . S
C905 H882 0.950 . S
C905 C904 1.334 . S
C905 C906 1.287 . S
C906 C905 1.287 . S
C906 C907 1.524 . S
C906 H925 0.913 . S
C907 H883 0.950 . S
C907 C906 1.524 . S
C907 C908 1.415 . S
C908 H884 0.950 . S
C908 C903 1.363 . S
C908 C907 1.415 . S
C909 H885 0.970 . S
C909 C910 1.366 . S
C909 C911 1.388 . S
C910 C909 1.366 . S
C910 C914 1.385 . S
C911 H886 0.951 . S
C911 C909 1.388 . S
C911 C912 1.366 . S
C912 C911 1.366 . S
C912 C913 1.414 . S
C912 C915 1.499 . S
C913 H887 0.950 . S
C913 C912 1.414 . S
C913 C914 1.374 . S
C914 H888 0.950 . S
C914 C910 1.385 . S
C914 C913 1.374 . S
C915 C912 1.499 . S
C915 C916 1.373 . S
C915 C917 1.389 . S
C916 H889 0.950 . S
C916 C902 1.377 . S
C916 C915 1.373 . S
C917 C901 1.377 . S
C917 C915 1.389 . S
C917 C918 1.524 . S
C918 C917 1.524 . S
C918 C919 1.397 . S
C918 C923 1.363 . S
C919 H890 0.950 . S
C919 C918 1.397 . S
C919 C920 1.334 . S
C920 H891 0.950 . S
C920 C919 1.334 . S
C920 C921 1.287 . S
C921 C920 1.287 . S
C921 C922 1.524 . S
C921 H924 0.999 . S
C922 H892 0.950 . S
C922 C921 1.524 . S
C922 C923 1.415 . S
C923 H893 0.950 . S
C923 C918 1.363 . S
C923 C922 1.415 . S
H924 C921 0.999 . S
H925 C906 0.913 . S
H926 C944 0.951 . S
H927 C946 0.951 . S
H928 C948 0.950 . S
H929 C949 0.950 . S
H930 C951 0.950 . S
H931 C954 0.950 . S
H932 C955 0.950 . S
H933 C957 0.950 . S
H934 C958 0.950 . S
H935 C959 0.951 . S
H936 C961 0.951 . S
H937 C963 0.950 . S
H938 C964 0.950 . S
H939 C966 0.950 . S
H940 C969 0.950 . S
H941 C970 0.950 . S
H942 C972 0.950 . S
H943 C973 0.950 . S
C944 H926 0.951 . S
C944 C945 1.366 . S
C944 C946 1.388 . S
C945 C944 1.366 . S
C945 C949 1.385 . S
C946 H927 0.951 . S
C946 C944 1.388 . S
C946 C947 1.366 . S
C947 C946 1.366 . S
C947 C948 1.414 . S
C947 C950 1.499 . S
C948 H928 0.950 . S
C948 C947 1.414 . S
C948 C949 1.374 . S
C949 H929 0.950 . S
C949 C945 1.385 . S
C949 C948 1.374 . S
C950 C947 1.499 . S
C950 C951 1.373 . S
C950 C952 1.389 . S
C951 H930 0.950 . S
C951 C950 1.373 . S
C951 C967 1.377 . S
C952 C950 1.389 . S
C952 C953 1.524 . S
C952 C966 1.377 . S
C953 C952 1.524 . S
C953 C954 1.397 1_455 S
C953 C958 1.363 . S
C954 H931 0.950 . S
C954 C953 1.397 1_655 S
C954 C955 1.334 . S
C955 H932 0.950 . S
C955 C954 1.334 . S
C955 C956 1.287 . S
C956 C955 1.287 . S
C956 C957 1.524 . S
C956 H975 0.913 . S
C957 H933 0.950 . S
C957 C956 1.524 . S
C957 C958 1.415 1_655 S
C958 H934 0.950 . S
C958 C953 1.363 . S
C958 C957 1.415 1_455 S
C959 H935 0.951 . S
C959 C960 1.366 . S
C959 C961 1.388 . S
C960 C959 1.366 . S
C960 C964 1.385 . S
C961 H936 0.951 . S
C961 C959 1.388 . S
C961 C962 1.366 . S
C962 C961 1.366 . S
C962 C963 1.414 . S
C962 C965 1.499 . S
C963 H937 0.950 . S
C963 C962 1.414 . S
C963 C964 1.374 . S
C964 H938 0.950 . S
C964 C960 1.385 . S
C964 C963 1.374 . S
C965 C962 1.499 . S
C965 C966 1.373 . S
C965 C967 1.389 . S
C966 H939 0.950 . S
C966 C952 1.377 . S
C966 C965 1.373 . S
C967 C951 1.377 . S
C967 C965 1.389 . S
C967 C968 1.524 . S
C968 C967 1.524 . S
C968 C969 1.397 . S
C968 C973 1.363 . S
C969 H940 0.950 . S
C969 C968 1.397 . S
C969 C970 1.334 . S
C970 H941 0.950 . S
C970 C969 1.334 . S
C970 C971 1.287 . S
C971 C970 1.287 . S
C971 C972 1.524 . S
C971 H974 0.999 . S
C972 H942 0.950 . S
C972 C971 1.524 . S
C972 C973 1.415 . S
C973 H943 0.950 . S
C973 C968 1.363 . S
C973 C972 1.415 . S
H974 C971 0.999 . S
H975 C956 0.913 . S
H976 C994 0.951 . S
H977 C996 0.951 . S
H978 C998 0.950 . S
H979 C999 0.950 . S
H980 C1001 0.950 . S
H981 C1004 0.950 . S
H982 C1005 0.950 . S
H983 C1007 0.950 . S
H984 C1008 0.950 . S
H985 C1009 0.951 . S
H986 C1011 0.951 . S
H987 C1013 0.950 . S
H988 C1014 0.950 . S
H989 C1016 0.950 . S
H990 C1019 0.950 . S
H991 C1020 0.950 . S
H992 C1022 0.950 . S
H993 C1023 0.950 . S
C994 H976 0.951 . S
C994 C995 1.366 1_455 S
C994 C996 1.388 . S
C995 C994 1.366 1_655 S
C995 C999 1.385 . S
C996 H977 0.951 . S
C996 C994 1.388 . S
C996 C997 1.366 . S
C997 C996 1.366 . S
C997 C998 1.414 . S
C997 C1000 1.499 . S
C998 H978 0.950 . S
C998 C997 1.414 . S
C998 C999 1.374 1_455 S
C999 H979 0.950 . S
C999 C995 1.385 . S
C999 C998 1.374 1_655 S
C1000 C997 1.499 . S
C1000 C1001 1.373 . S
C1000 C1002 1.389 . S
C1001 H980 0.950 . S
C1001 C1000 1.373 . S
C1001 C1017 1.377 . S
C1002 C1000 1.389 . S
C1002 C1003 1.524 . S
C1002 C1016 1.377 . S
C1003 C1002 1.524 . S
C1003 C1004 1.397 . S
C1003 C1008 1.363 . S
C1004 H981 0.950 . S
C1004 C1003 1.397 . S
C1004 C1005 1.334 . S
C1005 H982 0.950 . S
C1005 C1004 1.334 . S
C1005 C1006 1.287 . S
C1006 C1005 1.287 . S
C1006 C1007 1.524 . S
C1006 H1025 0.913 . S
C1007 H983 0.950 . S
C1007 C1006 1.524 . S
C1007 C1008 1.415 . S
C1008 H984 0.950 . S
C1008 C1003 1.363 . S
C1008 C1007 1.415 . S
C1009 H985 0.951 . S
C1009 C1010 1.366 . S
C1009 C1011 1.388 . S
C1010 C1009 1.366 . S
C1010 C1014 1.385 . S
C1011 H986 0.951 . S
C1011 C1009 1.388 . S
C1011 C1012 1.366 . S
C1012 C1011 1.366 . S
C1012 C1013 1.414 . S
C1012 C1015 1.499 . S
C1013 H987 0.950 . S
C1013 C1012 1.414 . S
C1013 C1014 1.374 . S
C1014 H988 0.950 . S
C1014 C1010 1.385 . S
C1014 C1013 1.374 . S
C1015 C1012 1.499 . S
C1015 C1016 1.373 . S
C1015 C1017 1.389 . S
C1016 H989 0.950 . S
C1016 C1002 1.377 . S
C1016 C1015 1.373 . S
C1017 C1001 1.377 . S
C1017 C1015 1.389 . S
C1017 C1018 1.524 . S
C1018 C1017 1.524 . S
C1018 C1019 1.397 . S
C1018 C1023 1.363 . S
C1019 H990 0.950 . S
C1019 C1018 1.397 . S
C1019 C1020 1.334 . S
C1020 H991 0.950 . S
C1020 C1019 1.334 . S
C1020 C1021 1.287 . S
C1021 C1020 1.287 . S
C1021 C1022 1.524 . S
C1021 H1024 0.999 . S
C1022 H992 0.950 . S
C1022 C1021 1.524 . S
C1022 C1023 1.415 . S
C1023 H993 0.950 . S
C1023 C1018 1.363 . S
C1023 C1022 1.415 . S
H1024 C1021 0.999 . S
H1025 C1006 0.913 . S
H1026 C1044 0.951 . S
H1027 C1046 0.951 . S
H1028 C1048 0.950 . S
H1029 C1049 0.950 . S
H1030 C1051 0.950 . S
H1031 C1054 0.950 . S
H1032 C1055 0.950 . S
H1033 C1057 0.950 . S
H1034 C1058 0.950 . S
H1035 C1059 0.951 . S
H1036 C1061 0.951 . S
H1037 C1063 0.950 . S
H1038 C1064 0.950 . S
H1039 C1066 0.950 . S
H1040 C1069 0.950 . S
H1041 C1070 0.950 . S
H1042 C1072 0.950 . S
H1043 C1073 0.950 . S
C1044 H1026 0.951 . S
C1044 C1045 1.366 . S
C1044 C1046 1.388 . S
C1045 C1044 1.366 . S
C1045 C1049 1.385 . S
C1046 H1027 0.951 . S
C1046 C1044 1.388 . S
C1046 C1047 1.366 . S
C1047 C1046 1.366 . S
C1047 C1048 1.414 . S
C1047 C1050 1.499 . S
C1048 H1028 0.950 . S
C1048 C1047 1.414 . S
C1048 C1049 1.374 . S
C1049 H1029 0.950 . S
C1049 C1045 1.385 . S
C1049 C1048 1.374 . S
C1050 C1047 1.499 . S
C1050 C1051 1.373 . S
C1050 C1052 1.389 . S
C1051 H1030 0.950 . S
C1051 C1050 1.373 . S
C1051 C1067 1.377 . S
C1052 C1050 1.389 . S
C1052 C1053 1.524 . S
C1052 C1066 1.377 . S
C1053 C1052 1.524 . S
C1053 C1054 1.397 . S
C1053 C1058 1.363 . S
C1054 H1031 0.950 . S
C1054 C1053 1.397 . S
C1054 C1055 1.334 . S
C1055 H1032 0.950 . S
C1055 C1054 1.334 . S
C1055 C1056 1.287 . S
C1056 C1055 1.287 . S
C1056 C1057 1.524 . S
C1056 H1075 0.913 . S
C1057 H1033 0.950 . S
C1057 C1056 1.524 . S
C1057 C1058 1.415 . S
C1058 H1034 0.950 . S
C1058 C1053 1.363 . S
C1058 C1057 1.415 . S
C1059 H1035 0.951 . S
C1059 C1060 1.366 . S
C1059 C1061 1.388 . S
C1060 C1059 1.366 . S
C1060 C1064 1.385 . S
C1061 H1036 0.951 . S
C1061 C1059 1.388 . S
C1061 C1062 1.366 . S
C1062 C1061 1.366 . S
C1062 C1063 1.414 . S
C1062 C1065 1.499 . S
C1063 H1037 0.950 . S
C1063 C1062 1.414 . S
C1063 C1064 1.374 . S
C1064 H1038 0.950 . S
C1064 C1060 1.385 . S
C1064 C1063 1.374 . S
C1065 C1062 1.499 . S
C1065 C1066 1.373 . S
C1065 C1067 1.389 . S
C1066 H1039 0.950 . S
C1066 C1052 1.377 . S
C1066 C1065 1.373 . S
C1067 C1051 1.377 . S
C1067 C1065 1.389 . S
C1067 C1068 1.524 . S
C1068 C1067 1.524 . S
C1068 C1069 1.397 . S
C1068 C1073 1.363 . S
C1069 H1040 0.950 . S
C1069 C1068 1.397 . S
C1069 C1070 1.334 . S
C1070 H1041 0.950 . S
C1070 C1069 1.334 . S
C1070 C1071 1.287 . S
C1071 C1070 1.287 . S
C1071 C1072 1.524 . S
C1071 H1074 0.999 . S
C1072 H1042 0.950 . S
C1072 C1071 1.524 . S
C1072 C1073 1.415 . S
C1073 H1043 0.950 . S
C1073 C1068 1.363 . S
C1073 C1072 1.415 . S
H1074 C1071 0.999 . S
H1075 C1056 0.913 . S
H1076 C1094 0.951 . S
H1077 C1096 0.951 . S
H1078 C1098 0.950 . S
H1079 C1099 0.950 . S
H1080 C1101 0.950 . S
H1081 C1104 0.950 . S
H1082 C1105 0.950 . S
H1083 C1107 0.950 . S
H1084 C1108 0.950 . S
H1085 C1109 0.951 . S
H1086 C1111 0.951 . S
H1087 C1113 0.950 . S
H1088 C1114 0.950 . S
H1089 C1116 0.950 . S
H1090 C1119 0.950 . S
H1091 C1120 0.950 . S
H1092 C1122 0.950 . S
H1093 C1123 0.950 . S
C1094 H1076 0.951 . S
C1094 C1095 1.366 . S
C1094 C1096 1.388 . S
C1095 C1094 1.366 . S
C1095 C1099 1.385 . S
C1096 H1077 0.951 . S
C1096 C1094 1.388 . S
C1096 C1097 1.366 . S
C1097 C1096 1.366 . S
C1097 C1098 1.414 . S
C1097 C1100 1.499 . S
C1098 H1078 0.950 . S
C1098 C1097 1.414 . S
C1098 C1099 1.374 . S
C1099 H1079 0.950 . S
C1099 C1095 1.385 . S
C1099 C1098 1.374 . S
C1100 C1097 1.499 . S
C1100 C1101 1.373 . S
C1100 C1102 1.389 . S
C1101 H1080 0.950 . S
C1101 C1100 1.373 . S
C1101 C1117 1.377 . S
C1102 C1100 1.389 . S
C1102 C1103 1.524 . S
C1102 C1116 1.377 . S
C1103 C1102 1.524 . S
C1103 C1104 1.397 . S
C1103 C1108 1.363 . S
C1104 H1081 0.950 . S
C1104 C1103 1.397 . S
C1104 C1105 1.334 1_556 S
C1105 H1082 0.950 . S
C1105 C1104 1.334 1_554 S
C1105 C1106 1.287 . S
C1106 C1105 1.287 . S
C1106 C1107 1.524 . S
C1106 H1125 0.913 . S
C1107 H1083 0.950 . S
C1107 C1106 1.524 . S
C1107 C1108 1.415 1_554 S
C1108 H1084 0.950 . S
C1108 C1103 1.363 . S
C1108 C1107 1.415 1_556 S
C1109 H1085 0.951 . S
C1109 C1110 1.366 . S
C1109 C1111 1.388 . S
C1110 C1109 1.366 . S
C1110 C1114 1.385 . S
C1111 H1086 0.951 . S
C1111 C1109 1.388 . S
C1111 C1112 1.366 . S
C1112 C1111 1.366 . S
C1112 C1113 1.414 . S
C1112 C1115 1.499 . S
C1113 H1087 0.950 . S
C1113 C1112 1.414 . S
C1113 C1114 1.374 . S
C1114 H1088 0.950 . S
C1114 C1110 1.385 . S
C1114 C1113 1.374 . S
C1115 C1112 1.499 . S
C1115 C1116 1.373 . S
C1115 C1117 1.389 . S
C1116 H1089 0.950 . S
C1116 C1102 1.377 . S
C1116 C1115 1.373 . S
C1117 C1101 1.377 . S
C1117 C1115 1.389 . S
C1117 C1118 1.524 . S
C1118 C1117 1.524 . S
C1118 C1119 1.397 . S
C1118 C1123 1.363 . S
C1119 H1090 0.950 . S
C1119 C1118 1.397 . S
C1119 C1120 1.334 . S
C1120 H1091 0.950 . S
C1120 C1119 1.334 . S
C1120 C1121 1.287 . S
C1121 C1120 1.287 . S
C1121 C1122 1.524 . S
C1121 H1124 0.999 . S
C1122 H1092 0.950 . S
C1122 C1121 1.524 . S
C1122 C1123 1.415 . S
C1123 H1093 0.950 . S
C1123 C1118 1.363 . S
C1123 C1122 1.415 . S
H1124 C1121 0.999 . S
H1125 C1106 0.913 . S
H1126 C1144 0.951 . S
H1127 C1146 0.951 . S
H1128 C1148 0.950 . S
H1129 C1149 0.950 . S
H1130 C1151 0.950 . S
H1131 C1154 0.950 . S
H1132 C1155 0.950 . S
H1133 C1157 0.950 . S
H1134 C1158 0.950 . S
H1135 C1159 0.951 . S
H1136 C1161 0.951 . S
H1137 C1163 0.950 . S
H1138 C1164 0.950 . S
H1139 C1166 0.950 . S
H1140 C1169 0.950 . S
H1141 C1170 0.950 . S
H1142 C1172 0.950 . S
H1143 C1173 0.950 . S
C1144 H1126 0.951 . S
C1144 C1145 1.366 . S
C1144 C1146 1.388 . S
C1145 C1144 1.366 . S
C1145 C1149 1.385 . S
C1146 H1127 0.951 . S
C1146 C1144 1.388 . S
C1146 C1147 1.366 . S
C1147 C1146 1.366 . S
C1147 C1148 1.414 . S
C1147 C1150 1.499 . S
C1148 H1128 0.950 . S
C1148 C1147 1.414 . S
C1148 C1149 1.374 . S
C1149 H1129 0.950 . S
C1149 C1145 1.385 . S
C1149 C1148 1.374 . S
C1150 C1147 1.499 . S
C1150 C1151 1.373 . S
C1150 C1152 1.389 . S
C1151 H1130 0.950 . S
C1151 C1150 1.373 . S
C1151 C1167 1.377 . S
C1152 C1150 1.389 . S
C1152 C1153 1.524 . S
C1152 C1166 1.377 . S
C1153 C1152 1.524 . S
C1153 C1154 1.397 . S
C1153 C1158 1.363 . S
C1154 H1131 0.950 . S
C1154 C1153 1.397 . S
C1154 C1155 1.334 . S
C1155 H1132 0.950 . S
C1155 C1154 1.334 . S
C1155 C1156 1.287 . S
C1156 C1155 1.287 . S
C1156 C1157 1.524 . S
C1156 H1175 0.913 . S
C1157 H1133 0.950 . S
C1157 C1156 1.524 . S
C1157 C1158 1.415 . S
C1158 H1134 0.950 . S
C1158 C1153 1.363 . S
C1158 C1157 1.415 . S
C1159 H1135 0.951 . S
C1159 C1160 1.366 . S
C1159 C1161 1.388 . S
C1160 C1159 1.366 . S
C1160 C1164 1.385 . S
C1161 H1136 0.951 . S
C1161 C1159 1.388 . S
C1161 C1162 1.366 . S
C1162 C1161 1.366 . S
C1162 C1163 1.414 . S
C1162 C1165 1.499 . S
C1163 H1137 0.950 . S
C1163 C1162 1.414 . S
C1163 C1164 1.374 . S
C1164 H1138 0.950 . S
C1164 C1160 1.385 . S
C1164 C1163 1.374 . S
C1165 C1162 1.499 . S
C1165 C1166 1.373 . S
C1165 C1167 1.389 . S
C1166 H1139 0.950 . S
C1166 C1152 1.377 . S
C1166 C1165 1.373 . S
C1167 C1151 1.377 . S
C1167 C1165 1.389 . S
C1167 C1168 1.524 . S
C1168 C1167 1.524 . S
C1168 C1169 1.397 . S
C1168 C1173 1.363 . S
C1169 H1140 0.950 . S
C1169 C1168 1.397 . S
C1169 C1170 1.334 . S
C1170 H1141 0.950 . S
C1170 C1169 1.334 . S
C1170 C1171 1.287 . S
C1171 C1170 1.287 . S
C1171 C1172 1.524 . S
C1171 H1174 0.999 . S
C1172 H1142 0.950 . S
C1172 C1171 1.524 . S
C1172 C1173 1.415 . S
C1173 H1143 0.950 . S
C1173 C1168 1.363 . S
C1173 C1172 1.415 . S
H1174 C1171 0.999 . S
H1175 C1156 0.913 . S
H1176 C1194 0.951 . S
H1177 C1196 0.951 . S
H1178 C1198 0.950 . S
H1179 C1199 0.950 . S
H1180 C1201 0.950 . S
H1181 C1204 0.950 . S
H1182 C1205 0.950 1_455 S
H1183 C1207 0.950 . S
H1184 C1208 0.950 . S
H1185 C1209 0.951 . S
H1186 C1211 0.951 . S
H1187 C1213 0.950 . S
H1188 C1214 0.950 . S
H1189 C1216 0.950 . S
H1190 C1219 0.950 . S
H1191 C1220 0.950 . S
H1192 C1222 0.950 . S
H1193 C1223 0.950 . S
C1194 H1176 0.951 . S
C1194 C1195 1.366 . S
C1194 C1196 1.388 . S
C1195 C1194 1.366 . S
C1195 C1199 1.385 . S
C1196 H1177 0.951 . S
C1196 C1194 1.388 . S
C1196 C1197 1.366 . S
C1197 C1196 1.366 . S
C1197 C1198 1.414 . S
C1197 C1200 1.499 . S
C1198 H1178 0.950 . S
C1198 C1197 1.414 . S
C1198 C1199 1.374 . S
C1199 H1179 0.950 . S
C1199 C1195 1.385 . S
C1199 C1198 1.374 . S
C1200 C1197 1.499 . S
C1200 C1201 1.373 . S
C1200 C1202 1.389 . S
C1201 H1180 0.950 . S
C1201 C1200 1.373 . S
C1201 C1217 1.377 . S
C1202 C1200 1.389 . S
C1202 C1203 1.524 . S
C1202 C1216 1.377 . S
C1203 C1202 1.524 . S
C1203 C1204 1.397 . S
C1203 C1208 1.363 . S
C1204 H1181 0.950 . S
C1204 C1203 1.397 . S
C1204 C1205 1.334 . S
C1205 H1182 0.950 1_655 S
C1205 C1204 1.334 . S
C1205 C1206 1.284 1_655 S
C1206 C1205 1.284 1_455 S
C1206 C1207 1.518 1_455 S
C1206 H1225 0.923 . S
C1207 H1183 0.950 . S
C1207 C1206 1.518 1_655 S
C1207 C1208 1.415 . S
C1208 H1184 0.950 . S
C1208 C1203 1.363 . S
C1208 C1207 1.415 . S
C1209 H1185 0.951 . S
C1209 C1210 1.366 . S
C1209 C1211 1.388 . S
C1210 C1209 1.366 . S
C1210 C1214 1.385 . S
C1211 H1186 0.951 . S
C1211 C1209 1.388 . S
C1211 C1212 1.366 . S
C1212 C1211 1.366 . S
C1212 C1213 1.414 . S
C1212 C1215 1.499 . S
C1213 H1187 0.950 . S
C1213 C1212 1.414 . S
C1213 C1214 1.374 . S
C1214 H1188 0.950 . S
C1214 C1210 1.385 . S
C1214 C1213 1.374 . S
C1215 C1212 1.499 . S
C1215 C1216 1.373 . S
C1215 C1217 1.389 . S
C1216 H1189 0.950 . S
C1216 C1202 1.377 . S
C1216 C1215 1.373 . S
C1217 C1201 1.377 . S
C1217 C1215 1.389 . S
C1217 C1218 1.524 . S
C1218 C1217 1.524 . S
C1218 C1219 1.397 . S
C1218 C1223 1.363 . S
C1219 H1190 0.950 . S
C1219 C1218 1.397 . S
C1219 C1220 1.334 . S
C1220 H1191 0.950 . S
C1220 C1219 1.334 . S
C1220 C1221 1.287 . S
C1221 C1220 1.287 . S
C1221 C1222 1.524 . S
C1221 H1224 0.999 . S
C1222 H1192 0.950 . S
C1222 C1221 1.524 . S
C1222 C1223 1.415 . S
C1223 H1193 0.950 . S
C1223 C1218 1.363 . S
C1223 C1222 1.415 . S
H1224 C1221 0.999 . S
H1225 C1206 0.923 . S
H1226 C1244 0.951 . S
H1227 C1246 0.951 . S
H1228 C1248 0.950 . S
H1229 C1249 0.950 . S
H1230 C1251 0.950 . S
H1231 C1254 0.950 . S
H1232 C1255 0.950 . S
H1233 C1257 0.950 . S
H1234 C1258 0.950 . S
H1235 C1259 0.951 . S
H1236 C1261 0.951 . S
H1237 C1263 0.950 . S
H1238 C1264 0.950 . S
H1239 C1266 0.950 . S
H1240 C1269 0.950 . S
H1241 C1270 0.950 . S
H1242 C1272 0.950 . S
H1243 C1273 0.950 . S
C1244 H1226 0.951 . S
C1244 C1245 1.366 . S
C1244 C1246 1.388 . S
C1245 C1244 1.366 . S
C1245 C1249 1.385 . S
C1246 H1227 0.951 . S
C1246 C1244 1.388 . S
C1246 C1247 1.366 . S
C1247 C1246 1.366 . S
C1247 C1248 1.414 . S
C1247 C1250 1.499 . S
C1248 H1228 0.950 . S
C1248 C1247 1.414 . S
C1248 C1249 1.374 . S
C1249 H1229 0.950 . S
C1249 C1245 1.385 . S
C1249 C1248 1.374 . S
C1250 C1247 1.499 . S
C1250 C1251 1.373 . S
C1250 C1252 1.389 . S
C1251 H1230 0.950 . S
C1251 C1250 1.373 . S
C1251 C1267 1.377 . S
C1252 C1250 1.389 . S
C1252 C1253 1.524 . S
C1252 C1266 1.377 . S
C1253 C1252 1.524 . S
C1253 C1254 1.397 . S
C1253 C1258 1.363 . S
C1254 H1231 0.950 . S
C1254 C1253 1.397 . S
C1254 C1255 1.334 . S
C1255 H1232 0.950 . S
C1255 C1254 1.334 . S
C1255 C1256 1.287 . S
C1256 C1255 1.287 . S
C1256 C1257 1.524 . S
C1256 H1275 0.913 . S
C1257 H1233 0.950 . S
C1257 C1256 1.524 . S
C1257 C1258 1.415 . S
C1258 H1234 0.950 . S
C1258 C1253 1.363 . S
C1258 C1257 1.415 . S
C1259 H1235 0.951 . S
C1259 C1260 1.366 . S
C1259 C1261 1.388 . S
C1260 C1259 1.366 . S
C1260 C1264 1.385 . S
C1261 H1236 0.951 . S
C1261 C1259 1.388 . S
C1261 C1262 1.366 . S
C1262 C1261 1.366 . S
C1262 C1263 1.414 . S
C1262 C1265 1.499 . S
C1263 H1237 0.950 . S
C1263 C1262 1.414 . S
C1263 C1264 1.374 . S
C1264 H1238 0.950 . S
C1264 C1260 1.385 . S
C1264 C1263 1.374 . S
C1265 C1262 1.499 . S
C1265 C1266 1.373 . S
C1265 C1267 1.389 . S
C1266 H1239 0.950 . S
C1266 C1252 1.377 . S
C1266 C1265 1.373 . S
C1267 C1251 1.377 . S
C1267 C1265 1.389 . S
C1267 C1268 1.524 . S
C1268 C1267 1.524 . S
C1268 C1269 1.397 . S
C1268 C1273 1.363 . S
C1269 H1240 0.950 . S
C1269 C1268 1.397 . S
C1269 C1270 1.334 . S
C1270 H1241 0.950 . S
C1270 C1269 1.334 . S
C1270 C1271 1.287 . S
C1271 C1270 1.287 . S
C1271 C1272 1.524 . S
C1271 H1274 0.999 . S
C1272 H1242 0.950 . S
C1272 C1271 1.524 . S
C1272 C1273 1.415 . S
C1273 H1243 0.950 . S
C1273 C1268 1.363 . S
C1273 C1272 1.415 . S
H1274 C1271 0.999 . S
H1275 C1256 0.913 . S
H1276 C1294 0.951 . S
H1277 C1296 0.951 . S
H1278 C1298 0.950 . S
H1279 C1299 0.950 . S
H1280 C1301 0.950 . S
H1281 C1304 0.950 . S
H1282 C1305 0.950 . S
H1283 C1307 0.950 . S
H1284 C1308 0.950 . S
H1285 C1309 0.951 . S
H1286 C1311 0.951 . S
H1287 C1313 0.950 . S
H1288 C1314 0.950 . S
H1289 C1316 0.950 . S
H1290 C1319 0.950 . S
H1291 C1320 0.950 . S
H1292 C1322 0.950 . S
H1293 C1323 0.950 . S
C1294 H1276 0.951 . S
C1294 C1295 1.366 . S
C1294 C1296 1.388 . S
C1295 C1294 1.366 . S
C1295 C1299 1.385 . S
C1296 H1277 0.951 . S
C1296 C1294 1.388 . S
C1296 C1297 1.366 . S
C1297 C1296 1.366 . S
C1297 C1298 1.414 . S
C1297 C1300 1.499 . S
C1298 H1278 0.950 . S
C1298 C1297 1.414 . S
C1298 C1299 1.374 . S
C1299 H1279 0.950 . S
C1299 C1295 1.385 . S
C1299 C1298 1.374 . S
C1300 C1297 1.499 . S
C1300 C1301 1.373 . S
C1300 C1302 1.389 . S
C1301 H1280 0.950 . S
C1301 C1300 1.373 . S
C1301 C1317 1.377 . S
C1302 C1300 1.389 . S
C1302 C1303 1.524 . S
C1302 C1316 1.377 . S
C1303 C1302 1.524 . S
C1303 C1304 1.397 . S
C1303 C1308 1.363 . S
C1304 H1281 0.950 . S
C1304 C1303 1.397 . S
C1304 C1305 1.334 . S
C1305 H1282 0.950 . S
C1305 C1304 1.334 . S
C1305 C1306 1.287 . S
C1306 C1305 1.287 . S
C1306 C1307 1.524 . S
C1306 H1325 0.913 . S
C1307 H1283 0.950 . S
C1307 C1306 1.524 . S
C1307 C1308 1.415 . S
C1308 H1284 0.950 . S
C1308 C1303 1.363 . S
C1308 C1307 1.415 . S
C1309 H1285 0.951 . S
C1309 C1310 1.366 . S
C1309 C1311 1.388 . S
C1310 C1309 1.366 . S
C1310 C1314 1.385 . S
C1311 H1286 0.951 . S
C1311 C1309 1.388 . S
C1311 C1312 1.366 . S
C1312 C1311 1.366 . S
C1312 C1313 1.414 . S
C1312 C1315 1.499 . S
C1313 H1287 0.950 . S
C1313 C1312 1.414 . S
C1313 C1314 1.374 . S
C1314 H1288 0.950 . S
C1314 C1310 1.385 . S
C1314 C1313 1.374 . S
C1315 C1312 1.499 . S
C1315 C1316 1.373 . S
C1315 C1317 1.389 . S
C1316 H1289 0.950 . S
C1316 C1302 1.377 . S
C1316 C1315 1.373 . S
C1317 C1301 1.377 . S
C1317 C1315 1.389 . S
C1317 C1318 1.524 . S
C1318 C1317 1.524 . S
C1318 C1319 1.397 . S
C1318 C1323 1.363 . S
C1319 H1290 0.950 . S
C1319 C1318 1.397 . S
C1319 C1320 1.334 . S
C1320 H1291 0.950 . S
C1320 C1319 1.334 . S
C1320 C1321 1.287 . S
C1321 C1320 1.287 . S
C1321 C1322 1.524 . S
C1321 H1324 0.999 . S
C1322 H1292 0.950 . S
C1322 C1321 1.524 . S
C1322 C1323 1.415 . S
C1323 H1293 0.950 . S
C1323 C1318 1.363 . S
C1323 C1322 1.415 . S
H1324 C1321 0.999 . S
H1325 C1306 0.913 . S
H1326 C1344 0.951 . S
H1327 C1346 0.943 1_554 S
H1328 C1348 0.950 . S
H1329 C1349 0.950 . S
H1330 C1351 0.950 . S
H1331 C1354 0.950 . S
H1332 C1355 0.950 . S
H1333 C1357 0.950 . S
H1334 C1358 0.950 . S
H1335 C1359 0.951 . S
H1336 C1361 0.951 . S
H1337 C1363 0.950 . S
H1338 C1364 0.950 . S
H1339 C1366 0.950 . S
H1340 C1369 0.950 . S
H1341 C1370 0.950 . S
H1342 C1372 0.950 . S
H1343 C1373 0.950 . S
C1344 H1326 0.951 . S
C1344 C1345 1.366 . S
C1344 C1346 1.417 . S
C1345 C1344 1.366 . S
C1345 C1349 1.385 . S
C1346 H1327 0.943 1_556 S
C1346 C1344 1.417 . S
C1346 C1347 1.345 1_556 S
C1347 C1346 1.345 1_554 S
C1347 C1348 1.414 . S
C1347 C1350 1.499 . S
C1348 H1328 0.950 . S
C1348 C1347 1.414 . S
C1348 C1349 1.374 1_554 S
C1349 H1329 0.950 . S
C1349 C1345 1.385 . S
C1349 C1348 1.374 1_556 S
C1350 C1347 1.499 . S
C1350 C1351 1.373 . S
C1350 C1352 1.389 . S
C1351 H1330 0.950 . S
C1351 C1350 1.373 . S
C1351 C1367 1.377 . S
C1352 C1350 1.389 . S
C1352 C1353 1.524 . S
C1352 C1366 1.377 . S
C1353 C1352 1.524 . S
C1353 C1354 1.397 1_554 S
C1353 C1358 1.363 . S
C1354 H1331 0.950 . S
C1354 C1353 1.397 1_556 S
C1354 C1355 1.334 . S
C1355 H1332 0.950 . S
C1355 C1354 1.334 . S
C1355 C1356 1.287 . S
C1356 C1355 1.287 . S
C1356 C1357 1.524 . S
C1356 H1375 0.913 . S
C1357 H1333 0.950 . S
C1357 C1356 1.524 . S
C1357 C1358 1.415 1_556 S
C1358 H1334 0.950 . S
C1358 C1353 1.363 . S
C1358 C1357 1.415 1_554 S
C1359 H1335 0.951 . S
C1359 C1360 1.366 . S
C1359 C1361 1.388 . S
C1360 C1359 1.366 . S
C1360 C1364 1.385 . S
C1361 H1336 0.951 . S
C1361 C1359 1.388 . S
C1361 C1362 1.366 . S
C1362 C1361 1.366 . S
C1362 C1363 1.414 . S
C1362 C1365 1.499 . S
C1363 H1337 0.950 . S
C1363 C1362 1.414 . S
C1363 C1364 1.374 . S
C1364 H1338 0.950 . S
C1364 C1360 1.385 . S
C1364 C1363 1.374 . S
C1365 C1362 1.499 . S
C1365 C1366 1.373 . S
C1365 C1367 1.389 . S
C1366 H1339 0.950 . S
C1366 C1352 1.377 . S
C1366 C1365 1.373 . S
C1367 C1351 1.377 . S
C1367 C1365 1.389 . S
C1367 C1368 1.524 . S
C1368 C1367 1.524 . S
C1368 C1369 1.397 . S
C1368 C1373 1.363 . S
C1369 H1340 0.950 . S
C1369 C1368 1.397 . S
C1369 C1370 1.334 . S
C1370 H1341 0.950 . S
C1370 C1369 1.334 . S
C1370 C1371 1.287 . S
C1371 C1370 1.287 . S
C1371 C1372 1.524 . S
C1371 H1374 0.999 . S
C1372 H1342 0.950 . S
C1372 C1371 1.524 . S
C1372 C1373 1.415 . S
C1373 H1343 0.950 . S
C1373 C1368 1.363 . S
C1373 C1372 1.415 . S
H1374 C1371 0.999 . S
H1375 C1356 0.913 . S
H1376 C1394 0.951 . S
H1377 C1396 0.951 . S
H1378 C1398 0.950 . S
H1379 C1399 0.950 . S
H1380 C1401 0.950 . S
H1381 C1404 0.950 . S
H1382 C1405 0.950 . S
H1383 C1407 0.950 . S
H1384 C1408 0.950 . S
H1385 C1409 0.951 . S
H1386 C1411 0.951 . S
H1387 C1413 0.950 . S
H1388 C1414 0.950 . S
H1389 C1416 0.950 . S
H1390 C1419 0.950 . S
H1391 C1420 0.950 . S
H1392 C1422 0.950 . S
H1393 C1423 0.950 . S
C1394 H1376 0.951 . S
C1394 C1395 1.366 . S
C1394 C1396 1.388 . S
C1395 C1394 1.366 . S
C1395 C1399 1.385 . S
C1396 H1377 0.951 . S
C1396 C1394 1.388 . S
C1396 C1397 1.366 . S
C1397 C1396 1.366 . S
C1397 C1398 1.414 . S
C1397 C1400 1.499 . S
C1398 H1378 0.950 . S
C1398 C1397 1.414 . S
C1398 C1399 1.374 . S
C1399 H1379 0.950 . S
C1399 C1395 1.385 . S
C1399 C1398 1.374 . S
C1400 C1397 1.499 . S
C1400 C1401 1.373 . S
C1400 C1402 1.389 . S
C1401 H1380 0.950 . S
C1401 C1400 1.373 . S
C1401 C1417 1.377 . S
C1402 C1400 1.389 . S
C1402 C1403 1.524 . S
C1402 C1416 1.377 . S
C1403 C1402 1.524 . S
C1403 C1404 1.397 . S
C1403 C1408 1.363 . S
C1404 H1381 0.950 . S
C1404 C1403 1.397 . S
C1404 C1405 1.334 . S
C1405 H1382 0.950 . S
C1405 C1404 1.334 . S
C1405 C1406 1.287 . S
C1406 C1405 1.287 . S
C1406 C1407 1.524 . S
C1406 H1425 0.913 . S
C1407 H1383 0.950 . S
C1407 C1406 1.524 . S
C1407 C1408 1.415 . S
C1408 H1384 0.950 . S
C1408 C1403 1.363 . S
C1408 C1407 1.415 . S
C1409 H1385 0.951 . S
C1409 C1410 1.366 . S
C1409 C1411 1.388 . S
C1410 C1409 1.366 . S
C1410 C1414 1.385 . S
C1411 H1386 0.951 . S
C1411 C1409 1.388 . S
C1411 C1412 1.366 . S
C1412 C1411 1.366 . S
C1412 C1413 1.414 . S
C1412 C1415 1.499 . S
C1413 H1387 0.950 . S
C1413 C1412 1.414 . S
C1413 C1414 1.374 . S
C1414 H1388 0.950 . S
C1414 C1410 1.385 . S
C1414 C1413 1.374 . S
C1415 C1412 1.499 . S
C1415 C1416 1.373 . S
C1415 C1417 1.389 . S
C1416 H1389 0.950 . S
C1416 C1402 1.377 . S
C1416 C1415 1.373 . S
C1417 C1401 1.377 . S
C1417 C1415 1.389 . S
C1417 C1418 1.524 . S
C1418 C1417 1.524 . S
C1418 C1419 1.397 . S
C1418 C1423 1.363 . S
C1419 H1390 0.950 . S
C1419 C1418 1.397 . S
C1419 C1420 1.334 . S
C1420 H1391 0.950 . S
C1420 C1419 1.334 . S
C1420 C1421 1.287 . S
C1421 C1420 1.287 . S
C1421 C1422 1.524 . S
C1421 H1424 0.999 . S
C1422 H1392 0.950 . S
C1422 C1421 1.524 . S
C1422 C1423 1.415 . S
C1423 H1393 0.950 . S
C1423 C1418 1.363 . S
C1423 C1422 1.415 . S
H1424 C1421 0.999 . S
H1425 C1406 0.913 . S
H1426 C1444 0.951 . S
H1427 C1446 0.951 . S
H1428 C1448 0.951 . S
H1429 C1449 0.913 1_455 S
H1430 C1451 0.950 . S
H1431 C1454 0.950 . S
H1432 C1455 0.950 . S
H1433 C1457 0.950 . S
H1434 C1458 0.950 . S
H1435 C1459 0.951 . S
H1436 C1461 0.951 . S
H1437 C1463 0.950 . S
H1438 C1464 0.950 . S
H1439 C1466 0.950 . S
H1440 C1469 0.950 . S
H1441 C1470 0.950 . S
H1442 C1472 0.950 . S
H1443 C1473 0.950 . S
C1444 H1426 0.951 . S
C1444 C1445 1.366 . S
C1444 C1446 1.388 . S
C1445 C1444 1.366 . S
C1445 C1449 1.385 . S
C1446 H1427 0.951 . S
C1446 C1444 1.388 . S
C1446 C1447 1.366 . S
C1447 C1446 1.366 . S
C1447 C1448 1.414 . S
C1447 C1450 1.499 . S
C1448 H1428 0.951 . S
C1448 C1447 1.414 . S
C1448 C1449 1.374 . S
C1449 H1429 0.913 1_655 S
C1449 C1445 1.385 . S
C1449 C1448 1.374 . S
C1450 C1447 1.499 . S
C1450 C1451 1.373 . S
C1450 C1452 1.389 . S
C1451 H1430 0.950 . S
C1451 C1450 1.373 . S
C1451 C1467 1.377 . S
C1452 C1450 1.389 . S
C1452 C1453 1.524 . S
C1452 C1466 1.377 . S
C1453 C1452 1.524 . S
C1453 C1454 1.397 . S
C1453 C1458 1.363 . S
C1454 H1431 0.950 . S
C1454 C1453 1.397 . S
C1454 C1455 1.334 . S
C1455 H1432 0.950 . S
C1455 C1454 1.334 . S
C1455 C1456 1.287 . S
C1456 C1455 1.287 . S
C1456 C1457 1.524 . S
C1456 H1475 0.913 . S
C1457 H1433 0.950 . S
C1457 C1456 1.524 . S
C1457 C1458 1.415 . S
C1458 H1434 0.950 . S
C1458 C1453 1.363 . S
C1458 C1457 1.415 . S
C1459 H1435 0.951 . S
C1459 C1460 1.366 . S
C1459 C1461 1.388 . S
C1460 C1459 1.366 . S
C1460 C1464 1.385 . S
C1461 H1436 0.951 . S
C1461 C1459 1.388 . S
C1461 C1462 1.366 . S
C1462 C1461 1.366 . S
C1462 C1463 1.414 . S
C1462 C1465 1.499 . S
C1463 H1437 0.950 . S
C1463 C1462 1.414 . S
C1463 C1464 1.374 . S
C1464 H1438 0.950 . S
C1464 C1460 1.385 . S
C1464 C1463 1.374 . S
C1465 C1462 1.499 . S
C1465 C1466 1.373 . S
C1465 C1467 1.389 . S
C1466 H1439 0.950 . S
C1466 C1452 1.377 . S
C1466 C1465 1.373 . S
C1467 C1451 1.377 . S
C1467 C1465 1.389 . S
C1467 C1468 1.524 . S
C1468 C1467 1.524 . S
C1468 C1469 1.397 . S
C1468 C1473 1.363 1_655 S
C1469 H1440 0.950 . S
C1469 C1468 1.397 . S
C1469 C1470 1.334 . S
C1470 H1441 0.950 . S
C1470 C1469 1.334 . S
C1470 C1471 1.287 . S
C1471 C1470 1.287 . S
C1471 C1472 1.524 1_655 S
C1471 H1474 0.999 . S
C1472 H1442 0.950 . S
C1472 C1471 1.524 1_455 S
C1472 C1473 1.415 . S
C1473 H1443 0.950 . S
C1473 C1468 1.363 1_455 S
C1473 C1472 1.415 . S
H1474 C1471 0.999 . S
H1475 C1456 0.913 . S
C295 N2 1.229 . S
C310 N94 1.141 . S
C345 C131 1.509 . S
C360 C39 1.600 . S
C395 N140 1.246 . S
C410 C53 1.374 . S
C445 N81 1.467 1_554 S
C460 C177 1.352 . S
C495 C99 1.444 . S
C510 N25 1.298 . S
C545 N127 1.345 . S
C560 N58 1.310 . S
C595 C76 1.536 . S
C610 C145 1.601 . S
C645 N173 1.410 . S
C660 C16 1.309 . S
C695 C108 1.490 . S
C710 C168 1.453 . S
C745 N117 1.266 . S
C760 N104 1.287 . S
C795 C154 1.570 . S
C810 C122 1.530 1_545 S
C845 N150 1.299 . S
C860 N163 1.290 . S
C895 C200 1.514 . S
C910 C85 1.422 . S
C945 N209 1.423 . S
C960 C7 1.414 . S
C995 C246 1.447 . S
C1010 N35 1.443 . S
C1045 C214 1.557 . S
C1060 C30 1.620 . S
C1095 C260 1.445 . S
C1110 N71 1.453 . S
C1145 N48 1.190 . S
C1160 N255 1.270 . S
C1195 N12 1.230 1_655 S
C1210 N196 1.199 . S
C1245 N242 1.355 . S
C1260 C62 1.372 . S
C1295 C269 1.449 . S
C1310 C237 1.555 . S
C1345 N265 1.291 . S
C1360 N186 1.164 . S
C1395 C191 1.568 . S
C1410 C223 1.457 . S
C1445 N219 1.373 . S
C1460 N232 1.238 . S
