# Generated by pormake.
# Topology snp, (6)-cn, num edge types: 1
# Building blocks:
#     Node 0, Type 0, BuildingBlock: BETGAK_clean_sbu_0, # of connection points: 6
#     Node 1, Type 0, BuildingBlock: BETGAK_clean_sbu_0, # of connection points: 6
#     Node 2, Type 0, BuildingBlock: BETGAK_clean_sbu_0, # of connection points: 6
#     Node 3, Type 0, BuildingBlock: BETGAK_clean_sbu_0, # of connection points: 6
#     Edge 4, Type (0, 0), BuildingBlock: XUDNAN_clean_linker_2, # of connection points: 2
#     Edge 5, Type (0, 0), BuildingBlock: XUDNAN_clean_linker_2, # of connection points: 2
#     Edge 6, Type (0, 0), BuildingBlock: XUDNAN_clean_linker_2, # of connection points: 2
#     Edge 7, Type (0, 0), BuildingBlock: XUDNAN_clean_linker_2, # of connection points: 2
#     Edge 8, Type (0, 0), BuildingBlock: XUDNAN_clean_linker_2, # of connection points: 2
#     Edge 9, Type (0, 0), BuildingBlock: XUDNAN_clean_linker_2, # of connection points: 2
#     Edge 10, Type (0, 0), BuildingBlock: XUDNAN_clean_linker_2, # of connection points: 2
#     Edge 11, Type (0, 0), BuildingBlock: XUDNAN_clean_linker_2, # of connection points: 2
#     Edge 12, Type (0, 0), BuildingBlock: XUDNAN_clean_linker_2, # of connection points: 2
#     Edge 13, Type (0, 0), BuildingBlock: XUDNAN_clean_linker_2, # of connection points: 2
#     Edge 14, Type (0, 0), BuildingBlock: XUDNAN_clean_linker_2, # of connection points: 2
#     Edge 15, Type (0, 0), BuildingBlock: XUDNAN_clean_linker_2, # of connection points: 2
# Relax obj value: 0.744
# Max RMSD: 0.176
# Mean RMSD: 0.176
data_MOF--net-snp--node1-BETGAK_clean_sbu_0--edge1-XUDNAN_clean_linker_2
_symmetry_space_group_name_H-M    P1
_symmetry_Int_Tables_number       1
_symmetry_cell_setting            triclinic
loop_
_symmetry_equiv_pos_as_xyz
'x, y, z'
_cell_length_a     25.094518
_cell_length_b     25.572346
_cell_length_c     30.37554
_cell_angle_alpha  90.663895
_cell_angle_beta   90.851459
_cell_angle_gamma 89.849403
loop_
_atom_site_label
_atom_site_type_symbol
_atom_site_fract_x
_atom_site_fract_y
_atom_site_fract_z
_atom_type_partial_charge
La0 La 0.21608 0.07436 0.16552 0.0
La1 La 0.26743 0.98948 0.14808 0.0
C2 C 0.17055 0.15641 0.19354 0.0
C3 C 0.18456 0.21182 0.19791 0.0
C4 C 0.2346 0.23001 0.18501 0.0
C5 C 0.2511 0.2805 0.19678 0.0
C6 C 0.21786 0.31327 0.22187 0.0
C7 C 0.16594 0.29617 0.23121 0.0
C8 C 0.14955 0.2458 0.21939 0.0
C9 C 0.32604 0.08652 0.15988 0.0
C10 C 0.20819 0.99018 0.24606 0.0
C11 C 0.34109 0.92729 1.12517 0.0
C12 C 0.38164 0.92461 1.09109 0.0
C13 C 0.41434 0.88031 1.08812 0.0
C14 C 0.44617 0.87245 1.05129 0.0
C15 C 0.44519 0.90863 1.01676 0.0
C16 C 0.416 0.95539 1.02201 0.0
C17 C 0.38446 0.96331 1.05898 0.0
C18 C 0.1712 0.95933 0.14955 0.0
C19 C 0.21794 0.06541 1.06291 0.0
O20 O 0.16481 0.13804 0.15362 0.0
O21 O 0.19818 0.12471 0.21833 0.0
O22 O 0.28994 0.11212 1.13846 0.0
O23 O 0.29972 0.0543 0.18154 0.0
O24 O 0.18623 0.03237 0.22737 0.0
O25 O 0.24627 0.96756 0.22075 0.0
O26 O 0.29188 0.92406 1.11112 0.0
O27 O 0.34693 0.96413 0.15477 0.0
O28 O 0.21014 0.93502 0.16854 0.0
O29 O 0.18568 0.00299 1.13336 0.0
O30 O 0.25523 0.02976 1.07739 0.0
O31 O 0.18986 0.08584 1.09531 0.0
H32 H 0.26202 0.20431 0.16809 0.0
H33 H 0.29116 0.2926 0.18892 0.0
H34 H 0.13948 0.31983 0.25108 0.0
H35 H 0.11073 0.23232 0.2295 0.0
H36 H 0.41298 0.85039 1.11304 0.0
H37 H 0.46871 0.83642 1.04844 0.0
H38 H 0.4138 0.9839 0.99596 0.0
H39 H 0.35979 0.99805 1.06113 0.0
La40 La 0.01094 0.24488 0.66995 0.0
La41 La 0.11662 0.24327 0.63764 0.0
C42 C 0.92003 0.2382 0.70405 0.0
C43 C 0.88125 0.27599 0.7209 0.0
C44 C 0.89247 0.32973 0.72172 0.0
C45 C 0.858 0.36467 0.74274 0.0
C46 C 0.81213 0.34621 0.76356 0.0
C47 C 0.79945 0.29266 0.75983 0.0
C48 C 0.83381 0.2579 0.73868 0.0
C49 C 0.04436 0.34305 0.64876 0.0
C50 C 0.10752 0.22313 0.74598 0.0
C51 C 0.2025 0.27564 0.6055 0.0
C52 C 0.22031 0.30779 0.56842 0.0
C53 C 0.24298 0.28336 0.53164 0.0
C54 C 0.25966 0.31289 0.49617 0.0
C55 C 0.25476 0.36779 0.49681 0.0
C56 C 0.23348 0.39244 0.53421 0.0
C57 C 0.21656 0.36276 0.56975 0.0
C58 C 0.08744 0.15155 0.66475 0.0
C59 C 0.0209 0.21067 0.5643 0.0
O60 O 0.92793 0.23932 0.66179 0.0
O61 O 0.96475 0.23493 0.72638 0.0
O62 O 0.99725 0.32431 0.64297 0.0
O63 O 0.07082 0.30657 0.66708 0.0
O64 O 0.05472 0.22745 0.73674 0.0
O65 O 0.13997 0.23132 0.71132 0.0
O66 O 0.18149 0.23006 0.59583 0.0
O67 O 0.17659 0.29988 0.6367 0.0
O68 O 0.13672 0.16681 0.66293 0.0
O69 O 0.05878 0.18454 0.64485 0.0
O70 O 0.07038 0.23129 0.57034 0.0
O71 O 0.99294 0.20673 0.60186 0.0
H72 H 0.92897 0.34435 0.7079 0.0
H73 H 0.86878 0.40562 0.74491 0.0
H74 H 0.76511 0.27676 0.77612 0.0
H75 H 0.82459 0.21651 0.73814 0.0
H76 H 0.24704 0.24118 0.52995 0.0
H77 H 0.2746 0.29231 0.46752 0.0
H78 H 0.22933 0.43459 0.53577 0.0
H79 H 0.20012 0.38295 0.598 0.0
La80 La 0.82361 0.00239 0.16331 0.0
La81 La 0.84778 0.10267 1.13859 0.0
C82 C 0.81046 0.90486 0.17187 0.0
C83 C 0.83344 0.85628 0.18884 0.0
C84 C 0.82203 0.80922 0.16647 0.0
C85 C 0.83828 0.76147 0.18412 0.0
C86 C 0.86682 0.76032 0.22415 0.0
C87 C 0.87949 0.80776 0.24584 0.0
C88 C 0.8627 0.8554 0.22841 0.0
C89 C 0.73216 0.05892 0.15862 0.0
C90 C 0.8734 0.079 0.24504 0.0
C91 C 0.83509 0.20014 1.13068 0.0
C92 C 0.81584 0.23921 1.09875 0.0
C93 C 0.84692 0.25289 1.06266 0.0
C94 C 0.82947 0.29137 1.03373 0.0
C95 C 0.78068 0.31737 1.04027 0.0
C96 C 0.74959 0.30392 1.07645 0.0
C97 C 0.76724 0.26541 1.10564 0.0
C98 C 0.9312 0.04181 1.1388 0.0
C99 C 0.85199 0.01951 1.05519 0.0
O100 O 0.79509 0.94 0.20044 0.0
O101 O 0.83352 0.92583 1.13831 0.0
O102 O 0.74636 0.02707 0.18896 0.0
O103 O 0.77122 0.06033 1.13165 0.0
O104 O 0.86 0.02965 0.23152 0.0
O105 O 0.86939 0.11478 0.21289 0.0
O106 O 0.87931 0.17535 1.12171 0.0
O107 O 0.79939 0.1691 0.14729 0.0
O108 O 0.92487 0.08136 1.11267 0.0
O109 O 0.89504 0.04301 0.16704 0.0
O110 O 0.85192 0.07069 1.06719 0.0
O111 O 0.84173 0.98639 1.08855 0.0
H112 H 0.79908 0.80933 1.13597 0.0
H113 H 0.82772 0.72548 0.16702 0.0
H114 H 0.90053 0.80794 0.27725 0.0
H115 H 0.87158 0.89133 0.24626 0.0
H116 H 0.88472 0.23382 1.05652 0.0
H117 H 0.85374 0.29977 1.00549 0.0
H118 H 0.71176 0.32316 1.08213 0.0
H119 H 0.74289 0.25611 1.13363 0.0
La120 La 0.07405 0.84679 0.66265 0.0
La121 La 0.96891 0.82146 0.63636 0.0
C122 C 0.16213 0.87841 0.69449 0.0
C123 C 0.21387 0.85907 0.71137 0.0
C124 C 0.26037 0.86892 0.68764 0.0
C125 C 0.3106 0.85947 0.70646 0.0
C126 C 0.31524 0.84043 0.74955 0.0
C127 C 0.26848 0.82763 0.77213 0.0
C128 C 0.21838 0.83681 0.75325 0.0
C129 C 0.06084 0.74132 0.64824 0.0
C130 C 0.9811 0.86045 0.74145 0.0
C131 C 0.89607 0.76565 0.60303 0.0
C132 C 0.89599 0.73306 0.5628 0.0
C133 C 0.91718 0.75275 0.52392 0.0
C134 C 0.92204 0.72077 0.48697 0.0
C135 C 0.90604 0.66812 0.48784 0.0
C136 C 0.88402 0.64841 0.52651 0.0
C137 C 0.87946 0.68063 0.56393 0.0
C138 C 0.97809 0.9208 0.65027 0.0
C139 C 0.05612 0.86167 0.55765 0.0
O140 O 0.15241 0.87232 0.65249 0.0
O141 O 0.11983 0.87008 0.71793 0.0
O142 O 0.10202 0.76915 0.63951 0.0
O143 O 0.02937 0.77323 0.66712 0.0
O144 O 0.03183 0.8664 0.72815 0.0
O145 O 0.94779 0.83885 0.71047 0.0
O146 O 0.89909 0.81624 0.59761 0.0
O147 O 0.92845 0.74967 0.63414 0.0
O148 O 0.9337 0.89548 0.65525 0.0
O149 O 0.01206 0.89073 0.63294 0.0
O150 O 0.0122 0.83273 0.56789 0.0
O151 O 0.08425 0.87805 0.59294 0.0
H152 H 0.25797 0.88632 0.65531 0.0
H153 H 0.34575 0.86937 0.68808 0.0
H154 H 0.27024 0.8139 0.80571 0.0
H155 H 0.18336 0.82903 0.77251 0.0
H156 H 0.93037 0.79291 0.52192 0.0
H157 H 0.93741 0.73786 0.45726 0.0
H158 H 0.87077 0.60819 0.52785 0.0
H159 H 0.86365 0.66452 0.59386 0.0
H160 H 0.93782 0.94859 0.18069 0.0
H161 H 0.97493 0.02533 1.05974 0.0
H162 H 1.00488 0.94381 1.02766 0.0
H163 H 0.02491 0.91802 0.2134 0.0
H164 H 0.03659 0.85011 0.2261 0.0
H165 H 0.97004 0.87531 0.22344 0.0
H166 H 0.94176 0.80652 0.16604 0.0
H167 H 1.00735 0.7785 0.17184 0.0
H168 H 0.98086 0.79429 1.11823 0.0
H169 H 0.08315 0.89373 1.02712 0.0
H170 H 0.15568 0.94429 1.06157 0.0
H171 H 0.10979 0.89063 0.18885 0.0
C172 C 0.95181 0.94672 0.14716 0.0
C173 C 0.95306 0.99244 1.12205 0.0
C174 C 0.97187 0.99027 1.0789 0.0
C175 C 0.98855 0.94334 1.06044 0.0
C176 C 0.99657 0.9006 1.0881 0.0
C177 C 0.97557 0.90085 1.13059 0.0
C178 C 1.00636 0.86268 0.15862 0.0
C179 C 1.00977 0.87756 0.20825 0.0
C180 C 0.9828 0.80727 0.15328 0.0
C181 C 0.05853 0.86574 1.13449 0.0
C182 C 0.04829 0.87407 1.08953 0.0
C183 C 0.08907 0.8919 1.06245 0.0
C184 C 0.12905 0.92218 1.08202 0.0
C185 C 0.13257 0.92535 1.12804 0.0
C186 C 0.10303 0.89092 0.15356 0.0
H187 H 0.91323 0.9842 0.69789 0.0
H188 H 0.07795 0.94722 0.67377 0.0
H189 H 0.10448 0.98888 0.74212 0.0
H190 H 0.91835 0.08456 0.68629 0.0
H191 H 0.89454 0.12998 0.72753 0.0
H192 H 0.86757 0.06506 0.72349 0.0
H193 H 0.88819 0.04258 0.80158 0.0
H194 H 0.90997 0.10916 0.81023 0.0
H195 H 0.95216 0.05561 0.82637 0.0
H196 H 0.12157 0.0644 0.79404 0.0
H197 H 0.15052 0.107 0.72703 0.0
H198 H 0.98678 0.14257 0.69404 0.0
C199 C 0.95479 0.98548 0.70798 0.0
C200 C 0.99357 0.96016 0.68264 0.0
C201 C 0.04753 0.96465 0.69402 0.0
C202 C 0.06244 0.98764 0.73362 0.0
C203 C 0.02468 0.01688 0.75718 0.0
C204 C 0.97113 0.0168 0.74364 0.0
C205 C 0.9474 0.06918 0.75432 0.0
C206 C 0.90466 0.08838 0.72079 0.0
C207 C 0.9232 0.06909 0.80085 0.0
C208 C 0.99945 0.09917 0.75449 0.0
C209 C 0.0388 0.0684 0.77492 0.0
C210 C 0.09215 0.08288 0.77287 0.0
C211 C 0.10831 0.10479 0.7337 0.0
C212 C 0.06976 0.12441 0.70402 0.0
C213 C 0.01578 0.12552 0.71627 0.0
H214 H 0.64392 0.02172 0.20377 0.0
H215 H 0.68172 0.12143 1.09432 0.0
H216 H 0.58483 0.139 1.08295 0.0
H217 H 0.52258 0.96515 0.15438 0.0
H218 H 0.48826 0.96208 0.20596 0.0
H219 H 0.55995 0.95782 0.2051 0.0
H220 H 0.56644 0.03577 0.25992 0.0
H221 H 0.4948 0.04029 0.26078 0.0
H222 H 0.53379 0.09658 0.24661 0.0
H223 H 0.47868 0.14684 1.08509 0.0
H224 H 0.38169 0.14221 1.09845 0.0
H225 H 0.41129 0.03529 0.20559 0.0
C226 C 0.6322 0.04734 0.1772 0.0
C227 C 0.67222 0.07014 0.14999 0.0
C228 C 0.65337 0.10313 1.11577 0.0
C229 C 0.59777 0.11339 1.10914 0.0
C230 C 0.55982 0.09026 1.13659 0.0
C231 C 0.57667 0.05748 0.16985 0.0
C232 C 0.52819 0.03667 0.19462 0.0
C233 C 0.52455 0.97688 0.18973 0.0
C234 C 0.53099 0.05332 0.24338 0.0
C235 C 0.48112 0.06322 0.1709 0.0
C236 C 0.50022 0.09401 1.13741 0.0
C237 C 0.46418 0.12257 1.11126 0.0
C238 C 0.40844 0.11975 1.11922 0.0
C239 C 0.38709 0.08841 0.15311 0.0
C240 C 0.42499 0.0597 0.17921 0.0
H241 H 0.97536 0.4293 0.63563 0.0
H242 H 0.13984 0.39303 0.66846 0.0
H243 H 0.15996 0.48773 0.67259 0.0
H244 H 1.00088 0.5446 0.56905 0.0
H245 H 0.94434 0.58102 0.58878 0.0
H246 H 0.94254 0.51059 0.58739 0.0
H247 H 0.92107 0.51004 0.6703 0.0
H248 H 0.92276 0.58053 0.67171 0.0
H249 H 0.96464 0.54367 0.70885 0.0
H250 H 0.16333 0.58889 0.67141 0.0
H251 H 0.14987 0.68419 0.66738 0.0
H252 H 0.98188 0.65995 0.63893 0.0
C253 C 0.01576 0.44113 0.64362 0.0
C254 C 0.05615 0.40216 0.65132 0.0
C255 C 0.10807 0.42071 0.66202 0.0
C256 C 0.11986 0.47502 0.66454 0.0
C257 C 0.07941 0.51201 0.65685 0.0
C258 C 0.02816 0.49578 0.64681 0.0
C259 C 0.99192 0.54401 0.64069 0.0
C260 C 0.96853 0.54508 0.59367 0.0
C261 C 0.94744 0.54458 0.67492 0.0
C262 C 0.03057 0.58992 0.64864 0.0
C263 C 0.08094 0.57017 0.65765 0.0
C264 C 0.12383 0.60423 0.66473 0.0
C265 C 0.11564 0.65899 0.66239 0.0
C266 C 0.06466 0.68143 0.65361 0.0
C267 C 0.02135 0.64546 0.6468 0.0
H268 H 0.33711 0.35304 0.44058 0.0
H269 H 0.19626 0.44762 0.46089 0.0
H270 H 0.19748 0.47426 0.38373 0.0
H271 H 0.38954 0.43063 0.33501 0.0
H272 H 0.40899 0.36865 0.31132 0.0
H273 H 0.41628 0.38004 0.36983 0.0
H274 H 0.36082 0.29705 0.38446 0.0
H275 H 0.35378 0.28559 0.32676 0.0
H276 H 0.29504 0.29111 0.3601 0.0
H277 H 0.18968 0.46186 0.30514 0.0
H278 H 0.17097 0.40869 0.23887 0.0
H279 H 0.31304 0.31726 0.26455 0.0
C280 C 0.30811 0.38125 0.42893 0.0
C281 C 0.26631 0.39763 0.45641 0.0
C282 C 0.22907 0.4348 0.44065 0.0
C283 C 0.22957 0.45026 0.39658 0.0
C284 C 0.26759 0.42842 0.36867 0.0
C285 C 0.3072 0.39541 0.38458 0.0
C286 C 0.33424 0.36623 0.34735 0.0
C287 C 0.39059 0.3877 0.34047 0.0
C288 C 0.33586 0.30656 0.35514 0.0
C289 C 0.29769 0.38088 0.30927 0.0
C290 C 0.26208 0.41978 0.32148 0.0
C291 C 0.21824 0.43259 0.29482 0.0
C292 C 0.20765 0.40196 0.2572 0.0
C293 C 0.24025 0.35842 0.24706 0.0
C294 C 0.2881 0.35092 0.27117 0.0
H295 H 0.85767 0.41137 0.8237 0.0
H296 H 0.70467 0.35121 0.78017 0.0
H297 H 0.66739 0.37262 0.85249 0.0
H298 H 0.87018 0.35379 0.90829 0.0
H299 H 0.89869 0.40165 0.94579 0.0
H300 H 0.90572 0.40972 0.88805 0.0
H301 H 0.8619 0.50108 0.8924 0.0
H302 H 0.85547 0.49378 0.9511 0.0
H303 H 0.79776 0.50905 0.91758 0.0
H304 H 0.65955 0.36074 0.93081 0.0
H305 H 0.68119 0.32218 1.00256 0.0
H306 H 0.83713 0.3935 1.00068 0.0
C307 C 0.81538 0.40632 0.82845 0.0
C308 C 0.78429 0.37897 0.79675 0.0
C309 C 0.72938 0.37165 0.80427 0.0
C310 C 0.70779 0.38411 0.84533 0.0
C311 C 0.74135 0.40478 0.8782 0.0
C312 C 0.79378 0.4179 0.86964 0.0
C313 C 0.8251 0.42764 0.91201 0.0
C314 C 0.87786 0.39623 0.91357 0.0
C315 C 0.83564 0.48639 0.91866 0.0
C316 C 0.78536 0.40848 0.94512 0.0
C317 C 0.73616 0.39858 0.92542 0.0
C318 C 0.69699 0.37033 0.94704 0.0
C319 C 0.7096 0.34839 0.98796 0.0
C320 C 0.7611 0.35462 1.00667 0.0
C321 C 0.79754 0.38841 0.98668 0.0
H322 H 0.98723 0.66254 0.4304 0.0
H323 H 0.8273 0.60708 0.45144 0.0
H324 H 0.81622 0.59 0.37225 0.0
H325 H 0.95824 0.74357 0.36252 0.0
H326 H 0.01259 0.73974 0.32438 0.0
H327 H 0.0222 0.7174 0.37922 0.0
H328 H 0.05097 0.62635 0.35015 0.0
H329 H 0.04198 0.64891 0.29445 0.0
H330 H 1.00844 0.59073 0.31211 0.0
H331 H 0.80592 0.61597 0.2969 0.0
H332 H 0.79707 0.68142 0.23877 0.0
H333 H 0.96018 0.72941 0.2619 0.0
C334 C 0.95115 0.644 0.41812 0.0
C335 C 0.90789 0.63695 0.4465 0.0
C336 C 0.86111 0.61257 0.43024 0.0
C337 C 0.85456 0.60281 0.38501 0.0
C338 C 0.89506 0.61777 0.35667 0.0
C339 C 0.9434 0.63678 0.37281 0.0
C340 C 0.97412 0.66412 0.33715 0.0
C341 C 0.99267 0.71943 0.35171 0.0
C342 C 0.02168 0.6305 0.32259 0.0
C343 C 0.93179 0.66581 0.3012 0.0
C344 C 0.88818 0.6354 0.31167 0.0
C345 C 0.84043 0.63834 0.2876 0.0
C346 C 0.83563 0.67579 0.25454 0.0
C347 C 0.87806 0.71035 0.24639 0.0
C348 C 0.92762 0.7028 0.26773 0.0
H349 H 0.35329 0.77048 0.80977 0.0
H350 H 0.39212 0.91598 0.74631 0.0
H351 H 0.46026 0.93384 0.803 0.0
H352 H 0.34039 0.81816 0.90494 0.0
H353 H 0.36795 0.76617 0.93791 0.0
H354 H 0.34254 0.75191 0.88394 0.0
H355 H 0.4334 0.71164 0.86227 0.0
H356 H 0.45928 0.7259 0.91682 0.0
H357 H 0.49354 0.74941 0.86925 0.0
H358 H 0.49677 0.95254 0.87612 0.0
H359 H 0.49625 0.96933 0.95611 0.0
H360 H 0.43205 0.81461 0.97627 0.0
C361 C 0.37799 0.80486 0.80688 0.0
C362 C 0.36709 0.84185 0.77384 0.0
C363 C 0.40005 0.88649 0.77086 0.0
C364 C 0.43907 0.89704 0.80316 0.0
C365 C 0.44506 0.86247 0.83808 0.0
C366 C 0.41609 0.81645 0.83963 0.0
C367 C 0.42009 0.79212 0.88478 0.0
C368 C 0.36449 0.78163 0.90398 0.0
C369 C 0.4536 0.74179 0.88317 0.0
C370 C 0.44951 0.83502 0.90978 0.0
C371 C 0.46617 0.87393 0.88186 0.0
C372 C 0.48558 0.92161 0.89815 0.0
C373 C 0.48484 0.93104 0.94369 0.0
C374 C 0.46408 0.89324 0.97236 0.0
C375 C 0.44958 0.84361 0.95529 0.0
H376 H 0.82001 0.93317 0.98869 0.0
H377 H 0.93116 0.06167 1.00166 0.0
H378 H 0.97522 0.03179 0.93391 0.0
H379 H 0.90251 0.83511 0.92993 0.0
H380 H 0.8531 0.8157 0.88932 0.0
H381 H 0.83266 0.84155 0.94198 0.0
H382 H 0.77691 0.91228 0.90312 0.0
H383 H 0.79695 0.8864 0.85035 0.0
H384 H 0.80819 0.95432 0.86393 0.0
H385 H 0.02071 0.97416 0.86601 0.0
H386 H 0.0402 0.92342 0.79916 0.0
H387 H 0.88533 0.85075 0.80488 0.0
C388 C 0.85385 0.95548 0.97789 0.0
C389 C 0.87267 0.99973 1.00602 0.0
C390 C 0.91572 0.02679 0.98559 0.0
C391 C 0.94166 0.00974 0.94558 0.0
C392 C 0.9236 0.96611 0.92041 0.0
C393 C 0.87831 0.94112 0.93468 0.0
C394 C 0.86291 0.90034 0.89692 0.0
C395 C 0.86272 0.84485 0.91565 0.0
C396 C 0.80792 0.9141 0.87743 0.0
C397 C 0.90695 0.9049 0.86033 0.0
C398 C 0.94264 0.94199 0.87631 0.0
C399 C 0.99045 0.94796 0.85289 0.0
C400 C 1.00115 0.91873 0.81292 0.0
C401 C 0.96404 0.88478 0.79032 0.0
C402 C 0.9155 0.87766 0.81692 0.0
H403 H 0.1868 0.02984 0.33846 0.0
H404 H 0.1723 0.88742 0.26108 0.0
H405 H 0.13218 0.84377 0.32491 0.0
H406 H 0.22391 0.96227 0.44377 0.0
H407 H 0.18883 0.00741 0.47904 0.0
H408 H 0.2137 0.02895 0.42689 0.0
H409 H 0.11959 0.05983 0.40458 0.0
H410 H 0.09439 0.03819 0.45658 0.0
H411 H 0.06487 0.01441 0.40578 0.0
H412 H 0.08395 0.8131 0.40361 0.0
H413 H 0.05185 0.79962 0.4794 0.0
H414 H 0.10594 0.95507 0.5152 0.0
C415 C 0.17552 0.98927 0.33432 0.0
C416 C 0.18442 0.96378 0.29112 0.0
C417 C 0.16782 0.91008 0.29113 0.0
C418 C 0.14406 0.88427 0.32844 0.0
C419 C 0.13624 0.91012 0.36955 0.0
C420 C 0.15283 0.96172 0.3728 0.0
C421 C 0.14252 0.97978 0.42177 0.0
C422 C 0.19538 0.99559 0.4442 0.0
C423 C 0.10304 0.02582 0.42222 0.0
C424 C 0.11781 0.93124 0.44561 0.0
C425 C 0.1134 0.89173 0.41418 0.0
C426 C 0.08892 0.84445 0.42754 0.0
C427 C 0.06998 0.83683 0.47207 0.0
C428 C 0.07519 0.87474 0.50711 0.0
C429 C 0.10042 0.9233 0.49177 0.0
H430 H 0.06065 0.20058 0.83569 0.0
H431 H 0.21142 0.1904 0.76877 0.0
H432 H 0.25195 0.15014 0.83472 0.0
H433 H 0.11977 0.23239 0.94743 0.0
H434 H 0.07218 0.19478 0.97759 0.0
H435 H 0.05373 0.22186 0.92493 0.0
H436 H 0.02713 0.13022 0.89665 0.0
H437 H 0.04575 0.10294 0.94921 0.0
H438 H 0.07488 0.07759 0.89941 0.0
H439 H 0.27926 0.10212 0.91429 0.0
H440 H 0.28836 0.06732 0.98993 0.0
H441 H 0.12517 0.11258 1.01451 0.0
C442 C 0.10256 0.19076 0.83446 0.0
C443 C 0.13137 0.20104 0.79336 0.0
C444 C 0.18628 0.18525 0.79702 0.0
C445 C 0.21034 0.16124 0.83558 0.0
C446 C 0.18127 0.15174 0.87438 0.0
C447 C 0.1282 0.16703 0.87418 0.0
C448 C 0.1063 0.15355 0.92106 0.0
C449 C 0.08678 0.20362 0.94413 0.0
C450 C 0.06077 0.11375 0.91631 0.0
C451 C 0.15449 0.12895 0.94767 0.0
C452 C 0.19726 0.12743 0.91943 0.0
C453 C 0.24527 0.10444 0.93574 0.0
C454 C 0.25033 0.08388 0.9801 0.0
C455 C 0.20865 0.08555 1.01193 0.0
C456 C 0.15953 0.10943 0.99355 0.0
H457 H 0.94434 0.16279 0.28628 0.0
H458 H 0.85104 0.02951 0.32532 0.0
H459 H 0.87566 0.04787 0.4031 0.0
H460 H 0.05363 0.14081 0.37128 0.0
H461 H 0.06637 0.20925 0.38145 0.0
H462 H 0.04054 0.18769 0.32856 0.0
H463 H 0.96159 0.25131 0.33607 0.0
H464 H 0.98717 0.27302 0.38899 0.0
H465 H 0.92013 0.2483 0.38393 0.0
H466 H 0.90892 0.0857 0.48495 0.0
H467 H 0.94961 0.12807 0.55055 0.0
H468 H 0.03293 0.23467 0.46611 0.0
C469 C 0.92855 0.13698 0.31083 0.0
C470 C 0.89352 0.09358 0.29585 0.0
C471 C 0.87675 0.06261 0.33223 0.0
C472 C 0.89098 0.07323 0.37801 0.0
C473 C 0.92459 0.11546 0.39107 0.0
C474 C 0.94408 0.14647 0.35792 0.0
C475 C 0.98192 0.18798 0.38128 0.0
C476 C 0.03902 0.18107 0.36462 0.0
C477 C 0.96153 0.24348 0.37198 0.0
C478 C 0.98008 0.17671 0.43227 0.0
C479 C 0.94593 0.13464 0.43677 0.0
C480 C 0.93588 0.11805 0.48026 0.0
C481 C 0.95995 0.14325 0.51868 0.0
C482 C 0.99681 0.18611 0.51738 0.0
C483 C 1.00636 0.20221 0.4715 0.0
loop_
_geom_bond_atom_site_label_1
_geom_bond_atom_site_label_2
_geom_bond_distance
_geom_bond_site_symmetry_2
_ccdc_geom_bond_type
La0 C2 2.928 . S
La0 O20 2.521 . S
La0 O21 2.628 . S
La0 O22 2.554 . S
La0 O23 2.757 1_554 S
La0 O24 2.470 . S
La0 O29 2.482 . S
La0 O31 2.503 1_554 S
La1 C11 2.928 1_545 S
La1 O23 2.482 . S
La1 O25 2.503 1_556 S
La1 O26 2.521 1_545 S
La1 O27 2.628 . S
La1 O28 2.554 . S
La1 O29 2.757 1_556 S
La1 O30 2.470 . S
C2 La0 2.928 . S
C2 C3 1.503 . S
C2 O20 1.261 . S
C2 O21 1.243 . S
C3 C2 1.503 . S
C3 C4 1.394 . S
C3 C8 1.373 . S
C4 C3 1.394 . S
C4 C5 1.380 . S
C4 H32 0.930 . S
C5 C4 1.380 . S
C5 C6 1.376 . S
C5 H33 0.930 . S
C6 C5 1.376 . S
C6 C7 1.370 . S
C7 C6 1.370 . S
C7 C8 1.396 . S
C7 H34 0.929 . S
C8 C3 1.373 . S
C8 C7 1.396 . S
C8 H35 0.929 . S
C9 O22 1.240 . S
C9 O23 1.289 1_554 S
C10 O24 1.258 . S
C10 O25 1.256 . S
C11 La1 2.928 1_565 S
C11 C12 1.503 . S
C11 O26 1.261 . S
C11 O27 1.243 1_565 S
C12 C11 1.503 . S
C12 C13 1.394 . S
C12 C17 1.373 . S
C13 C12 1.394 . S
C13 C14 1.380 . S
C13 H36 0.930 . S
C14 C13 1.380 . S
C14 C15 1.376 . S
C14 H37 0.930 . S
C15 C14 1.376 . S
C15 C16 1.370 . S
C16 C15 1.370 . S
C16 C17 1.396 . S
C16 H38 0.929 . S
C17 C12 1.373 . S
C17 C16 1.396 . S
C17 H39 0.929 . S
C18 O28 1.236 1_554 S
C18 O29 1.292 . S
C19 O30 1.258 . S
C19 O31 1.256 . S
O20 La0 2.521 . S
O20 C2 1.261 . S
O21 La0 2.628 . S
O21 C2 1.243 . S
O22 La0 2.554 . S
O22 C9 1.240 . S
O23 La0 2.757 1_556 S
O23 La1 2.482 . S
O23 C9 1.289 1_556 S
O24 La0 2.470 . S
O24 C10 1.258 . S
O25 La1 2.503 1_554 S
O25 C10 1.256 . S
O26 La1 2.521 1_565 S
O26 C11 1.261 . S
O27 La1 2.628 . S
O27 C11 1.243 1_545 S
O28 La1 2.554 . S
O28 C18 1.236 1_556 S
O29 La0 2.482 . S
O29 La1 2.757 1_554 S
O29 C18 1.292 . S
O30 La1 2.470 . S
O30 C19 1.258 . S
O31 La0 2.503 1_556 S
O31 C19 1.256 . S
H32 C4 0.930 . S
H33 C5 0.930 . S
H34 C7 0.929 . S
H35 C8 0.929 . S
H36 C13 0.930 . S
H37 C14 0.930 . S
H38 C16 0.929 . S
H39 C17 0.929 . S
La40 C42 2.928 . S
La40 O60 2.521 . S
La40 O61 2.628 . S
La40 O62 2.554 . S
La40 O63 2.757 1_655 S
La40 O64 2.470 1_655 S
La40 O69 2.482 . S
La40 O71 2.503 . S
La41 C51 2.928 . S
La41 O63 2.482 . S
La41 O65 2.503 . S
La41 O66 2.521 . S
La41 O67 2.628 . S
La41 O68 2.554 . S
La41 O69 2.757 1_455 S
La41 O70 2.470 1_455 S
C42 La40 2.928 . S
C42 C43 1.503 . S
C42 O60 1.261 . S
C42 O61 1.243 . S
C43 C42 1.503 . S
C43 C44 1.394 . S
C43 C48 1.373 . S
C44 C43 1.394 . S
C44 C45 1.380 . S
C44 H72 0.930 . S
C45 C44 1.380 . S
C45 C46 1.376 . S
C45 H73 0.930 . S
C46 C45 1.376 . S
C46 C47 1.370 . S
C47 C46 1.370 . S
C47 C48 1.396 . S
C47 H74 0.929 . S
C48 C43 1.373 . S
C48 C47 1.396 . S
C48 H75 0.929 . S
C49 O62 1.240 . S
C49 O63 1.289 1_655 S
C50 O64 1.258 . S
C50 O65 1.256 . S
C51 La41 2.928 . S
C51 C52 1.503 . S
C51 O66 1.261 . S
C51 O67 1.243 . S
C52 C51 1.503 . S
C52 C53 1.394 . S
C52 C57 1.373 . S
C53 C52 1.394 . S
C53 C54 1.380 . S
C53 H76 0.930 . S
C54 C53 1.380 . S
C54 C55 1.376 . S
C54 H77 0.930 . S
C55 C54 1.376 . S
C55 C56 1.370 . S
C56 C55 1.370 . S
C56 C57 1.396 . S
C56 H78 0.929 . S
C57 C52 1.373 . S
C57 C56 1.396 . S
C57 H79 0.929 . S
C58 O68 1.240 . S
C58 O69 1.289 1_455 S
C59 O70 1.258 . S
C59 O71 1.256 . S
O60 La40 2.521 . S
O60 C42 1.261 . S
O61 La40 2.628 . S
O61 C42 1.243 . S
O62 La40 2.554 . S
O62 C49 1.240 . S
O63 La40 2.757 1_455 S
O63 La41 2.482 . S
O63 C49 1.289 1_455 S
O64 La40 2.470 1_455 S
O64 C50 1.258 . S
O65 La41 2.503 . S
O65 C50 1.256 . S
O66 La41 2.521 . S
O66 C51 1.261 . S
O67 La41 2.628 . S
O67 C51 1.243 . S
O68 La41 2.554 . S
O68 C58 1.240 . S
O69 La40 2.482 . S
O69 La41 2.757 1_655 S
O69 C58 1.289 1_655 S
O70 La41 2.470 1_655 S
O70 C59 1.258 . S
O71 La40 2.503 . S
O71 C59 1.256 . S
H72 C44 0.930 . S
H73 C45 0.930 . S
H74 C47 0.929 . S
H75 C48 0.929 . S
H76 C53 0.930 . S
H77 C54 0.930 . S
H78 C56 0.929 . S
H79 C57 0.929 . S
La80 C82 2.928 . S
La80 O100 2.521 . S
La80 O101 2.628 . S
La80 O102 2.554 . S
La80 O103 2.757 1_564 S
La80 O104 2.470 1_565 S
La80 O109 2.482 . S
La80 O111 2.503 1_554 S
La81 C91 2.928 . S
La81 O103 2.482 . S
La81 O105 2.503 1_556 S
La81 O106 2.521 . S
La81 O107 2.628 . S
La81 O108 2.554 . S
La81 O109 2.757 1_546 S
La81 O110 2.470 1_545 S
C82 La80 2.928 . S
C82 C83 1.503 . S
C82 O100 1.261 . S
C82 O101 1.243 . S
C83 C82 1.503 . S
C83 C84 1.394 . S
C83 C88 1.373 . S
C84 C83 1.394 . S
C84 C85 1.380 . S
C84 H112 0.930 . S
C85 C84 1.380 . S
C85 C86 1.376 . S
C85 H113 0.930 . S
C86 C85 1.376 . S
C86 C87 1.370 . S
C87 C86 1.370 . S
C87 C88 1.396 . S
C87 H114 0.929 . S
C88 C83 1.373 . S
C88 C87 1.396 . S
C88 H115 0.929 . S
C89 O102 1.240 . S
C89 O103 1.289 1_564 S
C90 O104 1.258 . S
C90 O105 1.256 . S
C91 La81 2.928 . S
C91 C92 1.503 . S
C91 O106 1.261 . S
C91 O107 1.243 . S
C92 C91 1.503 . S
C92 C93 1.394 . S
C92 C97 1.373 . S
C93 C92 1.394 . S
C93 C94 1.380 . S
C93 H116 0.930 . S
C94 C93 1.380 . S
C94 C95 1.376 . S
C94 H117 0.930 . S
C95 C94 1.376 . S
C95 C96 1.370 . S
C96 C95 1.370 . S
C96 C97 1.396 . S
C96 H118 0.929 . S
C97 C92 1.373 . S
C97 C96 1.396 . S
C97 H119 0.929 . S
C98 O108 1.236 1_554 S
C98 O109 1.292 1_545 S
C99 O110 1.258 . S
C99 O111 1.256 . S
O100 La80 2.521 . S
O100 C82 1.261 . S
O101 La80 2.628 . S
O101 C82 1.243 . S
O102 La80 2.554 . S
O102 C89 1.240 . S
O103 La80 2.757 1_546 S
O103 La81 2.482 . S
O103 C89 1.289 1_546 S
O104 La80 2.470 1_545 S
O104 C90 1.258 . S
O105 La81 2.503 1_554 S
O105 C90 1.256 . S
O106 La81 2.521 . S
O106 C91 1.261 . S
O107 La81 2.628 . S
O107 C91 1.243 . S
O108 La81 2.554 . S
O108 C98 1.236 1_556 S
O109 La80 2.482 . S
O109 La81 2.757 1_564 S
O109 C98 1.292 1_565 S
O110 La81 2.470 1_565 S
O110 C99 1.258 . S
O111 La80 2.503 1_556 S
O111 C99 1.256 . S
H112 C84 0.930 . S
H113 C85 0.930 . S
H114 C87 0.929 . S
H115 C88 0.929 . S
H116 C93 0.930 . S
H117 C94 0.930 . S
H118 C96 0.929 . S
H119 C97 0.929 . S
La120 C122 2.928 . S
La120 O140 2.521 . S
La120 O141 2.628 . S
La120 O142 2.554 . S
La120 O143 2.757 . S
La120 O144 2.470 . S
La120 O149 2.482 . S
La120 O151 2.503 . S
La121 C131 2.928 1_455 S
La121 O143 2.482 . S
La121 O145 2.503 . S
La121 O146 2.521 1_455 S
La121 O147 2.628 . S
La121 O148 2.554 . S
La121 O149 2.757 . S
La121 O150 2.470 . S
C122 La120 2.928 . S
C122 C123 1.503 . S
C122 O140 1.261 . S
C122 O141 1.243 . S
C123 C122 1.503 . S
C123 C124 1.394 . S
C123 C128 1.373 . S
C124 C123 1.394 . S
C124 C125 1.380 . S
C124 H152 0.930 . S
C125 C124 1.380 . S
C125 C126 1.376 . S
C125 H153 0.930 . S
C126 C125 1.376 . S
C126 C127 1.370 . S
C127 C126 1.370 . S
C127 C128 1.396 . S
C127 H154 0.929 . S
C128 C123 1.373 . S
C128 C127 1.396 . S
C128 H155 0.929 . S
C129 O142 1.240 . S
C129 O143 1.289 . S
C130 O144 1.258 . S
C130 O145 1.256 . S
C131 La121 2.928 1_655 S
C131 C132 1.503 . S
C131 O146 1.261 . S
C131 O147 1.243 1_655 S
C132 C131 1.503 . S
C132 C133 1.394 . S
C132 C137 1.373 . S
C133 C132 1.394 . S
C133 C134 1.380 . S
C133 H156 0.930 . S
C134 C133 1.380 . S
C134 C135 1.376 . S
C134 H157 0.930 . S
C135 C134 1.376 . S
C135 C136 1.370 . S
C136 C135 1.370 . S
C136 C137 1.396 . S
C136 H158 0.929 . S
C137 C132 1.373 . S
C137 C136 1.396 . S
C137 H159 0.929 . S
C138 O148 1.240 . S
C138 O149 1.289 . S
C139 O150 1.258 . S
C139 O151 1.256 . S
O140 La120 2.521 . S
O140 C122 1.261 . S
O141 La120 2.628 . S
O141 C122 1.243 . S
O142 La120 2.554 . S
O142 C129 1.240 . S
O143 La120 2.757 . S
O143 La121 2.482 . S
O143 C129 1.289 . S
O144 La120 2.470 . S
O144 C130 1.258 . S
O145 La121 2.503 . S
O145 C130 1.256 . S
O146 La121 2.521 1_655 S
O146 C131 1.261 . S
O147 La121 2.628 . S
O147 C131 1.243 1_455 S
O148 La121 2.554 . S
O148 C138 1.240 . S
O149 La120 2.482 . S
O149 La121 2.757 . S
O149 C138 1.289 . S
O150 La121 2.470 . S
O150 C139 1.258 . S
O151 La120 2.503 . S
O151 C139 1.256 . S
H152 C124 0.930 . S
H153 C125 0.930 . S
H154 C127 0.929 . S
H155 C128 0.929 . S
H156 C133 0.930 . S
H157 C134 0.930 . S
H158 C136 0.929 . S
H159 C137 0.929 . S
H160 C172 0.930 . S
H161 C174 0.930 . S
H162 C175 0.930 1_455 S
H163 C179 0.959 . S
H164 C179 0.959 . S
H165 C179 0.961 1_655 S
H166 C180 0.960 . S
H167 C180 0.961 . S
H168 C180 0.959 1_565 S
H169 C183 0.929 . S
H170 C184 0.931 . S
H171 C186 0.930 . S
C172 H160 0.930 . S
C172 C173 1.399 1_545 S
C172 C177 1.399 . S
C173 C172 1.399 1_565 S
C173 C174 1.376 1_554 S
C174 H161 0.930 . S
C174 C173 1.376 1_556 S
C174 C175 1.388 . S
C175 H162 0.930 1_655 S
C175 C174 1.388 . S
C175 C176 1.390 1_665 S
C176 C175 1.390 1_445 S
C176 C177 1.394 1_456 S
C176 C182 1.465 . S
C177 C172 1.399 . S
C177 C176 1.394 1_654 S
C177 C178 1.516 1_655 S
C178 C177 1.516 1_455 S
C178 C179 1.502 . S
C178 C180 1.561 . S
C178 C181 1.526 . S
C179 H163 0.959 . S
C179 H164 0.959 . S
C179 H165 0.961 1_455 S
C179 C178 1.502 . S
C180 H166 0.960 . S
C180 H167 0.961 . S
C180 H168 0.959 1_545 S
C180 C178 1.561 . S
C181 C178 1.526 . S
C181 C182 1.396 1_554 S
C181 C186 1.390 . S
C182 C176 1.465 . S
C182 C181 1.396 1_556 S
C182 C183 1.399 . S
C183 H169 0.929 . S
C183 C182 1.399 . S
C183 C184 1.385 . S
C184 H170 0.931 . S
C184 C183 1.385 . S
C184 C185 1.389 1_556 S
C185 C184 1.389 1_554 S
C185 C186 1.387 . S
C186 H171 0.930 . S
C186 C181 1.390 . S
C186 C185 1.387 . S
H187 C199 0.930 . S
H188 C201 0.930 . S
H189 C202 0.930 . S
H190 C206 0.959 . S
H191 C206 0.959 . S
H192 C206 0.961 . S
H193 C207 0.960 . S
H194 C207 0.961 . S
H195 C207 0.959 1_655 S
H196 C210 0.929 . S
H197 C211 0.931 . S
H198 C213 0.930 . S
C199 H187 0.930 . S
C199 C200 1.399 . S
C199 C204 1.399 1_565 S
C200 C199 1.399 . S
C200 C201 1.376 . S
C201 H188 0.930 . S
C201 C200 1.376 . S
C201 C202 1.388 . S
C202 H189 0.930 . S
C202 C201 1.388 . S
C202 C203 1.390 1_565 S
C203 C202 1.390 1_545 S
C203 C204 1.394 . S
C203 C209 1.465 . S
C204 C199 1.399 1_545 S
C204 C203 1.394 . S
C204 C205 1.516 . S
C205 C204 1.516 . S
C205 C206 1.502 . S
C205 C207 1.561 . S
C205 C208 1.526 . S
C206 H190 0.959 . S
C206 H191 0.959 . S
C206 H192 0.961 . S
C206 C205 1.502 . S
C207 H193 0.960 . S
C207 H194 0.961 . S
C207 H195 0.959 1_455 S
C207 C205 1.561 . S
C208 C205 1.526 . S
C208 C209 1.396 . S
C208 C213 1.390 . S
C209 C203 1.465 . S
C209 C208 1.396 . S
C209 C210 1.399 1_455 S
C210 H196 0.929 . S
C210 C209 1.399 1_655 S
C210 C211 1.385 . S
C211 H197 0.931 . S
C211 C210 1.385 . S
C211 C212 1.389 . S
C212 C211 1.389 . S
C212 C213 1.387 1_655 S
C213 H198 0.930 . S
C213 C208 1.390 . S
C213 C212 1.387 1_455 S
H214 C226 0.930 1_565 S
H215 C228 0.930 . S
H216 C229 0.930 . S
H217 C233 0.959 . S
H218 C233 0.959 . S
H219 C233 0.961 . S
H220 C234 0.960 . S
H221 C234 0.961 . S
H222 C234 0.959 . S
H223 C237 0.929 . S
H224 C238 0.931 . S
H225 C240 0.930 . S
C226 H214 0.930 1_545 S
C226 C227 1.399 1_544 S
C226 C231 1.399 . S
C227 C226 1.399 1_566 S
C227 C228 1.376 1_565 S
C228 H215 0.930 . S
C228 C227 1.376 1_545 S
C228 C229 1.388 . S
C229 H216 0.930 . S
C229 C228 1.388 . S
C229 C230 1.390 . S
C230 C229 1.390 . S
C230 C231 1.394 1_556 S
C230 C236 1.465 . S
C231 C226 1.399 . S
C231 C230 1.394 1_554 S
C231 C232 1.516 . S
C232 C231 1.516 . S
C232 C233 1.502 1_545 S
C232 C234 1.561 . S
C232 C235 1.526 . S
C233 H217 0.959 . S
C233 H218 0.959 . S
C233 H219 0.961 . S
C233 C232 1.502 1_565 S
C234 H220 0.960 . S
C234 H221 0.961 . S
C234 H222 0.959 . S
C234 C232 1.561 . S
C235 C232 1.526 . S
C235 C236 1.396 1_554 S
C235 C240 1.390 . S
C236 C230 1.465 . S
C236 C235 1.396 1_556 S
C236 C237 1.399 . S
C237 H223 0.929 . S
C237 C236 1.399 . S
C237 C238 1.385 . S
C238 H224 0.931 . S
C238 C237 1.385 . S
C238 C239 1.389 . S
C239 C238 1.389 . S
C239 C240 1.387 1_556 S
C240 H225 0.930 . S
C240 C235 1.390 . S
C240 C239 1.387 1_554 S
H241 C253 0.930 . S
H242 C255 0.930 . S
H243 C256 0.930 . S
H244 C260 0.959 . S
H245 C260 0.959 . S
H246 C260 0.961 . S
H247 C261 0.960 . S
H248 C261 0.961 . S
H249 C261 0.959 . S
H250 C264 0.929 . S
H251 C265 0.931 . S
H252 C267 0.930 . S
C253 H241 0.930 . S
C253 C254 1.400 . S
C253 C258 1.399 1_655 S
C254 C253 1.400 . S
C254 C255 1.368 1_655 S
C255 H242 0.930 . S
C255 C254 1.368 1_455 S
C255 C256 1.388 . S
C256 H243 0.930 . S
C256 C255 1.388 . S
C256 C257 1.390 . S
C257 C256 1.390 . S
C257 C258 1.394 . S
C257 C263 1.465 . S
C258 C253 1.399 1_455 S
C258 C257 1.394 . S
C258 C259 1.516 . S
C259 C258 1.516 . S
C259 C260 1.502 1_455 S
C259 C261 1.561 . S
C259 C262 1.526 . S
C260 H244 0.959 . S
C260 H245 0.959 . S
C260 H246 0.961 . S
C260 C259 1.502 1_655 S
C261 H247 0.960 . S
C261 H248 0.961 . S
C261 H249 0.959 . S
C261 C259 1.561 . S
C262 C259 1.526 . S
C262 C263 1.396 . S
C262 C267 1.390 . S
C263 C257 1.465 . S
C263 C262 1.396 . S
C263 C264 1.399 . S
C264 H250 0.929 . S
C264 C263 1.399 . S
C264 C265 1.385 . S
C265 H251 0.931 . S
C265 C264 1.385 . S
C265 C266 1.389 . S
C266 C265 1.389 . S
C266 C267 1.387 . S
C267 H252 0.930 . S
C267 C262 1.390 . S
C267 C266 1.387 . S
H268 C280 0.930 . S
H269 C282 0.930 . S
H270 C283 0.930 . S
H271 C287 0.959 . S
H272 C287 0.959 . S
H273 C287 0.961 . S
H274 C288 0.960 . S
H275 C288 0.961 . S
H276 C288 0.959 . S
H277 C291 0.929 . S
H278 C292 0.931 . S
H279 C294 0.930 . S
C280 H268 0.930 . S
C280 C281 1.399 . S
C280 C285 1.399 . S
C281 C280 1.399 . S
C281 C282 1.376 . S
C282 H269 0.930 . S
C282 C281 1.376 . S
C282 C283 1.388 . S
C283 H270 0.930 . S
C283 C282 1.388 . S
C283 C284 1.390 . S
C284 C283 1.390 . S
C284 C285 1.394 . S
C284 C290 1.465 . S
C285 C280 1.399 . S
C285 C284 1.394 . S
C285 C286 1.516 . S
C286 C285 1.516 . S
C286 C287 1.502 . S
C286 C288 1.561 . S
C286 C289 1.526 . S
C287 H271 0.959 . S
C287 H272 0.959 . S
C287 H273 0.961 . S
C287 C286 1.502 . S
C288 H274 0.960 . S
C288 H275 0.961 . S
C288 H276 0.959 . S
C288 C286 1.561 . S
C289 C286 1.526 . S
C289 C290 1.396 . S
C289 C294 1.390 . S
C290 C284 1.465 . S
C290 C289 1.396 . S
C290 C291 1.399 . S
C291 H277 0.929 . S
C291 C290 1.399 . S
C291 C292 1.385 . S
C292 H278 0.931 . S
C292 C291 1.385 . S
C292 C293 1.389 . S
C293 C292 1.389 . S
C293 C294 1.387 . S
C294 H279 0.930 . S
C294 C289 1.390 . S
C294 C293 1.387 . S
H295 C307 0.930 . S
H296 C309 0.930 . S
H297 C310 0.930 . S
H298 C314 0.959 . S
H299 C314 0.959 . S
H300 C314 0.961 . S
H301 C315 0.960 . S
H302 C315 0.961 . S
H303 C315 0.959 . S
H304 C318 0.929 . S
H305 C319 0.931 . S
H306 C321 0.930 . S
C307 H295 0.930 . S
C307 C308 1.399 . S
C307 C312 1.399 . S
C308 C307 1.399 . S
C308 C309 1.376 . S
C309 H296 0.930 . S
C309 C308 1.376 . S
C309 C310 1.388 . S
C310 H297 0.930 . S
C310 C309 1.388 . S
C310 C311 1.390 . S
C311 C310 1.390 . S
C311 C312 1.394 . S
C311 C317 1.465 . S
C312 C307 1.399 . S
C312 C311 1.394 . S
C312 C313 1.516 . S
C313 C312 1.516 . S
C313 C314 1.502 . S
C313 C315 1.561 . S
C313 C316 1.526 . S
C314 H298 0.959 . S
C314 H299 0.959 . S
C314 H300 0.961 . S
C314 C313 1.502 . S
C315 H301 0.960 . S
C315 H302 0.961 . S
C315 H303 0.959 . S
C315 C313 1.561 . S
C316 C313 1.526 . S
C316 C317 1.396 . S
C316 C321 1.390 . S
C317 C311 1.465 . S
C317 C316 1.396 . S
C317 C318 1.399 . S
C318 H304 0.929 . S
C318 C317 1.399 . S
C318 C319 1.385 . S
C319 H305 0.931 . S
C319 C318 1.385 . S
C319 C320 1.389 . S
C320 C319 1.389 . S
C320 C321 1.387 . S
C321 H306 0.930 . S
C321 C316 1.390 . S
C321 C320 1.387 . S
H322 C334 0.930 . S
H323 C336 0.930 . S
H324 C337 0.930 . S
H325 C341 0.959 . S
H326 C341 0.959 . S
H327 C341 0.961 . S
H328 C342 0.960 . S
H329 C342 0.961 . S
H330 C342 0.959 . S
H331 C345 0.929 . S
H332 C346 0.931 . S
H333 C348 0.930 . S
C334 H322 0.930 . S
C334 C335 1.399 . S
C334 C339 1.399 . S
C335 C334 1.399 . S
C335 C336 1.376 . S
C336 H323 0.930 . S
C336 C335 1.376 . S
C336 C337 1.388 . S
C337 H324 0.930 . S
C337 C336 1.388 . S
C337 C338 1.390 . S
C338 C337 1.390 . S
C338 C339 1.394 . S
C338 C344 1.465 . S
C339 C334 1.399 . S
C339 C338 1.394 . S
C339 C340 1.516 . S
C340 C339 1.516 . S
C340 C341 1.502 . S
C340 C342 1.561 . S
C340 C343 1.526 . S
C341 H325 0.959 . S
C341 H326 0.959 . S
C341 H327 0.961 . S
C341 C340 1.502 . S
C342 H328 0.960 . S
C342 H329 0.961 . S
C342 H330 0.959 . S
C342 C340 1.561 . S
C343 C340 1.526 . S
C343 C344 1.396 . S
C343 C348 1.390 . S
C344 C338 1.465 . S
C344 C343 1.396 . S
C344 C345 1.399 . S
C345 H331 0.929 . S
C345 C344 1.399 . S
C345 C346 1.385 . S
C346 H332 0.931 . S
C346 C345 1.385 . S
C346 C347 1.389 . S
C347 C346 1.389 . S
C347 C348 1.387 . S
C348 H333 0.930 . S
C348 C343 1.390 . S
C348 C347 1.387 . S
H349 C361 0.930 . S
H350 C363 0.930 . S
H351 C364 0.930 . S
H352 C368 0.959 . S
H353 C368 0.959 . S
H354 C368 0.961 . S
H355 C369 0.960 . S
H356 C369 0.961 . S
H357 C369 0.959 . S
H358 C372 0.929 . S
H359 C373 0.931 . S
H360 C375 0.930 . S
C361 H349 0.930 . S
C361 C362 1.399 . S
C361 C366 1.399 . S
C362 C361 1.399 . S
C362 C363 1.376 . S
C363 H350 0.930 . S
C363 C362 1.376 . S
C363 C364 1.388 . S
C364 H351 0.930 . S
C364 C363 1.388 . S
C364 C365 1.390 . S
C365 C364 1.390 . S
C365 C366 1.394 . S
C365 C371 1.465 . S
C366 C361 1.399 . S
C366 C365 1.394 . S
C366 C367 1.516 . S
C367 C366 1.516 . S
C367 C368 1.502 . S
C367 C369 1.561 . S
C367 C370 1.526 . S
C368 H352 0.959 . S
C368 H353 0.959 . S
C368 H354 0.961 . S
C368 C367 1.502 . S
C369 H355 0.960 . S
C369 H356 0.961 . S
C369 H357 0.959 . S
C369 C367 1.561 . S
C370 C367 1.526 . S
C370 C371 1.396 . S
C370 C375 1.390 . S
C371 C365 1.465 . S
C371 C370 1.396 . S
C371 C372 1.399 . S
C372 H358 0.929 . S
C372 C371 1.399 . S
C372 C373 1.385 . S
C373 H359 0.931 . S
C373 C372 1.385 . S
C373 C374 1.389 . S
C374 C373 1.389 . S
C374 C375 1.387 . S
C375 H360 0.930 . S
C375 C370 1.390 . S
C375 C374 1.387 . S
H376 C388 0.930 . S
H377 C390 0.930 . S
H378 C391 0.930 . S
H379 C395 0.959 1_455 S
H380 C395 0.959 1_455 S
H381 C395 0.961 . S
H382 C396 0.960 . S
H383 C396 0.961 . S
H384 C396 0.959 . S
H385 C399 0.929 . S
H386 C400 0.931 . S
H387 C402 0.930 . S
C388 H376 0.930 . S
C388 C389 1.399 . S
C388 C393 1.399 . S
C389 C388 1.399 . S
C389 C390 1.376 . S
C390 H377 0.930 . S
C390 C389 1.376 . S
C390 C391 1.388 . S
C391 H378 0.930 . S
C391 C390 1.388 . S
C391 C392 1.390 . S
C392 C391 1.390 . S
C392 C393 1.394 . S
C392 C398 1.465 . S
C393 C388 1.399 . S
C393 C392 1.394 . S
C393 C394 1.516 . S
C394 C393 1.516 . S
C394 C395 1.502 . S
C394 C396 1.561 . S
C394 C397 1.526 . S
C395 H379 0.959 1_655 S
C395 H380 0.959 1_655 S
C395 H381 0.961 . S
C395 C394 1.502 . S
C396 H382 0.960 . S
C396 H383 0.961 . S
C396 H384 0.959 . S
C396 C394 1.561 . S
C397 C394 1.526 . S
C397 C398 1.396 . S
C397 C402 1.390 . S
C398 C392 1.465 . S
C398 C397 1.396 . S
C398 C399 1.399 . S
C399 H385 0.929 . S
C399 C398 1.399 . S
C399 C400 1.385 . S
C400 H386 0.931 . S
C400 C399 1.385 . S
C400 C401 1.389 . S
C401 C400 1.389 . S
C401 C402 1.387 . S
C402 H387 0.930 . S
C402 C397 1.390 . S
C402 C401 1.387 . S
H403 C415 0.930 1_545 S
H404 C417 0.930 . S
H405 C418 0.930 . S
H406 C422 0.959 . S
H407 C422 0.959 . S
H408 C422 0.961 1_545 S
H409 C423 0.960 . S
H410 C423 0.961 . S
H411 C423 0.959 . S
H412 C426 0.929 . S
H413 C427 0.931 . S
H414 C429 0.930 . S
C415 H403 0.930 1_565 S
C415 C416 1.399 . S
C415 C420 1.399 . S
C416 C415 1.399 . S
C416 C417 1.376 . S
C417 H404 0.930 . S
C417 C416 1.376 . S
C417 C418 1.388 . S
C418 H405 0.930 . S
C418 C417 1.388 . S
C418 C419 1.390 . S
C419 C418 1.390 . S
C419 C420 1.394 . S
C419 C425 1.465 . S
C420 C415 1.399 . S
C420 C419 1.394 . S
C420 C421 1.516 . S
C421 C420 1.516 . S
C421 C422 1.502 . S
C421 C423 1.561 1_565 S
C421 C424 1.526 . S
C422 H406 0.959 . S
C422 H407 0.959 . S
C422 H408 0.961 1_565 S
C422 C421 1.502 . S
C423 H409 0.960 . S
C423 H410 0.961 . S
C423 H411 0.959 . S
C423 C421 1.561 1_545 S
C424 C421 1.526 . S
C424 C425 1.396 . S
C424 C429 1.390 . S
C425 C419 1.465 . S
C425 C424 1.396 . S
C425 C426 1.399 . S
C426 H412 0.929 . S
C426 C425 1.399 . S
C426 C427 1.385 . S
C427 H413 0.931 . S
C427 C426 1.385 . S
C427 C428 1.389 . S
C428 C427 1.389 . S
C428 C429 1.387 . S
C429 H414 0.930 . S
C429 C424 1.390 . S
C429 C428 1.387 . S
H430 C442 0.930 . S
H431 C444 0.930 . S
H432 C445 0.930 . S
H433 C449 0.959 . S
H434 C449 0.959 . S
H435 C449 0.961 . S
H436 C450 0.960 . S
H437 C450 0.961 . S
H438 C450 0.959 . S
H439 C453 0.929 . S
H440 C454 0.931 . S
H441 C456 0.930 . S
C442 H430 0.930 . S
C442 C443 1.399 . S
C442 C447 1.399 . S
C443 C442 1.399 . S
C443 C444 1.376 . S
C444 H431 0.930 . S
C444 C443 1.376 . S
C444 C445 1.388 . S
C445 H432 0.930 . S
C445 C444 1.388 . S
C445 C446 1.390 . S
C446 C445 1.390 . S
C446 C447 1.394 . S
C446 C452 1.465 . S
C447 C442 1.399 . S
C447 C446 1.394 . S
C447 C448 1.516 . S
C448 C447 1.516 . S
C448 C449 1.502 . S
C448 C450 1.561 . S
C448 C451 1.526 . S
C449 H433 0.959 . S
C449 H434 0.959 . S
C449 H435 0.961 . S
C449 C448 1.502 . S
C450 H436 0.960 . S
C450 H437 0.961 . S
C450 H438 0.959 . S
C450 C448 1.561 . S
C451 C448 1.526 . S
C451 C452 1.396 . S
C451 C456 1.390 . S
C452 C446 1.465 . S
C452 C451 1.396 . S
C452 C453 1.399 . S
C453 H439 0.929 . S
C453 C452 1.399 . S
C453 C454 1.385 . S
C454 H440 0.931 . S
C454 C453 1.385 . S
C454 C455 1.389 . S
C455 C454 1.389 . S
C455 C456 1.387 . S
C456 H441 0.930 . S
C456 C451 1.390 . S
C456 C455 1.387 . S
H457 C469 0.930 . S
H458 C471 0.930 . S
H459 C472 0.930 . S
H460 C476 0.959 . S
H461 C476 0.959 . S
H462 C476 0.961 . S
H463 C477 0.960 . S
H464 C477 0.961 . S
H465 C477 0.959 . S
H466 C480 0.929 . S
H467 C481 0.931 . S
H468 C483 0.930 . S
C469 H457 0.930 . S
C469 C470 1.399 . S
C469 C474 1.399 . S
C470 C469 1.399 . S
C470 C471 1.376 . S
C471 H458 0.930 . S
C471 C470 1.376 . S
C471 C472 1.388 . S
C472 H459 0.930 . S
C472 C471 1.388 . S
C472 C473 1.390 . S
C473 C472 1.390 . S
C473 C474 1.394 . S
C473 C479 1.465 . S
C474 C469 1.399 . S
C474 C473 1.394 . S
C474 C475 1.516 . S
C475 C474 1.516 . S
C475 C476 1.502 . S
C475 C477 1.561 . S
C475 C478 1.526 . S
C476 H460 0.959 . S
C476 H461 0.959 . S
C476 H462 0.961 . S
C476 C475 1.502 . S
C477 H463 0.960 . S
C477 H464 0.961 . S
C477 H465 0.959 . S
C477 C475 1.561 . S
C478 C475 1.526 . S
C478 C479 1.396 . S
C478 C483 1.390 . S
C479 C473 1.465 . S
C479 C478 1.396 . S
C479 C480 1.399 . S
C480 H466 0.929 . S
C480 C479 1.399 . S
C480 C481 1.385 . S
C481 H467 0.931 . S
C481 C480 1.385 . S
C481 C482 1.389 . S
C482 C481 1.389 . S
C482 C483 1.387 . S
C483 H468 0.930 . S
C483 C478 1.390 . S
C483 C482 1.387 . S
C173 C98 0.607 1_565 S
C185 C18 0.440 . S
C200 C138 0.486 . S
C212 C58 0.662 1_655 S
C227 C89 0.900 1_556 S
C239 C9 0.896 1_556 S
C254 C49 0.906 . S
C266 C129 0.894 . S
C281 C55 1.114 . S
C293 C6 1.070 . S
C308 C46 1.087 . S
C320 C95 1.119 . S
C335 C135 1.035 . S
C347 C86 1.141 . S
C362 C126 1.135 . S
C374 C15 1.109 . S
C389 C99 4.563 . S
C401 C130 4.686 1_655 S
C416 C10 4.685 1_565 S
C428 C139 4.563 . S
C443 C50 4.686 . S
C455 C19 4.543 . S
C470 C90 4.685 . S
C482 C59 4.547 . S
