# Generated by pormake.
# Topology wmi, (6)-cn, num edge types: 1
# Building blocks:
#     Node 0, Type 0, BuildingBlock: FUNLAD_clean_sbu_0, # of connection points: 6
#     Node 1, Type 0, BuildingBlock: FUNLAD_clean_sbu_0, # of connection points: 6
#     Node 2, Type 0, BuildingBlock: FUNLAD_clean_sbu_0, # of connection points: 6
#     Node 3, Type 0, BuildingBlock: FUNLAD_clean_sbu_0, # of connection points: 6
#     Node 4, Type 0, BuildingBlock: FUNLAD_clean_sbu_0, # of connection points: 6
#     Node 5, Type 0, BuildingBlock: FUNLAD_clean_sbu_0, # of connection points: 6
#     Node 6, Type 0, BuildingBlock: FUNLAD_clean_sbu_0, # of connection points: 6
#     Node 7, Type 0, BuildingBlock: FUNLAD_clean_sbu_0, # of connection points: 6
#     Node 8, Type 0, BuildingBlock: FUNLAD_clean_sbu_0, # of connection points: 6
#     Node 9, Type 0, BuildingBlock: FUNLAD_clean_sbu_0, # of connection points: 6
#     Node 10, Type 0, BuildingBlock: FUNLAD_clean_sbu_0, # of connection points: 6
#     Node 11, Type 0, BuildingBlock: FUNLAD_clean_sbu_0, # of connection points: 6
#     Node 12, Type 0, BuildingBlock: FUNLAD_clean_sbu_0, # of connection points: 6
#     Node 13, Type 0, BuildingBlock: FUNLAD_clean_sbu_0, # of connection points: 6
#     Node 14, Type 0, BuildingBlock: FUNLAD_clean_sbu_0, # of connection points: 6
#     Node 15, Type 0, BuildingBlock: FUNLAD_clean_sbu_0, # of connection points: 6
#     Node 16, Type 0, BuildingBlock: FUNLAD_clean_sbu_0, # of connection points: 6
#     Node 17, Type 0, BuildingBlock: FUNLAD_clean_sbu_0, # of connection points: 6
#     Edge 18, Type (0, 0), BuildingBlock: ZUJKAS_clean_linker_0, # of connection points: 2
#     Edge 19, Type (0, 0), BuildingBlock: ZUJKAS_clean_linker_0, # of connection points: 2
#     Edge 20, Type (0, 0), BuildingBlock: ZUJKAS_clean_linker_0, # of connection points: 2
#     Edge 21, Type (0, 0), BuildingBlock: ZUJKAS_clean_linker_0, # of connection points: 2
#     Edge 22, Type (0, 0), BuildingBlock: ZUJKAS_clean_linker_0, # of connection points: 2
#     Edge 23, Type (0, 0), BuildingBlock: ZUJKAS_clean_linker_0, # of connection points: 2
#     Edge 24, Type (0, 0), BuildingBlock: ZUJKAS_clean_linker_0, # of connection points: 2
#     Edge 25, Type (0, 0), BuildingBlock: ZUJKAS_clean_linker_0, # of connection points: 2
#     Edge 26, Type (0, 0), BuildingBlock: ZUJKAS_clean_linker_0, # of connection points: 2
#     Edge 27, Type (0, 0), BuildingBlock: ZUJKAS_clean_linker_0, # of connection points: 2
#     Edge 28, Type (0, 0), BuildingBlock: ZUJKAS_clean_linker_0, # of connection points: 2
#     Edge 29, Type (0, 0), BuildingBlock: ZUJKAS_clean_linker_0, # of connection points: 2
#     Edge 30, Type (0, 0), BuildingBlock: ZUJKAS_clean_linker_0, # of connection points: 2
#     Edge 31, Type (0, 0), BuildingBlock: ZUJKAS_clean_linker_0, # of connection points: 2
#     Edge 32, Type (0, 0), BuildingBlock: ZUJKAS_clean_linker_0, # of connection points: 2
#     Edge 33, Type (0, 0), BuildingBlock: ZUJKAS_clean_linker_0, # of connection points: 2
#     Edge 34, Type (0, 0), BuildingBlock: ZUJKAS_clean_linker_0, # of connection points: 2
#     Edge 35, Type (0, 0), BuildingBlock: ZUJKAS_clean_linker_0, # of connection points: 2
#     Edge 36, Type (0, 0), BuildingBlock: ZUJKAS_clean_linker_0, # of connection points: 2
#     Edge 37, Type (0, 0), BuildingBlock: ZUJKAS_clean_linker_0, # of connection points: 2
#     Edge 38, Type (0, 0), BuildingBlock: ZUJKAS_clean_linker_0, # of connection points: 2
#     Edge 39, Type (0, 0), BuildingBlock: ZUJKAS_clean_linker_0, # of connection points: 2
#     Edge 40, Type (0, 0), BuildingBlock: ZUJKAS_clean_linker_0, # of connection points: 2
#     Edge 41, Type (0, 0), BuildingBlock: ZUJKAS_clean_linker_0, # of connection points: 2
#     Edge 42, Type (0, 0), BuildingBlock: ZUJKAS_clean_linker_0, # of connection points: 2
#     Edge 43, Type (0, 0), BuildingBlock: ZUJKAS_clean_linker_0, # of connection points: 2
#     Edge 44, Type (0, 0), BuildingBlock: ZUJKAS_clean_linker_0, # of connection points: 2
#     Edge 45, Type (0, 0), BuildingBlock: ZUJKAS_clean_linker_0, # of connection points: 2
#     Edge 46, Type (0, 0), BuildingBlock: ZUJKAS_clean_linker_0, # of connection points: 2
#     Edge 47, Type (0, 0), BuildingBlock: ZUJKAS_clean_linker_0, # of connection points: 2
#     Edge 48, Type (0, 0), BuildingBlock: ZUJKAS_clean_linker_0, # of connection points: 2
#     Edge 49, Type (0, 0), BuildingBlock: ZUJKAS_clean_linker_0, # of connection points: 2
#     Edge 50, Type (0, 0), BuildingBlock: ZUJKAS_clean_linker_0, # of connection points: 2
#     Edge 51, Type (0, 0), BuildingBlock: ZUJKAS_clean_linker_0, # of connection points: 2
#     Edge 52, Type (0, 0), BuildingBlock: ZUJKAS_clean_linker_0, # of connection points: 2
#     Edge 53, Type (0, 0), BuildingBlock: ZUJKAS_clean_linker_0, # of connection points: 2
#     Edge 54, Type (0, 0), BuildingBlock: ZUJKAS_clean_linker_0, # of connection points: 2
#     Edge 55, Type (0, 0), BuildingBlock: ZUJKAS_clean_linker_0, # of connection points: 2
#     Edge 56, Type (0, 0), BuildingBlock: ZUJKAS_clean_linker_0, # of connection points: 2
#     Edge 57, Type (0, 0), BuildingBlock: ZUJKAS_clean_linker_0, # of connection points: 2
#     Edge 58, Type (0, 0), BuildingBlock: ZUJKAS_clean_linker_0, # of connection points: 2
#     Edge 59, Type (0, 0), BuildingBlock: ZUJKAS_clean_linker_0, # of connection points: 2
#     Edge 60, Type (0, 0), BuildingBlock: ZUJKAS_clean_linker_0, # of connection points: 2
#     Edge 61, Type (0, 0), BuildingBlock: ZUJKAS_clean_linker_0, # of connection points: 2
#     Edge 62, Type (0, 0), BuildingBlock: ZUJKAS_clean_linker_0, # of connection points: 2
#     Edge 63, Type (0, 0), BuildingBlock: ZUJKAS_clean_linker_0, # of connection points: 2
#     Edge 64, Type (0, 0), BuildingBlock: ZUJKAS_clean_linker_0, # of connection points: 2
#     Edge 65, Type (0, 0), BuildingBlock: ZUJKAS_clean_linker_0, # of connection points: 2
#     Edge 66, Type (0, 0), BuildingBlock: ZUJKAS_clean_linker_0, # of connection points: 2
#     Edge 67, Type (0, 0), BuildingBlock: ZUJKAS_clean_linker_0, # of connection points: 2
#     Edge 68, Type (0, 0), BuildingBlock: ZUJKAS_clean_linker_0, # of connection points: 2
#     Edge 69, Type (0, 0), BuildingBlock: ZUJKAS_clean_linker_0, # of connection points: 2
#     Edge 70, Type (0, 0), BuildingBlock: ZUJKAS_clean_linker_0, # of connection points: 2
#     Edge 71, Type (0, 0), BuildingBlock: ZUJKAS_clean_linker_0, # of connection points: 2
# Relax obj value: 0.187
# Max RMSD: 0.215
# Mean RMSD: 0.215
data_MOF--net-wmi--node1-FUNLAD_clean_sbu_0--edge1-ZUJKAS_clean_linker_0
_symmetry_space_group_name_H-M    P1
_symmetry_Int_Tables_number       1
_symmetry_cell_setting            triclinic
loop_
_symmetry_equiv_pos_as_xyz
'x, y, z'
_cell_length_a     35.954974
_cell_length_b     35.973234
_cell_length_c     156.64096
_cell_angle_alpha  90.001945
_cell_angle_beta   90.00894
_cell_angle_gamma 119.96337
loop_
_atom_site_label
_atom_site_type_symbol
_atom_site_fract_x
_atom_site_fract_y
_atom_site_fract_z
_atom_type_partial_charge
C0 C 0.32763 0.95251 0.08754 0.0
N1 N 0.40481 0.00979 0.10885 0.0
C2 C 0.36922 0.00803 0.11229 0.0
C3 C 0.36172 0.0026 0.12105 0.0
C4 C 0.3911 -0.00107 0.12638 0.0
C5 C 0.42806 0.00167 0.1227 0.0
C6 C 0.43426 0.00701 0.11386 0.0
Zn7 Zn 0.41075 0.01455 0.09583 0.0
C8 C 0.43677 0.95555 0.08836 0.0
N9 N 0.4174 0.02242 0.0686 0.0
C10 C 0.38538 0.02301 0.06408 0.0
C11 C 0.45139 0.02329 0.06458 0.0
C12 C 0.45383 0.02436 0.05568 0.0
C13 C 0.421 0.02456 0.05084 0.0
C14 C 0.38654 0.02409 0.05517 0.0
Zn15 Zn 0.41324 0.01854 0.08163 0.0
O16 O 0.34594 0.96636 0.0947 0.0
C17 C 0.39143 0.08067 0.0891 0.0
O18 O 0.34822 0.96984 0.08073 0.0
H19 H 0.47656 0.02287 0.06829 0.0
H20 H 0.34623 0.01042 0.10822 0.0
H21 H 0.35857 0.02215 0.0674 0.0
O22 O 0.39424 0.06322 0.09594 0.0
O23 O 0.39649 0.06702 0.08196 0.0
H24 H 0.46228 0.00837 0.11099 0.0
O25 O 0.47862 0.06589 0.08273 0.0
O26 O 0.47609 0.06167 0.09674 0.0
O27 O 0.43144 0.97125 0.08151 0.0
O28 O 0.42905 0.9671 0.0955 0.0
C29 C 0.49746 0.07742 0.08992 0.0
H30 H 0.33321 0.00145 0.12363 0.0
H31 H 0.45142 -0.00124 0.12658 0.0
H32 H 0.48127 0.02525 0.05261 0.0
H33 H 0.36024 0.02364 0.05171 0.0
C34 C 0.07755 0.39268 0.08827 0.0
N35 N 0.01955 0.41494 0.10918 0.0
C36 C 0.01851 0.37982 0.11268 0.0
C37 C 0.02179 0.37674 0.12148 0.0
C38 C 0.02612 0.41008 0.12681 0.0
C39 C 0.02679 0.44591 0.12304 0.0
C40 C 0.02341 0.44768 0.11416 0.0
Zn41 Zn 0.01722 0.41732 0.09613 0.0
C42 C 0.0805 0.50181 0.08909 0.0
N43 N 0.01415 0.41876 0.06886 0.0
C44 C 0.0121 0.38544 0.06435 0.0
C45 C 0.01598 0.45314 0.06483 0.0
C46 C 0.01612 0.45505 0.05592 0.0
C47 C 0.0143 0.42122 0.0511 0.0
C48 C 0.01211 0.38601 0.05544 0.0
Zn49 Zn 0.01574 0.4173 0.08191 0.0
O50 O 0.0633 0.39757 0.09534 0.0
C51 C 0.94953 0.33405 0.08897 0.0
O52 O 0.06207 0.39768 0.08136 0.0
H53 H 0.01753 0.47927 0.06853 0.0
H54 H 0.01572 0.35425 0.10861 0.0
H55 H 0.01083 0.35849 0.06768 0.0
O56 O 0.96647 0.35325 0.09592 0.0
O57 O 0.96489 0.35311 0.08193 0.0
H58 H 0.0242 0.47533 0.11125 0.0
O59 O 0.97067 0.43847 0.08268 0.0
O60 O 0.97222 0.43866 0.09671 0.0
O61 O 0.06544 0.48183 0.08211 0.0
O62 O 0.06685 0.48197 0.09612 0.0
C63 C 0.9585 0.44593 0.08978 0.0
H64 H 0.02186 0.34886 0.12407 0.0
H65 H 0.02967 0.47217 0.12691 0.0
H66 H 0.0173 0.48258 0.05284 0.0
H67 H 0.01124 0.35949 0.052 0.0
C68 C 0.63224 0.69982 0.08817 0.0
N69 N 0.61614 0.62458 0.10966 0.0
C70 C 0.64994 0.66059 0.11297 0.0
C71 C 0.65266 0.66854 0.12172 0.0
C72 C 0.62035 0.63915 0.12717 0.0
C73 C 0.5862 0.60175 0.12362 0.0
C74 C 0.58465 0.59512 0.11479 0.0
Zn75 Zn 0.61336 0.61783 0.09665 0.0
C76 C 0.52691 0.59011 0.0897 0.0
N77 N 0.61029 0.60864 0.06942 0.0
C78 C 0.64231 0.64056 0.06478 0.0
C79 C 0.5768 0.57451 0.06552 0.0
C80 C 0.57438 0.57188 0.05662 0.0
C81 C 0.60668 0.60472 0.05167 0.0
C82 C 0.64115 0.63923 0.05588 0.0
Zn83 Zn 0.61228 0.61361 0.08245 0.0
O84 O 0.62925 0.68263 0.09541 0.0
C85 C 0.69769 0.63681 0.08941 0.0
O86 O 0.62792 0.67827 0.08145 0.0
H87 H 0.55161 0.54953 0.06933 0.0
H88 H 0.67471 0.68356 0.10879 0.0
H89 H 0.6687 0.66735 0.068 0.0
O90 O 0.67877 0.63463 0.0964 0.0
O91 O 0.67756 0.63096 0.08242 0.0
H92 H 0.55798 0.56677 0.11203 0.0
O93 O 0.59501 0.54851 0.08366 0.0
O94 O 0.59561 0.55256 0.09767 0.0
O95 O 0.54667 0.5948 0.08271 0.0
O96 O 0.54757 0.59907 0.09669 0.0
C97 C 0.58891 0.53045 0.09091 0.0
H98 H 0.67992 0.69742 0.1242 0.0
H99 H 0.56049 0.57838 0.1276 0.0
H100 H 0.547 0.5449 0.05365 0.0
H101 H 0.66709 0.66492 0.05233 0.0
C102 C 0.94956 0.33067 0.92252 0.0
N103 N 0.00789 0.4072 0.90117 0.0
C104 C 0.00533 0.37124 0.89774 0.0
C105 C -2e-05 0.36381 0.88898 0.0
C106 C -0.00276 0.39365 0.88363 0.0
C107 C 0.00074 0.43094 0.88729 0.0
C108 C 0.00596 0.43706 0.89614 0.0
Zn109 Zn 0.01274 0.41315 0.91419 0.0
C110 C 0.95504 0.44093 0.92165 0.0
N111 N 0.02091 0.41988 0.94142 0.0
C112 C 0.0208 0.38735 0.94587 0.0
C113 C 0.02269 0.45413 0.9455 0.0
C114 C 0.02398 0.45631 0.95442 0.0
C115 C 0.02331 0.42287 0.95918 0.0
C116 C 0.02197 0.38819 0.95478 0.0
Zn117 Zn 0.01687 0.41586 0.92839 0.0
O118 O 0.96346 0.3486 0.91533 0.0
C119 C 0.07795 0.39247 0.92092 0.0
O120 O 0.96739 0.35133 0.92929 0.0
H121 H 0.02263 0.47961 0.94185 0.0
H122 H 0.00707 0.34794 0.90183 0.0
H123 H 0.01951 0.36048 0.9425 0.0
O124 O 0.06069 0.3955 0.91408 0.0
O125 O 0.06444 0.39788 0.92805 0.0
H126 H 0.00795 0.46537 0.899 0.0
O127 O 0.06508 0.48069 0.92728 0.0
O128 O 0.06085 0.47826 0.91328 0.0
O129 O 0.9705 0.4354 0.92851 0.0
O130 O 0.9662 0.43262 0.91452 0.0
C131 C 0.07692 0.49948 0.9201 0.0
H132 H -0.00179 0.33501 0.88641 0.0
H133 H -0.00144 0.45466 0.8834 0.0
H134 H 0.02455 0.48344 0.95754 0.0
H135 H 0.02204 0.36202 0.95818 0.0
C136 C 0.69886 0.63614 0.92317 0.0
N137 N 0.62282 0.61838 0.90176 0.0
C138 C 0.65702 0.65382 0.89839 0.0
C139 C 0.66471 0.65695 0.88963 0.0
C140 C 0.6372 0.62313 0.88422 0.0
C141 C 0.60172 0.58711 0.88786 0.0
C142 C 0.59507 0.58541 0.89668 0.0
Zn143 Zn 0.61616 0.61526 0.91478 0.0
C144 C 0.59094 0.52917 0.92164 0.0
N145 N 0.60684 0.61114 0.94201 0.0
C146 C 0.63827 0.64345 0.94668 0.0
C147 C 0.57291 0.57731 0.94586 0.0
C148 C 0.56986 0.57494 0.95476 0.0
C149 C 0.60203 0.60772 0.95975 0.0
C150 C 0.6365 0.64239 0.95558 0.0
Zn151 Zn 0.61186 0.61348 0.92897 0.0
O152 O 0.68143 0.63334 0.91597 0.0
C153 C 0.63265 0.69845 0.92212 0.0
O154 O 0.67717 0.63063 0.92993 0.0
H155 H 0.54821 0.55198 0.94204 0.0
H156 H 0.67879 0.67965 0.90253 0.0
H157 H 0.66505 0.66998 0.94349 0.0
O158 O 0.63081 0.67989 0.9151 0.0
O159 O 0.62756 0.67835 0.92908 0.0
H160 H 0.56814 0.55746 0.89949 0.0
O161 O 0.54616 0.59456 0.92777 0.0
O162 O 0.5504 0.59545 0.91377 0.0
O163 O 0.59471 0.5484 0.92866 0.0
O164 O 0.59961 0.55007 0.91469 0.0
C165 C 0.52808 0.58809 0.92051 0.0
H166 H 0.69198 0.6857 0.88712 0.0
H167 H 0.57986 0.56007 0.88396 0.0
H168 H 0.54244 0.54788 0.9577 0.0
H169 H 0.66232 0.66807 0.95916 0.0
C170 C 0.3904 0.07894 0.92177 0.0
N171 N 0.41155 0.0202 0.90085 0.0
C172 C 0.37732 0.02104 0.89737 0.0
C173 C 0.37515 0.02604 0.8886 0.0
C174 C 0.40848 0.03019 0.8833 0.0
C175 C 0.44304 0.02822 0.88702 0.0
C176 C 0.44402 0.02332 0.89587 0.0
Zn177 Zn 0.41301 0.01689 0.9139 0.0
C178 C 0.49768 0.07797 0.92123 0.0
N179 N 0.41213 0.0126 0.94117 0.0
C180 C 0.37909 0.0116 0.94559 0.0
C181 C 0.44563 0.01292 0.94528 0.0
C182 C 0.44695 0.01266 0.95419 0.0
C183 C 0.41349 0.01209 0.95893 0.0
C184 C 0.37911 0.01132 0.95451 0.0
Zn185 Zn 0.41169 0.015 0.92812 0.0
O186 O 0.39522 0.06451 0.91471 0.0
C187 C 0.32819 0.9508 0.92083 0.0
O188 O 0.3942 0.06277 0.92869 0.0
H189 H 0.47164 0.01383 0.94164 0.0
H190 H 0.35177 0.01841 0.90142 0.0
H191 H 0.35271 0.01125 0.9422 0.0
O192 O 0.34813 0.96731 0.91392 0.0
O193 O 0.34695 0.9659 0.92791 0.0
H194 H 0.47101 0.02272 0.89878 0.0
O195 O 0.4307 0.96831 0.92734 0.0
O196 O 0.43238 0.97041 0.91332 0.0
O197 O 0.4768 0.06304 0.92812 0.0
O198 O 0.47843 0.06515 0.91411 0.0
C199 C 0.43824 0.95588 0.92028 0.0
H200 H 0.34753 0.02661 0.88599 0.0
H201 H 0.46951 0.03148 0.88316 0.0
H202 H 0.47432 0.01376 0.95733 0.0
H203 H 0.35234 0.01026 0.95789 0.0
C204 C -0.00394 0.2856 0.42153 0.0
N205 N 0.07426 0.34676 0.44253 0.0
C206 C 0.03898 0.34596 0.44589 0.0
C207 C 0.03133 0.34118 0.45466 0.0
C208 C 0.06025 0.33719 0.46007 0.0
C209 C 0.09707 0.33924 0.45648 0.0
C210 C 0.10341 0.34393 0.44763 0.0
Zn211 Zn 0.07974 0.34905 0.4295 0.0
C212 C 0.10504 0.28819 0.42271 0.0
N213 N 0.0854 0.35123 0.40222 0.0
C214 C 0.05254 0.34939 0.39758 0.0
C215 C 0.12029 0.35344 0.39833 0.0
C216 C 0.12301 0.3538 0.38943 0.0
C217 C 0.08937 0.35153 0.38446 0.0
C218 C 0.05379 0.34933 0.38867 0.0
Zn219 Zn 0.08163 0.34982 0.41527 0.0
O220 O 0.0145 0.30109 0.42861 0.0
C221 C 0.06083 0.41404 0.42204 0.0
O222 O 0.01665 0.3011 0.41464 0.0
H223 H 0.14608 0.35487 0.40213 0.0
H224 H 0.01621 0.34833 0.44175 0.0
H225 H 0.02509 0.34762 0.40079 0.0
O226 O 0.06411 0.39836 0.42908 0.0
O227 O 0.06492 0.39826 0.41508 0.0
H228 H 0.13118 0.34448 0.44483 0.0
O229 O 0.14699 0.39733 0.41615 0.0
O230 O 0.14546 0.39576 0.43017 0.0
O231 O 0.09987 0.3026 0.41567 0.0
O232 O 0.09724 0.30109 0.42967 0.0
C233 C 0.16639 0.41009 0.42326 0.0
H234 H 0.00294 0.34052 0.45716 0.0
H235 H 0.12006 0.33606 0.46042 0.0
H236 H 0.15138 0.3562 0.38649 0.0
H237 H 0.02677 0.34686 0.38513 0.0
C238 C 0.74717 0.72819 0.42205 0.0
N239 N 0.68672 0.74667 0.443 0.0
C240 C 0.68749 0.71228 0.44642 0.0
C241 C 0.69217 0.70962 0.45519 0.0
C242 C 0.69609 0.74263 0.46056 0.0
C243 C 0.69416 0.77733 0.45691 0.0
C244 C 0.68958 0.77879 0.44806 0.0
Zn245 Zn 0.68412 0.74912 0.42996 0.0
C246 C 0.74499 0.83484 0.42298 0.0
N247 N 0.68121 0.7509 0.40269 0.0
C248 C 0.68092 0.71825 0.39825 0.0
C249 C 0.68102 0.78417 0.3986 0.0
C250 C 0.68084 0.78558 0.38968 0.0
C251 C 0.68096 0.75248 0.38493 0.0
C252 C 0.68081 0.71841 0.38934 0.0
Zn253 Zn 0.68293 0.74963 0.41574 0.0
O254 O 0.73206 0.73172 0.42914 0.0
C255 C 0.6186 0.66508 0.42271 0.0
O256 O 0.7313 0.73279 0.41516 0.0
H257 H 0.68137 0.80986 0.40225 0.0
H258 H 0.6851 0.68702 0.44231 0.0
H259 H 0.68092 0.69204 0.40163 0.0
O260 O 0.63469 0.68425 0.42971 0.0
O261 O 0.63407 0.68465 0.41572 0.0
H262 H 0.68904 0.80591 0.44521 0.0
O263 O 0.63586 0.76819 0.41653 0.0
O264 O 0.63751 0.76829 0.43056 0.0
O265 O 0.73052 0.81494 0.41598 0.0
O266 O 0.73213 0.81449 0.42999 0.0
C267 C 0.62327 0.77504 0.42364 0.0
H268 H 0.69271 0.68191 0.45774 0.0
H269 H 0.69727 0.80357 0.46082 0.0
H270 H 0.68141 0.81268 0.38654 0.0
H271 H 0.68026 0.69191 0.38595 0.0
C272 C 0.30387 0.03554 0.42152 0.0
N273 N 0.28755 0.95656 0.44232 0.0
C274 C 0.32229 0.99135 0.44574 0.0
C275 C 0.32578 -0.00211 0.45454 0.0
C276 C 0.29321 0.96841 0.45994 0.0
C277 C 0.25778 0.93253 0.45626 0.0
C278 C 0.25561 0.92716 0.44738 0.0
Zn279 Zn 0.28434 0.95185 0.42928 0.0
C280 C 0.1981 0.92625 0.42253 0.0
N281 N 0.28126 0.94751 0.40201 0.0
C282 C 0.31239 0.98081 0.39748 0.0
C283 C 0.24879 0.91301 0.39799 0.0
C284 C 0.24674 0.91117 0.38908 0.0
C285 C 0.27825 0.9453 0.38423 0.0
C286 C 0.31141 0.98044 0.38857 0.0
Zn287 Zn 0.2834 0.95039 0.41506 0.0
O288 O 0.3008 0.01685 0.42858 0.0
C289 C 0.36857 0.9717 0.42183 0.0
O290 O 0.2993 0.01533 0.4146 0.0
H291 H 0.22434 0.88686 0.4017 0.0
H292 H 0.34716 0.01457 0.44162 0.0
H293 H 0.33792 0.00795 0.40079 0.0
O294 O 0.34936 0.9683 0.42884 0.0
O295 O 0.3488 0.96729 0.41485 0.0
H296 H 0.22825 0.89975 0.44453 0.0
O297 O 0.26595 0.88519 0.41576 0.0
O298 O 0.26616 0.88622 0.42978 0.0
O299 O 0.21767 0.93186 0.41548 0.0
O300 O 0.21884 0.93373 0.42949 0.0
C301 C 0.25969 0.8656 0.42283 0.0
H302 H 0.35331 0.02637 0.45707 0.0
H303 H 0.23211 0.90881 0.46019 0.0
H304 H 0.22091 0.88312 0.38603 0.0
H305 H 0.33605 0.00781 0.38514 0.0
C306 C 0.6174 0.6629 0.25605 0.0
N307 N 0.67376 0.74215 0.23494 0.0
C308 C 0.67402 0.70766 0.23144 0.0
C309 C 0.67042 0.7012 0.22264 0.0
C310 C 0.66657 0.73051 0.21732 0.0
C311 C 0.66646 0.76595 0.22109 0.0
C312 C 0.67016 0.77121 0.22997 0.0
Zn313 Zn 0.6776 0.74737 0.24798 0.0
C314 C 0.61626 0.77006 0.25546 0.0
N315 N 0.68434 0.75257 0.27523 0.0
C316 C 0.68613 0.72111 0.27972 0.0
C317 C 0.68389 0.78582 0.27928 0.0
C318 C 0.6849 0.78812 0.28818 0.0
C319 C 0.68641 0.75591 0.29299 0.0
C320 C 0.6872 0.72216 0.28863 0.0
Zn321 Zn 0.68106 0.74896 0.26219 0.0
O322 O 0.631 0.6819 0.24895 0.0
C323 C 0.74538 0.73039 0.25473 0.0
O324 O 0.63392 0.68331 0.26292 0.0
H325 H 0.68254 0.81054 0.27559 0.0
H326 H 0.67664 0.68476 0.2355 0.0
H327 H 0.68632 0.6949 0.27638 0.0
O328 O 0.72782 0.73308 0.2479 0.0
O329 O 0.73105 0.73437 0.26188 0.0
H330 H 0.67 0.79839 0.23288 0.0
O331 O 0.72691 0.81492 0.26124 0.0
O332 O 0.72315 0.81334 0.24724 0.0
O333 O 0.6322 0.76497 0.26229 0.0
O334 O 0.62854 0.7634 0.24829 0.0
C335 C 0.73819 0.83438 0.25412 0.0
H336 H 0.6699 0.67303 0.22005 0.0
H337 H 0.66393 0.78955 0.21723 0.0
H338 H 0.6848 0.81501 0.29127 0.0
H339 H 0.6878 0.69635 0.29207 0.0
C340 C 0.3652 0.96985 0.25576 0.0
N341 N 0.28946 0.95068 0.2342 0.0
C342 C 0.32512 0.98445 0.23078 0.0
C343 C 0.33204 0.98726 0.222 0.0
C344 C 0.30198 0.95507 0.21661 0.0
C345 C 0.2654 0.92045 0.2203 0.0
C346 C 0.25972 0.91891 0.22916 0.0
Zn347 Zn 0.28303 0.9496 0.24721 0.0
C348 C 0.25543 0.86467 0.25482 0.0
N349 N 0.27459 0.95166 0.27441 0.0
C350 C 0.30757 0.9831 0.27895 0.0
C351 C 0.23943 0.91992 0.2784 0.0
C352 C 0.23668 0.91881 0.28731 0.0
C353 C 0.27059 0.95049 0.29217 0.0
C354 C 0.30631 0.98304 0.28785 0.0
Zn355 Zn 0.27933 0.95161 0.26139 0.0
O356 O 0.34771 0.96544 0.24851 0.0
C357 C 0.30273 0.03553 0.25382 0.0
O358 O 0.34399 0.96702 0.26245 0.0
H359 H 0.21355 0.8952 0.27468 0.0
H360 H 0.34851 0.00929 0.23489 0.0
H361 H 0.33525 0.00803 0.27565 0.0
O362 O 0.30017 0.01507 0.24702 0.0
O363 O 0.29699 0.0169 0.26098 0.0
H364 H 0.23158 0.89235 0.23201 0.0
O365 O 0.21428 0.93457 0.2601 0.0
O366 O 0.21787 0.9321 0.24613 0.0
O367 O 0.2603 0.88602 0.2616 0.0
O368 O 0.26401 0.88366 0.24764 0.0
C369 C 0.19603 0.92711 0.25285 0.0
H370 H 0.36106 0.01414 0.21947 0.0
H371 H 0.2412 0.8951 0.21638 0.0
H372 H 0.20821 0.89345 0.29033 0.0
H373 H 0.33353 0.00777 0.29131 0.0
C374 C 0.06191 0.41432 0.25602 0.0
N375 N 0.07899 0.35642 0.23445 0.0
C376 C 0.04508 0.35849 0.23114 0.0
C377 C 0.04234 0.36377 0.22239 0.0
C378 C 0.07474 0.36686 0.21694 0.0
C379 C 0.10904 0.3638 0.22049 0.0
C380 C 0.11062 0.3587 0.22931 0.0
Zn381 Zn 0.08158 0.35194 0.24745 0.0
C382 C 0.16784 0.41107 0.2545 0.0
N383 N 0.08433 0.34473 0.27467 0.0
C384 C 0.05297 0.34586 0.27933 0.0
C385 C 0.1167 0.3419 0.27854 0.0
C386 C 0.11846 0.34028 0.28744 0.0
C387 C 0.08676 0.34188 0.29242 0.0
C388 C 0.05366 0.34465 0.28823 0.0
Zn389 Zn 0.0827 0.34847 0.26164 0.0
O390 O 0.06503 0.40031 0.24877 0.0
C391 C -0.00249 0.28601 0.2546 0.0
O392 O 0.06651 0.39718 0.26272 0.0
H393 H 0.14133 0.34103 0.27472 0.0
H394 H 0.02018 0.35646 0.23531 0.0
H395 H 0.02752 0.34813 0.27613 0.0
O396 O 0.01636 0.30301 0.24762 0.0
O397 O 0.01757 0.30024 0.2616 0.0
H398 H 0.13737 0.35712 0.23208 0.0
O399 O 0.10056 0.30096 0.26031 0.0
O400 O 0.09986 0.30492 0.24632 0.0
O401 O 0.14813 0.39562 0.26148 0.0
O402 O 0.14726 0.39936 0.2475 0.0
C403 C 0.10675 0.28937 0.25303 0.0
H404 H 0.01497 0.36523 0.21992 0.0
H405 H 0.13482 0.36628 0.21651 0.0
H406 H 0.14426 0.33752 0.29036 0.0
H407 H 0.02888 0.34666 0.29177 0.0
C408 C 0.6635 0.61941 0.75522 0.0
N409 N 0.74094 0.67731 0.77647 0.0
C410 C 0.70634 0.6774 0.77996 0.0
C411 C 0.69907 0.67235 0.78873 0.0
C412 C 0.72743 0.66676 0.79402 0.0
C413 C 0.76333 0.66744 0.79027 0.0
C414 C 0.7695 0.6728 0.78143 0.0
Zn415 Zn 0.74668 0.68177 0.76344 0.0
C416 C 0.77286 0.62292 0.75598 0.0
N417 N 0.75308 0.68921 0.7362 0.0
C418 C 0.72004 0.68759 0.73166 0.0
C419 C 0.78809 0.69223 0.7322 0.0
C420 C 0.79067 0.69347 0.7233 0.0
C421 C 0.75676 0.69125 0.71843 0.0
C422 C 0.72114 0.6884 0.72275 0.0
Zn423 Zn 0.74909 0.6856 0.74923 0.0
O424 O 0.68171 0.63359 0.76238 0.0
C425 C 0.7273 0.7478 0.75662 0.0
O426 O 0.68414 0.63655 0.74841 0.0
H427 H 0.81401 0.69345 0.73593 0.0
H428 H 0.68394 0.68094 0.77591 0.0
H429 H 0.69249 0.68517 0.73495 0.0
O430 O 0.73043 0.73073 0.76348 0.0
O431 O 0.73196 0.73369 0.7495 0.0
H432 H 0.79675 0.6727 0.77853 0.0
O433 O 0.81448 0.73335 0.75031 0.0
O434 O 0.8121 0.72874 0.76431 0.0
O435 O 0.76765 0.63871 0.74914 0.0
O436 O 0.76488 0.63424 0.76313 0.0
C437 C 0.83342 0.74468 0.7575 0.0
H438 H 0.67145 0.67291 0.79133 0.0
H439 H 0.78587 0.66292 0.79409 0.0
H440 H 0.81908 0.69635 0.72028 0.0
H441 H 0.69393 0.68597 0.71929 0.0
C442 C 0.41274 0.06166 0.75439 0.0
N443 N 0.35334 0.07965 0.7756 0.0
C444 C 0.35414 0.0452 0.77897 0.0
C445 C 0.35776 0.04183 0.78776 0.0
C446 C 0.36054 0.07416 0.79319 0.0
C447 C 0.35942 0.10934 0.78955 0.0
C448 C 0.35575 0.11144 0.78069 0.0
Zn449 Zn 0.35021 0.08232 0.76257 0.0
C450 C 0.41027 0.16801 0.75556 0.0
N451 N 0.34515 0.0841 0.73532 0.0
C452 C 0.34632 0.05252 0.73076 0.0
C453 C 0.34329 0.11677 0.73135 0.0
C454 C 0.34279 0.11864 0.72244 0.0
C455 C 0.3445 0.08672 0.71755 0.0
C456 C 0.34619 0.05329 0.72185 0.0
Zn457 Zn 0.34757 0.08253 0.74836 0.0
O458 O 0.39856 0.06553 0.76155 0.0
C459 C 0.28432 -0.00204 0.75541 0.0
O460 O 0.3959 0.0658 0.74759 0.0
H461 H 0.34238 0.14157 0.73509 0.0
H462 H 0.35247 0.02039 0.77482 0.0
H463 H 0.34782 0.02685 0.73404 0.0
O464 O 0.30132 0.01733 0.76234 0.0
O465 O 0.29869 0.01744 0.74836 0.0
H466 H 0.35508 0.13856 0.77787 0.0
O467 O 0.30045 0.10072 0.74936 0.0
O468 O 0.30302 0.10082 0.76337 0.0
O469 O 0.39528 0.14805 0.74857 0.0
O470 O 0.39779 0.14775 0.76258 0.0
C471 C 0.28809 0.10727 0.75652 0.0
H472 H 0.35923 0.01451 0.79024 0.0
H473 H 0.36107 0.13481 0.7935 0.0
H474 H 0.34083 0.14469 0.71943 0.0
H475 H 0.34823 0.02834 0.71838 0.0
C476 C 0.96989 0.36909 0.75452 0.0
N477 N 0.95036 0.29182 0.7758 0.0
C478 C 0.98485 0.32676 0.77925 0.0
C479 C 0.98786 0.33352 0.78804 0.0
C480 C 0.95511 0.30405 0.79341 0.0
C481 C 0.91986 0.26811 0.7897 0.0
C482 C 0.91814 0.26256 0.78083 0.0
Zn483 Zn 0.94842 0.286 0.76278 0.0
C484 C 0.86321 0.26071 0.75546 0.0
N485 N 0.94801 0.27877 0.73551 0.0
C486 C 0.97896 0.31219 0.73097 0.0
C487 C 0.91635 0.24353 0.73151 0.0
C488 C 0.91499 0.24107 0.7226 0.0
C489 C 0.9461 0.27546 0.71777 0.0
C490 C 0.97842 0.31132 0.72206 0.0
Zn491 Zn 0.94888 0.28286 0.74857 0.0
O492 O 0.96577 0.35112 0.7617 0.0
C493 C 0.033 0.30388 0.7558 0.0
O494 O 0.96581 0.34801 0.74774 0.0
H495 H 0.89188 0.21743 0.73522 0.0
H496 H 0.01001 0.34979 0.77515 0.0
H497 H 0.00402 0.33976 0.73427 0.0
O498 O 0.01347 0.3015 0.76272 0.0
O499 O 0.01373 0.29898 0.74873 0.0
H500 H 0.89101 0.235 0.77797 0.0
O501 O 0.9302 0.21721 0.74967 0.0
O502 O 0.92939 0.22047 0.76367 0.0
O503 O 0.88379 0.26542 0.74858 0.0
O504 O 0.88281 0.26857 0.76258 0.0
C505 C 0.92301 0.19867 0.75688 0.0
H506 H 0.01526 0.36205 0.79059 0.0
H507 H 0.89407 0.24436 0.7936 0.0
H508 H 0.88938 0.21298 0.71951 0.0
H509 H 0.00324 0.33828 0.71856 0.0
C510 C 0.28456 0.0004 0.58874 0.0
N511 N 0.34554 0.07649 0.56747 0.0
C512 C 0.34267 0.04022 0.56414 0.0
C513 C 0.33776 0.03258 0.55538 0.0
C514 C 0.33582 0.06254 0.54993 0.0
C515 C 0.33973 0.1002 0.5535 0.0
C516 C 0.34445 0.10651 0.56235 0.0
Zn517 Zn 0.34926 0.08252 0.58049 0.0
C518 C 0.29195 0.11156 0.58758 0.0
N519 N 0.35516 0.0894 0.60774 0.0
C520 C 0.3524 0.05595 0.6123 0.0
C521 C 0.35902 0.12481 0.6117 0.0
C522 C 0.36003 0.1274 0.62061 0.0
C523 C 0.35671 0.09309 0.6255 0.0
C524 C 0.35294 0.05704 0.62121 0.0
Zn525 Zn 0.35222 0.08524 0.5947 0.0
O526 O 0.29919 0.01812 0.58156 0.0
C527 C 0.41301 0.06066 0.5876 0.0
O528 O 0.30198 0.0211 0.59552 0.0
H529 H 0.36117 0.15107 0.60796 0.0
H530 H 0.34373 0.0168 0.5683 0.0
H531 H 0.34934 0.02809 0.60903 0.0
O532 O 0.39658 0.06405 0.58067 0.0
O533 O 0.39902 0.0662 0.59466 0.0
H534 H 0.34668 0.13507 0.56513 0.0
O535 O 0.40127 0.14966 0.59365 0.0
O536 O 0.39809 0.14753 0.57964 0.0
O537 O 0.30665 0.10589 0.59453 0.0
O538 O 0.30342 0.1028 0.58053 0.0
C539 C 0.41386 0.16854 0.5865 0.0
H540 H 0.33565 0.00349 0.55289 0.0
H541 H 0.33818 0.12402 0.54953 0.0
H542 H 0.36363 0.15612 0.62362 0.0
H543 H 0.3496 0.02951 0.62468 0.0
C544 C 0.0342 0.30483 0.58878 0.0
N545 N 0.95587 0.28712 0.56776 0.0
C546 C 0.99045 0.32191 0.5643 0.0
C547 C -0.00319 0.32522 0.55549 0.0
C548 C 0.96732 0.29243 0.55013 0.0
C549 C 0.93167 0.25696 0.55386 0.0
C550 C 0.92653 0.25495 0.56273 0.0
Zn551 Zn 0.95072 0.28398 0.5808 0.0
C552 C 0.92608 0.19791 0.58759 0.0
N553 N 0.94425 0.28008 0.60808 0.0
C554 C 0.97792 0.31056 0.61264 0.0
C555 C 0.90915 0.24811 0.61206 0.0
C556 C 0.90712 0.24592 0.62097 0.0
C557 C 0.94181 0.2765 0.62581 0.0
C558 C 0.9775 0.30918 0.62155 0.0
Zn559 Zn 0.94775 0.28229 0.59501 0.0
O560 O 0.0161 0.30197 0.58166 0.0
C561 C 0.96803 0.36723 0.58826 0.0
O562 O 0.01312 0.29928 0.59562 0.0
H563 H 0.88283 0.22403 0.60832 0.0
H564 H 0.01357 0.34702 0.5684 0.0
H565 H 0.00535 0.33591 0.60937 0.0
O566 O 0.96554 0.34864 0.58121 0.0
O567 O 0.96362 0.34717 0.59521 0.0
H568 H 0.89926 0.22756 0.56561 0.0
O569 O 0.88195 0.26355 0.59412 0.0
O570 O 0.88491 0.2643 0.58011 0.0
O571 O 0.93047 0.21718 0.59464 0.0
O572 O 0.93402 0.21874 0.58063 0.0
C573 C 0.86321 0.25704 0.58693 0.0
H574 H 0.02511 0.35281 0.55293 0.0
H575 H 0.90789 0.23115 0.54996 0.0
H576 H 0.87916 0.22007 0.62404 0.0
H577 H 0.00468 0.33361 0.62507 0.0
C578 C 0.72606 0.74799 0.58924 0.0
N579 N 0.74535 0.68803 0.5683 0.0
C580 C 0.71077 0.68836 0.56486 0.0
C581 C 0.70754 0.69173 0.55607 0.0
C582 C 0.74015 0.69471 0.55069 0.0
C583 C 0.77546 0.69406 0.55439 0.0
C584 C 0.77742 0.69065 0.56327 0.0
Zn585 Zn 0.74766 0.68536 0.58135 0.0
C586 C 0.83279 0.74606 0.5885 0.0
N587 N 0.74814 0.68149 0.60862 0.0
C588 C 0.71669 0.683 0.61317 0.0
C589 C 0.78058 0.67923 0.61261 0.0
C590 C 0.78228 0.67855 0.62151 0.0
C591 C 0.75049 0.68055 0.62639 0.0
C592 C 0.71733 0.68274 0.62208 0.0
Zn593 Zn 0.74693 0.68356 0.59557 0.0
O594 O 0.73017 0.73312 0.58217 0.0
C595 C 0.66295 0.61973 0.58846 0.0
O596 O 0.73027 0.73204 0.59615 0.0
H597 H 0.80529 0.67807 0.60888 0.0
H598 H 0.68574 0.68653 0.56897 0.0
H599 H 0.6912 0.6848 0.60987 0.0
O600 O 0.68276 0.636 0.58153 0.0
O601 O 0.68193 0.63495 0.59552 0.0
H602 H 0.80465 0.69036 0.56613 0.0
O603 O 0.76511 0.63622 0.59474 0.0
O604 O 0.7667 0.63864 0.58073 0.0
O605 O 0.81225 0.73103 0.59542 0.0
O606 O 0.81315 0.73349 0.58141 0.0
C607 C 0.77244 0.62381 0.58766 0.0
H608 H 0.68011 0.69286 0.55353 0.0
H609 H 0.80115 0.69588 0.55048 0.0
H610 H 0.80811 0.67617 0.62453 0.0
H611 H 0.69247 0.68498 0.62554 0.0
H612 H 0.45896 0.92714 0.07415 0.0
H613 H 0.4998 0.88969 0.07356 0.0
H614 H 0.50113 0.8852 0.10106 0.0
H615 H 0.4606 0.92319 0.10175 0.0
H616 H 0.58313 0.91681 0.09315 0.0
H617 H 0.45862 0.76302 0.07888 0.0
H618 H 0.46799 0.81035 0.07322 0.0
H619 H 0.44583 0.80063 0.0838 0.0
C620 C 0.46731 0.91763 0.08009 0.0
C621 C 0.4564 0.92801 0.088 0.0
C622 C 0.49065 0.89621 0.07972 0.0
C623 C 0.50323 0.88455 0.08726 0.0
C624 C 0.49165 0.894 0.09518 0.0
H625 H 0.63212 0.7495 0.10134 0.0
H626 H 0.60909 0.80262 0.10057 0.0
C627 C 0.46827 0.91542 0.09555 0.0
C628 C 0.52965 0.86369 0.08688 0.0
H629 H 0.52843 0.77299 0.08018 0.0
C630 C 0.57127 0.88536 0.09032 0.0
C631 C 0.51406 0.82286 0.08313 0.0
C632 C 0.46907 0.7976 0.07961 0.0
C633 C 0.59787 0.86714 0.09009 0.0
C634 C 0.58207 0.82607 0.08643 0.0
C635 C 0.54063 0.80473 0.0829 0.0
C636 C 0.6061 0.80265 0.08677 0.0
C637 C 0.64262 0.89207 0.09372 0.0
C638 C 0.61352 0.78614 0.07925 0.0
C639 C 0.62645 0.75547 0.07967 0.0
C640 C 0.63172 0.74057 0.08762 0.0
C641 C 0.6282 0.76018 0.09511 0.0
C642 C 0.61521 0.79077 0.09469 0.0
H643 H 0.65437 0.92709 0.09378 0.0
H644 H 0.64234 0.88173 0.1004 0.0
H645 H 0.66551 0.88618 0.09001 0.0
H646 H 0.60666 0.79496 0.07308 0.0
H647 H 0.62908 0.74118 0.07378 0.0
H648 H 0.28912 0.90267 0.07352 0.0
H649 H 0.23762 0.82585 0.07373 0.0
H650 H 0.22386 0.83109 0.10098 0.0
H651 H 0.27551 0.90785 0.10086 0.0
H652 H 0.25794 0.77914 0.09538 0.0
H653 H 0.10853 0.74094 0.0779 0.0
H654 H 0.15767 0.77807 0.07262 0.0
H655 H 0.14353 0.79313 0.0825 0.0
C656 C 0.27384 0.8879 0.07951 0.0
C657 C 0.287 0.91115 0.0872 0.0
C658 C 0.24431 0.84394 0.07961 0.0
C659 C 0.22723 0.82288 0.08738 0.0
C660 C 0.23685 0.84688 0.09493 0.0
H661 H 0.10854 0.55626 0.10275 0.0
H662 H 0.14571 0.63453 0.10239 0.0
C663 C 0.26634 0.89076 0.09484 0.0
C664 C 0.20615 0.77566 0.08785 0.0
H665 H 0.12033 0.68268 0.0808 0.0
C666 C 0.2276 0.75797 0.09227 0.0
C667 C 0.16707 0.7484 0.08366 0.0
C668 C 0.14257 0.76595 0.07895 0.0
C669 C 0.21128 0.71357 0.09253 0.0
C670 C 0.17202 0.68619 0.08838 0.0
C671 C 0.15049 0.70387 0.08396 0.0
C672 C 0.15244 0.63903 0.08864 0.0
C673 C 0.23682 0.69651 0.09703 0.0
C674 C 0.14409 0.6157 0.08103 0.0
C675 C 0.1227 0.57094 0.0812 0.0
C676 C 0.10912 0.54879 0.089 0.0
C677 C 0.1189 0.57235 0.09664 0.0
C678 C 0.14016 0.6171 0.09645 0.0
H679 H 0.27108 0.72161 0.09775 0.0
H680 H 0.22334 0.6854 0.1035 0.0
H681 H 0.23516 0.66891 0.09351 0.0
H682 H 0.15341 0.63213 0.07493 0.0
H683 H 0.11554 0.55373 0.0752 0.0
H684 H 0.11831 0.38085 0.10181 0.0
H685 H 0.19439 0.4026 0.10238 0.0
H686 H 0.20462 0.42429 0.07521 0.0
H687 H 0.12849 0.40227 0.07453 0.0
H688 H 0.26074 0.39331 0.08293 0.0
H689 H 0.26849 0.53637 0.09845 0.0
H690 H 0.23295 0.48527 0.10326 0.0
H691 H 0.2216 0.49708 0.09276 0.0
C692 C 0.13631 0.38871 0.0959 0.0
C693 C 0.11769 0.39091 0.08816 0.0
C694 C 0.17978 0.4012 0.09625 0.0
C695 C 0.20506 0.41601 0.08887 0.0
C696 C 0.1855 0.41322 0.08097 0.0
H697 H 0.47326 0.56558 0.07592 0.0
H698 H 0.39501 0.52207 0.07599 0.0
C699 C 0.14196 0.40058 0.08061 0.0
C700 C 0.25224 0.44091 0.08956 0.0
H701 H 0.33375 0.53759 0.09639 0.0
C702 C 0.27683 0.42473 0.08591 0.0
C703 C 0.27287 0.48201 0.09341 0.0
C704 C 0.24779 0.50154 0.09715 0.0
C705 C 0.32186 0.44865 0.08605 0.0
C706 C 0.34244 0.49003 0.08979 0.0
C707 C 0.31777 0.50587 0.09353 0.0
C708 C 0.3896 0.51784 0.08976 0.0
C709 C 0.34701 0.42932 0.08229 0.0
C710 C 0.41215 0.53164 0.09749 0.0
C711 C 0.45684 0.557 0.09748 0.0
C712 C 0.47962 0.56906 0.08973 0.0
C713 C 0.45668 0.5567 0.082 0.0
C714 C 0.41203 0.53142 0.08202 0.0
H715 H 0.32726 0.39382 0.08183 0.0
H716 H 0.35759 0.44217 0.07575 0.0
H717 H 0.37601 0.43768 0.08617 0.0
H718 H 0.39525 0.5219 0.10352 0.0
H719 H 0.47355 0.56592 0.10355 0.0
H720 H 0.92101 0.46239 0.90819 0.0
H721 H 0.88463 0.50446 0.90865 0.0
H722 H 0.89281 0.50865 0.93613 0.0
H723 H 0.92954 0.46699 0.93576 0.0
H724 H 0.80845 0.48686 0.91691 0.0
H725 H 0.94789 0.63599 0.92938 0.0
H726 H 0.953 0.59244 0.92492 0.0
H727 H 0.93344 0.58879 0.93562 0.0
C728 C 0.91474 0.47191 0.91434 0.0
C729 C 0.92833 0.46151 0.92194 0.0
C730 C 0.89415 0.49611 0.91458 0.0
C731 C 0.88704 0.51047 0.92241 0.0
C732 C 0.89902 0.49875 0.93002 0.0
H733 H 0.73773 0.6253 0.93722 0.0
H734 H 0.79094 0.60192 0.93702 0.0
C735 C 0.91958 0.47455 0.92979 0.0
C736 C 0.86628 0.53703 0.92262 0.0
H737 H 0.88111 0.63478 0.92871 0.0
C738 C 0.82441 0.51929 0.91943 0.0
C739 C 0.88735 0.57933 0.92592 0.0
C740 C 0.93305 0.60052 0.92909 0.0
C741 C 0.8026 0.54242 0.91962 0.0
C742 C 0.82351 0.58457 0.92296 0.0
C743 C 0.86542 0.60249 0.92613 0.0
C744 C 0.80112 0.60945 0.92338 0.0
C745 C 0.75697 0.52136 0.91638 0.0
C746 C 0.79152 0.62391 0.91585 0.0
C747 C 0.7612 0.63731 0.91592 0.0
C748 C 0.73994 0.63619 0.92354 0.0
C749 C 0.75329 0.62627 0.93123 0.0
C750 C 0.78366 0.61285 0.93114 0.0
H751 H 0.74322 0.48639 0.91529 0.0
H752 H 0.7362 0.5261 0.92098 0.0
H753 H 0.75623 0.53639 0.91024 0.0
H754 H 0.80509 0.62178 0.90982 0.0
H755 H 0.75197 0.64517 0.9099 0.0
H756 H 0.38291 0.12219 0.90816 0.0
H757 H 0.40652 0.1987 0.90782 0.0
H758 H 0.42267 0.20548 0.93515 0.0
H759 H 0.3988 0.12892 0.9356 0.0
H760 H 0.39442 0.26332 0.92726 0.0
H761 H 0.53958 0.27078 0.91282 0.0
H762 H 0.48932 0.23626 0.9076 0.0
H763 H 0.49876 0.22353 0.91818 0.0
C764 C 0.38999 0.13956 0.91414 0.0
C765 C 0.39004 0.11979 0.92189 0.0
C766 C 0.40355 0.18328 0.91392 0.0
C767 C 0.41728 0.20765 0.92143 0.0
C768 C 0.41247 0.18707 0.92929 0.0
H769 H 0.56612 0.47488 0.93531 0.0
H770 H 0.52334 0.39663 0.93505 0.0
C771 C 0.39877 0.14329 0.92952 0.0
C772 C 0.44285 0.25483 0.92097 0.0
H773 H 0.54112 0.33624 0.91485 0.0
C774 C 0.42639 0.2794 0.92452 0.0
C775 C 0.48466 0.27542 0.91744 0.0
C776 C 0.50445 0.2503 0.91384 0.0
C777 C 0.45071 0.32438 0.92455 0.0
C778 C 0.49272 0.34491 0.92111 0.0
C779 C 0.50891 0.32028 0.91749 0.0
C780 C 0.52068 0.392 0.92127 0.0
C781 C 0.43111 0.34956 0.92818 0.0
C782 C 0.53517 0.41497 0.9136 0.0
C783 C 0.56007 0.45966 0.91372 0.0
C784 C 0.57095 0.48201 0.92152 0.0
C785 C 0.55813 0.45864 0.92919 0.0
C786 C 0.53329 0.41398 0.92906 0.0
H787 H 0.39553 0.32996 0.92848 0.0
H788 H 0.44324 0.35991 0.93476 0.0
H789 H 0.44007 0.3787 0.9243 0.0
H790 H 0.52617 0.39839 0.90752 0.0
H791 H 0.56943 0.47671 0.90769 0.0
H792 H 0.554 0.1064 0.90783 0.0
H793 H 0.63243 0.14341 0.9086 0.0
H794 H 0.62632 0.14775 0.93605 0.0
H795 H 0.54803 0.11114 0.93537 0.0
H796 H 0.6886 0.22521 0.92835 0.0
H797 H 0.70005 0.08496 0.91698 0.0
H798 H 0.66989 0.1005 0.91017 0.0
H799 H 0.65041 0.08043 0.9207 0.0
C800 C 0.56934 0.11573 0.91403 0.0
C801 C 0.5448 0.10564 0.92155 0.0
C802 C 0.61409 0.13643 0.91446 0.0
C803 C 0.63492 0.14727 0.9224 0.0
C804 C 0.61068 0.13912 0.92988 0.0
H805 H 0.90427 0.28896 0.93683 0.0
H806 H 0.82747 0.23686 0.93738 0.0
C807 C 0.56598 0.11837 0.92946 0.0
C808 C 0.68207 0.16732 0.92292 0.0
H809 H 0.76572 0.15094 0.91841 0.0
C810 C 0.70551 0.20891 0.92625 0.0
C811 C 0.70378 0.14574 0.92018 0.0
C812 C 0.67981 0.10029 0.91688 0.0
C813 C 0.7504 0.23018 0.92668 0.0
C814 C 0.77222 0.2088 0.92386 0.0
C815 C 0.74876 0.16698 0.92062 0.0
C816 C 0.81958 0.23101 0.92367 0.0
C817 C 0.77419 0.27595 0.92985 0.0
C818 C 0.84089 0.24213 0.9158 0.0
C819 C 0.88479 0.27158 0.91545 0.0
C820 C 0.90788 0.2904 0.92299 0.0
C821 C 0.88731 0.27543 0.93091 0.0
C822 C 0.84338 0.24587 0.93124 0.0
H823 H 0.75317 0.29039 0.93013 0.0
H824 H 0.78652 0.27667 0.93637 0.0
H825 H 0.80203 0.29618 0.92566 0.0
H826 H 0.82301 0.23059 0.90989 0.0
H827 H 0.89977 0.28207 0.90925 0.0
H828 H 0.31204 0.08634 0.43517 0.0
H829 H 0.2883 0.13917 0.43571 0.0
H830 H 0.26879 0.12872 0.40846 0.0
H831 H 0.2928 0.07612 0.40782 0.0
H832 H 0.29887 0.21498 0.41611 0.0
H833 H 0.1551 0.08053 0.43159 0.0
H834 H 0.20597 0.09599 0.43651 0.0
H835 H 0.19459 0.07269 0.42603 0.0
C836 C 0.30411 0.09631 0.42925 0.0
C837 C 0.30334 0.07632 0.42148 0.0
C838 C 0.29043 0.12639 0.42958 0.0
C839 C 0.27586 0.13683 0.42216 0.0
C840 C 0.27966 0.12069 0.41426 0.0
H841 H 0.12782 0.25714 0.40898 0.0
H842 H 0.17009 0.22105 0.40909 0.0
C843 C 0.29344 0.09066 0.41392 0.0
C844 C 0.25097 0.15919 0.42276 0.0
H845 H 0.15445 0.14491 0.42952 0.0
C846 C 0.2674 0.19989 0.41907 0.0
C847 C 0.20981 0.13905 0.42659 0.0
C848 C 0.19 0.09452 0.43036 0.0
C849 C 0.24372 0.22126 0.41917 0.0
C850 C 0.20233 0.20083 0.4229 0.0
C851 C 0.18619 0.16036 0.42667 0.0
C852 C 0.1749 0.22063 0.42285 0.0
C853 C 0.26334 0.26566 0.41537 0.0
C854 C 0.16184 0.2303 0.43057 0.0
C855 C 0.13724 0.25047 0.43054 0.0
C856 C 0.12521 0.26112 0.42278 0.0
C857 C 0.13672 0.24954 0.41507 0.0
C858 C 0.16126 0.22936 0.41511 0.0
H859 H 0.29881 0.28104 0.41485 0.0
H860 H 0.25023 0.26342 0.40886 0.0
H861 H 0.25545 0.2866 0.41927 0.0
H862 H 0.17166 0.22327 0.43662 0.0
H863 H 0.12892 0.25897 0.4366 0.0
H864 H 0.94455 0.24326 0.43511 0.0
H865 H 0.89161 0.1668 0.43562 0.0
H866 H 0.903 0.15762 0.40841 0.0
H867 H 0.95576 0.23413 0.40779 0.0
H868 H 0.81606 0.10107 0.41615 0.0
H869 H 0.95169 0.09309 0.43149 0.0
H870 H 0.93611 0.12851 0.43636 0.0
H871 H 0.95909 0.14006 0.42585 0.0
C872 C 0.93474 0.22536 0.42919 0.0
C873 C 0.95509 0.2445 0.42144 0.0
C874 C 0.90456 0.18167 0.4295 0.0
C875 C 0.89438 0.15665 0.42209 0.0
C876 C 0.91082 0.17654 0.41421 0.0
H877 H 0.77503 0.88815 0.40917 0.0
H878 H 0.81054 0.96642 0.40917 0.0
C879 C 0.94095 0.22029 0.41387 0.0
C880 C 0.87229 0.10946 0.42272 0.0
H881 H 0.88756 0.02786 0.42946 0.0
C882 C 0.83146 0.08494 0.41909 0.0
C883 C 0.89284 0.08878 0.42652 0.0
C884 C 0.93748 0.1138 0.43023 0.0
C885 C 0.81035 0.03992 0.41922 0.0
C886 C 0.83119 0.01929 0.42292 0.0
C887 C 0.8718 0.04389 0.42663 0.0
C888 C 0.81167 0.97213 0.42293 0.0
C889 C 0.76578 0.01484 0.4155 0.0
C890 C 0.8026 0.94972 0.43068 0.0
C891 C 0.78277 0.90501 0.43071 0.0
C892 C 0.77187 0.88206 0.42298 0.0
C893 C 0.78285 0.90484 0.41523 0.0
C894 C 0.80269 0.94952 0.41521 0.0
H895 H 0.75016 0.03472 0.415 0.0
H896 H 0.76782 0.00386 0.40899 0.0
H897 H 0.74514 0.98609 0.41943 0.0
H898 H 0.80983 0.96676 0.4367 0.0
H899 H 0.77471 0.88843 0.43679 0.0
H900 H 0.14401 0.9057 0.40887 0.0
H901 H 0.06554 0.86476 0.40905 0.0
H902 H 0.06703 0.85877 0.43654 0.0
H903 H 0.14535 0.9003 0.43646 0.0
H904 H 0.01453 0.78206 0.4155 0.0
H905 H 0.98112 0.8989 0.43201 0.0
H906 H 0.03293 0.91391 0.42749 0.0
H907 H 0.01752 0.88721 0.43766 0.0
C908 C 0.12763 0.89635 0.41497 0.0
C909 C 0.1509 0.90642 0.42266 0.0
C910 C 0.08284 0.87275 0.41505 0.0
C911 C 0.06057 0.85898 0.4228 0.0
C912 C 0.08362 0.86971 0.43049 0.0
H913 H 0.79134 0.7222 0.43566 0.0
H914 H 0.86766 0.74506 0.4359 0.0
C915 C 0.1284 0.89344 0.43043 0.0
C916 C 0.01327 0.83213 0.42283 0.0
H917 H 0.92219 0.82895 0.42995 0.0
C918 C 0.99425 0.79226 0.41865 0.0
C919 C 0.98706 0.84558 0.42696 0.0
C920 C 0.00559 0.88889 0.43122 0.0
C921 C 0.9495 0.76527 0.41853 0.0
C922 C 0.92338 0.77879 0.42266 0.0
C923 C 0.94245 0.81849 0.42689 0.0
C924 C 0.87602 0.75406 0.42224 0.0
C925 C 0.93054 0.7225 0.41406 0.0
C926 C 0.85511 0.74945 0.41442 0.0
C927 C 0.81141 0.73631 0.41425 0.0
C928 C 0.78822 0.72813 0.42192 0.0
C929 C 0.80836 0.72861 0.42965 0.0
C930 C 0.85201 0.74173 0.42981 0.0
H931 H 0.95459 0.712 0.41323 0.0
H932 H 0.90265 0.69744 0.41766 0.0
H933 H 0.91914 0.72529 0.40764 0.0
H934 H 0.87319 0.75931 0.40852 0.0
H935 H 0.79684 0.73618 0.40819 0.0
H936 H 0.4054 0.96585 0.27026 0.0
H937 H 0.45832 0.9423 0.27108 0.0
H938 H 0.4679 0.9459 0.24362 0.0
H939 H 0.41564 0.96999 0.24272 0.0
H940 H 0.43507 0.86393 0.26381 0.0
H941 H 0.59153 0.98838 0.25079 0.0
H942 H 0.55115 0.00045 0.25451 0.0
H943 H 0.54699 0.97801 0.24405 0.0
C944 C 0.42 0.96327 0.26441 0.0
C945 C 0.40579 0.96909 0.25642 0.0
C946 C 0.45016 0.9497 0.26489 0.0
C947 C 0.46687 0.94222 0.25741 0.0
C948 C 0.45587 0.95202 0.24948 0.0
H949 H 0.58416 0.79453 0.24212 0.0
H950 H 0.54638 0.83522 0.24293 0.0
C951 C 0.42575 0.96562 0.24898 0.0
C952 C 0.48937 0.91731 0.25778 0.0
H953 H 0.57927 0.91639 0.25117 0.0
C954 C 0.4669 0.87563 0.26117 0.0
C955 C 0.53056 0.93248 0.25422 0.0
C956 C 0.55665 0.97744 0.25076 0.0
C957 C 0.484 0.84819 0.26087 0.0
C958 C 0.52492 0.86313 0.2572 0.0
C959 C 0.54774 0.90502 0.25393 0.0
C960 C 0.54477 0.83583 0.25674 0.0
C961 C 0.45758 0.803 0.26422 0.0
C962 C 0.55561 0.82219 0.26423 0.0
C963 C 0.5769 0.79876 0.2638 0.0
C964 C 0.58799 0.78884 0.25585 0.0
C965 C 0.57587 0.80145 0.24834 0.0
C966 C 0.55457 0.82492 0.24879 0.0
H967 H 0.42315 0.79335 0.26489 0.0
H968 H 0.46017 0.77974 0.25995 0.0
H969 H 0.46973 0.80096 0.27062 0.0
H970 H 0.54878 0.8308 0.27043 0.0
H971 H 0.586 0.78977 0.26971 0.0
H972 H 0.23351 0.81509 0.26915 0.0
H973 H 0.19268 0.73693 0.26997 0.0
H974 H 0.19026 0.72912 0.24249 0.0
H975 H 0.23083 0.80755 0.24157 0.0
H976 H 0.10838 0.67916 0.25067 0.0
H977 H 0.23444 0.6515 0.26477 0.0
H978 H 0.22536 0.68995 0.27032 0.0
H979 H 0.24666 0.70134 0.25966 0.0
C980 C 0.22488 0.79682 0.26327 0.0
C981 C 0.23555 0.81754 0.25529 0.0
C982 C 0.20156 0.75215 0.26376 0.0
C983 C 0.18872 0.7274 0.25629 0.0
C984 C 0.19997 0.74782 0.24832 0.0
H985 H 0.05997 0.4631 0.24286 0.0
H986 H 0.08232 0.53904 0.24354 0.0
C987 C 0.22337 0.79257 0.24781 0.0
C988 C 0.1625 0.68019 0.25682 0.0
H989 H 0.16476 0.59149 0.26368 0.0
C990 C 0.12059 0.65988 0.25352 0.0
C991 C 0.17855 0.65536 0.26059 0.0
C992 C 0.22383 0.67549 0.26398 0.0
C993 C 0.09418 0.61512 0.25389 0.0
C994 C 0.11046 0.59024 0.25756 0.0
C995 C 0.15218 0.61071 0.26096 0.0
C996 C 0.08669 0.5428 0.25733 0.0
C997 C 0.0491 0.59492 0.25042 0.0
C998 C 0.08026 0.51932 0.26487 0.0
C999 C 0.06776 0.47583 0.26451 0.0
C1000 C 0.0619 0.45532 0.25657 0.0
C1001 C 0.06438 0.47796 0.24907 0.0
C1002 C 0.07697 0.52144 0.24945 0.0
H1003 H 0.03712 0.61803 0.2504 0.0
H1004 H 0.04893 0.58471 0.24372 0.0
H1005 H 0.02667 0.56624 0.25419 0.0
H1006 H 0.08761 0.53529 0.27101 0.0
H1007 H 0.06593 0.45927 0.2704 0.0
H1008 H 0.56754 0.62205 0.26994 0.0
H1009 H 0.49145 0.56808 0.26954 0.0
H1010 H 0.49897 0.5565 0.24228 0.0
H1011 H 0.57501 0.61065 0.24259 0.0
H1012 H 0.44454 0.58744 0.24779 0.0
H1013 H 0.4098 0.43875 0.26509 0.0
H1014 H 0.44549 0.48791 0.27052 0.0
H1015 H 0.46199 0.47521 0.26064 0.0
C1016 C 0.55351 0.60677 0.26391 0.0
C1017 C 0.57706 0.62124 0.25627 0.0
C1018 C 0.50996 0.5758 0.26369 0.0
C1019 C 0.48964 0.55857 0.25587 0.0
C1020 C 0.51417 0.56955 0.24837 0.0
H1021 H 0.22154 0.43751 0.24072 0.0
H1022 H 0.29985 0.47353 0.24088 0.0
C1023 C 0.55763 0.6005 0.24857 0.0
C1024 C 0.44235 0.5362 0.25529 0.0
H1025 H 0.35034 0.44904 0.2623 0.0
C1026 C 0.42387 0.55689 0.25087 0.0
C1027 C 0.41572 0.49683 0.25944 0.0
C1028 C 0.43414 0.4731 0.26414 0.0
C1029 C 0.37932 0.53969 0.25062 0.0
C1030 C 0.35257 0.50024 0.25476 0.0
C1031 C 0.37103 0.47933 0.25914 0.0
C1032 C 0.30531 0.48019 0.25463 0.0
C1033 C 0.36144 0.56462 0.24617 0.0
C1034 C 0.2825 0.47193 0.26231 0.0
C1035 C 0.23773 0.45115 0.26225 0.0
C1036 C 0.21504 0.4382 0.25449 0.0
C1037 C 0.23808 0.44751 0.24679 0.0
C1038 C 0.28284 0.46808 0.24687 0.0
H1039 H 0.38611 0.599 0.24541 0.0
H1040 H 0.35017 0.55099 0.2397 0.0
H1041 H 0.33378 0.56255 0.24974 0.0
H1042 H 0.29934 0.48109 0.26836 0.0
H1043 H 0.22092 0.44428 0.26829 0.0
H1044 H 0.80068 0.59415 0.76934 0.0
H1045 H 0.8428 0.55785 0.76853 0.0
H1046 H 0.83414 0.55574 0.74106 0.0
H1047 H 0.7918 0.59166 0.74178 0.0
H1048 H 0.81819 0.47757 0.74861 0.0
H1049 H 0.96948 0.61678 0.76041 0.0
H1050 H 0.92336 0.60096 0.76711 0.0
H1051 H 0.92471 0.62175 0.75662 0.0
C1052 C 0.80727 0.58548 0.76313 0.0
C1053 C 0.79306 0.59592 0.75562 0.0
C1054 C 0.83172 0.56521 0.76268 0.0
C1055 C 0.84234 0.55514 0.75473 0.0
C1056 C 0.82664 0.56378 0.74725 0.0
H1057 H 0.96842 0.41214 0.74023 0.0
H1058 H 0.94526 0.46546 0.73969 0.0
C1059 C 0.80231 0.58413 0.74768 0.0
C1060 C 0.86939 0.53505 0.75419 0.0
H1061 H 0.96907 0.5508 0.75882 0.0
C1062 C 0.85129 0.49365 0.75076 0.0
C1063 C 0.91254 0.55635 0.757 0.0
C1064 C 0.93393 0.60157 0.76043 0.0
C1065 C 0.87479 0.47225 0.75032 0.0
C1066 C 0.91787 0.49336 0.75321 0.0
C1067 C 0.93619 0.535 0.75654 0.0
C1068 C 0.94278 0.47089 0.75341 0.0
C1069 C 0.85277 0.42663 0.74707 0.0
C1070 C 0.95235 0.4592 0.76128 0.0
C1071 C 0.96596 0.42908 0.76163 0.0
C1072 C 0.9699 0.41011 0.75408 0.0
C1073 C 0.96514 0.42573 0.74616 0.0
C1074 C 0.95169 0.45602 0.74584 0.0
H1075 H 0.81735 0.41235 0.74674 0.0
H1076 H 0.86458 0.42615 0.74055 0.0
H1077 H 0.86011 0.40611 0.75123 0.0
H1078 H 0.94605 0.47075 0.76719 0.0
H1079 H 0.96985 0.41811 0.76783 0.0
H1080 H 0.62367 0.57062 0.74114 0.0
H1081 H 0.57114 0.49405 0.74118 0.0
H1082 H 0.55977 0.49721 0.76854 0.0
H1083 H 0.61243 0.57371 0.76859 0.0
H1084 H 0.59102 0.44372 0.76235 0.0
H1085 H 0.44165 0.41171 0.74561 0.0
H1086 H 0.49084 0.44828 0.74027 0.0
H1087 H 0.47816 0.46309 0.75035 0.0
C1088 C 0.60878 0.55546 0.74713 0.0
C1089 C 0.62278 0.57807 0.75488 0.0
C1090 C 0.57865 0.51165 0.74714 0.0
C1091 C 0.56181 0.49004 0.75487 0.0
C1092 C 0.57253 0.51341 0.76251 0.0
H1093 H 0.43885 0.22175 0.76932 0.0
H1094 H 0.4764 0.30006 0.76918 0.0
C1095 C 0.6026 0.55716 0.76252 0.0
C1096 C 0.53949 0.4427 0.75514 0.0
H1097 H 0.45126 0.35175 0.74807 0.0
C1098 C 0.56023 0.42353 0.75931 0.0
C1099 C 0.49979 0.4167 0.75104 0.0
C1100 C 0.47602 0.43585 0.74661 0.0
C1101 C 0.5426 0.37893 0.75938 0.0
C1102 C 0.5027 0.3528 0.75533 0.0
C1103 C 0.48189 0.37195 0.75117 0.0
C1104 C 0.48183 0.30548 0.75542 0.0
C1105 C 0.56745 0.3603 0.76359 0.0
C1106 C 0.47233 0.28261 0.74772 0.0
C1107 C 0.45067 0.23782 0.74777 0.0
C1108 C 0.43802 0.21515 0.75553 0.0
C1109 C 0.44852 0.23823 0.76324 0.0
C1110 C 0.47001 0.283 0.76318 0.0
H1111 H 0.60205 0.38454 0.76423 0.0
H1112 H 0.55445 0.349 0.77009 0.0
H1113 H 0.56449 0.33255 0.75991 0.0
H1114 H 0.48121 0.29944 0.74167 0.0
H1115 H 0.4429 0.22099 0.74172 0.0
H1116 H 0.45831 0.06499 0.74016 0.0
H1117 H 0.53467 0.08796 0.73975 0.0
H1118 H 0.53732 0.08393 0.76724 0.0
H1119 H 0.46101 0.06046 0.76773 0.0
H1120 H 0.58842 0.16657 0.74735 0.0
H1121 H 0.61971 0.04167 0.7605 0.0
H1122 H 0.56783 0.02956 0.75642 0.0
H1123 H 0.58428 0.05151 0.76696 0.0
C1124 C 0.4747 0.06733 0.74611 0.0
C1125 C 0.45379 0.06168 0.75399 0.0
C1126 C 0.51838 0.08055 0.74585 0.0
C1127 C 0.54162 0.08783 0.75346 0.0
C1128 C 0.51988 0.078 0.7613 0.0
H1129 H 0.80729 0.23548 0.76893 0.0
H1130 H 0.72877 0.19446 0.76827 0.0
C1131 C 0.47621 0.06475 0.76156 0.0
C1132 C 0.58902 0.11288 0.75331 0.0
H1133 H 0.67947 0.11338 0.76006 0.0
C1134 C 0.6084 0.15474 0.75002 0.0
C1135 C 0.61481 0.09755 0.75693 0.0
C1136 C 0.59566 0.05247 0.76034 0.0
C1137 C 0.65291 0.18212 0.75041 0.0
C1138 C 0.6787 0.16691 0.75407 0.0
C1139 C 0.65944 0.12493 0.7573 0.0
C1140 C 0.72588 0.19395 0.75447 0.0
C1141 C 0.67181 0.22746 0.74713 0.0
C1142 C 0.74999 0.20763 0.74693 0.0
C1143 C 0.79469 0.23124 0.74727 0.0
C1144 C 0.81609 0.24131 0.75518 0.0
C1145 C 0.79176 0.22849 0.76274 0.0
C1146 C 0.74697 0.20482 0.76238 0.0
H1147 H 0.64716 0.23734 0.74657 0.0
H1148 H 0.6979 0.25047 0.75138 0.0
H1149 H 0.68565 0.22962 0.7407 0.0
H1150 H 0.73426 0.19905 0.74076 0.0
H1151 H 0.81246 0.24039 0.74133 0.0
H1152 H 0.08652 0.31451 0.57531 0.0
H1153 H 0.14063 0.2924 0.57498 0.0
H1154 H 0.12843 0.27216 0.60219 0.0
H1155 H 0.07446 0.29447 0.60263 0.0
H1156 H 0.21638 0.30463 0.59451 0.0
H1157 H 0.0831 0.15876 0.57934 0.0
H1158 H 0.09724 0.20925 0.5744 0.0
H1159 H 0.07438 0.19764 0.58492 0.0
C1160 C 0.09636 0.30679 0.58127 0.0
C1161 C 0.0755 0.30529 0.58897 0.0
C1162 C 0.12721 0.29408 0.58106 0.0
C1163 C 0.13759 0.27978 0.58853 0.0
C1164 C 0.12049 0.28286 0.59636 0.0
H1165 H 0.26389 0.1365 0.60147 0.0
H1166 H 0.22755 0.17855 0.60155 0.0
C1167 C 0.08967 0.29566 0.59659 0.0
C1168 C 0.16075 0.25565 0.588 0.0
H1169 H 0.14834 0.15975 0.58136 0.0
C1170 C 0.20173 0.27305 0.59162 0.0
C1171 C 0.14117 0.21435 0.58425 0.0
C1172 C 0.09642 0.19357 0.58055 0.0
C1173 C 0.22401 0.25024 0.5915 0.0
C1174 C 0.2042 0.20873 0.58783 0.0
C1175 C 0.16335 0.19157 0.58416 0.0
C1176 C 0.22503 0.18222 0.58779 0.0
C1177 C 0.26871 0.27094 0.59519 0.0
C1178 C 0.23382 0.16873 0.58003 0.0
C1179 C 0.25408 0.14423 0.57995 0.0
C1180 C 0.26574 0.13268 0.58765 0.0
C1181 C 0.25545 0.14497 0.59543 0.0
C1182 C 0.23514 0.16941 0.59549 0.0
H1183 H 0.28341 0.30636 0.59564 0.0
H1184 H 0.26717 0.25836 0.60173 0.0
H1185 H 0.28988 0.26345 0.59127 0.0
H1186 H 0.22577 0.17792 0.57402 0.0
H1187 H 0.26161 0.13534 0.57386 0.0
H1188 H 0.73602 0.79895 0.60299 0.0
H1189 H 0.75923 0.87524 0.60242 0.0
H1190 H 0.74047 0.86673 0.57514 0.0
H1191 H 0.71755 0.79046 0.57562 0.0
H1192 H 0.82535 0.92109 0.58049 0.0
H1193 H 0.71255 0.95717 0.59787 0.0
H1194 H 0.72628 0.92205 0.60346 0.0
H1195 H 0.69667 0.90457 0.59363 0.0
C1196 C 0.73514 0.81285 0.59691 0.0
C1197 C 0.72577 0.78888 0.58933 0.0
C1198 C 0.74833 0.85651 0.5966 0.0
C1199 C 0.75175 0.87657 0.58873 0.0
C1200 C 0.73808 0.85174 0.58127 0.0
H1201 H 0.89891 0.14486 0.57371 0.0
H1202 H 0.85692 0.06656 0.57375 0.0
C1203 C 0.72495 0.80814 0.58157 0.0
C1204 C 0.77683 0.9238 0.58809 0.0
H1205 H 0.78276 0.0162 0.59519 0.0
C1206 C 0.81581 0.94196 0.5836 0.0
C1207 C 0.76452 0.95071 0.59228 0.0
C1208 C 0.72254 0.93273 0.59703 0.0
C1209 C 0.84341 0.98644 0.58335 0.0
C1210 C 0.83121 0.01343 0.58755 0.0
C1211 C 0.792 0.99531 0.59198 0.0
C1212 C 0.85877 0.0606 0.58747 0.0
C1213 C 0.88598 0.004 0.57882 0.0
C1214 C 0.87372 0.0831 0.59517 0.0
C1215 C 0.89755 0.12783 0.59518 0.0
C1216 C 0.9067 0.15081 0.58748 0.0
C1217 C 0.89278 0.12809 0.57974 0.0
C1218 C 0.86877 0.08334 0.57975 0.0
H1219 H 0.89527 0.97906 0.57794 0.0
H1220 H 0.88355 0.01571 0.57241 0.0
H1221 H 0.91188 0.03131 0.5824 0.0
H1222 H 0.86635 0.06603 0.6012 0.0
H1223 H 0.9077 0.14439 0.60125 0.0
H1224 H 0.23898 0.95865 0.603 0.0
H1225 H 0.16249 0.90573 0.60351 0.0
H1226 H 0.15846 0.89989 0.57601 0.0
H1227 H 0.23488 0.95222 0.57541 0.0
H1228 H 0.10721 0.92938 0.59628 0.0
H1229 H 0.07813 0.77497 0.58261 0.0
H1230 H 0.13004 0.81525 0.58656 0.0
H1231 H 0.11235 0.82065 0.57613 0.0
C1232 C 0.22221 0.94494 0.59706 0.0
C1233 C 0.24285 0.96013 0.58916 0.0
C1234 C 0.17847 0.91478 0.59737 0.0
C1235 C 0.15485 0.89903 0.5898 0.0
C1236 C 0.17619 0.91118 0.58193 0.0
H1237 H 0.88816 0.77764 0.57497 0.0
H1238 H 0.9667 0.81615 0.57549 0.0
C1239 C 0.21993 0.9413 0.5816 0.0
C1240 C 0.10742 0.87605 0.59006 0.0
H1241 H 0.01754 0.78559 0.58334 0.0
C1242 C 0.08754 0.89767 0.59356 0.0
C1243 C 0.08201 0.83503 0.58639 0.0
C1244 C 0.10167 0.80991 0.58278 0.0
C1245 C 0.04289 0.87981 0.59331 0.0
C1246 C 0.01748 0.83893 0.58959 0.0
C1247 C 0.03725 0.81706 0.58616 0.0
C1248 C 0.9702 0.81808 0.58929 0.0
C1249 C 0.02341 0.90536 0.59681 0.0
C1250 C 0.94638 0.80699 0.59687 0.0
C1251 C 0.90163 0.7853 0.5966 0.0
C1252 C 0.8799 0.77402 0.58873 0.0
C1253 C 0.90393 0.78608 0.58113 0.0
C1254 C 0.94875 0.80782 0.58141 0.0
H1255 H 0.0476 0.93999 0.59741 0.0
H1256 H -0.00319 0.902 0.59267 0.0
H1257 H 0.01014 0.89317 0.60326 0.0
H1258 H 0.96238 0.8141 0.60301 0.0
H1259 H 0.88411 0.77622 0.60258 0.0
H1260 H 0.44533 0.97926 0.04043 0.0
H1261 H 0.44643 0.97854 0.02482 0.0
H1262 H 0.39886 0.06732 0.02415 0.0
H1263 H 0.39898 0.06935 0.03976 0.0
H1264 H 0.3772 0.95396 0.01372 0.0
H1265 H 0.50281 0.12346 0.00823 0.0
H1266 H 0.4944 0.09769 0.0185 0.0
H1267 H 0.45957 0.11705 0.01496 0.0
C1268 C 0.43577 -0.0008 0.03697 0.0
C1269 C 0.42227 0.02455 0.04135 0.0
C1270 C 0.43613 -0.00151 0.02805 0.0
C1271 C 0.42328 0.02331 0.02333 0.0
C1272 C 0.40964 0.04852 0.02767 0.0
H1273 H 0.39113 0.05766 0.96969 0.0
H1274 H 0.39274 0.05874 0.9853 0.0
C1275 C 0.40926 0.04925 0.03659 0.0
C1276 C 0.42277 0.0217 0.01388 0.0
H1277 H 0.46383 0.08367 0.99605 0.0
C1278 C 0.39633 0.98224 0.00984 0.0
C1279 C 0.44772 0.05868 0.00886 0.0
C1280 C 0.47805 0.10157 0.01284 0.0
C1281 C 0.39344 0.97891 1.00091 0.0
C1282 C 0.41823 0.01594 0.99589 0.0
C1283 C 0.44481 0.05537 0.99992 0.0
C1284 C 0.4168 0.01456 0.98644 0.0
C1285 C 0.36308 0.93605 0.99692 0.0
C1286 C 0.43015 0.98963 0.9819 0.0
C1287 C 0.42899 0.9887 0.97298 0.0
C1288 C 0.41464 0.01287 0.96842 0.0
C1289 C 0.40167 0.03811 0.973 0.0
C1290 C 0.40286 0.03903 0.98192 0.0
H1291 H 0.33889 0.91377 1.00158 0.0
H1292 H 0.34602 0.93994 0.99139 0.0
H1293 H 0.38166 0.92104 0.9946 0.0
H1294 H 0.44171 0.97107 0.98526 0.0
H1295 H 0.43895 0.96873 0.96965 0.0
H1296 H 0.07039 0.49145 0.96975 0.0
H1297 H 0.07014 0.49237 0.98539 0.0
H1298 H 0.976 0.35751 0.98567 0.0
H1299 H 0.97588 0.35631 0.97008 0.0
H1300 H 0.00156 0.47125 0.99654 0.0
H1301 H 0.06983 0.3645 1.00149 0.0
H1302 H 0.07189 0.38908 0.99132 0.0
H1303 H 0.02341 0.34208 0.9947 0.0
C1304 C 0.04951 0.46203 0.97314 0.0
C1305 C 0.02337 0.42373 0.96867 0.0
C1306 C 0.04954 0.46258 0.98207 0.0
C1307 C 0.02361 0.42485 0.98669 0.0
C1308 C -0.00294 0.38674 0.98224 0.0
H1309 H 0.96728 0.35568 0.03991 0.0
H1310 H 0.96995 0.35802 0.02431 0.0
C1311 C -0.00296 0.38613 0.97333 0.0
C1312 C 0.0235 0.42548 0.99615 0.0
H1313 H 0.04154 0.38069 0.01375 0.0
C1314 C 0.01058 0.45171 1.00032 0.0
C1315 C 0.03527 0.39991 1.00104 0.0
C1316 C 0.05127 0.37258 0.99692 0.0
C1317 C 0.00807 0.45224 0.00926 0.0
C1318 C 0.01944 0.42633 0.01414 0.0
C1319 C 0.03269 0.40038 0.00998 0.0
C1320 C 0.01759 0.42544 0.0236 0.0
C1321 C 0.99222 0.47963 0.01339 0.0
C1322 C 0.04378 0.46251 0.02837 0.0
C1323 C 0.04247 0.46125 0.03729 0.0
C1324 C 0.01512 0.42279 0.04161 0.0
C1325 C 0.98904 0.38569 0.03679 0.0
C1326 C 0.99037 0.387 0.02788 0.0
H1327 H 0.97504 0.48918 0.00878 0.0
H1328 H 0.97036 0.46243 0.0188 0.0
H1329 H 0.02005 0.5093 0.01593 0.0
H1330 H 0.0657 0.49229 0.02519 0.0
H1331 H 0.06353 0.49021 0.0408 0.0
H1332 H 0.62191 0.67328 0.97102 0.0
H1333 H 0.62107 0.6702 0.98663 0.0
H1334 H 0.57543 0.53435 0.98557 0.0
H1335 H 0.57748 0.53734 0.96997 0.0
H1336 H 0.55202 0.62136 0.99764 0.0
H1337 H 0.68064 0.57969 1.00122 0.0
H1338 H 0.67129 0.59955 0.99134 0.0
H1339 H 0.63711 0.54446 0.99436 0.0
C1340 C 0.61213 0.64281 0.9741 0.0
C1341 C 0.60005 0.60561 0.96924 0.0
C1342 C 0.61139 0.64107 0.98302 0.0
C1343 C 0.5988 0.60219 0.98725 0.0
C1344 C 0.58597 0.56484 0.98243 0.0
H1345 H 0.58189 0.53533 0.04114 0.0
H1346 H 0.5776 0.53359 0.02552 0.0
C1347 C 0.58669 0.56653 0.97351 0.0
C1348 C 0.59875 0.60078 0.99671 0.0
H1349 H 0.64421 0.57963 0.0138 0.0
C1350 C 0.5722 0.6123 1.00118 0.0
C1351 C 0.62506 0.58886 1.0013 0.0
C1352 C 0.65545 0.57778 0.99683 0.0
C1353 C 0.57097 0.61186 0.01014 0.0
C1354 C 0.59756 0.60029 0.01474 0.0
C1355 C 0.62382 0.58841 0.01026 0.0
C1356 C 0.59933 0.60125 0.02419 0.0
C1357 C 0.54077 0.62319 0.01461 0.0
C1358 C 0.61338 0.63995 0.0286 0.0
C1359 C 0.61566 0.64103 0.03751 0.0
C1360 C 0.60419 0.60343 0.04219 0.0
C1361 C 0.59039 0.56473 0.03774 0.0
C1362 C 0.58817 0.56371 0.02882 0.0
H1363 H 0.51473 0.61984 0.0103 0.0
H1364 H 0.52606 0.60257 0.0203 0.0
H1365 H 0.55899 0.65706 0.01677 0.0
H1366 H 0.62289 0.66945 0.02515 0.0
H1367 H 0.62604 0.67128 0.04073 0.0
H1368 H 0.12134 0.31182 0.37429 0.0
H1369 H 0.12455 0.31154 0.35872 0.0
H1370 H 0.06223 0.38733 0.35748 0.0
H1371 H 0.06104 0.38987 0.37303 0.0
H1372 H 0.06093 0.27953 0.34723 0.0
H1373 H 0.16316 0.45435 0.34192 0.0
H1374 H 0.15605 0.43027 0.35233 0.0
H1375 H 0.11606 0.44128 0.34805 0.0
C1376 C 0.10907 0.32918 0.37073 0.0
C1377 C 0.0912 0.35114 0.37495 0.0
C1378 C 0.11059 0.32864 0.36181 0.0
C1379 C 0.09428 0.35 0.35692 0.0
C1380 C 0.07592 0.37146 0.36111 0.0
H1381 H 0.01945 0.30225 0.30366 0.0
H1382 H 0.02215 0.30401 0.31922 0.0
C1383 C 0.07469 0.37232 0.37002 0.0
C1384 C 0.09526 0.34864 0.34746 0.0
H1385 H 0.12774 0.41191 0.32966 0.0
C1386 C 0.07579 0.30848 0.34339 0.0
C1387 C 0.11524 0.38641 0.34244 0.0
C1388 C 0.1392 0.4305 0.34641 0.0
C1389 C 0.07495 0.30503 0.33446 0.0
C1390 C 0.09311 0.3428 0.32944 0.0
C1391 C 0.11339 0.38296 0.33351 0.0
C1392 C 0.09146 0.34148 0.31996 0.0
C1393 C 0.05521 0.26095 0.3305 0.0
C1394 C 0.12943 0.36306 0.31518 0.0
C1395 C 0.12796 0.36296 0.30626 0.0
C1396 C 0.08843 0.34125 0.30193 0.0
C1397 C 0.05044 0.31965 0.30676 0.0
C1398 C 0.05194 0.32007 0.31568 0.0
H1399 H 0.05509 0.23713 0.33503 0.0
H1400 H 0.02139 0.25009 0.32875 0.0
H1401 H 0.0727 0.26121 0.32464 0.0
H1402 H 0.16028 0.38012 0.31835 0.0
H1403 H 0.1578 0.3806 0.30277 0.0
H1404 H 0.63593 0.77598 0.37422 0.0
H1405 H 0.63673 0.77691 0.35859 0.0
H1406 H 0.7282 0.73261 0.35857 0.0
H1407 H 0.72778 0.73176 0.37417 0.0
H1408 H 0.70593 0.82245 0.34743 0.0
H1409 H 0.63314 0.6467 0.34284 0.0
H1410 H 0.63176 0.67012 0.35294 0.0
H1411 H 0.67959 0.67003 0.34963 0.0
C1412 C 0.65639 0.76665 0.37089 0.0
C1413 C 0.68157 0.75351 0.37544 0.0
C1414 C 0.65666 0.76703 0.36196 0.0
C1415 C 0.68195 0.75412 0.35743 0.0
C1416 C 0.70765 0.74168 0.36194 0.0
H1417 H 0.7333 0.73615 0.30399 0.0
H1418 H 0.73237 0.73686 0.31961 0.0
C1419 C 0.70736 0.74122 0.37086 0.0
C1420 C 0.68212 0.75443 0.34796 0.0
H1421 H 0.66145 0.69025 0.33049 0.0
C1422 C 0.69598 0.79354 0.34372 0.0
C1423 C 0.66916 0.71664 0.34315 0.0
C1424 C 0.65219 0.6734 0.34735 0.0
C1425 C 0.69809 0.79604 0.33477 0.0
C1426 C 0.68535 0.75828 0.32996 0.0
C1427 C 0.67134 0.71915 0.3342 0.0
C1428 C 0.68622 0.75859 0.3205 0.0
C1429 C 0.71488 0.83919 0.33054 0.0
C1430 C 0.66025 0.77017 0.31583 0.0
C1431 C 0.66054 0.76961 0.30691 0.0
C1432 C 0.68665 0.75719 0.30248 0.0
C1433 C 0.7125 0.74544 0.30719 0.0
C1434 C 0.71217 0.74602 0.31612 0.0
H1435 H 0.73313 0.866 0.33508 0.0
H1436 H 0.73601 0.84277 0.32506 0.0
H1437 H 0.68743 0.84201 0.32809 0.0
H1438 H 0.63928 0.77906 0.31909 0.0
H1439 H 0.63966 0.77808 0.30348 0.0
H1440 H 0.29984 0.01824 0.30333 0.0
H1441 H 0.30099 0.01617 0.3189 0.0
H1442 H 0.23723 0.87798 0.31819 0.0
H1443 H 0.23809 0.87977 0.30262 0.0
H1444 H 0.23715 0.98102 0.33039 0.0
H1445 H 0.33873 0.90584 0.33326 0.0
H1446 H 0.3316 0.92658 0.32329 0.0
H1447 H 0.29122 0.87455 0.32703 0.0
C1448 C 0.28661 0.98739 0.30646 0.0
C1449 C 0.26927 0.94919 0.30168 0.0
C1450 C 0.28696 0.98626 0.31538 0.0
C1451 C 0.26993 0.94697 0.31972 0.0
C1452 C 0.25148 0.90873 0.31499 0.0
H1453 H 0.20699 0.91418 0.37395 0.0
H1454 H 0.20436 0.91346 0.35837 0.0
C1455 C 0.25143 0.90982 0.30607 0.0
C1456 C 0.27116 0.94614 0.32918 0.0
H1457 H 0.30616 0.91151 0.34603 0.0
C1458 C 0.25234 0.96592 0.33381 0.0
C1459 C 0.29157 0.92702 0.33364 0.0
C1460 C 0.31481 0.90768 0.32906 0.0
C1461 C 0.25297 0.96674 0.34278 0.0
C1462 C 0.27197 0.9462 0.34723 0.0
C1463 C 0.29117 0.92681 0.3426 0.0
C1464 C 0.27327 0.94538 0.3567 0.0
C1465 C 0.23424 0.99054 0.34736 0.0
C1466 C 0.31277 0.96204 0.36095 0.0
C1467 C 0.31436 0.96161 0.36986 0.0
C1468 C 0.27643 0.94456 0.37473 0.0
C1469 C 0.23683 0.92728 0.37043 0.0
C1470 C 0.23528 0.92741 0.36151 0.0
H1471 H 0.23248 0.01442 0.34313 0.0
H1472 H 0.20112 0.96731 0.34946 0.0
H1473 H 0.25351 0.00746 0.35308 0.0
H1474 H 0.34249 0.97569 0.35737 0.0
H1475 H 0.34536 0.9744 0.37293 0.0
H1476 H 0.7887 0.65236 0.70804 0.0
H1477 H 0.79088 0.65236 0.69246 0.0
H1478 H 0.72771 0.72744 0.69166 0.0
H1479 H 0.72754 0.72971 0.70723 0.0
H1480 H 0.72619 0.62 0.68121 0.0
H1481 H 0.82728 0.79492 0.67581 0.0
H1482 H 0.82117 0.77088 0.6862 0.0
H1483 H 0.7806 0.78151 0.68212 0.0
C1484 C 0.77605 0.66966 0.70457 0.0
C1485 C 0.75821 0.6913 0.70893 0.0
C1486 C 0.77697 0.66927 0.69565 0.0
C1487 C 0.76007 0.69046 0.69089 0.0
C1488 C 0.74182 0.71169 0.6952 0.0
H1489 H 0.68317 0.64178 0.63765 0.0
H1490 H 0.68597 0.64421 0.65322 0.0
C1491 C 0.74119 0.7124 0.70412 0.0
C1492 C 0.76029 0.6891 0.68142 0.0
H1493 H 0.79144 0.7523 0.66361 0.0
C1494 C 0.74068 0.64893 0.67736 0.0
C1495 C 0.77976 0.72686 0.6764 0.0
C1496 C 0.80378 0.77096 0.68035 0.0
C1497 C 0.73933 0.64545 0.66842 0.0
C1498 C 0.7571 0.68319 0.6634 0.0
C1499 C 0.7774 0.72337 0.66746 0.0
C1500 C 0.75529 0.68182 0.65393 0.0
C1501 C 0.71958 0.60136 0.66447 0.0
C1502 C 0.79321 0.70333 0.64913 0.0
C1503 C 0.79168 0.70285 0.64022 0.0
C1504 C 0.75213 0.68079 0.6359 0.0
C1505 C 0.71417 0.65941 0.64074 0.0
C1506 C 0.71574 0.66022 0.64966 0.0
H1507 H 0.71955 0.57755 0.66899 0.0
H1508 H 0.68573 0.59047 0.66274 0.0
H1509 H 0.737 0.60166 0.65859 0.0
H1510 H 0.82408 0.72054 0.65229 0.0
H1511 H 0.8215 0.72037 0.63672 0.0
H1512 H 0.39373 0.06252 0.63673 0.0
H1513 H 0.39035 0.06168 0.65229 0.0
H1514 H 0.31847 0.12819 0.65144 0.0
H1515 H 0.31953 0.12704 0.63587 0.0
H1516 H 0.42027 0.12585 0.66371 0.0
H1517 H 0.24326 0.02779 0.66661 0.0
H1518 H 0.27092 0.034 0.65664 0.0
H1519 H 0.26051 0.07533 0.66032 0.0
C1520 C 0.37659 0.0764 0.63983 0.0
C1521 C 0.35651 0.09445 0.63501 0.0
C1522 C 0.37504 0.07623 0.64874 0.0
C1523 C 0.35348 0.09416 0.65304 0.0
C1524 C 0.33442 0.11326 0.64827 0.0
H1525 H 0.3852 0.15779 0.70725 0.0
H1526 H 0.38675 0.1603 0.69167 0.0
C1527 C 0.33563 0.11313 0.63935 0.0
C1528 C 0.35143 0.09321 0.66251 0.0
H1529 H 0.2819 0.05987 0.67936 0.0
C1530 C 0.39002 0.11133 0.66713 0.0
C1531 C 0.31191 0.07367 0.66697 0.0
C1532 C 0.26929 0.05121 0.66239 0.0
C1533 C 0.39022 0.11081 0.67609 0.0
C1534 C 0.35074 0.09268 0.68056 0.0
C1535 C 0.31215 0.0742 0.67593 0.0
C1536 C 0.34867 0.09148 0.69002 0.0
C1537 C 0.43269 0.12872 0.68067 0.0
C1538 C 0.32533 0.0521 0.69428 0.0
C1539 C 0.32354 0.0506 0.7032 0.0
C1540 C 0.34515 0.08849 0.70805 0.0
C1541 C 0.3679 0.12798 0.70374 0.0
C1542 C 0.36937 0.12946 0.69482 0.0
H1543 H 0.45805 0.12986 0.67644 0.0
H1544 H 0.44322 0.16199 0.68278 0.0
H1545 H 0.42993 0.10929 0.6864 0.0
H1546 H 0.30875 0.02241 0.69071 0.0
H1547 H 0.305 0.0197 0.70627 0.0
H1548 H 0.00439 0.28104 0.63631 0.0
H1549 H 0.00373 0.27761 0.65191 0.0
H1550 H 0.87801 0.26527 0.65223 0.0
H1551 H 0.87799 0.26712 0.6366 0.0
H1552 H 0.00133 0.3291 0.66335 0.0
H1553 H 0.85749 0.16913 0.66779 0.0
H1554 H 0.88202 0.18823 0.65749 0.0
H1555 H 0.84576 0.2044 0.66177 0.0
C1556 C 0.97655 0.27738 0.63972 0.0
C1557 C 0.94115 0.27413 0.63526 0.0
C1558 C 0.97616 0.27537 0.64863 0.0
C1559 C 0.94051 0.2704 0.65327 0.0
C1560 C 0.90533 0.26776 0.64881 0.0
H1561 H 0.95215 0.33752 0.70693 0.0
H1562 H 0.95049 0.33591 0.69132 0.0
C1563 C 0.90543 0.26908 0.63988 0.0
C1564 C 0.94105 0.26975 0.66275 0.0
H1565 H 0.88429 0.21305 0.68023 0.0
C1566 C 0.97584 0.30355 0.66703 0.0
C1567 C 0.90818 0.23609 0.66758 0.0
C1568 C 0.87152 0.1972 0.66342 0.0
C1569 C 0.97844 0.30497 0.67598 0.0
C1570 C 0.9445 0.27245 0.68081 0.0
C1571 C 0.91003 0.23828 0.67654 0.0
C1572 C 0.94433 0.27303 0.6903 0.0
C1573 C 0.01807 0.34083 0.68012 0.0
C1574 C 0.93956 0.23749 0.69495 0.0
C1575 C 0.93962 0.23803 0.70388 0.0
C1576 C 0.94478 0.27424 0.70832 0.0
C1577 C 0.94891 0.30951 0.70366 0.0
C1578 C 0.94818 0.3087 0.69475 0.0
H1579 H 0.04596 0.35434 0.6757 0.0
H1580 H 0.01188 0.36714 0.68187 0.0
H1581 H 0.02685 0.32969 0.68599 0.0
H1582 H 0.9363 0.20951 0.69167 0.0
H1583 H 0.93649 0.21047 0.70731 0.0
H1584 H 0.28729 0.89012 0.20549 0.0
H1585 H 0.30189 0.89575 0.19013 0.0
H1586 H 0.34882 0.03186 0.1912 0.0
H1587 H 0.33296 0.02631 0.20646 0.0
H1588 H 0.29481 0.99281 0.17761 0.0
H1589 H 0.42065 0.94653 0.17917 0.0
H1590 H 0.37031 0.90825 0.18387 0.0
H1591 H 0.40115 0.96069 0.18853 0.0
C1592 C 0.3003 0.92117 0.20244 0.0
C1593 C 0.30925 0.95782 0.20722 0.0
C1594 C 0.30913 0.92442 0.19368 0.0
C1595 C 0.32724 0.96437 0.18956 0.0
C1596 C 0.33524 0.00078 0.19427 0.0
H1597 H 0.44816 0.03649 0.13957 0.0
H1598 H 0.43276 0.0275 0.15492 0.0
C1599 C 0.3264 -0.00242 0.20301 0.0
C1600 C 0.33736 0.96839 0.18031 0.0
H1601 H 0.39828 0.95422 0.16534 0.0
C1602 C 0.31744 0.98438 0.17492 0.0
C1603 C 0.36741 0.958 0.17685 0.0
C1604 C 0.39147 0.94279 0.1824 0.0
C1605 C 0.32632 0.9898 0.16614 0.0
C1606 C 0.35535 0.97816 0.16264 0.0
C1607 C 0.37574 0.96272 0.16804 0.0
C1608 C 0.36505 0.98207 0.15337 0.0
C1609 C 0.30513 0.00869 0.16073 0.0
C1610 C 0.33231 0.95871 0.14744 0.0
C1611 C 0.34099 0.96373 0.1387 0.0
C1612 C 0.3827 0.99202 0.1357 0.0
C1613 C 0.41577 0.01433 0.14167 0.0
C1614 C 0.407 0.00935 0.15043 0.0
H1615 H 0.29304 0.02613 0.16466 0.0
H1616 H 0.32779 0.03112 0.15589 0.0
H1617 H 0.27736 0.98244 0.15732 0.0
H1618 H 0.29994 0.93669 0.14958 0.0
H1619 H 0.315 0.94537 0.13427 0.0
H1620 H 0.07931 0.4744 0.13777 0.0
H1621 H 0.08858 0.46885 0.15311 0.0
H1622 H 0.99379 0.33422 0.15237 0.0
H1623 H 0.98311 0.3398 0.13713 0.0
H1624 H 0.98271 0.37532 0.16597 0.0
H1625 H 0.15233 0.41358 0.16394 0.0
H1626 H 0.14258 0.45358 0.1593 0.0
H1627 H 0.11831 0.40086 0.15466 0.0
C1628 C 0.06006 0.44372 0.14089 0.0
C1629 C 0.03067 0.40747 0.1362 0.0
C1630 C 0.06583 0.44048 0.14963 0.0
C1631 C 0.04253 0.40092 0.15384 0.0
C1632 C 0.01243 0.36497 0.14923 0.0
H1633 H 0.09182 0.32781 0.20369 0.0
H1634 H 0.08454 0.3366 0.18836 0.0
C1635 C 0.00657 0.36817 0.1405 0.0
C1636 C 0.04895 0.39686 0.16308 0.0
H1637 H 0.12389 0.40834 0.17785 0.0
C1638 C 0.01356 0.38251 0.16857 0.0
C1639 C 0.08909 0.40561 0.16643 0.0
C1640 C 0.12769 0.41887 0.16078 0.0
C1641 C 0.0173 0.37715 0.17734 0.0
C1642 C 0.05775 0.38724 0.18074 0.0
C1643 C 0.09303 0.40104 0.17524 0.0
C1644 C 0.06391 0.38331 0.18999 0.0
C1645 C 0.97767 0.35989 0.18286 0.0
C1646 C 0.05573 0.4074 0.19596 0.0
C1647 C 0.05981 0.40242 0.20469 0.0
C1648 C 0.07255 0.37351 0.20763 0.0
C1649 C 0.08212 0.35045 0.20162 0.0
C1650 C 0.07784 0.35533 0.19288 0.0
H1651 H 0.94781 0.34301 0.179 0.0
H1652 H 0.9773 0.33736 0.18775 0.0
H1653 H 0.97742 0.38696 0.1862 0.0
H1654 H 0.04603 0.43 0.19387 0.0
H1655 H 0.0531 0.42134 0.20915 0.0
H1656 H 0.61404 0.74244 0.2063 0.0
H1657 H 0.60511 0.72783 0.19094 0.0
H1658 H 0.69909 0.6868 0.19181 0.0
H1659 H 0.70939 0.70279 0.20706 0.0
H1660 H 0.71099 0.7395 0.17822 0.0
H1661 H 0.54104 0.6089 0.18005 0.0
H1662 H 0.55105 0.65868 0.18471 0.0
H1663 H 0.57486 0.6298 0.18936 0.0
C1664 C 0.63317 0.73077 0.2032 0.0
C1665 C 0.66221 0.72348 0.20793 0.0
C1666 C 0.62761 0.72191 0.19445 0.0
C1667 C 0.65079 0.70539 0.19027 0.0
C1668 C 0.68055 0.69912 0.19492 0.0
H1669 H 0.60317 0.58314 0.14045 0.0
H1670 H 0.61 0.59925 0.15577 0.0
C1671 C 0.68618 0.70802 0.20365 0.0
C1672 C 0.64462 0.69505 0.18103 0.0
H1673 H 0.57009 0.63183 0.16618 0.0
C1674 C 0.68019 0.71596 0.17558 0.0
C1675 C 0.60455 0.66382 0.17763 0.0
C1676 C 0.56574 0.63866 0.18324 0.0
C1677 C 0.67672 0.70686 0.16681 0.0
C1678 C 0.63636 0.67662 0.16337 0.0
C1679 C 0.60088 0.65529 0.16883 0.0
C1680 C 0.63052 0.66651 0.15412 0.0
C1681 C 0.71653 0.7291 0.16134 0.0
C1682 C 0.6388 0.69874 0.14813 0.0
C1683 C 0.63496 0.68966 0.1394 0.0
C1684 C 0.62239 0.64804 0.13648 0.0
C1685 C 0.61275 0.61546 0.1425 0.0
C1686 C 0.61677 0.62464 0.15125 0.0
H1687 H 0.74628 0.74209 0.16524 0.0
H1688 H 0.71705 0.70686 0.15649 0.0
H1689 H 0.71688 0.75636 0.15796 0.0
H1690 H 0.64838 0.73101 0.15021 0.0
H1691 H 0.64171 0.71525 0.13493 0.0
H1692 H 0.9427 0.31807 0.87567 0.0
H1693 H 0.93451 0.30311 0.86036 0.0
H1694 H 0.02785 0.43522 0.85512 0.0
H1695 H 0.03634 0.45051 0.87048 0.0
H1696 H 0.95532 0.40231 0.84453 0.0
H1697 H 0.02339 0.2938 0.84555 0.0
H1698 H 0.97942 0.27902 0.85278 0.0
H1699 H 0.0287 0.32879 0.8543 0.0
C1700 C 0.96171 0.34392 0.87127 0.0
C1701 C 0.99057 0.38539 0.8743 0.0
C1702 C 0.95697 0.3353 0.86252 0.0
C1703 C 0.98119 0.36785 0.85662 0.0
C1704 C 0.00903 0.4096 0.85959 0.0
H1705 H 0.02595 0.33333 0.80365 0.0
H1706 H 0.03147 0.34951 0.8189 0.0
C1707 C 0.01373 0.41831 0.86835 0.0
C1708 C 0.9776 0.35815 0.84736 0.0
H1709 H 0.99107 0.29633 0.83251 0.0
C1710 C 0.96321 0.37922 0.84188 0.0
C1711 C 0.98846 0.32842 0.84392 0.0
C1712 C 0.00625 0.30647 0.84942 0.0
C1713 C 0.95875 0.37087 0.83307 0.0
C1714 C 0.9683 0.3401 0.82968 0.0
C1715 C 0.98329 0.31952 0.83514 0.0
C1716 C 0.96432 0.32977 0.82044 0.0
C1717 C 0.94469 0.39565 0.82745 0.0
C1718 C 0.92453 0.31257 0.81627 0.0
C1719 C 0.92131 0.30356 0.80752 0.0
C1720 C 0.9578 0.3114 0.80279 0.0
C1721 C -0.00264 0.32763 0.80706 0.0
C1722 C 0.00054 0.33665 0.81579 0.0
H1723 H 0.94921 0.42522 0.83064 0.0
H1724 H 0.96279 0.40479 0.82134 0.0
H1725 H 0.91007 0.37524 0.82595 0.0
H1726 H 0.89598 0.30618 0.81977 0.0
H1727 H 0.89042 0.29131 0.80443 0.0
H1728 H 0.71518 0.65556 0.87627 0.0
H1729 H 0.73004 0.66217 0.86098 0.0
H1730 H 0.59435 0.60034 0.85569 0.0
H1731 H 0.57922 0.59546 0.87099 0.0
H1732 H 0.70609 0.60111 0.84868 0.0
H1733 H 0.64035 0.70805 0.84136 0.0
H1734 H 0.6499 0.69719 0.85214 0.0
H1735 H 0.6025 0.65893 0.8465 0.0
C1736 C 0.68845 0.64394 0.87187 0.0
C1737 C 0.64599 0.62547 0.87489 0.0
C1738 C 0.69702 0.6474 0.86312 0.0
C1739 C 0.66338 0.63247 0.85719 0.0
C1740 C 0.62089 0.61298 0.86015 0.0
H1741 H 0.65002 0.61902 0.80203 0.0
H1742 H 0.63561 0.61034 0.81735 0.0
C1743 C 0.61226 0.6097 0.86891 0.0
C1744 C 0.67294 0.63701 0.8479 0.0
H1745 H 0.65971 0.68012 0.82951 0.0
C1746 C 0.69612 0.61854 0.84449 0.0
C1747 C 0.66006 0.65994 0.84246 0.0
C1748 C 0.63719 0.68253 0.8458 0.0
C1749 C 0.70609 0.62175 0.83576 0.0
C1750 C 0.69281 0.64426 0.83032 0.0
C1751 C 0.6697 0.66276 0.83371 0.0
C1752 C 0.7022 0.64874 0.82106 0.0
C1753 C 0.73007 0.60042 0.83237 0.0
C1754 C 0.74449 0.67336 0.81807 0.0
C1755 C 0.75287 0.67883 0.8093 0.0
C1756 C 0.71905 0.65985 0.80336 0.0
C1757 C 0.67678 0.63477 0.80641 0.0
C1758 C 0.66846 0.6295 0.81517 0.0
H1759 H 0.7306 0.5774 0.83703 0.0
H1760 H 0.71538 0.58312 0.82633 0.0
H1761 H 0.76374 0.6253 0.83098 0.0
H1762 H 0.77091 0.68898 0.82254 0.0
H1763 H 0.78571 0.69879 0.80718 0.0
H1764 H 0.41182 0.13862 0.8043 0.0
H1765 H 0.42128 0.13257 0.81962 0.0
H1766 H 0.33062 0.99684 0.81853 0.0
H1767 H 0.31975 0.00285 0.80331 0.0
H1768 H 0.31697 0.03576 0.83222 0.0
H1769 H 0.48855 0.08064 0.83033 0.0
H1770 H 0.47698 0.11953 0.82576 0.0
H1771 H 0.45465 0.06717 0.82102 0.0
C1772 C 0.39353 0.10757 0.80734 0.0
C1773 C 0.36523 0.07116 0.80256 0.0
C1774 C 0.39942 0.10407 0.81607 0.0
C1775 C 0.37733 0.06409 0.82017 0.0
C1776 C 0.34833 0.02793 0.81547 0.0
H1777 H 0.42822 0.99271 0.87014 0.0
H1778 H 0.42138 0.00129 0.85478 0.0
C1779 C 0.34236 0.03139 0.80676 0.0
C1780 C 0.38375 0.05983 0.8294 0.0
H1781 H 0.45933 0.07371 0.84423 0.0
C1782 C 0.34808 0.04401 0.83485 0.0
C1783 C 0.42425 0.06997 0.83279 0.0
C1784 C 0.46325 0.08489 0.82717 0.0
C1785 C 0.35187 0.03861 0.84361 0.0
C1786 C 0.39264 0.05013 0.84705 0.0
C1787 C 0.42821 0.06532 0.84159 0.0
C1788 C 0.39883 0.04654 0.85631 0.0
C1789 C 0.31202 0.01988 0.84909 0.0
C1790 C 0.3895 0.06997 0.86223 0.0
C1791 C 0.39335 0.06514 0.87098 0.0
C1792 C 0.40696 0.037 0.87398 0.0
C1793 C 0.4178 0.01472 0.86802 0.0
C1794 C 0.41377 0.01947 0.85926 0.0
H1795 H 0.28236 0.00221 0.8452 0.0
H1796 H 0.31248 -0.0023 0.85396 0.0
H1797 H 0.31052 0.04625 0.85245 0.0
H1798 H 0.37899 0.09187 0.86009 0.0
H1799 H 0.38567 0.08348 0.8754 0.0
H1800 H -0.00375 0.36327 0.53989 0.0
H1801 H 0.0114 0.3686 0.5246 0.0
H1802 H 0.96873 0.23334 0.52372 0.0
H1803 H 0.9549 0.22797 0.5391 0.0
H1804 H 0.04593 0.28316 0.51528 0.0
H1805 H 0.92473 0.32656 0.50511 0.0
H1806 H 0.96045 0.36112 0.51324 0.0
H1807 H 0.92435 0.30543 0.51558 0.0
C1808 C 0.99021 0.33464 0.53646 0.0
C1809 C 0.97432 0.29516 0.54073 0.0
C1810 C -0.00155 0.33767 0.5277 0.0
C1811 C 0.99063 0.30126 0.523 0.0
C1812 C 0.97473 0.26178 0.52722 0.0
H1813 H 0.98356 0.28379 0.46776 0.0
H1814 H 0.96767 0.27384 0.48302 0.0
C1815 C 0.9665 0.2587 0.536 0.0
C1816 C 0.00016 0.30467 0.51373 0.0
H1817 H 0.97618 0.33401 0.4947 0.0
C1818 C 0.03055 0.29408 0.51076 0.0
C1819 C 0.97971 0.31847 0.50784 0.0
C1820 C 0.94519 0.32816 0.51058 0.0
C1821 C 0.0416 0.29762 0.50208 0.0
C1822 C 0.02223 0.31286 0.49624 0.0
C1823 C 0.99132 0.32275 0.49919 0.0
C1824 C 0.0328 0.31799 0.487 0.0
C1825 C 0.07336 0.28437 0.49921 0.0
C1826 C 0.07474 0.3462 0.48417 0.0
C1827 C 0.08396 0.35198 0.47542 0.0
C1828 C 0.05125 0.33003 0.46937 0.0
C1829 C 0.00936 0.30164 0.47225 0.0
C1830 C 0.00024 0.29577 0.48097 0.0
H1831 H 0.07638 0.26304 0.50395 0.0
H1832 H 0.06385 0.26751 0.49297 0.0
H1833 H 0.10542 0.31341 0.49846 0.0
H1834 H 0.10019 0.36438 0.48871 0.0
H1835 H 0.11641 0.37445 0.4734 0.0
H1836 H 0.74913 0.71934 0.46842 0.0
H1837 H 0.75755 0.71243 0.48372 0.0
H1838 H 0.66713 0.75496 0.48911 0.0
H1839 H 0.6585 0.76201 0.47376 0.0
H1840 H 0.73969 0.79287 0.49961 0.0
H1841 H 0.66815 0.61599 0.49866 0.0
H1842 H 0.7121 0.64409 0.49139 0.0
H1843 H 0.6635 0.64604 0.48991 0.0
C1844 C 0.7308 0.72697 0.47286 0.0
C1845 C 0.70272 0.74071 0.46988 0.0
C1846 C 0.73566 0.72299 0.48159 0.0
C1847 C 0.71232 0.73234 0.48754 0.0
C1848 C 0.68525 0.74734 0.48462 0.0
H1849 H 0.669 0.65339 0.54052 0.0
H1850 H 0.66306 0.66409 0.5253 0.0
C1851 C 0.68046 0.75149 0.47586 0.0
C1852 C 0.71607 0.7262 0.49679 0.0
H1853 H 0.70191 0.65066 0.51162 0.0
C1854 C 0.73134 0.76179 0.50225 0.0
C1855 C 0.7046 0.68548 0.50023 0.0
C1856 C 0.68577 0.64561 0.49477 0.0
C1857 C 0.7361 0.75788 0.51105 0.0
C1858 C 0.72602 0.71742 0.51444 0.0
C1859 C 0.71013 0.68174 0.509 0.0
C1860 C 0.73028 0.71103 0.52367 0.0
C1861 C 0.75106 0.7969 0.51666 0.0
C1862 C 0.77024 0.73328 0.52779 0.0
C1863 C 0.77369 0.72752 0.53653 0.0
C1864 C 0.73726 0.69916 0.5413 0.0
C1865 C 0.69755 0.67607 0.53708 0.0
C1866 C 0.69413 0.68193 0.52837 0.0
H1867 H 0.74671 0.82213 0.5135 0.0
H1868 H 0.73343 0.78832 0.52282 0.0
H1869 H 0.78575 0.81068 0.51805 0.0
H1870 H 0.79874 0.75521 0.52425 0.0
H1871 H 0.8047 0.74597 0.53958 0.0
H1872 H 0.22896 0.95682 0.47095 0.0
H1873 H 0.23498 0.97265 0.48625 0.0
H1874 H 0.37004 0.01407 0.48536 0.0
H1875 H 0.36407 -0.00293 0.47014 0.0
H1876 H 0.32864 0.96158 0.49914 0.0
H1877 H 0.29077 0.09311 0.49671 0.0
H1878 H 0.25103 0.04323 0.49208 0.0
H1879 H 0.30394 0.07162 0.48753 0.0
C1880 C 0.25983 0.96882 0.47403 0.0
C1881 C 0.2961 0.97593 0.46931 0.0
C1882 C 0.26333 0.97837 0.48275 0.0
C1883 C 0.30314 0.99534 0.4869 0.0
C1884 C 0.33911 0.0014 0.48226 0.0
H1885 H 0.37633 0.11857 0.53673 0.0
H1886 H 0.36815 0.10262 0.5214 0.0
C1887 C 0.33567 0.99188 0.47356 0.0
C1888 C 0.3074 0.00636 0.49611 0.0
H1889 H 0.29616 0.07069 0.51069 0.0
C1890 C 0.32158 0.98545 0.50167 0.0
C1891 C 0.29882 0.03803 0.49936 0.0
C1892 C 0.28568 0.06314 0.49361 0.0
C1893 C 0.32681 0.99486 0.51043 0.0
C1894 C 0.31686 0.02549 0.51373 0.0
C1895 C 0.30335 0.04693 0.50815 0.0
C1896 C 0.32036 0.03564 0.52297 0.0
C1897 C 0.34365 0.97245 0.51605 0.0
C1898 C 0.29542 0.00357 0.52891 0.0
C1899 C 0.29999 0.01256 0.53764 0.0
C1900 C 0.32941 0.05395 0.54061 0.0
C1901 C 0.3533 0.08644 0.53464 0.0
C1902 C 0.34878 0.07735 0.52589 0.0
H1903 H 0.36037 0.95903 0.51227 0.0
H1904 H 0.36622 0.99469 0.52092 0.0
H1905 H 0.31637 0.94547 0.51941 0.0
H1906 H 0.2725 0.97145 0.52678 0.0
H1907 H 0.28043 0.98706 0.54207 0.0
H1908 H 0.56061 0.48009 0.10519 0.0
H1909 H 0.51812 0.40179 0.10573 0.0
H1910 H 0.52841 0.39586 0.0784 0.0
H1911 H 0.5704 0.47411 0.07775 0.0
H1912 H 0.44363 0.34769 0.08471 0.0
H1913 H 0.55703 0.31324 0.10246 0.0
H1914 H 0.54559 0.35142 0.10743 0.0
H1915 H 0.57376 0.36434 0.09743 0.0
C1916 C 0.55454 0.46213 0.09931 0.0
C1917 C 0.56898 0.48332 0.09143 0.0
C1918 C 0.53022 0.4174 0.09963 0.0
C1919 C 0.5203 0.39315 0.09211 0.0
C1920 C 0.53569 0.41411 0.08427 0.0
H1921 H 0.39973 0.13412 0.07594 0.0
H1922 H 0.42178 0.20988 0.07718 0.0
C1923 C 0.5599 0.45879 0.08393 0.0
C1924 C 0.49265 0.34599 0.09233 0.0
H1925 H 0.48851 0.25457 0.09949 0.0
C1926 C 0.45329 0.32724 0.08796 0.0
C1927 C 0.50531 0.31959 0.09663 0.0
C1928 C 0.54786 0.338 0.1012 0.0
C1929 C 0.42635 0.28254 0.0877 0.0
C1930 C 0.43949 0.25612 0.09184 0.0
C1931 C 0.47836 0.27498 0.09638 0.0
C1932 C 0.41583 0.20887 0.09094 0.0
C1933 C 0.38419 0.26404 0.083 0.0
C1934 C 0.40367 0.18281 0.09824 0.0
C1935 C 0.39128 0.13945 0.09756 0.0
C1936 C 0.39127 0.12162 0.08956 0.0
C1937 C 0.39947 0.14685 0.08219 0.0
C1938 C 0.41194 0.19024 0.08289 0.0
H1939 H 0.37271 0.2875 0.0826 0.0
H1940 H 0.38858 0.25583 0.07639 0.0
H1941 H 0.35911 0.23438 0.08615 0.0
H1942 H 0.40644 0.19664 0.10451 0.0
H1943 H 0.38488 0.12083 0.10336 0.0
H1944 H 0.55276 0.11275 0.07652 0.0
H1945 H 0.63109 0.1498 0.07696 0.0
H1946 H 0.62744 0.13993 0.10442 0.0
H1947 H 0.54894 0.10308 0.10407 0.0
H1948 H 0.6886 0.22127 0.09793 0.0
H1949 H 0.70062 0.08942 0.08217 0.0
H1950 H 0.66916 0.10723 0.07641 0.0
H1951 H 0.65113 0.0821 0.08666 0.0
C1952 C 0.56856 0.11883 0.08267 0.0
C1953 C 0.54462 0.10477 0.09026 0.0
C1954 C 0.61329 0.13961 0.08289 0.0
C1955 C 0.63482 0.14652 0.0907 0.0
C1956 C 0.61123 0.13433 0.09832 0.0
H1957 H 0.90728 0.28558 0.10291 0.0
H1958 H 0.83078 0.23277 0.10372 0.0
C1959 C 0.56644 0.11349 0.09811 0.0
C1960 C 0.68206 0.16695 0.0909 0.0
H1961 H 0.76588 0.15592 0.08382 0.0
C1962 C 0.70556 0.20684 0.09493 0.0
C1963 C 0.70386 0.14783 0.08698 0.0
C1964 C 0.67995 0.10409 0.08288 0.0
C1965 C 0.75053 0.22902 0.09489 0.0
C1966 C 0.77239 0.21025 0.09085 0.0
C1967 C 0.7489 0.16999 0.08694 0.0
C1968 C 0.81965 0.23366 0.09017 0.0
C1969 C 0.77427 0.27311 0.09888 0.0
C1970 C 0.83904 0.24902 0.0822 0.0
C1971 C 0.8828 0.27892 0.08169 0.0
C1972 C 0.90763 0.29395 0.08917 0.0
C1973 C 0.88891 0.27505 0.09704 0.0
C1974 C 0.84518 0.24504 0.09753 0.0
H1975 H 0.75273 0.28632 0.10017 0.0
H1976 H 0.78851 0.27119 0.10503 0.0
H1977 H 0.80076 0.29583 0.09466 0.0
H1978 H 0.81978 0.24023 0.07644 0.0
H1979 H 0.8963 0.29262 0.07552 0.0
H1980 H 0.74539 0.63835 0.07568 0.0
H1981 H 0.79937 0.61604 0.0757 0.0
H1982 H 0.7959 0.61103 0.1032 0.0
H1983 H 0.74226 0.63378 0.10329 0.0
H1984 H 0.88037 0.63836 0.09519 0.0
H1985 H 0.74516 0.48629 0.08244 0.0
H1986 H 0.75812 0.53389 0.07646 0.0
H1987 H 0.73731 0.52772 0.08711 0.0
C1988 C 0.75711 0.63392 0.08175 0.0
C1989 C 0.73883 0.63688 0.08948 0.0
C1990 C 0.78785 0.62103 0.08174 0.0
C1991 C 0.80063 0.61091 0.08944 0.0
C1992 C 0.78607 0.61841 0.09719 0.0
H1993 H 0.93272 0.47331 0.10371 0.0
H1994 H 0.89524 0.51442 0.10371 0.0
C1995 C 0.75541 0.63145 0.09722 0.0
C1996 C 0.82392 0.5868 0.08938 0.0
H1997 H 0.81159 0.48918 0.08415 0.0
C1998 C 0.86551 0.6058 0.09277 0.0
C1999 C 0.80404 0.54417 0.08629 0.0
C2000 C 0.75857 0.52152 0.08293 0.0
C2001 C 0.88821 0.5834 0.09299 0.0
C2002 C 0.86829 0.54078 0.08988 0.0
C2003 C 0.82669 0.52188 0.08651 0.0
C2004 C 0.89012 0.51522 0.08996 0.0
C2005 C 0.93352 0.60571 0.0964 0.0
C2006 C 0.89804 0.50067 0.08224 0.0
C2007 C 0.91896 0.47683 0.08221 0.0
C2008 C 0.93217 0.46694 0.08991 0.0
C2009 C 0.92298 0.48043 0.09766 0.0
C2010 C 0.90202 0.50432 0.09768 0.0
H2011 H 0.94755 0.6411 0.0966 0.0
H2012 H 0.9334 0.5944 0.10299 0.0
H2013 H 0.95447 0.59814 0.09243 0.0
H2014 H 0.88867 0.50842 0.07622 0.0
H2015 H 0.92556 0.46697 0.07613 0.0
H2016 H 0.47833 0.56147 0.90613 0.0
H2017 H 0.40006 0.51906 0.9054 0.0
H2018 H 0.39263 0.52446 0.93281 0.0
H2019 H 0.47091 0.56638 0.93364 0.0
H2020 H 0.34377 0.44101 0.9259 0.0
H2021 H 0.31257 0.55894 0.90911 0.0
H2022 H 0.35064 0.54784 0.90397 0.0
H2023 H 0.36323 0.57403 0.91419 0.0
C2024 C 0.46006 0.55426 0.912 0.0
C2025 C 0.48085 0.56746 0.91995 0.0
C2026 C 0.41533 0.53 0.91156 0.0
C2027 C 0.39066 0.51886 0.91904 0.0
C2028 C 0.41121 0.53274 0.92696 0.0
H2029 H 0.12967 0.39771 0.9342 0.0
H2030 H 0.20543 0.41927 0.9332 0.0
C2031 C 0.45591 0.55692 0.92742 0.0
C2032 C 0.34342 0.49176 0.91866 0.0
H2033 H 0.25314 0.49011 0.91148 0.0
C2034 C 0.32386 0.45161 0.92273 0.0
C2035 C 0.31772 0.50565 0.91447 0.0
C2036 C 0.33694 0.5491 0.91024 0.0
C2037 C 0.27907 0.42503 0.92278 0.0
C2038 C 0.25335 0.43932 0.91874 0.0
C2039 C 0.27301 0.47906 0.91451 0.0
C2040 C 0.20598 0.41586 0.91941 0.0
C2041 C 0.25969 0.38199 0.92715 0.0
C2042 C 0.18076 0.40527 0.912 0.0
C2043 C 0.13739 0.39313 0.91254 0.0
C2044 C 0.11871 0.39186 0.92051 0.0
C2045 C 0.14307 0.39847 0.92796 0.0
C2046 C 0.18644 0.41066 0.92741 0.0
H2047 H 0.2829 0.37017 0.9275 0.0
H2048 H 0.25069 0.38517 0.93377 0.0
H2049 H 0.23034 0.35772 0.92378 0.0
H2050 H 0.19529 0.40908 0.90577 0.0
H2051 H 0.11948 0.388 0.90668 0.0
H2052 H 0.46598 0.92934 0.90652 0.0
H2053 H 0.50546 0.89016 0.90678 0.0
H2054 H 0.49618 0.88295 0.93425 0.0
H2055 H 0.45633 0.92138 0.93407 0.0
H2056 H 0.5843 0.91575 0.91518 0.0
H2057 H 0.45462 0.75889 0.92713 0.0
H2058 H 0.44415 0.79927 0.9228 0.0
H2059 H 0.46312 0.80372 0.93358 0.0
C2060 C 0.47171 0.91877 0.91261 0.0
C2061 C 0.45781 0.92826 0.92027 0.0
C2062 C 0.49448 0.89667 0.91274 0.0
C2063 C 0.50341 0.88347 0.92053 0.0
C2064 C 0.48901 0.89229 0.92817 0.0
H2065 H 0.62722 0.74222 0.93587 0.0
H2066 H 0.60392 0.79536 0.93557 0.0
C2067 C 0.46626 0.91431 0.92804 0.0
C2068 C 0.5289 0.86159 0.92073 0.0
H2069 H 0.52511 0.76911 0.92705 0.0
C2070 C 0.5714 0.88361 0.91773 0.0
C2071 C 0.51187 0.81973 0.92407 0.0
C2072 C 0.46582 0.79381 0.927 0.0
C2073 C 0.59764 0.86501 0.91814 0.0
C2074 C 0.58069 0.82337 0.92158 0.0
C2075 C 0.53816 0.80135 0.92453 0.0
C2076 C 0.60524 0.80052 0.92181 0.0
C2077 C 0.64336 0.89014 0.91503 0.0
C2078 C 0.61566 0.7875 0.91417 0.0
C2079 C 0.62904 0.75713 0.91431 0.0
C2080 C 0.63173 0.73906 0.92209 0.0
C2081 C 0.62522 0.75529 0.92976 0.0
C2082 C 0.61182 0.78561 0.92962 0.0
H2083 H 0.65459 0.92499 0.91456 0.0
H2084 H 0.66526 0.88552 0.91934 0.0
H2085 H 0.64548 0.8785 0.90859 0.0
H2086 H 0.6103 0.79827 0.90808 0.0
H2087 H 0.63394 0.74542 0.90828 0.0
H2088 H 0.28385 0.90489 0.90679 0.0
H2089 H 0.23218 0.82813 0.90647 0.0
H2090 H 0.23031 0.82498 0.93399 0.0
H2091 H 0.28215 0.90168 0.9344 0.0
H2092 H 0.26156 0.77472 0.92561 0.0
H2093 H 0.10439 0.74259 0.91254 0.0
H2094 H 0.15134 0.7819 0.90693 0.0
H2095 H 0.14159 0.79273 0.91763 0.0
C2096 C 0.27126 0.88827 0.91278 0.0
C2097 C 0.28773 0.90921 0.92062 0.0
C2098 C 0.24159 0.84437 0.91258 0.0
C2099 C 0.22771 0.821 0.9202 0.0
C2100 C 0.24077 0.84262 0.92804 0.0
H2101 H 0.11352 0.55399 0.93354 0.0
H2102 H 0.1516 0.63217 0.93325 0.0
C2103 C 0.27036 0.88649 0.92825 0.0
C2104 C 0.20633 0.77373 0.92001 0.0
H2105 H 0.1155 0.68305 0.91376 0.0
C2106 C 0.22948 0.7546 0.92308 0.0
C2107 C 0.16494 0.74789 0.91655 0.0
C2108 C 0.13884 0.76713 0.91327 0.0
C2109 C 0.21235 0.71011 0.92276 0.0
C2110 C 0.1706 0.68407 0.91944 0.0
C2111 C 0.14755 0.70322 0.91629 0.0
C2112 C 0.14968 0.63678 0.9195 0.0
C2113 C 0.23944 0.69149 0.92582 0.0
C2114 C 0.13592 0.61351 0.91185 0.0
C2115 C 0.11395 0.56868 0.91199 0.0
C2116 C 0.10519 0.5465 0.91979 0.0
C2117 C 0.12001 0.57005 0.92741 0.0
C2118 C 0.14186 0.61476 0.92727 0.0
H2119 H 0.27419 0.71584 0.92577 0.0
H2120 H 0.23034 0.67999 0.93248 0.0
H2121 H 0.23433 0.66389 0.9218 0.0
H2122 H 0.14165 0.63004 0.90579 0.0
H2123 H 0.10272 0.55147 0.90601 0.0
H2124 H 0.2341 0.81193 0.43667 0.0
H2125 H 0.19401 0.73335 0.43653 0.0
H2126 H 0.19948 0.73431 0.40902 0.0
H2127 H 0.23997 0.81252 0.40908 0.0
H2128 H 0.11387 0.68123 0.42859 0.0
H2129 H 0.23935 0.64995 0.41565 0.0
H2130 H 0.2516 0.70133 0.41998 0.0
H2131 H 0.23072 0.68657 0.40932 0.0
C2132 C 0.22747 0.7954 0.4306 0.0
C2133 C 0.24039 0.81846 0.42289 0.0
C2134 C 0.20434 0.75056 0.43053 0.0
C2135 C 0.19407 0.72815 0.42277 0.0
C2136 C 0.20769 0.75104 0.41508 0.0
H2137 H 0.0644 0.46182 0.40817 0.0
H2138 H 0.08848 0.53841 0.40823 0.0
C2139 C 0.2308 0.79576 0.41514 0.0
C2140 C 0.16773 0.68084 0.42265 0.0
H2141 H 0.16838 0.59075 0.41616 0.0
C2142 C 0.12575 0.66133 0.42591 0.0
C2143 C 0.18341 0.65515 0.41913 0.0
C2144 C 0.22886 0.67421 0.41589 0.0
C2145 C 0.09872 0.61662 0.42562 0.0
C2146 C 0.11434 0.59105 0.42203 0.0
C2147 C 0.15633 0.6106 0.41879 0.0
C2148 C 0.0891 0.54368 0.42199 0.0
C2149 C 0.0536 0.59713 0.42903 0.0
C2150 C 0.07942 0.52098 0.4297 0.0
C2151 C 0.06556 0.47715 0.4297 0.0
C2152 C 0.06168 0.45554 0.42198 0.0
C2153 C 0.06732 0.47754 0.41423 0.0
C2154 C 0.08118 0.52135 0.41425 0.0
H2155 H 0.04296 0.62124 0.42949 0.0
H2156 H 0.03069 0.57021 0.42492 0.0
H2157 H 0.05239 0.58424 0.43552 0.0
H2158 H 0.0858 0.53773 0.43575 0.0
H2159 H 0.06135 0.46113 0.43578 0.0
H2160 H 0.57163 0.61881 0.40893 0.0
H2161 H 0.49492 0.56637 0.40894 0.0
H2162 H 0.49392 0.56834 0.43645 0.0
H2163 H 0.57068 0.62046 0.43654 0.0
H2164 H 0.43524 0.48465 0.42817 0.0
H2165 H 0.42206 0.62329 0.41617 0.0
H2166 H 0.45591 0.60969 0.41006 0.0
H2167 H 0.47086 0.62947 0.42077 0.0
C2168 C 0.55548 0.60705 0.41499 0.0
C2169 C 0.57703 0.62454 0.42273 0.0
C2170 C 0.51162 0.5772 0.41498 0.0
C2171 C 0.48881 0.56448 0.42268 0.0
C2172 C 0.51106 0.57815 0.43044 0.0
H2173 H 0.21959 0.43561 0.43717 0.0
H2174 H 0.29814 0.47288 0.43714 0.0
C2175 C 0.55496 0.60794 0.43047 0.0
C2176 C 0.44146 0.54226 0.42266 0.0
H2177 H 0.35763 0.55774 0.41783 0.0
C2178 C 0.41814 0.50045 0.4259 0.0
C2179 C 0.41952 0.56336 0.41976 0.0
C2180 C 0.44323 0.60905 0.41655 0.0
C2181 C 0.37308 0.47875 0.42618 0.0
C2182 C 0.35119 0.49992 0.42328 0.0
C2183 C 0.37461 0.54172 0.42004 0.0
C2184 C 0.30388 0.47906 0.42339 0.0
C2185 C 0.34924 0.43315 0.4294 0.0
C2186 C 0.28137 0.47201 0.41571 0.0
C2187 C 0.23663 0.45121 0.4157 0.0
C2188 C 0.21361 0.43725 0.4234 0.0
C2189 C 0.23637 0.44593 0.43114 0.0
C2190 C 0.28119 0.46676 0.43113 0.0
H2191 H 0.36994 0.41833 0.42947 0.0
H2192 H 0.33819 0.43289 0.43603 0.0
H2193 H 0.32054 0.4131 0.4254 0.0
H2194 H 0.29841 0.48172 0.40968 0.0
H2195 H 0.2201 0.44504 0.40963 0.0
H2196 H 0.59035 0.79642 0.41002 0.0
H2197 H 0.5546 0.83898 0.41019 0.0
H2198 H 0.56145 0.84448 0.43768 0.0
H2199 H 0.59695 0.80151 0.43761 0.0
H2200 H 0.48161 0.82584 0.43097 0.0
H2201 H 0.61508 0.96851 0.41529 0.0
H2202 H 0.59707 0.91923 0.40954 0.0
H2203 H 0.62162 0.92601 0.41985 0.0
C2204 C 0.5839 0.80628 0.41612 0.0
C2205 C 0.59666 0.79573 0.42381 0.0
C2206 C 0.56389 0.83099 0.41619 0.0
C2207 C 0.55649 0.84576 0.42393 0.0
C2208 C 0.56745 0.83379 0.43163 0.0
H2209 H 0.41936 0.98136 0.43559 0.0
H2210 H 0.47287 0.95854 0.43639 0.0
C2211 C 0.58749 0.80905 0.43158 0.0
C2212 C 0.53647 0.873 0.42398 0.0
H2213 H 0.54864 0.96792 0.41666 0.0
C2214 C 0.49642 0.85711 0.42793 0.0
C2215 C 0.55607 0.91377 0.42 0.0
C2216 C 0.60002 0.93316 0.41599 0.0
C2217 C 0.4746 0.88025 0.42776 0.0
C2218 C 0.49384 0.92072 0.42367 0.0
C2219 C 0.53421 0.93699 0.41982 0.0
C2220 C 0.47076 0.94489 0.42289 0.0
C2221 C 0.43042 0.86049 0.4317 0.0
C2222 C 0.4545 0.94778 0.41494 0.0
C2223 C 0.42414 0.96111 0.41444 0.0
C2224 C 0.40954 0.97146 0.42191 0.0
C2225 C 0.42953 0.97306 0.42973 0.0
C2226 C 0.45999 0.95988 0.43021 0.0
H2227 H 0.41695 0.82584 0.43311 0.0
H2228 H 0.4323 0.87718 0.43778 0.0
H2229 H 0.40791 0.86415 0.42739 0.0
H2230 H 0.46279 0.93662 0.40921 0.0
H2231 H 0.40958 0.95979 0.40831 0.0
H2232 H 0.78619 0.72497 0.24047 0.0
H2233 H 0.86222 0.74723 0.23934 0.0
H2234 H 0.87522 0.76261 0.26668 0.0
H2235 H 0.79924 0.73984 0.2679 0.0
H2236 H 0.92028 0.82922 0.24436 0.0
H2237 H 0.95256 0.71319 0.26131 0.0
H2238 H 0.89949 0.69978 0.25776 0.0
H2239 H 0.92101 0.72929 0.26751 0.0
C2240 C 0.80484 0.73159 0.24628 0.0
C2241 C 0.78684 0.73126 0.25427 0.0
C2242 C 0.84831 0.74438 0.24561 0.0
C2243 C 0.87433 0.75665 0.25291 0.0
C2244 C 0.85561 0.75266 0.26097 0.0
H2245 H 0.13999 0.91039 0.26599 0.0
H2246 H 0.06166 0.86929 0.26539 0.0
C2247 C 0.8121 0.73978 0.26165 0.0
C2248 C 0.92159 0.78019 0.25204 0.0
H2249 H 0.01297 0.78386 0.25918 0.0
C2250 C 0.9406 0.81897 0.24747 0.0
C2251 C 0.94788 0.76691 0.25619 0.0
C2252 C 0.9292 0.7248 0.2609 0.0
C2253 C 0.98526 0.84568 0.2472 0.0
C2254 C 0.01151 0.83287 0.25151 0.0
C2255 C 0.99261 0.79362 0.25592 0.0
C2256 C 0.05871 0.86018 0.2517 0.0
C2257 C 0.00392 0.88811 0.24259 0.0
C2258 C 0.08281 0.86923 0.24417 0.0
C2259 C 0.12759 0.89298 0.24448 0.0
C2260 C 0.14894 0.90773 0.25234 0.0
C2261 C 0.12455 0.89961 0.25983 0.0
C2262 C 0.07982 0.87593 0.25951 0.0
H2263 H 0.97927 0.89738 0.24128 0.0
H2264 H 0.03024 0.91401 0.24637 0.0
H2265 H 0.01748 0.88565 0.2364 0.0
H2266 H 0.06704 0.85687 0.2381 0.0
H2267 H 0.14544 0.89838 0.2386 0.0
H2268 H 0.30728 0.08072 0.23944 0.0
H2269 H 0.28615 0.13535 0.23833 0.0
H2270 H 0.27569 0.13668 0.26574 0.0
H2271 H 0.29732 0.08263 0.26694 0.0
H2272 H 0.2052 0.11264 0.24388 0.0
H2273 H 0.32452 0.26266 0.25984 0.0
H2274 H 0.33713 0.22244 0.25628 0.0
H2275 H 0.30949 0.21586 0.26623 0.0
C2276 C 0.30208 0.09379 0.24526 0.0
C2277 C 0.30329 0.07682 0.25328 0.0
C2278 C 0.28992 0.12497 0.2446 0.0
C2279 C 0.27923 0.13995 0.25194 0.0
C2280 C 0.28438 0.12604 0.26 0.0
H2281 H 0.12753 0.25274 0.26608 0.0
H2282 H 0.1694 0.21633 0.26518 0.0
C2283 C 0.2966 0.09492 0.26067 0.0
C2284 C 0.25571 0.16376 0.25117 0.0
H2285 H 0.25329 0.25213 0.25828 0.0
C2286 C 0.21605 0.14353 0.2469 0.0
C2287 C 0.26975 0.20375 0.25519 0.0
C2288 C 0.31276 0.22765 0.25958 0.0
C2289 C 0.18922 0.1614 0.24683 0.0
C2290 C 0.20279 0.20087 0.25102 0.0
C2291 C 0.24293 0.2217 0.25511 0.0
C2292 C 0.17536 0.22063 0.25143 0.0
C2293 C 0.14586 0.13706 0.24256 0.0
C2294 C 0.16433 0.23444 0.24397 0.0
C2295 C 0.14011 0.25495 0.24444 0.0
C2296 C 0.12684 0.2623 0.25241 0.0
C2297 C 0.13708 0.24743 0.25985 0.0
C2298 C 0.16123 0.22688 0.25936 0.0
H2299 H 0.13636 0.103 0.24137 0.0
H2300 H 0.12071 0.13796 0.24653 0.0
H2301 H 0.14703 0.15223 0.23633 0.0
H2302 H 0.17544 0.23039 0.2378 0.0
H2303 H 0.1331 0.26636 0.2386 0.0
H2304 H 0.77371 0.88854 0.26767 0.0
H2305 H 0.81078 0.96684 0.26753 0.0
H2306 H 0.79984 0.9657 0.2401 0.0
H2307 H 0.76219 0.88718 0.24016 0.0
H2308 H 0.88651 0.02469 0.25918 0.0
H2309 H 0.74811 0.03975 0.24786 0.0
H2310 H 0.74213 0.99006 0.25192 0.0
H2311 H 0.76151 0.00726 0.24126 0.0
C2312 C 0.77942 0.90488 0.26159 0.0
C2313 C 0.76488 0.88163 0.25392 0.0
C2314 C 0.80045 0.94961 0.26153 0.0
C2315 C 0.80715 0.97189 0.25382 0.0
C2316 C 0.79402 0.94895 0.24613 0.0
H2317 H 0.95288 0.23889 0.24068 0.0
H2318 H 0.89982 0.16239 0.24067 0.0
C2319 C 0.77296 0.90414 0.24617 0.0
C2320 C 0.82879 0.01925 0.25387 0.0
H2321 H 0.8152 0.10434 0.24902 0.0
C2322 C 0.87087 0.04211 0.257 0.0
C2323 C 0.80816 0.04173 0.25101 0.0
C2324 C 0.76235 0.01854 0.24788 0.0
C2325 C 0.89326 0.08702 0.25724 0.0
C2326 C 0.87265 0.10954 0.2544 0.0
C2327 C 0.83061 0.08679 0.25124 0.0
C2328 C 0.89553 0.15688 0.25442 0.0
C2329 C 0.93915 0.11009 0.26035 0.0
C2330 C 0.90837 0.17939 0.26216 0.0
C2331 C 0.93872 0.22308 0.26221 0.0
C2332 C 0.95662 0.24476 0.2545 0.0
C2333 C 0.94 0.22306 0.24673 0.0
C2334 C 0.90969 0.17932 0.2467 0.0
H2335 H 0.95286 0.08845 0.26069 0.0
H2336 H 0.95969 0.1375 0.2561 0.0
H2337 H 0.94038 0.12299 0.26684 0.0
H2338 H 0.89719 0.16254 0.26818 0.0
H2339 H 0.95049 0.23894 0.2683 0.0
H2340 H 0.73463 0.80012 0.7433 0.0
H2341 H 0.7577 0.87631 0.74432 0.0
H2342 H 0.74471 0.86565 0.7717 0.0
H2343 H 0.72214 0.78943 0.77079 0.0
H2344 H 0.72897 0.93043 0.75215 0.0
H2345 H 0.87534 0.94357 0.76724 0.0
H2346 H 0.83575 0.89542 0.76194 0.0
H2347 H 0.82536 0.90817 0.77244 0.0
C2348 C 0.73534 0.81357 0.74953 0.0
C2349 C 0.72756 0.78897 0.75699 0.0
C2350 C 0.74858 0.85717 0.75009 0.0
C2351 C 0.75399 0.87665 0.75809 0.0
C2352 C 0.74153 0.85121 0.76548 0.0
H2353 H 0.89935 0.14832 0.77118 0.0
H2354 H 0.85661 0.07 0.77181 0.0
C2355 C 0.72843 0.80763 0.76493 0.0
C2356 C 0.77795 0.92392 0.75874 0.0
H2357 H 0.87441 0.00771 0.76508 0.0
C2358 C 0.76062 0.94741 0.75503 0.0
C2359 C 0.81939 0.94582 0.76244 0.0
C2360 C 0.84037 0.92211 0.76619 0.0
C2361 C 0.78375 0.99244 0.75494 0.0
C2362 C 0.82547 0.01423 0.7585 0.0
C2363 C 0.84242 0.99076 0.76235 0.0
C2364 C 0.85261 0.0614 0.7581 0.0
C2365 C 0.76336 0.01633 0.75105 0.0
C2366 C 0.86574 0.08221 0.75019 0.0
C2367 C 0.89036 0.12686 0.7498 0.0
C2368 C 0.90238 0.15145 0.75733 0.0
C2369 C 0.89063 0.13033 0.76527 0.0
C2370 C 0.86605 0.08563 0.76564 0.0
H2371 H 0.72788 0.9959 0.75065 0.0
H2372 H 0.77127 0.04555 0.75481 0.0
H2373 H 0.77587 0.02645 0.74448 0.0
H2374 H 0.85654 0.0639 0.74432 0.0
H2375 H 0.89894 0.14211 0.74359 0.0
H2376 H 0.24316 0.94955 0.76942 0.0
H2377 H 0.16707 0.89583 0.77034 0.0
H2378 H 0.1551 0.9019 0.74305 0.0
H2379 H 0.23116 0.95516 0.74204 0.0
H2380 H 0.10962 0.92144 0.76545 0.0
H2381 H 0.07688 0.77442 0.74789 0.0
H2382 H 0.12985 0.81322 0.75164 0.0
H2383 H 0.10908 0.82281 0.74195 0.0
C2384 C 0.22474 0.93833 0.76357 0.0
C2385 C 0.24306 0.95711 0.75566 0.0
C2386 C 0.18123 0.90767 0.76412 0.0
C2387 C 0.15546 0.89502 0.75677 0.0
C2388 C 0.17451 0.91075 0.74878 0.0
H2389 H 0.88841 0.78284 0.74414 0.0
H2390 H 0.9668 0.81983 0.74448 0.0
C2391 C 0.21806 0.94137 0.74822 0.0
C2392 C 0.10816 0.87154 0.75759 0.0
H2393 H 0.01661 0.78443 0.75036 0.0
C2394 C 0.08924 0.89112 0.76226 0.0
C2395 C 0.08178 0.83234 0.75334 0.0
C2396 C 0.10041 0.80923 0.74848 0.0
C2397 C 0.04457 0.87325 0.76257 0.0
C2398 C 0.01819 0.83441 0.75821 0.0
C2399 C 0.03704 0.81436 0.75367 0.0
C2400 C 0.97093 0.81437 0.75816 0.0
C2401 C 0.02609 0.89691 0.7673 0.0
C2402 C 0.94743 0.79968 0.76576 0.0
C2403 C 0.90263 0.77885 0.76561 0.0
C2404 C 0.88061 0.77201 0.75783 0.0
C2405 C 0.90437 0.78773 0.75025 0.0
C2406 C 0.94914 0.80863 0.75042 0.0
H2407 H 0.05068 0.93092 0.76852 0.0
H2408 H -0.0008 0.89613 0.76366 0.0
H2409 H 0.01342 0.88115 0.77355 0.0
H2410 H 0.96368 0.80329 0.77179 0.0
H2411 H 0.88528 0.76678 0.77155 0.0
H2412 H 0.26111 0.13251 0.77059 0.0
H2413 H 0.22203 0.17209 0.77079 0.0
H2414 H 0.21544 0.1674 0.74329 0.0
H2415 H 0.25368 0.1274 0.74302 0.0
H2416 H 0.24803 0.25209 0.76308 0.0
H2417 H 0.09153 0.12579 0.7503 0.0
H2418 H 0.13153 0.11411 0.75439 0.0
H2419 H 0.1364 0.13514 0.74377 0.0
C2420 C 0.25065 0.13923 0.7646 0.0
C2421 C 0.26028 0.12661 0.75679 0.0
C2422 C 0.2286 0.16206 0.76472 0.0
C2423 C 0.21563 0.17233 0.75706 0.0
C2424 C 0.22455 0.15914 0.74928 0.0
H2425 H 0.07968 0.30171 0.74225 0.0
H2426 H 0.13239 0.27786 0.74265 0.0
C2427 C 0.24648 0.13632 0.74914 0.0
C2428 C 0.19404 0.19812 0.75712 0.0
H2429 H 0.10274 0.19669 0.75073 0.0
C2430 C 0.21616 0.23999 0.76043 0.0
C2431 C 0.15251 0.18212 0.75366 0.0
C2432 C 0.1264 0.13669 0.7504 0.0
C2433 C 0.19805 0.26669 0.7602 0.0
C2434 C 0.15686 0.25086 0.7566 0.0
C2435 C 0.13467 0.2089 0.75337 0.0
C2436 C 0.1347 0.27607 0.75644 0.0
C2437 C 0.22323 0.31175 0.76365 0.0
C2438 C 0.12032 0.28499 0.76407 0.0
C2439 C 0.09018 0.29868 0.76387 0.0
C2440 C 0.0737 0.30314 0.75603 0.0
C2441 C 0.09146 0.29828 0.7484 0.0
C2442 C 0.12155 0.28459 0.74861 0.0
H2443 H 0.25783 0.32225 0.76439 0.0
H2444 H 0.22002 0.33468 0.7594 0.0
H2445 H 0.21035 0.31305 0.77001 0.0
H2446 H 0.12976 0.27816 0.77017 0.0
H2447 H 0.07727 0.30228 0.76986 0.0
H2448 H 0.45487 0.05475 0.57356 0.0
H2449 H 0.53076 0.07604 0.57283 0.0
H2450 H 0.53999 0.08837 0.60024 0.0
H2451 H 0.46413 0.06666 0.60106 0.0
H2452 H 0.58771 0.15802 0.57847 0.0
H2453 H 0.6187 0.03985 0.59495 0.0
H2454 H 0.56617 0.02657 0.59106 0.0
H2455 H 0.5857 0.05466 0.60101 0.0
C2456 C 0.47259 0.06037 0.57947 0.0
C2457 C 0.45364 0.05973 0.58736 0.0
C2458 C 0.51601 0.07262 0.57903 0.0
C2459 C 0.54101 0.08395 0.58647 0.0
C2460 C 0.52119 0.07923 0.59442 0.0
H2461 H 0.80717 0.23587 0.60027 0.0
H2462 H 0.7288 0.19393 0.59969 0.0
C2463 C 0.47774 0.06693 0.59488 0.0
C2464 C 0.58838 0.1078 0.58585 0.0
H2465 H 0.6792 0.1105 0.59307 0.0
C2466 C 0.60777 0.14733 0.58154 0.0
C2467 C 0.61433 0.09401 0.58996 0.0
C2468 C 0.5952 0.05126 0.59444 0.0
C2469 C 0.65244 0.17415 0.58147 0.0
C2470 C 0.6784 0.16066 0.58569 0.0
C2471 C 0.65911 0.12078 0.58987 0.0
C2472 C 0.72568 0.18777 0.58593 0.0
C2473 C 0.67132 0.21735 0.57716 0.0
C2474 C 0.74974 0.1986 0.57837 0.0
C2475 C 0.79449 0.2229 0.57867 0.0
C2476 C 0.81594 0.23641 0.58654 0.0
C2477 C 0.79164 0.22616 0.59409 0.0
C2478 C 0.74689 0.20197 0.59379 0.0
H2479 H 0.64686 0.22717 0.57612 0.0
H2480 H 0.69802 0.24251 0.58099 0.0
H2481 H 0.68432 0.21568 0.57084 0.0
H2482 H 0.73397 0.18738 0.57226 0.0
H2483 H 0.81225 0.22985 0.57274 0.0
H2484 H 0.9674 0.41382 0.57453 0.0
H2485 H 0.94329 0.46628 0.57458 0.0
H2486 H 0.94022 0.46391 0.60209 0.0
H2487 H 0.96398 0.41111 0.60214 0.0
H2488 H 0.86055 0.43757 0.5941 0.0
H2489 H 0.9878 0.59284 0.58095 0.0
H2490 H 0.97778 0.54628 0.57489 0.0
H2491 H -0.00076 0.55347 0.58551 0.0
C2492 C 0.96314 0.42558 0.58061 0.0
C2493 C 0.9669 0.40774 0.58833 0.0
C2494 C 0.94947 0.45573 0.58062 0.0
C2495 C 0.93985 0.46879 0.58834 0.0
C2496 C 0.94748 0.45412 0.59607 0.0
H2497 H 0.79168 0.58983 0.60138 0.0
H2498 H 0.83148 0.55133 0.60141 0.0
C2499 C 0.96116 0.424 0.59608 0.0
C2500 C 0.91516 0.49153 0.5883 0.0
H2501 H 0.9174 0.58324 0.58189 0.0
C2502 C 0.8731 0.46962 0.59151 0.0
C2503 C 0.93145 0.53292 0.58478 0.0
C2504 C 0.97667 0.558 0.58139 0.0
C2505 C 0.84661 0.48781 0.59121 0.0
C2506 C 0.86297 0.52938 0.58776 0.0
C2507 C 0.90501 0.55132 0.58452 0.0
C2508 C 0.83724 0.55105 0.58766 0.0
C2509 C 0.80103 0.46195 0.59441 0.0
C2510 C 0.82748 0.56379 0.57991 0.0
C2511 C 0.80477 0.58595 0.57987 0.0
C2512 C 0.79174 0.59595 0.58758 0.0
C2513 C 0.80093 0.58236 0.59532 0.0
C2514 C 0.82364 0.56029 0.59536 0.0
H2515 H 0.79 0.42708 0.5946 0.0
H2516 H 0.79926 0.47231 0.601 0.0
H2517 H 0.77866 0.46699 0.59033 0.0
H2518 H 0.83782 0.55695 0.57391 0.0
H2519 H 0.79844 0.59621 0.5738 0.0
H2520 H 0.43906 0.22144 0.57254 0.0
H2521 H 0.47787 0.30004 0.57255 0.0
H2522 H 0.48967 0.30024 0.59995 0.0
H2523 H 0.45173 0.22208 0.60001 0.0
H2524 H 0.45147 0.35186 0.58099 0.0
H2525 H 0.61151 0.38542 0.59229 0.0
H2526 H 0.57179 0.33364 0.58822 0.0
H2527 H 0.56831 0.34865 0.59902 0.0
C2528 C 0.45074 0.23824 0.57854 0.0
C2529 C 0.44245 0.21553 0.58627 0.0
C2530 C 0.47262 0.28309 0.57854 0.0
C2531 C 0.4868 0.30583 0.58624 0.0
C2532 C 0.47959 0.28327 0.59392 0.0
H2533 H 0.61842 0.56948 0.60204 0.0
H2534 H 0.56702 0.49268 0.60149 0.0
C2535 C 0.45781 0.23856 0.59394 0.0
C2536 C 0.5073 0.35308 0.58635 0.0
H2537 H 0.59802 0.44375 0.59261 0.0
C2538 C 0.48363 0.37208 0.58347 0.0
C2539 C 0.54917 0.37919 0.5896 0.0
C2540 C 0.57687 0.36077 0.59238 0.0
C2541 C 0.50053 0.41664 0.58394 0.0
C2542 C 0.54207 0.44255 0.58734 0.0
C2543 C 0.56583 0.42357 0.59013 0.0
C2544 C 0.56302 0.48977 0.58771 0.0
C2545 C 0.47375 0.43567 0.58096 0.0
C2546 C 0.57591 0.51378 0.58014 0.0
C2547 C 0.60531 0.55773 0.58043 0.0
C2548 C 0.6225 0.5781 0.58828 0.0
C2549 C 0.60603 0.55474 0.59588 0.0
C2550 C 0.57672 0.5108 0.59559 0.0
H2551 H 0.43931 0.41091 0.58032 0.0
H2552 H 0.47667 0.46089 0.58545 0.0
H2553 H 0.48548 0.45084 0.57462 0.0
H2554 H 0.566 0.49801 0.574 0.0
H2555 H 0.61719 0.57485 0.57446 0.0
loop_
_geom_bond_atom_site_label_1
_geom_bond_atom_site_label_2
_geom_bond_distance
_geom_bond_site_symmetry_2
_ccdc_geom_bond_type
C0 O16 1.251 . S
C0 O18 1.254 . S
N1 C2 1.333 1_545 S
N1 C6 1.307 . S
N1 Zn7 2.020 . S
C2 N1 1.333 1_565 S
C2 C3 1.379 . S
C2 H20 0.952 . S
C3 C2 1.379 . S
C3 C4 1.390 1_565 S
C3 H30 0.949 . S
C4 C3 1.390 1_545 S
C4 C5 1.357 . S
C5 C4 1.357 . S
C5 C6 1.370 . S
C5 H31 0.950 . S
C6 N1 1.307 . S
C6 C5 1.370 . S
C6 H24 0.948 . S
Zn7 N1 2.020 . S
Zn7 O16 2.039 1_545 S
Zn7 O22 2.034 . S
Zn7 O26 2.025 . S
Zn7 O28 2.024 1_545 S
C8 O27 1.246 . S
C8 O28 1.249 . S
N9 C10 1.307 . S
N9 C11 1.333 . S
N9 Zn15 2.020 . S
C10 N9 1.307 . S
C10 C14 1.370 . S
C10 H21 0.953 1_545 S
C11 N9 1.333 . S
C11 C12 1.379 . S
C11 H19 0.952 . S
C12 C11 1.379 . S
C12 C13 1.390 . S
C12 H32 0.949 . S
C13 C12 1.390 . S
C13 C14 1.357 . S
C14 C10 1.370 . S
C14 C13 1.357 . S
C14 H33 0.950 . S
Zn15 N9 2.020 . S
Zn15 O18 2.025 1_545 S
Zn15 O23 2.024 . S
Zn15 O25 2.039 . S
Zn15 O27 2.034 1_545 S
O16 C0 1.251 . S
O16 Zn7 2.039 1_565 S
C17 O22 1.246 . S
C17 O23 1.249 . S
O18 C0 1.254 . S
O18 Zn15 2.025 1_565 S
H19 C11 0.952 . S
H20 C2 0.952 . S
H21 C10 0.953 1_565 S
O22 Zn7 2.034 . S
O22 C17 1.246 . S
O23 Zn15 2.024 . S
O23 C17 1.249 . S
H24 C6 0.948 . S
O25 Zn15 2.039 . S
O25 C29 1.251 . S
O26 Zn7 2.025 . S
O26 C29 1.254 . S
O27 C8 1.246 . S
O27 Zn15 2.034 1_565 S
O28 Zn7 2.024 1_565 S
O28 C8 1.249 . S
C29 O25 1.251 . S
C29 O26 1.254 . S
H30 C3 0.949 . S
H31 C5 0.950 . S
H32 C12 0.949 . S
H33 C14 0.950 . S
C34 O50 1.251 . S
C34 O52 1.254 . S
N35 C36 1.333 . S
N35 C40 1.307 . S
N35 Zn41 2.020 . S
C36 N35 1.333 . S
C36 C37 1.379 . S
C36 H54 0.952 . S
C37 C36 1.379 . S
C37 C38 1.390 . S
C37 H64 0.949 . S
C38 C37 1.390 . S
C38 C39 1.357 . S
C39 C38 1.357 . S
C39 C40 1.370 . S
C39 H65 0.950 . S
C40 N35 1.307 . S
C40 C39 1.370 . S
C40 H58 0.948 . S
Zn41 N35 2.020 . S
Zn41 O50 2.039 . S
Zn41 O56 2.034 1_455 S
Zn41 O60 2.025 1_455 S
Zn41 O62 2.024 . S
C42 O61 1.246 . S
C42 O62 1.249 . S
N43 C44 1.307 . S
N43 C45 1.333 . S
N43 Zn49 2.020 . S
C44 N43 1.307 . S
C44 C48 1.370 . S
C44 H55 0.948 . S
C45 N43 1.333 . S
C45 C46 1.379 . S
C45 H53 0.952 1_455 S
C46 C45 1.379 . S
C46 C47 1.390 . S
C46 H66 0.949 1_455 S
C47 C46 1.390 . S
C47 C48 1.357 . S
C48 C44 1.370 . S
C48 C47 1.357 . S
C48 H67 0.950 . S
Zn49 N43 2.020 . S
Zn49 O52 2.025 . S
Zn49 O57 2.024 1_455 S
Zn49 O59 2.039 1_455 S
Zn49 O61 2.034 . S
O50 C34 1.251 . S
O50 Zn41 2.039 . S
C51 O56 1.246 . S
C51 O57 1.249 . S
O52 C34 1.254 . S
O52 Zn49 2.025 . S
H53 C45 0.952 1_655 S
H54 C36 0.952 . S
H55 C44 0.948 . S
O56 Zn41 2.034 1_655 S
O56 C51 1.246 . S
O57 Zn49 2.024 1_655 S
O57 C51 1.249 . S
H58 C40 0.948 . S
O59 Zn49 2.039 1_655 S
O59 C63 1.251 . S
O60 Zn41 2.025 1_655 S
O60 C63 1.254 . S
O61 C42 1.246 . S
O61 Zn49 2.034 . S
O62 Zn41 2.024 . S
O62 C42 1.249 . S
C63 O59 1.251 . S
C63 O60 1.254 . S
H64 C37 0.949 . S
H65 C39 0.950 . S
H66 C46 0.949 1_655 S
H67 C48 0.950 . S
C68 O84 1.251 . S
C68 O86 1.254 . S
N69 C70 1.333 . S
N69 C74 1.307 . S
N69 Zn75 2.020 . S
C70 N69 1.333 . S
C70 C71 1.379 . S
C70 H88 0.952 . S
C71 C70 1.379 . S
C71 C72 1.390 . S
C71 H98 0.949 . S
C72 C71 1.390 . S
C72 C73 1.357 . S
C73 C72 1.357 . S
C73 C74 1.370 . S
C73 H99 0.950 . S
C74 N69 1.307 . S
C74 C73 1.370 . S
C74 H92 0.948 . S
Zn75 N69 2.020 . S
Zn75 O84 2.039 . S
Zn75 O90 2.034 . S
Zn75 O94 2.025 . S
Zn75 O96 2.024 . S
C76 O95 1.246 . S
C76 O96 1.249 . S
N77 C78 1.307 . S
N77 C79 1.333 . S
N77 Zn83 2.020 . S
C78 N77 1.307 . S
C78 C82 1.370 . S
C78 H89 0.948 . S
C79 N77 1.333 . S
C79 C80 1.379 . S
C79 H87 0.952 . S
C80 C79 1.379 . S
C80 C81 1.390 . S
C80 H100 0.949 . S
C81 C80 1.390 . S
C81 C82 1.357 . S
C82 C78 1.370 . S
C82 C81 1.357 . S
C82 H101 0.950 . S
Zn83 N77 2.020 . S
Zn83 O86 2.025 . S
Zn83 O91 2.024 . S
Zn83 O93 2.039 . S
Zn83 O95 2.034 . S
O84 C68 1.251 . S
O84 Zn75 2.039 . S
C85 O90 1.246 . S
C85 O91 1.249 . S
O86 C68 1.254 . S
O86 Zn83 2.025 . S
H87 C79 0.952 . S
H88 C70 0.952 . S
H89 C78 0.948 . S
O90 Zn75 2.034 . S
O90 C85 1.246 . S
O91 Zn83 2.024 . S
O91 C85 1.249 . S
H92 C74 0.948 . S
O93 Zn83 2.039 . S
O93 C97 1.251 . S
O94 Zn75 2.025 . S
O94 C97 1.254 . S
O95 C76 1.246 . S
O95 Zn83 2.034 . S
O96 Zn75 2.024 . S
O96 C76 1.249 . S
C97 O93 1.251 . S
C97 O94 1.254 . S
H98 C71 0.949 . S
H99 C73 0.950 . S
H100 C80 0.949 . S
H101 C82 0.950 . S
C102 O118 1.251 . S
C102 O120 1.254 . S
N103 C104 1.333 1_455 S
N103 C108 1.307 . S
N103 Zn109 2.020 . S
C104 N103 1.333 1_655 S
C104 C105 1.379 . S
C104 H122 0.952 . S
C105 C104 1.379 . S
C105 C106 1.390 1_655 S
C105 H132 0.949 . S
C106 C105 1.390 1_455 S
C106 C107 1.357 . S
C107 C106 1.357 . S
C107 C108 1.370 . S
C107 H133 0.950 . S
C108 N103 1.307 . S
C108 C107 1.370 . S
C108 H126 0.948 . S
Zn109 N103 2.020 . S
Zn109 O118 2.039 1_455 S
Zn109 O124 2.034 . S
Zn109 O128 2.025 . S
Zn109 O130 2.024 1_455 S
C110 O129 1.246 . S
C110 O130 1.249 . S
N111 C112 1.307 . S
N111 C113 1.333 . S
N111 Zn117 2.020 . S
C112 N111 1.307 . S
C112 C116 1.370 . S
C112 H123 0.953 1_455 S
C113 N111 1.333 . S
C113 C114 1.379 . S
C113 H121 0.952 . S
C114 C113 1.379 . S
C114 C115 1.390 . S
C114 H134 0.949 . S
C115 C114 1.390 . S
C115 C116 1.357 . S
C116 C112 1.370 . S
C116 C115 1.357 . S
C116 H135 0.950 . S
Zn117 N111 2.020 . S
Zn117 O120 2.025 1_455 S
Zn117 O125 2.024 . S
Zn117 O127 2.039 . S
Zn117 O129 2.034 1_455 S
O118 C102 1.251 . S
O118 Zn109 2.039 1_655 S
C119 O124 1.246 . S
C119 O125 1.249 . S
O120 C102 1.254 . S
O120 Zn117 2.025 1_655 S
H121 C113 0.952 . S
H122 C104 0.952 . S
H123 C112 0.953 1_655 S
O124 Zn109 2.034 . S
O124 C119 1.246 . S
O125 Zn117 2.024 . S
O125 C119 1.249 . S
H126 C108 0.948 . S
O127 Zn117 2.039 . S
O127 C131 1.251 . S
O128 Zn109 2.025 . S
O128 C131 1.254 . S
O129 C110 1.246 . S
O129 Zn117 2.034 1_655 S
O130 Zn109 2.024 1_655 S
O130 C110 1.249 . S
C131 O127 1.251 . S
C131 O128 1.254 . S
H132 C105 0.949 . S
H133 C107 0.950 . S
H134 C114 0.949 . S
H135 C116 0.950 . S
C136 O152 1.251 . S
C136 O154 1.254 . S
N137 C138 1.333 . S
N137 C142 1.307 . S
N137 Zn143 2.020 . S
C138 N137 1.333 . S
C138 C139 1.379 . S
C138 H156 0.952 . S
C139 C138 1.379 . S
C139 C140 1.390 . S
C139 H166 0.949 . S
C140 C139 1.390 . S
C140 C141 1.357 . S
C141 C140 1.357 . S
C141 C142 1.370 . S
C141 H167 0.950 . S
C142 N137 1.307 . S
C142 C141 1.370 . S
C142 H160 0.948 . S
Zn143 N137 2.020 . S
Zn143 O152 2.039 . S
Zn143 O158 2.034 . S
Zn143 O162 2.025 . S
Zn143 O164 2.024 . S
C144 O163 1.246 . S
C144 O164 1.249 . S
N145 C146 1.307 . S
N145 C147 1.333 . S
N145 Zn151 2.020 . S
C146 N145 1.307 . S
C146 C150 1.370 . S
C146 H157 0.948 . S
C147 N145 1.333 . S
C147 C148 1.379 . S
C147 H155 0.952 . S
C148 C147 1.379 . S
C148 C149 1.390 . S
C148 H168 0.949 . S
C149 C148 1.390 . S
C149 C150 1.357 . S
C150 C146 1.370 . S
C150 C149 1.357 . S
C150 H169 0.950 . S
Zn151 N145 2.020 . S
Zn151 O154 2.025 . S
Zn151 O159 2.024 . S
Zn151 O161 2.039 . S
Zn151 O163 2.034 . S
O152 C136 1.251 . S
O152 Zn143 2.039 . S
C153 O158 1.246 . S
C153 O159 1.249 . S
O154 C136 1.254 . S
O154 Zn151 2.025 . S
H155 C147 0.952 . S
H156 C138 0.952 . S
H157 C146 0.948 . S
O158 Zn143 2.034 . S
O158 C153 1.246 . S
O159 Zn151 2.024 . S
O159 C153 1.249 . S
H160 C142 0.948 . S
O161 Zn151 2.039 . S
O161 C165 1.251 . S
O162 Zn143 2.025 . S
O162 C165 1.254 . S
O163 C144 1.246 . S
O163 Zn151 2.034 . S
O164 Zn143 2.024 . S
O164 C144 1.249 . S
C165 O161 1.251 . S
C165 O162 1.254 . S
H166 C139 0.949 . S
H167 C141 0.950 . S
H168 C148 0.949 . S
H169 C150 0.950 . S
C170 O186 1.251 . S
C170 O188 1.254 . S
N171 C172 1.333 . S
N171 C176 1.307 . S
N171 Zn177 2.020 . S
C172 N171 1.333 . S
C172 C173 1.379 . S
C172 H190 0.952 . S
C173 C172 1.379 . S
C173 C174 1.390 . S
C173 H200 0.949 . S
C174 C173 1.390 . S
C174 C175 1.357 . S
C175 C174 1.357 . S
C175 C176 1.370 . S
C175 H201 0.950 . S
C176 N171 1.307 . S
C176 C175 1.370 . S
C176 H194 0.948 . S
Zn177 N171 2.020 . S
Zn177 O186 2.039 . S
Zn177 O192 2.034 1_545 S
Zn177 O196 2.025 1_545 S
Zn177 O198 2.024 . S
C178 O197 1.246 . S
C178 O198 1.249 . S
N179 C180 1.307 . S
N179 C181 1.333 . S
N179 Zn185 2.020 . S
C180 N179 1.307 . S
C180 C184 1.370 . S
C180 H191 0.948 . S
C181 N179 1.333 . S
C181 C182 1.379 . S
C181 H189 0.952 1_545 S
C182 C181 1.379 . S
C182 C183 1.390 . S
C182 H202 0.949 1_545 S
C183 C182 1.390 . S
C183 C184 1.357 . S
C184 C180 1.370 . S
C184 C183 1.357 . S
C184 H203 0.950 . S
Zn185 N179 2.020 . S
Zn185 O188 2.025 . S
Zn185 O193 2.024 1_545 S
Zn185 O195 2.039 1_545 S
Zn185 O197 2.034 . S
O186 C170 1.251 . S
O186 Zn177 2.039 . S
C187 O192 1.246 . S
C187 O193 1.249 . S
O188 C170 1.254 . S
O188 Zn185 2.025 . S
H189 C181 0.952 1_565 S
H190 C172 0.952 . S
H191 C180 0.948 . S
O192 Zn177 2.034 1_565 S
O192 C187 1.246 . S
O193 Zn185 2.024 1_565 S
O193 C187 1.249 . S
H194 C176 0.948 . S
O195 Zn185 2.039 1_565 S
O195 C199 1.251 . S
O196 Zn177 2.025 1_565 S
O196 C199 1.254 . S
O197 C178 1.246 . S
O197 Zn185 2.034 . S
O198 Zn177 2.024 . S
O198 C178 1.249 . S
C199 O195 1.251 . S
C199 O196 1.254 . S
H200 C173 0.949 . S
H201 C175 0.950 . S
H202 C182 0.949 1_565 S
H203 C184 0.950 . S
C204 O220 1.251 . S
C204 O222 1.254 . S
N205 C206 1.333 . S
N205 C210 1.307 . S
N205 Zn211 2.020 . S
C206 N205 1.333 . S
C206 C207 1.379 . S
C206 H224 0.952 . S
C207 C206 1.379 . S
C207 C208 1.390 . S
C207 H234 0.949 . S
C208 C207 1.390 . S
C208 C209 1.357 . S
C209 C208 1.357 . S
C209 C210 1.370 . S
C209 H235 0.950 . S
C210 N205 1.307 . S
C210 C209 1.370 . S
C210 H228 0.948 . S
Zn211 N205 2.020 . S
Zn211 O220 2.039 . S
Zn211 O226 2.034 . S
Zn211 O230 2.025 . S
Zn211 O232 2.024 . S
C212 O231 1.246 . S
C212 O232 1.249 . S
N213 C214 1.307 . S
N213 C215 1.333 . S
N213 Zn219 2.020 . S
C214 N213 1.307 . S
C214 C218 1.370 . S
C214 H225 0.948 . S
C215 N213 1.333 . S
C215 C216 1.379 . S
C215 H223 0.952 . S
C216 C215 1.379 . S
C216 C217 1.390 . S
C216 H236 0.949 . S
C217 C216 1.390 . S
C217 C218 1.357 . S
C218 C214 1.370 . S
C218 C217 1.357 . S
C218 H237 0.950 . S
Zn219 N213 2.020 . S
Zn219 O222 2.025 . S
Zn219 O227 2.024 . S
Zn219 O229 2.039 . S
Zn219 O231 2.034 . S
O220 C204 1.251 . S
O220 Zn211 2.039 . S
C221 O226 1.246 . S
C221 O227 1.249 . S
O222 C204 1.254 . S
O222 Zn219 2.025 . S
H223 C215 0.952 . S
H224 C206 0.952 . S
H225 C214 0.948 . S
O226 Zn211 2.034 . S
O226 C221 1.246 . S
O227 Zn219 2.024 . S
O227 C221 1.249 . S
H228 C210 0.948 . S
O229 Zn219 2.039 . S
O229 C233 1.251 . S
O230 Zn211 2.025 . S
O230 C233 1.254 . S
O231 C212 1.246 . S
O231 Zn219 2.034 . S
O232 Zn211 2.024 . S
O232 C212 1.249 . S
C233 O229 1.251 . S
C233 O230 1.254 . S
H234 C207 0.949 . S
H235 C209 0.950 . S
H236 C216 0.949 . S
H237 C218 0.950 . S
C238 O254 1.251 . S
C238 O256 1.254 . S
N239 C240 1.333 . S
N239 C244 1.307 . S
N239 Zn245 2.020 . S
C240 N239 1.333 . S
C240 C241 1.379 . S
C240 H258 0.952 . S
C241 C240 1.379 . S
C241 C242 1.390 . S
C241 H268 0.949 . S
C242 C241 1.390 . S
C242 C243 1.357 . S
C243 C242 1.357 . S
C243 C244 1.370 . S
C243 H269 0.950 . S
C244 N239 1.307 . S
C244 C243 1.370 . S
C244 H262 0.948 . S
Zn245 N239 2.020 . S
Zn245 O254 2.039 . S
Zn245 O260 2.034 . S
Zn245 O264 2.025 . S
Zn245 O266 2.024 . S
C246 O265 1.246 . S
C246 O266 1.249 . S
N247 C248 1.307 . S
N247 C249 1.333 . S
N247 Zn253 2.020 . S
C248 N247 1.307 . S
C248 C252 1.370 . S
C248 H259 0.948 . S
C249 N247 1.333 . S
C249 C250 1.379 . S
C249 H257 0.952 . S
C250 C249 1.379 . S
C250 C251 1.390 . S
C250 H270 0.949 . S
C251 C250 1.390 . S
C251 C252 1.357 . S
C252 C248 1.370 . S
C252 C251 1.357 . S
C252 H271 0.950 . S
Zn253 N247 2.020 . S
Zn253 O256 2.025 . S
Zn253 O261 2.024 . S
Zn253 O263 2.039 . S
Zn253 O265 2.034 . S
O254 C238 1.251 . S
O254 Zn245 2.039 . S
C255 O260 1.246 . S
C255 O261 1.249 . S
O256 C238 1.254 . S
O256 Zn253 2.025 . S
H257 C249 0.952 . S
H258 C240 0.952 . S
H259 C248 0.948 . S
O260 Zn245 2.034 . S
O260 C255 1.246 . S
O261 Zn253 2.024 . S
O261 C255 1.249 . S
H262 C244 0.948 . S
O263 Zn253 2.039 . S
O263 C267 1.251 . S
O264 Zn245 2.025 . S
O264 C267 1.254 . S
O265 C246 1.246 . S
O265 Zn253 2.034 . S
O266 Zn245 2.024 . S
O266 C246 1.249 . S
C267 O263 1.251 . S
C267 O264 1.254 . S
H268 C241 0.949 . S
H269 C243 0.950 . S
H270 C250 0.949 . S
H271 C252 0.950 . S
C272 O288 1.251 . S
C272 O290 1.254 . S
N273 C274 1.333 . S
N273 C278 1.307 . S
N273 Zn279 2.020 . S
C274 N273 1.333 . S
C274 C275 1.379 . S
C274 H292 0.952 . S
C275 C274 1.379 . S
C275 C276 1.390 . S
C275 H302 0.949 . S
C276 C275 1.390 . S
C276 C277 1.357 . S
C277 C276 1.357 . S
C277 C278 1.370 . S
C277 H303 0.950 . S
C278 N273 1.307 . S
C278 C277 1.370 . S
C278 H296 0.948 . S
Zn279 N273 2.020 . S
Zn279 O288 2.039 . S
Zn279 O294 2.034 . S
Zn279 O298 2.025 . S
Zn279 O300 2.024 . S
C280 O299 1.246 . S
C280 O300 1.249 . S
N281 C282 1.307 . S
N281 C283 1.333 . S
N281 Zn287 2.020 . S
C282 N281 1.307 . S
C282 C286 1.370 . S
C282 H293 0.948 . S
C283 N281 1.333 . S
C283 C284 1.379 . S
C283 H291 0.952 . S
C284 C283 1.379 . S
C284 C285 1.390 . S
C284 H304 0.949 . S
C285 C284 1.390 . S
C285 C286 1.357 . S
C286 C282 1.370 . S
C286 C285 1.357 . S
C286 H305 0.950 . S
Zn287 N281 2.020 . S
Zn287 O290 2.025 . S
Zn287 O295 2.024 . S
Zn287 O297 2.039 . S
Zn287 O299 2.034 . S
O288 C272 1.251 . S
O288 Zn279 2.039 . S
C289 O294 1.246 . S
C289 O295 1.249 . S
O290 C272 1.254 . S
O290 Zn287 2.025 . S
H291 C283 0.952 . S
H292 C274 0.952 . S
H293 C282 0.948 . S
O294 Zn279 2.034 . S
O294 C289 1.246 . S
O295 Zn287 2.024 . S
O295 C289 1.249 . S
H296 C278 0.948 . S
O297 Zn287 2.039 . S
O297 C301 1.251 . S
O298 Zn279 2.025 . S
O298 C301 1.254 . S
O299 C280 1.246 . S
O299 Zn287 2.034 . S
O300 Zn279 2.024 . S
O300 C280 1.249 . S
C301 O297 1.251 . S
C301 O298 1.254 . S
H302 C275 0.949 . S
H303 C277 0.950 . S
H304 C284 0.949 . S
H305 C286 0.950 . S
C306 O322 1.251 . S
C306 O324 1.254 . S
N307 C308 1.333 . S
N307 C312 1.307 . S
N307 Zn313 2.020 . S
C308 N307 1.333 . S
C308 C309 1.379 . S
C308 H326 0.952 . S
C309 C308 1.379 . S
C309 C310 1.390 . S
C309 H336 0.949 . S
C310 C309 1.390 . S
C310 C311 1.357 . S
C311 C310 1.357 . S
C311 C312 1.370 . S
C311 H337 0.950 . S
C312 N307 1.307 . S
C312 C311 1.370 . S
C312 H330 0.948 . S
Zn313 N307 2.020 . S
Zn313 O322 2.039 . S
Zn313 O328 2.034 . S
Zn313 O332 2.025 . S
Zn313 O334 2.024 . S
C314 O333 1.246 . S
C314 O334 1.249 . S
N315 C316 1.307 . S
N315 C317 1.333 . S
N315 Zn321 2.020 . S
C316 N315 1.307 . S
C316 C320 1.370 . S
C316 H327 0.948 . S
C317 N315 1.333 . S
C317 C318 1.379 . S
C317 H325 0.952 . S
C318 C317 1.379 . S
C318 C319 1.390 . S
C318 H338 0.949 . S
C319 C318 1.390 . S
C319 C320 1.357 . S
C320 C316 1.370 . S
C320 C319 1.357 . S
C320 H339 0.950 . S
Zn321 N315 2.020 . S
Zn321 O324 2.025 . S
Zn321 O329 2.024 . S
Zn321 O331 2.039 . S
Zn321 O333 2.034 . S
O322 C306 1.251 . S
O322 Zn313 2.039 . S
C323 O328 1.246 . S
C323 O329 1.249 . S
O324 C306 1.254 . S
O324 Zn321 2.025 . S
H325 C317 0.952 . S
H326 C308 0.952 . S
H327 C316 0.948 . S
O328 Zn313 2.034 . S
O328 C323 1.246 . S
O329 Zn321 2.024 . S
O329 C323 1.249 . S
H330 C312 0.948 . S
O331 Zn321 2.039 . S
O331 C335 1.251 . S
O332 Zn313 2.025 . S
O332 C335 1.254 . S
O333 C314 1.246 . S
O333 Zn321 2.034 . S
O334 Zn313 2.024 . S
O334 C314 1.249 . S
C335 O331 1.251 . S
C335 O332 1.254 . S
H336 C309 0.949 . S
H337 C311 0.950 . S
H338 C318 0.949 . S
H339 C320 0.950 . S
C340 O356 1.251 . S
C340 O358 1.254 . S
N341 C342 1.333 . S
N341 C346 1.307 . S
N341 Zn347 2.020 . S
C342 N341 1.333 . S
C342 C343 1.379 . S
C342 H360 0.952 . S
C343 C342 1.379 . S
C343 C344 1.390 . S
C343 H370 0.949 . S
C344 C343 1.390 . S
C344 C345 1.357 . S
C345 C344 1.357 . S
C345 C346 1.370 . S
C345 H371 0.950 . S
C346 N341 1.307 . S
C346 C345 1.370 . S
C346 H364 0.948 . S
Zn347 N341 2.020 . S
Zn347 O356 2.039 . S
Zn347 O362 2.034 . S
Zn347 O366 2.025 . S
Zn347 O368 2.024 . S
C348 O367 1.246 . S
C348 O368 1.249 . S
N349 C350 1.307 . S
N349 C351 1.333 . S
N349 Zn355 2.020 . S
C350 N349 1.307 . S
C350 C354 1.370 . S
C350 H361 0.948 . S
C351 N349 1.333 . S
C351 C352 1.379 . S
C351 H359 0.952 . S
C352 C351 1.379 . S
C352 C353 1.390 . S
C352 H372 0.949 . S
C353 C352 1.390 . S
C353 C354 1.357 . S
C354 C350 1.370 . S
C354 C353 1.357 . S
C354 H373 0.950 . S
Zn355 N349 2.020 . S
Zn355 O358 2.025 . S
Zn355 O363 2.024 . S
Zn355 O365 2.039 . S
Zn355 O367 2.034 . S
O356 C340 1.251 . S
O356 Zn347 2.039 . S
C357 O362 1.246 . S
C357 O363 1.249 . S
O358 C340 1.254 . S
O358 Zn355 2.025 . S
H359 C351 0.952 . S
H360 C342 0.952 . S
H361 C350 0.948 . S
O362 Zn347 2.034 . S
O362 C357 1.246 . S
O363 Zn355 2.024 . S
O363 C357 1.249 . S
H364 C346 0.948 . S
O365 Zn355 2.039 . S
O365 C369 1.251 . S
O366 Zn347 2.025 . S
O366 C369 1.254 . S
O367 C348 1.246 . S
O367 Zn355 2.034 . S
O368 Zn347 2.024 . S
O368 C348 1.249 . S
C369 O365 1.251 . S
C369 O366 1.254 . S
H370 C343 0.949 . S
H371 C345 0.950 . S
H372 C352 0.949 . S
H373 C354 0.950 . S
C374 O390 1.251 . S
C374 O392 1.254 . S
N375 C376 1.333 . S
N375 C380 1.307 . S
N375 Zn381 2.020 . S
C376 N375 1.333 . S
C376 C377 1.379 . S
C376 H394 0.952 . S
C377 C376 1.379 . S
C377 C378 1.390 . S
C377 H404 0.949 . S
C378 C377 1.390 . S
C378 C379 1.357 . S
C379 C378 1.357 . S
C379 C380 1.370 . S
C379 H405 0.950 . S
C380 N375 1.307 . S
C380 C379 1.370 . S
C380 H398 0.948 . S
Zn381 N375 2.020 . S
Zn381 O390 2.039 . S
Zn381 O396 2.034 . S
Zn381 O400 2.025 . S
Zn381 O402 2.024 . S
C382 O401 1.246 . S
C382 O402 1.249 . S
N383 C384 1.307 . S
N383 C385 1.333 . S
N383 Zn389 2.020 . S
C384 N383 1.307 . S
C384 C388 1.370 . S
C384 H395 0.948 . S
C385 N383 1.333 . S
C385 C386 1.379 . S
C385 H393 0.952 . S
C386 C385 1.379 . S
C386 C387 1.390 . S
C386 H406 0.949 . S
C387 C386 1.390 . S
C387 C388 1.357 . S
C388 C384 1.370 . S
C388 C387 1.357 . S
C388 H407 0.950 . S
Zn389 N383 2.020 . S
Zn389 O392 2.025 . S
Zn389 O397 2.024 . S
Zn389 O399 2.039 . S
Zn389 O401 2.034 . S
O390 C374 1.251 . S
O390 Zn381 2.039 . S
C391 O396 1.246 . S
C391 O397 1.249 . S
O392 C374 1.254 . S
O392 Zn389 2.025 . S
H393 C385 0.952 . S
H394 C376 0.952 . S
H395 C384 0.948 . S
O396 Zn381 2.034 . S
O396 C391 1.246 . S
O397 Zn389 2.024 . S
O397 C391 1.249 . S
H398 C380 0.948 . S
O399 Zn389 2.039 . S
O399 C403 1.251 . S
O400 Zn381 2.025 . S
O400 C403 1.254 . S
O401 C382 1.246 . S
O401 Zn389 2.034 . S
O402 Zn381 2.024 . S
O402 C382 1.249 . S
C403 O399 1.251 . S
C403 O400 1.254 . S
H404 C377 0.949 . S
H405 C379 0.950 . S
H406 C386 0.949 . S
H407 C388 0.950 . S
C408 O424 1.251 . S
C408 O426 1.254 . S
N409 C410 1.333 . S
N409 C414 1.307 . S
N409 Zn415 2.020 . S
C410 N409 1.333 . S
C410 C411 1.379 . S
C410 H428 0.952 . S
C411 C410 1.379 . S
C411 C412 1.390 . S
C411 H438 0.949 . S
C412 C411 1.390 . S
C412 C413 1.357 . S
C413 C412 1.357 . S
C413 C414 1.370 . S
C413 H439 0.950 . S
C414 N409 1.307 . S
C414 C413 1.370 . S
C414 H432 0.948 . S
Zn415 N409 2.020 . S
Zn415 O424 2.039 . S
Zn415 O430 2.034 . S
Zn415 O434 2.025 . S
Zn415 O436 2.024 . S
C416 O435 1.246 . S
C416 O436 1.249 . S
N417 C418 1.307 . S
N417 C419 1.333 . S
N417 Zn423 2.020 . S
C418 N417 1.307 . S
C418 C422 1.370 . S
C418 H429 0.948 . S
C419 N417 1.333 . S
C419 C420 1.379 . S
C419 H427 0.952 . S
C420 C419 1.379 . S
C420 C421 1.390 . S
C420 H440 0.949 . S
C421 C420 1.390 . S
C421 C422 1.357 . S
C422 C418 1.370 . S
C422 C421 1.357 . S
C422 H441 0.950 . S
Zn423 N417 2.020 . S
Zn423 O426 2.025 . S
Zn423 O431 2.024 . S
Zn423 O433 2.039 . S
Zn423 O435 2.034 . S
O424 C408 1.251 . S
O424 Zn415 2.039 . S
C425 O430 1.246 . S
C425 O431 1.249 . S
O426 C408 1.254 . S
O426 Zn423 2.025 . S
H427 C419 0.952 . S
H428 C410 0.952 . S
H429 C418 0.948 . S
O430 Zn415 2.034 . S
O430 C425 1.246 . S
O431 Zn423 2.024 . S
O431 C425 1.249 . S
H432 C414 0.948 . S
O433 Zn423 2.039 . S
O433 C437 1.251 . S
O434 Zn415 2.025 . S
O434 C437 1.254 . S
O435 C416 1.246 . S
O435 Zn423 2.034 . S
O436 Zn415 2.024 . S
O436 C416 1.249 . S
C437 O433 1.251 . S
C437 O434 1.254 . S
H438 C411 0.949 . S
H439 C413 0.950 . S
H440 C420 0.949 . S
H441 C422 0.950 . S
C442 O458 1.251 . S
C442 O460 1.254 . S
N443 C444 1.333 . S
N443 C448 1.307 . S
N443 Zn449 2.020 . S
C444 N443 1.333 . S
C444 C445 1.379 . S
C444 H462 0.952 . S
C445 C444 1.379 . S
C445 C446 1.390 . S
C445 H472 0.949 . S
C446 C445 1.390 . S
C446 C447 1.357 . S
C447 C446 1.357 . S
C447 C448 1.370 . S
C447 H473 0.950 . S
C448 N443 1.307 . S
C448 C447 1.370 . S
C448 H466 0.948 . S
Zn449 N443 2.020 . S
Zn449 O458 2.039 . S
Zn449 O464 2.034 . S
Zn449 O468 2.025 . S
Zn449 O470 2.024 . S
C450 O469 1.246 . S
C450 O470 1.249 . S
N451 C452 1.307 . S
N451 C453 1.333 . S
N451 Zn457 2.020 . S
C452 N451 1.307 . S
C452 C456 1.370 . S
C452 H463 0.948 . S
C453 N451 1.333 . S
C453 C454 1.379 . S
C453 H461 0.952 . S
C454 C453 1.379 . S
C454 C455 1.390 . S
C454 H474 0.949 . S
C455 C454 1.390 . S
C455 C456 1.357 . S
C456 C452 1.370 . S
C456 C455 1.357 . S
C456 H475 0.950 . S
Zn457 N451 2.020 . S
Zn457 O460 2.025 . S
Zn457 O465 2.024 . S
Zn457 O467 2.039 . S
Zn457 O469 2.034 . S
O458 C442 1.251 . S
O458 Zn449 2.039 . S
C459 O464 1.246 . S
C459 O465 1.249 . S
O460 C442 1.254 . S
O460 Zn457 2.025 . S
H461 C453 0.952 . S
H462 C444 0.952 . S
H463 C452 0.948 . S
O464 Zn449 2.034 . S
O464 C459 1.246 . S
O465 Zn457 2.024 . S
O465 C459 1.249 . S
H466 C448 0.948 . S
O467 Zn457 2.039 . S
O467 C471 1.251 . S
O468 Zn449 2.025 . S
O468 C471 1.254 . S
O469 C450 1.246 . S
O469 Zn457 2.034 . S
O470 Zn449 2.024 . S
O470 C450 1.249 . S
C471 O467 1.251 . S
C471 O468 1.254 . S
H472 C445 0.949 . S
H473 C447 0.950 . S
H474 C454 0.949 . S
H475 C456 0.950 . S
C476 O492 1.251 . S
C476 O494 1.254 . S
N477 C478 1.333 . S
N477 C482 1.307 . S
N477 Zn483 2.020 . S
C478 N477 1.333 . S
C478 C479 1.379 . S
C478 H496 0.952 . S
C479 C478 1.379 . S
C479 C480 1.390 . S
C479 H506 0.949 . S
C480 C479 1.390 . S
C480 C481 1.357 . S
C481 C480 1.357 . S
C481 C482 1.370 . S
C481 H507 0.950 . S
C482 N477 1.307 . S
C482 C481 1.370 . S
C482 H500 0.948 . S
Zn483 N477 2.020 . S
Zn483 O492 2.039 . S
Zn483 O498 2.034 . S
Zn483 O502 2.025 . S
Zn483 O504 2.024 . S
C484 O503 1.246 . S
C484 O504 1.249 . S
N485 C486 1.307 . S
N485 C487 1.333 . S
N485 Zn491 2.020 . S
C486 N485 1.307 . S
C486 C490 1.370 . S
C486 H497 0.948 . S
C487 N485 1.333 . S
C487 C488 1.379 . S
C487 H495 0.952 . S
C488 C487 1.379 . S
C488 C489 1.390 . S
C488 H508 0.949 . S
C489 C488 1.390 . S
C489 C490 1.357 . S
C490 C486 1.370 . S
C490 C489 1.357 . S
C490 H509 0.950 . S
Zn491 N485 2.020 . S
Zn491 O494 2.025 . S
Zn491 O499 2.024 . S
Zn491 O501 2.039 . S
Zn491 O503 2.034 . S
O492 C476 1.251 . S
O492 Zn483 2.039 . S
C493 O498 1.246 . S
C493 O499 1.249 . S
O494 C476 1.254 . S
O494 Zn491 2.025 . S
H495 C487 0.952 . S
H496 C478 0.952 . S
H497 C486 0.948 . S
O498 Zn483 2.034 . S
O498 C493 1.246 . S
O499 Zn491 2.024 . S
O499 C493 1.249 . S
H500 C482 0.948 . S
O501 Zn491 2.039 . S
O501 C505 1.251 . S
O502 Zn483 2.025 . S
O502 C505 1.254 . S
O503 C484 1.246 . S
O503 Zn491 2.034 . S
O504 Zn483 2.024 . S
O504 C484 1.249 . S
C505 O501 1.251 . S
C505 O502 1.254 . S
H506 C479 0.949 . S
H507 C481 0.950 . S
H508 C488 0.949 . S
H509 C490 0.950 . S
C510 O526 1.251 . S
C510 O528 1.254 . S
N511 C512 1.333 . S
N511 C516 1.307 . S
N511 Zn517 2.020 . S
C512 N511 1.333 . S
C512 C513 1.379 . S
C512 H530 0.952 . S
C513 C512 1.379 . S
C513 C514 1.390 . S
C513 H540 0.949 . S
C514 C513 1.390 . S
C514 C515 1.357 . S
C515 C514 1.357 . S
C515 C516 1.370 . S
C515 H541 0.950 . S
C516 N511 1.307 . S
C516 C515 1.370 . S
C516 H534 0.948 . S
Zn517 N511 2.020 . S
Zn517 O526 2.039 . S
Zn517 O532 2.034 . S
Zn517 O536 2.025 . S
Zn517 O538 2.024 . S
C518 O537 1.246 . S
C518 O538 1.249 . S
N519 C520 1.307 . S
N519 C521 1.333 . S
N519 Zn525 2.020 . S
C520 N519 1.307 . S
C520 C524 1.370 . S
C520 H531 0.948 . S
C521 N519 1.333 . S
C521 C522 1.379 . S
C521 H529 0.952 . S
C522 C521 1.379 . S
C522 C523 1.390 . S
C522 H542 0.949 . S
C523 C522 1.390 . S
C523 C524 1.357 . S
C524 C520 1.370 . S
C524 C523 1.357 . S
C524 H543 0.950 . S
Zn525 N519 2.020 . S
Zn525 O528 2.025 . S
Zn525 O533 2.024 . S
Zn525 O535 2.039 . S
Zn525 O537 2.034 . S
O526 C510 1.251 . S
O526 Zn517 2.039 . S
C527 O532 1.246 . S
C527 O533 1.249 . S
O528 C510 1.254 . S
O528 Zn525 2.025 . S
H529 C521 0.952 . S
H530 C512 0.952 . S
H531 C520 0.948 . S
O532 Zn517 2.034 . S
O532 C527 1.246 . S
O533 Zn525 2.024 . S
O533 C527 1.249 . S
H534 C516 0.948 . S
O535 Zn525 2.039 . S
O535 C539 1.251 . S
O536 Zn517 2.025 . S
O536 C539 1.254 . S
O537 C518 1.246 . S
O537 Zn525 2.034 . S
O538 Zn517 2.024 . S
O538 C518 1.249 . S
C539 O535 1.251 . S
C539 O536 1.254 . S
H540 C513 0.949 . S
H541 C515 0.950 . S
H542 C522 0.949 . S
H543 C524 0.950 . S
C544 O560 1.251 . S
C544 O562 1.254 . S
N545 C546 1.333 . S
N545 C550 1.307 . S
N545 Zn551 2.020 . S
C546 N545 1.333 . S
C546 C547 1.379 . S
C546 H564 0.952 . S
C547 C546 1.379 . S
C547 C548 1.390 . S
C547 H574 0.949 . S
C548 C547 1.390 . S
C548 C549 1.357 . S
C549 C548 1.357 . S
C549 C550 1.370 . S
C549 H575 0.950 . S
C550 N545 1.307 . S
C550 C549 1.370 . S
C550 H568 0.948 . S
Zn551 N545 2.020 . S
Zn551 O560 2.039 . S
Zn551 O566 2.034 . S
Zn551 O570 2.025 . S
Zn551 O572 2.024 . S
C552 O571 1.246 . S
C552 O572 1.249 . S
N553 C554 1.307 . S
N553 C555 1.333 . S
N553 Zn559 2.020 . S
C554 N553 1.307 . S
C554 C558 1.370 . S
C554 H565 0.948 . S
C555 N553 1.333 . S
C555 C556 1.379 . S
C555 H563 0.952 . S
C556 C555 1.379 . S
C556 C557 1.390 . S
C556 H576 0.949 . S
C557 C556 1.390 . S
C557 C558 1.357 . S
C558 C554 1.370 . S
C558 C557 1.357 . S
C558 H577 0.950 . S
Zn559 N553 2.020 . S
Zn559 O562 2.025 . S
Zn559 O567 2.024 . S
Zn559 O569 2.039 . S
Zn559 O571 2.034 . S
O560 C544 1.251 . S
O560 Zn551 2.039 . S
C561 O566 1.246 . S
C561 O567 1.249 . S
O562 C544 1.254 . S
O562 Zn559 2.025 . S
H563 C555 0.952 . S
H564 C546 0.952 . S
H565 C554 0.948 . S
O566 Zn551 2.034 . S
O566 C561 1.246 . S
O567 Zn559 2.024 . S
O567 C561 1.249 . S
H568 C550 0.948 . S
O569 Zn559 2.039 . S
O569 C573 1.251 . S
O570 Zn551 2.025 . S
O570 C573 1.254 . S
O571 C552 1.246 . S
O571 Zn559 2.034 . S
O572 Zn551 2.024 . S
O572 C552 1.249 . S
C573 O569 1.251 . S
C573 O570 1.254 . S
H574 C547 0.949 . S
H575 C549 0.950 . S
H576 C556 0.949 . S
H577 C558 0.950 . S
C578 O594 1.251 . S
C578 O596 1.254 . S
N579 C580 1.333 . S
N579 C584 1.307 . S
N579 Zn585 2.020 . S
C580 N579 1.333 . S
C580 C581 1.379 . S
C580 H598 0.952 . S
C581 C580 1.379 . S
C581 C582 1.390 . S
C581 H608 0.949 . S
C582 C581 1.390 . S
C582 C583 1.357 . S
C583 C582 1.357 . S
C583 C584 1.370 . S
C583 H609 0.950 . S
C584 N579 1.307 . S
C584 C583 1.370 . S
C584 H602 0.948 . S
Zn585 N579 2.020 . S
Zn585 O594 2.039 . S
Zn585 O600 2.034 . S
Zn585 O604 2.025 . S
Zn585 O606 2.024 . S
C586 O605 1.246 . S
C586 O606 1.249 . S
N587 C588 1.307 . S
N587 C589 1.333 . S
N587 Zn593 2.020 . S
C588 N587 1.307 . S
C588 C592 1.370 . S
C588 H599 0.948 . S
C589 N587 1.333 . S
C589 C590 1.379 . S
C589 H597 0.952 . S
C590 C589 1.379 . S
C590 C591 1.390 . S
C590 H610 0.949 . S
C591 C590 1.390 . S
C591 C592 1.357 . S
C592 C588 1.370 . S
C592 C591 1.357 . S
C592 H611 0.950 . S
Zn593 N587 2.020 . S
Zn593 O596 2.025 . S
Zn593 O601 2.024 . S
Zn593 O603 2.039 . S
Zn593 O605 2.034 . S
O594 C578 1.251 . S
O594 Zn585 2.039 . S
C595 O600 1.246 . S
C595 O601 1.249 . S
O596 C578 1.254 . S
O596 Zn593 2.025 . S
H597 C589 0.952 . S
H598 C580 0.952 . S
H599 C588 0.948 . S
O600 Zn585 2.034 . S
O600 C595 1.246 . S
O601 Zn593 2.024 . S
O601 C595 1.249 . S
H602 C584 0.948 . S
O603 Zn593 2.039 . S
O603 C607 1.251 . S
O604 Zn585 2.025 . S
O604 C607 1.254 . S
O605 C586 1.246 . S
O605 Zn593 2.034 . S
O606 Zn585 2.024 . S
O606 C586 1.249 . S
C607 O603 1.251 . S
C607 O604 1.254 . S
H608 C581 0.949 . S
H609 C583 0.950 . S
H610 C590 0.949 . S
H611 C592 0.950 . S
H612 C620 0.929 . S
H613 C622 0.930 . S
H614 C624 0.930 . S
H615 C627 0.929 . S
H616 C630 0.930 . S
H617 C632 0.960 . S
H618 C632 0.960 . S
H619 C632 0.960 . S
C620 H612 0.929 . S
C620 C621 1.377 . S
C620 C622 1.384 . S
C621 C620 1.377 . S
C621 C627 1.390 . S
C622 H613 0.930 . S
C622 C620 1.384 . S
C622 C623 1.372 . S
C623 C622 1.372 . S
C623 C624 1.400 . S
C623 C628 1.490 . S
C624 H614 0.930 . S
C624 C623 1.400 . S
C624 C627 1.386 . S
H625 C641 0.930 . S
H626 C642 0.931 . S
C627 H615 0.929 . S
C627 C621 1.390 . S
C627 C624 1.386 . S
C628 C623 1.490 . S
C628 C630 1.395 . S
C628 C631 1.403 . S
H629 C635 0.930 . S
C630 H616 0.930 . S
C630 C628 1.395 . S
C630 C633 1.403 . S
C631 C628 1.403 . S
C631 C632 1.524 . S
C631 C635 1.400 . S
C632 H617 0.960 . S
C632 H618 0.960 . S
C632 H619 0.960 . S
C632 C631 1.524 . S
C633 C630 1.403 . S
C633 C634 1.392 . S
C633 C637 1.495 . S
C634 C633 1.392 . S
C634 C635 1.385 . S
C634 C636 1.478 . S
C635 H629 0.930 . S
C635 C631 1.400 . S
C635 C634 1.385 . S
C636 C634 1.478 . S
C636 C638 1.381 . S
C636 C642 1.383 . S
C637 C633 1.495 . S
C637 H643 0.959 . S
C637 H644 0.961 . S
C637 H645 0.960 . S
C638 C636 1.381 . S
C638 C639 1.394 . S
C638 H646 0.930 . S
C639 C638 1.394 . S
C639 C640 1.383 . S
C639 H647 0.929 . S
C640 C639 1.383 . S
C640 C641 1.377 . S
C641 H625 0.930 . S
C641 C640 1.377 . S
C641 C642 1.379 . S
C642 H626 0.931 . S
C642 C636 1.383 . S
C642 C641 1.379 . S
H643 C637 0.959 . S
H644 C637 0.961 . S
H645 C637 0.960 . S
H646 C638 0.930 . S
H647 C639 0.929 . S
H648 C656 0.929 . S
H649 C658 0.930 . S
H650 C660 0.930 . S
H651 C663 0.929 . S
H652 C666 0.930 . S
H653 C668 0.960 . S
H654 C668 0.960 . S
H655 C668 0.960 . S
C656 H648 0.929 . S
C656 C657 1.377 . S
C656 C658 1.384 . S
C657 C656 1.377 . S
C657 C663 1.390 . S
C658 H649 0.930 . S
C658 C656 1.384 . S
C658 C659 1.372 . S
C659 C658 1.372 . S
C659 C660 1.400 . S
C659 C664 1.490 . S
C660 H650 0.930 . S
C660 C659 1.400 . S
C660 C663 1.386 . S
H661 C677 0.930 . S
H662 C678 0.931 . S
C663 H651 0.929 . S
C663 C657 1.390 . S
C663 C660 1.386 . S
C664 C659 1.490 . S
C664 C666 1.395 . S
C664 C667 1.403 . S
H665 C671 0.930 . S
C666 H652 0.930 . S
C666 C664 1.395 . S
C666 C669 1.403 . S
C667 C664 1.403 . S
C667 C668 1.524 . S
C667 C671 1.400 . S
C668 H653 0.960 . S
C668 H654 0.960 . S
C668 H655 0.960 . S
C668 C667 1.524 . S
C669 C666 1.403 . S
C669 C670 1.392 . S
C669 C673 1.495 . S
C670 C669 1.392 . S
C670 C671 1.385 . S
C670 C672 1.478 . S
C671 H665 0.930 . S
C671 C667 1.400 . S
C671 C670 1.385 . S
C672 C670 1.478 . S
C672 C674 1.381 . S
C672 C678 1.383 . S
C673 C669 1.495 . S
C673 H679 0.959 . S
C673 H680 0.961 . S
C673 H681 0.960 . S
C674 C672 1.381 . S
C674 C675 1.394 . S
C674 H682 0.930 . S
C675 C674 1.394 . S
C675 C676 1.383 . S
C675 H683 0.929 . S
C676 C675 1.383 . S
C676 C677 1.377 . S
C677 H661 0.930 . S
C677 C676 1.377 . S
C677 C678 1.379 . S
C678 H662 0.931 . S
C678 C672 1.383 . S
C678 C677 1.379 . S
H679 C673 0.959 . S
H680 C673 0.961 . S
H681 C673 0.960 . S
H682 C674 0.930 . S
H683 C675 0.929 . S
H684 C692 0.929 . S
H685 C694 0.930 . S
H686 C696 0.930 . S
H687 C699 0.929 . S
H688 C702 0.930 . S
H689 C704 0.960 . S
H690 C704 0.960 . S
H691 C704 0.960 . S
C692 H684 0.929 . S
C692 C693 1.377 . S
C692 C694 1.384 . S
C693 C692 1.377 . S
C693 C699 1.390 . S
C694 H685 0.930 . S
C694 C692 1.384 . S
C694 C695 1.372 . S
C695 C694 1.372 . S
C695 C696 1.400 . S
C695 C700 1.490 . S
C696 H686 0.930 . S
C696 C695 1.400 . S
C696 C699 1.386 . S
H697 C713 0.930 . S
H698 C714 0.931 . S
C699 H687 0.929 . S
C699 C693 1.390 . S
C699 C696 1.386 . S
C700 C695 1.490 . S
C700 C702 1.395 . S
C700 C703 1.403 . S
H701 C707 0.930 . S
C702 H688 0.930 . S
C702 C700 1.395 . S
C702 C705 1.403 . S
C703 C700 1.403 . S
C703 C704 1.524 . S
C703 C707 1.400 . S
C704 H689 0.960 . S
C704 H690 0.960 . S
C704 H691 0.960 . S
C704 C703 1.524 . S
C705 C702 1.403 . S
C705 C706 1.392 . S
C705 C709 1.495 . S
C706 C705 1.392 . S
C706 C707 1.385 . S
C706 C708 1.478 . S
C707 H701 0.930 . S
C707 C703 1.400 . S
C707 C706 1.385 . S
C708 C706 1.478 . S
C708 C710 1.381 . S
C708 C714 1.383 . S
C709 C705 1.495 . S
C709 H715 0.959 . S
C709 H716 0.961 . S
C709 H717 0.960 . S
C710 C708 1.381 . S
C710 C711 1.394 . S
C710 H718 0.930 . S
C711 C710 1.394 . S
C711 C712 1.383 . S
C711 H719 0.929 . S
C712 C711 1.383 . S
C712 C713 1.377 . S
C713 H697 0.930 . S
C713 C712 1.377 . S
C713 C714 1.379 . S
C714 H698 0.931 . S
C714 C708 1.383 . S
C714 C713 1.379 . S
H715 C709 0.959 . S
H716 C709 0.961 . S
H717 C709 0.960 . S
H718 C710 0.930 . S
H719 C711 0.929 . S
H720 C728 0.929 . S
H721 C730 0.930 . S
H722 C732 0.930 . S
H723 C735 0.929 . S
H724 C738 0.930 . S
H725 C740 0.960 . S
H726 C740 0.960 . S
H727 C740 0.960 . S
C728 H720 0.929 . S
C728 C729 1.377 . S
C728 C730 1.384 . S
C729 C728 1.377 . S
C729 C735 1.390 . S
C730 H721 0.930 . S
C730 C728 1.384 . S
C730 C731 1.372 . S
C731 C730 1.372 . S
C731 C732 1.400 . S
C731 C736 1.490 . S
C732 H722 0.930 . S
C732 C731 1.400 . S
C732 C735 1.386 . S
H733 C749 0.930 . S
H734 C750 0.931 . S
C735 H723 0.929 . S
C735 C729 1.390 . S
C735 C732 1.386 . S
C736 C731 1.490 . S
C736 C738 1.395 . S
C736 C739 1.403 . S
H737 C743 0.930 . S
C738 H724 0.930 . S
C738 C736 1.395 . S
C738 C741 1.403 . S
C739 C736 1.403 . S
C739 C740 1.524 . S
C739 C743 1.400 . S
C740 H725 0.960 . S
C740 H726 0.960 . S
C740 H727 0.960 . S
C740 C739 1.524 . S
C741 C738 1.403 . S
C741 C742 1.392 . S
C741 C745 1.495 . S
C742 C741 1.392 . S
C742 C743 1.385 . S
C742 C744 1.478 . S
C743 H737 0.930 . S
C743 C739 1.400 . S
C743 C742 1.385 . S
C744 C742 1.478 . S
C744 C746 1.381 . S
C744 C750 1.383 . S
C745 C741 1.495 . S
C745 H751 0.959 . S
C745 H752 0.961 . S
C745 H753 0.960 . S
C746 C744 1.381 . S
C746 C747 1.394 . S
C746 H754 0.930 . S
C747 C746 1.394 . S
C747 C748 1.383 . S
C747 H755 0.929 . S
C748 C747 1.383 . S
C748 C749 1.377 . S
C749 H733 0.930 . S
C749 C748 1.377 . S
C749 C750 1.379 . S
C750 H734 0.931 . S
C750 C744 1.383 . S
C750 C749 1.379 . S
H751 C745 0.959 . S
H752 C745 0.961 . S
H753 C745 0.960 . S
H754 C746 0.930 . S
H755 C747 0.929 . S
H756 C764 0.929 . S
H757 C766 0.930 . S
H758 C768 0.930 . S
H759 C771 0.929 . S
H760 C774 0.930 . S
H761 C776 0.960 . S
H762 C776 0.960 . S
H763 C776 0.960 . S
C764 H756 0.929 . S
C764 C765 1.377 . S
C764 C766 1.384 . S
C765 C764 1.377 . S
C765 C771 1.390 . S
C766 H757 0.930 . S
C766 C764 1.384 . S
C766 C767 1.372 . S
C767 C766 1.372 . S
C767 C768 1.400 . S
C767 C772 1.490 . S
C768 H758 0.930 . S
C768 C767 1.400 . S
C768 C771 1.386 . S
H769 C785 0.930 . S
H770 C786 0.931 . S
C771 H759 0.929 . S
C771 C765 1.390 . S
C771 C768 1.386 . S
C772 C767 1.490 . S
C772 C774 1.395 . S
C772 C775 1.403 . S
H773 C779 0.930 . S
C774 H760 0.930 . S
C774 C772 1.395 . S
C774 C777 1.403 . S
C775 C772 1.403 . S
C775 C776 1.524 . S
C775 C779 1.400 . S
C776 H761 0.960 . S
C776 H762 0.960 . S
C776 H763 0.960 . S
C776 C775 1.524 . S
C777 C774 1.403 . S
C777 C778 1.392 . S
C777 C781 1.495 . S
C778 C777 1.392 . S
C778 C779 1.385 . S
C778 C780 1.478 . S
C779 H773 0.930 . S
C779 C775 1.400 . S
C779 C778 1.385 . S
C780 C778 1.478 . S
C780 C782 1.381 . S
C780 C786 1.383 . S
C781 C777 1.495 . S
C781 H787 0.959 . S
C781 H788 0.961 . S
C781 H789 0.960 . S
C782 C780 1.381 . S
C782 C783 1.394 . S
C782 H790 0.930 . S
C783 C782 1.394 . S
C783 C784 1.383 . S
C783 H791 0.929 . S
C784 C783 1.383 . S
C784 C785 1.377 . S
C785 H769 0.930 . S
C785 C784 1.377 . S
C785 C786 1.379 . S
C786 H770 0.931 . S
C786 C780 1.383 . S
C786 C785 1.379 . S
H787 C781 0.959 . S
H788 C781 0.961 . S
H789 C781 0.960 . S
H790 C782 0.930 . S
H791 C783 0.929 . S
H792 C800 0.929 . S
H793 C802 0.930 . S
H794 C804 0.930 . S
H795 C807 0.929 . S
H796 C810 0.930 . S
H797 C812 0.960 . S
H798 C812 0.960 . S
H799 C812 0.960 . S
C800 H792 0.929 . S
C800 C801 1.377 . S
C800 C802 1.384 . S
C801 C800 1.377 . S
C801 C807 1.390 . S
C802 H793 0.930 . S
C802 C800 1.384 . S
C802 C803 1.372 . S
C803 C802 1.372 . S
C803 C804 1.400 . S
C803 C808 1.490 . S
C804 H794 0.930 . S
C804 C803 1.400 . S
C804 C807 1.386 . S
H805 C821 0.930 . S
H806 C822 0.931 . S
C807 H795 0.929 . S
C807 C801 1.390 . S
C807 C804 1.386 . S
C808 C803 1.490 . S
C808 C810 1.395 . S
C808 C811 1.403 . S
H809 C815 0.930 . S
C810 H796 0.930 . S
C810 C808 1.395 . S
C810 C813 1.403 . S
C811 C808 1.403 . S
C811 C812 1.524 . S
C811 C815 1.400 . S
C812 H797 0.960 . S
C812 H798 0.960 . S
C812 H799 0.960 . S
C812 C811 1.524 . S
C813 C810 1.403 . S
C813 C814 1.392 . S
C813 C817 1.495 . S
C814 C813 1.392 . S
C814 C815 1.385 . S
C814 C816 1.478 . S
C815 H809 0.930 . S
C815 C811 1.400 . S
C815 C814 1.385 . S
C816 C814 1.478 . S
C816 C818 1.381 . S
C816 C822 1.383 . S
C817 C813 1.495 . S
C817 H823 0.959 . S
C817 H824 0.961 . S
C817 H825 0.960 . S
C818 C816 1.381 . S
C818 C819 1.394 . S
C818 H826 0.930 . S
C819 C818 1.394 . S
C819 C820 1.383 . S
C819 H827 0.929 . S
C820 C819 1.383 . S
C820 C821 1.377 . S
C821 H805 0.930 . S
C821 C820 1.377 . S
C821 C822 1.379 . S
C822 H806 0.931 . S
C822 C816 1.383 . S
C822 C821 1.379 . S
H823 C817 0.959 . S
H824 C817 0.961 . S
H825 C817 0.960 . S
H826 C818 0.930 . S
H827 C819 0.929 . S
H828 C836 0.929 . S
H829 C838 0.930 . S
H830 C840 0.930 . S
H831 C843 0.929 . S
H832 C846 0.930 . S
H833 C848 0.960 . S
H834 C848 0.960 . S
H835 C848 0.960 . S
C836 H828 0.929 . S
C836 C837 1.377 1_545 S
C836 C838 1.384 . S
C837 C836 1.377 1_565 S
C837 C843 1.390 . S
C838 H829 0.930 . S
C838 C836 1.384 . S
C838 C839 1.372 . S
C839 C838 1.372 . S
C839 C840 1.400 . S
C839 C844 1.490 . S
C840 H830 0.930 . S
C840 C839 1.400 . S
C840 C843 1.386 1_545 S
H841 C857 0.930 . S
H842 C858 0.931 . S
C843 H831 0.929 . S
C843 C837 1.390 . S
C843 C840 1.386 1_565 S
C844 C839 1.490 . S
C844 C846 1.395 . S
C844 C847 1.403 . S
H845 C851 0.930 . S
C846 H832 0.930 . S
C846 C844 1.395 . S
C846 C849 1.403 . S
C847 C844 1.403 . S
C847 C848 1.524 . S
C847 C851 1.400 . S
C848 H833 0.960 . S
C848 H834 0.960 . S
C848 H835 0.960 . S
C848 C847 1.524 . S
C849 C846 1.403 . S
C849 C850 1.392 . S
C849 C853 1.495 . S
C850 C849 1.392 . S
C850 C851 1.385 . S
C850 C852 1.478 . S
C851 H845 0.930 . S
C851 C847 1.400 . S
C851 C850 1.385 . S
C852 C850 1.478 . S
C852 C854 1.381 . S
C852 C858 1.383 . S
C853 C849 1.495 . S
C853 H859 0.959 . S
C853 H860 0.961 . S
C853 H861 0.960 . S
C854 C852 1.381 . S
C854 C855 1.394 . S
C854 H862 0.930 . S
C855 C854 1.394 . S
C855 C856 1.383 . S
C855 H863 0.929 . S
C856 C855 1.383 . S
C856 C857 1.377 . S
C857 H841 0.930 . S
C857 C856 1.377 . S
C857 C858 1.379 . S
C858 H842 0.931 . S
C858 C852 1.383 . S
C858 C857 1.379 . S
H859 C853 0.959 . S
H860 C853 0.961 . S
H861 C853 0.960 . S
H862 C854 0.930 . S
H863 C855 0.929 . S
H864 C872 0.929 . S
H865 C874 0.930 . S
H866 C876 0.930 . S
H867 C879 0.929 . S
H868 C882 0.930 . S
H869 C884 0.960 . S
H870 C884 0.960 1_455 S
H871 C884 0.960 1_455 S
C872 H864 0.929 . S
C872 C873 1.377 . S
C872 C874 1.384 1_455 S
C873 C872 1.377 . S
C873 C879 1.390 . S
C874 H865 0.930 . S
C874 C872 1.384 1_655 S
C874 C875 1.372 . S
C875 C874 1.372 . S
C875 C876 1.400 1_655 S
C875 C880 1.490 . S
C876 H866 0.930 . S
C876 C875 1.400 1_455 S
C876 C879 1.386 . S
H877 C893 0.930 . S
H878 C894 0.931 1_545 S
C879 H867 0.929 . S
C879 C873 1.390 . S
C879 C876 1.386 . S
C880 C875 1.490 . S
C880 C882 1.395 . S
C880 C883 1.403 . S
H881 C887 0.930 . S
C882 H868 0.930 . S
C882 C880 1.395 . S
C882 C885 1.403 . S
C883 C880 1.403 . S
C883 C884 1.524 . S
C883 C887 1.400 . S
C884 H869 0.960 . S
C884 H870 0.960 1_655 S
C884 H871 0.960 1_655 S
C884 C883 1.524 . S
C885 C882 1.403 . S
C885 C886 1.392 . S
C885 C889 1.495 . S
C886 C885 1.392 . S
C886 C887 1.385 . S
C886 C888 1.478 . S
C887 H881 0.930 . S
C887 C883 1.400 . S
C887 C886 1.385 . S
C888 C886 1.478 . S
C888 C890 1.381 1_545 S
C888 C894 1.383 1_545 S
C889 C885 1.495 . S
C889 H895 0.959 . S
C889 H896 0.961 . S
C889 H897 0.960 . S
C890 C888 1.381 1_565 S
C890 C891 1.394 . S
C890 H898 0.930 1_565 S
C891 C890 1.394 . S
C891 C892 1.383 . S
C891 H899 0.929 . S
C892 C891 1.383 . S
C892 C893 1.377 . S
C893 H877 0.930 . S
C893 C892 1.377 . S
C893 C894 1.379 . S
C894 H878 0.931 1_565 S
C894 C888 1.383 1_565 S
C894 C893 1.379 . S
H895 C889 0.959 . S
H896 C889 0.961 . S
H897 C889 0.960 . S
H898 C890 0.930 1_545 S
H899 C891 0.929 . S
H900 C908 0.929 . S
H901 C910 0.930 . S
H902 C912 0.930 . S
H903 C915 0.929 . S
H904 C918 0.930 . S
H905 C920 0.960 1_655 S
H906 C920 0.960 . S
H907 C920 0.960 . S
C908 H900 0.929 . S
C908 C909 1.377 . S
C908 C910 1.384 . S
C909 C908 1.377 . S
C909 C915 1.390 . S
C910 H901 0.930 . S
C910 C908 1.384 . S
C910 C911 1.372 . S
C911 C910 1.372 . S
C911 C912 1.400 . S
C911 C916 1.490 1_455 S
C912 H902 0.930 . S
C912 C911 1.400 . S
C912 C915 1.386 . S
H913 C929 0.930 . S
H914 C930 0.931 . S
C915 H903 0.929 . S
C915 C909 1.390 . S
C915 C912 1.386 . S
C916 C911 1.490 1_655 S
C916 C918 1.395 . S
C916 C919 1.403 . S
H917 C923 0.930 . S
C918 H904 0.930 . S
C918 C916 1.395 . S
C918 C921 1.403 . S
C919 C916 1.403 . S
C919 C920 1.524 1_655 S
C919 C923 1.400 . S
C920 H905 0.960 1_455 S
C920 H906 0.960 . S
C920 H907 0.960 . S
C920 C919 1.524 1_455 S
C921 C918 1.403 . S
C921 C922 1.392 . S
C921 C925 1.495 . S
C922 C921 1.392 . S
C922 C923 1.385 . S
C922 C924 1.478 . S
C923 H917 0.930 . S
C923 C919 1.400 . S
C923 C922 1.385 . S
C924 C922 1.478 . S
C924 C926 1.381 . S
C924 C930 1.383 . S
C925 C921 1.495 . S
C925 H931 0.959 . S
C925 H932 0.961 . S
C925 H933 0.960 . S
C926 C924 1.381 . S
C926 C927 1.394 . S
C926 H934 0.930 . S
C927 C926 1.394 . S
C927 C928 1.383 . S
C927 H935 0.929 . S
C928 C927 1.383 . S
C928 C929 1.377 . S
C929 H913 0.930 . S
C929 C928 1.377 . S
C929 C930 1.379 . S
C930 H914 0.931 . S
C930 C924 1.383 . S
C930 C929 1.379 . S
H931 C925 0.959 . S
H932 C925 0.961 . S
H933 C925 0.960 . S
H934 C926 0.930 . S
H935 C927 0.929 . S
H936 C944 0.929 . S
H937 C946 0.930 . S
H938 C948 0.930 . S
H939 C951 0.929 . S
H940 C954 0.930 . S
H941 C956 0.960 . S
H942 C956 0.960 . S
H943 C956 0.960 . S
C944 H936 0.929 . S
C944 C945 1.377 . S
C944 C946 1.384 . S
C945 C944 1.377 . S
C945 C951 1.390 . S
C946 H937 0.930 . S
C946 C944 1.384 . S
C946 C947 1.372 . S
C947 C946 1.372 . S
C947 C948 1.400 . S
C947 C952 1.490 . S
C948 H938 0.930 . S
C948 C947 1.400 . S
C948 C951 1.386 . S
H949 C965 0.930 . S
H950 C966 0.931 . S
C951 H939 0.929 . S
C951 C945 1.390 . S
C951 C948 1.386 . S
C952 C947 1.490 . S
C952 C954 1.395 . S
C952 C955 1.403 . S
H953 C959 0.930 . S
C954 H940 0.930 . S
C954 C952 1.395 . S
C954 C957 1.403 . S
C955 C952 1.403 . S
C955 C956 1.524 . S
C955 C959 1.400 . S
C956 H941 0.960 . S
C956 H942 0.960 . S
C956 H943 0.960 . S
C956 C955 1.524 . S
C957 C954 1.403 . S
C957 C958 1.392 . S
C957 C961 1.495 . S
C958 C957 1.392 . S
C958 C959 1.385 . S
C958 C960 1.478 . S
C959 H953 0.930 . S
C959 C955 1.400 . S
C959 C958 1.385 . S
C960 C958 1.478 . S
C960 C962 1.381 . S
C960 C966 1.383 . S
C961 C957 1.495 . S
C961 H967 0.959 . S
C961 H968 0.961 . S
C961 H969 0.960 . S
C962 C960 1.381 . S
C962 C963 1.394 . S
C962 H970 0.930 . S
C963 C962 1.394 . S
C963 C964 1.383 . S
C963 H971 0.929 . S
C964 C963 1.383 . S
C964 C965 1.377 . S
C965 H949 0.930 . S
C965 C964 1.377 . S
C965 C966 1.379 . S
C966 H950 0.931 . S
C966 C960 1.383 . S
C966 C965 1.379 . S
H967 C961 0.959 . S
H968 C961 0.961 . S
H969 C961 0.960 . S
H970 C962 0.930 . S
H971 C963 0.929 . S
H972 C980 0.929 . S
H973 C982 0.930 . S
H974 C984 0.930 . S
H975 C987 0.929 . S
H976 C990 0.930 . S
H977 C992 0.960 . S
H978 C992 0.960 . S
H979 C992 0.960 . S
C980 H972 0.929 . S
C980 C981 1.377 . S
C980 C982 1.384 . S
C981 C980 1.377 . S
C981 C987 1.390 . S
C982 H973 0.930 . S
C982 C980 1.384 . S
C982 C983 1.372 . S
C983 C982 1.372 . S
C983 C984 1.400 . S
C983 C988 1.490 . S
C984 H974 0.930 . S
C984 C983 1.400 . S
C984 C987 1.386 . S
H985 C1001 0.930 . S
H986 C1002 0.931 . S
C987 H975 0.929 . S
C987 C981 1.390 . S
C987 C984 1.386 . S
C988 C983 1.490 . S
C988 C990 1.395 . S
C988 C991 1.403 . S
H989 C995 0.930 . S
C990 H976 0.930 . S
C990 C988 1.395 . S
C990 C993 1.403 . S
C991 C988 1.403 . S
C991 C992 1.524 . S
C991 C995 1.400 . S
C992 H977 0.960 . S
C992 H978 0.960 . S
C992 H979 0.960 . S
C992 C991 1.524 . S
C993 C990 1.403 . S
C993 C994 1.392 . S
C993 C997 1.495 . S
C994 C993 1.392 . S
C994 C995 1.385 . S
C994 C996 1.478 . S
C995 H989 0.930 . S
C995 C991 1.400 . S
C995 C994 1.385 . S
C996 C994 1.478 . S
C996 C998 1.381 . S
C996 C1002 1.383 . S
C997 C993 1.495 . S
C997 H1003 0.959 . S
C997 H1004 0.961 . S
C997 H1005 0.960 . S
C998 C996 1.381 . S
C998 C999 1.394 . S
C998 H1006 0.930 . S
C999 C998 1.394 . S
C999 C1000 1.383 . S
C999 H1007 0.929 . S
C1000 C999 1.383 . S
C1000 C1001 1.377 . S
C1001 H985 0.930 . S
C1001 C1000 1.377 . S
C1001 C1002 1.379 . S
C1002 H986 0.931 . S
C1002 C996 1.383 . S
C1002 C1001 1.379 . S
H1003 C997 0.959 . S
H1004 C997 0.961 . S
H1005 C997 0.960 . S
H1006 C998 0.930 . S
H1007 C999 0.929 . S
H1008 C1016 0.929 . S
H1009 C1018 0.930 . S
H1010 C1020 0.930 . S
H1011 C1023 0.929 . S
H1012 C1026 0.930 . S
H1013 C1028 0.960 . S
H1014 C1028 0.960 . S
H1015 C1028 0.960 . S
C1016 H1008 0.929 . S
C1016 C1017 1.377 . S
C1016 C1018 1.384 . S
C1017 C1016 1.377 . S
C1017 C1023 1.390 . S
C1018 H1009 0.930 . S
C1018 C1016 1.384 . S
C1018 C1019 1.372 . S
C1019 C1018 1.372 . S
C1019 C1020 1.400 . S
C1019 C1024 1.490 . S
C1020 H1010 0.930 . S
C1020 C1019 1.400 . S
C1020 C1023 1.386 . S
H1021 C1037 0.930 . S
H1022 C1038 0.931 . S
C1023 H1011 0.929 . S
C1023 C1017 1.390 . S
C1023 C1020 1.386 . S
C1024 C1019 1.490 . S
C1024 C1026 1.395 . S
C1024 C1027 1.403 . S
H1025 C1031 0.930 . S
C1026 H1012 0.930 . S
C1026 C1024 1.395 . S
C1026 C1029 1.403 . S
C1027 C1024 1.403 . S
C1027 C1028 1.524 . S
C1027 C1031 1.400 . S
C1028 H1013 0.960 . S
C1028 H1014 0.960 . S
C1028 H1015 0.960 . S
C1028 C1027 1.524 . S
C1029 C1026 1.403 . S
C1029 C1030 1.392 . S
C1029 C1033 1.495 . S
C1030 C1029 1.392 . S
C1030 C1031 1.385 . S
C1030 C1032 1.478 . S
C1031 H1025 0.930 . S
C1031 C1027 1.400 . S
C1031 C1030 1.385 . S
C1032 C1030 1.478 . S
C1032 C1034 1.381 . S
C1032 C1038 1.383 . S
C1033 C1029 1.495 . S
C1033 H1039 0.959 . S
C1033 H1040 0.961 . S
C1033 H1041 0.960 . S
C1034 C1032 1.381 . S
C1034 C1035 1.394 . S
C1034 H1042 0.930 . S
C1035 C1034 1.394 . S
C1035 C1036 1.383 . S
C1035 H1043 0.929 . S
C1036 C1035 1.383 . S
C1036 C1037 1.377 . S
C1037 H1021 0.930 . S
C1037 C1036 1.377 . S
C1037 C1038 1.379 . S
C1038 H1022 0.931 . S
C1038 C1032 1.383 . S
C1038 C1037 1.379 . S
H1039 C1033 0.959 . S
H1040 C1033 0.961 . S
H1041 C1033 0.960 . S
H1042 C1034 0.930 . S
H1043 C1035 0.929 . S
H1044 C1052 0.929 . S
H1045 C1054 0.930 . S
H1046 C1056 0.930 . S
H1047 C1059 0.929 . S
H1048 C1062 0.930 . S
H1049 C1064 0.960 . S
H1050 C1064 0.960 . S
H1051 C1064 0.960 . S
C1052 H1044 0.929 . S
C1052 C1053 1.377 . S
C1052 C1054 1.384 . S
C1053 C1052 1.377 . S
C1053 C1059 1.390 . S
C1054 H1045 0.930 . S
C1054 C1052 1.384 . S
C1054 C1055 1.372 . S
C1055 C1054 1.372 . S
C1055 C1056 1.400 . S
C1055 C1060 1.490 . S
C1056 H1046 0.930 . S
C1056 C1055 1.400 . S
C1056 C1059 1.386 . S
H1057 C1073 0.930 . S
H1058 C1074 0.931 . S
C1059 H1047 0.929 . S
C1059 C1053 1.390 . S
C1059 C1056 1.386 . S
C1060 C1055 1.490 . S
C1060 C1062 1.395 . S
C1060 C1063 1.403 . S
H1061 C1067 0.930 . S
C1062 H1048 0.930 . S
C1062 C1060 1.395 . S
C1062 C1065 1.403 . S
C1063 C1060 1.403 . S
C1063 C1064 1.524 . S
C1063 C1067 1.400 . S
C1064 H1049 0.960 . S
C1064 H1050 0.960 . S
C1064 H1051 0.960 . S
C1064 C1063 1.524 . S
C1065 C1062 1.403 . S
C1065 C1066 1.392 . S
C1065 C1069 1.495 . S
C1066 C1065 1.392 . S
C1066 C1067 1.385 . S
C1066 C1068 1.478 . S
C1067 H1061 0.930 . S
C1067 C1063 1.400 . S
C1067 C1066 1.385 . S
C1068 C1066 1.478 . S
C1068 C1070 1.381 . S
C1068 C1074 1.383 . S
C1069 C1065 1.495 . S
C1069 H1075 0.959 . S
C1069 H1076 0.961 . S
C1069 H1077 0.960 . S
C1070 C1068 1.381 . S
C1070 C1071 1.394 . S
C1070 H1078 0.930 . S
C1071 C1070 1.394 . S
C1071 C1072 1.383 . S
C1071 H1079 0.929 . S
C1072 C1071 1.383 . S
C1072 C1073 1.377 . S
C1073 H1057 0.930 . S
C1073 C1072 1.377 . S
C1073 C1074 1.379 . S
C1074 H1058 0.931 . S
C1074 C1068 1.383 . S
C1074 C1073 1.379 . S
H1075 C1069 0.959 . S
H1076 C1069 0.961 . S
H1077 C1069 0.960 . S
H1078 C1070 0.930 . S
H1079 C1071 0.929 . S
H1080 C1088 0.929 . S
H1081 C1090 0.930 . S
H1082 C1092 0.930 . S
H1083 C1095 0.929 . S
H1084 C1098 0.930 . S
H1085 C1100 0.960 . S
H1086 C1100 0.960 . S
H1087 C1100 0.960 . S
C1088 H1080 0.929 . S
C1088 C1089 1.377 . S
C1088 C1090 1.384 . S
C1089 C1088 1.377 . S
C1089 C1095 1.390 . S
C1090 H1081 0.930 . S
C1090 C1088 1.384 . S
C1090 C1091 1.372 . S
C1091 C1090 1.372 . S
C1091 C1092 1.400 . S
C1091 C1096 1.490 . S
C1092 H1082 0.930 . S
C1092 C1091 1.400 . S
C1092 C1095 1.386 . S
H1093 C1109 0.930 . S
H1094 C1110 0.931 . S
C1095 H1083 0.929 . S
C1095 C1089 1.390 . S
C1095 C1092 1.386 . S
C1096 C1091 1.490 . S
C1096 C1098 1.395 . S
C1096 C1099 1.403 . S
H1097 C1103 0.930 . S
C1098 H1084 0.930 . S
C1098 C1096 1.395 . S
C1098 C1101 1.403 . S
C1099 C1096 1.403 . S
C1099 C1100 1.524 . S
C1099 C1103 1.400 . S
C1100 H1085 0.960 . S
C1100 H1086 0.960 . S
C1100 H1087 0.960 . S
C1100 C1099 1.524 . S
C1101 C1098 1.403 . S
C1101 C1102 1.392 . S
C1101 C1105 1.495 . S
C1102 C1101 1.392 . S
C1102 C1103 1.385 . S
C1102 C1104 1.478 . S
C1103 H1097 0.930 . S
C1103 C1099 1.400 . S
C1103 C1102 1.385 . S
C1104 C1102 1.478 . S
C1104 C1106 1.381 . S
C1104 C1110 1.383 . S
C1105 C1101 1.495 . S
C1105 H1111 0.959 . S
C1105 H1112 0.961 . S
C1105 H1113 0.960 . S
C1106 C1104 1.381 . S
C1106 C1107 1.394 . S
C1106 H1114 0.930 . S
C1107 C1106 1.394 . S
C1107 C1108 1.383 . S
C1107 H1115 0.929 . S
C1108 C1107 1.383 . S
C1108 C1109 1.377 . S
C1109 H1093 0.930 . S
C1109 C1108 1.377 . S
C1109 C1110 1.379 . S
C1110 H1094 0.931 . S
C1110 C1104 1.383 . S
C1110 C1109 1.379 . S
H1111 C1105 0.959 . S
H1112 C1105 0.961 . S
H1113 C1105 0.960 . S
H1114 C1106 0.930 . S
H1115 C1107 0.929 . S
H1116 C1124 0.929 . S
H1117 C1126 0.930 . S
H1118 C1128 0.930 . S
H1119 C1131 0.929 . S
H1120 C1134 0.930 . S
H1121 C1136 0.960 . S
H1122 C1136 0.960 . S
H1123 C1136 0.960 . S
C1124 H1116 0.929 . S
C1124 C1125 1.377 . S
C1124 C1126 1.384 . S
C1125 C1124 1.377 . S
C1125 C1131 1.390 . S
C1126 H1117 0.930 . S
C1126 C1124 1.384 . S
C1126 C1127 1.372 . S
C1127 C1126 1.372 . S
C1127 C1128 1.400 . S
C1127 C1132 1.490 . S
C1128 H1118 0.930 . S
C1128 C1127 1.400 . S
C1128 C1131 1.386 . S
H1129 C1145 0.930 . S
H1130 C1146 0.931 . S
C1131 H1119 0.929 . S
C1131 C1125 1.390 . S
C1131 C1128 1.386 . S
C1132 C1127 1.490 . S
C1132 C1134 1.395 . S
C1132 C1135 1.403 . S
H1133 C1139 0.930 . S
C1134 H1120 0.930 . S
C1134 C1132 1.395 . S
C1134 C1137 1.403 . S
C1135 C1132 1.403 . S
C1135 C1136 1.524 . S
C1135 C1139 1.400 . S
C1136 H1121 0.960 . S
C1136 H1122 0.960 . S
C1136 H1123 0.960 . S
C1136 C1135 1.524 . S
C1137 C1134 1.403 . S
C1137 C1138 1.392 . S
C1137 C1141 1.495 . S
C1138 C1137 1.392 . S
C1138 C1139 1.385 . S
C1138 C1140 1.478 . S
C1139 H1133 0.930 . S
C1139 C1135 1.400 . S
C1139 C1138 1.385 . S
C1140 C1138 1.478 . S
C1140 C1142 1.381 . S
C1140 C1146 1.383 . S
C1141 C1137 1.495 . S
C1141 H1147 0.959 . S
C1141 H1148 0.961 . S
C1141 H1149 0.960 . S
C1142 C1140 1.381 . S
C1142 C1143 1.394 . S
C1142 H1150 0.930 . S
C1143 C1142 1.394 . S
C1143 C1144 1.383 . S
C1143 H1151 0.929 . S
C1144 C1143 1.383 . S
C1144 C1145 1.377 . S
C1145 H1129 0.930 . S
C1145 C1144 1.377 . S
C1145 C1146 1.379 . S
C1146 H1130 0.931 . S
C1146 C1140 1.383 . S
C1146 C1145 1.379 . S
H1147 C1141 0.959 . S
H1148 C1141 0.961 . S
H1149 C1141 0.960 . S
H1150 C1142 0.930 . S
H1151 C1143 0.929 . S
H1152 C1160 0.929 1_655 S
H1153 C1162 0.930 . S
H1154 C1164 0.930 . S
H1155 C1167 0.929 . S
H1156 C1170 0.930 . S
H1157 C1172 0.960 . S
H1158 C1172 0.960 . S
H1159 C1172 0.960 . S
C1160 H1152 0.929 1_455 S
C1160 C1161 1.377 1_455 S
C1160 C1162 1.384 . S
C1161 C1160 1.377 1_655 S
C1161 C1167 1.390 . S
C1162 H1153 0.930 . S
C1162 C1160 1.384 . S
C1162 C1163 1.372 . S
C1163 C1162 1.372 . S
C1163 C1164 1.400 . S
C1163 C1168 1.490 . S
C1164 H1154 0.930 . S
C1164 C1163 1.400 . S
C1164 C1167 1.386 1_455 S
H1165 C1181 0.930 . S
H1166 C1182 0.931 . S
C1167 H1155 0.929 . S
C1167 C1161 1.390 . S
C1167 C1164 1.386 1_655 S
C1168 C1163 1.490 . S
C1168 C1170 1.395 . S
C1168 C1171 1.403 . S
H1169 C1175 0.930 . S
C1170 H1156 0.930 . S
C1170 C1168 1.395 . S
C1170 C1173 1.403 . S
C1171 C1168 1.403 . S
C1171 C1172 1.524 . S
C1171 C1175 1.400 . S
C1172 H1157 0.960 . S
C1172 H1158 0.960 . S
C1172 H1159 0.960 . S
C1172 C1171 1.524 . S
C1173 C1170 1.403 . S
C1173 C1174 1.392 . S
C1173 C1177 1.495 . S
C1174 C1173 1.392 . S
C1174 C1175 1.385 . S
C1174 C1176 1.478 . S
C1175 H1169 0.930 . S
C1175 C1171 1.400 . S
C1175 C1174 1.385 . S
C1176 C1174 1.478 . S
C1176 C1178 1.381 . S
C1176 C1182 1.383 . S
C1177 C1173 1.495 . S
C1177 H1183 0.959 . S
C1177 H1184 0.961 . S
C1177 H1185 0.960 . S
C1178 C1176 1.381 . S
C1178 C1179 1.394 . S
C1178 H1186 0.930 . S
C1179 C1178 1.394 . S
C1179 C1180 1.383 . S
C1179 H1187 0.929 . S
C1180 C1179 1.383 . S
C1180 C1181 1.377 . S
C1181 H1165 0.930 . S
C1181 C1180 1.377 . S
C1181 C1182 1.379 . S
C1182 H1166 0.931 . S
C1182 C1176 1.383 . S
C1182 C1181 1.379 . S
H1183 C1177 0.959 . S
H1184 C1177 0.961 . S
H1185 C1177 0.960 . S
H1186 C1178 0.930 . S
H1187 C1179 0.929 . S
H1188 C1196 0.929 . S
H1189 C1198 0.930 . S
H1190 C1200 0.930 . S
H1191 C1203 0.929 . S
H1192 C1206 0.930 . S
H1193 C1208 0.960 . S
H1194 C1208 0.960 . S
H1195 C1208 0.960 . S
C1196 H1188 0.929 . S
C1196 C1197 1.377 . S
C1196 C1198 1.384 . S
C1197 C1196 1.377 . S
C1197 C1203 1.390 . S
C1198 H1189 0.930 . S
C1198 C1196 1.384 . S
C1198 C1199 1.372 . S
C1199 C1198 1.372 . S
C1199 C1200 1.400 . S
C1199 C1204 1.490 . S
C1200 H1190 0.930 . S
C1200 C1199 1.400 . S
C1200 C1203 1.386 . S
H1201 C1217 0.930 . S
H1202 C1218 0.931 . S
C1203 H1191 0.929 . S
C1203 C1197 1.390 . S
C1203 C1200 1.386 . S
C1204 C1199 1.490 . S
C1204 C1206 1.395 . S
C1204 C1207 1.403 . S
H1205 C1211 0.930 . S
C1206 H1192 0.930 . S
C1206 C1204 1.395 . S
C1206 C1209 1.403 . S
C1207 C1204 1.403 . S
C1207 C1208 1.524 . S
C1207 C1211 1.400 . S
C1208 H1193 0.960 . S
C1208 H1194 0.960 . S
C1208 H1195 0.960 . S
C1208 C1207 1.524 . S
C1209 C1206 1.403 . S
C1209 C1210 1.392 . S
C1209 C1213 1.495 1_565 S
C1210 C1209 1.392 . S
C1210 C1211 1.385 . S
C1210 C1212 1.478 1_565 S
C1211 H1205 0.930 . S
C1211 C1207 1.400 . S
C1211 C1210 1.385 . S
C1212 C1210 1.478 1_545 S
C1212 C1214 1.381 . S
C1212 C1218 1.383 . S
C1213 C1209 1.495 1_545 S
C1213 H1219 0.959 1_545 S
C1213 H1220 0.961 . S
C1213 H1221 0.960 . S
C1214 C1212 1.381 . S
C1214 C1215 1.394 . S
C1214 H1222 0.930 . S
C1215 C1214 1.394 . S
C1215 C1216 1.383 . S
C1215 H1223 0.929 . S
C1216 C1215 1.383 . S
C1216 C1217 1.377 . S
C1217 H1201 0.930 . S
C1217 C1216 1.377 . S
C1217 C1218 1.379 . S
C1218 H1202 0.931 . S
C1218 C1212 1.383 . S
C1218 C1217 1.379 . S
H1219 C1213 0.959 1_565 S
H1220 C1213 0.961 . S
H1221 C1213 0.960 . S
H1222 C1214 0.930 . S
H1223 C1215 0.929 . S
H1224 C1232 0.929 . S
H1225 C1234 0.930 . S
H1226 C1236 0.930 . S
H1227 C1239 0.929 . S
H1228 C1242 0.930 . S
H1229 C1244 0.960 . S
H1230 C1244 0.960 . S
H1231 C1244 0.960 . S
C1232 H1224 0.929 . S
C1232 C1233 1.377 . S
C1232 C1234 1.384 1_545 S
C1233 C1232 1.377 . S
C1233 C1239 1.390 . S
C1234 H1225 0.930 . S
C1234 C1232 1.384 1_565 S
C1234 C1235 1.372 . S
C1235 C1234 1.372 . S
C1235 C1236 1.400 1_565 S
C1235 C1240 1.490 . S
C1236 H1226 0.930 . S
C1236 C1235 1.400 1_545 S
C1236 C1239 1.386 . S
H1237 C1253 0.930 . S
H1238 C1254 0.931 . S
C1239 H1227 0.929 . S
C1239 C1233 1.390 . S
C1239 C1236 1.386 . S
C1240 C1235 1.490 . S
C1240 C1242 1.395 . S
C1240 C1243 1.403 . S
H1241 C1247 0.930 . S
C1242 H1228 0.930 . S
C1242 C1240 1.395 . S
C1242 C1245 1.403 . S
C1243 C1240 1.403 . S
C1243 C1244 1.524 . S
C1243 C1247 1.400 . S
C1244 H1229 0.960 . S
C1244 H1230 0.960 . S
C1244 H1231 0.960 . S
C1244 C1243 1.524 . S
C1245 C1242 1.403 . S
C1245 C1246 1.392 . S
C1245 C1249 1.495 . S
C1246 C1245 1.392 . S
C1246 C1247 1.385 . S
C1246 C1248 1.478 . S
C1247 H1241 0.930 . S
C1247 C1243 1.400 . S
C1247 C1246 1.385 . S
C1248 C1246 1.478 . S
C1248 C1250 1.381 . S
C1248 C1254 1.383 1_455 S
C1249 C1245 1.495 . S
C1249 H1255 0.959 . S
C1249 H1256 0.961 . S
C1249 H1257 0.960 . S
C1250 C1248 1.381 . S
C1250 C1251 1.394 1_455 S
C1250 H1258 0.930 . S
C1251 C1250 1.394 1_655 S
C1251 C1252 1.383 . S
C1251 H1259 0.929 . S
C1252 C1251 1.383 . S
C1252 C1253 1.377 . S
C1253 H1237 0.930 . S
C1253 C1252 1.377 . S
C1253 C1254 1.379 . S
C1254 H1238 0.931 . S
C1254 C1248 1.383 1_655 S
C1254 C1253 1.379 . S
H1255 C1249 0.959 . S
H1256 C1249 0.961 . S
H1257 C1249 0.960 . S
H1258 C1250 0.930 . S
H1259 C1251 0.929 . S
H1260 C1268 0.928 . S
H1261 C1270 0.930 1_565 S
H1262 C1272 0.930 . S
H1263 C1275 0.929 . S
H1264 C1278 0.930 . S
H1265 C1280 0.960 . S
H1266 C1280 0.960 . S
H1267 C1280 0.960 . S
C1268 H1260 0.928 . S
C1268 C1269 1.377 . S
C1268 C1270 1.384 . S
C1269 C1268 1.377 . S
C1269 C1275 1.390 . S
C1270 H1261 0.930 1_545 S
C1270 C1268 1.384 . S
C1270 C1271 1.372 . S
C1271 C1270 1.372 . S
C1271 C1272 1.400 . S
C1271 C1276 1.490 . S
C1272 H1262 0.930 . S
C1272 C1271 1.400 . S
C1272 C1275 1.386 . S
H1273 C1289 0.930 . S
H1274 C1290 0.931 . S
C1275 H1263 0.929 . S
C1275 C1269 1.390 . S
C1275 C1272 1.386 . S
C1276 C1271 1.490 . S
C1276 C1278 1.395 1_545 S
C1276 C1279 1.403 . S
H1277 C1283 0.930 . S
C1278 H1264 0.930 . S
C1278 C1276 1.395 1_565 S
C1278 C1281 1.403 1_554 S
C1279 C1276 1.403 . S
C1279 C1280 1.524 . S
C1279 C1283 1.400 1_554 S
C1280 H1265 0.960 . S
C1280 H1266 0.960 . S
C1280 H1267 0.960 . S
C1280 C1279 1.524 . S
C1281 C1278 1.403 1_556 S
C1281 C1282 1.392 1_565 S
C1281 C1285 1.495 . S
C1282 C1281 1.392 1_545 S
C1282 C1283 1.385 . S
C1282 C1284 1.478 . S
C1283 H1277 0.930 . S
C1283 C1279 1.400 1_556 S
C1283 C1282 1.385 . S
C1284 C1282 1.478 . S
C1284 C1286 1.381 1_545 S
C1284 C1290 1.383 . S
C1285 C1281 1.495 . S
C1285 H1291 0.959 . S
C1285 H1292 0.961 . S
C1285 H1293 0.960 . S
C1286 C1284 1.381 1_565 S
C1286 C1287 1.394 1_565 S
C1286 H1294 0.930 . S
C1287 C1286 1.394 1_545 S
C1287 C1288 1.384 . S
C1287 H1295 0.929 1_545 S
C1288 C1287 1.384 . S
C1288 C1289 1.377 . S
C1289 H1273 0.930 . S
C1289 C1288 1.377 . S
C1289 C1290 1.379 . S
C1290 H1274 0.931 . S
C1290 C1284 1.383 . S
C1290 C1289 1.379 . S
H1291 C1285 0.959 . S
H1292 C1285 0.961 . S
H1293 C1285 0.960 . S
H1294 C1286 0.930 . S
H1295 C1287 0.929 1_565 S
H1296 C1304 0.929 . S
H1297 C1306 0.930 . S
H1298 C1308 0.930 . S
H1299 C1311 0.929 . S
H1300 C1314 0.930 . S
H1301 C1316 0.960 . S
H1302 C1316 0.960 . S
H1303 C1316 0.960 . S
C1304 H1296 0.929 . S
C1304 C1305 1.377 . S
C1304 C1306 1.384 . S
C1305 C1304 1.377 . S
C1305 C1311 1.390 1_455 S
C1306 H1297 0.930 . S
C1306 C1304 1.384 . S
C1306 C1307 1.372 . S
C1307 C1306 1.372 . S
C1307 C1308 1.400 1_455 S
C1307 C1312 1.490 . S
C1308 H1298 0.930 . S
C1308 C1307 1.400 1_655 S
C1308 C1311 1.386 . S
H1309 C1325 0.930 . S
H1310 C1326 0.931 . S
C1311 H1299 0.929 . S
C1311 C1305 1.390 1_655 S
C1311 C1308 1.386 . S
C1312 C1307 1.490 . S
C1312 C1314 1.395 . S
C1312 C1315 1.403 . S
H1313 C1319 0.930 . S
C1314 H1300 0.930 . S
C1314 C1312 1.395 . S
C1314 C1317 1.403 1_556 S
C1315 C1312 1.403 . S
C1315 C1316 1.524 . S
C1315 C1319 1.400 1_556 S
C1316 H1301 0.960 . S
C1316 H1302 0.960 . S
C1316 H1303 0.960 . S
C1316 C1315 1.524 . S
C1317 C1314 1.403 1_554 S
C1317 C1318 1.392 . S
C1317 C1321 1.495 . S
C1318 C1317 1.392 . S
C1318 C1319 1.385 . S
C1318 C1320 1.478 . S
C1319 H1313 0.930 . S
C1319 C1315 1.400 1_554 S
C1319 C1318 1.385 . S
C1320 C1318 1.478 . S
C1320 C1322 1.381 . S
C1320 C1326 1.383 1_455 S
C1321 C1317 1.495 . S
C1321 H1327 0.964 . S
C1321 H1328 0.961 1_455 S
C1321 H1329 0.960 . S
C1322 C1320 1.381 . S
C1322 C1323 1.394 . S
C1322 H1330 0.930 . S
C1323 C1322 1.394 . S
C1323 C1324 1.383 . S
C1323 H1331 0.929 . S
C1324 C1323 1.383 . S
C1324 C1325 1.377 1_455 S
C1325 H1309 0.930 . S
C1325 C1324 1.377 1_655 S
C1325 C1326 1.379 . S
C1326 H1310 0.931 . S
C1326 C1320 1.383 1_655 S
C1326 C1325 1.379 . S
H1327 C1321 0.964 . S
H1328 C1321 0.961 1_655 S
H1329 C1321 0.960 . S
H1330 C1322 0.930 . S
H1331 C1323 0.929 . S
H1332 C1340 0.929 . S
H1333 C1342 0.930 . S
H1334 C1344 0.930 . S
H1335 C1347 0.929 . S
H1336 C1350 0.930 . S
H1337 C1352 0.960 . S
H1338 C1352 0.960 . S
H1339 C1352 0.960 . S
C1340 H1332 0.929 . S
C1340 C1341 1.377 . S
C1340 C1342 1.384 . S
C1341 C1340 1.377 . S
C1341 C1347 1.390 . S
C1342 H1333 0.930 . S
C1342 C1340 1.384 . S
C1342 C1343 1.372 . S
C1343 C1342 1.372 . S
C1343 C1344 1.400 . S
C1343 C1348 1.490 . S
C1344 H1334 0.930 . S
C1344 C1343 1.400 . S
C1344 C1347 1.386 . S
H1345 C1361 0.930 . S
H1346 C1362 0.931 . S
C1347 H1335 0.929 . S
C1347 C1341 1.390 . S
C1347 C1344 1.386 . S
C1348 C1343 1.490 . S
C1348 C1350 1.395 . S
C1348 C1351 1.403 . S
H1349 C1355 0.930 . S
C1350 H1336 0.930 . S
C1350 C1348 1.395 . S
C1350 C1353 1.403 1_556 S
C1351 C1348 1.403 . S
C1351 C1352 1.524 . S
C1351 C1355 1.400 1_556 S
C1352 H1337 0.960 . S
C1352 H1338 0.960 . S
C1352 H1339 0.960 . S
C1352 C1351 1.524 . S
C1353 C1350 1.403 1_554 S
C1353 C1354 1.392 . S
C1353 C1357 1.495 . S
C1354 C1353 1.392 . S
C1354 C1355 1.385 . S
C1354 C1356 1.478 . S
C1355 H1349 0.930 . S
C1355 C1351 1.400 1_554 S
C1355 C1354 1.385 . S
C1356 C1354 1.478 . S
C1356 C1358 1.381 . S
C1356 C1362 1.383 . S
C1357 C1353 1.495 . S
C1357 H1363 0.959 . S
C1357 H1364 0.961 . S
C1357 H1365 0.960 . S
C1358 C1356 1.381 . S
C1358 C1359 1.394 . S
C1358 H1366 0.930 . S
C1359 C1358 1.394 . S
C1359 C1360 1.383 . S
C1359 H1367 0.929 . S
C1360 C1359 1.383 . S
C1360 C1361 1.377 . S
C1361 H1345 0.930 . S
C1361 C1360 1.377 . S
C1361 C1362 1.379 . S
C1362 H1346 0.931 . S
C1362 C1356 1.383 . S
C1362 C1361 1.379 . S
H1363 C1357 0.959 . S
H1364 C1357 0.961 . S
H1365 C1357 0.960 . S
H1366 C1358 0.930 . S
H1367 C1359 0.929 . S
H1368 C1376 0.929 . S
H1369 C1378 0.930 . S
H1370 C1380 0.930 . S
H1371 C1383 0.929 . S
H1372 C1386 0.930 . S
H1373 C1388 0.960 . S
H1374 C1388 0.960 . S
H1375 C1388 0.960 . S
C1376 H1368 0.929 . S
C1376 C1377 1.377 . S
C1376 C1378 1.384 . S
C1377 C1376 1.377 . S
C1377 C1383 1.390 . S
C1378 H1369 0.930 . S
C1378 C1376 1.384 . S
C1378 C1379 1.372 . S
C1379 C1378 1.372 . S
C1379 C1380 1.400 . S
C1379 C1384 1.490 . S
C1380 H1370 0.930 . S
C1380 C1379 1.400 . S
C1380 C1383 1.386 . S
H1381 C1397 0.930 . S
H1382 C1398 0.931 . S
C1383 H1371 0.929 . S
C1383 C1377 1.390 . S
C1383 C1380 1.386 . S
C1384 C1379 1.490 . S
C1384 C1386 1.395 . S
C1384 C1387 1.403 . S
H1385 C1391 0.930 . S
C1386 H1372 0.930 . S
C1386 C1384 1.395 . S
C1386 C1389 1.403 . S
C1387 C1384 1.403 . S
C1387 C1388 1.524 . S
C1387 C1391 1.400 . S
C1388 H1373 0.960 . S
C1388 H1374 0.960 . S
C1388 H1375 0.960 . S
C1388 C1387 1.524 . S
C1389 C1386 1.403 . S
C1389 C1390 1.392 . S
C1389 C1393 1.495 . S
C1390 C1389 1.392 . S
C1390 C1391 1.385 . S
C1390 C1392 1.478 . S
C1391 H1385 0.930 . S
C1391 C1387 1.400 . S
C1391 C1390 1.385 . S
C1392 C1390 1.478 . S
C1392 C1394 1.381 . S
C1392 C1398 1.383 . S
C1393 C1389 1.495 . S
C1393 H1399 0.959 . S
C1393 H1400 0.961 . S
C1393 H1401 0.960 . S
C1394 C1392 1.381 . S
C1394 C1395 1.394 . S
C1394 H1402 0.930 . S
C1395 C1394 1.394 . S
C1395 C1396 1.383 . S
C1395 H1403 0.929 . S
C1396 C1395 1.383 . S
C1396 C1397 1.377 . S
C1397 H1381 0.930 . S
C1397 C1396 1.377 . S
C1397 C1398 1.379 . S
C1398 H1382 0.931 . S
C1398 C1392 1.383 . S
C1398 C1397 1.379 . S
H1399 C1393 0.959 . S
H1400 C1393 0.961 . S
H1401 C1393 0.960 . S
H1402 C1394 0.930 . S
H1403 C1395 0.929 . S
H1404 C1412 0.929 . S
H1405 C1414 0.930 . S
H1406 C1416 0.930 . S
H1407 C1419 0.929 . S
H1408 C1422 0.930 . S
H1409 C1424 0.960 . S
H1410 C1424 0.960 . S
H1411 C1424 0.960 . S
C1412 H1404 0.929 . S
C1412 C1413 1.377 . S
C1412 C1414 1.384 . S
C1413 C1412 1.377 . S
C1413 C1419 1.390 . S
C1414 H1405 0.930 . S
C1414 C1412 1.384 . S
C1414 C1415 1.372 . S
C1415 C1414 1.372 . S
C1415 C1416 1.400 . S
C1415 C1420 1.490 . S
C1416 H1406 0.930 . S
C1416 C1415 1.400 . S
C1416 C1419 1.386 . S
H1417 C1433 0.930 . S
H1418 C1434 0.931 . S
C1419 H1407 0.929 . S
C1419 C1413 1.390 . S
C1419 C1416 1.386 . S
C1420 C1415 1.490 . S
C1420 C1422 1.395 . S
C1420 C1423 1.403 . S
H1421 C1427 0.930 . S
C1422 H1408 0.930 . S
C1422 C1420 1.395 . S
C1422 C1425 1.403 . S
C1423 C1420 1.403 . S
C1423 C1424 1.524 . S
C1423 C1427 1.400 . S
C1424 H1409 0.960 . S
C1424 H1410 0.960 . S
C1424 H1411 0.960 . S
C1424 C1423 1.524 . S
C1425 C1422 1.403 . S
C1425 C1426 1.392 . S
C1425 C1429 1.495 . S
C1426 C1425 1.392 . S
C1426 C1427 1.385 . S
C1426 C1428 1.478 . S
C1427 H1421 0.930 . S
C1427 C1423 1.400 . S
C1427 C1426 1.385 . S
C1428 C1426 1.478 . S
C1428 C1430 1.381 . S
C1428 C1434 1.383 . S
C1429 C1425 1.495 . S
C1429 H1435 0.959 . S
C1429 H1436 0.961 . S
C1429 H1437 0.960 . S
C1430 C1428 1.381 . S
C1430 C1431 1.394 . S
C1430 H1438 0.930 . S
C1431 C1430 1.394 . S
C1431 C1432 1.383 . S
C1431 H1439 0.929 . S
C1432 C1431 1.383 . S
C1432 C1433 1.377 . S
C1433 H1417 0.930 . S
C1433 C1432 1.377 . S
C1433 C1434 1.379 . S
C1434 H1418 0.931 . S
C1434 C1428 1.383 . S
C1434 C1433 1.379 . S
H1435 C1429 0.959 . S
H1436 C1429 0.961 . S
H1437 C1429 0.960 . S
H1438 C1430 0.930 . S
H1439 C1431 0.929 . S
H1440 C1448 0.929 . S
H1441 C1450 0.930 . S
H1442 C1452 0.930 . S
H1443 C1455 0.929 . S
H1444 C1458 0.930 . S
H1445 C1460 0.960 . S
H1446 C1460 0.960 . S
H1447 C1460 0.960 . S
C1448 H1440 0.929 . S
C1448 C1449 1.377 . S
C1448 C1450 1.384 . S
C1449 C1448 1.377 . S
C1449 C1455 1.390 . S
C1450 H1441 0.930 . S
C1450 C1448 1.384 . S
C1450 C1451 1.372 . S
C1451 C1450 1.372 . S
C1451 C1452 1.400 . S
C1451 C1456 1.490 . S
C1452 H1442 0.930 . S
C1452 C1451 1.400 . S
C1452 C1455 1.386 . S
H1453 C1469 0.930 . S
H1454 C1470 0.931 . S
C1455 H1443 0.929 . S
C1455 C1449 1.390 . S
C1455 C1452 1.386 . S
C1456 C1451 1.490 . S
C1456 C1458 1.395 . S
C1456 C1459 1.403 . S
H1457 C1463 0.930 . S
C1458 H1444 0.930 . S
C1458 C1456 1.395 . S
C1458 C1461 1.403 . S
C1459 C1456 1.403 . S
C1459 C1460 1.524 . S
C1459 C1463 1.400 . S
C1460 H1445 0.960 . S
C1460 H1446 0.960 . S
C1460 H1447 0.960 . S
C1460 C1459 1.524 . S
C1461 C1458 1.403 . S
C1461 C1462 1.392 . S
C1461 C1465 1.495 . S
C1462 C1461 1.392 . S
C1462 C1463 1.385 . S
C1462 C1464 1.478 . S
C1463 H1457 0.930 . S
C1463 C1459 1.400 . S
C1463 C1462 1.385 . S
C1464 C1462 1.478 . S
C1464 C1466 1.381 . S
C1464 C1470 1.383 . S
C1465 C1461 1.495 . S
C1465 H1471 0.959 . S
C1465 H1472 0.961 . S
C1465 H1473 0.960 . S
C1466 C1464 1.381 . S
C1466 C1467 1.394 . S
C1466 H1474 0.930 . S
C1467 C1466 1.394 . S
C1467 C1468 1.383 . S
C1467 H1475 0.929 . S
C1468 C1467 1.383 . S
C1468 C1469 1.377 . S
C1469 H1453 0.930 . S
C1469 C1468 1.377 . S
C1469 C1470 1.379 . S
C1470 H1454 0.931 . S
C1470 C1464 1.383 . S
C1470 C1469 1.379 . S
H1471 C1465 0.959 . S
H1472 C1465 0.961 . S
H1473 C1465 0.960 . S
H1474 C1466 0.930 . S
H1475 C1467 0.929 . S
H1476 C1484 0.929 . S
H1477 C1486 0.930 . S
H1478 C1488 0.930 . S
H1479 C1491 0.929 . S
H1480 C1494 0.930 . S
H1481 C1496 0.960 . S
H1482 C1496 0.960 . S
H1483 C1496 0.960 . S
C1484 H1476 0.929 . S
C1484 C1485 1.377 . S
C1484 C1486 1.384 . S
C1485 C1484 1.377 . S
C1485 C1491 1.390 . S
C1486 H1477 0.930 . S
C1486 C1484 1.384 . S
C1486 C1487 1.372 . S
C1487 C1486 1.372 . S
C1487 C1488 1.400 . S
C1487 C1492 1.490 . S
C1488 H1478 0.930 . S
C1488 C1487 1.400 . S
C1488 C1491 1.386 . S
H1489 C1505 0.930 . S
H1490 C1506 0.931 . S
C1491 H1479 0.929 . S
C1491 C1485 1.390 . S
C1491 C1488 1.386 . S
C1492 C1487 1.490 . S
C1492 C1494 1.395 . S
C1492 C1495 1.403 . S
H1493 C1499 0.930 . S
C1494 H1480 0.930 . S
C1494 C1492 1.395 . S
C1494 C1497 1.403 . S
C1495 C1492 1.403 . S
C1495 C1496 1.524 . S
C1495 C1499 1.400 . S
C1496 H1481 0.960 . S
C1496 H1482 0.960 . S
C1496 H1483 0.960 . S
C1496 C1495 1.524 . S
C1497 C1494 1.403 . S
C1497 C1498 1.392 . S
C1497 C1501 1.495 . S
C1498 C1497 1.392 . S
C1498 C1499 1.385 . S
C1498 C1500 1.478 . S
C1499 H1493 0.930 . S
C1499 C1495 1.400 . S
C1499 C1498 1.385 . S
C1500 C1498 1.478 . S
C1500 C1502 1.381 . S
C1500 C1506 1.383 . S
C1501 C1497 1.495 . S
C1501 H1507 0.959 . S
C1501 H1508 0.961 . S
C1501 H1509 0.960 . S
C1502 C1500 1.381 . S
C1502 C1503 1.394 . S
C1502 H1510 0.930 . S
C1503 C1502 1.394 . S
C1503 C1504 1.383 . S
C1503 H1511 0.929 . S
C1504 C1503 1.383 . S
C1504 C1505 1.377 . S
C1505 H1489 0.930 . S
C1505 C1504 1.377 . S
C1505 C1506 1.379 . S
C1506 H1490 0.931 . S
C1506 C1500 1.383 . S
C1506 C1505 1.379 . S
H1507 C1501 0.959 . S
H1508 C1501 0.961 . S
H1509 C1501 0.960 . S
H1510 C1502 0.930 . S
H1511 C1503 0.929 . S
H1512 C1520 0.929 . S
H1513 C1522 0.930 . S
H1514 C1524 0.930 . S
H1515 C1527 0.929 . S
H1516 C1530 0.930 . S
H1517 C1532 0.960 . S
H1518 C1532 0.960 . S
H1519 C1532 0.960 . S
C1520 H1512 0.929 . S
C1520 C1521 1.377 . S
C1520 C1522 1.384 . S
C1521 C1520 1.377 . S
C1521 C1527 1.390 . S
C1522 H1513 0.930 . S
C1522 C1520 1.384 . S
C1522 C1523 1.372 . S
C1523 C1522 1.372 . S
C1523 C1524 1.400 . S
C1523 C1528 1.490 . S
C1524 H1514 0.930 . S
C1524 C1523 1.400 . S
C1524 C1527 1.386 . S
H1525 C1541 0.930 . S
H1526 C1542 0.931 . S
C1527 H1515 0.929 . S
C1527 C1521 1.390 . S
C1527 C1524 1.386 . S
C1528 C1523 1.490 . S
C1528 C1530 1.395 . S
C1528 C1531 1.403 . S
H1529 C1535 0.930 . S
C1530 H1516 0.930 . S
C1530 C1528 1.395 . S
C1530 C1533 1.403 . S
C1531 C1528 1.403 . S
C1531 C1532 1.524 . S
C1531 C1535 1.400 . S
C1532 H1517 0.960 . S
C1532 H1518 0.960 . S
C1532 H1519 0.960 . S
C1532 C1531 1.524 . S
C1533 C1530 1.403 . S
C1533 C1534 1.392 . S
C1533 C1537 1.495 . S
C1534 C1533 1.392 . S
C1534 C1535 1.385 . S
C1534 C1536 1.478 . S
C1535 H1529 0.930 . S
C1535 C1531 1.400 . S
C1535 C1534 1.385 . S
C1536 C1534 1.478 . S
C1536 C1538 1.381 . S
C1536 C1542 1.383 . S
C1537 C1533 1.495 . S
C1537 H1543 0.959 . S
C1537 H1544 0.961 . S
C1537 H1545 0.960 . S
C1538 C1536 1.381 . S
C1538 C1539 1.394 . S
C1538 H1546 0.930 . S
C1539 C1538 1.394 . S
C1539 C1540 1.383 . S
C1539 H1547 0.929 . S
C1540 C1539 1.383 . S
C1540 C1541 1.377 . S
C1541 H1525 0.930 . S
C1541 C1540 1.377 . S
C1541 C1542 1.379 . S
C1542 H1526 0.931 . S
C1542 C1536 1.383 . S
C1542 C1541 1.379 . S
H1543 C1537 0.959 . S
H1544 C1537 0.961 . S
H1545 C1537 0.960 . S
H1546 C1538 0.930 . S
H1547 C1539 0.929 . S
H1548 C1556 0.929 . S
H1549 C1558 0.930 . S
H1550 C1560 0.930 . S
H1551 C1563 0.929 . S
H1552 C1566 0.930 . S
H1553 C1568 0.960 . S
H1554 C1568 0.960 . S
H1555 C1568 0.960 . S
C1556 H1548 0.929 . S
C1556 C1557 1.377 . S
C1556 C1558 1.384 . S
C1557 C1556 1.377 . S
C1557 C1563 1.390 . S
C1558 H1549 0.930 . S
C1558 C1556 1.384 . S
C1558 C1559 1.372 . S
C1559 C1558 1.372 . S
C1559 C1560 1.400 . S
C1559 C1564 1.490 . S
C1560 H1550 0.930 . S
C1560 C1559 1.400 . S
C1560 C1563 1.386 . S
H1561 C1577 0.930 . S
H1562 C1578 0.931 . S
C1563 H1551 0.929 . S
C1563 C1557 1.390 . S
C1563 C1560 1.386 . S
C1564 C1559 1.490 . S
C1564 C1566 1.395 . S
C1564 C1567 1.403 . S
H1565 C1571 0.930 . S
C1566 H1552 0.930 . S
C1566 C1564 1.395 . S
C1566 C1569 1.403 . S
C1567 C1564 1.403 . S
C1567 C1568 1.524 . S
C1567 C1571 1.400 . S
C1568 H1553 0.960 . S
C1568 H1554 0.960 . S
C1568 H1555 0.960 . S
C1568 C1567 1.524 . S
C1569 C1566 1.403 . S
C1569 C1570 1.392 . S
C1569 C1573 1.495 . S
C1570 C1569 1.392 . S
C1570 C1571 1.385 . S
C1570 C1572 1.478 . S
C1571 H1565 0.930 . S
C1571 C1567 1.400 . S
C1571 C1570 1.385 . S
C1572 C1570 1.478 . S
C1572 C1574 1.381 . S
C1572 C1578 1.383 . S
C1573 C1569 1.495 . S
C1573 H1579 0.959 . S
C1573 H1580 0.961 . S
C1573 H1581 0.960 . S
C1574 C1572 1.381 . S
C1574 C1575 1.394 . S
C1574 H1582 0.930 . S
C1575 C1574 1.394 . S
C1575 C1576 1.383 . S
C1575 H1583 0.929 . S
C1576 C1575 1.383 . S
C1576 C1577 1.377 . S
C1577 H1561 0.930 . S
C1577 C1576 1.377 . S
C1577 C1578 1.379 . S
C1578 H1562 0.931 . S
C1578 C1572 1.383 . S
C1578 C1577 1.379 . S
H1579 C1573 0.959 . S
H1580 C1573 0.961 . S
H1581 C1573 0.960 . S
H1582 C1574 0.930 . S
H1583 C1575 0.929 . S
H1584 C1592 0.929 . S
H1585 C1594 0.930 . S
H1586 C1596 0.930 . S
H1587 C1599 0.929 . S
H1588 C1602 0.930 . S
H1589 C1604 0.960 . S
H1590 C1604 0.960 . S
H1591 C1604 0.960 . S
C1592 H1584 0.929 . S
C1592 C1593 1.377 . S
C1592 C1594 1.384 . S
C1593 C1592 1.377 . S
C1593 C1599 1.390 . S
C1594 H1585 0.930 . S
C1594 C1592 1.384 . S
C1594 C1595 1.372 . S
C1595 C1594 1.372 . S
C1595 C1596 1.400 . S
C1595 C1600 1.490 . S
C1596 H1586 0.930 . S
C1596 C1595 1.400 . S
C1596 C1599 1.386 . S
H1597 C1613 0.930 . S
H1598 C1614 0.931 . S
C1599 H1587 0.929 . S
C1599 C1593 1.390 . S
C1599 C1596 1.386 . S
C1600 C1595 1.490 . S
C1600 C1602 1.395 . S
C1600 C1603 1.403 . S
H1601 C1607 0.930 . S
C1602 H1588 0.930 . S
C1602 C1600 1.395 . S
C1602 C1605 1.403 . S
C1603 C1600 1.403 . S
C1603 C1604 1.524 . S
C1603 C1607 1.400 . S
C1604 H1589 0.960 . S
C1604 H1590 0.960 . S
C1604 H1591 0.960 . S
C1604 C1603 1.524 . S
C1605 C1602 1.403 . S
C1605 C1606 1.392 . S
C1605 C1609 1.495 . S
C1606 C1605 1.392 . S
C1606 C1607 1.385 . S
C1606 C1608 1.478 . S
C1607 H1601 0.930 . S
C1607 C1603 1.400 . S
C1607 C1606 1.385 . S
C1608 C1606 1.478 . S
C1608 C1610 1.381 . S
C1608 C1614 1.383 1_565 S
C1609 C1605 1.495 . S
C1609 H1615 0.959 . S
C1609 H1616 0.961 . S
C1609 H1617 0.960 . S
C1610 C1608 1.381 . S
C1610 C1611 1.394 . S
C1610 H1618 0.930 . S
C1611 C1610 1.394 . S
C1611 C1612 1.383 . S
C1611 H1619 0.929 . S
C1612 C1611 1.383 . S
C1612 C1613 1.377 1_565 S
C1613 H1597 0.930 . S
C1613 C1612 1.377 1_545 S
C1613 C1614 1.379 . S
C1614 H1598 0.931 . S
C1614 C1608 1.383 1_545 S
C1614 C1613 1.379 . S
H1615 C1609 0.959 . S
H1616 C1609 0.961 . S
H1617 C1609 0.960 . S
H1618 C1610 0.930 . S
H1619 C1611 0.929 . S
H1620 C1628 0.929 . S
H1621 C1630 0.930 . S
H1622 C1632 0.930 . S
H1623 C1635 0.929 . S
H1624 C1638 0.930 . S
H1625 C1640 0.960 . S
H1626 C1640 0.960 . S
H1627 C1640 0.960 . S
C1628 H1620 0.929 . S
C1628 C1629 1.377 . S
C1628 C1630 1.384 . S
C1629 C1628 1.377 . S
C1629 C1635 1.390 . S
C1630 H1621 0.930 . S
C1630 C1628 1.384 . S
C1630 C1631 1.372 . S
C1631 C1630 1.372 . S
C1631 C1632 1.400 . S
C1631 C1636 1.490 . S
C1632 H1622 0.930 . S
C1632 C1631 1.400 . S
C1632 C1635 1.386 . S
H1633 C1649 0.930 . S
H1634 C1650 0.931 . S
C1635 H1623 0.929 . S
C1635 C1629 1.390 . S
C1635 C1632 1.386 . S
C1636 C1631 1.490 . S
C1636 C1638 1.395 . S
C1636 C1639 1.403 . S
H1637 C1643 0.930 . S
C1638 H1624 0.930 . S
C1638 C1636 1.395 . S
C1638 C1641 1.403 . S
C1639 C1636 1.403 . S
C1639 C1640 1.524 . S
C1639 C1643 1.400 . S
C1640 H1625 0.960 . S
C1640 H1626 0.960 . S
C1640 H1627 0.960 . S
C1640 C1639 1.524 . S
C1641 C1638 1.403 . S
C1641 C1642 1.392 . S
C1641 C1645 1.495 . S
C1642 C1641 1.392 . S
C1642 C1643 1.385 . S
C1642 C1644 1.478 . S
C1643 H1637 0.930 . S
C1643 C1639 1.400 . S
C1643 C1642 1.385 . S
C1644 C1642 1.478 . S
C1644 C1646 1.381 . S
C1644 C1650 1.383 . S
C1645 C1641 1.495 . S
C1645 H1651 0.959 . S
C1645 H1652 0.961 . S
C1645 H1653 0.960 . S
C1646 C1644 1.381 . S
C1646 C1647 1.394 . S
C1646 H1654 0.930 . S
C1647 C1646 1.394 . S
C1647 C1648 1.383 . S
C1647 H1655 0.929 . S
C1648 C1647 1.383 . S
C1648 C1649 1.377 . S
C1649 H1633 0.930 . S
C1649 C1648 1.377 . S
C1649 C1650 1.379 . S
C1650 H1634 0.931 . S
C1650 C1644 1.383 . S
C1650 C1649 1.379 . S
H1651 C1645 0.959 . S
H1652 C1645 0.961 . S
H1653 C1645 0.960 . S
H1654 C1646 0.930 . S
H1655 C1647 0.929 . S
H1656 C1664 0.929 . S
H1657 C1666 0.930 . S
H1658 C1668 0.930 . S
H1659 C1671 0.929 . S
H1660 C1674 0.930 . S
H1661 C1676 0.960 . S
H1662 C1676 0.960 . S
H1663 C1676 0.960 . S
C1664 H1656 0.929 . S
C1664 C1665 1.377 . S
C1664 C1666 1.384 . S
C1665 C1664 1.377 . S
C1665 C1671 1.390 . S
C1666 H1657 0.930 . S
C1666 C1664 1.384 . S
C1666 C1667 1.372 . S
C1667 C1666 1.372 . S
C1667 C1668 1.400 . S
C1667 C1672 1.490 . S
C1668 H1658 0.930 . S
C1668 C1667 1.400 . S
C1668 C1671 1.386 . S
H1669 C1685 0.930 . S
H1670 C1686 0.931 . S
C1671 H1659 0.929 . S
C1671 C1665 1.390 . S
C1671 C1668 1.386 . S
C1672 C1667 1.490 . S
C1672 C1674 1.395 . S
C1672 C1675 1.403 . S
H1673 C1679 0.930 . S
C1674 H1660 0.930 . S
C1674 C1672 1.395 . S
C1674 C1677 1.403 . S
C1675 C1672 1.403 . S
C1675 C1676 1.524 . S
C1675 C1679 1.400 . S
C1676 H1661 0.960 . S
C1676 H1662 0.960 . S
C1676 H1663 0.960 . S
C1676 C1675 1.524 . S
C1677 C1674 1.403 . S
C1677 C1678 1.392 . S
C1677 C1681 1.495 . S
C1678 C1677 1.392 . S
C1678 C1679 1.385 . S
C1678 C1680 1.478 . S
C1679 H1673 0.930 . S
C1679 C1675 1.400 . S
C1679 C1678 1.385 . S
C1680 C1678 1.478 . S
C1680 C1682 1.381 . S
C1680 C1686 1.383 . S
C1681 C1677 1.495 . S
C1681 H1687 0.959 . S
C1681 H1688 0.961 . S
C1681 H1689 0.960 . S
C1682 C1680 1.381 . S
C1682 C1683 1.394 . S
C1682 H1690 0.930 . S
C1683 C1682 1.394 . S
C1683 C1684 1.383 . S
C1683 H1691 0.929 . S
C1684 C1683 1.383 . S
C1684 C1685 1.377 . S
C1685 H1669 0.930 . S
C1685 C1684 1.377 . S
C1685 C1686 1.379 . S
C1686 H1670 0.931 . S
C1686 C1680 1.383 . S
C1686 C1685 1.379 . S
H1687 C1681 0.959 . S
H1688 C1681 0.961 . S
H1689 C1681 0.960 . S
H1690 C1682 0.930 . S
H1691 C1683 0.929 . S
H1692 C1700 0.929 . S
H1693 C1702 0.930 . S
H1694 C1704 0.930 . S
H1695 C1707 0.929 . S
H1696 C1710 0.930 . S
H1697 C1712 0.960 . S
H1698 C1712 0.960 . S
H1699 C1712 0.960 1_455 S
C1700 H1692 0.929 . S
C1700 C1701 1.377 . S
C1700 C1702 1.384 . S
C1701 C1700 1.377 . S
C1701 C1707 1.390 1_655 S
C1702 H1693 0.930 . S
C1702 C1700 1.384 . S
C1702 C1703 1.372 . S
C1703 C1702 1.372 . S
C1703 C1704 1.400 1_655 S
C1703 C1708 1.490 . S
C1704 H1694 0.930 . S
C1704 C1703 1.400 1_455 S
C1704 C1707 1.386 . S
H1705 C1721 0.930 . S
H1706 C1722 0.931 . S
C1707 H1695 0.929 . S
C1707 C1701 1.390 1_455 S
C1707 C1704 1.386 . S
C1708 C1703 1.490 . S
C1708 C1710 1.395 . S
C1708 C1711 1.403 . S
H1709 C1715 0.930 . S
C1710 H1696 0.930 . S
C1710 C1708 1.395 . S
C1710 C1713 1.403 . S
C1711 C1708 1.403 . S
C1711 C1712 1.524 . S
C1711 C1715 1.400 . S
C1712 H1697 0.960 . S
C1712 H1698 0.960 . S
C1712 H1699 0.960 1_655 S
C1712 C1711 1.524 . S
C1713 C1710 1.403 . S
C1713 C1714 1.392 . S
C1713 C1717 1.495 . S
C1714 C1713 1.392 . S
C1714 C1715 1.385 . S
C1714 C1716 1.478 . S
C1715 H1709 0.930 . S
C1715 C1711 1.400 . S
C1715 C1714 1.385 . S
C1716 C1714 1.478 . S
C1716 C1718 1.381 . S
C1716 C1722 1.383 . S
C1717 C1713 1.495 . S
C1717 H1723 0.959 . S
C1717 H1724 0.961 . S
C1717 H1725 0.960 . S
C1718 C1716 1.381 . S
C1718 C1719 1.394 . S
C1718 H1726 0.930 . S
C1719 C1718 1.394 . S
C1719 C1720 1.383 . S
C1719 H1727 0.929 . S
C1720 C1719 1.383 . S
C1720 C1721 1.377 . S
C1721 H1705 0.930 . S
C1721 C1720 1.377 . S
C1721 C1722 1.379 . S
C1722 H1706 0.931 . S
C1722 C1716 1.383 . S
C1722 C1721 1.379 . S
H1723 C1717 0.959 . S
H1724 C1717 0.961 . S
H1725 C1717 0.960 . S
H1726 C1718 0.930 . S
H1727 C1719 0.929 . S
H1728 C1736 0.929 . S
H1729 C1738 0.930 . S
H1730 C1740 0.930 . S
H1731 C1743 0.929 . S
H1732 C1746 0.930 . S
H1733 C1748 0.960 . S
H1734 C1748 0.960 . S
H1735 C1748 0.960 . S
C1736 H1728 0.929 . S
C1736 C1737 1.377 . S
C1736 C1738 1.384 . S
C1737 C1736 1.377 . S
C1737 C1743 1.390 . S
C1738 H1729 0.930 . S
C1738 C1736 1.384 . S
C1738 C1739 1.372 . S
C1739 C1738 1.372 . S
C1739 C1740 1.400 . S
C1739 C1744 1.490 . S
C1740 H1730 0.930 . S
C1740 C1739 1.400 . S
C1740 C1743 1.386 . S
H1741 C1757 0.930 . S
H1742 C1758 0.931 . S
C1743 H1731 0.929 . S
C1743 C1737 1.390 . S
C1743 C1740 1.386 . S
C1744 C1739 1.490 . S
C1744 C1746 1.395 . S
C1744 C1747 1.403 . S
H1745 C1751 0.930 . S
C1746 H1732 0.930 . S
C1746 C1744 1.395 . S
C1746 C1749 1.403 . S
C1747 C1744 1.403 . S
C1747 C1748 1.524 . S
C1747 C1751 1.400 . S
C1748 H1733 0.960 . S
C1748 H1734 0.960 . S
C1748 H1735 0.960 . S
C1748 C1747 1.524 . S
C1749 C1746 1.403 . S
C1749 C1750 1.392 . S
C1749 C1753 1.495 . S
C1750 C1749 1.392 . S
C1750 C1751 1.385 . S
C1750 C1752 1.478 . S
C1751 H1745 0.930 . S
C1751 C1747 1.400 . S
C1751 C1750 1.385 . S
C1752 C1750 1.478 . S
C1752 C1754 1.381 . S
C1752 C1758 1.383 . S
C1753 C1749 1.495 . S
C1753 H1759 0.959 . S
C1753 H1760 0.961 . S
C1753 H1761 0.960 . S
C1754 C1752 1.381 . S
C1754 C1755 1.394 . S
C1754 H1762 0.930 . S
C1755 C1754 1.394 . S
C1755 C1756 1.383 . S
C1755 H1763 0.929 . S
C1756 C1755 1.383 . S
C1756 C1757 1.377 . S
C1757 H1741 0.930 . S
C1757 C1756 1.377 . S
C1757 C1758 1.379 . S
C1758 H1742 0.931 . S
C1758 C1752 1.383 . S
C1758 C1757 1.379 . S
H1759 C1753 0.959 . S
H1760 C1753 0.961 . S
H1761 C1753 0.960 . S
H1762 C1754 0.930 . S
H1763 C1755 0.929 . S
H1764 C1772 0.929 . S
H1765 C1774 0.930 . S
H1766 C1776 0.930 . S
H1767 C1779 0.929 . S
H1768 C1782 0.930 . S
H1769 C1784 0.960 . S
H1770 C1784 0.960 . S
H1771 C1784 0.960 . S
C1772 H1764 0.929 . S
C1772 C1773 1.377 . S
C1772 C1774 1.384 . S
C1773 C1772 1.377 . S
C1773 C1779 1.390 . S
C1774 H1765 0.930 . S
C1774 C1772 1.384 . S
C1774 C1775 1.372 . S
C1775 C1774 1.372 . S
C1775 C1776 1.400 . S
C1775 C1780 1.490 . S
C1776 H1766 0.930 . S
C1776 C1775 1.400 . S
C1776 C1779 1.386 . S
H1777 C1793 0.930 1_565 S
H1778 C1794 0.931 . S
C1779 H1767 0.929 . S
C1779 C1773 1.390 . S
C1779 C1776 1.386 . S
C1780 C1775 1.490 . S
C1780 C1782 1.395 . S
C1780 C1783 1.403 . S
H1781 C1787 0.930 . S
C1782 H1768 0.930 . S
C1782 C1780 1.395 . S
C1782 C1785 1.403 . S
C1783 C1780 1.403 . S
C1783 C1784 1.524 . S
C1783 C1787 1.400 . S
C1784 H1769 0.960 . S
C1784 H1770 0.960 . S
C1784 H1771 0.960 . S
C1784 C1783 1.524 . S
C1785 C1782 1.403 . S
C1785 C1786 1.392 . S
C1785 C1789 1.495 . S
C1786 C1785 1.392 . S
C1786 C1787 1.385 . S
C1786 C1788 1.478 . S
C1787 H1781 0.930 . S
C1787 C1783 1.400 . S
C1787 C1786 1.385 . S
C1788 C1786 1.478 . S
C1788 C1790 1.381 . S
C1788 C1794 1.383 . S
C1789 C1785 1.495 . S
C1789 H1795 0.959 . S
C1789 H1796 0.961 . S
C1789 H1797 0.960 . S
C1790 C1788 1.381 . S
C1790 C1791 1.394 . S
C1790 H1798 0.930 . S
C1791 C1790 1.394 . S
C1791 C1792 1.383 . S
C1791 H1799 0.929 . S
C1792 C1791 1.383 . S
C1792 C1793 1.377 . S
C1793 H1777 0.930 1_545 S
C1793 C1792 1.377 . S
C1793 C1794 1.379 . S
C1794 H1778 0.931 . S
C1794 C1788 1.383 . S
C1794 C1793 1.379 . S
H1795 C1789 0.959 . S
H1796 C1789 0.961 . S
H1797 C1789 0.960 . S
H1798 C1790 0.930 . S
H1799 C1791 0.929 . S
H1800 C1808 0.929 . S
H1801 C1810 0.930 1_455 S
H1802 C1812 0.930 . S
H1803 C1815 0.929 . S
H1804 C1818 0.930 . S
H1805 C1820 0.960 . S
H1806 C1820 0.960 . S
H1807 C1820 0.960 . S
C1808 H1800 0.929 . S
C1808 C1809 1.377 . S
C1808 C1810 1.384 . S
C1809 C1808 1.377 . S
C1809 C1815 1.390 . S
C1810 H1801 0.930 1_655 S
C1810 C1808 1.384 . S
C1810 C1811 1.372 . S
C1811 C1810 1.372 . S
C1811 C1812 1.400 . S
C1811 C1816 1.495 . S
C1812 H1802 0.930 . S
C1812 C1811 1.400 . S
C1812 C1815 1.386 . S
H1813 C1829 0.930 . S
H1814 C1830 0.931 . S
C1815 H1803 0.929 . S
C1815 C1809 1.390 . S
C1815 C1812 1.386 . S
C1816 C1811 1.495 . S
C1816 C1818 1.383 1_655 S
C1816 C1819 1.408 . S
H1817 C1823 0.930 1_655 S
C1818 H1804 0.930 . S
C1818 C1816 1.383 1_455 S
C1818 C1821 1.403 . S
C1819 C1816 1.408 . S
C1819 C1820 1.524 . S
C1819 C1823 1.400 1_655 S
C1820 H1805 0.960 . S
C1820 H1806 0.960 . S
C1820 H1807 0.960 . S
C1820 C1819 1.524 . S
C1821 C1818 1.403 . S
C1821 C1822 1.392 . S
C1821 C1825 1.495 . S
C1822 C1821 1.392 . S
C1822 C1823 1.385 . S
C1822 C1824 1.478 . S
C1823 H1817 0.930 1_455 S
C1823 C1819 1.400 1_455 S
C1823 C1822 1.385 . S
C1824 C1822 1.478 . S
C1824 C1826 1.381 . S
C1824 C1830 1.383 . S
C1825 C1821 1.495 . S
C1825 H1831 0.959 . S
C1825 H1832 0.961 . S
C1825 H1833 0.960 . S
C1826 C1824 1.381 . S
C1826 C1827 1.394 . S
C1826 H1834 0.930 . S
C1827 C1826 1.394 . S
C1827 C1828 1.383 . S
C1827 H1835 0.929 . S
C1828 C1827 1.383 . S
C1828 C1829 1.377 . S
C1829 H1813 0.930 . S
C1829 C1828 1.377 . S
C1829 C1830 1.379 . S
C1830 H1814 0.931 . S
C1830 C1824 1.383 . S
C1830 C1829 1.379 . S
H1831 C1825 0.959 . S
H1832 C1825 0.961 . S
H1833 C1825 0.960 . S
H1834 C1826 0.930 . S
H1835 C1827 0.929 . S
H1836 C1844 0.929 . S
H1837 C1846 0.930 . S
H1838 C1848 0.930 . S
H1839 C1851 0.929 . S
H1840 C1854 0.930 . S
H1841 C1856 0.960 . S
H1842 C1856 0.960 . S
H1843 C1856 0.960 . S
C1844 H1836 0.929 . S
C1844 C1845 1.377 . S
C1844 C1846 1.384 . S
C1845 C1844 1.377 . S
C1845 C1851 1.390 . S
C1846 H1837 0.930 . S
C1846 C1844 1.384 . S
C1846 C1847 1.372 . S
C1847 C1846 1.372 . S
C1847 C1848 1.400 . S
C1847 C1852 1.490 . S
C1848 H1838 0.930 . S
C1848 C1847 1.400 . S
C1848 C1851 1.386 . S
H1849 C1865 0.930 . S
H1850 C1866 0.931 . S
C1851 H1839 0.929 . S
C1851 C1845 1.390 . S
C1851 C1848 1.386 . S
C1852 C1847 1.490 . S
C1852 C1854 1.395 . S
C1852 C1855 1.403 . S
H1853 C1859 0.930 . S
C1854 H1840 0.930 . S
C1854 C1852 1.395 . S
C1854 C1857 1.403 . S
C1855 C1852 1.403 . S
C1855 C1856 1.524 . S
C1855 C1859 1.400 . S
C1856 H1841 0.960 . S
C1856 H1842 0.960 . S
C1856 H1843 0.960 . S
C1856 C1855 1.524 . S
C1857 C1854 1.403 . S
C1857 C1858 1.392 . S
C1857 C1861 1.495 . S
C1858 C1857 1.392 . S
C1858 C1859 1.385 . S
C1858 C1860 1.478 . S
C1859 H1853 0.930 . S
C1859 C1855 1.400 . S
C1859 C1858 1.385 . S
C1860 C1858 1.478 . S
C1860 C1862 1.381 . S
C1860 C1866 1.383 . S
C1861 C1857 1.495 . S
C1861 H1867 0.959 . S
C1861 H1868 0.961 . S
C1861 H1869 0.960 . S
C1862 C1860 1.381 . S
C1862 C1863 1.394 . S
C1862 H1870 0.930 . S
C1863 C1862 1.394 . S
C1863 C1864 1.383 . S
C1863 H1871 0.929 . S
C1864 C1863 1.383 . S
C1864 C1865 1.377 . S
C1865 H1849 0.930 . S
C1865 C1864 1.377 . S
C1865 C1866 1.379 . S
C1866 H1850 0.931 . S
C1866 C1860 1.383 . S
C1866 C1865 1.379 . S
H1867 C1861 0.959 . S
H1868 C1861 0.961 . S
H1869 C1861 0.960 . S
H1870 C1862 0.930 . S
H1871 C1863 0.929 . S
H1872 C1880 0.929 . S
H1873 C1882 0.930 . S
H1874 C1884 0.930 . S
H1875 C1887 0.929 . S
H1876 C1890 0.930 . S
H1877 C1892 0.960 . S
H1878 C1892 0.960 . S
H1879 C1892 0.960 . S
C1880 H1872 0.929 . S
C1880 C1881 1.377 . S
C1880 C1882 1.384 . S
C1881 C1880 1.377 . S
C1881 C1887 1.390 . S
C1882 H1873 0.930 . S
C1882 C1880 1.384 . S
C1882 C1883 1.372 . S
C1883 C1882 1.372 . S
C1883 C1884 1.400 . S
C1883 C1888 1.490 . S
C1884 H1874 0.930 . S
C1884 C1883 1.400 . S
C1884 C1887 1.386 . S
H1885 C1901 0.930 . S
H1886 C1902 0.931 . S
C1887 H1875 0.929 . S
C1887 C1881 1.390 . S
C1887 C1884 1.386 . S
C1888 C1883 1.490 . S
C1888 C1890 1.395 . S
C1888 C1891 1.403 1_565 S
H1889 C1895 0.930 . S
C1890 H1876 0.930 . S
C1890 C1888 1.395 . S
C1890 C1893 1.403 . S
C1891 C1888 1.403 1_545 S
C1891 C1892 1.524 . S
C1891 C1895 1.400 . S
C1892 H1877 0.960 . S
C1892 H1878 0.960 . S
C1892 H1879 0.960 . S
C1892 C1891 1.524 . S
C1893 C1890 1.403 . S
C1893 C1894 1.392 1_565 S
C1893 C1897 1.495 . S
C1894 C1893 1.392 1_545 S
C1894 C1895 1.385 . S
C1894 C1896 1.478 . S
C1895 H1889 0.930 . S
C1895 C1891 1.400 . S
C1895 C1894 1.385 . S
C1896 C1894 1.478 . S
C1896 C1898 1.381 . S
C1896 C1902 1.383 . S
C1897 C1893 1.495 . S
C1897 H1903 0.959 . S
C1897 H1904 0.961 . S
C1897 H1905 0.960 . S
C1898 C1896 1.381 . S
C1898 C1899 1.394 . S
C1898 H1906 0.930 . S
C1899 C1898 1.394 . S
C1899 C1900 1.383 . S
C1899 H1907 0.929 . S
C1900 C1899 1.383 . S
C1900 C1901 1.377 . S
C1901 H1885 0.930 . S
C1901 C1900 1.377 . S
C1901 C1902 1.379 . S
C1902 H1886 0.931 . S
C1902 C1896 1.383 . S
C1902 C1901 1.379 . S
H1903 C1897 0.959 . S
H1904 C1897 0.961 . S
H1905 C1897 0.960 . S
H1906 C1898 0.930 . S
H1907 C1899 0.929 . S
H1908 C1916 0.929 . S
H1909 C1918 0.930 . S
H1910 C1920 0.930 . S
H1911 C1923 0.929 . S
H1912 C1926 0.930 . S
H1913 C1928 0.960 . S
H1914 C1928 0.960 . S
H1915 C1928 0.960 . S
C1916 H1908 0.929 . S
C1916 C1917 1.377 . S
C1916 C1918 1.384 . S
C1917 C1916 1.377 . S
C1917 C1923 1.390 . S
C1918 H1909 0.930 . S
C1918 C1916 1.384 . S
C1918 C1919 1.372 . S
C1919 C1918 1.372 . S
C1919 C1920 1.400 . S
C1919 C1924 1.490 . S
C1920 H1910 0.930 . S
C1920 C1919 1.400 . S
C1920 C1923 1.386 . S
H1921 C1937 0.930 . S
H1922 C1938 0.931 . S
C1923 H1911 0.929 . S
C1923 C1917 1.390 . S
C1923 C1920 1.386 . S
C1924 C1919 1.490 . S
C1924 C1926 1.395 . S
C1924 C1927 1.403 . S
H1925 C1931 0.930 . S
C1926 H1912 0.930 . S
C1926 C1924 1.395 . S
C1926 C1929 1.403 . S
C1927 C1924 1.403 . S
C1927 C1928 1.524 . S
C1927 C1931 1.400 . S
C1928 H1913 0.960 . S
C1928 H1914 0.960 . S
C1928 H1915 0.960 . S
C1928 C1927 1.524 . S
C1929 C1926 1.403 . S
C1929 C1930 1.392 . S
C1929 C1933 1.495 . S
C1930 C1929 1.392 . S
C1930 C1931 1.385 . S
C1930 C1932 1.478 . S
C1931 H1925 0.930 . S
C1931 C1927 1.400 . S
C1931 C1930 1.385 . S
C1932 C1930 1.478 . S
C1932 C1934 1.381 . S
C1932 C1938 1.383 . S
C1933 C1929 1.495 . S
C1933 H1939 0.959 . S
C1933 H1940 0.961 . S
C1933 H1941 0.960 . S
C1934 C1932 1.381 . S
C1934 C1935 1.394 . S
C1934 H1942 0.930 . S
C1935 C1934 1.394 . S
C1935 C1936 1.383 . S
C1935 H1943 0.929 . S
C1936 C1935 1.383 . S
C1936 C1937 1.377 . S
C1937 H1921 0.930 . S
C1937 C1936 1.377 . S
C1937 C1938 1.379 . S
C1938 H1922 0.931 . S
C1938 C1932 1.383 . S
C1938 C1937 1.379 . S
H1939 C1933 0.959 . S
H1940 C1933 0.961 . S
H1941 C1933 0.960 . S
H1942 C1934 0.930 . S
H1943 C1935 0.929 . S
H1944 C1952 0.929 . S
H1945 C1954 0.930 . S
H1946 C1956 0.930 . S
H1947 C1959 0.929 . S
H1948 C1962 0.930 . S
H1949 C1964 0.960 . S
H1950 C1964 0.960 . S
H1951 C1964 0.960 . S
C1952 H1944 0.929 . S
C1952 C1953 1.377 . S
C1952 C1954 1.384 . S
C1953 C1952 1.377 . S
C1953 C1959 1.390 . S
C1954 H1945 0.930 . S
C1954 C1952 1.384 . S
C1954 C1955 1.372 . S
C1955 C1954 1.372 . S
C1955 C1956 1.400 . S
C1955 C1960 1.490 . S
C1956 H1946 0.930 . S
C1956 C1955 1.400 . S
C1956 C1959 1.386 . S
H1957 C1973 0.930 . S
H1958 C1974 0.931 . S
C1959 H1947 0.929 . S
C1959 C1953 1.390 . S
C1959 C1956 1.386 . S
C1960 C1955 1.490 . S
C1960 C1962 1.395 . S
C1960 C1963 1.403 . S
H1961 C1967 0.930 . S
C1962 H1948 0.930 . S
C1962 C1960 1.395 . S
C1962 C1965 1.403 . S
C1963 C1960 1.403 . S
C1963 C1964 1.524 . S
C1963 C1967 1.400 . S
C1964 H1949 0.960 . S
C1964 H1950 0.960 . S
C1964 H1951 0.960 . S
C1964 C1963 1.524 . S
C1965 C1962 1.403 . S
C1965 C1966 1.392 . S
C1965 C1969 1.495 . S
C1966 C1965 1.392 . S
C1966 C1967 1.385 . S
C1966 C1968 1.478 . S
C1967 H1961 0.930 . S
C1967 C1963 1.400 . S
C1967 C1966 1.385 . S
C1968 C1966 1.478 . S
C1968 C1970 1.381 . S
C1968 C1974 1.383 . S
C1969 C1965 1.495 . S
C1969 H1975 0.959 . S
C1969 H1976 0.961 . S
C1969 H1977 0.960 . S
C1970 C1968 1.381 . S
C1970 C1971 1.394 . S
C1970 H1978 0.930 . S
C1971 C1970 1.394 . S
C1971 C1972 1.383 . S
C1971 H1979 0.929 . S
C1972 C1971 1.383 . S
C1972 C1973 1.377 . S
C1973 H1957 0.930 . S
C1973 C1972 1.377 . S
C1973 C1974 1.379 . S
C1974 H1958 0.931 . S
C1974 C1968 1.383 . S
C1974 C1973 1.379 . S
H1975 C1969 0.959 . S
H1976 C1969 0.961 . S
H1977 C1969 0.960 . S
H1978 C1970 0.930 . S
H1979 C1971 0.929 . S
H1980 C1988 0.929 . S
H1981 C1990 0.930 . S
H1982 C1992 0.930 . S
H1983 C1995 0.929 . S
H1984 C1998 0.930 . S
H1985 C2000 0.960 . S
H1986 C2000 0.960 . S
H1987 C2000 0.960 . S
C1988 H1980 0.929 . S
C1988 C1989 1.377 . S
C1988 C1990 1.384 . S
C1989 C1988 1.377 . S
C1989 C1995 1.390 . S
C1990 H1981 0.930 . S
C1990 C1988 1.384 . S
C1990 C1991 1.372 . S
C1991 C1990 1.372 . S
C1991 C1992 1.400 . S
C1991 C1996 1.490 . S
C1992 H1982 0.930 . S
C1992 C1991 1.400 . S
C1992 C1995 1.386 . S
H1993 C2009 0.930 . S
H1994 C2010 0.931 . S
C1995 H1983 0.929 . S
C1995 C1989 1.390 . S
C1995 C1992 1.386 . S
C1996 C1991 1.490 . S
C1996 C1998 1.395 . S
C1996 C1999 1.403 . S
H1997 C2003 0.930 . S
C1998 H1984 0.930 . S
C1998 C1996 1.395 . S
C1998 C2001 1.403 . S
C1999 C1996 1.403 . S
C1999 C2000 1.524 . S
C1999 C2003 1.400 . S
C2000 H1985 0.960 . S
C2000 H1986 0.960 . S
C2000 H1987 0.960 . S
C2000 C1999 1.524 . S
C2001 C1998 1.403 . S
C2001 C2002 1.392 . S
C2001 C2005 1.495 . S
C2002 C2001 1.392 . S
C2002 C2003 1.385 . S
C2002 C2004 1.478 . S
C2003 H1997 0.930 . S
C2003 C1999 1.400 . S
C2003 C2002 1.385 . S
C2004 C2002 1.478 . S
C2004 C2006 1.381 . S
C2004 C2010 1.383 . S
C2005 C2001 1.495 . S
C2005 H2011 0.959 . S
C2005 H2012 0.961 . S
C2005 H2013 0.960 . S
C2006 C2004 1.381 . S
C2006 C2007 1.394 . S
C2006 H2014 0.930 . S
C2007 C2006 1.394 . S
C2007 C2008 1.383 . S
C2007 H2015 0.929 . S
C2008 C2007 1.383 . S
C2008 C2009 1.377 . S
C2009 H1993 0.930 . S
C2009 C2008 1.377 . S
C2009 C2010 1.379 . S
C2010 H1994 0.931 . S
C2010 C2004 1.383 . S
C2010 C2009 1.379 . S
H2011 C2005 0.959 . S
H2012 C2005 0.961 . S
H2013 C2005 0.960 . S
H2014 C2006 0.930 . S
H2015 C2007 0.929 . S
H2016 C2024 0.929 . S
H2017 C2026 0.930 . S
H2018 C2028 0.930 . S
H2019 C2031 0.929 . S
H2020 C2034 0.930 . S
H2021 C2036 0.960 . S
H2022 C2036 0.960 . S
H2023 C2036 0.960 . S
C2024 H2016 0.929 . S
C2024 C2025 1.377 . S
C2024 C2026 1.384 . S
C2025 C2024 1.377 . S
C2025 C2031 1.390 . S
C2026 H2017 0.930 . S
C2026 C2024 1.384 . S
C2026 C2027 1.372 . S
C2027 C2026 1.372 . S
C2027 C2028 1.400 . S
C2027 C2032 1.490 . S
C2028 H2018 0.930 . S
C2028 C2027 1.400 . S
C2028 C2031 1.386 . S
H2029 C2045 0.930 . S
H2030 C2046 0.931 . S
C2031 H2019 0.929 . S
C2031 C2025 1.390 . S
C2031 C2028 1.386 . S
C2032 C2027 1.490 . S
C2032 C2034 1.395 . S
C2032 C2035 1.403 . S
H2033 C2039 0.930 . S
C2034 H2020 0.930 . S
C2034 C2032 1.395 . S
C2034 C2037 1.403 . S
C2035 C2032 1.403 . S
C2035 C2036 1.524 . S
C2035 C2039 1.400 . S
C2036 H2021 0.960 . S
C2036 H2022 0.960 . S
C2036 H2023 0.960 . S
C2036 C2035 1.524 . S
C2037 C2034 1.403 . S
C2037 C2038 1.392 . S
C2037 C2041 1.495 . S
C2038 C2037 1.392 . S
C2038 C2039 1.385 . S
C2038 C2040 1.478 . S
C2039 H2033 0.930 . S
C2039 C2035 1.400 . S
C2039 C2038 1.385 . S
C2040 C2038 1.478 . S
C2040 C2042 1.381 . S
C2040 C2046 1.383 . S
C2041 C2037 1.495 . S
C2041 H2047 0.959 . S
C2041 H2048 0.961 . S
C2041 H2049 0.960 . S
C2042 C2040 1.381 . S
C2042 C2043 1.394 . S
C2042 H2050 0.930 . S
C2043 C2042 1.394 . S
C2043 C2044 1.383 . S
C2043 H2051 0.929 . S
C2044 C2043 1.383 . S
C2044 C2045 1.377 . S
C2045 H2029 0.930 . S
C2045 C2044 1.377 . S
C2045 C2046 1.379 . S
C2046 H2030 0.931 . S
C2046 C2040 1.383 . S
C2046 C2045 1.379 . S
H2047 C2041 0.959 . S
H2048 C2041 0.961 . S
H2049 C2041 0.960 . S
H2050 C2042 0.930 . S
H2051 C2043 0.929 . S
H2052 C2060 0.929 . S
H2053 C2062 0.930 . S
H2054 C2064 0.930 . S
H2055 C2067 0.929 . S
H2056 C2070 0.930 . S
H2057 C2072 0.960 . S
H2058 C2072 0.960 . S
H2059 C2072 0.960 . S
C2060 H2052 0.929 . S
C2060 C2061 1.377 . S
C2060 C2062 1.384 . S
C2061 C2060 1.377 . S
C2061 C2067 1.390 . S
C2062 H2053 0.930 . S
C2062 C2060 1.384 . S
C2062 C2063 1.372 . S
C2063 C2062 1.372 . S
C2063 C2064 1.400 . S
C2063 C2068 1.490 . S
C2064 H2054 0.930 . S
C2064 C2063 1.400 . S
C2064 C2067 1.386 . S
H2065 C2081 0.930 . S
H2066 C2082 0.931 . S
C2067 H2055 0.929 . S
C2067 C2061 1.390 . S
C2067 C2064 1.386 . S
C2068 C2063 1.490 . S
C2068 C2070 1.395 . S
C2068 C2071 1.403 . S
H2069 C2075 0.930 . S
C2070 H2056 0.930 . S
C2070 C2068 1.395 . S
C2070 C2073 1.403 . S
C2071 C2068 1.403 . S
C2071 C2072 1.524 . S
C2071 C2075 1.400 . S
C2072 H2057 0.960 . S
C2072 H2058 0.960 . S
C2072 H2059 0.960 . S
C2072 C2071 1.524 . S
C2073 C2070 1.403 . S
C2073 C2074 1.392 . S
C2073 C2077 1.495 . S
C2074 C2073 1.392 . S
C2074 C2075 1.385 . S
C2074 C2076 1.478 . S
C2075 H2069 0.930 . S
C2075 C2071 1.400 . S
C2075 C2074 1.385 . S
C2076 C2074 1.478 . S
C2076 C2078 1.381 . S
C2076 C2082 1.383 . S
C2077 C2073 1.495 . S
C2077 H2083 0.959 . S
C2077 H2084 0.961 . S
C2077 H2085 0.960 . S
C2078 C2076 1.381 . S
C2078 C2079 1.394 . S
C2078 H2086 0.930 . S
C2079 C2078 1.394 . S
C2079 C2080 1.383 . S
C2079 H2087 0.929 . S
C2080 C2079 1.383 . S
C2080 C2081 1.377 . S
C2081 H2065 0.930 . S
C2081 C2080 1.377 . S
C2081 C2082 1.379 . S
C2082 H2066 0.931 . S
C2082 C2076 1.383 . S
C2082 C2081 1.379 . S
H2083 C2077 0.959 . S
H2084 C2077 0.961 . S
H2085 C2077 0.960 . S
H2086 C2078 0.930 . S
H2087 C2079 0.929 . S
H2088 C2096 0.929 . S
H2089 C2098 0.930 . S
H2090 C2100 0.930 . S
H2091 C2103 0.929 . S
H2092 C2106 0.930 . S
H2093 C2108 0.960 . S
H2094 C2108 0.960 . S
H2095 C2108 0.960 . S
C2096 H2088 0.929 . S
C2096 C2097 1.377 . S
C2096 C2098 1.384 . S
C2097 C2096 1.377 . S
C2097 C2103 1.390 . S
C2098 H2089 0.930 . S
C2098 C2096 1.384 . S
C2098 C2099 1.372 . S
C2099 C2098 1.372 . S
C2099 C2100 1.400 . S
C2099 C2104 1.490 . S
C2100 H2090 0.930 . S
C2100 C2099 1.400 . S
C2100 C2103 1.386 . S
H2101 C2117 0.930 . S
H2102 C2118 0.931 . S
C2103 H2091 0.929 . S
C2103 C2097 1.390 . S
C2103 C2100 1.386 . S
C2104 C2099 1.490 . S
C2104 C2106 1.395 . S
C2104 C2107 1.403 . S
H2105 C2111 0.930 . S
C2106 H2092 0.930 . S
C2106 C2104 1.395 . S
C2106 C2109 1.403 . S
C2107 C2104 1.403 . S
C2107 C2108 1.524 . S
C2107 C2111 1.400 . S
C2108 H2093 0.960 . S
C2108 H2094 0.960 . S
C2108 H2095 0.960 . S
C2108 C2107 1.524 . S
C2109 C2106 1.403 . S
C2109 C2110 1.392 . S
C2109 C2113 1.495 . S
C2110 C2109 1.392 . S
C2110 C2111 1.385 . S
C2110 C2112 1.478 . S
C2111 H2105 0.930 . S
C2111 C2107 1.400 . S
C2111 C2110 1.385 . S
C2112 C2110 1.478 . S
C2112 C2114 1.381 . S
C2112 C2118 1.383 . S
C2113 C2109 1.495 . S
C2113 H2119 0.959 . S
C2113 H2120 0.961 . S
C2113 H2121 0.960 . S
C2114 C2112 1.381 . S
C2114 C2115 1.394 . S
C2114 H2122 0.930 . S
C2115 C2114 1.394 . S
C2115 C2116 1.383 . S
C2115 H2123 0.929 . S
C2116 C2115 1.383 . S
C2116 C2117 1.377 . S
C2117 H2101 0.930 . S
C2117 C2116 1.377 . S
C2117 C2118 1.379 . S
C2118 H2102 0.931 . S
C2118 C2112 1.383 . S
C2118 C2117 1.379 . S
H2119 C2113 0.959 . S
H2120 C2113 0.961 . S
H2121 C2113 0.960 . S
H2122 C2114 0.930 . S
H2123 C2115 0.929 . S
H2124 C2132 0.929 . S
H2125 C2134 0.930 . S
H2126 C2136 0.930 . S
H2127 C2139 0.929 . S
H2128 C2142 0.930 . S
H2129 C2144 0.960 . S
H2130 C2144 0.960 . S
H2131 C2144 0.960 . S
C2132 H2124 0.929 . S
C2132 C2133 1.377 . S
C2132 C2134 1.384 . S
C2133 C2132 1.377 . S
C2133 C2139 1.390 . S
C2134 H2125 0.930 . S
C2134 C2132 1.384 . S
C2134 C2135 1.372 . S
C2135 C2134 1.372 . S
C2135 C2136 1.400 . S
C2135 C2140 1.490 . S
C2136 H2126 0.930 . S
C2136 C2135 1.400 . S
C2136 C2139 1.386 . S
H2137 C2153 0.930 . S
H2138 C2154 0.931 . S
C2139 H2127 0.929 . S
C2139 C2133 1.390 . S
C2139 C2136 1.386 . S
C2140 C2135 1.490 . S
C2140 C2142 1.395 . S
C2140 C2143 1.403 . S
H2141 C2147 0.930 . S
C2142 H2128 0.930 . S
C2142 C2140 1.395 . S
C2142 C2145 1.403 . S
C2143 C2140 1.403 . S
C2143 C2144 1.524 . S
C2143 C2147 1.400 . S
C2144 H2129 0.960 . S
C2144 H2130 0.960 . S
C2144 H2131 0.960 . S
C2144 C2143 1.524 . S
C2145 C2142 1.403 . S
C2145 C2146 1.392 . S
C2145 C2149 1.495 . S
C2146 C2145 1.392 . S
C2146 C2147 1.385 . S
C2146 C2148 1.478 . S
C2147 H2141 0.930 . S
C2147 C2143 1.400 . S
C2147 C2146 1.385 . S
C2148 C2146 1.478 . S
C2148 C2150 1.381 . S
C2148 C2154 1.383 . S
C2149 C2145 1.495 . S
C2149 H2155 0.959 . S
C2149 H2156 0.961 . S
C2149 H2157 0.960 . S
C2150 C2148 1.381 . S
C2150 C2151 1.394 . S
C2150 H2158 0.930 . S
C2151 C2150 1.394 . S
C2151 C2152 1.383 . S
C2151 H2159 0.929 . S
C2152 C2151 1.383 . S
C2152 C2153 1.377 . S
C2153 H2137 0.930 . S
C2153 C2152 1.377 . S
C2153 C2154 1.379 . S
C2154 H2138 0.931 . S
C2154 C2148 1.383 . S
C2154 C2153 1.379 . S
H2155 C2149 0.959 . S
H2156 C2149 0.961 . S
H2157 C2149 0.960 . S
H2158 C2150 0.930 . S
H2159 C2151 0.929 . S
H2160 C2168 0.929 . S
H2161 C2170 0.930 . S
H2162 C2172 0.930 . S
H2163 C2175 0.929 . S
H2164 C2178 0.930 . S
H2165 C2180 0.960 . S
H2166 C2180 0.960 . S
H2167 C2180 0.960 . S
C2168 H2160 0.929 . S
C2168 C2169 1.377 . S
C2168 C2170 1.384 . S
C2169 C2168 1.377 . S
C2169 C2175 1.390 . S
C2170 H2161 0.930 . S
C2170 C2168 1.384 . S
C2170 C2171 1.372 . S
C2171 C2170 1.372 . S
C2171 C2172 1.400 . S
C2171 C2176 1.490 . S
C2172 H2162 0.930 . S
C2172 C2171 1.400 . S
C2172 C2175 1.386 . S
H2173 C2189 0.930 . S
H2174 C2190 0.931 . S
C2175 H2163 0.929 . S
C2175 C2169 1.390 . S
C2175 C2172 1.386 . S
C2176 C2171 1.490 . S
C2176 C2178 1.395 . S
C2176 C2179 1.403 . S
H2177 C2183 0.930 . S
C2178 H2164 0.930 . S
C2178 C2176 1.395 . S
C2178 C2181 1.403 . S
C2179 C2176 1.403 . S
C2179 C2180 1.524 . S
C2179 C2183 1.400 . S
C2180 H2165 0.960 . S
C2180 H2166 0.960 . S
C2180 H2167 0.960 . S
C2180 C2179 1.524 . S
C2181 C2178 1.403 . S
C2181 C2182 1.392 . S
C2181 C2185 1.495 . S
C2182 C2181 1.392 . S
C2182 C2183 1.385 . S
C2182 C2184 1.478 . S
C2183 H2177 0.930 . S
C2183 C2179 1.400 . S
C2183 C2182 1.385 . S
C2184 C2182 1.478 . S
C2184 C2186 1.381 . S
C2184 C2190 1.383 . S
C2185 C2181 1.495 . S
C2185 H2191 0.959 . S
C2185 H2192 0.961 . S
C2185 H2193 0.960 . S
C2186 C2184 1.381 . S
C2186 C2187 1.394 . S
C2186 H2194 0.930 . S
C2187 C2186 1.394 . S
C2187 C2188 1.383 . S
C2187 H2195 0.929 . S
C2188 C2187 1.383 . S
C2188 C2189 1.377 . S
C2189 H2173 0.930 . S
C2189 C2188 1.377 . S
C2189 C2190 1.379 . S
C2190 H2174 0.931 . S
C2190 C2184 1.383 . S
C2190 C2189 1.379 . S
H2191 C2185 0.959 . S
H2192 C2185 0.961 . S
H2193 C2185 0.960 . S
H2194 C2186 0.930 . S
H2195 C2187 0.929 . S
H2196 C2204 0.929 . S
H2197 C2206 0.930 . S
H2198 C2208 0.930 . S
H2199 C2211 0.929 . S
H2200 C2214 0.930 . S
H2201 C2216 0.960 . S
H2202 C2216 0.960 . S
H2203 C2216 0.960 . S
C2204 H2196 0.929 . S
C2204 C2205 1.377 . S
C2204 C2206 1.384 . S
C2205 C2204 1.377 . S
C2205 C2211 1.390 . S
C2206 H2197 0.930 . S
C2206 C2204 1.384 . S
C2206 C2207 1.372 . S
C2207 C2206 1.372 . S
C2207 C2208 1.400 . S
C2207 C2212 1.490 . S
C2208 H2198 0.930 . S
C2208 C2207 1.400 . S
C2208 C2211 1.386 . S
H2209 C2225 0.930 . S
H2210 C2226 0.931 . S
C2211 H2199 0.929 . S
C2211 C2205 1.390 . S
C2211 C2208 1.386 . S
C2212 C2207 1.490 . S
C2212 C2214 1.395 . S
C2212 C2215 1.403 . S
H2213 C2219 0.930 . S
C2214 H2200 0.930 . S
C2214 C2212 1.395 . S
C2214 C2217 1.403 . S
C2215 C2212 1.403 . S
C2215 C2216 1.524 . S
C2215 C2219 1.400 . S
C2216 H2201 0.960 . S
C2216 H2202 0.960 . S
C2216 H2203 0.960 . S
C2216 C2215 1.524 . S
C2217 C2214 1.403 . S
C2217 C2218 1.392 . S
C2217 C2221 1.495 . S
C2218 C2217 1.392 . S
C2218 C2219 1.385 . S
C2218 C2220 1.478 . S
C2219 H2213 0.930 . S
C2219 C2215 1.400 . S
C2219 C2218 1.385 . S
C2220 C2218 1.478 . S
C2220 C2222 1.381 . S
C2220 C2226 1.383 . S
C2221 C2217 1.495 . S
C2221 H2227 0.959 . S
C2221 H2228 0.961 . S
C2221 H2229 0.960 . S
C2222 C2220 1.381 . S
C2222 C2223 1.394 . S
C2222 H2230 0.930 . S
C2223 C2222 1.394 . S
C2223 C2224 1.383 . S
C2223 H2231 0.929 . S
C2224 C2223 1.383 . S
C2224 C2225 1.377 . S
C2225 H2209 0.930 . S
C2225 C2224 1.377 . S
C2225 C2226 1.379 . S
C2226 H2210 0.931 . S
C2226 C2220 1.383 . S
C2226 C2225 1.379 . S
H2227 C2221 0.959 . S
H2228 C2221 0.961 . S
H2229 C2221 0.960 . S
H2230 C2222 0.930 . S
H2231 C2223 0.929 . S
H2232 C2240 0.929 . S
H2233 C2242 0.930 . S
H2234 C2244 0.930 . S
H2235 C2247 0.929 . S
H2236 C2250 0.930 . S
H2237 C2252 0.960 . S
H2238 C2252 0.960 . S
H2239 C2252 0.960 . S
C2240 H2232 0.929 . S
C2240 C2241 1.377 . S
C2240 C2242 1.384 . S
C2241 C2240 1.377 . S
C2241 C2247 1.390 . S
C2242 H2233 0.930 . S
C2242 C2240 1.384 . S
C2242 C2243 1.372 . S
C2243 C2242 1.372 . S
C2243 C2244 1.400 . S
C2243 C2248 1.490 . S
C2244 H2234 0.930 . S
C2244 C2243 1.400 . S
C2244 C2247 1.386 . S
H2245 C2261 0.930 . S
H2246 C2262 0.931 . S
C2247 H2235 0.929 . S
C2247 C2241 1.390 . S
C2247 C2244 1.386 . S
C2248 C2243 1.490 . S
C2248 C2250 1.395 . S
C2248 C2251 1.403 . S
H2249 C2255 0.930 . S
C2250 H2236 0.930 . S
C2250 C2248 1.395 . S
C2250 C2253 1.403 . S
C2251 C2248 1.403 . S
C2251 C2252 1.524 . S
C2251 C2255 1.400 . S
C2252 H2237 0.960 . S
C2252 H2238 0.960 . S
C2252 H2239 0.960 . S
C2252 C2251 1.524 . S
C2253 C2250 1.403 . S
C2253 C2254 1.392 . S
C2253 C2257 1.505 . S
C2254 C2253 1.392 . S
C2254 C2255 1.385 . S
C2254 C2256 1.478 1_655 S
C2255 H2249 0.930 . S
C2255 C2251 1.400 . S
C2255 C2254 1.385 . S
C2256 C2254 1.478 1_455 S
C2256 C2258 1.381 . S
C2256 C2262 1.383 . S
C2257 C2253 1.505 . S
C2257 H2263 0.984 . S
C2257 H2264 0.947 1_655 S
C2257 H2265 0.941 1_655 S
C2258 C2256 1.381 . S
C2258 C2259 1.394 . S
C2258 H2266 0.930 . S
C2259 C2258 1.394 . S
C2259 C2260 1.383 . S
C2259 H2267 0.929 . S
C2260 C2259 1.383 . S
C2260 C2261 1.377 . S
C2261 H2245 0.930 . S
C2261 C2260 1.377 . S
C2261 C2262 1.379 . S
C2262 H2246 0.931 . S
C2262 C2256 1.383 . S
C2262 C2261 1.379 . S
H2263 C2257 0.984 . S
H2264 C2257 0.947 1_455 S
H2265 C2257 0.941 1_455 S
H2266 C2258 0.930 . S
H2267 C2259 0.929 . S
H2268 C2276 0.929 1_565 S
H2269 C2278 0.930 . S
H2270 C2280 0.930 . S
H2271 C2283 0.929 1_565 S
H2272 C2286 0.930 . S
H2273 C2288 0.960 . S
H2274 C2288 0.960 . S
H2275 C2288 0.960 . S
C2276 H2268 0.929 1_545 S
C2276 C2277 1.377 1_545 S
C2276 C2278 1.384 . S
C2277 C2276 1.377 1_565 S
C2277 C2283 1.390 1_565 S
C2278 H2269 0.930 . S
C2278 C2276 1.384 . S
C2278 C2279 1.372 . S
C2279 C2278 1.372 . S
C2279 C2280 1.400 . S
C2279 C2284 1.490 . S
C2280 H2270 0.930 . S
C2280 C2279 1.400 . S
C2280 C2283 1.386 . S
H2281 C2297 0.930 . S
H2282 C2298 0.931 . S
C2283 H2271 0.929 1_545 S
C2283 C2277 1.390 1_545 S
C2283 C2280 1.386 . S
C2284 C2279 1.490 . S
C2284 C2286 1.395 . S
C2284 C2287 1.403 . S
H2285 C2291 0.930 . S
C2286 H2272 0.930 . S
C2286 C2284 1.395 . S
C2286 C2289 1.403 . S
C2287 C2284 1.403 . S
C2287 C2288 1.524 . S
C2287 C2291 1.400 . S
C2288 H2273 0.960 . S
C2288 H2274 0.960 . S
C2288 H2275 0.960 . S
C2288 C2287 1.524 . S
C2289 C2286 1.403 . S
C2289 C2290 1.392 . S
C2289 C2293 1.495 . S
C2290 C2289 1.392 . S
C2290 C2291 1.385 . S
C2290 C2292 1.478 . S
C2291 H2285 0.930 . S
C2291 C2287 1.400 . S
C2291 C2290 1.385 . S
C2292 C2290 1.478 . S
C2292 C2294 1.381 . S
C2292 C2298 1.383 . S
C2293 C2289 1.495 . S
C2293 H2299 0.959 . S
C2293 H2300 0.961 . S
C2293 H2301 0.960 . S
C2294 C2292 1.381 . S
C2294 C2295 1.394 . S
C2294 H2302 0.930 . S
C2295 C2294 1.394 . S
C2295 C2296 1.383 . S
C2295 H2303 0.929 . S
C2296 C2295 1.383 . S
C2296 C2297 1.377 . S
C2297 H2281 0.930 . S
C2297 C2296 1.377 . S
C2297 C2298 1.379 . S
C2298 H2282 0.931 . S
C2298 C2292 1.383 . S
C2298 C2297 1.379 . S
H2299 C2293 0.959 . S
H2300 C2293 0.961 . S
H2301 C2293 0.960 . S
H2302 C2294 0.930 . S
H2303 C2295 0.929 . S
H2304 C2312 0.929 . S
H2305 C2314 0.930 1_545 S
H2306 C2316 0.930 1_545 S
H2307 C2319 0.929 . S
H2308 C2322 0.930 . S
H2309 C2324 0.960 . S
H2310 C2324 0.960 . S
H2311 C2324 0.960 . S
C2312 H2304 0.929 . S
C2312 C2313 1.377 . S
C2312 C2314 1.384 . S
C2313 C2312 1.377 . S
C2313 C2319 1.390 . S
C2314 H2305 0.930 1_565 S
C2314 C2312 1.384 . S
C2314 C2315 1.372 1_565 S
C2315 C2314 1.372 1_545 S
C2315 C2316 1.400 1_545 S
C2315 C2320 1.490 . S
C2316 H2306 0.930 1_565 S
C2316 C2315 1.400 1_565 S
C2316 C2319 1.386 . S
H2317 C2333 0.930 . S
H2318 C2334 0.931 . S
C2319 H2307 0.929 . S
C2319 C2313 1.390 . S
C2319 C2316 1.386 . S
C2320 C2315 1.490 . S
C2320 C2322 1.395 . S
C2320 C2323 1.403 . S
H2321 C2327 0.930 . S
C2322 H2308 0.930 . S
C2322 C2320 1.395 . S
C2322 C2325 1.403 . S
C2323 C2320 1.403 . S
C2323 C2324 1.524 . S
C2323 C2327 1.400 . S
C2324 H2309 0.960 . S
C2324 H2310 0.960 . S
C2324 H2311 0.960 . S
C2324 C2323 1.524 . S
C2325 C2322 1.403 . S
C2325 C2326 1.392 . S
C2325 C2329 1.495 . S
C2326 C2325 1.392 . S
C2326 C2327 1.385 . S
C2326 C2328 1.478 . S
C2327 H2321 0.930 . S
C2327 C2323 1.400 . S
C2327 C2326 1.385 . S
C2328 C2326 1.478 . S
C2328 C2330 1.381 . S
C2328 C2334 1.383 1_655 S
C2329 C2325 1.495 . S
C2329 H2335 0.959 . S
C2329 H2336 0.961 1_655 S
C2329 H2337 0.960 . S
C2330 C2328 1.381 . S
C2330 C2331 1.394 1_655 S
C2330 H2338 0.930 . S
C2331 C2330 1.394 1_455 S
C2331 C2332 1.383 . S
C2331 H2339 0.929 . S
C2332 C2331 1.383 . S
C2332 C2333 1.377 . S
C2333 H2317 0.930 . S
C2333 C2332 1.377 . S
C2333 C2334 1.379 . S
C2334 H2318 0.931 . S
C2334 C2328 1.383 1_455 S
C2334 C2333 1.379 . S
H2335 C2329 0.959 . S
H2336 C2329 0.961 1_455 S
H2337 C2329 0.960 . S
H2338 C2330 0.930 . S
H2339 C2331 0.929 . S
H2340 C2348 0.929 . S
H2341 C2350 0.930 . S
H2342 C2352 0.930 . S
H2343 C2355 0.929 . S
H2344 C2358 0.930 . S
H2345 C2360 0.960 . S
H2346 C2360 0.960 . S
H2347 C2360 0.960 . S
C2348 H2340 0.929 . S
C2348 C2349 1.377 . S
C2348 C2350 1.384 . S
C2349 C2348 1.377 . S
C2349 C2355 1.390 . S
C2350 H2341 0.930 . S
C2350 C2348 1.384 . S
C2350 C2351 1.372 . S
C2351 C2350 1.372 . S
C2351 C2352 1.400 . S
C2351 C2356 1.490 . S
C2352 H2342 0.930 . S
C2352 C2351 1.400 . S
C2352 C2355 1.386 . S
H2353 C2369 0.930 . S
H2354 C2370 0.931 . S
C2355 H2343 0.929 . S
C2355 C2349 1.390 . S
C2355 C2352 1.386 . S
C2356 C2351 1.490 . S
C2356 C2358 1.395 . S
C2356 C2359 1.403 . S
H2357 C2363 0.930 . S
C2358 H2344 0.930 . S
C2358 C2356 1.395 . S
C2358 C2361 1.403 . S
C2359 C2356 1.403 . S
C2359 C2360 1.524 . S
C2359 C2363 1.400 . S
C2360 H2345 0.960 . S
C2360 H2346 0.960 . S
C2360 H2347 0.960 . S
C2360 C2359 1.524 . S
C2361 C2358 1.403 . S
C2361 C2362 1.392 . S
C2361 C2365 1.495 . S
C2362 C2361 1.392 . S
C2362 C2363 1.385 . S
C2362 C2364 1.478 1_565 S
C2363 H2357 0.930 . S
C2363 C2359 1.400 . S
C2363 C2362 1.385 . S
C2364 C2362 1.478 1_545 S
C2364 C2366 1.381 . S
C2364 C2370 1.383 . S
C2365 C2361 1.495 . S
C2365 H2371 0.959 . S
C2365 H2372 0.961 . S
C2365 H2373 0.960 . S
C2366 C2364 1.381 . S
C2366 C2367 1.394 . S
C2366 H2374 0.930 . S
C2367 C2366 1.394 . S
C2367 C2368 1.383 . S
C2367 H2375 0.929 . S
C2368 C2367 1.383 . S
C2368 C2369 1.377 . S
C2369 H2353 0.930 . S
C2369 C2368 1.377 . S
C2369 C2370 1.379 . S
C2370 H2354 0.931 . S
C2370 C2364 1.383 . S
C2370 C2369 1.379 . S
H2371 C2365 0.959 . S
H2372 C2365 0.961 . S
H2373 C2365 0.960 . S
H2374 C2366 0.930 . S
H2375 C2367 0.929 . S
H2376 C2384 0.929 . S
H2377 C2386 0.930 . S
H2378 C2388 0.930 . S
H2379 C2391 0.929 . S
H2380 C2394 0.930 . S
H2381 C2396 0.960 . S
H2382 C2396 0.960 . S
H2383 C2396 0.960 . S
C2384 H2376 0.929 . S
C2384 C2385 1.377 . S
C2384 C2386 1.384 1_545 S
C2385 C2384 1.377 . S
C2385 C2391 1.390 . S
C2386 H2377 0.930 . S
C2386 C2384 1.384 1_565 S
C2386 C2387 1.372 . S
C2387 C2386 1.372 . S
C2387 C2388 1.400 1_565 S
C2387 C2392 1.490 . S
C2388 H2378 0.930 . S
C2388 C2387 1.400 1_545 S
C2388 C2391 1.386 . S
H2389 C2405 0.930 . S
H2390 C2406 0.931 . S
C2391 H2379 0.929 . S
C2391 C2385 1.390 . S
C2391 C2388 1.386 . S
C2392 C2387 1.490 . S
C2392 C2394 1.395 . S
C2392 C2395 1.403 . S
H2393 C2399 0.930 . S
C2394 H2380 0.930 . S
C2394 C2392 1.395 . S
C2394 C2397 1.403 . S
C2395 C2392 1.403 . S
C2395 C2396 1.524 . S
C2395 C2399 1.400 . S
C2396 H2381 0.960 . S
C2396 H2382 0.960 . S
C2396 H2383 0.960 . S
C2396 C2395 1.524 . S
C2397 C2394 1.403 . S
C2397 C2398 1.392 . S
C2397 C2401 1.495 . S
C2398 C2397 1.392 . S
C2398 C2399 1.385 . S
C2398 C2400 1.478 . S
C2399 H2393 0.930 . S
C2399 C2395 1.400 . S
C2399 C2398 1.385 . S
C2400 C2398 1.478 . S
C2400 C2402 1.381 . S
C2400 C2406 1.383 1_455 S
C2401 C2397 1.495 . S
C2401 H2407 0.959 . S
C2401 H2408 0.961 . S
C2401 H2409 0.960 . S
C2402 C2400 1.381 . S
C2402 C2403 1.394 1_455 S
C2402 H2410 0.930 . S
C2403 C2402 1.394 1_655 S
C2403 C2404 1.383 . S
C2403 H2411 0.929 . S
C2404 C2403 1.383 . S
C2404 C2405 1.377 . S
C2405 H2389 0.930 . S
C2405 C2404 1.377 . S
C2405 C2406 1.379 . S
C2406 H2390 0.931 . S
C2406 C2400 1.383 1_655 S
C2406 C2405 1.379 . S
H2407 C2401 0.959 . S
H2408 C2401 0.961 . S
H2409 C2401 0.960 . S
H2410 C2402 0.930 . S
H2411 C2403 0.929 . S
H2412 C2420 0.929 . S
H2413 C2422 0.930 . S
H2414 C2424 0.930 . S
H2415 C2427 0.929 . S
H2416 C2430 0.930 . S
H2417 C2432 0.960 . S
H2418 C2432 0.960 . S
H2419 C2432 0.960 . S
C2420 H2412 0.929 . S
C2420 C2421 1.377 . S
C2420 C2422 1.384 . S
C2421 C2420 1.377 . S
C2421 C2427 1.390 . S
C2422 H2413 0.930 . S
C2422 C2420 1.384 . S
C2422 C2423 1.372 . S
C2423 C2422 1.372 . S
C2423 C2424 1.400 . S
C2423 C2428 1.490 . S
C2424 H2414 0.930 . S
C2424 C2423 1.400 . S
C2424 C2427 1.386 . S
H2425 C2441 0.930 1_655 S
H2426 C2442 0.931 . S
C2427 H2415 0.929 . S
C2427 C2421 1.390 . S
C2427 C2424 1.386 . S
C2428 C2423 1.490 . S
C2428 C2430 1.395 . S
C2428 C2431 1.403 . S
H2429 C2435 0.930 . S
C2430 H2416 0.930 . S
C2430 C2428 1.395 . S
C2430 C2433 1.403 . S
C2431 C2428 1.403 . S
C2431 C2432 1.524 . S
C2431 C2435 1.400 . S
C2432 H2417 0.960 . S
C2432 H2418 0.960 . S
C2432 H2419 0.960 . S
C2432 C2431 1.524 . S
C2433 C2430 1.403 . S
C2433 C2434 1.392 . S
C2433 C2437 1.495 . S
C2434 C2433 1.392 . S
C2434 C2435 1.385 . S
C2434 C2436 1.478 . S
C2435 H2429 0.930 . S
C2435 C2431 1.400 . S
C2435 C2434 1.385 . S
C2436 C2434 1.478 . S
C2436 C2438 1.381 . S
C2436 C2442 1.383 . S
C2437 C2433 1.495 . S
C2437 H2443 0.959 . S
C2437 H2444 0.961 . S
C2437 H2445 0.960 . S
C2438 C2436 1.381 . S
C2438 C2439 1.394 . S
C2438 H2446 0.930 . S
C2439 C2438 1.394 . S
C2439 C2440 1.383 1_455 S
C2439 H2447 0.929 1_455 S
C2440 C2439 1.383 1_655 S
C2440 C2441 1.377 1_655 S
C2441 H2425 0.930 1_455 S
C2441 C2440 1.377 1_455 S
C2441 C2442 1.379 . S
C2442 H2426 0.931 . S
C2442 C2436 1.383 . S
C2442 C2441 1.379 . S
H2443 C2437 0.959 . S
H2444 C2437 0.961 . S
H2445 C2437 0.960 . S
H2446 C2438 0.930 . S
H2447 C2439 0.929 1_655 S
H2448 C2456 0.929 . S
H2449 C2458 0.930 . S
H2450 C2460 0.930 . S
H2451 C2463 0.929 . S
H2452 C2466 0.930 . S
H2453 C2468 0.960 . S
H2454 C2468 0.960 . S
H2455 C2468 0.960 . S
C2456 H2448 0.929 . S
C2456 C2457 1.377 . S
C2456 C2458 1.384 . S
C2457 C2456 1.377 . S
C2457 C2463 1.390 . S
C2458 H2449 0.930 . S
C2458 C2456 1.384 . S
C2458 C2459 1.372 . S
C2459 C2458 1.372 . S
C2459 C2460 1.400 . S
C2459 C2464 1.490 . S
C2460 H2450 0.930 . S
C2460 C2459 1.400 . S
C2460 C2463 1.386 . S
H2461 C2477 0.930 . S
H2462 C2478 0.931 . S
C2463 H2451 0.929 . S
C2463 C2457 1.390 . S
C2463 C2460 1.386 . S
C2464 C2459 1.490 . S
C2464 C2466 1.395 . S
C2464 C2467 1.403 . S
H2465 C2471 0.930 . S
C2466 H2452 0.930 . S
C2466 C2464 1.395 . S
C2466 C2469 1.403 . S
C2467 C2464 1.403 . S
C2467 C2468 1.524 . S
C2467 C2471 1.400 . S
C2468 H2453 0.960 . S
C2468 H2454 0.960 . S
C2468 H2455 0.960 . S
C2468 C2467 1.524 . S
C2469 C2466 1.403 . S
C2469 C2470 1.392 . S
C2469 C2473 1.495 . S
C2470 C2469 1.392 . S
C2470 C2471 1.385 . S
C2470 C2472 1.478 . S
C2471 H2465 0.930 . S
C2471 C2467 1.400 . S
C2471 C2470 1.385 . S
C2472 C2470 1.478 . S
C2472 C2474 1.381 . S
C2472 C2478 1.383 . S
C2473 C2469 1.495 . S
C2473 H2479 0.959 . S
C2473 H2480 0.961 . S
C2473 H2481 0.960 . S
C2474 C2472 1.381 . S
C2474 C2475 1.394 . S
C2474 H2482 0.930 . S
C2475 C2474 1.394 . S
C2475 C2476 1.383 . S
C2475 H2483 0.929 . S
C2476 C2475 1.383 . S
C2476 C2477 1.377 . S
C2477 H2461 0.930 . S
C2477 C2476 1.377 . S
C2477 C2478 1.379 . S
C2478 H2462 0.931 . S
C2478 C2472 1.383 . S
C2478 C2477 1.379 . S
H2479 C2473 0.959 . S
H2480 C2473 0.961 . S
H2481 C2473 0.960 . S
H2482 C2474 0.930 . S
H2483 C2475 0.929 . S
H2484 C2492 0.929 . S
H2485 C2494 0.930 . S
H2486 C2496 0.930 . S
H2487 C2499 0.929 . S
H2488 C2502 0.930 . S
H2489 C2504 0.960 . S
H2490 C2504 0.960 . S
H2491 C2504 0.960 . S
C2492 H2484 0.929 . S
C2492 C2493 1.377 . S
C2492 C2494 1.384 . S
C2493 C2492 1.377 . S
C2493 C2499 1.390 . S
C2494 H2485 0.930 . S
C2494 C2492 1.384 . S
C2494 C2495 1.372 . S
C2495 C2494 1.372 . S
C2495 C2496 1.400 . S
C2495 C2500 1.490 . S
C2496 H2486 0.930 . S
C2496 C2495 1.400 . S
C2496 C2499 1.386 . S
H2497 C2513 0.930 . S
H2498 C2514 0.931 . S
C2499 H2487 0.929 . S
C2499 C2493 1.390 . S
C2499 C2496 1.386 . S
C2500 C2495 1.490 . S
C2500 C2502 1.395 . S
C2500 C2503 1.403 . S
H2501 C2507 0.930 . S
C2502 H2488 0.930 . S
C2502 C2500 1.395 . S
C2502 C2505 1.403 . S
C2503 C2500 1.403 . S
C2503 C2504 1.524 . S
C2503 C2507 1.400 . S
C2504 H2489 0.960 . S
C2504 H2490 0.960 . S
C2504 H2491 0.960 . S
C2504 C2503 1.524 . S
C2505 C2502 1.403 . S
C2505 C2506 1.392 . S
C2505 C2509 1.495 . S
C2506 C2505 1.392 . S
C2506 C2507 1.385 . S
C2506 C2508 1.478 . S
C2507 H2501 0.930 . S
C2507 C2503 1.400 . S
C2507 C2506 1.385 . S
C2508 C2506 1.478 . S
C2508 C2510 1.381 . S
C2508 C2514 1.383 . S
C2509 C2505 1.495 . S
C2509 H2515 0.959 . S
C2509 H2516 0.961 . S
C2509 H2517 0.960 . S
C2510 C2508 1.381 . S
C2510 C2511 1.394 . S
C2510 H2518 0.930 . S
C2511 C2510 1.394 . S
C2511 C2512 1.383 . S
C2511 H2519 0.929 . S
C2512 C2511 1.383 . S
C2512 C2513 1.377 . S
C2513 H2497 0.930 . S
C2513 C2512 1.377 . S
C2513 C2514 1.379 . S
C2514 H2498 0.931 . S
C2514 C2508 1.383 . S
C2514 C2513 1.379 . S
H2515 C2509 0.959 . S
H2516 C2509 0.961 . S
H2517 C2509 0.960 . S
H2518 C2510 0.930 . S
H2519 C2511 0.929 . S
H2520 C2528 0.929 . S
H2521 C2530 0.930 . S
H2522 C2532 0.930 . S
H2523 C2535 0.929 . S
H2524 C2538 0.930 . S
H2525 C2540 0.960 . S
H2526 C2540 0.960 . S
H2527 C2540 0.960 . S
C2528 H2520 0.929 . S
C2528 C2529 1.377 . S
C2528 C2530 1.384 . S
C2529 C2528 1.377 . S
C2529 C2535 1.390 . S
C2530 H2521 0.930 . S
C2530 C2528 1.384 . S
C2530 C2531 1.372 . S
C2531 C2530 1.372 . S
C2531 C2532 1.400 . S
C2531 C2536 1.490 . S
C2532 H2522 0.930 . S
C2532 C2531 1.400 . S
C2532 C2535 1.386 . S
H2533 C2549 0.930 . S
H2534 C2550 0.931 . S
C2535 H2523 0.929 . S
C2535 C2529 1.390 . S
C2535 C2532 1.386 . S
C2536 C2531 1.490 . S
C2536 C2538 1.395 . S
C2536 C2539 1.403 . S
H2537 C2543 0.930 . S
C2538 H2524 0.930 . S
C2538 C2536 1.395 . S
C2538 C2541 1.403 . S
C2539 C2536 1.403 . S
C2539 C2540 1.524 . S
C2539 C2543 1.400 . S
C2540 H2525 0.960 . S
C2540 H2526 0.960 . S
C2540 H2527 0.960 . S
C2540 C2539 1.524 . S
C2541 C2538 1.403 . S
C2541 C2542 1.392 . S
C2541 C2545 1.495 . S
C2542 C2541 1.392 . S
C2542 C2543 1.385 . S
C2542 C2544 1.478 . S
C2543 H2537 0.930 . S
C2543 C2539 1.400 . S
C2543 C2542 1.385 . S
C2544 C2542 1.478 . S
C2544 C2546 1.381 . S
C2544 C2550 1.383 . S
C2545 C2541 1.495 . S
C2545 H2551 0.959 . S
C2545 H2552 0.961 . S
C2545 H2553 0.960 . S
C2546 C2544 1.381 . S
C2546 C2547 1.394 . S
C2546 H2554 0.930 . S
C2547 C2546 1.394 . S
C2547 C2548 1.383 . S
C2547 H2555 0.929 . S
C2548 C2547 1.383 . S
C2548 C2549 1.377 . S
C2549 H2533 0.930 . S
C2549 C2548 1.377 . S
C2549 C2550 1.379 . S
C2550 H2534 0.931 . S
C2550 C2544 1.383 . S
C2550 C2549 1.379 . S
H2551 C2545 0.959 . S
H2552 C2545 0.961 . S
H2553 C2545 0.960 . S
H2554 C2546 0.930 . S
H2555 C2547 0.929 . S
C621 C8 0.653 . S
C640 C68 0.696 . S
C657 C0 0.658 . S
C676 C42 0.655 . S
C693 C34 0.656 . S
C712 C76 0.650 . S
C729 C110 0.651 . S
C748 C136 0.621 . S
C765 C170 0.654 . S
C784 C144 0.649 . S
C801 C178 0.652 . S
C820 C102 0.634 . S
C837 C272 0.659 . S
C856 C212 0.651 . S
C873 C204 0.652 . S
C892 C246 0.648 . S
C909 C280 0.653 . S
C928 C238 0.694 . S
C945 C340 0.666 . S
C964 C314 0.658 . S
C981 C348 0.653 . S
C1000 C374 0.692 . S
C1017 C306 0.660 . S
C1036 C382 0.656 . S
C1053 C416 0.652 . S
C1072 C476 0.636 . S
C1089 C408 0.658 . S
C1108 C450 0.655 . S
C1125 C442 0.663 . S
C1144 C484 0.657 . S
C1161 C544 0.652 . S
C1180 C518 0.647 . S
C1197 C578 0.659 . S
C1216 C552 0.655 . S
C1233 C510 0.664 . S
C1252 C586 0.655 . S
C1269 C13 1.642 . S
C1288 C183 1.644 . S
C1305 C115 1.641 . S
C1324 C47 1.646 . S
C1341 C149 1.639 . S
C1360 C81 1.631 . S
C1377 C217 1.643 . S
C1396 C387 1.647 . S
C1413 C251 1.641 . S
C1432 C319 1.643 . S
C1449 C353 1.638 . S
C1468 C285 1.629 . S
C1485 C421 1.642 . S
C1504 C591 1.645 . S
C1521 C523 1.638 . S
C1540 C455 1.626 . S
C1557 C557 1.641 . S
C1576 C489 1.633 . S
C1593 C344 1.863 . S
C1612 C4 1.847 1_565 S
C1629 C38 1.861 . S
C1648 C378 1.846 . S
C1665 C310 1.862 . S
C1684 C72 1.846 . S
C1701 C106 1.859 1_655 S
C1720 C480 1.850 . S
C1737 C140 1.860 . S
C1756 C412 1.863 . S
C1773 C446 1.862 . S
C1792 C174 1.846 . S
C1809 C548 1.862 . S
C1828 C208 1.870 . S
C1845 C242 1.860 . S
C1864 C582 1.852 . S
C1881 C276 1.861 . S
C1900 C514 1.846 . S
C1917 C97 1.039 . S
C1936 C17 1.045 . S
C1953 C29 1.038 . S
C1972 C51 1.014 . S
C1989 C85 1.031 . S
C2008 C63 1.041 . S
C2025 C165 1.040 . S
C2044 C119 1.034 . S
C2061 C199 1.039 . S
C2080 C153 1.049 . S
C2097 C187 1.034 . S
C2116 C131 1.034 . S
C2133 C301 1.040 . S
C2152 C221 1.050 . S
C2169 C255 1.034 . S
C2188 C233 1.042 . S
C2205 C267 1.039 . S
C2224 C289 1.013 . S
C2241 C323 1.036 . S
C2260 C369 1.037 . S
C2277 C357 1.036 . S
C2296 C403 1.036 . S
C2313 C335 1.039 . S
C2332 C391 1.014 . S
C2349 C425 1.030 . S
C2368 C505 1.040 . S
C2385 C459 1.036 . S
C2404 C437 1.039 . S
C2421 C471 1.039 . S
C2440 C493 1.048 . S
C2457 C527 1.037 . S
C2476 C573 1.038 . S
C2493 C561 1.034 . S
C2512 C607 1.034 . S
C2529 C539 1.039 . S
C2548 C595 1.049 . S
