# Generated by pormake.
# Topology zfs, (5)-cn, num edge types: 1
# Building blocks:
#     Node 0, Type 0, BuildingBlock: XOMCOT_clean_sbu_1, # of connection points: 5
#     Node 1, Type 0, BuildingBlock: XOMCOT_clean_sbu_1, # of connection points: 5
#     Node 2, Type 0, BuildingBlock: XOMCOT_clean_sbu_1, # of connection points: 5
#     Node 3, Type 0, BuildingBlock: XOMCOT_clean_sbu_1, # of connection points: 5
#     Node 4, Type 0, BuildingBlock: XOMCOT_clean_sbu_1, # of connection points: 5
#     Node 5, Type 0, BuildingBlock: XOMCOT_clean_sbu_1, # of connection points: 5
#     Node 6, Type 0, BuildingBlock: XOMCOT_clean_sbu_1, # of connection points: 5
#     Node 7, Type 0, BuildingBlock: XOMCOT_clean_sbu_1, # of connection points: 5
#     Edge 8, Type (0, 0), BuildingBlock: OJICUG_clean_linker_0, # of connection points: 2
#     Edge 9, Type (0, 0), BuildingBlock: OJICUG_clean_linker_0, # of connection points: 2
#     Edge 10, Type (0, 0), BuildingBlock: OJICUG_clean_linker_0, # of connection points: 2
#     Edge 11, Type (0, 0), BuildingBlock: OJICUG_clean_linker_0, # of connection points: 2
#     Edge 12, Type (0, 0), BuildingBlock: OJICUG_clean_linker_0, # of connection points: 2
#     Edge 13, Type (0, 0), BuildingBlock: OJICUG_clean_linker_0, # of connection points: 2
#     Edge 14, Type (0, 0), BuildingBlock: OJICUG_clean_linker_0, # of connection points: 2
#     Edge 15, Type (0, 0), BuildingBlock: OJICUG_clean_linker_0, # of connection points: 2
#     Edge 16, Type (0, 0), BuildingBlock: OJICUG_clean_linker_0, # of connection points: 2
#     Edge 17, Type (0, 0), BuildingBlock: OJICUG_clean_linker_0, # of connection points: 2
#     Edge 18, Type (0, 0), BuildingBlock: OJICUG_clean_linker_0, # of connection points: 2
#     Edge 19, Type (0, 0), BuildingBlock: OJICUG_clean_linker_0, # of connection points: 2
#     Edge 20, Type (0, 0), BuildingBlock: OJICUG_clean_linker_0, # of connection points: 2
#     Edge 21, Type (0, 0), BuildingBlock: OJICUG_clean_linker_0, # of connection points: 2
#     Edge 22, Type (0, 0), BuildingBlock: OJICUG_clean_linker_0, # of connection points: 2
#     Edge 23, Type (0, 0), BuildingBlock: OJICUG_clean_linker_0, # of connection points: 2
#     Edge 24, Type (0, 0), BuildingBlock: OJICUG_clean_linker_0, # of connection points: 2
#     Edge 25, Type (0, 0), BuildingBlock: OJICUG_clean_linker_0, # of connection points: 2
#     Edge 26, Type (0, 0), BuildingBlock: OJICUG_clean_linker_0, # of connection points: 2
#     Edge 27, Type (0, 0), BuildingBlock: OJICUG_clean_linker_0, # of connection points: 2
# Relax obj value: 0.171
# Max RMSD: 0.162
# Mean RMSD: 0.162
data_MOF--net-zfs--node1-XOMCOT_clean_sbu_1--edge1-OJICUG_clean_linker_0
_symmetry_space_group_name_H-M    P1
_symmetry_Int_Tables_number       1
_symmetry_cell_setting            triclinic
loop_
_symmetry_equiv_pos_as_xyz
'x, y, z'
_cell_length_a     25.503277
_cell_length_b     25.630278
_cell_length_c     31.216044
_cell_angle_alpha  89.864674
_cell_angle_beta   90.152822
_cell_angle_gamma 89.97347
loop_
_atom_site_label
_atom_site_type_symbol
_atom_site_fract_x
_atom_site_fract_y
_atom_site_fract_z
_atom_type_partial_charge
C0 C 0.16102 0.28512 0.2381 0.0
C1 C 0.19283 0.27932 0.27338 0.0
N2 N 0.17655 0.237 0.29526 0.0
N3 N 0.12481 0.24678 0.23799 0.0
C4 C 0.13554 0.21783 0.27294 0.0
H5 H 0.16328 0.31598 0.21448 0.0
Co6 Co 0.07034 0.24037 0.19905 0.0
C7 C 0.98107 0.2116 0.2577 0.0
O8 O 0.95131 0.24594 0.23823 0.0
N9 N 1.0157 0.23496 0.15749 0.0
C10 C 0.95692 0.26086 0.10863 0.0
C11 C 0.97267 0.26507 0.15066 0.0
C12 C 1.0234 0.21176 0.1192 0.0
N13 N 0.9893 0.22734 0.08904 0.0
O14 O 0.09999 0.17427 0.17877 0.0
H15 H 0.95806 0.29449 0.17226 0.0
H16 H 0.05796 0.19024 0.11087 0.0
O17 O 0.02782 0.20387 0.24419 0.0
C18 C 0.14086 0.18317 0.15606 0.0
O19 O 0.15784 0.2315 0.15385 0.0
N20 N 0.04719 0.30725 0.21547 0.0
C21 C 0.03276 0.41309 0.23325 0.0
C22 C 0.02883 0.37545 0.2659 0.0
C23 C 0.03682 0.32268 0.25645 0.0
C24 C 0.05256 0.34354 0.18373 0.0
C25 C 0.04431 0.39642 0.19166 0.0
H26 H 0.03732 0.29475 0.28241 0.0
H27 H 0.06457 0.33134 0.15208 0.0
H28 H 0.11252 0.18446 0.28273 0.0
H29 H 0.22501 0.30454 0.2824 0.0
H30 H 0.92849 0.28549 0.09254 0.0
H31 H 1.02111 0.38683 0.29867 0.0
H32 H 0.04954 0.42424 0.16585 0.0
C33 C 0.76566 0.15396 0.48495 0.0
C34 C 0.77144 0.18438 0.52082 0.0
N35 N 0.81265 0.16603 0.54335 0.0
N36 N 0.80308 0.11678 0.48502 0.0
C37 C 0.83143 0.12542 0.52072 0.0
H38 H 0.73524 0.15763 0.46092 0.0
Co39 Co 0.80881 0.06362 0.44546 0.0
C40 C 0.83271 0.97349 0.50466 0.0
O41 O 0.79592 0.94607 0.48597 0.0
N42 N 0.81374 1.01052 0.40332 0.0
C43 C 0.79012 0.95189 0.35405 0.0
C44 C 0.78515 0.96674 0.39619 0.0
C45 C 0.83617 1.02016 0.365 0.0
N46 N 0.82236 0.98586 0.3347 0.0
O47 O 0.87699 0.09145 0.42659 0.0
H48 H 0.75585 0.95102 0.41746 0.0
H49 H 0.85536 0.05608 0.35686 0.0
O50 O 0.84341 1.01916 0.49042 0.0
C51 C 0.87192 0.13418 0.40551 0.0
O52 O 0.82501 0.15523 0.40337 0.0
N53 N 0.74031 0.04185 0.46066 0.0
C54 C 0.63307 0.02738 0.47653 0.0
C55 C 0.67005 0.0245 0.50998 0.0
C56 C 0.72338 0.03259 0.50149 0.0
C57 C 0.70479 0.04635 0.42811 0.0
C58 C 0.65143 0.03805 0.43507 0.0
H59 H 0.75066 0.03367 0.52802 0.0
H60 H 0.71797 0.05722 0.39641 0.0
H61 H 0.86484 0.10206 0.53021 0.0
H62 H 0.74608 0.21612 0.53038 0.0
H63 H 0.7668 0.9227 0.33776 0.0
H64 H 0.65777 1.01834 0.54278 0.0
H65 H 0.62478 0.04079 0.40811 0.0
C66 C 0.89563 0.76266 0.73242 0.0
C67 C 0.86345 0.7673 0.76743 0.0
N68 N 0.87967 0.8087 0.79042 0.0
N69 N 0.93199 0.80083 0.73356 0.0
C70 C 0.92097 0.82855 0.76898 0.0
H71 H 0.8937 0.73254 0.70825 0.0
Co72 Co 0.98719 0.80777 0.69557 0.0
C73 C 0.07433 0.83544 0.75641 0.0
O74 O 0.10253 0.79786 0.73994 0.0
N75 N 0.04242 0.81422 0.65503 0.0
C76 C 0.10753 0.79688 0.60948 0.0
C77 C 0.08833 0.78826 0.65002 0.0
C78 C 0.03545 0.83822 0.61686 0.0
N79 N 0.07368 0.82812 0.58864 0.0
O80 O 0.95703 0.87362 0.67457 0.0
H81 H 0.10377 0.75903 0.67152 0.0
H82 H 0.99961 0.85676 0.60712 0.0
O83 O 0.02879 0.84517 0.74083 0.0
C84 C 0.91639 0.86485 0.65144 0.0
O85 O 0.89999 0.81642 0.64828 0.0
N86 N 1.01108 0.74093 0.71315 0.0
C87 C 1.02308 0.63522 0.73408 0.0
C88 C 1.02321 0.67359 0.76612 0.0
C89 C 1.01659 0.72614 0.75506 0.0
C90 C 1.01022 0.704 0.68172 0.0
C91 C 1.01726 0.65117 0.69134 0.0
H92 H 1.01304 0.75453 0.78042 0.0
H93 H 1.00201 0.71541 0.649 0.0
H94 H 0.94414 0.8613 0.77985 0.0
H95 H 0.83117 0.74178 0.77559 0.0
H96 H 0.1404 0.77691 0.59498 0.0
H97 H 0.02683 0.66296 0.7996 0.0
H98 H 1.01528 0.62282 0.66571 0.0
C99 C 0.28884 0.89829 0.9799 0.0
C100 C 0.28469 0.86385 0.01356 0.0
N101 N 0.24274 0.87776 0.03706 0.0
N102 N 0.25001 0.93383 0.98267 0.0
C103 C 0.22225 0.92001 0.01743 0.0
H104 H 0.31884 0.89829 0.95547 0.0
Co105 Co 0.24021 0.98988 0.94647 0.0
C106 C 0.21524 0.0755 0.00596 0.0
O107 O 0.24866 0.10372 0.98382 0.0
N108 N 0.22928 0.04362 0.90761 0.0
C109 C 0.17911 0.08782 0.8615 0.0
C110 C 0.18836 0.07708 0.90424 0.0
C111 C 0.2436 0.03466 0.86688 0.0
N112 N 0.21412 0.06073 0.83831 0.0
O113 O 0.17477 0.96021 0.926 0.0
H114 H 0.16177 0.08666 0.92995 0.0
H115 H 0.26845 1.00231 0.85786 0.0
O116 O 0.20463 0.02911 0.9934 0.0
C117 C 0.18483 0.92512 0.89818 0.0
O118 O 0.23399 0.91176 0.89215 0.0
N119 N 0.30772 1.01584 0.96352 0.0
C120 C 0.41354 0.02949 0.9861 0.0
C121 C 0.3748 0.02463 0.01769 0.0
C122 C 0.32231 1.01757 0.00579 0.0
C123 C 0.3451 1.02169 0.9326 0.0
C124 C 0.39779 0.02931 0.94313 0.0
H125 H 0.29393 1.01023 0.03072 0.0
H126 H 0.33561 1.01694 0.89939 0.0
H127 H 0.18875 0.94163 0.02901 0.0
H128 H 0.3107 0.83149 0.02039 0.0
H129 H 0.14609 0.10923 0.84849 0.0
H130 H 0.38517 0.02428 0.05136 0.0
H131 H 0.4264 0.03144 0.9176 0.0
C132 C 0.16594 0.76221 0.26051 0.0
C133 C 0.19549 0.76543 0.22381 0.0
N134 N 0.17705 0.80555 0.20027 0.0
N135 N 0.12932 0.80019 0.25985 0.0
C136 C 0.13749 0.82635 0.22309 0.0
H137 H 0.16967 0.7331 0.28548 0.0
Co138 Co 0.07726 0.80935 0.30006 0.0
C139 C 0.98577 0.83279 0.24469 0.0
O140 O 0.95965 0.79828 0.26739 0.0
N141 N 0.02799 0.81937 0.34258 0.0
C142 C 0.98229 0.8623 0.39193 0.0
C143 C 0.98942 0.85484 0.34845 0.0
C144 C 0.04401 0.80711 0.38235 0.0
N145 N 1.01715 0.83207 0.41294 0.0
O146 O 0.1083 0.8747 0.31889 0.0
H147 H 0.97226 0.87871 0.32352 0.0
H148 H 0.07981 0.78569 0.38852 0.0
O149 O 0.03266 0.84455 0.25588 0.0
C150 C 0.14678 0.86514 0.3441 0.0
O151 O 0.16449 0.81703 0.34595 0.0
N152 N 0.04998 0.74189 0.2854 0.0
C153 C 0.03282 0.63579 0.26765 0.0
C154 C 0.03617 0.6726 0.23433 0.0
C155 C 0.04487 0.72538 0.24387 0.0
C156 C 0.0454 0.70642 0.31789 0.0
C157 C 0.03564 0.65395 0.30983 0.0
H158 H 0.05049 0.75242 0.21766 0.0
H159 H 0.0522 0.71722 0.35054 0.0
H160 H 0.11445 0.85961 0.21291 0.0
H161 H 0.22665 0.73918 0.21443 0.0
H162 H 0.95655 0.89063 0.40663 0.0
H163 H 0.03502 0.66053 0.20113 0.0
H164 H 0.03249 0.62747 0.33678 0.0
C165 C 0.28516 0.15001 0.51905 0.0
C166 C 0.28204 0.18147 0.48338 0.0
N167 N 0.2417 0.16464 0.45916 0.0
N168 N 0.24695 0.11375 0.51708 0.0
C169 C 0.22068 0.12411 0.48062 0.0
H170 H 0.3145 0.15209 0.54407 0.0
Co171 Co 0.23783 0.05939 0.55519 0.0
C172 C 0.2113 0.97142 0.49834 0.0
O173 O 0.2446 0.94374 0.52123 0.0
N174 N 0.22759 1.00735 0.59569 0.0
C175 C 0.17764 0.96558 0.64321 0.0
C176 C 0.18644 0.97442 0.60019 0.0
C177 C 0.24258 1.01781 0.6361 0.0
N178 N 0.2131 0.99337 0.6655 0.0
O179 O 0.17313 0.09052 0.57599 0.0
H180 H 0.15941 0.964 0.57491 0.0
H181 H 0.268 0.05013 0.64411 0.0
O182 O 0.201 1.0183 0.50979 0.0
C183 C 0.18488 0.12598 0.60314 0.0
O184 O 0.23449 0.13873 0.60756 0.0
N185 N 0.3048 0.03228 0.538 0.0
C186 C 0.41007 1.017 0.51469 0.0
C187 C 0.37065 1.02084 0.48341 0.0
C188 C 0.31845 0.02869 0.49566 0.0
C189 C 0.34285 0.02749 0.56866 0.0
C190 C 0.39527 1.01909 0.5578 0.0
H191 H 0.28957 0.03505 0.47081 0.0
H192 H 0.33407 0.03365 0.60182 0.0
H193 H 0.18732 0.1018 0.46956 0.0
H194 H 0.30867 0.21273 0.47503 0.0
H195 H 0.14463 0.94496 0.65692 0.0
H196 H 0.38026 1.01968 0.44965 0.0
H197 H 0.42445 1.01777 0.58306 0.0
C198 C 0.8938 0.28024 0.76592 0.0
C199 C 0.86311 0.27504 0.73 0.0
N200 N 0.8815 0.23445 0.70719 0.0
N201 N 0.93136 0.24319 0.76558 0.0
C202 C 0.92263 0.21559 0.72964 0.0
H203 H 0.88984 0.3098 0.79038 0.0
Co204 Co 0.98448 0.23774 0.8057 0.0
C205 C 0.07518 0.21521 0.74668 0.0
O206 O 0.10121 0.25404 0.76369 0.0
N207 N 0.03698 0.23314 0.84857 0.0
C208 C 0.09634 0.25477 0.89821 0.0
C209 C 0.08254 0.25906 0.85563 0.0
C210 C 1.02488 0.21338 0.8874 0.0
N211 N 0.05977 0.22573 0.91784 0.0
O212 O 0.95702 0.16958 0.82455 0.0
H213 H 0.10043 0.28647 0.83393 0.0
H214 H 0.98719 0.19747 0.89538 0.0
O215 O 0.02997 0.20328 0.76159 0.0
C216 C 0.91308 0.17263 0.84424 0.0
O217 O 0.88934 0.2181 0.84513 0.0
N218 N 1.0063 0.3061 0.79032 0.0
C219 C 1.01861 0.41296 0.77313 0.0
C220 C 1.0202 0.37598 0.73993 0.0
C221 C 1.01336 0.32287 0.74911 0.0
C222 C 1.00362 0.34155 0.82277 0.0
C223 C 1.01091 0.39473 0.8151 0.0
H224 H 1.01128 0.29557 0.72284 0.0
H225 H 0.99445 0.32863 0.8549 0.0
H226 H 0.94709 0.18352 0.71932 0.0
H227 H 0.83013 0.29945 0.72125 0.0
H228 H 0.12702 0.27637 0.91434 0.0
H229 H 1.02421 0.38802 0.70684 0.0
H230 H 1.00943 0.42135 0.84194 0.0
C231 C 0.76707 0.88597 0.01439 0.0
C232 C 0.77146 0.85596 0.97814 0.0
N233 N 0.81228 0.87406 0.95523 0.0
N234 N 0.80504 0.9226 0.0142 0.0
C235 C 0.8323 0.91396 0.97805 0.0
H236 H 0.73699 0.88265 0.03862 0.0
Co237 Co 0.81192 0.9763 0.05335 0.0
C238 C 0.83878 0.06511 0.99352 0.0
O239 O 0.80333 0.09435 0.01195 0.0
N240 N 0.81795 0.03022 0.09487 0.0
C241 C 0.7935 0.08956 0.14318 0.0
C242 C 0.78913 0.07404 0.10118 0.0
C243 C 0.84039 1.02158 0.13348 0.0
N244 N 0.8257 0.05608 0.16331 0.0
O245 O 0.87897 0.94689 0.07321 0.0
H246 H 0.75999 0.08932 0.07938 0.0
H247 H 0.86039 0.98624 0.14217 0.0
O248 O 0.84763 1.01917 0.0081 0.0
C249 C 0.87109 0.90579 0.09584 0.0
O250 O 0.82291 0.88785 0.09799 0.0
N251 N 0.74411 0.99928 0.03758 0.0
C252 C 0.637 1.01532 0.0221 0.0
C253 C 0.67369 1.0185 0.9886 0.0
C254 C 0.72703 1.00957 0.99689 0.0
C255 C 0.70883 0.99452 0.0701 0.0
C256 C 0.65557 1.00361 0.06337 0.0
H257 H 0.75408 1.00861 0.97033 0.0
H258 H 0.7222 0.98291 0.10164 0.0
H259 H 0.86567 0.93703 0.96818 0.0
H260 H 0.74531 0.82486 0.96849 0.0
H261 H 0.76958 0.11869 0.15888 0.0
H262 H 0.66114 0.0255 0.95593 0.0
H263 H 0.62914 1.00067 0.09034 0.0
C264 C 0.0583 0.54358 0.28587 0.0
C265 C 0.03077 0.57852 0.25909 0.0
H266 H 0.08015 0.46453 0.29886 0.0
C267 C 1.00267 0.55817 0.22406 0.0
H268 H 0.08173 0.55761 0.31241 0.0
C269 C 1.00242 0.50438 0.21601 0.0
C270 C 0.02989 0.46975 0.24299 0.0
H271 H 0.9807 0.58372 0.20296 0.0
H272 H 0.98066 0.48981 0.1887 0.0
C273 C 0.05755 0.48999 0.2781 0.0
C274 C 0.55649 0.98765 0.51627 0.0
C275 C 0.57559 1.02241 0.485 0.0
H276 H 0.48937 0.95798 0.5497 0.0
C277 C 0.53923 0.05346 0.46238 0.0
H278 H 0.58307 0.96257 0.53392 0.0
C279 C 0.48556 0.05027 0.47104 0.0
C280 C 0.46664 1.01632 0.50283 0.0
H281 H 0.55224 0.08156 0.43876 0.0
H282 H 0.45905 0.07595 0.45387 0.0
C283 C 0.50272 0.98478 0.52517 0.0
C284 C 0.99317 0.55935 0.77874 0.0
C285 C 1.02439 0.57868 0.74527 0.0
H286 H 0.96557 0.49259 0.81286 0.0
C287 C 0.05463 0.54327 0.72142 0.0
H288 H 0.96856 0.58539 0.79716 0.0
C289 C 0.05349 0.48975 0.73076 0.0
C290 C 1.02167 0.47022 0.76394 0.0
H291 H 0.07933 0.55701 0.69558 0.0
H292 H 0.07775 0.46374 0.71203 0.0
C293 C 0.9916 0.50592 0.78779 0.0
C294 C 0.48951 0.99369 0.02807 0.0
C295 C 0.47035 0.02906 0.99735 0.0
H296 H 0.55644 0.96048 0.05895 0.0
C297 C 0.50633 0.06091 0.97538 0.0
H298 H 0.46307 0.96771 0.04486 0.0
C299 C 0.56025 0.05705 0.98366 0.0
C300 C 0.57951 1.02101 0.01395 0.0
H301 H 0.49279 0.08875 0.95165 0.0
H302 H 0.5868 0.0824 0.96638 0.0
C303 C 0.54328 0.98956 0.03612 0.0
C304 C 0.23417 0.23524 0.40573 0.0
C305 C 0.22682 0.18284 0.41736 0.0
H306 H 0.22328 0.29384 0.3577 0.0
C307 C 0.20482 0.14816 0.38755 0.0
H308 H 0.25077 0.26278 0.42823 0.0
C309 C 0.18942 0.16575 0.34722 0.0
C310 C 0.19558 0.2184 0.33585 0.0
H311 H 0.19993 0.10725 0.39521 0.0
H312 H 0.1728 0.13803 0.3249 0.0
C313 C 0.21862 0.25291 0.36533 0.0
C314 C 0.82294 0.23546 0.59715 0.0
C315 C 0.83031 0.18343 0.58461 0.0
H316 H 0.83412 0.2927 0.64592 0.0
C317 C 0.85428 0.14832 0.61322 0.0
H318 H 0.80515 0.26347 0.57556 0.0
C319 C 0.87072 0.16497 0.65352 0.0
C320 C 0.86349 0.21704 0.66603 0.0
H321 H 0.85951 0.10771 0.60483 0.0
H322 H 0.88843 0.13689 0.67509 0.0
C323 C 0.83939 0.25212 0.63748 0.0
C324 C 0.85089 0.89348 0.88476 0.0
C325 C 0.82827 0.85761 0.91334 0.0
H326 H 0.88378 0.90624 0.82281 0.0
C327 C 0.82106 0.80575 0.90028 0.0
H328 H 0.85575 0.93403 0.89352 0.0
C329 C 0.83709 0.78982 0.85966 0.0
C330 C 0.8605 0.82554 0.83134 0.0
H331 H 0.80408 0.77726 0.92179 0.0
H332 H 0.83239 0.74927 0.85093 0.0
C333 C 0.86679 0.87762 0.84419 0.0
C334 C 0.26176 0.83214 0.10505 0.0
C335 C 0.22567 0.8557 0.07695 0.0
H336 H 0.27448 0.7982 0.16696 0.0
C337 C 0.17299 0.86011 0.08932 0.0
H338 H 0.30272 0.8287 0.09653 0.0
C339 C 0.15702 0.84302 0.12954 0.0
C340 C 0.19337 0.82102 0.1582 0.0
H341 H 0.1441 0.87703 0.06797 0.0
H342 H 0.11612 0.84693 0.13815 0.0
C343 C 0.2457 0.81486 0.14536 0.0
C344 C 1.01795 0.27385 0.0247 0.0
C345 C 1.00265 0.22716 0.04461 0.0
H346 H 0.05051 0.30955 0.9686 0.0
C347 C 1.00994 0.17963 0.02331 0.0
H348 H 1.01416 0.31069 0.04133 0.0
C349 C 0.03097 0.17895 0.98208 0.0
C350 C 0.0466 0.22563 0.96232 0.0
H351 H 0.99963 0.14323 0.03883 0.0
H352 H 0.03471 0.14219 0.96531 0.0
C353 C 0.04005 0.27307 0.98391 0.0
C354 C 0.7771 0.03153 0.22775 0.0
C355 C 0.82501 0.04288 0.20781 0.0
H356 H 0.739 1.00206 0.28389 0.0
C357 C 0.87215 0.0318 0.2292 0.0
H358 H 0.7404 0.03831 0.21112 0.0
C359 C 0.87136 1.01077 0.27048 0.0
C360 C 0.82344 0.99895 0.2902 0.0
H361 H 0.90937 0.0391 0.21368 0.0
H362 H 0.90795 1.00407 0.28731 0.0
C363 C 0.77633 1.00945 0.26857 0.0
C364 C 0.04234 0.87679 0.52547 0.0
C365 C 0.06618 0.83215 0.5432 0.0
H366 H 1.00756 0.9119 0.4698 0.0
C367 C 0.07368 0.78814 0.51745 0.0
H368 H 0.03571 0.91098 0.54505 0.0
C369 C 0.05632 0.78808 0.47521 0.0
C370 C 0.03179 0.83229 0.45743 0.0
H371 H 0.09037 0.7527 0.5306 0.0
H372 H 0.06124 0.75284 0.4566 0.0
C373 C 1.02537 0.87695 0.48283 0.0
C374 C 0.16452 1.01766 0.73103 0.0
C375 C 0.21209 1.00782 0.70985 0.0
H376 H 0.12781 0.04411 0.78891 0.0
C377 C 0.25954 1.01842 0.73084 0.0
H378 H 0.12741 1.01083 0.71511 0.0
C379 C 0.25974 0.03823 0.77222 0.0
C380 C 0.21251 0.04793 0.79364 0.0
H381 H 0.29659 1.01152 0.71495 0.0
H382 H 0.29695 0.04536 0.78795 0.0
C383 C 0.16474 0.03784 0.77269 0.0
C384 C 0.21213 0.1561 0.10705 0.0
C385 C 0.16232 0.14562 0.12414 0.0
H386 H 0.2671 0.14269 0.05695 0.0
C387 C 0.13155 0.10656 0.10459 0.0
H388 H 0.23721 0.18541 0.1214 0.0
C389 C 0.14904 0.08159 0.06689 0.0
C390 C 0.19723 0.09573 0.04815 0.0
H391 H 0.09285 0.09767 0.11677 0.0
H392 H 0.12383 0.05339 0.0513 0.0
C393 C 0.22912 0.13188 0.06966 0.0
C394 C 0.97137 0.14027 0.3144 0.0
C395 C 0.9631 0.19184 0.30016 0.0
H396 H 0.94962 0.08085 0.36017 0.0
C397 C 0.93306 0.22535 0.32584 0.0
H398 H 0.99465 0.11363 0.29544 0.0
C399 C 0.90824 0.20712 0.36268 0.0
C400 C 0.91211 0.15456 0.37509 0.0
H401 H 0.92691 0.26565 0.31648 0.0
H402 H 0.88306 0.23371 0.38007 0.0
C403 C 0.9459 0.12166 0.35165 0.0
C404 C 0.82233 0.9197 0.57047 0.0
C405 C 0.85372 0.95387 0.54636 0.0
H406 H 0.81701 0.86705 0.62327 0.0
C407 C 0.9042 0.96601 0.56191 0.0
H408 H 0.78276 0.91046 0.56032 0.0
C409 C 0.92409 0.94079 0.59892 0.0
C410 C 0.89355 0.90342 0.62083 0.0
H411 H 0.92915 0.99262 0.54431 0.0
H412 H 0.96426 0.94794 0.60857 0.0
C413 C 0.84182 0.89511 0.60703 0.0
C414 C 0.12432 0.82744 0.82439 0.0
C415 C 0.09304 0.85859 0.79739 0.0
H416 H 0.17623 0.82411 0.87813 0.0
C417 C 0.08455 0.91108 0.80873 0.0
H418 H 0.13092 0.78662 0.81721 0.0
C419 C 0.11059 0.93268 0.84457 0.0
C420 C 0.14494 0.90183 0.86944 0.0
H421 H 0.06067 0.93603 0.78854 0.0
H422 H 0.10693 0.97406 0.85089 0.0
C423 C 0.14991 0.84874 0.85972 0.0
C424 C 0.13127 0.93792 0.39788 0.0
C425 C 0.16503 0.90189 0.37786 0.0
H426 H 0.11918 0.98873 0.45216 0.0
C427 C 0.21479 0.89333 0.39592 0.0
H428 H 0.09225 0.94462 0.38523 0.0
C429 C 0.22941 0.91715 0.43422 0.0
C430 C 0.19504 0.95091 0.45571 0.0
H431 H 0.24183 0.86598 0.38142 0.0
H432 H 0.26766 0.90813 0.4475 0.0
C433 C 0.14639 0.96264 0.43644 0.0
C434 C 0.10973 0.12002 0.65617 0.0
C435 C 0.1469 0.14976 0.63336 0.0
H436 H 0.05744 0.11709 0.71054 0.0
C437 C 0.15569 0.20153 0.64585 0.0
H438 H 0.10299 0.07958 0.6478 0.0
C439 C 0.13072 0.2224 0.68155 0.0
C440 C 0.09596 0.19226 0.70623 0.0
H441 H 0.18409 0.22542 0.62906 0.0
H442 H 0.14 0.26216 0.6905 0.0
C443 C 0.08417 0.14127 0.69234 0.0
C444 C 0.92879 0.10175 0.90016 0.0
C445 C 0.89424 0.13232 0.87512 0.0
H446 H 0.9386 0.05611 0.958 0.0
C447 C 0.84097 0.13319 0.88634 0.0
H448 H 0.97019 0.10047 0.8926 0.0
C449 C 0.82337 0.10877 0.92358 0.0
C450 C 0.85828 0.08214 0.95078 0.0
H451 H 0.81318 0.1559 0.86772 0.0
H452 H 0.78237 0.11269 0.93205 0.0
C453 C 0.91085 0.07668 0.93779 0.0
C454 C 0.92528 0.81923 0.18299 0.0
C455 C 0.96271 0.85096 0.20324 0.0
H456 H 0.86953 0.81066 0.13252 0.0
C457 C 0.97602 0.89881 0.18369 0.0
H458 H 0.91493 0.78154 0.19628 0.0
C459 C 0.94936 0.91593 0.1464 0.0
C460 C 0.90947 0.8851 0.12792 0.0
H461 H 1.00516 0.92392 0.19824 0.0
H462 H 0.95784 0.95431 0.1336 0.0
C463 C 0.89947 0.83581 0.14595 0.0
loop_
_geom_bond_atom_site_label_1
_geom_bond_atom_site_label_2
_geom_bond_distance
_geom_bond_site_symmetry_2
_ccdc_geom_bond_type
C0 C1 1.351 . S
C0 N3 1.368 . S
C0 H5 0.931 . S
C1 C0 1.351 . S
C1 N2 1.373 . S
C1 H29 0.930 . S
N2 C1 1.373 . S
N2 C4 1.340 . S
N3 C0 1.368 . S
N3 C4 1.321 . S
N3 Co6 2.135 . S
C4 N2 1.340 . S
C4 N3 1.321 . S
C4 H28 0.930 . S
H5 C0 0.931 . S
Co6 N3 2.135 . S
Co6 N9 2.121 . S
Co6 O14 2.055 . S
Co6 O17 2.039 . S
Co6 N20 2.140 . S
C7 O8 1.227 1_655 S
C7 O17 1.265 1_655 S
O8 C7 1.227 1_455 S
N9 Co6 2.121 . S
N9 C11 1.375 1_455 S
N9 C12 1.313 . S
C10 C11 1.338 . S
C10 N13 1.377 . S
C10 H30 0.930 . S
C11 N9 1.375 1_655 S
C11 C10 1.338 . S
C11 H15 0.931 . S
C12 N9 1.313 . S
C12 N13 1.344 1_455 S
C12 H16 0.930 . S
N13 C10 1.377 . S
N13 C12 1.344 1_655 S
O14 Co6 2.055 . S
O14 C18 1.253 . S
H15 C11 0.931 . S
H16 C12 0.930 . S
O17 Co6 2.039 . S
O17 C7 1.265 1_455 S
C18 O14 1.253 . S
C18 O19 1.227 . S
O19 C18 1.227 . S
N20 Co6 2.140 . S
N20 C23 1.346 . S
N20 C24 1.345 . S
C21 C22 1.387 . S
C21 C25 1.391 . S
C22 C21 1.387 . S
C22 C23 1.369 . S
C22 H31 0.929 . S
C23 N20 1.346 . S
C23 C22 1.369 . S
C23 H26 0.928 . S
C24 N20 1.345 . S
C24 C25 1.371 . S
C24 H27 0.931 . S
C25 C21 1.391 . S
C25 C24 1.371 . S
C25 H32 0.930 . S
H26 C23 0.928 . S
H27 C24 0.931 . S
H28 C4 0.930 . S
H29 C1 0.930 . S
H30 C10 0.930 . S
H31 C22 0.929 . S
H32 C25 0.930 . S
C33 C34 1.351 . S
C33 N36 1.368 . S
C33 H38 0.931 . S
C34 C33 1.351 . S
C34 N35 1.373 . S
C34 H62 0.930 . S
N35 C34 1.373 . S
N35 C37 1.340 . S
N36 C33 1.368 . S
N36 C37 1.321 . S
N36 Co39 2.135 . S
C37 N35 1.340 . S
C37 N36 1.321 . S
C37 H61 0.930 . S
H38 C33 0.931 . S
Co39 N36 2.135 . S
Co39 N42 2.121 . S
Co39 O47 2.055 . S
Co39 O50 2.039 . S
Co39 N53 2.140 . S
C40 O41 1.227 1_565 S
C40 O50 1.265 1_565 S
O41 C40 1.227 1_545 S
N42 Co39 2.121 . S
N42 C44 1.375 1_545 S
N42 C45 1.313 . S
C43 C44 1.338 . S
C43 N46 1.377 . S
C43 H63 0.930 . S
C44 N42 1.375 1_565 S
C44 C43 1.338 . S
C44 H48 0.931 . S
C45 N42 1.313 . S
C45 N46 1.344 1_545 S
C45 H49 0.930 . S
N46 C43 1.377 . S
N46 C45 1.344 1_565 S
O47 Co39 2.055 . S
O47 C51 1.253 . S
H48 C44 0.931 . S
H49 C45 0.930 . S
O50 Co39 2.039 . S
O50 C40 1.265 1_545 S
C51 O47 1.253 . S
C51 O52 1.227 . S
O52 C51 1.227 . S
N53 Co39 2.140 . S
N53 C56 1.346 . S
N53 C57 1.345 . S
C54 C55 1.387 . S
C54 C58 1.391 . S
C55 C54 1.387 . S
C55 C56 1.369 . S
C55 H64 0.929 . S
C56 N53 1.346 . S
C56 C55 1.369 . S
C56 H59 0.928 . S
C57 N53 1.345 . S
C57 C58 1.371 . S
C57 H60 0.931 . S
C58 C54 1.391 . S
C58 C57 1.371 . S
C58 H65 0.930 . S
H59 C56 0.928 . S
H60 C57 0.931 . S
H61 C37 0.930 . S
H62 C34 0.930 . S
H63 C43 0.930 . S
H64 C55 0.929 . S
H65 C58 0.930 . S
C66 C67 1.351 . S
C66 N69 1.368 . S
C66 H71 0.931 . S
C67 C66 1.351 . S
C67 N68 1.373 . S
C67 H95 0.930 . S
N68 C67 1.373 . S
N68 C70 1.340 . S
N69 C66 1.368 . S
N69 C70 1.321 . S
N69 Co72 2.135 . S
C70 N68 1.340 . S
C70 N69 1.321 . S
C70 H94 0.930 . S
H71 C66 0.931 . S
Co72 N69 2.135 . S
Co72 N75 2.121 . S
Co72 O80 2.055 . S
Co72 O83 2.039 . S
Co72 N86 2.140 . S
C73 O74 1.227 1_455 S
C73 O83 1.265 1_455 S
O74 C73 1.227 1_655 S
N75 Co72 2.121 . S
N75 C77 1.375 1_655 S
N75 C78 1.313 . S
C76 C77 1.338 . S
C76 N79 1.377 . S
C76 H96 0.930 . S
C77 N75 1.375 1_455 S
C77 C76 1.338 . S
C77 H81 0.931 . S
C78 N75 1.313 . S
C78 N79 1.344 1_655 S
C78 H82 0.930 . S
N79 C76 1.377 . S
N79 C78 1.344 1_455 S
O80 Co72 2.055 . S
O80 C84 1.253 . S
H81 C77 0.931 . S
H82 C78 0.930 . S
O83 Co72 2.039 . S
O83 C73 1.265 1_655 S
C84 O80 1.253 . S
C84 O85 1.227 . S
O85 C84 1.227 . S
N86 Co72 2.140 . S
N86 C89 1.346 . S
N86 C90 1.345 . S
C87 C88 1.387 . S
C87 C91 1.391 . S
C88 C87 1.387 . S
C88 C89 1.369 . S
C88 H97 0.929 . S
C89 N86 1.346 . S
C89 C88 1.369 . S
C89 H92 0.928 . S
C90 N86 1.345 . S
C90 C91 1.371 . S
C90 H93 0.931 . S
C91 C87 1.391 . S
C91 C90 1.371 . S
C91 H98 0.930 . S
H92 C89 0.928 . S
H93 C90 0.931 . S
H94 C70 0.930 . S
H95 C67 0.930 . S
H96 C76 0.930 . S
H97 C88 0.929 . S
H98 C91 0.930 . S
C99 C100 1.351 1_556 S
C99 N102 1.368 . S
C99 H104 0.931 . S
C100 C99 1.351 1_554 S
C100 N101 1.373 . S
C100 H128 0.930 . S
N101 C100 1.373 . S
N101 C103 1.340 . S
N102 C99 1.368 . S
N102 C103 1.321 1_556 S
N102 Co105 2.135 . S
C103 N101 1.340 . S
C103 N102 1.321 1_554 S
C103 H127 0.930 . S
H104 C99 0.931 . S
Co105 N102 2.135 . S
Co105 N108 2.121 . S
Co105 O113 2.055 . S
Co105 O116 2.039 . S
Co105 N119 2.140 . S
C106 O107 1.227 1_545 S
C106 O116 1.265 1_544 S
O107 C106 1.227 1_565 S
N108 Co105 2.121 . S
N108 C110 1.375 1_565 S
N108 C111 1.313 . S
C109 C110 1.338 . S
C109 N112 1.377 . S
C109 H129 0.930 . S
C110 N108 1.375 1_545 S
C110 C109 1.338 . S
C110 H114 0.931 . S
C111 N108 1.313 . S
C111 N112 1.344 1_565 S
C111 H115 0.930 . S
N112 C109 1.377 . S
N112 C111 1.344 1_545 S
O113 Co105 2.055 . S
O113 C117 1.253 . S
H114 C110 0.931 . S
H115 C111 0.930 . S
O116 Co105 2.039 . S
O116 C106 1.265 1_566 S
C117 O113 1.253 . S
C117 O118 1.227 . S
O118 C117 1.227 . S
N119 Co105 2.140 . S
N119 C122 1.346 . S
N119 C123 1.345 . S
C120 C121 1.387 1_556 S
C120 C124 1.391 . S
C121 C120 1.387 1_554 S
C121 C122 1.369 1_554 S
C121 H130 0.929 . S
C122 N119 1.346 . S
C122 C121 1.369 1_556 S
C122 H125 0.928 1_556 S
C123 N119 1.345 . S
C123 C124 1.371 . S
C123 H126 0.931 . S
C124 C120 1.391 . S
C124 C123 1.371 . S
C124 H131 0.930 . S
H125 C122 0.928 1_554 S
H126 C123 0.931 . S
H127 C103 0.930 . S
H128 C100 0.930 . S
H129 C109 0.930 . S
H130 C121 0.929 . S
H131 C124 0.930 . S
C132 C133 1.351 . S
C132 N135 1.368 . S
C132 H137 0.931 . S
C133 C132 1.351 . S
C133 N134 1.373 . S
C133 H161 0.930 . S
N134 C133 1.373 . S
N134 C136 1.340 . S
N135 C132 1.368 . S
N135 C136 1.321 . S
N135 Co138 2.135 . S
C136 N134 1.340 . S
C136 N135 1.321 . S
C136 H160 0.930 . S
H137 C132 0.931 . S
Co138 N135 2.135 . S
Co138 N141 2.121 . S
Co138 O146 2.055 . S
Co138 O149 2.039 . S
Co138 N152 2.140 . S
C139 O140 1.227 1_655 S
C139 O149 1.265 1_655 S
O140 C139 1.227 1_455 S
N141 Co138 2.121 . S
N141 C143 1.375 1_455 S
N141 C144 1.313 . S
C142 C143 1.338 . S
C142 N145 1.377 . S
C142 H162 0.930 . S
C143 N141 1.375 1_655 S
C143 C142 1.338 . S
C143 H147 0.931 . S
C144 N141 1.313 . S
C144 N145 1.344 1_455 S
C144 H148 0.930 . S
N145 C142 1.377 . S
N145 C144 1.344 1_655 S
O146 Co138 2.055 . S
O146 C150 1.253 . S
H147 C143 0.931 . S
H148 C144 0.930 . S
O149 Co138 2.039 . S
O149 C139 1.265 1_455 S
C150 O146 1.253 . S
C150 O151 1.227 . S
O151 C150 1.227 . S
N152 Co138 2.140 . S
N152 C155 1.346 . S
N152 C156 1.345 . S
C153 C154 1.387 . S
C153 C157 1.391 . S
C154 C153 1.387 . S
C154 C155 1.369 . S
C154 H163 0.929 . S
C155 N152 1.346 . S
C155 C154 1.369 . S
C155 H158 0.928 . S
C156 N152 1.345 . S
C156 C157 1.371 . S
C156 H159 0.931 . S
C157 C153 1.391 . S
C157 C156 1.371 . S
C157 H164 0.930 . S
H158 C155 0.928 . S
H159 C156 0.931 . S
H160 C136 0.930 . S
H161 C133 0.930 . S
H162 C142 0.930 . S
H163 C154 0.929 . S
H164 C157 0.930 . S
C165 C166 1.351 . S
C165 N168 1.368 . S
C165 H170 0.931 . S
C166 C165 1.351 . S
C166 N167 1.373 . S
C166 H194 0.930 . S
N167 C166 1.373 . S
N167 C169 1.340 . S
N168 C165 1.368 . S
N168 C169 1.321 . S
N168 Co171 2.135 . S
C169 N167 1.340 . S
C169 N168 1.321 . S
C169 H193 0.930 . S
H170 C165 0.931 . S
Co171 N168 2.135 . S
Co171 N174 2.121 . S
Co171 O179 2.055 . S
Co171 O182 2.039 . S
Co171 N185 2.140 . S
C172 O173 1.227 1_565 S
C172 O182 1.265 1_565 S
O173 C172 1.227 1_545 S
N174 Co171 2.121 . S
N174 C176 1.375 1_545 S
N174 C177 1.313 . S
C175 C176 1.338 . S
C175 N178 1.377 . S
C175 H195 0.930 . S
C176 N174 1.375 1_565 S
C176 C175 1.338 . S
C176 H180 0.931 . S
C177 N174 1.313 . S
C177 N178 1.344 1_545 S
C177 H181 0.930 . S
N178 C175 1.377 . S
N178 C177 1.344 1_565 S
O179 Co171 2.055 . S
O179 C183 1.253 . S
H180 C176 0.931 . S
H181 C177 0.930 . S
O182 Co171 2.039 . S
O182 C172 1.265 1_545 S
C183 O179 1.253 . S
C183 O184 1.227 . S
O184 C183 1.227 . S
N185 Co171 2.140 . S
N185 C188 1.346 . S
N185 C189 1.345 . S
C186 C187 1.387 . S
C186 C190 1.391 . S
C187 C186 1.387 . S
C187 C188 1.369 . S
C187 H196 0.929 . S
C188 N185 1.346 . S
C188 C187 1.369 . S
C188 H191 0.928 . S
C189 N185 1.345 . S
C189 C190 1.371 . S
C189 H192 0.931 . S
C190 C186 1.391 . S
C190 C189 1.371 . S
C190 H197 0.930 . S
H191 C188 0.928 . S
H192 C189 0.931 . S
H193 C169 0.930 . S
H194 C166 0.930 . S
H195 C175 0.930 . S
H196 C187 0.929 . S
H197 C190 0.930 . S
C198 C199 1.351 . S
C198 N201 1.368 . S
C198 H203 0.931 . S
C199 C198 1.351 . S
C199 N200 1.373 . S
C199 H227 0.930 . S
N200 C199 1.373 . S
N200 C202 1.340 . S
N201 C198 1.368 . S
N201 C202 1.321 . S
N201 Co204 2.135 . S
C202 N200 1.340 . S
C202 N201 1.321 . S
C202 H226 0.930 . S
H203 C198 0.931 . S
Co204 N201 2.135 . S
Co204 N207 2.121 . S
Co204 O212 2.055 . S
Co204 O215 2.039 . S
Co204 N218 2.140 . S
C205 O206 1.227 1_455 S
C205 O215 1.265 1_455 S
O206 C205 1.227 1_655 S
N207 Co204 2.121 . S
N207 C209 1.375 1_655 S
N207 C210 1.313 . S
C208 C209 1.338 . S
C208 N211 1.377 . S
C208 H228 0.930 . S
C209 N207 1.375 1_455 S
C209 C208 1.338 . S
C209 H213 0.931 . S
C210 N207 1.313 . S
C210 N211 1.344 1_655 S
C210 H214 0.930 . S
N211 C208 1.377 . S
N211 C210 1.344 1_455 S
O212 Co204 2.055 . S
O212 C216 1.253 . S
H213 C209 0.931 . S
H214 C210 0.930 . S
O215 Co204 2.039 . S
O215 C205 1.265 1_655 S
C216 O212 1.253 . S
C216 O217 1.227 . S
O217 C216 1.227 . S
N218 Co204 2.140 . S
N218 C221 1.346 . S
N218 C222 1.345 . S
C219 C220 1.387 . S
C219 C223 1.391 . S
C220 C219 1.387 . S
C220 C221 1.369 . S
C220 H229 0.929 . S
C221 N218 1.346 . S
C221 C220 1.369 . S
C221 H224 0.928 . S
C222 N218 1.345 . S
C222 C223 1.371 . S
C222 H225 0.931 . S
C223 C219 1.391 . S
C223 C222 1.371 . S
C223 H230 0.930 . S
H224 C221 0.928 . S
H225 C222 0.931 . S
H226 C202 0.930 . S
H227 C199 0.930 . S
H228 C208 0.930 . S
H229 C220 0.929 . S
H230 C223 0.930 . S
C231 C232 1.351 1_554 S
C231 N234 1.368 . S
C231 H236 0.931 . S
C232 C231 1.351 1_556 S
C232 N233 1.373 . S
C232 H260 0.930 . S
N233 C232 1.373 . S
N233 C235 1.340 . S
N234 C231 1.368 . S
N234 C235 1.321 1_554 S
N234 Co237 2.135 . S
C235 N233 1.340 . S
C235 N234 1.321 1_556 S
C235 H259 0.930 . S
H236 C231 0.931 . S
Co237 N234 2.135 . S
Co237 N240 2.121 . S
Co237 O245 2.055 . S
Co237 O248 2.039 . S
Co237 N251 2.140 . S
C238 O239 1.227 1_545 S
C238 O248 1.265 1_546 S
O239 C238 1.227 1_565 S
N240 Co237 2.121 . S
N240 C242 1.375 1_565 S
N240 C243 1.313 . S
C241 C242 1.338 . S
C241 N244 1.377 . S
C241 H261 0.930 . S
C242 N240 1.375 1_545 S
C242 C241 1.338 . S
C242 H246 0.931 . S
C243 N240 1.313 . S
C243 N244 1.344 1_565 S
C243 H247 0.930 . S
N244 C241 1.377 . S
N244 C243 1.344 1_545 S
O245 Co237 2.055 . S
O245 C249 1.253 . S
H246 C242 0.931 . S
H247 C243 0.930 . S
O248 Co237 2.039 . S
O248 C238 1.265 1_564 S
C249 O245 1.253 . S
C249 O250 1.227 . S
O250 C249 1.227 . S
N251 Co237 2.140 . S
N251 C254 1.346 . S
N251 C255 1.345 . S
C252 C253 1.387 1_554 S
C252 C256 1.391 . S
C253 C252 1.387 1_556 S
C253 C254 1.369 1_556 S
C253 H262 0.929 . S
C254 N251 1.346 . S
C254 C253 1.369 1_554 S
C254 H257 0.928 1_554 S
C255 N251 1.345 . S
C255 C256 1.371 . S
C255 H258 0.931 . S
C256 C252 1.391 . S
C256 C255 1.371 . S
C256 H263 0.930 . S
H257 C254 0.928 1_556 S
H258 C255 0.931 . S
H259 C235 0.930 . S
H260 C232 0.930 . S
H261 C241 0.930 . S
H262 C253 0.929 . S
H263 C256 0.930 . S
C264 C265 1.387 . S
C264 H268 0.950 . S
C264 C273 1.390 . S
C265 C264 1.387 . S
C265 C267 1.387 . S
H266 C273 0.950 . S
C267 C265 1.387 . S
C267 C269 1.390 . S
C267 H271 0.950 . S
H268 C264 0.950 . S
C269 C267 1.390 . S
C269 C270 1.387 . S
C269 H272 0.950 . S
C270 C269 1.387 . S
C270 C273 1.387 . S
H271 C267 0.950 . S
H272 C269 0.950 . S
C273 C264 1.390 . S
C273 H266 0.950 . S
C273 C270 1.387 . S
C274 C275 1.387 . S
C274 H278 0.950 . S
C274 C283 1.390 . S
C275 C274 1.387 . S
C275 C277 1.387 . S
H276 C283 0.950 . S
C277 C275 1.387 . S
C277 C279 1.390 . S
C277 H281 0.950 . S
H278 C274 0.950 . S
C279 C277 1.390 . S
C279 C280 1.387 . S
C279 H282 0.950 . S
C280 C279 1.387 . S
C280 C283 1.387 . S
H281 C277 0.950 . S
H282 C279 0.950 . S
C283 C274 1.390 . S
C283 H276 0.950 . S
C283 C280 1.387 . S
C284 C285 1.387 . S
C284 H288 0.950 . S
C284 C293 1.390 . S
C285 C284 1.387 . S
C285 C287 1.387 . S
H286 C293 0.950 . S
C287 C285 1.387 . S
C287 C289 1.390 . S
C287 H291 0.950 . S
H288 C284 0.950 . S
C289 C287 1.390 . S
C289 C290 1.387 . S
C289 H292 0.950 . S
C290 C289 1.387 . S
C290 C293 1.387 . S
H291 C287 0.950 . S
H292 C289 0.950 . S
C293 C284 1.390 . S
C293 H286 0.950 . S
C293 C290 1.387 . S
C294 C295 1.387 . S
C294 H298 0.950 . S
C294 C303 1.390 1_556 S
C295 C294 1.387 . S
C295 C297 1.387 . S
H296 C303 0.950 . S
C297 C295 1.387 . S
C297 C299 1.390 1_556 S
C297 H301 0.950 . S
H298 C294 0.950 . S
C299 C297 1.390 1_554 S
C299 C300 1.387 . S
C299 H302 0.950 . S
C300 C299 1.387 . S
C300 C303 1.387 . S
H301 C297 0.950 . S
H302 C299 0.950 . S
C303 C294 1.390 1_554 S
C303 H296 0.950 . S
C303 C300 1.387 . S
C304 C305 1.387 . S
C304 H308 0.950 . S
C304 C313 1.390 . S
C305 C304 1.387 . S
C305 C307 1.387 . S
H306 C313 0.950 . S
C307 C305 1.387 . S
C307 C309 1.390 . S
C307 H311 0.950 . S
H308 C304 0.950 . S
C309 C307 1.390 . S
C309 C310 1.387 . S
C309 H312 0.950 . S
C310 C309 1.387 . S
C310 C313 1.387 . S
H311 C307 0.950 . S
H312 C309 0.950 . S
C313 C304 1.390 . S
C313 H306 0.950 . S
C313 C310 1.387 . S
C314 C315 1.387 . S
C314 H318 0.950 . S
C314 C323 1.390 . S
C315 C314 1.387 . S
C315 C317 1.387 . S
H316 C323 0.950 . S
C317 C315 1.387 . S
C317 C319 1.390 . S
C317 H321 0.950 . S
H318 C314 0.950 . S
C319 C317 1.390 . S
C319 C320 1.387 . S
C319 H322 0.950 . S
C320 C319 1.387 . S
C320 C323 1.387 . S
H321 C317 0.950 . S
H322 C319 0.950 . S
C323 C314 1.390 . S
C323 H316 0.950 . S
C323 C320 1.387 . S
C324 C325 1.387 . S
C324 H328 0.950 . S
C324 C333 1.390 . S
C325 C324 1.387 . S
C325 C327 1.387 . S
H326 C333 0.950 . S
C327 C325 1.387 . S
C327 C329 1.390 . S
C327 H331 0.950 . S
H328 C324 0.950 . S
C329 C327 1.390 . S
C329 C330 1.387 . S
C329 H332 0.950 . S
C330 C329 1.387 . S
C330 C333 1.387 . S
H331 C327 0.950 . S
H332 C329 0.950 . S
C333 C324 1.390 . S
C333 H326 0.950 . S
C333 C330 1.387 . S
C334 C335 1.387 . S
C334 H338 0.950 . S
C334 C343 1.390 . S
C335 C334 1.387 . S
C335 C337 1.387 . S
H336 C343 0.950 . S
C337 C335 1.387 . S
C337 C339 1.390 . S
C337 H341 0.950 . S
H338 C334 0.950 . S
C339 C337 1.390 . S
C339 C340 1.387 . S
C339 H342 0.950 . S
C340 C339 1.387 . S
C340 C343 1.387 . S
H341 C337 0.950 . S
H342 C339 0.950 . S
C343 C334 1.390 . S
C343 H336 0.950 . S
C343 C340 1.387 . S
C344 C345 1.387 . S
C344 H348 0.950 . S
C344 C353 1.390 1_654 S
C345 C344 1.387 . S
C345 C347 1.387 . S
H346 C353 0.950 . S
C347 C345 1.387 . S
C347 C349 1.390 1_654 S
C347 H351 0.950 . S
H348 C344 0.950 . S
C349 C347 1.390 1_456 S
C349 C350 1.387 . S
C349 H352 0.950 . S
C350 C349 1.387 . S
C350 C353 1.387 . S
H351 C347 0.950 . S
H352 C349 0.950 . S
C353 C344 1.390 1_456 S
C353 H346 0.950 . S
C353 C350 1.387 . S
C354 C355 1.387 . S
C354 H358 0.950 . S
C354 C363 1.390 1_545 S
C355 C354 1.387 . S
C355 C357 1.387 . S
H356 C363 0.950 . S
C357 C355 1.387 . S
C357 C359 1.390 1_545 S
C357 H361 0.950 . S
H358 C354 0.950 . S
C359 C357 1.390 1_565 S
C359 C360 1.387 . S
C359 H362 0.950 . S
C360 C359 1.387 . S
C360 C363 1.387 . S
H361 C357 0.950 . S
H362 C359 0.950 . S
C363 C354 1.390 1_565 S
C363 H356 0.950 . S
C363 C360 1.387 . S
C364 C365 1.387 . S
C364 H368 0.950 . S
C364 C373 1.390 1_455 S
C365 C364 1.387 . S
C365 C367 1.387 . S
H366 C373 0.950 . S
C367 C365 1.387 . S
C367 C369 1.390 1_455 S
C367 H371 0.950 . S
H368 C364 0.950 . S
C369 C367 1.390 1_655 S
C369 C370 1.387 . S
C369 H372 0.950 . S
C370 C369 1.387 . S
C370 C373 1.387 . S
H371 C367 0.950 . S
H372 C369 0.950 . S
C373 C364 1.390 1_655 S
C373 H366 0.950 . S
C373 C370 1.387 . S
C374 C375 1.387 . S
C374 H378 0.950 . S
C374 C383 1.390 1_565 S
C375 C374 1.387 . S
C375 C377 1.387 . S
H376 C383 0.950 . S
C377 C375 1.387 . S
C377 C379 1.390 1_565 S
C377 H381 0.950 . S
H378 C374 0.950 . S
C379 C377 1.390 1_545 S
C379 C380 1.387 . S
C379 H382 0.950 . S
C380 C379 1.387 . S
C380 C383 1.387 . S
H381 C377 0.950 . S
H382 C379 0.950 . S
C383 C374 1.390 1_545 S
C383 H376 0.950 . S
C383 C380 1.387 . S
C384 C385 1.387 . S
C384 H388 0.950 . S
C384 C393 1.390 . S
C385 C384 1.387 . S
C385 C387 1.387 . S
H386 C393 0.950 . S
C387 C385 1.387 . S
C387 C389 1.390 . S
C387 H391 0.950 . S
H388 C384 0.950 . S
C389 C387 1.390 . S
C389 C390 1.387 . S
C389 H392 0.950 . S
C390 C389 1.387 . S
C390 C393 1.387 . S
H391 C387 0.950 . S
H392 C389 0.950 . S
C393 C384 1.390 . S
C393 H386 0.950 . S
C393 C390 1.387 . S
C394 C395 1.387 . S
C394 H398 0.950 . S
C394 C403 1.390 . S
C395 C394 1.387 . S
C395 C397 1.387 . S
H396 C403 0.950 . S
C397 C395 1.387 . S
C397 C399 1.390 . S
C397 H401 0.950 . S
H398 C394 0.950 . S
C399 C397 1.390 . S
C399 C400 1.387 . S
C399 H402 0.950 . S
C400 C399 1.387 . S
C400 C403 1.387 . S
H401 C397 0.950 . S
H402 C399 0.950 . S
C403 C394 1.390 . S
C403 H396 0.950 . S
C403 C400 1.387 . S
C404 C405 1.387 . S
C404 H408 0.950 . S
C404 C413 1.390 . S
C405 C404 1.387 . S
C405 C407 1.387 . S
H406 C413 0.950 . S
C407 C405 1.387 . S
C407 C409 1.390 . S
C407 H411 0.950 . S
H408 C404 0.950 . S
C409 C407 1.390 . S
C409 C410 1.387 . S
C409 H412 0.950 . S
C410 C409 1.387 . S
C410 C413 1.387 . S
H411 C407 0.950 . S
H412 C409 0.950 . S
C413 C404 1.390 . S
C413 H406 0.950 . S
C413 C410 1.387 . S
C414 C415 1.387 . S
C414 H418 0.950 . S
C414 C423 1.390 . S
C415 C414 1.387 . S
C415 C417 1.387 . S
H416 C423 0.950 . S
C417 C415 1.387 . S
C417 C419 1.390 . S
C417 H421 0.950 . S
H418 C414 0.950 . S
C419 C417 1.390 . S
C419 C420 1.387 . S
C419 H422 0.950 . S
C420 C419 1.387 . S
C420 C423 1.387 . S
H421 C417 0.950 . S
H422 C419 0.950 . S
C423 C414 1.390 . S
C423 H416 0.950 . S
C423 C420 1.387 . S
C424 C425 1.387 . S
C424 H428 0.950 . S
C424 C433 1.390 . S
C425 C424 1.387 . S
C425 C427 1.387 . S
H426 C433 0.950 . S
C427 C425 1.387 . S
C427 C429 1.390 . S
C427 H431 0.950 . S
H428 C424 0.950 . S
C429 C427 1.390 . S
C429 C430 1.387 . S
C429 H432 0.950 . S
C430 C429 1.387 . S
C430 C433 1.387 . S
H431 C427 0.950 . S
H432 C429 0.950 . S
C433 C424 1.390 . S
C433 H426 0.950 . S
C433 C430 1.387 . S
C434 C435 1.387 . S
C434 H438 0.950 . S
C434 C443 1.390 . S
C435 C434 1.387 . S
C435 C437 1.387 . S
H436 C443 0.950 . S
C437 C435 1.387 . S
C437 C439 1.390 . S
C437 H441 0.950 . S
H438 C434 0.950 . S
C439 C437 1.390 . S
C439 C440 1.387 . S
C439 H442 0.950 . S
C440 C439 1.387 . S
C440 C443 1.387 . S
H441 C437 0.950 . S
H442 C439 0.950 . S
C443 C434 1.390 . S
C443 H436 0.950 . S
C443 C440 1.387 . S
C444 C445 1.387 . S
C444 H448 0.950 . S
C444 C453 1.390 . S
C445 C444 1.387 . S
C445 C447 1.387 . S
H446 C453 0.950 . S
C447 C445 1.387 . S
C447 C449 1.390 . S
C447 H451 0.950 . S
H448 C444 0.950 . S
C449 C447 1.390 . S
C449 C450 1.387 . S
C449 H452 0.950 . S
C450 C449 1.387 . S
C450 C453 1.387 . S
H451 C447 0.950 . S
H452 C449 0.950 . S
C453 C444 1.390 . S
C453 H446 0.950 . S
C453 C450 1.387 . S
C454 C455 1.387 . S
C454 H458 0.950 . S
C454 C463 1.390 . S
C455 C454 1.387 . S
C455 C457 1.387 . S
H456 C463 0.950 . S
C457 C455 1.387 . S
C457 C459 1.390 . S
C457 H461 0.950 . S
H458 C454 0.950 . S
C459 C457 1.390 . S
C459 C460 1.387 . S
C459 H462 0.950 . S
C460 C459 1.387 . S
C460 C463 1.387 . S
H461 C457 0.950 . S
H462 C459 0.950 . S
C463 C454 1.390 . S
C463 H456 0.950 . S
C463 C460 1.387 . S
C265 C153 1.389 . S
C270 C21 1.389 . S
C275 C54 1.391 . S
C280 C186 1.391 . S
C285 C87 1.389 . S
C290 C219 1.389 . S
C295 C120 1.389 . S
C300 C252 1.389 . S
C305 N167 0.783 . S
C310 N2 0.783 . S
C315 N35 0.783 . S
C320 N200 0.783 . S
C325 N233 0.788 . S
C330 N68 0.787 . S
C335 N101 0.783 . S
C340 N134 0.783 . S
C345 N13 1.221 . S
C350 N211 1.221 . S
C355 N244 1.221 . S
C360 N46 1.221 . S
C365 N79 1.219 . S
C370 N145 1.219 . S
C375 N178 1.219 . S
C380 N112 1.219 . S
C385 C18 1.998 . S
C390 C106 1.992 . S
C395 C7 1.993 . S
C400 C51 1.998 . S
C405 C40 1.992 . S
C410 C84 1.997 . S
C415 C73 1.992 . S
C420 C117 1.998 . S
C425 C150 1.998 . S
C430 C172 1.993 . S
C435 C183 1.998 . S
C440 C205 1.993 . S
C445 C216 1.998 . S
C450 C238 1.993 . S
C455 C139 1.992 . S
C460 C249 1.998 . S
