# Generated by pormake.
# Topology uol, (4)-cn, num edge types: 1
# Building blocks:
#     Node 0, Type 0, BuildingBlock: TATPOV_clean_sbu_0, # of connection points: 4
#     Node 1, Type 0, BuildingBlock: TATPOV_clean_sbu_0, # of connection points: 4
#     Node 2, Type 0, BuildingBlock: TATPOV_clean_sbu_0, # of connection points: 4
#     Node 3, Type 0, BuildingBlock: TATPOV_clean_sbu_0, # of connection points: 4
#     Node 4, Type 0, BuildingBlock: TATPOV_clean_sbu_0, # of connection points: 4
#     Node 5, Type 0, BuildingBlock: TATPOV_clean_sbu_0, # of connection points: 4
#     Node 6, Type 0, BuildingBlock: TATPOV_clean_sbu_0, # of connection points: 4
#     Node 7, Type 0, BuildingBlock: TATPOV_clean_sbu_0, # of connection points: 4
#     Node 8, Type 0, BuildingBlock: TATPOV_clean_sbu_0, # of connection points: 4
#     Node 9, Type 0, BuildingBlock: TATPOV_clean_sbu_0, # of connection points: 4
#     Node 10, Type 0, BuildingBlock: TATPOV_clean_sbu_0, # of connection points: 4
#     Node 11, Type 0, BuildingBlock: TATPOV_clean_sbu_0, # of connection points: 4
#     Edge 12, Type (0, 0), BuildingBlock: XUDNAN_clean_linker_2, # of connection points: 2
#     Edge 13, Type (0, 0), BuildingBlock: XUDNAN_clean_linker_2, # of connection points: 2
#     Edge 14, Type (0, 0), BuildingBlock: XUDNAN_clean_linker_2, # of connection points: 2
#     Edge 15, Type (0, 0), BuildingBlock: XUDNAN_clean_linker_2, # of connection points: 2
#     Edge 16, Type (0, 0), BuildingBlock: XUDNAN_clean_linker_2, # of connection points: 2
#     Edge 17, Type (0, 0), BuildingBlock: XUDNAN_clean_linker_2, # of connection points: 2
#     Edge 18, Type (0, 0), BuildingBlock: XUDNAN_clean_linker_2, # of connection points: 2
#     Edge 19, Type (0, 0), BuildingBlock: XUDNAN_clean_linker_2, # of connection points: 2
#     Edge 20, Type (0, 0), BuildingBlock: XUDNAN_clean_linker_2, # of connection points: 2
#     Edge 21, Type (0, 0), BuildingBlock: XUDNAN_clean_linker_2, # of connection points: 2
#     Edge 22, Type (0, 0), BuildingBlock: XUDNAN_clean_linker_2, # of connection points: 2
#     Edge 23, Type (0, 0), BuildingBlock: XUDNAN_clean_linker_2, # of connection points: 2
#     Edge 24, Type (0, 0), BuildingBlock: XUDNAN_clean_linker_2, # of connection points: 2
#     Edge 25, Type (0, 0), BuildingBlock: XUDNAN_clean_linker_2, # of connection points: 2
#     Edge 26, Type (0, 0), BuildingBlock: XUDNAN_clean_linker_2, # of connection points: 2
#     Edge 27, Type (0, 0), BuildingBlock: XUDNAN_clean_linker_2, # of connection points: 2
#     Edge 28, Type (0, 0), BuildingBlock: XUDNAN_clean_linker_2, # of connection points: 2
#     Edge 29, Type (0, 0), BuildingBlock: XUDNAN_clean_linker_2, # of connection points: 2
#     Edge 30, Type (0, 0), BuildingBlock: XUDNAN_clean_linker_2, # of connection points: 2
#     Edge 31, Type (0, 0), BuildingBlock: XUDNAN_clean_linker_2, # of connection points: 2
#     Edge 32, Type (0, 0), BuildingBlock: XUDNAN_clean_linker_2, # of connection points: 2
#     Edge 33, Type (0, 0), BuildingBlock: XUDNAN_clean_linker_2, # of connection points: 2
#     Edge 34, Type (0, 0), BuildingBlock: XUDNAN_clean_linker_2, # of connection points: 2
#     Edge 35, Type (0, 0), BuildingBlock: XUDNAN_clean_linker_2, # of connection points: 2
# Relax obj value: 0.214
# Max RMSD: 0.261
# Mean RMSD: 0.261
data_MOF--net-uol--node1-TATPOV_clean_sbu_0--edge1-XUDNAN_clean_linker_2
_symmetry_space_group_name_H-M    P1
_symmetry_Int_Tables_number       1
_symmetry_cell_setting            triclinic
loop_
_symmetry_equiv_pos_as_xyz
'x, y, z'
_cell_length_a     33.145616
_cell_length_b     33.06364
_cell_length_c     62.329466
_cell_angle_alpha  89.933243
_cell_angle_beta   89.982504
_cell_angle_gamma 119.78225
loop_
_atom_site_label
_atom_site_type_symbol
_atom_site_fract_x
_atom_site_fract_y
_atom_site_fract_z
_atom_type_partial_charge
Zn0 Zn 0.12893 0.26984 0.06744 0.0
Zn1 Zn 0.16977 0.36041 0.07242 0.0
O2 O 0.18633 0.35204 0.04108 0.0
O3 O 0.14708 0.27603 0.0365 0.0
O4 O 0.19326 0.4294 0.07471 0.0
O5 O 0.0662 0.2583 0.07616 0.0
O6 O 0.10066 0.33372 0.08185 0.0
C7 C 0.17395 0.31639 0.02918 0.0
C8 C 0.2018 0.30667 0.10001 0.0
O9 O 0.20671 0.34614 0.09476 0.0
O10 O 0.1717 0.26995 0.09066 0.0
C11 C 0.23511 0.46099 0.07791 0.0
O12 O 0.26753 0.44937 0.07981 0.0
C13 C 0.06427 0.29353 0.08262 0.0
Zn14 Zn 0.84744 0.13395 0.23472 0.0
Zn15 Zn 0.798 0.17548 0.24062 0.0
O16 O 0.82442 0.19552 0.20976 0.0
O17 O 0.86173 0.15686 0.20435 0.0
O18 O 0.75257 0.19894 0.24347 0.0
O19 O 0.79499 0.07029 0.24128 0.0
O20 O 0.75472 0.10522 0.24798 0.0
C21 C 0.84848 0.18451 0.19765 0.0
C22 C 0.88106 0.20277 0.26928 0.0
O23 O 0.84775 0.20945 0.26385 0.0
O24 O 0.88767 0.17302 0.25943 0.0
C25 C 0.76113 0.24056 0.24071 0.0
O26 O 0.80365 0.27321 0.23597 0.0
C27 C 0.75775 0.06821 0.24758 0.0
Zn28 Zn 0.69852 0.84916 0.39395 0.0
Zn29 Zn 0.60968 0.79931 0.40178 0.0
O30 O 0.61359 0.82216 0.37025 0.0
O31 O 0.68847 0.85789 0.3631 0.0
O32 O 0.54153 0.7528 0.40566 0.0
O33 O 0.71353 0.80031 0.40285 0.0
O34 O 0.63931 0.7588 0.41073 0.0
C35 C 0.64719 0.84411 0.35716 0.0
C36 C 0.66491 0.88775 0.42709 0.0
O37 O 0.62532 0.85208 0.42346 0.0
O38 O 0.70027 0.89398 0.41653 0.0
C39 C 0.50811 0.76005 0.40148 0.0
O40 O 0.51724 0.80138 0.39468 0.0
C41 C 0.67994 0.76349 0.41044 0.0
Zn42 Zn 0.86373 0.72022 0.55762 0.0
Zn43 Zn 0.82154 0.62942 0.56532 0.0
O44 O 0.79943 0.63427 0.53473 0.0
O45 O 0.83719 0.70954 0.52789 0.0
O46 O 0.79876 0.56073 0.56876 0.0
O47 O 0.92804 0.7308 0.56256 0.0
O48 O 0.8915 0.65743 0.57269 0.0
C49 C 0.80894 0.66827 0.52212 0.0
C50 C 0.79722 0.68729 0.59373 0.0
O51 O 0.78907 0.64669 0.58846 0.0
O52 O 0.82697 0.72278 0.5834 0.0
C53 C 0.75676 0.52886 0.57128 0.0
O54 O 0.72391 0.54008 0.57204 0.0
C55 C 0.9291 0.69629 0.57067 0.0
Zn56 Zn 0.10848 0.82162 0.73125 0.0
Zn57 Zn 0.17488 0.79749 0.73388 0.0
O58 O 0.15237 0.78328 0.70234 0.0
O59 O 0.10039 0.80624 0.69981 0.0
O60 O 0.22558 0.78068 0.73481 0.0
O61 O 0.15445 0.88611 0.74221 0.0
O62 O 0.20866 0.86626 0.74351 0.0
C63 C 0.12323 0.7891 0.69135 0.0
C64 C 0.08714 0.74731 0.7614 0.0
O65 O 0.12739 0.75434 0.75639 0.0
O66 O 0.07065 0.77051 0.75261 0.0
C67 C 0.25466 0.79429 0.75015 0.0
O68 O 0.25061 0.81859 0.76582 0.0
C69 C 0.19584 0.89634 0.74646 0.0
Zn70 Zn 0.25723 0.114 0.90001 0.0
Zn71 Zn 0.34769 0.16711 0.90294 0.0
O72 O 0.33714 0.14214 0.8715 0.0
O73 O 0.26089 0.10308 0.86872 0.0
O74 O 0.41665 0.21223 0.90466 0.0
O75 O 0.24475 0.16413 0.91005 0.0
O76 O 0.32042 0.20889 0.91286 0.0
C77 C 0.30056 0.11787 0.86036 0.0
C78 C 0.29922 0.08032 0.93086 0.0
O79 O 0.33672 0.11677 0.92537 0.0
O80 O 0.26114 0.07114 0.92205 0.0
C81 C 0.43435 0.24914 0.89336 0.0
O82 O 0.40749 0.25592 0.88007 0.0
C83 C 0.2795 0.20283 0.91508 0.0
Zn84 Zn 0.73776 0.87112 0.75299 0.0
Zn85 Zn 0.64576 0.82233 0.7487 0.0
O86 O 0.65661 0.80773 0.77981 0.0
O87 O 0.73264 0.84847 0.78339 0.0
O88 O 0.57625 0.79353 0.74654 0.0
O89 O 0.74151 0.9327 0.74685 0.0
O90 O 0.66733 0.89002 0.73895 0.0
C91 C 0.69303 0.82057 0.79112 0.0
C92 C 0.70327 0.79841 0.71967 0.0
O93 O 0.66311 0.78823 0.72652 0.0
O94 O 0.7394 0.83217 0.72782 0.0
C95 C 0.55688 0.80971 0.75872 0.0
O96 O 0.58257 0.84222 0.77265 0.0
C97 C 0.70448 0.92952 0.73953 0.0
Zn98 Zn 0.8808 0.7093 0.91915 0.0
Zn99 Zn 0.81691 0.62005 0.91697 0.0
O100 O 0.84315 0.62873 0.94803 0.0
O101 O 0.88881 0.70466 0.95074 0.0
O102 O 0.76586 0.55258 0.91652 0.0
O103 O 0.83626 0.72893 0.90808 0.0
O104 O 0.78217 0.65507 0.90781 0.0
C105 C 0.87003 0.66452 0.95913 0.0
C106 C 0.90286 0.65749 0.8885 0.0
O107 O 0.86278 0.62424 0.89368 0.0
O108 O 0.91936 0.69659 0.89781 0.0
C109 C 0.73552 0.53749 0.90169 0.0
O110 O 0.73859 0.56601 0.88626 0.0
C111 C 0.79472 0.69777 0.9044 0.0
Zn112 Zn 0.1444 0.85664 0.09116 0.0
Zn113 Zn 0.18084 0.80196 0.08765 0.0
O114 O 0.19863 0.82867 0.11862 0.0
O115 O 0.1645 0.87097 0.12183 0.0
O116 O 0.20078 0.7535 0.08625 0.0
O117 O 0.08026 0.80692 0.08363 0.0
O118 O 0.11124 0.76238 0.07858 0.0
C119 C 0.18889 0.85503 0.12978 0.0
C120 C 0.21528 0.88448 0.05785 0.0
O121 O 0.21908 0.84999 0.06435 0.0
O122 O 0.18642 0.89398 0.06654 0.0
C123 C 0.24188 0.7609 0.08907 0.0
O124 O 0.27543 0.80339 0.09322 0.0
C125 C 0.07617 0.76852 0.07767 0.0
Zn126 Zn 0.27308 0.13792 0.25881 0.0
Zn127 Zn 0.36391 0.17625 0.25315 0.0
O128 O 0.35742 0.19387 0.28445 0.0
O129 O 0.28167 0.16206 0.28894 0.0
O130 O 0.43236 0.1982 0.25053 0.0
O131 O 0.26086 0.07352 0.25209 0.0
O132 O 0.33542 0.1065 0.24473 0.0
C133 C 0.32257 0.18581 0.2961 0.0
C134 C 0.31044 0.20692 0.22446 0.0
O135 O 0.34987 0.21276 0.23027 0.0
O136 O 0.27367 0.17737 0.23396 0.0
C137 C 0.46477 0.24023 0.24862 0.0
O138 O 0.45438 0.27373 0.24804 0.0
C139 C 0.29506 0.07039 0.24512 0.0
Zn140 Zn 0.12936 0.26999 0.4259 0.0
Zn141 Zn 0.1796 0.36117 0.41901 0.0
O142 O 0.15758 0.35578 0.45068 0.0
O143 O 0.11582 0.27998 0.45613 0.0
O144 O 0.22544 0.42984 0.41564 0.0
O145 O 0.1823 0.25868 0.41962 0.0
O146 O 0.22024 0.33232 0.40982 0.0
C147 C 0.13254 0.32126 0.46288 0.0
C148 C 0.09416 0.3058 0.39188 0.0
O149 O 0.12733 0.34575 0.39726 0.0
O150 O 0.08883 0.26939 0.40127 0.0
C151 C 0.21552 0.46186 0.41235 0.0
O152 O 0.17174 0.45092 0.41073 0.0
C153 C 0.21787 0.29272 0.41141 0.0
Zn154 Zn 0.84105 0.12875 0.58317 0.0
Zn155 Zn 0.80835 0.18551 0.57846 0.0
O156 O 0.78964 0.16123 0.60975 0.0
O157 O 0.80857 0.10613 0.61139 0.0
O158 O 0.78979 0.23493 0.57602 0.0
O159 O 0.90779 0.17989 0.58129 0.0
O160 O 0.87852 0.2234 0.57075 0.0
C161 C 0.79023 0.1279 0.61979 0.0
C162 C 0.77736 0.10493 0.54758 0.0
O163 O 0.77032 0.13668 0.55519 0.0
O164 O 0.80756 0.09699 0.55595 0.0
C165 C 0.74893 0.22793 0.57923 0.0
O166 O 0.71551 0.18573 0.58402 0.0
C167 C 0.91353 0.21774 0.57351 0.0
H168 H 0.17936 0.6691 0.08132 0.0
H169 H 0.3256 0.76355 0.09406 0.0
H170 H 0.34049 0.69734 0.09221 0.0
H171 H 0.16896 0.57366 0.11253 0.0
H172 H 0.12951 0.52997 0.09407 0.0
H173 H 0.13088 0.58495 0.09609 0.0
H174 H 0.14647 0.59812 0.05522 0.0
H175 H 0.14516 0.54317 0.05306 0.0
H176 H 0.1952 0.5958 0.04371 0.0
H177 H 0.33879 0.61979 0.0892 0.0
H178 H 0.32059 0.53793 0.08548 0.0
H179 H 0.17547 0.49557 0.0748 0.0
C180 C 0.2146 0.67604 0.08369 0.0
C181 C 0.25134 0.7216 0.08783 0.0
C182 C 0.29688 0.72898 0.09086 0.0
C183 C 0.30568 0.69159 0.08983 0.0
C184 C 0.26857 0.6471 0.08574 0.0
C185 C 0.22395 0.63926 0.08273 0.0
C186 C 0.18999 0.58825 0.07874 0.0
C187 C 0.15265 0.56803 0.09641 0.0
C188 C 0.16792 0.58092 0.05635 0.0
C189 C 0.22239 0.56845 0.08004 0.0
C190 C 0.2676 0.60284 0.08405 0.0
C191 C 0.3035 0.59261 0.08603 0.0
C192 C 0.29282 0.54602 0.08389 0.0
C193 C 0.24662 0.51026 0.07984 0.0
C194 C 0.21117 0.52197 0.07787 0.0
H195 H 0.66878 0.17911 0.24731 0.0
H196 H 0.76637 0.32597 0.2369 0.0
H197 H 0.70139 0.34261 0.23824 0.0
H198 H 0.57773 0.17331 0.21481 0.0
H199 H 0.53196 0.13293 0.23225 0.0
H200 H 0.58635 0.13316 0.23111 0.0
H201 H 0.59573 0.14554 0.27227 0.0
H202 H 0.54131 0.14524 0.27354 0.0
H203 H 0.59334 0.19403 0.2841 0.0
H204 H 0.62459 0.34252 0.24029 0.0
H205 H 0.54315 0.32565 0.24272 0.0
H206 H 0.49722 0.17873 0.25136 0.0
C207 C 0.6767 0.21488 0.24542 0.0
C208 C 0.72276 0.25127 0.24205 0.0
C209 C 0.73139 0.29751 0.23953 0.0
C210 C 0.6947 0.3073 0.24027 0.0
C211 C 0.64965 0.27047 0.24351 0.0
C212 C 0.64064 0.2252 0.24605 0.0
C213 C 0.58923 0.19165 0.24895 0.0
C214 C 0.57022 0.15565 0.23069 0.0
C215 C 0.57934 0.16772 0.27103 0.0
C216 C 0.57057 0.22502 0.2476 0.0
C217 C 0.60585 0.27037 0.24452 0.0
C218 C 0.59673 0.30713 0.24273 0.0
C219 C 0.55036 0.2972 0.24412 0.0
C220 C 0.51373 0.25088 0.24721 0.0
C221 C 0.5243 0.21453 0.24897 0.0
H222 H 0.47845 0.66878 0.41143 0.0
H223 H 0.4277 0.76336 0.39524 0.0
H224 H 0.34687 0.69775 0.39693 0.0
H225 H 0.3964 0.57309 0.38033 0.0
H226 H 0.39068 0.52961 0.39945 0.0
H227 H 0.44416 0.58434 0.39782 0.0
H228 H 0.4384 0.59847 0.43833 0.0
H229 H 0.38494 0.54369 0.4401 0.0
H230 H 0.38662 0.59662 0.44854 0.0
H231 H 0.27125 0.62067 0.39973 0.0
H232 H 0.20768 0.53904 0.40322 0.0
H233 H 0.30911 0.49588 0.4171 0.0
C234 C 0.45041 0.67591 0.40839 0.0
C235 C 0.45947 0.72133 0.40325 0.0
C236 C 0.42166 0.72891 0.39924 0.0
C237 C 0.37562 0.69185 0.40017 0.0
C238 C 0.36801 0.64745 0.40511 0.0
C239 C 0.40442 0.63942 0.40917 0.0
C240 C 0.38718 0.5884 0.41364 0.0
C241 C 0.4057 0.56766 0.3968 0.0
C242 C 0.40004 0.5814 0.43651 0.0
C243 C 0.33533 0.56883 0.41136 0.0
C244 C 0.32484 0.60336 0.40652 0.0
C245 C 0.2791 0.59339 0.40355 0.0
C246 C 0.24322 0.54691 0.40556 0.0
C247 C 0.25331 0.51098 0.41042 0.0
C248 C 0.30009 0.52241 0.41336 0.0
H249 H 0.81663 0.4945 0.56826 0.0
H250 H 0.67117 0.45162 0.57827 0.0
H251 H 0.65278 0.36956 0.58109 0.0
H252 H 0.79776 0.39692 0.53588 0.0
H253 H 0.84608 0.3936 0.54719 0.0
H254 H 0.8475 0.44872 0.54603 0.0
H255 H 0.8617 0.45874 0.58706 0.0
H256 H 0.86039 0.40369 0.58834 0.0
H257 H 0.82171 0.41373 0.60495 0.0
H258 H 0.65077 0.29184 0.5831 0.0
H259 H 0.66527 0.22535 0.58405 0.0
H260 H 0.81198 0.32013 0.57234 0.0
C261 C 0.78085 0.46795 0.57106 0.0
C262 C 0.74533 0.47957 0.57307 0.0
C263 C 0.69899 0.44362 0.57668 0.0
C264 C 0.6882 0.3969 0.5783 0.0
C265 C 0.72412 0.38673 0.57622 0.0
C266 C 0.7695 0.4213 0.57266 0.0
C267 C 0.8018 0.40139 0.571 0.0
C268 C 0.82461 0.41071 0.5487 0.0
C269 C 0.83856 0.42052 0.58891 0.0
C270 C 0.76757 0.35015 0.57424 0.0
C271 C 0.72293 0.34229 0.57723 0.0
C272 C 0.68559 0.29761 0.58073 0.0
C273 C 0.69417 0.26006 0.58124 0.0
C274 C 0.73973 0.26743 0.57823 0.0
C275 C 0.77671 0.31318 0.57463 0.0
H276 H 0.50644 0.83996 0.78161 0.0
H277 H 0.49521 0.7481 0.72941 0.0
H278 H 0.41431 0.72986 0.72303 0.0
H279 H 0.38627 0.77028 0.80105 0.0
H280 H 0.38184 0.82118 0.80722 0.0
H281 H 0.43733 0.82371 0.80879 0.0
H282 H 0.47234 0.89385 0.78253 0.0
H283 H 0.41701 0.89142 0.7808 0.0
H284 H 0.44544 0.88817 0.75674 0.0
H285 H 0.33696 0.72693 0.72043 0.0
H286 H 0.26865 0.73807 0.7224 0.0
H287 H 0.33064 0.83116 0.77659 0.0
C288 C 0.48681 0.81543 0.76904 0.0
C289 C 0.50717 0.7954 0.75603 0.0
C290 C 0.48032 0.76376 0.73964 0.0
C291 C 0.43433 0.75316 0.7359 0.0
C292 C 0.41563 0.77422 0.74878 0.0
C293 C 0.44094 0.80442 0.76513 0.0
C294 C 0.41363 0.82413 0.77603 0.0
C295 C 0.4042 0.8089 0.79967 0.0
C296 C 0.43859 0.87754 0.77389 0.0
C297 C 0.36935 0.8011 0.76297 0.0
C298 C 0.37104 0.77224 0.7474 0.0
C299 C 0.33503 0.749 0.73273 0.0
C300 C 0.29643 0.75565 0.73394 0.0
C301 C 0.29417 0.7853 0.74971 0.0
C302 C 0.33102 0.80785 0.7645 0.0
H303 H 0.4824 0.33192 0.87164 0.0
H304 H 0.49758 0.2493 0.92184 0.0
H305 H 0.57797 0.3126 0.92826 0.0
H306 H 0.60145 0.38469 0.85117 0.0
H307 H 0.60492 0.43998 0.84598 0.0
H308 H 0.54968 0.38694 0.84448 0.0
H309 H 0.51527 0.42016 0.8721 0.0
H310 H 0.57037 0.47317 0.87374 0.0
H311 H 0.54335 0.4403 0.89774 0.0
H312 H 0.65495 0.3873 0.93086 0.0
H313 H 0.72307 0.46662 0.92874 0.0
H314 H 0.65758 0.49947 0.87645 0.0
C315 C 0.50274 0.32681 0.88382 0.0
C316 C 0.48363 0.28557 0.89622 0.0
C317 C 0.51146 0.2805 0.91208 0.0
C318 C 0.55718 0.31627 0.91585 0.0
C319 C 0.57469 0.35675 0.90354 0.0
C320 C 0.54842 0.36205 0.88774 0.0
C321 C 0.57481 0.40953 0.87721 0.0
C322 C 0.58322 0.40499 0.85329 0.0
C323 C 0.54943 0.43742 0.8804 0.0
C324 C 0.61974 0.43046 0.88981 0.0
C325 C 0.61909 0.39945 0.90487 0.0
C326 C 0.65603 0.41169 0.91897 0.0
C327 C 0.69452 0.45686 0.91767 0.0
C328 C 0.69581 0.48922 0.90237 0.0
C329 C 0.65795 0.47547 0.88818 0.0
H330 H 0.23824 0.17354 0.19694 0.0
H331 H 0.37237 0.29515 0.20941 0.0
H332 H 0.36055 0.33559 0.17838 0.0
H333 H 0.24743 0.1803 0.1393 0.0
H334 H 0.18624 0.15939 0.13573 0.0
H335 H 0.20612 0.14143 0.1588 0.0
H336 H 0.16443 0.17174 0.18385 0.0
H337 H 0.14454 0.1899 0.16088 0.0
H338 H 0.17746 0.23139 0.18154 0.0
H339 H 0.32949 0.3636 0.14681 0.0
H340 H 0.28655 0.37332 0.11637 0.0
H341 H 0.17661 0.23012 0.12451 0.0
C342 C 0.2652 0.20876 0.1932 0.0
C343 C 0.30594 0.23157 0.20566 0.0
C344 C 0.34082 0.27723 0.20002 0.0
C345 C 0.3343 0.30038 0.1825 0.0
C346 C 0.29319 0.27686 0.17067 0.0
C347 C 0.25968 0.23172 0.17569 0.0
C348 C 0.21904 0.21313 0.16045 0.0
C349 C 0.21447 0.17109 0.14782 0.0
C350 C 0.17371 0.20085 0.1724 0.0
C351 C 0.2343 0.25504 0.14613 0.0
C352 C 0.27689 0.29177 0.15224 0.0
C353 C 0.29644 0.33479 0.14175 0.0
C354 C 0.27183 0.34006 0.12456 0.0
C355 C 0.22861 0.30229 0.11793 0.0
C356 C 0.20998 0.25942 0.12892 0.0
H357 H 0.9245 0.17096 0.2954 0.0
H358 H 0.9051 0.28987 0.28501 0.0
H359 H 0.95832 0.33085 0.31545 0.0
H360 H 0.925 0.17615 0.35306 0.0
H361 H 0.96733 0.15734 0.35569 0.0
H362 H 0.92859 0.13877 0.33303 0.0
H363 H -0.00069 0.17216 0.3072 0.0
H364 H 0.03826 0.19094 0.32977 0.0
H365 H 0.04391 0.23242 0.30953 0.0
H366 H 0.01825 0.35978 0.3463 0.0
H367 H 0.07214 0.37059 0.37626 0.0
H368 H 0.04578 0.22958 0.36683 0.0
C369 C 0.9315 0.20571 0.29946 0.0
C370 C 0.91121 0.22756 0.28774 0.0
C371 C 0.92048 0.27264 0.2938 0.0
C372 C 0.95071 0.29613 0.311 0.0
C373 C 0.97051 0.27358 0.32211 0.0
C374 C 0.96059 0.22904 0.31669 0.0
C375 C 0.98479 0.21143 0.33135 0.0
C376 C 0.94931 0.16839 0.34403 0.0
C377 C 0.01857 0.20116 0.3187 0.0
C378 C 0.01052 0.25319 0.34579 0.0
C379 C 0.00242 0.289 0.3402 0.0
C380 C 0.02433 0.3317 0.35093 0.0
C381 C 0.05495 0.33761 0.36785 0.0
C382 C 0.06265 0.30074 0.374 0.0
C383 C 0.04003 0.25817 0.36275 0.0
H384 H 0.81075 0.07268 0.51655 0.0
H385 H 0.68619 0.07429 0.53629 0.0
H386 H 0.64253 0.0202 0.50645 0.0
H387 H 0.78964 0.06941 0.45879 0.0
H388 H 0.81441 0.03254 0.45387 0.0
H389 H 0.83504 0.07293 0.47596 0.0
H390 H 0.81715 0.00496 0.50211 0.0
H391 H 0.79611 0.96434 0.48017 0.0
H392 H 0.75927 0.95529 0.50305 0.0
H393 H 0.61157 0.9585 0.47619 0.0
H394 H 0.59858 0.90264 0.44677 0.0
H395 H 0.74578 0.9475 0.44681 0.0
C396 C 0.77437 0.06208 0.51446 0.0
C397 C 0.75162 0.07725 0.52871 0.0
C398 C 0.70417 0.06305 0.52541 0.0
C399 C 0.67917 0.03227 0.50859 0.0
C400 C 0.70259 0.01705 0.49507 0.0
C401 C 0.74942 0.03235 0.49767 0.0
C402 C 0.76697 0.01106 0.48135 0.0
C403 C 0.80367 0.04873 0.46662 0.0
C404 C 0.78597 0.9822 0.49234 0.0
C405 C 0.72253 0.98034 0.46938 0.0
C406 C 0.68554 0.98385 0.47745 0.0
C407 C 0.64051 0.95617 0.46954 0.0
C408 C 0.6334 0.92444 0.45292 0.0
C409 C 0.67124 0.92114 0.44433 0.0
C410 C 0.71621 0.94973 0.45272 0.0
H411 H 0.82782 0.76611 0.61751 0.0
H412 H 0.71479 0.62347 0.61268 0.0
H413 H 0.67713 0.63599 0.64441 0.0
H414 H 0.83441 0.7686 0.67474 0.0
H415 H 0.84853 0.82862 0.67663 0.0
H416 H 0.86501 0.80857 0.65315 0.0
H417 H 0.8212 0.83811 0.62905 0.0
H418 H 0.80465 0.85833 0.65245 0.0
H419 H 0.76071 0.81842 0.63422 0.0
H420 H 0.65109 0.66612 0.67631 0.0
H421 H 0.64198 0.70894 0.70684 0.0
H422 H 0.77528 0.82939 0.69142 0.0
C423 C 0.79494 0.73754 0.62299 0.0
C424 C 0.77391 0.69395 0.61252 0.0
C425 C 0.73136 0.6572 0.62046 0.0
C426 C 0.70974 0.66404 0.63841 0.0
C427 C 0.73153 0.70758 0.64836 0.0
C428 C 0.77345 0.7435 0.641 0.0
C429 C 0.79082 0.78643 0.65486 0.0
C430 C 0.83744 0.79875 0.66547 0.0
C431 C 0.79454 0.82775 0.64187 0.0
C432 C 0.75206 0.7693 0.67119 0.0
C433 C 0.71785 0.72394 0.6671 0.0
C434 C 0.67789 0.70149 0.67974 0.0
C435 C 0.67296 0.72606 0.697 0.0
C436 C 0.70816 0.77224 0.70161 0.0
C437 C 0.74812 0.79386 0.6885 0.0
H438 H -0.00539 0.71333 0.87875 0.0
H439 H 0.86867 0.5922 0.85641 0.0
H440 H 0.90832 0.59377 0.82259 0.0
H441 H 0.02303 0.77351 0.83242 0.0
H442 H 0.08512 0.79811 0.83439 0.0
H443 H 0.05031 0.78172 0.8583 0.0
H444 H 0.08319 0.72828 0.8696 0.0
H445 H 0.11845 0.74475 0.84567 0.0
H446 H 0.07914 0.68409 0.85139 0.0
H447 H 0.95546 0.61907 0.78874 0.0
H448 H 0.00822 0.66309 0.7587 0.0
H449 H 0.10499 0.76458 0.80357 0.0
C450 C 0.97582 0.6862 0.86703 0.0
C451 C 0.92859 0.65262 0.8702 0.0
C452 C 0.90501 0.618 0.85441 0.0
C453 C 0.92728 0.61863 0.83514 0.0
C454 C 0.97339 0.65344 0.83215 0.0
C455 C -0.00233 0.68606 0.84787 0.0
C456 C 0.04523 0.72262 0.84 0.0
C457 C 0.05122 0.77186 0.84135 0.0
C458 C 0.08378 0.71974 0.8524 0.0
C459 C 0.04293 0.70716 0.81698 0.0
C460 C 0.00144 0.66682 0.81279 0.0
C461 C 0.98876 0.64959 0.79198 0.0
C462 C 0.01879 0.67466 0.77503 0.0
C463 C 0.06106 0.71601 0.77912 0.0
C464 C 0.07371 0.73183 0.80032 0.0
H465 H 0.1748 0.89328 0.02234 0.0
H466 H 0.30945 0.93418 0.04999 0.0
H467 H 0.34789 0.98522 0.01839 0.0
H468 H 0.2097 0.89286 0.96567 0.0
H469 H 0.17195 0.91372 0.95619 0.0
H470 H 0.15661 0.87765 0.97984 0.0
H471 H 0.14987 0.94105 0.00143 0.0
H472 H 0.16544 0.97737 0.97796 0.0
H473 H 0.19873 -0.0005 0.00226 0.0
H474 H 0.36987 0.03942 0.98549 0.0
H475 H 0.37347 0.08705 0.95401 0.0
H476 H 0.22339 0.00538 0.94802 0.0
C477 C 0.21243 0.91235 0.02149 0.0
C478 C 0.23942 0.91019 0.03838 0.0
C479 C 0.28845 0.9354 0.03697 0.0
C480 C 0.31039 0.96439 0.01915 0.0
C481 C 0.28256 0.96656 0.00283 0.0
C482 C 0.23459 0.94038 0.00375 0.0
C483 C 0.21205 0.94968 0.98479 0.0
C484 C 0.18605 0.90587 0.97079 0.0
C485 C 0.17965 0.96801 0.99206 0.0
C486 C 0.25462 0.98691 0.97346 0.0
C487 C 0.29511 -0.00386 0.98389 0.0
C488 C 0.33839 0.03177 0.977 0.0
C489 C 0.3401 0.05871 0.95913 0.0
C490 C 0.29876 0.04984 0.94844 0.0
C491 C 0.25576 0.01288 0.95561 0.0
H492 H 0.13366 0.25932 -0.00479 0.0
H493 H 0.26168 0.38014 0.01557 0.0
H494 H 0.30158 0.37287 0.98343 0.0
H495 H 0.17863 0.19374 0.98063 0.0
H496 H 0.1424 0.16658 0.95756 0.0
H497 H 0.12175 0.18809 0.97881 0.0
H498 H 0.10807 0.23982 0.95187 0.0
H499 H 0.12827 0.21799 0.93034 0.0
H500 H 0.15502 0.27986 0.93484 0.0
H501 H 0.33075 0.34066 0.95411 0.0
H502 H 0.34469 0.2903 0.9294 0.0
H503 H 0.19637 0.1931 0.92744 0.0
C504 C 0.16961 0.28542 0.9924 0.0
C505 C 0.19459 0.32039 0.00773 0.0
C506 C 0.24176 0.35352 0.0038 0.0
C507 C 0.2647 0.34953 0.98561 0.0
C508 C 0.23958 0.31296 0.97132 0.0
C509 C 0.19266 0.28219 0.97428 0.0
C510 C 0.17446 0.24283 0.95819 0.0
C511 C 0.15311 0.19505 0.96948 0.0
C512 C 0.13939 0.2453 0.9429 0.0
C513 C 0.21899 0.25435 0.94662 0.0
C514 C 0.25618 0.29525 0.95411 0.0
C515 C 0.30166 0.30938 0.94766 0.0
C516 C 0.3093 0.28049 0.93365 0.0
C517 C 0.27162 0.23788 0.92631 0.0
C518 C 0.22592 0.22581 0.93238 0.0
H519 H 0.86305 0.14586 0.16234 0.0
H520 H 0.87534 0.27445 0.18618 0.0
H521 H 0.92217 0.31622 0.15424 0.0
H522 H 0.97207 0.18831 0.14639 0.0
H523 H 0.96081 0.1537 0.12248 0.0
H524 H 0.9197 0.13256 0.14412 0.0
H525 H 0.85448 0.12392 0.11838 0.0
H526 H 0.89548 0.14473 0.09648 0.0
H527 H 0.86255 0.17322 0.10267 0.0
H528 H 0.9826 0.34612 0.12461 0.0
H529 H 0.04542 0.35989 0.0991 0.0
H530 H 0.98907 0.21061 0.09357 0.0
C531 C 0.87401 0.18244 0.16035 0.0
C532 C 0.86554 0.20698 0.17657 0.0
C533 C 0.88092 0.25494 0.17371 0.0
C534 C 0.90763 0.27891 0.15565 0.0
C535 C 0.91741 0.25405 0.14039 0.0
C536 C 0.89993 0.20651 0.14233 0.0
C537 C 0.91921 0.18846 0.12519 0.0
C538 C 0.94445 0.1644 0.13515 0.0
C539 C 0.88063 0.15565 0.10976 0.0
C540 C 0.9528 0.23363 0.1142 0.0
C541 C 0.95094 0.27112 0.1229 0.0
C542 C 0.98331 0.31688 0.11721 0.0
C543 C 0.01897 0.32442 0.10272 0.0
C544 C 0.02201 0.28635 0.09414 0.0
C545 C 0.98731 0.24051 0.09943 0.0
H546 H 0.76193 0.98937 0.25524 0.0
H547 H 0.67271 0.04939 0.26384 0.0
H548 H 0.62138 0.98336 0.28737 0.0
H549 H 0.66915 0.86142 0.2613 0.0
H550 H 0.70929 0.85014 0.27607 0.0
H551 H 0.73034 0.89349 0.25509 0.0
H552 H 0.78768 0.95502 0.28194 0.0
H553 H 0.76684 0.9122 0.30287 0.0
H554 H 0.76541 0.96558 0.30643 0.0
H555 H 0.58932 0.92016 0.3155 0.0
H556 H 0.58415 0.87156 0.34675 0.0
H557 H 0.69705 0.85618 0.32093 0.0
C558 C 0.73054 0.98774 0.2613 0.0
C559 C 0.72121 0.02445 0.25754 0.0
C560 C 0.68039 0.02148 0.2663 0.0
C561 C 0.6509 0.98394 0.27964 0.0
C562 C 0.66257 0.94953 0.28395 0.0
C563 C 0.70142 0.9511 0.27487 0.0
C564 C 0.7115 0.91528 0.28481 0.0
C565 C 0.70464 0.87786 0.26833 0.0
C566 C 0.76072 0.93843 0.2946 0.0
C567 C 0.67426 0.8954 0.30191 0.0
C568 C 0.64516 0.91417 0.3007 0.0
C569 C 0.61119 0.90444 0.31627 0.0
C570 C 0.60831 0.87663 0.33394 0.0
C571 C 0.64006 0.86001 0.33609 0.0
C572 C 0.67196 0.86796 0.31944 0.0
H573 H 0.84169 0.71936 0.48572 0.0
H574 H 0.71848 0.60348 0.51329 0.0
H575 H 0.67182 0.6055 0.48271 0.0
H576 H 0.79465 0.78315 0.47109 0.0
H577 H 0.82561 0.80523 0.44617 0.0
H578 H 0.85054 0.78744 0.46711 0.0
H579 H 0.85741 0.72996 0.44115 0.0
H580 H 0.83277 0.74797 0.41994 0.0
H581 H 0.80668 0.68719 0.42697 0.0
H582 H 0.63663 0.63302 0.4541 0.0
H583 H 0.61773 0.67932 0.42901 0.0
H584 H 0.76499 0.77375 0.41902 0.0
C585 C 0.80524 0.69319 0.48482 0.0
C586 C 0.78363 0.66117 0.50172 0.0
C587 C 0.73577 0.62785 0.50029 0.0
C588 C 0.70902 0.62885 0.48301 0.0
C589 C 0.73101 0.66254 0.46705 0.0
C590 C 0.7784 0.69331 0.46757 0.0
C591 C 0.79316 0.72934 0.44992 0.0
C592 C 0.81736 0.77918 0.45914 0.0
C593 C 0.82435 0.72322 0.43352 0.0
C594 C 0.74636 0.71624 0.44033 0.0
C595 C 0.71086 0.67724 0.45013 0.0
C596 C 0.66425 0.66266 0.44583 0.0
C597 C 0.65379 0.68924 0.43159 0.0
C598 C 0.68983 0.72996 0.42186 0.0
C599 C 0.73654 0.74232 0.42579 0.0
H600 H 0.0507 0.70788 0.67845 0.0
H601 H 0.16824 0.83488 0.65494 0.0
H602 H 0.1379 0.8142 0.61785 0.0
H603 H 0.03376 0.63338 0.62816 0.0
H604 H 0.97153 0.60499 0.6313 0.0
H605 H 0.00859 0.6235 0.65462 0.0
H606 H 0.97024 0.67107 0.66745 0.0
H607 H 0.93341 0.65294 0.64427 0.0
H608 H 0.96991 0.71418 0.64981 0.0
H609 H 0.0862 0.78957 0.58582 0.0
H610 H 0.01865 0.76324 0.56174 0.0
H611 H 0.93532 0.65002 0.60547 0.0
C612 C 0.07104 0.72995 0.66525 0.0
C613 C 0.11221 0.77222 0.66921 0.0
C614 C 0.13725 0.80173 0.65195 0.0
C615 C 0.12022 0.79018 0.6309 0.0
C616 C 0.07844 0.74881 0.6275 0.0
C617 C 0.05453 0.71873 0.64421 0.0
C618 C 0.00734 0.68017 0.63701 0.0
C619 C 0.0052 0.6327 0.63782 0.0
C620 C 0.96796 0.67963 0.65042 0.0
C621 C 0.0069 0.69507 0.61408 0.0
C622 C 0.04861 0.73413 0.60872 0.0
C623 C 0.05399 0.75815 0.58956 0.0
C624 C 0.0154 0.74299 0.57597 0.0
C625 C 0.97199 0.70415 0.58159 0.0
C626 C 0.96846 0.67883 0.60042 0.0
H627 H 0.23503 0.09043 0.82918 0.0
H628 H 0.36993 0.10549 0.84301 0.0
H629 H 0.36377 0.06007 0.8104 0.0
H630 H 0.18153 0.97816 0.81566 0.0
H631 H 0.14592 0.98062 0.79442 0.0
H632 H 0.16571 0.02306 0.8155 0.0
H633 H 0.20354 0.08986 0.78759 0.0
H634 H 0.18335 0.04747 0.76626 0.0
H635 H 0.24422 0.09011 0.76831 0.0
H636 H 0.33473 -0.00115 0.78117 0.0
H637 H 0.28803 0.93218 0.75716 0.0
H638 H 0.17329 0.9597 0.76201 0.0
C639 C 0.2641 0.08572 0.82489 0.0
C640 C 0.30301 0.10157 0.83855 0.0
C641 C 0.34008 0.0942 0.8326 0.0
C642 C 0.33678 0.06831 0.81413 0.0
C643 C 0.29667 0.05102 0.80158 0.0
C644 C 0.26143 0.06037 0.80652 0.0
C645 C 0.21972 0.03378 0.79208 0.0
C646 C 0.17568 0.00204 0.8052 0.0
C647 C 0.21229 0.06731 0.7777 0.0
C648 C 0.23569 0.00572 0.77909 0.0
C649 C 0.28041 0.01655 0.7845 0.0
C650 C 0.30024 0.99107 0.77637 0.0
C651 C 0.27337 0.95313 0.76277 0.0
C652 C 0.22709 0.9409 0.7575 0.0
C653 C 0.20883 0.96862 0.76532 0.0
H654 H 0.75704 0.85628 0.82312 0.0
H655 H 0.62458 0.73634 0.80657 0.0
H656 H 0.62958 0.69483 0.83864 0.0
H657 H 0.81203 0.7984 0.8368 0.0
H658 H 0.8451 0.83511 0.85887 0.0
H659 H 0.82617 0.85855 0.83769 0.0
H660 H 0.78455 0.88388 0.86532 0.0
H661 H 0.80373 0.86074 0.88672 0.0
H662 H 0.74276 0.84146 0.8836 0.0
H663 H 0.6575 0.66129 0.86788 0.0
H664 H 0.70349 0.64075 0.89225 0.0
H665 H 0.81588 0.78416 0.89032 0.0
C666 C 0.72829 0.82188 0.82665 0.0
C667 C 0.69042 0.79953 0.81241 0.0
C668 C 0.65369 0.75432 0.81742 0.0
C669 C 0.65629 0.73047 0.83559 0.0
C670 C 0.6953 0.75279 0.84882 0.0
C671 C 0.73016 0.79796 0.84477 0.0
C672 C 0.77068 0.81268 0.85994 0.0
C673 C 0.81613 0.82698 0.84758 0.0
C674 C 0.77571 0.85202 0.87478 0.0
C675 C 0.75461 0.76786 0.87229 0.0
C676 C 0.71075 0.73382 0.86595 0.0
C677 C 0.69127 0.68804 0.8734 0.0
C678 C 0.7177 0.67665 0.88722 0.0
C679 C 0.76321 0.71089 0.89337 0.0
C680 C 0.78094 0.75728 0.88629 0.0
H681 H 0.88783 0.72429 0.99209 0.0
H682 H 0.88655 0.5968 0.97499 0.0
H683 H 0.9288 0.60148 0.00853 0.0
H684 H -0.00328 0.78333 0.00946 0.0
H685 H 0.98736 0.81302 0.03147 0.0
H686 H 0.94824 0.79376 0.0091 0.0
H687 H 0.87852 0.74644 0.03462 0.0
H688 H 0.91755 0.76598 0.05724 0.0
H689 H 0.87967 0.70453 0.05277 0.0
H690 H 0.98725 0.63111 0.03895 0.0
H691 H 0.04997 0.67901 0.06464 0.0
H692 H 0.00758 0.78375 0.06313 0.0
C693 C 0.89475 0.69634 -0.00411 0.0
C694 C 0.88382 0.66008 0.98113 0.0
C695 C 0.89402 0.62446 0.98633 0.0
C696 C 0.91813 0.62696 0.0053 0.0
C697 C 0.93049 0.66458 0.01911 0.0
C698 C 0.91796 0.69796 0.01486 0.0
C699 C 0.93927 0.73748 0.03085 0.0
C700 C 0.9697 0.78462 0.01954 0.0
C701 C 0.90149 0.73865 0.04469 0.0
C702 C 0.96826 0.72283 0.04393 0.0
C703 C 0.96251 0.68048 0.03716 0.0
C704 C 0.99084 0.66349 0.04489 0.0
C705 C 0.02647 0.69096 0.05946 0.0
C706 C 0.03336 0.73487 0.06616 0.0
C707 C 0.0026 0.74985 0.05882 0.0
H708 H 0.1487 0.87347 0.16334 0.0
H709 H 0.27545 0.87614 0.14396 0.0
H710 H 0.31489 0.92157 0.17653 0.0
H711 H 0.19594 0.9836 0.17913 0.0
H712 H 0.15878 0.97437 0.2019 0.0
H713 H 0.13828 0.93357 0.18014 0.0
H714 H 0.12126 0.86615 0.20646 0.0
H715 H 0.14145 0.90688 0.22846 0.0
H716 H 0.16677 0.87042 0.22377 0.0
H717 H 0.34432 0.98203 0.20613 0.0
H718 H 0.35904 0.04597 0.23116 0.0
H719 H 0.21142 -0.00113 0.23245 0.0
C720 C 0.18423 0.88202 0.16644 0.0
C721 C 0.20907 0.87125 0.15129 0.0
C722 C 0.25568 0.88351 0.15559 0.0
C723 C 0.27832 0.90941 0.17402 0.0
C724 C 0.25338 0.9215 0.18819 0.0
C725 C 0.2069 0.90706 0.18485 0.0
C726 C 0.18893 0.92836 0.20104 0.0
C727 C 0.16939 0.95665 0.18988 0.0
C728 C 0.15245 0.8907 0.21581 0.0
C729 C 0.23321 0.95958 0.21314 0.0
C730 C 0.27001 0.95485 0.20576 0.0
C731 C 0.31549 0.9849 0.21252 0.0
C732 C 0.32358 0.02122 0.22673 0.0
C733 C 0.28634 0.02712 0.23402 0.0
C734 C 0.24054 0.99469 0.22767 0.0
H735 H 0.3275 0.26774 0.30532 0.0
H736 H 0.32578 0.14807 0.33435 0.0
H737 H 0.31526 0.17389 0.37017 0.0
H738 H 0.38216 0.35163 0.35305 0.0
H739 H 0.34537 0.37645 0.34808 0.0
H740 H 0.36532 0.35575 0.32599 0.0
H741 H 0.28005 0.30254 0.31395 0.0
H742 H 0.2599 0.32268 0.33597 0.0
H743 H 0.23867 0.26118 0.33273 0.0
H744 H 0.2866 0.20149 0.40046 0.0
H745 H 0.24389 0.22929 0.42288 0.0
H746 H 0.26614 0.33315 0.37483 0.0
C747 C 0.32741 0.24857 0.31944 0.0
C748 C 0.32882 0.20686 0.3174 0.0
C749 C 0.32615 0.18089 0.33586 0.0
C750 C 0.32014 0.19534 0.3562 0.0
C751 C 0.31712 0.2359 0.3577 0.0
C752 C 0.32138 0.2626 0.33981 0.0
C753 C 0.30997 0.30053 0.34513 0.0
C754 C 0.3533 0.34897 0.34294 0.0
C755 C 0.26976 0.29643 0.33113 0.0
C756 C 0.29556 0.28911 0.3684 0.0
C757 C 0.30085 0.25232 0.37549 0.0
C758 C 0.28374 0.23127 0.39536 0.0
C759 C 0.25943 0.24719 0.40798 0.0
C760 C 0.25256 0.28392 0.40073 0.0
C761 C 0.27239 0.30617 0.38107 0.0
H762 H 0.06415 0.33975 0.47291 0.0
H763 H 0.16706 0.31142 0.50068 0.0
H764 H 0.12955 0.29976 0.53619 0.0
H765 H 0.04009 0.39201 0.52379 0.0
H766 H 0.97903 0.36322 0.51737 0.0
H767 H 0.02171 0.38378 0.49615 0.0
H768 H 0.98161 0.30089 0.47977 0.0
H769 H 0.93931 0.28007 0.5009 0.0
H770 H 0.97359 0.2524 0.49612 0.0
H771 H 0.07161 0.27227 0.56539 0.0
H772 H -0.00161 0.23125 0.58585 0.0
H773 H 0.93147 0.27685 0.53971 0.0
C774 C 0.08016 0.33389 0.48683 0.0
C775 C 0.11925 0.32807 0.48445 0.0
C776 C 0.13799 0.31749 0.50251 0.0
C777 C 0.11683 0.3108 0.52269 0.0
C778 C 0.0769 0.31467 0.52445 0.0
C779 C 0.05899 0.32656 0.50702 0.0
C780 C 0.01149 0.32038 0.51212 0.0
C781 C 0.0132 0.36767 0.51238 0.0
C782 C 0.97436 0.28641 0.4963 0.0
C783 C 0.00397 0.2999 0.5345 0.0
C784 C 0.04264 0.29811 0.54154 0.0
C785 C 0.0417 0.27481 0.56037 0.0
C786 C -0.00011 0.25146 0.57187 0.0
C787 C 0.95948 0.25144 0.56451 0.0
C788 C 0.96221 0.27755 0.54607 0.0
H789 H 0.66199 0.92697 0.70215 0.0
H790 H 0.75696 0.02199 0.7496 0.0
H791 H 0.77568 0.08847 0.72545 0.0
H792 H 0.73502 0.97409 0.66142 0.0
H793 H 0.69303 0.96559 0.64099 0.0
H794 H 0.67546 0.92812 0.66402 0.0
H795 H 0.6117 0.9493 0.67264 0.0
H796 H 0.62892 0.98679 0.6494 0.0
H797 H 0.62728 0.00959 0.67544 0.0
H798 H 0.79535 0.14208 0.69389 0.0
H799 H 0.81887 0.17591 0.65742 0.0
H800 H 0.71656 0.04464 0.62978 0.0
C801 C 0.68476 0.96204 0.70787 0.0
C802 C 0.70712 0.96965 0.7279 0.0
C803 C 0.73879 0.0157 0.73445 0.0
C804 C 0.74948 0.05361 0.72085 0.0
C805 C 0.7286 0.04479 0.70066 0.0
C806 C 0.69683 -3e-05 0.6942 0.0
C807 C 0.68643 -0.00175 0.67046 0.0
C808 C 0.69823 0.96457 0.65855 0.0
C809 C 0.63556 0.98522 0.66677 0.0
C810 C 0.71921 0.04844 0.6643 0.0
C811 C 0.74194 0.07524 0.68203 0.0
C812 C 0.77696 0.12173 0.67998 0.0
C813 C 0.79006 0.14075 0.65927 0.0
C814 C 0.76882 0.11289 0.64104 0.0
C815 C 0.73232 0.06674 0.64362 0.0
loop_
_geom_bond_atom_site_label_1
_geom_bond_atom_site_label_2
_geom_bond_distance
_geom_bond_site_symmetry_2
_ccdc_geom_bond_type
Zn0 O3 2.031 . S
Zn0 O5 2.049 . S
Zn0 O10 2.067 . S
Zn1 O2 1.962 . S
Zn1 O4 1.986 . S
Zn1 O6 1.996 . S
Zn1 O9 1.943 . S
O2 Zn1 1.962 . S
O2 C7 1.254 . S
O3 Zn0 2.031 . S
O3 C7 1.269 . S
O4 Zn1 1.986 . S
O4 C11 1.262 . S
O5 Zn0 2.049 . S
O5 C13 1.260 . S
O6 Zn1 1.996 . S
O6 C13 1.257 . S
C7 O2 1.254 . S
C7 O3 1.269 . S
C8 O9 1.249 . S
C8 O10 1.270 . S
O9 Zn1 1.943 . S
O9 C8 1.249 . S
O10 Zn0 2.067 . S
O10 C8 1.270 . S
C11 O4 1.262 . S
C11 O12 1.232 . S
O12 C11 1.232 . S
C13 O5 1.260 . S
C13 O6 1.257 . S
Zn14 O17 2.031 . S
Zn14 O19 2.049 . S
Zn14 O24 2.067 . S
Zn15 O16 1.962 . S
Zn15 O18 1.986 . S
Zn15 O20 1.996 . S
Zn15 O23 1.943 . S
O16 Zn15 1.962 . S
O16 C21 1.254 . S
O17 Zn14 2.031 . S
O17 C21 1.269 . S
O18 Zn15 1.986 . S
O18 C25 1.262 . S
O19 Zn14 2.049 . S
O19 C27 1.260 . S
O20 Zn15 1.996 . S
O20 C27 1.257 . S
C21 O16 1.254 . S
C21 O17 1.269 . S
C22 O23 1.249 . S
C22 O24 1.270 . S
O23 Zn15 1.943 . S
O23 C22 1.249 . S
O24 Zn14 2.067 . S
O24 C22 1.270 . S
C25 O18 1.262 . S
C25 O26 1.232 . S
O26 C25 1.232 . S
C27 O19 1.260 . S
C27 O20 1.257 . S
Zn28 O31 2.031 . S
Zn28 O33 2.049 . S
Zn28 O38 2.067 . S
Zn29 O30 1.962 . S
Zn29 O32 1.986 . S
Zn29 O34 1.996 . S
Zn29 O37 1.943 . S
O30 Zn29 1.962 . S
O30 C35 1.254 . S
O31 Zn28 2.031 . S
O31 C35 1.269 . S
O32 Zn29 1.986 . S
O32 C39 1.262 . S
O33 Zn28 2.049 . S
O33 C41 1.260 . S
O34 Zn29 1.996 . S
O34 C41 1.257 . S
C35 O30 1.254 . S
C35 O31 1.269 . S
C36 O37 1.249 . S
C36 O38 1.270 . S
O37 Zn29 1.943 . S
O37 C36 1.249 . S
O38 Zn28 2.067 . S
O38 C36 1.270 . S
C39 O32 1.262 . S
C39 O40 1.232 . S
O40 C39 1.232 . S
C41 O33 1.260 . S
C41 O34 1.257 . S
Zn42 O45 2.031 . S
Zn42 O47 2.049 . S
Zn42 O52 2.067 . S
Zn43 O44 1.962 . S
Zn43 O46 1.986 . S
Zn43 O48 1.996 . S
Zn43 O51 1.943 . S
O44 Zn43 1.962 . S
O44 C49 1.254 . S
O45 Zn42 2.031 . S
O45 C49 1.269 . S
O46 Zn43 1.986 . S
O46 C53 1.262 . S
O47 Zn42 2.049 . S
O47 C55 1.260 . S
O48 Zn43 1.996 . S
O48 C55 1.257 . S
C49 O44 1.254 . S
C49 O45 1.269 . S
C50 O51 1.249 . S
C50 O52 1.270 . S
O51 Zn43 1.943 . S
O51 C50 1.249 . S
O52 Zn42 2.067 . S
O52 C50 1.270 . S
C53 O46 1.262 . S
C53 O54 1.232 . S
O54 C53 1.232 . S
C55 O47 1.260 . S
C55 O48 1.257 . S
Zn56 O59 2.031 . S
Zn56 O61 2.049 . S
Zn56 O66 2.067 . S
Zn57 O58 1.962 . S
Zn57 O60 1.986 . S
Zn57 O62 1.996 . S
Zn57 O65 1.943 . S
O58 Zn57 1.962 . S
O58 C63 1.254 . S
O59 Zn56 2.031 . S
O59 C63 1.269 . S
O60 Zn57 1.986 . S
O60 C67 1.262 . S
O61 Zn56 2.049 . S
O61 C69 1.260 . S
O62 Zn57 1.996 . S
O62 C69 1.257 . S
C63 O58 1.254 . S
C63 O59 1.269 . S
C64 O65 1.249 . S
C64 O66 1.270 . S
O65 Zn57 1.943 . S
O65 C64 1.249 . S
O66 Zn56 2.067 . S
O66 C64 1.270 . S
C67 O60 1.262 . S
C67 O68 1.232 . S
O68 C67 1.232 . S
C69 O61 1.260 . S
C69 O62 1.257 . S
Zn70 O73 2.031 . S
Zn70 O75 2.049 . S
Zn70 O80 2.067 . S
Zn71 O72 1.962 . S
Zn71 O74 1.986 . S
Zn71 O76 1.996 . S
Zn71 O79 1.943 . S
O72 Zn71 1.962 . S
O72 C77 1.254 . S
O73 Zn70 2.031 . S
O73 C77 1.269 . S
O74 Zn71 1.986 . S
O74 C81 1.262 . S
O75 Zn70 2.049 . S
O75 C83 1.260 . S
O76 Zn71 1.996 . S
O76 C83 1.257 . S
C77 O72 1.254 . S
C77 O73 1.269 . S
C78 O79 1.249 . S
C78 O80 1.270 . S
O79 Zn71 1.943 . S
O79 C78 1.249 . S
O80 Zn70 2.067 . S
O80 C78 1.270 . S
C81 O74 1.262 . S
C81 O82 1.232 . S
O82 C81 1.232 . S
C83 O75 1.260 . S
C83 O76 1.257 . S
Zn84 O87 2.031 . S
Zn84 O89 2.049 . S
Zn84 O94 2.067 . S
Zn85 O86 1.962 . S
Zn85 O88 1.986 . S
Zn85 O90 1.996 . S
Zn85 O93 1.943 . S
O86 Zn85 1.962 . S
O86 C91 1.254 . S
O87 Zn84 2.031 . S
O87 C91 1.269 . S
O88 Zn85 1.986 . S
O88 C95 1.262 . S
O89 Zn84 2.049 . S
O89 C97 1.260 . S
O90 Zn85 1.996 . S
O90 C97 1.257 . S
C91 O86 1.254 . S
C91 O87 1.269 . S
C92 O93 1.249 . S
C92 O94 1.270 . S
O93 Zn85 1.943 . S
O93 C92 1.249 . S
O94 Zn84 2.067 . S
O94 C92 1.270 . S
C95 O88 1.262 . S
C95 O96 1.232 . S
O96 C95 1.232 . S
C97 O89 1.260 . S
C97 O90 1.257 . S
Zn98 O101 2.031 . S
Zn98 O103 2.049 . S
Zn98 O108 2.067 . S
Zn99 O100 1.962 . S
Zn99 O102 1.986 . S
Zn99 O104 1.996 . S
Zn99 O107 1.943 . S
O100 Zn99 1.962 . S
O100 C105 1.254 . S
O101 Zn98 2.031 . S
O101 C105 1.269 . S
O102 Zn99 1.986 . S
O102 C109 1.262 . S
O103 Zn98 2.049 . S
O103 C111 1.260 . S
O104 Zn99 1.996 . S
O104 C111 1.257 . S
C105 O100 1.254 . S
C105 O101 1.269 . S
C106 O107 1.249 . S
C106 O108 1.270 . S
O107 Zn99 1.943 . S
O107 C106 1.249 . S
O108 Zn98 2.067 . S
O108 C106 1.270 . S
C109 O102 1.262 . S
C109 O110 1.232 . S
O110 C109 1.232 . S
C111 O103 1.260 . S
C111 O104 1.257 . S
Zn112 O115 2.031 . S
Zn112 O117 2.049 . S
Zn112 O122 2.067 . S
Zn113 O114 1.962 . S
Zn113 O116 1.986 . S
Zn113 O118 1.996 . S
Zn113 O121 1.943 . S
O114 Zn113 1.962 . S
O114 C119 1.254 . S
O115 Zn112 2.031 . S
O115 C119 1.269 . S
O116 Zn113 1.986 . S
O116 C123 1.262 . S
O117 Zn112 2.049 . S
O117 C125 1.260 . S
O118 Zn113 1.996 . S
O118 C125 1.257 . S
C119 O114 1.254 . S
C119 O115 1.269 . S
C120 O121 1.249 . S
C120 O122 1.270 . S
O121 Zn113 1.943 . S
O121 C120 1.249 . S
O122 Zn112 2.067 . S
O122 C120 1.270 . S
C123 O116 1.262 . S
C123 O124 1.232 . S
O124 C123 1.232 . S
C125 O117 1.260 . S
C125 O118 1.257 . S
Zn126 O129 2.031 . S
Zn126 O131 2.049 . S
Zn126 O136 2.067 . S
Zn127 O128 1.962 . S
Zn127 O130 1.986 . S
Zn127 O132 1.996 . S
Zn127 O135 1.943 . S
O128 Zn127 1.962 . S
O128 C133 1.254 . S
O129 Zn126 2.031 . S
O129 C133 1.269 . S
O130 Zn127 1.986 . S
O130 C137 1.262 . S
O131 Zn126 2.049 . S
O131 C139 1.260 . S
O132 Zn127 1.996 . S
O132 C139 1.257 . S
C133 O128 1.254 . S
C133 O129 1.269 . S
C134 O135 1.249 . S
C134 O136 1.270 . S
O135 Zn127 1.943 . S
O135 C134 1.249 . S
O136 Zn126 2.067 . S
O136 C134 1.270 . S
C137 O130 1.262 . S
C137 O138 1.232 . S
O138 C137 1.232 . S
C139 O131 1.260 . S
C139 O132 1.257 . S
Zn140 O143 2.031 . S
Zn140 O145 2.049 . S
Zn140 O150 2.067 . S
Zn141 O142 1.962 . S
Zn141 O144 1.986 . S
Zn141 O146 1.996 . S
Zn141 O149 1.943 . S
O142 Zn141 1.962 . S
O142 C147 1.254 . S
O143 Zn140 2.031 . S
O143 C147 1.269 . S
O144 Zn141 1.986 . S
O144 C151 1.262 . S
O145 Zn140 2.049 . S
O145 C153 1.260 . S
O146 Zn141 1.996 . S
O146 C153 1.257 . S
C147 O142 1.254 . S
C147 O143 1.269 . S
C148 O149 1.249 . S
C148 O150 1.270 . S
O149 Zn141 1.943 . S
O149 C148 1.249 . S
O150 Zn140 2.067 . S
O150 C148 1.270 . S
C151 O144 1.262 . S
C151 O152 1.232 . S
O152 C151 1.232 . S
C153 O145 1.260 . S
C153 O146 1.257 . S
Zn154 O157 2.031 . S
Zn154 O159 2.049 . S
Zn154 O164 2.067 . S
Zn155 O156 1.962 . S
Zn155 O158 1.986 . S
Zn155 O160 1.996 . S
Zn155 O163 1.943 . S
O156 Zn155 1.962 . S
O156 C161 1.254 . S
O157 Zn154 2.031 . S
O157 C161 1.269 . S
O158 Zn155 1.986 . S
O158 C165 1.262 . S
O159 Zn154 2.049 . S
O159 C167 1.260 . S
O160 Zn155 1.996 . S
O160 C167 1.257 . S
C161 O156 1.254 . S
C161 O157 1.269 . S
C162 O163 1.249 . S
C162 O164 1.270 . S
O163 Zn155 1.943 . S
O163 C162 1.249 . S
O164 Zn154 2.067 . S
O164 C162 1.270 . S
C165 O158 1.262 . S
C165 O166 1.232 . S
O166 C165 1.232 . S
C167 O159 1.260 . S
C167 O160 1.257 . S
H168 C180 0.930 . S
H169 C182 0.930 . S
H170 C183 0.930 . S
H171 C187 0.959 . S
H172 C187 0.959 . S
H173 C187 0.961 . S
H174 C188 0.960 . S
H175 C188 0.961 . S
H176 C188 0.959 . S
H177 C191 0.929 . S
H178 C192 0.931 . S
H179 C194 0.930 . S
C180 H168 0.930 . S
C180 C181 1.399 . S
C180 C185 1.399 . S
C181 C180 1.399 . S
C181 C182 1.376 . S
C182 H169 0.930 . S
C182 C181 1.376 . S
C182 C183 1.388 . S
C183 H170 0.930 . S
C183 C182 1.388 . S
C183 C184 1.390 . S
C184 C183 1.390 . S
C184 C185 1.394 . S
C184 C190 1.465 . S
C185 C180 1.399 . S
C185 C184 1.394 . S
C185 C186 1.516 . S
C186 C185 1.516 . S
C186 C187 1.502 . S
C186 C188 1.561 . S
C186 C189 1.526 . S
C187 H171 0.959 . S
C187 H172 0.959 . S
C187 H173 0.961 . S
C187 C186 1.502 . S
C188 H174 0.960 . S
C188 H175 0.961 . S
C188 H176 0.959 . S
C188 C186 1.561 . S
C189 C186 1.526 . S
C189 C190 1.396 . S
C189 C194 1.390 . S
C190 C184 1.465 . S
C190 C189 1.396 . S
C190 C191 1.399 . S
C191 H177 0.929 . S
C191 C190 1.399 . S
C191 C192 1.385 . S
C192 H178 0.931 . S
C192 C191 1.385 . S
C192 C193 1.389 . S
C193 C192 1.389 . S
C193 C194 1.387 . S
C194 H179 0.930 . S
C194 C189 1.390 . S
C194 C193 1.387 . S
H195 C207 0.930 . S
H196 C209 0.930 . S
H197 C210 0.930 . S
H198 C214 0.959 . S
H199 C214 0.959 . S
H200 C214 0.961 . S
H201 C215 0.960 . S
H202 C215 0.961 . S
H203 C215 0.959 . S
H204 C218 0.929 . S
H205 C219 0.931 . S
H206 C221 0.930 . S
C207 H195 0.930 . S
C207 C208 1.399 . S
C207 C212 1.399 . S
C208 C207 1.399 . S
C208 C209 1.376 . S
C209 H196 0.930 . S
C209 C208 1.376 . S
C209 C210 1.388 . S
C210 H197 0.930 . S
C210 C209 1.388 . S
C210 C211 1.390 . S
C211 C210 1.390 . S
C211 C212 1.394 . S
C211 C217 1.465 . S
C212 C207 1.399 . S
C212 C211 1.394 . S
C212 C213 1.516 . S
C213 C212 1.516 . S
C213 C214 1.502 . S
C213 C215 1.561 . S
C213 C216 1.526 . S
C214 H198 0.959 . S
C214 H199 0.959 . S
C214 H200 0.961 . S
C214 C213 1.502 . S
C215 H201 0.960 . S
C215 H202 0.961 . S
C215 H203 0.959 . S
C215 C213 1.561 . S
C216 C213 1.526 . S
C216 C217 1.396 . S
C216 C221 1.390 . S
C217 C211 1.465 . S
C217 C216 1.396 . S
C217 C218 1.399 . S
C218 H204 0.929 . S
C218 C217 1.399 . S
C218 C219 1.385 . S
C219 H205 0.931 . S
C219 C218 1.385 . S
C219 C220 1.389 . S
C220 C219 1.389 . S
C220 C221 1.387 . S
C221 H206 0.930 . S
C221 C216 1.390 . S
C221 C220 1.387 . S
H222 C234 0.930 . S
H223 C236 0.930 . S
H224 C237 0.930 . S
H225 C241 0.959 . S
H226 C241 0.959 . S
H227 C241 0.961 . S
H228 C242 0.960 . S
H229 C242 0.961 . S
H230 C242 0.959 . S
H231 C245 0.929 . S
H232 C246 0.931 . S
H233 C248 0.930 . S
C234 H222 0.930 . S
C234 C235 1.399 . S
C234 C239 1.399 . S
C235 C234 1.399 . S
C235 C236 1.376 . S
C236 H223 0.930 . S
C236 C235 1.376 . S
C236 C237 1.388 . S
C237 H224 0.930 . S
C237 C236 1.388 . S
C237 C238 1.390 . S
C238 C237 1.390 . S
C238 C239 1.394 . S
C238 C244 1.465 . S
C239 C234 1.399 . S
C239 C238 1.394 . S
C239 C240 1.516 . S
C240 C239 1.516 . S
C240 C241 1.502 . S
C240 C242 1.561 . S
C240 C243 1.526 . S
C241 H225 0.959 . S
C241 H226 0.959 . S
C241 H227 0.961 . S
C241 C240 1.502 . S
C242 H228 0.960 . S
C242 H229 0.961 . S
C242 H230 0.959 . S
C242 C240 1.561 . S
C243 C240 1.526 . S
C243 C244 1.396 . S
C243 C248 1.390 . S
C244 C238 1.465 . S
C244 C243 1.396 . S
C244 C245 1.399 . S
C245 H231 0.929 . S
C245 C244 1.399 . S
C245 C246 1.385 . S
C246 H232 0.931 . S
C246 C245 1.385 . S
C246 C247 1.389 . S
C247 C246 1.389 . S
C247 C248 1.387 . S
C248 H233 0.930 . S
C248 C243 1.390 . S
C248 C247 1.387 . S
H249 C261 0.930 . S
H250 C263 0.930 . S
H251 C264 0.930 . S
H252 C268 0.959 . S
H253 C268 0.959 . S
H254 C268 0.961 . S
H255 C269 0.960 . S
H256 C269 0.961 . S
H257 C269 0.959 . S
H258 C272 0.929 . S
H259 C273 0.931 . S
H260 C275 0.930 . S
C261 H249 0.930 . S
C261 C262 1.399 . S
C261 C266 1.399 . S
C262 C261 1.399 . S
C262 C263 1.376 . S
C263 H250 0.930 . S
C263 C262 1.376 . S
C263 C264 1.388 . S
C264 H251 0.930 . S
C264 C263 1.388 . S
C264 C265 1.390 . S
C265 C264 1.390 . S
C265 C266 1.394 . S
C265 C271 1.465 . S
C266 C261 1.399 . S
C266 C265 1.394 . S
C266 C267 1.516 . S
C267 C266 1.516 . S
C267 C268 1.502 . S
C267 C269 1.561 . S
C267 C270 1.526 . S
C268 H252 0.959 . S
C268 H253 0.959 . S
C268 H254 0.961 . S
C268 C267 1.502 . S
C269 H255 0.960 . S
C269 H256 0.961 . S
C269 H257 0.959 . S
C269 C267 1.561 . S
C270 C267 1.526 . S
C270 C271 1.396 . S
C270 C275 1.390 . S
C271 C265 1.465 . S
C271 C270 1.396 . S
C271 C272 1.399 . S
C272 H258 0.929 . S
C272 C271 1.399 . S
C272 C273 1.385 . S
C273 H259 0.931 . S
C273 C272 1.385 . S
C273 C274 1.389 . S
C274 C273 1.389 . S
C274 C275 1.387 . S
C275 H260 0.930 . S
C275 C270 1.390 . S
C275 C274 1.387 . S
H276 C288 0.930 . S
H277 C290 0.930 . S
H278 C291 0.930 . S
H279 C295 0.959 . S
H280 C295 0.959 . S
H281 C295 0.961 . S
H282 C296 0.960 . S
H283 C296 0.961 . S
H284 C296 0.959 . S
H285 C299 0.929 . S
H286 C300 0.931 . S
H287 C302 0.930 . S
C288 H276 0.930 . S
C288 C289 1.399 . S
C288 C293 1.399 . S
C289 C288 1.399 . S
C289 C290 1.376 . S
C290 H277 0.930 . S
C290 C289 1.376 . S
C290 C291 1.388 . S
C291 H278 0.930 . S
C291 C290 1.388 . S
C291 C292 1.390 . S
C292 C291 1.390 . S
C292 C293 1.394 . S
C292 C298 1.465 . S
C293 C288 1.399 . S
C293 C292 1.394 . S
C293 C294 1.516 . S
C294 C293 1.516 . S
C294 C295 1.502 . S
C294 C296 1.561 . S
C294 C297 1.526 . S
C295 H279 0.959 . S
C295 H280 0.959 . S
C295 H281 0.961 . S
C295 C294 1.502 . S
C296 H282 0.960 . S
C296 H283 0.961 . S
C296 H284 0.959 . S
C296 C294 1.561 . S
C297 C294 1.526 . S
C297 C298 1.396 . S
C297 C302 1.390 . S
C298 C292 1.465 . S
C298 C297 1.396 . S
C298 C299 1.399 . S
C299 H285 0.929 . S
C299 C298 1.399 . S
C299 C300 1.385 . S
C300 H286 0.931 . S
C300 C299 1.385 . S
C300 C301 1.389 . S
C301 C300 1.389 . S
C301 C302 1.387 . S
C302 H287 0.930 . S
C302 C297 1.390 . S
C302 C301 1.387 . S
H303 C315 0.930 . S
H304 C317 0.930 . S
H305 C318 0.930 . S
H306 C322 0.959 . S
H307 C322 0.959 . S
H308 C322 0.961 . S
H309 C323 0.960 . S
H310 C323 0.961 . S
H311 C323 0.959 . S
H312 C326 0.929 . S
H313 C327 0.931 . S
H314 C329 0.930 . S
C315 H303 0.930 . S
C315 C316 1.399 . S
C315 C320 1.399 . S
C316 C315 1.399 . S
C316 C317 1.376 . S
C317 H304 0.930 . S
C317 C316 1.376 . S
C317 C318 1.388 . S
C318 H305 0.930 . S
C318 C317 1.388 . S
C318 C319 1.390 . S
C319 C318 1.390 . S
C319 C320 1.394 . S
C319 C325 1.465 . S
C320 C315 1.399 . S
C320 C319 1.394 . S
C320 C321 1.516 . S
C321 C320 1.516 . S
C321 C322 1.502 . S
C321 C323 1.561 . S
C321 C324 1.526 . S
C322 H306 0.959 . S
C322 H307 0.959 . S
C322 H308 0.961 . S
C322 C321 1.502 . S
C323 H309 0.960 . S
C323 H310 0.961 . S
C323 H311 0.959 . S
C323 C321 1.561 . S
C324 C321 1.526 . S
C324 C325 1.396 . S
C324 C329 1.390 . S
C325 C319 1.465 . S
C325 C324 1.396 . S
C325 C326 1.399 . S
C326 H312 0.929 . S
C326 C325 1.399 . S
C326 C327 1.385 . S
C327 H313 0.931 . S
C327 C326 1.385 . S
C327 C328 1.389 . S
C328 C327 1.389 . S
C328 C329 1.387 . S
C329 H314 0.930 . S
C329 C324 1.390 . S
C329 C328 1.387 . S
H330 C342 0.930 . S
H331 C344 0.930 . S
H332 C345 0.930 . S
H333 C349 0.959 . S
H334 C349 0.959 . S
H335 C349 0.961 . S
H336 C350 0.960 . S
H337 C350 0.961 . S
H338 C350 0.959 . S
H339 C353 0.929 . S
H340 C354 0.931 . S
H341 C356 0.930 . S
C342 H330 0.930 . S
C342 C343 1.399 . S
C342 C347 1.399 . S
C343 C342 1.399 . S
C343 C344 1.376 . S
C344 H331 0.930 . S
C344 C343 1.376 . S
C344 C345 1.388 . S
C345 H332 0.930 . S
C345 C344 1.388 . S
C345 C346 1.390 . S
C346 C345 1.390 . S
C346 C347 1.394 . S
C346 C352 1.465 . S
C347 C342 1.399 . S
C347 C346 1.394 . S
C347 C348 1.516 . S
C348 C347 1.516 . S
C348 C349 1.502 . S
C348 C350 1.561 . S
C348 C351 1.526 . S
C349 H333 0.959 . S
C349 H334 0.959 . S
C349 H335 0.961 . S
C349 C348 1.502 . S
C350 H336 0.960 . S
C350 H337 0.961 . S
C350 H338 0.959 . S
C350 C348 1.561 . S
C351 C348 1.526 . S
C351 C352 1.396 . S
C351 C356 1.390 . S
C352 C346 1.465 . S
C352 C351 1.396 . S
C352 C353 1.399 . S
C353 H339 0.929 . S
C353 C352 1.399 . S
C353 C354 1.385 . S
C354 H340 0.931 . S
C354 C353 1.385 . S
C354 C355 1.389 . S
C355 C354 1.389 . S
C355 C356 1.387 . S
C356 H341 0.930 . S
C356 C351 1.390 . S
C356 C355 1.387 . S
H357 C369 0.930 . S
H358 C371 0.930 . S
H359 C372 0.930 1_455 S
H360 C376 0.959 . S
H361 C376 0.959 . S
H362 C376 0.961 . S
H363 C377 0.960 . S
H364 C377 0.961 . S
H365 C377 0.959 . S
H366 C380 0.929 . S
H367 C381 0.931 . S
H368 C383 0.930 . S
C369 H357 0.930 . S
C369 C370 1.399 . S
C369 C374 1.399 . S
C370 C369 1.399 . S
C370 C371 1.376 . S
C371 H358 0.930 . S
C371 C370 1.376 . S
C371 C372 1.388 . S
C372 H359 0.930 1_655 S
C372 C371 1.388 . S
C372 C373 1.390 . S
C373 C372 1.390 . S
C373 C374 1.394 . S
C373 C379 1.465 1_655 S
C374 C369 1.399 . S
C374 C373 1.394 . S
C374 C375 1.516 . S
C375 C374 1.516 . S
C375 C376 1.502 . S
C375 C377 1.561 . S
C375 C378 1.526 1_655 S
C376 H360 0.959 . S
C376 H361 0.959 . S
C376 H362 0.961 . S
C376 C375 1.502 . S
C377 H363 0.960 . S
C377 H364 0.961 . S
C377 H365 0.959 . S
C377 C375 1.561 . S
C378 C375 1.526 1_455 S
C378 C379 1.396 . S
C378 C383 1.390 . S
C379 C373 1.465 1_455 S
C379 C378 1.396 . S
C379 C380 1.399 . S
C380 H366 0.929 . S
C380 C379 1.399 . S
C380 C381 1.385 . S
C381 H367 0.931 . S
C381 C380 1.385 . S
C381 C382 1.389 . S
C382 C381 1.389 . S
C382 C383 1.387 . S
C383 H368 0.930 . S
C383 C378 1.390 . S
C383 C382 1.387 . S
H384 C396 0.930 . S
H385 C398 0.930 . S
H386 C399 0.930 . S
H387 C403 0.959 1_565 S
H388 C403 0.959 1_565 S
H389 C403 0.961 . S
H390 C404 0.960 . S
H391 C404 0.961 . S
H392 C404 0.959 . S
H393 C407 0.929 . S
H394 C408 0.931 . S
H395 C410 0.930 . S
C396 H384 0.930 . S
C396 C397 1.399 . S
C396 C401 1.399 . S
C397 C396 1.399 . S
C397 C398 1.376 . S
C398 H385 0.930 . S
C398 C397 1.376 . S
C398 C399 1.388 . S
C399 H386 0.930 . S
C399 C398 1.388 . S
C399 C400 1.390 . S
C400 C399 1.390 . S
C400 C401 1.394 . S
C400 C406 1.465 1_545 S
C401 C396 1.399 . S
C401 C400 1.394 . S
C401 C402 1.516 . S
C402 C401 1.516 . S
C402 C403 1.502 . S
C402 C404 1.561 . S
C402 C405 1.526 1_545 S
C403 H387 0.959 1_545 S
C403 H388 0.959 1_545 S
C403 H389 0.961 . S
C403 C402 1.502 . S
C404 H390 0.960 . S
C404 H391 0.961 . S
C404 H392 0.959 . S
C404 C402 1.561 . S
C405 C402 1.526 1_565 S
C405 C406 1.396 . S
C405 C410 1.390 . S
C406 C400 1.465 1_565 S
C406 C405 1.396 . S
C406 C407 1.399 . S
C407 H393 0.929 . S
C407 C406 1.399 . S
C407 C408 1.385 . S
C408 H394 0.931 . S
C408 C407 1.385 . S
C408 C409 1.389 . S
C409 C408 1.389 . S
C409 C410 1.387 . S
C410 H395 0.930 . S
C410 C405 1.390 . S
C410 C409 1.387 . S
H411 C423 0.930 . S
H412 C425 0.930 . S
H413 C426 0.930 . S
H414 C430 0.959 . S
H415 C430 0.959 . S
H416 C430 0.961 . S
H417 C431 0.960 . S
H418 C431 0.961 . S
H419 C431 0.959 . S
H420 C434 0.929 . S
H421 C435 0.931 . S
H422 C437 0.930 . S
C423 H411 0.930 . S
C423 C424 1.399 . S
C423 C428 1.399 . S
C424 C423 1.399 . S
C424 C425 1.376 . S
C425 H412 0.930 . S
C425 C424 1.376 . S
C425 C426 1.388 . S
C426 H413 0.930 . S
C426 C425 1.388 . S
C426 C427 1.390 . S
C427 C426 1.390 . S
C427 C428 1.394 . S
C427 C433 1.465 . S
C428 C423 1.399 . S
C428 C427 1.394 . S
C428 C429 1.516 . S
C429 C428 1.516 . S
C429 C430 1.502 . S
C429 C431 1.561 . S
C429 C432 1.526 . S
C430 H414 0.959 . S
C430 H415 0.959 . S
C430 H416 0.961 . S
C430 C429 1.502 . S
C431 H417 0.960 . S
C431 H418 0.961 . S
C431 H419 0.959 . S
C431 C429 1.561 . S
C432 C429 1.526 . S
C432 C433 1.396 . S
C432 C437 1.390 . S
C433 C427 1.465 . S
C433 C432 1.396 . S
C433 C434 1.399 . S
C434 H420 0.929 . S
C434 C433 1.399 . S
C434 C435 1.385 . S
C435 H421 0.931 . S
C435 C434 1.385 . S
C435 C436 1.389 . S
C436 C435 1.389 . S
C436 C437 1.387 . S
C437 H422 0.930 . S
C437 C432 1.390 . S
C437 C436 1.387 . S
H438 C450 0.930 . S
H439 C452 0.930 . S
H440 C453 0.930 . S
H441 C457 0.959 . S
H442 C457 0.959 . S
H443 C457 0.961 . S
H444 C458 0.960 . S
H445 C458 0.961 1_455 S
H446 C458 0.959 . S
H447 C461 0.929 . S
H448 C462 0.931 . S
H449 C464 0.930 . S
C450 H438 0.930 . S
C450 C451 1.399 . S
C450 C455 1.399 . S
C451 C450 1.399 . S
C451 C452 1.376 . S
C452 H439 0.930 . S
C452 C451 1.376 . S
C452 C453 1.388 . S
C453 H440 0.930 . S
C453 C452 1.388 . S
C453 C454 1.390 . S
C454 C453 1.390 . S
C454 C455 1.394 . S
C454 C460 1.465 1_655 S
C455 C450 1.399 . S
C455 C454 1.394 . S
C455 C456 1.516 1_655 S
C456 C455 1.516 1_455 S
C456 C457 1.502 . S
C456 C458 1.561 1_455 S
C456 C459 1.526 . S
C457 H441 0.959 . S
C457 H442 0.959 . S
C457 H443 0.961 . S
C457 C456 1.502 . S
C458 H444 0.960 . S
C458 H445 0.961 1_655 S
C458 H446 0.959 . S
C458 C456 1.561 1_655 S
C459 C456 1.526 . S
C459 C460 1.396 . S
C459 C464 1.390 . S
C460 C454 1.465 1_455 S
C460 C459 1.396 . S
C460 C461 1.399 . S
C461 H447 0.929 . S
C461 C460 1.399 . S
C461 C462 1.385 . S
C462 H448 0.931 . S
C462 C461 1.385 . S
C462 C463 1.389 . S
C463 C462 1.389 . S
C463 C464 1.387 . S
C464 H449 0.930 . S
C464 C459 1.390 . S
C464 C463 1.387 . S
H465 C477 0.930 . S
H466 C479 0.930 . S
H467 C480 0.930 1_545 S
H468 C484 0.959 . S
H469 C484 0.959 . S
H470 C484 0.961 . S
H471 C485 0.960 . S
H472 C485 0.961 . S
H473 C485 0.959 . S
H474 C488 0.929 . S
H475 C489 0.931 . S
H476 C491 0.930 . S
C477 H465 0.930 . S
C477 C478 1.399 . S
C477 C482 1.399 . S
C478 C477 1.399 . S
C478 C479 1.376 . S
C479 H466 0.930 . S
C479 C478 1.376 . S
C479 C480 1.388 . S
C480 H467 0.930 1_565 S
C480 C479 1.388 . S
C480 C481 1.390 . S
C481 C480 1.390 . S
C481 C482 1.394 . S
C481 C487 1.465 1_565 S
C482 C477 1.399 . S
C482 C481 1.394 . S
C482 C483 1.516 1_554 S
C483 C482 1.516 1_556 S
C483 C484 1.502 . S
C483 C485 1.561 . S
C483 C486 1.526 1_565 S
C484 H468 0.959 . S
C484 H469 0.959 . S
C484 H470 0.961 . S
C484 C483 1.502 . S
C485 H471 0.960 . S
C485 H472 0.961 . S
C485 H473 0.959 . S
C485 C483 1.561 . S
C486 C483 1.526 1_545 S
C486 C487 1.396 1_556 S
C486 C491 1.390 . S
C487 C481 1.465 1_545 S
C487 C486 1.396 1_554 S
C487 C488 1.399 . S
C488 H474 0.929 . S
C488 C487 1.399 . S
C488 C489 1.385 1_554 S
C489 H475 0.931 . S
C489 C488 1.385 1_556 S
C489 C490 1.389 . S
C490 C489 1.389 . S
C490 C491 1.387 . S
C491 H476 0.930 . S
C491 C486 1.390 . S
C491 C490 1.387 . S
H492 C504 0.930 . S
H493 C506 0.930 . S
H494 C507 0.948 . S
H495 C511 0.959 . S
H496 C511 0.959 . S
H497 C511 0.961 . S
H498 C512 0.960 . S
H499 C512 0.961 . S
H500 C512 0.959 . S
H501 C515 0.929 . S
H502 C516 0.931 . S
H503 C518 0.930 . S
C504 H492 0.930 . S
C504 C505 1.399 . S
C504 C509 1.399 . S
C505 C504 1.399 . S
C505 C506 1.376 . S
C506 H493 0.930 . S
C506 C505 1.376 . S
C506 C507 1.388 . S
C507 H494 0.948 . S
C507 C506 1.388 . S
C507 C508 1.390 . S
C508 C507 1.390 . S
C508 C509 1.394 . S
C508 C514 1.465 1_554 S
C509 C504 1.399 . S
C509 C508 1.394 . S
C509 C510 1.516 . S
C510 C509 1.516 . S
C510 C511 1.502 . S
C510 C512 1.561 . S
C510 C513 1.526 . S
C511 H495 0.959 . S
C511 H496 0.959 . S
C511 H497 0.961 . S
C511 C510 1.502 . S
C512 H498 0.960 . S
C512 H499 0.961 . S
C512 H500 0.959 . S
C512 C510 1.561 . S
C513 C510 1.526 . S
C513 C514 1.396 1_554 S
C513 C518 1.390 1_554 S
C514 C508 1.465 1_556 S
C514 C513 1.396 1_556 S
C514 C515 1.399 . S
C515 H501 0.929 . S
C515 C514 1.399 . S
C515 C516 1.385 . S
C516 H502 0.931 . S
C516 C515 1.385 . S
C516 C517 1.389 . S
C517 C516 1.389 . S
C517 C518 1.387 . S
C518 H503 0.930 . S
C518 C513 1.390 1_556 S
C518 C517 1.387 . S
H519 C531 0.930 . S
H520 C533 0.930 . S
H521 C534 0.930 1_455 S
H522 C538 0.959 . S
H523 C538 0.959 . S
H524 C538 0.961 . S
H525 C539 0.960 . S
H526 C539 0.961 . S
H527 C539 0.959 . S
H528 C542 0.929 . S
H529 C543 0.931 . S
H530 C545 0.930 1_655 S
C531 H519 0.930 . S
C531 C532 1.399 . S
C531 C536 1.399 . S
C532 C531 1.399 . S
C532 C533 1.376 . S
C533 H520 0.930 . S
C533 C532 1.376 . S
C533 C534 1.388 . S
C534 H521 0.930 1_655 S
C534 C533 1.388 . S
C534 C535 1.390 . S
C535 C534 1.390 . S
C535 C536 1.394 . S
C535 C541 1.465 1_655 S
C536 C531 1.399 . S
C536 C535 1.394 . S
C536 C537 1.516 . S
C537 C536 1.516 . S
C537 C538 1.502 . S
C537 C539 1.561 . S
C537 C540 1.526 . S
C538 H522 0.959 . S
C538 H523 0.959 . S
C538 H524 0.961 . S
C538 C537 1.502 . S
C539 H525 0.960 . S
C539 H526 0.961 . S
C539 H527 0.959 . S
C539 C537 1.561 . S
C540 C537 1.526 . S
C540 C541 1.396 1_655 S
C540 C545 1.390 1_655 S
C541 C535 1.465 1_455 S
C541 C540 1.396 1_455 S
C541 C542 1.399 . S
C542 H528 0.929 . S
C542 C541 1.399 . S
C542 C543 1.385 . S
C543 H529 0.931 . S
C543 C542 1.385 . S
C543 C544 1.389 . S
C544 C543 1.389 . S
C544 C545 1.387 . S
C545 H530 0.930 1_455 S
C545 C540 1.390 1_455 S
C545 C544 1.387 . S
H546 C558 0.930 . S
H547 C560 0.930 . S
H548 C561 0.930 1_565 S
H549 C565 0.959 . S
H550 C565 0.959 . S
H551 C565 0.961 . S
H552 C566 0.960 . S
H553 C566 0.961 . S
H554 C566 0.959 . S
H555 C569 0.929 . S
H556 C570 0.931 . S
H557 C572 0.930 . S
C558 H546 0.930 . S
C558 C559 1.399 . S
C558 C563 1.399 . S
C559 C558 1.399 . S
C559 C560 1.376 . S
C560 H547 0.930 . S
C560 C559 1.376 . S
C560 C561 1.388 . S
C561 H548 0.930 1_545 S
C561 C560 1.388 . S
C561 C562 1.390 1_545 S
C562 C561 1.390 1_565 S
C562 C563 1.394 1_565 S
C562 C568 1.465 . S
C563 C558 1.399 . S
C563 C562 1.394 1_545 S
C563 C564 1.516 1_545 S
C564 C563 1.516 1_565 S
C564 C565 1.502 . S
C564 C566 1.561 1_565 S
C564 C567 1.526 . S
C565 H549 0.959 . S
C565 H550 0.959 . S
C565 H551 0.961 . S
C565 C564 1.502 . S
C566 H552 0.960 . S
C566 H553 0.961 . S
C566 H554 0.959 . S
C566 C564 1.561 1_545 S
C567 C564 1.526 . S
C567 C568 1.396 . S
C567 C572 1.390 . S
C568 C562 1.465 . S
C568 C567 1.396 . S
C568 C569 1.399 . S
C569 H555 0.929 . S
C569 C568 1.399 . S
C569 C570 1.385 . S
C570 H556 0.931 . S
C570 C569 1.385 . S
C570 C571 1.389 . S
C571 C570 1.389 . S
C571 C572 1.387 . S
C572 H557 0.930 . S
C572 C567 1.390 . S
C572 C571 1.387 . S
H573 C585 0.930 . S
H574 C587 0.930 . S
H575 C588 0.930 . S
H576 C592 0.959 . S
H577 C592 0.959 . S
H578 C592 0.961 . S
H579 C593 0.960 . S
H580 C593 0.961 . S
H581 C593 0.959 . S
H582 C596 0.929 . S
H583 C597 0.931 . S
H584 C599 0.930 . S
C585 H573 0.930 . S
C585 C586 1.399 . S
C585 C590 1.399 . S
C586 C585 1.399 . S
C586 C587 1.376 . S
C587 H574 0.930 . S
C587 C586 1.376 . S
C587 C588 1.388 . S
C588 H575 0.930 . S
C588 C587 1.388 . S
C588 C589 1.390 . S
C589 C588 1.390 . S
C589 C590 1.394 . S
C589 C595 1.465 . S
C590 C585 1.399 . S
C590 C589 1.394 . S
C590 C591 1.516 . S
C591 C590 1.516 . S
C591 C592 1.502 . S
C591 C593 1.561 . S
C591 C594 1.526 . S
C592 H576 0.959 . S
C592 H577 0.959 . S
C592 H578 0.961 . S
C592 C591 1.502 . S
C593 H579 0.960 . S
C593 H580 0.961 . S
C593 H581 0.959 . S
C593 C591 1.561 . S
C594 C591 1.526 . S
C594 C595 1.396 . S
C594 C599 1.390 . S
C595 C589 1.465 . S
C595 C594 1.396 . S
C595 C596 1.399 . S
C596 H582 0.929 . S
C596 C595 1.399 . S
C596 C597 1.385 . S
C597 H583 0.931 . S
C597 C596 1.385 . S
C597 C598 1.389 . S
C598 C597 1.389 . S
C598 C599 1.387 . S
C599 H584 0.930 . S
C599 C594 1.390 . S
C599 C598 1.387 . S
H600 C612 0.930 . S
H601 C614 0.930 . S
H602 C615 0.930 . S
H603 C619 0.959 . S
H604 C619 0.959 . S
H605 C619 0.961 . S
H606 C620 0.960 . S
H607 C620 0.961 . S
H608 C620 0.959 . S
H609 C623 0.929 . S
H610 C624 0.931 . S
H611 C626 0.930 . S
C612 H600 0.930 . S
C612 C613 1.399 . S
C612 C617 1.399 . S
C613 C612 1.399 . S
C613 C614 1.376 . S
C614 H601 0.930 . S
C614 C613 1.376 . S
C614 C615 1.388 . S
C615 H602 0.930 . S
C615 C614 1.388 . S
C615 C616 1.390 . S
C616 C615 1.390 . S
C616 C617 1.394 . S
C616 C622 1.465 1_455 S
C617 C612 1.399 . S
C617 C616 1.394 . S
C617 C618 1.516 . S
C618 C617 1.516 . S
C618 C619 1.502 . S
C618 C620 1.561 . S
C618 C621 1.526 . S
C619 H603 0.959 . S
C619 H604 0.959 . S
C619 H605 0.961 . S
C619 C618 1.502 . S
C620 H606 0.960 . S
C620 H607 0.961 . S
C620 H608 0.959 . S
C620 C618 1.561 . S
C621 C618 1.526 . S
C621 C622 1.396 1_455 S
C621 C626 1.390 1_455 S
C622 C616 1.465 1_655 S
C622 C621 1.396 1_655 S
C622 C623 1.399 . S
C623 H609 0.929 . S
C623 C622 1.399 . S
C623 C624 1.385 . S
C624 H610 0.931 . S
C624 C623 1.385 . S
C624 C625 1.389 . S
C625 C624 1.389 . S
C625 C626 1.387 . S
C626 H611 0.930 . S
C626 C621 1.390 1_655 S
C626 C625 1.387 . S
H627 C639 0.930 . S
H628 C641 0.930 . S
H629 C642 0.930 . S
H630 C646 0.959 . S
H631 C646 0.959 . S
H632 C646 0.961 . S
H633 C647 0.960 . S
H634 C647 0.961 . S
H635 C647 0.959 . S
H636 C650 0.929 . S
H637 C651 0.931 . S
H638 C653 0.930 . S
C639 H627 0.930 . S
C639 C640 1.399 . S
C639 C644 1.399 . S
C640 C639 1.399 . S
C640 C641 1.376 . S
C641 H628 0.930 . S
C641 C640 1.376 . S
C641 C642 1.388 . S
C642 H629 0.930 . S
C642 C641 1.388 . S
C642 C643 1.390 . S
C643 C642 1.390 . S
C643 C644 1.394 . S
C643 C649 1.465 1_545 S
C644 C639 1.399 . S
C644 C643 1.394 . S
C644 C645 1.516 . S
C645 C644 1.516 . S
C645 C646 1.502 . S
C645 C647 1.561 . S
C645 C648 1.526 . S
C646 H630 0.959 . S
C646 H631 0.959 . S
C646 H632 0.961 . S
C646 C645 1.502 . S
C647 H633 0.960 . S
C647 H634 0.961 . S
C647 H635 0.959 . S
C647 C645 1.561 . S
C648 C645 1.526 . S
C648 C649 1.396 1_545 S
C648 C653 1.390 1_545 S
C649 C643 1.465 1_565 S
C649 C648 1.396 1_565 S
C649 C650 1.399 . S
C650 H636 0.929 . S
C650 C649 1.399 . S
C650 C651 1.385 . S
C651 H637 0.931 . S
C651 C650 1.385 . S
C651 C652 1.389 . S
C652 C651 1.389 . S
C652 C653 1.387 . S
C653 H638 0.930 . S
C653 C648 1.390 1_565 S
C653 C652 1.387 . S
H654 C666 0.930 . S
H655 C668 0.930 . S
H656 C669 0.930 . S
H657 C673 0.959 . S
H658 C673 0.959 . S
H659 C673 0.961 . S
H660 C674 0.960 . S
H661 C674 0.961 . S
H662 C674 0.959 . S
H663 C677 0.929 . S
H664 C678 0.931 . S
H665 C680 0.930 . S
C666 H654 0.930 . S
C666 C667 1.399 . S
C666 C671 1.399 . S
C667 C666 1.399 . S
C667 C668 1.376 . S
C668 H655 0.930 . S
C668 C667 1.376 . S
C668 C669 1.388 . S
C669 H656 0.930 . S
C669 C668 1.388 . S
C669 C670 1.390 . S
C670 C669 1.390 . S
C670 C671 1.394 . S
C670 C676 1.465 . S
C671 C666 1.399 . S
C671 C670 1.394 . S
C671 C672 1.516 . S
C672 C671 1.516 . S
C672 C673 1.502 . S
C672 C674 1.561 . S
C672 C675 1.526 . S
C673 H657 0.959 . S
C673 H658 0.959 . S
C673 H659 0.961 . S
C673 C672 1.502 . S
C674 H660 0.960 . S
C674 H661 0.961 . S
C674 H662 0.959 . S
C674 C672 1.561 . S
C675 C672 1.526 . S
C675 C676 1.396 . S
C675 C680 1.390 . S
C676 C670 1.465 . S
C676 C675 1.396 . S
C676 C677 1.399 . S
C677 H663 0.929 . S
C677 C676 1.399 . S
C677 C678 1.385 . S
C678 H664 0.931 . S
C678 C677 1.385 . S
C678 C679 1.389 . S
C679 C678 1.389 . S
C679 C680 1.387 . S
C680 H665 0.930 . S
C680 C675 1.390 . S
C680 C679 1.387 . S
H681 C693 0.930 . S
H682 C695 0.930 . S
H683 C696 0.930 . S
H684 C700 0.959 . S
H685 C700 0.959 . S
H686 C700 0.961 . S
H687 C701 0.960 . S
H688 C701 0.961 1_554 S
H689 C701 0.959 1_554 S
H690 C704 0.929 . S
H691 C705 0.931 . S
H692 C707 0.930 . S
C693 H681 0.930 . S
C693 C694 1.399 . S
C693 C698 1.399 . S
C694 C693 1.399 . S
C694 C695 1.376 . S
C695 H682 0.930 . S
C695 C694 1.376 . S
C695 C696 1.388 . S
C696 H683 0.930 . S
C696 C695 1.388 . S
C696 C697 1.390 . S
C697 C696 1.390 . S
C697 C698 1.394 . S
C697 C703 1.491 . S
C698 C693 1.399 . S
C698 C697 1.394 . S
C698 C699 1.516 . S
C699 C698 1.516 . S
C699 C700 1.502 1_655 S
C699 C701 1.561 . S
C699 C702 1.504 1_656 S
C700 H684 0.959 . S
C700 H685 0.959 . S
C700 H686 0.961 . S
C700 C699 1.502 1_455 S
C701 H687 0.960 . S
C701 H688 0.961 1_556 S
C701 H689 0.959 1_556 S
C701 C699 1.561 . S
C702 C699 1.504 1_454 S
C702 C703 1.394 1_454 S
C702 C707 1.412 . S
C703 C697 1.491 . S
C703 C702 1.394 1_656 S
C703 C704 1.377 1_556 S
C704 H690 0.929 . S
C704 C703 1.377 1_554 S
C704 C705 1.385 1_655 S
C705 H691 0.931 . S
C705 C704 1.385 1_455 S
C705 C706 1.389 . S
C706 C705 1.389 . S
C706 C707 1.387 . S
C707 H692 0.930 . S
C707 C702 1.412 . S
C707 C706 1.387 . S
H708 C720 0.930 . S
H709 C722 0.930 . S
H710 C723 0.930 1_545 S
H711 C727 0.959 . S
H712 C727 0.959 . S
H713 C727 0.961 . S
H714 C728 0.960 . S
H715 C728 0.961 . S
H716 C728 0.959 . S
H717 C731 0.929 . S
H718 C732 0.931 . S
H719 C734 0.930 1_565 S
C720 H708 0.930 . S
C720 C721 1.399 . S
C720 C725 1.399 . S
C721 C720 1.399 . S
C721 C722 1.376 . S
C722 H709 0.930 . S
C722 C721 1.376 . S
C722 C723 1.388 . S
C723 H710 0.930 1_565 S
C723 C722 1.388 . S
C723 C724 1.390 . S
C724 C723 1.390 . S
C724 C725 1.394 . S
C724 C730 1.465 1_565 S
C725 C720 1.399 . S
C725 C724 1.394 . S
C725 C726 1.516 . S
C726 C725 1.516 . S
C726 C727 1.502 . S
C726 C728 1.561 . S
C726 C729 1.526 . S
C727 H711 0.959 . S
C727 H712 0.959 . S
C727 H713 0.961 . S
C727 C726 1.502 . S
C728 H714 0.960 . S
C728 H715 0.961 . S
C728 H716 0.959 . S
C728 C726 1.561 . S
C729 C726 1.526 . S
C729 C730 1.396 1_565 S
C729 C734 1.390 1_565 S
C730 C724 1.465 1_545 S
C730 C729 1.396 1_545 S
C730 C731 1.399 . S
C731 H717 0.929 . S
C731 C730 1.399 . S
C731 C732 1.385 . S
C732 H718 0.931 . S
C732 C731 1.385 . S
C732 C733 1.389 . S
C733 C732 1.389 . S
C733 C734 1.387 . S
C734 H719 0.930 1_545 S
C734 C729 1.390 1_545 S
C734 C733 1.387 . S
H735 C747 0.930 . S
H736 C749 0.930 . S
H737 C750 0.930 . S
H738 C754 0.959 . S
H739 C754 0.959 . S
H740 C754 0.961 . S
H741 C755 0.960 . S
H742 C755 0.961 . S
H743 C755 0.959 . S
H744 C758 0.929 . S
H745 C759 0.931 . S
H746 C761 0.930 . S
C747 H735 0.930 . S
C747 C748 1.399 . S
C747 C752 1.399 . S
C748 C747 1.399 . S
C748 C749 1.376 . S
C749 H736 0.930 . S
C749 C748 1.376 . S
C749 C750 1.388 . S
C750 H737 0.930 . S
C750 C749 1.388 . S
C750 C751 1.390 . S
C751 C750 1.390 . S
C751 C752 1.394 . S
C751 C757 1.465 . S
C752 C747 1.399 . S
C752 C751 1.394 . S
C752 C753 1.516 . S
C753 C752 1.516 . S
C753 C754 1.502 . S
C753 C755 1.561 . S
C753 C756 1.526 . S
C754 H738 0.959 . S
C754 H739 0.959 . S
C754 H740 0.961 . S
C754 C753 1.502 . S
C755 H741 0.960 . S
C755 H742 0.961 . S
C755 H743 0.959 . S
C755 C753 1.561 . S
C756 C753 1.526 . S
C756 C757 1.396 . S
C756 C761 1.390 . S
C757 C751 1.465 . S
C757 C756 1.396 . S
C757 C758 1.399 . S
C758 H744 0.929 . S
C758 C757 1.399 . S
C758 C759 1.385 . S
C759 H745 0.931 . S
C759 C758 1.385 . S
C759 C760 1.389 . S
C760 C759 1.389 . S
C760 C761 1.387 . S
C761 H746 0.930 . S
C761 C756 1.390 . S
C761 C760 1.387 . S
H762 C774 0.930 . S
H763 C776 0.930 . S
H764 C777 0.930 . S
H765 C781 0.959 . S
H766 C781 0.959 . S
H767 C781 0.961 . S
H768 C782 0.960 . S
H769 C782 0.961 . S
H770 C782 0.959 . S
H771 C785 0.929 . S
H772 C786 0.931 . S
H773 C788 0.930 . S
C774 H762 0.930 . S
C774 C775 1.399 . S
C774 C779 1.399 . S
C775 C774 1.399 . S
C775 C776 1.376 . S
C776 H763 0.930 . S
C776 C775 1.376 . S
C776 C777 1.388 . S
C777 H764 0.930 . S
C777 C776 1.388 . S
C777 C778 1.390 . S
C778 C777 1.390 . S
C778 C779 1.394 . S
C778 C784 1.465 1_455 S
C779 C774 1.399 . S
C779 C778 1.394 . S
C779 C780 1.516 . S
C780 C779 1.516 . S
C780 C781 1.502 . S
C780 C782 1.561 . S
C780 C783 1.526 . S
C781 H765 0.959 . S
C781 H766 0.959 . S
C781 H767 0.961 . S
C781 C780 1.502 . S
C782 H768 0.960 . S
C782 H769 0.961 . S
C782 H770 0.959 . S
C782 C780 1.561 . S
C783 C780 1.526 . S
C783 C784 1.396 1_455 S
C783 C788 1.390 1_455 S
C784 C778 1.465 1_655 S
C784 C783 1.396 1_655 S
C784 C785 1.399 . S
C785 H771 0.929 . S
C785 C784 1.399 . S
C785 C786 1.385 . S
C786 H772 0.931 . S
C786 C785 1.385 . S
C786 C787 1.389 . S
C787 C786 1.389 . S
C787 C788 1.387 . S
C788 H773 0.930 . S
C788 C783 1.390 1_655 S
C788 C787 1.387 . S
H789 C801 0.930 . S
H790 C803 0.930 . S
H791 C804 0.930 . S
H792 C808 0.959 . S
H793 C808 0.959 . S
H794 C808 0.961 . S
H795 C809 0.960 . S
H796 C809 0.961 . S
H797 C809 0.959 . S
H798 C812 0.929 . S
H799 C813 0.931 . S
H800 C815 0.930 . S
C801 H789 0.930 . S
C801 C802 1.399 . S
C801 C806 1.399 . S
C802 C801 1.399 . S
C802 C803 1.376 . S
C803 H790 0.930 . S
C803 C802 1.376 . S
C803 C804 1.388 1_565 S
C804 H791 0.930 . S
C804 C803 1.388 1_545 S
C804 C805 1.390 . S
C805 C804 1.390 . S
C805 C806 1.394 1_545 S
C805 C811 1.465 . S
C806 C801 1.399 . S
C806 C805 1.394 1_565 S
C806 C807 1.516 . S
C807 C806 1.516 . S
C807 C808 1.502 . S
C807 C809 1.561 . S
C807 C810 1.526 1_565 S
C808 H792 0.959 . S
C808 H793 0.959 . S
C808 H794 0.961 . S
C808 C807 1.502 . S
C809 H795 0.960 . S
C809 H796 0.961 . S
C809 H797 0.959 . S
C809 C807 1.561 . S
C810 C807 1.526 1_545 S
C810 C811 1.396 . S
C810 C815 1.390 . S
C811 C805 1.465 . S
C811 C810 1.396 . S
C811 C812 1.399 . S
C812 H798 0.929 . S
C812 C811 1.399 . S
C812 C813 1.385 . S
C813 H799 0.931 . S
C813 C812 1.385 . S
C813 C814 1.389 . S
C814 C813 1.389 . S
C814 C815 1.387 . S
C815 H800 0.930 . S
C815 C810 1.390 . S
C815 C814 1.387 . S
C181 C123 1.237 . S
C193 C11 1.258 . S
C208 C25 1.257 . S
C220 C137 1.244 . S
C235 C39 1.235 . S
C247 C151 1.258 . S
C262 C53 1.244 . S
C274 C165 1.217 . S
C289 C95 1.223 . S
C301 C67 1.219 . S
C316 C81 1.232 . S
C328 C109 1.216 . S
C343 C134 0.797 . S
C355 C8 0.807 . S
C370 C22 0.816 . S
C382 C148 0.826 . S
C397 C162 0.733 . S
C409 C36 0.736 . S
C424 C50 0.880 . S
C436 C92 0.871 . S
C451 C106 0.749 . S
C463 C64 0.745 . S
C478 C120 0.765 . S
C490 C78 0.774 . S
C505 C7 1.300 . S
C517 C83 1.215 . S
C532 C21 1.255 . S
C544 C13 1.170 . S
C559 C27 1.255 . S
C571 C35 1.275 . S
C586 C49 1.264 . S
C598 C41 1.234 . S
C613 C63 1.260 . S
C625 C55 1.149 . S
C640 C77 1.258 . S
C652 C69 1.154 . S
C667 C91 1.255 . S
C679 C111 1.191 . S
C694 C105 1.290 . S
C706 C125 1.261 . S
C721 C119 1.255 . S
C733 C139 1.170 . S
C748 C133 1.290 . S
C760 C153 1.167 . S
C775 C147 1.261 . S
C787 C167 1.145 . S
C802 C97 1.260 . S
C814 C161 1.293 . S
