# Generated by pormake.
# Topology gme, (4)-cn, num edge types: 1
# Building blocks:
#     Node 0, Type 0, BuildingBlock: CEKHIL_clean_sbu_0, # of connection points: 4
#     Node 1, Type 0, BuildingBlock: CEKHIL_clean_sbu_0, # of connection points: 4
#     Node 2, Type 0, BuildingBlock: CEKHIL_clean_sbu_0, # of connection points: 4
#     Node 3, Type 0, BuildingBlock: CEKHIL_clean_sbu_0, # of connection points: 4
#     Node 4, Type 0, BuildingBlock: CEKHIL_clean_sbu_0, # of connection points: 4
#     Node 5, Type 0, BuildingBlock: CEKHIL_clean_sbu_0, # of connection points: 4
#     Node 6, Type 0, BuildingBlock: CEKHIL_clean_sbu_0, # of connection points: 4
#     Node 7, Type 0, BuildingBlock: CEKHIL_clean_sbu_0, # of connection points: 4
#     Node 8, Type 0, BuildingBlock: CEKHIL_clean_sbu_0, # of connection points: 4
#     Node 9, Type 0, BuildingBlock: CEKHIL_clean_sbu_0, # of connection points: 4
#     Node 10, Type 0, BuildingBlock: CEKHIL_clean_sbu_0, # of connection points: 4
#     Node 11, Type 0, BuildingBlock: CEKHIL_clean_sbu_0, # of connection points: 4
#     Node 12, Type 0, BuildingBlock: CEKHIL_clean_sbu_0, # of connection points: 4
#     Node 13, Type 0, BuildingBlock: CEKHIL_clean_sbu_0, # of connection points: 4
#     Node 14, Type 0, BuildingBlock: CEKHIL_clean_sbu_0, # of connection points: 4
#     Node 15, Type 0, BuildingBlock: CEKHIL_clean_sbu_0, # of connection points: 4
#     Node 16, Type 0, BuildingBlock: CEKHIL_clean_sbu_0, # of connection points: 4
#     Node 17, Type 0, BuildingBlock: CEKHIL_clean_sbu_0, # of connection points: 4
#     Node 18, Type 0, BuildingBlock: CEKHIL_clean_sbu_0, # of connection points: 4
#     Node 19, Type 0, BuildingBlock: CEKHIL_clean_sbu_0, # of connection points: 4
#     Node 20, Type 0, BuildingBlock: CEKHIL_clean_sbu_0, # of connection points: 4
#     Node 21, Type 0, BuildingBlock: CEKHIL_clean_sbu_0, # of connection points: 4
#     Node 22, Type 0, BuildingBlock: CEKHIL_clean_sbu_0, # of connection points: 4
#     Node 23, Type 0, BuildingBlock: CEKHIL_clean_sbu_0, # of connection points: 4
#     Edge 24, Type (0, 0), BuildingBlock: EZIPEK_clean_linker_0, # of connection points: 2
#     Edge 25, Type (0, 0), BuildingBlock: EZIPEK_clean_linker_0, # of connection points: 2
#     Edge 26, Type (0, 0), BuildingBlock: EZIPEK_clean_linker_0, # of connection points: 2
#     Edge 27, Type (0, 0), BuildingBlock: EZIPEK_clean_linker_0, # of connection points: 2
#     Edge 28, Type (0, 0), BuildingBlock: EZIPEK_clean_linker_0, # of connection points: 2
#     Edge 29, Type (0, 0), BuildingBlock: EZIPEK_clean_linker_0, # of connection points: 2
#     Edge 30, Type (0, 0), BuildingBlock: EZIPEK_clean_linker_0, # of connection points: 2
#     Edge 31, Type (0, 0), BuildingBlock: EZIPEK_clean_linker_0, # of connection points: 2
#     Edge 32, Type (0, 0), BuildingBlock: EZIPEK_clean_linker_0, # of connection points: 2
#     Edge 33, Type (0, 0), BuildingBlock: EZIPEK_clean_linker_0, # of connection points: 2
#     Edge 34, Type (0, 0), BuildingBlock: EZIPEK_clean_linker_0, # of connection points: 2
#     Edge 35, Type (0, 0), BuildingBlock: EZIPEK_clean_linker_0, # of connection points: 2
#     Edge 36, Type (0, 0), BuildingBlock: EZIPEK_clean_linker_0, # of connection points: 2
#     Edge 37, Type (0, 0), BuildingBlock: EZIPEK_clean_linker_0, # of connection points: 2
#     Edge 38, Type (0, 0), BuildingBlock: EZIPEK_clean_linker_0, # of connection points: 2
#     Edge 39, Type (0, 0), BuildingBlock: EZIPEK_clean_linker_0, # of connection points: 2
#     Edge 40, Type (0, 0), BuildingBlock: EZIPEK_clean_linker_0, # of connection points: 2
#     Edge 41, Type (0, 0), BuildingBlock: EZIPEK_clean_linker_0, # of connection points: 2
#     Edge 42, Type (0, 0), BuildingBlock: EZIPEK_clean_linker_0, # of connection points: 2
#     Edge 43, Type (0, 0), BuildingBlock: EZIPEK_clean_linker_0, # of connection points: 2
#     Edge 44, Type (0, 0), BuildingBlock: EZIPEK_clean_linker_0, # of connection points: 2
#     Edge 45, Type (0, 0), BuildingBlock: EZIPEK_clean_linker_0, # of connection points: 2
#     Edge 46, Type (0, 0), BuildingBlock: EZIPEK_clean_linker_0, # of connection points: 2
#     Edge 47, Type (0, 0), BuildingBlock: EZIPEK_clean_linker_0, # of connection points: 2
#     Edge 48, Type (0, 0), BuildingBlock: EZIPEK_clean_linker_0, # of connection points: 2
#     Edge 49, Type (0, 0), BuildingBlock: EZIPEK_clean_linker_0, # of connection points: 2
#     Edge 50, Type (0, 0), BuildingBlock: EZIPEK_clean_linker_0, # of connection points: 2
#     Edge 51, Type (0, 0), BuildingBlock: EZIPEK_clean_linker_0, # of connection points: 2
#     Edge 52, Type (0, 0), BuildingBlock: EZIPEK_clean_linker_0, # of connection points: 2
#     Edge 53, Type (0, 0), BuildingBlock: EZIPEK_clean_linker_0, # of connection points: 2
#     Edge 54, Type (0, 0), BuildingBlock: EZIPEK_clean_linker_0, # of connection points: 2
#     Edge 55, Type (0, 0), BuildingBlock: EZIPEK_clean_linker_0, # of connection points: 2
#     Edge 56, Type (0, 0), BuildingBlock: EZIPEK_clean_linker_0, # of connection points: 2
#     Edge 57, Type (0, 0), BuildingBlock: EZIPEK_clean_linker_0, # of connection points: 2
#     Edge 58, Type (0, 0), BuildingBlock: EZIPEK_clean_linker_0, # of connection points: 2
#     Edge 59, Type (0, 0), BuildingBlock: EZIPEK_clean_linker_0, # of connection points: 2
#     Edge 60, Type (0, 0), BuildingBlock: EZIPEK_clean_linker_0, # of connection points: 2
#     Edge 61, Type (0, 0), BuildingBlock: EZIPEK_clean_linker_0, # of connection points: 2
#     Edge 62, Type (0, 0), BuildingBlock: EZIPEK_clean_linker_0, # of connection points: 2
#     Edge 63, Type (0, 0), BuildingBlock: EZIPEK_clean_linker_0, # of connection points: 2
#     Edge 64, Type (0, 0), BuildingBlock: EZIPEK_clean_linker_0, # of connection points: 2
#     Edge 65, Type (0, 0), BuildingBlock: EZIPEK_clean_linker_0, # of connection points: 2
#     Edge 66, Type (0, 0), BuildingBlock: EZIPEK_clean_linker_0, # of connection points: 2
#     Edge 67, Type (0, 0), BuildingBlock: EZIPEK_clean_linker_0, # of connection points: 2
#     Edge 68, Type (0, 0), BuildingBlock: EZIPEK_clean_linker_0, # of connection points: 2
#     Edge 69, Type (0, 0), BuildingBlock: EZIPEK_clean_linker_0, # of connection points: 2
#     Edge 70, Type (0, 0), BuildingBlock: EZIPEK_clean_linker_0, # of connection points: 2
#     Edge 71, Type (0, 0), BuildingBlock: EZIPEK_clean_linker_0, # of connection points: 2
# Relax obj value: 0.072
# Max RMSD: 0.096
# Mean RMSD: 0.096
data_MOF--net-gme--node1-CEKHIL_clean_sbu_0--edge1-EZIPEK_clean_linker_0
_symmetry_space_group_name_H-M    P1
_symmetry_Int_Tables_number       1
_symmetry_cell_setting            triclinic
loop_
_symmetry_equiv_pos_as_xyz
'x, y, z'
_cell_length_a     39.297502
_cell_length_b     39.278973
_cell_length_c     41.690027
_cell_angle_alpha  90.012394
_cell_angle_beta   89.998956
_cell_angle_gamma 119.95607
loop_
_atom_site_label
_atom_site_type_symbol
_atom_site_fract_x
_atom_site_fract_y
_atom_site_fract_z
_atom_type_partial_charge
Co0 Co 0.38042 0.05955 0.11502 0.0
O1 O 0.38893 0.06583 0.06944 0.0
O2 O 0.35298 0.00865 0.09377 0.0
C3 C 0.36702 0.10901 0.11955 0.0
O4 O 0.36471 0.04265 0.16207 0.0
Co5 Co 0.43528 0.12847 0.15994 0.0
O6 O 0.39735 0.09611 0.1936 0.0
C7 C 0.46436 0.08072 0.12848 0.0
C8 C 0.36677 0.02816 0.06714 0.0
C9 C 0.37212 0.05993 0.1897 0.0
O10 O 0.42928 0.05532 0.11976 0.0
O11 O 0.47338 0.1134 0.14203 0.0
O12 O 0.3396 0.07405 0.11133 0.0
O13 O 0.40158 0.11326 0.12278 0.0
Co14 Co 0.32237 0.38399 0.62166 0.0
O15 O 0.322 0.38853 0.57572 0.0
O16 O 0.34399 0.35422 0.60163 0.0
C17 C 0.26029 0.37174 0.62844 0.0
O18 O 0.3264 0.37208 0.66926 0.0
Co19 Co 0.31255 0.44328 0.66406 0.0
O20 O 0.31046 0.40939 0.69993 0.0
C21 C 0.38669 0.46862 0.62952 0.0
C22 C 0.3374 0.36617 0.57439 0.0
C23 C 0.31948 0.38261 0.69676 0.0
O24 O 0.37591 0.43271 0.6227 0.0
O25 O 0.36427 0.47923 0.6431 0.0
O26 O 0.26689 0.34336 0.62134 0.0
O27 O 0.29068 0.40651 0.62888 0.0
Co28 Co 0.93596 0.32379 0.12178 0.0
O29 O 0.9285 0.32595 0.07631 0.0
O30 O 0.98601 0.34525 0.09934 0.0
C31 C 0.8849 0.26198 0.12729 0.0
O32 O 0.95445 0.32476 0.16832 0.0
Co33 Co 0.8701 0.31279 0.16886 0.0
O34 O 0.90278 0.30606 0.20149 0.0
C35 C 0.91929 0.38935 0.13723 0.0
C36 C 0.9659 0.34016 0.07317 0.0
C37 C 0.93841 0.31561 0.19642 0.0
O38 O 0.94279 0.37796 0.12681 0.0
O39 O 0.88739 0.36697 0.15229 0.0
O40 O 0.91906 0.26782 0.11836 0.0
O41 O 0.88208 0.29308 0.13066 0.0
Co42 Co 0.60984 0.93261 0.6195 0.0
O43 O 0.60473 0.92607 0.57369 0.0
O44 O 0.63632 0.98357 0.59843 0.0
C45 C 0.62643 0.88573 0.62692 0.0
O46 O 0.6219 0.95019 0.66674 0.0
Co47 Co 0.55379 0.86333 0.66277 0.0
O48 O 0.58536 0.89785 0.69844 0.0
C49 C 0.52389 0.90774 0.62784 0.0
C50 C 0.62493 0.96395 0.57162 0.0
C51 C 0.61144 0.93373 0.6946 0.0
O52 O 0.55923 0.93397 0.62064 0.0
O53 O 0.51508 0.87539 0.64181 0.0
O54 O 0.65301 0.92137 0.61947 0.0
O55 O 0.59075 0.87899 0.62757 0.0
Co56 Co 0.67142 0.60807 0.1121 0.0
O57 O 0.66721 0.59662 0.0669 0.0
O58 O 0.64741 0.63437 0.08971 0.0
C59 C 0.73423 0.62096 0.11483 0.0
O60 O 0.67315 0.62718 0.15846 0.0
Co61 Co 0.68733 0.55547 0.15833 0.0
O62 O 0.69492 0.5957 0.19048 0.0
C63 C 0.60708 0.52707 0.13351 0.0
C64 C 0.65245 0.61931 0.06347 0.0
C65 C 0.68409 0.62098 0.18607 0.0
O66 O 0.61805 0.56081 0.12075 0.0
O67 O 0.63106 0.51818 0.14673 0.0
O68 O 0.72653 0.64797 0.10567 0.0
O69 O 0.70398 0.58685 0.11995 0.0
Co70 Co 0.05825 0.67388 0.61418 0.0
O71 O 0.06672 0.67252 0.56875 0.0
O72 O 0.00838 0.64961 0.59143 0.0
C73 C 0.10591 0.7373 0.62046 0.0
O74 O 0.03832 0.6713 0.6604 0.0
Co75 Co 0.12501 0.68895 0.66172 0.0
O76 O 0.08889 0.6891 0.69464 0.0
C77 C 0.08021 0.61191 0.63025 0.0
C78 C 0.02906 0.65619 0.56538 0.0
C79 C 0.05323 0.67895 0.68891 0.0
O80 O 0.05543 0.62135 0.61929 0.0
O81 O 0.11141 0.6356 0.64553 0.0
O82 O 0.0711 0.72879 0.61086 0.0
O83 O 0.11159 0.70787 0.62371 0.0
Co84 Co 0.93445 0.61291 0.38855 0.0
O85 O 0.92834 0.60335 0.43405 0.0
O86 O 0.98533 0.64043 0.40984 0.0
C87 C 0.88452 0.62561 0.3847 0.0
O88 O 0.95156 0.63005 0.3419 0.0
Co89 Co 0.86604 0.55922 0.34292 0.0
O90 O 0.89863 0.598 0.30983 0.0
C91 C 0.91563 0.53029 0.3713 0.0
C92 C 0.96594 0.62589 0.43639 0.0
C93 C 0.93466 0.62335 0.31422 0.0
O94 O 0.93965 0.56479 0.3822 0.0
O95 O 0.88316 0.5214 0.35745 0.0
O96 O 0.91932 0.65323 0.39299 0.0
O97 O 0.88044 0.59119 0.38107 0.0
Co98 Co 0.31923 0.93092 0.89126 0.0
O99 O 0.31612 0.92499 0.93715 0.0
O100 O 0.34219 0.98215 0.9119 0.0
C101 C 0.25652 0.88329 0.88218 0.0
O102 O 0.32617 0.94764 0.84376 0.0
Co103 Co 0.3091 0.86126 0.8497 0.0
O104 O 0.31146 0.89454 0.81327 0.0
C105 C 0.38286 0.90874 0.88469 0.0
C106 C 0.33331 0.96287 0.9389 0.0
C107 C 0.32077 0.93042 0.81628 0.0
O108 O 0.37185 0.93353 0.89209 0.0
O109 O 0.36071 0.87618 0.87042 0.0
O110 O 0.26454 0.9187 0.88939 0.0
O111 O 0.28579 0.87707 0.88323 0.0
Co112 Co 0.38679 0.32081 0.39641 0.0
O113 O 0.3973 0.32152 0.4416 0.0
O114 O 0.36035 0.34343 0.42054 0.0
C115 C 0.37278 0.25794 0.38929 0.0
O116 O 0.3687 0.3228 0.35052 0.0
Co117 Co 0.44138 0.30914 0.34953 0.0
O118 O 0.40602 0.31053 0.31644 0.0
C119 C 0.46905 0.38672 0.37861 0.0
C120 C 0.37518 0.33675 0.44617 0.0
C121 C 0.37839 0.31778 0.32204 0.0
O122 O 0.4346 0.37484 0.39031 0.0
O123 O 0.47872 0.36367 0.36481 0.0
O124 O 0.34603 0.26543 0.39953 0.0
O125 O 0.4075 0.28806 0.38638 0.0
Co126 Co 0.0639 0.3875 0.89749 0.0
O127 O 0.06843 0.39801 0.94296 0.0
O128 O 0.0123 0.36096 0.91769 0.0
C129 C 0.11324 0.37372 0.89621 0.0
O130 O 0.04806 0.36948 0.85075 0.0
Co131 Co 0.13427 0.43819 0.85205 0.0
O132 O 0.10174 0.39905 0.81921 0.0
C133 C 0.08436 0.46938 0.87593 0.0
C134 C 0.03075 0.37541 0.94462 0.0
C135 C 0.06528 0.37508 0.82327 0.0
O136 O 0.06029 0.43619 0.88901 0.0
O137 O 0.1165 0.47671 0.86228 0.0
O138 O 0.07804 0.34673 0.90429 0.0
O139 O 0.1179 0.40814 0.89119 0.0
Co140 Co 0.67755 0.0646 0.39698 0.0
O141 O 0.67439 0.06974 0.44261 0.0
O142 O 0.65436 0.01325 0.41743 0.0
C143 C 0.74011 0.11468 0.39357 0.0
O144 O 0.67704 0.04854 0.34988 0.0
Co145 Co 0.6924 0.13424 0.35275 0.0
O146 O 0.69792 0.10218 0.31867 0.0
C147 C 0.61414 0.08436 0.38159 0.0
C148 C 0.65942 0.03209 0.44434 0.0
C149 C 0.68687 0.06593 0.32236 0.0
O150 O 0.62426 0.05959 0.39131 0.0
O151 O 0.63795 0.11732 0.3685 0.0
O152 O 0.733 0.07962 0.40098 0.0
O153 O 0.70974 0.11875 0.39034 0.0
Co154 Co 0.61555 0.68014 0.88744 0.0
O155 O 0.60743 0.6787 0.93305 0.0
O156 O 0.64045 0.65412 0.90856 0.0
C157 C 0.63261 0.744 0.8824 0.0
O158 O 0.63056 0.67731 0.84071 0.0
Co159 Co 0.56312 0.69746 0.84259 0.0
O160 O 0.59721 0.69633 0.80822 0.0
C161 C 0.53106 0.61922 0.87187 0.0
C162 C 0.62758 0.66096 0.93521 0.0
C163 C 0.62216 0.68513 0.81273 0.0
O164 O 0.56532 0.62838 0.88246 0.0
O165 O 0.5234 0.64352 0.85771 0.0
O166 O 0.65865 0.73446 0.89057 0.0
O167 O 0.5971 0.71523 0.87969 0.0
Co168 Co 0.61336 0.9346 0.89709 0.0
O169 O 0.60888 0.92812 0.9429 0.0
O170 O 0.63974 0.98562 0.91816 0.0
C171 C 0.63026 0.88819 0.88888 0.0
O172 O 0.62438 0.95203 0.84973 0.0
Co173 Co 0.55745 0.86479 0.8537 0.0
O174 O 0.59137 0.89829 0.81857 0.0
C175 C 0.52768 0.91094 0.88682 0.0
C176 C 0.62879 0.966 0.94499 0.0
C177 C 0.6156 0.93479 0.82209 0.0
O178 O 0.56257 0.93558 0.89641 0.0
O179 O 0.51903 0.87929 0.87167 0.0
O180 O 0.6568 0.9237 0.89669 0.0
O181 O 0.5945 0.88115 0.88876 0.0
Co182 Co 0.67613 0.61417 0.38753 0.0
O183 O 0.67326 0.60565 0.43314 0.0
O184 O 0.65307 0.64224 0.40838 0.0
C185 C 0.73868 0.62662 0.38389 0.0
O186 O 0.67562 0.63025 0.34055 0.0
Co187 Co 0.6906 0.55966 0.34254 0.0
O188 O 0.69643 0.59771 0.30891 0.0
C189 C 0.61255 0.5311 0.37185 0.0
C190 C 0.65837 0.6284 0.43515 0.0
C191 C 0.68553 0.62297 0.31293 0.0
O192 O 0.62284 0.56587 0.382 0.0
O193 O 0.63606 0.5221 0.35797 0.0
O194 O 0.73152 0.65445 0.39163 0.0
O195 O 0.70828 0.59224 0.38034 0.0
Co196 Co 0.06075 0.67568 0.88784 0.0
O197 O 0.07091 0.67535 0.933 0.0
O198 O 0.01189 0.65259 0.91225 0.0
C199 C 0.1092 0.7386 0.88064 0.0
O200 O 0.04006 0.67291 0.84195 0.0
Co201 Co 0.12633 0.68797 0.84005 0.0
O202 O 0.09035 0.68926 0.8076 0.0
C203 C 0.07796 0.61046 0.87014 0.0
C204 C 0.03358 0.65949 0.93779 0.0
C205 C 0.05493 0.67994 0.81342 0.0
O206 O 0.0554 0.62209 0.88223 0.0
O207 O 0.10976 0.63341 0.85515 0.0
O208 O 0.07493 0.73096 0.8909 0.0
O209 O 0.11399 0.7086 0.8775 0.0
Co210 Co 0.38458 0.06128 0.3911 0.0
O211 O 0.39258 0.06739 0.43676 0.0
O212 O 0.35645 0.01041 0.41215 0.0
C213 C 0.37166 0.11102 0.38597 0.0
O214 O 0.36864 0.04388 0.34424 0.0
Co215 Co 0.43964 0.12927 0.34588 0.0
O216 O 0.4037 0.0957 0.31167 0.0
C217 C 0.46811 0.08093 0.37712 0.0
C218 C 0.36991 0.02974 0.43887 0.0
C219 C 0.37725 0.06009 0.31624 0.0
O220 O 0.43311 0.05632 0.38661 0.0
O221 O 0.47725 0.11322 0.36285 0.0
O222 O 0.34402 0.07618 0.39417 0.0
O223 O 0.40629 0.11537 0.38327 0.0
Co224 Co 0.3243 0.39136 0.89821 0.0
O225 O 0.32755 0.40215 0.94352 0.0
O226 O 0.34841 0.36523 0.92076 0.0
C227 C 0.26122 0.37755 0.89493 0.0
O228 O 0.32421 0.37315 0.85183 0.0
Co229 Co 0.30781 0.44304 0.85172 0.0
O230 O 0.30183 0.40357 0.81933 0.0
C231 C 0.38771 0.47326 0.87807 0.0
C232 C 0.3428 0.3799 0.94698 0.0
C233 C 0.31358 0.37906 0.824 0.0
O234 O 0.3774 0.43945 0.89044 0.0
O235 O 0.36333 0.48143 0.86464 0.0
O236 O 0.26927 0.35064 0.90362 0.0
O237 O 0.29114 0.412 0.89026 0.0
Co238 Co 0.93674 0.3237 0.39679 0.0
O239 O 0.92927 0.32763 0.44203 0.0
O240 O 0.98685 0.34689 0.41951 0.0
C241 C 0.88646 0.26108 0.39357 0.0
O242 O 0.9545 0.32258 0.3504 0.0
Co243 Co 0.8689 0.3086 0.35021 0.0
O244 O 0.90184 0.30169 0.3179 0.0
C245 C 0.92034 0.38843 0.37614 0.0
C246 C 0.96663 0.34211 0.44562 0.0
C247 C 0.93783 0.31234 0.32255 0.0
O248 O 0.9432 0.37739 0.38865 0.0
O249 O 0.88751 0.36451 0.36288 0.0
O250 O 0.92101 0.26828 0.40265 0.0
O251 O 0.88292 0.29158 0.38873 0.0
Co252 Co 0.06471 0.38535 0.62196 0.0
O253 O 0.07113 0.39247 0.57619 0.0
O254 O 0.01405 0.35682 0.6007 0.0
C255 C 0.11433 0.37255 0.62877 0.0
O256 O 0.04713 0.37042 0.66884 0.0
Co257 Co 0.13228 0.44269 0.66641 0.0
O258 O 0.09792 0.40898 0.70132 0.0
C259 C 0.08383 0.46938 0.63353 0.0
C260 C 0.03344 0.37014 0.57398 0.0
C261 C 0.06288 0.38115 0.69689 0.0
O262 O 0.05937 0.43383 0.62521 0.0
O263 O 0.11645 0.47962 0.6476 0.0
O264 O 0.07968 0.34477 0.62029 0.0
O265 O 0.11871 0.40732 0.63029 0.0
Co266 Co 0.67555 0.06571 0.12004 0.0
O267 O 0.67591 0.07122 0.07419 0.0
O268 O 0.65483 0.01465 0.09949 0.0
C269 C 0.73729 0.11638 0.12694 0.0
O270 O 0.67199 0.04927 0.16743 0.0
Co271 Co 0.68391 0.13347 0.16324 0.0
O272 O 0.68834 0.10225 0.19849 0.0
C273 C 0.60915 0.08297 0.13002 0.0
C274 C 0.66133 0.03361 0.07248 0.0
C275 C 0.67956 0.06659 0.195 0.0
O276 O 0.62135 0.05944 0.12149 0.0
O277 O 0.63069 0.11565 0.14436 0.0
O278 O 0.73135 0.0817 0.11965 0.0
O279 O 0.70643 0.12002 0.12759 0.0
Co280 Co 0.61279 0.6777 0.61203 0.0
O281 O 0.60572 0.67887 0.56644 0.0
O282 O 0.64009 0.65496 0.58962 0.0
C283 C 0.62732 0.74033 0.6208 0.0
O284 O 0.62698 0.67267 0.65869 0.0
Co285 Co 0.55627 0.68818 0.65748 0.0
O286 O 0.59096 0.68793 0.69163 0.0
C287 C 0.52869 0.61289 0.62425 0.0
C288 C 0.62699 0.6624 0.56337 0.0
C289 C 0.61739 0.67876 0.68687 0.0
O290 O 0.56366 0.62455 0.61406 0.0
O291 O 0.51897 0.63495 0.63959 0.0
O292 O 0.65445 0.73283 0.61155 0.0
O293 O 0.59214 0.71056 0.62176 0.0
Co294 Co 0.93398 0.61396 0.11356 0.0
O295 O 0.92882 0.60402 0.0681 0.0
O296 O 0.98489 0.64315 0.09282 0.0
C297 C 0.88234 0.62412 0.11611 0.0
O298 O 0.95027 0.63173 0.16023 0.0
Co299 Co 0.86591 0.55957 0.15916 0.0
O300 O 0.89771 0.59854 0.19243 0.0
C301 C 0.91719 0.53232 0.13101 0.0
C302 C 0.96621 0.62807 0.06608 0.0
C303 C 0.93349 0.62459 0.18798 0.0
O304 O 0.94115 0.56708 0.12057 0.0
O305 O 0.88422 0.52279 0.14426 0.0
O306 O 0.91686 0.65264 0.10824 0.0
O307 O 0.87972 0.59042 0.12048 0.0
Co308 Co 0.31626 0.92865 0.6133 0.0
O309 O 0.31473 0.92269 0.56742 0.0
O310 O 0.34093 0.97989 0.59272 0.0
C311 C 0.25284 0.88195 0.62091 0.0
O312 O 0.32222 0.94575 0.66068 0.0
Co313 Co 0.30297 0.85876 0.65598 0.0
O314 O 0.3065 0.89308 0.69197 0.0
C315 C 0.37879 0.90552 0.62342 0.0
C316 C 0.33277 0.96063 0.56573 0.0
C317 C 0.31656 0.92908 0.68841 0.0
O318 O 0.3682 0.93001 0.61412 0.0
O319 O 0.35595 0.87352 0.63814 0.0
O320 O 0.26192 0.91764 0.61358 0.0
O321 O 0.28164 0.87496 0.62114 0.0
Co322 Co 0.38161 0.31885 0.12236 0.0
O323 O 0.39163 0.32311 0.07696 0.0
O324 O 0.35433 0.34259 0.10142 0.0
C325 C 0.3687 0.25607 0.12517 0.0
O326 O 0.36431 0.31859 0.16895 0.0
Co327 Co 0.43423 0.30295 0.16807 0.0
O328 O 0.39606 0.29772 0.20136 0.0
C329 C 0.46404 0.38188 0.14014 0.0
C330 C 0.3691 0.33823 0.07479 0.0
C331 C 0.37108 0.30886 0.1968 0.0
O332 O 0.42971 0.37185 0.12914 0.0
O333 O 0.47251 0.35798 0.15402 0.0
O334 O 0.34123 0.26368 0.11726 0.0
O335 O 0.40311 0.2862 0.12941 0.0
C336 C 0.37606 0.02045 0.26909 0.0
C337 C 0.3575 0.0373 0.2869 0.0
C338 C 0.32946 0.04683 0.23776 0.0
C339 C 0.35424 0.03751 0.21971 0.0
N340 N 0.3883 0.00127 0.21659 0.0
N341 N 0.30443 0.05038 0.29043 0.0
C342 C 0.37287 0.01897 0.23497 0.0
C343 C 0.32974 0.04476 0.27184 0.0
N344 N 0.3983 0.00807 0.28493 0.0
N345 N 0.30738 0.05943 0.22207 0.0
H346 H 0.30396 0.04716 0.31533 0.0
H347 H 0.28218 0.05467 0.28138 0.0
H348 H 0.30519 0.05805 0.19715 0.0
H349 H 0.29166 0.07088 0.23337 0.0
H350 H 0.41605 -0.001 0.27368 0.0
H351 H 0.39871 0.00713 0.30995 0.0
H352 H 0.40146 0.98603 0.22579 0.0
H353 H 0.38466 -0.00082 0.19174 0.0
C354 C 0.29097 0.33531 0.7422 0.0
C355 C 0.32461 0.3659 0.72716 0.0
C356 C 0.35781 0.38538 0.77926 0.0
C357 C 0.32097 0.36263 0.79439 0.0
N358 N 0.25523 0.3086 0.79218 0.0
N359 N 0.39271 0.41524 0.7297 0.0
C360 C 0.28852 0.3346 0.77635 0.0
C361 C 0.35931 0.38868 0.74521 0.0
N362 N 0.26157 0.30778 0.72357 0.0
N363 N 0.39072 0.40483 0.79773 0.0
H364 H 0.39428 0.4165 0.70473 0.0
H365 H 0.41817 0.43605 0.7412 0.0
H366 H 0.38957 0.40237 0.82269 0.0
H367 H 0.41906 0.42062 0.78854 0.0
H368 H 0.23627 0.28378 0.73256 0.0
H369 H 0.26442 0.30773 0.69867 0.0
H370 H 0.22873 0.28955 0.78103 0.0
H371 H 0.25501 0.30615 0.81711 0.0
C372 C 0.97768 0.35573 0.24287 0.0
C373 C 0.96199 0.31999 0.22565 0.0
C374 C 0.9547 0.28425 0.27557 0.0
C375 C 0.96118 0.31795 0.2929 0.0
N376 N 0.99003 0.38801 0.29506 0.0
N377 N 0.95119 0.25463 0.22328 0.0
C378 C 0.97735 0.35476 0.27711 0.0
C379 C 0.95597 0.28561 0.2414 0.0
N380 N 0.99105 0.38991 0.22612 0.0
N381 N 0.9459 0.25093 0.29211 0.0
H382 H 0.95481 0.25723 0.19841 0.0
H383 H 0.94678 0.22817 0.23257 0.0
H384 H 0.94821 0.25135 0.31704 0.0
H385 H 0.93751 0.22387 0.28156 0.0
H386 H 0.00201 0.41751 0.23647 0.0
H387 H 0.99245 0.39036 0.2011 0.0
H388 H 0.00101 0.41608 0.28566 0.0
H389 H 0.99049 0.38733 0.32008 0.0
C390 C 0.65809 0.95279 0.74076 0.0
C391 C 0.62846 0.95651 0.72454 0.0
C392 C 0.60494 0.96792 0.77549 0.0
C393 C 0.63006 0.95755 0.79184 0.0
N394 N 0.69023 0.95625 0.79167 0.0
N395 N 0.58513 0.98277 0.72444 0.0
C396 C 0.66024 0.95573 0.77486 0.0
C397 C 0.60604 0.96973 0.74139 0.0
N398 N 0.68251 0.94441 0.72352 0.0
N399 N 0.57832 0.97317 0.79261 0.0
H400 H 0.58726 0.9851 0.69952 0.0
H401 H 0.56927 0.99462 0.73484 0.0
H402 H 0.57835 0.97325 0.81763 0.0
H403 H 0.55606 0.97654 0.7823 0.0
H404 H 0.70213 0.93708 0.7338 0.0
H405 H 0.68237 0.94442 0.69847 0.0
H406 H 0.71439 0.95662 0.78108 0.0
H407 H 0.69223 0.96004 0.81654 0.0
C408 C 0.71413 0.66798 0.26638 0.0
C409 C 0.68019 0.64044 0.28304 0.0
C410 C 0.64372 0.62006 0.23236 0.0
C411 C 0.68 0.63963 0.21576 0.0
N412 N 0.74774 0.68953 0.21504 0.0
N413 N 0.61038 0.59807 0.28395 0.0
C414 C 0.71452 0.66667 0.23226 0.0
C415 C 0.6439 0.61971 0.2666 0.0
N416 N 0.74573 0.69469 0.2836 0.0
N417 N 0.60974 0.60048 0.21514 0.0
H418 H 0.61039 0.59912 0.30897 0.0
H419 H 0.5829 0.57962 0.27404 0.0
H420 H 0.60967 0.60102 0.19011 0.0
H421 H 0.58181 0.58574 0.22518 0.0
H422 H 0.77177 0.71649 0.27354 0.0
H423 H 0.74387 0.6967 0.30843 0.0
H424 H 0.77532 0.70742 0.22506 0.0
H425 H 0.74686 0.69048 0.19008 0.0
C426 C 0.01217 0.63812 0.73405 0.0
C427 C 0.02883 0.67433 0.71759 0.0
C428 C 0.03616 0.7086 0.76839 0.0
C429 C 0.03043 0.67456 0.78469 0.0
N430 N 0.00426 0.60481 0.78512 0.0
N431 N 0.04362 0.74114 0.71682 0.0
C432 C 0.01438 0.63826 0.76817 0.0
C433 C 0.03586 0.70863 0.73418 0.0
N434 N 0.99567 0.60419 0.71668 0.0
N435 N 0.04343 0.74086 0.78592 0.0
H436 H 0.04106 0.73988 0.69185 0.0
H437 H 0.05121 0.76832 0.72671 0.0
H438 H 0.04218 0.73986 0.81096 0.0
H439 H 0.04866 0.76739 0.77614 0.0
H440 H 0.98164 0.57621 0.72672 0.0
H441 H 0.99355 0.60462 0.69172 0.0
H442 H 0.99592 0.57768 0.77472 0.0
H443 H 0.00474 0.60474 0.81017 0.0
C444 C 0.97328 0.62221 0.23327 0.0
C445 C 0.95681 0.64253 0.21755 0.0
C446 C 0.95253 0.67034 0.26889 0.0
C447 C 0.95777 0.64149 0.28466 0.0
N448 N 0.98293 0.59708 0.28386 0.0
N449 N 0.94206 0.69464 0.21821 0.0
C450 C 0.97243 0.62046 0.26743 0.0
C451 C 0.95067 0.67001 0.23477 0.0
N452 N 0.98827 0.60374 0.2153 0.0
N453 N 0.94917 0.69747 0.28691 0.0
H454 H 0.9447 0.69673 0.19329 0.0
H455 H 0.93354 0.71321 0.22878 0.0
H456 H 0.95334 0.69882 0.31172 0.0
H457 H 0.94575 0.72009 0.27747 0.0
H458 H 0.00205 0.58927 0.22481 0.0
H459 H 0.98922 0.60551 0.1903 0.0
H460 H 0.99038 0.57779 0.2731 0.0
H461 H 0.98391 0.59713 0.30889 0.0
C462 C 0.29335 0.94961 0.77033 0.0
C463 C 0.32664 0.95223 0.78578 0.0
C464 C 0.36035 0.96469 0.73404 0.0
C465 C 0.32395 0.95187 0.71855 0.0
N466 N 0.25851 0.94135 0.7199 0.0
N467 N 0.39449 0.97001 0.78411 0.0
C468 C 0.29147 0.94817 0.73614 0.0
C469 C 0.36144 0.96337 0.76812 0.0
N470 N 0.2635 0.94734 0.78863 0.0
N471 N 0.39318 0.97652 0.71579 0.0
H472 H 0.39565 0.97054 0.80909 0.0
H473 H 0.42018 0.9746 0.77307 0.0
H474 H 0.39208 0.97786 0.69085 0.0
H475 H 0.42137 0.98769 0.725 0.0
H476 H 0.23837 0.94622 0.7794 0.0
H477 H 0.26552 0.94928 0.81361 0.0
H478 H 0.23212 0.93484 0.73077 0.0
H479 H 0.25814 0.94258 0.69488 0.0
C480 C 0.37749 0.35585 0.27505 0.0
C481 C 0.35798 0.32086 0.29324 0.0
C482 C 0.32743 0.2831 0.24457 0.0
C483 C 0.35428 0.31593 0.2263 0.0
N484 N 0.39474 0.38589 0.22194 0.0
N485 N 0.30531 0.25459 0.2978 0.0
C486 C 0.37537 0.35341 0.24092 0.0
C487 C 0.32924 0.28563 0.27869 0.0
N488 N 0.39978 0.3906 0.29073 0.0
N489 N 0.30148 0.24961 0.22888 0.0
H490 H 0.30609 0.25734 0.32276 0.0
H491 H 0.28419 0.22714 0.28939 0.0
H492 H 0.29889 0.24923 0.20395 0.0
H493 H 0.28165 0.22346 0.24007 0.0
H494 H 0.41684 0.41756 0.27953 0.0
H495 H 0.40031 0.39213 0.31576 0.0
H496 H 0.4113 0.41446 0.23049 0.0
H497 H 0.39262 0.38408 0.19698 0.0
C498 C 0.04877 0.33341 0.74086 0.0
C499 C 0.0407 0.36108 0.72634 0.0
C500 C 0.02364 0.3765 0.77877 0.0
C501 C 0.04233 0.35758 0.79341 0.0
N502 N 0.06327 0.30999 0.7902 0.0
N503 N 0.01077 0.40112 0.72917 0.0
C504 C 0.05104 0.33265 0.77491 0.0
C505 C 0.02401 0.37938 0.74465 0.0
N506 N 0.05514 0.30894 0.72175 0.0
N507 N 0.00709 0.39274 0.79764 0.0
H508 H 0.00905 0.40115 0.70417 0.0
H509 H 0.0015 0.41862 0.74059 0.0
H510 H 0.00637 0.39028 0.82257 0.0
H511 H 0.99194 0.40619 0.78887 0.0
H512 H 0.06025 0.28702 0.7303 0.0
H513 H 0.05233 0.30913 0.69684 0.0
H514 H 0.0739 0.29372 0.77864 0.0
H515 H 0.06214 0.30757 0.81512 0.0
C516 C 0.64243 0.02894 0.27751 0.0
C517 C 0.67945 0.04302 0.29223 0.0
C518 C 0.70891 0.04727 0.23951 0.0
C519 C 0.67504 0.04454 0.22514 0.0
N520 N 0.60707 0.02633 0.22891 0.0
N521 N 0.74526 0.05504 0.28895 0.0
C522 C 0.64057 0.03216 0.24364 0.0
C523 C 0.71179 0.04816 0.27364 0.0
N524 N 0.60959 0.01381 0.29621 0.0
N525 N 0.73806 0.04953 0.22031 0.0
H526 H 0.74564 0.05181 0.31376 0.0
H527 H 0.77169 0.063 0.27744 0.0
H528 H 0.73488 0.04714 0.19541 0.0
H529 H 0.76347 0.05059 0.2288 0.0
H530 H 0.58116 0.00087 0.28712 0.0
H531 H 0.61104 0.01132 0.32104 0.0
H532 H 0.58199 0.02168 0.24111 0.0
H533 H 0.60512 0.02727 0.20402 0.0
C534 C 0.66589 0.70737 0.73112 0.0
C535 C 0.63551 0.67345 0.71624 0.0
C536 C 0.61625 0.64062 0.76841 0.0
C537 C 0.63857 0.6777 0.78327 0.0
N538 N 0.69156 0.74412 0.78084 0.0
N539 N 0.5872 0.60506 0.71888 0.0
C540 C 0.6664 0.71023 0.76521 0.0
C541 C 0.61322 0.63874 0.73437 0.0
N542 N 0.69309 0.73683 0.71234 0.0
N543 N 0.59683 0.60793 0.78714 0.0
H544 H 0.58605 0.60346 0.6939 0.0
H545 H 0.56683 0.57937 0.73039 0.0
H546 H 0.59918 0.6095 0.81211 0.0
H547 H 0.58109 0.57945 0.77819 0.0
H548 H 0.71705 0.76226 0.72123 0.0
H549 H 0.69282 0.73393 0.68742 0.0
H550 H 0.71029 0.77053 0.76942 0.0
H551 H 0.69333 0.74524 0.80585 0.0
C552 C 0.33614 0.14811 0.13897 0.0
C553 C 0.36179 0.14381 0.11756 0.0
C554 C 0.3838 0.20969 0.09609 0.0
C555 C 0.36366 0.21638 0.12134 0.0
N556 N 0.32171 0.19311 0.16774 0.0
N557 N 0.40838 0.16921 0.07389 0.0
C558 C 0.33971 0.18575 0.14285 0.0
C559 C 0.3851 0.17425 0.09554 0.0
N560 N 0.30806 0.11623 0.15516 0.0
N561 N 0.40015 0.23648 0.07179 0.0
H562 H 0.40642 0.14214 0.06962 0.0
H563 H 0.43049 0.19209 0.06074 0.0
H564 H 0.39891 0.26232 0.0709 0.0
H565 H 0.41162 0.23158 0.05093 0.0
H566 H 0.28638 0.11675 0.16914 0.0
H567 H 0.30385 0.08814 0.1518 0.0
H568 H 0.30757 0.17348 0.18645 0.0
H569 H 0.32339 0.22021 0.1708 0.0
C570 C 0.16437 0.3619 0.65772 0.0
C571 C 0.14886 0.3669 0.62851 0.0
C572 C 0.20479 0.37128 0.59888 0.0
C573 C 0.22029 0.36632 0.62812 0.0
N574 N 0.21232 0.34973 0.68415 0.0
N575 N 0.14986 0.3692 0.57068 0.0
C576 C 0.19921 0.35936 0.6572 0.0
C577 C 0.16767 0.36922 0.59887 0.0
N578 N 0.14619 0.36048 0.68598 0.0
N579 N 0.22632 0.37947 0.57128 0.0
H580 H 0.12357 0.36952 0.56969 0.0
H581 H 0.1595 0.36604 0.54821 0.0
H582 H 0.25268 0.37929 0.56993 0.0
H583 H 0.21935 0.38855 0.55006 0.0
H584 H 0.15811 0.36166 0.70851 0.0
H585 H 0.11942 0.35975 0.68677 0.0
H586 H 0.19674 0.34067 0.70558 0.0
H587 H 0.2378 0.34787 0.68424 0.0
C588 C 0.83946 0.19662 0.15247 0.0
C589 C 0.84927 0.22266 0.12612 0.0
C590 C 0.7891 0.17525 0.0983 0.0
C591 C 0.77703 0.15145 0.12621 0.0
N592 N 0.78887 0.13968 0.1806 0.0
N593 N 0.83282 0.23859 0.07457 0.0
C594 C 0.80188 0.16198 0.15344 0.0
C595 C 0.82396 0.21243 0.09915 0.0
N596 N 0.86614 0.20509 0.17647 0.0
N597 N 0.76785 0.1617 0.07059 0.0
H598 H 0.85924 0.26505 0.07311 0.0
H599 H 0.8131 0.23522 0.05649 0.0
H600 H 0.74227 0.1345 0.06894 0.0
H601 H 0.77729 0.17561 0.04848 0.0
H602 H 0.86271 0.18573 0.19488 0.0
H603 H 0.89332 0.23077 0.1766 0.0
H604 H 0.80351 0.1477 0.2025 0.0
H605 H 0.7618 0.11394 0.18169 0.0
C606 C 0.63817 0.79917 0.6525 0.0
C607 C 0.63423 0.78094 0.62234 0.0
C608 C 0.63656 0.83747 0.59528 0.0
C609 C 0.63441 0.85271 0.62562 0.0
N610 N 0.63383 0.84927 0.68325 0.0
N611 N 0.6285 0.78138 0.56477 0.0
C612 C 0.63564 0.83399 0.65431 0.0
C613 C 0.63364 0.79997 0.5936 0.0
N614 N 0.64539 0.78367 0.67919 0.0
N615 N 0.64154 0.85891 0.56807 0.0
H616 H 0.62794 0.75471 0.56232 0.0
H617 H 0.6225 0.79111 0.54343 0.0
H618 H 0.643 0.88612 0.56814 0.0
H619 H 0.64761 0.85148 0.54567 0.0
H620 H 0.65191 0.79705 0.70163 0.0
H621 H 0.64847 0.75891 0.67806 0.0
H622 H 0.62962 0.83475 0.70503 0.0
H623 H 0.63519 0.87632 0.68525 0.0
C624 C 0.78057 0.60153 0.091 0.0
C625 C 0.77415 0.62606 0.11227 0.0
C626 C 0.84049 0.65241 0.13421 0.0
C627 C 0.8466 0.62748 0.11335 0.0
N628 N 0.82745 0.58695 0.06592 0.0
N629 N 0.80125 0.6823 0.14747 0.0
C630 C 0.81801 0.60442 0.09004 0.0
C631 C 0.80522 0.65401 0.13172 0.0
N632 N 0.75098 0.57569 0.07139 0.0
N633 N 0.86764 0.67324 0.15731 0.0
H634 H 0.77608 0.6846 0.1458 0.0
H635 H 0.8241 0.70571 0.15962 0.0
H636 H 0.89403 0.67325 0.15916 0.0
H637 H 0.86299 0.68826 0.17582 0.0
H638 H 0.7517 0.55293 0.05919 0.0
H639 H 0.72495 0.57613 0.06792 0.0
H640 H 0.80946 0.57311 0.04626 0.0
H641 H 0.85508 0.58958 0.06372 0.0
C642 C 0.19302 0.83285 0.59124 0.0
C643 C 0.21168 0.84924 0.62094 0.0
C644 C 0.1552 0.7975 0.64989 0.0
C645 C 0.13946 0.77805 0.6204 0.0
N646 N 0.14306 0.77594 0.56274 0.0
N647 N 0.21086 0.8488 0.67862 0.0
C648 C 0.15796 0.79566 0.59093 0.0
C649 C 0.1927 0.83213 0.65033 0.0
N650 N 0.20878 0.85292 0.56334 0.0
N651 N 0.13364 0.7833 0.6773 0.0
H652 H 0.2365 0.87592 0.67951 0.0
H653 H 0.2014 0.83549 0.70093 0.0
H654 H 0.10571 0.7587 0.67712 0.0
H655 H 0.14153 0.79752 0.69938 0.0
H656 H 0.19452 0.84473 0.54128 0.0
H657 H 0.23485 0.8798 0.5625 0.0
H658 H 0.1578 0.78455 0.54091 0.0
H659 H 0.11663 0.74945 0.56131 0.0
C660 C 0.8423 0.65118 0.36198 0.0
C661 C 0.84979 0.63075 0.38647 0.0
C662 C 0.78607 0.61117 0.41113 0.0
C663 C 0.77842 0.63145 0.3865 0.0
N664 N 0.8022 0.67811 0.34313 0.0
N665 N 0.83393 0.59979 0.43845 0.0
C666 C 0.80763 0.65401 0.36347 0.0
C667 C 0.82313 0.6132 0.41227 0.0
N668 N 0.86745 0.66628 0.3366 0.0
N669 N 0.7578 0.58976 0.43341 0.0
H670 H 0.86113 0.60141 0.44035 0.0
H671 H 0.81766 0.5904 0.45954 0.0
H672 H 0.73189 0.59071 0.43564 0.0
H673 H 0.75922 0.56976 0.44894 0.0
H674 H 0.86171 0.67768 0.31609 0.0
H675 H 0.89317 0.66493 0.33524 0.0
H676 H 0.82377 0.69811 0.32772 0.0
H677 H 0.77703 0.68053 0.34372 0.0
C678 C 0.16226 0.79526 0.91088 0.0
C679 C 0.14341 0.7789 0.88121 0.0
C680 C 0.1965 0.83409 0.85209 0.0
C681 C 0.21568 0.85 0.88169 0.0
N682 N 0.21332 0.85121 0.93946 0.0
N683 N 0.13729 0.78608 0.82461 0.0
C684 C 0.19734 0.83233 0.91117 0.0
C685 C 0.15897 0.79939 0.85207 0.0
N686 N 0.14759 0.77454 0.93868 0.0
N687 N 0.21451 0.85191 0.82406 0.0
H688 H 0.10948 0.76123 0.82434 0.0
H689 H 0.14505 0.80112 0.80289 0.0
H690 H 0.24036 0.8789 0.8236 0.0
H691 H 0.20477 0.83963 0.80145 0.0
H692 H 0.16271 0.78209 0.96038 0.0
H693 H 0.12096 0.74829 0.93986 0.0
H694 H 0.19918 0.84226 0.96152 0.0
H695 H 0.23951 0.8779 0.94073 0.0
C696 C 0.37024 0.16482 0.41698 0.0
C697 C 0.36613 0.14558 0.38721 0.0
C698 C 0.36179 0.19799 0.35897 0.0
C699 C 0.36644 0.21749 0.38866 0.0
N700 N 0.3668 0.21621 0.44651 0.0
N701 N 0.35076 0.13915 0.33097 0.0
C702 C 0.36791 0.19977 0.41788 0.0
C703 C 0.35969 0.1608 0.35849 0.0
N704 N 0.37805 0.15055 0.44423 0.0
N705 N 0.35978 0.21536 0.33125 0.0
H706 H 0.34902 0.11188 0.33023 0.0
H707 H 0.34221 0.14644 0.30964 0.0
H708 H 0.35751 0.24058 0.33131 0.0
H709 H 0.36137 0.20565 0.30837 0.0
H710 H 0.38649 0.16574 0.46588 0.0
H711 H 0.37835 0.1242 0.44487 0.0
H712 H 0.36325 0.2025 0.4686 0.0
H713 H 0.36631 0.24242 0.44826 0.0
C714 C 0.19099 0.34634 0.87652 0.0
C715 C 0.22111 0.37179 0.89795 0.0
C716 C 0.17661 0.39105 0.92276 0.0
C717 C 0.14787 0.3685 0.89938 0.0
N718 N 0.12272 0.31698 0.85996 0.0
N719 N 0.24294 0.41684 0.94271 0.0
C720 C 0.15349 0.34361 0.87811 0.0
C721 C 0.21388 0.3935 0.9216 0.0
N722 N 0.19906 0.32648 0.85362 0.0
N723 N 0.1672 0.40827 0.94711 0.0
H724 H 0.26901 0.41622 0.94507 0.0
H725 H 0.24205 0.43772 0.95746 0.0
H726 H 0.1395 0.40545 0.94944 0.0
H727 H 0.18518 0.42248 0.96665 0.0
H728 H 0.18027 0.31081 0.83486 0.0
H729 H 0.22591 0.32731 0.85246 0.0
H730 H 0.12349 0.29576 0.84556 0.0
H731 H 0.09488 0.31392 0.86143 0.0
C732 C 0.78756 0.17719 0.42062 0.0
C733 C 0.77987 0.14952 0.39586 0.0
C734 C 0.84624 0.19122 0.37452 0.0
C735 C 0.85141 0.22139 0.39606 0.0
N736 N 0.82769 0.24353 0.44035 0.0
N737 N 0.80058 0.12982 0.34853 0.0
C738 C 0.82226 0.21446 0.41936 0.0
C739 C 0.80906 0.15618 0.37281 0.0
N740 N 0.76246 0.16706 0.44615 0.0
N741 N 0.87688 0.196 0.35587 0.0
H742 H 0.77395 0.1036 0.34726 0.0
H743 H 0.81868 0.13487 0.32876 0.0
H744 H 0.90434 0.22129 0.35676 0.0
H745 H 0.87626 0.17384 0.34175 0.0
H746 H 0.76832 0.18422 0.46666 0.0
H747 H 0.7373 0.13957 0.44836 0.0
H748 H 0.80538 0.24242 0.45456 0.0
H749 H 0.85424 0.26972 0.44278 0.0
C750 C 0.64542 0.80674 0.85613 0.0
C751 C 0.64044 0.78485 0.8845 0.0
C752 C 0.63502 0.8343 0.91642 0.0
C753 C 0.63876 0.85557 0.88789 0.0
N754 N 0.65611 0.86764 0.83214 0.0
N755 N 0.63942 0.78136 0.94227 0.0
C756 C 0.64676 0.84353 0.85817 0.0
C757 C 0.63826 0.79992 0.91489 0.0
N758 N 0.64801 0.79183 0.82723 0.0
N759 N 0.62679 0.84617 0.94479 0.0
H760 H 0.64083 0.7556 0.94209 0.0
H761 H 0.64218 0.79296 0.96519 0.0
H762 H 0.62651 0.87242 0.94725 0.0
H763 H 0.61837 0.8293 0.9656 0.0
H764 H 0.64695 0.80359 0.80515 0.0
H765 H 0.65003 0.76648 0.82546 0.0
H766 H 0.66543 0.86253 0.81022 0.0
H767 H 0.65758 0.89478 0.83344 0.0
C768 C 0.38131 0.00157 0.98247 0.0
C769 C 0.34216 0.98227 0.97079 0.0
C770 C 0.31874 0.99261 0.02263 0.0
C771 C 0.35745 0.00931 0.03502 0.0
N772 N 0.42468 0.025 0.02875 0.0
N773 N 0.27294 0.95632 0.97985 0.0
C774 C 0.38856 0.01268 0.01541 0.0
C775 C 0.31068 0.97679 0.99098 0.0
N776 N 0.41156 0.00923 0.96205 0.0
N777 N 0.2901 0.99373 0.04048 0.0
H778 H 0.26609 0.9475 0.956 0.0
H779 H 0.24831 0.94653 0.99446 0.0
H780 H 0.29467 0.00472 0.06381 0.0
H781 H 0.26254 0.98638 0.03155 0.0
H782 H 0.44106 0.02688 0.96799 0.0
H783 H 0.4073 0.00022 0.93815 0.0
H784 H 0.44773 0.02455 0.01685 0.0
H785 H 0.43076 0.0326 0.0529 0.0
C786 C 0.39606 0.36388 0.50237 0.0
C787 C 0.36551 0.34332 0.47946 0.0
C788 C 0.31643 0.33549 0.51982 0.0
C789 C 0.34685 0.35541 0.54276 0.0
N790 N 0.41505 0.38425 0.55758 0.0
N791 N 0.29636 0.30073 0.46915 0.0
C792 C 0.38644 0.36804 0.53458 0.0
C793 C 0.3256 0.3269 0.48887 0.0
N794 N 0.4345 0.38104 0.49309 0.0
N795 N 0.27851 0.32447 0.52768 0.0
H796 H 0.30165 0.292 0.44699 0.0
H797 H 0.26701 0.28445 0.47597 0.0
H798 H 0.26967 0.32611 0.55093 0.0
H799 H 0.25602 0.31529 0.51086 0.0
H800 H 0.45795 0.40126 0.50696 0.0
H801 H 0.44336 0.37706 0.47063 0.0
H802 H 0.44338 0.389 0.55456 0.0
H803 H 0.41011 0.39094 0.58067 0.0
C804 C 0.01402 0.39603 0.99649 0.0
C805 C 0.01086 0.36536 0.97644 0.0
C806 C 0.97689 0.31776 0.01971 0.0
C807 C 0.98383 0.3491 0.04071 0.0
N808 N 0.01248 0.41854 0.05045 0.0
N809 N 0.99423 0.29769 0.9702 0.0
C810 C 0.00365 0.38844 0.02952 0.0
C811 C 0.99336 0.3263 0.98828 0.0
N812 N 0.02509 0.43196 0.98343 0.0
N813 N 0.95428 0.27973 0.02972 0.0
H814 H 0.00581 0.30254 0.94708 0.0
H815 H 0.98621 0.26985 0.97895 0.0
H816 H 0.94368 0.27218 0.0531 0.0
H817 H 0.94396 0.25567 0.01436 0.0
H818 H 0.02485 0.45482 0.99587 0.0
H819 H 0.03045 0.43743 0.95896 0.0
H820 H 0.0305 0.44803 0.04461 0.0
H821 H 0.00419 0.41399 0.07453 0.0
C822 C 0.68193 0.02066 0.49748 0.0
C823 C 0.65052 0.01261 0.47617 0.0
C824 C 0.6029 0.9774 0.51906 0.0
C825 C 0.63417 0.98311 0.53964 0.0
N826 N 0.70279 0.00456 0.54721 0.0
N827 N 0.58114 0.98014 0.46504 0.0
C828 C 0.67357 0.00344 0.5286 0.0
C829 C 0.61097 0.98981 0.48645 0.0
N830 N 0.71989 0.04502 0.488 0.0
N831 N 0.5657 0.96164 0.53119 0.0
H832 H 0.58591 0.9901 0.44138 0.0
H833 H 0.55181 0.96013 0.46991 0.0
H834 H 0.55886 0.95295 0.55506 0.0
H835 H 0.54217 0.9602 0.51857 0.0
H836 H 0.74372 0.05629 0.50364 0.0
H837 H 0.72756 0.05581 0.4647 0.0
H838 H 0.73132 0.01475 0.53909 0.0
H839 H 0.69796 0.99249 0.57016 0.0
C840 C 0.62328 0.6001 0.00758 0.0
C841 C 0.64568 0.63001 0.0306 0.0
C842 C 0.66047 0.68018 0.98895 0.0
C843 C 0.63585 0.65014 0.96714 0.0
N844 N 0.59323 0.5814 0.95543 0.0
N845 N 0.68587 0.6992 0.04299 0.0
C846 C 0.61728 0.61025 0.97639 0.0
C847 C 0.66412 0.6703 0.02125 0.0
N848 N 0.60644 0.56113 0.01454 0.0
N849 N 0.6823 0.71797 0.97805 0.0
H850 H 0.69413 0.69389 0.06531 0.0
H851 H 0.69499 0.72876 0.03943 0.0
H852 H 0.68136 0.72586 0.95433 0.0
H853 H 0.70381 0.74106 0.9914 0.0
H854 H 0.60872 0.54979 0.03646 0.0
H855 H 0.60872 0.54979 0.03646 0.0
H856 H 0.5787 0.55161 0.96145 0.0
H857 H 0.58736 0.58714 0.93229 0.0
C858 C 0.01394 0.61899 0.51347 0.0
C859 C 0.01133 0.64737 0.53283 0.0
C860 C 0.97951 0.66213 0.48856 0.0
C861 C 0.98468 0.63579 0.46851 0.0
N862 N 0.01067 0.59248 0.46011 0.0
N863 N 0.99753 0.70048 0.53761 0.0
C864 C 0.00325 0.61534 0.48043 0.0
C865 C 0.99556 0.67008 0.5201 0.0
N866 N 0.02505 0.5944 0.52714 0.0
N867 N 0.95874 0.67918 0.47758 0.0
H868 H 0.00865 0.70704 0.56089 0.0
H869 H 0.99093 0.7211 0.5283 0.0
H870 H 0.94863 0.67612 0.45405 0.0
H871 H 0.94952 0.6945 0.49222 0.0
H872 H 0.02415 0.57061 0.51534 0.0
H873 H 0.03191 0.59562 0.55143 0.0
H874 H 0.0275 0.57978 0.46635 0.0
H875 H 0.0024 0.58852 0.43602 0.0
C876 C 0.60606 0.9785 0.99752 0.0
C877 C 0.63766 0.98514 0.97699 0.0
C878 C 0.68485 0.02317 0.0194 0.0
C879 C 0.65313 0.01415 0.04065 0.0
N880 N 0.58359 0.97977 0.05154 0.0
N881 N 0.70666 0.00848 0.96948 0.0
C882 C 0.61372 0.99054 0.03022 0.0
C883 C 0.67699 0.00627 0.98813 0.0
N884 N 0.56887 0.96229 0.98528 0.0
N885 N 0.72259 0.04808 0.0291 0.0
H886 H 0.70217 0.9967 0.94642 0.0
H887 H 0.7353 0.01937 0.97759 0.0
H888 H 0.72992 0.05855 0.05253 0.0
H889 H 0.74654 0.06002 0.01358 0.0
H890 H 0.54509 0.9603 0.9979 0.0
H891 H 0.56227 0.95394 0.96131 0.0
H892 H 0.55453 0.95899 0.04651 0.0
H893 H 0.58786 0.98952 0.07524 0.0
C894 C 0.61092 0.62107 0.47855 0.0
C895 C 0.65009 0.63922 0.46711 0.0
C896 C 0.6743 0.67323 0.51873 0.0
C897 C 0.63546 0.65279 0.53097 0.0
N898 N 0.56742 0.60322 0.5246 0.0
N899 N 0.71973 0.67919 0.47682 0.0
C900 C 0.60386 0.62572 0.51137 0.0
C901 C 0.68197 0.66425 0.4874 0.0
N902 N 0.5805 0.59937 0.45802 0.0
N903 N 0.70354 0.7026 0.53643 0.0
H904 H 0.72667 0.67565 0.45337 0.0
H905 H 0.7442 0.69325 0.49168 0.0
H906 H 0.6992 0.70994 0.55951 0.0
H907 H 0.73141 0.72178 0.52745 0.0
H908 H 0.55113 0.58872 0.46377 0.0
H909 H 0.5847 0.59425 0.43418 0.0
H910 H 0.54396 0.58013 0.51271 0.0
H911 H 0.56133 0.60535 0.54863 0.0
C912 C 0.9735 0.65674 0.01094 0.0
C913 C 0.98573 0.63858 0.03419 0.0
C914 C 0.02908 0.63347 0.99438 0.0
C915 C 0.01745 0.65247 0.97117 0.0
N916 N 0.9874 0.692 0.96062 0.0
N917 N 0.02856 0.61408 0.04981 0.0
C918 C 0.99187 0.6666 0.98028 0.0
C919 C 0.01472 0.62852 0.02647 0.0
N920 N 0.94441 0.66497 0.0182 0.0
N921 N 0.0526 0.61861 0.9856 0.0
H922 H 0.01674 0.607 0.07284 0.0
H923 H 0.05337 0.61126 0.04716 0.0
H924 H 0.06617 0.62347 0.9634 0.0
H925 H 0.05716 0.59938 0.99969 0.0
H926 H 0.93024 0.67271 1.00102 0.0
H927 H 0.93287 0.66219 0.04119 0.0
H928 H 0.97262 0.70669 0.96736 0.0
H929 H 0.00208 0.70203 0.93884 0.0
C930 C 0.37036 0.97524 0.51421 0.0
C931 C 0.34379 0.98034 0.53401 0.0
C932 C 0.33469 0.01818 0.49141 0.0
C933 C 0.35903 0.01063 0.47082 0.0
N934 N 0.39709 0.97902 0.46093 0.0
N935 N 0.29633 0.00163 0.54043 0.0
C936 C 0.37585 0.9881 0.4817 0.0
C937 C 0.32497 0.00071 0.52243 0.0
N938 N 0.39161 0.95959 0.52701 0.0
N939 N 0.32091 0.0422 0.48131 0.0
H940 H 0.2886 0.98948 0.56334 0.0
H941 H 0.27816 0.01185 0.53191 0.0
H942 H 0.32459 0.05299 0.45796 0.0
H943 H 0.30756 0.05314 0.49644 0.0
H944 H 0.41436 0.95864 0.51505 0.0
H945 H 0.38886 0.9505 0.55084 0.0
H946 H 0.40649 0.95913 0.46615 0.0
H947 H 0.4032 0.98939 0.4374 0.0
C948 C 0.34121 0.31909 0.01926 0.0
C949 C 0.36034 0.34882 0.04287 0.0
C950 C 0.37018 0.39923 1.00327 0.0
C951 C 0.34971 0.36931 0.97983 0.0
N952 N 0.3069 0.30038 0.96842 0.0
N953 N 0.38928 0.41658 0.05894 0.0
C954 C 0.33305 0.32912 0.98852 0.0
C955 C 0.37349 0.38868 0.03537 0.0
N956 N 0.33045 0.28098 0.02623 0.0
N957 N 0.38785 0.43792 0.99464 0.0
H958 H 0.39501 0.41072 0.08208 0.0
H959 H 0.39462 0.44519 0.05633 0.0
H960 H 0.38454 0.44735 0.97221 0.0
H961 H 0.40783 0.46094 0.00899 0.0
H962 H 0.32179 0.25914 0.00885 0.0
H963 H 0.33207 0.2714 0.0492 0.0
H964 H 0.29041 0.2709 0.97489 0.0
H965 H 0.29827 0.30616 0.94642 0.0
C966 C 0.02317 0.33926 0.51944 0.0
C967 C 0.01412 0.3607 0.542 0.0
C968 C 0.97574 0.37181 0.50105 0.0
C969 C 0.98399 0.34949 0.47855 0.0
N970 N 0.00749 0.30412 0.46891 0.0
N971 N 0.9783 0.39354 0.55603 0.0
C972 C 0.00581 0.33133 0.48834 0.0
C973 C 0.9892 0.37566 0.53333 0.0
N974 N 0.04816 0.32601 0.52789 0.0
N975 N 0.95623 0.39066 0.4913 0.0
H976 H 0.98955 0.3994 0.57928 0.0
H977 H 0.95625 0.40052 0.55267 0.0
H978 H 0.9438 0.38706 0.46869 0.0
H979 H 0.95413 0.41178 0.50484 0.0
H980 H 0.06067 0.3155 0.51146 0.0
H981 H 0.0578 0.32703 0.55135 0.0
H982 H 0.01913 0.28663 0.47604 0.0
H983 H 0.99384 0.29596 0.44658 0.0
C984 C 0.50228 0.04768 0.14461 0.0
C985 C 0.49653 0.07222 0.12298 0.0
C986 C 0.56155 0.09528 0.09963 0.0
C987 C 0.5683 0.07279 0.1227 0.0
N988 N 0.54181 0.01855 0.1597 0.0
N989 N 0.51474 0.1102 0.07437 0.0
C990 C 0.53739 0.04576 0.14263 0.0
C991 C 0.5243 0.09297 0.09854 0.0
N992 N 0.47523 0.02804 0.1681 0.0
N993 N 0.5913 0.1197 0.07953 0.0
H994 H 0.48741 0.10853 0.07309 0.0
H995 H 0.53224 0.12312 0.05429 0.0
H996 H 0.618 0.12003 0.0785 0.0
H997 H 0.59013 0.14039 0.06469 0.0
H998 H 0.47976 0.01349 0.18704 0.0
H999 H 0.44881 0.02812 0.16959 0.0
H1000 H 0.51934 0.99602 0.17286 0.0
H1001 H 0.56695 0.01609 0.158 0.0
C1002 C 0.46514 0.56613 0.59802 0.0
C1003 C 0.49722 0.57217 0.61756 0.0
C1004 C 0.45988 0.50469 0.63767 0.0
C1005 C 0.42659 0.5001 0.62063 0.0
N1006 N 0.40021 0.52018 0.57733 0.0
N1007 N 0.52992 0.54448 0.64769 0.0
C1008 C 0.43022 0.5289 0.59831 0.0
C1009 C 0.49625 0.54039 0.63451 0.0
N1010 N 0.46793 0.59647 0.57995 0.0
N1011 N 0.45611 0.47589 0.65819 0.0
H1012 H 0.55696 0.57014 0.64556 0.0
H1013 H 0.53201 0.52154 0.65813 0.0
H1014 H 0.43066 0.44857 0.65954 0.0
H1015 H 0.47752 0.47936 0.67465 0.0
H1016 H 0.44434 0.59584 0.56809 0.0
H1017 H 0.49416 0.62309 0.57751 0.0
H1018 H 0.40175 0.53854 0.55872 0.0
H1019 H 0.37469 0.49269 0.57686 0.0
C1020 C 0.93694 0.45346 0.16227 0.0
C1021 C 0.93021 0.43109 0.13394 0.0
C1022 C 0.93012 0.48367 0.10221 0.0
C1023 C 0.92922 0.50212 0.13121 0.0
N1024 N 0.93449 0.50705 0.18887 0.0
N1025 N 0.92229 0.42456 0.07655 0.0
C1026 C 0.9341 0.48805 0.16124 0.0
C1027 C 0.92832 0.44653 0.10362 0.0
N1028 N 0.94617 0.44144 0.19008 0.0
N1029 N 0.93185 0.50126 0.0735 0.0
H1030 H 0.92171 0.39773 0.0767 0.0
H1031 H 0.91613 0.43183 0.05414 0.0
H1032 H 0.93201 0.52781 0.07173 0.0
H1033 H 0.93617 0.49132 0.05157 0.0
H1034 H 0.95505 0.45803 0.21105 0.0
H1035 H 0.94815 0.41599 0.19138 0.0
H1036 H 0.933 0.49588 0.21178 0.0
H1037 H 0.93467 0.53368 0.18889 0.0
C1038 C 0.42486 0.88702 0.59791 0.0
C1039 C 0.41931 0.91392 0.61679 0.0
C1040 C 0.48676 0.9437 0.63676 0.0
C1041 C 0.49123 0.91481 0.61988 0.0
N1042 N 0.47037 0.86742 0.5772 0.0
N1043 N 0.44829 0.97557 0.64539 0.0
C1044 C 0.46205 0.88916 0.59804 0.0
C1045 C 0.45147 0.945 0.63317 0.0
N1046 N 0.39419 0.85898 0.58046 0.0
N1047 N 0.5152 0.96832 0.6577 0.0
H1048 H 0.42308 0.97771 0.64301 0.0
H1049 H 0.47181 0.00081 0.65502 0.0
H1050 H 0.54206 0.96935 0.6599 0.0
H1051 H 0.51152 0.98624 0.67407 0.0
H1052 H 0.3945 0.83545 0.56927 0.0
H1053 H 0.36764 0.85872 0.57791 0.0
H1054 H 0.45172 0.85041 0.55881 0.0
H1055 H 0.49778 0.86921 0.57655 0.0
C1056 C 0.54096 0.48206 0.10821 0.0
C1057 C 0.5645 0.49733 0.13606 0.0
C1058 C 0.51311 0.44351 0.16765 0.0
C1059 C 0.49524 0.42365 0.13867 0.0
N1060 N 0.49231 0.42361 0.08074 0.0
N1061 N 0.57006 0.49688 0.19361 0.0
C1062 C 0.50872 0.44302 0.10874 0.0
C1063 C 0.54938 0.47947 0.16629 0.0
N1064 N 0.54851 0.50504 0.08171 0.0
N1065 N 0.49488 0.42826 0.19631 0.0
H1066 H 0.59451 0.52511 0.19368 0.0
H1067 H 0.56368 0.48327 0.21596 0.0
H1068 H 0.468 0.40221 0.19794 0.0
H1069 H 0.50436 0.44283 0.21816 0.0
H1070 H 0.53057 0.49622 0.06147 0.0
H1071 H 0.56913 0.53483 0.08188 0.0
H1072 H 0.50404 0.43494 0.05825 0.0
H1073 H 0.46881 0.3949 0.07992 0.0
C1074 C 0.06079 0.51251 0.65742 0.0
C1075 C 0.07269 0.49995 0.62988 0.0
C1076 C 0.08154 0.55741 0.59985 0.0
C1077 C 0.07123 0.57073 0.62784 0.0
N1078 N 0.04167 0.55732 0.68022 0.0
N1079 N 0.08481 0.50407 0.57305 0.0
C1080 C 0.05754 0.54684 0.65561 0.0
C1081 C 0.0796 0.52022 0.60034 0.0
N1082 N 0.05438 0.49253 0.68569 0.0
N1083 N 0.09527 0.58129 0.57355 0.0
H1084 H 0.08396 0.47709 0.573 0.0
H1085 H 0.08669 0.51559 0.55022 0.0
H1086 H 0.09643 0.60839 0.57239 0.0
H1087 H 0.10734 0.57538 0.55357 0.0
H1088 H 0.05015 0.50254 0.70761 0.0
H1089 H 0.05526 0.46652 0.68752 0.0
H1090 H 0.02767 0.53951 0.69993 0.0
H1091 H 0.03968 0.5828 0.67959 0.0
C1092 C 0.92868 0.48195 0.343 0.0
C1093 C 0.92692 0.49953 0.37225 0.0
C1094 C 0.94147 0.45446 0.40181 0.0
C1095 C 0.93292 0.43103 0.37387 0.0
N1096 N 0.92564 0.42556 0.31639 0.0
N1097 N 0.93109 0.50231 0.43013 0.0
C1098 C 0.92919 0.44606 0.3439 0.0
C1099 C 0.93385 0.48622 0.40186 0.0
N1100 N 0.93059 0.50005 0.31449 0.0
N1101 N 0.95805 0.44737 0.42777 0.0
H1102 H 0.92522 0.52538 0.43134 0.0
H1103 H 0.9316 0.4907 0.45247 0.0
H1104 H 0.96813 0.42745 0.42689 0.0
H1105 H 0.96728 0.46522 0.44808 0.0
H1106 H 0.9356 0.4909 0.29245 0.0
H1107 H 0.93053 0.52652 0.31312 0.0
H1108 H 0.91762 0.43175 0.2943 0.0
H1109 H 0.92994 0.40141 0.31592 0.0
C1110 C 0.46319 0.89047 0.91314 0.0
C1111 C 0.495 0.91826 0.89423 0.0
C1112 C 0.45608 0.94791 0.87675 0.0
C1113 C 0.42312 0.91755 0.89298 0.0
N1114 N 0.39768 0.86827 0.9342 0.0
N1115 N 0.52615 0.98035 0.86627 0.0
C1116 C 0.42756 0.89151 0.91373 0.0
C1117 C 0.49299 0.94948 0.87891 0.0
N1118 N 0.467 0.86263 0.92989 0.0
N1119 N 0.45157 0.97378 0.85783 0.0
H1120 H 0.55355 0.98236 0.86718 0.0
H1121 H 0.52747 0.00573 0.85739 0.0
H1122 H 0.42591 0.97532 0.85748 0.0
H1123 H 0.47262 0.99288 0.84165 0.0
H1124 H 0.44379 0.83857 0.94109 0.0
H1125 H 0.49374 0.86317 0.93196 0.0
H1126 H 0.39967 0.85057 0.95179 0.0
H1127 H 0.3717 0.86935 0.9354 0.0
C1128 C 0.51369 0.4525 0.40473 0.0
C1129 C 0.49818 0.42954 0.37663 0.0
C1130 C 0.55057 0.48224 0.3449 0.0
C1131 C 0.57079 0.49996 0.37377 0.0
N1132 N 0.57186 0.50272 0.43166 0.0
N1133 N 0.49739 0.42518 0.31893 0.0
C1134 C 0.55216 0.48582 0.40388 0.0
C1135 C 0.51509 0.44556 0.3463 0.0
N1136 N 0.49143 0.44317 0.43183 0.0
N1137 N 0.5652 0.5009 0.31627 0.0
H1138 H 0.46953 0.4002 0.31899 0.0
H1139 H 0.51039 0.43226 0.29635 0.0
H1140 H 0.5911 0.52789 0.31463 0.0
H1141 H 0.55036 0.49159 0.29453 0.0
H1142 H 0.50013 0.46038 0.45249 0.0
H1143 H 0.46204 0.42139 0.43194 0.0
H1144 H 0.56144 0.49077 0.45427 0.0
H1145 H 0.59996 0.52727 0.4321 0.0
C1146 C 0.06843 0.51366 0.84434 0.0
C1147 C 0.07388 0.50061 0.87466 0.0
C1148 C 0.06204 0.54919 0.9011 0.0
C1149 C 0.06636 0.56813 0.87127 0.0
N1150 N 0.06784 0.56582 0.81356 0.0
N1151 N 0.08013 0.50875 0.93213 0.0
C1152 C 0.06739 0.54927 0.84252 0.0
C1153 C 0.07131 0.51873 0.9032 0.0
N1154 N 0.06384 0.49174 0.8175 0.0
N1155 N 0.04803 0.55929 0.9271 0.0
H1156 H 0.08867 0.48764 0.93452 0.0
H1157 H 0.08245 0.52398 0.95325 0.0
H1158 H 0.03668 0.5781 0.92522 0.0
H1159 H 0.04203 0.54447 0.94895 0.0
H1160 H 0.05611 0.49754 0.79513 0.0
H1161 H 0.06465 0.46561 0.81813 0.0
H1162 H 0.07358 0.55661 0.79183 0.0
H1163 H 0.06335 0.58976 0.81145 0.0
C1164 C 0.55299 0.06857 0.35178 0.0
C1165 C 0.57211 0.073 0.38168 0.0
C1166 C 0.51702 0.07229 0.40997 0.0
C1167 C 0.49942 0.07065 0.37986 0.0
N1168 N 0.49384 0.05587 0.32349 0.0
N1169 N 0.56895 0.0693 0.4394 0.0
C1170 C 0.51525 0.06495 0.3512 0.0
C1171 C 0.55276 0.07123 0.41091 0.0
N1172 N 0.57166 0.0693 0.32387 0.0
N1173 N 0.5008 0.07724 0.43734 0.0
H1174 H 0.59568 0.06982 0.44086 0.0
H1175 H 0.55473 0.06428 0.4614 0.0
H1176 H 0.47418 0.07707 0.43746 0.0
H1177 H 0.51429 0.08316 0.45972 0.0
H1178 H 0.56175 0.07119 0.30117 0.0
H1179 H 0.59841 0.06975 0.32338 0.0
H1180 H 0.50165 0.04753 0.30229 0.0
H1181 H 0.46618 0.0534 0.32247 0.0
C1182 C 0.48171 0.55768 0.84448 0.0
C1183 C 0.49923 0.57774 0.87347 0.0
C1184 C 0.45314 0.51956 0.904 0.0
C1185 C 0.43008 0.50386 0.87594 0.0
N1186 N 0.42502 0.50442 0.8183 0.0
N1187 N 0.5016 0.5783 0.93137 0.0
C1188 C 0.44544 0.52175 0.84574 0.0
C1189 C 0.48538 0.55863 0.90343 0.0
N1190 N 0.50035 0.57262 0.8159 0.0
N1191 N 0.44515 0.49692 0.93077 0.0
H1192 H 0.5252 0.60698 0.93206 0.0
H1193 H 0.48972 0.56725 0.95388 0.0
H1194 H 0.42458 0.46714 0.93066 0.0
H1195 H 0.46268 0.50597 0.95124 0.0
H1196 H 0.49124 0.55769 0.79417 0.0
H1197 H 0.52721 0.59868 0.81427 0.0
H1198 H 0.43159 0.51819 0.79601 0.0
H1199 H 0.40052 0.47624 0.81804 0.0
loop_
_geom_bond_atom_site_label_1
_geom_bond_atom_site_label_2
_geom_bond_distance
_geom_bond_site_symmetry_2
_ccdc_geom_bond_type
Co0 O1 2.216 . S
Co0 O2 2.091 1_545 S
Co0 O4 2.004 . S
Co0 O10 2.021 . S
Co0 O12 2.137 . S
Co0 O13 2.244 . S
O1 Co0 2.216 . S
O1 C8 1.247 . S
O2 Co0 2.091 1_565 S
O2 C8 1.261 1_565 S
C3 O12 1.247 . S
C3 O13 1.272 . S
O4 Co0 2.004 . S
O4 C9 1.259 . S
Co5 O6 2.061 . S
Co5 O11 2.052 . S
Co5 O13 2.135 . S
O6 Co5 2.061 . S
O6 C9 1.235 . S
C7 O10 1.238 . S
C7 O11 1.241 . S
C8 O1 1.247 . S
C8 O2 1.261 1_545 S
C9 O4 1.259 . S
C9 O6 1.235 . S
O10 Co0 2.021 . S
O10 C7 1.238 . S
O11 Co5 2.052 . S
O11 C7 1.241 . S
O12 Co0 2.137 . S
O12 C3 1.247 . S
O13 Co0 2.244 . S
O13 C3 1.272 . S
O13 Co5 2.135 . S
Co14 O15 2.216 . S
Co14 O16 2.091 . S
Co14 O18 2.004 . S
Co14 O24 2.021 . S
Co14 O26 2.137 . S
Co14 O27 2.244 . S
O15 Co14 2.216 . S
O15 C22 1.247 . S
O16 Co14 2.091 . S
O16 C22 1.261 . S
C17 O26 1.247 . S
C17 O27 1.272 . S
O18 Co14 2.004 . S
O18 C23 1.259 . S
Co19 O20 2.061 . S
Co19 O25 2.052 . S
Co19 O27 2.135 . S
O20 Co19 2.061 . S
O20 C23 1.235 . S
C21 O24 1.238 . S
C21 O25 1.241 . S
C22 O15 1.247 . S
C22 O16 1.261 . S
C23 O18 1.259 . S
C23 O20 1.235 . S
O24 Co14 2.021 . S
O24 C21 1.238 . S
O25 Co19 2.052 . S
O25 C21 1.241 . S
O26 Co14 2.137 . S
O26 C17 1.247 . S
O27 Co14 2.244 . S
O27 C17 1.272 . S
O27 Co19 2.135 . S
Co28 O29 2.216 . S
Co28 O30 2.091 1_655 S
Co28 O32 2.004 . S
Co28 O38 2.021 . S
Co28 O40 2.137 . S
Co28 O41 2.244 . S
O29 Co28 2.216 . S
O29 C36 1.247 . S
O30 Co28 2.091 1_455 S
O30 C36 1.261 1_455 S
C31 O40 1.247 . S
C31 O41 1.272 . S
O32 Co28 2.004 . S
O32 C37 1.259 . S
Co33 O34 2.061 . S
Co33 O39 2.052 . S
Co33 O41 2.135 . S
O34 Co33 2.061 . S
O34 C37 1.235 . S
C35 O38 1.238 . S
C35 O39 1.241 . S
C36 O29 1.247 . S
C36 O30 1.261 1_655 S
C37 O32 1.259 . S
C37 O34 1.235 . S
O38 Co28 2.021 . S
O38 C35 1.238 . S
O39 Co33 2.052 . S
O39 C35 1.241 . S
O40 Co28 2.137 . S
O40 C31 1.247 . S
O41 Co28 2.244 . S
O41 C31 1.272 . S
O41 Co33 2.135 . S
Co42 O43 2.216 . S
Co42 O44 2.091 1_565 S
Co42 O46 2.004 . S
Co42 O52 2.021 . S
Co42 O54 2.137 . S
Co42 O55 2.244 . S
O43 Co42 2.216 . S
O43 C50 1.247 . S
O44 Co42 2.091 1_545 S
O44 C50 1.261 1_545 S
C45 O54 1.247 . S
C45 O55 1.272 . S
O46 Co42 2.004 . S
O46 C51 1.259 . S
Co47 O48 2.061 . S
Co47 O53 2.052 . S
Co47 O55 2.135 . S
O48 Co47 2.061 . S
O48 C51 1.235 . S
C49 O52 1.238 . S
C49 O53 1.241 . S
C50 O43 1.247 . S
C50 O44 1.261 1_565 S
C51 O46 1.259 . S
C51 O48 1.235 . S
O52 Co42 2.021 . S
O52 C49 1.238 . S
O53 Co47 2.052 . S
O53 C49 1.241 . S
O54 Co42 2.137 . S
O54 C45 1.247 . S
O55 Co42 2.244 . S
O55 C45 1.272 . S
O55 Co47 2.135 . S
Co56 O57 2.216 . S
Co56 O58 2.091 . S
Co56 O60 2.004 . S
Co56 O66 2.021 . S
Co56 O68 2.137 . S
Co56 O69 2.244 . S
O57 Co56 2.216 . S
O57 C64 1.247 . S
O58 Co56 2.091 . S
O58 C64 1.261 . S
C59 O68 1.247 . S
C59 O69 1.272 . S
O60 Co56 2.004 . S
O60 C65 1.259 . S
Co61 O62 2.061 . S
Co61 O67 2.052 . S
Co61 O69 2.135 . S
O62 Co61 2.061 . S
O62 C65 1.235 . S
C63 O66 1.238 . S
C63 O67 1.241 . S
C64 O57 1.247 . S
C64 O58 1.261 . S
C65 O60 1.259 . S
C65 O62 1.235 . S
O66 Co56 2.021 . S
O66 C63 1.238 . S
O67 Co61 2.052 . S
O67 C63 1.241 . S
O68 Co56 2.137 . S
O68 C59 1.247 . S
O69 Co56 2.244 . S
O69 C59 1.272 . S
O69 Co61 2.135 . S
Co70 O71 2.216 . S
Co70 O72 2.091 1_455 S
Co70 O74 2.004 . S
Co70 O80 2.021 . S
Co70 O82 2.137 . S
Co70 O83 2.244 . S
O71 Co70 2.216 . S
O71 C78 1.247 . S
O72 Co70 2.091 1_655 S
O72 C78 1.261 1_655 S
C73 O82 1.247 . S
C73 O83 1.272 . S
O74 Co70 2.004 . S
O74 C79 1.259 . S
Co75 O76 2.061 . S
Co75 O81 2.052 . S
Co75 O83 2.135 . S
O76 Co75 2.061 . S
O76 C79 1.235 . S
C77 O80 1.238 . S
C77 O81 1.241 . S
C78 O71 1.247 . S
C78 O72 1.261 1_455 S
C79 O74 1.259 . S
C79 O76 1.235 . S
O80 Co70 2.021 . S
O80 C77 1.238 . S
O81 Co75 2.052 . S
O81 C77 1.241 . S
O82 Co70 2.137 . S
O82 C73 1.247 . S
O83 Co70 2.244 . S
O83 C73 1.272 . S
O83 Co75 2.135 . S
Co84 O85 2.216 . S
Co84 O86 2.091 1_655 S
Co84 O88 2.004 . S
Co84 O94 2.021 . S
Co84 O96 2.137 . S
Co84 O97 2.244 . S
O85 Co84 2.216 . S
O85 C92 1.247 . S
O86 Co84 2.091 1_455 S
O86 C92 1.261 1_455 S
C87 O96 1.247 . S
C87 O97 1.272 . S
O88 Co84 2.004 . S
O88 C93 1.259 . S
Co89 O90 2.061 . S
Co89 O95 2.052 . S
Co89 O97 2.135 . S
O90 Co89 2.061 . S
O90 C93 1.235 . S
C91 O94 1.238 . S
C91 O95 1.241 . S
C92 O85 1.247 . S
C92 O86 1.261 1_655 S
C93 O88 1.259 . S
C93 O90 1.235 . S
O94 Co84 2.021 . S
O94 C91 1.238 . S
O95 Co89 2.052 . S
O95 C91 1.241 . S
O96 Co84 2.137 . S
O96 C87 1.247 . S
O97 Co84 2.244 . S
O97 C87 1.272 . S
O97 Co89 2.135 . S
Co98 O99 2.216 . S
Co98 O100 2.091 1_565 S
Co98 O102 2.004 . S
Co98 O108 2.021 . S
Co98 O110 2.137 . S
Co98 O111 2.244 . S
O99 Co98 2.216 . S
O99 C106 1.247 . S
O100 Co98 2.091 1_545 S
O100 C106 1.261 1_545 S
C101 O110 1.247 . S
C101 O111 1.272 . S
O102 Co98 2.004 . S
O102 C107 1.259 . S
Co103 O104 2.061 . S
Co103 O109 2.052 . S
Co103 O111 2.135 . S
O104 Co103 2.061 . S
O104 C107 1.235 . S
C105 O108 1.238 . S
C105 O109 1.241 . S
C106 O99 1.247 . S
C106 O100 1.261 1_565 S
C107 O102 1.259 . S
C107 O104 1.235 . S
O108 Co98 2.021 . S
O108 C105 1.238 . S
O109 Co103 2.052 . S
O109 C105 1.241 . S
O110 Co98 2.137 . S
O110 C101 1.247 . S
O111 Co98 2.244 . S
O111 C101 1.272 . S
O111 Co103 2.135 . S
Co112 O113 2.216 . S
Co112 O114 2.091 . S
Co112 O116 2.004 . S
Co112 O122 2.021 . S
Co112 O124 2.137 . S
Co112 O125 2.244 . S
O113 Co112 2.216 . S
O113 C120 1.247 . S
O114 Co112 2.091 . S
O114 C120 1.261 . S
C115 O124 1.247 . S
C115 O125 1.272 . S
O116 Co112 2.004 . S
O116 C121 1.259 . S
Co117 O118 2.061 . S
Co117 O123 2.052 . S
Co117 O125 2.135 . S
O118 Co117 2.061 . S
O118 C121 1.235 . S
C119 O122 1.238 . S
C119 O123 1.241 . S
C120 O113 1.247 . S
C120 O114 1.261 . S
C121 O116 1.259 . S
C121 O118 1.235 . S
O122 Co112 2.021 . S
O122 C119 1.238 . S
O123 Co117 2.052 . S
O123 C119 1.241 . S
O124 Co112 2.137 . S
O124 C115 1.247 . S
O125 Co112 2.244 . S
O125 C115 1.272 . S
O125 Co117 2.135 . S
Co126 O127 2.216 . S
Co126 O128 2.091 1_455 S
Co126 O130 2.004 . S
Co126 O136 2.021 . S
Co126 O138 2.137 . S
Co126 O139 2.244 . S
O127 Co126 2.216 . S
O127 C134 1.247 . S
O128 Co126 2.091 1_655 S
O128 C134 1.261 1_655 S
C129 O138 1.247 . S
C129 O139 1.272 . S
O130 Co126 2.004 . S
O130 C135 1.259 . S
Co131 O132 2.061 . S
Co131 O137 2.052 . S
Co131 O139 2.135 . S
O132 Co131 2.061 . S
O132 C135 1.235 . S
C133 O136 1.238 . S
C133 O137 1.241 . S
C134 O127 1.247 . S
C134 O128 1.261 1_455 S
C135 O130 1.259 . S
C135 O132 1.235 . S
O136 Co126 2.021 . S
O136 C133 1.238 . S
O137 Co131 2.052 . S
O137 C133 1.241 . S
O138 Co126 2.137 . S
O138 C129 1.247 . S
O139 Co126 2.244 . S
O139 C129 1.272 . S
O139 Co131 2.135 . S
Co140 O141 2.216 . S
Co140 O142 2.091 1_545 S
Co140 O144 2.004 . S
Co140 O150 2.021 . S
Co140 O152 2.137 . S
Co140 O153 2.244 . S
O141 Co140 2.216 . S
O141 C148 1.247 . S
O142 Co140 2.091 1_565 S
O142 C148 1.261 1_565 S
C143 O152 1.247 . S
C143 O153 1.272 . S
O144 Co140 2.004 . S
O144 C149 1.259 . S
Co145 O146 2.061 . S
Co145 O151 2.052 . S
Co145 O153 2.135 . S
O146 Co145 2.061 . S
O146 C149 1.235 . S
C147 O150 1.238 . S
C147 O151 1.241 . S
C148 O141 1.247 . S
C148 O142 1.261 1_545 S
C149 O144 1.259 . S
C149 O146 1.235 . S
O150 Co140 2.021 . S
O150 C147 1.238 . S
O151 Co145 2.052 . S
O151 C147 1.241 . S
O152 Co140 2.137 . S
O152 C143 1.247 . S
O153 Co140 2.244 . S
O153 C143 1.272 . S
O153 Co145 2.135 . S
Co154 O155 2.216 . S
Co154 O156 2.091 . S
Co154 O158 2.004 . S
Co154 O164 2.021 . S
Co154 O166 2.137 . S
Co154 O167 2.244 . S
O155 Co154 2.216 . S
O155 C162 1.247 . S
O156 Co154 2.091 . S
O156 C162 1.261 . S
C157 O166 1.247 . S
C157 O167 1.272 . S
O158 Co154 2.004 . S
O158 C163 1.259 . S
Co159 O160 2.061 . S
Co159 O165 2.052 . S
Co159 O167 2.135 . S
O160 Co159 2.061 . S
O160 C163 1.235 . S
C161 O164 1.238 . S
C161 O165 1.241 . S
C162 O155 1.247 . S
C162 O156 1.261 . S
C163 O158 1.259 . S
C163 O160 1.235 . S
O164 Co154 2.021 . S
O164 C161 1.238 . S
O165 Co159 2.052 . S
O165 C161 1.241 . S
O166 Co154 2.137 . S
O166 C157 1.247 . S
O167 Co154 2.244 . S
O167 C157 1.272 . S
O167 Co159 2.135 . S
Co168 O169 2.216 . S
Co168 O170 2.091 1_565 S
Co168 O172 2.004 . S
Co168 O178 2.021 . S
Co168 O180 2.137 . S
Co168 O181 2.244 . S
O169 Co168 2.216 . S
O169 C176 1.247 . S
O170 Co168 2.091 1_545 S
O170 C176 1.261 1_545 S
C171 O180 1.247 . S
C171 O181 1.272 . S
O172 Co168 2.004 . S
O172 C177 1.259 . S
Co173 O174 2.061 . S
Co173 O179 2.052 . S
Co173 O181 2.135 . S
O174 Co173 2.061 . S
O174 C177 1.235 . S
C175 O178 1.238 . S
C175 O179 1.241 . S
C176 O169 1.247 . S
C176 O170 1.261 1_565 S
C177 O172 1.259 . S
C177 O174 1.235 . S
O178 Co168 2.021 . S
O178 C175 1.238 . S
O179 Co173 2.052 . S
O179 C175 1.241 . S
O180 Co168 2.137 . S
O180 C171 1.247 . S
O181 Co168 2.244 . S
O181 C171 1.272 . S
O181 Co173 2.135 . S
Co182 O183 2.216 . S
Co182 O184 2.091 . S
Co182 O186 2.004 . S
Co182 O192 2.021 . S
Co182 O194 2.137 . S
Co182 O195 2.244 . S
O183 Co182 2.216 . S
O183 C190 1.247 . S
O184 Co182 2.091 . S
O184 C190 1.261 . S
C185 O194 1.247 . S
C185 O195 1.272 . S
O186 Co182 2.004 . S
O186 C191 1.259 . S
Co187 O188 2.061 . S
Co187 O193 2.052 . S
Co187 O195 2.135 . S
O188 Co187 2.061 . S
O188 C191 1.235 . S
C189 O192 1.238 . S
C189 O193 1.241 . S
C190 O183 1.247 . S
C190 O184 1.261 . S
C191 O186 1.259 . S
C191 O188 1.235 . S
O192 Co182 2.021 . S
O192 C189 1.238 . S
O193 Co187 2.052 . S
O193 C189 1.241 . S
O194 Co182 2.137 . S
O194 C185 1.247 . S
O195 Co182 2.244 . S
O195 C185 1.272 . S
O195 Co187 2.135 . S
Co196 O197 2.216 . S
Co196 O198 2.091 1_455 S
Co196 O200 2.004 . S
Co196 O206 2.021 . S
Co196 O208 2.137 . S
Co196 O209 2.244 . S
O197 Co196 2.216 . S
O197 C204 1.247 . S
O198 Co196 2.091 1_655 S
O198 C204 1.261 1_655 S
C199 O208 1.247 . S
C199 O209 1.272 . S
O200 Co196 2.004 . S
O200 C205 1.259 . S
Co201 O202 2.061 . S
Co201 O207 2.052 . S
Co201 O209 2.135 . S
O202 Co201 2.061 . S
O202 C205 1.235 . S
C203 O206 1.238 . S
C203 O207 1.241 . S
C204 O197 1.247 . S
C204 O198 1.261 1_455 S
C205 O200 1.259 . S
C205 O202 1.235 . S
O206 Co196 2.021 . S
O206 C203 1.238 . S
O207 Co201 2.052 . S
O207 C203 1.241 . S
O208 Co196 2.137 . S
O208 C199 1.247 . S
O209 Co196 2.244 . S
O209 C199 1.272 . S
O209 Co201 2.135 . S
Co210 O211 2.216 . S
Co210 O212 2.091 1_545 S
Co210 O214 2.004 . S
Co210 O220 2.021 . S
Co210 O222 2.137 . S
Co210 O223 2.244 . S
O211 Co210 2.216 . S
O211 C218 1.247 . S
O212 Co210 2.091 1_565 S
O212 C218 1.261 1_565 S
C213 O222 1.247 . S
C213 O223 1.272 . S
O214 Co210 2.004 . S
O214 C219 1.259 . S
Co215 O216 2.061 . S
Co215 O221 2.052 . S
Co215 O223 2.135 . S
O216 Co215 2.061 . S
O216 C219 1.235 . S
C217 O220 1.238 . S
C217 O221 1.241 . S
C218 O211 1.247 . S
C218 O212 1.261 1_545 S
C219 O214 1.259 . S
C219 O216 1.235 . S
O220 Co210 2.021 . S
O220 C217 1.238 . S
O221 Co215 2.052 . S
O221 C217 1.241 . S
O222 Co210 2.137 . S
O222 C213 1.247 . S
O223 Co210 2.244 . S
O223 C213 1.272 . S
O223 Co215 2.135 . S
Co224 O225 2.216 . S
Co224 O226 2.091 . S
Co224 O228 2.004 . S
Co224 O234 2.021 . S
Co224 O236 2.137 . S
Co224 O237 2.244 . S
O225 Co224 2.216 . S
O225 C232 1.247 . S
O226 Co224 2.091 . S
O226 C232 1.261 . S
C227 O236 1.247 . S
C227 O237 1.272 . S
O228 Co224 2.004 . S
O228 C233 1.259 . S
Co229 O230 2.061 . S
Co229 O235 2.052 . S
Co229 O237 2.135 . S
O230 Co229 2.061 . S
O230 C233 1.235 . S
C231 O234 1.238 . S
C231 O235 1.241 . S
C232 O225 1.247 . S
C232 O226 1.261 . S
C233 O228 1.259 . S
C233 O230 1.235 . S
O234 Co224 2.021 . S
O234 C231 1.238 . S
O235 Co229 2.052 . S
O235 C231 1.241 . S
O236 Co224 2.137 . S
O236 C227 1.247 . S
O237 Co224 2.244 . S
O237 C227 1.272 . S
O237 Co229 2.135 . S
Co238 O239 2.216 . S
Co238 O240 2.091 1_655 S
Co238 O242 2.004 . S
Co238 O248 2.021 . S
Co238 O250 2.137 . S
Co238 O251 2.244 . S
O239 Co238 2.216 . S
O239 C246 1.247 . S
O240 Co238 2.091 1_455 S
O240 C246 1.261 1_455 S
C241 O250 1.247 . S
C241 O251 1.272 . S
O242 Co238 2.004 . S
O242 C247 1.259 . S
Co243 O244 2.061 . S
Co243 O249 2.052 . S
Co243 O251 2.135 . S
O244 Co243 2.061 . S
O244 C247 1.235 . S
C245 O248 1.238 . S
C245 O249 1.241 . S
C246 O239 1.247 . S
C246 O240 1.261 1_655 S
C247 O242 1.259 . S
C247 O244 1.235 . S
O248 Co238 2.021 . S
O248 C245 1.238 . S
O249 Co243 2.052 . S
O249 C245 1.241 . S
O250 Co238 2.137 . S
O250 C241 1.247 . S
O251 Co238 2.244 . S
O251 C241 1.272 . S
O251 Co243 2.135 . S
Co252 O253 2.216 . S
Co252 O254 2.091 1_455 S
Co252 O256 2.004 . S
Co252 O262 2.021 . S
Co252 O264 2.137 . S
Co252 O265 2.244 . S
O253 Co252 2.216 . S
O253 C260 1.247 . S
O254 Co252 2.091 1_655 S
O254 C260 1.261 1_655 S
C255 O264 1.247 . S
C255 O265 1.272 . S
O256 Co252 2.004 . S
O256 C261 1.259 . S
Co257 O258 2.061 . S
Co257 O263 2.052 . S
Co257 O265 2.135 . S
O258 Co257 2.061 . S
O258 C261 1.235 . S
C259 O262 1.238 . S
C259 O263 1.241 . S
C260 O253 1.247 . S
C260 O254 1.261 1_455 S
C261 O256 1.259 . S
C261 O258 1.235 . S
O262 Co252 2.021 . S
O262 C259 1.238 . S
O263 Co257 2.052 . S
O263 C259 1.241 . S
O264 Co252 2.137 . S
O264 C255 1.247 . S
O265 Co252 2.244 . S
O265 C255 1.272 . S
O265 Co257 2.135 . S
Co266 O267 2.216 . S
Co266 O268 2.091 1_545 S
Co266 O270 2.004 . S
Co266 O276 2.021 . S
Co266 O278 2.137 . S
Co266 O279 2.244 . S
O267 Co266 2.216 . S
O267 C274 1.247 . S
O268 Co266 2.091 1_565 S
O268 C274 1.261 1_565 S
C269 O278 1.247 . S
C269 O279 1.272 . S
O270 Co266 2.004 . S
O270 C275 1.259 . S
Co271 O272 2.061 . S
Co271 O277 2.052 . S
Co271 O279 2.135 . S
O272 Co271 2.061 . S
O272 C275 1.235 . S
C273 O276 1.238 . S
C273 O277 1.241 . S
C274 O267 1.247 . S
C274 O268 1.261 1_545 S
C275 O270 1.259 . S
C275 O272 1.235 . S
O276 Co266 2.021 . S
O276 C273 1.238 . S
O277 Co271 2.052 . S
O277 C273 1.241 . S
O278 Co266 2.137 . S
O278 C269 1.247 . S
O279 Co266 2.244 . S
O279 C269 1.272 . S
O279 Co271 2.135 . S
Co280 O281 2.216 . S
Co280 O282 2.091 . S
Co280 O284 2.004 . S
Co280 O290 2.021 . S
Co280 O292 2.137 . S
Co280 O293 2.244 . S
O281 Co280 2.216 . S
O281 C288 1.247 . S
O282 Co280 2.091 . S
O282 C288 1.261 . S
C283 O292 1.247 . S
C283 O293 1.272 . S
O284 Co280 2.004 . S
O284 C289 1.259 . S
Co285 O286 2.061 . S
Co285 O291 2.052 . S
Co285 O293 2.135 . S
O286 Co285 2.061 . S
O286 C289 1.235 . S
C287 O290 1.238 . S
C287 O291 1.241 . S
C288 O281 1.247 . S
C288 O282 1.261 . S
C289 O284 1.259 . S
C289 O286 1.235 . S
O290 Co280 2.021 . S
O290 C287 1.238 . S
O291 Co285 2.052 . S
O291 C287 1.241 . S
O292 Co280 2.137 . S
O292 C283 1.247 . S
O293 Co280 2.244 . S
O293 C283 1.272 . S
O293 Co285 2.135 . S
Co294 O295 2.216 . S
Co294 O296 2.091 1_655 S
Co294 O298 2.004 . S
Co294 O304 2.021 . S
Co294 O306 2.137 . S
Co294 O307 2.244 . S
O295 Co294 2.216 . S
O295 C302 1.247 . S
O296 Co294 2.091 1_455 S
O296 C302 1.261 1_455 S
C297 O306 1.247 . S
C297 O307 1.272 . S
O298 Co294 2.004 . S
O298 C303 1.259 . S
Co299 O300 2.061 . S
Co299 O305 2.052 . S
Co299 O307 2.135 . S
O300 Co299 2.061 . S
O300 C303 1.235 . S
C301 O304 1.238 . S
C301 O305 1.241 . S
C302 O295 1.247 . S
C302 O296 1.261 1_655 S
C303 O298 1.259 . S
C303 O300 1.235 . S
O304 Co294 2.021 . S
O304 C301 1.238 . S
O305 Co299 2.052 . S
O305 C301 1.241 . S
O306 Co294 2.137 . S
O306 C297 1.247 . S
O307 Co294 2.244 . S
O307 C297 1.272 . S
O307 Co299 2.135 . S
Co308 O309 2.216 . S
Co308 O310 2.091 1_565 S
Co308 O312 2.004 . S
Co308 O318 2.021 . S
Co308 O320 2.137 . S
Co308 O321 2.244 . S
O309 Co308 2.216 . S
O309 C316 1.247 . S
O310 Co308 2.091 1_545 S
O310 C316 1.261 1_545 S
C311 O320 1.247 . S
C311 O321 1.272 . S
O312 Co308 2.004 . S
O312 C317 1.259 . S
Co313 O314 2.061 . S
Co313 O319 2.052 . S
Co313 O321 2.135 . S
O314 Co313 2.061 . S
O314 C317 1.235 . S
C315 O318 1.238 . S
C315 O319 1.241 . S
C316 O309 1.247 . S
C316 O310 1.261 1_565 S
C317 O312 1.259 . S
C317 O314 1.235 . S
O318 Co308 2.021 . S
O318 C315 1.238 . S
O319 Co313 2.052 . S
O319 C315 1.241 . S
O320 Co308 2.137 . S
O320 C311 1.247 . S
O321 Co308 2.244 . S
O321 C311 1.272 . S
O321 Co313 2.135 . S
Co322 O323 2.216 . S
Co322 O324 2.091 . S
Co322 O326 2.004 . S
Co322 O332 2.021 . S
Co322 O334 2.137 . S
Co322 O335 2.244 . S
O323 Co322 2.216 . S
O323 C330 1.247 . S
O324 Co322 2.091 . S
O324 C330 1.261 . S
C325 O334 1.247 . S
C325 O335 1.272 . S
O326 Co322 2.004 . S
O326 C331 1.259 . S
Co327 O328 2.061 . S
Co327 O333 2.052 . S
Co327 O335 2.135 . S
O328 Co327 2.061 . S
O328 C331 1.235 . S
C329 O332 1.238 . S
C329 O333 1.241 . S
C330 O323 1.247 . S
C330 O324 1.261 . S
C331 O326 1.259 . S
C331 O328 1.235 . S
O332 Co322 2.021 . S
O332 C329 1.238 . S
O333 Co327 2.052 . S
O333 C329 1.241 . S
O334 Co322 2.137 . S
O334 C325 1.247 . S
O335 Co322 2.244 . S
O335 C325 1.272 . S
O335 Co327 2.135 . S
C336 C337 1.363 . S
C336 C342 1.379 . S
C336 N344 1.356 1_545 S
C337 C336 1.363 . S
C337 C343 1.363 . S
C338 C339 1.363 . S
C338 C343 1.379 . S
C338 N345 1.356 . S
C339 C338 1.363 . S
C339 C342 1.363 . S
N340 C342 1.356 1_565 S
N340 H352 0.984 . S
N340 H353 0.985 . S
N341 C343 1.356 . S
N341 H346 0.984 . S
N341 H347 0.985 . S
C342 C336 1.379 . S
C342 C339 1.363 . S
C342 N340 1.356 1_545 S
C343 C337 1.363 . S
C343 C338 1.379 . S
C343 N341 1.356 . S
N344 C336 1.356 1_565 S
N344 H350 0.984 . S
N344 H351 0.984 . S
N345 C338 1.356 . S
N345 H348 0.984 . S
N345 H349 0.985 . S
H346 N341 0.984 . S
H347 N341 0.985 . S
H348 N345 0.984 . S
H349 N345 0.985 . S
H350 N344 0.984 . S
H351 N344 0.984 . S
H352 N340 0.984 . S
H353 N340 0.985 . S
C354 C355 1.363 . S
C354 C360 1.379 . S
C354 N362 1.356 . S
C355 C354 1.363 . S
C355 C361 1.363 . S
C356 C357 1.363 . S
C356 C361 1.379 . S
C356 N363 1.356 . S
C357 C356 1.363 . S
C357 C360 1.363 . S
N358 C360 1.356 . S
N358 H370 0.984 . S
N358 H371 0.985 . S
N359 C361 1.356 . S
N359 H364 0.984 . S
N359 H365 0.985 . S
C360 C354 1.379 . S
C360 C357 1.363 . S
C360 N358 1.356 . S
C361 C355 1.363 . S
C361 C356 1.379 . S
C361 N359 1.356 . S
N362 C354 1.356 . S
N362 H368 0.984 . S
N362 H369 0.984 . S
N363 C356 1.356 . S
N363 H366 0.984 . S
N363 H367 0.985 . S
H364 N359 0.984 . S
H365 N359 0.985 . S
H366 N363 0.984 . S
H367 N363 0.985 . S
H368 N362 0.984 . S
H369 N362 0.984 . S
H370 N358 0.984 . S
H371 N358 0.985 . S
C372 C373 1.363 . S
C372 C378 1.379 . S
C372 N380 1.356 1_655 S
C373 C372 1.363 . S
C373 C379 1.363 . S
C374 C375 1.363 . S
C374 C379 1.379 . S
C374 N381 1.356 . S
C375 C374 1.363 . S
C375 C378 1.363 . S
N376 C378 1.356 1_455 S
N376 H388 0.984 . S
N376 H389 0.985 . S
N377 C379 1.356 . S
N377 H382 0.984 . S
N377 H383 0.985 . S
C378 C372 1.379 . S
C378 C375 1.363 . S
C378 N376 1.356 1_655 S
C379 C373 1.363 . S
C379 C374 1.379 . S
C379 N377 1.356 . S
N380 C372 1.356 1_455 S
N380 H386 0.984 . S
N380 H387 0.984 . S
N381 C374 1.356 . S
N381 H384 0.984 . S
N381 H385 0.985 . S
H382 N377 0.984 . S
H383 N377 0.985 . S
H384 N381 0.984 . S
H385 N381 0.985 . S
H386 N380 0.984 . S
H387 N380 0.984 . S
H388 N376 0.984 . S
H389 N376 0.985 . S
C390 C391 1.363 . S
C390 C396 1.379 . S
C390 N398 1.356 1_565 S
C391 C390 1.363 . S
C391 C397 1.363 . S
C392 C393 1.363 . S
C392 C397 1.379 . S
C392 N399 1.356 . S
C393 C392 1.363 . S
C393 C396 1.363 . S
N394 C396 1.356 1_545 S
N394 H406 0.984 . S
N394 H407 0.985 . S
N395 C397 1.356 . S
N395 H400 0.984 . S
N395 H401 0.985 . S
C396 C390 1.379 . S
C396 C393 1.363 . S
C396 N394 1.356 1_565 S
C397 C391 1.363 . S
C397 C392 1.379 . S
C397 N395 1.356 . S
N398 C390 1.356 1_545 S
N398 H404 0.984 . S
N398 H405 0.984 . S
N399 C392 1.356 . S
N399 H402 0.984 . S
N399 H403 0.985 . S
H400 N395 0.984 . S
H401 N395 0.985 . S
H402 N399 0.984 . S
H403 N399 0.985 . S
H404 N398 0.984 . S
H405 N398 0.984 . S
H406 N394 0.984 . S
H407 N394 0.985 . S
C408 C409 1.363 . S
C408 C414 1.379 . S
C408 N416 1.356 . S
C409 C408 1.363 . S
C409 C415 1.363 . S
C410 C411 1.363 . S
C410 C415 1.379 . S
C410 N417 1.356 . S
C411 C410 1.363 . S
C411 C414 1.363 . S
N412 C414 1.356 . S
N412 H424 0.984 . S
N412 H425 0.985 . S
N413 C415 1.356 . S
N413 H418 0.984 . S
N413 H419 0.985 . S
C414 C408 1.379 . S
C414 C411 1.363 . S
C414 N412 1.356 . S
C415 C409 1.363 . S
C415 C410 1.379 . S
C415 N413 1.356 . S
N416 C408 1.356 . S
N416 H422 0.984 . S
N416 H423 0.984 . S
N417 C410 1.356 . S
N417 H420 0.984 . S
N417 H421 0.985 . S
H418 N413 0.984 . S
H419 N413 0.985 . S
H420 N417 0.984 . S
H421 N417 0.985 . S
H422 N416 0.984 . S
H423 N416 0.984 . S
H424 N412 0.984 . S
H425 N412 0.985 . S
C426 C427 1.363 . S
C426 C432 1.379 . S
C426 N434 1.356 1_455 S
C427 C426 1.363 . S
C427 C433 1.363 . S
C428 C429 1.363 . S
C428 C433 1.379 . S
C428 N435 1.356 . S
C429 C428 1.363 . S
C429 C432 1.363 . S
N430 C432 1.356 1_655 S
N430 H442 0.984 . S
N430 H443 0.985 . S
N431 C433 1.356 . S
N431 H436 0.984 . S
N431 H437 0.985 . S
C432 C426 1.379 . S
C432 C429 1.363 . S
C432 N430 1.356 1_455 S
C433 C427 1.363 . S
C433 C428 1.379 . S
C433 N431 1.356 . S
N434 C426 1.356 1_655 S
N434 H440 0.984 . S
N434 H441 0.984 . S
N435 C428 1.356 . S
N435 H438 0.984 . S
N435 H439 0.985 . S
H436 N431 0.984 . S
H437 N431 0.985 . S
H438 N435 0.984 . S
H439 N435 0.985 . S
H440 N434 0.984 . S
H441 N434 0.984 . S
H442 N430 0.984 . S
H443 N430 0.985 . S
C444 C445 1.363 . S
C444 C450 1.379 . S
C444 N452 1.356 1_655 S
C445 C444 1.363 . S
C445 C451 1.363 . S
C446 C447 1.363 . S
C446 C451 1.379 . S
C446 N453 1.356 . S
C447 C446 1.363 . S
C447 C450 1.363 . S
N448 C450 1.356 1_455 S
N448 H460 0.984 . S
N448 H461 0.985 . S
N449 C451 1.356 . S
N449 H454 0.984 . S
N449 H455 0.985 . S
C450 C444 1.379 . S
C450 C447 1.363 . S
C450 N448 1.356 1_655 S
C451 C445 1.363 . S
C451 C446 1.379 . S
C451 N449 1.356 . S
N452 C444 1.356 1_455 S
N452 H458 0.984 . S
N452 H459 0.984 . S
N453 C446 1.356 . S
N453 H456 0.984 . S
N453 H457 0.985 . S
H454 N449 0.984 . S
H455 N449 0.985 . S
H456 N453 0.984 . S
H457 N453 0.985 . S
H458 N452 0.984 . S
H459 N452 0.984 . S
H460 N448 0.984 . S
H461 N448 0.985 . S
C462 C463 1.363 . S
C462 C468 1.379 . S
C462 N470 1.356 1_565 S
C463 C462 1.363 . S
C463 C469 1.363 . S
C464 C465 1.363 . S
C464 C469 1.379 . S
C464 N471 1.356 . S
C465 C464 1.363 . S
C465 C468 1.363 . S
N466 C468 1.356 1_545 S
N466 H478 0.984 . S
N466 H479 0.985 . S
N467 C469 1.356 . S
N467 H472 0.984 . S
N467 H473 0.985 . S
C468 C462 1.379 . S
C468 C465 1.363 . S
C468 N466 1.356 1_565 S
C469 C463 1.363 . S
C469 C464 1.379 . S
C469 N467 1.356 . S
N470 C462 1.356 1_545 S
N470 H476 0.984 . S
N470 H477 0.984 . S
N471 C464 1.356 . S
N471 H474 0.984 . S
N471 H475 0.985 . S
H472 N467 0.984 . S
H473 N467 0.985 . S
H474 N471 0.984 . S
H475 N471 0.985 . S
H476 N470 0.984 . S
H477 N470 0.984 . S
H478 N466 0.984 . S
H479 N466 0.985 . S
C480 C481 1.363 . S
C480 C486 1.379 . S
C480 N488 1.356 . S
C481 C480 1.363 . S
C481 C487 1.363 . S
C482 C483 1.363 . S
C482 C487 1.379 . S
C482 N489 1.356 . S
C483 C482 1.363 . S
C483 C486 1.363 . S
N484 C486 1.356 . S
N484 H496 0.984 . S
N484 H497 0.985 . S
N485 C487 1.356 . S
N485 H490 0.984 . S
N485 H491 0.985 . S
C486 C480 1.379 . S
C486 C483 1.363 . S
C486 N484 1.356 . S
C487 C481 1.363 . S
C487 C482 1.379 . S
C487 N485 1.356 . S
N488 C480 1.356 . S
N488 H494 0.984 . S
N488 H495 0.984 . S
N489 C482 1.356 . S
N489 H492 0.984 . S
N489 H493 0.985 . S
H490 N485 0.984 . S
H491 N485 0.985 . S
H492 N489 0.984 . S
H493 N489 0.985 . S
H494 N488 0.984 . S
H495 N488 0.984 . S
H496 N484 0.984 . S
H497 N484 0.985 . S
C498 C499 1.363 . S
C498 C504 1.379 . S
C498 N506 1.356 . S
C499 C498 1.363 . S
C499 C505 1.363 . S
C500 C501 1.363 . S
C500 C505 1.379 . S
C500 N507 1.356 1_455 S
C501 C500 1.363 . S
C501 C504 1.363 . S
N502 C504 1.356 . S
N502 H514 0.984 . S
N502 H515 0.985 . S
N503 C505 1.356 1_655 S
N503 H508 0.984 . S
N503 H509 0.985 . S
C504 C498 1.379 . S
C504 C501 1.363 . S
C504 N502 1.356 . S
C505 C499 1.363 . S
C505 C500 1.379 . S
C505 N503 1.356 1_455 S
N506 C498 1.356 . S
N506 H512 0.984 . S
N506 H513 0.984 . S
N507 C500 1.356 1_655 S
N507 H510 0.984 . S
N507 H511 0.985 . S
H508 N503 0.984 . S
H509 N503 0.985 . S
H510 N507 0.984 . S
H511 N507 0.985 . S
H512 N506 0.984 . S
H513 N506 0.984 . S
H514 N502 0.984 . S
H515 N502 0.985 . S
C516 C517 1.363 . S
C516 C522 1.379 . S
C516 N524 1.356 . S
C517 C516 1.363 . S
C517 C523 1.363 . S
C518 C519 1.363 . S
C518 C523 1.379 . S
C518 N525 1.356 1_545 S
C519 C518 1.363 . S
C519 C522 1.363 . S
N520 C522 1.356 . S
N520 H532 0.984 . S
N520 H533 0.985 . S
N521 C523 1.356 1_565 S
N521 H526 0.984 . S
N521 H527 0.985 . S
C522 C516 1.379 . S
C522 C519 1.363 . S
C522 N520 1.356 . S
C523 C517 1.363 . S
C523 C518 1.379 . S
C523 N521 1.356 1_545 S
N524 C516 1.356 . S
N524 H530 0.984 . S
N524 H531 0.984 . S
N525 C518 1.356 1_565 S
N525 H528 0.984 . S
N525 H529 0.985 . S
H526 N521 0.984 . S
H527 N521 0.985 . S
H528 N525 0.984 . S
H529 N525 0.985 . S
H530 N524 0.984 . S
H531 N524 0.984 . S
H532 N520 0.984 . S
H533 N520 0.985 . S
C534 C535 1.363 . S
C534 C540 1.379 . S
C534 N542 1.356 . S
C535 C534 1.363 . S
C535 C541 1.363 . S
C536 C537 1.363 . S
C536 C541 1.379 . S
C536 N543 1.356 . S
C537 C536 1.363 . S
C537 C540 1.363 . S
N538 C540 1.356 . S
N538 H550 0.984 . S
N538 H551 0.985 . S
N539 C541 1.356 . S
N539 H544 0.984 . S
N539 H545 0.985 . S
C540 C534 1.379 . S
C540 C537 1.363 . S
C540 N538 1.356 . S
C541 C535 1.363 . S
C541 C536 1.379 . S
C541 N539 1.356 . S
N542 C534 1.356 . S
N542 H548 0.984 . S
N542 H549 0.984 . S
N543 C536 1.356 . S
N543 H546 0.984 . S
N543 H547 0.985 . S
H544 N539 0.984 . S
H545 N539 0.985 . S
H546 N543 0.984 . S
H547 N543 0.985 . S
H548 N542 0.984 . S
H549 N542 0.984 . S
H550 N538 0.984 . S
H551 N538 0.985 . S
C552 C553 1.363 . S
C552 C558 1.379 . S
C552 N560 1.356 . S
C553 C552 1.363 . S
C553 C559 1.363 . S
C554 C555 1.363 . S
C554 C559 1.379 . S
C554 N561 1.356 . S
C555 C554 1.363 . S
C555 C558 1.363 . S
N556 C558 1.356 . S
N556 H568 0.984 . S
N556 H569 0.985 . S
N557 C559 1.356 . S
N557 H562 0.984 . S
N557 H563 0.985 . S
C558 C552 1.379 . S
C558 C555 1.363 . S
C558 N556 1.356 . S
C559 C553 1.363 . S
C559 C554 1.379 . S
C559 N557 1.356 . S
N560 C552 1.356 . S
N560 H566 0.984 . S
N560 H567 0.984 . S
N561 C554 1.356 . S
N561 H564 0.984 . S
N561 H565 0.985 . S
H562 N557 0.984 . S
H563 N557 0.985 . S
H564 N561 0.984 . S
H565 N561 0.985 . S
H566 N560 0.984 . S
H567 N560 0.984 . S
H568 N556 0.984 . S
H569 N556 0.985 . S
C570 C571 1.363 . S
C570 C576 1.379 . S
C570 N578 1.356 . S
C571 C570 1.363 . S
C571 C577 1.363 . S
C572 C573 1.363 . S
C572 C577 1.379 . S
C572 N579 1.356 . S
C573 C572 1.363 . S
C573 C576 1.363 . S
N574 C576 1.356 . S
N574 H586 0.984 . S
N574 H587 0.985 . S
N575 C577 1.356 . S
N575 H580 0.984 . S
N575 H581 0.985 . S
C576 C570 1.379 . S
C576 C573 1.363 . S
C576 N574 1.356 . S
C577 C571 1.363 . S
C577 C572 1.379 . S
C577 N575 1.356 . S
N578 C570 1.356 . S
N578 H584 0.984 . S
N578 H585 0.984 . S
N579 C572 1.356 . S
N579 H582 0.984 . S
N579 H583 0.985 . S
H580 N575 0.984 . S
H581 N575 0.985 . S
H582 N579 0.984 . S
H583 N579 0.985 . S
H584 N578 0.984 . S
H585 N578 0.984 . S
H586 N574 0.984 . S
H587 N574 0.985 . S
C588 C589 1.363 . S
C588 C594 1.379 . S
C588 N596 1.356 . S
C589 C588 1.363 . S
C589 C595 1.363 . S
C590 C591 1.363 . S
C590 C595 1.379 . S
C590 N597 1.356 . S
C591 C590 1.363 . S
C591 C594 1.363 . S
N592 C594 1.356 . S
N592 H604 0.984 . S
N592 H605 0.985 . S
N593 C595 1.356 . S
N593 H598 0.984 . S
N593 H599 0.985 . S
C594 C588 1.379 . S
C594 C591 1.363 . S
C594 N592 1.356 . S
C595 C589 1.363 . S
C595 C590 1.379 . S
C595 N593 1.356 . S
N596 C588 1.356 . S
N596 H602 0.984 . S
N596 H603 0.984 . S
N597 C590 1.356 . S
N597 H600 0.984 . S
N597 H601 0.985 . S
H598 N593 0.984 . S
H599 N593 0.985 . S
H600 N597 0.984 . S
H601 N597 0.985 . S
H602 N596 0.984 . S
H603 N596 0.984 . S
H604 N592 0.984 . S
H605 N592 0.985 . S
C606 C607 1.363 . S
C606 C612 1.379 . S
C606 N614 1.356 . S
C607 C606 1.363 . S
C607 C613 1.363 . S
C608 C609 1.363 . S
C608 C613 1.379 . S
C608 N615 1.356 . S
C609 C608 1.363 . S
C609 C612 1.363 . S
N610 C612 1.356 . S
N610 H622 0.984 . S
N610 H623 0.985 . S
N611 C613 1.356 . S
N611 H616 0.984 . S
N611 H617 0.985 . S
C612 C606 1.379 . S
C612 C609 1.363 . S
C612 N610 1.356 . S
C613 C607 1.363 . S
C613 C608 1.379 . S
C613 N611 1.356 . S
N614 C606 1.356 . S
N614 H620 0.984 . S
N614 H621 0.984 . S
N615 C608 1.356 . S
N615 H618 0.984 . S
N615 H619 0.985 . S
H616 N611 0.984 . S
H617 N611 0.985 . S
H618 N615 0.984 . S
H619 N615 0.985 . S
H620 N614 0.984 . S
H621 N614 0.984 . S
H622 N610 0.984 . S
H623 N610 0.985 . S
C624 C625 1.363 . S
C624 C630 1.379 . S
C624 N632 1.356 . S
C625 C624 1.363 . S
C625 C631 1.363 . S
C626 C627 1.363 . S
C626 C631 1.379 . S
C626 N633 1.356 . S
C627 C626 1.363 . S
C627 C630 1.363 . S
N628 C630 1.356 . S
N628 H640 0.984 . S
N628 H641 0.985 . S
N629 C631 1.356 . S
N629 H634 0.984 . S
N629 H635 0.985 . S
C630 C624 1.379 . S
C630 C627 1.363 . S
C630 N628 1.356 . S
C631 C625 1.363 . S
C631 C626 1.379 . S
C631 N629 1.356 . S
N632 C624 1.356 . S
N632 H638 0.984 . S
N632 H639 0.984 . S
N633 C626 1.356 . S
N633 H636 0.984 . S
N633 H637 0.985 . S
H634 N629 0.984 . S
H635 N629 0.985 . S
H636 N633 0.984 . S
H637 N633 0.985 . S
H638 N632 0.984 . S
H639 N632 0.984 . S
H640 N628 0.984 . S
H641 N628 0.985 . S
C642 C643 1.363 . S
C642 C648 1.379 . S
C642 N650 1.356 . S
C643 C642 1.363 . S
C643 C649 1.363 . S
C644 C645 1.363 . S
C644 C649 1.379 . S
C644 N651 1.356 . S
C645 C644 1.363 . S
C645 C648 1.363 . S
N646 C648 1.356 . S
N646 H658 0.984 . S
N646 H659 0.985 . S
N647 C649 1.356 . S
N647 H652 0.984 . S
N647 H653 0.985 . S
C648 C642 1.379 . S
C648 C645 1.363 . S
C648 N646 1.356 . S
C649 C643 1.363 . S
C649 C644 1.379 . S
C649 N647 1.356 . S
N650 C642 1.356 . S
N650 H656 0.984 . S
N650 H657 0.984 . S
N651 C644 1.356 . S
N651 H654 0.984 . S
N651 H655 0.985 . S
H652 N647 0.984 . S
H653 N647 0.985 . S
H654 N651 0.984 . S
H655 N651 0.985 . S
H656 N650 0.984 . S
H657 N650 0.984 . S
H658 N646 0.984 . S
H659 N646 0.985 . S
C660 C661 1.363 . S
C660 C666 1.379 . S
C660 N668 1.356 . S
C661 C660 1.363 . S
C661 C667 1.363 . S
C662 C663 1.363 . S
C662 C667 1.379 . S
C662 N669 1.356 . S
C663 C662 1.363 . S
C663 C666 1.363 . S
N664 C666 1.356 . S
N664 H676 0.984 . S
N664 H677 0.985 . S
N665 C667 1.356 . S
N665 H670 0.984 . S
N665 H671 0.985 . S
C666 C660 1.379 . S
C666 C663 1.363 . S
C666 N664 1.356 . S
C667 C661 1.363 . S
C667 C662 1.379 . S
C667 N665 1.356 . S
N668 C660 1.356 . S
N668 H674 0.984 . S
N668 H675 0.984 . S
N669 C662 1.356 . S
N669 H672 0.984 . S
N669 H673 0.985 . S
H670 N665 0.984 . S
H671 N665 0.985 . S
H672 N669 0.984 . S
H673 N669 0.985 . S
H674 N668 0.984 . S
H675 N668 0.984 . S
H676 N664 0.984 . S
H677 N664 0.985 . S
C678 C679 1.363 . S
C678 C684 1.379 . S
C678 N686 1.356 . S
C679 C678 1.363 . S
C679 C685 1.363 . S
C680 C681 1.363 . S
C680 C685 1.379 . S
C680 N687 1.356 . S
C681 C680 1.363 . S
C681 C684 1.363 . S
N682 C684 1.356 . S
N682 H694 0.984 . S
N682 H695 0.985 . S
N683 C685 1.356 . S
N683 H688 0.984 . S
N683 H689 0.985 . S
C684 C678 1.379 . S
C684 C681 1.363 . S
C684 N682 1.356 . S
C685 C679 1.363 . S
C685 C680 1.379 . S
C685 N683 1.356 . S
N686 C678 1.356 . S
N686 H692 0.984 . S
N686 H693 0.984 . S
N687 C680 1.356 . S
N687 H690 0.984 . S
N687 H691 0.985 . S
H688 N683 0.984 . S
H689 N683 0.985 . S
H690 N687 0.984 . S
H691 N687 0.985 . S
H692 N686 0.984 . S
H693 N686 0.984 . S
H694 N682 0.984 . S
H695 N682 0.985 . S
C696 C697 1.363 . S
C696 C702 1.379 . S
C696 N704 1.356 . S
C697 C696 1.363 . S
C697 C703 1.363 . S
C698 C699 1.363 . S
C698 C703 1.379 . S
C698 N705 1.356 . S
C699 C698 1.363 . S
C699 C702 1.363 . S
N700 C702 1.356 . S
N700 H712 0.984 . S
N700 H713 0.985 . S
N701 C703 1.356 . S
N701 H706 0.984 . S
N701 H707 0.985 . S
C702 C696 1.379 . S
C702 C699 1.363 . S
C702 N700 1.356 . S
C703 C697 1.363 . S
C703 C698 1.379 . S
C703 N701 1.356 . S
N704 C696 1.356 . S
N704 H710 0.984 . S
N704 H711 0.984 . S
N705 C698 1.356 . S
N705 H708 0.984 . S
N705 H709 0.985 . S
H706 N701 0.984 . S
H707 N701 0.985 . S
H708 N705 0.984 . S
H709 N705 0.985 . S
H710 N704 0.984 . S
H711 N704 0.984 . S
H712 N700 0.984 . S
H713 N700 0.985 . S
C714 C715 1.363 . S
C714 C720 1.379 . S
C714 N722 1.356 . S
C715 C714 1.363 . S
C715 C721 1.363 . S
C716 C717 1.363 . S
C716 C721 1.379 . S
C716 N723 1.356 . S
C717 C716 1.363 . S
C717 C720 1.363 . S
N718 C720 1.356 . S
N718 H730 0.984 . S
N718 H731 0.985 . S
N719 C721 1.356 . S
N719 H724 0.984 . S
N719 H725 0.985 . S
C720 C714 1.379 . S
C720 C717 1.363 . S
C720 N718 1.356 . S
C721 C715 1.363 . S
C721 C716 1.379 . S
C721 N719 1.356 . S
N722 C714 1.356 . S
N722 H728 0.984 . S
N722 H729 0.984 . S
N723 C716 1.356 . S
N723 H726 0.984 . S
N723 H727 0.985 . S
H724 N719 0.984 . S
H725 N719 0.985 . S
H726 N723 0.984 . S
H727 N723 0.985 . S
H728 N722 0.984 . S
H729 N722 0.984 . S
H730 N718 0.984 . S
H731 N718 0.985 . S
C732 C733 1.363 . S
C732 C738 1.379 . S
C732 N740 1.356 . S
C733 C732 1.363 . S
C733 C739 1.363 . S
C734 C735 1.363 . S
C734 C739 1.379 . S
C734 N741 1.356 . S
C735 C734 1.363 . S
C735 C738 1.363 . S
N736 C738 1.356 . S
N736 H748 0.984 . S
N736 H749 0.985 . S
N737 C739 1.356 . S
N737 H742 0.984 . S
N737 H743 0.985 . S
C738 C732 1.379 . S
C738 C735 1.363 . S
C738 N736 1.356 . S
C739 C733 1.363 . S
C739 C734 1.379 . S
C739 N737 1.356 . S
N740 C732 1.356 . S
N740 H746 0.984 . S
N740 H747 0.984 . S
N741 C734 1.356 . S
N741 H744 0.984 . S
N741 H745 0.985 . S
H742 N737 0.984 . S
H743 N737 0.985 . S
H744 N741 0.984 . S
H745 N741 0.985 . S
H746 N740 0.984 . S
H747 N740 0.984 . S
H748 N736 0.984 . S
H749 N736 0.985 . S
C750 C751 1.363 . S
C750 C756 1.379 . S
C750 N758 1.356 . S
C751 C750 1.363 . S
C751 C757 1.363 . S
C752 C753 1.363 . S
C752 C757 1.379 . S
C752 N759 1.356 . S
C753 C752 1.363 . S
C753 C756 1.363 . S
N754 C756 1.356 . S
N754 H766 0.984 . S
N754 H767 0.985 . S
N755 C757 1.356 . S
N755 H760 0.984 . S
N755 H761 0.985 . S
C756 C750 1.379 . S
C756 C753 1.363 . S
C756 N754 1.356 . S
C757 C751 1.363 . S
C757 C752 1.379 . S
C757 N755 1.356 . S
N758 C750 1.356 . S
N758 H764 0.984 . S
N758 H765 0.984 . S
N759 C752 1.356 . S
N759 H762 0.984 . S
N759 H763 0.985 . S
H760 N755 0.984 . S
H761 N755 0.985 . S
H762 N759 0.984 . S
H763 N759 0.985 . S
H764 N758 0.984 . S
H765 N758 0.984 . S
H766 N754 0.984 . S
H767 N754 0.985 . S
C768 C769 1.363 1_545 S
C768 C774 1.379 1_556 S
C768 N776 1.356 . S
C769 C768 1.363 1_565 S
C769 C775 1.363 . S
C770 C771 1.363 1_565 S
C770 C775 1.379 1_554 S
C770 N777 1.356 . S
C771 C770 1.363 1_545 S
C771 C774 1.363 . S
N772 C774 1.356 . S
N772 H784 0.984 . S
N772 H785 0.985 . S
N773 C775 1.356 . S
N773 H778 0.984 . S
N773 H779 0.985 . S
C774 C768 1.379 1_554 S
C774 C771 1.363 . S
C774 N772 1.356 . S
C775 C769 1.363 . S
C775 C770 1.379 1_556 S
C775 N773 1.356 . S
N776 C768 1.356 . S
N776 H782 0.984 . S
N776 H783 0.984 . S
N777 C770 1.356 . S
N777 H780 0.984 . S
N777 H781 0.985 . S
H778 N773 0.984 . S
H779 N773 0.985 . S
H780 N777 0.984 . S
H781 N777 0.985 . S
H782 N776 0.984 . S
H783 N776 0.984 . S
H784 N772 0.984 . S
H785 N772 0.985 . S
C786 C787 1.363 . S
C786 C792 1.379 . S
C786 N794 1.356 . S
C787 C786 1.363 . S
C787 C793 1.363 . S
C788 C789 1.363 . S
C788 C793 1.379 . S
C788 N795 1.356 . S
C789 C788 1.363 . S
C789 C792 1.363 . S
N790 C792 1.356 . S
N790 H802 0.984 . S
N790 H803 0.985 . S
N791 C793 1.356 . S
N791 H796 0.984 . S
N791 H797 0.985 . S
C792 C786 1.379 . S
C792 C789 1.363 . S
C792 N790 1.356 . S
C793 C787 1.363 . S
C793 C788 1.379 . S
C793 N791 1.356 . S
N794 C786 1.356 . S
N794 H800 0.984 . S
N794 H801 0.984 . S
N795 C788 1.356 . S
N795 H798 0.984 . S
N795 H799 0.985 . S
H796 N791 0.984 . S
H797 N791 0.985 . S
H798 N795 0.984 . S
H799 N795 0.985 . S
H800 N794 0.984 . S
H801 N794 0.984 . S
H802 N790 0.984 . S
H803 N790 0.985 . S
C804 C805 1.363 . S
C804 C810 1.379 1_556 S
C804 N812 1.356 . S
C805 C804 1.363 . S
C805 C811 1.363 1_455 S
C806 C807 1.363 . S
C806 C811 1.379 1_554 S
C806 N813 1.356 . S
C807 C806 1.363 . S
C807 C810 1.363 1_655 S
N808 C810 1.356 . S
N808 H820 0.984 . S
N808 H821 0.985 . S
N809 C811 1.356 . S
N809 H814 0.984 . S
N809 H815 0.985 . S
C810 C804 1.379 1_554 S
C810 C807 1.363 1_455 S
C810 N808 1.356 . S
C811 C805 1.363 1_655 S
C811 C806 1.379 1_556 S
C811 N809 1.356 . S
N812 C804 1.356 . S
N812 H818 0.984 . S
N812 H819 0.984 . S
N813 C806 1.356 . S
N813 H816 0.984 . S
N813 H817 0.985 . S
H814 N809 0.984 . S
H815 N809 0.985 . S
H816 N813 0.984 . S
H817 N813 0.985 . S
H818 N812 0.984 . S
H819 N812 0.984 . S
H820 N808 0.984 . S
H821 N808 0.985 . S
C822 C823 1.363 . S
C822 C828 1.379 . S
C822 N830 1.356 . S
C823 C822 1.363 . S
C823 C829 1.363 1_545 S
C824 C825 1.363 . S
C824 C829 1.379 . S
C824 N831 1.356 . S
C825 C824 1.363 . S
C825 C828 1.363 1_565 S
N826 C828 1.356 . S
N826 H838 0.984 . S
N826 H839 0.985 . S
N827 C829 1.356 . S
N827 H832 0.984 . S
N827 H833 0.985 . S
C828 C822 1.379 . S
C828 C825 1.363 1_545 S
C828 N826 1.356 . S
C829 C823 1.363 1_565 S
C829 C824 1.379 . S
C829 N827 1.356 . S
N830 C822 1.356 . S
N830 H836 0.984 . S
N830 H837 0.984 . S
N831 C824 1.356 . S
N831 H834 0.984 . S
N831 H835 0.985 . S
H832 N827 0.984 . S
H833 N827 0.985 . S
H834 N831 0.984 . S
H835 N831 0.985 . S
H836 N830 0.984 . S
H837 N830 0.984 . S
H838 N826 0.984 . S
H839 N826 0.985 . S
C840 C841 1.363 . S
C840 C846 1.379 1_554 S
C840 N848 1.356 . S
C841 C840 1.363 . S
C841 C847 1.363 . S
C842 C843 1.363 . S
C842 C847 1.379 1_556 S
C842 N849 1.356 . S
C843 C842 1.363 . S
C843 C846 1.363 . S
N844 C846 1.356 . S
N844 H856 0.984 . S
N844 H857 0.985 . S
N845 C847 1.356 . S
N845 H850 0.984 . S
N845 H851 0.985 . S
C846 C840 1.379 1_556 S
C846 C843 1.363 . S
C846 N844 1.356 . S
C847 C841 1.363 . S
C847 C842 1.379 1_554 S
C847 N845 1.356 . S
N848 C840 1.356 . S
N848 H854 0.984 . S
N848 H855 0.984 . S
N849 C842 1.356 . S
N849 H852 0.984 . S
N849 H853 0.985 . S
H850 N845 0.984 . S
H851 N845 0.985 . S
H852 N849 0.984 . S
H853 N849 0.985 . S
H854 N848 0.984 . S
H855 N848 0.984 . S
H856 N844 0.984 . S
H857 N844 0.985 . S
C858 C859 1.363 . S
C858 C864 1.379 . S
C858 N866 1.356 . S
C859 C858 1.363 . S
C859 C865 1.363 1_455 S
C860 C861 1.363 . S
C860 C865 1.379 . S
C860 N867 1.356 . S
C861 C860 1.363 . S
C861 C864 1.363 1_655 S
N862 C864 1.356 . S
N862 H874 0.984 . S
N862 H875 0.978 1_455 S
N863 C865 1.356 . S
N863 H868 0.978 1_655 S
N863 H869 0.985 . S
C864 C858 1.379 . S
C864 C861 1.363 1_455 S
C864 N862 1.356 . S
C865 C859 1.363 1_655 S
C865 C860 1.379 . S
C865 N863 1.356 . S
N866 C858 1.356 . S
N866 H872 0.984 . S
N866 H873 0.984 . S
N867 C860 1.356 . S
N867 H870 0.984 . S
N867 H871 0.985 . S
H868 N863 0.978 1_455 S
H869 N863 0.985 . S
H870 N867 0.984 . S
H871 N867 0.985 . S
H872 N866 0.984 . S
H873 N866 0.984 . S
H874 N862 0.984 . S
H875 N862 0.978 1_655 S
C876 C877 1.363 . S
C876 C882 1.379 1_556 S
C876 N884 1.356 . S
C877 C876 1.363 . S
C877 C883 1.363 1_565 S
C878 C879 1.363 . S
C878 C883 1.379 1_554 S
C878 N885 1.356 . S
C879 C878 1.363 . S
C879 C882 1.363 1_545 S
N880 C882 1.356 . S
N880 H892 0.984 . S
N880 H893 0.985 . S
N881 C883 1.356 . S
N881 H886 0.984 . S
N881 H887 0.985 . S
C882 C876 1.379 1_554 S
C882 C879 1.363 1_565 S
C882 N880 1.356 . S
C883 C877 1.363 1_545 S
C883 C878 1.379 1_556 S
C883 N881 1.356 . S
N884 C876 1.356 . S
N884 H890 0.984 . S
N884 H891 0.984 . S
N885 C878 1.356 . S
N885 H888 0.984 . S
N885 H889 0.985 . S
H886 N881 0.984 . S
H887 N881 0.985 . S
H888 N885 0.984 . S
H889 N885 0.985 . S
H890 N884 0.984 . S
H891 N884 0.984 . S
H892 N880 0.984 . S
H893 N880 0.985 . S
C894 C895 1.363 . S
C894 C900 1.379 . S
C894 N902 1.356 . S
C895 C894 1.363 . S
C895 C901 1.363 . S
C896 C897 1.363 . S
C896 C901 1.379 . S
C896 N903 1.356 . S
C897 C896 1.363 . S
C897 C900 1.363 . S
N898 C900 1.356 . S
N898 H910 0.984 . S
N898 H911 0.985 . S
N899 C901 1.356 . S
N899 H904 0.984 . S
N899 H905 0.985 . S
C900 C894 1.379 . S
C900 C897 1.363 . S
C900 N898 1.356 . S
C901 C895 1.363 . S
C901 C896 1.379 . S
C901 N899 1.356 . S
N902 C894 1.356 . S
N902 H908 0.984 . S
N902 H909 0.984 . S
N903 C896 1.356 . S
N903 H906 0.984 . S
N903 H907 0.985 . S
H904 N899 0.984 . S
H905 N899 0.985 . S
H906 N903 0.984 . S
H907 N903 0.985 . S
H908 N902 0.984 . S
H909 N902 0.984 . S
H910 N898 0.984 . S
H911 N898 0.985 . S
C912 C913 1.363 . S
C912 C918 1.379 1_554 S
C912 N920 1.356 . S
C913 C912 1.363 . S
C913 C919 1.363 1_655 S
C914 C915 1.363 . S
C914 C919 1.379 1_556 S
C914 N921 1.356 . S
C915 C914 1.363 . S
C915 C918 1.363 1_455 S
N916 C918 1.356 . S
N916 H928 0.984 . S
N916 H929 0.979 1_655 S
N917 C919 1.356 . S
N917 H922 0.979 1_455 S
N917 H923 0.985 . S
C918 C912 1.379 1_556 S
C918 C915 1.363 1_655 S
C918 N916 1.356 . S
C919 C913 1.363 1_455 S
C919 C914 1.379 1_554 S
C919 N917 1.356 . S
N920 C912 1.356 . S
N920 H926 0.984 . S
N920 H927 0.984 . S
N921 C914 1.356 . S
N921 H924 0.984 . S
N921 H925 0.985 . S
H922 N917 0.979 1_655 S
H923 N917 0.985 . S
H924 N921 0.984 . S
H925 N921 0.985 . S
H926 N920 0.984 . S
H927 N920 0.984 . S
H928 N916 0.984 . S
H929 N916 0.979 1_455 S
C930 C931 1.363 . S
C930 C936 1.379 . S
C930 N938 1.356 . S
C931 C930 1.363 . S
C931 C937 1.363 1_565 S
C932 C933 1.363 . S
C932 C937 1.379 . S
C932 N939 1.356 . S
C933 C932 1.363 . S
C933 C936 1.363 1_545 S
N934 C936 1.356 . S
N934 H946 0.984 . S
N934 H947 0.985 . S
N935 C937 1.356 . S
N935 H940 0.984 . S
N935 H941 0.985 . S
C936 C930 1.379 . S
C936 C933 1.363 1_565 S
C936 N934 1.356 . S
C937 C931 1.363 1_545 S
C937 C932 1.379 . S
C937 N935 1.356 . S
N938 C930 1.356 . S
N938 H944 0.984 . S
N938 H945 0.984 . S
N939 C932 1.356 . S
N939 H942 0.984 . S
N939 H943 0.985 . S
H940 N935 0.984 . S
H941 N935 0.985 . S
H942 N939 0.984 . S
H943 N939 0.985 . S
H944 N938 0.984 . S
H945 N938 0.984 . S
H946 N934 0.984 . S
H947 N934 0.985 . S
C948 C949 1.363 . S
C948 C954 1.379 1_554 S
C948 N956 1.356 . S
C949 C948 1.363 . S
C949 C955 1.363 . S
C950 C951 1.363 . S
C950 C955 1.379 1_556 S
C950 N957 1.356 . S
C951 C950 1.363 . S
C951 C954 1.363 . S
N952 C954 1.356 . S
N952 H964 0.984 . S
N952 H965 0.985 . S
N953 C955 1.356 . S
N953 H958 0.984 . S
N953 H959 0.985 . S
C954 C948 1.379 1_556 S
C954 C951 1.363 . S
C954 N952 1.356 . S
C955 C949 1.363 . S
C955 C950 1.379 1_554 S
C955 N953 1.356 . S
N956 C948 1.356 . S
N956 H962 0.984 . S
N956 H963 0.984 . S
N957 C950 1.356 . S
N957 H960 0.984 . S
N957 H961 0.985 . S
H958 N953 0.984 . S
H959 N953 0.985 . S
H960 N957 0.984 . S
H961 N957 0.985 . S
H962 N956 0.984 . S
H963 N956 0.984 . S
H964 N952 0.984 . S
H965 N952 0.985 . S
C966 C967 1.363 . S
C966 C972 1.379 . S
C966 N974 1.356 . S
C967 C966 1.363 . S
C967 C973 1.363 1_455 S
C968 C969 1.363 . S
C968 C973 1.379 . S
C968 N975 1.356 . S
C969 C968 1.363 . S
C969 C972 1.363 1_655 S
N970 C972 1.356 . S
N970 H982 0.984 . S
N970 H983 0.985 1_455 S
N971 C973 1.356 . S
N971 H976 0.984 1_655 S
N971 H977 0.985 . S
C972 C966 1.379 . S
C972 C969 1.363 1_455 S
C972 N970 1.356 . S
C973 C967 1.363 1_655 S
C973 C968 1.379 . S
C973 N971 1.356 . S
N974 C966 1.356 . S
N974 H980 0.984 . S
N974 H981 0.984 . S
N975 C968 1.356 . S
N975 H978 0.984 . S
N975 H979 0.985 . S
H976 N971 0.984 1_455 S
H977 N971 0.985 . S
H978 N975 0.984 . S
H979 N975 0.985 . S
H980 N974 0.984 . S
H981 N974 0.984 . S
H982 N970 0.984 . S
H983 N970 0.985 1_655 S
C984 C985 1.363 . S
C984 C990 1.379 . S
C984 N992 1.356 . S
C985 C984 1.363 . S
C985 C991 1.363 . S
C986 C987 1.363 . S
C986 C991 1.379 . S
C986 N993 1.356 . S
C987 C986 1.363 . S
C987 C990 1.363 . S
N988 C990 1.356 . S
N988 H1000 0.984 . S
N988 H1001 0.985 . S
N989 C991 1.356 . S
N989 H994 0.984 . S
N989 H995 0.985 . S
C990 C984 1.379 . S
C990 C987 1.363 . S
C990 N988 1.356 . S
C991 C985 1.363 . S
C991 C986 1.379 . S
C991 N989 1.356 . S
N992 C984 1.356 . S
N992 H998 0.984 . S
N992 H999 0.984 . S
N993 C986 1.356 . S
N993 H996 0.984 . S
N993 H997 0.985 . S
H994 N989 0.984 . S
H995 N989 0.985 . S
H996 N993 0.984 . S
H997 N993 0.985 . S
H998 N992 0.984 . S
H999 N992 0.984 . S
H1000 N988 0.984 . S
H1001 N988 0.985 . S
C1002 C1003 1.363 . S
C1002 C1008 1.379 . S
C1002 N1010 1.356 . S
C1003 C1002 1.363 . S
C1003 C1009 1.363 . S
C1004 C1005 1.363 . S
C1004 C1009 1.379 . S
C1004 N1011 1.356 . S
C1005 C1004 1.363 . S
C1005 C1008 1.363 . S
N1006 C1008 1.356 . S
N1006 H1018 0.984 . S
N1006 H1019 0.985 . S
N1007 C1009 1.356 . S
N1007 H1012 0.984 . S
N1007 H1013 0.985 . S
C1008 C1002 1.379 . S
C1008 C1005 1.363 . S
C1008 N1006 1.356 . S
C1009 C1003 1.363 . S
C1009 C1004 1.379 . S
C1009 N1007 1.356 . S
N1010 C1002 1.356 . S
N1010 H1016 0.984 . S
N1010 H1017 0.984 . S
N1011 C1004 1.356 . S
N1011 H1014 0.984 . S
N1011 H1015 0.985 . S
H1012 N1007 0.984 . S
H1013 N1007 0.985 . S
H1014 N1011 0.984 . S
H1015 N1011 0.985 . S
H1016 N1010 0.984 . S
H1017 N1010 0.984 . S
H1018 N1006 0.984 . S
H1019 N1006 0.985 . S
C1020 C1021 1.363 . S
C1020 C1026 1.379 . S
C1020 N1028 1.356 . S
C1021 C1020 1.363 . S
C1021 C1027 1.363 . S
C1022 C1023 1.363 . S
C1022 C1027 1.379 . S
C1022 N1029 1.356 . S
C1023 C1022 1.363 . S
C1023 C1026 1.363 . S
N1024 C1026 1.356 . S
N1024 H1036 0.984 . S
N1024 H1037 0.985 . S
N1025 C1027 1.356 . S
N1025 H1030 0.984 . S
N1025 H1031 0.985 1_655 S
C1026 C1020 1.379 . S
C1026 C1023 1.363 . S
C1026 N1024 1.356 . S
C1027 C1021 1.363 . S
C1027 C1022 1.379 . S
C1027 N1025 1.356 . S
N1028 C1020 1.356 . S
N1028 H1034 0.984 . S
N1028 H1035 0.984 . S
N1029 C1022 1.356 . S
N1029 H1032 0.984 . S
N1029 H1033 0.985 1_655 S
H1030 N1025 0.984 . S
H1031 N1025 0.985 1_455 S
H1032 N1029 0.984 . S
H1033 N1029 0.985 1_455 S
H1034 N1028 0.984 . S
H1035 N1028 0.984 . S
H1036 N1024 0.984 . S
H1037 N1024 0.985 . S
C1038 C1039 1.363 . S
C1038 C1044 1.379 . S
C1038 N1046 1.356 . S
C1039 C1038 1.363 . S
C1039 C1045 1.363 . S
C1040 C1041 1.363 . S
C1040 C1045 1.379 . S
C1040 N1047 1.356 . S
C1041 C1040 1.363 . S
C1041 C1044 1.363 . S
N1042 C1044 1.356 . S
N1042 H1054 0.984 . S
N1042 H1055 0.985 . S
N1043 C1045 1.356 . S
N1043 H1048 0.984 . S
N1043 H1049 0.985 . S
C1044 C1038 1.379 . S
C1044 C1041 1.363 . S
C1044 N1042 1.356 . S
C1045 C1039 1.363 . S
C1045 C1040 1.379 . S
C1045 N1043 1.356 . S
N1046 C1038 1.356 . S
N1046 H1052 0.984 . S
N1046 H1053 0.984 . S
N1047 C1040 1.356 . S
N1047 H1050 0.984 . S
N1047 H1051 0.985 . S
H1048 N1043 0.984 . S
H1049 N1043 0.985 . S
H1050 N1047 0.984 . S
H1051 N1047 0.985 . S
H1052 N1046 0.984 . S
H1053 N1046 0.984 . S
H1054 N1042 0.984 . S
H1055 N1042 0.985 . S
C1056 C1057 1.363 . S
C1056 C1062 1.379 . S
C1056 N1064 1.356 . S
C1057 C1056 1.363 . S
C1057 C1063 1.363 . S
C1058 C1059 1.363 . S
C1058 C1063 1.379 . S
C1058 N1065 1.356 . S
C1059 C1058 1.363 . S
C1059 C1062 1.363 . S
N1060 C1062 1.356 . S
N1060 H1072 0.984 . S
N1060 H1073 0.985 . S
N1061 C1063 1.356 . S
N1061 H1066 0.984 . S
N1061 H1067 0.985 . S
C1062 C1056 1.379 . S
C1062 C1059 1.363 . S
C1062 N1060 1.356 . S
C1063 C1057 1.363 . S
C1063 C1058 1.379 . S
C1063 N1061 1.356 . S
N1064 C1056 1.356 . S
N1064 H1070 0.984 . S
N1064 H1071 0.984 . S
N1065 C1058 1.356 . S
N1065 H1068 0.984 . S
N1065 H1069 0.985 . S
H1066 N1061 0.984 . S
H1067 N1061 0.985 . S
H1068 N1065 0.984 . S
H1069 N1065 0.985 . S
H1070 N1064 0.984 . S
H1071 N1064 0.984 . S
H1072 N1060 0.984 . S
H1073 N1060 0.985 . S
C1074 C1075 1.363 . S
C1074 C1080 1.379 . S
C1074 N1082 1.356 . S
C1075 C1074 1.363 . S
C1075 C1081 1.363 . S
C1076 C1077 1.363 . S
C1076 C1081 1.379 . S
C1076 N1083 1.356 . S
C1077 C1076 1.363 . S
C1077 C1080 1.363 . S
N1078 C1080 1.356 . S
N1078 H1090 0.984 1_455 S
N1078 H1091 0.985 . S
N1079 C1081 1.356 . S
N1079 H1084 0.984 . S
N1079 H1085 0.985 . S
C1080 C1074 1.379 . S
C1080 C1077 1.363 . S
C1080 N1078 1.356 . S
C1081 C1075 1.363 . S
C1081 C1076 1.379 . S
C1081 N1079 1.356 . S
N1082 C1074 1.356 . S
N1082 H1088 0.984 1_455 S
N1082 H1089 0.984 . S
N1083 C1076 1.356 . S
N1083 H1086 0.984 . S
N1083 H1087 0.985 . S
H1084 N1079 0.984 . S
H1085 N1079 0.985 . S
H1086 N1083 0.984 . S
H1087 N1083 0.985 . S
H1088 N1082 0.984 1_655 S
H1089 N1082 0.984 . S
H1090 N1078 0.984 1_655 S
H1091 N1078 0.985 . S
C1092 C1093 1.363 . S
C1092 C1098 1.379 . S
C1092 N1100 1.356 . S
C1093 C1092 1.363 . S
C1093 C1099 1.363 . S
C1094 C1095 1.363 . S
C1094 C1099 1.379 . S
C1094 N1101 1.356 . S
C1095 C1094 1.363 . S
C1095 C1098 1.363 . S
N1096 C1098 1.356 . S
N1096 H1108 0.984 . S
N1096 H1109 0.985 . S
N1097 C1099 1.356 . S
N1097 H1102 0.984 . S
N1097 H1103 0.985 1_655 S
C1098 C1092 1.379 . S
C1098 C1095 1.363 . S
C1098 N1096 1.356 . S
C1099 C1093 1.363 . S
C1099 C1094 1.379 . S
C1099 N1097 1.356 . S
N1100 C1092 1.356 . S
N1100 H1106 0.984 . S
N1100 H1107 0.984 . S
N1101 C1094 1.356 . S
N1101 H1104 0.984 . S
N1101 H1105 0.985 1_655 S
H1102 N1097 0.984 . S
H1103 N1097 0.985 1_455 S
H1104 N1101 0.984 . S
H1105 N1101 0.985 1_455 S
H1106 N1100 0.984 . S
H1107 N1100 0.984 . S
H1108 N1096 0.984 . S
H1109 N1096 0.985 . S
C1110 C1111 1.363 . S
C1110 C1116 1.379 . S
C1110 N1118 1.356 . S
C1111 C1110 1.363 . S
C1111 C1117 1.363 . S
C1112 C1113 1.363 . S
C1112 C1117 1.379 . S
C1112 N1119 1.356 . S
C1113 C1112 1.363 . S
C1113 C1116 1.363 . S
N1114 C1116 1.356 . S
N1114 H1126 0.984 . S
N1114 H1127 0.985 . S
N1115 C1117 1.356 . S
N1115 H1120 0.984 . S
N1115 H1121 0.985 . S
C1116 C1110 1.379 . S
C1116 C1113 1.363 . S
C1116 N1114 1.356 . S
C1117 C1111 1.363 . S
C1117 C1112 1.379 . S
C1117 N1115 1.356 . S
N1118 C1110 1.356 . S
N1118 H1124 0.984 . S
N1118 H1125 0.984 . S
N1119 C1112 1.356 . S
N1119 H1122 0.984 . S
N1119 H1123 0.985 . S
H1120 N1115 0.984 . S
H1121 N1115 0.985 . S
H1122 N1119 0.984 . S
H1123 N1119 0.985 . S
H1124 N1118 0.984 . S
H1125 N1118 0.984 . S
H1126 N1114 0.984 . S
H1127 N1114 0.985 . S
C1128 C1129 1.363 . S
C1128 C1134 1.379 . S
C1128 N1136 1.356 . S
C1129 C1128 1.363 . S
C1129 C1135 1.363 . S
C1130 C1131 1.363 . S
C1130 C1135 1.379 . S
C1130 N1137 1.356 . S
C1131 C1130 1.363 . S
C1131 C1134 1.363 . S
N1132 C1134 1.356 . S
N1132 H1144 0.984 . S
N1132 H1145 0.985 . S
N1133 C1135 1.356 . S
N1133 H1138 0.984 . S
N1133 H1139 0.985 . S
C1134 C1128 1.379 . S
C1134 C1131 1.363 . S
C1134 N1132 1.356 . S
C1135 C1129 1.363 . S
C1135 C1130 1.379 . S
C1135 N1133 1.356 . S
N1136 C1128 1.356 . S
N1136 H1142 0.984 . S
N1136 H1143 0.984 . S
N1137 C1130 1.356 . S
N1137 H1140 0.984 . S
N1137 H1141 0.985 . S
H1138 N1133 0.984 . S
H1139 N1133 0.985 . S
H1140 N1137 0.984 . S
H1141 N1137 0.985 . S
H1142 N1136 0.984 . S
H1143 N1136 0.984 . S
H1144 N1132 0.984 . S
H1145 N1132 0.985 . S
C1146 C1147 1.363 . S
C1146 C1152 1.379 . S
C1146 N1154 1.356 . S
C1147 C1146 1.363 . S
C1147 C1153 1.363 . S
C1148 C1149 1.363 . S
C1148 C1153 1.379 . S
C1148 N1155 1.356 . S
C1149 C1148 1.363 . S
C1149 C1152 1.363 . S
N1150 C1152 1.356 . S
N1150 H1162 0.984 . S
N1150 H1163 0.985 . S
N1151 C1153 1.356 . S
N1151 H1156 0.984 . S
N1151 H1157 0.985 1_455 S
C1152 C1146 1.379 . S
C1152 C1149 1.363 . S
C1152 N1150 1.356 . S
C1153 C1147 1.363 . S
C1153 C1148 1.379 . S
C1153 N1151 1.356 . S
N1154 C1146 1.356 . S
N1154 H1160 0.984 . S
N1154 H1161 0.984 . S
N1155 C1148 1.356 . S
N1155 H1158 0.984 . S
N1155 H1159 0.985 1_455 S
H1156 N1151 0.984 . S
H1157 N1151 0.985 1_655 S
H1158 N1155 0.984 . S
H1159 N1155 0.985 1_655 S
H1160 N1154 0.984 . S
H1161 N1154 0.984 . S
H1162 N1150 0.984 . S
H1163 N1150 0.985 . S
C1164 C1165 1.363 . S
C1164 C1170 1.379 . S
C1164 N1172 1.356 . S
C1165 C1164 1.363 . S
C1165 C1171 1.363 . S
C1166 C1167 1.363 . S
C1166 C1171 1.379 . S
C1166 N1173 1.357 . S
C1167 C1166 1.363 . S
C1167 C1170 1.363 . S
N1168 C1170 1.356 . S
N1168 H1180 0.984 . S
N1168 H1181 0.985 . S
N1169 C1171 1.360 . S
N1169 H1174 0.983 . S
N1169 H1175 0.982 1_545 S
C1170 C1164 1.379 . S
C1170 C1167 1.363 . S
C1170 N1168 1.356 . S
C1171 C1165 1.363 . S
C1171 C1166 1.379 . S
C1171 N1169 1.360 . S
N1172 C1164 1.356 . S
N1172 H1178 0.984 . S
N1172 H1179 0.984 . S
N1173 C1166 1.357 . S
N1173 H1176 0.988 . S
N1173 H1177 0.981 1_545 S
H1174 N1169 0.983 . S
H1175 N1169 0.982 1_565 S
H1176 N1173 0.988 . S
H1177 N1173 0.981 1_565 S
H1178 N1172 0.984 . S
H1179 N1172 0.984 . S
H1180 N1168 0.984 . S
H1181 N1168 0.985 . S
C1182 C1183 1.363 . S
C1182 C1188 1.379 . S
C1182 N1190 1.356 . S
C1183 C1182 1.363 . S
C1183 C1189 1.363 . S
C1184 C1185 1.363 . S
C1184 C1189 1.379 . S
C1184 N1191 1.356 . S
C1185 C1184 1.363 . S
C1185 C1188 1.363 . S
N1186 C1188 1.356 . S
N1186 H1198 0.984 . S
N1186 H1199 0.985 . S
N1187 C1189 1.356 . S
N1187 H1192 0.984 . S
N1187 H1193 0.985 . S
C1188 C1182 1.379 . S
C1188 C1185 1.363 . S
C1188 N1186 1.356 . S
C1189 C1183 1.363 . S
C1189 C1184 1.379 . S
C1189 N1187 1.356 . S
N1190 C1182 1.356 . S
N1190 H1196 0.984 . S
N1190 H1197 0.984 . S
N1191 C1184 1.356 . S
N1191 H1194 0.984 . S
N1191 H1195 0.985 . S
H1192 N1187 0.984 . S
H1193 N1187 0.985 . S
H1194 N1191 0.984 . S
H1195 N1191 0.985 . S
H1196 N1190 0.984 . S
H1197 N1190 0.984 . S
H1198 N1186 0.984 . S
H1199 N1186 0.985 . S
C337 C219 1.339 . S
C339 C9 1.339 . S
C355 C23 1.339 . S
C357 C233 1.339 . S
C373 C37 1.339 . S
C375 C247 1.339 . S
C391 C51 1.339 . S
C393 C177 1.339 . S
C409 C191 1.339 . S
C411 C65 1.339 . S
C427 C79 1.339 . S
C429 C205 1.339 . S
C445 C303 1.339 . S
C447 C93 1.339 . S
C463 C107 1.339 . S
C465 C317 1.339 . S
C481 C121 1.339 . S
C483 C331 1.339 . S
C499 C261 1.339 . S
C501 C135 1.339 . S
C517 C149 1.339 . S
C519 C275 1.339 . S
C535 C289 1.339 . S
C537 C163 1.339 . S
C553 C3 1.572 . S
C555 C325 1.572 . S
C571 C255 1.572 . S
C573 C17 1.572 . S
C589 C31 1.572 . S
C591 C269 1.572 . S
C607 C283 1.572 . S
C609 C45 1.572 . S
C625 C59 1.572 . S
C627 C297 1.572 . S
C643 C311 1.572 . S
C645 C73 1.572 . S
C661 C87 1.572 . S
C663 C185 1.572 . S
C679 C199 1.572 . S
C681 C101 1.572 . S
C697 C213 1.572 . S
C699 C115 1.572 . S
C715 C227 1.572 . S
C717 C129 1.572 . S
C733 C143 1.572 . S
C735 C241 1.572 . S
C751 C157 1.572 . S
C753 C171 1.572 . S
C769 C106 1.400 . S
C771 C8 1.400 . S
C787 C120 1.400 . S
C789 C22 1.400 . S
C805 C134 1.400 . S
C807 C36 1.400 . S
C823 C148 1.400 . S
C825 C50 1.400 . S
C841 C64 1.400 . S
C843 C162 1.400 . S
C859 C78 1.400 . S
C861 C92 1.400 . S
C877 C176 1.400 . S
C879 C274 1.400 . S
C895 C190 1.400 . S
C897 C288 1.400 . S
C913 C302 1.400 . S
C915 C204 1.400 . S
C931 C316 1.400 . S
C933 C218 1.400 . S
C949 C330 1.400 . S
C951 C232 1.400 . S
C967 C260 1.400 . S
C969 C246 1.400 . S
C985 C7 1.545 . S
C987 C273 1.546 . S
C1003 C287 1.546 . S
C1005 C21 1.546 . S
C1021 C35 1.546 . S
C1023 C301 1.546 . S
C1039 C315 1.546 . S
C1041 C49 1.546 . S
C1057 C63 1.546 . S
C1059 C329 1.546 . S
C1075 C259 1.545 . S
C1077 C77 1.546 . S
C1093 C91 1.545 . S
C1095 C245 1.546 . S
C1111 C175 1.545 . S
C1113 C105 1.546 . S
C1129 C119 1.546 . S
C1131 C189 1.546 . S
C1147 C133 1.546 . S
C1149 C203 1.546 . S
C1165 C147 1.546 . S
C1167 C217 1.546 . S
C1183 C161 1.546 . S
C1185 C231 1.546 . S
