# Generated by pormake.
# Topology ukg, (4)-cn, num edge types: 1
# Building blocks:
#     Node 0, Type 0, BuildingBlock: NAWXER_clean_sbu_0, # of connection points: 4
#     Node 1, Type 0, BuildingBlock: NAWXER_clean_sbu_0, # of connection points: 4
#     Node 2, Type 0, BuildingBlock: NAWXER_clean_sbu_0, # of connection points: 4
#     Node 3, Type 0, BuildingBlock: NAWXER_clean_sbu_0, # of connection points: 4
#     Node 4, Type 0, BuildingBlock: NAWXER_clean_sbu_0, # of connection points: 4
#     Node 5, Type 0, BuildingBlock: NAWXER_clean_sbu_0, # of connection points: 4
#     Node 6, Type 0, BuildingBlock: NAWXER_clean_sbu_0, # of connection points: 4
#     Node 7, Type 0, BuildingBlock: NAWXER_clean_sbu_0, # of connection points: 4
#     Edge 8, Type (0, 0), BuildingBlock: XUDNAN_clean_linker_2, # of connection points: 2
#     Edge 9, Type (0, 0), BuildingBlock: XUDNAN_clean_linker_2, # of connection points: 2
#     Edge 10, Type (0, 0), BuildingBlock: XUDNAN_clean_linker_2, # of connection points: 2
#     Edge 11, Type (0, 0), BuildingBlock: XUDNAN_clean_linker_2, # of connection points: 2
#     Edge 12, Type (0, 0), BuildingBlock: XUDNAN_clean_linker_2, # of connection points: 2
#     Edge 13, Type (0, 0), BuildingBlock: XUDNAN_clean_linker_2, # of connection points: 2
#     Edge 14, Type (0, 0), BuildingBlock: XUDNAN_clean_linker_2, # of connection points: 2
#     Edge 15, Type (0, 0), BuildingBlock: XUDNAN_clean_linker_2, # of connection points: 2
#     Edge 16, Type (0, 0), BuildingBlock: XUDNAN_clean_linker_2, # of connection points: 2
#     Edge 17, Type (0, 0), BuildingBlock: XUDNAN_clean_linker_2, # of connection points: 2
#     Edge 18, Type (0, 0), BuildingBlock: XUDNAN_clean_linker_2, # of connection points: 2
#     Edge 19, Type (0, 0), BuildingBlock: XUDNAN_clean_linker_2, # of connection points: 2
#     Edge 20, Type (0, 0), BuildingBlock: XUDNAN_clean_linker_2, # of connection points: 2
#     Edge 21, Type (0, 0), BuildingBlock: XUDNAN_clean_linker_2, # of connection points: 2
#     Edge 22, Type (0, 0), BuildingBlock: XUDNAN_clean_linker_2, # of connection points: 2
#     Edge 23, Type (0, 0), BuildingBlock: XUDNAN_clean_linker_2, # of connection points: 2
# Relax obj value: 0.100
# Max RMSD: 0.242
# Mean RMSD: 0.242
data_MOF--net-ukg--node1-NAWXER_clean_sbu_0--edge1-XUDNAN_clean_linker_2
_symmetry_space_group_name_H-M    P1
_symmetry_Int_Tables_number       1
_symmetry_cell_setting            triclinic
loop_
_symmetry_equiv_pos_as_xyz
'x, y, z'
_cell_length_a     30.712064
_cell_length_b     30.660854
_cell_length_c     38.153261
_cell_angle_alpha  90.09629
_cell_angle_beta   90.144683
_cell_angle_gamma 89.991667
loop_
_atom_site_label
_atom_site_type_symbol
_atom_site_fract_x
_atom_site_fract_y
_atom_site_fract_z
_atom_type_partial_charge
C0 C 0.11293 0.68817 0.14354 0.0
C1 C 0.99327 0.61838 0.20251 0.0
O2 O 0.11129 0.66713 0.17199 0.0
Zn3 Zn 0.05158 0.65219 0.17037 0.0
O4 O 0.07851 0.6919 0.12455 0.0
Zn5 Zn 0.01064 0.67096 0.1303 0.0
O6 O 0.98076 0.7258 0.13006 0.0
O7 O 0.01976 0.71497 0.17788 0.0
O8 O 0.97927 0.63552 0.17383 0.0
O9 O 0.03345 0.62049 0.20977 0.0
O10 O 0.04562 0.60507 0.12801 0.0
O11 O 1.00027 0.6347 0.09016 0.0
C12 C 0.9939 0.73898 0.15979 0.0
C13 C 0.02441 0.60302 0.09898 0.0
C14 C 0.32899 0.61684 0.65689 0.0
C15 C 0.39123 0.49634 0.72194 0.0
O16 O 0.34999 0.61683 0.68553 0.0
Zn17 Zn 0.36148 0.55601 0.68782 0.0
O18 O 0.3232 0.58091 0.64011 0.0
Zn19 Zn 0.34041 0.51262 0.6489 0.0
O20 O 0.28451 0.48391 0.65177 0.0
O21 O 0.29719 0.52986 0.69531 0.0
O22 O 0.3743 0.48298 0.69302 0.0
O23 O 0.39098 0.53674 0.7291 0.0
O24 O 0.4078 0.54402 0.64641 0.0
O25 O 0.37666 0.49842 0.6093 0.0
C26 C 0.2722 0.50247 0.67981 0.0
C27 C 0.40931 0.52135 0.6181 0.0
C28 C 0.509 0.77329 0.19144 0.0
C29 C 0.50527 0.87506 0.09376 0.0
O30 O 0.52435 0.76822 0.16082 0.0
Zn31 Zn 0.50365 0.82251 0.14172 0.0
O32 O 0.48583 0.80706 0.19834 0.0
Zn33 Zn 0.46325 0.86426 0.17037 0.0
O34 O 0.40133 0.85726 0.16869 0.0
O35 O 0.43499 0.81044 0.13427 0.0
O36 O 0.48166 0.8883 0.11938 0.0
O37 O 0.52379 0.83814 0.09573 0.0
O38 O 0.5364 0.86979 0.17567 0.0
O39 O 0.48466 0.90989 0.19991 0.0
C40 C 0.39959 0.8262 0.14678 0.0
C41 C 0.52477 0.90096 0.19619 0.0
C42 C 0.13664 1.00356 0.57546 0.0
C43 C 0.23617 0.01269 0.67442 0.0
O44 O 0.17297 0.02288 0.57825 0.0
Zn45 Zn 0.18707 1.0053 0.625 0.0
O46 O 0.12273 0.98051 0.60118 0.0
Zn47 Zn 0.14616 0.96474 0.65328 0.0
O48 O 0.10022 0.9854 0.68204 0.0
O49 O 0.13791 0.03824 0.6573 0.0
O50 O 0.20308 0.98867 0.68147 0.0
O51 O 0.24021 0.02854 0.64389 0.0
O52 O 0.20234 0.93627 0.62054 0.0
O53 O 0.15409 0.90309 0.65381 0.0
C54 C 0.10703 0.02584 0.67772 0.0
C55 C 0.18682 0.90109 0.63376 0.0
C56 C 0.02492 0.39208 0.8144 0.0
C57 C 0.89986 0.32048 0.86564 0.0
O58 O 0.03702 0.36236 0.83604 0.0
Zn59 Zn 1.00428 0.31836 0.87227 0.0
O60 O 0.98477 0.40065 0.81084 0.0
Zn61 Zn 0.96344 0.35781 0.84264 0.0
O62 O 0.98123 0.38506 0.89335 0.0
O63 O 0.02415 0.33616 0.9176 0.0
O64 O 0.90148 0.35157 0.84383 0.0
O65 O 0.93526 0.30546 0.87891 0.0
O66 O 0.02469 0.26282 0.85693 0.0
O67 O 0.98324 0.29657 0.81796 0.0
C68 C 1.0052 0.37281 0.91917 0.0
C69 C 1.00661 0.26372 0.82703 0.0
C70 C 0.75872 0.5199 0.35763 0.0
C71 C 0.64397 0.50396 0.44303 0.0
O72 O 0.72604 0.50044 0.34355 0.0
Zn73 Zn 0.66281 0.47774 0.36219 0.0
O74 O 0.7573 0.53065 0.38967 0.0
Zn75 Zn 0.70056 0.50939 0.3993 0.0
O76 O 0.71001 0.43964 0.39763 0.0
O77 O 0.66701 0.41568 0.35552 0.0
O78 O 0.68187 0.51993 0.4455 0.0
O79 O 0.63176 0.48679 0.41377 0.0
O80 O 0.62439 0.50761 0.33084 0.0
O81 O 0.65832 0.55126 0.36804 0.0
C82 C 0.69527 0.40808 0.37899 0.0
C83 C 0.63138 0.5457 0.34259 0.0
C84 C 0.52559 0.10872 0.91837 0.0
C85 C 0.49333 0.24499 0.85855 0.0
O86 O 0.54026 0.1087 0.88683 0.0
Zn87 Zn 0.54166 0.1542 0.84306 0.0
O88 O 0.50695 0.14262 0.93025 0.0
Zn89 Zn 0.51154 0.17731 0.88886 0.0
O90 O 0.46974 0.14187 0.85286 0.0
O91 O 0.50999 0.12309 0.80734 0.0
O92 O 0.48616 0.23483 0.89024 0.0
O93 O 0.51328 0.21803 0.83853 0.0
O94 O 0.60264 0.16533 0.83499 0.0
O95 O 0.58026 0.19042 0.88607 0.0
C96 C 0.47342 0.12321 0.82285 0.0
C97 C 0.61084 0.18451 0.86375 0.0
C98 C 0.91238 0.02702 0.39181 0.0
C99 C 0.77614 0.00877 0.3282 0.0
O100 O 0.91177 0.04934 0.36334 0.0
Zn101 Zn 0.86651 0.06049 0.32074 0.0
O102 O 0.87941 1.00425 0.39993 0.0
Zn103 Zn 0.84417 0.01794 0.35977 0.0
O104 O 0.87851 0.98682 0.31702 0.0
O105 O 0.89652 0.03904 0.28015 0.0
O106 O 0.78788 0.99013 0.35636 0.0
O107 O 0.80183 0.03543 0.3128 0.0
O108 O 0.85527 0.12175 0.32231 0.0
O109 O 0.82763 0.08642 0.3675 0.0
C110 C 0.89622 0.9989 0.28819 0.0
C111 C 0.83372 0.12215 0.35064 0.0
H112 H 0.97278 0.45552 0.93069 0.0
H113 H 0.05332 0.35489 0.97782 0.0
H114 H 0.06701 0.40266 0.02866 0.0
H115 H 0.03805 0.54639 0.95804 0.0
H116 H 0.99226 0.5816 0.96653 0.0
H117 H 0.98797 0.53924 0.93395 0.0
H118 H 0.92033 0.50787 0.9656 0.0
H119 H 0.92432 0.55024 0.99821 0.0
H120 H 0.9241 0.49381 0.01138 0.0
H121 H 0.07318 0.46175 0.07411 0.0
H122 H 0.06981 0.52754 0.11146 0.0
H123 H 0.9852 0.58965 0.03502 0.0
C124 C 0.99312 0.44342 0.95176 0.0
C125 C 0.01193 0.40136 0.95017 0.0
C126 C 0.03849 0.38692 0.97833 0.0
C127 C 0.04652 0.41384 1.00738 0.0
C128 C 0.02777 0.45517 0.008 0.0
C129 C 1.00151 0.46989 0.98102 0.0
C130 C 0.98554 0.51583 0.98816 0.0
C131 C 1.00195 0.54764 0.96 0.0
C132 C 0.93561 0.51698 0.99101 0.0
C133 C 1.00699 0.52458 0.0233 0.0
C134 C 0.03125 0.4892 0.03427 0.0
C135 C 0.05421 0.48965 0.06583 0.0
C136 C 0.05216 0.52722 0.08685 0.0
C137 C 0.02726 0.56382 0.07626 0.0
C138 C 1.00452 0.56228 0.04396 0.0
H139 H 0.42042 0.48844 0.55127 0.0
H140 H 0.48866 0.55463 0.63589 0.0
H141 H 0.55577 0.55474 0.60073 0.0
H142 H 0.51019 0.42013 0.52334 0.0
H143 H 0.49774 0.42494 0.47731 0.0
H144 H 0.45479 0.42884 0.50925 0.0
H145 H 0.4324 0.5041 0.48426 0.0
H146 H 0.47519 0.50037 0.45219 0.0
H147 H 0.47254 0.54681 0.48113 0.0
H148 H 0.61501 0.54805 0.55746 0.0
H149 H 0.66333 0.5382 0.507 0.0
H150 H 0.5577 0.47763 0.44855 0.0
C151 C 0.44954 0.50282 0.56243 0.0
C152 C 0.44927 0.52145 0.59644 0.0
C153 C 0.48797 0.54024 0.60995 0.0
C154 C 0.52633 0.54035 0.59022 0.0
C155 C 0.52551 0.52174 0.55692 0.0
C156 C 0.48819 0.50353 0.54293 0.0
C157 C 0.49623 0.48684 0.50598 0.0
C158 C 0.48933 0.43724 0.50386 0.0
C159 C 0.46738 0.51098 0.47932 0.0
C160 C 0.54389 0.49864 0.50147 0.0
C161 C 0.55998 0.51847 0.53137 0.0
C162 C 0.60285 0.5326 0.53387 0.0
C163 C 0.63006 0.52677 0.50494 0.0
C164 C 0.61442 0.50715 0.47363 0.0
C165 C 0.5707 0.49263 0.47206 0.0
H166 H 0.4772 0.95917 0.08462 0.0
H167 H 0.54946 0.85555 0.03326 0.0
H168 H 0.56314 0.90414 0.98286 0.0
H169 H 0.42655 1.00278 1.00691 0.0
H170 H 0.43079 0.05856 0.02153 0.0
H171 H 0.42618 0.01523 0.05311 0.0
H172 H 0.49725 0.04149 0.08324 0.0
H173 H 0.50221 0.08476 0.05164 0.0
H174 H 0.54628 0.04666 0.0577 0.0
H175 H 0.56923 0.96456 0.93811 0.0
H176 H 0.56655 0.03167 0.90237 0.0
H177 H 0.4912 0.09558 0.98379 0.0
C178 C 0.49569 0.94651 0.06272 0.0
C179 C 0.51215 0.90346 0.06289 0.0
C180 C 0.53644 0.88838 0.03374 0.0
C181 C 0.54442 0.91574 1.00499 0.0
C182 C 0.528 0.95811 1.00584 0.0
C183 C 0.5041 0.97338 0.03394 0.0
C184 C 0.49043 0.02034 0.02859 0.0
C185 C 0.44053 0.02445 0.02746 0.0
C186 C 0.51024 0.05006 0.05698 0.0
C187 C 0.51035 0.02915 0.99307 0.0
C188 C 0.53186 0.99288 0.98033 0.0
C189 C 0.5525 0.99317 0.94784 0.0
C190 C 0.55084 0.03147 0.92775 0.0
C191 C 0.52878 0.06897 0.94027 0.0
C192 C 0.50853 0.06761 0.97348 0.0
H193 H 0.92306 0.9872 0.45584 0.0
H194 H 0.99006 0.06807 0.37975 0.0
H195 H 0.05526 0.06882 0.41765 0.0
H196 H 0.96657 0.03955 0.53235 0.0
H197 H 0.97113 0.98982 0.55721 0.0
H198 H 0.93001 0.99477 0.52373 0.0
H199 H 0.95941 0.92506 0.49345 0.0
H200 H 1.00073 0.91996 0.5268 0.0
H201 H 0.01602 0.92222 0.48126 0.0
H202 H 0.11284 0.06156 0.4639 0.0
H203 H 0.15841 0.04838 0.5161 0.0
H204 H 0.05406 0.97238 0.5624 0.0
C205 C 0.95146 1.00499 0.44707 0.0
C206 C 0.95141 0.02754 0.41474 0.0
C207 C 0.98924 0.05056 0.40437 0.0
C208 C 0.0265 0.05111 0.42569 0.0
C209 C 0.02545 0.02852 0.45732 0.0
C210 C 0.98892 1.00597 0.46806 0.0
C211 C 0.99609 0.98507 0.5036 0.0
C212 C 0.96405 1.00341 0.53082 0.0
C213 C 0.99288 0.93511 0.50111 0.0
C214 C 0.04233 0.99955 0.51121 0.0
C215 C 0.05867 0.02445 0.48411 0.0
C216 C 0.10044 0.04204 0.48527 0.0
C217 C 0.12609 0.03432 0.51506 0.0
C218 C 0.10991 0.00927 0.54339 0.0
C219 C 0.06751 0.99146 0.54117 0.0
H220 H 0.16411 0.73396 0.1877 0.0
H221 H 0.15329 0.69296 0.07932 0.0
H222 H 0.22567 0.72597 0.06697 0.0
H223 H 0.21594 0.83879 0.16925 0.0
H224 H 0.24907 0.83644 0.20827 0.0
H225 H 0.19643 0.81054 0.20753 0.0
H226 H 0.23209 0.73727 0.22561 0.0
H227 H 0.28482 0.76282 0.2262 0.0
H228 H 0.27565 0.71519 0.19943 0.0
H229 H 0.30348 0.75683 0.06927 0.0
H230 H 0.37478 0.79061 0.08378 0.0
H231 H 0.32948 0.81685 0.18921 0.0
C232 C 0.17687 0.73227 0.16128 0.0
C233 C 0.15366 0.71074 0.13445 0.0
C234 C 0.17083 0.70948 0.10012 0.0
C235 C 0.21184 0.72797 0.09299 0.0
C236 C 0.23436 0.74841 0.12034 0.0
C237 C 0.21689 0.75142 0.15361 0.0
C238 C 0.24692 0.77534 0.1785 0.0
C239 C 0.22583 0.8178 0.19165 0.0
C240 C 0.26068 0.74588 0.20923 0.0
C241 C 0.28469 0.78455 0.15437 0.0
C242 C 0.27724 0.76845 0.121 0.0
C243 C 0.30921 0.77032 0.0951 0.0
C244 C 0.34959 0.78934 0.10357 0.0
C245 C 0.35716 0.80687 0.13739 0.0
C246 C 0.32413 0.8046 0.16289 0.0
H247 H 0.28627 0.67563 0.69684 0.0
H248 H 0.32539 0.64935 0.58987 0.0
H249 H 0.29332 0.72015 0.57122 0.0
H250 H 0.18223 0.7232 0.67407 0.0
H251 H 0.18394 0.76196 0.70962 0.0
H252 H 0.21104 0.71015 0.71392 0.0
H253 H 0.28348 0.74989 0.72823 0.0
H254 H 0.25666 0.80181 0.72386 0.0
H255 H 0.30428 0.78993 0.69804 0.0
H256 H 0.26142 0.79765 0.56619 0.0
H257 H 0.22444 0.86923 0.57361 0.0
H258 H 0.20008 0.83875 0.68265 0.0
C259 C 0.28812 0.68488 0.66949 0.0
C260 C 0.30869 0.65766 0.64477 0.0
C261 C 0.3098 0.67011 0.60911 0.0
C262 C 0.29184 0.7102 0.59839 0.0
C263 C 0.27202 0.73662 0.6236 0.0
C264 C 0.26935 0.7239 0.65829 0.0
C265 C 0.24486 0.75686 0.68015 0.0
C266 C 0.20303 0.73684 0.69532 0.0
C267 C 0.27407 0.77573 0.70928 0.0
C268 C 0.23466 0.79065 0.65256 0.0
C269 C 0.25106 0.77893 0.62017 0.0
C270 C 0.24781 0.80672 0.5913 0.0
C271 C 0.22695 0.84725 0.59571 0.0
C272 C 0.20888 0.8589 0.62849 0.0
C273 C 0.21278 0.83013 0.6571 0.0
H274 H 0.66745 0.22148 0.81749 0.0
H275 H 0.65262 0.18681 0.9269 0.0
H276 H 0.72585 0.21694 0.9397 0.0
H277 H 0.78281 0.20113 0.80957 0.0
H278 H 0.79218 0.24784 0.78198 0.0
H279 H 0.74005 0.22096 0.78132 0.0
H280 H 0.7021 0.29427 0.79597 0.0
H281 H 0.75413 0.32133 0.79683 0.0
H282 H 0.71872 0.32438 0.83436 0.0
H283 H 0.80234 0.24859 0.93966 0.0
H284 H 0.87266 0.28561 0.92789 0.0
H285 H 0.8332 0.30634 0.82004 0.0
C286 C 0.67993 0.21981 0.84404 0.0
C287 C 0.6549 0.20132 0.87117 0.0
C288 C 0.6716 0.20067 0.90578 0.0
C289 C 0.71309 0.2176 0.91324 0.0
C290 C 0.73694 0.2359 0.88591 0.0
C291 C 0.72069 0.23765 0.8521 0.0
C292 C 0.75159 0.26135 0.82787 0.0
C293 C 0.7676 0.231 0.79846 0.0
C294 C 0.73036 0.30279 0.81289 0.0
C295 C 0.78793 0.27241 0.85323 0.0
C296 C 0.77927 0.25689 0.88648 0.0
C297 C 0.80921 0.26138 0.91384 0.0
C298 C 0.84897 0.28236 0.90697 0.0
C299 C 0.85781 0.2994 0.8733 0.0
C300 C 0.82677 0.29445 0.84624 0.0
H301 H 0.71277 0.34996 0.327 0.0
H302 H 0.72105 0.36775 0.43952 0.0
H303 H 0.75533 0.29481 0.44525 0.0
H304 H 0.69264 0.23338 0.32553 0.0
H305 H 0.72692 0.22432 0.28794 0.0
H306 H 0.6996 0.27586 0.29342 0.0
H307 H 0.77368 0.31599 0.28917 0.0
H308 H 0.80124 0.2646 0.28387 0.0
H309 H 0.81724 0.30119 0.31861 0.0
H310 H 0.78763 0.21866 0.43812 0.0
H311 H 0.82175 0.1495 0.41834 0.0
H312 H 0.79903 0.18636 0.3102 0.0
C313 C 0.72113 0.33811 0.35289 0.0
C314 C 0.71362 0.36389 0.38293 0.0
C315 C 0.72624 0.34811 0.41628 0.0
C316 C 0.74561 0.30679 0.41974 0.0
C317 C 0.75294 0.28224 0.3895 0.0
C318 C 0.74156 0.29763 0.35667 0.0
C319 C 0.75585 0.26658 0.32805 0.0
C320 C 0.7164 0.24899 0.30754 0.0
C321 C 0.78897 0.2884 0.30349 0.0
C322 C 0.77696 0.2312 0.34983 0.0
C323 C 0.77433 0.24034 0.38525 0.0
C324 C 0.79024 0.21142 0.41043 0.0
C325 C 0.80949 0.17229 0.39903 0.0
C326 C 0.81353 0.16311 0.36282 0.0
C327 C 0.79708 0.19302 0.33804 0.0
H328 H 0.76618 0.54435 0.28837 0.0
H329 H 0.84114 0.51583 0.38213 0.0
H330 H 0.90895 0.53306 0.35071 0.0
H331 H 0.84613 0.50456 0.22393 0.0
H332 H 0.83589 0.54833 0.19353 0.0
H333 H 0.79306 0.52961 0.222 0.0
H334 H 0.78284 0.60819 0.24558 0.0
H335 H 0.82563 0.62714 0.21725 0.0
H336 H 0.82892 0.63685 0.26379 0.0
H337 H 0.96759 0.5551 0.31117 0.0
H338 H 0.0154 0.58562 0.26619 0.0
H339 H 0.90396 0.60487 0.19741 0.0
C340 C 0.79703 0.54109 0.30194 0.0
C341 C 0.79869 0.52842 0.33754 0.0
C342 C 0.83934 0.52546 0.35486 0.0
C343 C 0.87798 0.53498 0.3372 0.0
C344 C 0.87538 0.54793 0.30233 0.0
C345 C 0.8361 0.55141 0.28481 0.0
C346 C 0.84272 0.5694 0.24811 0.0
C347 C 0.82861 0.53597 0.22025 0.0
C348 C 0.8186 0.61298 0.24343 0.0
C349 C 0.89177 0.5758 0.24803 0.0
C350 C 0.90972 0.56253 0.2795 0.0
C351 C 0.95404 0.56553 0.28635 0.0
C352 C 0.98094 0.58301 0.2605 0.0
C353 C 0.96354 0.59778 0.22815 0.0
C354 C 0.91827 0.5938 0.22179 0.0
H355 H 0.41505 0.41115 0.71046 0.0
H356 H 0.40665 0.51019 0.79161 0.0
H357 H 0.43198 0.45676 0.83547 0.0
H358 H 0.37881 0.32131 0.76186 0.0
H359 H 0.41614 0.28268 0.74277 0.0
H360 H 0.39773 0.32878 0.71758 0.0
H361 H 0.47771 0.35205 0.70685 0.0
H362 H 0.49639 0.30589 0.73187 0.0
H363 H 0.51358 0.36014 0.74378 0.0
H364 H 0.45394 0.39138 0.87114 0.0
H365 H 0.47743 0.32018 0.8951 0.0
H366 H 0.47567 0.26517 0.79024 0.0
C367 C 0.41872 0.42163 0.73743 0.0
C368 C 0.40877 0.4648 0.74764 0.0
C369 C 0.41425 0.47733 0.78315 0.0
C370 C 0.42846 0.44719 0.80829 0.0
C371 C 0.43761 0.40479 0.79743 0.0
C372 C 0.43352 0.39214 0.76278 0.0
C373 C 0.44612 0.34476 0.75794 0.0
C374 C 0.40739 0.3178 0.74424 0.0
C375 C 0.48581 0.34048 0.73368 0.0
C376 C 0.4575 0.33268 0.79532 0.0
C377 C 0.452 0.36764 0.81776 0.0
C378 C 0.45883 0.36388 0.85378 0.0
C379 C 0.47198 0.32334 0.86716 0.0
C380 C 0.4787 0.28738 0.84449 0.0
C381 C 0.47136 0.29229 0.80814 0.0
H382 H 0.60165 0.86963 0.22179 0.0
H383 H 0.52153 0.986 0.21725 0.0
H384 H 0.57648 0.02601 0.25234 0.0
H385 H 0.63615 0.88489 0.31161 0.0
H386 H 0.69009 0.86366 0.3042 0.0
H387 H 0.64512 0.84464 0.2779 0.0
H388 H 0.68635 0.86648 0.22139 0.0
H389 H 0.73151 0.88533 0.2475 0.0
H390 H 0.70583 0.92161 0.2166 0.0
H391 H 0.6423 0.05426 0.28449 0.0
H392 H 0.7122 0.06741 0.31538 0.0
H393 H 0.74576 0.9309 0.30404 0.0
C394 C 0.5959 0.90364 0.22801 0.0
C395 C 0.55775 0.92504 0.21656 0.0
C396 C 0.55073 0.9692 0.22575 0.0
C397 C 0.58169 0.99212 0.24562 0.0
C398 C 0.61895 0.97003 0.25664 0.0
C399 C 0.62593 0.92664 0.24852 0.0
C400 C 0.66805 0.91017 0.26444 0.0
C401 C 0.65931 0.87369 0.29112 0.0
C402 C 0.69981 0.89502 0.23577 0.0
C403 C 0.68404 0.95127 0.28236 0.0
C404 C 0.65542 0.98554 0.27725 0.0
C405 C 0.66456 0.02753 0.28923 0.0
C406 C 0.70414 0.03471 0.3067 0.0
C407 C 0.73339 0.9999 0.3126 0.0
C408 C 0.72311 0.95765 0.30061 0.0
H409 H 0.05924 0.25506 0.76992 0.0
H410 H 0.96432 0.18713 0.83341 0.0
H411 H 0.97461 0.12044 0.79768 0.0
H412 H 0.03331 0.20058 0.68537 0.0
H413 H 0.08962 0.19807 0.67233 0.0
H414 H 0.07095 0.24194 0.69999 0.0
H415 H 0.12984 0.22243 0.74604 0.0
H416 H 0.14866 0.17852 0.71864 0.0
H417 H 0.13235 0.16769 0.76314 0.0
H418 H 0.99884 0.06046 0.75856 0.0
H419 H 0.03745 0.00913 0.71996 0.0
H420 H 0.1189 0.11485 0.68223 0.0
C421 C 0.04005 0.22629 0.77559 0.0
C422 C 0.01052 0.22587 0.80381 0.0
C423 C 0.98666 0.18773 0.81148 0.0
C424 C 0.99225 0.14993 0.79133 0.0
C425 C 0.02199 0.15097 0.76381 0.0
C426 C 0.04561 0.18807 0.7559 0.0
C427 C 0.07806 0.17926 0.72683 0.0
C428 C 0.06732 0.20659 0.69419 0.0
C429 C 0.125 0.18745 0.73943 0.0
C430 C 0.06974 0.13117 0.7203 0.0
C431 C 0.03681 0.11579 0.74158 0.0
C432 C 0.0244 0.07215 0.74151 0.0
C433 C 0.04663 0.04323 0.71949 0.0
C434 C 0.0812 0.05791 0.69797 0.0
C435 C 0.09236 0.10267 0.69808 0.0
H436 H 0.10303 0.36176 0.78981 0.0
H437 H 0.01906 0.47554 0.79071 0.0
H438 H 0.07232 0.5155 0.75444 0.0
H439 H 0.20538 0.41781 0.79341 0.0
H440 H 0.23234 0.38102 0.76363 0.0
H441 H 0.18798 0.36178 0.79021 0.0
H442 H 0.1475 0.33559 0.73435 0.0
H443 H 0.19164 0.35501 0.70756 0.0
H444 H 0.13691 0.37377 0.69947 0.0
H445 H 0.13652 0.54442 0.7215 0.0
H446 H 0.20581 0.55889 0.69046 0.0
H447 H 0.24493 0.42454 0.70596 0.0
C448 C 0.09609 0.39517 0.78251 0.0
C449 C 0.05724 0.41584 0.79326 0.0
C450 C 0.04873 0.45926 0.78272 0.0
C451 C 0.07874 0.48216 0.76217 0.0
C452 C 0.11665 0.46084 0.75181 0.0
C453 C 0.12524 0.41819 0.76128 0.0
C454 C 0.16795 0.40258 0.74589 0.0
C455 C 0.20032 0.39008 0.77503 0.0
C456 C 0.16054 0.36448 0.72029 0.0
C457 C 0.18235 0.44337 0.72678 0.0
C458 C 0.15241 0.4767 0.73079 0.0
C459 C 0.15983 0.5184 0.7176 0.0
C460 C 0.19906 0.52633 0.70003 0.0
C461 C 0.22972 0.49251 0.69527 0.0
C462 C 0.22117 0.45047 0.70849 0.0
H463 H 0.60748 0.55539 0.27409 0.0
H464 H 0.60693 0.62148 0.37466 0.0
H465 H 0.57078 0.68521 0.34741 0.0
H466 H 0.63482 0.64985 0.22448 0.0
H467 H 0.60231 0.63474 0.18697 0.0
H468 H 0.62462 0.59313 0.21499 0.0
H469 H 0.54728 0.56157 0.22456 0.0
H470 H 0.5247 0.60321 0.19664 0.0
H471 H 0.50465 0.59665 0.24068 0.0
H472 H 0.53469 0.7414 0.30914 0.0
H473 H 0.5084 0.78943 0.26174 0.0
H474 H 0.53758 0.68869 0.18525 0.0
C475 C 0.59921 0.58309 0.29041 0.0
C476 C 0.60938 0.58348 0.32653 0.0
C477 C 0.59918 0.62064 0.34696 0.0
C478 C 0.57851 0.6568 0.33175 0.0
C479 C 0.56897 0.65545 0.29601 0.0
C480 C 0.57951 0.61981 0.2755 0.0
C481 C 0.56875 0.62788 0.23728 0.0
C482 C 0.61009 0.62632 0.2146 0.0
C483 C 0.53429 0.5954 0.22402 0.0
C484 C 0.55048 0.67367 0.23947 0.0
C485 C 0.55025 0.68869 0.27365 0.0
C486 C 0.53474 0.73001 0.28228 0.0
C487 C 0.5197 0.75696 0.25518 0.0
C488 C 0.52094 0.74276 0.21983 0.0
C489 C 0.53628 0.70043 0.21202 0.0
H490 H 0.45736 0.10997 0.75288 0.0
H491 H 0.40264 0.08975 0.85632 0.0
H492 H 0.33758 0.05575 0.8296 0.0
H493 H 0.35713 0.14038 0.71232 0.0
H494 H 0.36918 0.1144 0.67105 0.0
H495 H 0.41283 0.13417 0.69836 0.0
H496 H 0.44791 0.05728 0.69822 0.0
H497 H 0.40432 0.03725 0.67091 0.0
H498 H 0.4162 0.01094 0.71205 0.0
H499 H 0.27843 0.02435 0.79171 0.0
H500 H 0.22671 1.00273 0.74518 0.0
H501 H 0.31806 0.04715 0.66625 0.0
C502 C 0.43188 0.09789 0.76987 0.0
C503 C 0.4351 0.1021 0.80666 0.0
C504 C 0.40076 0.08678 0.82806 0.0
C505 C 0.3638 0.06728 0.81314 0.0
C506 C 0.36148 0.06383 0.77678 0.0
C507 C 0.39438 0.07906 0.75538 0.0
C508 C 0.3826 0.07377 0.71702 0.0
C509 C 0.38029 0.11833 0.69862 0.0
C510 C 0.41467 0.04297 0.69846 0.0
C511 C 0.33791 0.05327 0.72021 0.0
C512 C 0.32659 0.04732 0.7549 0.0
C513 C 0.28691 0.02887 0.76444 0.0
C514 C 0.2578 0.0166 0.73782 0.0
C515 C 0.26829 0.02334 0.7021 0.0
C516 C 0.30903 0.04172 0.69332 0.0
H517 H 0.98191 0.76405 0.22812 0.0
H518 H 0.97476 0.81101 0.12107 0.0
H519 H 0.9527 0.88377 0.14264 0.0
H520 H 0.88647 0.82091 0.25741 0.0
H521 H 0.9078 0.83205 0.30056 0.0
H522 H 0.9258 0.78454 0.27686 0.0
H523 H 1.0059 0.80982 0.28365 0.0
H524 H 0.98812 0.85751 0.30726 0.0
H525 H 0.02138 0.86336 0.2687 0.0
H526 H 0.93281 0.95157 0.17576 0.0
H527 H 0.90855 0.00788 0.21775 0.0
H528 H 0.92308 0.9155 0.30306 0.0
C529 C 0.97601 0.78982 0.20931 0.0
C530 C 0.98036 0.78218 0.17296 0.0
C531 C 0.97157 0.8163 0.14902 0.0
C532 C 0.95926 0.85774 0.16102 0.0
C533 C 0.95521 0.86427 0.19701 0.0
C534 C 0.9627 0.83114 0.22081 0.0
C535 C 0.95334 0.84608 0.25793 0.0
C536 C 0.91614 0.81931 0.27413 0.0
C537 C 0.99465 0.84407 0.28072 0.0
C538 C 0.93953 0.8928 0.25126 0.0
C539 C 0.94151 0.90279 0.216 0.0
C540 C 0.93094 0.9441 0.20343 0.0
C541 C 0.91737 0.97591 0.22749 0.0
C542 C 0.9138 0.96602 0.26361 0.0
C543 C 0.92528 0.92393 0.27557 0.0
loop_
_geom_bond_atom_site_label_1
_geom_bond_atom_site_label_2
_geom_bond_distance
_geom_bond_site_symmetry_2
_ccdc_geom_bond_type
C0 O2 1.247 . S
C0 O4 1.258 . S
C1 O8 1.247 . S
C1 O9 1.258 . S
O2 C0 1.247 . S
O2 Zn3 2.028 . S
Zn3 O2 2.028 . S
Zn3 O7 2.035 . S
Zn3 O9 2.035 1_455 S
Zn3 O10 2.028 . S
O4 C0 1.258 . S
O4 Zn5 2.035 1_455 S
Zn5 O4 2.035 1_655 S
Zn5 O6 2.028 . S
Zn5 O8 2.028 . S
Zn5 O11 2.035 . S
O6 Zn5 2.028 . S
O6 C12 1.247 . S
O7 Zn3 2.035 . S
O7 C12 1.258 1_455 S
O8 C1 1.247 . S
O8 Zn5 2.028 . S
O9 C1 1.258 . S
O9 Zn3 2.035 1_655 S
O10 Zn3 2.028 . S
O10 C13 1.247 . S
O11 Zn5 2.035 . S
O11 C13 1.258 1_655 S
C12 O6 1.247 . S
C12 O7 1.258 1_655 S
C13 O10 1.247 . S
C13 O11 1.258 1_455 S
C14 O16 1.247 . S
C14 O18 1.258 . S
C15 O22 1.247 . S
C15 O23 1.258 . S
O16 C14 1.247 . S
O16 Zn17 2.028 . S
Zn17 O16 2.028 . S
Zn17 O21 2.035 . S
Zn17 O23 2.035 . S
Zn17 O24 2.028 . S
O18 C14 1.258 . S
O18 Zn19 2.035 . S
Zn19 O18 2.035 . S
Zn19 O20 2.028 . S
Zn19 O22 2.028 . S
Zn19 O25 2.035 . S
O20 Zn19 2.028 . S
O20 C26 1.247 . S
O21 Zn17 2.035 . S
O21 C26 1.258 . S
O22 C15 1.247 . S
O22 Zn19 2.028 . S
O23 C15 1.258 . S
O23 Zn17 2.035 . S
O24 Zn17 2.028 . S
O24 C27 1.247 . S
O25 Zn19 2.035 . S
O25 C27 1.258 . S
C26 O20 1.247 . S
C26 O21 1.258 . S
C27 O24 1.247 . S
C27 O25 1.258 . S
C28 O30 1.247 . S
C28 O32 1.258 . S
C29 O36 1.247 . S
C29 O37 1.258 . S
O30 C28 1.247 . S
O30 Zn31 2.028 . S
Zn31 O30 2.028 . S
Zn31 O35 2.035 . S
Zn31 O37 2.035 . S
Zn31 O38 2.028 . S
O32 C28 1.258 . S
O32 Zn33 2.035 . S
Zn33 O32 2.035 . S
Zn33 O34 2.028 . S
Zn33 O36 2.028 . S
Zn33 O39 2.035 . S
O34 Zn33 2.028 . S
O34 C40 1.247 . S
O35 Zn31 2.035 . S
O35 C40 1.258 . S
O36 C29 1.247 . S
O36 Zn33 2.028 . S
O37 C29 1.258 . S
O37 Zn31 2.035 . S
O38 Zn31 2.028 . S
O38 C41 1.247 . S
O39 Zn33 2.035 . S
O39 C41 1.258 . S
C40 O34 1.247 . S
C40 O35 1.258 . S
C41 O38 1.247 . S
C41 O39 1.258 . S
C42 O44 1.247 1_565 S
C42 O46 1.258 . S
C43 O50 1.247 1_545 S
C43 O51 1.258 . S
O44 C42 1.247 1_545 S
O44 Zn45 2.028 . S
Zn45 O44 2.028 . S
Zn45 O49 2.035 . S
Zn45 O51 2.035 . S
Zn45 O52 2.028 1_545 S
O46 C42 1.258 . S
O46 Zn47 2.035 . S
Zn47 O46 2.035 . S
Zn47 O48 2.028 1_565 S
Zn47 O50 2.028 . S
Zn47 O53 2.035 . S
O48 Zn47 2.028 1_545 S
O48 C54 1.247 . S
O49 Zn45 2.035 . S
O49 C54 1.258 . S
O50 C43 1.247 1_565 S
O50 Zn47 2.028 . S
O51 C43 1.258 . S
O51 Zn45 2.035 . S
O52 Zn45 2.028 1_565 S
O52 C55 1.247 . S
O53 Zn47 2.035 . S
O53 C55 1.258 . S
C54 O48 1.247 . S
C54 O49 1.258 . S
C55 O52 1.247 . S
C55 O53 1.258 . S
C56 O58 1.247 . S
C56 O60 1.258 . S
C57 O64 1.247 . S
C57 O65 1.258 . S
O58 C56 1.247 . S
O58 Zn59 2.028 . S
Zn59 O58 2.028 . S
Zn59 O63 2.035 . S
Zn59 O65 2.035 1_455 S
Zn59 O66 2.028 . S
O60 C56 1.258 . S
O60 Zn61 2.035 1_455 S
Zn61 O60 2.035 1_655 S
Zn61 O62 2.028 . S
Zn61 O64 2.028 . S
Zn61 O67 2.035 . S
O62 Zn61 2.028 . S
O62 C68 1.247 . S
O63 Zn59 2.035 . S
O63 C68 1.258 1_455 S
O64 C57 1.247 . S
O64 Zn61 2.028 . S
O65 C57 1.258 . S
O65 Zn59 2.035 1_655 S
O66 Zn59 2.028 . S
O66 C69 1.247 . S
O67 Zn61 2.035 . S
O67 C69 1.258 1_655 S
C68 O62 1.247 . S
C68 O63 1.258 1_655 S
C69 O66 1.247 . S
C69 O67 1.258 1_455 S
C70 O72 1.247 . S
C70 O74 1.258 . S
C71 O78 1.247 . S
C71 O79 1.258 . S
O72 C70 1.247 . S
O72 Zn73 2.028 . S
Zn73 O72 2.028 . S
Zn73 O77 2.035 . S
Zn73 O79 2.035 . S
Zn73 O80 2.028 . S
O74 C70 1.258 . S
O74 Zn75 2.035 . S
Zn75 O74 2.035 . S
Zn75 O76 2.028 . S
Zn75 O78 2.028 . S
Zn75 O81 2.035 . S
O76 Zn75 2.028 . S
O76 C82 1.247 . S
O77 Zn73 2.035 . S
O77 C82 1.258 . S
O78 C71 1.247 . S
O78 Zn75 2.028 . S
O79 C71 1.258 . S
O79 Zn73 2.035 . S
O80 Zn73 2.028 . S
O80 C83 1.247 . S
O81 Zn75 2.035 . S
O81 C83 1.258 . S
C82 O76 1.247 . S
C82 O77 1.258 . S
C83 O80 1.247 . S
C83 O81 1.258 . S
C84 O86 1.247 . S
C84 O88 1.258 . S
C85 O92 1.247 . S
C85 O93 1.258 . S
O86 C84 1.247 . S
O86 Zn87 2.028 . S
Zn87 O86 2.028 . S
Zn87 O91 2.035 . S
Zn87 O93 2.035 . S
Zn87 O94 2.028 . S
O88 C84 1.258 . S
O88 Zn89 2.035 . S
Zn89 O88 2.035 . S
Zn89 O90 2.028 . S
Zn89 O92 2.028 . S
Zn89 O95 2.035 . S
O90 Zn89 2.028 . S
O90 C96 1.247 . S
O91 Zn87 2.035 . S
O91 C96 1.258 . S
O92 C85 1.247 . S
O92 Zn89 2.028 . S
O93 C85 1.258 . S
O93 Zn87 2.035 . S
O94 Zn87 2.028 . S
O94 C97 1.247 . S
O95 Zn89 2.035 . S
O95 C97 1.258 . S
C96 O90 1.247 . S
C96 O91 1.258 . S
C97 O94 1.247 . S
C97 O95 1.258 . S
C98 O100 1.247 . S
C98 O102 1.258 1_545 S
C99 O106 1.247 . S
C99 O107 1.258 1_565 S
O100 C98 1.247 . S
O100 Zn101 2.028 . S
Zn101 O100 2.028 . S
Zn101 O105 2.035 1_545 S
Zn101 O107 2.035 . S
Zn101 O108 2.028 . S
O102 C98 1.258 1_565 S
O102 Zn103 2.035 . S
Zn103 O102 2.035 . S
Zn103 O104 2.028 . S
Zn103 O106 2.028 . S
Zn103 O109 2.035 1_565 S
O104 Zn103 2.028 . S
O104 C110 1.247 . S
O105 Zn101 2.035 1_565 S
O105 C110 1.258 . S
O106 C99 1.247 . S
O106 Zn103 2.028 . S
O107 C99 1.258 1_545 S
O107 Zn101 2.035 . S
O108 Zn101 2.028 . S
O108 C111 1.247 . S
O109 Zn103 2.035 1_545 S
O109 C111 1.258 . S
C110 O104 1.247 . S
C110 O105 1.258 . S
C111 O108 1.247 . S
C111 O109 1.258 . S
H112 C124 0.930 1_455 S
H113 C126 0.930 . S
H114 C127 0.902 1_554 S
H115 C131 0.959 . S
H116 C131 0.959 . S
H117 C131 0.961 . S
H118 C132 0.960 . S
H119 C132 0.961 . S
H120 C132 0.959 . S
H121 C135 0.929 . S
H122 C136 0.931 . S
H123 C138 0.930 . S
C124 H112 0.930 1_655 S
C124 C125 1.399 . S
C124 C129 1.399 . S
C125 C124 1.399 . S
C125 C126 1.376 . S
C126 H113 0.930 . S
C126 C125 1.376 . S
C126 C127 1.416 . S
C127 H114 0.902 1_556 S
C127 C126 1.416 . S
C127 C128 1.391 . S
C128 C127 1.391 . S
C128 C129 1.394 . S
C128 C134 1.465 1_556 S
C129 C124 1.399 . S
C129 C128 1.394 . S
C129 C130 1.516 1_655 S
C130 C129 1.516 1_455 S
C130 C131 1.502 . S
C130 C132 1.561 1_455 S
C130 C133 1.526 1_556 S
C131 H115 0.959 . S
C131 H116 0.959 . S
C131 H117 0.961 . S
C131 C130 1.502 . S
C132 H118 0.960 . S
C132 H119 0.961 . S
C132 H120 0.959 . S
C132 C130 1.561 1_655 S
C133 C130 1.526 1_554 S
C133 C134 1.396 1_455 S
C133 C138 1.390 . S
C134 C128 1.465 1_554 S
C134 C133 1.396 1_655 S
C134 C135 1.399 . S
C135 H121 0.929 . S
C135 C134 1.399 . S
C135 C136 1.385 . S
C136 H122 0.931 . S
C136 C135 1.385 . S
C136 C137 1.389 1_655 S
C137 C136 1.389 1_455 S
C137 C138 1.387 . S
C138 H123 0.930 . S
C138 C133 1.390 . S
C138 C137 1.387 . S
H139 C151 0.930 . S
H140 C153 0.930 . S
H141 C154 0.930 . S
H142 C158 0.959 . S
H143 C158 0.959 . S
H144 C158 0.961 . S
H145 C159 0.960 . S
H146 C159 0.961 . S
H147 C159 0.959 . S
H148 C162 0.929 . S
H149 C163 0.931 . S
H150 C165 0.930 . S
C151 H139 0.930 . S
C151 C152 1.399 . S
C151 C156 1.399 . S
C152 C151 1.399 . S
C152 C153 1.376 . S
C153 H140 0.930 . S
C153 C152 1.376 . S
C153 C154 1.388 . S
C154 H141 0.930 . S
C154 C153 1.388 . S
C154 C155 1.390 . S
C155 C154 1.390 . S
C155 C156 1.394 . S
C155 C161 1.465 . S
C156 C151 1.399 . S
C156 C155 1.394 . S
C156 C157 1.516 . S
C157 C156 1.516 . S
C157 C158 1.502 . S
C157 C159 1.561 . S
C157 C160 1.526 . S
C158 H142 0.959 . S
C158 H143 0.959 . S
C158 H144 0.961 . S
C158 C157 1.502 . S
C159 H145 0.960 . S
C159 H146 0.961 . S
C159 H147 0.959 . S
C159 C157 1.561 . S
C160 C157 1.526 . S
C160 C161 1.396 . S
C160 C165 1.390 . S
C161 C155 1.465 . S
C161 C160 1.396 . S
C161 C162 1.399 . S
C162 H148 0.929 . S
C162 C161 1.399 . S
C162 C163 1.385 . S
C163 H149 0.931 . S
C163 C162 1.385 . S
C163 C164 1.389 . S
C164 C163 1.389 . S
C164 C165 1.387 . S
C165 H150 0.930 . S
C165 C160 1.390 . S
C165 C164 1.387 . S
H166 C178 0.930 . S
H167 C180 0.930 . S
H168 C181 0.930 1_556 S
H169 C185 0.959 . S
H170 C185 0.959 . S
H171 C185 0.961 . S
H172 C186 0.960 . S
H173 C186 0.961 . S
H174 C186 0.959 . S
H175 C189 0.929 . S
H176 C190 0.931 . S
H177 C192 0.930 . S
C178 H166 0.930 . S
C178 C179 1.399 . S
C178 C183 1.399 . S
C179 C178 1.399 . S
C179 C180 1.376 . S
C180 H167 0.930 . S
C180 C179 1.376 . S
C180 C181 1.388 . S
C181 H168 0.930 1_554 S
C181 C180 1.388 . S
C181 C182 1.390 . S
C182 C181 1.390 . S
C182 C183 1.394 . S
C182 C188 1.464 1_554 S
C183 C178 1.399 . S
C183 C182 1.394 . S
C183 C184 1.516 1_565 S
C184 C183 1.516 1_545 S
C184 C185 1.502 . S
C184 C186 1.561 . S
C184 C187 1.526 1_554 S
C185 H169 0.959 . S
C185 H170 0.959 . S
C185 H171 0.961 . S
C185 C184 1.502 . S
C186 H172 0.960 . S
C186 H173 0.961 . S
C186 H174 0.959 . S
C186 C184 1.561 . S
C187 C184 1.526 1_556 S
C187 C188 1.398 1_545 S
C187 C192 1.390 . S
C188 C182 1.464 1_556 S
C188 C187 1.398 1_565 S
C188 C189 1.399 . S
C189 H175 0.929 . S
C189 C188 1.399 . S
C189 C190 1.385 1_565 S
C190 H176 0.931 . S
C190 C189 1.385 1_545 S
C190 C191 1.389 . S
C191 C190 1.389 . S
C191 C192 1.387 . S
C192 H177 0.930 . S
C192 C187 1.390 . S
C192 C191 1.387 . S
H193 C205 0.930 . S
H194 C207 0.930 . S
H195 C208 0.930 . S
H196 C212 0.959 . S
H197 C212 0.959 1_455 S
H198 C212 0.961 . S
H199 C213 0.960 . S
H200 C213 0.961 . S
H201 C213 0.959 . S
H202 C216 0.929 . S
H203 C217 0.931 . S
H204 C219 0.930 . S
C205 H193 0.930 . S
C205 C206 1.399 1_565 S
C205 C210 1.399 . S
C206 C205 1.399 1_545 S
C206 C207 1.376 . S
C207 H194 0.930 . S
C207 C206 1.376 . S
C207 C208 1.388 . S
C208 H195 0.930 . S
C208 C207 1.388 . S
C208 C209 1.390 . S
C209 C208 1.390 . S
C209 C210 1.394 1_545 S
C209 C215 1.465 1_655 S
C210 C205 1.399 . S
C210 C209 1.394 1_565 S
C210 C211 1.516 1_655 S
C211 C210 1.516 1_455 S
C211 C212 1.502 1_455 S
C211 C213 1.561 . S
C211 C214 1.526 . S
C212 H196 0.959 . S
C212 H197 0.959 1_655 S
C212 H198 0.961 . S
C212 C211 1.502 1_655 S
C213 H199 0.960 . S
C213 H200 0.961 . S
C213 H201 0.959 . S
C213 C211 1.561 . S
C214 C211 1.526 . S
C214 C215 1.396 1_565 S
C214 C219 1.390 . S
C215 C209 1.465 1_455 S
C215 C214 1.396 1_545 S
C215 C216 1.399 . S
C216 H202 0.929 . S
C216 C215 1.399 . S
C216 C217 1.385 . S
C217 H203 0.931 . S
C217 C216 1.385 . S
C217 C218 1.389 1_545 S
C218 C217 1.389 1_565 S
C218 C219 1.387 . S
C219 H204 0.930 . S
C219 C214 1.390 . S
C219 C218 1.387 . S
H220 C232 0.930 . S
H221 C234 0.930 . S
H222 C235 0.930 . S
H223 C239 0.959 . S
H224 C239 0.959 . S
H225 C239 0.961 . S
H226 C240 0.960 . S
H227 C240 0.961 . S
H228 C240 0.959 . S
H229 C243 0.929 . S
H230 C244 0.931 . S
H231 C246 0.930 . S
C232 H220 0.930 . S
C232 C233 1.399 . S
C232 C237 1.399 . S
C233 C232 1.399 . S
C233 C234 1.376 . S
C234 H221 0.930 . S
C234 C233 1.376 . S
C234 C235 1.388 . S
C235 H222 0.930 . S
C235 C234 1.388 . S
C235 C236 1.390 . S
C236 C235 1.390 . S
C236 C237 1.394 . S
C236 C242 1.465 . S
C237 C232 1.399 . S
C237 C236 1.394 . S
C237 C238 1.516 . S
C238 C237 1.516 . S
C238 C239 1.502 . S
C238 C240 1.561 . S
C238 C241 1.526 . S
C239 H223 0.959 . S
C239 H224 0.959 . S
C239 H225 0.961 . S
C239 C238 1.502 . S
C240 H226 0.960 . S
C240 H227 0.961 . S
C240 H228 0.959 . S
C240 C238 1.561 . S
C241 C238 1.526 . S
C241 C242 1.396 . S
C241 C246 1.390 . S
C242 C236 1.465 . S
C242 C241 1.396 . S
C242 C243 1.399 . S
C243 H229 0.929 . S
C243 C242 1.399 . S
C243 C244 1.385 . S
C244 H230 0.931 . S
C244 C243 1.385 . S
C244 C245 1.389 . S
C245 C244 1.389 . S
C245 C246 1.387 . S
C246 H231 0.930 . S
C246 C241 1.390 . S
C246 C245 1.387 . S
H247 C259 0.930 . S
H248 C261 0.930 . S
H249 C262 0.930 . S
H250 C266 0.959 . S
H251 C266 0.959 . S
H252 C266 0.961 . S
H253 C267 0.960 . S
H254 C267 0.961 . S
H255 C267 0.959 . S
H256 C270 0.929 . S
H257 C271 0.931 . S
H258 C273 0.930 . S
C259 H247 0.930 . S
C259 C260 1.399 . S
C259 C264 1.399 . S
C260 C259 1.399 . S
C260 C261 1.376 . S
C261 H248 0.930 . S
C261 C260 1.376 . S
C261 C262 1.388 . S
C262 H249 0.930 . S
C262 C261 1.388 . S
C262 C263 1.390 . S
C263 C262 1.390 . S
C263 C264 1.394 . S
C263 C269 1.465 . S
C264 C259 1.399 . S
C264 C263 1.394 . S
C264 C265 1.516 . S
C265 C264 1.516 . S
C265 C266 1.502 . S
C265 C267 1.561 . S
C265 C268 1.526 . S
C266 H250 0.959 . S
C266 H251 0.959 . S
C266 H252 0.961 . S
C266 C265 1.502 . S
C267 H253 0.960 . S
C267 H254 0.961 . S
C267 H255 0.959 . S
C267 C265 1.561 . S
C268 C265 1.526 . S
C268 C269 1.396 . S
C268 C273 1.390 . S
C269 C263 1.465 . S
C269 C268 1.396 . S
C269 C270 1.399 . S
C270 H256 0.929 . S
C270 C269 1.399 . S
C270 C271 1.385 . S
C271 H257 0.931 . S
C271 C270 1.385 . S
C271 C272 1.389 . S
C272 C271 1.389 . S
C272 C273 1.387 . S
C273 H258 0.930 . S
C273 C268 1.390 . S
C273 C272 1.387 . S
H274 C286 0.930 . S
H275 C288 0.930 . S
H276 C289 0.930 . S
H277 C293 0.959 . S
H278 C293 0.959 . S
H279 C293 0.961 . S
H280 C294 0.960 . S
H281 C294 0.961 . S
H282 C294 0.959 . S
H283 C297 0.929 . S
H284 C298 0.931 . S
H285 C300 0.930 . S
C286 H274 0.930 . S
C286 C287 1.399 . S
C286 C291 1.399 . S
C287 C286 1.399 . S
C287 C288 1.376 . S
C288 H275 0.930 . S
C288 C287 1.376 . S
C288 C289 1.388 . S
C289 H276 0.930 . S
C289 C288 1.388 . S
C289 C290 1.390 . S
C290 C289 1.390 . S
C290 C291 1.394 . S
C290 C296 1.465 . S
C291 C286 1.399 . S
C291 C290 1.394 . S
C291 C292 1.516 . S
C292 C291 1.516 . S
C292 C293 1.502 . S
C292 C294 1.561 . S
C292 C295 1.526 . S
C293 H277 0.959 . S
C293 H278 0.959 . S
C293 H279 0.961 . S
C293 C292 1.502 . S
C294 H280 0.960 . S
C294 H281 0.961 . S
C294 H282 0.959 . S
C294 C292 1.561 . S
C295 C292 1.526 . S
C295 C296 1.396 . S
C295 C300 1.390 . S
C296 C290 1.465 . S
C296 C295 1.396 . S
C296 C297 1.399 . S
C297 H283 0.929 . S
C297 C296 1.399 . S
C297 C298 1.385 . S
C298 H284 0.931 . S
C298 C297 1.385 . S
C298 C299 1.389 . S
C299 C298 1.389 . S
C299 C300 1.387 . S
C300 H285 0.930 . S
C300 C295 1.390 . S
C300 C299 1.387 . S
H301 C313 0.930 . S
H302 C315 0.930 . S
H303 C316 0.930 . S
H304 C320 0.959 . S
H305 C320 0.959 . S
H306 C320 0.961 . S
H307 C321 0.960 . S
H308 C321 0.961 . S
H309 C321 0.959 . S
H310 C324 0.929 . S
H311 C325 0.931 . S
H312 C327 0.930 . S
C313 H301 0.930 . S
C313 C314 1.399 . S
C313 C318 1.399 . S
C314 C313 1.399 . S
C314 C315 1.376 . S
C315 H302 0.930 . S
C315 C314 1.376 . S
C315 C316 1.388 . S
C316 H303 0.930 . S
C316 C315 1.388 . S
C316 C317 1.390 . S
C317 C316 1.390 . S
C317 C318 1.394 . S
C317 C323 1.465 . S
C318 C313 1.399 . S
C318 C317 1.394 . S
C318 C319 1.516 . S
C319 C318 1.516 . S
C319 C320 1.502 . S
C319 C321 1.561 . S
C319 C322 1.526 . S
C320 H304 0.959 . S
C320 H305 0.959 . S
C320 H306 0.961 . S
C320 C319 1.502 . S
C321 H307 0.960 . S
C321 H308 0.961 . S
C321 H309 0.959 . S
C321 C319 1.561 . S
C322 C319 1.526 . S
C322 C323 1.396 . S
C322 C327 1.390 . S
C323 C317 1.465 . S
C323 C322 1.396 . S
C323 C324 1.399 . S
C324 H310 0.929 . S
C324 C323 1.399 . S
C324 C325 1.385 . S
C325 H311 0.931 . S
C325 C324 1.385 . S
C325 C326 1.389 . S
C326 C325 1.389 . S
C326 C327 1.387 . S
C327 H312 0.930 . S
C327 C322 1.390 . S
C327 C326 1.387 . S
H328 C340 0.930 . S
H329 C342 0.930 . S
H330 C343 0.930 . S
H331 C347 0.959 . S
H332 C347 0.959 . S
H333 C347 0.961 . S
H334 C348 0.960 . S
H335 C348 0.961 . S
H336 C348 0.959 . S
H337 C351 0.929 . S
H338 C352 0.931 . S
H339 C354 0.930 . S
C340 H328 0.930 . S
C340 C341 1.399 . S
C340 C345 1.399 . S
C341 C340 1.399 . S
C341 C342 1.376 . S
C342 H329 0.930 . S
C342 C341 1.376 . S
C342 C343 1.388 . S
C343 H330 0.930 . S
C343 C342 1.388 . S
C343 C344 1.390 . S
C344 C343 1.390 . S
C344 C345 1.394 . S
C344 C350 1.465 . S
C345 C340 1.399 . S
C345 C344 1.394 . S
C345 C346 1.516 . S
C346 C345 1.516 . S
C346 C347 1.502 . S
C346 C348 1.561 . S
C346 C349 1.526 . S
C347 H331 0.959 . S
C347 H332 0.959 . S
C347 H333 0.961 . S
C347 C346 1.502 . S
C348 H334 0.960 . S
C348 H335 0.961 . S
C348 H336 0.959 . S
C348 C346 1.561 . S
C349 C346 1.526 . S
C349 C350 1.396 . S
C349 C354 1.390 . S
C350 C344 1.465 . S
C350 C349 1.396 . S
C350 C351 1.399 . S
C351 H337 0.929 . S
C351 C350 1.399 . S
C351 C352 1.385 . S
C352 H338 0.931 . S
C352 C351 1.385 . S
C352 C353 1.389 . S
C353 C352 1.389 . S
C353 C354 1.387 . S
C354 H339 0.930 . S
C354 C349 1.390 . S
C354 C353 1.387 . S
H355 C367 0.930 . S
H356 C369 0.930 . S
H357 C370 0.930 . S
H358 C374 0.959 . S
H359 C374 0.959 . S
H360 C374 0.961 . S
H361 C375 0.960 . S
H362 C375 0.961 . S
H363 C375 0.959 . S
H364 C378 0.929 . S
H365 C379 0.931 . S
H366 C381 0.930 . S
C367 H355 0.930 . S
C367 C368 1.399 . S
C367 C372 1.399 . S
C368 C367 1.399 . S
C368 C369 1.376 . S
C369 H356 0.930 . S
C369 C368 1.376 . S
C369 C370 1.388 . S
C370 H357 0.930 . S
C370 C369 1.388 . S
C370 C371 1.390 . S
C371 C370 1.390 . S
C371 C372 1.394 . S
C371 C377 1.465 . S
C372 C367 1.399 . S
C372 C371 1.394 . S
C372 C373 1.516 . S
C373 C372 1.516 . S
C373 C374 1.502 . S
C373 C375 1.561 . S
C373 C376 1.526 . S
C374 H358 0.959 . S
C374 H359 0.959 . S
C374 H360 0.961 . S
C374 C373 1.502 . S
C375 H361 0.960 . S
C375 H362 0.961 . S
C375 H363 0.959 . S
C375 C373 1.561 . S
C376 C373 1.526 . S
C376 C377 1.396 . S
C376 C381 1.390 . S
C377 C371 1.465 . S
C377 C376 1.396 . S
C377 C378 1.399 . S
C378 H364 0.929 . S
C378 C377 1.399 . S
C378 C379 1.385 . S
C379 H365 0.931 . S
C379 C378 1.385 . S
C379 C380 1.389 . S
C380 C379 1.389 . S
C380 C381 1.387 . S
C381 H366 0.930 . S
C381 C376 1.390 . S
C381 C380 1.387 . S
H382 C394 0.930 . S
H383 C396 0.930 . S
H384 C397 0.930 . S
H385 C401 0.959 . S
H386 C401 0.959 . S
H387 C401 0.961 . S
H388 C402 0.960 . S
H389 C402 0.961 . S
H390 C402 0.959 . S
H391 C405 0.929 1_545 S
H392 C406 0.931 . S
H393 C408 0.930 . S
C394 H382 0.930 . S
C394 C395 1.399 . S
C394 C399 1.399 . S
C395 C394 1.399 . S
C395 C396 1.376 . S
C396 H383 0.930 . S
C396 C395 1.376 . S
C396 C397 1.388 . S
C397 H384 0.930 . S
C397 C396 1.388 . S
C397 C398 1.390 . S
C398 C397 1.390 . S
C398 C399 1.394 . S
C398 C404 1.465 . S
C399 C394 1.399 . S
C399 C398 1.394 . S
C399 C400 1.516 . S
C400 C399 1.516 . S
C400 C401 1.502 . S
C400 C402 1.561 . S
C400 C403 1.526 . S
C401 H385 0.959 . S
C401 H386 0.959 . S
C401 H387 0.961 . S
C401 C400 1.502 . S
C402 H388 0.960 . S
C402 H389 0.961 . S
C402 H390 0.959 . S
C402 C400 1.561 . S
C403 C400 1.526 . S
C403 C404 1.396 . S
C403 C408 1.390 . S
C404 C398 1.465 . S
C404 C403 1.396 . S
C404 C405 1.399 . S
C405 H391 0.929 1_565 S
C405 C404 1.399 . S
C405 C406 1.385 1_565 S
C406 H392 0.931 . S
C406 C405 1.385 1_545 S
C406 C407 1.389 1_545 S
C407 C406 1.389 1_565 S
C407 C408 1.387 . S
C408 H393 0.930 . S
C408 C403 1.390 . S
C408 C407 1.387 . S
H409 C421 0.930 . S
H410 C423 0.930 . S
H411 C424 0.930 . S
H412 C428 0.959 . S
H413 C428 0.959 . S
H414 C428 0.961 . S
H415 C429 0.960 . S
H416 C429 0.961 . S
H417 C429 0.959 . S
H418 C432 0.929 . S
H419 C433 0.931 . S
H420 C435 0.930 . S
C421 H409 0.930 . S
C421 C422 1.399 . S
C421 C426 1.399 . S
C422 C421 1.399 . S
C422 C423 1.376 . S
C423 H410 0.930 . S
C423 C422 1.376 . S
C423 C424 1.388 . S
C424 H411 0.930 . S
C424 C423 1.388 . S
C424 C425 1.390 . S
C425 C424 1.390 . S
C425 C426 1.394 . S
C425 C431 1.465 . S
C426 C421 1.399 . S
C426 C425 1.394 . S
C426 C427 1.516 . S
C427 C426 1.516 . S
C427 C428 1.502 . S
C427 C429 1.561 . S
C427 C430 1.526 . S
C428 H412 0.959 . S
C428 H413 0.959 . S
C428 H414 0.961 . S
C428 C427 1.502 . S
C429 H415 0.960 . S
C429 H416 0.961 . S
C429 H417 0.959 . S
C429 C427 1.561 . S
C430 C427 1.526 . S
C430 C431 1.396 . S
C430 C435 1.390 . S
C431 C425 1.465 . S
C431 C430 1.396 . S
C431 C432 1.399 . S
C432 H418 0.929 . S
C432 C431 1.399 . S
C432 C433 1.385 . S
C433 H419 0.931 . S
C433 C432 1.385 . S
C433 C434 1.389 . S
C434 C433 1.389 . S
C434 C435 1.387 . S
C435 H420 0.930 . S
C435 C430 1.390 . S
C435 C434 1.387 . S
H436 C448 0.930 . S
H437 C450 0.930 . S
H438 C451 0.930 . S
H439 C455 0.959 . S
H440 C455 0.959 . S
H441 C455 0.961 . S
H442 C456 0.960 . S
H443 C456 0.961 . S
H444 C456 0.959 . S
H445 C459 0.929 . S
H446 C460 0.931 . S
H447 C462 0.930 . S
C448 H436 0.930 . S
C448 C449 1.399 . S
C448 C453 1.399 . S
C449 C448 1.399 . S
C449 C450 1.376 . S
C450 H437 0.930 . S
C450 C449 1.376 . S
C450 C451 1.388 . S
C451 H438 0.930 . S
C451 C450 1.388 . S
C451 C452 1.390 . S
C452 C451 1.390 . S
C452 C453 1.394 . S
C452 C458 1.465 . S
C453 C448 1.399 . S
C453 C452 1.394 . S
C453 C454 1.516 . S
C454 C453 1.516 . S
C454 C455 1.502 . S
C454 C456 1.561 . S
C454 C457 1.526 . S
C455 H439 0.959 . S
C455 H440 0.959 . S
C455 H441 0.961 . S
C455 C454 1.502 . S
C456 H442 0.960 . S
C456 H443 0.961 . S
C456 H444 0.959 . S
C456 C454 1.561 . S
C457 C454 1.526 . S
C457 C458 1.396 . S
C457 C462 1.390 . S
C458 C452 1.465 . S
C458 C457 1.396 . S
C458 C459 1.399 . S
C459 H445 0.929 . S
C459 C458 1.399 . S
C459 C460 1.385 . S
C460 H446 0.931 . S
C460 C459 1.385 . S
C460 C461 1.389 . S
C461 C460 1.389 . S
C461 C462 1.387 . S
C462 H447 0.930 . S
C462 C457 1.390 . S
C462 C461 1.387 . S
H463 C475 0.930 . S
H464 C477 0.930 . S
H465 C478 0.930 . S
H466 C482 0.959 . S
H467 C482 0.959 . S
H468 C482 0.961 . S
H469 C483 0.960 . S
H470 C483 0.961 . S
H471 C483 0.959 . S
H472 C486 0.929 . S
H473 C487 0.931 . S
H474 C489 0.930 . S
C475 H463 0.930 . S
C475 C476 1.399 . S
C475 C480 1.399 . S
C476 C475 1.399 . S
C476 C477 1.376 . S
C477 H464 0.930 . S
C477 C476 1.376 . S
C477 C478 1.388 . S
C478 H465 0.930 . S
C478 C477 1.388 . S
C478 C479 1.390 . S
C479 C478 1.390 . S
C479 C480 1.394 . S
C479 C485 1.465 . S
C480 C475 1.399 . S
C480 C479 1.394 . S
C480 C481 1.516 . S
C481 C480 1.516 . S
C481 C482 1.502 . S
C481 C483 1.561 . S
C481 C484 1.526 . S
C482 H466 0.959 . S
C482 H467 0.959 . S
C482 H468 0.961 . S
C482 C481 1.502 . S
C483 H469 0.960 . S
C483 H470 0.961 . S
C483 H471 0.959 . S
C483 C481 1.561 . S
C484 C481 1.526 . S
C484 C485 1.396 . S
C484 C489 1.390 . S
C485 C479 1.465 . S
C485 C484 1.396 . S
C485 C486 1.399 . S
C486 H472 0.929 . S
C486 C485 1.399 . S
C486 C487 1.385 . S
C487 H473 0.931 . S
C487 C486 1.385 . S
C487 C488 1.389 . S
C488 C487 1.389 . S
C488 C489 1.387 . S
C489 H474 0.930 . S
C489 C484 1.390 . S
C489 C488 1.387 . S
H490 C502 0.930 . S
H491 C504 0.930 . S
H492 C505 0.930 . S
H493 C509 0.959 . S
H494 C509 0.959 . S
H495 C509 0.961 . S
H496 C510 0.960 . S
H497 C510 0.961 . S
H498 C510 0.959 . S
H499 C513 0.929 1_565 S
H500 C514 0.931 . S
H501 C516 0.930 . S
C502 H490 0.930 . S
C502 C503 1.399 . S
C502 C507 1.399 . S
C503 C502 1.399 . S
C503 C504 1.376 . S
C504 H491 0.930 . S
C504 C503 1.376 . S
C504 C505 1.388 . S
C505 H492 0.930 . S
C505 C504 1.388 . S
C505 C506 1.390 . S
C506 C505 1.390 . S
C506 C507 1.394 . S
C506 C512 1.465 . S
C507 C502 1.399 . S
C507 C506 1.394 . S
C507 C508 1.516 . S
C508 C507 1.516 . S
C508 C509 1.502 . S
C508 C510 1.561 . S
C508 C511 1.526 . S
C509 H493 0.959 . S
C509 H494 0.959 . S
C509 H495 0.961 . S
C509 C508 1.502 . S
C510 H496 0.960 . S
C510 H497 0.961 . S
C510 H498 0.959 . S
C510 C508 1.561 . S
C511 C508 1.526 . S
C511 C512 1.396 . S
C511 C516 1.390 . S
C512 C506 1.465 . S
C512 C511 1.396 . S
C512 C513 1.399 . S
C513 H499 0.929 1_545 S
C513 C512 1.399 . S
C513 C514 1.385 1_545 S
C514 H500 0.931 . S
C514 C513 1.385 1_565 S
C514 C515 1.389 1_565 S
C515 C514 1.389 1_545 S
C515 C516 1.387 . S
C516 H501 0.930 . S
C516 C511 1.390 . S
C516 C515 1.387 . S
H517 C529 0.926 1_455 S
H518 C531 0.930 . S
H519 C532 0.930 . S
H520 C536 0.959 . S
H521 C536 0.959 . S
H522 C536 0.961 . S
H523 C537 0.960 . S
H524 C537 0.961 . S
H525 C537 0.959 . S
H526 C540 0.929 . S
H527 C541 0.931 . S
H528 C543 0.930 . S
C529 H517 0.926 1_655 S
C529 C530 1.399 . S
C529 C534 1.399 . S
C530 C529 1.399 . S
C530 C531 1.376 . S
C531 H518 0.930 . S
C531 C530 1.376 . S
C531 C532 1.388 . S
C532 H519 0.930 . S
C532 C531 1.388 . S
C532 C533 1.390 . S
C533 C532 1.390 . S
C533 C534 1.394 . S
C533 C539 1.465 . S
C534 C529 1.399 . S
C534 C533 1.394 . S
C534 C535 1.516 . S
C535 C534 1.516 . S
C535 C536 1.502 . S
C535 C537 1.561 1_655 S
C535 C538 1.526 . S
C536 H520 0.959 . S
C536 H521 0.959 . S
C536 H522 0.961 . S
C536 C535 1.502 . S
C537 H523 0.960 . S
C537 H524 0.961 . S
C537 H525 0.959 . S
C537 C535 1.561 1_455 S
C538 C535 1.526 . S
C538 C539 1.396 . S
C538 C543 1.390 . S
C539 C533 1.465 . S
C539 C538 1.396 . S
C539 C540 1.399 . S
C540 H526 0.929 . S
C540 C539 1.399 . S
C540 C541 1.385 . S
C541 H527 0.931 . S
C541 C540 1.385 . S
C541 C542 1.389 . S
C542 C541 1.389 . S
C542 C543 1.387 . S
C543 H528 0.930 . S
C543 C538 1.390 . S
C543 C542 1.387 . S
C125 C68 1.774 . S
C137 C13 1.743 . S
C152 C27 1.777 . S
C164 C71 1.727 . S
C179 C29 1.733 . S
C191 C84 1.770 . S
C206 C98 1.783 . S
C218 C42 1.726 . S
C233 C0 2.141 . S
C245 C40 2.145 . S
C260 C14 2.138 . S
C272 C55 2.146 . S
C287 C97 2.141 . S
C299 C57 2.141 . S
C314 C82 2.140 . S
C326 C111 2.138 . S
C341 C70 1.386 . S
C353 C1 1.388 . S
C368 C15 1.365 . S
C380 C85 1.415 . S
C395 C41 1.379 . S
C407 C99 1.415 . S
C422 C69 1.396 . S
C434 C54 1.348 . S
C449 C56 1.352 . S
C461 C26 1.415 . S
C476 C83 1.356 . S
C488 C28 1.415 . S
C503 C96 1.353 . S
C515 C43 1.415 . S
C530 C12 1.398 . S
C542 C110 1.360 . S
