# Generated by pormake.
# Topology unr, (4)-cn, num edge types: 1
# Building blocks:
#     Node 0, Type 0, BuildingBlock: CEKHIL_clean_sbu_0, # of connection points: 4
#     Node 1, Type 0, BuildingBlock: CEKHIL_clean_sbu_0, # of connection points: 4
#     Node 2, Type 0, BuildingBlock: CEKHIL_clean_sbu_0, # of connection points: 4
#     Node 3, Type 0, BuildingBlock: CEKHIL_clean_sbu_0, # of connection points: 4
#     Node 4, Type 0, BuildingBlock: CEKHIL_clean_sbu_0, # of connection points: 4
#     Node 5, Type 0, BuildingBlock: CEKHIL_clean_sbu_0, # of connection points: 4
#     Node 6, Type 0, BuildingBlock: CEKHIL_clean_sbu_0, # of connection points: 4
#     Node 7, Type 0, BuildingBlock: CEKHIL_clean_sbu_0, # of connection points: 4
#     Node 8, Type 0, BuildingBlock: CEKHIL_clean_sbu_0, # of connection points: 4
#     Node 9, Type 0, BuildingBlock: CEKHIL_clean_sbu_0, # of connection points: 4
#     Node 10, Type 0, BuildingBlock: CEKHIL_clean_sbu_0, # of connection points: 4
#     Node 11, Type 0, BuildingBlock: CEKHIL_clean_sbu_0, # of connection points: 4
#     Node 12, Type 0, BuildingBlock: CEKHIL_clean_sbu_0, # of connection points: 4
#     Node 13, Type 0, BuildingBlock: CEKHIL_clean_sbu_0, # of connection points: 4
#     Node 14, Type 0, BuildingBlock: CEKHIL_clean_sbu_0, # of connection points: 4
#     Node 15, Type 0, BuildingBlock: CEKHIL_clean_sbu_0, # of connection points: 4
#     Node 16, Type 0, BuildingBlock: CEKHIL_clean_sbu_0, # of connection points: 4
#     Node 17, Type 0, BuildingBlock: CEKHIL_clean_sbu_0, # of connection points: 4
#     Node 18, Type 0, BuildingBlock: CEKHIL_clean_sbu_0, # of connection points: 4
#     Node 19, Type 0, BuildingBlock: CEKHIL_clean_sbu_0, # of connection points: 4
#     Node 20, Type 0, BuildingBlock: CEKHIL_clean_sbu_0, # of connection points: 4
#     Node 21, Type 0, BuildingBlock: CEKHIL_clean_sbu_0, # of connection points: 4
#     Node 22, Type 0, BuildingBlock: CEKHIL_clean_sbu_0, # of connection points: 4
#     Node 23, Type 0, BuildingBlock: CEKHIL_clean_sbu_0, # of connection points: 4
#     Node 24, Type 0, BuildingBlock: CEKHIL_clean_sbu_0, # of connection points: 4
#     Node 25, Type 0, BuildingBlock: CEKHIL_clean_sbu_0, # of connection points: 4
#     Node 26, Type 0, BuildingBlock: CEKHIL_clean_sbu_0, # of connection points: 4
#     Node 27, Type 0, BuildingBlock: CEKHIL_clean_sbu_0, # of connection points: 4
#     Node 28, Type 0, BuildingBlock: CEKHIL_clean_sbu_0, # of connection points: 4
#     Node 29, Type 0, BuildingBlock: CEKHIL_clean_sbu_0, # of connection points: 4
#     Node 30, Type 0, BuildingBlock: CEKHIL_clean_sbu_0, # of connection points: 4
#     Node 31, Type 0, BuildingBlock: CEKHIL_clean_sbu_0, # of connection points: 4
#     Node 32, Type 0, BuildingBlock: CEKHIL_clean_sbu_0, # of connection points: 4
#     Node 33, Type 0, BuildingBlock: CEKHIL_clean_sbu_0, # of connection points: 4
#     Node 34, Type 0, BuildingBlock: CEKHIL_clean_sbu_0, # of connection points: 4
#     Node 35, Type 0, BuildingBlock: CEKHIL_clean_sbu_0, # of connection points: 4
#     Edge 36, Type (0, 0), BuildingBlock: CIFDUS_clean_linker_0, # of connection points: 2
#     Edge 37, Type (0, 0), BuildingBlock: CIFDUS_clean_linker_0, # of connection points: 2
#     Edge 38, Type (0, 0), BuildingBlock: CIFDUS_clean_linker_0, # of connection points: 2
#     Edge 39, Type (0, 0), BuildingBlock: CIFDUS_clean_linker_0, # of connection points: 2
#     Edge 40, Type (0, 0), BuildingBlock: CIFDUS_clean_linker_0, # of connection points: 2
#     Edge 41, Type (0, 0), BuildingBlock: CIFDUS_clean_linker_0, # of connection points: 2
#     Edge 42, Type (0, 0), BuildingBlock: CIFDUS_clean_linker_0, # of connection points: 2
#     Edge 43, Type (0, 0), BuildingBlock: CIFDUS_clean_linker_0, # of connection points: 2
#     Edge 44, Type (0, 0), BuildingBlock: CIFDUS_clean_linker_0, # of connection points: 2
#     Edge 45, Type (0, 0), BuildingBlock: CIFDUS_clean_linker_0, # of connection points: 2
#     Edge 46, Type (0, 0), BuildingBlock: CIFDUS_clean_linker_0, # of connection points: 2
#     Edge 47, Type (0, 0), BuildingBlock: CIFDUS_clean_linker_0, # of connection points: 2
#     Edge 48, Type (0, 0), BuildingBlock: CIFDUS_clean_linker_0, # of connection points: 2
#     Edge 49, Type (0, 0), BuildingBlock: CIFDUS_clean_linker_0, # of connection points: 2
#     Edge 50, Type (0, 0), BuildingBlock: CIFDUS_clean_linker_0, # of connection points: 2
#     Edge 51, Type (0, 0), BuildingBlock: CIFDUS_clean_linker_0, # of connection points: 2
#     Edge 52, Type (0, 0), BuildingBlock: CIFDUS_clean_linker_0, # of connection points: 2
#     Edge 53, Type (0, 0), BuildingBlock: CIFDUS_clean_linker_0, # of connection points: 2
#     Edge 54, Type (0, 0), BuildingBlock: CIFDUS_clean_linker_0, # of connection points: 2
#     Edge 55, Type (0, 0), BuildingBlock: CIFDUS_clean_linker_0, # of connection points: 2
#     Edge 56, Type (0, 0), BuildingBlock: CIFDUS_clean_linker_0, # of connection points: 2
#     Edge 57, Type (0, 0), BuildingBlock: CIFDUS_clean_linker_0, # of connection points: 2
#     Edge 58, Type (0, 0), BuildingBlock: CIFDUS_clean_linker_0, # of connection points: 2
#     Edge 59, Type (0, 0), BuildingBlock: CIFDUS_clean_linker_0, # of connection points: 2
#     Edge 60, Type (0, 0), BuildingBlock: CIFDUS_clean_linker_0, # of connection points: 2
#     Edge 61, Type (0, 0), BuildingBlock: CIFDUS_clean_linker_0, # of connection points: 2
#     Edge 62, Type (0, 0), BuildingBlock: CIFDUS_clean_linker_0, # of connection points: 2
#     Edge 63, Type (0, 0), BuildingBlock: CIFDUS_clean_linker_0, # of connection points: 2
#     Edge 64, Type (0, 0), BuildingBlock: CIFDUS_clean_linker_0, # of connection points: 2
#     Edge 65, Type (0, 0), BuildingBlock: CIFDUS_clean_linker_0, # of connection points: 2
#     Edge 66, Type (0, 0), BuildingBlock: CIFDUS_clean_linker_0, # of connection points: 2
#     Edge 67, Type (0, 0), BuildingBlock: CIFDUS_clean_linker_0, # of connection points: 2
#     Edge 68, Type (0, 0), BuildingBlock: CIFDUS_clean_linker_0, # of connection points: 2
#     Edge 69, Type (0, 0), BuildingBlock: CIFDUS_clean_linker_0, # of connection points: 2
#     Edge 70, Type (0, 0), BuildingBlock: CIFDUS_clean_linker_0, # of connection points: 2
#     Edge 71, Type (0, 0), BuildingBlock: CIFDUS_clean_linker_0, # of connection points: 2
#     Edge 72, Type (0, 0), BuildingBlock: CIFDUS_clean_linker_0, # of connection points: 2
#     Edge 73, Type (0, 0), BuildingBlock: CIFDUS_clean_linker_0, # of connection points: 2
#     Edge 74, Type (0, 0), BuildingBlock: CIFDUS_clean_linker_0, # of connection points: 2
#     Edge 75, Type (0, 0), BuildingBlock: CIFDUS_clean_linker_0, # of connection points: 2
#     Edge 76, Type (0, 0), BuildingBlock: CIFDUS_clean_linker_0, # of connection points: 2
#     Edge 77, Type (0, 0), BuildingBlock: CIFDUS_clean_linker_0, # of connection points: 2
#     Edge 78, Type (0, 0), BuildingBlock: CIFDUS_clean_linker_0, # of connection points: 2
#     Edge 79, Type (0, 0), BuildingBlock: CIFDUS_clean_linker_0, # of connection points: 2
#     Edge 80, Type (0, 0), BuildingBlock: CIFDUS_clean_linker_0, # of connection points: 2
#     Edge 81, Type (0, 0), BuildingBlock: CIFDUS_clean_linker_0, # of connection points: 2
#     Edge 82, Type (0, 0), BuildingBlock: CIFDUS_clean_linker_0, # of connection points: 2
#     Edge 83, Type (0, 0), BuildingBlock: CIFDUS_clean_linker_0, # of connection points: 2
#     Edge 84, Type (0, 0), BuildingBlock: CIFDUS_clean_linker_0, # of connection points: 2
#     Edge 85, Type (0, 0), BuildingBlock: CIFDUS_clean_linker_0, # of connection points: 2
#     Edge 86, Type (0, 0), BuildingBlock: CIFDUS_clean_linker_0, # of connection points: 2
#     Edge 87, Type (0, 0), BuildingBlock: CIFDUS_clean_linker_0, # of connection points: 2
#     Edge 88, Type (0, 0), BuildingBlock: CIFDUS_clean_linker_0, # of connection points: 2
#     Edge 89, Type (0, 0), BuildingBlock: CIFDUS_clean_linker_0, # of connection points: 2
#     Edge 90, Type (0, 0), BuildingBlock: CIFDUS_clean_linker_0, # of connection points: 2
#     Edge 91, Type (0, 0), BuildingBlock: CIFDUS_clean_linker_0, # of connection points: 2
#     Edge 92, Type (0, 0), BuildingBlock: CIFDUS_clean_linker_0, # of connection points: 2
#     Edge 93, Type (0, 0), BuildingBlock: CIFDUS_clean_linker_0, # of connection points: 2
#     Edge 94, Type (0, 0), BuildingBlock: CIFDUS_clean_linker_0, # of connection points: 2
#     Edge 95, Type (0, 0), BuildingBlock: CIFDUS_clean_linker_0, # of connection points: 2
#     Edge 96, Type (0, 0), BuildingBlock: CIFDUS_clean_linker_0, # of connection points: 2
#     Edge 97, Type (0, 0), BuildingBlock: CIFDUS_clean_linker_0, # of connection points: 2
#     Edge 98, Type (0, 0), BuildingBlock: CIFDUS_clean_linker_0, # of connection points: 2
#     Edge 99, Type (0, 0), BuildingBlock: CIFDUS_clean_linker_0, # of connection points: 2
#     Edge 100, Type (0, 0), BuildingBlock: CIFDUS_clean_linker_0, # of connection points: 2
#     Edge 101, Type (0, 0), BuildingBlock: CIFDUS_clean_linker_0, # of connection points: 2
#     Edge 102, Type (0, 0), BuildingBlock: CIFDUS_clean_linker_0, # of connection points: 2
#     Edge 103, Type (0, 0), BuildingBlock: CIFDUS_clean_linker_0, # of connection points: 2
#     Edge 104, Type (0, 0), BuildingBlock: CIFDUS_clean_linker_0, # of connection points: 2
#     Edge 105, Type (0, 0), BuildingBlock: CIFDUS_clean_linker_0, # of connection points: 2
#     Edge 106, Type (0, 0), BuildingBlock: CIFDUS_clean_linker_0, # of connection points: 2
#     Edge 107, Type (0, 0), BuildingBlock: CIFDUS_clean_linker_0, # of connection points: 2
# Relax obj value: 0.389
# Max RMSD: 0.182
# Mean RMSD: 0.176
data_MOF--net-unr--node1-CEKHIL_clean_sbu_0--edge1-CIFDUS_clean_linker_0
_symmetry_space_group_name_H-M    P1
_symmetry_Int_Tables_number       1
_symmetry_cell_setting            triclinic
loop_
_symmetry_equiv_pos_as_xyz
'x, y, z'
_cell_length_a     42.789614
_cell_length_b     42.84232
_cell_length_c     87.056118
_cell_angle_alpha  90.071011
_cell_angle_beta   89.888245
_cell_angle_gamma 120.04129
loop_
_atom_site_label
_atom_site_type_symbol
_atom_site_fract_x
_atom_site_fract_y
_atom_site_fract_z
_atom_type_partial_charge
Co0 Co 0.2083 0.11696 0.19843 0.0
O1 O 0.24986 0.11289 0.19433 0.0
O2 O 0.21263 0.1121 0.17641 0.0
C3 C 0.23389 0.16427 0.21457 0.0
O4 O 0.16274 0.12117 0.19932 0.0
Co5 Co 0.1804 0.10212 0.23217 0.0
O6 O 0.15072 0.12254 0.22449 0.0
C7 C 0.16439 0.0411 0.21196 0.0
C8 C 0.24133 0.1104 0.17996 0.0
C9 C 0.14509 0.12568 0.21033 0.0
O10 O 0.17805 0.06298 0.20059 0.0
O11 O 0.16577 0.05161 0.22584 0.0
O12 O 0.23722 0.16945 0.19983 0.0
O13 O 0.22068 0.13116 0.21883 0.0
Co14 Co 0.88616 0.08545 0.20004 0.0
O15 O 0.89248 0.13089 0.19379 0.0
O16 O 0.89494 0.09152 0.17804 0.0
C17 C 0.83518 0.06666 0.21384 0.0
O18 O 0.87954 0.03508 0.20314 0.0
Co19 Co 0.89179 0.07471 0.23502 0.0
O20 O 0.87008 0.02364 0.22853 0.0
C21 C 0.95825 0.11658 0.21699 0.0
C22 C 0.89555 0.12202 0.17989 0.0
C23 C 0.87039 0.01353 0.21477 0.0
O24 O 0.9395 0.10822 0.20456 0.0
O25 O 0.94406 0.10859 0.2304 0.0
O26 O 0.83385 0.06362 0.19901 0.0
O27 O 0.86729 0.08615 0.2194 0.0
Co28 Co 0.92523 0.79615 0.2016 0.0
O29 O 0.87998 0.75869 0.19435 0.0
O30 O 0.92592 0.79482 0.17931 0.0
C31 C 0.93505 0.76416 0.21953 0.0
O32 O 0.97636 0.83726 0.20589 0.0
Co33 Co 0.9278 0.8206 0.2354 0.0
O34 O 0.98057 0.84462 0.23162 0.0
C35 C 0.89668 0.84568 0.21169 0.0
C36 C 0.8933 0.76742 0.18063 0.0
C37 C -0.00518 0.85103 0.21826 0.0
O38 O 0.90688 0.83137 0.20128 0.0
O39 O 0.89948 0.8416 0.22609 0.0
O40 O 0.94181 0.76194 0.20518 0.0
O41 O 0.91702 0.78049 0.22208 0.0
Co42 Co 0.11532 0.19925 0.29982 0.0
O43 O 0.10955 0.23992 0.30376 0.0
O44 O 0.11436 0.20617 0.32182 0.0
C45 C 0.1603 0.22566 0.28246 0.0
O46 O 0.12271 0.15575 0.2994 0.0
Co47 Co 0.0986 0.16717 0.26676 0.0
O48 O 0.12373 0.14194 0.27447 0.0
C49 C 0.0386 0.14951 0.28819 0.0
C50 C 0.11189 0.23438 0.31822 0.0
C51 C 0.12828 0.13823 0.2887 0.0
O52 O 0.06116 0.16595 0.29915 0.0
O53 O 0.04817 0.14994 0.27421 0.0
O54 O 0.1672 0.23051 0.29703 0.0
O55 O 0.12644 0.20982 0.27895 0.0
Co56 Co 0.78907 0.90699 0.29258 0.0
O57 O 0.74977 0.86029 0.29734 0.0
O58 O 0.78812 0.89816 0.31457 0.0
C59 C 0.75863 0.92602 0.27788 0.0
O60 O 0.83258 0.95825 0.29087 0.0
Co61 Co 0.81113 0.92033 0.25814 0.0
O62 O 0.83934 0.97083 0.26549 0.0
C63 C 0.83378 0.87836 0.27686 0.0
C64 C 0.75964 0.8671 0.31155 0.0
C65 C 0.84707 0.98038 0.2795 0.0
O66 O 0.82148 0.88601 0.28891 0.0
O67 O 0.82916 0.88652 0.26325 0.0
O68 O 0.75744 0.92765 0.29273 0.0
O69 O 0.77277 0.90755 0.27275 0.0
Co70 Co 0.08205 0.88142 0.3031 0.0
O71 O 0.12596 0.88461 0.30977 0.0
O72 O 0.08833 0.89189 0.32494 0.0
C73 C 0.05997 0.82958 0.28977 0.0
O74 O 0.03365 0.87885 0.29965 0.0
Co75 Co 0.07222 0.88615 0.26796 0.0
O76 O 0.02179 0.8701 0.27428 0.0
C77 C 0.1185 0.95244 0.28528 0.0
C78 C 0.11795 0.89059 0.3234 0.0
C79 C 0.01236 0.87167 0.28806 0.0
O80 O 0.10853 0.9345 0.29793 0.0
O81 O 0.10978 0.93753 0.27204 0.0
O82 O 0.05632 0.82887 0.30459 0.0
O83 O 0.0815 0.86101 0.28404 0.0
Co84 Co 0.83621 0.91203 0.81968 0.0
O85 O 0.79585 0.90954 0.80886 0.0
O86 O 0.79643 0.86318 0.81982 0.0
C87 C 0.8485 0.96175 0.83334 0.0
O88 O 0.87186 0.90406 0.8322 0.0
Co89 Co 0.91354 0.97851 0.81723 0.0
O90 O 0.92484 0.95562 0.83447 0.0
C91 C 0.88614 0.92184 0.79298 0.0
C92 C 0.77857 0.87552 0.81234 0.0
C93 C 0.90382 0.9226 0.83786 0.0
O94 O 0.85595 0.90286 0.80011 0.0
O95 O 0.91079 0.95301 0.79755 0.0
O96 O 0.82384 0.93024 0.83817 0.0
O97 O 0.86308 0.96222 0.82033 0.0
Co98 Co 0.10373 0.92425 0.82596 0.0
O99 O 0.10875 0.88315 0.82173 0.0
O100 O 0.15429 0.93832 0.82627 0.0
C101 C 0.05838 0.8968 0.84324 0.0
O102 O 0.10862 0.97295 0.83106 0.0
Co103 Co 0.03141 0.92214 0.81903 0.0
O104 O 0.05315 0.9666 0.8318 0.0
C105 C 0.08091 0.92972 0.79366 0.0
C106 C 0.14324 0.90465 0.82317 0.0
C107 C 0.08703 0.98476 0.83429 0.0
O108 O 0.10586 0.9347 0.80326 0.0
O109 O 0.0488 0.92114 0.79774 0.0
O110 O 0.09166 0.90996 0.84764 0.0
O111 O 0.05394 0.89801 0.82869 0.0
Co112 Co 0.06991 0.17828 0.81307 0.0
O113 O 0.10064 0.22176 0.8018 0.0
O114 O 0.05783 0.21475 0.81815 0.0
C115 C 0.11443 0.16774 0.82052 0.0
O116 O 0.03345 0.1386 0.82711 0.0
Co117 Co 0.06238 0.10421 0.805 0.0
O118 O 0.03949 0.08962 0.82554 0.0
C119 C 0.01954 0.1304 0.78807 0.0
C120 C 0.08345 0.23558 0.80871 0.0
C121 C 0.02621 0.10724 0.83184 0.0
O122 O 0.03344 0.1599 0.79585 0.0
O123 O 0.02842 0.10615 0.78973 0.0
O124 O 0.1081 0.18991 0.82831 0.0
O125 O 0.09558 0.15484 0.80823 0.0
Co126 Co 0.88967 0.80646 0.68234 0.0
O127 O 0.88463 0.76153 0.6889 0.0
O128 O 0.83933 0.7695 0.6817 0.0
C129 C 0.93655 0.82162 0.66618 0.0
O130 O 0.8847 0.84849 0.67458 0.0
Co131 Co 0.96091 0.87872 0.68821 0.0
O132 O 0.93904 0.89911 0.67424 0.0
C133 C 0.90837 0.84316 0.71356 0.0
C134 C 0.85034 0.74783 0.68643 0.0
C135 C 0.90548 0.88184 0.67104 0.0
O136 O 0.88509 0.81934 0.70431 0.0
O137 O 0.94054 0.86642 0.70948 0.0
O138 O 0.90376 0.80026 0.66151 0.0
O139 O 0.93974 0.83019 0.6805 0.0
Co140 Co 0.17379 0.05787 0.68281 0.0
O141 O 0.21924 0.09791 0.68926 0.0
O142 O 0.2121 0.04802 0.67829 0.0
C143 C 0.15324 0.09104 0.67093 0.0
O144 O 0.13245 0.01152 0.67408 0.0
Co145 Co 0.09937 0.04767 0.6927 0.0
O146 O 0.08035 0.01201 0.6757 0.0
C147 C 0.1398 0.02522 0.71349 0.0
C148 C 0.2338 0.07981 0.6839 0.0
C149 C 0.09894 -0.00159 0.67072 0.0
O150 O 0.16575 0.03472 0.70376 0.0
O151 O 0.1127 0.02971 0.71135 0.0
O152 O 0.17499 0.08306 0.66376 0.0
O153 O 0.14694 0.08113 0.68508 0.0
Co154 Co 0.9085 0.09755 0.67644 0.0
O155 O 0.86587 0.10143 0.6779 0.0
O156 O 0.9202 0.14607 0.67144 0.0
C157 C 0.88325 0.04566 0.66289 0.0
O158 O 0.95826 0.10322 0.67334 0.0
Co159 Co 0.91044 0.03183 0.69053 0.0
O160 O 0.95498 0.04995 0.67787 0.0
C161 C 0.91818 0.0913 0.71059 0.0
C162 C 0.88606 0.13469 0.67364 0.0
C163 C 0.97175 0.08231 0.67295 0.0
O164 O 0.91966 0.11033 0.69887 0.0
O165 O 0.91133 0.05862 0.70957 0.0
O166 O 0.89474 0.0762 0.65585 0.0
O167 O 0.88433 0.04741 0.67766 0.0
Co168 Co 0.8638 0.44032 0.54667 0.0
O169 O 0.91238 0.45163 0.5435 0.0
O170 O 0.88189 0.46743 0.52773 0.0
C171 C 0.86815 0.45556 0.57163 0.0
O172 O 0.81244 0.43222 0.54696 0.0
Co173 Co 0.8203 0.37514 0.56848 0.0
O174 O 0.78234 0.38757 0.56416 0.0
C175 C 0.83219 0.36079 0.53696 0.0
C176 C 0.91127 0.46656 0.53073 0.0
C177 C 0.78363 0.41069 0.55456 0.0
O178 O 0.84658 0.39476 0.53456 0.0
O179 O 0.82207 0.34685 0.55032 0.0
O180 O 0.87892 0.48016 0.56105 0.0
O181 O 0.86061 0.42392 0.56683 0.0
Co182 Co 0.52988 0.39697 0.54039 0.0
O183 O 0.54991 0.44263 0.55092 0.0
O184 O 0.55348 0.43554 0.52589 0.0
C185 C 0.47618 0.37274 0.55253 0.0
O186 O 0.51208 0.35603 0.52496 0.0
Co187 Co 0.50063 0.32252 0.55596 0.0
O188 O 0.48107 0.30123 0.53551 0.0
C189 C 0.58013 0.37157 0.55156 0.0
C190 C 0.55954 0.45722 0.53738 0.0
C191 C 0.49282 0.32157 0.52375 0.0
O192 O 0.57542 0.39454 0.54381 0.0
O193 O 0.55415 0.34371 0.55799 0.0
O194 O 0.48203 0.39312 0.5406 0.0
O195 O 0.5025 0.36842 0.55684 0.0
Co196 Co 0.6007 0.18726 0.49764 0.0
O197 O 0.55328 0.14885 0.50343 0.0
O198 O 0.58504 0.14838 0.48335 0.0
C199 C 0.62653 0.19855 0.52091 0.0
O200 O 0.65122 0.21874 0.48867 0.0
Co201 Co 0.63291 0.26595 0.50924 0.0
O202 O 0.67851 0.26925 0.50288 0.0
C203 C 0.57233 0.23609 0.48762 0.0
C204 C 0.55586 0.13179 0.49156 0.0
C205 C 0.67973 0.24679 0.49369 0.0
O206 O 0.577 0.20919 0.48488 0.0
O207 O 0.59059 0.26036 0.49759 0.0
O208 O 0.62262 0.17122 0.51288 0.0
O209 O 0.61099 0.21547 0.51545 0.0
Co210 Co 0.73823 0.4861 0.66305 0.0
O211 O 0.73153 0.52491 0.65577 0.0
O212 O 0.7534 0.52263 0.67855 0.0
C213 C 0.76472 0.47935 0.64188 0.0
O214 O 0.75261 0.45347 0.67429 0.0
Co215 Co 0.69973 0.41015 0.64753 0.0
O216 O 0.73405 0.40333 0.66005 0.0
C217 C 0.65804 0.43465 0.66545 0.0
C218 C 0.74502 0.54034 0.66889 0.0
C219 C 0.7525 0.42416 0.67098 0.0
O220 O 0.68694 0.46067 0.67137 0.0
O221 O 0.65798 0.41401 0.65485 0.0
O222 O 0.78349 0.50526 0.65153 0.0
O223 O 0.73036 0.46158 0.64437 0.0
Co224 Co 0.44609 0.23573 0.62925 0.0
O225 O 0.41367 0.18452 0.62884 0.0
O226 O 0.44057 0.21643 0.64969 0.0
C227 C 0.411 0.25005 0.6149 0.0
O228 O 0.4793 0.28842 0.63462 0.0
Co229 Co 0.4795 0.28133 0.59985 0.0
O230 O 0.49312 0.32324 0.61365 0.0
C231 C 0.50825 0.23616 0.61231 0.0
C232 C 0.41752 0.18557 0.64366 0.0
C233 C 0.49312 0.31954 0.62818 0.0
O234 O 0.48912 0.22927 0.62466 0.0
O235 O 0.50542 0.25328 0.60084 0.0
O236 O 0.40507 0.24432 0.62954 0.0
O237 O 0.43581 0.24456 0.6094 0.0
Co238 Co 0.77203 0.25775 0.61682 0.0
O239 O 0.81662 0.25734 0.61737 0.0
O240 O 0.77367 0.2333 0.63512 0.0
C241 C 0.75732 0.24072 0.59223 0.0
O242 O 0.72205 0.2523 0.61966 0.0
Co243 Co 0.76764 0.31402 0.59585 0.0
O244 O 0.71532 0.28454 0.60083 0.0
C245 C 0.80816 0.33788 0.62464 0.0
C246 C 0.80532 0.24019 0.6303 0.0
C247 C 0.70274 0.262 0.61187 0.0
O248 O 0.79518 0.30465 0.62832 0.0
O249 O 0.8034 0.34781 0.6114 0.0
O250 O 0.75117 0.2169 0.60278 0.0
O251 O 0.77655 0.27398 0.59653 0.0
Co252 Co 0.48764 0.21851 0.14847 0.0
O253 O 0.44703 0.21867 0.13916 0.0
O254 O 0.44492 0.17172 0.15079 0.0
C255 C 0.50779 0.27136 0.161 0.0
O256 O 0.5235 0.20853 0.15978 0.0
Co257 Co 0.56656 0.28007 0.14243 0.0
O258 O 0.57801 0.25885 0.16026 0.0
C259 C 0.53004 0.2187 0.12053 0.0
C260 C 0.42779 0.18561 0.14384 0.0
C261 C 0.55635 0.22663 0.16455 0.0
O262 O 0.50064 0.20367 0.12846 0.0
O263 O 0.5577 0.24907 0.12392 0.0
O264 O 0.48245 0.24175 0.16706 0.0
O265 O 0.5181 0.26833 0.14747 0.0
Co266 Co 0.75984 0.23685 0.15449 0.0
O267 O 0.77311 0.20065 0.15111 0.0
O268 O 0.81163 0.25841 0.15568 0.0
C269 C 0.71414 0.20523 0.17123 0.0
O270 O 0.75646 0.28177 0.15898 0.0
Co271 Co 0.68355 0.22325 0.14587 0.0
O272 O 0.69843 0.26806 0.15789 0.0
C273 C 0.73783 0.23903 0.12159 0.0
C274 C 0.80628 0.22621 0.15302 0.0
C275 C 0.73148 0.28973 0.16109 0.0
O276 O 0.76257 0.2468 0.13172 0.0
O277 O 0.70443 0.22593 0.12498 0.0
O278 O 0.74735 0.2222 0.17606 0.0
O279 O 0.71043 0.20486 0.15655 0.0
Co280 Co 0.74937 0.51496 0.14912 0.0
O281 O 0.79027 0.56182 0.14486 0.0
O282 O 0.74011 0.55158 0.15676 0.0
C283 C 0.78056 0.48888 0.15791 0.0
O284 O 0.70207 0.47183 0.15585 0.0
Co285 Co 0.73788 0.44531 0.13281 0.0
O286 O 0.69886 0.42014 0.14831 0.0
C287 C 0.71848 0.49457 0.11705 0.0
C288 C 0.77181 0.57471 0.15144 0.0
C289 C 0.68657 0.43732 0.15577 0.0
O290 O 0.72644 0.51484 0.12896 0.0
O291 O 0.72327 0.46744 0.11603 0.0
O292 O 0.7735 0.50861 0.16704 0.0
O293 O 0.77148 0.48828 0.14378 0.0
Co294 Co 0.54186 0.13684 0.00479 0.0
O295 O 0.52888 0.08791 0.00794 0.0
O296 O 0.49081 0.10644 0.00101 0.0
C297 C 0.59143 0.1526 0.99033 0.0
O298 O 0.54641 0.18529 0.0002 0.0
Co299 Co 0.61532 0.1979 0.0172 0.0
O300 O 0.60377 0.22912 0.00436 0.0
C301 C 0.55407 0.15779 0.0385 0.0
C302 C 0.49637 0.07995 0.00424 0.0
C303 C 0.57196 0.2183 -0.00062 0.0
O304 O 0.53265 0.14171 0.02718 0.0
O305 O 0.58823 0.17835 0.03691 0.0
O306 O 0.55971 0.1367 0.984 0.0
O307 O 0.59142 0.15441 0.00512 0.0
Co308 Co 0.82517 0.39065 0.01607 0.0
O309 O 0.87181 0.43004 0.02218 0.0
O310 O 0.8621 0.38048 0.01001 0.0
C311 C 0.80288 0.4244 0.00617 0.0
O312 O 0.78365 0.34512 0.00717 0.0
Co313 Co 0.75107 0.37736 0.02781 0.0
O314 O 0.73069 0.34303 0.01033 0.0
C315 C 0.7937 0.35339 0.04632 0.0
C316 C 0.88497 0.41138 0.01597 0.0
C317 C 0.74988 0.33115 0.00436 0.0
O318 O 0.8193 0.36542 0.03632 0.0
O319 O 0.76564 0.35666 0.04516 0.0
O320 O 0.82425 0.41758 0.99798 0.0
O321 O 0.798 0.41306 0.02014 0.0
Co322 Co 0.55442 0.42103 0.02091 0.0
O323 O 0.5107 0.42139 0.02511 0.0
O324 O 0.56051 0.46742 0.01553 0.0
C325 C 0.52711 0.36753 0.00876 0.0
O326 O 0.60427 0.42966 0.01489 0.0
Co327 Co 0.56541 0.36001 0.03442 0.0
O328 O 0.60652 0.37918 0.01968 0.0
C329 C 0.57529 0.42085 0.05401 0.0
C330 C 0.52681 0.45378 0.01956 0.0
C331 C 0.61992 0.4107 0.01396 0.0
O332 O 0.57229 0.43758 0.04237 0.0
O333 O 0.57001 0.38868 0.05343 0.0
O334 O 0.53504 0.39672 0.00125 0.0
O335 O 0.53356 0.37135 0.02329 0.0
Co336 Co 0.54153 0.79513 0.84963 0.0
O337 O 0.58499 0.79694 0.84346 0.0
O338 O 0.5528 0.81198 0.82844 0.0
C339 C 0.56113 0.82341 0.87248 0.0
O340 O 0.49472 0.79611 0.85343 0.0
Co341 Co 0.50577 0.74782 0.87859 0.0
O342 O 0.47539 0.77058 0.8768 0.0
C343 C 0.50158 0.71299 0.84924 0.0
C344 C 0.58099 0.80822 0.83025 0.0
C345 C 0.47347 0.78769 0.86518 0.0
O346 O 0.51286 0.74335 0.84239 0.0
O347 O 0.50127 0.70991 0.86386 0.0
O348 O 0.56838 0.84209 0.85992 0.0
O349 O 0.5478 0.78923 0.87035 0.0
Co350 Co 0.21493 0.75305 0.87184 0.0
O351 O 0.22573 0.8021 0.87242 0.0
O352 O 0.22419 0.77247 0.85125 0.0
C353 C 0.16542 0.72969 0.88699 0.0
O354 O 0.2035 0.70189 0.86703 0.0
Co355 Co 0.21874 0.71691 0.9021 0.0
O356 O 0.19234 0.67239 0.88955 0.0
C357 C 0.28613 0.76755 0.88611 0.0
C358 C 0.22864 0.80196 0.8576 0.0
C359 C 0.19197 0.6727 0.87489 0.0
O360 O 0.26769 0.76906 0.87477 0.0
O361 O 0.27167 0.75072 0.89862 0.0
O362 O 0.16302 0.73538 0.87251 0.0
O363 O 0.1979 0.74239 0.89209 0.0
Co364 Co 0.2507 0.48193 0.82825 0.0
O365 O 0.2044 0.43954 0.82834 0.0
O366 O 0.23426 0.46745 0.80723 0.0
C367 C 0.27506 0.46085 0.8454 0.0
O368 O 0.30007 0.52647 0.82447 0.0
Co369 Co 0.27826 0.52342 0.85938 0.0
O370 O 0.32455 0.54671 0.84789 0.0
C371 C 0.22163 0.52737 0.84151 0.0
C372 C 0.20596 0.44043 0.81351 0.0
C373 C 0.32687 0.5467 0.83327 0.0
O374 O 0.2274 0.51289 0.82967 0.0
O375 O 0.23614 0.52995 0.85465 0.0
O376 O 0.27456 0.4532 0.83095 0.0
O377 O 0.25866 0.47807 0.84897 0.0
Co378 Co 0.43085 0.84085 0.96524 0.0
O379 O 0.42864 0.88436 0.965 0.0
O380 O 0.43809 0.85988 0.98571 0.0
C381 C 0.46704 0.85164 0.94455 0.0
O382 O 0.43608 0.79729 0.96974 0.0
Co383 Co 0.39604 0.78762 0.93818 0.0
O384 O 0.40304 0.75494 0.95214 0.0
C385 C 0.35114 0.79972 0.95915 0.0
C386 C 0.43405 0.88543 0.97973 0.0
C387 C 0.42223 0.76528 0.96429 0.0
O388 O 0.377 0.81201 0.96896 0.0
O389 O 0.35597 0.79545 0.945 0.0
O390 O 0.48101 0.86606 0.95775 0.0
O391 O 0.43231 0.83592 0.94397 0.0
Co392 Co 0.10502 0.56761 0.96517 0.0
O393 O 0.06531 0.52243 0.97144 0.0
O394 O 0.10545 0.56347 0.98731 0.0
C395 C 0.07508 0.5856 0.94944 0.0
O396 O 0.14857 0.61791 0.96253 0.0
Co397 Co 0.12746 0.57772 0.93079 0.0
O398 O 0.15533 0.6291 0.9371 0.0
C399 C 0.14809 0.53559 0.95067 0.0
C400 C 0.07604 0.53261 0.98541 0.0
C401 C 0.16267 0.63945 0.95104 0.0
O402 O 0.13652 0.54496 0.9625 0.0
O403 O 0.14379 0.54309 0.93688 0.0
O404 O 0.0741 0.58899 0.96422 0.0
O405 O 0.08851 0.56589 0.94504 0.0
Co406 Co 0.37952 0.5079 0.94685 0.0
O407 O 0.42582 0.5133 0.9503 0.0
O408 O 0.38215 0.49364 0.96775 0.0
C409 C 0.36908 0.48071 0.92383 0.0
O410 O 0.32815 0.49968 0.94644 0.0
Co411 Co 0.37506 0.55155 0.91923 0.0
O412 O 0.32251 0.52107 0.92353 0.0
C413 C 0.40726 0.5886 0.94816 0.0
C414 C 0.41541 0.50306 0.96427 0.0
C415 C 0.30922 0.50429 0.93612 0.0
O416 O 0.39731 0.55806 0.95444 0.0
O417 O 0.40412 0.59257 0.93378 0.0
O418 O 0.36253 0.46189 0.93634 0.0
O419 O 0.38622 0.51521 0.92572 0.0
Co420 Co 0.16114 0.56848 0.49242 0.0
O421 O 0.11444 0.56174 0.4874 0.0
O422 O 0.12432 0.52151 0.49908 0.0
C423 C 0.18262 0.62415 0.50236 0.0
O424 O 0.20476 0.56584 0.49997 0.0
Co425 Co 0.23208 0.63062 0.47863 0.0
O426 O 0.25575 0.61801 0.49519 0.0
C427 C 0.1886 0.56245 0.46114 0.0
C428 C 0.10133 0.53055 0.49404 0.0
C429 C 0.23895 0.58706 0.50149 0.0
O430 O 0.16502 0.54857 0.47195 0.0
O431 O 0.21572 0.59455 0.46146 0.0
O432 O 0.16321 0.59594 0.51079 0.0
O433 O 0.18657 0.61794 0.4882 0.0
Co434 Co 0.4657 0.60913 0.50583 0.0
O435 O 0.47501 0.57016 0.50366 0.0
O436 O 0.51369 0.62396 0.51337 0.0
C437 C 0.4097 0.57724 0.51602 0.0
O438 O 0.46492 0.65536 0.50996 0.0
Co439 Co 0.40212 0.60718 0.48763 0.0
O440 O 0.4119 0.64805 0.50152 0.0
C441 C 0.4693 0.62334 0.47158 0.0
C442 C 0.50655 0.59175 0.50943 0.0
C443 C 0.44145 0.66559 0.5089 0.0
O444 O 0.48522 0.62652 0.48449 0.0
O445 O 0.43547 0.61207 0.47039 0.0
O446 O 0.43787 0.58875 0.52483 0.0
O447 O 0.41653 0.58179 0.50154 0.0
Co448 Co 0.41723 0.86315 0.49358 0.0
O449 O 0.45157 0.91018 0.48648 0.0
O450 O 0.40365 0.89748 0.50081 0.0
C451 C 0.45842 0.84858 0.50157 0.0
O452 O 0.37624 0.81762 0.50317 0.0
Co453 Co 0.41396 0.79484 0.47948 0.0
O454 O 0.38497 0.7711 0.49809 0.0
C455 C 0.37853 0.83028 0.46363 0.0
C456 C 0.43237 0.92141 0.49358 0.0
C457 C 0.3687 0.78483 0.50521 0.0
O458 O 0.38793 0.85417 0.47427 0.0
O459 O 0.38717 0.80567 0.46344 0.0
O460 O 0.44906 0.8668 0.51053 0.0
O461 O 0.44469 0.84213 0.48799 0.0
Co462 Co 0.22918 0.49226 0.34812 0.0
O463 O 0.22128 0.44426 0.35125 0.0
O464 O 0.18229 0.45733 0.34051 0.0
C465 C 0.28609 0.51646 0.3388 0.0
O466 O 0.22689 0.53705 0.34253 0.0
Co467 Co 0.29025 0.5599 0.3645 0.0
O468 O 0.27656 0.58746 0.35031 0.0
C469 C 0.22419 0.50831 0.38149 0.0
C470 C 0.18995 0.43294 0.34489 0.0
C471 C 0.24675 0.57151 0.34304 0.0
O472 O 0.20843 0.4917 0.36903 0.0
O473 O 0.2574 0.53318 0.38213 0.0
O474 O 0.25871 0.49883 0.32967 0.0
O475 O 0.2782 0.5168 0.35303 0.0
Co476 Co 0.52505 0.75213 0.36296 0.0
O477 O 0.57248 0.78916 0.36902 0.0
O478 O 0.56115 0.74488 0.3528 0.0
C479 C 0.50347 0.78982 0.35858 0.0
O480 O 0.47964 0.70999 0.35356 0.0
Co481 Co 0.4569 0.73921 0.3812 0.0
O482 O 0.43154 0.71274 0.36229 0.0
C483 C 0.50277 0.71069 0.39291 0.0
C484 C 0.58487 0.77402 0.35985 0.0
C485 C 0.44588 0.7003 0.3531 0.0
O486 O 0.5226 0.72083 0.38077 0.0
O487 O 0.47727 0.7174 0.39553 0.0
O488 O 0.52194 0.78475 0.348 0.0
O489 O 0.50117 0.7744 0.37154 0.0
Co490 Co 0.25464 0.78358 0.35747 0.0
O491 O 0.21514 0.79245 0.35976 0.0
O492 O 0.27204 0.83455 0.35552 0.0
C493 C 0.22718 0.73647 0.34106 0.0
O494 O 0.30223 0.78474 0.35401 0.0
Co495 Co 0.2471 0.71036 0.3674 0.0
O496 O 0.29251 0.72809 0.35537 0.0
C497 C 0.25762 0.76481 0.39083 0.0
C498 C 0.2386 0.82621 0.3575 0.0
C499 C 0.3124 0.7614 0.35212 0.0
O500 O 0.26341 0.78833 0.38036 0.0
O501 O 0.24744 0.73176 0.38791 0.0
O502 O 0.24205 0.76928 0.33587 0.0
O503 O 0.22619 0.73361 0.3558 0.0
H504 H 0.11766 0.15641 0.22902 0.0
H505 H 0.10446 0.10913 0.18401 0.0
H506 H 0.047 0.10802 0.18099 0.0
H507 H -0.00367 0.11118 0.193 0.0
H508 H 0.00881 0.15464 0.23881 0.0
H509 H 0.0709 0.1669 0.23957 0.0
C510 C 0.10249 0.14632 0.21843 0.0
C511 C 0.11491 0.13214 0.20688 0.0
C512 C 0.06915 0.14479 0.21699 0.0
C513 C 0.09539 0.11998 0.19311 0.0
C514 C 0.0624 0.11911 0.19143 0.0
C515 C 0.01295 0.12423 0.20298 0.0
C516 C -0.00222 0.13159 0.2159 0.0
C517 C 0.04835 0.13008 0.20356 0.0
C518 C 0.01967 0.14837 0.22877 0.0
C519 C 0.05515 0.15527 0.22924 0.0
H520 H 0.89623 0.98637 0.19283 0.0
H521 H 0.82633 0.9562 0.23247 0.0
H522 H 0.8236 0.8981 0.23354 0.0
H523 H 0.85013 0.86108 0.22636 0.0
H524 H 0.91982 0.89016 0.18674 0.0
H525 H 0.91354 0.94319 0.18254 0.0
C526 C 0.87973 0.9667 0.20146 0.0
C527 C 0.86228 0.97592 0.21278 0.0
C528 C 0.87892 0.93346 0.20228 0.0
C529 C 0.84075 0.95007 0.22384 0.0
C530 C 0.83929 0.91689 0.22453 0.0
C531 C 0.86324 0.87858 0.21659 0.0
C532 C 0.88583 0.87207 0.20704 0.0
C533 C 0.85973 0.90909 0.21431 0.0
C534 C 0.9023 0.89465 0.1943 0.0
C535 C 0.89895 0.92516 0.19195 0.0
H536 H 0.14455 0.98495 0.23153 0.0
H537 H 0.13053 0.01014 0.18497 0.0
H538 H 0.07908 0.94951 0.18173 0.0
H539 H 0.03128 0.89405 0.19389 0.0
H540 H 0.04531 0.86977 0.24062 0.0
H541 H 0.10389 0.92477 0.24181 0.0
C542 C 0.13081 0.97687 0.22055 0.0
C543 C 0.1408 0.00227 0.20866 0.0
C544 C 0.10084 0.9422 0.21884 0.0
C545 C 0.12321 0.99121 0.19439 0.0
C546 C 0.09355 0.95658 0.19254 0.0
C547 C 0.04761 0.9003 0.20418 0.0
C548 C 0.03351 0.8785 0.21729 0.0
C549 C 0.08103 0.9325 0.20496 0.0
C550 C 0.05516 0.8867 0.2305 0.0
C551 C 0.08863 0.91818 0.23123 0.0
H552 H 0.15941 0.11024 0.27049 0.0
H553 H 0.11545 0.10175 0.31595 0.0
H554 H 0.11559 0.04537 0.32012 0.0
H555 H 0.11723 0.99345 0.30892 0.0
H556 H 0.15701 0.00063 0.26267 0.0
H557 H 0.16996 0.06276 0.26084 0.0
C558 C 0.15043 0.09638 0.28143 0.0
C559 C 0.13657 0.10964 0.29275 0.0
C560 C 0.1495 0.06352 0.28353 0.0
C561 C 0.12593 0.09193 0.30699 0.0
C562 C 0.12577 0.05954 0.30933 0.0
C563 C 0.12976 0.00893 0.29861 0.0
C564 C 0.13554 0.99219 0.28585 0.0
C565 C 0.13588 0.04427 0.29741 0.0
C566 C 0.15183 0.0127 0.27259 0.0
C567 C 0.1591 0.0482 0.27149 0.0
H568 H 0.89438 0.00889 0.3037 0.0
H569 H 0.86414 0.03728 0.26091 0.0
H570 H 0.91894 0.0958 0.2612 0.0
H571 H 0.98015 0.13399 0.27093 0.0
H572 H 0.01169 0.10705 0.31364 0.0
H573 H 0.95179 0.05348 0.31618 0.0
C574 C 0.89937 0.02828 0.29469 0.0
C575 C 0.87563 0.0183 0.28211 0.0
C576 C 0.93151 0.06204 0.29475 0.0
C577 C 0.88236 0.04389 0.27055 0.0
C578 C 0.91377 0.07742 0.27066 0.0
C579 C 0.97353 0.11695 0.28102 0.0
C580 C 0.00034 0.12416 0.29197 0.0
C581 C 0.93931 0.08604 0.28229 0.0
C582 C 0.99141 0.10209 0.30506 0.0
C583 C 0.95726 0.07121 0.30644 0.0
H584 H 0.87669 0.88748 0.30139 0.0
H585 H 0.84803 0.83895 0.25636 0.0
H586 H 0.89849 0.82757 0.25709 0.0
H587 H 0.9557 0.84023 0.2685 0.0
H588 H 0.98707 0.8923 0.31278 0.0
H589 H 0.93048 0.8933 0.31436 0.0
C590 C 0.88098 0.87363 0.29189 0.0
C591 C 0.85886 0.86437 0.27877 0.0
C592 C 0.91099 0.86858 0.29207 0.0
C593 C 0.86488 0.84664 0.26652 0.0
C594 C 0.89386 0.84036 0.26687 0.0
C595 C 0.95006 0.85149 0.27859 0.0
C596 C 0.97594 0.86692 0.29036 0.0
C597 C 0.91796 0.85269 0.27926 0.0
C598 C 0.96777 0.88056 0.3035 0.0
C599 C 0.93547 0.88127 0.30438 0.0
H600 H 0.95857 0.95026 0.85875 0.0
H601 H 0.88549 0.85228 0.83477 0.0
H602 H 0.92577 0.82852 0.83936 0.0
H603 H 0.98902 0.84459 0.84268 0.0
H604 H 0.06301 0.94309 0.86583 0.0
H605 H 0.01453 0.95669 0.86995 0.0
C606 C 0.9508 0.92313 0.85509 0.0
C607 C 0.91984 0.90362 0.84593 0.0
C608 C 0.97449 0.90987 0.85752 0.0
C609 C 0.90951 0.86813 0.84161 0.0
C610 C 0.9327 0.85459 0.84413 0.0
C611 C 0.99395 0.86797 0.84941 0.0
C612 C 0.02951 0.89344 0.85348 0.0
C613 C 0.96643 0.87644 0.85099 0.0
C614 C 0.0358 0.9233 0.86244 0.0
C615 C 0.00823 0.93149 0.86448 0.0
H616 H 0.09748 0.13123 0.84727 0.0
H617 H 0.16679 0.15873 0.80772 0.0
H618 H 0.17203 0.10506 0.81143 0.0
H619 H 0.14245 0.04294 0.82109 0.0
H620 H 0.06391 0.01103 0.85742 0.0
H621 H 0.07726 0.07334 0.86028 0.0
C622 C 0.11516 0.1263 0.83999 0.0
C623 C 0.1315 0.14849 0.82719 0.0
C624 C 0.11525 0.09364 0.84136 0.0
C625 C 0.15405 0.14186 0.81767 0.0
C626 C 0.1565 0.11083 0.81964 0.0
C627 C 0.12921 0.04999 0.82996 0.0
C628 C 0.10204 0.02265 0.83893 0.0
C629 C 0.13496 0.08524 0.83069 0.0
C630 C 0.08466 0.03175 0.85029 0.0
C631 C 0.09207 0.06727 0.85183 0.0
H632 H 0.89419 0.97357 0.85664 0.0
H633 H 0.84476 0.02264 0.83075 0.0
H634 H 0.89947 0.08135 0.83285 0.0
H635 H 0.96538 0.11117 0.8332 0.0
H636 H 0.01703 0.05666 0.85318 0.0
H637 H 0.95887 0.00845 0.86236 0.0
C638 C 0.89506 -0.00243 0.85212 0.0
C639 C 0.86629 0.99387 0.8431 0.0
C640 C 0.92808 0.03017 0.85174 0.0
C641 C 0.86691 0.02495 0.83762 0.0
C642 C 0.89856 0.05839 0.83851 0.0
C643 C 0.96404 0.08955 0.84016 0.0
C644 C -0.00472 0.08706 0.84229 0.0
C645 C 0.93018 0.06038 0.84417 0.0
C646 C 0.99326 0.0589 0.85128 0.0
C647 C 0.95991 0.03114 0.8564 0.0
H648 H 0.83426 0.97642 0.66791 0.0
H649 H 0.93115 0.04522 0.64244 0.0
H650 H 0.94465 -0.0038 0.64051 0.0
H651 H 0.93598 0.93942 0.65173 0.0
H652 H 0.83844 0.87073 0.67704 0.0
H653 H 0.81764 0.91372 0.67315 0.0
C654 C 0.85734 0.98 0.66128 0.0
C655 C 0.88199 0.01424 0.65553 0.0
C656 C 0.86526 0.95203 0.66056 0.0
C657 C 0.91177 0.0189 0.6469 0.0
C658 C 0.91981 0.99107 0.64605 0.0
C659 C 0.90972 0.93347 0.65599 0.0
C660 C 0.88916 0.90252 0.66499 0.0
C661 C 0.89793 0.95837 0.65372 0.0
C662 C 0.85487 0.89458 0.6702 0.0
C663 C 0.84303 0.91923 0.66804 0.0
H664 H 0.04202 0.97304 0.65101 0.0
H665 H 0.11186 0.94318 0.67452 0.0
H666 H 0.06863 0.87961 0.67027 0.0
H667 H 0.00461 0.83473 0.6669 0.0
H668 H 0.9346 0.86366 0.64324 0.0
H669 H 0.98475 0.92512 0.63974 0.0
C670 C 0.04828 0.95257 0.65467 0.0
C671 C 0.07939 0.96253 0.66348 0.0
C672 C 0.02319 0.91595 0.65222 0.0
C673 C 0.0878 0.93606 0.66788 0.0
C674 C 0.06299 0.89965 0.66553 0.0
C675 C 0.00097 0.85393 0.66013 0.0
C676 C 0.96601 0.84542 0.65584 0.0
C677 C 0.02961 0.8894 0.65868 0.0
C678 C 0.96136 0.86995 0.64684 0.0
C679 C 0.9899 0.90535 0.64513 0.0
H680 H 0.00114 0.05473 0.65333 0.0
H681 H 0.02785 0.14361 0.68402 0.0
H682 H 0.09152 0.16055 0.68318 0.0
H683 H 0.13594 0.14126 0.67829 0.0
H684 H 0.11054 0.05443 0.64667 0.0
H685 H 0.05021 0.0461 0.64279 0.0
C686 C 0.02119 0.07847 0.6594 0.0
C687 C 0.01006 0.0976 0.66893 0.0
C688 C 0.0578 0.08825 0.65872 0.0
C689 C 0.03601 0.12853 0.67665 0.0
C690 C 0.07234 0.13808 0.67624 0.0
C691 C 0.1178 0.12183 0.66993 0.0
C692 C 0.12718 0.0981 0.66296 0.0
C693 C 0.08316 0.11703 0.66792 0.0
C694 C 0.10377 0.07303 0.65213 0.0
C695 C 0.06905 0.06786 0.65012 0.0
H696 H 0.64649 0.42793 0.54196 0.0
H697 H 0.59597 0.3231 0.56384 0.0
H698 H 0.65359 0.32635 0.56603 0.0
H699 H 0.71751 0.35772 0.56229 0.0
H700 H 0.7719 0.4626 0.54087 0.0
H701 H 0.71354 0.46031 0.53788 0.0
C702 C 0.64819 0.40592 0.54724 0.0
C703 C 0.61659 0.37548 0.55282 0.0
C704 C 0.68204 0.40782 0.54857 0.0
C705 C 0.61947 0.34711 0.55954 0.0
C706 C 0.65255 0.34877 0.56079 0.0
C707 C 0.71701 0.38041 0.55703 0.0
C708 C 0.74923 0.4105 0.55198 0.0
C709 C 0.68387 0.37893 0.55544 0.0
C710 C 0.74753 0.43912 0.54491 0.0
C711 C 0.71416 0.43781 0.54324 0.0
H712 H 0.46017 0.24987 0.51619 0.0
H713 H 0.524 0.35646 0.49688 0.0
H714 H 0.547 0.33291 0.47725 0.0
H715 H 0.56552 0.28787 0.47276 0.0
H716 H 0.50407 0.1823 0.49269 0.0
H717 H 0.46238 0.19882 0.50414 0.0
C718 C 0.47791 0.26772 0.50731 0.0
C719 C 0.49213 0.30522 0.50861 0.0
C720 C 0.49192 0.25415 0.49621 0.0
C721 C 0.5138 0.32767 0.4966 0.0
C722 C 0.52714 0.31425 0.48533 0.0
C723 C 0.54149 0.26775 0.47869 0.0
C724 C 0.53889 0.23478 0.48267 0.0
C725 C 0.51899 0.27829 0.486 0.0
C726 C 0.50719 0.20835 0.48986 0.0
C727 C 0.48378 0.21812 0.49677 0.0
H728 H 0.74179 0.297 0.48006 0.0
H729 H 0.69652 0.20114 0.50772 0.0
H730 H 0.74897 0.22847 0.52453 0.0
H731 H 0.79545 0.28664 0.53562 0.0
H732 H 0.8423 0.38165 0.50689 0.0
H733 H 0.80245 0.34728 0.48601 0.0
C734 C 0.7447 0.28113 0.48906 0.0
C735 C 0.71466 0.24816 0.49328 0.0
C736 C 0.77469 0.2975 0.49888 0.0
C737 C 0.719 0.22726 0.5046 0.0
C738 C 0.74872 0.24322 0.51446 0.0
C739 C 0.79808 0.29953 0.5246 0.0
C740 C 0.82029 0.33714 0.52319 0.0
C741 C 0.77496 0.27957 0.51248 0.0
C742 C 0.8243 0.35303 0.5086 0.0
C743 C 0.80145 0.33339 0.49656 0.0
H744 H 0.82063 0.46283 0.6619 0.0
H745 H 0.75056 0.37267 0.69034 0.0
H746 H 0.77548 0.33733 0.67941 0.0
H747 H 0.79571 0.32523 0.65507 0.0
H748 H 0.85202 0.41128 0.62235 0.0
H749 H 0.85427 0.45483 0.64109 0.0
C750 C 0.81257 0.43618 0.66636 0.0
C751 C 0.78239 0.41939 0.67613 0.0
C752 C 0.82302 0.41452 0.65829 0.0
C753 C 0.77299 0.38565 0.68239 0.0
C754 C 0.7865 0.36507 0.67575 0.0
C755 C 0.80974 0.3537 0.65222 0.0
C756 C 0.82229 0.36489 0.63714 0.0
C757 C 0.80821 0.37796 0.66255 0.0
C758 C 0.84105 0.40192 0.63373 0.0
C759 C 0.84226 0.4268 0.64445 0.0
H760 H 0.51043 0.32225 0.65845 0.0
H761 H 0.52348 0.39039 0.6196 0.0
H762 H 0.57215 0.44194 0.63284 0.0
H763 H 0.62143 0.46138 0.65133 0.0
H764 H 0.61358 0.3902 0.68775 0.0
H765 H 0.55154 0.34727 0.68039 0.0
C766 C 0.52315 0.34857 0.65303 0.0
C767 C 0.51435 0.3521 0.63778 0.0
C768 C 0.55222 0.37778 0.66042 0.0
C769 C 0.53051 0.38663 0.63113 0.0
C770 C 0.55835 0.4162 0.63871 0.0
C771 C 0.60517 0.43751 0.65824 0.0
C772 C 0.62217 0.4282 0.66968 0.0
C773 C 0.57108 0.41139 0.65284 0.0
C774 C 0.60108 0.39766 0.67875 0.0
C775 C 0.56592 0.3726 0.67423 0.0
H776 H 0.64743 0.23537 0.59211 0.0
H777 H 0.67249 0.25718 0.64017 0.0
H778 H 0.61093 0.2452 0.64532 0.0
H779 H 0.55314 0.23764 0.63516 0.0
H780 H 0.52996 0.21636 0.58682 0.0
H781 H 0.5871 0.21812 0.58282 0.0
C782 C 0.63907 0.23669 0.60376 0.0
C783 C 0.6643 0.24745 0.61573 0.0
C784 C 0.60397 0.23 0.60655 0.0
C785 C 0.65333 0.24883 0.6308 0.0
C786 C 0.61825 0.24223 0.63371 0.0
C787 C 0.56013 0.2322 0.62388 0.0
C788 C 0.53752 0.22731 0.61127 0.0
C789 C 0.59368 0.23401 0.62156 0.0
C790 C 0.54705 0.22055 0.59668 0.0
C791 C 0.57983 0.22172 0.59435 0.0
H792 H 0.64506 0.15235 0.16899 0.0
H793 H 0.71497 0.24922 0.19414 0.0
H794 H 0.66498 0.26059 0.19801 0.0
H795 H 0.6093 0.25372 0.18616 0.0
H796 H 0.54014 0.15735 0.1604 0.0
H797 H 0.58163 0.13492 0.16489 0.0
C798 C 0.64877 0.17488 0.17603 0.0
C799 C 0.6837 0.20058 0.18081 0.0
C800 C 0.6204 0.18216 0.17749 0.0
C801 C 0.68832 0.22927 0.19019 0.0
C802 C 0.65988 0.23621 0.1921 0.0
C803 C 0.60259 0.2271 0.18213 0.0
C804 C 0.57239 0.20768 0.17257 0.0
C805 C 0.62692 0.21461 0.18455 0.0
C806 C 0.56347 0.17296 0.16764 0.0
C807 C 0.58738 0.16025 0.17009 0.0
H808 H 0.79301 0.3519 0.15446 0.0
H809 H 0.69218 0.30995 0.1789 0.0
H810 H 0.70504 0.37116 0.18438 0.0
H811 H 0.73856 0.43554 0.17755 0.0
H812 H 0.83347 0.4758 0.14918 0.0
H813 H 0.83009 0.41713 0.15014 0.0
C814 C 0.77422 0.35625 0.16124 0.0
C815 C 0.74165 0.3265 0.16623 0.0
C816 C 0.78067 0.39149 0.16347 0.0
C817 C 0.71733 0.33243 0.17487 0.0
C818 C 0.72457 0.36745 0.17791 0.0
C819 C 0.75925 0.43172 0.17213 0.0
C820 C 0.78639 0.4598 0.16342 0.0
C821 C 0.75532 0.39712 0.17167 0.0
C822 C 0.81264 0.45453 0.15611 0.0
C823 C 0.81035 0.42086 0.15646 0.0
H824 H 0.52219 0.33863 0.15546 0.0
H825 H 0.54862 0.27593 0.1857 0.0
H826 H 0.60996 0.32686 0.18866 0.0
H827 H 0.65897 0.38252 0.17659 0.0
H828 H 0.63113 0.44599 0.14739 0.0
H829 H 0.56709 0.40185 0.15023 0.0
C830 C 0.54075 0.33696 0.16345 0.0
C831 C 0.53166 0.30357 0.16996 0.0
C832 C 0.57595 0.36614 0.16486 0.0
C833 C 0.55545 0.30145 0.18041 0.0
C834 C 0.59072 0.33038 0.18188 0.0
C835 C 0.63872 0.38714 0.17135 0.0
C836 C 0.64942 0.41675 0.16154 0.0
C837 C 0.60189 0.36181 0.17319 0.0
C838 C 0.62324 0.4231 0.15492 0.0
C839 C 0.58668 0.39783 0.15649 0.0
H840 H 0.57195 0.36165 0.98904 0.0
H841 H 0.47069 0.30041 0.01278 0.0
H842 H 0.47198 0.24472 0.00823 0.0
H843 H 0.50893 0.21702 0.00326 0.0
H844 H 0.61599 0.28144 0.98453 0.0
H845 H 0.60539 0.33179 0.98082 0.0
C846 C 0.54957 0.33581 0.99261 0.0
C847 C 0.52124 0.33466 0.00116 0.0
C848 C 0.55217 0.30462 0.99115 0.0
C849 C 0.49257 0.30148 0.00607 0.0
C850 C 0.49358 0.26983 0.00364 0.0
C851 C 0.52954 0.24181 0.998 0.0
C852 C 0.56321 0.24569 0.99422 0.0
C853 C 0.52435 0.27152 0.99709 0.0
C854 C 0.58991 0.27795 0.98755 0.0
C855 C 0.58398 0.30686 0.98558 0.0
H856 H 0.69771 0.30791 0.98228 0.0
H857 H 0.76126 0.27572 0.00927 0.0
H858 H 0.72086 0.21281 0.00253 0.0
H859 H 0.65938 0.16771 0.99512 0.0
H860 H 0.59582 0.19899 0.96783 0.0
H861 H 0.64585 0.2612 0.96717 0.0
C862 C 0.70325 0.28714 0.98621 0.0
C863 C 0.73154 0.29598 0.99661 0.0
C864 C 0.68011 0.25093 0.98213 0.0
C865 C 0.73923 0.26927 0.00141 0.0
C866 C 0.71613 0.23329 0.99759 0.0
C867 C 0.65725 0.18785 0.98836 0.0
C868 C 0.62378 0.17946 0.98212 0.0
C869 C 0.68526 0.22374 0.9888 0.0
C870 C 0.6213 0.20513 0.97298 0.0
C871 C 0.64957 0.24094 0.97297 0.0
H872 H 0.78466 0.47273 0.0158 0.0
H873 H 0.75817 0.38935 0.9822 0.0
H874 H 0.6972 0.3803 0.97984 0.0
H875 H 0.64841 0.38689 0.99211 0.0
H876 H 0.67597 0.47222 0.02482 0.0
H877 H 0.73986 0.49053 0.02257 0.0
C878 C 0.7661 0.45395 0.00737 0.0
C879 C 0.77551 0.43136 -0.00065 0.0
C880 C 0.7311 0.44878 0.0062 0.0
C881 C 0.75145 0.40709 0.98845 0.0
C882 C 0.71638 0.40152 0.9873 0.0
C883 C 0.66864 0.41027 0.99826 0.0
C884 C 0.65771 0.42795 0.00874 0.0
C885 C 0.70534 0.42072 0.99683 0.0
C886 C 0.68393 0.45835 0.01666 0.0
C887 C 0.7204 0.46862 0.01546 0.0
H888 H 0.32403 0.78011 0.85933 0.0
H889 H 0.33667 0.78805 0.90864 0.0
H890 H 0.39896 0.80167 0.90601 0.0
H891 H 0.44624 0.80232 0.89018 0.0
H892 H 0.43327 0.79009 0.84104 0.0
H893 H 0.37512 0.78826 0.84305 0.0
C894 C 0.34069 0.78566 0.86947 0.0
C895 C 0.32553 0.7826 0.88418 0.0
C896 C 0.37633 0.79247 0.8679 0.0
C897 C 0.34748 0.78977 0.89721 0.0
C898 C 0.38311 0.79754 0.89572 0.0
C899 C 0.43097 0.79988 0.87986 0.0
C900 C 0.44364 0.79572 0.8655 0.0
C901 C 0.39726 0.79755 0.88119 0.0
C902 C 0.42403 0.7933 0.85221 0.0
C903 C 0.39063 0.79188 0.8534 0.0
H904 H 0.20996 0.66264 0.84592 0.0
H905 H 0.14838 0.60515 0.88595 0.0
H906 H 0.14276 0.54939 0.87607 0.0
H907 H 0.1685 0.52165 0.85968 0.0
H908 H 0.23371 0.57949 0.82067 0.0
H909 H 0.22359 0.62985 0.82607 0.0
C910 C 0.1944 0.63768 0.85224 0.0
C911 C 0.18073 0.63823 0.86689 0.0
C912 C 0.19212 0.60577 0.84668 0.0
C913 C 0.16014 0.60562 0.87486 0.0
C914 C 0.15682 0.57367 0.8692 0.0
C915 C 0.17898 0.5446 0.85196 0.0
C916 C 0.20215 0.54731 0.83997 0.0
C917 C 0.17462 0.57401 0.85564 0.0
C918 C 0.21566 0.57691 0.82995 0.0
C919 C 0.21041 0.60597 0.83323 0.0
H920 H 0.39164 0.55425 0.83906 0.0
H921 H 0.33924 0.60175 0.81403 0.0
H922 H 0.39592 0.65955 0.8132 0.0
H923 H 0.45412 0.69892 0.82608 0.0
H924 H 0.50317 0.6511 0.85338 0.0
H925 H 0.4549 0.59093 0.8464 0.0
C926 C 0.39319 0.57682 0.83276 0.0
C927 C 0.36155 0.57412 0.82675 0.0
C928 C 0.42527 0.61013 0.83303 0.0
C929 C 0.36348 0.60335 0.81867 0.0
C930 C 0.39577 0.63651 0.81841 0.0
C931 C 0.45502 0.67529 0.82991 0.0
C932 C 0.48166 0.67922 0.84044 0.0
C933 C 0.42605 0.64074 0.82651 0.0
C934 C 0.4826 0.64854 0.84541 0.0
C935 C 0.45487 0.61418 0.84151 0.0
H936 H 0.46513 0.65672 0.94825 0.0
H937 H 0.36386 0.58672 0.97075 0.0
H938 H 0.36399 0.63854 0.98243 0.0
H939 H 0.38483 0.70322 0.97999 0.0
H940 H 0.48819 0.77371 0.95938 0.0
H941 H 0.49621 0.72238 0.95362 0.0
C942 C 0.44391 0.65296 0.95617 0.0
C943 C 0.4141 0.61847 0.95838 0.0
C944 C 0.44441 0.68284 0.96305 0.0
C945 C 0.38689 0.61336 0.96883 0.0
C946 C 0.38686 0.64292 0.97546 0.0
C947 C 0.41003 0.70745 0.97513 0.0
C948 C 0.43531 0.74159 0.96961 0.0
C949 C 0.41433 0.67782 0.97184 0.0
C950 C 0.46807 0.74725 0.96342 0.0
C951 C 0.47246 0.71787 0.95994 0.0
H952 H 0.20623 0.66867 0.97605 0.0
H953 H 0.18075 0.6957 0.93183 0.0
H954 H 0.23389 0.75529 0.93312 0.0
H955 H 0.29398 0.79296 0.94362 0.0
H956 H 0.32377 0.76369 0.98619 0.0
H957 H 0.26234 0.71292 0.98917 0.0
C958 C 0.21185 0.68801 0.96693 0.0
C959 C 0.19008 0.67753 0.95371 0.0
C960 C 0.24349 0.72191 0.96743 0.0
C961 C 0.19743 0.7029 0.94201 0.0
C962 C 0.22786 0.73705 0.94273 0.0
C963 C 0.28657 0.77624 0.95384 0.0
C964 C 0.31337 0.78129 0.96444 0.0
C965 C 0.2521 0.74594 0.95493 0.0
C966 C 0.30356 0.76008 0.9778 0.0
C967 C 0.26857 0.73067 0.97937 0.0
H968 H 0.16074 0.49521 0.93037 0.0
H969 H 0.18915 0.54114 0.9758 0.0
H970 H 0.23889 0.52846 0.97661 0.0
H971 H 0.2809 0.51494 0.96229 0.0
H972 H 0.25341 0.47233 0.91632 0.0
H973 H 0.19648 0.47234 0.91793 0.0
C974 C 0.1773 0.50172 0.9406 0.0
C975 C 0.17164 0.51971 0.95287 0.0
C976 C 0.20629 0.49514 0.94082 0.0
C977 C 0.19297 0.52741 0.96615 0.0
C978 C 0.22164 0.52041 0.96657 0.0
C979 C 0.26172 0.50436 0.9529 0.0
C980 C 0.27127 0.49379 0.93918 0.0
C981 C 0.22953 0.50575 0.95369 0.0
C982 C 0.24656 0.48066 0.92697 0.0
C983 C 0.21416 0.48093 0.92784 0.0
H984 H 0.29169 0.61726 0.52316 0.0
H985 H 0.23556 0.5247 0.49361 0.0
H986 H 0.28154 0.50799 0.49832 0.0
H987 H 0.34368 0.52753 0.50638 0.0
H988 H 0.39874 0.61787 0.53707 0.0
H989 H 0.34652 0.62685 0.53698 0.0
C990 C 0.28905 0.59282 0.51821 0.0
C991 C 0.26078 0.57247 0.5079 0.0
C992 C 0.31539 0.58312 0.52112 0.0
C993 C 0.25719 0.54068 0.50159 0.0
C994 C 0.28357 0.53126 0.5042 0.0
C995 C 0.3435 0.5481 0.51361 0.0
C996 C 0.375 0.57239 0.5215 0.0
C997 C 0.31364 0.55328 0.51334 0.0
C998 C 0.37466 0.59886 0.53091 0.0
C999 C 0.34506 0.60438 0.53064 0.0
H1000 H 0.49572 0.7286 0.49903 0.0
H1001 H 0.40673 0.68202 0.53085 0.0
H1002 H 0.41325 0.74137 0.53549 0.0
H1003 H 0.43357 0.80202 0.52525 0.0
H1004 H 0.51456 0.84458 0.48975 0.0
H1005 H 0.52282 0.79231 0.49192 0.0
C1006 C 0.47857 0.73186 0.50731 0.0
C1007 C 0.45077 0.7014 0.51458 0.0
C1008 C 0.48075 0.76544 0.50899 0.0
C1009 C 0.42816 0.70533 0.52511 0.0
C1010 C 0.43173 0.73915 0.52765 0.0
C1011 C 0.45416 0.80048 0.51855 0.0
C1012 C 0.47347 0.82679 0.50737 0.0
C1013 C 0.45643 0.76891 0.51894 0.0
C1014 C 0.49961 0.82451 0.49847 0.0
C1015 C 0.50392 0.79441 0.49956 0.0
H1016 H 0.30454 0.78098 0.50218 0.0
H1017 H 0.35733 0.73061 0.52475 0.0
H1018 H 0.29892 0.67751 0.53041 0.0
H1019 H 0.23545 0.64029 0.5228 0.0
H1020 H 0.18583 0.68696 0.4953 0.0
H1021 H 0.23934 0.74666 0.49802 0.0
C1022 C 0.30305 0.75896 0.50891 0.0
C1023 C 0.33497 0.7595 0.51309 0.0
C1024 C 0.26961 0.72747 0.51095 0.0
C1025 C 0.33297 0.73064 0.5215 0.0
C1026 C 0.29959 0.70016 0.52457 0.0
C1027 C 0.23598 0.66391 0.518 0.0
C1028 C 0.2071 0.65966 0.5089 0.0
C1029 C 0.26799 0.6974 0.51848 0.0
C1030 C 0.2079 0.68999 0.50244 0.0
C1031 C 0.23863 0.72396 0.50384 0.0
H1032 H 0.17655 0.66675 0.34336 0.0
H1033 H 0.27433 0.7391 0.31919 0.0
H1034 H 0.28699 0.6899 0.31506 0.0
H1035 H 0.27895 0.63224 0.32536 0.0
H1036 H 0.17991 0.55967 0.34881 0.0
H1037 H 0.15927 0.6032 0.34644 0.0
C1038 C 0.19976 0.67129 0.33657 0.0
C1039 C 0.225 0.70647 0.33197 0.0
C1040 C 0.20752 0.64336 0.33478 0.0
C1041 C 0.25465 0.71218 0.32295 0.0
C1042 C 0.26235 0.68428 0.32091 0.0
C1043 C 0.2524 0.62564 0.32947 0.0
C1044 C 0.23129 0.59338 0.33757 0.0
C1045 C 0.24046 0.65067 0.3279 0.0
C1046 C 0.19667 0.58457 0.34264 0.0
C1047 C 0.18491 0.60949 0.34135 0.0
H1048 H 0.30564 0.57839 0.32377 0.0
H1049 H 0.3477 0.51523 0.34379 0.0
H1050 H 0.40702 0.56921 0.34668 0.0
H1051 H 0.44106 0.63519 0.3499 0.0
H1052 H 0.39394 0.69798 0.33468 0.0
H1053 H 0.34296 0.64435 0.32355 0.0
C1054 C 0.3283 0.57641 0.32814 0.0
C1055 C 0.32252 0.54309 0.33356 0.0
C1056 C 0.36125 0.60802 0.33111 0.0
C1057 C 0.35179 0.54066 0.33938 0.0
C1058 C 0.38551 0.57165 0.3413 0.0
C1059 C 0.42024 0.63718 0.34362 0.0
C1060 C 0.42115 0.67038 0.34302 0.0
C1061 C 0.3898 0.6057 0.33818 0.0
C1062 C 0.39372 0.67268 0.33519 0.0
C1063 C 0.36447 0.64193 0.32893 0.0
H1064 H 0.37202 0.81069 0.36675 0.0
H1065 H 0.33626 0.7392 0.32782 0.0
H1066 H 0.39771 0.75095 0.32348 0.0
H1067 H 0.45757 0.77008 0.33457 0.0
H1068 H 0.49021 0.8342 0.37582 0.0
H1069 H 0.43474 0.83734 0.37551 0.0
C1070 C 0.37805 0.79844 0.35713 0.0
C1071 C 0.34994 0.77393 0.34767 0.0
C1072 C 0.4129 0.80351 0.35537 0.0
C1073 C 0.3576 0.75781 0.33531 0.0
C1074 C 0.39266 0.7644 0.33291 0.0
C1075 C 0.45312 0.78602 0.34306 0.0
C1076 C 0.4777 0.802 0.35517 0.0
C1077 C 0.42007 0.78557 0.34338 0.0
C1078 C 0.47151 0.82187 0.36637 0.0
C1079 C 0.43965 0.8233 0.36629 0.0
H1080 H 0.16658 0.23913 0.25187 0.0
H1081 H 0.21175 0.20881 0.28931 0.0
H1082 H 0.24376 0.19131 0.2712 0.0
H1083 H 0.25009 0.17502 0.24473 0.0
H1084 H 0.20882 0.2093 0.20721 0.0
H1085 H 0.18486 0.23574 0.22528 0.0
C1086 C 0.1844 0.22982 0.25601 0.0
C1087 C 0.18657 0.22485 0.27181 0.0
C1088 C 0.20322 0.22032 0.24554 0.0
C1089 C 0.20981 0.21297 0.27716 0.0
C1090 C 0.22791 0.20267 0.26681 0.0
C1091 C 0.23706 0.18952 0.24055 0.0
C1092 C 0.23082 0.18995 0.22478 0.0
C1093 C 0.22362 0.20489 0.25098 0.0
C1094 C 0.21408 0.20885 0.21936 0.0
C1095 C 0.19999 0.2236 0.22968 0.0
H1096 H 0.82125 0.07085 0.24394 0.0
H1097 H 0.78471 -0.00064 0.20484 0.0
H1098 H 0.75089 0.94777 0.22166 0.0
H1099 H 0.74326 0.92251 0.24764 0.0
H1100 H 0.77674 0.99382 0.28675 0.0
H1101 H 0.79921 0.04592 0.26979 0.0
C1102 C 0.80472 0.04413 0.23911 0.0
C1103 C 0.80603 0.03877 0.22328 0.0
C1104 C 0.78509 0.01448 0.24884 0.0
C1105 C 0.78426 0.00416 0.21704 0.0
C1106 C 0.76511 0.97453 0.22666 0.0
C1107 C 0.7541 0.94938 0.25242 0.0
C1108 C 0.75903 0.95448 0.26832 0.0
C1109 C 0.76698 0.97923 0.24261 0.0
C1110 C 0.77274 0.98926 0.27449 0.0
C1111 C 0.78598 0.01915 0.2648 0.0
H1112 H 0.06745 0.80936 0.26132 0.0
H1113 H 0.98853 0.78951 0.29644 0.0
H1114 H 0.94006 0.76173 0.27756 0.0
H1115 H 0.92233 0.75485 0.25024 0.0
H1116 H 0.00115 0.77128 0.21546 0.0
H1117 H 0.04727 0.78782 0.23504 0.0
C1118 C 0.03949 0.79754 0.26491 0.0
C1119 C 0.03148 0.80186 0.2801 0.0
C1120 C 0.01179 0.78149 0.25402 0.0
C1121 C -0.00474 0.78636 0.28476 0.0
C1122 C 0.96754 0.77086 0.27393 0.0
C1123 C 0.94928 0.76077 0.24705 0.0
C1124 C 0.95851 0.76252 0.23147 0.0
C1125 C 0.97575 0.77 0.2584 0.0
C1126 C 0.99338 0.76987 0.22741 0.0
C1127 C 0.01993 0.77964 0.23859 0.0
H1128 H 0.95197 0.88319 0.73666 0.0
H1129 H 0.83954 0.8127 0.72575 0.0
H1130 H 0.82232 0.82911 0.75006 0.0
H1131 H 0.83956 0.86839 0.77326 0.0
H1132 H 0.95277 0.94095 0.78234 0.0
H1133 H 0.96906 0.91901 0.75979 0.0
C1134 C 0.92369 0.87108 0.73956 0.0
C1135 C 0.89719 0.84713 0.72926 0.0
C1136 C 0.91395 0.88147 0.75316 0.0
C1137 C 0.86063 0.83133 0.73347 0.0
C1138 C 0.85066 0.84088 0.74729 0.0
C1139 C 0.86766 0.87918 0.77031 0.0
C1140 C 0.89475 0.90674 0.77936 0.0
C1141 C 0.87717 0.8668 0.75705 0.0
C1142 C 0.9312 0.92029 0.77542 0.0
C1143 C 0.94074 0.90766 0.76256 0.0
H1144 H 0.14652 0.97495 0.7805 0.0
H1145 H 0.0345 0.90131 0.76981 0.0
H1146 H 0.04475 0.92174 0.74329 0.0
H1147 H 0.08284 0.96591 0.72423 0.0
H1148 H 0.19437 0.04144 0.73422 0.0
H1149 H 0.18735 0.01455 0.75987 0.0
C1150 C 0.12465 0.9628 0.77225 0.0
C1151 C 0.08967 0.93705 0.77717 0.0
C1152 C 0.13056 0.9753 0.75698 0.0
C1153 C 0.06154 0.92154 0.76637 0.0
C1154 C 0.06733 0.93322 0.7512 0.0
C1155 C 0.10577 0.97611 0.73197 0.0
C1156 C 0.13885 0.00585 0.72758 0.0
C1157 C 0.1013 0.96098 0.74657 0.0
C1158 C 0.16861 0.01856 0.73747 0.0
C1159 C 0.16448 0.00334 0.75212 0.0
H1160 H 0.90069 0.05873 0.73824 0.0
H1161 H 0.96419 0.16286 0.71693 0.0
H1162 H -0.00161 0.18688 0.74074 0.0
H1163 H 0.01794 0.17439 0.76575 0.0
H1164 H 0.95688 0.0681 0.78546 0.0
H1165 H 0.91402 0.04885 0.76429 0.0
C1166 C 0.92142 0.08695 0.73892 0.0
C1167 C 0.9304 0.10875 0.72577 0.0
C1168 C 0.94193 0.09999 0.75233 0.0
C1169 C 0.95683 0.14542 0.72689 0.0
C1170 C 0.97671 0.15906 0.74045 0.0
C1171 C -0.00531 0.14739 0.76553 0.0
C1172 C 0.99071 0.12245 0.77692 0.0
C1173 C 0.97075 0.13605 0.75297 0.0
C1174 C 0.96063 0.08748 0.77662 0.0
C1175 C 0.93614 0.07647 0.76454 0.0
H1176 H 0.8128 0.40933 0.59004 0.0
H1177 H 0.9017 0.5184 0.58738 0.0
H1178 H 0.87931 0.53475 0.61009 0.0
H1179 H 0.83058 0.5198 0.62878 0.0
H1180 H 0.73715 0.41301 0.62861 0.0
H1181 H 0.76457 0.39412 0.60886 0.0
C1182 C 0.82737 0.43654 0.59449 0.0
C1183 C 0.85861 0.4627 0.587 0.0
C1184 C 0.81302 0.44635 0.60688 0.0
C1185 C 0.87748 0.49784 0.59299 0.0
C1186 C 0.86455 0.50727 0.60589 0.0
C1187 C 0.81637 0.49237 0.62445 0.0
C1188 C 0.78188 0.46793 0.63013 0.0
C1189 C 0.83167 0.48207 0.6126 0.0
C1190 C 0.76365 0.43248 0.6244 0.0
C1191 C 0.77934 0.42159 0.61309 0.0
H1192 H 0.45382 0.38495 0.57945 0.0
H1193 H 0.42191 0.30922 0.54214 0.0
H1194 H 0.38683 0.25941 0.55978 0.0
H1195 H 0.38426 0.23831 0.58628 0.0
H1196 H 0.41798 0.31402 0.62372 0.0
H1197 H 0.43238 0.3631 0.6057 0.0
C1198 C 0.43716 0.35776 0.57508 0.0
C1199 C 0.4408 0.35042 0.55966 0.0
C1200 C 0.41831 0.32925 0.58545 0.0
C1201 C 0.41948 0.31529 0.55401 0.0
C1202 C 0.39993 0.28676 0.56417 0.0
C1203 C 0.39274 0.26523 0.59051 0.0
C1204 C 0.4009 0.27294 0.60615 0.0
C1205 C 0.40186 0.29334 0.58003 0.0
C1206 C 0.41165 0.30765 0.61167 0.0
C1207 C 0.42039 0.33581 0.60133 0.0
H1208 H 0.654 0.16344 0.53653 0.0
H1209 H 0.65672 0.26535 0.53425 0.0
H1210 H 0.70188 0.28934 0.55468 0.0
H1211 H 0.73915 0.28052 0.57374 0.0
H1212 H 0.73044 0.17613 0.57799 0.0
H1213 H 0.6901 0.15429 0.55585 0.0
C1214 C 0.66441 0.19087 0.54054 0.0
C1215 C 0.65211 0.21259 0.53388 0.0
C1216 C 0.68966 0.20415 0.5525 0.0
C1217 C 0.6657 0.24804 0.53921 0.0
C1218 C 0.69166 0.26184 0.55084 0.0
C1219 C 0.72848 0.25304 0.56981 0.0
C1220 C 0.73743 0.22984 0.57758 0.0
C1221 C 0.70371 0.24005 0.55762 0.0
C1222 C 0.72374 0.19442 0.57223 0.0
C1223 C 0.70053 0.18185 0.55964 0.0
H1224 H 0.58844 0.16945 0.06558 0.0
H1225 H 0.48582 0.14378 0.04598 0.0
H1226 H 0.46653 0.15584 0.07073 0.0
H1227 H 0.48301 0.18291 0.0969 0.0
H1228 H 0.58771 0.21155 0.11513 0.0
H1229 H 0.60193 0.18902 0.09207 0.0
C1230 C 0.56158 0.16588 0.06677 0.0
C1231 C 0.53887 0.15636 0.05392 0.0
C1232 C 0.55123 0.1739 0.08079 0.0
C1233 C 0.5039 0.15119 0.05571 0.0
C1234 C 0.49298 0.15841 0.06983 0.0
C1235 C 0.50853 0.18344 0.09586 0.0
C1236 C 0.53455 0.19935 0.10751 0.0
C1237 C 0.517 0.17119 0.08229 0.0
C1238 C 0.56757 0.19996 0.10614 0.0
C1239 C 0.57572 0.18705 0.09298 0.0
H1240 H 0.74128 0.28785 0.05409 0.0
H1241 H 0.84729 0.37147 0.06761 0.0
H1242 H 0.84175 0.33951 0.09183 0.0
H1243 H 0.8024 0.29237 0.1105 0.0
H1244 H 0.6958 0.20998 0.09642 0.0
H1245 H 0.70618 0.2364 0.07089 0.0
C1246 C 0.7634 0.29867 0.06226 0.0
C1247 C 0.79434 0.33202 0.05935 0.0
C1248 C 0.75979 0.28042 0.07602 0.0
C1249 C 0.82318 0.34578 0.06976 0.0
C1250 C 0.81988 0.32762 0.08358 0.0
C1251 C 0.78191 0.27963 0.1017 0.0
C1252 C 0.74815 0.24962 0.10542 0.0
C1253 C 0.78773 0.29553 0.08706 0.0
C1254 C 0.72181 0.2334 0.09391 0.0
C1255 C 0.72765 0.24854 0.07931 0.0
H1256 H 0.64721 0.46044 0.1179 0.0
H1257 H 0.7384 0.53134 0.08987 0.0
H1258 H 0.69818 0.52064 0.06794 0.0
H1259 H 0.63917 0.48166 0.05583 0.0
H1260 H 0.55052 0.40356 0.08324 0.0
H1261 H 0.58702 0.42692 0.10653 0.0
C1262 C 0.65792 0.47447 0.1071 0.0
C1263 C 0.69529 0.49686 0.10536 0.0
C1264 C 0.63497 0.4665 0.09448 0.0
C1265 C 0.7095 0.51439 0.09136 0.0
C1266 C 0.68656 0.50799 0.07886 0.0
C1267 C 0.62755 0.47088 0.06701 0.0
C1268 C 0.5923 0.44133 0.068 0.0
C1269 C 0.6495 0.48282 0.08012 0.0
C1270 C 0.57755 0.4266 0.08238 0.0
C1271 C 0.5985 0.43971 0.09561 0.0
H1272 H 0.51967 0.89787 0.92469 0.0
H1273 H 0.45909 0.78672 0.93845 0.0
H1274 H 0.49016 0.77019 0.91994 0.0
H1275 H 0.53022 0.78577 0.89824 0.0
H1276 H 0.58162 0.89356 0.87982 0.0
H1277 H 0.56056 0.91363 0.90192 0.0
C1278 C 0.51372 0.87021 0.92364 0.0
C1279 C 0.48744 0.84348 0.93318 0.0
C1280 C 0.53048 0.86048 0.91211 0.0
C1281 C 0.47939 0.80771 0.93154 0.0
C1282 C 0.49724 0.79822 0.92086 0.0
C1283 C 0.53703 0.81372 0.89902 0.0
C1284 C 0.55666 0.83786 0.88723 0.0
C1285 C 0.5223 0.82421 0.9109 0.0
C1286 C 0.56612 0.87426 0.8887 0.0
C1287 C 0.55376 0.88566 0.90125 0.0
H1288 H 0.06701 0.58316 0.91843 0.0
H1289 H 0.08952 0.65278 0.95768 0.0
H1290 H 0.11593 0.70546 0.94104 0.0
H1291 H 0.14491 0.7317 0.91617 0.0
H1292 H 0.1182 0.66277 0.87652 0.0
H1293 H 0.08103 0.60982 0.89241 0.0
C1294 C 0.07636 0.60975 0.92324 0.0
C1295 C 0.0772 0.61414 0.93925 0.0
C1296 C 0.09154 0.64009 0.91358 0.0
C1297 C 0.08881 0.64864 0.94538 0.0
C1298 C 0.10431 0.67892 0.93588 0.0
C1299 C 0.12975 0.7052 0.91096 0.0
C1300 C 0.13475 0.7008 0.89536 0.0
C1301 C 0.10775 0.67503 0.92009 0.0
C1302 C 0.11484 0.66659 0.88859 0.0
C1303 C 0.09377 0.6363 0.89768 0.0
H1304 H 0.2542 0.42432 0.87184 0.0
H1305 H 0.34782 0.49118 0.84426 0.0
H1306 H 0.38722 0.50159 0.86642 0.0
H1307 H 0.39321 0.4987 0.89462 0.0
H1308 H 0.29948 0.42781 0.92154 0.0
H1309 H 0.26166 0.41111 0.89862 0.0
C1310 C 0.28333 0.44002 0.87061 0.0
C1311 C 0.29839 0.45728 0.85666 0.0
C1312 C 0.30555 0.44534 0.88329 0.0
C1313 C 0.33598 0.47771 0.85501 0.0
C1314 C 0.35836 0.48384 0.86768 0.0
C1315 C 0.3647 0.47881 0.89531 0.0
C1316 C 0.34893 0.46463 0.90964 0.0
C1317 C 0.34325 0.46891 0.88203 0.0
C1318 C 0.31209 0.43881 0.91054 0.0
C1319 C 0.29044 0.42948 0.89748 0.0
H1320 H 0.14782 0.53927 0.43502 0.0
H1321 H 0.23231 0.53505 0.46013 0.0
H1322 H 0.24638 0.5098 0.43781 0.0
H1323 H 0.24245 0.50045 0.41006 0.0
H1324 H 0.15963 0.50597 0.38425 0.0
H1325 H 0.13622 0.51805 0.40789 0.0
C1326 C 0.16838 0.53157 0.43566 0.0
C1327 C 0.18919 0.53896 0.44904 0.0
C1328 C 0.17679 0.51764 0.42262 0.0
C1329 C 0.21607 0.52942 0.44985 0.0
C1330 C 0.22422 0.51518 0.4371 0.0
C1331 C 0.21846 0.50299 0.40974 0.0
C1332 C 0.2029 0.50267 0.39555 0.0
C1333 C 0.2059 0.51079 0.42325 0.0
C1334 C 0.17184 0.50591 0.39514 0.0
C1335 C 0.15879 0.51331 0.40862 0.0
H1336 H 0.54494 0.7295 0.41821 0.0
H1337 H 0.46506 0.63853 0.39255 0.0
H1338 H 0.45208 0.59952 0.41492 0.0
H1339 H 0.45371 0.59544 0.44298 0.0
H1340 H 0.5327 0.68644 0.46898 0.0
H1341 H 0.55666 0.72116 0.4453 0.0
C1342 C 0.526 0.70079 0.4174 0.0
C1343 C 0.50596 0.68663 0.4039 0.0
C1344 C 0.5181 0.67877 0.43045 0.0
C1345 C 0.48095 0.64965 0.40288 0.0
C1346 C 0.47326 0.62749 0.4157 0.0
C1347 C 0.47705 0.6224 0.44335 0.0
C1348 C 0.49111 0.63868 0.45761 0.0
C1349 C 0.49018 0.64229 0.42975 0.0
C1350 C 0.52149 0.67344 0.45807 0.0
C1351 C 0.53492 0.69343 0.44456 0.0
H1352 H 0.31288 0.77538 0.45752 0.0
H1353 H 0.3912 0.88198 0.44226 0.0
H1354 H 0.356 0.87347 0.41876 0.0
H1355 H 0.30836 0.83144 0.40098 0.0
H1356 H 0.23122 0.72431 0.41663 0.0
H1357 H 0.25985 0.73759 0.44178 0.0
C1358 C 0.32168 0.79699 0.44917 0.0
C1359 C 0.35452 0.829 0.45135 0.0
C1360 C 0.30157 0.7917 0.43579 0.0
C1361 C 0.36586 0.85711 0.44067 0.0
C1362 C 0.34586 0.85212 0.42726 0.0
C1363 C 0.29711 0.81146 0.41006 0.0
C1364 C 0.26812 0.77672 0.40687 0.0
C1365 C 0.31437 0.81896 0.42443 0.0
C1366 C 0.25385 0.75107 0.41874 0.0
C1367 C 0.27031 0.75855 0.4331 0.0
H1368 H 0.27094 0.15295 0.15502 0.0
H1369 H 0.26799 0.06539 0.18047 0.0
H1370 H 0.3242 0.07657 0.16841 0.0
H1371 H 0.38029 0.11994 0.15563 0.0
H1372 H 0.38575 0.21072 0.13175 0.0
H1373 H 0.32259 0.1894 0.13786 0.0
C1374 C 0.28186 0.13539 0.15733 0.0
C1375 C 0.26572 0.10855 0.16859 0.0
C1376 C 0.31523 0.14323 0.15094 0.0
C1377 C 0.2802 0.08623 0.17178 0.0
C1378 C 0.31251 0.09286 0.16502 0.0
C1379 C 0.36737 0.13447 0.15137 0.0
C1380 C 0.38792 0.16733 0.14362 0.0
C1381 C 0.33135 0.12268 0.15534 0.0
C1382 C 0.37068 0.18563 0.13799 0.0
C1383 C 0.33453 0.17353 0.14153 0.0
H1384 H 0.92212 0.19358 0.17813 0.0
H1385 H 0.85571 0.09402 0.15398 0.0
H1386 H 0.82469 0.12109 0.14078 0.0
H1387 H 0.80669 0.16749 0.14154 0.0
H1388 H 0.87198 0.26626 0.16655 0.0
H1389 H 0.91349 0.24537 0.17387 0.0
C1390 C 0.902 0.17842 0.16943 0.0
C1391 C 0.89066 0.14178 0.1672 0.0
C1392 C 0.88334 0.19371 0.16243 0.0
C1393 C 0.86487 0.12231 0.15585 0.0
C1394 C 0.84667 0.13761 0.14853 0.0
C1395 C 0.83054 0.1848 0.14826 0.0
C1396 C 0.83577 0.21787 0.15389 0.0
C1397 C 0.85404 0.1724 0.15258 0.0
C1398 C 0.86714 0.24046 0.16226 0.0
C1399 C 0.89082 0.22847 0.1665 0.0
H1400 H 0.82172 0.72825 0.17706 0.0
H1401 H 0.92213 0.74884 0.15672 0.0
H1402 H 0.89094 0.69063 0.14346 0.0
H1403 H 0.83804 0.62913 0.14268 0.0
H1404 H 0.73892 0.6081 0.1648 0.0
H1405 H 0.76659 0.67115 0.17234 0.0
C1406 C 0.83647 0.72051 0.16925 0.0
C1407 C 0.87408 0.74225 0.16802 0.0
C1408 C 0.81875 0.68643 0.16239 0.0
C1409 C 0.89307 0.73243 0.15779 0.0
C1410 C 0.87533 0.69887 0.15044 0.0
C1411 C 0.82233 0.63852 0.14891 0.0
C1412 C 0.78683 0.61382 0.15356 0.0
C1413 C 0.83865 0.67479 0.15347 0.0
C1414 C 0.76654 0.62643 0.16136 0.0
C1415 C 0.7823 0.66251 0.16565 0.0
H1416 H 0.1944 0.37563 0.35576 0.0
H1417 H 0.1295 0.40341 0.32722 0.0
H1418 H 0.0938 0.34094 0.31881 0.0
H1419 H 0.08773 0.2813 0.31633 0.0
H1420 H 0.15308 0.25313 0.3442 0.0
H1421 H 0.18101 0.31244 0.35655 0.0
C1422 C 0.17208 0.36786 0.34788 0.0
C1423 C 0.16514 0.39425 0.34184 0.0
C1424 C 0.15169 0.33181 0.34302 0.0
C1425 C 0.13572 0.38372 0.33189 0.0
C1426 C 0.11526 0.34798 0.32706 0.0
C1427 C 0.10727 0.28777 0.32547 0.0
C1428 C 0.11873 0.26322 0.32924 0.0
C1429 C 0.12391 0.32217 0.3321 0.0
C1430 C 0.14377 0.27162 0.34116 0.0
C1431 C 0.16012 0.30573 0.34804 0.0
H1432 H 0.61917 0.74927 0.34142 0.0
H1433 H 0.63816 0.83924 0.37014 0.0
H1434 H 0.69922 0.87458 0.35993 0.0
H1435 H 0.74236 0.8837 0.33922 0.0
H1436 H 0.7217 0.79453 0.30973 0.0
H1437 H 0.667 0.75491 0.32413 0.0
C1438 C 0.63696 0.77631 0.3457 0.0
C1439 C 0.62385 0.79187 0.35622 0.0
C1440 C 0.67188 0.79676 0.33958 0.0
C1441 C 0.64739 0.82675 0.36184 0.0
C1442 C 0.68237 0.84708 0.35599 0.0
C1443 C 0.72664 0.85525 0.3364 0.0
C1444 C 0.73568 0.84203 0.3234 0.0
C1445 C 0.69431 0.83295 0.34434 0.0
C1446 C 0.71499 0.80524 0.31969 0.0
C1447 C 0.68353 0.78266 0.32782 0.0
H1448 H 0.19011 0.92283 0.32506 0.0
H1449 H 0.09266 0.85433 0.35028 0.0
H1450 H 0.12495 0.83213 0.36592 0.0
H1451 H 0.17656 0.82178 0.3676 0.0
H1452 H 0.27352 0.8895 0.34178 0.0
H1453 H 0.24613 0.92309 0.33139 0.0
C1454 C 0.17645 0.90423 0.33445 0.0
C1455 C 0.13914 0.88973 0.33645 0.0
C1456 C 0.19492 0.89089 0.343 0.0
C1457 C 0.12147 0.86586 0.34863 0.0
C1458 C 0.13981 0.85278 0.35739 0.0
C1459 C 0.19201 0.84459 0.36005 0.0
C1460 C 0.22655 0.85259 0.35509 0.0
C1461 C 0.17588 0.86341 0.35396 0.0
C1462 C 0.2467 0.8826 0.3456 0.0
C1463 C 0.23098 0.90168 0.33958 0.0
H1464 H 0.73266 0.89819 0.80293 0.0
H1465 H 0.73607 0.80316 0.81672 0.0
H1466 H 0.67054 0.76995 0.81943 0.0
H1467 H 0.61544 0.77252 0.82361 0.0
H1468 H 0.61242 0.86881 0.81235 0.0
H1469 H 0.6743 0.89669 0.80239 0.0
C1470 C 0.71896 0.86992 0.80611 0.0
C1471 C 0.73921 0.85335 0.81 0.0
C1472 C 0.68135 0.85137 0.80819 0.0
C1473 C 0.72112 0.81666 0.81394 0.0
C1474 C 0.68365 0.79768 0.81552 0.0
C1475 C 0.62794 0.7991 0.8184 0.0
C1476 C 0.60989 0.81889 0.81883 0.0
C1477 C 0.66388 0.8154 0.81352 0.0
C1478 C 0.6259 0.85312 0.81204 0.0
C1479 C 0.66146 0.86921 0.80659 0.0
H1480 H 0.19922 0.7976 0.82976 0.0
H1481 H 0.26031 0.87245 0.8658 0.0
H1482 H 0.24559 0.91647 0.85542 0.0
H1483 H 0.20368 0.927 0.84006 0.0
H1484 H 0.1362 0.8482 0.80639 0.0
H1485 H 0.1654 0.81281 0.81154 0.0
C1486 C 0.21044 0.8241 0.83495 0.0
C1487 C 0.23035 0.83175 0.84858 0.0
C1488 C 0.20001 0.84831 0.82948 0.0
C1489 C 0.24459 0.86599 0.85533 0.0
C1490 C 0.23596 0.89103 0.84947 0.0
C1491 C 0.19638 0.90276 0.83349 0.0
C1492 C 0.16765 0.88982 0.82305 0.0
C1493 C 0.21187 0.88156 0.83714 0.0
C1494 C 0.15807 0.85831 0.81464 0.0
C1495 C 0.17463 0.83802 0.81762 0.0
H1496 H 0.13626 0.39765 0.82067 0.0
H1497 H 0.2177 0.41006 0.78813 0.0
H1498 H 0.18235 0.34585 0.78171 0.0
H1499 H 0.1357 0.28487 0.78986 0.0
H1500 H 0.05684 0.27295 0.82386 0.0
H1501 H 0.08364 0.33824 0.82519 0.0
C1502 C 0.14555 0.38649 0.81174 0.0
C1503 C 0.17964 0.4082 0.80503 0.0
C1504 C 0.12603 0.34944 0.80873 0.0
C1505 C 0.19143 0.3938 0.7934 0.0
C1506 C 0.1715 0.35696 0.78994 0.0
C1507 C 0.12392 0.29655 0.79732 0.0
C1508 C 0.09491 0.27416 0.80705 0.0
C1509 C 0.13994 0.33422 0.79825 0.0
C1510 C 0.07953 0.2896 0.81644 0.0
C1511 C 0.09484 0.32696 0.81722 0.0
H1512 H 0.78349 0.58157 0.69287 0.0
H1513 H 0.72747 0.58327 0.652 0.0
H1514 H 0.75079 0.64794 0.6554 0.0
H1515 H 0.79369 0.7052 0.66809 0.0
H1516 H 0.85403 0.70323 0.70732 0.0
H1517 H 0.82203 0.63741 0.70666 0.0
C1518 C 0.77583 0.59591 0.68484 0.0
C1519 C 0.7541 0.57778 0.67212 0.0
C1520 C 0.79031 0.63314 0.68657 0.0
C1521 C 0.74442 0.59674 0.66183 0.0
C1522 C 0.7578 0.63371 0.66375 0.0
C1523 C 0.79903 0.69018 0.6767 0.0
C1524 C 0.82604 0.70873 0.68773 0.0
C1525 C 0.78171 0.6524 0.6758 0.0
C1526 C 0.83333 0.68929 0.69871 0.0
C1527 C 0.81517 0.65174 0.6983 0.0
H1528 H 0.39564 0.19037 0.67221 0.0
H1529 H 0.37785 0.1145 0.63599 0.0
H1530 H 0.32063 0.0705 0.64777 0.0
H1531 H 0.27051 0.05951 0.66485 0.0
H1532 H 0.28551 0.13891 0.69898 0.0
H1533 H 0.349 0.17539 0.69173 0.0
C1534 C 0.37988 0.16371 0.66722 0.0
C1535 C 0.39064 0.15574 0.65319 0.0
C1536 C 0.34603 0.1395 0.67352 0.0
C1537 C 0.36989 0.12124 0.64676 0.0
C1538 C 0.33704 0.09622 0.65342 0.0
C1539 C 0.28795 0.08429 0.67099 0.0
C1540 C 0.27331 0.09686 0.68224 0.0
C1541 C 0.32393 0.10592 0.66626 0.0
C1542 C 0.29613 0.12897 0.69013 0.0
C1543 C 0.3324 0.14987 0.68596 0.0
H1544 H 0.78492 0.1948 0.65475 0.0
H1545 H 0.87531 0.25937 0.62491 0.0
H1546 H 0.91045 0.23604 0.63735 0.0
H1547 H 0.9133 0.19275 0.65485 0.0
H1548 H 0.82156 0.12523 0.68349 0.0
H1549 H 0.78943 0.1547 0.67362 0.0
C1550 C 0.81244 0.20405 0.6511 0.0
C1551 C 0.82734 0.22841 0.63883 0.0
C1552 C 0.83227 0.18997 0.65809 0.0
C1553 C 0.86307 0.24027 0.63423 0.0
C1554 C 0.88323 0.22701 0.64135 0.0
C1555 C 0.88659 0.18507 0.65916 0.0
C1556 C 0.86971 0.15683 0.6698 0.0
C1557 C 0.86781 0.20122 0.65304 0.0
C1558 C 0.83498 0.14684 0.67521 0.0
C1559 C 0.81655 0.16356 0.66954 0.0
H1560 H 0.04978 0.54909 0.48974 0.0
H1561 H 0.06625 0.46402 0.50713 0.0
H1562 H 0.00627 0.43469 0.51867 0.0
H1563 H 0.95349 0.43787 0.52686 0.0
H1564 H 0.93637 0.52291 0.5103 0.0
H1565 H 0.99243 0.5477 0.49521 0.0
C1566 C 0.03992 0.52372 0.49577 0.0
C1567 C 0.06263 0.50903 0.49783 0.0
C1568 C 0.0057 0.50744 0.5027 0.0
C1569 C 0.04944 0.47605 0.50555 0.0
C1570 C 0.01523 0.45936 0.51221 0.0
C1571 C 0.9619 0.4617 0.51983 0.0
C1572 C 0.94159 0.4792 0.5199 0.0
C1573 C 0.99389 0.47563 0.51138 0.0
C1574 C 0.95198 0.50934 0.51048 0.0
C1575 C 0.98398 0.52348 0.50193 0.0
H1576 H 0.56914 0.49023 0.50997 0.0
H1577 H 0.56812 0.50799 0.55871 0.0
H1578 H 0.55988 0.55955 0.55382 0.0
H1579 H 0.53765 0.58886 0.53595 0.0
H1580 H 0.53043 0.56423 0.48767 0.0
H1581 H 0.55753 0.52656 0.49196 0.0
C1582 C 0.56829 0.50606 0.51953 0.0
C1583 C 0.56821 0.49473 0.53467 0.0
C1584 C 0.56132 0.53415 0.51665 0.0
C1585 C 0.56767 0.51585 0.54693 0.0
C1586 C 0.56261 0.54515 0.54414 0.0
C1587 C 0.54342 0.57629 0.52637 0.0
C1588 C 0.53219 0.57896 0.51155 0.0
C1589 C 0.55704 0.553 0.52909 0.0
C1590 C 0.53899 0.56228 0.49916 0.0
C1591 C 0.55425 0.54064 0.50164 0.0
H1592 H 0.49851 0.08524 0.50921 0.0
H1593 H 0.5523 0.09381 0.46608 0.0
H1594 H 0.51465 0.02924 0.46201 0.0
H1595 H 0.47277 0.96985 0.47224 0.0
H1596 H 0.4193 0.95945 0.51551 0.0
H1597 H 0.44997 0.02536 0.5179 0.0
C1598 C 0.50146 0.07302 0.49881 0.0
C1599 C 0.52859 0.09412 0.48811 0.0
C1600 C 0.48003 0.0356 0.49663 0.0
C1601 C 0.53198 0.07806 0.4746 0.0
C1602 C 0.51049 0.04112 0.47226 0.0
C1603 C 0.46742 0.98204 0.48209 0.0
C1604 C 0.44447 0.96012 0.49382 0.0
C1605 C 0.48545 0.01955 0.48345 0.0
C1606 C 0.43709 0.976 0.50638 0.0
C1607 C 0.45478 0.0136 0.50778 0.0
H1608 H 0.49027 0.02321 0.01971 0.0
H1609 H 0.44258 0.05248 0.98295 0.0
H1610 H 0.41322 0.99064 0.97314 0.0
H1611 H 0.41267 0.93301 0.97204 0.0
H1612 H 0.46289 0.9051 0.00832 0.0
H1613 H 0.47956 0.96168 0.02145 0.0
C1614 C 0.47246 0.01564 0.00984 0.0
C1615 C 0.46904 0.04212 0.00181 0.0
C1616 C 0.45692 0.98063 0.00402 0.0
C1617 C 0.44557 0.03232 0.98923 0.0
C1618 C 0.42923 -0.00285 0.98352 0.0
C1619 C 0.4267 0.93909 0.98296 0.0
C1620 C 0.43756 0.91563 0.98902 0.0
C1621 C 0.43657 0.9718 0.99031 0.0
C1622 C 0.45482 0.92314 0.00334 0.0
C1623 C 0.46438 0.95546 0.01083 0.0
H1624 H 0.94025 0.47683 0.02526 0.0
H1625 H 0.91768 0.37785 0.00272 0.0
H1626 H 0.98004 0.40544 0.99419 0.0
H1627 H 0.0363 0.46088 0.98839 0.0
H1628 H 0.05938 0.56052 0.0101 0.0
H1629 H 0.00214 0.52935 0.02415 0.0
C1630 C 0.94924 0.46109 0.01881 0.0
C1631 C 0.92414 0.42576 0.0142 0.0
C1632 C 0.98524 0.4773 0.01375 0.0
C1633 C 0.93627 0.4054 0.00612 0.0
C1634 C 0.97198 0.42112 0.00123 0.0
C1635 C 0.02938 0.47537 0.9967 0.0
C1636 C 0.05144 0.5128 0.9981 0.0
C1637 C -0.00392 0.45754 0.00427 0.0
C1638 C 0.04266 0.53155 0.00891 0.0
C1639 C 0.00968 0.51383 0.01675 0.0
H1640 H 0.40215 0.47114 0.99258 0.0
H1641 H 0.4879 0.53836 0.96115 0.0
H1642 H 0.53203 0.5358 0.97775 0.0
H1643 H 0.54501 0.50694 0.99887 0.0
H1644 H 0.45947 0.4361 0.02953 0.0
H1645 H 0.41701 0.44865 0.01599 0.0
C1646 C 0.43055 0.48557 0.98953 0.0
C1647 C 0.44159 0.50407 0.9755 0.0
C1648 C 0.45596 0.48346 -0.00097 0.0
C1649 C 0.47853 0.5231 0.97172 0.0
C1650 C 0.50393 0.52188 0.98125 0.0
C1651 C 0.51738 0.49518 0.0029 0.0
C1652 C 0.50522 0.47025 0.01497 0.0
C1653 C 0.49279 0.50108 0.99462 0.0
C1654 C 0.46934 0.45518 0.02011 0.0
C1655 C 0.44495 0.46205 0.01228 0.0
loop_
_geom_bond_atom_site_label_1
_geom_bond_atom_site_label_2
_geom_bond_distance
_geom_bond_site_symmetry_2
_ccdc_geom_bond_type
Co0 O1 2.216 . S
Co0 O2 2.091 . S
Co0 O4 2.004 . S
Co0 O10 2.021 . S
Co0 O12 2.137 . S
Co0 O13 2.244 . S
O1 Co0 2.216 . S
O1 C8 1.247 . S
O2 Co0 2.091 . S
O2 C8 1.261 . S
C3 O12 1.247 . S
C3 O13 1.272 . S
O4 Co0 2.004 . S
O4 C9 1.259 . S
Co5 O6 2.061 . S
Co5 O11 2.052 . S
Co5 O13 2.135 . S
O6 Co5 2.061 . S
O6 C9 1.235 . S
C7 O10 1.238 . S
C7 O11 1.241 . S
C8 O1 1.247 . S
C8 O2 1.261 . S
C9 O4 1.259 . S
C9 O6 1.235 . S
O10 Co0 2.021 . S
O10 C7 1.238 . S
O11 Co5 2.052 . S
O11 C7 1.241 . S
O12 Co0 2.137 . S
O12 C3 1.247 . S
O13 Co0 2.244 . S
O13 C3 1.272 . S
O13 Co5 2.135 . S
Co14 O15 2.216 . S
Co14 O16 2.091 . S
Co14 O18 2.004 1_545 S
Co14 O24 2.021 . S
Co14 O26 2.137 1_545 S
Co14 O27 2.244 . S
O15 Co14 2.216 . S
O15 C22 1.247 . S
O16 Co14 2.091 . S
O16 C22 1.261 . S
C17 O26 1.247 1_545 S
C17 O27 1.272 . S
O18 Co14 2.004 1_565 S
O18 C23 1.259 . S
Co19 O20 2.079 . S
Co19 O25 2.028 1_565 S
Co19 O27 2.108 1_565 S
O20 Co19 2.079 . S
O20 C23 1.235 . S
C21 O24 1.238 . S
C21 O25 1.241 . S
C22 O15 1.247 . S
C22 O16 1.261 . S
C23 O18 1.259 . S
C23 O20 1.235 . S
O24 Co14 2.021 . S
O24 C21 1.238 . S
O25 Co19 2.028 1_545 S
O25 C21 1.241 . S
O26 Co14 2.137 1_565 S
O26 C17 1.247 1_565 S
O27 Co14 2.244 . S
O27 C17 1.272 . S
O27 Co19 2.108 1_545 S
Co28 O29 2.216 . S
Co28 O30 2.091 . S
Co28 O32 2.004 1_655 S
Co28 O38 2.021 . S
Co28 O40 2.137 1_655 S
Co28 O41 2.244 . S
O29 Co28 2.216 . S
O29 C36 1.247 . S
O30 Co28 2.091 . S
O30 C36 1.261 . S
C31 O40 1.247 1_655 S
C31 O41 1.272 . S
O32 Co28 2.004 1_455 S
O32 C37 1.259 . S
Co33 O34 2.061 . S
Co33 O39 2.052 1_455 S
Co33 O41 2.135 1_455 S
O34 Co33 2.061 . S
O34 C37 1.235 . S
C35 O38 1.238 . S
C35 O39 1.241 . S
C36 O29 1.247 . S
C36 O30 1.261 . S
C37 O32 1.259 . S
C37 O34 1.235 . S
O38 Co28 2.021 . S
O38 C35 1.238 . S
O39 Co33 2.052 1_655 S
O39 C35 1.241 . S
O40 Co28 2.137 1_455 S
O40 C31 1.247 1_455 S
O41 Co28 2.244 . S
O41 C31 1.272 . S
O41 Co33 2.135 1_655 S
Co42 O43 2.216 . S
Co42 O44 2.091 . S
Co42 O46 2.004 . S
Co42 O52 2.021 . S
Co42 O54 2.137 . S
Co42 O55 2.244 . S
O43 Co42 2.216 . S
O43 C50 1.247 . S
O44 Co42 2.091 . S
O44 C50 1.261 . S
C45 O54 1.247 . S
C45 O55 1.272 . S
O46 Co42 2.004 . S
O46 C51 1.259 . S
Co47 O48 2.061 . S
Co47 O53 2.052 . S
Co47 O55 2.135 . S
O48 Co47 2.061 . S
O48 C51 1.235 . S
C49 O52 1.238 . S
C49 O53 1.241 . S
C50 O43 1.247 . S
C50 O44 1.261 . S
C51 O46 1.259 . S
C51 O48 1.235 . S
O52 Co42 2.021 . S
O52 C49 1.238 . S
O53 Co47 2.052 . S
O53 C49 1.241 . S
O54 Co42 2.137 . S
O54 C45 1.247 . S
O55 Co42 2.244 . S
O55 C45 1.272 . S
O55 Co47 2.135 . S
Co56 O57 2.216 . S
Co56 O58 2.091 . S
Co56 O60 2.004 1_565 S
Co56 O66 2.021 . S
Co56 O68 2.137 1_565 S
Co56 O69 2.244 . S
O57 Co56 2.216 . S
O57 C64 1.247 . S
O58 Co56 2.091 . S
O58 C64 1.261 . S
C59 O68 1.247 1_565 S
C59 O69 1.272 . S
O60 Co56 2.004 1_545 S
O60 C65 1.259 . S
Co61 O62 2.061 . S
Co61 O67 2.052 1_545 S
Co61 O69 2.135 1_545 S
O62 Co61 2.061 . S
O62 C65 1.235 . S
C63 O66 1.238 . S
C63 O67 1.241 . S
C64 O57 1.247 . S
C64 O58 1.261 . S
C65 O60 1.259 . S
C65 O62 1.235 . S
O66 Co56 2.021 . S
O66 C63 1.238 . S
O67 Co61 2.052 1_565 S
O67 C63 1.241 . S
O68 Co56 2.137 1_545 S
O68 C59 1.247 1_545 S
O69 Co56 2.244 . S
O69 C59 1.272 . S
O69 Co61 2.135 1_565 S
Co70 O71 2.216 . S
Co70 O72 2.091 . S
Co70 O74 2.004 1_455 S
Co70 O80 2.021 . S
Co70 O82 2.137 1_455 S
Co70 O83 2.244 . S
O71 Co70 2.216 . S
O71 C78 1.247 . S
O72 Co70 2.091 . S
O72 C78 1.261 . S
C73 O82 1.247 1_455 S
C73 O83 1.272 . S
O74 Co70 2.004 1_655 S
O74 C79 1.259 . S
Co75 O76 2.080 . S
Co75 O81 2.028 1_655 S
Co75 O83 2.108 1_655 S
O76 Co75 2.080 . S
O76 C79 1.235 . S
C77 O80 1.238 . S
C77 O81 1.241 . S
C78 O71 1.247 . S
C78 O72 1.261 . S
C79 O74 1.259 . S
C79 O76 1.235 . S
O80 Co70 2.021 . S
O80 C77 1.238 . S
O81 Co75 2.028 1_455 S
O81 C77 1.241 . S
O82 Co70 2.137 1_655 S
O82 C73 1.247 1_655 S
O83 Co70 2.244 . S
O83 C73 1.272 . S
O83 Co75 2.108 1_455 S
Co84 O85 2.216 . S
Co84 O86 2.091 . S
Co84 O88 2.004 . S
Co84 O94 2.021 . S
Co84 O96 2.137 . S
Co84 O97 2.244 . S
O85 Co84 2.216 . S
O85 C92 1.247 . S
O86 Co84 2.091 . S
O86 C92 1.261 . S
C87 O96 1.247 . S
C87 O97 1.272 . S
O88 Co84 2.004 . S
O88 C93 1.259 . S
Co89 O90 2.061 . S
Co89 O95 2.052 . S
Co89 O97 2.135 . S
O90 Co89 2.061 . S
O90 C93 1.235 . S
C91 O94 1.238 . S
C91 O95 1.241 . S
C92 O85 1.247 . S
C92 O86 1.261 . S
C93 O88 1.259 . S
C93 O90 1.235 . S
O94 Co84 2.021 . S
O94 C91 1.238 . S
O95 Co89 2.052 . S
O95 C91 1.241 . S
O96 Co84 2.137 . S
O96 C87 1.247 . S
O97 Co84 2.244 . S
O97 C87 1.272 . S
O97 Co89 2.135 . S
Co98 O99 2.216 . S
Co98 O100 2.091 . S
Co98 O102 2.004 1_565 S
Co98 O108 2.021 . S
Co98 O110 2.137 . S
Co98 O111 2.244 . S
O99 Co98 2.216 . S
O99 C106 1.247 . S
O100 Co98 2.091 . S
O100 C106 1.261 . S
C101 O110 1.247 . S
C101 O111 1.272 . S
O102 Co98 2.004 1_545 S
O102 C107 1.259 . S
Co103 O104 2.061 . S
Co103 O109 2.052 1_545 S
Co103 O111 2.135 1_545 S
O104 Co103 2.061 . S
O104 C107 1.235 . S
C105 O108 1.238 . S
C105 O109 1.240 . S
C106 O99 1.247 . S
C106 O100 1.261 . S
C107 O102 1.259 . S
C107 O104 1.235 . S
O108 Co98 2.021 . S
O108 C105 1.238 . S
O109 Co103 2.052 1_565 S
O109 C105 1.240 . S
O110 Co98 2.137 . S
O110 C101 1.247 . S
O111 Co98 2.244 . S
O111 C101 1.272 . S
O111 Co103 2.135 1_565 S
Co112 O113 2.216 . S
Co112 O114 2.091 . S
Co112 O116 2.004 1_455 S
Co112 O122 2.021 . S
Co112 O124 2.137 . S
Co112 O125 2.244 . S
O113 Co112 2.216 . S
O113 C120 1.247 . S
O114 Co112 2.091 . S
O114 C120 1.261 . S
C115 O124 1.247 . S
C115 O125 1.272 . S
O116 Co112 2.004 1_655 S
O116 C121 1.259 . S
Co117 O118 2.061 . S
Co117 O123 2.052 1_655 S
Co117 O125 2.135 1_655 S
O118 Co117 2.061 . S
O118 C121 1.235 . S
C119 O122 1.233 . S
C119 O123 1.259 . S
C120 O113 1.247 . S
C120 O114 1.261 . S
C121 O116 1.259 . S
C121 O118 1.235 . S
O122 Co112 2.021 . S
O122 C119 1.233 . S
O123 Co117 2.052 1_455 S
O123 C119 1.259 . S
O124 Co112 2.137 . S
O124 C115 1.247 . S
O125 Co112 2.244 . S
O125 C115 1.272 . S
O125 Co117 2.135 1_455 S
Co126 O127 2.216 . S
Co126 O128 2.091 . S
Co126 O130 2.004 . S
Co126 O136 2.021 . S
Co126 O138 2.137 . S
Co126 O139 2.244 . S
O127 Co126 2.216 . S
O127 C134 1.247 . S
O128 Co126 2.091 . S
O128 C134 1.261 . S
C129 O138 1.247 . S
C129 O139 1.272 . S
O130 Co126 2.004 . S
O130 C135 1.259 . S
Co131 O132 2.061 . S
Co131 O137 2.052 . S
Co131 O139 2.135 . S
O132 Co131 2.061 . S
O132 C135 1.235 . S
C133 O136 1.238 . S
C133 O137 1.241 . S
C134 O127 1.247 . S
C134 O128 1.261 . S
C135 O130 1.259 . S
C135 O132 1.235 . S
O136 Co126 2.021 . S
O136 C133 1.238 . S
O137 Co131 2.052 . S
O137 C133 1.241 . S
O138 Co126 2.137 . S
O138 C129 1.247 . S
O139 Co126 2.244 . S
O139 C129 1.272 . S
O139 Co131 2.135 . S
Co140 O141 2.216 . S
Co140 O142 2.091 . S
Co140 O144 2.004 1_545 S
Co140 O150 2.021 . S
Co140 O152 2.137 . S
Co140 O153 2.244 . S
O141 Co140 2.216 . S
O141 C148 1.247 . S
O142 Co140 2.091 . S
O142 C148 1.261 . S
C143 O152 1.247 . S
C143 O153 1.272 . S
O144 Co140 2.004 1_565 S
O144 C149 1.259 . S
Co145 O146 2.061 . S
Co145 O151 2.052 1_565 S
Co145 O153 2.135 1_565 S
O146 Co145 2.061 . S
O146 C149 1.235 . S
C147 O150 1.234 . S
C147 O151 1.257 . S
C148 O141 1.247 . S
C148 O142 1.261 . S
C149 O144 1.259 . S
C149 O146 1.235 . S
O150 Co140 2.021 . S
O150 C147 1.234 . S
O151 Co145 2.052 1_545 S
O151 C147 1.257 . S
O152 Co140 2.137 . S
O152 C143 1.247 . S
O153 Co140 2.244 . S
O153 C143 1.272 . S
O153 Co145 2.135 1_545 S
Co154 O155 2.216 . S
Co154 O156 2.091 . S
Co154 O158 2.004 1_655 S
Co154 O164 2.021 . S
Co154 O166 2.137 . S
Co154 O167 2.244 . S
O155 Co154 2.216 . S
O155 C162 1.247 . S
O156 Co154 2.091 . S
O156 C162 1.261 . S
C157 O166 1.247 . S
C157 O167 1.272 . S
O158 Co154 2.004 1_455 S
O158 C163 1.259 . S
Co159 O160 2.061 . S
Co159 O165 2.052 1_455 S
Co159 O167 2.135 1_455 S
O160 Co159 2.061 . S
O160 C163 1.235 . S
C161 O164 1.237 . S
C161 O165 1.242 . S
C162 O155 1.247 . S
C162 O156 1.261 . S
C163 O158 1.259 . S
C163 O160 1.235 . S
O164 Co154 2.021 . S
O164 C161 1.237 . S
O165 Co159 2.052 1_655 S
O165 C161 1.242 . S
O166 Co154 2.137 . S
O166 C157 1.247 . S
O167 Co154 2.244 . S
O167 C157 1.272 . S
O167 Co159 2.135 1_655 S
Co168 O169 2.216 . S
Co168 O170 2.091 . S
Co168 O172 2.004 . S
Co168 O178 2.021 . S
Co168 O180 2.137 . S
Co168 O181 2.244 . S
O169 Co168 2.216 . S
O169 C176 1.247 . S
O170 Co168 2.091 . S
O170 C176 1.261 . S
C171 O180 1.247 . S
C171 O181 1.272 . S
O172 Co168 2.004 . S
O172 C177 1.259 . S
Co173 O174 2.061 . S
Co173 O179 2.052 . S
Co173 O181 2.135 . S
O174 Co173 2.061 . S
O174 C177 1.235 . S
C175 O178 1.238 . S
C175 O179 1.241 . S
C176 O169 1.247 . S
C176 O170 1.261 . S
C177 O172 1.259 . S
C177 O174 1.235 . S
O178 Co168 2.021 . S
O178 C175 1.238 . S
O179 Co173 2.052 . S
O179 C175 1.241 . S
O180 Co168 2.137 . S
O180 C171 1.247 . S
O181 Co168 2.244 . S
O181 C171 1.272 . S
O181 Co173 2.135 . S
Co182 O183 2.216 . S
Co182 O184 2.091 . S
Co182 O186 2.004 . S
Co182 O192 2.021 . S
Co182 O194 2.137 . S
Co182 O195 2.244 . S
O183 Co182 2.216 . S
O183 C190 1.247 . S
O184 Co182 2.091 . S
O184 C190 1.261 . S
C185 O194 1.247 . S
C185 O195 1.272 . S
O186 Co182 2.004 . S
O186 C191 1.259 . S
Co187 O188 2.061 . S
Co187 O193 2.052 . S
Co187 O195 2.135 . S
O188 Co187 2.061 . S
O188 C191 1.235 . S
C189 O192 1.238 . S
C189 O193 1.241 . S
C190 O183 1.247 . S
C190 O184 1.261 . S
C191 O186 1.259 . S
C191 O188 1.235 . S
O192 Co182 2.021 . S
O192 C189 1.238 . S
O193 Co187 2.052 . S
O193 C189 1.241 . S
O194 Co182 2.137 . S
O194 C185 1.247 . S
O195 Co182 2.244 . S
O195 C185 1.272 . S
O195 Co187 2.135 . S
Co196 O197 2.216 . S
Co196 O198 2.091 . S
Co196 O200 2.004 . S
Co196 O206 2.021 . S
Co196 O208 2.137 . S
Co196 O209 2.244 . S
O197 Co196 2.216 . S
O197 C204 1.247 . S
O198 Co196 2.091 . S
O198 C204 1.261 . S
C199 O208 1.247 . S
C199 O209 1.272 . S
O200 Co196 2.004 . S
O200 C205 1.259 . S
Co201 O202 2.061 . S
Co201 O207 2.052 . S
Co201 O209 2.135 . S
O202 Co201 2.061 . S
O202 C205 1.235 . S
C203 O206 1.238 . S
C203 O207 1.241 . S
C204 O197 1.247 . S
C204 O198 1.261 . S
C205 O200 1.259 . S
C205 O202 1.235 . S
O206 Co196 2.021 . S
O206 C203 1.238 . S
O207 Co201 2.052 . S
O207 C203 1.241 . S
O208 Co196 2.137 . S
O208 C199 1.247 . S
O209 Co196 2.244 . S
O209 C199 1.272 . S
O209 Co201 2.135 . S
Co210 O211 2.216 . S
Co210 O212 2.091 . S
Co210 O214 2.004 . S
Co210 O220 2.021 . S
Co210 O222 2.137 . S
Co210 O223 2.244 . S
O211 Co210 2.216 . S
O211 C218 1.247 . S
O212 Co210 2.091 . S
O212 C218 1.261 . S
C213 O222 1.247 . S
C213 O223 1.272 . S
O214 Co210 2.004 . S
O214 C219 1.259 . S
Co215 O216 2.061 . S
Co215 O221 2.052 . S
Co215 O223 2.135 . S
O216 Co215 2.061 . S
O216 C219 1.235 . S
C217 O220 1.238 . S
C217 O221 1.241 . S
C218 O211 1.247 . S
C218 O212 1.261 . S
C219 O214 1.259 . S
C219 O216 1.235 . S
O220 Co210 2.021 . S
O220 C217 1.238 . S
O221 Co215 2.052 . S
O221 C217 1.241 . S
O222 Co210 2.137 . S
O222 C213 1.247 . S
O223 Co210 2.244 . S
O223 C213 1.272 . S
O223 Co215 2.135 . S
Co224 O225 2.216 . S
Co224 O226 2.091 . S
Co224 O228 2.004 . S
Co224 O234 2.021 . S
Co224 O236 2.137 . S
Co224 O237 2.244 . S
O225 Co224 2.216 . S
O225 C232 1.247 . S
O226 Co224 2.091 . S
O226 C232 1.261 . S
C227 O236 1.247 . S
C227 O237 1.272 . S
O228 Co224 2.004 . S
O228 C233 1.259 . S
Co229 O230 2.061 . S
Co229 O235 2.052 . S
Co229 O237 2.135 . S
O230 Co229 2.061 . S
O230 C233 1.235 . S
C231 O234 1.238 . S
C231 O235 1.241 . S
C232 O225 1.247 . S
C232 O226 1.261 . S
C233 O228 1.259 . S
C233 O230 1.235 . S
O234 Co224 2.021 . S
O234 C231 1.238 . S
O235 Co229 2.052 . S
O235 C231 1.241 . S
O236 Co224 2.137 . S
O236 C227 1.247 . S
O237 Co224 2.244 . S
O237 C227 1.272 . S
O237 Co229 2.135 . S
Co238 O239 2.216 . S
Co238 O240 2.091 . S
Co238 O242 2.004 . S
Co238 O248 2.021 . S
Co238 O250 2.137 . S
Co238 O251 2.244 . S
O239 Co238 2.216 . S
O239 C246 1.247 . S
O240 Co238 2.091 . S
O240 C246 1.261 . S
C241 O250 1.247 . S
C241 O251 1.272 . S
O242 Co238 2.004 . S
O242 C247 1.259 . S
Co243 O244 2.061 . S
Co243 O249 2.052 . S
Co243 O251 2.135 . S
O244 Co243 2.061 . S
O244 C247 1.235 . S
C245 O248 1.238 . S
C245 O249 1.241 . S
C246 O239 1.247 . S
C246 O240 1.261 . S
C247 O242 1.259 . S
C247 O244 1.235 . S
O248 Co238 2.021 . S
O248 C245 1.238 . S
O249 Co243 2.052 . S
O249 C245 1.241 . S
O250 Co238 2.137 . S
O250 C241 1.247 . S
O251 Co238 2.244 . S
O251 C241 1.272 . S
O251 Co243 2.135 . S
Co252 O253 2.216 . S
Co252 O254 2.091 . S
Co252 O256 2.004 . S
Co252 O262 2.021 . S
Co252 O264 2.137 . S
Co252 O265 2.244 . S
O253 Co252 2.216 . S
O253 C260 1.247 . S
O254 Co252 2.091 . S
O254 C260 1.261 . S
C255 O264 1.247 . S
C255 O265 1.272 . S
O256 Co252 2.004 . S
O256 C261 1.259 . S
Co257 O258 2.061 . S
Co257 O263 2.052 . S
Co257 O265 2.135 . S
O258 Co257 2.061 . S
O258 C261 1.235 . S
C259 O262 1.238 . S
C259 O263 1.241 . S
C260 O253 1.247 . S
C260 O254 1.261 . S
C261 O256 1.259 . S
C261 O258 1.235 . S
O262 Co252 2.021 . S
O262 C259 1.238 . S
O263 Co257 2.052 . S
O263 C259 1.241 . S
O264 Co252 2.137 . S
O264 C255 1.247 . S
O265 Co252 2.244 . S
O265 C255 1.272 . S
O265 Co257 2.135 . S
Co266 O267 2.216 . S
Co266 O268 2.091 . S
Co266 O270 2.004 . S
Co266 O276 2.021 . S
Co266 O278 2.137 . S
Co266 O279 2.244 . S
O267 Co266 2.216 . S
O267 C274 1.247 . S
O268 Co266 2.091 . S
O268 C274 1.261 . S
C269 O278 1.247 . S
C269 O279 1.272 . S
O270 Co266 2.004 . S
O270 C275 1.259 . S
Co271 O272 2.061 . S
Co271 O277 2.052 . S
Co271 O279 2.135 . S
O272 Co271 2.061 . S
O272 C275 1.235 . S
C273 O276 1.238 . S
C273 O277 1.241 . S
C274 O267 1.247 . S
C274 O268 1.261 . S
C275 O270 1.259 . S
C275 O272 1.235 . S
O276 Co266 2.021 . S
O276 C273 1.238 . S
O277 Co271 2.052 . S
O277 C273 1.241 . S
O278 Co266 2.137 . S
O278 C269 1.247 . S
O279 Co266 2.244 . S
O279 C269 1.272 . S
O279 Co271 2.135 . S
Co280 O281 2.216 . S
Co280 O282 2.091 . S
Co280 O284 2.004 . S
Co280 O290 2.021 . S
Co280 O292 2.137 . S
Co280 O293 2.244 . S
O281 Co280 2.216 . S
O281 C288 1.247 . S
O282 Co280 2.091 . S
O282 C288 1.261 . S
C283 O292 1.247 . S
C283 O293 1.272 . S
O284 Co280 2.004 . S
O284 C289 1.259 . S
Co285 O286 2.061 . S
Co285 O291 2.052 . S
Co285 O293 2.135 . S
O286 Co285 2.061 . S
O286 C289 1.235 . S
C287 O290 1.238 . S
C287 O291 1.241 . S
C288 O281 1.247 . S
C288 O282 1.261 . S
C289 O284 1.259 . S
C289 O286 1.235 . S
O290 Co280 2.021 . S
O290 C287 1.238 . S
O291 Co285 2.052 . S
O291 C287 1.241 . S
O292 Co280 2.137 . S
O292 C283 1.247 . S
O293 Co280 2.244 . S
O293 C283 1.272 . S
O293 Co285 2.135 . S
Co294 O295 2.216 . S
Co294 O296 2.091 1_554 S
Co294 O298 2.004 1_554 S
Co294 O304 2.021 . S
Co294 O306 2.137 1_554 S
Co294 O307 2.244 . S
O295 Co294 2.216 . S
O295 C302 1.247 1_554 S
O296 Co294 2.091 1_556 S
O296 C302 1.261 . S
C297 O306 1.247 1_554 S
C297 O307 1.272 . S
O298 Co294 2.004 1_556 S
O298 C303 1.259 1_556 S
Co299 O300 2.061 . S
Co299 O305 2.052 . S
Co299 O307 2.135 . S
O300 Co299 2.061 . S
O300 C303 1.235 . S
C301 O304 1.238 . S
C301 O305 1.241 . S
C302 O295 1.247 1_556 S
C302 O296 1.261 . S
C303 O298 1.259 1_554 S
C303 O300 1.235 . S
O304 Co294 2.021 . S
O304 C301 1.238 . S
O305 Co299 2.052 . S
O305 C301 1.241 . S
O306 Co294 2.137 1_556 S
O306 C297 1.247 1_556 S
O307 Co294 2.244 . S
O307 C297 1.272 . S
O307 Co299 2.135 . S
Co308 O309 2.216 . S
Co308 O310 2.091 1_554 S
Co308 O312 2.004 1_554 S
Co308 O318 2.021 . S
Co308 O320 2.137 1_554 S
Co308 O321 2.244 . S
O309 Co308 2.216 . S
O309 C316 1.247 1_554 S
O310 Co308 2.091 1_556 S
O310 C316 1.261 . S
C311 O320 1.247 1_554 S
C311 O321 1.272 . S
O312 Co308 2.004 1_556 S
O312 C317 1.259 1_556 S
Co313 O314 2.061 . S
Co313 O319 2.052 . S
Co313 O321 2.135 . S
O314 Co313 2.061 . S
O314 C317 1.235 . S
C315 O318 1.238 . S
C315 O319 1.241 . S
C316 O309 1.247 1_556 S
C316 O310 1.261 . S
C317 O312 1.259 1_554 S
C317 O314 1.235 . S
O318 Co308 2.021 . S
O318 C315 1.238 . S
O319 Co313 2.052 . S
O319 C315 1.241 . S
O320 Co308 2.137 1_556 S
O320 C311 1.247 1_556 S
O321 Co308 2.244 . S
O321 C311 1.272 . S
O321 Co313 2.135 . S
Co322 O323 2.216 . S
Co322 O324 2.091 1_554 S
Co322 O326 2.004 1_554 S
Co322 O332 2.021 . S
Co322 O334 2.137 1_554 S
Co322 O335 2.244 . S
O323 Co322 2.216 . S
O323 C330 1.247 1_554 S
O324 Co322 2.091 1_556 S
O324 C330 1.261 . S
C325 O334 1.247 1_554 S
C325 O335 1.272 . S
O326 Co322 2.004 1_556 S
O326 C331 1.259 1_556 S
Co327 O328 2.061 . S
Co327 O333 2.052 . S
Co327 O335 2.135 . S
O328 Co327 2.061 . S
O328 C331 1.235 . S
C329 O332 1.238 . S
C329 O333 1.241 . S
C330 O323 1.247 1_556 S
C330 O324 1.261 . S
C331 O326 1.259 1_554 S
C331 O328 1.235 . S
O332 Co322 2.021 . S
O332 C329 1.238 . S
O333 Co327 2.052 . S
O333 C329 1.241 . S
O334 Co322 2.137 1_556 S
O334 C325 1.247 1_556 S
O335 Co322 2.244 . S
O335 C325 1.272 . S
O335 Co327 2.135 . S
Co336 O337 2.216 . S
Co336 O338 2.091 . S
Co336 O340 2.004 . S
Co336 O346 2.021 . S
Co336 O348 2.137 . S
Co336 O349 2.244 . S
O337 Co336 2.216 . S
O337 C344 1.247 . S
O338 Co336 2.091 . S
O338 C344 1.261 . S
C339 O348 1.247 . S
C339 O349 1.272 . S
O340 Co336 2.004 . S
O340 C345 1.259 . S
Co341 O342 2.061 . S
Co341 O347 2.052 . S
Co341 O349 2.135 . S
O342 Co341 2.061 . S
O342 C345 1.235 . S
C343 O346 1.238 . S
C343 O347 1.241 . S
C344 O337 1.247 . S
C344 O338 1.261 . S
C345 O340 1.259 . S
C345 O342 1.235 . S
O346 Co336 2.021 . S
O346 C343 1.238 . S
O347 Co341 2.052 . S
O347 C343 1.241 . S
O348 Co336 2.137 . S
O348 C339 1.247 . S
O349 Co336 2.244 . S
O349 C339 1.272 . S
O349 Co341 2.135 . S
Co350 O351 2.216 . S
Co350 O352 2.091 . S
Co350 O354 2.004 . S
Co350 O360 2.021 . S
Co350 O362 2.137 . S
Co350 O363 2.244 . S
O351 Co350 2.216 . S
O351 C358 1.247 . S
O352 Co350 2.091 . S
O352 C358 1.261 . S
C353 O362 1.247 . S
C353 O363 1.272 . S
O354 Co350 2.004 . S
O354 C359 1.259 . S
Co355 O356 2.061 . S
Co355 O361 2.052 . S
Co355 O363 2.135 . S
O356 Co355 2.061 . S
O356 C359 1.235 . S
C357 O360 1.238 . S
C357 O361 1.241 . S
C358 O351 1.247 . S
C358 O352 1.261 . S
C359 O354 1.259 . S
C359 O356 1.235 . S
O360 Co350 2.021 . S
O360 C357 1.238 . S
O361 Co355 2.052 . S
O361 C357 1.241 . S
O362 Co350 2.137 . S
O362 C353 1.247 . S
O363 Co350 2.244 . S
O363 C353 1.272 . S
O363 Co355 2.135 . S
Co364 O365 2.216 . S
Co364 O366 2.091 . S
Co364 O368 2.004 . S
Co364 O374 2.021 . S
Co364 O376 2.137 . S
Co364 O377 2.244 . S
O365 Co364 2.216 . S
O365 C372 1.247 . S
O366 Co364 2.091 . S
O366 C372 1.261 . S
C367 O376 1.247 . S
C367 O377 1.272 . S
O368 Co364 2.004 . S
O368 C373 1.259 . S
Co369 O370 2.061 . S
Co369 O375 2.052 . S
Co369 O377 2.135 . S
O370 Co369 2.061 . S
O370 C373 1.235 . S
C371 O374 1.238 . S
C371 O375 1.241 . S
C372 O365 1.247 . S
C372 O366 1.261 . S
C373 O368 1.259 . S
C373 O370 1.235 . S
O374 Co364 2.021 . S
O374 C371 1.238 . S
O375 Co369 2.052 . S
O375 C371 1.241 . S
O376 Co364 2.137 . S
O376 C367 1.247 . S
O377 Co364 2.244 . S
O377 C367 1.272 . S
O377 Co369 2.135 . S
Co378 O379 2.216 . S
Co378 O380 2.091 1_556 S
Co378 O382 2.004 1_556 S
Co378 O388 2.021 1_556 S
Co378 O390 2.137 . S
Co378 O391 2.244 . S
O379 Co378 2.216 . S
O379 C386 1.247 1_556 S
O380 Co378 2.091 1_554 S
O380 C386 1.261 . S
C381 O390 1.247 . S
C381 O391 1.272 . S
O382 Co378 2.004 1_554 S
O382 C387 1.259 1_554 S
Co383 O384 2.061 . S
Co383 O389 2.052 . S
Co383 O391 2.135 . S
O384 Co383 2.061 . S
O384 C387 1.235 . S
C385 O388 1.238 1_556 S
C385 O389 1.241 . S
C386 O379 1.247 1_554 S
C386 O380 1.261 . S
C387 O382 1.259 1_556 S
C387 O384 1.235 . S
O388 Co378 2.021 1_554 S
O388 C385 1.238 1_554 S
O389 Co383 2.052 . S
O389 C385 1.241 . S
O390 Co378 2.137 . S
O390 C381 1.247 . S
O391 Co378 2.244 . S
O391 C381 1.272 . S
O391 Co383 2.135 . S
Co392 O393 2.216 . S
Co392 O394 2.091 1_556 S
Co392 O396 2.004 1_556 S
Co392 O402 2.021 1_556 S
Co392 O404 2.137 . S
Co392 O405 2.244 . S
O393 Co392 2.216 . S
O393 C400 1.247 1_556 S
O394 Co392 2.091 1_554 S
O394 C400 1.261 . S
C395 O404 1.247 . S
C395 O405 1.272 . S
O396 Co392 2.004 1_554 S
O396 C401 1.259 1_554 S
Co397 O398 2.061 . S
Co397 O403 2.052 . S
Co397 O405 2.135 . S
O398 Co397 2.061 . S
O398 C401 1.235 . S
C399 O402 1.238 1_556 S
C399 O403 1.241 . S
C400 O393 1.247 1_554 S
C400 O394 1.261 . S
C401 O396 1.259 1_556 S
C401 O398 1.235 . S
O402 Co392 2.021 1_554 S
O402 C399 1.238 1_554 S
O403 Co397 2.052 . S
O403 C399 1.241 . S
O404 Co392 2.137 . S
O404 C395 1.247 . S
O405 Co392 2.244 . S
O405 C395 1.272 . S
O405 Co397 2.135 . S
Co406 O407 2.216 . S
Co406 O408 2.091 1_556 S
Co406 O410 2.004 1_556 S
Co406 O416 2.021 1_556 S
Co406 O418 2.137 . S
Co406 O419 2.244 . S
O407 Co406 2.216 . S
O407 C414 1.247 1_556 S
O408 Co406 2.091 1_554 S
O408 C414 1.261 . S
C409 O418 1.247 . S
C409 O419 1.272 . S
O410 Co406 2.004 1_554 S
O410 C415 1.259 1_554 S
Co411 O412 2.061 . S
Co411 O417 2.052 . S
Co411 O419 2.135 . S
O412 Co411 2.061 . S
O412 C415 1.235 . S
C413 O416 1.238 1_556 S
C413 O417 1.241 . S
C414 O407 1.247 1_554 S
C414 O408 1.261 . S
C415 O410 1.259 1_556 S
C415 O412 1.235 . S
O416 Co406 2.021 1_554 S
O416 C413 1.238 1_554 S
O417 Co411 2.052 . S
O417 C413 1.241 . S
O418 Co406 2.137 . S
O418 C409 1.247 . S
O419 Co406 2.244 . S
O419 C409 1.272 . S
O419 Co411 2.135 . S
Co420 O421 2.216 . S
Co420 O422 2.091 . S
Co420 O424 2.004 . S
Co420 O430 2.021 . S
Co420 O432 2.137 . S
Co420 O433 2.244 . S
O421 Co420 2.216 . S
O421 C428 1.247 . S
O422 Co420 2.091 . S
O422 C428 1.261 . S
C423 O432 1.247 . S
C423 O433 1.272 . S
O424 Co420 2.004 . S
O424 C429 1.259 . S
Co425 O426 2.061 . S
Co425 O431 2.052 . S
Co425 O433 2.135 . S
O426 Co425 2.061 . S
O426 C429 1.235 . S
C427 O430 1.238 . S
C427 O431 1.241 . S
C428 O421 1.247 . S
C428 O422 1.261 . S
C429 O424 1.259 . S
C429 O426 1.235 . S
O430 Co420 2.021 . S
O430 C427 1.238 . S
O431 Co425 2.052 . S
O431 C427 1.241 . S
O432 Co420 2.137 . S
O432 C423 1.247 . S
O433 Co420 2.244 . S
O433 C423 1.272 . S
O433 Co425 2.135 . S
Co434 O435 2.216 . S
Co434 O436 2.091 . S
Co434 O438 2.004 . S
Co434 O444 2.021 . S
Co434 O446 2.137 . S
Co434 O447 2.244 . S
O435 Co434 2.216 . S
O435 C442 1.247 . S
O436 Co434 2.091 . S
O436 C442 1.261 . S
C437 O446 1.247 . S
C437 O447 1.272 . S
O438 Co434 2.004 . S
O438 C443 1.259 . S
Co439 O440 2.061 . S
Co439 O445 2.052 . S
Co439 O447 2.135 . S
O440 Co439 2.061 . S
O440 C443 1.235 . S
C441 O444 1.238 . S
C441 O445 1.241 . S
C442 O435 1.247 . S
C442 O436 1.261 . S
C443 O438 1.259 . S
C443 O440 1.235 . S
O444 Co434 2.021 . S
O444 C441 1.238 . S
O445 Co439 2.052 . S
O445 C441 1.241 . S
O446 Co434 2.137 . S
O446 C437 1.247 . S
O447 Co434 2.244 . S
O447 C437 1.272 . S
O447 Co439 2.135 . S
Co448 O449 2.216 . S
Co448 O450 2.091 . S
Co448 O452 2.004 . S
Co448 O458 2.021 . S
Co448 O460 2.137 . S
Co448 O461 2.244 . S
O449 Co448 2.216 . S
O449 C456 1.247 . S
O450 Co448 2.091 . S
O450 C456 1.261 . S
C451 O460 1.247 . S
C451 O461 1.272 . S
O452 Co448 2.004 . S
O452 C457 1.259 . S
Co453 O454 2.061 . S
Co453 O459 2.052 . S
Co453 O461 2.135 . S
O454 Co453 2.061 . S
O454 C457 1.235 . S
C455 O458 1.238 . S
C455 O459 1.241 . S
C456 O449 1.247 . S
C456 O450 1.261 . S
C457 O452 1.259 . S
C457 O454 1.235 . S
O458 Co448 2.021 . S
O458 C455 1.238 . S
O459 Co453 2.052 . S
O459 C455 1.241 . S
O460 Co448 2.137 . S
O460 C451 1.247 . S
O461 Co448 2.244 . S
O461 C451 1.272 . S
O461 Co453 2.135 . S
Co462 O463 2.216 . S
Co462 O464 2.091 . S
Co462 O466 2.004 . S
Co462 O472 2.021 . S
Co462 O474 2.137 . S
Co462 O475 2.244 . S
O463 Co462 2.216 . S
O463 C470 1.247 . S
O464 Co462 2.091 . S
O464 C470 1.261 . S
C465 O474 1.247 . S
C465 O475 1.272 . S
O466 Co462 2.004 . S
O466 C471 1.259 . S
Co467 O468 2.061 . S
Co467 O473 2.052 . S
Co467 O475 2.135 . S
O468 Co467 2.061 . S
O468 C471 1.235 . S
C469 O472 1.238 . S
C469 O473 1.241 . S
C470 O463 1.247 . S
C470 O464 1.261 . S
C471 O466 1.259 . S
C471 O468 1.235 . S
O472 Co462 2.021 . S
O472 C469 1.238 . S
O473 Co467 2.052 . S
O473 C469 1.241 . S
O474 Co462 2.137 . S
O474 C465 1.247 . S
O475 Co462 2.244 . S
O475 C465 1.272 . S
O475 Co467 2.135 . S
Co476 O477 2.216 . S
Co476 O478 2.091 . S
Co476 O480 2.004 . S
Co476 O486 2.021 . S
Co476 O488 2.137 . S
Co476 O489 2.244 . S
O477 Co476 2.216 . S
O477 C484 1.247 . S
O478 Co476 2.091 . S
O478 C484 1.261 . S
C479 O488 1.247 . S
C479 O489 1.272 . S
O480 Co476 2.004 . S
O480 C485 1.259 . S
Co481 O482 2.061 . S
Co481 O487 2.052 . S
Co481 O489 2.135 . S
O482 Co481 2.061 . S
O482 C485 1.235 . S
C483 O486 1.238 . S
C483 O487 1.241 . S
C484 O477 1.247 . S
C484 O478 1.261 . S
C485 O480 1.259 . S
C485 O482 1.235 . S
O486 Co476 2.021 . S
O486 C483 1.238 . S
O487 Co481 2.052 . S
O487 C483 1.241 . S
O488 Co476 2.137 . S
O488 C479 1.247 . S
O489 Co476 2.244 . S
O489 C479 1.272 . S
O489 Co481 2.135 . S
Co490 O491 2.216 . S
Co490 O492 2.091 . S
Co490 O494 2.004 . S
Co490 O500 2.021 . S
Co490 O502 2.137 . S
Co490 O503 2.244 . S
O491 Co490 2.216 . S
O491 C498 1.247 . S
O492 Co490 2.091 . S
O492 C498 1.261 . S
C493 O502 1.247 . S
C493 O503 1.272 . S
O494 Co490 2.004 . S
O494 C499 1.259 . S
Co495 O496 2.061 . S
Co495 O501 2.052 . S
Co495 O503 2.135 . S
O496 Co495 2.061 . S
O496 C499 1.235 . S
C497 O500 1.238 . S
C497 O501 1.241 . S
C498 O491 1.247 . S
C498 O492 1.261 . S
C499 O494 1.259 . S
C499 O496 1.235 . S
O500 Co490 2.021 . S
O500 C497 1.238 . S
O501 Co495 2.052 . S
O501 C497 1.241 . S
O502 Co490 2.137 . S
O502 C493 1.247 . S
O503 Co490 2.244 . S
O503 C493 1.272 . S
O503 Co495 2.135 . S
H504 C510 0.930 . S
H505 C513 0.930 . S
H506 C514 0.930 . S
H507 C515 0.930 . S
H508 C518 0.930 . S
H509 C519 0.931 1_455 S
C510 H504 0.930 . S
C510 C511 1.355 . S
C510 C512 1.415 . S
C511 C510 1.355 . S
C511 C513 1.419 . S
C512 C510 1.415 . S
C512 C517 1.425 . S
C512 C519 1.409 1_455 S
C513 H505 0.930 . S
C513 C511 1.419 . S
C513 C514 1.362 . S
C514 H506 0.930 . S
C514 C513 1.362 . S
C514 C517 1.409 . S
C515 H507 0.930 . S
C515 C516 1.355 . S
C515 C517 1.415 1_655 S
C516 C515 1.355 . S
C516 C518 1.419 . S
C517 C512 1.425 . S
C517 C514 1.409 . S
C517 C515 1.415 1_455 S
C518 H508 0.930 . S
C518 C516 1.419 . S
C518 C519 1.362 . S
C519 H509 0.931 1_655 S
C519 C512 1.409 1_655 S
C519 C518 1.362 . S
H520 C526 0.930 . S
H521 C529 0.930 . S
H522 C530 0.930 . S
H523 C531 0.930 . S
H524 C534 0.930 . S
H525 C535 0.930 . S
C526 H520 0.930 . S
C526 C527 1.355 . S
C526 C528 1.415 . S
C527 C526 1.355 . S
C527 C529 1.419 . S
C528 C526 1.415 . S
C528 C533 1.425 . S
C528 C535 1.409 . S
C529 H521 0.930 . S
C529 C527 1.419 . S
C529 C530 1.362 . S
C530 H522 0.930 . S
C530 C529 1.362 . S
C530 C533 1.409 . S
C531 H523 0.930 . S
C531 C532 1.355 . S
C531 C533 1.415 . S
C532 C531 1.355 . S
C532 C534 1.419 . S
C533 C528 1.425 . S
C533 C530 1.409 . S
C533 C531 1.415 . S
C534 H524 0.930 . S
C534 C532 1.419 . S
C534 C535 1.362 . S
C535 H525 0.930 . S
C535 C528 1.409 . S
C535 C534 1.362 . S
H536 C542 0.930 . S
H537 C545 0.930 . S
H538 C546 0.930 1_565 S
H539 C547 0.930 . S
H540 C550 0.930 . S
H541 C551 0.930 . S
C542 H536 0.930 . S
C542 C543 1.355 . S
C542 C544 1.415 1_545 S
C543 C542 1.355 . S
C543 C545 1.419 . S
C544 C542 1.415 1_565 S
C544 C549 1.425 . S
C544 C551 1.409 . S
C545 H537 0.930 . S
C545 C543 1.419 . S
C545 C546 1.362 . S
C546 H538 0.930 1_545 S
C546 C545 1.362 . S
C546 C549 1.409 1_545 S
C547 H539 0.930 . S
C547 C548 1.355 . S
C547 C549 1.415 . S
C548 C547 1.355 . S
C548 C550 1.419 . S
C549 C544 1.425 . S
C549 C546 1.409 1_565 S
C549 C547 1.415 . S
C550 H540 0.930 . S
C550 C548 1.419 . S
C550 C551 1.362 . S
C551 H541 0.930 . S
C551 C544 1.409 . S
C551 C550 1.362 . S
H552 C558 0.930 . S
H553 C561 0.930 . S
H554 C562 0.930 . S
H555 C563 0.930 . S
H556 C566 0.930 . S
H557 C567 0.931 . S
C558 H552 0.930 . S
C558 C559 1.355 . S
C558 C560 1.415 . S
C559 C558 1.355 . S
C559 C561 1.419 . S
C560 C558 1.415 . S
C560 C565 1.425 . S
C560 C567 1.409 1_545 S
C561 H553 0.930 . S
C561 C559 1.419 . S
C561 C562 1.362 . S
C562 H554 0.930 . S
C562 C561 1.362 . S
C562 C565 1.409 . S
C563 H555 0.930 . S
C563 C564 1.355 . S
C563 C565 1.415 1_565 S
C564 C563 1.355 . S
C564 C566 1.419 . S
C565 C560 1.425 . S
C565 C562 1.409 . S
C565 C563 1.415 1_545 S
C566 H556 0.930 . S
C566 C564 1.419 . S
C566 C567 1.362 . S
C567 H557 0.931 . S
C567 C560 1.409 1_565 S
C567 C566 1.362 . S
H568 C574 0.930 . S
H569 C577 0.930 . S
H570 C578 0.930 . S
H571 C579 0.930 . S
H572 C582 0.930 . S
H573 C583 0.930 1_655 S
C574 H568 0.930 . S
C574 C575 1.355 . S
C574 C576 1.415 . S
C575 C574 1.355 . S
C575 C577 1.419 . S
C576 C574 1.415 . S
C576 C581 1.425 . S
C576 C583 1.409 1_655 S
C577 H569 0.930 . S
C577 C575 1.419 . S
C577 C578 1.362 . S
C578 H570 0.930 . S
C578 C577 1.362 . S
C578 C581 1.409 . S
C579 H571 0.930 . S
C579 C580 1.355 . S
C579 C581 1.415 1_455 S
C580 C579 1.355 . S
C580 C582 1.419 . S
C581 C576 1.425 . S
C581 C578 1.409 . S
C581 C579 1.415 1_655 S
C582 H572 0.930 . S
C582 C580 1.419 . S
C582 C583 1.362 . S
C583 H573 0.930 1_455 S
C583 C576 1.409 1_455 S
C583 C582 1.362 . S
H584 C590 0.930 . S
H585 C593 0.930 . S
H586 C594 0.930 . S
H587 C595 0.930 . S
H588 C598 0.930 . S
H589 C599 0.930 . S
C590 H584 0.930 . S
C590 C591 1.355 . S
C590 C592 1.415 . S
C591 C590 1.355 . S
C591 C593 1.419 . S
C592 C590 1.415 . S
C592 C597 1.425 . S
C592 C599 1.409 . S
C593 H585 0.930 . S
C593 C591 1.419 . S
C593 C594 1.362 . S
C594 H586 0.930 . S
C594 C593 1.362 . S
C594 C597 1.409 . S
C595 H587 0.930 . S
C595 C596 1.355 . S
C595 C597 1.415 . S
C596 C595 1.355 . S
C596 C598 1.419 . S
C597 C592 1.425 . S
C597 C594 1.409 . S
C597 C595 1.415 . S
C598 H588 0.930 . S
C598 C596 1.419 . S
C598 C599 1.362 . S
C599 H589 0.930 . S
C599 C592 1.409 . S
C599 C598 1.362 . S
H600 C606 0.930 . S
H601 C609 0.930 . S
H602 C610 0.930 . S
H603 C611 0.930 . S
H604 C614 0.930 . S
H605 C615 0.915 1_655 S
C606 H600 0.930 . S
C606 C607 1.355 . S
C606 C608 1.415 . S
C607 C606 1.355 . S
C607 C609 1.419 . S
C608 C606 1.415 . S
C608 C613 1.425 . S
C608 C615 1.404 1_655 S
C609 H601 0.930 . S
C609 C607 1.419 . S
C609 C610 1.362 . S
C610 H602 0.930 . S
C610 C609 1.362 . S
C610 C613 1.409 . S
C611 H603 0.930 . S
C611 C612 1.355 . S
C611 C613 1.415 1_455 S
C612 C611 1.355 . S
C612 C614 1.419 . S
C613 C608 1.425 . S
C613 C610 1.409 . S
C613 C611 1.415 1_655 S
C614 H604 0.930 . S
C614 C612 1.419 . S
C614 C615 1.382 . S
C615 H605 0.915 1_455 S
C615 C608 1.404 1_455 S
C615 C614 1.382 . S
H616 C622 0.930 . S
H617 C625 0.930 . S
H618 C626 0.930 . S
H619 C627 0.930 . S
H620 C630 0.930 . S
H621 C631 0.930 . S
C622 H616 0.930 . S
C622 C623 1.355 . S
C622 C624 1.415 . S
C623 C622 1.355 . S
C623 C625 1.419 . S
C624 C622 1.415 . S
C624 C629 1.425 . S
C624 C631 1.409 . S
C625 H617 0.930 . S
C625 C623 1.419 . S
C625 C626 1.362 . S
C626 H618 0.930 . S
C626 C625 1.362 . S
C626 C629 1.409 . S
C627 H619 0.930 . S
C627 C628 1.355 . S
C627 C629 1.415 . S
C628 C627 1.355 . S
C628 C630 1.419 . S
C629 C624 1.425 . S
C629 C626 1.409 . S
C629 C627 1.415 . S
C630 H620 0.930 . S
C630 C628 1.419 . S
C630 C631 1.362 . S
C631 H621 0.930 . S
C631 C624 1.409 . S
C631 C630 1.362 . S
H632 C638 0.930 . S
H633 C641 0.930 . S
H634 C642 0.930 1_545 S
H635 C643 0.930 . S
H636 C646 0.930 . S
H637 C647 0.930 . S
C638 H632 0.930 . S
C638 C639 1.355 . S
C638 C640 1.415 1_565 S
C639 C638 1.355 . S
C639 C641 1.419 . S
C640 C638 1.415 1_545 S
C640 C645 1.425 . S
C640 C647 1.409 . S
C641 H633 0.930 . S
C641 C639 1.419 . S
C641 C642 1.362 . S
C642 H634 0.930 1_565 S
C642 C641 1.362 . S
C642 C645 1.409 1_565 S
C643 H635 0.930 . S
C643 C644 1.355 . S
C643 C645 1.415 . S
C644 C643 1.355 . S
C644 C646 1.419 . S
C645 C640 1.425 . S
C645 C642 1.409 1_545 S
C645 C643 1.415 . S
C646 H636 0.930 . S
C646 C644 1.419 . S
C646 C647 1.362 . S
C647 H637 0.930 . S
C647 C640 1.409 . S
C647 C646 1.362 . S
H648 C654 0.930 . S
H649 C657 0.930 . S
H650 C658 0.930 1_565 S
H651 C659 0.930 . S
H652 C662 0.930 . S
H653 C663 0.930 . S
C654 H648 0.930 . S
C654 C655 1.355 . S
C654 C656 1.415 1_545 S
C655 C654 1.355 . S
C655 C657 1.419 . S
C656 C654 1.415 1_565 S
C656 C661 1.425 . S
C656 C663 1.409 . S
C657 H649 0.930 . S
C657 C655 1.419 . S
C657 C658 1.362 . S
C658 H650 0.930 1_545 S
C658 C657 1.362 . S
C658 C661 1.409 1_545 S
C659 H651 0.930 . S
C659 C660 1.355 . S
C659 C661 1.415 . S
C660 C659 1.355 . S
C660 C662 1.419 . S
C661 C656 1.425 . S
C661 C658 1.409 1_565 S
C661 C659 1.415 . S
C662 H652 0.930 . S
C662 C660 1.419 . S
C662 C663 1.362 . S
C663 H653 0.930 . S
C663 C656 1.409 . S
C663 C662 1.362 . S
H664 C670 0.930 . S
H665 C673 0.930 . S
H666 C674 0.930 . S
H667 C675 0.930 . S
H668 C678 0.930 . S
H669 C679 0.930 1_455 S
C670 H664 0.930 . S
C670 C671 1.355 . S
C670 C672 1.415 . S
C671 C670 1.355 . S
C671 C673 1.419 . S
C672 C670 1.415 . S
C672 C677 1.425 . S
C672 C679 1.409 1_455 S
C673 H665 0.930 . S
C673 C671 1.419 . S
C673 C674 1.362 . S
C674 H666 0.930 . S
C674 C673 1.362 . S
C674 C677 1.409 . S
C675 H667 0.930 . S
C675 C676 1.355 . S
C675 C677 1.415 1_655 S
C676 C675 1.355 . S
C676 C678 1.419 . S
C677 C672 1.425 . S
C677 C674 1.409 . S
C677 C675 1.415 1_455 S
C678 H668 0.930 . S
C678 C676 1.419 . S
C678 C679 1.362 . S
C679 H669 0.930 1_655 S
C679 C672 1.409 1_655 S
C679 C678 1.362 . S
H680 C686 0.930 . S
H681 C689 0.930 . S
H682 C690 0.930 . S
H683 C691 0.930 . S
H684 C694 0.930 . S
H685 C695 0.930 . S
C686 H680 0.930 . S
C686 C687 1.355 . S
C686 C688 1.415 . S
C687 C686 1.355 . S
C687 C689 1.419 . S
C688 C686 1.415 . S
C688 C693 1.425 . S
C688 C695 1.409 . S
C689 H681 0.930 . S
C689 C687 1.419 . S
C689 C690 1.362 . S
C690 H682 0.930 . S
C690 C689 1.362 . S
C690 C693 1.409 . S
C691 H683 0.930 . S
C691 C692 1.355 . S
C691 C693 1.415 . S
C692 C691 1.355 . S
C692 C694 1.419 . S
C693 C688 1.425 . S
C693 C690 1.409 . S
C693 C691 1.415 . S
C694 H684 0.930 . S
C694 C692 1.419 . S
C694 C695 1.362 . S
C695 H685 0.930 . S
C695 C688 1.409 . S
C695 C694 1.362 . S
H696 C702 0.930 . S
H697 C705 0.930 . S
H698 C706 0.930 . S
H699 C707 0.930 . S
H700 C710 0.930 . S
H701 C711 0.930 . S
C702 H696 0.930 . S
C702 C703 1.355 . S
C702 C704 1.415 . S
C703 C702 1.355 . S
C703 C705 1.419 . S
C704 C702 1.415 . S
C704 C709 1.425 . S
C704 C711 1.409 . S
C705 H697 0.930 . S
C705 C703 1.419 . S
C705 C706 1.362 . S
C706 H698 0.930 . S
C706 C705 1.362 . S
C706 C709 1.409 . S
C707 H699 0.930 . S
C707 C708 1.355 . S
C707 C709 1.415 . S
C708 C707 1.355 . S
C708 C710 1.419 . S
C709 C704 1.425 . S
C709 C706 1.409 . S
C709 C707 1.415 . S
C710 H700 0.930 . S
C710 C708 1.419 . S
C710 C711 1.362 . S
C711 H701 0.930 . S
C711 C704 1.409 . S
C711 C710 1.362 . S
H712 C718 0.930 . S
H713 C721 0.930 . S
H714 C722 0.930 . S
H715 C723 0.930 . S
H716 C726 0.930 . S
H717 C727 0.930 . S
C718 H712 0.930 . S
C718 C719 1.355 . S
C718 C720 1.415 . S
C719 C718 1.355 . S
C719 C721 1.419 . S
C720 C718 1.415 . S
C720 C725 1.425 . S
C720 C727 1.409 . S
C721 H713 0.930 . S
C721 C719 1.419 . S
C721 C722 1.362 . S
C722 H714 0.930 . S
C722 C721 1.362 . S
C722 C725 1.409 . S
C723 H715 0.930 . S
C723 C724 1.355 . S
C723 C725 1.415 . S
C724 C723 1.355 . S
C724 C726 1.419 . S
C725 C720 1.425 . S
C725 C722 1.409 . S
C725 C723 1.415 . S
C726 H716 0.930 . S
C726 C724 1.419 . S
C726 C727 1.362 . S
C727 H717 0.930 . S
C727 C720 1.409 . S
C727 C726 1.362 . S
H728 C734 0.930 . S
H729 C737 0.930 . S
H730 C738 0.930 . S
H731 C739 0.930 . S
H732 C742 0.930 . S
H733 C743 0.930 . S
C734 H728 0.930 . S
C734 C735 1.355 . S
C734 C736 1.415 . S
C735 C734 1.355 . S
C735 C737 1.419 . S
C736 C734 1.415 . S
C736 C741 1.425 . S
C736 C743 1.409 . S
C737 H729 0.930 . S
C737 C735 1.419 . S
C737 C738 1.362 . S
C738 H730 0.930 . S
C738 C737 1.362 . S
C738 C741 1.409 . S
C739 H731 0.930 . S
C739 C740 1.355 . S
C739 C741 1.415 . S
C740 C739 1.355 . S
C740 C742 1.419 . S
C741 C736 1.425 . S
C741 C738 1.409 . S
C741 C739 1.415 . S
C742 H732 0.930 . S
C742 C740 1.419 . S
C742 C743 1.362 . S
C743 H733 0.930 . S
C743 C736 1.409 . S
C743 C742 1.362 . S
H744 C750 0.930 . S
H745 C753 0.930 . S
H746 C754 0.930 . S
H747 C755 0.930 . S
H748 C758 0.930 . S
H749 C759 0.930 . S
C750 H744 0.930 . S
C750 C751 1.355 . S
C750 C752 1.415 . S
C751 C750 1.355 . S
C751 C753 1.419 . S
C752 C750 1.415 . S
C752 C757 1.425 . S
C752 C759 1.409 . S
C753 H745 0.930 . S
C753 C751 1.419 . S
C753 C754 1.362 . S
C754 H746 0.930 . S
C754 C753 1.362 . S
C754 C757 1.409 . S
C755 H747 0.930 . S
C755 C756 1.355 . S
C755 C757 1.415 . S
C756 C755 1.355 . S
C756 C758 1.419 . S
C757 C752 1.425 . S
C757 C754 1.409 . S
C757 C755 1.415 . S
C758 H748 0.930 . S
C758 C756 1.419 . S
C758 C759 1.362 . S
C759 H749 0.930 . S
C759 C752 1.409 . S
C759 C758 1.362 . S
H760 C766 0.930 . S
H761 C769 0.930 . S
H762 C770 0.930 . S
H763 C771 0.930 . S
H764 C774 0.930 . S
H765 C775 0.930 . S
C766 H760 0.930 . S
C766 C767 1.355 . S
C766 C768 1.415 . S
C767 C766 1.355 . S
C767 C769 1.419 . S
C768 C766 1.415 . S
C768 C773 1.425 . S
C768 C775 1.409 . S
C769 H761 0.930 . S
C769 C767 1.419 . S
C769 C770 1.362 . S
C770 H762 0.930 . S
C770 C769 1.362 . S
C770 C773 1.409 . S
C771 H763 0.930 . S
C771 C772 1.355 . S
C771 C773 1.415 . S
C772 C771 1.355 . S
C772 C774 1.419 . S
C773 C768 1.425 . S
C773 C770 1.409 . S
C773 C771 1.415 . S
C774 H764 0.930 . S
C774 C772 1.419 . S
C774 C775 1.362 . S
C775 H765 0.930 . S
C775 C768 1.409 . S
C775 C774 1.362 . S
H776 C782 0.930 . S
H777 C785 0.930 . S
H778 C786 0.930 . S
H779 C787 0.930 . S
H780 C790 0.930 . S
H781 C791 0.930 . S
C782 H776 0.930 . S
C782 C783 1.355 . S
C782 C784 1.415 . S
C783 C782 1.355 . S
C783 C785 1.419 . S
C784 C782 1.415 . S
C784 C789 1.425 . S
C784 C791 1.409 . S
C785 H777 0.930 . S
C785 C783 1.419 . S
C785 C786 1.362 . S
C786 H778 0.930 . S
C786 C785 1.362 . S
C786 C789 1.409 . S
C787 H779 0.930 . S
C787 C788 1.355 . S
C787 C789 1.415 . S
C788 C787 1.355 . S
C788 C790 1.419 . S
C789 C784 1.425 . S
C789 C786 1.409 . S
C789 C787 1.415 . S
C790 H780 0.930 . S
C790 C788 1.419 . S
C790 C791 1.362 . S
C791 H781 0.930 . S
C791 C784 1.409 . S
C791 C790 1.362 . S
H792 C798 0.930 . S
H793 C801 0.930 . S
H794 C802 0.930 . S
H795 C803 0.930 . S
H796 C806 0.930 . S
H797 C807 0.930 . S
C798 H792 0.930 . S
C798 C799 1.355 . S
C798 C800 1.415 . S
C799 C798 1.355 . S
C799 C801 1.419 . S
C800 C798 1.415 . S
C800 C805 1.425 . S
C800 C807 1.409 . S
C801 H793 0.930 . S
C801 C799 1.419 . S
C801 C802 1.362 . S
C802 H794 0.930 . S
C802 C801 1.362 . S
C802 C805 1.409 . S
C803 H795 0.930 . S
C803 C804 1.355 . S
C803 C805 1.415 . S
C804 C803 1.355 . S
C804 C806 1.419 . S
C805 C800 1.425 . S
C805 C802 1.409 . S
C805 C803 1.415 . S
C806 H796 0.930 . S
C806 C804 1.419 . S
C806 C807 1.362 . S
C807 H797 0.930 . S
C807 C800 1.409 . S
C807 C806 1.362 . S
H808 C814 0.930 . S
H809 C817 0.930 . S
H810 C818 0.930 . S
H811 C819 0.930 . S
H812 C822 0.930 . S
H813 C823 0.930 . S
C814 H808 0.930 . S
C814 C815 1.355 . S
C814 C816 1.415 . S
C815 C814 1.355 . S
C815 C817 1.419 . S
C816 C814 1.415 . S
C816 C821 1.425 . S
C816 C823 1.409 . S
C817 H809 0.930 . S
C817 C815 1.419 . S
C817 C818 1.362 . S
C818 H810 0.930 . S
C818 C817 1.362 . S
C818 C821 1.409 . S
C819 H811 0.930 . S
C819 C820 1.355 . S
C819 C821 1.415 . S
C820 C819 1.355 . S
C820 C822 1.419 . S
C821 C816 1.425 . S
C821 C818 1.409 . S
C821 C819 1.415 . S
C822 H812 0.930 . S
C822 C820 1.419 . S
C822 C823 1.362 . S
C823 H813 0.930 . S
C823 C816 1.409 . S
C823 C822 1.362 . S
H824 C830 0.930 . S
H825 C833 0.930 . S
H826 C834 0.930 . S
H827 C835 0.930 . S
H828 C838 0.930 . S
H829 C839 0.930 . S
C830 H824 0.930 . S
C830 C831 1.355 . S
C830 C832 1.415 . S
C831 C830 1.355 . S
C831 C833 1.419 . S
C832 C830 1.415 . S
C832 C837 1.425 . S
C832 C839 1.409 . S
C833 H825 0.930 . S
C833 C831 1.419 . S
C833 C834 1.362 . S
C834 H826 0.930 . S
C834 C833 1.362 . S
C834 C837 1.409 . S
C835 H827 0.930 . S
C835 C836 1.355 . S
C835 C837 1.415 . S
C836 C835 1.355 . S
C836 C838 1.419 . S
C837 C832 1.425 . S
C837 C834 1.409 . S
C837 C835 1.415 . S
C838 H828 0.930 . S
C838 C836 1.419 . S
C838 C839 1.362 . S
C839 H829 0.930 . S
C839 C832 1.409 . S
C839 C838 1.362 . S
H840 C846 0.930 . S
H841 C849 0.930 . S
H842 C850 0.930 . S
H843 C851 0.930 . S
H844 C854 0.930 . S
H845 C855 0.930 . S
C846 H840 0.930 . S
C846 C847 1.355 1_554 S
C846 C848 1.415 . S
C847 C846 1.355 1_556 S
C847 C849 1.419 . S
C848 C846 1.415 . S
C848 C853 1.425 1_554 S
C848 C855 1.409 . S
C849 H841 0.930 . S
C849 C847 1.419 . S
C849 C850 1.362 . S
C850 H842 0.930 . S
C850 C849 1.362 . S
C850 C853 1.409 . S
C851 H843 0.930 . S
C851 C852 1.359 . S
C851 C853 1.415 . S
C852 C851 1.359 . S
C852 C854 1.413 1_556 S
C853 C848 1.425 1_556 S
C853 C850 1.409 . S
C853 C851 1.415 . S
C854 H844 0.930 . S
C854 C852 1.413 1_554 S
C854 C855 1.362 . S
C855 H845 0.930 . S
C855 C848 1.409 . S
C855 C854 1.362 . S
H856 C862 0.930 . S
H857 C865 0.930 . S
H858 C866 0.930 . S
H859 C867 0.930 . S
H860 C870 0.930 . S
H861 C871 0.930 . S
C862 H856 0.930 . S
C862 C863 1.355 1_554 S
C862 C864 1.417 . S
C863 C862 1.355 1_556 S
C863 C865 1.419 . S
C864 C862 1.417 . S
C864 C869 1.420 1_554 S
C864 C871 1.414 . S
C865 H857 0.930 . S
C865 C863 1.419 . S
C865 C866 1.362 . S
C866 H858 0.930 . S
C866 C865 1.362 . S
C866 C869 1.409 . S
C867 H859 0.930 . S
C867 C868 1.357 . S
C867 C869 1.415 . S
C868 C867 1.357 . S
C868 C870 1.416 1_556 S
C869 C864 1.420 1_556 S
C869 C866 1.409 . S
C869 C867 1.415 . S
C870 H860 0.930 . S
C870 C868 1.416 1_554 S
C870 C871 1.362 . S
C871 H861 0.930 . S
C871 C864 1.414 . S
C871 C870 1.362 . S
H872 C878 0.930 . S
H873 C881 0.930 . S
H874 C882 0.930 . S
H875 C883 0.930 . S
H876 C886 0.930 . S
H877 C887 0.930 . S
C878 H872 0.930 . S
C878 C879 1.355 1_556 S
C878 C880 1.415 . S
C879 C878 1.355 1_554 S
C879 C881 1.419 . S
C880 C878 1.415 . S
C880 C885 1.425 1_556 S
C880 C887 1.409 . S
C881 H873 0.930 . S
C881 C879 1.419 . S
C881 C882 1.362 . S
C882 H874 0.930 . S
C882 C881 1.362 . S
C882 C885 1.409 . S
C883 H875 0.930 . S
C883 C884 1.355 1_554 S
C883 C885 1.415 . S
C884 C883 1.355 1_556 S
C884 C886 1.419 . S
C885 C880 1.425 1_554 S
C885 C882 1.409 . S
C885 C883 1.415 . S
C886 H876 0.930 . S
C886 C884 1.419 . S
C886 C887 1.362 . S
C887 H877 0.930 . S
C887 C880 1.409 . S
C887 C886 1.362 . S
H888 C894 0.930 . S
H889 C897 0.930 . S
H890 C898 0.930 . S
H891 C899 0.930 . S
H892 C902 0.930 . S
H893 C903 0.930 . S
C894 H888 0.930 . S
C894 C895 1.355 . S
C894 C896 1.415 . S
C895 C894 1.355 . S
C895 C897 1.419 . S
C896 C894 1.415 . S
C896 C901 1.425 . S
C896 C903 1.409 . S
C897 H889 0.930 . S
C897 C895 1.419 . S
C897 C898 1.362 . S
C898 H890 0.930 . S
C898 C897 1.362 . S
C898 C901 1.409 . S
C899 H891 0.930 . S
C899 C900 1.355 . S
C899 C901 1.415 . S
C900 C899 1.355 . S
C900 C902 1.419 . S
C901 C896 1.425 . S
C901 C898 1.409 . S
C901 C899 1.415 . S
C902 H892 0.930 . S
C902 C900 1.419 . S
C902 C903 1.362 . S
C903 H893 0.930 . S
C903 C896 1.409 . S
C903 C902 1.362 . S
H904 C910 0.930 . S
H905 C913 0.930 . S
H906 C914 0.930 . S
H907 C915 0.930 . S
H908 C918 0.930 . S
H909 C919 0.930 . S
C910 H904 0.930 . S
C910 C911 1.355 . S
C910 C912 1.415 . S
C911 C910 1.355 . S
C911 C913 1.419 . S
C912 C910 1.415 . S
C912 C917 1.425 . S
C912 C919 1.409 . S
C913 H905 0.930 . S
C913 C911 1.419 . S
C913 C914 1.362 . S
C914 H906 0.930 . S
C914 C913 1.362 . S
C914 C917 1.409 . S
C915 H907 0.930 . S
C915 C916 1.355 . S
C915 C917 1.415 . S
C916 C915 1.355 . S
C916 C918 1.419 . S
C917 C912 1.425 . S
C917 C914 1.409 . S
C917 C915 1.415 . S
C918 H908 0.930 . S
C918 C916 1.419 . S
C918 C919 1.362 . S
C919 H909 0.930 . S
C919 C912 1.409 . S
C919 C918 1.362 . S
H920 C926 0.930 . S
H921 C929 0.930 . S
H922 C930 0.930 . S
H923 C931 0.930 . S
H924 C934 0.930 . S
H925 C935 0.930 . S
C926 H920 0.930 . S
C926 C927 1.355 . S
C926 C928 1.415 . S
C927 C926 1.355 . S
C927 C929 1.419 . S
C928 C926 1.415 . S
C928 C933 1.425 . S
C928 C935 1.409 . S
C929 H921 0.930 . S
C929 C927 1.419 . S
C929 C930 1.362 . S
C930 H922 0.930 . S
C930 C929 1.362 . S
C930 C933 1.409 . S
C931 H923 0.930 . S
C931 C932 1.355 . S
C931 C933 1.415 . S
C932 C931 1.355 . S
C932 C934 1.419 . S
C933 C928 1.425 . S
C933 C930 1.409 . S
C933 C931 1.415 . S
C934 H924 0.930 . S
C934 C932 1.419 . S
C934 C935 1.362 . S
C935 H925 0.930 . S
C935 C928 1.409 . S
C935 C934 1.362 . S
H936 C942 0.930 . S
H937 C945 0.930 . S
H938 C946 0.930 . S
H939 C947 0.930 . S
H940 C950 0.930 . S
H941 C951 0.930 . S
C942 H936 0.930 . S
C942 C943 1.382 . S
C942 C944 1.415 . S
C943 C942 1.382 . S
C943 C945 1.389 1_554 S
C944 C942 1.415 . S
C944 C949 1.425 1_554 S
C944 C951 1.409 . S
C945 H937 0.930 . S
C945 C943 1.389 1_556 S
C945 C946 1.362 . S
C946 H938 0.930 . S
C946 C945 1.362 . S
C946 C949 1.409 . S
C947 H939 0.930 . S
C947 C948 1.355 1_556 S
C947 C949 1.415 . S
C948 C947 1.355 1_554 S
C948 C950 1.419 . S
C949 C944 1.425 1_556 S
C949 C946 1.409 . S
C949 C947 1.415 . S
C950 H940 0.930 . S
C950 C948 1.419 . S
C950 C951 1.362 . S
C951 H941 0.930 . S
C951 C944 1.409 . S
C951 C950 1.362 . S
H952 C958 0.930 . S
H953 C961 0.930 . S
H954 C962 0.930 . S
H955 C963 0.928 . S
H956 C966 0.930 . S
H957 C967 0.930 . S
C958 H952 0.930 . S
C958 C959 1.355 . S
C958 C960 1.415 . S
C959 C958 1.355 . S
C959 C961 1.419 . S
C960 C958 1.415 . S
C960 C965 1.425 . S
C960 C967 1.409 . S
C961 H953 0.930 . S
C961 C959 1.419 . S
C961 C962 1.362 . S
C962 H954 0.930 . S
C962 C961 1.362 . S
C962 C965 1.409 . S
C963 H955 0.928 . S
C963 C964 1.355 . S
C963 C965 1.418 . S
C964 C963 1.355 . S
C964 C966 1.421 . S
C965 C960 1.425 . S
C965 C962 1.409 . S
C965 C963 1.418 . S
C966 H956 0.930 . S
C966 C964 1.421 . S
C966 C967 1.362 . S
C967 H957 0.930 . S
C967 C960 1.409 . S
C967 C966 1.362 . S
H968 C974 0.930 . S
H969 C977 0.930 . S
H970 C978 0.930 . S
H971 C979 0.930 . S
H972 C982 0.930 . S
H973 C983 0.930 . S
C974 H968 0.930 . S
C974 C975 1.355 1_556 S
C974 C976 1.415 . S
C975 C974 1.355 1_554 S
C975 C977 1.419 . S
C976 C974 1.415 . S
C976 C981 1.425 1_556 S
C976 C983 1.409 . S
C977 H969 0.930 . S
C977 C975 1.419 . S
C977 C978 1.362 . S
C978 H970 0.930 . S
C978 C977 1.362 . S
C978 C981 1.409 . S
C979 H971 0.930 . S
C979 C980 1.380 . S
C979 C981 1.415 . S
C980 C979 1.380 . S
C980 C982 1.388 1_554 S
C981 C976 1.425 1_554 S
C981 C978 1.409 . S
C981 C979 1.415 . S
C982 H972 0.930 . S
C982 C980 1.388 1_556 S
C982 C983 1.362 . S
C983 H973 0.930 . S
C983 C976 1.409 . S
C983 C982 1.362 . S
H984 C990 0.930 . S
H985 C993 0.930 . S
H986 C994 0.930 . S
H987 C995 0.930 . S
H988 C998 0.930 . S
H989 C999 0.930 . S
C990 H984 0.930 . S
C990 C991 1.355 . S
C990 C992 1.415 . S
C991 C990 1.355 . S
C991 C993 1.419 . S
C992 C990 1.415 . S
C992 C997 1.425 . S
C992 C999 1.409 . S
C993 H985 0.930 . S
C993 C991 1.419 . S
C993 C994 1.362 . S
C994 H986 0.930 . S
C994 C993 1.362 . S
C994 C997 1.409 . S
C995 H987 0.930 . S
C995 C996 1.355 . S
C995 C997 1.415 . S
C996 C995 1.355 . S
C996 C998 1.419 . S
C997 C992 1.425 . S
C997 C994 1.409 . S
C997 C995 1.415 . S
C998 H988 0.930 . S
C998 C996 1.419 . S
C998 C999 1.362 . S
C999 H989 0.930 . S
C999 C992 1.409 . S
C999 C998 1.362 . S
H1000 C1006 0.930 . S
H1001 C1009 0.930 . S
H1002 C1010 0.930 . S
H1003 C1011 0.930 . S
H1004 C1014 0.930 . S
H1005 C1015 0.930 . S
C1006 H1000 0.930 . S
C1006 C1007 1.355 . S
C1006 C1008 1.415 . S
C1007 C1006 1.355 . S
C1007 C1009 1.419 . S
C1008 C1006 1.415 . S
C1008 C1013 1.425 . S
C1008 C1015 1.409 . S
C1009 H1001 0.930 . S
C1009 C1007 1.419 . S
C1009 C1010 1.362 . S
C1010 H1002 0.930 . S
C1010 C1009 1.362 . S
C1010 C1013 1.409 . S
C1011 H1003 0.930 . S
C1011 C1012 1.355 . S
C1011 C1013 1.415 . S
C1012 C1011 1.355 . S
C1012 C1014 1.419 . S
C1013 C1008 1.425 . S
C1013 C1010 1.409 . S
C1013 C1011 1.415 . S
C1014 H1004 0.930 . S
C1014 C1012 1.419 . S
C1014 C1015 1.362 . S
C1015 H1005 0.930 . S
C1015 C1008 1.409 . S
C1015 C1014 1.362 . S
H1016 C1022 0.930 . S
H1017 C1025 0.930 . S
H1018 C1026 0.930 . S
H1019 C1027 0.930 . S
H1020 C1030 0.930 . S
H1021 C1031 0.930 . S
C1022 H1016 0.930 . S
C1022 C1023 1.355 . S
C1022 C1024 1.415 . S
C1023 C1022 1.355 . S
C1023 C1025 1.419 . S
C1024 C1022 1.415 . S
C1024 C1029 1.425 . S
C1024 C1031 1.409 . S
C1025 H1017 0.930 . S
C1025 C1023 1.419 . S
C1025 C1026 1.362 . S
C1026 H1018 0.930 . S
C1026 C1025 1.362 . S
C1026 C1029 1.409 . S
C1027 H1019 0.930 . S
C1027 C1028 1.355 . S
C1027 C1029 1.415 . S
C1028 C1027 1.355 . S
C1028 C1030 1.419 . S
C1029 C1024 1.425 . S
C1029 C1026 1.409 . S
C1029 C1027 1.415 . S
C1030 H1020 0.930 . S
C1030 C1028 1.419 . S
C1030 C1031 1.362 . S
C1031 H1021 0.930 . S
C1031 C1024 1.409 . S
C1031 C1030 1.362 . S
H1032 C1038 0.930 . S
H1033 C1041 0.930 . S
H1034 C1042 0.930 . S
H1035 C1043 0.930 . S
H1036 C1046 0.930 . S
H1037 C1047 0.930 . S
C1038 H1032 0.930 . S
C1038 C1039 1.355 . S
C1038 C1040 1.415 . S
C1039 C1038 1.355 . S
C1039 C1041 1.419 . S
C1040 C1038 1.415 . S
C1040 C1045 1.425 . S
C1040 C1047 1.409 . S
C1041 H1033 0.930 . S
C1041 C1039 1.419 . S
C1041 C1042 1.362 . S
C1042 H1034 0.930 . S
C1042 C1041 1.362 . S
C1042 C1045 1.409 . S
C1043 H1035 0.930 . S
C1043 C1044 1.355 . S
C1043 C1045 1.415 . S
C1044 C1043 1.355 . S
C1044 C1046 1.419 . S
C1045 C1040 1.425 . S
C1045 C1042 1.409 . S
C1045 C1043 1.415 . S
C1046 H1036 0.930 . S
C1046 C1044 1.419 . S
C1046 C1047 1.362 . S
C1047 H1037 0.930 . S
C1047 C1040 1.409 . S
C1047 C1046 1.362 . S
H1048 C1054 0.930 . S
H1049 C1057 0.930 . S
H1050 C1058 0.930 . S
H1051 C1059 0.930 . S
H1052 C1062 0.930 . S
H1053 C1063 0.930 . S
C1054 H1048 0.930 . S
C1054 C1055 1.355 . S
C1054 C1056 1.415 . S
C1055 C1054 1.355 . S
C1055 C1057 1.419 . S
C1056 C1054 1.415 . S
C1056 C1061 1.425 . S
C1056 C1063 1.409 . S
C1057 H1049 0.930 . S
C1057 C1055 1.419 . S
C1057 C1058 1.362 . S
C1058 H1050 0.930 . S
C1058 C1057 1.362 . S
C1058 C1061 1.409 . S
C1059 H1051 0.930 . S
C1059 C1060 1.355 . S
C1059 C1061 1.415 . S
C1060 C1059 1.355 . S
C1060 C1062 1.419 . S
C1061 C1056 1.425 . S
C1061 C1058 1.409 . S
C1061 C1059 1.415 . S
C1062 H1052 0.930 . S
C1062 C1060 1.419 . S
C1062 C1063 1.362 . S
C1063 H1053 0.930 . S
C1063 C1056 1.409 . S
C1063 C1062 1.362 . S
H1064 C1070 0.930 . S
H1065 C1073 0.930 . S
H1066 C1074 0.930 . S
H1067 C1075 0.930 . S
H1068 C1078 0.930 . S
H1069 C1079 0.930 . S
C1070 H1064 0.930 . S
C1070 C1071 1.355 . S
C1070 C1072 1.415 . S
C1071 C1070 1.355 . S
C1071 C1073 1.419 . S
C1072 C1070 1.415 . S
C1072 C1077 1.425 . S
C1072 C1079 1.409 . S
C1073 H1065 0.930 . S
C1073 C1071 1.419 . S
C1073 C1074 1.362 . S
C1074 H1066 0.930 . S
C1074 C1073 1.362 . S
C1074 C1077 1.409 . S
C1075 H1067 0.930 . S
C1075 C1076 1.355 . S
C1075 C1077 1.415 . S
C1076 C1075 1.355 . S
C1076 C1078 1.419 . S
C1077 C1072 1.425 . S
C1077 C1074 1.409 . S
C1077 C1075 1.415 . S
C1078 H1068 0.930 . S
C1078 C1076 1.419 . S
C1078 C1079 1.362 . S
C1079 H1069 0.930 . S
C1079 C1072 1.409 . S
C1079 C1078 1.362 . S
H1080 C1086 0.930 . S
H1081 C1089 0.930 . S
H1082 C1090 0.930 . S
H1083 C1091 0.930 . S
H1084 C1094 0.930 . S
H1085 C1095 0.930 . S
C1086 H1080 0.930 . S
C1086 C1087 1.355 . S
C1086 C1088 1.415 . S
C1087 C1086 1.355 . S
C1087 C1089 1.419 . S
C1088 C1086 1.415 . S
C1088 C1093 1.425 . S
C1088 C1095 1.409 . S
C1089 H1081 0.930 . S
C1089 C1087 1.419 . S
C1089 C1090 1.362 . S
C1090 H1082 0.930 . S
C1090 C1089 1.362 . S
C1090 C1093 1.409 . S
C1091 H1083 0.930 . S
C1091 C1092 1.355 . S
C1091 C1093 1.415 . S
C1092 C1091 1.355 . S
C1092 C1094 1.419 . S
C1093 C1088 1.425 . S
C1093 C1090 1.409 . S
C1093 C1091 1.415 . S
C1094 H1084 0.930 . S
C1094 C1092 1.419 . S
C1094 C1095 1.362 . S
C1095 H1085 0.930 . S
C1095 C1088 1.409 . S
C1095 C1094 1.362 . S
H1096 C1102 0.930 . S
H1097 C1105 0.930 . S
H1098 C1106 0.930 . S
H1099 C1107 0.930 . S
H1100 C1110 0.930 . S
H1101 C1111 0.930 . S
C1102 H1096 0.930 . S
C1102 C1103 1.355 1_545 S
C1102 C1104 1.415 . S
C1103 C1102 1.355 1_565 S
C1103 C1105 1.419 . S
C1104 C1102 1.415 . S
C1104 C1109 1.425 1_545 S
C1104 C1111 1.409 . S
C1105 H1097 0.930 . S
C1105 C1103 1.419 . S
C1105 C1106 1.362 . S
C1106 H1098 0.930 . S
C1106 C1105 1.362 . S
C1106 C1109 1.409 . S
C1107 H1099 0.930 . S
C1107 C1108 1.355 1_565 S
C1107 C1109 1.415 . S
C1108 C1107 1.355 1_545 S
C1108 C1110 1.419 . S
C1109 C1104 1.425 1_565 S
C1109 C1106 1.409 . S
C1109 C1107 1.415 . S
C1110 H1100 0.930 . S
C1110 C1108 1.419 . S
C1110 C1111 1.362 . S
C1111 H1101 0.930 . S
C1111 C1104 1.409 . S
C1111 C1110 1.362 . S
H1112 C1118 0.930 . S
H1113 C1121 0.930 . S
H1114 C1122 0.930 . S
H1115 C1123 0.930 . S
H1116 C1126 0.930 . S
H1117 C1127 0.930 . S
C1118 H1112 0.930 . S
C1118 C1119 1.355 1_455 S
C1118 C1120 1.415 . S
C1119 C1118 1.355 1_655 S
C1119 C1121 1.419 . S
C1120 C1118 1.415 . S
C1120 C1125 1.425 1_455 S
C1120 C1127 1.409 . S
C1121 H1113 0.930 . S
C1121 C1119 1.419 . S
C1121 C1122 1.362 . S
C1122 H1114 0.930 . S
C1122 C1121 1.362 . S
C1122 C1125 1.409 . S
C1123 H1115 0.930 . S
C1123 C1124 1.355 1_655 S
C1123 C1125 1.415 . S
C1124 C1123 1.355 1_455 S
C1124 C1126 1.419 . S
C1125 C1120 1.425 1_655 S
C1125 C1122 1.409 . S
C1125 C1123 1.415 . S
C1126 H1116 0.930 . S
C1126 C1124 1.419 . S
C1126 C1127 1.362 . S
C1127 H1117 0.930 . S
C1127 C1120 1.409 . S
C1127 C1126 1.362 . S
H1128 C1134 0.930 . S
H1129 C1137 0.930 . S
H1130 C1138 0.930 . S
H1131 C1139 0.930 . S
H1132 C1142 0.930 . S
H1133 C1143 0.930 . S
C1134 H1128 0.930 . S
C1134 C1135 1.355 . S
C1134 C1136 1.415 . S
C1135 C1134 1.355 . S
C1135 C1137 1.419 . S
C1136 C1134 1.415 . S
C1136 C1141 1.425 . S
C1136 C1143 1.409 . S
C1137 H1129 0.930 . S
C1137 C1135 1.419 . S
C1137 C1138 1.362 . S
C1138 H1130 0.930 . S
C1138 C1137 1.362 . S
C1138 C1141 1.409 . S
C1139 H1131 0.930 . S
C1139 C1140 1.355 . S
C1139 C1141 1.415 . S
C1140 C1139 1.355 . S
C1140 C1142 1.419 . S
C1141 C1136 1.425 . S
C1141 C1138 1.409 . S
C1141 C1139 1.415 . S
C1142 H1132 0.930 . S
C1142 C1140 1.419 . S
C1142 C1143 1.362 . S
C1143 H1133 0.930 . S
C1143 C1136 1.409 . S
C1143 C1142 1.362 . S
H1144 C1150 0.930 . S
H1145 C1153 0.930 . S
H1146 C1154 0.930 . S
H1147 C1155 0.930 . S
H1148 C1158 0.930 . S
H1149 C1159 0.930 . S
C1150 H1144 0.930 . S
C1150 C1151 1.355 1_545 S
C1150 C1152 1.415 . S
C1151 C1150 1.355 1_565 S
C1151 C1153 1.419 . S
C1152 C1150 1.415 . S
C1152 C1157 1.425 1_545 S
C1152 C1159 1.409 . S
C1153 H1145 0.930 . S
C1153 C1151 1.419 . S
C1153 C1154 1.362 . S
C1154 H1146 0.930 . S
C1154 C1153 1.362 . S
C1154 C1157 1.409 . S
C1155 H1147 0.930 . S
C1155 C1156 1.355 1_565 S
C1155 C1157 1.415 . S
C1156 C1155 1.355 1_545 S
C1156 C1158 1.419 . S
C1157 C1152 1.425 1_565 S
C1157 C1154 1.409 . S
C1157 C1155 1.415 . S
C1158 H1148 0.930 . S
C1158 C1156 1.419 . S
C1158 C1159 1.362 . S
C1159 H1149 0.930 . S
C1159 C1152 1.409 . S
C1159 C1158 1.362 . S
H1160 C1166 0.930 . S
H1161 C1169 0.930 . S
H1162 C1170 0.930 . S
H1163 C1171 0.930 . S
H1164 C1174 0.930 . S
H1165 C1175 0.930 . S
C1166 H1160 0.930 . S
C1166 C1167 1.355 1_655 S
C1166 C1168 1.415 . S
C1167 C1166 1.355 1_455 S
C1167 C1169 1.419 . S
C1168 C1166 1.415 . S
C1168 C1173 1.425 1_655 S
C1168 C1175 1.409 . S
C1169 H1161 0.930 . S
C1169 C1167 1.419 . S
C1169 C1170 1.362 . S
C1170 H1162 0.930 . S
C1170 C1169 1.362 . S
C1170 C1173 1.409 . S
C1171 H1163 0.930 . S
C1171 C1172 1.355 1_455 S
C1171 C1173 1.415 . S
C1172 C1171 1.355 1_655 S
C1172 C1174 1.419 . S
C1173 C1168 1.425 1_455 S
C1173 C1170 1.409 . S
C1173 C1171 1.415 . S
C1174 H1164 0.930 . S
C1174 C1172 1.419 . S
C1174 C1175 1.362 . S
C1175 H1165 0.930 . S
C1175 C1168 1.409 . S
C1175 C1174 1.362 . S
H1176 C1182 0.930 . S
H1177 C1185 0.930 . S
H1178 C1186 0.930 . S
H1179 C1187 0.930 . S
H1180 C1190 0.930 . S
H1181 C1191 0.930 . S
C1182 H1176 0.930 . S
C1182 C1183 1.355 . S
C1182 C1184 1.415 . S
C1183 C1182 1.355 . S
C1183 C1185 1.419 . S
C1184 C1182 1.415 . S
C1184 C1189 1.425 . S
C1184 C1191 1.409 . S
C1185 H1177 0.930 . S
C1185 C1183 1.419 . S
C1185 C1186 1.362 . S
C1186 H1178 0.930 . S
C1186 C1185 1.362 . S
C1186 C1189 1.409 . S
C1187 H1179 0.930 . S
C1187 C1188 1.355 . S
C1187 C1189 1.415 . S
C1188 C1187 1.355 . S
C1188 C1190 1.419 . S
C1189 C1184 1.425 . S
C1189 C1186 1.409 . S
C1189 C1187 1.415 . S
C1190 H1180 0.930 . S
C1190 C1188 1.419 . S
C1190 C1191 1.362 . S
C1191 H1181 0.930 . S
C1191 C1184 1.409 . S
C1191 C1190 1.362 . S
H1192 C1198 0.930 . S
H1193 C1201 0.930 . S
H1194 C1202 0.930 . S
H1195 C1203 0.930 . S
H1196 C1206 0.930 . S
H1197 C1207 0.930 . S
C1198 H1192 0.930 . S
C1198 C1199 1.355 . S
C1198 C1200 1.415 . S
C1199 C1198 1.355 . S
C1199 C1201 1.419 . S
C1200 C1198 1.415 . S
C1200 C1205 1.425 . S
C1200 C1207 1.409 . S
C1201 H1193 0.930 . S
C1201 C1199 1.419 . S
C1201 C1202 1.362 . S
C1202 H1194 0.930 . S
C1202 C1201 1.362 . S
C1202 C1205 1.409 . S
C1203 H1195 0.930 . S
C1203 C1204 1.355 . S
C1203 C1205 1.415 . S
C1204 C1203 1.355 . S
C1204 C1206 1.419 . S
C1205 C1200 1.425 . S
C1205 C1202 1.409 . S
C1205 C1203 1.415 . S
C1206 H1196 0.930 . S
C1206 C1204 1.419 . S
C1206 C1207 1.362 . S
C1207 H1197 0.930 . S
C1207 C1200 1.409 . S
C1207 C1206 1.362 . S
H1208 C1214 0.930 . S
H1209 C1217 0.930 . S
H1210 C1218 0.930 . S
H1211 C1219 0.930 . S
H1212 C1222 0.930 . S
H1213 C1223 0.930 . S
C1214 H1208 0.930 . S
C1214 C1215 1.355 . S
C1214 C1216 1.415 . S
C1215 C1214 1.355 . S
C1215 C1217 1.419 . S
C1216 C1214 1.415 . S
C1216 C1221 1.425 . S
C1216 C1223 1.409 . S
C1217 H1209 0.930 . S
C1217 C1215 1.419 . S
C1217 C1218 1.362 . S
C1218 H1210 0.930 . S
C1218 C1217 1.362 . S
C1218 C1221 1.409 . S
C1219 H1211 0.930 . S
C1219 C1220 1.355 . S
C1219 C1221 1.415 . S
C1220 C1219 1.355 . S
C1220 C1222 1.419 . S
C1221 C1216 1.425 . S
C1221 C1218 1.409 . S
C1221 C1219 1.415 . S
C1222 H1212 0.930 . S
C1222 C1220 1.419 . S
C1222 C1223 1.362 . S
C1223 H1213 0.930 . S
C1223 C1216 1.409 . S
C1223 C1222 1.362 . S
H1224 C1230 0.930 . S
H1225 C1233 0.930 . S
H1226 C1234 0.930 . S
H1227 C1235 0.930 . S
H1228 C1238 0.930 . S
H1229 C1239 0.930 . S
C1230 H1224 0.930 . S
C1230 C1231 1.355 . S
C1230 C1232 1.415 . S
C1231 C1230 1.355 . S
C1231 C1233 1.419 . S
C1232 C1230 1.415 . S
C1232 C1237 1.425 . S
C1232 C1239 1.409 . S
C1233 H1225 0.930 . S
C1233 C1231 1.419 . S
C1233 C1234 1.362 . S
C1234 H1226 0.930 . S
C1234 C1233 1.362 . S
C1234 C1237 1.409 . S
C1235 H1227 0.930 . S
C1235 C1236 1.355 . S
C1235 C1237 1.415 . S
C1236 C1235 1.355 . S
C1236 C1238 1.419 . S
C1237 C1232 1.425 . S
C1237 C1234 1.409 . S
C1237 C1235 1.415 . S
C1238 H1228 0.930 . S
C1238 C1236 1.419 . S
C1238 C1239 1.362 . S
C1239 H1229 0.930 . S
C1239 C1232 1.409 . S
C1239 C1238 1.362 . S
H1240 C1246 0.930 . S
H1241 C1249 0.930 . S
H1242 C1250 0.930 . S
H1243 C1251 0.930 . S
H1244 C1254 0.930 . S
H1245 C1255 0.930 . S
C1246 H1240 0.930 . S
C1246 C1247 1.355 . S
C1246 C1248 1.415 . S
C1247 C1246 1.355 . S
C1247 C1249 1.419 . S
C1248 C1246 1.415 . S
C1248 C1253 1.425 . S
C1248 C1255 1.409 . S
C1249 H1241 0.930 . S
C1249 C1247 1.419 . S
C1249 C1250 1.362 . S
C1250 H1242 0.930 . S
C1250 C1249 1.362 . S
C1250 C1253 1.409 . S
C1251 H1243 0.930 . S
C1251 C1252 1.355 . S
C1251 C1253 1.415 . S
C1252 C1251 1.355 . S
C1252 C1254 1.419 . S
C1253 C1248 1.425 . S
C1253 C1250 1.409 . S
C1253 C1251 1.415 . S
C1254 H1244 0.930 . S
C1254 C1252 1.419 . S
C1254 C1255 1.362 . S
C1255 H1245 0.930 . S
C1255 C1248 1.409 . S
C1255 C1254 1.362 . S
H1256 C1262 0.930 . S
H1257 C1265 0.930 . S
H1258 C1266 0.930 . S
H1259 C1267 0.930 . S
H1260 C1270 0.930 . S
H1261 C1271 0.930 . S
C1262 H1256 0.930 . S
C1262 C1263 1.355 . S
C1262 C1264 1.415 . S
C1263 C1262 1.355 . S
C1263 C1265 1.419 . S
C1264 C1262 1.415 . S
C1264 C1269 1.425 . S
C1264 C1271 1.409 . S
C1265 H1257 0.930 . S
C1265 C1263 1.419 . S
C1265 C1266 1.362 . S
C1266 H1258 0.930 . S
C1266 C1265 1.362 . S
C1266 C1269 1.409 . S
C1267 H1259 0.930 . S
C1267 C1268 1.355 . S
C1267 C1269 1.415 . S
C1268 C1267 1.355 . S
C1268 C1270 1.419 . S
C1269 C1264 1.425 . S
C1269 C1266 1.409 . S
C1269 C1267 1.415 . S
C1270 H1260 0.930 . S
C1270 C1268 1.419 . S
C1270 C1271 1.362 . S
C1271 H1261 0.930 . S
C1271 C1264 1.409 . S
C1271 C1270 1.362 . S
H1272 C1278 0.930 . S
H1273 C1281 0.930 . S
H1274 C1282 0.930 . S
H1275 C1283 0.930 . S
H1276 C1286 0.930 . S
H1277 C1287 0.930 . S
C1278 H1272 0.930 . S
C1278 C1279 1.355 . S
C1278 C1280 1.415 . S
C1279 C1278 1.355 . S
C1279 C1281 1.419 . S
C1280 C1278 1.415 . S
C1280 C1285 1.425 . S
C1280 C1287 1.409 . S
C1281 H1273 0.930 . S
C1281 C1279 1.419 . S
C1281 C1282 1.362 . S
C1282 H1274 0.930 . S
C1282 C1281 1.362 . S
C1282 C1285 1.409 . S
C1283 H1275 0.930 . S
C1283 C1284 1.355 . S
C1283 C1285 1.415 . S
C1284 C1283 1.355 . S
C1284 C1286 1.419 . S
C1285 C1280 1.425 . S
C1285 C1282 1.409 . S
C1285 C1283 1.415 . S
C1286 H1276 0.930 . S
C1286 C1284 1.419 . S
C1286 C1287 1.362 . S
C1287 H1277 0.930 . S
C1287 C1280 1.409 . S
C1287 C1286 1.362 . S
H1288 C1294 0.930 . S
H1289 C1297 0.930 . S
H1290 C1298 0.930 . S
H1291 C1299 0.930 . S
H1292 C1302 0.930 . S
H1293 C1303 0.930 . S
C1294 H1288 0.930 . S
C1294 C1295 1.355 . S
C1294 C1296 1.415 . S
C1295 C1294 1.355 . S
C1295 C1297 1.419 . S
C1296 C1294 1.415 . S
C1296 C1301 1.425 . S
C1296 C1303 1.409 . S
C1297 H1289 0.930 . S
C1297 C1295 1.419 . S
C1297 C1298 1.362 . S
C1298 H1290 0.930 . S
C1298 C1297 1.362 . S
C1298 C1301 1.409 . S
C1299 H1291 0.930 . S
C1299 C1300 1.355 . S
C1299 C1301 1.415 . S
C1300 C1299 1.355 . S
C1300 C1302 1.419 . S
C1301 C1296 1.425 . S
C1301 C1298 1.409 . S
C1301 C1299 1.415 . S
C1302 H1292 0.930 . S
C1302 C1300 1.419 . S
C1302 C1303 1.362 . S
C1303 H1293 0.930 . S
C1303 C1296 1.409 . S
C1303 C1302 1.362 . S
H1304 C1310 0.930 . S
H1305 C1313 0.930 . S
H1306 C1314 0.930 . S
H1307 C1315 0.930 . S
H1308 C1318 0.930 . S
H1309 C1319 0.930 . S
C1310 H1304 0.930 . S
C1310 C1311 1.355 . S
C1310 C1312 1.415 . S
C1311 C1310 1.355 . S
C1311 C1313 1.419 . S
C1312 C1310 1.415 . S
C1312 C1317 1.425 . S
C1312 C1319 1.409 . S
C1313 H1305 0.930 . S
C1313 C1311 1.419 . S
C1313 C1314 1.362 . S
C1314 H1306 0.930 . S
C1314 C1313 1.362 . S
C1314 C1317 1.409 . S
C1315 H1307 0.930 . S
C1315 C1316 1.355 . S
C1315 C1317 1.415 . S
C1316 C1315 1.355 . S
C1316 C1318 1.419 . S
C1317 C1312 1.425 . S
C1317 C1314 1.409 . S
C1317 C1315 1.415 . S
C1318 H1308 0.930 . S
C1318 C1316 1.419 . S
C1318 C1319 1.362 . S
C1319 H1309 0.930 . S
C1319 C1312 1.409 . S
C1319 C1318 1.362 . S
H1320 C1326 0.930 . S
H1321 C1329 0.930 . S
H1322 C1330 0.930 . S
H1323 C1331 0.930 . S
H1324 C1334 0.930 . S
H1325 C1335 0.930 . S
C1326 H1320 0.930 . S
C1326 C1327 1.355 . S
C1326 C1328 1.415 . S
C1327 C1326 1.355 . S
C1327 C1329 1.419 . S
C1328 C1326 1.415 . S
C1328 C1333 1.425 . S
C1328 C1335 1.409 . S
C1329 H1321 0.930 . S
C1329 C1327 1.419 . S
C1329 C1330 1.362 . S
C1330 H1322 0.930 . S
C1330 C1329 1.362 . S
C1330 C1333 1.409 . S
C1331 H1323 0.930 . S
C1331 C1332 1.355 . S
C1331 C1333 1.415 . S
C1332 C1331 1.355 . S
C1332 C1334 1.419 . S
C1333 C1328 1.425 . S
C1333 C1330 1.409 . S
C1333 C1331 1.415 . S
C1334 H1324 0.930 . S
C1334 C1332 1.419 . S
C1334 C1335 1.362 . S
C1335 H1325 0.930 . S
C1335 C1328 1.409 . S
C1335 C1334 1.362 . S
H1336 C1342 0.930 . S
H1337 C1345 0.930 . S
H1338 C1346 0.930 . S
H1339 C1347 0.930 . S
H1340 C1350 0.930 . S
H1341 C1351 0.930 . S
C1342 H1336 0.930 . S
C1342 C1343 1.355 . S
C1342 C1344 1.415 . S
C1343 C1342 1.355 . S
C1343 C1345 1.419 . S
C1344 C1342 1.415 . S
C1344 C1349 1.425 . S
C1344 C1351 1.409 . S
C1345 H1337 0.930 . S
C1345 C1343 1.419 . S
C1345 C1346 1.362 . S
C1346 H1338 0.930 . S
C1346 C1345 1.362 . S
C1346 C1349 1.409 . S
C1347 H1339 0.930 . S
C1347 C1348 1.355 . S
C1347 C1349 1.415 . S
C1348 C1347 1.355 . S
C1348 C1350 1.419 . S
C1349 C1344 1.425 . S
C1349 C1346 1.409 . S
C1349 C1347 1.415 . S
C1350 H1340 0.930 . S
C1350 C1348 1.419 . S
C1350 C1351 1.362 . S
C1351 H1341 0.930 . S
C1351 C1344 1.409 . S
C1351 C1350 1.362 . S
H1352 C1358 0.930 . S
H1353 C1361 0.930 . S
H1354 C1362 0.930 . S
H1355 C1363 0.930 . S
H1356 C1366 0.930 . S
H1357 C1367 0.930 . S
C1358 H1352 0.930 . S
C1358 C1359 1.355 . S
C1358 C1360 1.415 . S
C1359 C1358 1.355 . S
C1359 C1361 1.419 . S
C1360 C1358 1.415 . S
C1360 C1365 1.425 . S
C1360 C1367 1.409 . S
C1361 H1353 0.930 . S
C1361 C1359 1.419 . S
C1361 C1362 1.362 . S
C1362 H1354 0.930 . S
C1362 C1361 1.362 . S
C1362 C1365 1.409 . S
C1363 H1355 0.930 . S
C1363 C1364 1.355 . S
C1363 C1365 1.415 . S
C1364 C1363 1.355 . S
C1364 C1366 1.419 . S
C1365 C1360 1.425 . S
C1365 C1362 1.409 . S
C1365 C1363 1.415 . S
C1366 H1356 0.930 . S
C1366 C1364 1.419 . S
C1366 C1367 1.362 . S
C1367 H1357 0.930 . S
C1367 C1360 1.409 . S
C1367 C1366 1.362 . S
H1368 C1374 0.930 . S
H1369 C1377 0.930 . S
H1370 C1378 0.930 . S
H1371 C1379 0.930 . S
H1372 C1382 0.930 . S
H1373 C1383 0.930 . S
C1374 H1368 0.930 . S
C1374 C1375 1.355 . S
C1374 C1376 1.415 . S
C1375 C1374 1.355 . S
C1375 C1377 1.419 . S
C1376 C1374 1.415 . S
C1376 C1381 1.425 . S
C1376 C1383 1.409 . S
C1377 H1369 0.930 . S
C1377 C1375 1.419 . S
C1377 C1378 1.362 . S
C1378 H1370 0.930 . S
C1378 C1377 1.362 . S
C1378 C1381 1.409 . S
C1379 H1371 0.930 . S
C1379 C1380 1.355 . S
C1379 C1381 1.415 . S
C1380 C1379 1.355 . S
C1380 C1382 1.419 . S
C1381 C1376 1.425 . S
C1381 C1378 1.409 . S
C1381 C1379 1.415 . S
C1382 H1372 0.930 . S
C1382 C1380 1.419 . S
C1382 C1383 1.362 . S
C1383 H1373 0.930 . S
C1383 C1376 1.409 . S
C1383 C1382 1.362 . S
H1384 C1390 0.930 . S
H1385 C1393 0.930 . S
H1386 C1394 0.930 . S
H1387 C1395 0.930 . S
H1388 C1398 0.930 . S
H1389 C1399 0.930 . S
C1390 H1384 0.930 . S
C1390 C1391 1.355 . S
C1390 C1392 1.415 . S
C1391 C1390 1.355 . S
C1391 C1393 1.419 . S
C1392 C1390 1.415 . S
C1392 C1397 1.425 . S
C1392 C1399 1.409 . S
C1393 H1385 0.930 . S
C1393 C1391 1.419 . S
C1393 C1394 1.362 . S
C1394 H1386 0.930 . S
C1394 C1393 1.362 . S
C1394 C1397 1.409 . S
C1395 H1387 0.930 . S
C1395 C1396 1.355 . S
C1395 C1397 1.415 . S
C1396 C1395 1.355 . S
C1396 C1398 1.419 . S
C1397 C1392 1.425 . S
C1397 C1394 1.409 . S
C1397 C1395 1.415 . S
C1398 H1388 0.930 . S
C1398 C1396 1.419 . S
C1398 C1399 1.362 . S
C1399 H1389 0.930 . S
C1399 C1392 1.409 . S
C1399 C1398 1.362 . S
H1400 C1406 0.930 . S
H1401 C1409 0.930 . S
H1402 C1410 0.930 . S
H1403 C1411 0.930 . S
H1404 C1414 0.930 . S
H1405 C1415 0.930 . S
C1406 H1400 0.930 . S
C1406 C1407 1.355 . S
C1406 C1408 1.415 . S
C1407 C1406 1.355 . S
C1407 C1409 1.419 . S
C1408 C1406 1.415 . S
C1408 C1413 1.425 . S
C1408 C1415 1.409 . S
C1409 H1401 0.930 . S
C1409 C1407 1.419 . S
C1409 C1410 1.362 . S
C1410 H1402 0.930 . S
C1410 C1409 1.362 . S
C1410 C1413 1.409 . S
C1411 H1403 0.930 . S
C1411 C1412 1.355 . S
C1411 C1413 1.415 . S
C1412 C1411 1.355 . S
C1412 C1414 1.419 . S
C1413 C1408 1.425 . S
C1413 C1410 1.409 . S
C1413 C1411 1.415 . S
C1414 H1404 0.930 . S
C1414 C1412 1.419 . S
C1414 C1415 1.362 . S
C1415 H1405 0.930 . S
C1415 C1408 1.409 . S
C1415 C1414 1.362 . S
H1416 C1422 0.930 . S
H1417 C1425 0.930 . S
H1418 C1426 0.930 . S
H1419 C1427 0.930 . S
H1420 C1430 0.930 . S
H1421 C1431 0.930 . S
C1422 H1416 0.930 . S
C1422 C1423 1.355 . S
C1422 C1424 1.415 . S
C1423 C1422 1.355 . S
C1423 C1425 1.419 . S
C1424 C1422 1.415 . S
C1424 C1429 1.425 . S
C1424 C1431 1.409 . S
C1425 H1417 0.930 . S
C1425 C1423 1.419 . S
C1425 C1426 1.362 . S
C1426 H1418 0.930 . S
C1426 C1425 1.362 . S
C1426 C1429 1.409 . S
C1427 H1419 0.930 . S
C1427 C1428 1.355 . S
C1427 C1429 1.415 . S
C1428 C1427 1.355 . S
C1428 C1430 1.419 . S
C1429 C1424 1.425 . S
C1429 C1426 1.409 . S
C1429 C1427 1.415 . S
C1430 H1420 0.930 . S
C1430 C1428 1.419 . S
C1430 C1431 1.362 . S
C1431 H1421 0.930 . S
C1431 C1424 1.409 . S
C1431 C1430 1.362 . S
H1432 C1438 0.930 . S
H1433 C1441 0.930 . S
H1434 C1442 0.930 . S
H1435 C1443 0.930 . S
H1436 C1446 0.930 . S
H1437 C1447 0.930 . S
C1438 H1432 0.930 . S
C1438 C1439 1.355 . S
C1438 C1440 1.415 . S
C1439 C1438 1.355 . S
C1439 C1441 1.419 . S
C1440 C1438 1.415 . S
C1440 C1445 1.425 . S
C1440 C1447 1.409 . S
C1441 H1433 0.930 . S
C1441 C1439 1.419 . S
C1441 C1442 1.362 . S
C1442 H1434 0.930 . S
C1442 C1441 1.362 . S
C1442 C1445 1.409 . S
C1443 H1435 0.930 . S
C1443 C1444 1.355 . S
C1443 C1445 1.415 . S
C1444 C1443 1.355 . S
C1444 C1446 1.419 . S
C1445 C1440 1.425 . S
C1445 C1442 1.409 . S
C1445 C1443 1.415 . S
C1446 H1436 0.930 . S
C1446 C1444 1.419 . S
C1446 C1447 1.362 . S
C1447 H1437 0.930 . S
C1447 C1440 1.409 . S
C1447 C1446 1.362 . S
H1448 C1454 0.930 . S
H1449 C1457 0.930 . S
H1450 C1458 0.930 . S
H1451 C1459 0.930 . S
H1452 C1462 0.930 . S
H1453 C1463 0.930 . S
C1454 H1448 0.930 . S
C1454 C1455 1.355 . S
C1454 C1456 1.415 . S
C1455 C1454 1.355 . S
C1455 C1457 1.419 . S
C1456 C1454 1.415 . S
C1456 C1461 1.425 . S
C1456 C1463 1.409 . S
C1457 H1449 0.930 . S
C1457 C1455 1.419 . S
C1457 C1458 1.362 . S
C1458 H1450 0.930 . S
C1458 C1457 1.362 . S
C1458 C1461 1.409 . S
C1459 H1451 0.930 . S
C1459 C1460 1.355 . S
C1459 C1461 1.415 . S
C1460 C1459 1.355 . S
C1460 C1462 1.419 . S
C1461 C1456 1.425 . S
C1461 C1458 1.409 . S
C1461 C1459 1.415 . S
C1462 H1452 0.930 . S
C1462 C1460 1.419 . S
C1462 C1463 1.362 . S
C1463 H1453 0.930 . S
C1463 C1456 1.409 . S
C1463 C1462 1.362 . S
H1464 C1470 0.930 . S
H1465 C1473 0.930 . S
H1466 C1474 0.930 . S
H1467 C1475 0.930 . S
H1468 C1478 0.930 . S
H1469 C1479 0.930 . S
C1470 H1464 0.930 . S
C1470 C1471 1.355 . S
C1470 C1472 1.415 . S
C1471 C1470 1.355 . S
C1471 C1473 1.419 . S
C1472 C1470 1.415 . S
C1472 C1477 1.425 . S
C1472 C1479 1.409 . S
C1473 H1465 0.930 . S
C1473 C1471 1.419 . S
C1473 C1474 1.362 . S
C1474 H1466 0.930 . S
C1474 C1473 1.362 . S
C1474 C1477 1.409 . S
C1475 H1467 0.930 . S
C1475 C1476 1.355 . S
C1475 C1477 1.415 . S
C1476 C1475 1.355 . S
C1476 C1478 1.419 . S
C1477 C1472 1.425 . S
C1477 C1474 1.409 . S
C1477 C1475 1.415 . S
C1478 H1468 0.930 . S
C1478 C1476 1.419 . S
C1478 C1479 1.362 . S
C1479 H1469 0.930 . S
C1479 C1472 1.409 . S
C1479 C1478 1.362 . S
H1480 C1486 0.930 . S
H1481 C1489 0.930 . S
H1482 C1490 0.930 . S
H1483 C1491 0.930 . S
H1484 C1494 0.930 . S
H1485 C1495 0.930 . S
C1486 H1480 0.930 . S
C1486 C1487 1.355 . S
C1486 C1488 1.415 . S
C1487 C1486 1.355 . S
C1487 C1489 1.419 . S
C1488 C1486 1.415 . S
C1488 C1493 1.425 . S
C1488 C1495 1.409 . S
C1489 H1481 0.930 . S
C1489 C1487 1.419 . S
C1489 C1490 1.362 . S
C1490 H1482 0.930 . S
C1490 C1489 1.362 . S
C1490 C1493 1.409 . S
C1491 H1483 0.930 . S
C1491 C1492 1.355 . S
C1491 C1493 1.415 . S
C1492 C1491 1.355 . S
C1492 C1494 1.419 . S
C1493 C1488 1.425 . S
C1493 C1490 1.409 . S
C1493 C1491 1.415 . S
C1494 H1484 0.930 . S
C1494 C1492 1.419 . S
C1494 C1495 1.362 . S
C1495 H1485 0.930 . S
C1495 C1488 1.409 . S
C1495 C1494 1.362 . S
H1496 C1502 0.930 . S
H1497 C1505 0.930 . S
H1498 C1506 0.930 . S
H1499 C1507 0.930 . S
H1500 C1510 0.930 . S
H1501 C1511 0.930 . S
C1502 H1496 0.930 . S
C1502 C1503 1.355 . S
C1502 C1504 1.415 . S
C1503 C1502 1.355 . S
C1503 C1505 1.419 . S
C1504 C1502 1.415 . S
C1504 C1509 1.425 . S
C1504 C1511 1.409 . S
C1505 H1497 0.930 . S
C1505 C1503 1.419 . S
C1505 C1506 1.362 . S
C1506 H1498 0.930 . S
C1506 C1505 1.362 . S
C1506 C1509 1.409 . S
C1507 H1499 0.930 . S
C1507 C1508 1.355 . S
C1507 C1509 1.415 . S
C1508 C1507 1.355 . S
C1508 C1510 1.419 . S
C1509 C1504 1.425 . S
C1509 C1506 1.409 . S
C1509 C1507 1.415 . S
C1510 H1500 0.930 . S
C1510 C1508 1.419 . S
C1510 C1511 1.362 . S
C1511 H1501 0.930 . S
C1511 C1504 1.409 . S
C1511 C1510 1.362 . S
H1512 C1518 0.930 . S
H1513 C1521 0.930 . S
H1514 C1522 0.930 . S
H1515 C1523 0.930 . S
H1516 C1526 0.930 . S
H1517 C1527 0.930 . S
C1518 H1512 0.930 . S
C1518 C1519 1.355 . S
C1518 C1520 1.415 . S
C1519 C1518 1.355 . S
C1519 C1521 1.419 . S
C1520 C1518 1.415 . S
C1520 C1525 1.425 . S
C1520 C1527 1.409 . S
C1521 H1513 0.930 . S
C1521 C1519 1.419 . S
C1521 C1522 1.362 . S
C1522 H1514 0.930 . S
C1522 C1521 1.362 . S
C1522 C1525 1.409 . S
C1523 H1515 0.930 . S
C1523 C1524 1.355 . S
C1523 C1525 1.415 . S
C1524 C1523 1.355 . S
C1524 C1526 1.419 . S
C1525 C1520 1.425 . S
C1525 C1522 1.409 . S
C1525 C1523 1.415 . S
C1526 H1516 0.930 . S
C1526 C1524 1.419 . S
C1526 C1527 1.362 . S
C1527 H1517 0.930 . S
C1527 C1520 1.409 . S
C1527 C1526 1.362 . S
H1528 C1534 0.930 . S
H1529 C1537 0.930 . S
H1530 C1538 0.930 . S
H1531 C1539 0.930 . S
H1532 C1542 0.930 . S
H1533 C1543 0.930 . S
C1534 H1528 0.930 . S
C1534 C1535 1.355 . S
C1534 C1536 1.415 . S
C1535 C1534 1.355 . S
C1535 C1537 1.419 . S
C1536 C1534 1.415 . S
C1536 C1541 1.425 . S
C1536 C1543 1.409 . S
C1537 H1529 0.930 . S
C1537 C1535 1.419 . S
C1537 C1538 1.362 . S
C1538 H1530 0.930 . S
C1538 C1537 1.362 . S
C1538 C1541 1.409 . S
C1539 H1531 0.930 . S
C1539 C1540 1.355 . S
C1539 C1541 1.415 . S
C1540 C1539 1.355 . S
C1540 C1542 1.419 . S
C1541 C1536 1.425 . S
C1541 C1538 1.409 . S
C1541 C1539 1.415 . S
C1542 H1532 0.930 . S
C1542 C1540 1.419 . S
C1542 C1543 1.362 . S
C1543 H1533 0.930 . S
C1543 C1536 1.409 . S
C1543 C1542 1.362 . S
H1544 C1550 0.930 . S
H1545 C1553 0.930 . S
H1546 C1554 0.930 . S
H1547 C1555 0.930 . S
H1548 C1558 0.930 . S
H1549 C1559 0.930 . S
C1550 H1544 0.930 . S
C1550 C1551 1.355 . S
C1550 C1552 1.415 . S
C1551 C1550 1.355 . S
C1551 C1553 1.419 . S
C1552 C1550 1.415 . S
C1552 C1557 1.425 . S
C1552 C1559 1.409 . S
C1553 H1545 0.930 . S
C1553 C1551 1.419 . S
C1553 C1554 1.362 . S
C1554 H1546 0.930 . S
C1554 C1553 1.362 . S
C1554 C1557 1.409 . S
C1555 H1547 0.930 . S
C1555 C1556 1.355 . S
C1555 C1557 1.415 . S
C1556 C1555 1.355 . S
C1556 C1558 1.419 . S
C1557 C1552 1.425 . S
C1557 C1554 1.409 . S
C1557 C1555 1.415 . S
C1558 H1548 0.930 . S
C1558 C1556 1.419 . S
C1558 C1559 1.362 . S
C1559 H1549 0.930 . S
C1559 C1552 1.409 . S
C1559 C1558 1.362 . S
H1560 C1566 0.930 . S
H1561 C1569 0.930 . S
H1562 C1570 0.930 . S
H1563 C1571 0.930 . S
H1564 C1574 0.930 . S
H1565 C1575 0.930 . S
C1566 H1560 0.930 . S
C1566 C1567 1.355 . S
C1566 C1568 1.415 . S
C1567 C1566 1.355 . S
C1567 C1569 1.419 . S
C1568 C1566 1.415 . S
C1568 C1573 1.425 1_455 S
C1568 C1575 1.409 . S
C1569 H1561 0.930 . S
C1569 C1567 1.419 . S
C1569 C1570 1.362 1_455 S
C1570 H1562 0.930 . S
C1570 C1569 1.362 1_655 S
C1570 C1573 1.409 . S
C1571 H1563 0.930 . S
C1571 C1572 1.355 . S
C1571 C1573 1.415 . S
C1572 C1571 1.355 . S
C1572 C1574 1.419 . S
C1573 C1568 1.425 1_655 S
C1573 C1570 1.409 . S
C1573 C1571 1.415 . S
C1574 H1564 0.930 . S
C1574 C1572 1.419 . S
C1574 C1575 1.362 1_655 S
C1575 H1565 0.930 . S
C1575 C1568 1.409 . S
C1575 C1574 1.362 1_455 S
H1576 C1582 0.930 . S
H1577 C1585 0.930 . S
H1578 C1586 0.930 . S
H1579 C1587 0.930 . S
H1580 C1590 0.930 . S
H1581 C1591 0.930 . S
C1582 H1576 0.930 . S
C1582 C1583 1.355 . S
C1582 C1584 1.415 . S
C1583 C1582 1.355 . S
C1583 C1585 1.419 . S
C1584 C1582 1.415 . S
C1584 C1589 1.425 . S
C1584 C1591 1.409 . S
C1585 H1577 0.930 . S
C1585 C1583 1.419 . S
C1585 C1586 1.362 . S
C1586 H1578 0.930 . S
C1586 C1585 1.362 . S
C1586 C1589 1.409 . S
C1587 H1579 0.930 . S
C1587 C1588 1.355 . S
C1587 C1589 1.415 . S
C1588 C1587 1.355 . S
C1588 C1590 1.419 . S
C1589 C1584 1.425 . S
C1589 C1586 1.409 . S
C1589 C1587 1.415 . S
C1590 H1580 0.930 . S
C1590 C1588 1.419 . S
C1590 C1591 1.362 . S
C1591 H1581 0.930 . S
C1591 C1584 1.409 . S
C1591 C1590 1.362 . S
H1592 C1598 0.930 . S
H1593 C1601 0.930 . S
H1594 C1602 0.930 1_565 S
H1595 C1603 0.930 . S
H1596 C1606 0.930 . S
H1597 C1607 0.930 1_545 S
C1598 H1592 0.930 . S
C1598 C1599 1.355 . S
C1598 C1600 1.415 . S
C1599 C1598 1.355 . S
C1599 C1601 1.419 . S
C1600 C1598 1.415 . S
C1600 C1605 1.425 1_545 S
C1600 C1607 1.409 1_545 S
C1601 H1593 0.930 . S
C1601 C1599 1.419 . S
C1601 C1602 1.362 . S
C1602 H1594 0.930 1_545 S
C1602 C1601 1.362 . S
C1602 C1605 1.409 1_545 S
C1603 H1595 0.930 . S
C1603 C1604 1.355 . S
C1603 C1605 1.415 . S
C1604 C1603 1.355 . S
C1604 C1606 1.419 . S
C1605 C1600 1.425 1_565 S
C1605 C1602 1.409 1_565 S
C1605 C1603 1.415 . S
C1606 H1596 0.930 . S
C1606 C1604 1.419 . S
C1606 C1607 1.362 . S
C1607 H1597 0.930 1_565 S
C1607 C1600 1.409 1_565 S
C1607 C1606 1.362 . S
H1608 C1614 0.930 . S
H1609 C1617 0.930 . S
H1610 C1618 0.930 . S
H1611 C1619 0.930 . S
H1612 C1622 0.930 . S
H1613 C1623 0.930 . S
C1614 H1608 0.930 . S
C1614 C1615 1.355 . S
C1614 C1616 1.415 . S
C1615 C1614 1.355 . S
C1615 C1617 1.419 1_556 S
C1616 C1614 1.415 . S
C1616 C1621 1.425 1_546 S
C1616 C1623 1.409 . S
C1617 H1609 0.930 . S
C1617 C1615 1.419 1_554 S
C1617 C1618 1.362 1_545 S
C1618 H1610 0.930 . S
C1618 C1617 1.362 1_565 S
C1618 C1621 1.409 . S
C1619 H1611 0.930 . S
C1619 C1620 1.355 . S
C1619 C1621 1.415 . S
C1620 C1619 1.355 . S
C1620 C1622 1.419 1_554 S
C1621 C1616 1.425 1_564 S
C1621 C1618 1.409 . S
C1621 C1619 1.415 . S
C1622 H1612 0.930 . S
C1622 C1620 1.419 1_556 S
C1622 C1623 1.362 1_565 S
C1623 H1613 0.930 . S
C1623 C1616 1.409 . S
C1623 C1622 1.362 1_545 S
H1624 C1630 0.930 . S
H1625 C1633 0.930 . S
H1626 C1634 0.930 . S
H1627 C1635 0.930 . S
H1628 C1638 0.930 . S
H1629 C1639 0.930 . S
C1630 H1624 0.930 . S
C1630 C1631 1.355 1_554 S
C1630 C1632 1.415 1_655 S
C1631 C1630 1.355 1_556 S
C1631 C1633 1.419 . S
C1632 C1630 1.415 1_455 S
C1632 C1637 1.425 1_454 S
C1632 C1639 1.409 . S
C1633 H1625 0.930 . S
C1633 C1631 1.419 . S
C1633 C1634 1.362 . S
C1634 H1626 0.930 . S
C1634 C1633 1.362 . S
C1634 C1637 1.409 . S
C1635 H1627 0.930 . S
C1635 C1636 1.355 1_556 S
C1635 C1637 1.415 1_455 S
C1636 C1635 1.355 1_554 S
C1636 C1638 1.419 . S
C1637 C1632 1.425 1_656 S
C1637 C1634 1.409 . S
C1637 C1635 1.415 1_655 S
C1638 H1628 0.930 . S
C1638 C1636 1.419 . S
C1638 C1639 1.362 . S
C1639 H1629 0.930 . S
C1639 C1632 1.409 . S
C1639 C1638 1.362 . S
H1640 C1646 0.930 . S
H1641 C1649 0.930 . S
H1642 C1650 0.930 . S
H1643 C1651 0.930 . S
H1644 C1654 0.930 . S
H1645 C1655 0.930 . S
C1646 H1640 0.930 . S
C1646 C1647 1.355 . S
C1646 C1648 1.415 . S
C1647 C1646 1.355 . S
C1647 C1649 1.419 1_554 S
C1648 C1646 1.415 . S
C1648 C1653 1.425 1_554 S
C1648 C1655 1.409 . S
C1649 H1641 0.930 . S
C1649 C1647 1.419 1_556 S
C1649 C1650 1.362 . S
C1650 H1642 0.930 . S
C1650 C1649 1.362 . S
C1650 C1653 1.409 . S
C1651 H1643 0.930 . S
C1651 C1652 1.355 . S
C1651 C1653 1.415 . S
C1652 C1651 1.355 . S
C1652 C1654 1.419 1_556 S
C1653 C1648 1.425 1_556 S
C1653 C1650 1.409 . S
C1653 C1651 1.415 . S
C1654 H1644 0.930 . S
C1654 C1652 1.419 1_554 S
C1654 C1655 1.362 . S
C1655 H1645 0.930 . S
C1655 C1648 1.409 . S
C1655 C1654 1.362 . S
C511 C9 1.120 . S
C516 C21 1.356 . S
C527 C23 1.264 . S
C532 C35 1.279 . S
C543 C7 1.342 . S
C548 C37 1.172 . S
C559 C51 1.121 . S
C564 C77 1.350 . S
C575 C65 1.174 . S
C580 C49 1.340 . S
C591 C63 1.325 . S
C596 C79 1.155 . S
C607 C93 1.198 . S
C612 C101 1.398 . S
C623 C115 1.379 . S
C628 C107 1.222 . S
C639 C87 1.380 . S
C644 C121 1.193 . S
C655 C157 1.398 . S
C660 C135 1.166 . S
C671 C149 1.169 . S
C676 C129 1.398 . S
C687 C163 1.247 . S
C692 C143 1.394 . S
C703 C189 1.357 . S
C708 C177 1.125 . S
C719 C191 1.121 . S
C724 C203 1.350 . S
C735 C205 1.229 . S
C740 C175 1.310 . S
C751 C219 1.244 . S
C756 C245 1.277 . S
C767 C233 1.257 . S
C772 C217 1.288 . S
C783 C247 1.202 . S
C788 C231 1.297 . S
C799 C269 1.383 . S
C804 C261 1.263 . S
C815 C275 1.200 . S
C820 C283 1.379 . S
C831 C255 1.397 . S
C836 C289 1.144 . S
C847 C325 1.393 1_556 S
C852 C303 1.119 1_556 S
C863 C317 1.252 1_556 S
C868 C297 1.391 1_556 S
C879 C311 1.380 . S
C884 C331 1.239 1_556 S
C895 C357 1.323 . S
C900 C345 1.157 . S
C911 C359 1.261 . S
C916 C371 1.284 . S
C927 C373 1.122 . S
C932 C343 1.357 . S
C943 C413 1.269 1_554 S
C948 C387 1.260 1_554 S
C959 C401 1.263 1_554 S
C964 C385 1.270 1_554 S
C975 C399 1.333 1_554 S
C980 C415 1.181 1_554 S
C991 C429 1.248 . S
C996 C437 1.394 . S
C1007 C443 1.180 . S
C1012 C451 1.380 . S
C1023 C457 1.209 . S
C1028 C423 1.380 . S
C1039 C493 1.381 . S
C1044 C471 1.245 . S
C1055 C465 1.394 . S
C1060 C485 1.126 . S
C1071 C499 1.198 . S
C1076 C479 1.380 . S
C1087 C45 1.727 . S
C1092 C3 1.704 . S
C1103 C17 1.728 1_565 S
C1108 C59 1.711 1_545 S
C1119 C73 1.720 1_655 S
C1124 C31 1.724 1_455 S
C1135 C133 1.656 . S
C1140 C91 1.593 . S
C1151 C105 1.594 . S
C1156 C147 1.631 . S
C1167 C161 1.659 1_455 S
C1172 C119 1.584 1_655 S
C1183 C171 1.725 . S
C1188 C213 1.699 . S
C1199 C185 1.727 . S
C1204 C227 1.718 . S
C1215 C199 1.696 . S
C1220 C241 1.722 . S
C1231 C301 1.660 . S
C1236 C259 1.586 . S
C1247 C315 1.580 . S
C1252 C273 1.662 . S
C1263 C287 1.578 . S
C1268 C329 1.660 . S
C1279 C381 1.695 . S
C1284 C339 1.721 . S
C1295 C395 1.727 . S
C1300 C353 1.704 . S
C1311 C367 1.698 . S
C1316 C409 1.724 . S
C1327 C427 1.633 . S
C1332 C469 1.622 . S
C1343 C483 1.653 . S
C1348 C441 1.597 . S
C1359 C455 1.598 . S
C1364 C497 1.630 . S
C1375 C8 1.667 . S
C1380 C260 1.646 . S
C1391 C22 1.674 . S
C1396 C274 1.652 . S
C1407 C36 1.729 . S
C1412 C288 1.712 . S
C1423 C470 1.643 . S
C1428 C50 1.661 . S
C1439 C484 1.669 . S
C1444 C64 1.676 . S
C1455 C78 1.681 . S
C1460 C498 1.659 . S
C1471 C92 1.648 . S
C1476 C344 1.669 . S
C1487 C358 1.659 . S
C1492 C106 1.643 . S
C1503 C372 1.735 . S
C1508 C120 1.724 . S
C1519 C218 1.670 . S
C1524 C134 1.649 . S
C1535 C232 1.659 . S
C1540 C148 1.645 . S
C1551 C246 1.660 . S
C1556 C162 1.645 . S
C1567 C428 1.724 . S
C1572 C176 1.733 . S
C1583 C190 1.668 . S
C1588 C442 1.659 . S
C1599 C204 1.734 . S
C1604 C456 1.719 . S
C1615 C302 1.719 . S
C1620 C386 1.725 . S
C1631 C316 1.652 . S
C1636 C400 1.673 . S
C1647 C414 1.660 . S
C1652 C330 1.644 . S
