# Generated by pormake.
# Topology una, (4)-cn, num edge types: 1
# Building blocks:
#     Node 0, Type 0, BuildingBlock: QUQFOY_clean_sbu_1, # of connection points: 4
#     Node 1, Type 0, BuildingBlock: QUQFOY_clean_sbu_1, # of connection points: 4
#     Node 2, Type 0, BuildingBlock: QUQFOY_clean_sbu_1, # of connection points: 4
#     Node 3, Type 0, BuildingBlock: QUQFOY_clean_sbu_1, # of connection points: 4
#     Node 4, Type 0, BuildingBlock: QUQFOY_clean_sbu_1, # of connection points: 4
#     Node 5, Type 0, BuildingBlock: QUQFOY_clean_sbu_1, # of connection points: 4
#     Node 6, Type 0, BuildingBlock: QUQFOY_clean_sbu_1, # of connection points: 4
#     Node 7, Type 0, BuildingBlock: QUQFOY_clean_sbu_1, # of connection points: 4
#     Node 8, Type 0, BuildingBlock: QUQFOY_clean_sbu_1, # of connection points: 4
#     Node 9, Type 0, BuildingBlock: QUQFOY_clean_sbu_1, # of connection points: 4
#     Node 10, Type 0, BuildingBlock: QUQFOY_clean_sbu_1, # of connection points: 4
#     Node 11, Type 0, BuildingBlock: QUQFOY_clean_sbu_1, # of connection points: 4
#     Edge 12, Type (0, 0), BuildingBlock: TEMPAE_clean_linker_10, # of connection points: 2
#     Edge 13, Type (0, 0), BuildingBlock: TEMPAE_clean_linker_10, # of connection points: 2
#     Edge 14, Type (0, 0), BuildingBlock: TEMPAE_clean_linker_10, # of connection points: 2
#     Edge 15, Type (0, 0), BuildingBlock: TEMPAE_clean_linker_10, # of connection points: 2
#     Edge 16, Type (0, 0), BuildingBlock: TEMPAE_clean_linker_10, # of connection points: 2
#     Edge 17, Type (0, 0), BuildingBlock: TEMPAE_clean_linker_10, # of connection points: 2
#     Edge 18, Type (0, 0), BuildingBlock: TEMPAE_clean_linker_10, # of connection points: 2
#     Edge 19, Type (0, 0), BuildingBlock: TEMPAE_clean_linker_10, # of connection points: 2
#     Edge 20, Type (0, 0), BuildingBlock: TEMPAE_clean_linker_10, # of connection points: 2
#     Edge 21, Type (0, 0), BuildingBlock: TEMPAE_clean_linker_10, # of connection points: 2
#     Edge 22, Type (0, 0), BuildingBlock: TEMPAE_clean_linker_10, # of connection points: 2
#     Edge 23, Type (0, 0), BuildingBlock: TEMPAE_clean_linker_10, # of connection points: 2
#     Edge 24, Type (0, 0), BuildingBlock: TEMPAE_clean_linker_10, # of connection points: 2
#     Edge 25, Type (0, 0), BuildingBlock: TEMPAE_clean_linker_10, # of connection points: 2
#     Edge 26, Type (0, 0), BuildingBlock: TEMPAE_clean_linker_10, # of connection points: 2
#     Edge 27, Type (0, 0), BuildingBlock: TEMPAE_clean_linker_10, # of connection points: 2
#     Edge 28, Type (0, 0), BuildingBlock: TEMPAE_clean_linker_10, # of connection points: 2
#     Edge 29, Type (0, 0), BuildingBlock: TEMPAE_clean_linker_10, # of connection points: 2
#     Edge 30, Type (0, 0), BuildingBlock: TEMPAE_clean_linker_10, # of connection points: 2
#     Edge 31, Type (0, 0), BuildingBlock: TEMPAE_clean_linker_10, # of connection points: 2
#     Edge 32, Type (0, 0), BuildingBlock: TEMPAE_clean_linker_10, # of connection points: 2
#     Edge 33, Type (0, 0), BuildingBlock: TEMPAE_clean_linker_10, # of connection points: 2
#     Edge 34, Type (0, 0), BuildingBlock: TEMPAE_clean_linker_10, # of connection points: 2
#     Edge 35, Type (0, 0), BuildingBlock: TEMPAE_clean_linker_10, # of connection points: 2
# Relax obj value: 0.095
# Max RMSD: 0.099
# Mean RMSD: 0.099
data_MOF--net-una--node1-QUQFOY_clean_sbu_1--edge1-TEMPAE_clean_linker_10
_symmetry_space_group_name_H-M    P1
_symmetry_Int_Tables_number       1
_symmetry_cell_setting            triclinic
loop_
_symmetry_equiv_pos_as_xyz
'x, y, z'
_cell_length_a     61.026973
_cell_length_b     61.028195
_cell_length_c     22.442297
_cell_angle_alpha  90.023187
_cell_angle_beta   89.99281
_cell_angle_gamma 120.00256
loop_
_atom_site_label
_atom_site_type_symbol
_atom_site_fract_x
_atom_site_fract_y
_atom_site_fract_z
_atom_type_partial_charge
O0 O 0.12623 0.47125 0.12295 0.0
Cd1 Cd 0.12455 0.4368 0.10615 0.0
Cd2 Cd 0.16919 0.46734 0.05018 0.0
O3 O 0.15815 0.49387 0.06256 0.0
O4 O 0.08767 0.41106 0.096 0.0
O5 O 0.11527 0.42338 0.02194 0.0
C6 C 0.09208 0.41033 0.03993 0.0
C7 C 0.193 0.47079 0.96584 0.0
C8 C 0.14077 0.4921 0.09683 0.0
C9 C 0.16978 0.4377 0.1595 0.0
O10 O 0.18135 0.45509 0.12132 0.0
O11 O 0.14563 0.4259 0.16119 0.0
O12 O 0.20202 0.48705 0.0084 0.0
O13 O 0.16963 0.45306 0.96937 0.0
O14 O 0.66966 0.11858 0.28937 0.0
Cd15 Cd 0.70265 0.11731 0.27172 0.0
Cd16 Cd 0.71566 0.161 0.21475 0.0
O17 O 0.67798 0.14941 0.22639 0.0
O18 O 0.69196 0.08051 0.26187 0.0
O19 O 0.7064 0.10792 0.18735 0.0
C20 C 0.6967 0.08481 0.20562 0.0
C21 C 0.73587 0.18388 0.12934 0.0
C22 C 0.66279 0.13242 0.26201 0.0
C23 C 0.74658 0.16331 0.32373 0.0
O24 O 0.73993 0.17437 0.28605 0.0
O25 O 0.73503 0.13916 0.3252 0.0
O26 O 0.72821 0.19315 0.17043 0.0
O27 O 0.73072 0.16073 0.13495 0.0
O28 O 0.56428 0.66092 0.455 0.0
Cd29 Cd 0.59847 0.69412 0.43781 0.0
Cd30 Cd 0.5674 0.70698 0.38305 0.0
O31 O 0.54158 0.66913 0.39232 0.0
O32 O 0.62465 0.68349 0.42862 0.0
O33 O 0.61194 0.69798 0.35372 0.0
C34 C 0.62528 0.68827 0.37236 0.0
C35 C 0.56532 0.72808 0.29873 0.0
C36 C 0.54355 0.65391 0.4275 0.0
C37 C 0.59558 0.73714 0.49281 0.0
O38 O 0.57747 0.73021 0.45616 0.0
O39 O 0.60891 0.72634 0.49196 0.0
O40 O 0.54803 0.7199 0.33904 0.0
O41 O 0.58335 0.72298 0.30445 0.0
O42 O 0.91804 0.55823 0.62856 0.0
Cd43 Cd 0.91862 0.59181 0.60639 0.0
Cd44 Cd 0.87505 0.56046 0.54989 0.0
O45 O 0.88762 0.53532 0.56467 0.0
O46 O 0.95447 0.62004 0.59234 0.0
O47 O 0.92694 0.60075 0.51961 0.0
C48 C 0.94975 0.61698 0.53585 0.0
C49 C 0.85232 0.55672 0.46338 0.0
C50 C 0.9044 0.53736 0.6014 0.0
C51 C 0.87188 0.58965 0.65562 0.0
O52 O 0.86088 0.57132 0.6195 0.0
O53 O 0.89602 0.60254 0.65644 0.0
O54 O 0.8432 0.53995 0.50484 0.0
O55 O 0.87529 0.57509 0.46917 0.0
O56 O 0.37479 0.91005 0.79462 0.0
Cd57 Cd 0.34184 0.91082 0.77322 0.0
Cd58 Cd 0.32898 0.86676 0.71756 0.0
O59 O 0.36674 0.8792 0.73157 0.0
O60 O 0.34966 0.94672 0.75922 0.0
O61 O 0.34081 0.91902 0.68652 0.0
C62 C 0.34763 0.94189 0.70276 0.0
C63 C 0.30952 0.84339 0.63201 0.0
C64 C 0.38174 0.89614 0.76766 0.0
C65 C 0.29737 0.86455 0.8242 0.0
O66 O 0.30428 0.85324 0.78792 0.0
O67 O 0.30882 0.88869 0.8245 0.0
O68 O 0.31721 0.8345 0.67391 0.0
O69 O 0.31431 0.86646 0.6368 0.0
O70 O 0.47766 0.36588 0.96141 0.0
Cd71 Cd 0.44401 0.33296 0.93957 0.0
Cd72 Cd 0.47535 0.32019 0.88385 0.0
O73 O 0.50069 0.35787 0.89898 0.0
O74 O 0.41594 0.34077 0.92532 0.0
O75 O 0.43492 0.33201 0.85277 0.0
C76 C 0.41883 0.3388 0.86888 0.0
C77 C 0.47969 0.30111 0.79807 0.0
C78 C 0.49863 0.37283 0.935 0.0
C79 C 0.44564 0.28832 0.99 0.0
O80 O 0.4638 0.29515 0.95356 0.0
O81 O 0.43311 0.29993 0.99074 0.0
O82 O 0.49605 0.30858 0.84045 0.0
O83 O 0.4614 0.3059 0.80254 0.0
O84 O 0.56511 0.90907 0.81779 0.0
Cd85 Cd 0.59952 0.91064 0.83491 0.0
Cd86 Cd 0.56909 0.86665 0.89226 0.0
O87 O 0.54269 0.87783 0.87994 0.0
O88 O 0.62541 0.94751 0.8448 0.0
O89 O 0.61279 0.92005 0.91918 0.0
C90 C 0.626 0.94318 0.90097 0.0
C91 C 0.56612 0.84354 0.97745 0.0
C92 C 0.54438 0.89492 0.8448 0.0
C93 C 0.59822 0.86494 0.78327 0.0
O94 O 0.58076 0.85372 0.82149 0.0
O95 O 0.61025 0.88909 0.78096 0.0
O96 O 0.54951 0.83425 0.93567 0.0
O97 O 0.58393 0.86682 0.97268 0.0
O98 O 0.66923 0.55582 0.98756 0.0
Cd99 Cd 0.70226 0.59014 0.00439 0.0
Cd100 Cd 0.7157 0.5592 0.05911 0.0
O101 O 0.67788 0.53316 0.04935 0.0
O102 O 0.69134 0.61609 0.01376 0.0
O103 O 0.70632 0.60376 0.08841 0.0
C104 C 0.69635 0.61689 0.06992 0.0
C105 C 0.73683 0.55655 0.14284 0.0
C106 C 0.66249 0.53506 0.01462 0.0
C107 C 0.74554 0.5879 0.94902 0.0
O108 O 0.73908 0.57003 0.98613 0.0
O109 O 0.73425 0.60077 0.94947 0.0
O110 O 0.72882 0.53966 0.10161 0.0
O111 O 0.73155 0.57451 0.13838 0.0
O112 O 0.12729 0.66251 0.14997 0.0
Cd113 Cd 0.12694 0.69564 0.17226 0.0
Cd114 Cd 0.17081 0.70776 0.22642 0.0
O115 O 0.15776 0.66985 0.2135 0.0
O116 O 0.09113 0.68809 0.18653 0.0
O117 O 0.11876 0.69643 0.25909 0.0
C118 C 0.09594 0.68986 0.24298 0.0
C119 C 0.19411 0.72753 0.3118 0.0
C120 C 0.14082 0.65514 0.17707 0.0
C121 C 0.1734 0.73941 0.12002 0.0
O122 O 0.18457 0.7319 0.15512 0.0
O123 O 0.14931 0.72876 0.12143 0.0
O124 O 0.20292 0.7194 0.27066 0.0
O125 O 0.17117 0.72303 0.30637 0.0
O126 O 0.47909 0.11912 0.31679 0.0
Cd127 Cd 0.44569 0.11892 0.33907 0.0
Cd128 Cd 0.47764 0.16295 0.39222 0.0
O129 O 0.50243 0.1498 0.37969 0.0
O130 O 0.41741 0.08314 0.35343 0.0
O131 O 0.43675 0.1108 0.42592 0.0
C132 C 0.42048 0.08798 0.40987 0.0
C133 C 0.48102 0.18628 0.47745 0.0
C134 C 0.50007 0.1327 0.3436 0.0
C135 C 0.44847 0.16529 0.28589 0.0
O136 O 0.46731 0.17655 0.32053 0.0
O137 O 0.43489 0.14122 0.28805 0.0
O138 O 0.49803 0.19509 0.43647 0.0
O139 O 0.46259 0.16332 0.47193 0.0
O140 O 0.37321 0.47012 0.48193 0.0
Cd141 Cd 0.33992 0.43687 0.50481 0.0
Cd142 Cd 0.32847 0.46896 0.55859 0.0
O143 O 0.36643 0.49348 0.54598 0.0
O144 O 0.34715 0.40839 0.51917 0.0
O145 O 0.33943 0.42815 0.59171 0.0
C146 C 0.34571 0.41169 0.57563 0.0
C147 C 0.30881 0.47206 0.64457 0.0
C148 C 0.38092 0.49106 0.50922 0.0
C149 C 0.29643 0.44022 0.45283 0.0
O150 O 0.30447 0.45921 0.48718 0.0
O151 O 0.30655 0.42631 0.4549 0.0
O152 O 0.31712 0.48934 0.60422 0.0
O153 O 0.31307 0.4535 0.63796 0.0
O154 O 0.91694 0.36679 0.65202 0.0
Cd155 Cd 0.91819 0.33372 0.66886 0.0
Cd156 Cd 0.87425 0.32051 0.72458 0.0
O157 O 0.88598 0.3583 0.71479 0.0
O158 O 0.95501 0.34449 0.67864 0.0
O159 O 0.92756 0.32971 0.75305 0.0
C160 C 0.95069 0.33956 0.73481 0.0
C161 C 0.85093 0.29943 0.80873 0.0
C162 C 0.90311 0.37362 0.67962 0.0
C163 C 0.87243 0.29028 0.61475 0.0
O164 O 0.86123 0.29695 0.652 0.0
O165 O 0.89658 0.30154 0.61454 0.0
O166 O 0.84182 0.30742 0.76802 0.0
O167 O 0.87416 0.30477 0.80362 0.0
C168 C 0.17555 0.41774 0.2534 0.0
C169 C 0.18546 0.43207 0.20127 0.0
C170 C 0.19149 0.4149 0.29471 0.0
C171 C 0.21792 0.42666 0.28367 0.0
C172 C 0.22769 0.44004 0.22973 0.0
C173 C 0.21145 0.44252 0.18951 0.0
C174 C 0.18023 0.40027 0.35137 0.0
C175 C 0.25564 0.45302 0.21574 0.0
C176 C 0.26557 0.45181 0.41057 0.0
C177 C 0.27521 0.43513 0.41116 0.0
C178 C 0.24631 0.44856 0.37118 0.0
C179 C 0.23599 0.42796 0.33087 0.0
C180 C 0.24496 0.4105 0.33224 0.0
C181 C 0.26452 0.41432 0.37218 0.0
C182 C 0.2377 0.46787 0.37124 0.0
C183 C 0.23434 0.38817 0.29044 0.0
H184 H 0.15555 0.40946 0.26292 0.0
H185 H 0.21943 0.45333 0.14907 0.0
H186 H 0.18732 0.38698 0.35986 0.0
H187 H 0.18614 0.41356 0.38958 0.0
H188 H 0.15923 0.3894 0.3498 0.0
H189 H 0.25993 0.46079 0.16976 0.0
H190 H 0.26619 0.46881 0.24753 0.0
H191 H 0.26281 0.43964 0.22103 0.0
H192 H 0.27342 0.46791 0.44047 0.0
H193 H 0.2716 0.4012 0.37238 0.0
H194 H 0.21684 0.45834 0.37592 0.0
H195 H 0.24272 0.47817 0.32816 0.0
H196 H 0.24646 0.48192 0.40778 0.0
H197 H 0.21336 0.37779 0.2921 0.0
H198 H 0.24118 0.37484 0.30127 0.0
H199 H 0.23995 0.3949 0.24402 0.0
C200 C 0.86661 0.26079 0.52817 0.0
C201 C 0.85635 0.26914 0.5728 0.0
C202 C 0.85074 0.24139 0.48797 0.0
C203 C 0.82402 0.23016 0.49225 0.0
C204 C 0.81368 0.23803 0.53835 0.0
C205 C 0.82983 0.2572 0.57775 0.0
C206 C 0.86257 0.23343 0.43984 0.0
C207 C 0.78542 0.22693 0.5447 0.0
C208 C 0.78117 0.20594 0.3565 0.0
C209 C 0.76796 0.17954 0.36493 0.0
C210 C 0.80026 0.22234 0.39579 0.0
C211 C 0.80671 0.21237 0.44531 0.0
C212 C 0.79431 0.18569 0.45294 0.0
C213 C 0.77506 0.16958 0.41275 0.0
C214 C 0.81266 0.25055 0.38571 0.0
C215 C 0.80075 0.17423 0.5048 0.0
H216 H 0.88698 0.26965 0.52403 0.0
H217 H 0.82145 0.26314 0.61215 0.0
H218 H 0.8535 0.21251 0.43846 0.0
H219 H 0.85942 0.23966 0.39581 0.0
H220 H 0.88325 0.24166 0.44653 0.0
H221 H 0.78031 0.23383 0.58525 0.0
H222 H 0.77795 0.23201 0.50521 0.0
H223 H 0.77581 0.20598 0.54662 0.0
H224 H 0.77625 0.21406 0.31949 0.0
H225 H 0.7652 0.14929 0.41962 0.0
H226 H 0.83355 0.25935 0.38647 0.0
H227 H 0.80732 0.25925 0.42219 0.0
H228 H 0.80701 0.25524 0.34263 0.0
H229 H 0.82156 0.18272 0.50877 0.0
H230 H 0.792 0.15338 0.5004 0.0
H231 H 0.79392 0.1784 0.54676 0.0
C232 C 0.58399 0.76796 0.5352 0.0
C233 C 0.60046 0.75806 0.53528 0.0
C234 C 0.58725 0.78729 0.57441 0.0
C235 C 0.60764 0.79741 0.61527 0.0
C236 C 0.62481 0.78807 0.61485 0.0
C237 C 0.62099 0.76845 0.57505 0.0
C238 C 0.56823 0.79626 0.57334 0.0
C239 C 0.64691 0.79846 0.65733 0.0
C240 C 0.61837 0.85844 0.69057 0.0
C241 C 0.6037 0.84888 0.74238 0.0
C242 C 0.62117 0.84218 0.65018 0.0
C243 C 0.60904 0.81577 0.66181 0.0
C244 C 0.59532 0.80635 0.71548 0.0
C245 C 0.59288 0.82289 0.75479 0.0
C246 C 0.63616 0.85309 0.59377 0.0
C247 C 0.58194 0.77844 0.73006 0.0
H248 H 0.56807 0.76033 0.50478 0.0
H249 H 0.63396 0.76119 0.57535 0.0
H250 H 0.5578 0.79155 0.61625 0.0
H251 H 0.57802 0.81712 0.56817 0.0
H252 H 0.55426 0.78751 0.53666 0.0
H253 H 0.65994 0.79114 0.64765 0.0
H254 H 0.6577 0.81943 0.65504 0.0
H255 H 0.63989 0.79323 0.70367 0.0
H256 H 0.62695 0.87843 0.68057 0.0
H257 H 0.58181 0.81517 0.795 0.0
H258 H 0.62308 0.8472 0.55515 0.0
H259 H 0.64926 0.8457 0.58628 0.0
H260 H 0.64727 0.87409 0.59495 0.0
H261 H 0.5662 0.76795 0.69809 0.0
H262 H 0.574 0.77442 0.7759 0.0
H263 H 0.59508 0.77095 0.72556 0.0
C264 C 0.82936 0.5823 0.68704 0.0
C265 C 0.8557 0.59506 0.69624 0.0
C266 C 0.81295 0.58488 0.72652 0.0
C267 C 0.82288 0.60075 0.77703 0.0
C268 C 0.84953 0.61472 0.78526 0.0
C269 C 0.86564 0.61171 0.74482 0.0
C270 C 0.78476 0.56946 0.71571 0.0
C271 C 0.86096 0.63202 0.83817 0.0
C272 C 0.77489 0.61201 0.86267 0.0
C273 C 0.76642 0.59299 0.90626 0.0
C274 C 0.79413 0.61568 0.82183 0.0
C275 C 0.80505 0.59988 0.82437 0.0
C276 C 0.79701 0.58117 0.8693 0.0
C277 C 0.77801 0.57804 0.9094 0.0
C278 C 0.8023 0.63599 0.77498 0.0
C279 C 0.80778 0.56368 0.87377 0.0
H280 H 0.8213 0.56962 0.64936 0.0
H281 H 0.8859 0.6218 0.75231 0.0
H282 H 0.77583 0.5549 0.75105 0.0
H283 H 0.77613 0.58169 0.7179 0.0
H284 H 0.78016 0.55977 0.67178 0.0
H285 H 0.88182 0.64411 0.83408 0.0
H286 H 0.85252 0.64434 0.84345 0.0
H287 H 0.85671 0.62053 0.87935 0.0
H288 H 0.7663 0.62381 0.85992 0.0
H289 H 0.77194 0.56336 0.94292 0.0
H290 H 0.79617 0.62712 0.73041 0.0
H291 H 0.82324 0.64778 0.77405 0.0
H292 H 0.79415 0.64845 0.78273 0.0
H293 H 0.8027 0.55165 0.83331 0.0
H294 H 0.80065 0.55113 0.91341 0.0
H295 H 0.82873 0.57479 0.87613 0.0
C296 C 0.26217 0.82233 0.85725 0.0
C297 C 0.27602 0.84871 0.86571 0.0
C298 C 0.2434 0.80624 0.89754 0.0
C299 C 0.23797 0.81655 0.94814 0.0
C300 C 0.25095 0.84324 0.95571 0.0
C301 C 0.26984 0.85902 0.91447 0.0
C302 C 0.23028 0.778 0.88739 0.0
C303 C 0.24562 0.85505 0.00871 0.0
C304 C 0.17882 0.76926 0.03486 0.0
C305 C 0.18932 0.76055 0.07804 0.0
C306 C 0.19441 0.78842 0.99394 0.0
C307 C 0.2211 0.79903 0.99599 0.0
C308 C 0.23172 0.79085 0.04073 0.0
C309 C 0.21583 0.77192 0.08093 0.0
C310 C 0.1823 0.79675 0.94735 0.0
C311 C 0.25996 0.80133 0.0447 0.0
H312 H 0.2664 0.814 0.81947 0.0
H313 H 0.28023 0.87931 0.92141 0.0
H314 H 0.23588 0.76907 0.92281 0.0
H315 H 0.20946 0.76962 0.89 0.0
H316 H 0.23508 0.77309 0.84348 0.0
H317 H 0.25462 0.87592 0.00425 0.0
H318 H 0.22492 0.84691 0.01458 0.0
H319 H 0.25295 0.8508 0.04971 0.0
H320 H 0.15844 0.76083 0.0323 0.0
H321 H 0.22438 0.76568 0.11421 0.0
H322 H 0.18457 0.79025 0.90279 0.0
H323 H 0.19182 0.8177 0.94585 0.0
H324 H 0.1618 0.78902 0.9558 0.0
H325 H 0.26662 0.79591 0.00428 0.0
H326 H 0.26538 0.79426 0.08444 0.0
H327 H 0.27004 0.8223 0.04651 0.0
C328 C 0.45899 0.20753 0.24431 0.0
C329 C 0.44317 0.18107 0.24361 0.0
C330 C 0.45569 0.22325 0.20411 0.0
C331 C 0.43593 0.21252 0.16162 0.0
C332 C 0.41928 0.18591 0.16168 0.0
C333 C 0.42313 0.17048 0.20253 0.0
C334 C 0.4741 0.25141 0.20572 0.0
C335 C 0.39784 0.1737 0.11752 0.0
C336 C 0.4246 0.26151 0.08177 0.0
C337 C 0.44008 0.26691 0.03132 0.0
C338 C 0.42177 0.24276 0.12312 0.0
C339 C 0.43472 0.22912 0.11386 0.0
C340 C 0.4493 0.23368 0.0615 0.0
C341 C 0.45174 0.25235 0.02117 0.0
C342 C 0.40586 0.23837 0.17805 0.0
C343 C 0.46355 0.2198 0.04946 0.0
H344 H 0.47447 0.21615 0.27589 0.0
H345 H 0.41067 0.15015 0.20168 0.0
H346 H 0.48523 0.25732 0.16381 0.0
H347 H 0.46374 0.26199 0.20888 0.0
H348 H 0.48748 0.25699 0.24379 0.0
H349 H 0.38494 0.15334 0.12736 0.0
H350 H 0.38674 0.18358 0.11749 0.0
H351 H 0.4056 0.17538 0.07197 0.0
H352 H 0.41538 0.27247 0.09004 0.0
H353 H 0.46348 0.25596 0.98204 0.0
H354 H 0.41835 0.24596 0.21762 0.0
H355 H 0.39311 0.21782 0.18548 0.0
H356 H 0.39429 0.24774 0.17492 0.0
H357 H 0.47885 0.22547 0.08293 0.0
H358 H 0.4722 0.22386 0.00434 0.0
H359 H 0.45077 0.19909 0.05375 0.0
C360 C 0.1538 0.53741 0.07651 0.0
C361 C 0.13788 0.51467 0.10648 0.0
C362 C 0.15217 0.55926 0.0864 0.0
C363 C 0.13416 0.55852 0.12735 0.0
C364 C 0.11758 0.53552 0.15669 0.0
C365 C 0.11963 0.51387 0.14593 0.0
C366 C 0.17025 0.58337 0.0542 0.0
C367 C 0.09812 0.53395 0.20065 0.0
C368 C 0.15162 0.62147 0.19959 0.0
C369 C 0.1376 0.62963 0.16598 0.0
C370 C 0.15008 0.59812 0.18849 0.0
C371 C 0.13413 0.58234 0.1425 0.0
C372 C 0.11941 0.59008 0.10928 0.0
C373 C 0.12129 0.61363 0.12143 0.0
C374 C 0.16608 0.59065 0.2251 0.0
C375 C 0.10216 0.57377 0.05992 0.0
H376 H 0.16789 0.53829 0.04568 0.0
H377 H 0.10715 0.49642 0.16915 0.0
H378 H 0.15963 0.59116 0.03077 0.0
H379 H 0.18292 0.59782 0.08689 0.0
H380 H 0.18211 0.58045 0.02117 0.0
H381 H 0.08545 0.51431 0.21646 0.0
H382 H 0.10779 0.54609 0.23979 0.0
H383 H 0.08642 0.54116 0.18014 0.0
H384 H 0.16417 0.63353 0.23442 0.0
H385 H 0.11034 0.61968 0.09529 0.0
H386 H 0.17999 0.58922 0.19588 0.0
H387 H 0.15403 0.57177 0.24546 0.0
H388 H 0.17656 0.60446 0.26115 0.0
H389 H 0.11358 0.57202 0.02372 0.0
H390 H 0.09076 0.58166 0.04083 0.0
H391 H 0.08914 0.55441 0.07669 0.0
C392 C 0.62027 0.11161 0.31302 0.0
C393 C 0.63725 0.1293 0.27191 0.0
C394 C 0.59657 0.10951 0.32413 0.0
C395 C 0.58967 0.12546 0.29348 0.0
C396 C 0.60644 0.14284 0.25082 0.0
C397 C 0.62993 0.14454 0.24059 0.0
C398 C 0.57921 0.09071 0.36989 0.0
C399 C 0.59991 0.16025 0.21718 0.0
C400 C 0.5216 0.11235 0.28939 0.0
C401 C 0.52229 0.12935 0.33254 0.0
C402 C 0.54315 0.11028 0.27726 0.0
C403 C 0.56591 0.12554 0.30902 0.0
C404 C 0.56648 0.14221 0.35363 0.0
C405 C 0.54476 0.1439 0.36479 0.0
C406 C 0.54178 0.09224 0.22945 0.0
C407 C 0.59031 0.15885 0.38858 0.0
H408 H 0.62564 0.09967 0.33728 0.0
H409 H 0.64276 0.15818 0.20846 0.0
H410 H 0.57713 0.10095 0.40836 0.0
H411 H 0.56008 0.07865 0.3507 0.0
H412 H 0.58642 0.07833 0.38644 0.0
H413 H 0.6143 0.1716 0.18292 0.0
H414 H 0.58126 0.14915 0.19497 0.0
H415 H 0.59839 0.17342 0.24879 0.0
H416 H 0.50436 0.10097 0.26433 0.0
H417 H 0.54556 0.157 0.39852 0.0
H418 H 0.5484 0.07959 0.24721 0.0
H419 H 0.5545 0.10306 0.19206 0.0
H420 H 0.52229 0.08044 0.21173 0.0
H421 H 0.59741 0.14719 0.40982 0.0
H422 H 0.58729 0.16987 0.4238 0.0
H423 H 0.60531 0.17231 0.35804 0.0
C424 C 0.41469 0.5356 0.53057 0.0
C425 C 0.40653 0.51317 0.49794 0.0
C426 C 0.4381 0.55728 0.51918 0.0
C427 C 0.45396 0.55671 0.47397 0.0
C428 C 0.44625 0.53398 0.44186 0.0
C429 C 0.42261 0.51247 0.4542 0.0
C430 C 0.44551 0.58107 0.5545 0.0
C431 C 0.46268 0.5326 0.39345 0.0
C432 C 0.49866 0.62089 0.40594 0.0
C433 C 0.52129 0.62823 0.43692 0.0
C434 C 0.47695 0.59731 0.41602 0.0
C435 C 0.47775 0.58047 0.45815 0.0
C436 C 0.50072 0.58736 0.4883 0.0
C437 C 0.52221 0.61116 0.47738 0.0
C438 C 0.45288 0.5908 0.38296 0.0
C439 C 0.50237 0.56991 0.53342 0.0
H440 H 0.40257 0.53642 0.56476 0.0
H441 H 0.41657 0.49526 0.42886 0.0
H442 H 0.46436 0.5881 0.57523 0.0
H443 H 0.44697 0.59614 0.5243 0.0
H444 H 0.43164 0.57805 0.59016 0.0
H445 H 0.45491 0.51311 0.37566 0.0
H446 H 0.46439 0.54531 0.35622 0.0
H447 H 0.48205 0.53923 0.41065 0.0
H448 H 0.49769 0.63379 0.3743 0.0
H449 H 0.53959 0.61654 0.50135 0.0
H450 H 0.43833 0.58927 0.41498 0.0
H451 H 0.44525 0.57217 0.36063 0.0
H452 H 0.4558 0.60521 0.34889 0.0
H453 H 0.49031 0.56785 0.57244 0.0
H454 H 0.52204 0.57704 0.54922 0.0
H455 H 0.49511 0.55079 0.51401 0.0
C456 C 0.89269 0.49255 0.57999 0.0
C457 C 0.90736 0.51492 0.61251 0.0
C458 C 0.89413 0.47067 0.59087 0.0
C459 C 0.91066 0.47097 0.63547 0.0
C460 C 0.926 0.4936 0.66762 0.0
C461 C 0.92418 0.51532 0.65577 0.0
C462 C 0.87741 0.44699 0.55552 0.0
C463 C 0.9439 0.49469 0.71544 0.0
C464 C 0.89123 0.40657 0.7022 0.0
C465 C 0.90641 0.39927 0.67053 0.0
C466 C 0.8931 0.43018 0.69269 0.0
C467 C 0.91059 0.44708 0.65041 0.0
C468 C 0.9265 0.4402 0.61943 0.0
C469 C 0.92422 0.41639 0.62983 0.0
C470 C 0.87574 0.43669 0.72665 0.0
C471 C 0.94541 0.4577 0.57405 0.0
H472 H 0.87972 0.49195 0.5462 0.0
H473 H 0.93565 0.53248 0.68104 0.0
H474 H 0.88901 0.43988 0.53396 0.0
H475 H 0.8639 0.43191 0.58584 0.0
H476 H 0.86644 0.45019 0.52052 0.0
H477 H 0.95569 0.51407 0.73373 0.0
H478 H 0.93296 0.48178 0.75246 0.0
H479 H 0.95656 0.48812 0.69744 0.0
H480 H 0.87749 0.39363 0.73403 0.0
H481 H 0.93613 0.41104 0.6053 0.0
H482 H 0.86263 0.43839 0.6952 0.0
H483 H 0.88688 0.45524 0.74922 0.0
H484 H 0.86432 0.4222 0.76065 0.0
H485 H 0.93527 0.46 0.53569 0.0
H486 H 0.95774 0.45048 0.55724 0.0
H487 H 0.95751 0.47674 0.59368 0.0
C488 C 0.42361 0.91564 0.82175 0.0
C489 C 0.40713 0.899 0.7783 0.0
C490 C 0.44711 0.91734 0.83328 0.0
C491 C 0.45432 0.90207 0.80057 0.0
C492 C 0.43804 0.88573 0.75575 0.0
C493 C 0.41475 0.88439 0.74523 0.0
C494 C 0.46396 0.93501 0.88141 0.0
C495 C 0.44494 0.86912 0.71974 0.0
C496 C 0.52254 0.91582 0.7949 0.0
C497 C 0.52187 0.89793 0.8353 0.0
C498 C 0.50094 0.91799 0.78447 0.0
C499 C 0.47812 0.9019 0.81512 0.0
C500 C 0.47753 0.88426 0.85696 0.0
C501 C 0.49933 0.88249 0.86649 0.0
C502 C 0.50234 0.93704 0.73952 0.0
C503 C 0.45363 0.86671 0.89058 0.0
H504 H 0.41798 0.92705 0.84746 0.0
H505 H 0.40232 0.87157 0.71127 0.0
H506 H 0.46592 0.92389 0.91802 0.0
H507 H 0.48319 0.94772 0.8635 0.0
H508 H 0.45641 0.94674 0.90025 0.0
H509 H 0.43076 0.85835 0.68458 0.0
H510 H 0.46366 0.88077 0.6983 0.0
H511 H 0.44646 0.85545 0.74959 0.0
H512 H 0.53984 0.92791 0.77074 0.0
H513 H 0.49856 0.86869 0.89806 0.0
H514 H 0.49553 0.94915 0.75964 0.0
H515 H 0.48979 0.92702 0.70121 0.0
H516 H 0.52187 0.94935 0.72255 0.0
H517 H 0.44623 0.87774 0.91371 0.0
H518 H 0.45667 0.85509 0.92406 0.0
H519 H 0.43884 0.8538 0.85883 0.0
C520 C 0.54358 0.40571 0.91413 0.0
C521 C 0.52115 0.39817 0.94623 0.0
C522 C 0.56551 0.42898 0.92518 0.0
C523 C 0.56519 0.4453 0.96955 0.0
C524 C 0.54251 0.43815 1.00129 0.0
C525 C 0.52074 0.41467 0.98925 0.0
C526 C 0.58925 0.43581 0.89022 0.0
C527 C 0.54141 0.45504 0.0489 0.0
C528 C 0.62948 0.49023 0.03701 0.0
C529 C 0.63685 0.51271 0.00531 0.0
C530 C 0.60588 0.4685 0.02724 0.0
C531 C 0.58909 0.46909 0.98461 0.0
C532 C 0.59606 0.49187 0.95356 0.0
C533 C 0.61984 0.51341 0.96427 0.0
C534 C 0.59925 0.44463 0.06135 0.0
C535 C 0.5787 0.49328 0.90776 0.0
H536 H 0.54418 0.39326 0.88052 0.0
H537 H 0.50354 0.4091 0.0142 0.0
H538 H 0.59648 0.45451 0.86855 0.0
H539 H 0.60423 0.43734 0.92083 0.0
H540 H 0.58606 0.42159 0.85535 0.0
H541 H 0.52201 0.44752 0.067 0.0
H542 H 0.55426 0.45702 0.08609 0.0
H543 H 0.54806 0.47426 0.03076 0.0
H544 H 0.64233 0.48944 0.06911 0.0
H545 H 0.62526 0.53066 0.93968 0.0
H546 H 0.59759 0.4298 0.03003 0.0
H547 H 0.58066 0.43727 0.08366 0.0
H548 H 0.61367 0.44771 0.09558 0.0
H549 H 0.57643 0.48076 0.86958 0.0
H550 H 0.58601 0.51281 0.89076 0.0
H551 H 0.55963 0.48643 0.9271 0.0
C552 C 0.28416 0.48983 0.69187 0.0
C553 C 0.29312 0.47268 0.69394 0.0
C554 C 0.2675 0.48948 0.73525 0.0
C555 C 0.2599 0.4718 0.78238 0.0
C556 C 0.26926 0.45476 0.78551 0.0
C557 C 0.28566 0.45528 0.74091 0.0
C558 C 0.25777 0.50782 0.73019 0.0
C559 C 0.26187 0.43594 0.83581 0.0
C560 C 0.23597 0.48745 0.92252 0.0
C561 C 0.2097 0.47164 0.91717 0.0
C562 C 0.25251 0.48746 0.87928 0.0
C563 C 0.24252 0.47153 0.82896 0.0
C564 C 0.21599 0.45581 0.82269 0.0
C565 C 0.19986 0.4559 0.8672 0.0
C566 C 0.28069 0.50433 0.88777 0.0
C567 C 0.2047 0.4389 0.76901 0.0
H568 H 0.28968 0.50322 0.65543 0.0
H569 H 0.29252 0.44198 0.74266 0.0
H570 H 0.2368 0.49728 0.72784 0.0
H571 H 0.26315 0.52003 0.77036 0.0
H572 H 0.26526 0.52014 0.69025 0.0
H573 H 0.27114 0.42429 0.83229 0.0
H574 H 0.26708 0.44601 0.8792 0.0
H575 H 0.24106 0.42314 0.83602 0.0
H576 H 0.24375 0.49953 0.96129 0.0
H577 H 0.17958 0.44365 0.86292 0.0
H578 H 0.28877 0.51786 0.85018 0.0
H579 H 0.29008 0.49276 0.88784 0.0
H580 H 0.2854 0.51524 0.93005 0.0
H581 H 0.21071 0.45042 0.72769 0.0
H582 H 0.18369 0.42805 0.77049 0.0
H583 H 0.21175 0.42533 0.76617 0.0
C584 C 0.75907 0.19014 0.03306 0.0
C585 C 0.75169 0.20014 0.0801 0.0
C586 C 0.77545 0.20599 0.9884 0.0
C587 C 0.78483 0.23239 0.99152 0.0
C588 C 0.77735 0.24253 0.03878 0.0
C589 C 0.76075 0.22627 0.08224 0.0
C590 C 0.78276 0.19453 0.93799 0.0
C591 C 0.78707 0.27061 0.04377 0.0
C592 C 0.84451 0.27704 0.90624 0.0
C593 C 0.83443 0.28306 0.85697 0.0
C594 C 0.82856 0.2605 0.95054 0.0
C595 C 0.802 0.24949 0.94466 0.0
C596 C 0.79177 0.25542 0.89484 0.0
C597 C 0.80811 0.27229 0.85187 0.0
C598 C 0.84011 0.2549 0.00373 0.0
C599 C 0.76353 0.24385 0.88675 0.0
H600 H 0.75215 0.16998 0.03127 0.0
H601 H 0.75527 0.23418 0.1187 0.0
H602 H 0.77732 0.19923 0.89471 0.0
H603 H 0.80358 0.20265 0.93733 0.0
H604 H 0.77361 0.17362 0.94175 0.0
H605 H 0.77979 0.27549 0.08404 0.0
H606 H 0.80805 0.28108 0.04545 0.0
H607 H 0.78142 0.27734 0.00389 0.0
H608 H 0.86483 0.2853 0.91026 0.0
H609 H 0.80017 0.27665 0.81355 0.0
H610 H 0.833 0.23427 0.00662 0.0
H611 H 0.83435 0.26051 0.04531 0.0
H612 H 0.8611 0.265 1.00162 0.0
H613 H 0.75428 0.22291 0.88704 0.0
H614 H 0.75863 0.24985 0.84445 0.0
H615 H 0.75549 0.24935 0.92435 0.0
C616 C 0.58217 0.75129 0.20248 0.0
C617 C 0.56516 0.74432 0.25018 0.0
C618 C 0.5828 0.7678 0.15807 0.0
C619 C 0.56628 0.77777 0.16216 0.0
C620 C 0.54913 0.7708 0.21028 0.0
C621 C 0.54865 0.75403 0.25344 0.0
C622 C 0.60105 0.77454 0.10672 0.0
C623 C 0.53136 0.78119 0.21638 0.0
C624 C 0.582 0.83728 0.07529 0.0
C625 C 0.56558 0.82718 0.02654 0.0
C626 C 0.58243 0.82141 0.12004 0.0
C627 C 0.56631 0.79489 0.11523 0.0
C628 C 0.54969 0.78463 0.06617 0.0
C629 C 0.5494 0.80091 0.02267 0.0
C630 C 0.60009 0.83298 0.17239 0.0
C631 C 0.53236 0.75643 0.05929 0.0
H632 H 0.59498 0.74386 0.19984 0.0
H633 H 0.53559 0.7489 0.29049 0.0
H634 H 0.59049 0.76896 0.06399 0.0
H635 H 0.61399 0.79531 0.10522 0.0
H636 H 0.61257 0.76512 0.11002 0.0
H637 H 0.51965 0.7744 0.25742 0.0
H638 H 0.54231 0.80217 0.2173 0.0
H639 H 0.51854 0.77556 0.1773 0.0
H640 H 0.59456 0.85756 0.07841 0.0
H641 H 0.53679 0.79293 0.98486 0.0
H642 H 0.6134 0.8256 0.17455 0.0
H643 H 0.58911 0.82754 0.21453 0.0
H644 H 0.61123 0.85396 0.16976 0.0
H645 H 0.54363 0.74673 0.05882 0.0
H646 H 0.52096 0.7515 0.01775 0.0
H647 H 0.51925 0.7489 0.0978 0.0
C648 C 0.846 0.57272 0.36579 0.0
C649 C 0.83601 0.55585 0.41376 0.0
C650 C 0.8301 0.57309 0.32104 0.0
C651 C 0.80364 0.55645 0.32504 0.0
C652 C 0.79351 0.53927 0.37313 0.0
C653 C 0.80983 0.53905 0.41663 0.0
C654 C 0.84156 0.59134 0.26971 0.0
C655 C 0.76537 0.52137 0.37914 0.0
C656 C 0.75962 0.57244 0.23997 0.0
C657 C 0.75306 0.55608 0.19103 0.0
C658 C 0.7761 0.57277 0.28413 0.0
C659 C 0.78646 0.55664 0.27851 0.0
C660 C 0.77991 0.54014 0.22915 0.0
C661 C 0.76315 0.53992 0.18627 0.0
C662 C 0.78238 0.59031 0.33681 0.0
C663 C 0.79074 0.52282 0.22138 0.0
H664 H 0.8662 0.58574 0.36342 0.0
H665 H 0.80193 0.52607 0.45382 0.0
H666 H 0.83625 0.58084 0.22688 0.0
H667 H 0.83397 0.60449 0.26888 0.0
H668 H 0.86252 0.60264 0.27251 0.0
H669 H 0.76054 0.5094 0.41969 0.0
H670 H 0.7553 0.53227 0.38102 0.0
H671 H 0.75816 0.50882 0.3396 0.0
H672 H 0.7519 0.58497 0.24379 0.0
H673 H 0.75834 0.52737 0.14827 0.0
H674 H 0.80308 0.60354 0.33885 0.0
H675 H 0.77687 0.57922 0.37878 0.0
H676 H 0.77262 0.60154 0.33473 0.0
H677 H 0.81172 0.53408 0.22077 0.0
H678 H 0.7842 0.51158 0.17961 0.0
H679 H 0.78523 0.50957 0.25957 0.0
C680 C 0.20095 0.75029 0.40898 0.0
C681 C 0.21072 0.74329 0.36073 0.0
C682 C 0.21706 0.76669 0.4533 0.0
C683 C 0.24351 0.77654 0.44858 0.0
C684 C 0.25342 0.76943 0.40011 0.0
C685 C 0.23689 0.75275 0.35706 0.0
C686 C 0.20583 0.77354 0.50503 0.0
C687 C 0.28153 0.77971 0.39329 0.0
C688 C 0.28736 0.83655 0.53398 0.0
C689 C 0.29391 0.82676 0.58295 0.0
C690 C 0.27108 0.82042 0.48952 0.0
C691 C 0.26088 0.79394 0.49485 0.0
C692 C 0.26755 0.78401 0.54403 0.0
C693 C 0.28413 0.80055 0.58721 0.0
C694 C 0.26469 0.83166 0.43703 0.0
C695 C 0.25688 0.75587 0.55152 0.0
H696 H 0.18075 0.74305 0.41197 0.0
H697 H 0.24461 0.74759 0.31962 0.0
H698 H 0.21127 0.76833 0.54764 0.0
H699 H 0.21346 0.79429 0.50594 0.0
H700 H 0.18486 0.76391 0.50268 0.0
H701 H 0.28619 0.77258 0.35245 0.0
H702 H 0.29157 0.80069 0.39145 0.0
H703 H 0.28894 0.7744 0.43248 0.0
H704 H 0.29486 0.85678 0.53053 0.0
H705 H 0.28894 0.79281 0.6252 0.0
H706 H 0.244 0.82433 0.43556 0.0
H707 H 0.26992 0.82591 0.39488 0.0
H708 H 0.2746 0.85266 0.4389 0.0
H709 H 0.23591 0.74609 0.55293 0.0
H710 H 0.26374 0.75121 0.59281 0.0
H711 H 0.26218 0.74818 0.51282 0.0
C712 C 0.49743 0.276 0.75313 0.0
C713 C 0.48094 0.28571 0.74879 0.0
C714 C 0.49756 0.25955 0.7098 0.0
C715 C 0.48106 0.25294 0.66041 0.0
C716 C 0.46475 0.2631 0.65496 0.0
C717 C 0.46475 0.27925 0.69956 0.0
C718 C 0.51506 0.24893 0.7174 0.0
C719 C 0.44723 0.25677 0.60225 0.0
C720 C 0.49849 0.22904 0.52277 0.0
C721 C 0.48178 0.20287 0.52633 0.0
C722 C 0.49827 0.24555 0.56582 0.0
C723 C 0.48118 0.23561 0.61413 0.0
C724 C 0.46459 0.20916 0.61872 0.0
C725 C 0.46495 0.19308 0.57443 0.0
C726 C 0.5161 0.27366 0.55914 0.0
C727 C 0.44642 0.19789 0.67029 0.0
H728 H 0.50988 0.28074 0.7913 0.0
H729 H 0.45197 0.28669 0.69604 0.0
H730 H 0.5039 0.22796 0.7188 0.0
H731 H 0.52808 0.25424 0.67878 0.0
H732 H 0.52655 0.25579 0.75876 0.0
H733 H 0.43616 0.2667 0.60397 0.0
H734 H 0.45829 0.26202 0.56023 0.0
H735 H 0.43386 0.23609 0.60065 0.0
H736 H 0.51142 0.23679 0.48545 0.0
H737 H 0.45199 0.17287 0.57733 0.0
H738 H 0.52876 0.28106 0.59845 0.0
H739 H 0.50516 0.2837 0.55717 0.0
H740 H 0.52796 0.27835 0.51841 0.0
H741 H 0.45701 0.2033 0.71299 0.0
H742 H 0.43507 0.17692 0.66784 0.0
H743 H 0.4333 0.20552 0.67108 0.0
C744 C 0.04868 0.3981 0.00397 0.0
C745 C 0.07091 0.39693 0.9969 0.0
C746 C 0.02925 0.38778 0.96104 0.0
C747 C 0.03151 0.37491 0.91086 0.0
C748 C 0.05354 0.37278 0.90483 0.0
C749 C 0.07323 0.38435 0.9471 0.0
C750 C 1.00675 0.39155 0.96828 0.0
C751 C 0.05637 0.35839 0.85354 0.0
C752 C 0.96951 0.3326 0.82786 0.0
C753 C 0.97191 0.34732 0.77767 0.0
C754 C 0.98921 0.34075 0.87008 0.0
C755 C 1.01136 0.36478 0.86359 0.0
C756 C 1.01372 0.37973 0.81299 0.0
C757 C 0.99426 0.37058 0.77013 0.0
C758 C 0.98626 0.32372 0.92186 0.0
C759 C 0.03636 0.40587 0.80523 0.0
H760 H 0.04696 0.40813 0.04193 0.0
H761 H 0.09036 0.38336 0.94151 0.0
H762 H 1.00531 0.40187 0.92913 0.0
H763 H 0.98903 0.373 0.97018 0.0
H764 H 1.00803 0.40237 0.00921 0.0
H765 H 0.07331 0.35624 0.85845 0.0
H766 H 0.03932 0.33932 0.85009 0.0
H767 H 0.05802 0.3684 0.8111 0.0
H768 H 0.95228 0.3146 0.83383 0.0
H769 H 0.99605 0.3822 0.73187 0.0
H770 H 0.98465 0.3323 0.964 0.0
H771 H 1.00323 0.32159 0.92568 0.0
H772 H 0.96925 0.30466 0.91724 0.0
H773 H 0.03788 0.41788 0.84397 0.0
H774 H 0.03518 0.41526 0.76392 0.0
H775 H 0.05399 0.40488 0.80374 0.0
C776 C 0.6381 0.98658 0.93675 0.0
C777 C 0.63938 0.96442 0.94386 0.0
C778 C 0.6484 1.00605 0.9796 0.0
C779 C 0.66135 1.00389 0.02973 0.0
C780 C 0.66358 0.98193 0.0358 0.0
C781 C 0.65202 0.9622 0.99362 0.0
C782 C 0.64451 0.02847 0.97234 0.0
C783 C 0.67806 0.97922 0.08702 0.0
C784 C 0.70359 0.06601 0.11244 0.0
C785 C 0.68892 0.06358 0.16276 0.0
C786 C 0.69544 0.04628 0.07025 0.0
C787 C 0.67146 0.0241 0.07691 0.0
C788 C 0.65656 0.02172 0.12763 0.0
C789 C 0.66571 0.0412 0.17045 0.0
C790 C 0.71243 0.04926 0.01834 0.0
C791 C 0.63045 0.99904 0.13557 0.0
H792 H 0.62801 0.98822 0.89881 0.0
H793 H 0.65309 0.94511 0.99925 0.0
H794 H 0.6342 0.0299 0.01155 0.0
H795 H 0.66302 0.04623 0.97031 0.0
H796 H 0.63362 0.02711 0.93148 0.0
H797 H 0.68029 0.96232 0.08213 0.0
H798 H 0.6971 0.99631 0.09036 0.0
H799 H 0.66807 0.97755 0.12951 0.0
H800 H 0.72156 0.08326 0.10635 0.0
H801 H 0.65412 0.03939 0.20882 0.0
H802 H 0.70378 0.05078 0.97626 0.0
H803 H 0.71465 0.03233 0.01452 0.0
H804 H 0.73147 0.06632 0.0228 0.0
H805 H 0.6184 0.99743 0.09689 0.0
H806 H 0.62108 1.00022 0.17691 0.0
H807 H 0.63152 0.98144 0.13711 0.0
C808 C 0.66515 0.62923 0.10504 0.0
C809 C 0.68854 0.63041 0.11249 0.0
C810 C 0.656 0.63966 0.14759 0.0
C811 C 0.67106 0.65264 0.19775 0.0
C812 C 0.69521 0.65479 0.20415 0.0
C813 C 0.70337 0.64311 0.16228 0.0
C814 C 0.62973 0.63586 0.13998 0.0
C815 C 0.71236 0.6693 0.25543 0.0
C816 C 0.65119 0.69507 0.27959 0.0
C817 C 0.63882 0.68044 0.32987 0.0
C818 C 0.66282 0.68685 0.23773 0.0
C819 C 0.66096 0.66285 0.24466 0.0
C820 C 0.64832 0.648 0.29535 0.0
C821 C 0.63793 0.65722 0.33785 0.0
C822 C 0.67697 0.70379 0.18586 0.0
C823 C 0.64482 0.62188 0.30356 0.0
H824 H 0.65345 0.61911 0.06709 0.0
H825 H 0.72148 0.64411 0.16817 0.0
H826 H 0.61792 0.62562 0.17913 0.0
H827 H 0.63056 0.65441 0.13773 0.0
H828 H 0.62025 0.62495 0.0991 0.0
H829 H 0.73148 0.67147 0.25076 0.0
H830 H 0.71436 0.68837 0.25856 0.0
H831 H 0.70397 0.65937 0.29793 0.0
H832 H 0.65196 0.71305 0.27329 0.0
H833 H 0.62806 0.64567 0.37618 0.0
H834 H 0.66683 0.69513 0.14372 0.0
H835 H 0.69608 0.70593 0.1823 0.0
H836 H 0.679 0.72286 0.19015 0.0
H837 H 0.63441 0.6098 0.26488 0.0
H838 H 0.6342 0.61257 0.34487 0.0
H839 H 0.66346 0.62291 0.30536 0.0
C840 C 0.05469 0.68586 0.27642 0.0
C841 C 0.07539 0.68243 0.28776 0.0
C842 C 0.03436 0.67727 0.31697 0.0
C843 C 0.03413 0.66393 0.36896 0.0
C844 C 0.05505 0.66046 0.3805 0.0
C845 C 0.07558 0.67016 0.34045 0.0
C846 C 1.013 0.68228 0.30386 0.0
C847 C 0.05534 0.64562 0.43402 0.0
C848 C 0.99112 0.65412 0.50265 0.0
C849 C 0.97035 0.63005 0.49118 0.0
C850 C 1.01147 0.66583 0.46216 0.0
C851 C 1.01166 0.65272 0.41009 0.0
C852 C 0.99068 0.62837 0.39844 0.0
C853 C 0.97013 0.61759 0.43843 0.0
C854 C 0.0329 0.69215 0.47538 0.0
C855 C 0.99033 0.61324 0.34483 0.0
H856 H 0.05444 0.69537 0.23585 0.0
H857 H 0.09135 0.66714 0.34912 0.0
H858 H 0.99538 0.66418 0.29483 0.0
H859 H 1.00938 0.69106 0.34317 0.0
H860 H 1.0171 0.69493 0.2648 0.0
H861 H 0.07289 0.64442 0.43648 0.0
H862 H 0.05364 0.65447 0.4756 0.0
H863 H 0.03884 0.62614 0.4322 0.0
H864 H 0.99139 0.66388 0.54326 0.0
H865 H 0.95431 0.59883 0.42967 0.0
H866 H 0.03656 0.70459 0.43616 0.0
H867 H 0.05048 0.6916 0.48431 0.0
H868 H 0.02885 0.7007 0.51454 0.0
H869 H 0.99206 0.62382 0.30331 0.0
H870 H 0.97275 0.59451 0.34231 0.0
H871 H 1.0068 0.6102 0.34656 0.0
C872 C 0.38323 0.04678 0.44351 0.0
C873 C 0.4074 0.06745 0.45468 0.0
C874 C 0.37153 0.02646 0.48406 0.0
C875 C 0.38474 0.02619 0.53585 0.0
C876 C 0.40917 0.04708 0.54721 0.0
C877 C 0.41996 0.06761 0.50719 0.0
C878 C 0.34511 1.00514 0.47117 0.0
C879 C 0.4244 0.04733 0.6005 0.0
C880 C 0.3518 0.98324 0.66973 0.0
C881 C 0.35505 0.96245 0.65806 0.0
C882 C 0.36038 1.00358 0.62924 0.0
C883 C 0.37353 1.00372 0.57695 0.0
C884 C 0.37681 0.98271 0.56507 0.0
C885 C 0.36712 0.96217 0.60508 0.0
C886 C 0.35556 0.02504 0.64271 0.0
C887 C 0.39144 0.98232 0.51122 0.0
H888 H 0.37341 0.04656 0.40308 0.0
H889 H 0.43878 0.08335 0.5157 0.0
H890 H 0.34552 0.9875 0.46196 0.0
H891 H 0.33281 1.00154 0.51064 0.0
H892 H 0.3365 1.00927 0.43228 0.0
H893 H 0.44318 0.06485 0.60282 0.0
H894 H 0.41395 0.04566 0.64223 0.0
H895 H 0.42732 0.03079 0.59851 0.0
H896 H 0.34245 0.98355 0.71052 0.0
H897 H 0.37 0.94633 0.59616 0.0
H898 H 0.34673 0.02874 0.60364 0.0
H899 H 0.37373 0.0426 0.65156 0.0
H900 H 0.34303 0.02101 0.682 0.0
H901 H 0.38251 0.98408 0.46986 0.0
H902 H 0.39253 0.96471 0.50852 0.0
H903 H 0.41097 0.99875 0.51278 0.0
C904 C 0.34959 0.37441 0.60938 0.0
C905 C 0.35321 0.39863 0.6204 0.0
C906 C 0.35822 0.36271 0.64994 0.0
C907 C 0.37179 0.37596 0.7016 0.0
C908 C 0.37547 0.40046 0.7128 0.0
C909 C 0.36573 0.41124 0.67276 0.0
C910 C 0.35298 0.33623 0.63723 0.0
C911 C 0.39056 0.41573 0.76594 0.0
C912 C 0.38173 0.3431 0.83574 0.0
C913 C 0.40571 0.34622 0.82408 0.0
C914 C 0.37 0.35169 0.79517 0.0
C915 C 0.383 0.36472 0.74278 0.0
C916 C 0.40725 0.36787 0.7309 0.0
C917 C 0.41805 0.35817 0.77101 0.0
C918 C 0.34378 0.34702 0.80868 0.0
C919 C 0.42226 0.38238 0.67692 0.0
H920 H 0.33988 0.36453 0.56906 0.0
H921 H 0.36891 0.43011 0.68118 0.0
H922 H 0.37098 0.33653 0.62807 0.0
H923 H 0.34425 0.32399 0.67677 0.0
H924 H 0.34021 0.32762 0.59837 0.0
H925 H 0.39194 0.43457 0.76811 0.0
H926 H 0.38179 0.40537 0.80776 0.0
H927 H 0.40997 0.41853 0.76391 0.0
H928 H 0.37206 0.33382 0.8766 0.0
H929 H 0.43674 0.36096 0.76208 0.0
H930 H 0.33121 0.33817 0.76967 0.0
H931 H 0.3445 0.36525 0.81738 0.0
H932 H 0.33527 0.33456 0.84806 0.0
H933 H 0.4115 0.37343 0.63564 0.0
H934 H 0.4409 0.38334 0.67419 0.0
H935 H 0.42548 0.40196 0.67836 0.0
loop_
_geom_bond_atom_site_label_1
_geom_bond_atom_site_label_2
_geom_bond_distance
_geom_bond_site_symmetry_2
_ccdc_geom_bond_type
O0 Cd1 2.223 . S
O0 C8 1.315 . S
Cd1 O0 2.223 . S
Cd1 O4 2.297 . S
Cd1 O5 2.439 1_554 S
Cd1 O11 2.240 . S
Cd2 O3 2.240 . S
Cd2 O10 2.223 . S
Cd2 O12 2.297 1_554 S
Cd2 O13 2.439 1_554 S
O3 Cd2 2.240 . S
O3 C8 1.279 . S
O4 Cd1 2.297 . S
O4 C6 1.247 . S
O5 Cd1 2.439 1_556 S
O5 C6 1.208 1_556 S
C6 O4 1.247 . S
C6 O5 1.208 1_554 S
C7 O12 1.247 . S
C7 O13 1.208 . S
C8 O0 1.315 . S
C8 O3 1.279 . S
C9 O10 1.315 . S
C9 O11 1.279 . S
O10 Cd2 2.223 . S
O10 C9 1.315 . S
O11 Cd1 2.240 . S
O11 C9 1.279 . S
O12 Cd2 2.297 1_556 S
O12 C7 1.247 . S
O13 Cd2 2.439 1_556 S
O13 C7 1.208 . S
O14 Cd15 2.223 . S
O14 C22 1.315 . S
Cd15 O14 2.223 . S
Cd15 O18 2.297 . S
Cd15 O19 2.439 . S
Cd15 O25 2.240 . S
Cd16 O17 2.240 . S
Cd16 O24 2.223 . S
Cd16 O26 2.297 . S
Cd16 O27 2.439 . S
O17 Cd16 2.240 . S
O17 C22 1.279 . S
O18 Cd15 2.297 . S
O18 C20 1.247 . S
O19 Cd15 2.439 . S
O19 C20 1.208 . S
C20 O18 1.247 . S
C20 O19 1.208 . S
C21 O26 1.247 . S
C21 O27 1.208 . S
C22 O14 1.315 . S
C22 O17 1.279 . S
C23 O24 1.315 . S
C23 O25 1.279 . S
O24 Cd16 2.223 . S
O24 C23 1.315 . S
O25 Cd15 2.240 . S
O25 C23 1.279 . S
O26 Cd16 2.297 . S
O26 C21 1.247 . S
O27 Cd16 2.439 . S
O27 C21 1.208 . S
O28 Cd29 2.223 . S
O28 C36 1.315 . S
Cd29 O28 2.223 . S
Cd29 O32 2.297 . S
Cd29 O33 2.439 . S
Cd29 O39 2.240 . S
Cd30 O31 2.240 . S
Cd30 O38 2.223 . S
Cd30 O40 2.297 . S
Cd30 O41 2.439 . S
O31 Cd30 2.240 . S
O31 C36 1.279 . S
O32 Cd29 2.297 . S
O32 C34 1.247 . S
O33 Cd29 2.439 . S
O33 C34 1.208 . S
C34 O32 1.247 . S
C34 O33 1.208 . S
C35 O40 1.247 . S
C35 O41 1.208 . S
C36 O28 1.315 . S
C36 O31 1.279 . S
C37 O38 1.315 . S
C37 O39 1.279 . S
O38 Cd30 2.223 . S
O38 C37 1.315 . S
O39 Cd29 2.240 . S
O39 C37 1.279 . S
O40 Cd30 2.297 . S
O40 C35 1.247 . S
O41 Cd30 2.439 . S
O41 C35 1.208 . S
O42 Cd43 2.223 . S
O42 C50 1.315 . S
Cd43 O42 2.223 . S
Cd43 O46 2.297 . S
Cd43 O47 2.439 . S
Cd43 O53 2.240 . S
Cd44 O45 2.240 . S
Cd44 O52 2.223 . S
Cd44 O54 2.297 . S
Cd44 O55 2.439 . S
O45 Cd44 2.240 . S
O45 C50 1.279 . S
O46 Cd43 2.297 . S
O46 C48 1.247 . S
O47 Cd43 2.439 . S
O47 C48 1.208 . S
C48 O46 1.247 . S
C48 O47 1.208 . S
C49 O54 1.247 . S
C49 O55 1.208 . S
C50 O42 1.315 . S
C50 O45 1.279 . S
C51 O52 1.315 . S
C51 O53 1.279 . S
O52 Cd44 2.223 . S
O52 C51 1.315 . S
O53 Cd43 2.240 . S
O53 C51 1.279 . S
O54 Cd44 2.297 . S
O54 C49 1.247 . S
O55 Cd44 2.439 . S
O55 C49 1.208 . S
O56 Cd57 2.223 . S
O56 C64 1.315 . S
Cd57 O56 2.223 . S
Cd57 O60 2.297 . S
Cd57 O61 2.439 . S
Cd57 O67 2.240 . S
Cd58 O59 2.240 . S
Cd58 O66 2.223 . S
Cd58 O68 2.297 . S
Cd58 O69 2.439 . S
O59 Cd58 2.240 . S
O59 C64 1.279 . S
O60 Cd57 2.297 . S
O60 C62 1.247 . S
O61 Cd57 2.439 . S
O61 C62 1.208 . S
C62 O60 1.247 . S
C62 O61 1.208 . S
C63 O68 1.247 . S
C63 O69 1.208 . S
C64 O56 1.315 . S
C64 O59 1.279 . S
C65 O66 1.315 . S
C65 O67 1.279 . S
O66 Cd58 2.223 . S
O66 C65 1.315 . S
O67 Cd57 2.240 . S
O67 C65 1.279 . S
O68 Cd58 2.297 . S
O68 C63 1.247 . S
O69 Cd58 2.439 . S
O69 C63 1.208 . S
O70 Cd71 2.223 . S
O70 C78 1.315 . S
Cd71 O70 2.223 . S
Cd71 O74 2.297 . S
Cd71 O75 2.439 . S
Cd71 O81 2.240 . S
Cd72 O73 2.240 . S
Cd72 O80 2.223 . S
Cd72 O82 2.297 . S
Cd72 O83 2.439 . S
O73 Cd72 2.240 . S
O73 C78 1.279 . S
O74 Cd71 2.297 . S
O74 C76 1.247 . S
O75 Cd71 2.439 . S
O75 C76 1.208 . S
C76 O74 1.247 . S
C76 O75 1.208 . S
C77 O82 1.247 . S
C77 O83 1.208 . S
C78 O70 1.315 . S
C78 O73 1.279 . S
C79 O80 1.315 . S
C79 O81 1.279 . S
O80 Cd72 2.223 . S
O80 C79 1.315 . S
O81 Cd71 2.240 . S
O81 C79 1.279 . S
O82 Cd72 2.297 . S
O82 C77 1.247 . S
O83 Cd72 2.439 . S
O83 C77 1.208 . S
O84 Cd85 2.223 . S
O84 C92 1.315 . S
Cd85 O84 2.223 . S
Cd85 O88 2.297 . S
Cd85 O89 2.439 . S
Cd85 O95 2.240 . S
Cd86 O87 2.240 . S
Cd86 O94 2.223 . S
Cd86 O96 2.297 . S
Cd86 O97 2.439 . S
O87 Cd86 2.240 . S
O87 C92 1.279 . S
O88 Cd85 2.297 . S
O88 C90 1.247 . S
O89 Cd85 2.439 . S
O89 C90 1.208 . S
C90 O88 1.247 . S
C90 O89 1.208 . S
C91 O96 1.247 . S
C91 O97 1.208 . S
C92 O84 1.315 . S
C92 O87 1.279 . S
C93 O94 1.315 . S
C93 O95 1.279 . S
O94 Cd86 2.223 . S
O94 C93 1.315 . S
O95 Cd85 2.240 . S
O95 C93 1.279 . S
O96 Cd86 2.297 . S
O96 C91 1.247 . S
O97 Cd86 2.439 . S
O97 C91 1.208 . S
O98 Cd99 2.223 1_556 S
O98 C106 1.315 1_556 S
Cd99 O98 2.223 1_554 S
Cd99 O102 2.297 . S
Cd99 O103 2.439 . S
Cd99 O109 2.240 . S
Cd100 O101 2.240 . S
Cd100 O108 2.223 1_554 S
Cd100 O110 2.297 . S
Cd100 O111 2.439 . S
O101 Cd100 2.240 . S
O101 C106 1.279 . S
O102 Cd99 2.297 . S
O102 C104 1.247 . S
O103 Cd99 2.439 . S
O103 C104 1.208 . S
C104 O102 1.247 . S
C104 O103 1.208 . S
C105 O110 1.247 . S
C105 O111 1.208 . S
C106 O98 1.315 1_554 S
C106 O101 1.279 . S
C107 O108 1.315 . S
C107 O109 1.279 1_556 S
O108 Cd100 2.223 1_556 S
O108 C107 1.315 . S
O109 Cd99 2.240 . S
O109 C107 1.279 1_554 S
O110 Cd100 2.297 . S
O110 C105 1.247 . S
O111 Cd100 2.439 . S
O111 C105 1.208 . S
O112 Cd113 2.223 . S
O112 C120 1.315 . S
Cd113 O112 2.223 . S
Cd113 O116 2.297 . S
Cd113 O117 2.439 . S
Cd113 O123 2.240 . S
Cd114 O115 2.240 . S
Cd114 O122 2.223 . S
Cd114 O124 2.297 . S
Cd114 O125 2.439 . S
O115 Cd114 2.240 . S
O115 C120 1.279 . S
O116 Cd113 2.297 . S
O116 C118 1.247 . S
O117 Cd113 2.439 . S
O117 C118 1.208 . S
C118 O116 1.247 . S
C118 O117 1.208 . S
C119 O124 1.247 . S
C119 O125 1.208 . S
C120 O112 1.315 . S
C120 O115 1.279 . S
C121 O122 1.315 . S
C121 O123 1.279 . S
O122 Cd114 2.223 . S
O122 C121 1.315 . S
O123 Cd113 2.240 . S
O123 C121 1.279 . S
O124 Cd114 2.297 . S
O124 C119 1.247 . S
O125 Cd114 2.439 . S
O125 C119 1.208 . S
O126 Cd127 2.223 . S
O126 C134 1.315 . S
Cd127 O126 2.223 . S
Cd127 O130 2.297 . S
Cd127 O131 2.439 . S
Cd127 O137 2.240 . S
Cd128 O129 2.240 . S
Cd128 O136 2.223 . S
Cd128 O138 2.297 . S
Cd128 O139 2.439 . S
O129 Cd128 2.240 . S
O129 C134 1.279 . S
O130 Cd127 2.297 . S
O130 C132 1.247 . S
O131 Cd127 2.439 . S
O131 C132 1.208 . S
C132 O130 1.247 . S
C132 O131 1.208 . S
C133 O138 1.247 . S
C133 O139 1.208 . S
C134 O126 1.315 . S
C134 O129 1.279 . S
C135 O136 1.315 . S
C135 O137 1.279 . S
O136 Cd128 2.223 . S
O136 C135 1.315 . S
O137 Cd127 2.240 . S
O137 C135 1.279 . S
O138 Cd128 2.297 . S
O138 C133 1.247 . S
O139 Cd128 2.439 . S
O139 C133 1.208 . S
O140 Cd141 2.223 . S
O140 C148 1.315 . S
Cd141 O140 2.223 . S
Cd141 O144 2.297 . S
Cd141 O145 2.439 . S
Cd141 O151 2.240 . S
Cd142 O143 2.240 . S
Cd142 O150 2.223 . S
Cd142 O152 2.297 . S
Cd142 O153 2.439 . S
O143 Cd142 2.240 . S
O143 C148 1.279 . S
O144 Cd141 2.297 . S
O144 C146 1.247 . S
O145 Cd141 2.439 . S
O145 C146 1.208 . S
C146 O144 1.247 . S
C146 O145 1.208 . S
C147 O152 1.247 . S
C147 O153 1.208 . S
C148 O140 1.315 . S
C148 O143 1.279 . S
C149 O150 1.315 . S
C149 O151 1.279 . S
O150 Cd142 2.223 . S
O150 C149 1.315 . S
O151 Cd141 2.240 . S
O151 C149 1.279 . S
O152 Cd142 2.297 . S
O152 C147 1.247 . S
O153 Cd142 2.439 . S
O153 C147 1.208 . S
O154 Cd155 2.223 . S
O154 C162 1.315 . S
Cd155 O154 2.223 . S
Cd155 O158 2.297 . S
Cd155 O159 2.439 . S
Cd155 O165 2.240 . S
Cd156 O157 2.240 . S
Cd156 O164 2.223 . S
Cd156 O166 2.297 . S
Cd156 O167 2.439 . S
O157 Cd156 2.240 . S
O157 C162 1.279 . S
O158 Cd155 2.297 . S
O158 C160 1.247 . S
O159 Cd155 2.439 . S
O159 C160 1.208 . S
C160 O158 1.247 . S
C160 O159 1.208 . S
C161 O166 1.247 . S
C161 O167 1.208 . S
C162 O154 1.315 . S
C162 O157 1.279 . S
C163 O164 1.315 . S
C163 O165 1.279 . S
O164 Cd156 2.223 . S
O164 C163 1.315 . S
O165 Cd155 2.240 . S
O165 C163 1.279 . S
O166 Cd156 2.297 . S
O166 C161 1.247 . S
O167 Cd156 2.439 . S
O167 C161 1.208 . S
C168 C169 1.391 . S
C168 C170 1.394 . S
C168 H184 0.931 . S
C169 C168 1.391 . S
C169 C173 1.376 . S
C170 C168 1.394 . S
C170 C171 1.369 . S
C170 C174 1.531 . S
C171 C170 1.369 . S
C171 C172 1.410 . S
C171 C179 1.503 . S
C172 C171 1.410 . S
C172 C173 1.392 . S
C172 C175 1.511 . S
C173 C169 1.376 . S
C173 C172 1.392 . S
C173 H185 0.929 . S
C174 C170 1.531 . S
C174 H186 0.960 . S
C174 H187 0.962 . S
C174 H188 0.960 . S
C175 C172 1.511 . S
C175 H189 0.961 . S
C175 H190 0.961 . S
C175 H191 0.961 . S
C176 C177 1.370 . S
C176 C178 1.363 . S
C176 H192 0.931 . S
C177 C176 1.370 . S
C177 C181 1.408 . S
C178 C176 1.363 . S
C178 C179 1.370 . S
C178 C182 1.524 . S
C179 C171 1.503 . S
C179 C178 1.370 . S
C179 C180 1.403 . S
C180 C179 1.403 . S
C180 C181 1.404 . S
C180 C183 1.539 . S
C181 C177 1.408 . S
C181 C180 1.404 . S
C181 H193 0.930 . S
C182 C178 1.524 . S
C182 H194 0.956 . S
C182 H195 0.961 . S
C182 H196 0.961 . S
C183 C180 1.539 . S
C183 H197 0.958 . S
C183 H198 0.961 . S
C183 H199 0.960 . S
H184 C168 0.931 . S
H185 C173 0.929 . S
H186 C174 0.960 . S
H187 C174 0.962 . S
H188 C174 0.960 . S
H189 C175 0.961 . S
H190 C175 0.961 . S
H191 C175 0.961 . S
H192 C176 0.931 . S
H193 C181 0.930 . S
H194 C182 0.956 . S
H195 C182 0.961 . S
H196 C182 0.961 . S
H197 C183 0.958 . S
H198 C183 0.961 . S
H199 C183 0.960 . S
C200 C201 1.391 . S
C200 C202 1.394 . S
C200 H216 0.931 . S
C201 C200 1.391 . S
C201 C205 1.376 . S
C202 C200 1.394 . S
C202 C203 1.369 . S
C202 C206 1.531 . S
C203 C202 1.369 . S
C203 C204 1.410 . S
C203 C211 1.503 . S
C204 C203 1.410 . S
C204 C205 1.392 . S
C204 C207 1.511 . S
C205 C201 1.376 . S
C205 C204 1.392 . S
C205 H217 0.929 . S
C206 C202 1.531 . S
C206 H218 0.960 . S
C206 H219 0.962 . S
C206 H220 0.960 . S
C207 C204 1.511 . S
C207 H221 0.961 . S
C207 H222 0.961 . S
C207 H223 0.961 . S
C208 C209 1.370 . S
C208 C210 1.363 . S
C208 H224 0.931 . S
C209 C208 1.370 . S
C209 C213 1.408 . S
C210 C208 1.363 . S
C210 C211 1.370 . S
C210 C214 1.524 . S
C211 C203 1.503 . S
C211 C210 1.370 . S
C211 C212 1.403 . S
C212 C211 1.403 . S
C212 C213 1.404 . S
C212 C215 1.539 . S
C213 C209 1.408 . S
C213 C212 1.404 . S
C213 H225 0.930 . S
C214 C210 1.524 . S
C214 H226 0.956 . S
C214 H227 0.961 . S
C214 H228 0.961 . S
C215 C212 1.539 . S
C215 H229 0.958 . S
C215 H230 0.961 . S
C215 H231 0.960 . S
H216 C200 0.931 . S
H217 C205 0.929 . S
H218 C206 0.960 . S
H219 C206 0.962 . S
H220 C206 0.960 . S
H221 C207 0.961 . S
H222 C207 0.961 . S
H223 C207 0.961 . S
H224 C208 0.931 . S
H225 C213 0.930 . S
H226 C214 0.956 . S
H227 C214 0.961 . S
H228 C214 0.961 . S
H229 C215 0.958 . S
H230 C215 0.961 . S
H231 C215 0.960 . S
C232 C233 1.391 . S
C232 C234 1.394 . S
C232 H248 0.931 . S
C233 C232 1.391 . S
C233 C237 1.376 . S
C234 C232 1.394 . S
C234 C235 1.369 . S
C234 C238 1.531 . S
C235 C234 1.369 . S
C235 C236 1.410 . S
C235 C243 1.503 . S
C236 C235 1.410 . S
C236 C237 1.392 . S
C236 C239 1.511 . S
C237 C233 1.376 . S
C237 C236 1.392 . S
C237 H249 0.929 . S
C238 C234 1.531 . S
C238 H250 0.960 . S
C238 H251 0.962 . S
C238 H252 0.960 . S
C239 C236 1.511 . S
C239 H253 0.961 . S
C239 H254 0.961 . S
C239 H255 0.961 . S
C240 C241 1.370 . S
C240 C242 1.363 . S
C240 H256 0.931 . S
C241 C240 1.370 . S
C241 C245 1.408 . S
C242 C240 1.363 . S
C242 C243 1.370 . S
C242 C246 1.524 . S
C243 C235 1.503 . S
C243 C242 1.370 . S
C243 C244 1.403 . S
C244 C243 1.403 . S
C244 C245 1.404 . S
C244 C247 1.539 . S
C245 C241 1.408 . S
C245 C244 1.404 . S
C245 H257 0.930 . S
C246 C242 1.524 . S
C246 H258 0.956 . S
C246 H259 0.961 . S
C246 H260 0.961 . S
C247 C244 1.539 . S
C247 H261 0.958 . S
C247 H262 0.961 . S
C247 H263 0.960 . S
H248 C232 0.931 . S
H249 C237 0.929 . S
H250 C238 0.960 . S
H251 C238 0.962 . S
H252 C238 0.960 . S
H253 C239 0.961 . S
H254 C239 0.961 . S
H255 C239 0.961 . S
H256 C240 0.931 . S
H257 C245 0.930 . S
H258 C246 0.956 . S
H259 C246 0.961 . S
H260 C246 0.961 . S
H261 C247 0.958 . S
H262 C247 0.961 . S
H263 C247 0.960 . S
C264 C265 1.391 . S
C264 C266 1.394 . S
C264 H280 0.931 . S
C265 C264 1.391 . S
C265 C269 1.376 . S
C266 C264 1.394 . S
C266 C267 1.369 . S
C266 C270 1.531 . S
C267 C266 1.369 . S
C267 C268 1.410 . S
C267 C275 1.503 . S
C268 C267 1.410 . S
C268 C269 1.392 . S
C268 C271 1.511 . S
C269 C265 1.376 . S
C269 C268 1.392 . S
C269 H281 0.929 . S
C270 C266 1.531 . S
C270 H282 0.960 . S
C270 H283 0.962 . S
C270 H284 0.960 . S
C271 C268 1.511 . S
C271 H285 0.961 . S
C271 H286 0.961 . S
C271 H287 0.961 . S
C272 C273 1.370 . S
C272 C274 1.363 . S
C272 H288 0.931 . S
C273 C272 1.370 . S
C273 C277 1.408 . S
C274 C272 1.363 . S
C274 C275 1.370 . S
C274 C278 1.524 . S
C275 C267 1.503 . S
C275 C274 1.370 . S
C275 C276 1.403 . S
C276 C275 1.403 . S
C276 C277 1.404 . S
C276 C279 1.539 . S
C277 C273 1.408 . S
C277 C276 1.404 . S
C277 H289 0.930 . S
C278 C274 1.524 . S
C278 H290 0.956 . S
C278 H291 0.961 . S
C278 H292 0.961 . S
C279 C276 1.539 . S
C279 H293 0.958 . S
C279 H294 0.961 . S
C279 H295 0.960 . S
H280 C264 0.931 . S
H281 C269 0.929 . S
H282 C270 0.960 . S
H283 C270 0.962 . S
H284 C270 0.960 . S
H285 C271 0.961 . S
H286 C271 0.961 . S
H287 C271 0.961 . S
H288 C272 0.931 . S
H289 C277 0.930 . S
H290 C278 0.956 . S
H291 C278 0.961 . S
H292 C278 0.961 . S
H293 C279 0.958 . S
H294 C279 0.961 . S
H295 C279 0.960 . S
C296 C297 1.391 . S
C296 C298 1.394 . S
C296 H312 0.931 . S
C297 C296 1.391 . S
C297 C301 1.376 . S
C298 C296 1.394 . S
C298 C299 1.369 . S
C298 C302 1.531 . S
C299 C298 1.369 . S
C299 C300 1.410 . S
C299 C307 1.503 . S
C300 C299 1.410 . S
C300 C301 1.392 . S
C300 C303 1.511 1_556 S
C301 C297 1.376 . S
C301 C300 1.392 . S
C301 H313 0.929 . S
C302 C298 1.531 . S
C302 H314 0.960 . S
C302 H315 0.962 . S
C302 H316 0.960 . S
C303 C300 1.511 1_554 S
C303 H317 0.961 . S
C303 H318 0.961 . S
C303 H319 0.961 . S
C304 C305 1.370 . S
C304 C306 1.363 . S
C304 H320 0.931 . S
C305 C304 1.370 . S
C305 C309 1.408 . S
C306 C304 1.363 . S
C306 C307 1.370 1_554 S
C306 C310 1.524 . S
C307 C299 1.503 . S
C307 C306 1.370 1_556 S
C307 C308 1.404 . S
C308 C307 1.404 . S
C308 C309 1.399 1_556 S
C308 C311 1.542 . S
C309 C305 1.408 . S
C309 C308 1.399 1_554 S
C309 H321 0.930 . S
C310 C306 1.524 . S
C310 H322 0.956 1_554 S
C310 H323 0.961 . S
C310 H324 0.961 . S
C311 C308 1.542 . S
C311 H325 0.958 . S
C311 H326 0.961 . S
C311 H327 0.960 . S
H312 C296 0.931 . S
H313 C301 0.929 . S
H314 C302 0.960 . S
H315 C302 0.962 . S
H316 C302 0.960 . S
H317 C303 0.961 . S
H318 C303 0.961 . S
H319 C303 0.961 . S
H320 C304 0.931 . S
H321 C309 0.930 . S
H322 C310 0.956 1_556 S
H323 C310 0.961 . S
H324 C310 0.961 . S
H325 C311 0.958 . S
H326 C311 0.961 . S
H327 C311 0.960 . S
C328 C329 1.391 . S
C328 C330 1.394 . S
C328 H344 0.931 . S
C329 C328 1.391 . S
C329 C333 1.376 . S
C330 C328 1.394 . S
C330 C331 1.369 . S
C330 C334 1.531 . S
C331 C330 1.369 . S
C331 C332 1.410 . S
C331 C339 1.503 . S
C332 C331 1.410 . S
C332 C333 1.392 . S
C332 C335 1.511 . S
C333 C329 1.376 . S
C333 C332 1.392 . S
C333 H345 0.929 . S
C334 C330 1.531 . S
C334 H346 0.960 . S
C334 H347 0.962 . S
C334 H348 0.960 . S
C335 C332 1.511 . S
C335 H349 0.961 . S
C335 H350 0.961 . S
C335 H351 0.961 . S
C336 C337 1.370 . S
C336 C338 1.363 . S
C336 H352 0.931 . S
C337 C336 1.370 . S
C337 C341 1.408 . S
C338 C336 1.363 . S
C338 C339 1.370 . S
C338 C342 1.524 . S
C339 C331 1.503 . S
C339 C338 1.370 . S
C339 C340 1.403 . S
C340 C339 1.403 . S
C340 C341 1.404 . S
C340 C343 1.539 . S
C341 C337 1.408 . S
C341 C340 1.404 . S
C341 H353 0.930 1_554 S
C342 C338 1.524 . S
C342 H354 0.956 . S
C342 H355 0.961 . S
C342 H356 0.961 . S
C343 C340 1.539 . S
C343 H357 0.958 . S
C343 H358 0.961 . S
C343 H359 0.960 . S
H344 C328 0.931 . S
H345 C333 0.929 . S
H346 C334 0.960 . S
H347 C334 0.962 . S
H348 C334 0.960 . S
H349 C335 0.961 . S
H350 C335 0.961 . S
H351 C335 0.961 . S
H352 C336 0.931 . S
H353 C341 0.930 1_556 S
H354 C342 0.956 . S
H355 C342 0.961 . S
H356 C342 0.961 . S
H357 C343 0.958 . S
H358 C343 0.961 . S
H359 C343 0.960 . S
C360 C361 1.391 . S
C360 C362 1.394 . S
C360 H376 0.931 . S
C361 C360 1.391 . S
C361 C365 1.376 . S
C362 C360 1.394 . S
C362 C363 1.369 . S
C362 C366 1.531 . S
C363 C362 1.369 . S
C363 C364 1.410 . S
C363 C371 1.503 . S
C364 C363 1.410 . S
C364 C365 1.392 . S
C364 C367 1.511 . S
C365 C361 1.376 . S
C365 C364 1.392 . S
C365 H377 0.929 . S
C366 C362 1.531 . S
C366 H378 0.960 . S
C366 H379 0.962 . S
C366 H380 0.960 . S
C367 C364 1.511 . S
C367 H381 0.961 . S
C367 H382 0.961 . S
C367 H383 0.961 . S
C368 C369 1.370 . S
C368 C370 1.363 . S
C368 H384 0.931 . S
C369 C368 1.370 . S
C369 C373 1.408 . S
C370 C368 1.363 . S
C370 C371 1.370 . S
C370 C374 1.524 . S
C371 C363 1.503 . S
C371 C370 1.370 . S
C371 C372 1.403 . S
C372 C371 1.403 . S
C372 C373 1.404 . S
C372 C375 1.539 . S
C373 C369 1.408 . S
C373 C372 1.404 . S
C373 H385 0.930 . S
C374 C370 1.524 . S
C374 H386 0.956 . S
C374 H387 0.961 . S
C374 H388 0.961 . S
C375 C372 1.539 . S
C375 H389 0.958 . S
C375 H390 0.961 . S
C375 H391 0.960 . S
H376 C360 0.931 . S
H377 C365 0.929 . S
H378 C366 0.960 . S
H379 C366 0.962 . S
H380 C366 0.960 . S
H381 C367 0.961 . S
H382 C367 0.961 . S
H383 C367 0.961 . S
H384 C368 0.931 . S
H385 C373 0.930 . S
H386 C374 0.956 . S
H387 C374 0.961 . S
H388 C374 0.961 . S
H389 C375 0.958 . S
H390 C375 0.961 . S
H391 C375 0.960 . S
C392 C393 1.391 . S
C392 C394 1.394 . S
C392 H408 0.931 . S
C393 C392 1.391 . S
C393 C397 1.376 . S
C394 C392 1.394 . S
C394 C395 1.369 . S
C394 C398 1.531 . S
C395 C394 1.369 . S
C395 C396 1.410 . S
C395 C403 1.503 . S
C396 C395 1.410 . S
C396 C397 1.392 . S
C396 C399 1.511 . S
C397 C393 1.376 . S
C397 C396 1.392 . S
C397 H409 0.929 . S
C398 C394 1.531 . S
C398 H410 0.960 . S
C398 H411 0.962 . S
C398 H412 0.960 . S
C399 C396 1.511 . S
C399 H413 0.961 . S
C399 H414 0.961 . S
C399 H415 0.961 . S
C400 C401 1.370 . S
C400 C402 1.363 . S
C400 H416 0.931 . S
C401 C400 1.370 . S
C401 C405 1.408 . S
C402 C400 1.363 . S
C402 C403 1.370 . S
C402 C406 1.524 . S
C403 C395 1.503 . S
C403 C402 1.370 . S
C403 C404 1.403 . S
C404 C403 1.403 . S
C404 C405 1.404 . S
C404 C407 1.539 . S
C405 C401 1.408 . S
C405 C404 1.404 . S
C405 H417 0.930 . S
C406 C402 1.524 . S
C406 H418 0.956 . S
C406 H419 0.961 . S
C406 H420 0.961 . S
C407 C404 1.539 . S
C407 H421 0.958 . S
C407 H422 0.961 . S
C407 H423 0.960 . S
H408 C392 0.931 . S
H409 C397 0.929 . S
H410 C398 0.960 . S
H411 C398 0.962 . S
H412 C398 0.960 . S
H413 C399 0.961 . S
H414 C399 0.961 . S
H415 C399 0.961 . S
H416 C400 0.931 . S
H417 C405 0.930 . S
H418 C406 0.956 . S
H419 C406 0.961 . S
H420 C406 0.961 . S
H421 C407 0.958 . S
H422 C407 0.961 . S
H423 C407 0.960 . S
C424 C425 1.391 . S
C424 C426 1.394 . S
C424 H440 0.931 . S
C425 C424 1.391 . S
C425 C429 1.376 . S
C426 C424 1.394 . S
C426 C427 1.369 . S
C426 C430 1.531 . S
C427 C426 1.369 . S
C427 C428 1.410 . S
C427 C435 1.503 . S
C428 C427 1.410 . S
C428 C429 1.392 . S
C428 C431 1.511 . S
C429 C425 1.376 . S
C429 C428 1.392 . S
C429 H441 0.929 . S
C430 C426 1.531 . S
C430 H442 0.960 . S
C430 H443 0.962 . S
C430 H444 0.960 . S
C431 C428 1.511 . S
C431 H445 0.961 . S
C431 H446 0.961 . S
C431 H447 0.961 . S
C432 C433 1.370 . S
C432 C434 1.363 . S
C432 H448 0.931 . S
C433 C432 1.370 . S
C433 C437 1.408 . S
C434 C432 1.363 . S
C434 C435 1.370 . S
C434 C438 1.524 . S
C435 C427 1.503 . S
C435 C434 1.370 . S
C435 C436 1.403 . S
C436 C435 1.403 . S
C436 C437 1.404 . S
C436 C439 1.539 . S
C437 C433 1.408 . S
C437 C436 1.404 . S
C437 H449 0.930 . S
C438 C434 1.524 . S
C438 H450 0.956 . S
C438 H451 0.961 . S
C438 H452 0.961 . S
C439 C436 1.539 . S
C439 H453 0.958 . S
C439 H454 0.961 . S
C439 H455 0.960 . S
H440 C424 0.931 . S
H441 C429 0.929 . S
H442 C430 0.960 . S
H443 C430 0.962 . S
H444 C430 0.960 . S
H445 C431 0.961 . S
H446 C431 0.961 . S
H447 C431 0.961 . S
H448 C432 0.931 . S
H449 C437 0.930 . S
H450 C438 0.956 . S
H451 C438 0.961 . S
H452 C438 0.961 . S
H453 C439 0.958 . S
H454 C439 0.961 . S
H455 C439 0.960 . S
C456 C457 1.391 . S
C456 C458 1.394 . S
C456 H472 0.931 . S
C457 C456 1.391 . S
C457 C461 1.376 . S
C458 C456 1.394 . S
C458 C459 1.369 . S
C458 C462 1.531 . S
C459 C458 1.369 . S
C459 C460 1.410 . S
C459 C467 1.503 . S
C460 C459 1.410 . S
C460 C461 1.392 . S
C460 C463 1.511 . S
C461 C457 1.376 . S
C461 C460 1.392 . S
C461 H473 0.929 . S
C462 C458 1.531 . S
C462 H474 0.960 . S
C462 H475 0.962 . S
C462 H476 0.960 . S
C463 C460 1.511 . S
C463 H477 0.961 . S
C463 H478 0.961 . S
C463 H479 0.961 . S
C464 C465 1.370 . S
C464 C466 1.363 . S
C464 H480 0.931 . S
C465 C464 1.370 . S
C465 C469 1.408 . S
C466 C464 1.363 . S
C466 C467 1.370 . S
C466 C470 1.524 . S
C467 C459 1.503 . S
C467 C466 1.370 . S
C467 C468 1.403 . S
C468 C467 1.403 . S
C468 C469 1.404 . S
C468 C471 1.539 . S
C469 C465 1.408 . S
C469 C468 1.404 . S
C469 H481 0.930 . S
C470 C466 1.524 . S
C470 H482 0.956 . S
C470 H483 0.961 . S
C470 H484 0.961 . S
C471 C468 1.539 . S
C471 H485 0.958 . S
C471 H486 0.961 . S
C471 H487 0.960 . S
H472 C456 0.931 . S
H473 C461 0.929 . S
H474 C462 0.960 . S
H475 C462 0.962 . S
H476 C462 0.960 . S
H477 C463 0.961 . S
H478 C463 0.961 . S
H479 C463 0.961 . S
H480 C464 0.931 . S
H481 C469 0.930 . S
H482 C470 0.956 . S
H483 C470 0.961 . S
H484 C470 0.961 . S
H485 C471 0.958 . S
H486 C471 0.961 . S
H487 C471 0.960 . S
C488 C489 1.391 . S
C488 C490 1.394 . S
C488 H504 0.931 . S
C489 C488 1.391 . S
C489 C493 1.376 . S
C490 C488 1.394 . S
C490 C491 1.369 . S
C490 C494 1.531 . S
C491 C490 1.369 . S
C491 C492 1.410 . S
C491 C499 1.503 . S
C492 C491 1.410 . S
C492 C493 1.392 . S
C492 C495 1.511 . S
C493 C489 1.376 . S
C493 C492 1.392 . S
C493 H505 0.929 . S
C494 C490 1.531 . S
C494 H506 0.960 . S
C494 H507 0.962 . S
C494 H508 0.960 . S
C495 C492 1.511 . S
C495 H509 0.961 . S
C495 H510 0.961 . S
C495 H511 0.961 . S
C496 C497 1.370 . S
C496 C498 1.363 . S
C496 H512 0.931 . S
C497 C496 1.370 . S
C497 C501 1.408 . S
C498 C496 1.363 . S
C498 C499 1.370 . S
C498 C502 1.524 . S
C499 C491 1.503 . S
C499 C498 1.370 . S
C499 C500 1.403 . S
C500 C499 1.403 . S
C500 C501 1.404 . S
C500 C503 1.539 . S
C501 C497 1.408 . S
C501 C500 1.404 . S
C501 H513 0.930 . S
C502 C498 1.524 . S
C502 H514 0.956 . S
C502 H515 0.961 . S
C502 H516 0.961 . S
C503 C500 1.539 . S
C503 H517 0.958 . S
C503 H518 0.961 . S
C503 H519 0.960 . S
H504 C488 0.931 . S
H505 C493 0.929 . S
H506 C494 0.960 . S
H507 C494 0.962 . S
H508 C494 0.960 . S
H509 C495 0.961 . S
H510 C495 0.961 . S
H511 C495 0.961 . S
H512 C496 0.931 . S
H513 C501 0.930 . S
H514 C502 0.956 . S
H515 C502 0.961 . S
H516 C502 0.961 . S
H517 C503 0.958 . S
H518 C503 0.961 . S
H519 C503 0.960 . S
C520 C521 1.391 . S
C520 C522 1.394 . S
C520 H536 0.931 . S
C521 C520 1.391 . S
C521 C525 1.376 . S
C522 C520 1.394 . S
C522 C523 1.369 . S
C522 C526 1.531 . S
C523 C522 1.369 . S
C523 C524 1.410 . S
C523 C531 1.503 . S
C524 C523 1.410 . S
C524 C525 1.392 . S
C524 C527 1.511 1_556 S
C525 C521 1.376 . S
C525 C524 1.392 . S
C525 H537 0.929 . S
C526 C522 1.531 . S
C526 H538 0.960 . S
C526 H539 0.962 . S
C526 H540 0.960 . S
C527 C524 1.511 1_554 S
C527 H541 0.961 . S
C527 H542 0.961 . S
C527 H543 0.961 1_554 S
C528 C529 1.370 1_554 S
C528 C530 1.363 . S
C528 H544 0.931 . S
C529 C528 1.370 1_556 S
C529 C533 1.408 . S
C530 C528 1.363 . S
C530 C531 1.370 1_554 S
C530 C534 1.524 . S
C531 C523 1.503 . S
C531 C530 1.370 1_556 S
C531 C532 1.403 . S
C532 C531 1.403 . S
C532 C533 1.404 . S
C532 C535 1.539 . S
C533 C529 1.408 . S
C533 C532 1.404 . S
C533 H545 0.930 . S
C534 C530 1.524 . S
C534 H546 0.956 . S
C534 H547 0.961 . S
C534 H548 0.961 . S
C535 C532 1.539 . S
C535 H549 0.958 . S
C535 H550 0.961 . S
C535 H551 0.960 . S
H536 C520 0.931 . S
H537 C525 0.929 . S
H538 C526 0.960 . S
H539 C526 0.962 . S
H540 C526 0.960 . S
H541 C527 0.961 . S
H542 C527 0.961 . S
H543 C527 0.961 1_556 S
H544 C528 0.931 . S
H545 C533 0.930 . S
H546 C534 0.956 . S
H547 C534 0.961 . S
H548 C534 0.961 . S
H549 C535 0.958 . S
H550 C535 0.961 . S
H551 C535 0.960 . S
C552 C553 1.391 . S
C552 C554 1.394 . S
C552 H568 0.931 . S
C553 C552 1.391 . S
C553 C557 1.376 . S
C554 C552 1.394 . S
C554 C555 1.369 . S
C554 C558 1.531 . S
C555 C554 1.369 . S
C555 C556 1.410 . S
C555 C563 1.503 . S
C556 C555 1.410 . S
C556 C557 1.392 . S
C556 C559 1.511 . S
C557 C553 1.376 . S
C557 C556 1.392 . S
C557 H569 0.929 . S
C558 C554 1.531 . S
C558 H570 0.960 . S
C558 H571 0.962 . S
C558 H572 0.960 . S
C559 C556 1.511 . S
C559 H573 0.961 . S
C559 H574 0.961 . S
C559 H575 0.961 . S
C560 C561 1.370 . S
C560 C562 1.363 . S
C560 H576 0.931 . S
C561 C560 1.370 . S
C561 C565 1.408 . S
C562 C560 1.363 . S
C562 C563 1.370 . S
C562 C566 1.524 . S
C563 C555 1.503 . S
C563 C562 1.370 . S
C563 C564 1.403 . S
C564 C563 1.403 . S
C564 C565 1.404 . S
C564 C567 1.539 . S
C565 C561 1.408 . S
C565 C564 1.404 . S
C565 H577 0.930 . S
C566 C562 1.524 . S
C566 H578 0.956 . S
C566 H579 0.961 . S
C566 H580 0.961 . S
C567 C564 1.539 . S
C567 H581 0.958 . S
C567 H582 0.961 . S
C567 H583 0.960 . S
H568 C552 0.931 . S
H569 C557 0.929 . S
H570 C558 0.960 . S
H571 C558 0.962 . S
H572 C558 0.960 . S
H573 C559 0.961 . S
H574 C559 0.961 . S
H575 C559 0.961 . S
H576 C560 0.931 . S
H577 C565 0.930 . S
H578 C566 0.956 . S
H579 C566 0.961 . S
H580 C566 0.961 . S
H581 C567 0.958 . S
H582 C567 0.961 . S
H583 C567 0.960 . S
C584 C585 1.391 . S
C584 C586 1.394 . S
C584 H600 0.931 . S
C585 C584 1.391 . S
C585 C589 1.376 . S
C586 C584 1.394 . S
C586 C587 1.369 1_554 S
C586 C590 1.531 . S
C587 C586 1.369 1_556 S
C587 C588 1.410 . S
C587 C595 1.503 . S
C588 C587 1.410 . S
C588 C589 1.392 1_556 S
C588 C591 1.511 . S
C589 C585 1.376 . S
C589 C588 1.392 1_554 S
C589 H601 0.929 . S
C590 C586 1.531 . S
C590 H602 0.960 1_554 S
C590 H603 0.962 . S
C590 H604 0.960 . S
C591 C588 1.511 . S
C591 H605 0.961 . S
C591 H606 0.961 . S
C591 H607 0.961 . S
C592 C593 1.370 . S
C592 C594 1.363 . S
C592 H608 0.931 . S
C593 C592 1.370 . S
C593 C597 1.408 . S
C594 C592 1.363 . S
C594 C595 1.370 . S
C594 C598 1.524 . S
C595 C587 1.503 . S
C595 C594 1.370 . S
C595 C596 1.403 . S
C596 C595 1.403 . S
C596 C597 1.404 . S
C596 C599 1.539 . S
C597 C593 1.408 . S
C597 C596 1.404 . S
C597 H609 0.930 . S
C598 C594 1.524 . S
C598 H610 0.956 1_556 S
C598 H611 0.961 1_556 S
C598 H612 0.961 . S
C599 C596 1.539 . S
C599 H613 0.958 . S
C599 H614 0.961 . S
C599 H615 0.960 . S
H600 C584 0.931 . S
H601 C589 0.929 . S
H602 C590 0.960 1_556 S
H603 C590 0.962 . S
H604 C590 0.960 . S
H605 C591 0.961 . S
H606 C591 0.961 . S
H607 C591 0.961 . S
H608 C592 0.931 . S
H609 C597 0.930 . S
H610 C598 0.956 1_554 S
H611 C598 0.961 1_554 S
H612 C598 0.961 . S
H613 C599 0.958 . S
H614 C599 0.961 . S
H615 C599 0.960 . S
C616 C617 1.391 . S
C616 C618 1.394 . S
C616 H632 0.931 . S
C617 C616 1.391 . S
C617 C621 1.376 . S
C618 C616 1.394 . S
C618 C619 1.369 . S
C618 C622 1.531 . S
C619 C618 1.369 . S
C619 C620 1.410 . S
C619 C627 1.503 . S
C620 C619 1.410 . S
C620 C621 1.392 . S
C620 C623 1.511 . S
C621 C617 1.376 . S
C621 C620 1.392 . S
C621 H633 0.929 . S
C622 C618 1.531 . S
C622 H634 0.960 . S
C622 H635 0.962 . S
C622 H636 0.960 . S
C623 C620 1.511 . S
C623 H637 0.961 . S
C623 H638 0.961 . S
C623 H639 0.961 . S
C624 C625 1.370 . S
C624 C626 1.363 . S
C624 H640 0.931 . S
C625 C624 1.370 . S
C625 C629 1.408 1_554 S
C626 C624 1.363 . S
C626 C627 1.370 . S
C626 C630 1.524 . S
C627 C619 1.503 . S
C627 C626 1.370 . S
C627 C628 1.403 . S
C628 C627 1.403 . S
C628 C629 1.402 1_554 S
C628 C631 1.539 . S
C629 C625 1.408 1_556 S
C629 C628 1.402 1_556 S
C629 H641 0.933 . S
C630 C626 1.524 . S
C630 H642 0.956 . S
C630 H643 0.961 . S
C630 H644 0.961 . S
C631 C628 1.539 . S
C631 H645 0.958 . S
C631 H646 0.961 1_554 S
C631 H647 0.960 . S
H632 C616 0.931 . S
H633 C621 0.929 . S
H634 C622 0.960 . S
H635 C622 0.962 . S
H636 C622 0.960 . S
H637 C623 0.961 . S
H638 C623 0.961 . S
H639 C623 0.961 . S
H640 C624 0.931 . S
H641 C629 0.933 . S
H642 C630 0.956 . S
H643 C630 0.961 . S
H644 C630 0.961 . S
H645 C631 0.958 . S
H646 C631 0.961 1_556 S
H647 C631 0.960 . S
C648 C649 1.391 . S
C648 C650 1.394 . S
C648 H664 0.931 . S
C649 C648 1.391 . S
C649 C653 1.376 . S
C650 C648 1.394 . S
C650 C651 1.369 . S
C650 C654 1.531 . S
C651 C650 1.369 . S
C651 C652 1.410 . S
C651 C659 1.503 . S
C652 C651 1.410 . S
C652 C653 1.392 . S
C652 C655 1.511 . S
C653 C649 1.376 . S
C653 C652 1.392 . S
C653 H665 0.929 . S
C654 C650 1.531 . S
C654 H666 0.960 . S
C654 H667 0.962 . S
C654 H668 0.960 . S
C655 C652 1.511 . S
C655 H669 0.961 . S
C655 H670 0.961 . S
C655 H671 0.961 . S
C656 C657 1.370 . S
C656 C658 1.363 . S
C656 H672 0.931 . S
C657 C656 1.370 . S
C657 C661 1.408 . S
C658 C656 1.363 . S
C658 C659 1.370 . S
C658 C662 1.524 . S
C659 C651 1.503 . S
C659 C658 1.370 . S
C659 C660 1.403 . S
C660 C659 1.403 . S
C660 C661 1.404 . S
C660 C663 1.539 . S
C661 C657 1.408 . S
C661 C660 1.404 . S
C661 H673 0.930 . S
C662 C658 1.524 . S
C662 H674 0.956 . S
C662 H675 0.961 . S
C662 H676 0.961 . S
C663 C660 1.539 . S
C663 H677 0.958 . S
C663 H678 0.961 . S
C663 H679 0.960 . S
H664 C648 0.931 . S
H665 C653 0.929 . S
H666 C654 0.960 . S
H667 C654 0.962 . S
H668 C654 0.960 . S
H669 C655 0.961 . S
H670 C655 0.961 . S
H671 C655 0.961 . S
H672 C656 0.931 . S
H673 C661 0.930 . S
H674 C662 0.956 . S
H675 C662 0.961 . S
H676 C662 0.961 . S
H677 C663 0.958 . S
H678 C663 0.961 . S
H679 C663 0.960 . S
C680 C681 1.391 . S
C680 C682 1.394 . S
C680 H696 0.931 . S
C681 C680 1.391 . S
C681 C685 1.376 . S
C682 C680 1.394 . S
C682 C683 1.369 . S
C682 C686 1.531 . S
C683 C682 1.369 . S
C683 C684 1.410 . S
C683 C691 1.503 . S
C684 C683 1.410 . S
C684 C685 1.392 . S
C684 C687 1.511 . S
C685 C681 1.376 . S
C685 C684 1.392 . S
C685 H697 0.929 . S
C686 C682 1.531 . S
C686 H698 0.960 . S
C686 H699 0.962 . S
C686 H700 0.960 . S
C687 C684 1.511 . S
C687 H701 0.961 . S
C687 H702 0.961 . S
C687 H703 0.961 . S
C688 C689 1.370 . S
C688 C690 1.363 . S
C688 H704 0.931 . S
C689 C688 1.370 . S
C689 C693 1.408 . S
C690 C688 1.363 . S
C690 C691 1.370 . S
C690 C694 1.524 . S
C691 C683 1.503 . S
C691 C690 1.370 . S
C691 C692 1.403 . S
C692 C691 1.403 . S
C692 C693 1.404 . S
C692 C695 1.539 . S
C693 C689 1.408 . S
C693 C692 1.404 . S
C693 H705 0.930 . S
C694 C690 1.524 . S
C694 H706 0.956 . S
C694 H707 0.961 . S
C694 H708 0.961 . S
C695 C692 1.539 . S
C695 H709 0.958 . S
C695 H710 0.961 . S
C695 H711 0.960 . S
H696 C680 0.931 . S
H697 C685 0.929 . S
H698 C686 0.960 . S
H699 C686 0.962 . S
H700 C686 0.960 . S
H701 C687 0.961 . S
H702 C687 0.961 . S
H703 C687 0.961 . S
H704 C688 0.931 . S
H705 C693 0.930 . S
H706 C694 0.956 . S
H707 C694 0.961 . S
H708 C694 0.961 . S
H709 C695 0.958 . S
H710 C695 0.961 . S
H711 C695 0.960 . S
C712 C713 1.391 . S
C712 C714 1.394 . S
C712 H728 0.931 . S
C713 C712 1.391 . S
C713 C717 1.376 . S
C714 C712 1.394 . S
C714 C715 1.369 . S
C714 C718 1.531 . S
C715 C714 1.369 . S
C715 C716 1.410 . S
C715 C723 1.503 . S
C716 C715 1.410 . S
C716 C717 1.392 . S
C716 C719 1.511 . S
C717 C713 1.376 . S
C717 C716 1.392 . S
C717 H729 0.929 . S
C718 C714 1.531 . S
C718 H730 0.960 . S
C718 H731 0.962 . S
C718 H732 0.960 . S
C719 C716 1.511 . S
C719 H733 0.961 . S
C719 H734 0.961 . S
C719 H735 0.961 . S
C720 C721 1.370 . S
C720 C722 1.363 . S
C720 H736 0.931 . S
C721 C720 1.370 . S
C721 C725 1.408 . S
C722 C720 1.363 . S
C722 C723 1.370 . S
C722 C726 1.524 . S
C723 C715 1.503 . S
C723 C722 1.370 . S
C723 C724 1.403 . S
C724 C723 1.403 . S
C724 C725 1.404 . S
C724 C727 1.539 . S
C725 C721 1.408 . S
C725 C724 1.404 . S
C725 H737 0.930 . S
C726 C722 1.524 . S
C726 H738 0.956 . S
C726 H739 0.961 . S
C726 H740 0.961 . S
C727 C724 1.539 . S
C727 H741 0.958 . S
C727 H742 0.961 . S
C727 H743 0.960 . S
H728 C712 0.931 . S
H729 C717 0.929 . S
H730 C718 0.960 . S
H731 C718 0.962 . S
H732 C718 0.960 . S
H733 C719 0.961 . S
H734 C719 0.961 . S
H735 C719 0.961 . S
H736 C720 0.931 . S
H737 C725 0.930 . S
H738 C726 0.956 . S
H739 C726 0.961 . S
H740 C726 0.961 . S
H741 C727 0.958 . S
H742 C727 0.961 . S
H743 C727 0.960 . S
C744 C745 1.391 . S
C744 C746 1.394 . S
C744 H760 0.931 1_556 S
C745 C744 1.391 . S
C745 C749 1.376 . S
C746 C744 1.394 . S
C746 C747 1.369 . S
C746 C750 1.531 1_455 S
C747 C746 1.369 . S
C747 C748 1.410 . S
C747 C755 1.503 1_455 S
C748 C747 1.410 . S
C748 C749 1.392 . S
C748 C751 1.511 . S
C749 C745 1.376 . S
C749 C748 1.392 . S
C749 H761 0.929 . S
C750 C746 1.531 1_655 S
C750 H762 0.960 . S
C750 H763 0.962 . S
C750 H764 0.960 . S
C751 C748 1.511 . S
C751 H765 0.961 . S
C751 H766 0.961 . S
C751 H767 0.961 . S
C752 C753 1.370 . S
C752 C754 1.363 . S
C752 H768 0.931 . S
C753 C752 1.370 . S
C753 C757 1.408 . S
C754 C752 1.363 . S
C754 C755 1.370 . S
C754 C758 1.524 . S
C755 C747 1.503 1_655 S
C755 C754 1.370 . S
C755 C756 1.403 . S
C756 C755 1.403 . S
C756 C757 1.404 . S
C756 C759 1.539 1_655 S
C757 C753 1.408 . S
C757 C756 1.404 . S
C757 H769 0.930 . S
C758 C754 1.524 . S
C758 H770 0.956 . S
C758 H771 0.961 . S
C758 H772 0.961 . S
C759 C756 1.539 1_455 S
C759 H773 0.958 1_455 S
C759 H774 0.963 . S
C759 H775 0.960 . S
H760 C744 0.931 1_554 S
H761 C749 0.929 . S
H762 C750 0.960 . S
H763 C750 0.962 . S
H764 C750 0.960 . S
H765 C751 0.961 . S
H766 C751 0.961 . S
H767 C751 0.961 . S
H768 C752 0.931 . S
H769 C757 0.930 . S
H770 C758 0.956 . S
H771 C758 0.961 . S
H772 C758 0.961 . S
H773 C759 0.958 1_655 S
H774 C759 0.963 . S
H775 C759 0.960 . S
C776 C777 1.391 . S
C776 C778 1.394 1_556 S
C776 H792 0.931 . S
C777 C776 1.391 . S
C777 C781 1.376 1_556 S
C778 C776 1.394 1_554 S
C778 C779 1.369 . S
C778 C782 1.531 . S
C779 C778 1.369 . S
C779 C780 1.410 . S
C779 C787 1.503 1_565 S
C780 C779 1.410 . S
C780 C781 1.392 . S
C780 C783 1.511 . S
C781 C777 1.376 1_554 S
C781 C780 1.392 . S
C781 H793 0.929 . S
C782 C778 1.531 . S
C782 H794 0.960 1_565 S
C782 H795 0.962 1_564 S
C782 H796 0.960 . S
C783 C780 1.511 . S
C783 H797 0.961 . S
C783 H798 0.961 . S
C783 H799 0.961 . S
C784 C785 1.370 . S
C784 C786 1.363 . S
C784 H800 0.931 . S
C785 C784 1.370 . S
C785 C789 1.408 . S
C786 C784 1.363 . S
C786 C787 1.370 . S
C786 C790 1.524 1_554 S
C787 C779 1.503 1_545 S
C787 C786 1.370 . S
C787 C788 1.403 . S
C788 C787 1.403 . S
C788 C789 1.404 . S
C788 C791 1.539 1_545 S
C789 C785 1.408 . S
C789 C788 1.404 . S
C789 H801 0.930 . S
C790 C786 1.524 1_556 S
C790 H802 0.956 . S
C790 H803 0.961 . S
C790 H804 0.961 . S
C791 C788 1.539 1_565 S
C791 H805 0.958 . S
C791 H806 0.961 . S
C791 H807 0.960 . S
H792 C776 0.931 . S
H793 C781 0.929 . S
H794 C782 0.960 1_545 S
H795 C782 0.962 1_546 S
H796 C782 0.960 . S
H797 C783 0.961 . S
H798 C783 0.961 . S
H799 C783 0.961 . S
H800 C784 0.931 . S
H801 C789 0.930 . S
H802 C790 0.956 . S
H803 C790 0.961 . S
H804 C790 0.961 . S
H805 C791 0.958 . S
H806 C791 0.961 . S
H807 C791 0.960 . S
C808 C809 1.391 . S
C808 C810 1.394 . S
C808 H824 0.931 . S
C809 C808 1.391 . S
C809 C813 1.376 . S
C810 C808 1.394 . S
C810 C811 1.369 . S
C810 C814 1.531 . S
C811 C810 1.369 . S
C811 C812 1.410 . S
C811 C819 1.503 . S
C812 C811 1.410 . S
C812 C813 1.392 . S
C812 C815 1.511 . S
C813 C809 1.376 . S
C813 C812 1.392 . S
C813 H825 0.929 . S
C814 C810 1.531 . S
C814 H826 0.960 . S
C814 H827 0.962 . S
C814 H828 0.960 . S
C815 C812 1.511 . S
C815 H829 0.961 . S
C815 H830 0.961 . S
C815 H831 0.961 . S
C816 C817 1.370 . S
C816 C818 1.363 . S
C816 H832 0.931 . S
C817 C816 1.370 . S
C817 C821 1.408 . S
C818 C816 1.363 . S
C818 C819 1.370 . S
C818 C822 1.524 . S
C819 C811 1.503 . S
C819 C818 1.370 . S
C819 C820 1.403 . S
C820 C819 1.403 . S
C820 C821 1.404 . S
C820 C823 1.539 . S
C821 C817 1.408 . S
C821 C820 1.404 . S
C821 H833 0.930 . S
C822 C818 1.524 . S
C822 H834 0.956 . S
C822 H835 0.961 . S
C822 H836 0.961 . S
C823 C820 1.539 . S
C823 H837 0.958 . S
C823 H838 0.961 . S
C823 H839 0.960 . S
H824 C808 0.931 . S
H825 C813 0.929 . S
H826 C814 0.960 . S
H827 C814 0.962 . S
H828 C814 0.960 . S
H829 C815 0.961 . S
H830 C815 0.961 . S
H831 C815 0.961 . S
H832 C816 0.931 . S
H833 C821 0.930 . S
H834 C822 0.956 . S
H835 C822 0.961 . S
H836 C822 0.961 . S
H837 C823 0.958 . S
H838 C823 0.961 . S
H839 C823 0.960 . S
C840 C841 1.391 . S
C840 C842 1.394 . S
C840 H856 0.931 . S
C841 C840 1.391 . S
C841 C845 1.376 . S
C842 C840 1.394 . S
C842 C843 1.369 . S
C842 C846 1.531 . S
C843 C842 1.369 . S
C843 C844 1.410 . S
C843 C851 1.503 1_455 S
C844 C843 1.410 . S
C844 C845 1.392 . S
C844 C847 1.511 . S
C845 C841 1.376 . S
C845 C844 1.392 . S
C845 H857 0.929 . S
C846 C842 1.531 . S
C846 H858 0.960 1_455 S
C846 H859 0.962 . S
C846 H860 0.960 . S
C847 C844 1.511 . S
C847 H861 0.961 . S
C847 H862 0.963 . S
C847 H863 0.961 1_455 S
C848 C849 1.370 . S
C848 C850 1.363 . S
C848 H864 0.931 . S
C849 C848 1.370 . S
C849 C853 1.408 . S
C850 C848 1.363 . S
C850 C851 1.370 . S
C850 C854 1.524 1_655 S
C851 C843 1.503 1_655 S
C851 C850 1.370 . S
C851 C852 1.403 . S
C852 C851 1.403 . S
C852 C853 1.404 . S
C852 C855 1.539 . S
C853 C849 1.408 . S
C853 C852 1.404 . S
C853 H865 0.930 . S
C854 C850 1.524 1_455 S
C854 H866 0.956 . S
C854 H867 0.961 . S
C854 H868 0.961 . S
C855 C852 1.539 . S
C855 H869 0.958 . S
C855 H870 0.961 . S
C855 H871 0.960 . S
H856 C840 0.931 . S
H857 C845 0.929 . S
H858 C846 0.960 1_655 S
H859 C846 0.962 . S
H860 C846 0.960 . S
H861 C847 0.961 . S
H862 C847 0.963 . S
H863 C847 0.961 1_655 S
H864 C848 0.931 . S
H865 C853 0.930 . S
H866 C854 0.956 . S
H867 C854 0.961 . S
H868 C854 0.961 . S
H869 C855 0.958 . S
H870 C855 0.961 . S
H871 C855 0.960 . S
C872 C873 1.391 . S
C872 C874 1.394 . S
C872 H888 0.931 . S
C873 C872 1.391 . S
C873 C877 1.376 . S
C874 C872 1.394 . S
C874 C875 1.369 . S
C874 C878 1.531 1_545 S
C875 C874 1.369 . S
C875 C876 1.410 . S
C875 C883 1.503 1_545 S
C876 C875 1.410 . S
C876 C877 1.392 . S
C876 C879 1.511 . S
C877 C873 1.376 . S
C877 C876 1.392 . S
C877 H889 0.929 . S
C878 C874 1.531 1_565 S
C878 H890 0.960 . S
C878 H891 0.962 . S
C878 H892 0.960 . S
C879 C876 1.511 . S
C879 H893 0.961 . S
C879 H894 0.961 . S
C879 H895 0.961 . S
C880 C881 1.370 . S
C880 C882 1.363 . S
C880 H896 0.931 . S
C881 C880 1.370 . S
C881 C885 1.408 . S
C882 C880 1.363 . S
C882 C883 1.370 . S
C882 C886 1.525 . S
C883 C875 1.503 1_565 S
C883 C882 1.370 . S
C883 C884 1.403 . S
C884 C883 1.403 . S
C884 C885 1.404 . S
C884 C887 1.539 . S
C885 C881 1.408 . S
C885 C884 1.404 . S
C885 H897 0.930 . S
C886 C882 1.525 . S
C886 H898 0.952 1_565 S
C886 H899 0.960 1_565 S
C886 H900 0.961 . S
C887 C884 1.539 . S
C887 H901 0.958 . S
C887 H902 0.961 . S
C887 H903 0.960 . S
H888 C872 0.931 . S
H889 C877 0.929 . S
H890 C878 0.960 . S
H891 C878 0.962 . S
H892 C878 0.960 . S
H893 C879 0.961 . S
H894 C879 0.961 . S
H895 C879 0.961 . S
H896 C880 0.931 . S
H897 C885 0.930 . S
H898 C886 0.952 1_545 S
H899 C886 0.960 1_545 S
H900 C886 0.961 . S
H901 C887 0.958 . S
H902 C887 0.961 . S
H903 C887 0.960 . S
C904 C905 1.391 . S
C904 C906 1.394 . S
C904 H920 0.931 . S
C905 C904 1.391 . S
C905 C909 1.376 . S
C906 C904 1.394 . S
C906 C907 1.369 . S
C906 C910 1.531 . S
C907 C906 1.369 . S
C907 C908 1.410 . S
C907 C915 1.503 . S
C908 C907 1.410 . S
C908 C909 1.392 . S
C908 C911 1.511 . S
C909 C905 1.376 . S
C909 C908 1.392 . S
C909 H921 0.929 . S
C910 C906 1.531 . S
C910 H922 0.960 . S
C910 H923 0.962 . S
C910 H924 0.960 . S
C911 C908 1.511 . S
C911 H925 0.961 . S
C911 H926 0.961 . S
C911 H927 0.961 . S
C912 C913 1.370 . S
C912 C914 1.363 . S
C912 H928 0.931 . S
C913 C912 1.370 . S
C913 C917 1.408 . S
C914 C912 1.363 . S
C914 C915 1.370 . S
C914 C918 1.524 . S
C915 C907 1.503 . S
C915 C914 1.370 . S
C915 C916 1.403 . S
C916 C915 1.403 . S
C916 C917 1.404 . S
C916 C919 1.539 . S
C917 C913 1.408 . S
C917 C916 1.404 . S
C917 H929 0.930 . S
C918 C914 1.524 . S
C918 H930 0.956 . S
C918 H931 0.961 . S
C918 H932 0.961 . S
C919 C916 1.539 . S
C919 H933 0.958 . S
C919 H934 0.961 . S
C919 H935 0.960 . S
H920 C904 0.931 . S
H921 C909 0.929 . S
H922 C910 0.960 . S
H923 C910 0.962 . S
H924 C910 0.960 . S
H925 C911 0.961 . S
H926 C911 0.961 . S
H927 C911 0.961 . S
H928 C912 0.931 . S
H929 C917 0.930 . S
H930 C918 0.956 . S
H931 C918 0.961 . S
H932 C918 0.961 . S
H933 C919 0.958 . S
H934 C919 0.961 . S
H935 C919 0.960 . S
C169 C9 2.079 . S
C177 C149 2.063 . S
C201 C163 2.040 . S
C209 C23 2.071 . S
C233 C37 2.081 . S
C241 C93 2.059 . S
C265 C51 2.061 . S
C273 C107 2.056 . S
C297 C65 2.044 . S
C305 C121 2.061 . S
C329 C135 2.080 . S
C337 C79 2.061 1_554 S
C361 C8 1.619 . S
C369 C120 1.625 . S
C393 C22 1.631 . S
C401 C134 1.625 . S
C425 C148 1.608 . S
C433 C36 1.621 . S
C457 C50 1.617 . S
C465 C162 1.624 . S
C489 C64 1.631 . S
C497 C92 1.627 . S
C521 C78 1.604 . S
C529 C106 1.619 1_556 S
C553 C147 0.763 . S
C561 C7 0.783 . S
C585 C21 0.826 . S
C593 C161 0.806 . S
C617 C35 0.782 . S
C625 C91 0.787 1_554 S
C649 C49 0.748 . S
C657 C105 0.776 . S
C681 C119 0.799 . S
C689 C63 0.794 . S
C713 C77 0.837 . S
C721 C133 0.814 . S
C745 C6 1.541 1_556 S
C753 C160 1.537 . S
C777 C90 1.543 . S
C785 C20 1.536 . S
C809 C104 1.543 . S
C817 C34 1.536 . S
C841 C118 1.527 . S
C849 C48 1.542 . S
C873 C132 1.534 . S
C881 C62 1.540 . S
C905 C146 1.529 . S
C913 C76 1.541 . S
