# Generated by pormake.
# Topology sma, (6)-cn, num edge types: 1
# Building blocks:
#     Node 0, Type 0, BuildingBlock: INOVEN_clean_sbu_0, # of connection points: 6
#     Node 1, Type 0, BuildingBlock: INOVEN_clean_sbu_0, # of connection points: 6
#     Node 2, Type 0, BuildingBlock: INOVEN_clean_sbu_0, # of connection points: 6
#     Edge 3, Type (0, 0), BuildingBlock: ZUJKAS_clean_linker_0, # of connection points: 2
#     Edge 4, Type (0, 0), BuildingBlock: ZUJKAS_clean_linker_0, # of connection points: 2
#     Edge 5, Type (0, 0), BuildingBlock: ZUJKAS_clean_linker_0, # of connection points: 2
#     Edge 6, Type (0, 0), BuildingBlock: ZUJKAS_clean_linker_0, # of connection points: 2
#     Edge 7, Type (0, 0), BuildingBlock: ZUJKAS_clean_linker_0, # of connection points: 2
#     Edge 8, Type (0, 0), BuildingBlock: ZUJKAS_clean_linker_0, # of connection points: 2
#     Edge 9, Type (0, 0), BuildingBlock: ZUJKAS_clean_linker_0, # of connection points: 2
#     Edge 10, Type (0, 0), BuildingBlock: ZUJKAS_clean_linker_0, # of connection points: 2
#     Edge 11, Type (0, 0), BuildingBlock: ZUJKAS_clean_linker_0, # of connection points: 2
# Relax obj value: 0.121
# Max RMSD: 0.250
# Mean RMSD: 0.204
data_MOF--net-sma--node1-INOVEN_clean_sbu_0--edge1-ZUJKAS_clean_linker_0
_symmetry_space_group_name_H-M    P1
_symmetry_Int_Tables_number       1
_symmetry_cell_setting            triclinic
loop_
_symmetry_equiv_pos_as_xyz
'x, y, z'
_cell_length_a     48.856125
_cell_length_b     56.211244
_cell_length_c     17.87435
_cell_angle_alpha  94.577352
_cell_angle_beta   90.226195
_cell_angle_gamma 136.66839
loop_
_atom_site_label
_atom_site_type_symbol
_atom_site_fract_x
_atom_site_fract_y
_atom_site_fract_z
_atom_type_partial_charge
Gd0 Gd 0.1282 0.63658 0.19264 0.0
Gd1 Gd 0.07911 0.6508 0.20173 0.0
C2 C 0.17325 0.7171 0.22414 0.0
C3 C 0.17679 0.63371 0.15785 0.0
C4 C 0.2047 0.63207 0.1377 0.0
C5 C 0.2232 0.63003 0.19321 0.0
C6 C 0.21384 0.63337 0.0628 0.0
C7 C 0.26012 0.63135 0.09928 0.0
C8 C 0.24122 0.633 0.0438 0.0
C9 C 0.25061 0.62963 0.17417 0.0
C10 C 0.10072 0.63034 0.32722 0.0
C11 C 1.03565 0.57118 0.18883 0.0
C12 C 1.02654 0.65068 0.2219 0.0
C13 C 1.01197 0.66394 0.1923 0.0
C14 C 1.00857 0.66485 0.11467 0.0
C15 C 0.99712 0.67217 0.24203 0.0
C16 C 0.97203 0.67878 0.13674 0.0
C17 C 0.97746 0.67962 0.21465 0.0
C18 C 0.98876 0.67222 0.08713 0.0
C19 C 0.10047 0.65056 0.06245 0.0
O20 O 0.17536 0.69551 0.20158 0.0
O21 O 0.1388 0.7058 0.23504 0.0
O22 O 0.16831 0.63368 0.22725 0.0
O23 O 0.1585 0.63503 0.10736 0.0
O24 O 0.10457 0.61102 0.29876 0.0
O25 O 0.11418 0.65355 0.28599 0.0
O26 O 1.03564 0.59366 0.21728 0.0
O27 O 1.06794 0.58179 0.16285 0.0
O28 O 1.01985 0.6271 0.1771 0.0
O29 O 1.06156 0.673 0.26071 0.0
O30 O 0.10042 0.67246 0.0909 0.0
O31 O 0.08922 0.63012 0.1097 0.0
H32 H 0.2168 0.62909 0.2515 0.0
H33 H 0.20001 0.63489 0.01878 0.0
H34 H 0.24742 0.63381 -0.01459 0.0
H35 H 0.26494 0.62867 0.21833 0.0
H36 H 1.01982 0.65855 0.07509 0.0
H37 H 0.99944 0.67161 0.30205 0.0
H38 H 0.96569 0.68527 0.25455 0.0
H39 H 0.98497 0.67118 0.02681 0.0
Gd40 Gd 0.64025 0.14772 0.39522 0.0
Gd41 Gd 0.59558 0.16395 0.35192 0.0
C42 C 0.54278 0.0843 0.36197 0.0
C43 C 0.66839 0.12988 0.46631 0.0
C44 C 0.65948 0.09924 0.48017 0.0
C45 C 0.6591 0.08042 0.4225 0.0
C46 C 0.65474 0.09056 0.55393 0.0
C47 C 0.65158 1.04612 0.51318 0.0
C48 C 0.65071 0.06425 0.57026 0.0
C49 C 0.65518 0.05415 0.43887 0.0
C50 C 0.62947 0.1451 0.24548 0.0
C51 C 0.69174 0.22321 0.35237 0.0
C52 C 0.56929 0.18716 0.30441 0.0
C53 C 0.56855 0.21093 0.34194 0.0
C54 C 0.5644 0.2118 0.41955 0.0
C55 C 0.57428 0.23435 0.30118 0.0
C56 C 0.57128 0.2591 0.41507 0.0
C57 C 0.57562 0.25823 0.33735 0.0
C58 C 0.5656 0.23554 0.45568 0.0
C59 C 0.61256 0.17268 0.5025 0.0
O60 O 0.57495 0.09553 0.39757 0.0
O61 O 0.54496 0.10565 0.32824 0.0
O62 O 0.67744 0.13985 0.39885 0.0
O63 O 0.64644 0.13275 0.49692 0.0
O64 O 0.65968 0.15325 0.2776 0.0
O65 O 0.60478 0.13505 0.29272 0.0
O66 O 0.65781 0.20958 0.32018 0.0
O67 O 0.69232 0.2059 0.39705 0.0
O68 O 0.54625 0.15676 0.32916 0.0
O69 O 0.60485 0.2014 0.29303 0.0
O70 O 0.58009 0.16065 0.47117 0.0
O71 O 0.63536 0.18072 0.45277 0.0
H72 H 0.66272 0.08645 0.36499 0.0
H73 H 0.65534 0.10486 0.59958 0.0
H74 H 0.64846 0.05908 0.62823 0.0
H75 H 0.6554 1.04037 0.39338 0.0
H76 H 0.56036 0.19422 0.45245 0.0
H77 H 0.57816 0.23443 0.24152 0.0
H78 H 0.5807 0.27639 0.30465 0.0
H79 H 0.56168 0.23518 0.51532 0.0
Gd80 Gd 0.64382 0.69579 0.85866 0.0
Gd81 Gd 0.59394 0.61918 0.86841 0.0
C82 C 0.55054 0.64295 0.86971 0.0
C83 C 0.68579 0.75577 0.81161 0.0
C84 C 0.67915 0.77587 0.7863 0.0
C85 C 0.66932 0.7889 0.83637 0.0
C86 C 0.6837 0.78294 0.71113 0.0
C87 C 0.66929 0.8161 0.73658 0.0
C88 C 0.67866 0.80265 0.68645 0.0
C89 C 0.66451 0.8088 0.81182 0.0
C90 C 0.61975 0.67599 -0.00424 0.0
C91 C 0.68854 0.67416 0.89543 0.0
C92 C 0.54993 0.55443 0.88004 0.0
C93 C 0.55281 0.53125 0.84886 0.0
C94 C 0.51919 0.49852 0.80952 0.0
C95 C 0.58956 0.54237 0.85407 0.0
C96 C 0.55891 0.4883 0.78094 0.0
C97 C 0.5925 0.52103 0.82079 0.0
C98 C 0.5222 0.47726 0.77571 0.0
C99 C 0.61433 0.64031 0.72913 0.0
O100 O 0.58189 0.67137 0.84041 0.0
O101 O 0.55026 0.621 0.89295 0.0
O102 O 0.68327 0.75138 0.88311 0.0
O103 O 0.66979 0.72787 0.76698 0.0
O104 O 0.62667 0.70094 -0.02902 0.0
O105 O 0.63027 0.66582 0.95087 0.0
O106 O 0.65359 0.64306 0.90705 0.0
O107 O 0.69188 0.69743 0.86836 0.0
O108 O 0.54085 0.56428 0.83078 0.0
O109 O 0.5783 0.57988 0.93156 0.0
O110 O 0.61676 0.6213 0.7569 0.0
O111 O 0.60282 0.64806 0.77808 0.0
H112 H 0.66571 0.78407 0.8948 0.0
H113 H 0.69133 0.77329 0.67131 0.0
H114 H 0.68195 0.8072 0.62786 0.0
H115 H 0.65788 0.81909 0.85237 0.0
H116 H 0.49068 0.48958 0.80423 0.0
H117 H 0.61624 0.56777 0.88295 0.0
H118 H 0.62132 0.5305 0.8249 0.0
H119 H 0.49571 0.45205 0.74587 0.0
H120 H 0.31891 0.67185 0.00424 0.0
H121 H 0.36643 0.67122 -0.03325 0.0
H122 H 0.3176 0.59246 0.11241 0.0
H123 H 0.26902 0.59213 0.14864 0.0
H124 H 0.42454 0.68469 0.05932 0.0
H125 H 0.31276 0.55022 0.90653 0.0
H126 H 0.30092 0.57351 0.93178 0.0
H127 H 0.30381 0.55408 0.00192 0.0
C128 C 0.31794 0.65409 0.0277 0.0
C129 C 0.28989 0.63177 0.07881 0.0
C130 C 0.3453 0.65396 0.00662 0.0
C131 C 0.34508 0.63143 0.03596 0.0
C132 C 0.31774 0.6096 0.08816 0.0
H133 H 0.48934 0.59641 0.95586 0.0
H134 H 0.43942 0.59346 -0.00319 0.0
C135 C 0.29031 0.60972 0.10937 0.0
C136 C 0.37383 0.6312 0.01204 0.0
H137 H 0.38021 0.58053 0.91637 0.0
C138 C 0.41491 0.66195 0.02804 0.0
C139 C 0.36104 0.60139 -0.02839 0.0
C140 C 0.31725 0.56796 0.95128 0.0
C141 C 0.44368 0.66371 0.00482 0.0
C142 C 0.43091 0.63412 0.96301 0.0
C143 C 0.38982 0.6032 0.94801 0.0
C144 C 0.4598 0.63477 0.93453 0.0
C145 C 0.48743 0.69701 0.02635 0.0
C146 C 0.487 0.65827 0.88411 0.0
C147 C 0.51565 0.66008 0.86054 0.0
C148 C 0.51726 0.63812 0.88645 0.0
C149 C 0.48882 0.61357 0.93445 0.0
C150 C 0.46034 0.61192 0.95823 0.0
H151 H 0.49166 0.71343 0.07467 0.0
H152 H 0.50416 0.69134 0.0414 0.0
H153 H 0.50065 0.71241 -0.02222 0.0
H154 H 0.48642 0.67556 0.86379 0.0
H155 H 0.537 0.67916 0.82331 0.0
H156 H 0.69932 0.26984 0.28846 0.0
H157 H 0.76067 0.32802 0.26063 0.0
H158 H 0.83063 0.31522 0.3518 0.0
H159 H 0.76898 0.25652 0.38072 0.0
H160 H 0.8342 0.38487 0.38408 0.0
H161 H 0.86028 0.34551 0.12111 0.0
H162 H 0.81061 0.31823 0.15153 0.0
H163 H 0.84584 0.32231 0.20196 0.0
C164 C 0.72767 0.27924 0.3027 0.0
C165 C 0.72933 0.25859 0.33705 0.0
C166 C 0.76265 0.3125 0.2867 0.0
C167 C 0.7999 0.32563 0.30394 0.0
C168 C 0.80193 0.30526 0.33798 0.0
H169 H 1.0333 0.52132 0.19483 0.0
H170 H 0.97691 0.46165 0.22508 0.0
C171 C 0.76681 0.27191 0.35471 0.0
C172 C 0.8365 0.36112 0.28755 0.0
H173 H 0.90428 0.40566 0.1569 0.0
C174 C 0.84985 0.38958 0.33483 0.0
C175 C 0.85657 0.36683 0.22338 0.0
C176 C 0.84278 0.33674 0.17107 0.0
C177 C 0.88294 0.42393 0.31941 0.0
C178 C 0.90228 0.42975 0.25349 0.0
C179 C 0.88929 0.40115 0.20707 0.0
C180 C 0.93575 0.46525 0.2314 0.0
C181 C 0.89702 0.45354 0.37449 0.0
C182 C 0.93093 0.48665 0.22245 0.0
C183 C 0.96317 0.52081 0.20608 0.0
C184 C 1.00052 0.53388 0.19644 0.0
C185 C 1.00475 0.51185 0.20141 0.0
C186 C 0.97264 0.47783 0.21905 0.0
H187 H 0.88781 0.44548 0.43171 0.0
H188 H 0.93009 0.47654 0.37852 0.0
H189 H 0.88326 0.46152 0.35538 0.0
H190 H 0.90237 0.47711 0.22918 0.0
H191 H 0.95899 0.53715 0.20199 0.0
H192 H 0.60547 0.99675 0.61101 0.0
H193 H 0.60761 0.957 0.64748 0.0
H194 H 0.69713 0.99654 0.4934 0.0
H195 H 0.6961 1.03704 0.45825 0.0
H196 H 0.5933 0.90446 0.55804 0.0
H197 H 0.74894 1.00824 0.69425 0.0
H198 H 0.72064 1.0165 0.67104 0.0
H199 H 0.74364 1.01322 0.59896 0.0
C200 C 0.6258 0.99715 0.58519 0.0
C201 C 0.65077 1.02026 0.53196 0.0
C202 C 0.62681 0.97428 0.60581 0.0
C203 C 0.65298 0.97421 0.57406 0.0
C204 C 0.67721 0.99658 0.51959 0.0
H205 H 0.71386 0.86534 0.63815 0.0
H206 H 0.70765 0.90168 0.59659 0.0
C207 C 0.67621 1.01943 0.49888 0.0
C208 C 0.65492 0.95072 0.59785 0.0
H209 H 0.71796 0.9505 0.68003 0.0
C210 C 0.62048 0.91447 0.58499 0.0
C211 C 0.69045 0.96388 0.63292 0.0
C212 C 0.72796 1.00258 0.65082 0.0
C213 C 0.62083 0.89098 0.60477 0.0
C214 C 0.65637 0.90413 0.63991 0.0
C215 C 0.69076 0.94041 0.65297 0.0
C216 C 0.65875 0.88084 0.66339 0.0
C217 C 0.58341 0.85231 0.58602 0.0
C218 C 0.63345 0.85709 0.71513 0.0
C219 C 0.63651 0.83583 0.73826 0.0
C220 C 0.66532 0.83817 0.71085 0.0
C221 C 0.69081 0.86225 0.65943 0.0
C222 C 0.68755 0.88332 0.63604 0.0
H223 H 0.56317 0.84684 0.5409 0.0
H224 H 0.59082 0.8383 0.5676 0.0
H225 H 0.56682 0.84161 0.63694 0.0
H226 H 0.61158 0.85522 0.73835 0.0
H227 H 0.61614 0.81745 0.77739 0.0
H228 H 0.69546 0.64976 0.00933 0.0
H229 H 0.75007 0.65772 0.04359 0.0
H230 H 0.81707 0.72546 0.87052 0.0
H231 H 0.76211 0.71814 0.83671 0.0
H232 H 0.7742 0.63685 0.94683 0.0
H233 H 0.90192 0.77817 0.05139 0.0
H234 H 0.8508 0.75609 0.04167 0.0
H235 H 0.87787 0.76783 0.95986 0.0
C236 C 0.72196 0.6667 -0.02114 0.0
C237 C 0.72433 0.683 0.91961 0.0
C238 C 0.75322 0.67127 -0.00127 0.0
C239 C 0.78764 0.69209 0.95964 0.0
C240 C 0.79097 0.70961 0.90213 0.0
H241 H 0.9846 0.71429 0.02021 0.0
H242 H 0.94114 0.7182 -0.02917 0.0
C243 C 0.75958 0.70534 0.88264 0.0
C244 C 0.81786 0.69256 -0.02392 0.0
H245 H 0.91408 0.74442 0.04836 0.0
C246 C 0.80487 0.66045 -0.03145 0.0
C247 C 0.85787 0.72334 0.0042 0.0
C248 C 0.87307 0.75834 0.01544 0.0
C249 C 0.83041 0.6581 -0.0101 0.0
C250 C 0.87005 0.68868 0.02014 0.0
C251 C 0.88363 0.72103 0.02521 0.0
C252 C 0.89695 0.68711 0.05053 0.0
C253 C 0.81454 0.62277 -0.01949 0.0
C254 C 0.8867 0.66872 0.11216 0.0
C255 C 0.91122 0.66629 0.14013 0.0
C256 C 0.9468 0.68247 0.10751 0.0
C257 C 0.95727 0.70129 0.04623 0.0
C258 C 0.93263 0.70373 0.01825 0.0
H259 H 0.78812 0.60409 0.93819 0.0
H260 H 0.83794 0.62483 0.96308 0.0
H261 H 0.80504 0.61182 0.03514 0.0
H262 H 0.85954 0.65605 0.1385 0.0
H263 H 0.90185 0.65113 0.18657 0.0
H264 H 0.53079 1.02938 0.38043 0.0
H265 H 0.46789 0.967 0.3565 0.0
H266 H 0.40525 0.99171 0.30219 0.0
H267 H 0.46812 0.05392 0.32302 0.0
H268 H 0.39962 0.92644 0.41939 0.0
H269 H 0.3685 0.92572 0.12059 0.0
H270 H 0.41581 0.96301 0.17358 0.0
H271 H 0.37343 0.95565 0.18207 0.0
C272 C 0.5036 1.0215 0.3634 0.0
C273 C 0.5045 1.04658 0.35292 0.0
C274 C 0.46766 0.98583 0.34961 0.0
C275 C 0.43192 0.97456 0.32564 0.0
C276 C 0.43257 0.99964 0.31804 0.0
H277 H 0.18254 0.77161 0.24416 0.0
H278 H 0.24538 0.83405 0.27068 0.0
C279 C 0.46853 1.03525 0.33065 0.0
C280 C 0.39387 0.93664 0.30997 0.0
H281 H 0.3151 0.87441 0.17719 0.0
C282 C 0.38132 0.91507 0.36623 0.0
C283 C 0.36995 0.92166 0.24038 0.0
C284 C 0.38281 0.94265 0.17548 0.0
C285 C 0.34527 0.87921 0.35539 0.0
C286 C 0.32113 0.86453 0.28654 0.0
C287 C 0.33358 0.88592 0.2302 0.0
C288 C 0.28319 0.82679 0.27124 0.0
C289 C 0.33294 0.85728 0.41791 0.0
C290 C 0.28382 0.8022 0.26189 0.0
C291 C 0.24811 0.76662 0.24608 0.0
C292 C 0.21102 0.75493 0.23968 0.0
C293 C 0.21054 0.77971 0.24902 0.0
C294 C 0.24638 0.81537 0.2641 0.0
H295 H 0.35056 0.87359 0.47246 0.0
H296 H 0.30061 0.83934 0.42514 0.0
H297 H 0.33785 0.84112 0.40311 0.0
H298 H 0.312 0.81057 0.26635 0.0
H299 H 0.24962 0.74829 0.23946 0.0
H300 H 0.52766 0.45129 0.64042 0.0
H301 H 0.53239 0.41369 0.58128 0.0
H302 H 0.60363 0.43811 0.77841 0.0
H303 H 0.59822 0.47507 0.83871 0.0
H304 H 0.60179 0.43131 0.54969 0.0
H305 H 0.51276 0.3307 0.74729 0.0
H306 H 0.51279 0.36264 0.74149 0.0
H307 H 0.55421 0.37476 0.79104 0.0
C308 C 0.54394 0.44833 0.67151 0.0
C309 C 0.56225 0.46589 0.74451 0.0
C310 C 0.54686 0.42706 0.63746 0.0
C311 C 0.56786 0.42275 0.67592 0.0
C312 C 0.58672 0.44064 0.74828 0.0
H313 H 0.60696 0.29648 0.55531 0.0
H314 H 0.6077 0.33717 0.61896 0.0
C315 C 0.58391 0.46199 0.78234 0.0
C316 C 0.57017 0.39964 0.63992 0.0
H317 H 0.54284 0.32461 0.65612 0.0
C318 C 0.58889 0.40796 0.57284 0.0
C319 C 0.55345 0.36931 0.67056 0.0
C320 C 0.53185 0.35854 0.74122 0.0
C321 C 0.59152 0.3868 0.53565 0.0
C322 C 0.57428 0.35619 0.56567 0.0
C323 C 0.55601 0.3481 0.63327 0.0
C324 C 0.57405 0.33174 0.5268 0.0
C325 C 0.61324 0.39767 0.46515 0.0
C326 C 0.55439 0.31486 0.45435 0.0
C327 C 0.5537 0.29147 0.41799 0.0
C328 C 0.57245 0.28431 0.45358 0.0
C329 C 0.59187 0.30111 0.52654 0.0
C330 C 0.59251 0.3245 0.56288 0.0
H331 H 0.634 0.42599 0.46156 0.0
H332 H 0.63059 0.39181 0.46274 0.0
H333 H 0.59102 0.38299 0.41509 0.0
H334 H 0.53912 0.31945 0.42624 0.0
H335 H 0.5378 0.27849 0.36252 0.0
H336 H 0.1223 0.68921 0.94882 0.0
H337 H 0.09354 0.66708 0.81775 0.0
H338 H 1.02313 0.56207 0.8643 0.0
H339 H 1.05321 0.58428 -0.00548 0.0
H340 H 1.0521 0.5725 0.7362 0.0
H341 H 0.9846 0.6187 0.73739 0.0
H342 H 1.03641 0.65478 0.77097 0.0
H343 H 1.00321 0.61762 0.82317 0.0
C344 C 0.10116 0.66151 0.93058 0.0
C345 C 0.0897 0.63845 -0.01847 0.0
C346 C 0.08411 0.64878 0.85635 0.0
C347 C 1.05468 0.61273 0.83251 0.0
C348 C 1.04499 0.58986 0.88219 0.0
H349 H 1.031 0.56503 0.35176 0.0
H350 H 0.99458 0.54809 0.46401 0.0
C351 C 1.06256 0.60266 0.9562 0.0
C352 C 1.03661 0.59971 0.75385 0.0
H353 H 1.00697 0.61683 0.61463 0.0
C354 C 1.04093 0.5811 0.70956 0.0
C355 C 1.0205 0.60972 0.71991 0.0
C356 C 1.01044 0.6259 0.76578 0.0
C357 C 1.03556 0.577 0.63091 0.0
C358 C 1.02551 0.59199 0.59635 0.0
C359 C 1.01562 0.60614 0.64115 0.0
C360 C 1.03534 0.60108 0.51869 0.0
C361 C 1.0451 0.56009 0.58622 0.0
C362 C 1.06716 0.6366 0.50854 0.0
C363 C 0.08677 0.64635 0.44284 0.0
C364 C 0.07532 0.62066 0.38798 0.0
C365 C 1.04085 0.58527 0.39447 0.0
C366 C 1.02008 0.57556 0.45852 0.0
H367 H 1.05551 0.55244 0.6229 0.0
H368 H 1.01785 0.5361 0.55114 0.0
H369 H 1.06877 0.57816 0.54843 0.0
H370 H 0.07917 0.65679 0.55403 0.0
H371 H 0.1129 0.67379 0.43798 0.0
H372 H 0.58313 0.15188 0.1946 0.0
H373 H 0.59008 0.17748 0.08243 0.0
H374 H 0.68369 0.18824 0.02004 0.0
H375 H 0.67978 0.16629 0.13675 0.0
H376 H 0.70093 0.24214 -0.01558 0.0
H377 H 0.54102 0.12173 0.88479 0.0
H378 H 0.54838 0.1451 -0.02925 0.0
H379 H 0.5645 0.12465 -0.03195 0.0
C380 C 0.60551 0.16014 0.15734 0.0
C381 C 0.63092 0.15714 0.17409 0.0
C382 C 0.60921 0.17447 0.09288 0.0
C383 C 0.63675 0.18404 0.0417 0.0
C384 C 0.66224 0.1811 0.05866 0.0
H385 H 0.66997 0.18773 0.59234 0.0
H386 H 0.68466 0.20548 0.7288 0.0
C387 C 0.65963 0.1681 0.12471 0.0
C388 C 0.63738 0.19469 -0.03207 0.0
H389 H 0.5798 0.16372 0.80328 0.0
C390 C 0.67435 0.22517 0.94496 0.0
C391 C 0.60257 0.1729 0.91676 0.0
C392 C 0.56197 0.13917 0.93596 0.0
C393 C 0.67785 0.2331 0.87074 0.0
C394 C 0.6435 0.21 0.81878 0.0
C395 C 0.60614 0.18132 0.84346 0.0
C396 C 0.64536 0.21117 0.73653 0.0
C397 C 0.71829 0.26543 0.848 0.0
C398 C 0.61931 0.20941 0.69551 0.0
C399 C 0.60986 0.19807 0.61855 0.0
C400 C 0.62684 0.18888 0.58119 0.0
C401 C 0.65606 0.19412 0.62045 0.0
C402 C 0.66499 0.20489 0.69804 0.0
H403 H 0.73776 0.28581 0.89709 0.0
H404 H 0.7333 0.25863 0.82547 0.0
H405 H 0.71541 0.27637 0.80351 0.0
H406 H 0.60386 0.21412 0.72414 0.0
H407 H 0.58805 0.1952 0.58894 0.0
H408 H 0.54086 0.60722 0.67418 0.0
H409 H 0.5149 0.5913 0.54192 0.0
H410 H 0.63006 0.6409 0.47419 0.0
H411 H 0.65519 0.65495 0.60668 0.0
H412 H 0.53257 0.62799 0.43984 0.0
H413 H 0.56009 0.55345 0.33425 0.0
H414 H 0.56312 0.56417 0.43397 0.0
H415 H 0.60644 0.59388 0.38157 0.0
C416 C 0.56047 0.61454 0.63069 0.0
C417 C 0.60005 0.63248 0.64974 0.0
C418 C 0.54556 0.60527 0.55536 0.0
C419 C 0.57017 0.61416 0.49796 0.0
C420 C 0.60998 0.63256 0.51737 0.0
H421 H 0.62307 0.70675 0.12554 0.0
H422 H 0.5928 0.68012 0.24066 0.0
C423 C 0.62461 0.64111 0.59281 0.0
C424 C 0.55586 0.60723 0.41796 0.0
H425 H 0.56965 0.59003 0.24414 0.0
C426 C 0.53969 0.61881 0.3969 0.0
C427 C 0.56246 0.59317 0.36139 0.0
C428 C 0.57343 0.57504 0.3793 0.0
C429 C 0.5355 0.62131 0.32116 0.0
C430 C 0.54973 0.6137 0.2663 0.0
C431 C 0.56027 0.59737 0.28628 0.0
C432 C 0.5608 0.62784 0.19281 0.0
C433 C 0.51729 0.63326 0.30136 0.0
C434 C 0.55325 0.60762 0.12743 0.0
C435 C 0.57209 0.62331 0.063 0.0
C436 C 0.59812 0.65922 0.06216 0.0
C437 C 0.60338 0.67901 0.1253 0.0
C438 C 0.58542 0.66358 0.19063 0.0
H439 H 0.49169 0.62141 0.33533 0.0
H440 H 0.53987 0.66201 0.31547 0.0
H441 H 0.50656 0.62622 0.24067 0.0
H442 H 0.53421 0.58 0.12728 0.0
H443 H 0.5664 0.60737 0.01404 0.0
loop_
_geom_bond_atom_site_label_1
_geom_bond_atom_site_label_2
_geom_bond_distance
_geom_bond_site_symmetry_2
_ccdc_geom_bond_type
Gd0 C3 2.818 . S
Gd0 O20 2.377 . S
Gd0 O22 2.448 . S
Gd0 O23 2.506 . S
Gd0 O24 2.435 . S
Gd0 O25 2.717 . S
Gd0 O27 2.395 1_455 S
Gd0 O31 2.327 . S
Gd1 C12 2.818 1_455 S
Gd1 O21 2.395 . S
Gd1 O25 2.327 . S
Gd1 O26 2.377 1_455 S
Gd1 O28 2.448 1_455 S
Gd1 O29 2.506 1_455 S
Gd1 O30 2.435 . S
Gd1 O31 2.717 . S
C2 O20 1.240 . S
C2 O21 1.240 . S
C3 Gd0 2.818 . S
C3 C4 1.510 . S
C3 O22 1.249 . S
C3 O23 1.252 . S
C4 C3 1.510 . S
C4 C5 1.404 . S
C4 C6 1.352 . S
C5 C4 1.404 . S
C5 C9 1.389 . S
C5 H32 0.930 . S
C6 C4 1.352 . S
C6 C8 1.374 . S
C6 H33 0.931 . S
C7 C8 1.359 . S
C7 C9 1.364 . S
C8 C6 1.374 . S
C8 C7 1.359 . S
C8 H34 0.931 . S
C9 C5 1.389 . S
C9 C7 1.364 . S
C9 H35 0.931 . S
C10 O24 1.256 . S
C10 O25 1.257 . S
C11 O26 1.240 . S
C11 O27 1.240 . S
C12 Gd1 2.818 1_655 S
C12 C13 1.510 . S
C12 O28 1.249 . S
C12 O29 1.252 . S
C13 C12 1.510 . S
C13 C14 1.404 . S
C13 C15 1.352 . S
C14 C13 1.404 . S
C14 C18 1.389 . S
C14 H36 0.930 . S
C15 C13 1.352 . S
C15 C17 1.374 . S
C15 H37 0.931 . S
C16 C17 1.359 . S
C16 C18 1.364 . S
C17 C15 1.374 . S
C17 C16 1.359 . S
C17 H38 0.931 . S
C18 C14 1.389 . S
C18 C16 1.364 . S
C18 H39 0.931 . S
C19 O30 1.256 . S
C19 O31 1.257 . S
O20 Gd0 2.377 . S
O20 C2 1.240 . S
O21 Gd1 2.395 . S
O21 C2 1.240 . S
O22 Gd0 2.448 . S
O22 C3 1.249 . S
O23 Gd0 2.506 . S
O23 C3 1.252 . S
O24 Gd0 2.435 . S
O24 C10 1.256 . S
O25 Gd0 2.717 . S
O25 Gd1 2.327 . S
O25 C10 1.257 . S
O26 Gd1 2.377 1_655 S
O26 C11 1.240 . S
O27 Gd0 2.395 1_655 S
O27 C11 1.240 . S
O28 Gd1 2.448 1_655 S
O28 C12 1.249 . S
O29 Gd1 2.506 1_655 S
O29 C12 1.252 . S
O30 Gd1 2.435 . S
O30 C19 1.256 . S
O31 Gd0 2.327 . S
O31 Gd1 2.717 . S
O31 C19 1.257 . S
H32 C5 0.930 . S
H33 C6 0.931 . S
H34 C8 0.931 . S
H35 C9 0.931 . S
H36 C14 0.930 . S
H37 C15 0.931 . S
H38 C17 0.931 . S
H39 C18 0.931 . S
Gd40 C43 2.818 . S
Gd40 O60 2.377 . S
Gd40 O62 2.448 . S
Gd40 O63 2.506 . S
Gd40 O64 2.435 . S
Gd40 O65 2.717 . S
Gd40 O67 2.395 . S
Gd40 O71 2.327 . S
Gd41 C52 2.818 . S
Gd41 O61 2.395 . S
Gd41 O65 2.327 . S
Gd41 O66 2.377 . S
Gd41 O68 2.448 . S
Gd41 O69 2.506 . S
Gd41 O70 2.435 . S
Gd41 O71 2.717 . S
C42 O60 1.240 . S
C42 O61 1.240 . S
C43 Gd40 2.818 . S
C43 C44 1.510 . S
C43 O62 1.249 . S
C43 O63 1.252 . S
C44 C43 1.510 . S
C44 C45 1.404 1_545 S
C44 C46 1.352 1_545 S
C45 C44 1.404 1_565 S
C45 C49 1.389 . S
C45 H72 0.930 1_565 S
C46 C44 1.352 1_565 S
C46 C48 1.374 . S
C46 H73 0.931 . S
C47 C48 1.359 . S
C47 C49 1.364 . S
C48 C46 1.374 . S
C48 C47 1.359 . S
C48 H74 0.931 . S
C49 C45 1.389 . S
C49 C47 1.364 . S
C49 H75 0.931 . S
C50 O64 1.256 . S
C50 O65 1.257 . S
C51 O66 1.240 . S
C51 O67 1.240 . S
C52 Gd41 2.818 . S
C52 C53 1.510 . S
C52 O68 1.249 . S
C52 O69 1.252 . S
C53 C52 1.510 . S
C53 C54 1.404 . S
C53 C55 1.352 . S
C54 C53 1.404 . S
C54 C58 1.389 . S
C54 H76 0.930 . S
C55 C53 1.352 . S
C55 C57 1.374 . S
C55 H77 0.931 . S
C56 C57 1.359 . S
C56 C58 1.364 . S
C57 C55 1.374 . S
C57 C56 1.359 . S
C57 H78 0.931 . S
C58 C54 1.389 . S
C58 C56 1.364 . S
C58 H79 0.931 . S
C59 O70 1.256 . S
C59 O71 1.257 . S
O60 Gd40 2.377 . S
O60 C42 1.240 . S
O61 Gd41 2.395 . S
O61 C42 1.240 . S
O62 Gd40 2.448 . S
O62 C43 1.249 . S
O63 Gd40 2.506 . S
O63 C43 1.252 . S
O64 Gd40 2.435 . S
O64 C50 1.256 . S
O65 Gd40 2.717 . S
O65 Gd41 2.327 . S
O65 C50 1.257 . S
O66 Gd41 2.377 . S
O66 C51 1.240 . S
O67 Gd40 2.395 . S
O67 C51 1.240 . S
O68 Gd41 2.448 . S
O68 C52 1.249 . S
O69 Gd41 2.506 . S
O69 C52 1.252 . S
O70 Gd41 2.435 . S
O70 C59 1.256 . S
O71 Gd40 2.327 . S
O71 Gd41 2.717 . S
O71 C59 1.257 . S
H72 C45 0.930 1_545 S
H73 C46 0.931 . S
H74 C48 0.931 . S
H75 C49 0.931 . S
H76 C54 0.930 . S
H77 C55 0.931 . S
H78 C57 0.931 . S
H79 C58 0.931 . S
Gd80 C83 2.818 . S
Gd80 O100 2.377 . S
Gd80 O102 2.448 . S
Gd80 O103 2.506 . S
Gd80 O104 2.435 1_556 S
Gd80 O105 2.717 . S
Gd80 O107 2.395 . S
Gd80 O111 2.327 . S
Gd81 C92 2.818 . S
Gd81 O101 2.395 . S
Gd81 O105 2.327 . S
Gd81 O106 2.377 . S
Gd81 O108 2.448 . S
Gd81 O109 2.506 . S
Gd81 O110 2.435 . S
Gd81 O111 2.717 . S
C82 O100 1.240 . S
C82 O101 1.240 . S
C83 Gd80 2.818 . S
C83 C84 1.510 . S
C83 O102 1.249 . S
C83 O103 1.252 . S
C84 C83 1.510 . S
C84 C85 1.404 . S
C84 C86 1.352 . S
C85 C84 1.404 . S
C85 C89 1.389 . S
C85 H112 0.930 . S
C86 C84 1.352 . S
C86 C88 1.374 . S
C86 H113 0.931 . S
C87 C88 1.359 . S
C87 C89 1.364 . S
C88 C86 1.374 . S
C88 C87 1.359 . S
C88 H114 0.931 . S
C89 C85 1.389 . S
C89 C87 1.364 . S
C89 H115 0.931 . S
C90 O104 1.256 . S
C90 O105 1.257 1_554 S
C91 O106 1.240 . S
C91 O107 1.240 . S
C92 Gd81 2.818 . S
C92 C93 1.510 . S
C92 O108 1.249 . S
C92 O109 1.252 . S
C93 C92 1.510 . S
C93 C94 1.404 . S
C93 C95 1.352 . S
C94 C93 1.404 . S
C94 C98 1.389 . S
C94 H116 0.930 . S
C95 C93 1.352 . S
C95 C97 1.374 . S
C95 H117 0.931 . S
C96 C97 1.359 . S
C96 C98 1.364 . S
C97 C95 1.374 . S
C97 C96 1.359 . S
C97 H118 0.931 . S
C98 C94 1.389 . S
C98 C96 1.364 . S
C98 H119 0.931 . S
C99 O110 1.256 . S
C99 O111 1.257 . S
O100 Gd80 2.377 . S
O100 C82 1.240 . S
O101 Gd81 2.395 . S
O101 C82 1.240 . S
O102 Gd80 2.448 . S
O102 C83 1.249 . S
O103 Gd80 2.506 . S
O103 C83 1.252 . S
O104 Gd80 2.435 1_554 S
O104 C90 1.256 . S
O105 Gd80 2.717 . S
O105 Gd81 2.327 . S
O105 C90 1.257 1_556 S
O106 Gd81 2.377 . S
O106 C91 1.240 . S
O107 Gd80 2.395 . S
O107 C91 1.240 . S
O108 Gd81 2.448 . S
O108 C92 1.249 . S
O109 Gd81 2.506 . S
O109 C92 1.252 . S
O110 Gd81 2.435 . S
O110 C99 1.256 . S
O111 Gd80 2.327 . S
O111 Gd81 2.717 . S
O111 C99 1.257 . S
H112 C85 0.930 . S
H113 C86 0.931 . S
H114 C88 0.931 . S
H115 C89 0.931 . S
H116 C94 0.930 . S
H117 C95 0.931 . S
H118 C97 0.931 . S
H119 C98 0.931 . S
H120 C128 0.929 . S
H121 C130 0.930 1_556 S
H122 C132 0.930 . S
H123 C135 0.929 . S
H124 C138 0.930 . S
H125 C140 0.960 . S
H126 C140 0.960 . S
H127 C140 0.960 1_554 S
C128 H120 0.929 . S
C128 C129 1.377 . S
C128 C130 1.384 . S
C129 C128 1.377 . S
C129 C135 1.390 . S
C130 H121 0.930 1_554 S
C130 C128 1.384 . S
C130 C131 1.372 . S
C131 C130 1.372 . S
C131 C132 1.400 . S
C131 C136 1.490 . S
C132 H122 0.930 . S
C132 C131 1.400 . S
C132 C135 1.386 . S
H133 C149 0.930 . S
H134 C150 0.931 1_554 S
C135 H123 0.929 . S
C135 C129 1.390 . S
C135 C132 1.386 . S
C136 C131 1.490 . S
C136 C138 1.395 . S
C136 C139 1.403 1_554 S
H137 C143 0.930 . S
C138 H124 0.930 . S
C138 C136 1.395 . S
C138 C141 1.403 1_554 S
C139 C136 1.403 1_556 S
C139 C140 1.524 . S
C139 C143 1.400 . S
C140 H125 0.960 . S
C140 H126 0.960 . S
C140 H127 0.960 1_556 S
C140 C139 1.524 . S
C141 C138 1.403 1_556 S
C141 C142 1.392 . S
C141 C145 1.495 . S
C142 C141 1.392 . S
C142 C143 1.385 . S
C142 C144 1.478 . S
C143 H137 0.930 . S
C143 C139 1.400 . S
C143 C142 1.385 . S
C144 C142 1.478 . S
C144 C146 1.381 . S
C144 C150 1.383 . S
C145 C141 1.495 . S
C145 H151 0.959 1_556 S
C145 H152 0.961 1_556 S
C145 H153 0.960 . S
C146 C144 1.381 . S
C146 C147 1.394 . S
C146 H154 0.930 . S
C147 C146 1.394 . S
C147 C148 1.383 . S
C147 H155 0.929 . S
C148 C147 1.383 . S
C148 C149 1.377 . S
C149 H133 0.930 . S
C149 C148 1.377 . S
C149 C150 1.379 . S
C150 H134 0.931 1_556 S
C150 C144 1.383 . S
C150 C149 1.379 . S
H151 C145 0.959 1_554 S
H152 C145 0.961 1_554 S
H153 C145 0.960 . S
H154 C146 0.930 . S
H155 C147 0.929 . S
H156 C164 0.929 . S
H157 C166 0.930 . S
H158 C168 0.930 . S
H159 C171 0.929 . S
H160 C174 0.930 . S
H161 C176 0.960 . S
H162 C176 0.960 . S
H163 C176 0.960 . S
C164 H156 0.929 . S
C164 C165 1.377 . S
C164 C166 1.384 . S
C165 C164 1.377 . S
C165 C171 1.390 . S
C166 H157 0.930 . S
C166 C164 1.384 . S
C166 C167 1.372 . S
C167 C166 1.372 . S
C167 C168 1.400 . S
C167 C172 1.490 . S
C168 H158 0.930 . S
C168 C167 1.400 . S
C168 C171 1.386 . S
H169 C185 0.930 . S
H170 C186 0.931 . S
C171 H159 0.929 . S
C171 C165 1.390 . S
C171 C168 1.386 . S
C172 C167 1.490 . S
C172 C174 1.395 . S
C172 C175 1.403 . S
H173 C179 0.930 . S
C174 H160 0.930 . S
C174 C172 1.395 . S
C174 C177 1.403 . S
C175 C172 1.403 . S
C175 C176 1.524 . S
C175 C179 1.400 . S
C176 H161 0.960 . S
C176 H162 0.960 . S
C176 H163 0.960 . S
C176 C175 1.524 . S
C177 C174 1.403 . S
C177 C178 1.392 . S
C177 C181 1.495 . S
C178 C177 1.392 . S
C178 C179 1.385 . S
C178 C180 1.478 . S
C179 H173 0.930 . S
C179 C175 1.400 . S
C179 C178 1.385 . S
C180 C178 1.478 . S
C180 C182 1.381 . S
C180 C186 1.383 . S
C181 C177 1.495 . S
C181 H187 0.959 . S
C181 H188 0.961 . S
C181 H189 0.960 . S
C182 C180 1.381 . S
C182 C183 1.394 . S
C182 H190 0.930 . S
C183 C182 1.394 . S
C183 C184 1.383 . S
C183 H191 0.929 . S
C184 C183 1.383 . S
C184 C185 1.377 . S
C185 H169 0.930 . S
C185 C184 1.377 . S
C185 C186 1.379 . S
C186 H170 0.931 . S
C186 C180 1.383 . S
C186 C185 1.379 . S
H187 C181 0.959 . S
H188 C181 0.961 . S
H189 C181 0.960 . S
H190 C182 0.930 . S
H191 C183 0.929 . S
H192 C200 0.929 . S
H193 C202 0.930 . S
H194 C204 0.930 . S
H195 C207 0.929 . S
H196 C210 0.930 . S
H197 C212 0.960 . S
H198 C212 0.960 . S
H199 C212 0.960 . S
C200 H192 0.929 . S
C200 C201 1.377 . S
C200 C202 1.384 . S
C201 C200 1.377 . S
C201 C207 1.390 . S
C202 H193 0.930 . S
C202 C200 1.384 . S
C202 C203 1.372 . S
C203 C202 1.372 . S
C203 C204 1.400 . S
C203 C208 1.490 . S
C204 H194 0.930 . S
C204 C203 1.400 . S
C204 C207 1.386 . S
H205 C221 0.930 . S
H206 C222 0.931 . S
C207 H195 0.929 . S
C207 C201 1.390 . S
C207 C204 1.386 . S
C208 C203 1.490 . S
C208 C210 1.395 . S
C208 C211 1.403 . S
H209 C215 0.930 . S
C210 H196 0.930 . S
C210 C208 1.395 . S
C210 C213 1.403 . S
C211 C208 1.403 . S
C211 C212 1.524 . S
C211 C215 1.400 . S
C212 H197 0.960 . S
C212 H198 0.960 . S
C212 H199 0.960 . S
C212 C211 1.524 . S
C213 C210 1.403 . S
C213 C214 1.392 . S
C213 C217 1.495 . S
C214 C213 1.392 . S
C214 C215 1.385 . S
C214 C216 1.478 . S
C215 H209 0.930 . S
C215 C211 1.400 . S
C215 C214 1.385 . S
C216 C214 1.478 . S
C216 C218 1.381 . S
C216 C222 1.383 . S
C217 C213 1.495 . S
C217 H223 0.959 . S
C217 H224 0.961 . S
C217 H225 0.960 . S
C218 C216 1.381 . S
C218 C219 1.394 . S
C218 H226 0.930 . S
C219 C218 1.394 . S
C219 C220 1.383 . S
C219 H227 0.929 . S
C220 C219 1.383 . S
C220 C221 1.377 . S
C221 H205 0.930 . S
C221 C220 1.377 . S
C221 C222 1.379 . S
C222 H206 0.931 . S
C222 C216 1.383 . S
C222 C221 1.379 . S
H223 C217 0.959 . S
H224 C217 0.961 . S
H225 C217 0.960 . S
H226 C218 0.930 . S
H227 C219 0.929 . S
H228 C236 0.929 . S
H229 C238 0.930 . S
H230 C240 0.930 . S
H231 C243 0.929 . S
H232 C246 0.930 1_556 S
H233 C248 0.960 . S
H234 C248 0.960 . S
H235 C248 0.960 1_556 S
C236 H228 0.929 . S
C236 C237 1.377 . S
C236 C238 1.384 1_556 S
C237 C236 1.377 . S
C237 C243 1.390 . S
C238 H229 0.930 . S
C238 C236 1.384 1_554 S
C238 C239 1.372 1_554 S
C239 C238 1.372 1_556 S
C239 C240 1.400 . S
C239 C244 1.490 1_556 S
C240 H230 0.930 . S
C240 C239 1.400 . S
C240 C243 1.386 . S
H241 C257 0.930 . S
H242 C258 0.931 . S
C243 H231 0.929 . S
C243 C237 1.390 . S
C243 C240 1.386 . S
C244 C239 1.490 1_554 S
C244 C246 1.395 . S
C244 C247 1.403 . S
H245 C251 0.930 . S
C246 H232 0.930 1_554 S
C246 C244 1.395 . S
C246 C249 1.403 . S
C247 C244 1.403 . S
C247 C248 1.524 . S
C247 C251 1.400 . S
C248 H233 0.960 . S
C248 H234 0.960 . S
C248 H235 0.960 1_554 S
C248 C247 1.524 . S
C249 C246 1.403 . S
C249 C250 1.392 . S
C249 C253 1.495 . S
C250 C249 1.392 . S
C250 C251 1.385 . S
C250 C252 1.478 . S
C251 H245 0.930 . S
C251 C247 1.400 . S
C251 C250 1.385 . S
C252 C250 1.478 . S
C252 C254 1.381 . S
C252 C258 1.383 . S
C253 C249 1.495 . S
C253 H259 0.959 . S
C253 H260 0.961 . S
C253 H261 0.960 . S
C254 C252 1.381 . S
C254 C255 1.394 . S
C254 H262 0.930 . S
C255 C254 1.394 . S
C255 C256 1.383 . S
C255 H263 0.929 . S
C256 C255 1.383 . S
C256 C257 1.377 . S
C257 H241 0.930 . S
C257 C256 1.377 . S
C257 C258 1.379 . S
C258 H242 0.931 . S
C258 C252 1.383 . S
C258 C257 1.379 . S
H259 C253 0.959 . S
H260 C253 0.961 . S
H261 C253 0.960 . S
H262 C254 0.930 . S
H263 C255 0.929 . S
H264 C272 0.929 . S
H265 C274 0.930 . S
H266 C276 0.930 . S
H267 C279 0.929 . S
H268 C282 0.930 . S
H269 C284 0.960 . S
H270 C284 0.960 . S
H271 C284 0.960 . S
C272 H264 0.929 . S
C272 C273 1.377 . S
C272 C274 1.384 . S
C273 C272 1.377 . S
C273 C279 1.390 . S
C274 H265 0.930 . S
C274 C272 1.384 . S
C274 C275 1.372 . S
C275 C274 1.372 . S
C275 C276 1.400 . S
C275 C280 1.490 . S
C276 H266 0.930 . S
C276 C275 1.400 . S
C276 C279 1.386 . S
H277 C293 0.930 . S
H278 C294 0.931 . S
C279 H267 0.929 . S
C279 C273 1.390 . S
C279 C276 1.386 . S
C280 C275 1.490 . S
C280 C282 1.395 . S
C280 C283 1.403 . S
H281 C287 0.930 . S
C282 H268 0.930 . S
C282 C280 1.395 . S
C282 C285 1.403 . S
C283 C280 1.403 . S
C283 C284 1.524 . S
C283 C287 1.400 . S
C284 H269 0.960 . S
C284 H270 0.960 . S
C284 H271 0.960 . S
C284 C283 1.524 . S
C285 C282 1.403 . S
C285 C286 1.392 . S
C285 C289 1.495 . S
C286 C285 1.392 . S
C286 C287 1.385 . S
C286 C288 1.478 . S
C287 H281 0.930 . S
C287 C283 1.400 . S
C287 C286 1.385 . S
C288 C286 1.478 . S
C288 C290 1.381 . S
C288 C294 1.383 . S
C289 C285 1.495 . S
C289 H295 0.959 . S
C289 H296 0.961 . S
C289 H297 0.960 . S
C290 C288 1.381 . S
C290 C291 1.394 . S
C290 H298 0.930 . S
C291 C290 1.394 . S
C291 C292 1.383 . S
C291 H299 0.929 . S
C292 C291 1.383 . S
C292 C293 1.377 . S
C293 H277 0.930 . S
C293 C292 1.377 . S
C293 C294 1.379 . S
C294 H278 0.931 . S
C294 C288 1.383 . S
C294 C293 1.379 . S
H295 C289 0.959 . S
H296 C289 0.961 . S
H297 C289 0.960 . S
H298 C290 0.930 . S
H299 C291 0.929 . S
H300 C308 0.929 . S
H301 C310 0.930 . S
H302 C312 0.930 . S
H303 C315 0.929 . S
H304 C318 0.930 . S
H305 C320 0.960 . S
H306 C320 0.960 . S
H307 C320 0.960 . S
C308 H300 0.929 . S
C308 C309 1.377 . S
C308 C310 1.384 . S
C309 C308 1.377 . S
C309 C315 1.390 . S
C310 H301 0.930 . S
C310 C308 1.384 . S
C310 C311 1.372 . S
C311 C310 1.372 . S
C311 C312 1.400 . S
C311 C316 1.490 . S
C312 H302 0.930 . S
C312 C311 1.400 . S
C312 C315 1.386 . S
H313 C329 0.930 . S
H314 C330 0.931 . S
C315 H303 0.929 . S
C315 C309 1.390 . S
C315 C312 1.386 . S
C316 C311 1.490 . S
C316 C318 1.395 . S
C316 C319 1.403 . S
H317 C323 0.930 . S
C318 H304 0.930 . S
C318 C316 1.395 . S
C318 C321 1.403 . S
C319 C316 1.403 . S
C319 C320 1.524 . S
C319 C323 1.400 . S
C320 H305 0.960 . S
C320 H306 0.960 . S
C320 H307 0.960 . S
C320 C319 1.524 . S
C321 C318 1.403 . S
C321 C322 1.392 . S
C321 C325 1.495 . S
C322 C321 1.392 . S
C322 C323 1.385 . S
C322 C324 1.478 . S
C323 H317 0.930 . S
C323 C319 1.400 . S
C323 C322 1.385 . S
C324 C322 1.478 . S
C324 C326 1.381 . S
C324 C330 1.383 . S
C325 C321 1.495 . S
C325 H331 0.959 . S
C325 H332 0.961 . S
C325 H333 0.960 . S
C326 C324 1.381 . S
C326 C327 1.394 . S
C326 H334 0.930 . S
C327 C326 1.394 . S
C327 C328 1.383 . S
C327 H335 0.929 . S
C328 C327 1.383 . S
C328 C329 1.377 . S
C329 H313 0.930 . S
C329 C328 1.377 . S
C329 C330 1.379 . S
C330 H314 0.931 . S
C330 C324 1.383 . S
C330 C329 1.379 . S
H331 C325 0.959 . S
H332 C325 0.961 . S
H333 C325 0.960 . S
H334 C326 0.930 . S
H335 C327 0.929 . S
H336 C344 0.929 . S
H337 C346 0.930 . S
H338 C348 0.930 1_655 S
H339 C351 0.929 1_654 S
H340 C354 0.930 . S
H341 C356 0.960 . S
H342 C356 0.960 . S
H343 C356 0.960 . S
C344 H336 0.929 . S
C344 C345 1.377 1_556 S
C344 C346 1.384 . S
C345 C344 1.377 1_554 S
C345 C351 1.390 1_554 S
C346 H337 0.930 . S
C346 C344 1.384 . S
C346 C347 1.372 . S
C347 C346 1.372 . S
C347 C348 1.400 . S
C347 C352 1.490 . S
C348 H338 0.930 1_455 S
C348 C347 1.400 . S
C348 C351 1.386 . S
H349 C365 0.930 . S
H350 C366 0.931 . S
C351 H339 0.929 1_456 S
C351 C345 1.390 1_556 S
C351 C348 1.386 . S
C352 C347 1.490 . S
C352 C354 1.395 . S
C352 C355 1.403 . S
H353 C359 0.930 . S
C354 H340 0.930 . S
C354 C352 1.395 . S
C354 C357 1.403 . S
C355 C352 1.403 . S
C355 C356 1.524 . S
C355 C359 1.400 . S
C356 H341 0.960 . S
C356 H342 0.960 . S
C356 H343 0.960 . S
C356 C355 1.524 . S
C357 C354 1.403 . S
C357 C358 1.392 . S
C357 C361 1.495 . S
C358 C357 1.392 . S
C358 C359 1.385 . S
C358 C360 1.478 . S
C359 H353 0.930 . S
C359 C355 1.400 . S
C359 C358 1.385 . S
C360 C358 1.478 . S
C360 C362 1.381 . S
C360 C366 1.383 1_455 S
C361 C357 1.495 . S
C361 H367 0.959 . S
C361 H368 0.961 1_455 S
C361 H369 0.960 . S
C362 C360 1.381 . S
C362 C363 1.394 . S
C362 H370 0.930 . S
C363 C362 1.394 . S
C363 C364 1.383 . S
C363 H371 0.929 . S
C364 C363 1.383 . S
C364 C365 1.377 1_455 S
C365 H349 0.930 . S
C365 C364 1.377 1_655 S
C365 C366 1.379 . S
C366 H350 0.931 . S
C366 C360 1.383 1_655 S
C366 C365 1.379 . S
H367 C361 0.959 . S
H368 C361 0.961 1_655 S
H369 C361 0.960 . S
H370 C362 0.930 . S
H371 C363 0.929 . S
H372 C380 0.929 . S
H373 C382 0.930 . S
H374 C384 0.930 . S
H375 C387 0.929 . S
H376 C390 0.930 . S
H377 C392 0.960 1_556 S
H378 C392 0.960 . S
H379 C392 0.960 . S
C380 H372 0.929 . S
C380 C381 1.377 . S
C380 C382 1.384 . S
C381 C380 1.377 . S
C381 C387 1.390 . S
C382 H373 0.930 . S
C382 C380 1.384 . S
C382 C383 1.372 . S
C383 C382 1.372 . S
C383 C384 1.400 . S
C383 C388 1.490 . S
C384 H374 0.930 . S
C384 C383 1.400 . S
C384 C387 1.386 . S
H385 C401 0.930 . S
H386 C402 0.931 . S
C387 H375 0.929 . S
C387 C381 1.390 . S
C387 C384 1.386 . S
C388 C383 1.490 . S
C388 C390 1.395 . S
C388 C391 1.403 . S
H389 C395 0.930 . S
C390 H376 0.930 . S
C390 C388 1.395 . S
C390 C393 1.403 1_554 S
C391 C388 1.403 . S
C391 C392 1.524 . S
C391 C395 1.400 1_554 S
C392 H377 0.960 1_554 S
C392 H378 0.960 . S
C392 H379 0.960 . S
C392 C391 1.524 . S
C393 C390 1.403 1_556 S
C393 C394 1.392 . S
C393 C397 1.495 . S
C394 C393 1.392 . S
C394 C395 1.385 . S
C394 C396 1.478 . S
C395 H389 0.930 . S
C395 C391 1.400 1_556 S
C395 C394 1.385 . S
C396 C394 1.478 . S
C396 C398 1.381 . S
C396 C402 1.383 . S
C397 C393 1.495 . S
C397 H403 0.959 . S
C397 H404 0.961 . S
C397 H405 0.960 . S
C398 C396 1.381 . S
C398 C399 1.394 . S
C398 H406 0.930 . S
C399 C398 1.394 . S
C399 C400 1.383 . S
C399 H407 0.929 . S
C400 C399 1.383 . S
C400 C401 1.377 . S
C401 H385 0.930 . S
C401 C400 1.377 . S
C401 C402 1.379 . S
C402 H386 0.931 . S
C402 C396 1.383 . S
C402 C401 1.379 . S
H403 C397 0.959 . S
H404 C397 0.961 . S
H405 C397 0.960 . S
H406 C398 0.930 . S
H407 C399 0.929 . S
H408 C416 0.929 . S
H409 C418 0.930 . S
H410 C420 0.930 . S
H411 C423 0.929 . S
H412 C426 0.930 . S
H413 C428 0.960 . S
H414 C428 0.960 . S
H415 C428 0.960 . S
C416 H408 0.929 . S
C416 C417 1.377 . S
C416 C418 1.384 . S
C417 C416 1.377 . S
C417 C423 1.390 . S
C418 H409 0.930 . S
C418 C416 1.384 . S
C418 C419 1.372 . S
C419 C418 1.372 . S
C419 C420 1.400 . S
C419 C424 1.490 . S
C420 H410 0.930 . S
C420 C419 1.400 . S
C420 C423 1.386 . S
H421 C437 0.930 . S
H422 C438 0.931 . S
C423 H411 0.929 . S
C423 C417 1.390 . S
C423 C420 1.386 . S
C424 C419 1.490 . S
C424 C426 1.395 . S
C424 C427 1.403 . S
H425 C431 0.930 . S
C426 H412 0.930 . S
C426 C424 1.395 . S
C426 C429 1.403 . S
C427 C424 1.403 . S
C427 C428 1.524 . S
C427 C431 1.400 . S
C428 H413 0.960 . S
C428 H414 0.960 . S
C428 H415 0.960 . S
C428 C427 1.524 . S
C429 C426 1.403 . S
C429 C430 1.392 . S
C429 C433 1.495 . S
C430 C429 1.392 . S
C430 C431 1.385 . S
C430 C432 1.478 . S
C431 H425 0.930 . S
C431 C427 1.400 . S
C431 C430 1.385 . S
C432 C430 1.478 . S
C432 C434 1.381 . S
C432 C438 1.383 . S
C433 C429 1.495 . S
C433 H439 0.959 . S
C433 H440 0.961 . S
C433 H441 0.960 . S
C434 C432 1.381 . S
C434 C435 1.394 . S
C434 H442 0.930 . S
C435 C434 1.394 . S
C435 C436 1.383 . S
C435 H443 0.929 . S
C436 C435 1.383 . S
C436 C437 1.377 . S
C437 H421 0.930 . S
C437 C436 1.377 . S
C437 C438 1.379 . S
C438 H422 0.931 . S
C438 C432 1.383 . S
C438 C437 1.379 . S
H439 C433 0.959 . S
H440 C433 0.961 . S
H441 C433 0.960 . S
H442 C434 0.930 . S
H443 C435 0.929 . S
C129 C7 2.166 . S
C148 C82 2.148 . S
C165 C51 3.125 . S
C184 C11 3.089 . S
C201 C47 1.591 . S
C220 C87 1.579 . S
C237 C91 2.569 . S
C256 C16 2.492 . S
C273 C42 2.694 1_565 S
C292 C2 2.667 . S
C309 C96 1.490 . S
C328 C56 1.503 . S
C345 C19 0.420 . S
C364 C10 0.348 . S
C381 C50 0.392 . S
C400 C59 0.399 . S
C417 C99 0.353 . S
C436 C90 0.389 . S
