# Generated by pormake.
# Topology rkf, (6)-cn, num edge types: 1
# Building blocks:
#     Node 0, Type 0, BuildingBlock: BETFEN_clean_sbu_0, # of connection points: 6
#     Node 1, Type 0, BuildingBlock: BETFEN_clean_sbu_0, # of connection points: 6
#     Node 2, Type 0, BuildingBlock: BETFEN_clean_sbu_0, # of connection points: 6
#     Node 3, Type 0, BuildingBlock: BETFEN_clean_sbu_0, # of connection points: 6
#     Node 4, Type 0, BuildingBlock: BETFEN_clean_sbu_0, # of connection points: 6
#     Node 5, Type 0, BuildingBlock: BETFEN_clean_sbu_0, # of connection points: 6
#     Edge 6, Type (0, 0), BuildingBlock: KIFKEQ_clean_linker_1, # of connection points: 2
#     Edge 7, Type (0, 0), BuildingBlock: KIFKEQ_clean_linker_1, # of connection points: 2
#     Edge 8, Type (0, 0), BuildingBlock: KIFKEQ_clean_linker_1, # of connection points: 2
#     Edge 9, Type (0, 0), BuildingBlock: KIFKEQ_clean_linker_1, # of connection points: 2
#     Edge 10, Type (0, 0), BuildingBlock: KIFKEQ_clean_linker_1, # of connection points: 2
#     Edge 11, Type (0, 0), BuildingBlock: KIFKEQ_clean_linker_1, # of connection points: 2
#     Edge 12, Type (0, 0), BuildingBlock: KIFKEQ_clean_linker_1, # of connection points: 2
#     Edge 13, Type (0, 0), BuildingBlock: KIFKEQ_clean_linker_1, # of connection points: 2
#     Edge 14, Type (0, 0), BuildingBlock: KIFKEQ_clean_linker_1, # of connection points: 2
#     Edge 15, Type (0, 0), BuildingBlock: KIFKEQ_clean_linker_1, # of connection points: 2
#     Edge 16, Type (0, 0), BuildingBlock: KIFKEQ_clean_linker_1, # of connection points: 2
#     Edge 17, Type (0, 0), BuildingBlock: KIFKEQ_clean_linker_1, # of connection points: 2
#     Edge 18, Type (0, 0), BuildingBlock: KIFKEQ_clean_linker_1, # of connection points: 2
#     Edge 19, Type (0, 0), BuildingBlock: KIFKEQ_clean_linker_1, # of connection points: 2
#     Edge 20, Type (0, 0), BuildingBlock: KIFKEQ_clean_linker_1, # of connection points: 2
#     Edge 21, Type (0, 0), BuildingBlock: KIFKEQ_clean_linker_1, # of connection points: 2
#     Edge 22, Type (0, 0), BuildingBlock: KIFKEQ_clean_linker_1, # of connection points: 2
#     Edge 23, Type (0, 0), BuildingBlock: KIFKEQ_clean_linker_1, # of connection points: 2
# Relax obj value: 0.706
# Max RMSD: 0.249
# Mean RMSD: 0.249
data_MOF--net-rkf--node1-BETFEN_clean_sbu_0--edge1-KIFKEQ_clean_linker_1
_symmetry_space_group_name_H-M    P1
_symmetry_Int_Tables_number       1
_symmetry_cell_setting            triclinic
loop_
_symmetry_equiv_pos_as_xyz
'x, y, z'
_cell_length_a     25.715695
_cell_length_b     25.795162
_cell_length_c     46.111181
_cell_angle_alpha  90.26632
_cell_angle_beta   90.186927
_cell_angle_gamma 119.81966
loop_
_atom_site_label
_atom_site_type_symbol
_atom_site_fract_x
_atom_site_fract_y
_atom_site_fract_z
_atom_type_partial_charge
Pr0 Pr 0.30177 0.08729 0.16186 0.0
Pr1 Pr 0.35528 0.21058 0.14262 0.0
C2 C 0.26868 0.97173 0.171 0.0
C3 C 0.25672 0.92373 0.19156 0.0
C4 C 0.20202 0.87028 0.18907 0.0
C5 C 0.18695 0.82418 0.20872 0.0
C6 C 0.22653 0.83029 0.2313 0.0
C7 C 0.28247 0.88331 0.23317 0.0
C8 C 0.29746 0.92979 0.21345 0.0
C9 C 0.21385 0.11281 0.14627 0.0
C10 C 0.31763 0.18251 0.21396 0.0
C11 C 0.39721 0.3273 1.13119 0.0
C12 C 0.42613 0.36751 1.10675 0.0
C13 C 0.45813 0.42957 1.11113 0.0
C14 C 0.48472 0.46797 1.08766 0.0
C15 C 0.47957 0.44465 1.05948 0.0
C16 C 0.44915 0.38208 1.05559 0.0
C17 C 0.423 0.34399 1.079 0.0
C18 C 0.43877 0.17468 0.15402 0.0
C19 C 0.31822 0.11248 1.08808 0.0
O20 O 0.3241 0.01274 0.16579 0.0
O21 O 0.23125 -0.00794 0.17103 0.0
O22 O 0.26217 0.13062 1.13265 0.0
O23 O 0.2173 0.09392 0.1719 0.0
O24 O 0.32435 0.217 0.19129 0.0
O25 O 0.31436 0.13009 0.20929 0.0
O26 O 0.34101 0.28616 1.12762 0.0
O27 O 0.42909 0.30719 0.14371 0.0
O28 O 0.39538 0.16437 0.17013 0.0
O29 O 0.44001 0.20359 1.13084 0.0
O30 O 0.30908 0.07519 1.10991 0.0
O31 O 0.3345 0.16892 1.09441 0.0
H32 H 0.17009 0.86469 0.17223 0.0
H33 H 0.14303 0.7848 0.20687 0.0
H34 H 0.31419 0.88932 0.25016 0.0
H35 H 0.34019 0.97059 0.21563 0.0
H36 H 0.46175 0.44832 1.13262 0.0
H37 H 0.50808 0.51577 1.09147 0.0
H38 H 0.44284 0.36218 1.03422 0.0
H39 H 0.39907 0.29611 1.0753 0.0
Pr40 Pr 0.31303 0.33265 0.49761 0.0
Pr41 Pr 0.22088 0.35658 0.47622 0.0
C42 C 0.41853 0.33733 0.5084 0.0
C43 C 0.45964 0.34438 0.53208 0.0
C44 C 0.4407 0.3379 0.56092 0.0
C45 C 0.47447 0.33115 0.58278 0.0
C46 C 0.52781 0.33087 0.57613 0.0
C47 C 0.54903 0.34257 0.54748 0.0
C48 C 0.51499 0.34905 0.52559 0.0
C49 C 0.21036 0.22593 0.48837 0.0
C50 C 0.21913 0.32831 0.54775 0.0
C51 C 0.12911 0.37626 0.46496 0.0
C52 C 0.11467 0.41005 0.44404 0.0
C53 C 0.08005 0.43556 0.45267 0.0
C54 C 0.06359 0.46536 0.43255 0.0
C55 C 0.08129 0.46978 0.4034 0.0
C56 C 0.11865 0.44657 0.39536 0.0
C57 C 0.1354 0.41734 0.4155 0.0
C58 C 0.33324 0.45863 0.48413 0.0
C59 C 0.28814 0.32635 0.42325 0.0
O60 O 0.41483 0.38413 0.50081 0.0
O61 O 0.36667 0.28819 0.50877 0.0
O62 O 0.22803 0.27071 0.47188 0.0
O63 O 0.2402 0.23975 0.51269 0.0
O64 O 0.18644 0.32287 0.52441 0.0
O65 O 0.275 0.33924 0.54413 0.0
O66 O 0.13133 0.32974 0.45509 0.0
O67 O 0.17206 0.40823 0.48331 0.0
O68 O 0.3072 0.41673 0.50181 0.0
O69 O 0.30189 0.44847 0.46053 0.0
O70 O 0.32316 0.32785 0.44511 0.0
O71 O 0.24252 0.33486 0.42912 0.0
H72 H 0.39791 0.33409 0.56624 0.0
H73 H 0.45616 0.32149 0.60447 0.0
H74 H 0.59026 0.34348 0.5417 0.0
H75 H 0.53022 0.35421 0.50336 0.0
H76 H 0.0646 0.43124 0.47483 0.0
H77 H 0.03546 0.48321 0.43961 0.0
H78 H 0.1324 0.44777 0.3731 0.0
H79 H 0.16302 0.3988 0.40851 0.0
Pr80 Pr 0.04626 0.26858 0.8246 0.0
Pr81 Pr 0.9353 0.25952 0.80787 0.0
C82 C 0.16462 0.31176 0.83304 0.0
C83 C 0.21368 0.35093 0.85278 0.0
C84 C 0.20563 0.34878 0.88286 0.0
C85 C 0.25248 0.38815 0.90098 0.0
C86 C 0.30805 0.43091 0.88934 0.0
C87 C 0.31565 0.43303 0.85913 0.0
C88 C 0.26884 0.39334 0.84104 0.0
C89 C 0.96692 0.15627 0.79932 0.0
C90 C 0.94904 0.21529 0.87668 0.0
C91 C 0.82095 0.23143 0.79687 0.0
C92 C 0.78089 0.21525 0.7717 0.0
C93 C 0.71856 0.18446 0.77544 0.0
C94 C 0.68028 0.16401 0.75129 0.0
C95 C 0.70404 0.17428 0.72313 0.0
C96 C 0.76668 0.20755 0.71966 0.0
C97 C 0.80469 0.22768 0.74371 0.0
C98 C 0.01817 0.37468 0.82606 0.0
C99 C 0.03416 0.29322 0.75378 0.0
O100 O 0.14271 0.33851 0.8174 0.0
O101 O 0.12362 0.25942 0.84248 0.0
O102 O -0.02371 0.2061 0.79074 0.0
O103 O -0.00129 0.16368 0.82255 0.0
O104 O 0.91247 0.21333 0.8556 0.0
O105 O 0.00701 0.24126 0.87155 0.0
O106 O 0.83612 0.19206 0.80466 0.0
O107 O 0.86589 0.28612 0.79751 0.0
O108 O 0.00757 0.32782 0.83952 0.0
O109 O -0.01392 0.3624 0.80268 0.0
O110 O 0.07088 0.30397 0.77598 0.0
O111 O -0.02422 0.26914 0.75935 0.0
H112 H 0.16325 0.31675 0.89238 0.0
H113 H 0.24539 0.38425 0.92419 0.0
H114 H 0.35757 0.46556 0.84944 0.0
H115 H 0.27556 0.39602 0.81779 0.0
H116 H 0.6996 0.17466 0.79701 0.0
H117 H 0.63234 0.13858 0.75463 0.0
H118 H 0.78671 0.21508 0.69837 0.0
H119 H 0.85276 0.25109 0.74045 0.0
Pr120 Pr 0.84962 0.07057 0.15295 0.0
Pr121 Pr 0.7608 0.93802 1.13901 0.0
C122 C 0.90042 0.1863 0.1687 0.0
C123 C 0.90477 0.22845 0.19134 0.0
C124 C 0.9062 0.21657 0.22085 0.0
C125 C 0.91036 0.25794 0.24172 0.0
C126 C 0.91269 0.31165 0.23345 0.0
C127 C 0.91033 0.32274 0.20383 0.0
C128 C 0.9064 0.28146 0.18299 0.0
C129 C 0.89872 0.01195 1.12397 0.0
C130 C 0.81665 0.96764 0.20674 0.0
C131 C 0.68955 0.82362 1.12175 0.0
C132 C 0.67133 0.78497 1.09603 0.0
C133 C 0.63589 0.72288 1.09912 0.0
C134 C 0.6199 0.68531 1.07479 0.0
C135 C 0.63905 0.70957 1.04706 0.0
C136 C 0.67345 0.77212 1.04414 0.0
C137 C 0.68947 0.80948 1.06842 0.0
C138 C 0.71199 0.00532 0.16149 0.0
C139 C 0.81445 0.03875 1.08309 0.0
O140 O 0.84876 0.15733 0.15528 0.0
O141 O 0.92631 0.15413 0.17312 0.0
O142 O 0.86174 -0.0105 0.14435 0.0
O143 O 0.91852 0.06885 1.12117 0.0
O144 O 0.79063 0.92579 0.18634 0.0
O145 O 0.83634 0.02488 0.20022 0.0
O146 O 0.74468 0.84445 1.13089 0.0
O147 O 0.67192 0.86316 1.12281 0.0
O148 O 0.7507 0.02058 0.14215 0.0
O149 O 0.69606 0.95205 0.17068 0.0
O150 O 0.8334 0.08106 1.10329 0.0
O151 O 0.78999 -0.01868 1.09077 0.0
H152 H 0.90457 0.17568 0.22773 0.0
H153 H 0.91322 0.24843 0.26434 0.0
H154 H 0.91149 0.36326 0.19674 0.0
H155 H 0.90477 0.29102 0.16025 0.0
H156 H 0.62136 0.70343 1.12039 0.0
H157 H 0.59345 0.63741 1.07769 0.0
H158 H 0.69022 0.79225 1.0232 0.0
H159 H 0.71697 0.85736 1.06573 0.0
Pr160 Pr 0.87849 0.88455 0.48799 0.0
Pr161 Pr 0.88246 0.77426 0.47606 0.0
C162 C 0.84651 0.96518 0.5045 0.0
C163 C 0.80559 0.97167 0.52461 0.0
C164 C 0.81481 0.97559 0.55472 0.0
C165 C 0.77528 -0.01784 0.57306 0.0
C166 C 0.72561 -0.01538 0.56168 0.0
C167 C 0.71626 0.98006 0.53155 0.0
C168 C 0.75599 0.97395 0.51323 0.0
C169 C -0.01843 0.90451 0.4595 0.0
C170 C 0.92865 0.83292 0.5431 0.0
C171 C 0.89555 0.68128 0.45843 0.0
C172 C 0.91915 0.66259 0.43401 0.0
C173 C 0.94682 0.62841 0.43936 0.0
C174 C -0.02491 0.61542 0.4169 0.0
C175 C -0.02422 0.63626 0.38873 0.0
C176 C 0.9456 0.66825 0.38327 0.0
C177 C 0.91777 0.68154 0.40573 0.0
C178 C 0.77307 0.75279 0.49999 0.0
C179 C 0.86064 0.84737 0.41867 0.0
O180 O 0.8204 0.9264 0.48362 0.0
O181 O 0.89406 0.96532 0.51489 0.0
O182 O 0.95865 0.86939 0.48036 0.0
O183 O 0.95635 0.93672 0.45544 0.0
O184 O 0.92682 0.79358 0.52377 0.0
O185 O 0.90749 0.86876 0.53558 0.0
O186 O 0.93527 0.72554 0.47422 0.0
O187 O 0.84705 0.68446 0.45375 0.0
O188 O 0.80162 0.7891 0.48022 0.0
O189 O 0.80264 0.7274 0.50906 0.0
O190 O 0.85179 0.87843 0.43887 0.0
O191 O 0.8775 0.808 0.42674 0.0
H192 H 0.85271 0.97413 0.56412 0.0
H193 H 0.78467 -0.01309 0.59613 0.0
H194 H 0.67835 -0.01862 0.52208 0.0
H195 H 0.74797 0.97111 0.49004 0.0
H196 H 0.94825 0.61343 0.46111 0.0
H197 H -0.00204 0.59072 0.42171 0.0
H198 H 0.94639 0.68604 0.36194 0.0
H199 H 0.89707 0.70838 0.40119 0.0
Pr200 Pr 0.09608 0.882 0.82276 0.0
Pr201 Pr 0.21673 0.91356 0.80711 0.0
C202 C -0.02319 0.8265 0.83211 0.0
C203 C 0.9297 0.78294 0.85109 0.0
C204 C 0.93577 0.78712 0.88135 0.0
C205 C 0.88897 0.74679 0.89881 0.0
C206 C 0.83539 0.70117 0.88637 0.0
C207 C 0.83046 0.69602 0.856 0.0
C208 C 0.87719 0.73665 0.83855 0.0
C209 C 0.16443 0.00169 0.80411 0.0
C210 C 0.195 0.94429 0.87532 0.0
C211 C 0.32894 0.95025 0.78867 0.0
C212 C 0.37082 -0.01845 0.76512 0.0
C213 C 0.4326 0.00931 0.77063 0.0
C214 C 0.47353 0.04447 0.74944 0.0
C215 C 0.45308 0.05212 0.7224 0.0
C216 C 0.39101 0.02228 0.71663 0.0
C217 C 0.35015 -0.01259 0.73788 0.0
C218 C 0.15768 0.80454 0.83697 0.0
C219 C 0.11347 0.87388 0.75118 0.0
O220 O 0.00216 0.80546 0.81494 0.0
O221 O 0.0144 0.87919 0.84282 0.0
O222 O 0.16353 0.95696 0.79308 0.0
O223 O 0.13096 -0.01474 0.82705 0.0
O224 O 0.23174 0.96648 0.85276 0.0
O225 O 0.13991 0.89972 0.87017 0.0
O226 O 0.31485 -0.01701 0.80504 0.0
O227 O 0.28357 0.89706 0.78292 0.0
O228 O 0.13569 0.82031 0.81681 0.0
O229 O 0.2118 0.84606 0.8426 0.0
O230 O 0.07511 0.86498 0.77219 0.0
O231 O 0.17106 0.89402 0.75832 0.0
H232 H -0.02394 0.82224 0.89153 0.0
H233 H 0.89402 0.75299 0.9221 0.0
H234 H 0.79017 0.66119 0.84572 0.0
H235 H 0.87197 0.73248 0.81518 0.0
H236 H 0.44914 0.00516 0.79164 0.0
H237 H 0.521 0.06674 0.7544 0.0
H238 H 0.37387 0.0282 0.69617 0.0
H239 H 0.30253 0.96664 0.73339 0.0
H240 H 0.94668 0.04507 1.07019 0.0
H241 H 0.88326 0.899 1.13068 0.0
H242 H 0.01637 0.01692 1.05064 0.0
H243 H 0.9551 0.87273 1.11078 0.0
H244 H 0.10457 0.03859 0.16859 0.0
H245 H 0.01831 0.96335 0.14343 0.0
H246 H 0.11076 0.02334 1.0614 0.0
H247 H 0.19827 0.09996 1.0873 0.0
C248 C 0.94641 0.00587 1.07871 0.0
C249 C 0.91511 0.97821 1.10411 0.0
C250 C -0.01442 -0.01129 1.06716 0.0
C251 C -0.00111 0.95186 1.08428 0.0
C252 C 0.95076 0.90801 1.10043 0.0
C253 C 0.91052 0.92382 1.11241 0.0
C254 C 0.10644 0.03621 0.14517 0.0
C255 C 0.1579 0.07595 1.13002 0.0
C256 C 0.05724 -0.00843 1.13052 0.0
C257 C 0.05716 -0.01387 1.09998 0.0
C258 C 0.10925 0.02564 1.08482 0.0
C259 C 0.1588 0.07046 1.09963 0.0
H260 H 0.02199 0.95423 0.40687 0.0
H261 H 0.06925 0.88342 0.48062 0.0
H262 H 0.12665 0.0239 0.39868 0.0
H263 H 0.17475 0.9544 0.47223 0.0
H264 H 0.17166 0.12125 0.51621 0.0
H265 H 0.1576 0.02852 0.49635 0.0
H266 H 0.21297 0.1107 0.41188 0.0
H267 H 0.22349 0.2025 0.43185 0.0
C268 C 0.05514 0.952 0.42058 0.0
C269 C 0.03828 0.91839 0.44607 0.0
C270 C 0.11562 -0.00851 0.41576 0.0
C271 C 0.15644 0.001 0.43835 0.0
C272 C 0.14208 0.95213 0.45663 0.0
C273 C 0.08153 0.912 0.46178 0.0
C274 C 0.18 0.11905 0.49334 0.0
C275 C 0.19607 0.16821 0.47542 0.0
C276 C 0.17384 0.06628 0.48191 0.0
C277 C 0.18373 0.06132 0.4521 0.0
C278 C 0.20409 0.11229 0.43471 0.0
C279 C 0.20897 0.16467 0.44609 0.0
H280 H 0.16795 0.10606 0.81849 0.0
H281 H 0.15509 -0.00412 0.74501 0.0
H282 H 0.10661 0.13839 0.79256 0.0
H283 H 0.08586 0.02071 0.72123 0.0
H284 H 0.93491 0.03948 0.80803 0.0
H285 H -0.00867 -0.00053 0.78395 0.0
H286 H 0.05167 0.13874 0.72012 0.0
H287 H -0.01316 0.17202 0.741 0.0
C288 C 0.15463 0.09109 0.79632 0.0
C289 C 0.16242 0.04543 0.78455 0.0
C290 C 0.11934 0.10926 0.78145 0.0
C291 C 0.08945 0.07916 0.75579 0.0
C292 C 0.10748 0.04326 0.7413 0.0
C293 C 0.14651 0.0286 0.75526 0.0
C294 C 0.95533 0.05785 0.7873 0.0
C295 C 0.96099 0.11171 0.77767 0.0
C296 C -0.01229 0.03501 0.77338 0.0
C297 C 0.02874 0.06921 0.75167 0.0
C298 C 0.02179 0.11307 0.73751 0.0
C299 C -0.01465 0.13272 0.74999 0.0
H300 H 0.52856 0.43306 1.00879 0.0
H301 H 0.47208 0.54632 1.05116 0.0
H302 H 0.51325 0.46526 0.96212 0.0
H303 H 0.46211 0.58313 1.00436 0.0
H304 H 0.30291 0.48619 0.93901 0.0
H305 H 0.37696 0.52634 0.97719 0.0
H306 H 0.50447 0.51168 0.92162 0.0
H307 H 0.42777 0.46652 0.88405 0.0
C308 C 0.51504 0.46667 1.00815 0.0
C309 C 0.49736 0.48378 1.03356 0.0
C310 C 0.50706 0.4861 0.9812 0.0
C311 C 0.48233 0.52395 0.97932 0.0
C312 C 0.47766 0.55109 1.00499 0.0
C313 C 0.48414 0.53044 1.03197 0.0
C314 C 0.3469 0.49195 0.93482 0.0
C315 C 0.35839 0.47045 0.90903 0.0
C316 C 0.39029 0.5164 0.95662 0.0
C317 C 0.44668 0.52059 0.95305 0.0
C318 C 0.46092 0.50712 0.9256 0.0
C319 C 0.41696 0.48162 0.9039 0.0
H320 H 0.13257 0.53174 0.35336 0.0
H321 H 0.96649 0.45185 0.40098 0.0
H322 H 0.07769 0.51704 0.30866 0.0
H323 H 0.91194 0.4423 0.35653 0.0
H324 H -0.01604 0.43373 0.23069 0.0
H325 H 0.01334 0.5047 0.27082 0.0
H326 H 0.89177 0.36165 0.32688 0.0
H327 H 0.85994 0.29263 0.28654 0.0
C328 C 0.08448 0.51318 0.35445 0.0
C329 C 0.05356 0.48868 0.38038 0.0
C330 C 0.05273 0.50547 0.3287 0.0
C331 C -0.01038 0.47425 0.32871 0.0
C332 C 0.96028 0.4631 0.35558 0.0
C333 C -0.00812 0.4693 0.38126 0.0
C334 C 0.96191 0.41805 0.25136 0.0
C335 C 0.92113 0.35703 0.25573 0.0
C336 C -0.0209 0.45876 0.27447 0.0
C337 C 0.95661 0.439 0.30249 0.0
C338 C 0.91061 0.37926 0.30584 0.0
C339 C 0.89301 0.33893 0.28273 0.0
H340 H 0.71022 0.21857 0.6687 0.0
H341 H 0.61119 0.05899 0.71958 0.0
H342 H 0.68087 0.15899 0.62481 0.0
H343 H 0.57819 -0.00079 0.6754 0.0
H344 H 0.67643 0.05624 0.55188 0.0
H345 H 0.63077 0.09081 0.58753 0.0
H346 H 0.64415 0.97586 0.65157 0.0
H347 H 0.68548 0.93856 0.61553 0.0
C348 C 0.68012 0.17086 0.67038 0.0
C349 C 0.66587 0.1431 0.69758 0.0
C350 C 0.66245 0.13643 0.64508 0.0
C351 C 0.62974 0.07364 0.64664 0.0
C352 C 0.60581 0.04724 0.67357 0.0
C353 C 0.62429 0.08167 0.69894 0.0
C354 C 0.6674 0.03662 0.57327 0.0
C355 C 0.68648 -0.00393 0.58117 0.0
C356 C 0.64155 0.05683 0.59381 0.0
C357 C 0.63528 0.03769 0.62275 0.0
C358 C 0.64811 -0.00797 0.62962 0.0
C359 C 0.67315 0.97134 0.60904 0.0
H360 H 0.6499 0.60922 1.04435 0.0
H361 H 0.60771 0.72181 0.99196 0.0
H362 H 0.6693 0.56843 1.00068 0.0
H363 H 0.63049 0.68431 0.9486 0.0
H364 H 0.83593 0.65334 0.93914 0.0
H365 H 0.75873 0.62087 0.97544 0.0
H366 H 0.63698 0.6259 0.91202 0.0
H367 H 0.71641 0.66324 0.8762 0.0
C368 C 0.64293 0.62396 1.02348 0.0
C369 C 0.63008 0.67079 1.02153 0.0
C370 C 0.65462 0.60095 0.99841 0.0
C371 C 0.6547 0.62526 0.97113 0.0
C372 C 0.6321 0.6649 0.9691 0.0
C373 C 0.61976 0.68729 0.99409 0.0
C374 C 0.79244 0.64676 0.93281 0.0
C375 C 0.78333 0.66357 0.90518 0.0
C376 C 0.74737 0.62687 0.95356 0.0
C377 C 0.69185 0.62268 0.94703 0.0
C378 C 0.67987 0.63067 0.9181 0.0
C379 C 0.72541 0.65161 0.89743 0.0
H380 H 0.09091 0.65915 0.39468 0.0
H381 H 0.94923 0.60734 0.33135 0.0
H382 H 0.16367 0.6864 0.35579 0.0
H383 H 0.02201 0.63578 0.2925 0.0
H384 H 0.24617 0.84843 0.28965 0.0
H385 H 0.19274 0.77776 0.32772 0.0
H386 H 0.10389 0.63691 0.264 0.0
H387 H 0.15883 0.70794 0.22552 0.0
C388 C 0.0749 0.65136 0.37246 0.0
C389 C 0.0147 0.63299 0.36599 0.0
C390 C 0.1167 0.66735 0.35019 0.0
C391 C 0.09889 0.66507 0.32115 0.0
C392 C 0.03739 0.63859 0.31464 0.0
C393 C -0.00435 0.62279 0.33691 0.0
C394 C 0.21731 0.80201 0.28367 0.0
C395 C 0.20588 0.78429 0.25442 0.0
C396 C 0.18655 0.7612 0.30563 0.0
C397 C 0.1434 0.7018 0.29885 0.0
C398 C 0.13623 0.68261 0.26982 0.0
C399 C 0.16744 0.72342 0.24782 0.0
H400 H 0.456 0.03824 0.66389 0.0
H401 H 0.54466 0.16522 0.73343 0.0
H402 H 0.50534 0.11732 0.62867 0.0
H403 H 0.5962 0.24455 0.6981 0.0
H404 H 0.57258 0.2555 0.56697 0.0
H405 H 0.58642 0.19555 0.60335 0.0
H406 H 0.55245 0.2916 0.67083 0.0
H407 H 0.54259 0.35404 0.63462 0.0
C408 C 0.48745 0.08289 0.67156 0.0
C409 C 0.4951 0.09594 0.70134 0.0
C410 C 0.51651 0.12831 0.65136 0.0
C411 C 0.5538 0.18781 0.66057 0.0
C412 C 0.56663 0.1995 0.69033 0.0
C413 C 0.53745 0.15394 0.71056 0.0
C414 C 0.57091 0.26588 0.58961 0.0
C415 C 0.55454 0.30841 0.59787 0.0
C416 C 0.57821 0.2309 0.61048 0.0
C417 C 0.56841 0.23721 0.63993 0.0
C418 C 0.55997 0.28502 0.64836 0.0
C419 C 0.55343 0.32045 0.62753 0.0
H420 H 0.55492 0.23078 1.13735 0.0
H421 H 0.42588 0.08374 0.18847 0.0
H422 H 0.62856 0.19995 0.14635 0.0
H423 H 0.49599 0.04723 0.19424 0.0
H424 H 0.63688 -0.0054 0.20627 0.0
H425 H 0.5782 0.04536 0.21069 0.0
H426 H 0.64923 0.13224 1.12844 0.0
H427 H 0.71055 0.08654 1.12583 0.0
C428 C 0.54215 0.19112 0.15013 0.0
C429 C 0.48428 0.1583 0.16135 0.0
C430 C 0.58406 0.17283 0.15508 0.0
C431 C 0.56798 0.11937 0.17003 0.0
C432 C 0.51066 0.08847 0.18259 0.0
C433 C 0.46976 0.10864 0.17882 0.0
C434 C 0.64023 0.02549 0.18956 0.0
C435 C 0.67797 0.03664 0.16575 0.0
C436 C 0.60635 0.05431 0.19188 0.0
C437 C 0.6085 0.09339 0.16994 0.0
C438 C 0.64716 0.10442 0.14637 0.0
C439 C 0.68204 0.07731 0.1446 0.0
H440 H 0.41018 0.47212 0.52776 0.0
H441 H 0.39325 0.56091 0.45232 0.0
H442 H 0.51414 0.54808 0.53303 0.0
H443 H 0.49577 0.64172 0.45939 0.0
H444 H 0.69851 0.73323 0.45459 0.0
H445 H 0.59133 0.66804 0.45248 0.0
H446 H 0.59004 0.63782 0.54494 0.0
H447 H 0.69907 0.69889 0.54595 0.0
C448 C 0.42871 0.50867 0.51249 0.0
C449 C 0.39422 0.50962 0.48906 0.0
C450 C 0.4885 0.55327 0.51581 0.0
C451 C 0.51493 0.60171 0.49649 0.0
C452 C 0.47857 0.60447 0.47418 0.0
C453 C 0.41929 0.55843 0.47022 0.0
C454 C 0.6751 0.71303 0.47452 0.0
C455 C 0.70698 0.72076 0.50043 0.0
C456 C 0.61305 0.67571 0.47343 0.0
C457 C 0.58066 0.64646 0.49848 0.0
C458 C 0.61278 0.65748 0.52486 0.0
C459 C 0.67536 0.69323 0.52568 0.0
H460 H 0.13356 0.465 0.82748 0.0
H461 H 0.95432 0.41721 0.85314 0.0
H462 H 0.16705 0.57028 0.83779 0.0
H463 H -0.01259 0.52205 0.86396 0.0
H464 H 0.04799 0.70983 0.82426 0.0
H465 H 0.01532 0.60419 0.83008 0.0
H466 H 0.18301 0.65042 0.8726 0.0
H467 H 0.21589 0.75651 0.86653 0.0
C468 C 0.10205 0.47698 0.83647 0.0
C469 C 0.04172 0.43352 0.83984 0.0
C470 C 0.12102 0.53714 0.84234 0.0
C471 C 0.07968 0.55462 0.85139 0.0
C472 C 0.02014 0.51016 0.85666 0.0
C473 C 0.00131 0.45018 0.8508 0.0
C474 C 0.07743 0.69742 0.8353 0.0
C475 C 0.13468 0.74131 0.84465 0.0
C476 C 0.05861 0.63687 0.83882 0.0
C477 C 0.09672 0.61883 0.8517 0.0
C478 C 0.15291 0.66289 0.86233 0.0
C479 C 0.17158 0.72358 0.85898 0.0
H480 H 0.30723 0.28045 0.23126 0.0
H481 H 0.31922 0.13338 0.26776 0.0
H482 H 0.3019 0.31519 0.28002 0.0
H483 H 0.31404 0.1682 0.31672 0.0
H484 H 0.35585 0.2755 0.40396 0.0
H485 H 0.36283 0.24132 0.35513 0.0
H486 H 0.24329 0.2999 0.32274 0.0
H487 H 0.23627 0.33371 0.3715 0.0
C488 C 0.30865 0.25511 0.2496 0.0
C489 C 0.31359 0.20347 0.24479 0.0
C490 C 0.30526 0.27514 0.27797 0.0
C491 C 0.3074 0.24515 0.30324 0.0
C492 C 0.31277 0.19365 0.29841 0.0
C493 C 0.31539 0.17315 0.26997 0.0
C494 C 0.33136 0.28174 0.38646 0.0
C495 C 0.29585 0.3084 0.39235 0.0
C496 C 0.3349 0.26134 0.35814 0.0
C497 C 0.30377 0.26723 0.33407 0.0
C498 C 0.26885 0.29461 0.34001 0.0
C499 C 0.26462 0.31415 0.36837 0.0
H500 H 0.10847 0.31443 0.56251 0.0
H501 H 0.26647 0.3285 0.60259 0.0
H502 H 0.06456 0.30755 0.61004 0.0
H503 H 0.22191 0.31954 0.65038 0.0
H504 H 0.15245 0.3489 0.73665 0.0
H505 H 0.19533 0.35708 0.68888 0.0
H506 H 0.0173 0.25984 0.652 0.0
H507 H -0.02546 0.25359 0.70016 0.0
C508 C 0.13402 0.31559 0.58143 0.0
C509 C 0.19172 0.3222 0.57798 0.0
C510 C 0.1083 0.3112 0.60918 0.0
C511 C 0.13863 0.3129 0.63518 0.0
C512 C 0.19635 0.31903 0.63162 0.0
C513 C 0.22221 0.32375 0.6038 0.0
C514 C 0.12203 0.32953 0.71842 0.0
C515 C 0.05939 0.30089 0.72296 0.0
C516 C 0.147 0.33365 0.69056 0.0
C517 C 0.11086 0.30892 0.66547 0.0
C518 C 0.04791 0.28057 0.67001 0.0
C519 C 0.02288 0.27679 0.69801 0.0
H520 H 0.84492 0.19357 0.90578 0.0
H521 H -0.00117 0.17053 0.91548 0.0
H522 H 0.80951 0.14922 0.95395 0.0
H523 H 0.96228 0.12417 0.96291 0.0
H524 H 0.8419 -0.01183 1.03599 0.0
H525 H 0.87249 0.02843 0.98672 0.0
H526 H 0.84458 0.17525 1.00852 0.0
H527 H 0.81664 0.13658 1.05789 0.0
C528 C 0.87116 0.17874 0.91795 0.0
C529 C 0.92526 0.18639 0.90623 0.0
C530 C 0.8508 0.15323 0.94581 0.0
C531 C 0.88254 0.13236 0.96282 0.0
C532 C 0.93593 0.13892 0.95079 0.0
C533 C 0.95719 0.16604 0.92339 0.0
C534 C 0.8416 0.02869 1.03027 0.0
C535 C 0.82614 0.0585 1.05141 0.0
C536 C 0.85971 0.05224 1.00189 0.0
C537 C 0.8613 0.10559 0.99308 0.0
C538 C 0.84386 0.13411 1.01397 0.0
C539 C 0.82768 0.11169 1.04253 0.0
H540 H 0.86037 0.03719 0.25711 0.0
H541 H 0.79068 0.8559 0.22744 0.0
H542 H 0.8723 0.00787 0.30595 0.0
H543 H 0.80204 0.82621 0.27637 0.0
H544 H 0.87211 0.79688 0.36591 0.0
H545 H 0.86298 0.82468 0.31583 0.0
H546 H 0.82562 0.95931 0.34885 0.0
H547 H 0.83506 0.93225 0.39802 0.0
C548 C 0.84729 -0.0091 0.26082 0.0
C549 C 0.82414 0.94941 0.23758 0.0
C550 C 0.85387 0.97361 0.28928 0.0
C551 C 0.83804 0.91392 0.29612 0.0
C552 C 0.81555 0.87262 0.27271 0.0
C553 C 0.80855 0.88984 0.2443 0.0
C554 C 0.86188 0.83235 0.36255 0.0
C555 C 0.85446 0.86175 0.38685 0.0
C556 C 0.85634 0.84847 0.33351 0.0
C557 C 0.84378 0.89518 0.32733 0.0
C558 C 0.83638 0.9241 0.35177 0.0
C559 C 0.84142 0.90785 0.38052 0.0
H560 H -0.01297 0.93239 0.57971 0.0
H561 H 0.93551 0.74615 0.57646 0.0
H562 H 0.03426 0.94197 0.62747 0.0
H563 H -0.01988 0.7551 0.62486 0.0
H564 H 0.00285 0.7907 0.72883 0.0
H565 H 0.96114 0.78037 0.6798 0.0
H566 H 0.12657 0.93137 0.65206 0.0
H567 H 0.16965 0.93978 0.70098 0.0
C568 C -0.01488 0.8931 0.58911 0.0
C569 C 0.95661 0.8383 0.57349 0.0
C570 C 0.01282 0.89877 0.61675 0.0
C571 C 0.01178 0.84948 0.63075 0.0
C572 C -0.0176 0.79446 0.61533 0.0
C573 C 0.95653 0.78927 0.58726 0.0
C574 C 0.03112 0.82134 0.71229 0.0
C575 C 0.09054 0.8657 0.71954 0.0
C576 C 0.00682 0.81538 0.68386 0.0
C577 C 0.03969 0.85493 0.66124 0.0
C578 C 0.09908 0.89978 0.66846 0.0
C579 C 0.12423 0.9044 0.69674 0.0
H580 H 0.29878 0.04722 0.89456 0.0
H581 H 0.13663 0.8999 0.92786 0.0
H582 H 0.32898 0.0873 0.94398 0.0
H583 H 0.16666 0.93951 0.97715 0.0
H584 H 0.25816 -0.00507 1.06776 0.0
H585 H 0.23026 0.95621 1.01822 0.0
H586 H 0.31519 0.13627 0.98587 0.0
H587 H 0.34278 0.17494 1.03565 0.0
C588 C 0.26929 0.02297 0.9123 0.0
C589 C 0.21481 0.96959 0.90638 0.0
C590 C 0.28664 0.04643 0.94104 0.0
C591 C 0.25094 0.01739 0.9656 0.0
C592 C 0.19662 0.96377 0.95957 0.0
C593 C 0.17893 0.94083 0.93084 0.0
C594 C 0.27146 0.02669 1.05021 0.0
C595 C 0.3036 0.08872 1.05654 0.0
C596 C 0.25475 0.00417 1.02136 0.0
C597 C 0.26979 0.04228 0.99699 0.0
C598 C 0.30267 0.10445 1.00333 0.0
C599 C 0.31861 0.127 1.03229 0.0
loop_
_geom_bond_atom_site_label_1
_geom_bond_atom_site_label_2
_geom_bond_distance
_geom_bond_site_symmetry_2
_ccdc_geom_bond_type
Pr0 C2 2.880 . S
Pr0 O20 2.562 . S
Pr0 O21 2.490 . S
Pr0 O22 2.695 1_554 S
Pr0 O23 2.512 . S
Pr0 O25 2.437 . S
Pr0 O28 2.436 . S
Pr0 O30 2.438 1_554 S
Pr1 C11 2.880 . S
Pr1 O22 2.436 . S
Pr1 O24 2.438 1_556 S
Pr1 O26 2.562 . S
Pr1 O27 2.490 . S
Pr1 O28 2.695 1_556 S
Pr1 O29 2.512 . S
Pr1 O31 2.437 . S
C2 Pr0 2.880 . S
C2 C3 1.491 . S
C2 O20 1.254 . S
C2 O21 1.225 . S
C3 C2 1.491 . S
C3 C4 1.392 . S
C3 C8 1.356 . S
C4 C3 1.392 . S
C4 C5 1.368 1_545 S
C4 H32 0.929 . S
C5 C4 1.368 1_565 S
C5 C6 1.386 1_565 S
C5 H33 0.929 . S
C6 C5 1.386 1_545 S
C6 C7 1.373 . S
C7 C6 1.373 . S
C7 C8 1.409 . S
C7 H34 0.931 . S
C8 C3 1.356 . S
C8 C7 1.409 . S
C8 H35 0.930 . S
C9 O22 1.270 1_554 S
C9 O23 1.248 . S
C10 O24 1.267 . S
C10 O25 1.278 . S
C11 Pr1 2.880 . S
C11 C12 1.491 . S
C11 O26 1.254 . S
C11 O27 1.225 . S
C12 C11 1.491 . S
C12 C13 1.392 . S
C12 C17 1.356 . S
C13 C12 1.392 . S
C13 C14 1.368 . S
C13 H36 0.929 . S
C14 C13 1.368 . S
C14 C15 1.386 . S
C14 H37 0.929 . S
C15 C14 1.386 . S
C15 C16 1.373 . S
C16 C15 1.373 . S
C16 C17 1.409 . S
C16 H38 0.931 . S
C17 C12 1.356 . S
C17 C16 1.409 . S
C17 H39 0.930 . S
C18 O28 1.270 . S
C18 O29 1.248 1_554 S
C19 O30 1.267 . S
C19 O31 1.278 . S
O20 Pr0 2.562 . S
O20 C2 1.254 . S
O21 Pr0 2.490 . S
O21 C2 1.225 . S
O22 Pr0 2.695 1_556 S
O22 Pr1 2.436 . S
O22 C9 1.270 1_556 S
O23 Pr0 2.512 . S
O23 C9 1.248 . S
O24 Pr1 2.438 1_554 S
O24 C10 1.267 . S
O25 Pr0 2.437 . S
O25 C10 1.278 . S
O26 Pr1 2.562 . S
O26 C11 1.254 . S
O27 Pr1 2.490 . S
O27 C11 1.225 . S
O28 Pr0 2.436 . S
O28 Pr1 2.695 1_554 S
O28 C18 1.270 . S
O29 Pr1 2.512 . S
O29 C18 1.248 1_556 S
O30 Pr0 2.438 1_556 S
O30 C19 1.267 . S
O31 Pr1 2.437 . S
O31 C19 1.278 . S
H32 C4 0.929 . S
H33 C5 0.929 . S
H34 C7 0.931 . S
H35 C8 0.930 . S
H36 C13 0.929 . S
H37 C14 0.929 . S
H38 C16 0.931 . S
H39 C17 0.930 . S
Pr40 C42 2.880 . S
Pr40 O60 2.562 . S
Pr40 O61 2.490 . S
Pr40 O62 2.695 . S
Pr40 O63 2.512 . S
Pr40 O65 2.437 . S
Pr40 O68 2.436 . S
Pr40 O70 2.438 . S
Pr41 C51 2.880 . S
Pr41 O62 2.436 . S
Pr41 O64 2.438 . S
Pr41 O66 2.562 . S
Pr41 O67 2.490 . S
Pr41 O68 2.695 . S
Pr41 O69 2.512 . S
Pr41 O71 2.437 . S
C42 Pr40 2.880 . S
C42 C43 1.491 . S
C42 O60 1.254 . S
C42 O61 1.225 . S
C43 C42 1.491 . S
C43 C44 1.392 . S
C43 C48 1.356 . S
C44 C43 1.392 . S
C44 C45 1.368 . S
C44 H72 0.929 . S
C45 C44 1.368 . S
C45 C46 1.386 . S
C45 H73 0.929 . S
C46 C45 1.386 . S
C46 C47 1.373 . S
C47 C46 1.373 . S
C47 C48 1.409 . S
C47 H74 0.931 . S
C48 C43 1.356 . S
C48 C47 1.409 . S
C48 H75 0.930 . S
C49 O62 1.270 . S
C49 O63 1.248 . S
C50 O64 1.267 . S
C50 O65 1.278 . S
C51 Pr41 2.880 . S
C51 C52 1.491 . S
C51 O66 1.254 . S
C51 O67 1.225 . S
C52 C51 1.491 . S
C52 C53 1.392 . S
C52 C57 1.356 . S
C53 C52 1.392 . S
C53 C54 1.368 . S
C53 H76 0.929 . S
C54 C53 1.368 . S
C54 C55 1.386 . S
C54 H77 0.929 . S
C55 C54 1.386 . S
C55 C56 1.373 . S
C56 C55 1.373 . S
C56 C57 1.409 . S
C56 H78 0.931 . S
C57 C52 1.356 . S
C57 C56 1.409 . S
C57 H79 0.930 . S
C58 O68 1.270 . S
C58 O69 1.248 . S
C59 O70 1.267 . S
C59 O71 1.278 . S
O60 Pr40 2.562 . S
O60 C42 1.254 . S
O61 Pr40 2.490 . S
O61 C42 1.225 . S
O62 Pr40 2.695 . S
O62 Pr41 2.436 . S
O62 C49 1.270 . S
O63 Pr40 2.512 . S
O63 C49 1.248 . S
O64 Pr41 2.438 . S
O64 C50 1.267 . S
O65 Pr40 2.437 . S
O65 C50 1.278 . S
O66 Pr41 2.562 . S
O66 C51 1.254 . S
O67 Pr41 2.490 . S
O67 C51 1.225 . S
O68 Pr40 2.436 . S
O68 Pr41 2.695 . S
O68 C58 1.270 . S
O69 Pr41 2.512 . S
O69 C58 1.248 . S
O70 Pr40 2.438 . S
O70 C59 1.267 . S
O71 Pr41 2.437 . S
O71 C59 1.278 . S
H72 C44 0.929 . S
H73 C45 0.929 . S
H74 C47 0.931 . S
H75 C48 0.930 . S
H76 C53 0.929 . S
H77 C54 0.929 . S
H78 C56 0.931 . S
H79 C57 0.930 . S
Pr80 C82 2.880 . S
Pr80 O100 2.562 . S
Pr80 O101 2.490 . S
Pr80 O102 2.695 . S
Pr80 O103 2.512 . S
Pr80 O105 2.437 1_455 S
Pr80 O108 2.436 . S
Pr80 O110 2.438 . S
Pr81 C91 2.880 . S
Pr81 O102 2.436 1_655 S
Pr81 O104 2.438 . S
Pr81 O106 2.562 . S
Pr81 O107 2.490 . S
Pr81 O108 2.695 1_655 S
Pr81 O109 2.512 . S
Pr81 O111 2.437 1_655 S
C82 Pr80 2.880 . S
C82 C83 1.491 . S
C82 O100 1.254 . S
C82 O101 1.225 . S
C83 C82 1.491 . S
C83 C84 1.392 . S
C83 C88 1.356 . S
C84 C83 1.392 . S
C84 C85 1.368 . S
C84 H112 0.929 . S
C85 C84 1.368 . S
C85 C86 1.386 . S
C85 H113 0.929 . S
C86 C85 1.386 . S
C86 C87 1.373 . S
C87 C86 1.373 . S
C87 C88 1.409 . S
C87 H114 0.931 . S
C88 C83 1.356 . S
C88 C87 1.409 . S
C88 H115 0.930 . S
C89 O102 1.270 . S
C89 O103 1.248 . S
C90 O104 1.267 . S
C90 O105 1.278 . S
C91 Pr81 2.880 . S
C91 C92 1.491 . S
C91 O106 1.254 . S
C91 O107 1.225 . S
C92 C91 1.491 . S
C92 C93 1.392 . S
C92 C97 1.356 . S
C93 C92 1.392 . S
C93 C94 1.368 . S
C93 H116 0.929 . S
C94 C93 1.368 . S
C94 C95 1.386 . S
C94 H117 0.929 . S
C95 C94 1.386 . S
C95 C96 1.373 . S
C96 C95 1.373 . S
C96 C97 1.409 . S
C96 H118 0.931 . S
C97 C92 1.356 . S
C97 C96 1.409 . S
C97 H119 0.930 . S
C98 O108 1.270 1_655 S
C98 O109 1.248 . S
C99 O110 1.267 . S
C99 O111 1.278 . S
O100 Pr80 2.562 . S
O100 C82 1.254 . S
O101 Pr80 2.490 . S
O101 C82 1.225 . S
O102 Pr80 2.695 . S
O102 Pr81 2.436 1_455 S
O102 C89 1.270 . S
O103 Pr80 2.512 . S
O103 C89 1.248 . S
O104 Pr81 2.438 . S
O104 C90 1.267 . S
O105 Pr80 2.437 1_655 S
O105 C90 1.278 . S
O106 Pr81 2.562 . S
O106 C91 1.254 . S
O107 Pr81 2.490 . S
O107 C91 1.225 . S
O108 Pr80 2.436 . S
O108 Pr81 2.695 1_455 S
O108 C98 1.270 1_455 S
O109 Pr81 2.512 . S
O109 C98 1.248 . S
O110 Pr80 2.438 . S
O110 C99 1.267 . S
O111 Pr81 2.437 1_455 S
O111 C99 1.278 . S
H112 C84 0.929 . S
H113 C85 0.929 . S
H114 C87 0.931 . S
H115 C88 0.930 . S
H116 C93 0.929 . S
H117 C94 0.929 . S
H118 C96 0.931 . S
H119 C97 0.930 . S
Pr120 C122 2.880 . S
Pr120 O140 2.562 . S
Pr120 O141 2.490 . S
Pr120 O142 2.695 1_554 S
Pr120 O143 2.512 . S
Pr120 O145 2.434 1_545 S
Pr120 O148 2.436 . S
Pr120 O150 2.438 1_554 S
Pr121 C131 2.880 . S
Pr121 O142 2.436 1_565 S
Pr121 O144 2.438 1_556 S
Pr121 O146 2.562 . S
Pr121 O147 2.490 . S
Pr121 O148 2.695 1_566 S
Pr121 O149 2.512 . S
Pr121 O151 2.437 1_565 S
C122 Pr120 2.880 . S
C122 C123 1.491 . S
C122 O140 1.254 . S
C122 O141 1.225 . S
C123 C122 1.491 . S
C123 C124 1.392 . S
C123 C128 1.356 . S
C124 C123 1.392 . S
C124 C125 1.368 . S
C124 H152 0.929 . S
C125 C124 1.368 . S
C125 C126 1.386 . S
C125 H153 0.929 . S
C126 C125 1.386 . S
C126 C127 1.373 . S
C127 C126 1.373 . S
C127 C128 1.409 . S
C127 H154 0.931 . S
C128 C123 1.356 . S
C128 C127 1.409 . S
C128 H155 0.930 . S
C129 O142 1.270 1_554 S
C129 O143 1.248 . S
C130 O144 1.267 . S
C130 O145 1.281 . S
C131 Pr121 2.880 . S
C131 C132 1.491 . S
C131 O146 1.254 . S
C131 O147 1.225 . S
C132 C131 1.491 . S
C132 C133 1.392 . S
C132 C137 1.356 . S
C133 C132 1.392 . S
C133 C134 1.368 . S
C133 H156 0.929 . S
C134 C133 1.368 . S
C134 C135 1.386 . S
C134 H157 0.929 . S
C135 C134 1.386 . S
C135 C136 1.373 . S
C136 C135 1.373 . S
C136 C137 1.409 . S
C136 H158 0.931 . S
C137 C132 1.356 . S
C137 C136 1.409 . S
C137 H159 0.930 . S
C138 O148 1.270 1_565 S
C138 O149 1.248 1_554 S
C139 O150 1.267 . S
C139 O151 1.278 . S
O140 Pr120 2.562 . S
O140 C122 1.254 . S
O141 Pr120 2.490 . S
O141 C122 1.225 . S
O142 Pr120 2.695 1_556 S
O142 Pr121 2.436 1_545 S
O142 C129 1.270 1_556 S
O143 Pr120 2.512 . S
O143 C129 1.248 . S
O144 Pr121 2.438 1_554 S
O144 C130 1.267 . S
O145 Pr120 2.434 1_565 S
O145 C130 1.281 . S
O146 Pr121 2.562 . S
O146 C131 1.254 . S
O147 Pr121 2.490 . S
O147 C131 1.225 . S
O148 Pr120 2.436 . S
O148 Pr121 2.695 1_544 S
O148 C138 1.270 1_545 S
O149 Pr121 2.512 . S
O149 C138 1.248 1_556 S
O150 Pr120 2.438 1_556 S
O150 C139 1.267 . S
O151 Pr121 2.437 1_545 S
O151 C139 1.278 . S
H152 C124 0.929 . S
H153 C125 0.929 . S
H154 C127 0.931 . S
H155 C128 0.930 . S
H156 C133 0.929 . S
H157 C134 0.929 . S
H158 C136 0.931 . S
H159 C137 0.930 . S
Pr160 C162 2.880 . S
Pr160 O180 2.562 . S
Pr160 O181 2.490 . S
Pr160 O182 2.695 . S
Pr160 O183 2.512 . S
Pr160 O185 2.437 . S
Pr160 O188 2.436 . S
Pr160 O190 2.438 . S
Pr161 C171 2.880 . S
Pr161 O182 2.436 . S
Pr161 O184 2.438 . S
Pr161 O186 2.562 1_655 S
Pr161 O187 2.490 . S
Pr161 O188 2.695 . S
Pr161 O189 2.512 . S
Pr161 O191 2.437 . S
C162 Pr160 2.880 . S
C162 C163 1.491 . S
C162 O180 1.254 . S
C162 O181 1.225 . S
C163 C162 1.491 . S
C163 C164 1.392 . S
C163 C168 1.356 . S
C164 C163 1.392 . S
C164 C165 1.368 . S
C164 H192 0.929 . S
C165 C164 1.368 . S
C165 C166 1.386 . S
C165 H193 0.929 . S
C166 C165 1.386 . S
C166 C167 1.373 . S
C167 C166 1.373 . S
C167 C168 1.409 . S
C167 H194 0.931 . S
C168 C163 1.356 . S
C168 C167 1.409 . S
C168 H195 0.930 . S
C169 O182 1.270 1_455 S
C169 O183 1.248 1_455 S
C170 O184 1.267 . S
C170 O185 1.278 . S
C171 Pr161 2.880 . S
C171 C172 1.491 1_655 S
C171 O186 1.254 1_655 S
C171 O187 1.225 . S
C172 C171 1.491 1_455 S
C172 C173 1.392 1_455 S
C172 C177 1.356 . S
C173 C172 1.392 1_655 S
C173 C174 1.368 1_655 S
C173 H196 0.929 . S
C174 C173 1.368 1_455 S
C174 C175 1.386 . S
C174 H197 0.929 1_455 S
C175 C174 1.386 . S
C175 C176 1.373 . S
C176 C175 1.373 . S
C176 C177 1.409 . S
C176 H198 0.931 . S
C177 C172 1.356 . S
C177 C176 1.409 . S
C177 H199 0.930 . S
C178 O188 1.270 . S
C178 O189 1.248 . S
C179 O190 1.267 . S
C179 O191 1.278 . S
O180 Pr160 2.562 . S
O180 C162 1.254 . S
O181 Pr160 2.490 . S
O181 C162 1.225 . S
O182 Pr160 2.695 . S
O182 Pr161 2.436 . S
O182 C169 1.270 1_655 S
O183 Pr160 2.512 . S
O183 C169 1.248 1_655 S
O184 Pr161 2.438 . S
O184 C170 1.267 . S
O185 Pr160 2.437 . S
O185 C170 1.278 . S
O186 Pr161 2.562 1_455 S
O186 C171 1.254 1_455 S
O187 Pr161 2.490 . S
O187 C171 1.225 . S
O188 Pr160 2.436 . S
O188 Pr161 2.695 . S
O188 C178 1.270 . S
O189 Pr161 2.512 . S
O189 C178 1.248 . S
O190 Pr160 2.438 . S
O190 C179 1.267 . S
O191 Pr161 2.437 . S
O191 C179 1.278 . S
H192 C164 0.929 . S
H193 C165 0.929 . S
H194 C167 0.931 . S
H195 C168 0.930 . S
H196 C173 0.929 . S
H197 C174 0.929 1_655 S
H198 C176 0.931 . S
H199 C177 0.930 . S
Pr200 C202 2.880 . S
Pr200 O220 2.562 . S
Pr200 O221 2.490 . S
Pr200 O222 2.695 . S
Pr200 O223 2.512 . S
Pr200 O225 2.437 . S
Pr200 O228 2.436 . S
Pr200 O230 2.438 . S
Pr201 C211 2.880 . S
Pr201 O222 2.436 . S
Pr201 O224 2.438 . S
Pr201 O226 2.562 1_565 S
Pr201 O227 2.490 . S
Pr201 O228 2.695 . S
Pr201 O229 2.512 . S
Pr201 O231 2.437 . S
C202 Pr200 2.880 . S
C202 C203 1.491 . S
C202 O220 1.254 . S
C202 O221 1.225 . S
C203 C202 1.491 . S
C203 C204 1.392 . S
C203 C208 1.356 . S
C204 C203 1.392 . S
C204 C205 1.368 1_455 S
C204 H232 0.929 . S
C205 C204 1.368 1_655 S
C205 C206 1.386 1_655 S
C205 H233 0.929 . S
C206 C205 1.386 1_455 S
C206 C207 1.373 . S
C207 C206 1.373 . S
C207 C208 1.409 . S
C207 H234 0.931 . S
C208 C203 1.356 . S
C208 C207 1.409 . S
C208 H235 0.930 . S
C209 O222 1.270 1_545 S
C209 O223 1.248 1_545 S
C210 O224 1.267 . S
C210 O225 1.278 . S
C211 Pr201 2.880 . S
C211 C212 1.491 1_565 S
C211 O226 1.254 1_565 S
C211 O227 1.225 . S
C212 C211 1.491 1_545 S
C212 C213 1.392 1_545 S
C212 C217 1.356 . S
C213 C212 1.392 1_565 S
C213 C214 1.368 1_565 S
C213 H236 0.929 . S
C214 C213 1.368 1_545 S
C214 C215 1.386 . S
C214 H237 0.929 1_545 S
C215 C214 1.386 . S
C215 C216 1.373 . S
C216 C215 1.373 . S
C216 C217 1.409 . S
C216 H238 0.931 . S
C217 C212 1.356 . S
C217 C216 1.409 . S
C217 H239 0.930 . S
C218 O228 1.270 . S
C218 O229 1.248 . S
C219 O230 1.267 . S
C219 O231 1.278 . S
O220 Pr200 2.562 . S
O220 C202 1.254 . S
O221 Pr200 2.490 . S
O221 C202 1.225 . S
O222 Pr200 2.695 . S
O222 Pr201 2.436 . S
O222 C209 1.270 1_565 S
O223 Pr200 2.512 . S
O223 C209 1.248 1_565 S
O224 Pr201 2.438 . S
O224 C210 1.267 . S
O225 Pr200 2.437 . S
O225 C210 1.278 . S
O226 Pr201 2.562 1_545 S
O226 C211 1.254 1_545 S
O227 Pr201 2.490 . S
O227 C211 1.225 . S
O228 Pr200 2.436 . S
O228 Pr201 2.695 . S
O228 C218 1.270 . S
O229 Pr201 2.512 . S
O229 C218 1.248 . S
O230 Pr200 2.438 . S
O230 C219 1.267 . S
O231 Pr201 2.437 . S
O231 C219 1.278 . S
H232 C204 0.929 . S
H233 C205 0.929 . S
H234 C207 0.931 . S
H235 C208 0.930 . S
H236 C213 0.929 . S
H237 C214 0.929 1_565 S
H238 C216 0.931 . S
H239 C217 0.930 . S
H240 C248 0.950 . S
H241 C253 0.950 . S
H242 C250 0.950 . S
H243 C252 0.950 . S
H244 C254 0.950 . S
H245 C256 0.950 . S
H246 C258 0.950 . S
H247 C259 0.950 . S
C248 H240 0.950 . S
C248 C249 1.360 1_566 S
C248 C250 1.391 1_665 S
C249 C248 1.360 1_544 S
C249 C253 1.419 . S
C250 H242 0.950 . S
C250 C248 1.391 1_445 S
C250 C251 1.400 1_556 S
C251 C250 1.400 1_554 S
C251 C252 1.398 . S
C251 C257 1.491 . S
C252 H243 0.950 . S
C252 C251 1.398 . S
C252 C253 1.391 1_455 S
C253 H241 0.950 . S
C253 C249 1.419 . S
C253 C252 1.391 1_655 S
C254 H244 0.950 . S
C254 C255 1.386 . S
C254 C256 1.391 . S
C255 C254 1.386 . S
C255 C259 1.393 1_554 S
C256 H245 0.950 . S
C256 C254 1.391 . S
C256 C257 1.400 . S
C257 C251 1.491 . S
C257 C256 1.400 . S
C257 C258 1.398 1_554 S
C258 H246 0.950 . S
C258 C257 1.398 1_556 S
C258 C259 1.391 . S
C259 H247 0.950 . S
C259 C255 1.393 1_556 S
C259 C258 1.391 . S
H260 C268 0.950 . S
H261 C273 0.950 1_655 S
H262 C270 0.950 . S
H263 C272 0.950 . S
H264 C274 0.950 . S
H265 C276 0.950 . S
H266 C278 0.950 . S
H267 C279 0.950 . S
C268 H260 0.950 . S
C268 C269 1.386 . S
C268 C270 1.391 1_565 S
C269 C268 1.386 . S
C269 C273 1.393 . S
C270 H262 0.950 . S
C270 C268 1.391 1_545 S
C270 C271 1.400 . S
C271 C270 1.400 . S
C271 C272 1.398 . S
C271 C277 1.491 . S
C272 H263 0.950 . S
C272 C271 1.398 . S
C272 C273 1.391 1_545 S
C273 H261 0.950 1_455 S
C273 C269 1.393 . S
C273 C272 1.391 1_565 S
C274 H264 0.950 . S
C274 C275 1.386 . S
C274 C276 1.391 . S
C275 C274 1.386 . S
C275 C279 1.393 . S
C276 H265 0.950 . S
C276 C274 1.391 . S
C276 C277 1.400 . S
C277 C271 1.491 . S
C277 C276 1.400 . S
C277 C278 1.398 . S
C278 H266 0.950 . S
C278 C277 1.398 . S
C278 C279 1.391 . S
C279 H267 0.950 . S
C279 C275 1.393 . S
C279 C278 1.391 . S
H280 C288 0.950 . S
H281 C293 0.950 . S
H282 C290 0.950 . S
H283 C292 0.950 . S
H284 C294 0.950 . S
H285 C296 0.950 . S
H286 C298 0.950 . S
H287 C299 0.950 . S
C288 H280 0.950 . S
C288 C289 1.386 . S
C288 C290 1.391 . S
C289 C288 1.386 . S
C289 C293 1.393 1_545 S
C290 H282 0.950 . S
C290 C288 1.391 . S
C290 C291 1.400 . S
C291 C290 1.400 . S
C291 C292 1.398 . S
C291 C297 1.491 . S
C292 H283 0.950 . S
C292 C291 1.398 . S
C292 C293 1.391 1_545 S
C293 H281 0.950 . S
C293 C289 1.393 1_565 S
C293 C292 1.391 1_565 S
C294 H284 0.950 . S
C294 C295 1.386 1_655 S
C294 C296 1.391 1_655 S
C295 C294 1.386 1_455 S
C295 C299 1.393 . S
C296 H285 0.950 . S
C296 C294 1.391 1_455 S
C296 C297 1.400 . S
C297 C291 1.491 . S
C297 C296 1.400 . S
C297 C298 1.398 . S
C298 H286 0.950 . S
C298 C297 1.398 . S
C298 C299 1.391 . S
C299 H287 0.950 . S
C299 C295 1.393 . S
C299 C298 1.391 . S
H300 C308 0.950 . S
H301 C313 0.950 . S
H302 C310 0.950 . S
H303 C312 0.950 . S
H304 C314 0.950 . S
H305 C316 0.950 . S
H306 C318 0.950 . S
H307 C319 0.950 . S
C308 H300 0.950 . S
C308 C309 1.386 . S
C308 C310 1.391 . S
C309 C308 1.386 . S
C309 C313 1.393 . S
C310 H302 0.950 . S
C310 C308 1.391 . S
C310 C311 1.400 . S
C311 C310 1.400 . S
C311 C312 1.398 . S
C311 C317 1.491 . S
C312 H303 0.950 . S
C312 C311 1.398 . S
C312 C313 1.391 . S
C313 H301 0.950 . S
C313 C309 1.393 . S
C313 C312 1.391 . S
C314 H304 0.950 . S
C314 C315 1.386 . S
C314 C316 1.391 . S
C315 C314 1.386 . S
C315 C319 1.393 . S
C316 H305 0.950 . S
C316 C314 1.391 . S
C316 C317 1.400 . S
C317 C311 1.491 . S
C317 C316 1.400 . S
C317 C318 1.398 . S
C318 H306 0.950 . S
C318 C317 1.398 . S
C318 C319 1.391 . S
C319 H307 0.950 . S
C319 C315 1.393 . S
C319 C318 1.391 . S
H320 C328 0.950 . S
H321 C333 0.950 . S
H322 C330 0.950 . S
H323 C332 0.950 . S
H324 C334 0.950 . S
H325 C336 0.950 . S
H326 C338 0.950 1_455 S
H327 C339 0.950 . S
C328 H320 0.950 . S
C328 C329 1.386 . S
C328 C330 1.391 . S
C329 C328 1.386 . S
C329 C333 1.393 . S
C330 H322 0.950 . S
C330 C328 1.391 . S
C330 C331 1.400 . S
C331 C330 1.400 . S
C331 C332 1.398 . S
C331 C337 1.491 1_455 S
C332 H323 0.950 . S
C332 C331 1.398 . S
C332 C333 1.391 . S
C333 H321 0.950 . S
C333 C329 1.393 . S
C333 C332 1.391 . S
C334 H324 0.950 . S
C334 C335 1.386 . S
C334 C336 1.391 . S
C335 C334 1.386 . S
C335 C339 1.393 . S
C336 H325 0.950 . S
C336 C334 1.391 . S
C336 C337 1.400 . S
C337 C331 1.491 1_655 S
C337 C336 1.400 . S
C337 C338 1.398 . S
C338 H326 0.950 1_655 S
C338 C337 1.398 . S
C338 C339 1.391 . S
C339 H327 0.950 . S
C339 C335 1.393 . S
C339 C338 1.391 . S
H340 C348 0.950 . S
H341 C353 0.950 . S
H342 C350 0.950 . S
H343 C352 0.950 . S
H344 C354 0.950 . S
H345 C356 0.950 . S
H346 C358 0.950 1_545 S
H347 C359 0.950 . S
C348 H340 0.950 . S
C348 C349 1.386 . S
C348 C350 1.391 . S
C349 C348 1.386 . S
C349 C353 1.393 . S
C350 H342 0.950 . S
C350 C348 1.391 . S
C350 C351 1.400 . S
C351 C350 1.400 . S
C351 C352 1.398 . S
C351 C357 1.491 1_545 S
C352 H343 0.950 . S
C352 C351 1.398 . S
C352 C353 1.391 . S
C353 H341 0.950 . S
C353 C349 1.393 . S
C353 C352 1.391 . S
C354 H344 0.950 . S
C354 C355 1.386 . S
C354 C356 1.391 . S
C355 C354 1.386 . S
C355 C359 1.393 . S
C356 H345 0.950 . S
C356 C354 1.391 . S
C356 C357 1.400 . S
C357 C351 1.491 1_565 S
C357 C356 1.400 . S
C357 C358 1.398 . S
C358 H346 0.950 1_565 S
C358 C357 1.398 . S
C358 C359 1.391 . S
C359 H347 0.950 . S
C359 C355 1.393 . S
C359 C358 1.391 . S
H360 C368 0.950 . S
H361 C373 0.950 . S
H362 C370 0.950 . S
H363 C372 0.950 . S
H364 C374 0.950 . S
H365 C376 0.950 . S
H366 C378 0.950 . S
H367 C379 0.950 . S
C368 H360 0.950 . S
C368 C369 1.386 . S
C368 C370 1.391 . S
C369 C368 1.386 . S
C369 C373 1.393 . S
C370 H362 0.950 . S
C370 C368 1.391 . S
C370 C371 1.400 . S
C371 C370 1.400 . S
C371 C372 1.398 . S
C371 C377 1.491 . S
C372 H363 0.950 . S
C372 C371 1.398 . S
C372 C373 1.391 . S
C373 H361 0.950 . S
C373 C369 1.393 . S
C373 C372 1.391 . S
C374 H364 0.950 . S
C374 C375 1.386 1_455 S
C374 C376 1.391 1_455 S
C375 C374 1.386 1_655 S
C375 C379 1.393 . S
C376 H365 0.950 . S
C376 C374 1.391 1_655 S
C376 C377 1.400 . S
C377 C371 1.491 . S
C377 C376 1.400 . S
C377 C378 1.398 . S
C378 H366 0.950 . S
C378 C377 1.398 . S
C378 C379 1.391 . S
C379 H367 0.950 . S
C379 C375 1.393 . S
C379 C378 1.391 . S
H380 C388 0.950 . S
H381 C393 0.950 . S
H382 C390 0.950 . S
H383 C392 0.950 . S
H384 C394 0.950 . S
H385 C396 0.950 . S
H386 C398 0.950 . S
H387 C399 0.950 . S
C388 H380 0.950 . S
C388 C389 1.386 . S
C388 C390 1.391 . S
C389 C388 1.386 . S
C389 C393 1.393 . S
C390 H382 0.950 . S
C390 C388 1.391 . S
C390 C391 1.400 . S
C391 C390 1.400 . S
C391 C392 1.398 . S
C391 C397 1.491 . S
C392 H383 0.950 . S
C392 C391 1.398 . S
C392 C393 1.391 . S
C393 H381 0.950 . S
C393 C389 1.393 . S
C393 C392 1.391 . S
C394 H384 0.950 . S
C394 C395 1.380 1_545 S
C394 C396 1.391 1_545 S
C395 C394 1.380 1_565 S
C395 C399 1.402 . S
C396 H385 0.950 . S
C396 C394 1.391 1_565 S
C396 C397 1.400 . S
C397 C391 1.491 . S
C397 C396 1.400 . S
C397 C398 1.398 . S
C398 H386 0.950 . S
C398 C397 1.398 . S
C398 C399 1.391 . S
C399 H387 0.950 . S
C399 C395 1.402 . S
C399 C398 1.391 . S
H400 C408 0.950 . S
H401 C413 0.950 . S
H402 C410 0.950 . S
H403 C412 0.950 . S
H404 C414 0.950 . S
H405 C416 0.950 . S
H406 C418 0.950 . S
H407 C419 0.950 . S
C408 H400 0.950 . S
C408 C409 1.386 . S
C408 C410 1.391 . S
C409 C408 1.386 . S
C409 C413 1.393 . S
C410 H402 0.950 . S
C410 C408 1.391 . S
C410 C411 1.400 . S
C411 C410 1.400 . S
C411 C412 1.398 . S
C411 C417 1.491 . S
C412 H403 0.950 . S
C412 C411 1.398 . S
C412 C413 1.391 . S
C413 H401 0.950 . S
C413 C409 1.393 . S
C413 C412 1.391 . S
C414 H404 0.950 . S
C414 C415 1.386 . S
C414 C416 1.391 . S
C415 C414 1.386 . S
C415 C419 1.393 . S
C416 H405 0.950 . S
C416 C414 1.391 . S
C416 C417 1.400 . S
C417 C411 1.491 . S
C417 C416 1.400 . S
C417 C418 1.398 . S
C418 H406 0.950 . S
C418 C417 1.398 . S
C418 C419 1.391 . S
C419 H407 0.950 . S
C419 C415 1.393 . S
C419 C418 1.391 . S
H420 C428 0.950 . S
H421 C433 0.950 . S
H422 C430 0.950 . S
H423 C432 0.950 . S
H424 C434 0.950 . S
H425 C436 0.950 . S
H426 C438 0.950 . S
H427 C439 0.950 . S
C428 H420 0.950 . S
C428 C429 1.386 . S
C428 C430 1.391 . S
C429 C428 1.386 . S
C429 C433 1.393 1_554 S
C430 H422 0.950 . S
C430 C428 1.391 . S
C430 C431 1.400 . S
C431 C430 1.400 . S
C431 C432 1.398 1_554 S
C431 C437 1.491 . S
C432 H423 0.950 . S
C432 C431 1.398 1_556 S
C432 C433 1.391 . S
C433 H421 0.950 . S
C433 C429 1.393 1_556 S
C433 C432 1.391 . S
C434 H424 0.950 . S
C434 C435 1.386 1_566 S
C434 C436 1.391 1_565 S
C435 C434 1.386 1_544 S
C435 C439 1.393 . S
C436 H425 0.950 . S
C436 C434 1.391 1_545 S
C436 C437 1.400 1_556 S
C437 C431 1.491 . S
C437 C436 1.400 1_554 S
C437 C438 1.398 . S
C438 H426 0.950 . S
C438 C437 1.398 . S
C438 C439 1.391 . S
C439 H427 0.950 . S
C439 C435 1.393 . S
C439 C438 1.391 . S
H440 C448 0.950 . S
H441 C453 0.950 . S
H442 C450 0.950 . S
H443 C452 0.950 . S
H444 C454 0.950 . S
H445 C456 0.950 . S
H446 C458 0.950 . S
H447 C459 0.950 . S
C448 H440 0.950 . S
C448 C449 1.386 . S
C448 C450 1.391 . S
C449 C448 1.386 . S
C449 C453 1.393 . S
C450 H442 0.950 . S
C450 C448 1.391 . S
C450 C451 1.400 . S
C451 C450 1.400 . S
C451 C452 1.398 . S
C451 C457 1.491 . S
C452 H443 0.950 . S
C452 C451 1.398 . S
C452 C453 1.391 . S
C453 H441 0.950 . S
C453 C449 1.393 . S
C453 C452 1.391 . S
C454 H444 0.950 . S
C454 C455 1.386 . S
C454 C456 1.391 . S
C455 C454 1.386 . S
C455 C459 1.393 . S
C456 H445 0.950 . S
C456 C454 1.391 . S
C456 C457 1.400 . S
C457 C451 1.491 . S
C457 C456 1.400 . S
C457 C458 1.398 . S
C458 H446 0.950 . S
C458 C457 1.398 . S
C458 C459 1.391 . S
C459 H447 0.950 . S
C459 C455 1.393 . S
C459 C458 1.391 . S
H460 C468 0.950 . S
H461 C473 0.950 . S
H462 C470 0.950 . S
H463 C472 0.950 . S
H464 C474 0.950 . S
H465 C476 0.950 . S
H466 C478 0.950 . S
H467 C479 0.950 . S
C468 H460 0.950 . S
C468 C469 1.386 . S
C468 C470 1.391 . S
C469 C468 1.386 . S
C469 C473 1.393 . S
C470 H462 0.950 . S
C470 C468 1.391 . S
C470 C471 1.400 . S
C471 C470 1.400 . S
C471 C472 1.398 . S
C471 C477 1.491 . S
C472 H463 0.950 . S
C472 C471 1.398 . S
C472 C473 1.391 . S
C473 H461 0.950 . S
C473 C469 1.393 . S
C473 C472 1.391 . S
C474 H464 0.950 . S
C474 C475 1.386 . S
C474 C476 1.391 . S
C475 C474 1.386 . S
C475 C479 1.393 . S
C476 H465 0.950 . S
C476 C474 1.391 . S
C476 C477 1.400 . S
C477 C471 1.491 . S
C477 C476 1.400 . S
C477 C478 1.398 . S
C478 H466 0.950 . S
C478 C477 1.398 . S
C478 C479 1.391 . S
C479 H467 0.950 . S
C479 C475 1.393 . S
C479 C478 1.391 . S
H480 C488 0.950 . S
H481 C493 0.950 . S
H482 C490 0.950 . S
H483 C492 0.950 . S
H484 C494 0.950 . S
H485 C496 0.950 . S
H486 C498 0.950 . S
H487 C499 0.950 . S
C488 H480 0.950 . S
C488 C489 1.386 . S
C488 C490 1.391 . S
C489 C488 1.386 . S
C489 C493 1.393 . S
C490 H482 0.950 . S
C490 C488 1.391 . S
C490 C491 1.400 . S
C491 C490 1.400 . S
C491 C492 1.398 . S
C491 C497 1.491 . S
C492 H483 0.950 . S
C492 C491 1.398 . S
C492 C493 1.391 . S
C493 H481 0.950 . S
C493 C489 1.393 . S
C493 C492 1.391 . S
C494 H484 0.950 . S
C494 C495 1.386 . S
C494 C496 1.391 . S
C495 C494 1.386 . S
C495 C499 1.393 . S
C496 H485 0.950 . S
C496 C494 1.391 . S
C496 C497 1.400 . S
C497 C491 1.491 . S
C497 C496 1.400 . S
C497 C498 1.398 . S
C498 H486 0.950 . S
C498 C497 1.398 . S
C498 C499 1.391 . S
C499 H487 0.950 . S
C499 C495 1.393 . S
C499 C498 1.391 . S
H500 C508 0.950 . S
H501 C513 0.950 . S
H502 C510 0.950 . S
H503 C512 0.950 . S
H504 C514 0.950 . S
H505 C516 0.950 . S
H506 C518 0.950 . S
H507 C519 0.950 . S
C508 H500 0.950 . S
C508 C509 1.386 . S
C508 C510 1.391 . S
C509 C508 1.386 . S
C509 C513 1.393 . S
C510 H502 0.950 . S
C510 C508 1.391 . S
C510 C511 1.400 . S
C511 C510 1.400 . S
C511 C512 1.398 . S
C511 C517 1.491 . S
C512 H503 0.950 . S
C512 C511 1.398 . S
C512 C513 1.391 . S
C513 H501 0.950 . S
C513 C509 1.393 . S
C513 C512 1.391 . S
C514 H504 0.950 . S
C514 C515 1.386 . S
C514 C516 1.391 . S
C515 C514 1.386 . S
C515 C519 1.393 . S
C516 H505 0.950 . S
C516 C514 1.391 . S
C516 C517 1.400 . S
C517 C511 1.491 . S
C517 C516 1.400 . S
C517 C518 1.398 . S
C518 H506 0.950 . S
C518 C517 1.398 . S
C518 C519 1.391 . S
C519 H507 0.950 . S
C519 C515 1.393 . S
C519 C518 1.391 . S
H520 C528 0.950 . S
H521 C533 0.950 . S
H522 C530 0.950 . S
H523 C532 0.950 . S
H524 C534 0.950 . S
H525 C536 0.950 . S
H526 C538 0.950 . S
H527 C539 0.950 . S
C528 H520 0.950 . S
C528 C529 1.386 . S
C528 C530 1.391 . S
C529 C528 1.386 . S
C529 C533 1.393 . S
C530 H522 0.950 . S
C530 C528 1.391 . S
C530 C531 1.400 . S
C531 C530 1.400 . S
C531 C532 1.398 . S
C531 C537 1.491 . S
C532 H523 0.950 . S
C532 C531 1.398 . S
C532 C533 1.391 . S
C533 H521 0.950 . S
C533 C529 1.393 . S
C533 C532 1.391 . S
C534 H524 0.950 . S
C534 C535 1.386 . S
C534 C536 1.391 . S
C535 C534 1.386 . S
C535 C539 1.393 . S
C536 H525 0.950 . S
C536 C534 1.391 . S
C536 C537 1.400 . S
C537 C531 1.491 . S
C537 C536 1.400 . S
C537 C538 1.398 . S
C538 H526 0.950 . S
C538 C537 1.398 . S
C538 C539 1.391 . S
C539 H527 0.950 . S
C539 C535 1.393 . S
C539 C538 1.391 . S
H540 C548 0.950 . S
H541 C553 0.950 . S
H542 C550 0.950 . S
H543 C552 0.950 . S
H544 C554 0.950 . S
H545 C556 0.950 . S
H546 C558 0.950 . S
H547 C559 0.950 . S
C548 H540 0.950 . S
C548 C549 1.386 . S
C548 C550 1.391 . S
C549 C548 1.386 . S
C549 C553 1.393 . S
C550 H542 0.950 . S
C550 C548 1.391 . S
C550 C551 1.400 . S
C551 C550 1.400 . S
C551 C552 1.398 . S
C551 C557 1.491 . S
C552 H543 0.950 . S
C552 C551 1.398 . S
C552 C553 1.391 . S
C553 H541 0.950 . S
C553 C549 1.393 . S
C553 C552 1.391 . S
C554 H544 0.950 . S
C554 C555 1.386 . S
C554 C556 1.391 . S
C555 C554 1.386 . S
C555 C559 1.393 . S
C556 H545 0.950 . S
C556 C554 1.391 . S
C556 C557 1.400 . S
C557 C551 1.491 . S
C557 C556 1.400 . S
C557 C558 1.398 . S
C558 H546 0.950 . S
C558 C557 1.398 . S
C558 C559 1.391 . S
C559 H547 0.950 . S
C559 C555 1.393 . S
C559 C558 1.391 . S
H560 C568 0.950 . S
H561 C573 0.950 . S
H562 C570 0.950 . S
H563 C572 0.950 . S
H564 C574 0.950 . S
H565 C576 0.950 1_655 S
H566 C578 0.950 . S
H567 C579 0.950 . S
C568 H560 0.950 . S
C568 C569 1.386 1_455 S
C568 C570 1.391 . S
C569 C568 1.386 1_655 S
C569 C573 1.393 . S
C570 H562 0.950 . S
C570 C568 1.391 . S
C570 C571 1.400 . S
C571 C570 1.400 . S
C571 C572 1.398 1_455 S
C571 C577 1.491 . S
C572 H563 0.950 . S
C572 C571 1.398 1_655 S
C572 C573 1.391 . S
C573 H561 0.950 . S
C573 C569 1.393 . S
C573 C572 1.391 . S
C574 H564 0.950 . S
C574 C575 1.386 . S
C574 C576 1.391 . S
C575 C574 1.386 . S
C575 C579 1.393 . S
C576 H565 0.950 1_455 S
C576 C574 1.391 . S
C576 C577 1.400 . S
C577 C571 1.491 . S
C577 C576 1.400 . S
C577 C578 1.398 . S
C578 H566 0.950 . S
C578 C577 1.398 . S
C578 C579 1.391 . S
C579 H567 0.950 . S
C579 C575 1.393 . S
C579 C578 1.391 . S
H580 C588 0.960 . S
H581 C593 0.950 . S
H582 C590 0.950 . S
H583 C592 0.950 . S
H584 C594 0.950 . S
H585 C596 0.950 . S
H586 C598 0.950 . S
H587 C599 0.950 . S
C588 H580 0.960 . S
C588 C589 1.386 1_545 S
C588 C590 1.391 . S
C589 C588 1.386 1_565 S
C589 C593 1.393 1_565 S
C590 H582 0.950 . S
C590 C588 1.391 . S
C590 C591 1.400 . S
C591 C590 1.400 . S
C591 C592 1.398 . S
C591 C597 1.491 . S
C592 H583 0.950 . S
C592 C591 1.398 . S
C592 C593 1.391 . S
C593 H581 0.950 . S
C593 C589 1.393 1_545 S
C593 C592 1.391 . S
C594 H584 0.950 . S
C594 C595 1.386 . S
C594 C596 1.391 . S
C595 C594 1.386 . S
C595 C599 1.393 . S
C596 H585 0.950 . S
C596 C594 1.391 . S
C596 C597 1.400 . S
C597 C591 1.491 . S
C597 C596 1.400 . S
C597 C598 1.398 . S
C598 H586 0.950 . S
C598 C597 1.398 . S
C598 C599 1.391 . S
C599 H587 0.950 . S
C599 C595 1.393 . S
C599 C598 1.391 . S
C249 C129 0.623 . S
C255 C9 0.585 . S
C269 C169 0.606 . S
C275 C49 0.585 . S
C289 C209 0.659 . S
C295 C89 0.628 . S
C309 C15 0.710 . S
C315 C86 0.741 . S
C329 C55 0.702 . S
C335 C126 0.719 . S
C349 C95 0.718 . S
C355 C166 0.705 . S
C369 C135 0.770 . S
C375 C206 0.782 1_655 S
C389 C175 0.779 . S
C395 C6 0.779 1_565 S
C409 C215 0.733 . S
C415 C46 0.708 . S
C429 C18 1.218 . S
C435 C138 1.205 1_545 S
C449 C58 1.210 . S
C455 C178 1.226 . S
C469 C98 1.207 1_455 S
C475 C218 1.211 . S
C489 C10 4.047 . S
C495 C59 4.106 . S
C509 C50 4.045 . S
C515 C99 4.103 . S
C529 C90 4.049 . S
C535 C139 4.106 . S
C549 C130 4.052 . S
C555 C179 4.104 . S
C569 C170 4.049 . S
C575 C219 4.103 . S
C589 C210 4.047 . S
C595 C19 4.106 . S
