# Generated by pormake.
# Topology lcy-a, (4)-cn, num edge types: 1
# Building blocks:
#     Node 0, Type 0, BuildingBlock: QUQFOY_clean_sbu_1, # of connection points: 4
#     Node 1, Type 0, BuildingBlock: QUQFOY_clean_sbu_1, # of connection points: 4
#     Node 2, Type 0, BuildingBlock: QUQFOY_clean_sbu_1, # of connection points: 4
#     Node 3, Type 0, BuildingBlock: QUQFOY_clean_sbu_1, # of connection points: 4
#     Node 4, Type 0, BuildingBlock: QUQFOY_clean_sbu_1, # of connection points: 4
#     Node 5, Type 0, BuildingBlock: QUQFOY_clean_sbu_1, # of connection points: 4
#     Node 6, Type 0, BuildingBlock: QUQFOY_clean_sbu_1, # of connection points: 4
#     Node 7, Type 0, BuildingBlock: QUQFOY_clean_sbu_1, # of connection points: 4
#     Node 8, Type 0, BuildingBlock: QUQFOY_clean_sbu_1, # of connection points: 4
#     Node 9, Type 0, BuildingBlock: QUQFOY_clean_sbu_1, # of connection points: 4
#     Node 10, Type 0, BuildingBlock: QUQFOY_clean_sbu_1, # of connection points: 4
#     Node 11, Type 0, BuildingBlock: QUQFOY_clean_sbu_1, # of connection points: 4
#     Node 12, Type 0, BuildingBlock: QUQFOY_clean_sbu_1, # of connection points: 4
#     Node 13, Type 0, BuildingBlock: QUQFOY_clean_sbu_1, # of connection points: 4
#     Node 14, Type 0, BuildingBlock: QUQFOY_clean_sbu_1, # of connection points: 4
#     Node 15, Type 0, BuildingBlock: QUQFOY_clean_sbu_1, # of connection points: 4
#     Node 16, Type 0, BuildingBlock: QUQFOY_clean_sbu_1, # of connection points: 4
#     Node 17, Type 0, BuildingBlock: QUQFOY_clean_sbu_1, # of connection points: 4
#     Node 18, Type 0, BuildingBlock: QUQFOY_clean_sbu_1, # of connection points: 4
#     Node 19, Type 0, BuildingBlock: QUQFOY_clean_sbu_1, # of connection points: 4
#     Node 20, Type 0, BuildingBlock: QUQFOY_clean_sbu_1, # of connection points: 4
#     Node 21, Type 0, BuildingBlock: QUQFOY_clean_sbu_1, # of connection points: 4
#     Node 22, Type 0, BuildingBlock: QUQFOY_clean_sbu_1, # of connection points: 4
#     Node 23, Type 0, BuildingBlock: QUQFOY_clean_sbu_1, # of connection points: 4
#     Edge 24, Type (0, 0), BuildingBlock: XUDNAN_clean_linker_2, # of connection points: 2
#     Edge 25, Type (0, 0), BuildingBlock: XUDNAN_clean_linker_2, # of connection points: 2
#     Edge 26, Type (0, 0), BuildingBlock: XUDNAN_clean_linker_2, # of connection points: 2
#     Edge 27, Type (0, 0), BuildingBlock: XUDNAN_clean_linker_2, # of connection points: 2
#     Edge 28, Type (0, 0), BuildingBlock: XUDNAN_clean_linker_2, # of connection points: 2
#     Edge 29, Type (0, 0), BuildingBlock: XUDNAN_clean_linker_2, # of connection points: 2
#     Edge 30, Type (0, 0), BuildingBlock: XUDNAN_clean_linker_2, # of connection points: 2
#     Edge 31, Type (0, 0), BuildingBlock: XUDNAN_clean_linker_2, # of connection points: 2
#     Edge 32, Type (0, 0), BuildingBlock: XUDNAN_clean_linker_2, # of connection points: 2
#     Edge 33, Type (0, 0), BuildingBlock: XUDNAN_clean_linker_2, # of connection points: 2
#     Edge 34, Type (0, 0), BuildingBlock: XUDNAN_clean_linker_2, # of connection points: 2
#     Edge 35, Type (0, 0), BuildingBlock: XUDNAN_clean_linker_2, # of connection points: 2
#     Edge 36, Type (0, 0), BuildingBlock: XUDNAN_clean_linker_2, # of connection points: 2
#     Edge 37, Type (0, 0), BuildingBlock: XUDNAN_clean_linker_2, # of connection points: 2
#     Edge 38, Type (0, 0), BuildingBlock: XUDNAN_clean_linker_2, # of connection points: 2
#     Edge 39, Type (0, 0), BuildingBlock: XUDNAN_clean_linker_2, # of connection points: 2
#     Edge 40, Type (0, 0), BuildingBlock: XUDNAN_clean_linker_2, # of connection points: 2
#     Edge 41, Type (0, 0), BuildingBlock: XUDNAN_clean_linker_2, # of connection points: 2
#     Edge 42, Type (0, 0), BuildingBlock: XUDNAN_clean_linker_2, # of connection points: 2
#     Edge 43, Type (0, 0), BuildingBlock: XUDNAN_clean_linker_2, # of connection points: 2
#     Edge 44, Type (0, 0), BuildingBlock: XUDNAN_clean_linker_2, # of connection points: 2
#     Edge 45, Type (0, 0), BuildingBlock: XUDNAN_clean_linker_2, # of connection points: 2
#     Edge 46, Type (0, 0), BuildingBlock: XUDNAN_clean_linker_2, # of connection points: 2
#     Edge 47, Type (0, 0), BuildingBlock: XUDNAN_clean_linker_2, # of connection points: 2
#     Edge 48, Type (0, 0), BuildingBlock: XUDNAN_clean_linker_2, # of connection points: 2
#     Edge 49, Type (0, 0), BuildingBlock: XUDNAN_clean_linker_2, # of connection points: 2
#     Edge 50, Type (0, 0), BuildingBlock: XUDNAN_clean_linker_2, # of connection points: 2
#     Edge 51, Type (0, 0), BuildingBlock: XUDNAN_clean_linker_2, # of connection points: 2
#     Edge 52, Type (0, 0), BuildingBlock: XUDNAN_clean_linker_2, # of connection points: 2
#     Edge 53, Type (0, 0), BuildingBlock: XUDNAN_clean_linker_2, # of connection points: 2
#     Edge 54, Type (0, 0), BuildingBlock: XUDNAN_clean_linker_2, # of connection points: 2
#     Edge 55, Type (0, 0), BuildingBlock: XUDNAN_clean_linker_2, # of connection points: 2
#     Edge 56, Type (0, 0), BuildingBlock: XUDNAN_clean_linker_2, # of connection points: 2
#     Edge 57, Type (0, 0), BuildingBlock: XUDNAN_clean_linker_2, # of connection points: 2
#     Edge 58, Type (0, 0), BuildingBlock: XUDNAN_clean_linker_2, # of connection points: 2
#     Edge 59, Type (0, 0), BuildingBlock: XUDNAN_clean_linker_2, # of connection points: 2
#     Edge 60, Type (0, 0), BuildingBlock: XUDNAN_clean_linker_2, # of connection points: 2
#     Edge 61, Type (0, 0), BuildingBlock: XUDNAN_clean_linker_2, # of connection points: 2
#     Edge 62, Type (0, 0), BuildingBlock: XUDNAN_clean_linker_2, # of connection points: 2
#     Edge 63, Type (0, 0), BuildingBlock: XUDNAN_clean_linker_2, # of connection points: 2
#     Edge 64, Type (0, 0), BuildingBlock: XUDNAN_clean_linker_2, # of connection points: 2
#     Edge 65, Type (0, 0), BuildingBlock: XUDNAN_clean_linker_2, # of connection points: 2
#     Edge 66, Type (0, 0), BuildingBlock: XUDNAN_clean_linker_2, # of connection points: 2
#     Edge 67, Type (0, 0), BuildingBlock: XUDNAN_clean_linker_2, # of connection points: 2
#     Edge 68, Type (0, 0), BuildingBlock: XUDNAN_clean_linker_2, # of connection points: 2
#     Edge 69, Type (0, 0), BuildingBlock: XUDNAN_clean_linker_2, # of connection points: 2
#     Edge 70, Type (0, 0), BuildingBlock: XUDNAN_clean_linker_2, # of connection points: 2
#     Edge 71, Type (0, 0), BuildingBlock: XUDNAN_clean_linker_2, # of connection points: 2
# Relax obj value: 0.381
# Max RMSD: 0.177
# Mean RMSD: 0.177
data_MOF--net-lcy-a--node1-QUQFOY_clean_sbu_1--edge1-XUDNAN_clean_linker_2
_symmetry_space_group_name_H-M    P1
_symmetry_Int_Tables_number       1
_symmetry_cell_setting            triclinic
loop_
_symmetry_equiv_pos_as_xyz
'x, y, z'
_cell_length_a     59.502671
_cell_length_b     59.532282
_cell_length_c     59.479116
_cell_angle_alpha  89.995742
_cell_angle_beta   89.97995
_cell_angle_gamma 90.057686
loop_
_atom_site_label
_atom_site_type_symbol
_atom_site_fract_x
_atom_site_fract_y
_atom_site_fract_z
_atom_type_partial_charge
O0 O 0.20923 0.25451 0.35872 0.0
Cd1 Cd 0.17896 0.26955 0.36489 0.0
Cd2 Cd 0.20476 0.30028 0.38768 0.0
O3 O 0.22531 0.2722 0.38687 0.0
O4 O 0.1576 0.24429 0.36522 0.0
O5 O 0.1661 0.26453 0.39551 0.0
C6 C 0.15631 0.24721 0.38671 0.0
C7 C 0.21633 0.32581 0.41551 0.0
C8 C 0.22548 0.25661 0.37231 0.0
C9 C 0.18081 0.31255 0.34292 0.0
O10 O 0.19535 0.3164 0.35813 0.0
O11 O 0.16951 0.29446 0.34323 0.0
O12 O 0.22774 0.32233 0.39753 0.0
O13 O 0.19783 0.31476 0.41795 0.0
O14 O 0.99348 0.96451 0.63829 0.0
Cd15 Cd 0.97184 0.9385 0.64515 0.0
Cd16 Cd 0.94472 0.97041 0.65836 0.0
O17 O 0.97231 0.99094 0.65312 0.0
O18 O 0.99131 0.91258 0.6515 0.0
O19 O 0.96905 0.92826 0.67706 0.0
C20 C 0.98441 0.91375 0.67205 0.0
C21 C 0.92042 0.97906 0.68794 0.0
C22 C 0.99052 0.98491 0.64372 0.0
C23 C 0.93192 0.94267 0.61724 0.0
O24 O 0.92802 0.95921 0.63016 0.0
O25 O 0.94894 0.93031 0.62063 0.0
O26 O 0.92179 0.99132 0.67019 0.0
O27 O 0.93366 0.96199 0.68955 0.0
O28 O 0.30375 0.74371 0.86455 0.0
Cd29 Cd 0.32648 0.71889 0.87211 0.0
Cd30 Cd 0.29121 0.69561 0.88831 0.0
O31 O 0.27667 0.72679 0.88337 0.0
O32 O 0.35461 0.73202 0.88427 0.0
O33 O 0.32969 0.713 0.90479 0.0
C34 C 0.34794 0.72468 0.90361 0.0
C35 C 0.27651 0.67426 0.91801 0.0
C36 C 0.2839 0.74367 0.87242 0.0
C37 C 0.31628 0.67808 0.84685 0.0
O38 O 0.2999 0.67674 0.86052 0.0
O39 O 0.33066 0.69375 0.84877 0.0
O40 O 0.26527 0.67801 0.89995 0.0
O41 O 0.29632 0.68295 0.91955 0.0
O42 O 0.49454 0.01808 0.13539 0.0
Cd43 Cd 0.51536 0.04499 0.14061 0.0
Cd44 Cd 0.54062 0.01672 0.16477 0.0
O45 O 0.51261 0.99661 0.15953 0.0
O46 O 0.49746 0.07226 0.14624 0.0
O47 O 0.51889 0.0557 0.17205 0.0
C48 C 0.50471 0.07125 0.16671 0.0
C49 C 0.56272 0.00776 0.19595 0.0
C50 C 0.49625 -0.00025 0.14613 0.0
C51 C 0.55927 0.03817 0.12133 0.0
O52 O 0.56124 0.02494 0.13796 0.0
O53 O 0.54136 0.04935 0.11858 0.0
O54 O 0.56125 0.99488 0.1787 0.0
O55 O 0.55057 0.02567 0.19634 0.0
O56 O 0.72418 0.24899 0.62148 0.0
Cd57 Cd 0.69644 0.22969 0.61555 0.0
Cd58 Cd 0.72468 0.20055 0.59419 0.0
O59 O 0.74479 0.22892 0.59819 0.0
O60 O 0.67096 0.24977 0.60921 0.0
O61 O 0.68622 0.22694 0.58379 0.0
C62 C 0.67194 0.24257 0.58872 0.0
C63 C 0.73752 0.17669 0.5655 0.0
C64 C 0.74235 0.24601 0.61078 0.0
C65 C 0.69929 0.18642 0.63743 0.0
O66 O 0.71328 0.18235 0.62178 0.0
O67 O 0.68932 0.2052 0.63843 0.0
O68 O 0.74829 0.17944 0.584 0.0
O69 O 0.71909 0.18777 0.56288 0.0
O70 O 0.99827 0.45649 0.88311 0.0
Cd71 Cd 0.02109 0.43137 0.87704 0.0
Cd72 Cd 0.04712 0.46353 0.85978 0.0
O73 O 0.01793 0.48172 0.86451 0.0
O74 O 0.0046 0.40414 0.86757 0.0
O75 O 0.02702 0.4238 0.84498 0.0
C76 C 0.0129 0.40751 0.84775 0.0
C77 C 0.06995 0.476 0.83014 0.0
C78 C 0.00032 0.47622 0.8753 0.0
C79 C 0.06221 0.43884 0.90246 0.0
O80 O 0.06518 0.45419 0.88789 0.0
O81 O 0.0452 0.42601 0.90121 0.0
O82 O 0.06708 0.48756 0.84815 0.0
O83 O 0.05953 0.45706 0.82859 0.0
O84 O 0.78445 0.75625 0.11783 0.0
Cd85 Cd 0.80701 0.78116 0.11055 0.0
Cd86 Cd 0.7731 0.80244 0.09117 0.0
O87 O 0.75731 0.77222 0.09849 0.0
O88 O 0.83619 0.7665 0.10539 0.0
O89 O 0.81691 0.78419 0.07868 0.0
C90 C 0.83391 0.77198 0.08449 0.0
C91 C 0.76092 0.82021 0.05822 0.0
C92 C 0.76456 0.7559 0.11021 0.0
C93 C 0.79504 0.82334 0.13254 0.0
O94 O 0.77991 0.82422 0.11747 0.0
O95 O 0.80896 0.8072 0.13296 0.0
O96 O 0.74823 0.8182 0.0756 0.0
O97 O 0.78093 0.81197 0.05928 0.0
O98 O 0.4963 0.5409 0.38248 0.0
Cd99 Cd 0.47555 0.56767 0.37625 0.0
Cd100 Cd 0.44817 0.53744 0.35728 0.0
O101 O 0.47768 0.51906 0.3591 0.0
O102 O 0.49422 0.59338 0.3666 0.0
O103 O 0.47056 0.5752 0.34401 0.0
C104 C 0.48605 0.59022 0.34669 0.0
C105 C 0.42326 0.52588 0.32904 0.0
C106 C 0.49461 0.52264 0.37163 0.0
C107 C 0.43448 0.56157 0.40119 0.0
O108 O 0.43151 0.54629 0.38654 0.0
O109 O 0.45146 0.57443 0.39995 0.0
O110 O 0.42718 0.5139 0.34656 0.0
O111 O 0.43391 0.54466 0.32708 0.0
O112 O 0.38046 0.21812 0.25126 0.0
Cd113 Cd 0.38493 0.19189 0.27294 0.0
Cd114 Cd 0.40381 0.22181 0.30091 0.0
O115 O 0.39806 0.24216 0.27318 0.0
O116 O 0.39056 0.165 0.25469 0.0
O117 O 0.41606 0.18045 0.27733 0.0
C118 C 0.41085 0.16548 0.26245 0.0
C119 C 0.4329 0.23453 0.32426 0.0
C120 C 0.38792 0.23773 0.2549 0.0
C121 C 0.36095 0.19694 0.31521 0.0
O122 O 0.37665 0.21074 0.31952 0.0
O123 O 0.36046 0.18663 0.29656 0.0
O124 O 0.41431 0.24519 0.322 0.0
O125 O 0.4355 0.21634 0.31277 0.0
O126 O 0.04345 0.11385 0.49559 0.0
Cd127 Cd 0.06864 0.12353 0.51712 0.0
Cd128 Cd 0.03659 0.14668 0.53721 0.0
O129 O 0.0201 0.13989 0.50741 0.0
O130 O 0.09628 0.12169 0.49899 0.0
O131 O 0.08196 0.15382 0.51143 0.0
C132 C 0.09655 0.14339 0.49914 0.0
C133 C 0.02644 0.18018 0.55511 0.0
C134 C 0.02507 0.12443 0.49357 0.0
C135 C 0.05655 0.10621 0.56124 0.0
O136 O 0.04075 0.12046 0.55957 0.0
O137 O 0.07194 0.10559 0.54646 0.0
O138 O 0.01265 0.16374 0.55267 0.0
O139 O 0.0464 0.17798 0.54693 0.0
O140 O 0.12707 0.78591 0.7537 0.0
Cd141 Cd 0.12213 0.81203 0.77563 0.0
Cd142 Cd 0.10883 0.78125 0.80469 0.0
O143 O 0.11224 0.761 0.77665 0.0
O144 O 0.11284 0.83799 0.75743 0.0
O145 O 0.09048 0.82098 0.78214 0.0
C146 C 0.09324 0.8359 0.76658 0.0
C147 C 0.08043 0.76985 0.8295 0.0
C148 C 0.12077 0.76595 0.75769 0.0
C149 C 0.15146 0.8082 0.81464 0.0
O150 O 0.13783 0.79265 0.82007 0.0
O151 O 0.14811 0.81966 0.79696 0.0
O152 O 0.09879 0.75875 0.8271 0.0
O153 O 0.07796 0.78788 0.81774 0.0
O154 O 0.45469 0.87087 0.99631 0.0
Cd155 Cd 0.43241 0.85869 0.01966 0.0
Cd156 Cd 0.46892 0.8412 0.04088 0.0
O157 O 0.48337 0.85274 0.01125 0.0
O158 O 0.40522 0.8454 0.00546 0.0
O159 O 0.43206 0.82547 0.02202 0.0
C160 C 0.41361 0.82602 0.01062 0.0
C161 C 0.48537 0.81008 0.05848 0.0
C162 C 0.47526 0.86518 0.99584 0.0
C163 C 0.44028 0.87705 0.06445 0.0
O164 O 0.45717 0.86402 0.06418 0.0
O165 O 0.42692 0.87794 0.04784 0.0
O166 O 0.49537 0.8292 0.05731 0.0
O167 O 0.46613 0.80813 0.04869 0.0
O168 O 0.89025 0.27628 0.73758 0.0
Cd169 Cd 0.89606 0.30527 0.72013 0.0
Cd170 Cd 0.91711 0.27843 0.68984 0.0
O171 O 0.91201 0.25568 0.71586 0.0
O172 O 0.90133 0.32931 0.74228 0.0
O173 O 0.92762 0.31655 0.71892 0.0
C174 C 0.922 0.32938 0.73556 0.0
C175 C 0.94555 0.2682 0.66453 0.0
C176 C 0.89967 0.25769 0.7332 0.0
C177 C 0.87394 0.30438 0.67692 0.0
O178 O 0.88969 0.29074 0.67234 0.0
O179 O 0.87289 0.31361 0.6961 0.0
O180 O 0.92701 0.25731 0.66619 0.0
O181 O 0.94867 0.2849 0.67798 0.0
O182 O 0.96506 0.63094 0.00372 0.0
Cd183 Cd 0.94011 0.63782 0.98095 0.0
Cd184 Cd 0.97247 0.65224 0.95399 0.0
O185 O 0.99086 0.64749 0.98307 0.0
O186 O 0.91362 0.64702 0.99846 0.0
O187 O 0.93242 0.66999 0.97564 0.0
C188 C 0.91671 0.66694 0.99036 0.0
C189 C 0.98655 0.6811 0.93119 0.0
C190 C 0.98512 0.63768 0.00115 0.0
C191 C 0.94528 0.61076 0.94045 0.0
O192 O 0.96151 0.62416 0.93666 0.0
O193 O 0.93289 0.61352 0.95761 0.0
O194 O 0.99702 0.66244 0.93394 0.0
O195 O 0.96753 0.68358 0.94131 0.0
O196 O 0.6213 0.70577 0.24272 0.0
Cd197 Cd 0.61438 0.67919 0.22191 0.0
Cd198 Cd 0.59532 0.71 0.19567 0.0
O199 O 0.59651 0.72737 0.22586 0.0
O200 O 0.60715 0.65328 0.24125 0.0
O201 O 0.58216 0.67037 0.21929 0.0
C202 C 0.58657 0.65563 0.23466 0.0
C203 C 0.56811 0.72266 0.17015 0.0
C204 C 0.60987 0.72373 0.24211 0.0
C205 C 0.63921 0.68656 0.18121 0.0
O206 O 0.62498 0.70234 0.17919 0.0
O207 O 0.63744 0.67259 0.19723 0.0
O208 O 0.58528 0.73454 0.17558 0.0
O209 O 0.56574 0.70339 0.1798 0.0
O210 O 0.5353 0.37731 0.50401 0.0
Cd211 Cd 0.5621 0.37271 0.48294 0.0
Cd212 Cd 0.53327 0.35185 0.45466 0.0
O213 O 0.51268 0.35786 0.48213 0.0
O214 O 0.58891 0.36557 0.50103 0.0
O215 O 0.57214 0.34119 0.47811 0.0
C216 C 0.58743 0.34544 0.49297 0.0
C217 C 0.52041 0.32213 0.43219 0.0
C218 C 0.51614 0.36882 0.50014 0.0
C219 C 0.5577 0.39481 0.43952 0.0
O220 O 0.54447 0.37854 0.43545 0.0
O221 O 0.56736 0.39644 0.45847 0.0
O222 O 0.50976 0.34078 0.43398 0.0
O223 O 0.53882 0.31995 0.44341 0.0
O224 O 0.2522 0.38553 0.20324 0.0
Cd225 Cd 0.27906 0.39527 0.18368 0.0
Cd226 Cd 0.29787 0.40957 0.22175 0.0
O227 O 0.26589 0.40232 0.23332 0.0
O228 O 0.26966 0.4074 0.15406 0.0
O229 O 0.28355 0.42823 0.1819 0.0
C230 C 0.27518 0.42688 0.16193 0.0
C231 C 0.31687 0.43995 0.23813 0.0
C232 C 0.2502 0.39143 0.22368 0.0
C233 C 0.31948 0.37047 0.19695 0.0
O234 O 0.31863 0.38286 0.21432 0.0
O235 O 0.30545 0.37321 0.18112 0.0
O236 O 0.31267 0.42181 0.24911 0.0
O237 O 0.30969 0.44128 0.21773 0.0
O238 O 0.75328 0.13067 0.78505 0.0
Cd239 Cd 0.77297 0.12508 0.81267 0.0
Cd240 Cd 0.7936 0.09344 0.78652 0.0
O241 O 0.76386 0.09902 0.76921 0.0
O242 O 0.75407 0.1296 0.83951 0.0
O243 O 0.76749 0.09637 0.82896 0.0
C244 C 0.75483 0.10806 0.84223 0.0
C245 C 0.81132 0.06005 0.77532 0.0
C246 C 0.75103 0.11606 0.76971 0.0
C247 C 0.81882 0.13646 0.8012 0.0
O248 O 0.81731 0.11885 0.7892 0.0
O249 O 0.80278 0.14214 0.81404 0.0
O250 O 0.8084 0.07669 0.76197 0.0
O251 O 0.80379 0.0619 0.79556 0.0
O252 O 0.13458 0.50651 0.04566 0.0
Cd253 Cd 0.14455 0.53185 0.06694 0.0
Cd254 Cd 0.15653 0.5543 0.02982 0.0
O255 O 0.14923 0.52322 0.01598 0.0
O256 O 0.15894 0.51993 0.09456 0.0
O257 O 0.17739 0.53753 0.06722 0.0
C258 C 0.17776 0.52678 0.08607 0.0
C259 C 0.18564 0.57503 0.01316 0.0
C260 C 0.13938 0.50642 0.02484 0.0
C261 C 0.11817 0.57245 0.05865 0.0
O262 O 0.12996 0.57361 0.04086 0.0
O263 O 0.12174 0.55702 0.07294 0.0
O264 O 0.16675 0.5718 0.00316 0.0
O265 O 0.18836 0.56608 0.0327 0.0
O266 O 0.74194 0.86718 0.28678 0.0
Cd267 Cd 0.72333 0.86938 0.31567 0.0
Cd268 Cd 0.69364 0.89489 0.29195 0.0
O269 O 0.72102 0.89291 0.27048 0.0
O270 O 0.74311 0.8756 0.34166 0.0
O271 O 0.71884 0.90026 0.3275 0.0
C272 C 0.73478 0.89568 0.34151 0.0
C273 C 0.67118 0.92582 0.28301 0.0
C274 C 0.73813 0.88018 0.27033 0.0
C275 C 0.67927 0.84886 0.31106 0.0
O276 O 0.67507 0.86649 0.29976 0.0
O277 O 0.69838 0.84608 0.32013 0.0
O278 O 0.67307 0.90872 0.27001 0.0
O279 O 0.6818 0.9255 0.30189 0.0
O280 O 0.35943 0.49275 0.5422 0.0
Cd281 Cd 0.34935 0.46678 0.56265 0.0
Cd282 Cd 0.33769 0.44558 0.52507 0.0
O283 O 0.34475 0.47705 0.51203 0.0
O284 O 0.33582 0.47816 0.59094 0.0
O285 O 0.31644 0.46153 0.56366 0.0
C286 C 0.31669 0.47178 0.5828 0.0
C287 C 0.30772 0.4257 0.50886 0.0
C288 C 0.35467 0.49352 0.5214 0.0
C289 C 0.37637 0.42682 0.55274 0.0
O290 O 0.36476 0.42617 0.5348 0.0
O291 O 0.37219 0.44145 0.5677 0.0
O292 O 0.32628 0.42907 0.49826 0.0
O293 O 0.30591 0.43384 0.52885 0.0
O294 O 0.2452 0.61067 0.70426 0.0
Cd295 Cd 0.21857 0.6031 0.68352 0.0
Cd296 Cd 0.19743 0.58929 0.72047 0.0
O297 O 0.22925 0.59435 0.73347 0.0
O298 O 0.22865 0.59083 0.65423 0.0
O299 O 0.21181 0.57055 0.68085 0.0
C300 C 0.22139 0.57165 0.6614 0.0
C301 C 0.17581 0.56053 0.73656 0.0
C302 C 0.24599 0.60435 0.72465 0.0
C303 C 0.17953 0.63034 0.69563 0.0
O304 O 0.17882 0.61741 0.71261 0.0
O305 O 0.194 0.62712 0.68028 0.0
O306 O 0.18073 0.57859 0.74735 0.0
O307 O 0.18371 0.5583 0.7165 0.0
O308 O 0.6204 0.99676 0.96911 0.0
Cd309 Cd 0.62565 0.98443 0.93745 0.0
Cd310 Cd 0.6464 0.95008 0.96039 0.0
O311 O 0.64455 0.9741 0.9855 0.0
O312 O 0.62552 0.0116 0.91847 0.0
O313 O 0.65564 0.99011 0.92333 0.0
C314 C 0.64672 0.00825 0.91536 0.0
C315 C 0.67394 0.92277 0.96785 0.0
C316 C 0.63154 0.99097 0.98631 0.0
C317 C 0.60155 0.94224 0.93509 0.0
O318 O 0.61675 0.93597 0.94875 0.0
O319 O 0.60251 0.96157 0.92615 0.0
O320 O 0.65568 0.92425 0.97921 0.0
O321 O 0.67698 0.93704 0.95181 0.0
O322 O 0.87478 0.99297 0.46121 0.0
Cd323 Cd 0.86669 0.01386 0.43509 0.0
Cd324 Cd 0.85216 0.04201 0.46653 0.0
O325 O 0.85703 0.01368 0.48614 0.0
O326 O 0.858 0.99431 0.40988 0.0
O327 O 0.83418 0.01697 0.42769 0.0
C328 C 0.8377 0.00139 0.41294 0.0
C329 C 0.82387 0.0663 0.4793 0.0
C330 C 0.86771 0.99589 0.4811 0.0
C331 C 0.8932 0.05473 0.43807 0.0
O332 O 0.88025 0.05872 0.4546 0.0
O333 O 0.89021 0.03736 0.42608 0.0
O334 O 0.84244 0.06357 0.48998 0.0
O335 O 0.82098 0.05493 0.46106 0.0
H336 H 0.10383 0.18909 0.4962 0.0
H337 H 0.12044 0.12539 0.46466 0.0
H338 H 0.13721 0.14549 0.43274 0.0
H339 H 0.08861 0.21816 0.448 0.0
H340 H 0.10141 0.24461 0.45535 0.0
H341 H 0.09231 0.22566 0.47713 0.0
H342 H 0.13228 0.22541 0.49435 0.0
H343 H 0.14141 0.24481 0.47294 0.0
H344 H 0.15602 0.21858 0.47681 0.0
H345 H 0.14648 0.17157 0.402 0.0
H346 H 0.15604 0.20297 0.37688 0.0
H347 H 0.1372 0.25051 0.42893 0.0
C348 C 0.11155 0.17941 0.48286 0.0
C349 C 0.11073 0.15566 0.48289 0.0
C350 C 0.12091 0.14357 0.46508 0.0
C351 C 0.13037 0.15483 0.44677 0.0
C352 C 0.12998 0.17817 0.44675 0.0
C353 C 0.12156 0.19042 0.46458 0.0
C354 C 0.12333 0.21546 0.46006 0.0
C355 C 0.10003 0.22662 0.46014 0.0
C356 C 0.13921 0.22673 0.47705 0.0
C357 C 0.13342 0.21523 0.43664 0.0
C358 C 0.13677 0.19348 0.42926 0.0
C359 C 0.14441 0.1887 0.4077 0.0
C360 C 0.14951 0.20666 0.39348 0.0
C361 C 0.14736 0.22912 0.401 0.0
C362 C 0.13907 0.23347 0.42283 0.0
H363 H 0.02548 0.89472 0.66902 0.0
H364 H 0.96963 0.90415 0.71493 0.0
H365 H 0.99127 0.88493 0.745 0.0
H366 H 0.04412 0.8406 0.68903 0.0
H367 H 0.07336 0.84762 0.68534 0.0
H368 H 0.05245 0.86023 0.6675 0.0
H369 H 0.0668 0.89977 0.67898 0.0
H370 H 0.08752 0.8873 0.69712 0.0
H371 H 0.06776 0.90732 0.70832 0.0
H372 H 0.01989 0.86416 0.76986 0.0
H373 H 0.0529 0.84543 0.78722 0.0
H374 H 0.08998 0.85372 0.72497 0.0
C375 C 0.01755 0.89238 0.68525 0.0
C376 C 0.99578 0.90056 0.68962 0.0
C377 C 0.98626 0.89775 0.71125 0.0
C378 C 0.99842 0.88691 0.72838 0.0
C379 C 0.02011 0.87941 0.72356 0.0
C380 C 0.02955 0.88216 0.7025 0.0
C381 C 0.05349 0.87395 0.70169 0.0
C382 C 0.05599 0.85444 0.6849 0.0
C383 C 0.06985 0.89324 0.69621 0.0
C384 C 0.05618 0.86606 0.7256 0.0
C385 C 0.03676 0.86902 0.738 0.0
C386 C 0.03524 0.86198 0.76034 0.0
C387 C 0.05402 0.85144 0.77006 0.0
C388 C 0.07403 0.84854 0.75752 0.0
C389 C 0.07507 0.85618 0.73514 0.0
H390 H 0.33479 0.76078 0.92678 0.0
H391 H 0.38504 0.70833 0.92535 0.0
H392 H 0.40427 0.72589 0.95805 0.0
H393 H 0.37148 0.80412 0.93545 0.0
H394 H 0.35329 0.82045 0.95333 0.0
H395 H 0.34139 0.8014 0.93317 0.0
H396 H 0.31929 0.78137 0.96497 0.0
H397 H 0.3312 0.80042 0.98531 0.0
H398 H 0.33419 0.77052 0.98901 0.0
H399 H 0.41991 0.75152 0.98786 0.0
H400 H 0.43282 0.78434 0.00966 0.0
H401 H 0.37288 0.82087 0.99004 0.0
C402 C 0.34949 0.75272 0.93388 0.0
C403 C 0.3584 0.73315 0.92413 0.0
C404 C 0.37797 0.72321 0.93306 0.0
C405 C 0.38884 0.733 0.9516 0.0
C406 C 0.37981 0.75264 0.96076 0.0
C407 C 0.36057 0.76241 0.95211 0.0
C408 C 0.35585 0.78493 0.96285 0.0
C409 C 0.3555 0.80383 0.94515 0.0
C410 C 0.33382 0.78426 0.97634 0.0
C411 C 0.37596 0.78686 0.97823 0.0
C412 C 0.38925 0.76782 0.97728 0.0
C413 C 0.40948 0.76636 0.98896 0.0
C414 C 0.41666 0.7851 0.00133 0.0
C415 C 0.40382 0.80514 0.00151 0.0
C416 C 0.38294 0.80572 0.99034 0.0
H417 H 0.46534 0.09392 0.16476 0.0
H418 H 0.52283 0.0817 0.20786 0.0
H419 H 0.50528 0.10487 0.23773 0.0
H420 H 0.45384 0.15094 0.18203 0.0
H421 H 0.42383 0.14703 0.18069 0.0
H422 H 0.44197 0.13102 0.16253 0.0
H423 H 0.42431 0.09414 0.17769 0.0
H424 H 0.40633 0.11001 0.19611 0.0
H425 H 0.42453 0.08868 0.2075 0.0
H426 H 0.48089 0.12983 0.26272 0.0
H427 H 0.45134 0.15298 0.2809 0.0
H428 H 0.40939 0.14534 0.22174 0.0
C429 C 0.47445 0.09643 0.18032 0.0
C430 C 0.49553 0.08635 0.18397 0.0
C431 C 0.50669 0.0895 0.20476 0.0
C432 C 0.49686 0.10258 0.22177 0.0
C433 C 0.47581 0.112 0.21773 0.0
C434 C 0.46474 0.10895 0.19752 0.0
C435 C 0.44182 0.11973 0.19761 0.0
C436 C 0.44029 0.13828 0.17965 0.0
C437 C 0.42315 0.10209 0.19455 0.0
C438 C 0.44165 0.12941 0.22103 0.0
C439 C 0.46143 0.12506 0.23238 0.0
C440 C 0.46525 0.13317 0.25405 0.0
C441 C 0.44843 0.14623 0.26424 0.0
C442 C 0.42803 0.15059 0.25282 0.0
C443 C 0.42463 0.14188 0.23107 0.0
H444 H 0.65395 0.28429 0.59032 0.0
H445 H 0.66053 0.22596 0.54712 0.0
H446 H 0.64 0.2461 0.51693 0.0
H447 H 0.599 0.30173 0.57266 0.0
H448 H 0.6059 0.33118 0.57414 0.0
H449 H 0.61994 0.31147 0.59227 0.0
H450 H 0.65847 0.32538 0.57729 0.0
H451 H 0.64454 0.34492 0.5589 0.0
H452 H 0.664 0.32472 0.5475 0.0
H453 H 0.6177 0.27297 0.49194 0.0
H454 H 0.59693 0.30438 0.47411 0.0
H455 H 0.60848 0.3453 0.53335 0.0
C456 C 0.6508 0.27558 0.57464 0.0
C457 C 0.65849 0.25349 0.57109 0.0
C458 C 0.65456 0.24287 0.55016 0.0
C459 C 0.64298 0.25417 0.53296 0.0
C460 C 0.63587 0.27614 0.53695 0.0
C461 C 0.63978 0.28672 0.55726 0.0
C462 C 0.63132 0.31061 0.55722 0.0
C463 C 0.61294 0.31393 0.57513 0.0
C464 C 0.65074 0.32739 0.56041 0.0
C465 C 0.6218 0.31185 0.53376 0.0
C466 C 0.62437 0.29181 0.5223 0.0
C467 C 0.61582 0.28881 0.50068 0.0
C468 C 0.60411 0.3067 0.49068 0.0
C469 C 0.60144 0.32731 0.50225 0.0
C470 C 0.61068 0.3299 0.5239 0.0
H471 H 0.9191 0.34337 0.77878 0.0
H472 H 0.96362 0.34334 0.72102 0.0
H473 H 0.9928 0.36274 0.74367 0.0
H474 H 0.93476 0.39687 0.80157 0.0
H475 H 0.93289 0.38732 0.83026 0.0
H476 H 0.91562 0.37456 0.80896 0.0
H477 H 0.93151 0.33544 0.81968 0.0
H478 H 0.94906 0.34812 0.84083 0.0
H479 H 0.96146 0.33091 0.8192 0.0
H480 H 0.01652 0.38335 0.77301 0.0
H481 H 0.03295 0.402 0.80649 0.0
H482 H 0.9734 0.38494 0.84499 0.0
C483 C 0.93486 0.34771 0.77076 0.0
C484 C 0.93906 0.34221 0.7481 0.0
C485 C 0.96008 0.34763 0.73836 0.0
C486 C 0.97672 0.35858 0.75109 0.0
C487 C 0.9721 0.36352 0.77355 0.0
C488 C 0.9517 0.35811 0.78328 0.0
C489 C 0.95101 0.36439 0.80785 0.0
C490 C 0.93248 0.38183 0.81242 0.0
C491 C 0.94809 0.34347 0.82276 0.0
C492 C 0.97413 0.37447 0.81049 0.0
C493 C 0.98606 0.37402 0.79054 0.0
C494 C 0.00742 0.38354 0.78877 0.0
C495 C 0.01662 0.39404 0.80783 0.0
C496 C 0.00457 0.39456 0.82836 0.0
C497 C 0.98323 0.38435 0.82967 0.0
H498 H 0.85693 0.73318 0.08847 0.0
H499 H 0.84271 0.78714 0.04164 0.0
H500 H 0.86381 0.76679 0.01192 0.0
H501 H 0.91252 0.71767 0.06794 0.0
H502 H 0.90722 0.68814 0.07213 0.0
H503 H 0.89375 0.70856 0.08994 0.0
H504 H 0.85489 0.6918 0.0794 0.0
H505 H 0.86819 0.6716 0.06128 0.0
H506 H 0.84688 0.69004 0.05023 0.0
H507 H 0.88623 0.73935 0.98726 0.0
H508 H 0.90573 0.70685 0.96973 0.0
H509 H 0.90065 0.6703 0.03258 0.0
C510 C 0.85877 0.74106 0.07216 0.0
C511 C 0.84865 0.7619 0.0674 0.0
C512 C 0.85068 0.77128 0.04562 0.0
C513 C 0.86257 0.75985 0.02869 0.0
C514 C 0.87189 0.73897 0.03385 0.0
C515 C 0.86995 0.72968 0.05507 0.0
C516 C 0.87952 0.70625 0.05604 0.0
C517 C 0.89944 0.7051 0.07248 0.0
C518 C 0.86128 0.68891 0.06209 0.0
C519 C 0.88714 0.70367 0.03202 0.0
C520 C 0.88302 0.72276 0.01946 0.0
C521 C 0.88938 0.72427 0.99692 0.0
C522 C 0.90035 0.70579 0.9871 0.0
C523 C 0.90423 0.68604 -0.00025 0.0
C524 C 0.89741 0.68503 0.02238 0.0
H525 H 0.5882 0.63887 0.27691 0.0
H526 H 0.54354 0.64723 0.21991 0.0
H527 H 0.51216 0.63133 0.24236 0.0
H528 H 0.5644 0.58742 0.29922 0.0
H529 H 0.56816 0.59631 0.32795 0.0
H530 H 0.58705 0.60621 0.30646 0.0
H531 H 0.57801 0.6473 0.31774 0.0
H532 H 0.55878 0.63755 0.33898 0.0
H533 H 0.54923 0.65676 0.3176 0.0
H534 H 0.48577 0.61418 0.27179 0.0
H535 H 0.46677 0.59869 0.30557 0.0
H536 H 0.52866 0.60579 0.34339 0.0
C537 C 0.57195 0.63689 0.26893 0.0
C538 C 0.56833 0.64386 0.24658 0.0
C539 C 0.54666 0.64169 0.23697 0.0
C540 C 0.52878 0.63276 0.2496 0.0
C541 C 0.53286 0.62651 0.27184 0.0
C542 C 0.55394 0.6286 0.28139 0.0
C543 C 0.55385 0.6221 0.30592 0.0
C544 C 0.56927 0.6018 0.31012 0.0
C545 C 0.56035 0.64213 0.32093 0.0
C546 C 0.52941 0.61594 0.30879 0.0
C547 C 0.51755 0.61829 0.28895 0.0
C548 C 0.49486 0.61251 0.28745 0.0
C549 C 0.4842 0.60382 0.30668 0.0
C550 C 0.49617 0.6015 0.32712 0.0
C551 C 0.51894 0.60793 0.32815 0.0
H552 H 0.24521 0.45771 0.17516 0.0
H553 H 0.28982 0.44012 0.12053 0.0
H554 H 0.27445 0.47146 0.09778 0.0
H555 H 0.19983 0.46328 0.14222 0.0
H556 H 0.18659 0.4858 0.15754 0.0
H557 H 0.20546 0.46711 0.17177 0.0
H558 H 0.22968 0.50098 0.1846 0.0
H559 H 0.21076 0.51988 0.17036 0.0
H560 H 0.24037 0.52044 0.16397 0.0
H561 H 0.25078 0.50064 0.07938 0.0
H562 H 0.2177 0.52075 0.06462 0.0
H563 H 0.1857 0.51613 0.12994 0.0
C564 C 0.25236 0.46123 0.15878 0.0
C565 C 0.26906 0.44724 0.14966 0.0
C566 C 0.27734 0.4512 0.12779 0.0
C567 C 0.2688 0.46899 0.1149 0.0
C568 C 0.25176 0.48224 0.1241 0.0
C569 C 0.24346 0.47838 0.1455 0.0
C570 C 0.22221 0.49164 0.14981 0.0
C571 C 0.20237 0.47602 0.15565 0.0
C572 C 0.22599 0.50929 0.16828 0.0
C573 C 0.21915 0.50264 0.12711 0.0
C574 C 0.23687 0.49781 0.11284 0.0
C575 C 0.237 0.50482 0.09049 0.0
C576 C 0.21815 0.51626 0.08226 0.0
C577 C 0.19923 0.51992 0.09621 0.0
C578 C 0.20007 0.51367 0.11904 0.0
H579 H 0.68782 0.00417 0.89433 0.0
H580 H 0.63724 0.0527 0.91445 0.0
H581 H 0.66154 0.08353 0.90139 0.0
H582 H 0.73695 0.03731 0.9081 0.0
H583 H 0.75265 0.02875 0.88364 0.0
H584 H 0.73195 0.01015 0.89564 0.0
H585 H 0.71151 0.0076 0.85725 0.0
H586 H 0.73235 0.02587 0.84508 0.0
H587 H 0.70299 0.03307 0.84324 0.0
H588 H 0.6911 0.10905 0.88726 0.0
H589 H 0.72156 0.12788 0.86659 0.0
H590 H 0.75236 0.06314 0.85298 0.0
C591 C 0.68191 0.0213 0.89591 0.0
C592 C 0.6607 0.0261 0.90543 0.0
C593 C 0.65338 0.04866 0.90705 0.0
C594 C 0.66715 0.06631 0.89992 0.0
C595 C 0.68807 0.06109 0.89092 0.0
C596 C 0.69528 0.03917 0.88839 0.0
C597 C 0.71785 0.0383 0.87659 0.0
C598 C 0.73592 0.02802 0.89192 0.0
C599 C 0.71606 0.02546 0.85421 0.0
C600 C 0.72204 0.06314 0.87279 0.0
C601 C 0.70484 0.07594 0.88167 0.0
C602 C 0.70467 0.09925 0.88015 0.0
C603 C 0.72213 0.10979 0.86846 0.0
C604 C 0.73931 0.09698 0.85811 0.0
C605 C 0.73951 0.07338 0.8608 0.0
H606 H 0.77723 0.89651 0.35798 0.0
H607 H 0.71602 0.93582 0.35412 0.0
H608 H 0.73549 0.96775 0.37249 0.0
H609 H 0.79814 0.9182 0.41129 0.0
H610 H 0.82688 0.91811 0.4017 0.0
H611 H 0.80719 0.89797 0.39064 0.0
H612 H 0.81662 0.91132 0.3502 0.0
H613 H 0.83602 0.93179 0.36115 0.0
H614 H 0.81338 0.94057 0.34306 0.0
H615 H 0.76247 0.9956 0.3908 0.0
H616 H 0.7946 0.0169 0.40674 0.0
H617 H 0.83809 0.95966 0.39488 0.0
C618 C 0.76773 0.91162 0.36152 0.0
C619 C 0.74506 0.91364 0.35503 0.0
C620 C 0.73338 0.93393 0.35925 0.0
C621 C 0.7443 0.95212 0.36959 0.0
C622 C 0.76691 0.94975 0.37525 0.0
C623 C 0.77846 0.92999 0.3713 0.0
C624 C 0.80298 0.93207 0.37744 0.0
C625 C 0.80915 0.91562 0.3964 0.0
C626 C 0.81813 0.92874 0.35673 0.0
C627 C 0.8035 0.95611 0.38547 0.0
C628 C 0.78256 0.96604 0.38436 0.0
C629 C 0.77898 0.98803 0.39162 0.0
C630 C 0.79728 1e-05 0.40055 0.0
C631 C 0.81883 0.99002 0.40169 0.0
C632 C 0.82191 0.96791 0.3938 0.0
H633 H 0.25246 0.54161 0.67363 0.0
H634 H 0.20475 0.55733 0.62112 0.0
H635 H 0.21959 0.52589 0.59813 0.0
H636 H 0.29629 0.53596 0.63872 0.0
H637 H 0.31051 0.51388 0.65378 0.0
H638 H 0.29209 0.53259 0.66856 0.0
H639 H 0.26892 0.49867 0.68312 0.0
H640 H 0.28741 0.47975 0.66833 0.0
H641 H 0.25754 0.47872 0.66336 0.0
H642 H 0.24307 0.49699 0.57895 0.0
H643 H 0.27575 0.4771 0.563 0.0
H644 H 0.31047 0.48301 0.6268 0.0
C645 C 0.24456 0.53766 0.6577 0.0
C646 C 0.22713 0.55115 0.64923 0.0
C647 C 0.21779 0.54662 0.62792 0.0
C648 C 0.22604 0.52878 0.61489 0.0
C649 C 0.2438 0.51602 0.62342 0.0
C650 C 0.25306 0.52039 0.64432 0.0
C651 C 0.27465 0.50747 0.64784 0.0
C652 C 0.29454 0.52343 0.65247 0.0
C653 C 0.27196 0.49012 0.66679 0.0
C654 C 0.2768 0.4961 0.62523 0.0
C655 C 0.25839 0.50048 0.61172 0.0
C656 C 0.25739 0.49315 0.58949 0.0
C657 C 0.27602 0.48184 0.58058 0.0
C658 C 0.29557 0.47859 0.59373 0.0
C659 C 0.29563 0.48515 0.61649 0.0
H660 H 0.30691 0.4089 0.46635 0.0
H661 H 0.26761 0.41218 0.52772 0.0
H662 H 0.23845 0.38812 0.51017 0.0
H663 H 0.26006 0.40999 0.42738 0.0
H664 H 0.27347 0.39077 0.4082 0.0
H665 H 0.29028 0.40916 0.4254 0.0
H666 H 0.31183 0.37476 0.44121 0.0
H667 H 0.29508 0.35628 0.42412 0.0
H668 H 0.29631 0.35214 0.45411 0.0
H669 H 0.21446 0.36169 0.48577 0.0
H670 H 0.19825 0.33607 0.45708 0.0
H671 H 0.25406 0.35128 0.4126 0.0
C672 C 0.2921 0.40477 0.47611 0.0
C673 C 0.28952 0.41241 0.4984 0.0
C674 C 0.26989 0.40654 0.51057 0.0
C675 C 0.25326 0.39289 0.50074 0.0
C676 C 0.25651 0.38543 0.47874 0.0
C677 C 0.27545 0.39131 0.4666 0.0
C678 C 0.27553 0.3807 0.44356 0.0
C679 C 0.27478 0.39873 0.42505 0.0
C680 C 0.29589 0.36504 0.4406 0.0
C681 C 0.25382 0.36763 0.44463 0.0
C682 C 0.24293 0.37054 0.46494 0.0
C683 C 0.2228 0.35944 0.46976 0.0
C684 C 0.21372 0.34494 0.4534 0.0
C685 C 0.22486 0.34169 0.43261 0.0
C686 C 0.24504 0.35339 0.42828 0.0
H687 H 0.88204 0.00212 0.68149 0.0
H688 H 0.92058 0.96821 0.73313 0.0
H689 H 0.89293 0.98079 0.76184 0.0
H690 H 0.86977 0.04956 0.71111 0.0
H691 H 0.84186 0.053 0.69984 0.0
H692 H 0.86286 0.03858 0.68371 0.0
H693 H 0.8367 0.00381 0.68067 0.0
H694 H 0.81557 0.01817 0.69693 0.0
H695 H 0.82571 0.99109 0.70589 0.0
H696 H 0.86324 0.00197 0.78522 0.0
H697 H 0.83563 0.02941 0.8003 0.0
H698 H 0.81696 0.04743 0.73224 0.0
C699 C 0.88454 0.99703 0.6988 0.0
C700 C 0.90346 0.98438 0.7052 0.0
C701 C 0.90609 0.9779 0.72794 0.0
C702 C 0.89046 0.98492 0.74429 0.0
C703 C 0.87213 0.99788 0.7374 0.0
C704 C 0.86907 0.00357 0.71507 0.0
C705 C 0.8492 0.01891 0.71183 0.0
C706 C 0.85637 0.04133 0.70101 0.0
C707 C 0.8307 0.00729 0.69802 0.0
C708 C 0.84207 0.02197 0.73595 0.0
C709 C 0.85514 0.0095 0.75058 0.0
C710 C 0.85264 0.01143 0.77387 0.0
C711 C 0.8369 0.02696 0.78231 0.0
C712 C 0.8242 0.04044 0.76739 0.0
C713 C 0.82637 0.03725 0.74404 0.0
H714 H 0.23531 0.65443 0.91828 0.0
H715 H 0.29597 0.66168 0.95813 0.0
H716 H 0.2796 0.63673 0.98725 0.0
H717 H 0.19628 0.65435 0.96425 0.0
H718 H 0.17804 0.63396 0.95123 0.0
H719 H 0.19464 0.65253 0.93404 0.0
H720 H 0.21205 0.61819 0.91366 0.0
H721 H 0.19558 0.5995 0.93086 0.0
H722 H 0.22572 0.59662 0.92994 0.0
H723 H 0.25608 0.61034 0.01183 0.0
H724 H 0.22758 0.58569 0.02965 0.0
H725 H 0.18319 0.59637 0.97276 0.0
C726 C 0.2452 0.65089 0.93314 0.0
C727 C 0.26692 0.66 0.93596 0.0
C728 C 0.27927 0.65489 0.95566 0.0
C729 C 0.27012 0.64073 0.97225 0.0
C730 C 0.24866 0.6319 0.96881 0.0
C731 C 0.2364 0.63688 0.94973 0.0
C732 C 0.2138 0.62531 0.94979 0.0
C733 C 0.19456 0.64257 0.94984 0.0
C734 C 0.21168 0.60893 0.92989 0.0
C735 C 0.21519 0.61294 0.97189 0.0
C736 C 0.23536 0.61688 0.9827 0.0
C737 C 0.24024 0.60716 0.00348 0.0
C738 C 0.22398 0.59317 0.01345 0.0
C739 C 0.20319 0.58908 0.00258 0.0
C740 C 0.19892 0.59909 0.98151 0.0
H741 H 0.60153 0.98588 0.18989 0.0
H742 H 0.56096 0.01733 0.24151 0.0
H743 H 0.58791 0.00396 0.27061 0.0
H744 H 0.61318 0.9375 0.21771 0.0
H745 H 0.64147 0.93471 0.20722 0.0
H746 H 0.62092 0.94969 0.19105 0.0
H747 H 0.64684 0.98477 0.19035 0.0
H748 H 0.66757 0.96983 0.20659 0.0
H749 H 0.65696 0.99642 0.21643 0.0
H750 H 0.6175 0.9822 0.29408 0.0
H751 H 0.64542 0.95472 0.30872 0.0
H752 H 0.66541 0.9392 0.24045 0.0
C753 C 0.59845 0.99028 0.2073 0.0
C754 C 0.57918 0.0024 0.2136 0.0
C755 C 0.57575 0.00804 0.23645 0.0
C756 C 0.59098 0.00056 0.253 0.0
C757 C 0.60964 0.98802 0.24618 0.0
C758 C 0.61345 0.98326 0.22374 0.0
C759 C 0.6335 0.96822 0.22042 0.0
C760 C 0.62685 0.94624 0.20841 0.0
C761 C 0.65233 0.98055 0.2077 0.0
C762 C 0.63986 0.96416 0.24456 0.0
C763 C 0.62634 0.97595 0.25934 0.0
C764 C 0.6284 0.97324 0.28261 0.0
C765 C 0.64427 0.95768 0.29079 0.0
C766 C 0.6574 0.94493 0.27563 0.0
C767 C 0.65554 0.94878 0.25239 0.0
H768 H 0.77719 0.15446 0.56697 0.0
H769 H 0.71787 0.16326 0.5255 0.0
H770 H 0.73317 0.13568 0.49813 0.0
H771 H 0.81698 0.1495 0.52213 0.0
H772 H 0.8336 0.12891 0.53682 0.0
H773 H 0.81781 0.14944 0.55243 0.0
H774 H 0.7978 0.11748 0.57436 0.0
H775 H 0.81346 0.09685 0.55877 0.0
H776 H 0.78318 0.09581 0.55903 0.0
H777 H 0.75571 0.10593 0.47568 0.0
H778 H 0.78308 0.07833 0.46048 0.0
H779 H 0.82649 0.09048 0.51783 0.0
C780 C 0.76733 0.15072 0.55213 0.0
C781 C 0.74632 0.16099 0.54837 0.0
C782 C 0.73406 0.15559 0.52868 0.0
C783 C 0.7426 0.13994 0.51309 0.0
C784 C 0.76339 0.12998 0.51751 0.0
C785 C 0.77555 0.13532 0.53657 0.0
C786 C 0.79734 0.12249 0.53783 0.0
C787 C 0.81763 0.13854 0.53726 0.0
C788 C 0.79796 0.10726 0.55873 0.0
C789 C 0.79568 0.10892 0.51651 0.0
C790 C 0.77606 0.11332 0.50489 0.0
C791 C 0.77112 0.10243 0.48468 0.0
C792 C 0.78672 0.08678 0.47619 0.0
C793 C 0.80692 0.08226 0.48796 0.0
C794 C 0.81125 0.09352 0.50836 0.0
H795 H 0.15439 0.56379 0.77671 0.0
H796 H 0.16301 0.51929 0.71958 0.0
H797 H 0.13654 0.49214 0.73702 0.0
H798 H 0.15105 0.52153 0.8193 0.0
H799 H 0.13014 0.53655 0.83525 0.0
H800 H 0.15 0.55178 0.81823 0.0
H801 H 0.11713 0.57131 0.79732 0.0
H802 H 0.09716 0.55606 0.81419 0.0
H803 H 0.09583 0.5544 0.78396 0.0
H804 H 0.10832 0.47007 0.76142 0.0
H805 H 0.08184 0.45545 0.79022 0.0
H806 H 0.09249 0.51563 0.83 0.0
C807 C 0.1509 0.54829 0.76784 0.0
C808 C 0.16083 0.54359 0.74684 0.0
C809 C 0.15561 0.52317 0.73576 0.0
C810 C 0.1406 0.5077 0.74551 0.0
C811 C 0.13096 0.51301 0.76625 0.0
C812 C 0.13599 0.53286 0.7772 0.0
C813 C 0.12334 0.53505 0.79907 0.0
C814 C 0.13961 0.53629 0.81914 0.0
C815 C 0.10742 0.5554 0.79859 0.0
C816 C 0.11043 0.51324 0.7989 0.0
C817 C 0.11491 0.50066 0.7799 0.0
C818 C 0.10472 0.47982 0.77635 0.0
C819 C 0.0897 0.47167 0.79274 0.0
C820 C 0.08511 0.4844 0.81233 0.0
C821 C 0.09561 0.50544 0.81524 0.0
H822 H 0.66689 0.88641 0.99409 0.0
H823 H 0.71886 0.92063 0.95611 0.0
H824 H 0.7472 0.89407 0.97137 0.0
H825 H 0.69657 0.8801 0.04241 0.0
H826 H 0.68528 0.85293 0.04962 0.0
H827 H 0.66909 0.87186 0.03264 0.0
H828 H 0.6657 0.84153 0.00152 0.0
H829 H 0.68186 0.82237 0.01851 0.0
H830 H 0.69078 0.82879 0.99027 0.0
H831 H 0.7703 0.86636 0.99517 0.0
H832 H 0.7854 0.84145 0.02505 0.0
H833 H 0.71745 0.82686 0.04693 0.0
C834 C 0.68415 0.88808 0.98854 0.0
C835 C 0.69073 0.90556 0.97395 0.0
C836 C 0.71348 0.90721 0.96718 0.0
C837 C 0.72964 0.8922 0.97575 0.0
C838 C 0.72262 0.87554 0.99075 0.0
C839 C 0.70029 0.87335 0.99684 0.0
C840 C 0.69701 0.85568 0.01473 0.0
C841 C 0.68638 0.86576 0.0361 0.0
C842 C 0.68301 0.83592 0.00571 0.0
C843 C 0.72109 0.84886 0.01862 0.0
C844 C 0.7357 0.86005 0.0044 0.0
C845 C 0.75895 0.85729 0.00612 0.0
C846 C 0.76739 0.84312 0.02309 0.0
C847 C 0.75256 0.83232 0.03826 0.0
C848 C 0.72919 0.83489 0.03555 0.0
H849 H 0.33322 0.44083 0.28076 0.0
H850 H 0.33202 0.47924 0.21876 0.0
H851 H 0.35794 0.50713 0.23574 0.0
H852 H 0.33621 0.48838 0.31935 0.0
H853 H 0.35473 0.47368 0.33826 0.0
H854 H 0.33466 0.45822 0.32166 0.0
H855 H 0.36693 0.43383 0.30545 0.0
H856 H 0.38709 0.44929 0.32183 0.0
H857 H 0.39036 0.44734 0.29177 0.0
H858 H 0.38626 0.52955 0.25945 0.0
H859 H 0.41361 0.54411 0.28743 0.0
H860 H 0.39561 0.48982 0.33269 0.0
C861 C 0.33809 0.45526 0.27078 0.0
C862 C 0.33057 0.45791 0.24846 0.0
C863 C 0.33751 0.47696 0.23597 0.0
C864 C 0.35223 0.49286 0.24546 0.0
C865 C 0.35969 0.48944 0.26744 0.0
C866 C 0.35269 0.47113 0.27992 0.0
C867 C 0.36379 0.47045 0.30271 0.0
C868 C 0.3463 0.47283 0.32161 0.0
C869 C 0.37788 0.44896 0.30559 0.0
C870 C 0.37851 0.49103 0.30106 0.0
C871 C 0.37589 0.50197 0.28074 0.0
C872 C 0.38832 0.52117 0.27547 0.0
C873 C 0.40381 0.5293 0.2914 0.0
C874 C 0.40678 0.51807 0.31218 0.0
C875 C 0.39382 0.4988 0.31695 0.0
H876 H 0.47933 0.32135 0.41294 0.0
H877 H 0.5411 0.28302 0.41776 0.0
H878 H 0.52559 0.25515 0.39074 0.0
H879 H 0.44145 0.27433 0.40905 0.0
H880 H 0.42315 0.28875 0.38971 0.0
H881 H 0.43913 0.30451 0.41 0.0
H882 H 0.4564 0.32837 0.37781 0.0
H883 H 0.4406 0.31259 0.35742 0.0
H884 H 0.47075 0.31448 0.35501 0.0
H885 H 0.50266 0.2323 0.36131 0.0
H886 H 0.47488 0.2169 0.33412 0.0
H887 H 0.42958 0.2717 0.35013 0.0
C888 C 0.48967 0.30706 0.40849 0.0
C889 C 0.51144 0.30436 0.41738 0.0
C890 C 0.52431 0.28534 0.41115 0.0
C891 C 0.51566 0.26949 0.3958 0.0
C892 C 0.49413 0.27296 0.38708 0.0
C893 C 0.48136 0.29128 0.39342 0.0
C894 C 0.45896 0.29181 0.38166 0.0
C895 C 0.43953 0.28971 0.39862 0.0
C896 C 0.45656 0.31307 0.36711 0.0
C897 C 0.46105 0.27103 0.36738 0.0
C898 C 0.48132 0.2602 0.37062 0.0
C899 C 0.48672 0.24067 0.35877 0.0
C900 C 0.47091 0.23207 0.34335 0.0
C901 C 0.4501 0.24311 0.33999 0.0
C902 C 0.44531 0.2628 0.35223 0.0
H903 H 0.98383 0.19345 0.56288 0.0
H904 H 0.05301 0.21099 0.57742 0.0
H905 H 0.03983 0.23972 0.60468 0.0
H906 H 0.95936 0.25071 0.57004 0.0
H907 H 0.9343 0.23915 0.58256 0.0
H908 H 0.94941 0.22337 0.56159 0.0
H909 H 0.95247 0.18987 0.5893 0.0
H910 H 0.93768 0.20556 0.61039 0.0
H911 H 0.96508 0.19422 0.61652 0.0
H912 H 0.01831 0.26277 0.63447 0.0
H913 H 0.9911 0.27762 0.66252 0.0
H914 H 0.93704 0.24349 0.62754 0.0
C915 C 0.99624 0.20374 0.57133 0.0
C916 C 0.01939 0.20008 0.56809 0.0
C917 C 0.03514 0.21375 0.57954 0.0
C918 C 0.0278 0.23005 0.59506 0.0
C919 C 0.00471 0.23257 0.59856 0.0
C920 C 0.98923 0.21992 0.58667 0.0
C921 C 0.96553 0.22398 0.59468 0.0
C922 C 0.95132 0.23497 0.57611 0.0
C923 C 0.95457 0.20212 0.60323 0.0
C924 C 0.97004 0.24016 0.61363 0.0
C925 C 0.99261 0.24535 0.61552 0.0
C926 C 0.00058 0.25905 0.63288 0.0
C927 C 0.98507 0.26737 0.64874 0.0
C928 C 0.96204 0.26157 0.64723 0.0
C929 C 0.95456 0.24815 0.6292 0.0
H930 H 0.02895 0.68196 0.91471 0.0
H931 H 0.96688 0.72012 0.91547 0.0
H932 H 0.98433 0.7485 0.89026 0.0
H933 H 0.06674 0.72945 0.91483 0.0
H934 H 0.08671 0.71566 0.89672 0.0
H935 H 0.06932 0.69929 0.91533 0.0
H936 H 0.0549 0.67596 0.88143 0.0
H937 H 0.0722 0.69225 0.86272 0.0
H938 H 0.04238 0.6902 0.8578 0.0
H939 H 0.00904 0.77178 0.86312 0.0
H940 H 0.03824 0.78749 0.83772 0.0
H941 H 0.08311 0.7332 0.85641 0.0
C942 C 0.01895 0.6963 0.9097 0.0
C943 C 0.99654 0.69882 0.91695 0.0
C944 C 0.98413 0.71791 0.91009 0.0
C945 C 0.99389 0.73408 0.89579 0.0
C946 C 0.01607 0.73089 0.88879 0.0
C947 C 0.0284 0.71248 0.8957 0.0
C948 C 0.05171 0.71241 0.88576 0.0
C949 C 0.06967 0.71433 0.90426 0.0
C950 C 0.0555 0.69147 0.87105 0.0
C951 C 0.0506 0.73348 0.87176 0.0
C952 C 0.03003 0.74409 0.87368 0.0
C953 C 0.02523 0.76365 0.86165 0.0
C954 C 0.04188 0.77244 0.84728 0.0
C955 C 0.06294 0.76157 0.8451 0.0
C956 C 0.06723 0.74198 0.85768 0.0
H957 H 0.5721 0.7611 0.14604 0.0
H958 H 0.52877 0.70309 0.15493 0.0
H959 H 0.50335 0.71783 0.12529 0.0
H960 H 0.52919 0.80127 0.13808 0.0
H961 H 0.5449 0.81709 0.11755 0.0
H962 H 0.55948 0.80133 0.13881 0.0
H963 H 0.58166 0.78016 0.10782 0.0
H964 H 0.567 0.79575 0.08643 0.0
H965 H 0.56653 0.76548 0.08605 0.0
H966 H 0.48212 0.74041 0.09505 0.0
H967 H 0.46696 0.7687 0.06846 0.0
H968 H 0.52556 0.81056 0.08007 0.0
C969 C 0.55729 0.75138 0.14183 0.0
C970 C 0.55237 0.73097 0.15283 0.0
C971 C 0.53283 0.71881 0.14671 0.0
C972 C 0.51837 0.72702 0.12987 0.0
C973 C 0.52385 0.74726 0.11932 0.0
C974 C 0.5429 0.7592 0.12515 0.0
C975 C 0.54505 0.78069 0.11188 0.0
C976 C 0.54462 0.8013 0.12751 0.0
C977 C 0.56632 0.78049 0.09717 0.0
C978 C 0.52406 0.77926 0.09776 0.0
C979 C 0.512 0.75987 0.10209 0.0
C980 C 0.49155 0.75554 0.09145 0.0
C981 C 0.4831 0.77165 0.07633 0.0
C982 C 0.49512 0.79179 0.07214 0.0
C983 C 0.516 0.7953 0.08276 0.0
H984 H 0.20029 0.35372 0.33878 0.0
H985 H 0.16085 0.30473 0.30196 0.0
H986 H 0.16836 0.32532 0.26672 0.0
H987 H 0.18753 0.40425 0.30091 0.0
H988 H 0.21593 0.41425 0.3043 0.0
H989 H 0.2022 0.39957 0.32701 0.0
H990 H 0.2352 0.37124 0.32837 0.0
H991 H 0.24884 0.38554 0.30562 0.0
H992 H 0.24267 0.35598 0.30326 0.0
H993 H 0.18744 0.34562 0.23506 0.0
H994 H 0.2152 0.36421 0.21039 0.0
H995 H 0.2421 0.39992 0.26801 0.0
C996 C 0.19243 0.34783 0.32346 0.0
C997 C 0.17998 0.32763 0.32314 0.0
C998 C 0.17027 0.32028 0.30268 0.0
C999 C 0.17445 0.3319 0.28255 0.0
C1000 C 0.18803 0.35102 0.28325 0.0
C1001 C 0.19651 0.35917 0.30331 0.0
C1002 C 0.21325 0.37792 0.2994 0.0
C1003 C 0.20417 0.40033 0.30844 0.0
C1004 C 0.23634 0.37231 0.30976 0.0
C1005 C 0.21413 0.37796 0.274 0.0
C1006 C 0.19907 0.36277 0.26492 0.0
C1007 C 0.19884 0.35801 0.24194 0.0
C1008 C 0.21474 0.36861 0.22805 0.0
C1009 C 0.23082 0.38358 0.23724 0.0
C1010 C 0.22988 0.38881 0.26038 0.0
H1011 H 0.85713 0.99832 0.5257 0.0
H1012 H 0.89193 0.95688 0.47684 0.0
H1013 H 0.90622 0.93294 0.50752 0.0
H1014 H 0.89908 0.00111 0.56301 0.0
H1015 H 0.88205 0.00027 0.58807 0.0
H1016 H 0.87032 0.01063 0.56232 0.0
H1017 H 0.83811 0.98139 0.56505 0.0
H1018 H 0.84981 0.9709 0.59096 0.0
H1019 H 0.84476 0.95199 0.56784 0.0
H1020 H 0.92252 0.91828 0.54342 0.0
H1021 H 0.93993 0.91513 0.58097 0.0
H1022 H 0.89403 0.96578 0.60627 0.0
C1023 C 0.86714 0.98377 0.52136 0.0
C1024 C 0.87338 0.97947 0.49888 0.0
C1025 C 0.88685 0.96048 0.49395 0.0
C1026 C 0.89495 0.94669 0.51127 0.0
C1027 C 0.88917 0.95192 0.53337 0.0
C1028 C 0.87536 0.96991 0.53841 0.0
C1029 C 0.87408 0.97392 0.56348 0.0
C1030 C 0.88186 0.99788 0.56955 0.0
C1031 C 0.85027 0.96926 0.57235 0.0
C1032 C 0.89049 0.95636 0.57167 0.0
C1033 C 0.8986 0.94341 0.55417 0.0
C1034 C 0.91588 0.92791 0.55735 0.0
C1035 C 0.92569 0.92623 0.57876 0.0
C1036 C 0.91834 0.9402 0.59656 0.0
C1037 C 0.89988 0.95469 0.59308 0.0
H1038 H 0.25109 0.59575 0.76936 0.0
H1039 H 0.28376 0.6284 0.71292 0.0
H1040 H 0.3117 0.64492 0.73882 0.0
H1041 H 0.25213 0.63988 0.80357 0.0
H1042 H 0.25694 0.62481 0.82941 0.0
H1043 H 0.24358 0.61093 0.80625 0.0
H1044 H 0.27399 0.57979 0.80707 0.0
H1045 H 0.28749 0.59362 0.83042 0.0
H1046 H 0.30328 0.58738 0.80533 0.0
H1047 H 0.33105 0.66374 0.77131 0.0
H1048 H 0.33871 0.68385 0.80684 0.0
H1049 H 0.293 0.63909 0.84182 0.0
C1050 C 0.26459 0.60569 0.76228 0.0
C1051 C 0.26525 0.61072 0.73909 0.0
C1052 C 0.28298 0.62418 0.73061 0.0
C1053 C 0.299 0.63356 0.7452 0.0
C1054 C 0.29721 0.6291 0.76817 0.0
C1055 C 0.28053 0.61526 0.7766 0.0
C1056 C 0.27998 0.61572 0.80202 0.0
C1057 C 0.2568 0.6233 0.8108 0.0
C1058 C 0.28659 0.59276 0.81178 0.0
C1059 C 0.29792 0.63311 0.80657 0.0
C1060 C 0.30819 0.64018 0.78694 0.0
C1061 C 0.32353 0.65794 0.78683 0.0
C1062 C 0.32781 0.66927 0.80711 0.0
C1063 C 0.31645 0.66301 0.82708 0.0
C1064 C 0.3021 0.64413 0.82686 0.0
H1065 H 0.55512 0.04908 0.07689 0.0
H1066 H 0.603 0.02573 0.1266 0.0
H1067 H 0.63021 0.01744 0.09652 0.0
H1068 H 0.56296 0.00736 0.04051 0.0
H1069 H 0.56042 0.02328 0.01486 0.0
H1070 H 0.54705 0.03312 0.04004 0.0
H1071 H 0.5681 0.0711 0.03686 0.0
H1072 H 0.5814 0.06148 0.01137 0.0
H1073 H 0.59831 0.07136 0.03449 0.0
H1074 H 0.64849 0.0041 0.06169 0.0
H1075 H 0.65713 0.98804 0.02446 0.0
H1076 H 0.59767 0.02004 0.99697 0.0
C1077 C 0.57172 0.04322 0.08148 0.0
C1078 C 0.57704 0.03819 0.10403 0.0
C1079 C 0.59864 0.02979 0.10939 0.0
C1080 C 0.61425 0.02512 0.09243 0.0
C1081 C 0.60807 0.02911 0.07021 0.0
C1082 C 0.58744 0.03829 0.06468 0.0
C1083 C 0.58366 0.03791 0.0395 0.0
C1084 C 0.56227 0.02461 0.03339 0.0
C1085 C 0.58283 0.06189 0.03 0.0
C1086 C 0.60469 0.0258 0.03193 0.0
C1087 C 0.61879 0.02131 0.04983 0.0
C1088 C 0.63794 0.00805 0.04742 0.0
C1089 C 0.64262 -0.00113 0.02624 0.0
C1090 C 0.62815 0.00292 0.0078 0.0
C1091 C 0.60929 0.01703 0.01064 0.0
H1092 H 0.69464 0.19577 0.68187 0.0
H1093 H 0.70139 0.14083 0.63464 0.0
H1094 H 0.70694 0.11443 0.66613 0.0
H1095 H 0.73835 0.18167 0.713 0.0
H1096 H 0.72741 0.18956 0.74014 0.0
H1097 H 0.71677 0.20281 0.71525 0.0
H1098 H 0.67624 0.19084 0.72576 0.0
H1099 H 0.68676 0.17767 0.75096 0.0
H1100 H 0.67015 0.16169 0.73129 0.0
H1101 H 0.71991 0.09598 0.70082 0.0
H1102 H 0.74032 0.08705 0.73567 0.0
H1103 H 0.72686 0.15415 0.76076 0.0
C1104 C 0.6961 0.17799 0.67832 0.0
C1105 C 0.69718 0.17017 0.65596 0.0
C1106 C 0.70021 0.14701 0.65173 0.0
C1107 C 0.70327 0.1319 0.66952 0.0
C1108 C 0.70333 0.14028 0.69141 0.0
C1109 C 0.69967 0.1628 0.69591 0.0
C1110 C 0.70472 0.16826 0.72028 0.0
C1111 C 0.72289 0.18664 0.72226 0.0
C1112 C 0.68318 0.17501 0.73281 0.0
C1113 C 0.71327 0.14571 0.72833 0.0
C1114 C 0.71163 0.12963 0.71164 0.0
C1115 C 0.72077 0.10825 0.71421 0.0
C1116 C 0.73246 0.10337 0.73405 0.0
C1117 C 0.73517 0.11991 0.75096 0.0
C1118 C 0.72475 0.14105 0.74832 0.0
H1119 H 0.14688 0.50151 0.97987 0.0
H1120 H 0.11363 0.46981 0.03654 0.0
H1121 H 0.09561 0.44278 0.01069 0.0
H1122 H 0.10234 0.50201 0.9457 0.0
H1123 H 0.11722 0.49663 0.91986 0.0
H1124 H 0.13157 0.50959 0.94298 0.0
H1125 H 0.1617 0.47818 0.94217 0.0
H1126 H 0.14739 0.46507 0.91888 0.0
H1127 H 0.15315 0.44918 0.94402 0.0
H1128 H 0.07571 0.42431 0.97827 0.0
H1129 H 0.05541 0.41711 0.94275 0.0
H1130 H 0.10198 0.46081 0.90755 0.0
C1131 C 0.13641 0.48843 0.98699 0.0
C1132 C 0.13171 0.48778 0.01024 0.0
C1133 C 0.11761 0.47058 0.01879 0.0
C1134 C 0.10736 0.45508 0.00423 0.0
C1135 C 0.11164 0.4568 0.98122 0.0
C1136 C 0.12607 0.47293 0.97271 0.0
C1137 C 0.12559 0.47341 0.9473 0.0
C1138 C 0.11876 0.49678 0.93847 0.0
C1139 C 0.14831 0.46601 0.93752 0.0
C1140 C 0.10758 0.45604 0.94284 0.0
C1141 C 0.10012 0.44618 0.96252 0.0
C1142 C 0.0818 0.4315 0.96271 0.0
C1143 C 0.07036 0.42748 0.94243 0.0
C1144 C 0.07712 0.43838 0.92237 0.0
C1145 C 0.09653 0.45205 0.92255 0.0
H1146 H 0.769 0.84803 0.25858 0.0
H1147 H 0.73868 0.91021 0.23566 0.0
H1148 H 0.75743 0.90592 0.19904 0.0
H1149 H 0.82329 0.85336 0.22457 0.0
H1150 H 0.82349 0.82358 0.2191 0.0
H1151 H 0.8122 0.83412 0.24519 0.0
H1152 H 0.77471 0.81336 0.23734 0.0
H1153 H 0.78582 0.80285 0.21134 0.0
H1154 H 0.75999 0.81867 0.21138 0.0
H1155 H 0.77193 0.89116 0.16318 0.0
H1156 H 0.78178 0.86709 0.13086 0.0
H1157 H 0.8042 0.81503 0.17654 0.0
C1158 C 0.76702 0.86117 0.24615 0.0
C1159 C 0.75243 0.87948 0.25 0.0
C1160 C 0.74979 0.89604 0.23311 0.0
C1161 C 0.76051 0.89384 0.21228 0.0
C1162 C 0.77404 0.87511 0.20865 0.0
C1163 C 0.77758 0.85918 0.2252 0.0
C1164 C 0.79035 0.83916 0.21603 0.0
C1165 C 0.81372 0.83746 0.22687 0.0
C1166 C 0.7769 0.81724 0.2192 0.0
C1167 C 0.79209 0.84567 0.19147 0.0
C1168 C 0.783 0.8667 0.18766 0.0
C1169 C 0.77978 0.87501 0.16598 0.0
C1170 C 0.78535 0.86123 0.14773 0.0
C1171 C 0.79413 0.83946 0.15129 0.0
C1172 C 0.79828 0.83194 0.17341 0.0
H1173 H 0.34731 0.49989 0.4766 0.0
H1174 H 0.38111 0.52926 0.53416 0.0
H1175 H 0.40003 0.55637 0.50906 0.0
H1176 H 0.39192 0.49874 0.44278 0.0
H1177 H 0.37748 0.5052 0.41693 0.0
H1178 H 0.36248 0.49224 0.43964 0.0
H1179 H 0.33344 0.52468 0.43931 0.0
H1180 H 0.3484 0.53778 0.41642 0.0
H1181 H 0.34297 0.55332 0.44185 0.0
H1182 H 0.42081 0.57488 0.47721 0.0
H1183 H 0.44168 0.58215 0.442 0.0
H1184 H 0.39407 0.54069 0.40554 0.0
C1185 C 0.35807 0.51252 0.48408 0.0
C1186 C 0.36268 0.51245 0.50735 0.0
C1187 C 0.37718 0.52905 0.51639 0.0
C1188 C 0.38795 0.5446 0.50225 0.0
C1189 C 0.3838 0.54353 0.47919 0.0
C1190 C 0.36895 0.52804 0.47023 0.0
C1191 C 0.36965 0.52809 0.44482 0.0
C1192 C 0.37576 0.5047 0.43552 0.0
C1193 C 0.34728 0.53647 0.43502 0.0
C1194 C 0.38827 0.54493 0.44087 0.0
C1195 C 0.39585 0.55415 0.46081 0.0
C1196 C 0.41464 0.56821 0.46145 0.0
C1197 C 0.4264 0.57227 0.44135 0.0
C1198 C 0.41948 0.562 0.42103 0.0
C1199 C 0.39966 0.54895 0.42077 0.0
H1200 H 0.23666 0.22881 0.33745 0.0
H1201 H 0.25902 0.25107 0.4032 0.0
H1202 H 0.29399 0.22944 0.39861 0.0
H1203 H 0.26542 0.17158 0.33841 0.0
H1204 H 0.27239 0.17388 0.309 0.0
H1205 H 0.24689 0.18638 0.31957 0.0
H1206 H 0.25901 0.22494 0.30331 0.0
H1207 H 0.28434 0.21257 0.29266 0.0
H1208 H 0.28591 0.23653 0.31114 0.0
H1209 H 0.32881 0.21245 0.38428 0.0
H1210 H 0.36142 0.20307 0.36054 0.0
H1211 H 0.31701 0.19098 0.3041 0.0
C1212 C 0.24858 0.22849 0.35119 0.0
C1213 C 0.2451 0.24153 0.37071 0.0
C1214 C 0.26133 0.24118 0.3881 0.0
C1215 C 0.28116 0.22876 0.38573 0.0
C1216 C 0.28444 0.21663 0.36597 0.0
C1217 C 0.26854 0.21629 0.34901 0.0
C1218 C 0.27754 0.20485 0.32813 0.0
C1219 C 0.2648 0.18286 0.32351 0.0
C1220 C 0.27666 0.22067 0.30763 0.0
C1221 C 0.30146 0.20022 0.33545 0.0
C1222 C 0.30489 0.20654 0.35758 0.0
C1223 C 0.32624 0.20682 0.36718 0.0
C1224 C 0.34468 0.2015 0.35357 0.0
C1225 C 0.34161 0.19603 0.33063 0.0
C1226 C 0.31968 0.19438 0.32178 0.0
H1227 H 0.98534 0.03052 0.64225 0.0
H1228 H 0.0336 0.97749 0.6293 0.0
H1229 H 0.05958 0.0052 0.61266 0.0
H1230 H 0.99109 0.05642 0.59222 0.0
H1231 H 0.9881 0.08483 0.60225 0.0
H1232 H 0.97567 0.0621 0.6177 0.0
H1233 H 0.99736 0.07426 0.65348 0.0
H1234 H 0.00987 0.09718 0.63809 0.0
H1235 H 0.0275 0.07719 0.65245 0.0
H1236 H 0.07723 0.03702 0.59166 0.0
H1237 H 0.08442 0.0699 0.56739 0.0
H1238 H 0.02466 0.10214 0.59399 0.0
C1239 C 0.00171 0.02486 0.63667 0.0
C1240 C 0.00749 0.00188 0.6372 0.0
C1241 C 0.02883 0.99504 0.62915 0.0
C1242 C 0.04378 0.01069 0.61978 0.0
C1243 C 0.03721 0.03313 0.61873 0.0
C1244 C 0.01673 0.04024 0.62713 0.0
C1245 C 0.01233 0.06458 0.62129 0.0
C1246 C 0.99053 0.06711 0.60754 0.0
C1247 C 0.01174 0.07916 0.6426 0.0
C1248 C 0.03292 0.06967 0.60724 0.0
C1249 C 0.04735 0.05152 0.60639 0.0
C1250 C 0.06632 0.05152 0.5926 0.0
C1251 C 0.07027 0.07028 0.57884 0.0
C1252 C 0.05514 0.08864 0.5788 0.0
C1253 C 0.03671 0.08853 0.5938 0.0
H1254 H 0.241 0.74879 0.8876 0.0
H1255 H 0.2912 0.7802 0.84502 0.0
H1256 H 0.26278 0.8073 0.83172 0.0
H1257 H 0.20007 0.74777 0.84988 0.0
H1258 H 0.17702 0.75335 0.86874 0.0
H1259 H 0.20223 0.74074 0.87929 0.0
H1260 H 0.20622 0.77273 0.9086 0.0
H1261 H 0.18086 0.78552 0.89806 0.0
H1262 H 0.20652 0.80157 0.89935 0.0
H1263 H 0.22768 0.82528 0.81722 0.0
H1264 H 0.18954 0.83115 0.80206 0.0
H1265 H 0.16232 0.78817 0.85429 0.0
C1266 C 0.24626 0.76185 0.87607 0.0
C1267 C 0.26832 0.76236 0.86736 0.0
C1268 C 0.27442 0.77953 0.85203 0.0
C1269 C 0.25839 0.79509 0.84447 0.0
C1270 C 0.23647 0.79347 0.85266 0.0
C1271 C 0.23049 0.77739 0.86835 0.0
C1272 C 0.20535 0.77683 0.87204 0.0
C1273 C 0.19562 0.7533 0.86717 0.0
C1274 C 0.19939 0.78464 0.89593 0.0
C1275 C 0.19793 0.79386 0.85473 0.0
C1276 C 0.21611 0.80384 0.8442 0.0
C1277 C 0.21333 0.81803 0.82573 0.0
C1278 C 0.19156 0.82129 0.81723 0.0
C1279 C 0.17295 0.81009 0.82699 0.0
C1280 C 0.17617 0.79714 0.84661 0.0
H1281 H 0.46776 0.99541 0.11034 0.0
H1282 H 0.49001 0.96157 0.17094 0.0
H1283 H 0.46885 0.92779 0.15978 0.0
H1284 H 0.41082 0.96535 0.10507 0.0
H1285 H 0.41371 0.96426 0.07492 0.0
H1286 H 0.42519 0.98765 0.09042 0.0
H1287 H 0.46428 0.98021 0.07274 0.0
H1288 H 0.45299 0.95693 0.0573 0.0
H1289 H 0.4768 0.95277 0.07557 0.0
H1290 H 0.45374 0.89581 0.13858 0.0
H1291 H 0.44622 0.86807 0.10872 0.0
H1292 H 0.43254 0.92192 0.06179 0.0
C1293 C 0.46739 0.98121 0.1217 0.0
C1294 C 0.48042 0.98115 0.14156 0.0
C1295 C 0.48009 0.96202 0.15568 0.0
C1296 C 0.46796 0.94279 0.14955 0.0
C1297 C 0.45609 0.94301 0.12935 0.0
C1298 C 0.45551 0.96181 0.11571 0.0
C1299 C 0.44462 0.95659 0.09327 0.0
C1300 C 0.42225 0.96922 0.09078 0.0
C1301 C 0.46064 0.96193 0.07358 0.0
C1302 C 0.44074 0.93156 0.09577 0.0
C1303 C 0.44689 0.9242 0.11697 0.0
C1304 C 0.44811 0.90141 0.12222 0.0
C1305 C 0.44385 0.88577 0.10518 0.0
C1306 C 0.43832 0.89298 0.08322 0.0
C1307 C 0.43582 0.91609 0.07872 0.0
H1308 H 0.75102 0.27243 0.64729 0.0
H1309 H 0.77698 0.25389 0.58176 0.0
H1310 H 0.81126 0.27604 0.58906 0.0
H1311 H 0.77906 0.33007 0.65124 0.0
H1312 H 0.78473 0.326 0.68072 0.0
H1313 H 0.75989 0.31388 0.66825 0.0
H1314 H 0.77178 0.27453 0.68259 0.0
H1315 H 0.79644 0.28651 0.69512 0.0
H1316 H 0.79914 0.26379 0.67527 0.0
H1317 H 0.84492 0.29315 0.60574 0.0
H1318 H 0.87633 0.30152 0.63139 0.0
H1319 H 0.82942 0.30912 0.68659 0.0
C1320 C 0.76356 0.2738 0.63416 0.0
C1321 C 0.76131 0.26169 0.61388 0.0
C1322 C 0.77837 0.26316 0.59738 0.0
C1323 C 0.7978 0.27587 0.6013 0.0
C1324 C 0.7999 0.28703 0.6218 0.0
C1325 C 0.78322 0.28616 0.63799 0.0
C1326 C 0.79114 0.29638 0.65994 0.0
C1327 C 0.77792 0.31787 0.66535 0.0
C1328 C 0.78954 0.27928 0.67935 0.0
C1329 C 0.81532 0.30176 0.65403 0.0
C1330 C 0.81979 0.2969 0.63172 0.0
C1331 C 0.84154 0.29762 0.62305 0.0
C1332 C 0.85928 0.30237 0.63773 0.0
C1333 C 0.8552 0.30625 0.66084 0.0
C1334 C 0.83288 0.30696 0.66884 0.0
H1335 H 0.00188 0.52073 0.86452 0.0
H1336 H 0.96096 0.47115 0.89899 0.0
H1337 H 0.9365 0.5014 0.91332 0.0
H1338 H 0.00432 0.55737 0.90675 0.0
H1339 H 0.00333 0.58267 0.89013 0.0
H1340 H 0.01385 0.55721 0.87797 0.0
H1341 H 0.98458 0.56015 0.84583 0.0
H1342 H 0.97395 0.58581 0.85793 0.0
H1343 H 0.95514 0.56267 0.85256 0.0
H1344 H 0.92143 0.53696 0.92987 0.0
H1345 H 0.91799 0.57418 0.9478 0.0
H1346 H 0.96878 0.60046 0.9025 0.0
C1347 C 0.9873 0.51612 0.87441 0.0
C1348 C 0.98331 0.49357 0.88058 0.0
C1349 C 0.96431 0.48831 0.89394 0.0
C1350 C 0.95024 0.50539 0.90206 0.0
C1351 C 0.95524 0.52759 0.89646 0.0
C1352 C 0.97322 0.53294 0.88271 0.0
C1353 C 0.97711 0.55803 0.8818 0.0
C1354 C 0.00105 0.56415 0.88965 0.0
C1355 C 0.97241 0.5672 0.85812 0.0
C1356 C 0.9595 0.56588 0.89835 0.0
C1357 C 0.9466 0.54819 0.90617 0.0
C1358 C 0.93103 0.55103 0.92347 0.0
C1359 C 0.9292 0.57226 0.93358 0.0
C1360 C 0.94312 0.59025 0.92655 0.0
C1361 C 0.95772 0.58713 0.9081 0.0
H1362 H 0.64537 0.71131 0.14329 0.0
H1363 H 0.67879 0.66339 0.18682 0.0
H1364 H 0.71472 0.67114 0.16748 0.0
H1365 H 0.68237 0.70247 0.09163 0.0
H1366 H 0.6812 0.73206 0.08528 0.0
H1367 H 0.65748 0.71838 0.0983 0.0
H1368 H 0.65858 0.74757 0.13058 0.0
H1369 H 0.68236 0.76112 0.11793 0.0
H1370 H 0.68413 0.75115 0.1465 0.0
H1371 H 0.74775 0.69012 0.14953 0.0
H1372 H 0.77461 0.71755 0.13379 0.0
H1373 H 0.71946 0.75313 0.10209 0.0
C1374 C 0.66006 0.70178 0.1482 0.0
C1375 C 0.65929 0.68674 0.16655 0.0
C1376 C 0.67894 0.67483 0.17267 0.0
C1377 C 0.69943 0.67913 0.16175 0.0
C1378 C 0.69985 0.69508 0.14456 0.0
C1379 C 0.68055 0.70593 0.13755 0.0
C1380 C 0.68577 0.72451 0.12099 0.0
C1381 C 0.67614 0.71902 0.09766 0.0
C1382 C 0.67722 0.74742 0.12953 0.0
C1383 C 0.71114 0.72347 0.1209 0.0
C1384 C 0.71898 0.70607 0.13416 0.0
C1385 C 0.74182 0.70341 0.13863 0.0
C1386 C 0.75695 0.71915 0.1297 0.0
C1387 C 0.74914 0.73746 0.11663 0.0
C1388 C 0.72601 0.73915 0.1117 0.0
H1389 H 0.52194 0.51591 0.40788 0.0
H1390 H 0.50412 0.48827 0.34285 0.0
H1391 H 0.52759 0.45506 0.35053 0.0
H1392 H 0.58078 0.48983 0.4119 0.0
H1393 H 0.57698 0.48461 0.44151 0.0
H1394 H 0.56417 0.50884 0.42862 0.0
H1395 H 0.52521 0.49613 0.44344 0.0
H1396 H 0.53786 0.47203 0.45632 0.0
H1397 H 0.51511 0.46838 0.43664 0.0
H1398 H 0.54536 0.42218 0.36783 0.0
H1399 H 0.55444 0.39148 0.39407 0.0
H1400 H 0.56119 0.43958 0.44831 0.0
C1401 C 0.52378 0.50328 0.39491 0.0
C1402 C 0.51143 0.5047 0.37469 0.0
C1403 C 0.51355 0.48752 0.35841 0.0
C1404 C 0.527 0.46869 0.36255 0.0
C1405 C 0.53829 0.46731 0.38304 0.0
C1406 C 0.53692 0.48421 0.39895 0.0
C1407 C 0.54743 0.47699 0.421 0.0
C1408 C 0.56861 0.4909 0.42605 0.0
C1409 C 0.53038 0.47845 0.44047 0.0
C1410 C 0.55343 0.45287 0.41552 0.0
C1411 C 0.54867 0.44788 0.3933 0.0
C1412 C 0.5498 0.426 0.38506 0.0
C1413 C 0.55493 0.40866 0.40008 0.0
C1414 C 0.55881 0.41328 0.42308 0.0
C1415 C 0.55904 0.43574 0.43064 0.0
H1416 H 0.39264 0.28282 0.26165 0.0
H1417 H 0.37124 0.23382 0.21208 0.0
H1418 H 0.3578 0.26448 0.18762 0.0
H1419 H 0.34642 0.31497 0.25877 0.0
H1420 H 0.36014 0.34173 0.26249 0.0
H1421 H 0.37289 0.31672 0.27343 0.0
H1422 H 0.40922 0.32516 0.25088 0.0
H1423 H 0.39654 0.35035 0.23985 0.0
H1424 H 0.40762 0.32946 0.22092 0.0
H1425 H 0.34086 0.29949 0.17184 0.0
H1426 H 0.32056 0.33531 0.16705 0.0
H1427 H 0.35269 0.36131 0.22715 0.0
C1428 C 0.38587 0.27856 0.2453 0.0
C1429 C 0.38311 0.25595 0.23872 0.0
C1430 C 0.37361 0.25104 0.21744 0.0
C1431 C 0.36606 0.26836 0.20336 0.0
C1432 C 0.36827 0.29048 0.21074 0.0
C1433 C 0.37809 0.29561 0.23118 0.0
C1434 C 0.3756 0.32027 0.23676 0.0
C1435 C 0.36301 0.32359 0.25917 0.0
C1436 C 0.39862 0.332 0.23711 0.0
C1437 C 0.36171 0.32795 0.21692 0.0
C1438 C 0.35816 0.31071 0.20176 0.0
C1439 C 0.34392 0.31326 0.18332 0.0
C1440 C 0.33245 0.33368 0.18073 0.0
C1441 C 0.33504 0.35112 0.19673 0.0
C1442 C 0.35051 0.3484 0.21452 0.0
H1443 H 0.82008 0.18194 0.80712 0.0
H1444 H 0.86036 0.12527 0.78549 0.0
H1445 H 0.88936 0.15124 0.77128 0.0
H1446 H 0.82736 0.21257 0.76055 0.0
H1447 H 0.82873 0.23988 0.77356 0.0
H1448 H 0.81397 0.21743 0.78731 0.0
H1449 H 0.83859 0.22245 0.82288 0.0
H1450 H 0.85331 0.24522 0.80932 0.0
H1451 H 0.86877 0.22168 0.82041 0.0
H1452 H 0.90984 0.18248 0.75278 0.0
H1453 H 0.92084 0.21683 0.73234 0.0
H1454 H 0.86728 0.25348 0.76561 0.0
C1455 C 0.83549 0.17503 0.80036 0.0
C1456 C 0.83812 0.15163 0.79761 0.0
C1457 C 0.85812 0.14316 0.78789 0.0
C1458 C 0.87472 0.15779 0.77984 0.0
C1459 C 0.87111 0.18083 0.78172 0.0
C1460 C 0.85212 0.18944 0.792 0.0
C1461 C 0.85074 0.21468 0.78903 0.0
C1462 C 0.82892 0.22152 0.77688 0.0
C1463 C 0.85299 0.22672 0.81177 0.0
C1464 C 0.8712 0.21869 0.77443 0.0
C1465 C 0.88298 0.19904 0.77079 0.0
C1466 C 0.9011 0.1981 0.75596 0.0
C1467 C 0.90715 0.21767 0.74432 0.0
C1468 C 0.89501 0.23788 0.74748 0.0
C1469 C 0.87716 0.23842 0.76314 0.0
H1470 H 0.02983 0.64747 -0.00082 0.0
H1471 H 0.97962 0.61546 0.04132 0.0
H1472 H 0.00961 0.60185 0.06653 0.0
H1473 H 0.06595 0.60478 0.99871 0.0
H1474 H 0.09144 0.62118 -0.00092 0.0
H1475 H 0.06613 0.63311 0.98795 0.0
H1476 H 0.06941 0.66642 0.01584 0.0
H1477 H 0.09489 0.65451 0.02712 0.0
H1478 H 0.07173 0.66095 0.04556 0.0
H1479 H 0.04496 0.58571 0.08261 0.0
H1480 H 0.08186 0.56726 0.08673 0.0
H1481 H 0.10886 0.60979 0.03401 0.0
C1482 C 0.02504 0.63826 0.01413 0.0
C1483 C 0.00238 0.63258 0.0183 0.0
C1484 C 0.99687 0.62012 0.03783 0.0
C1485 C 0.0138 0.61243 0.05234 0.0
C1486 C 0.0361 0.61758 0.04723 0.0
C1487 C 0.04169 0.63041 0.02865 0.0
C1488 C 0.06681 0.63086 0.02484 0.0
C1489 C 0.07292 0.62193 0.00127 0.0
C1490 C 0.07626 0.6546 0.02857 0.0
C1491 C 0.07439 0.61503 0.04319 0.0
C1492 C 0.05656 0.60807 0.0564 0.0
C1493 C 0.05913 0.59146 0.07275 0.0
C1494 C 0.08019 0.58107 0.075 0.0
C1495 C 0.09822 0.5871 0.06067 0.0
C1496 C 0.09545 0.60498 0.04534 0.0
H1497 H 0.68768 0.80386 0.31169 0.0
H1498 H 0.63386 0.85264 0.30739 0.0
H1499 H 0.60746 0.82267 0.29645 0.0
H1500 H 0.67597 0.77779 0.26424 0.0
H1501 H 0.68245 0.74945 0.27268 0.0
H1502 H 0.69552 0.77264 0.28681 0.0
H1503 H 0.68056 0.75838 0.32514 0.0
H1504 H 0.66764 0.73479 0.31114 0.0
H1505 H 0.65094 0.75302 0.32863 0.0
H1506 H 0.58975 0.7906 0.2773 0.0
H1507 H 0.58154 0.75817 0.25284 0.0
H1508 H 0.6465 0.72952 0.26919 0.0
C1509 C 0.67007 0.80795 0.30963 0.0
C1510 C 0.66269 0.83045 0.31063 0.0
C1511 C 0.63975 0.83544 0.30689 0.0
C1512 C 0.62463 0.8185 0.30074 0.0
C1513 C 0.63269 0.79665 0.2985 0.0
C1514 C 0.65482 0.79122 0.30317 0.0
C1515 C 0.66011 0.76739 0.29593 0.0
C1516 C 0.67965 0.76681 0.27891 0.0
C1517 C 0.6651 0.75251 0.31644 0.0
C1518 C 0.63803 0.76088 0.28506 0.0
C1519 C 0.62227 0.7778 0.28721 0.0
C1520 C 0.60167 0.77693 0.27609 0.0
C1521 C 0.59722 0.75853 0.2621 0.0
C1522 C 0.61331 0.74127 0.25931 0.0
C1523 C 0.63367 0.74221 0.27147 0.0
H1524 H 0.38901 0.3929 0.52465 0.0
H1525 H 0.41058 0.43008 0.58356 0.0
H1526 H 0.44834 0.41336 0.58018 0.0
H1527 H 0.42663 0.34175 0.53373 0.0
H1528 H 0.43129 0.33943 0.50388 0.0
H1529 H 0.40477 0.34971 0.51433 0.0
H1530 H 0.40947 0.38562 0.49017 0.0
H1531 H 0.43603 0.37571 0.47994 0.0
H1532 H 0.43429 0.40268 0.4936 0.0
H1533 H 0.48531 0.39968 0.56546 0.0
H1534 H 0.51762 0.38831 0.54201 0.0
H1535 H 0.47176 0.35973 0.49301 0.0
C1536 C 0.40139 0.39685 0.53739 0.0
C1537 C 0.39683 0.4128 0.55435 0.0
C1538 C 0.41361 0.41777 0.5705 0.0
C1539 C 0.43514 0.40834 0.56872 0.0
C1540 C 0.43947 0.39368 0.55095 0.0
C1541 C 0.4229 0.38759 0.53583 0.0
C1542 C 0.4324 0.3739 0.51663 0.0
C1543 C 0.42323 0.34976 0.51719 0.0
C1544 C 0.42778 0.38517 0.49376 0.0
C1545 C 0.45711 0.37448 0.5225 0.0
C1546 C 0.46086 0.38558 0.54257 0.0
C1547 C 0.48254 0.39041 0.55006 0.0
C1548 C 0.5008 0.384 0.53656 0.0
C1549 C 0.49723 0.37301 0.51574 0.0
C1550 C 0.47509 0.36774 0.50902 0.0
H1551 H 0.14628 0.64096 0.72523 0.0
H1552 H 0.18205 0.66656 0.66702 0.0
H1553 H 0.1648 0.7038 0.67299 0.0
H1554 H 0.09451 0.67803 0.71979 0.0
H1555 H 0.09292 0.68091 0.74992 0.0
H1556 H 0.10338 0.65526 0.73768 0.0
H1557 H 0.13988 0.65923 0.76109 0.0
H1558 H 0.12976 0.68494 0.77313 0.0
H1559 H 0.15639 0.68454 0.75867 0.0
H1560 H 0.15029 0.73954 0.68988 0.0
H1561 H 0.1388 0.77019 0.71536 0.0
H1562 H 0.11279 0.72103 0.76259 0.0
C1563 C 0.14985 0.65414 0.71319 0.0
C1564 C 0.1655 0.65084 0.69565 0.0
C1565 C 0.16997 0.66863 0.68048 0.0
C1566 C 0.16023 0.68986 0.68374 0.0
C1567 C 0.14583 0.69287 0.70201 0.0
C1568 C 0.14036 0.67535 0.71627 0.0
C1569 C 0.12701 0.68343 0.73634 0.0
C1570 C 0.10303 0.67384 0.73589 0.0
C1571 C 0.13899 0.6777 0.7586 0.0
C1572 C 0.127 0.70842 0.73192 0.0
C1573 C 0.13749 0.71354 0.71181 0.0
C1574 C 0.14155 0.7357 0.70537 0.0
C1575 C 0.13505 0.753 0.72002 0.0
C1576 C 0.12483 0.74802 0.74096 0.0
C1577 C 0.12028 0.72543 0.74659 0.0
H1578 H 0.5199 0.85619 0.99005 0.0
H1579 H 0.46508 0.89558 0.96256 0.0
H1580 H 0.49176 0.91482 0.93723 0.0
H1581 H 0.55702 0.89849 0.99429 0.0
H1582 H 0.58172 0.88257 0.98698 0.0
H1583 H 0.55786 0.86858 -0.00102 0.0
H1584 H 0.55632 0.84163 0.96477 0.0
H1585 H 0.58027 0.85566 0.95259 0.0
H1586 H 0.55458 0.85303 0.93675 0.0
H1587 H 0.52507 0.9345 0.92031 0.0
H1588 H 0.56162 0.95332 0.91454 0.0
H1589 H 0.59447 0.90051 0.95254 0.0
C1590 C 0.51335 0.86836 0.97822 0.0
C1591 C 0.49039 0.87433 0.97829 0.0
C1592 C 0.48259 0.89061 0.96276 0.0
C1593 C 0.49761 0.90157 0.94821 0.0
C1594 C 0.52031 0.89582 0.94915 0.0
C1595 C 0.52808 0.8794 0.96364 0.0
C1596 C 0.55347 0.87826 0.9636 0.0
C1597 C 0.56306 0.88223 0.98736 0.0
C1598 C 0.56164 0.85581 0.95384 0.0
C1599 C 0.55885 0.89754 0.94793 0.0
C1600 C 0.53956 0.90714 0.93929 0.0
C1601 C 0.54031 0.92679 0.92652 0.0
C1602 C 0.56119 0.93737 0.92329 0.0
C1603 C 0.58095 0.92839 0.93306 0.0
C1604 C 0.57975 0.90769 0.94461 0.0
H1605 H 0.9023 0.09486 0.45808 0.0
H1606 H 0.93078 0.04515 0.41305 0.0
H1607 H 0.96793 0.06319 0.41679 0.0
H1608 H 0.94169 0.14336 0.44182 0.0
H1609 H 0.94242 0.15271 0.47063 0.0
H1610 H 0.9173 0.13991 0.45948 0.0
H1611 H 0.918 0.11079 0.49184 0.0
H1612 H 0.94317 0.12317 0.50287 0.0
H1613 H 0.9427 0.09372 0.49584 0.0
H1614 H 0.00276 0.08028 0.4327 0.0
H1615 H 0.03182 0.09652 0.45749 0.0
H1616 H 0.98066 0.13553 0.49172 0.0
C1617 C 0.91615 0.08833 0.44824 0.0
C1618 C 0.91365 0.0686 0.4353 0.0
C1619 C 0.93223 0.06037 0.42292 0.0
C1620 C 0.95343 0.07052 0.42495 0.0
C1621 C 0.95562 0.08913 0.43904 0.0
C1622 C 0.93733 0.09827 0.4501 0.0
C1623 C 0.94448 0.11623 0.46662 0.0
C1624 C 0.93597 0.13943 0.45918 0.0
C1625 C 0.93664 0.11062 0.49069 0.0
C1626 C 0.96974 0.11462 0.46438 0.0
C1627 C 0.97587 0.09926 0.44806 0.0
C1628 C 0.9982 0.09285 0.44503 0.0
C1629 C 0.01458 0.10205 0.45929 0.0
C1630 C 0.00851 0.11741 0.47643 0.0
C1631 C 0.98589 0.12421 0.47846 0.0
loop_
_geom_bond_atom_site_label_1
_geom_bond_atom_site_label_2
_geom_bond_distance
_geom_bond_site_symmetry_2
_ccdc_geom_bond_type
O0 Cd1 2.223 . S
O0 C8 1.315 . S
Cd1 O0 2.223 . S
Cd1 O4 2.297 . S
Cd1 O5 2.439 . S
Cd1 O11 2.240 . S
Cd2 O3 2.240 . S
Cd2 O10 2.223 . S
Cd2 O12 2.297 . S
Cd2 O13 2.439 . S
O3 Cd2 2.240 . S
O3 C8 1.279 . S
O4 Cd1 2.297 . S
O4 C6 1.247 . S
O5 Cd1 2.439 . S
O5 C6 1.208 . S
C6 O4 1.247 . S
C6 O5 1.208 . S
C7 O12 1.247 . S
C7 O13 1.208 . S
C8 O0 1.315 . S
C8 O3 1.279 . S
C9 O10 1.315 . S
C9 O11 1.279 . S
O10 Cd2 2.223 . S
O10 C9 1.315 . S
O11 Cd1 2.240 . S
O11 C9 1.279 . S
O12 Cd2 2.297 . S
O12 C7 1.247 . S
O13 Cd2 2.439 . S
O13 C7 1.208 . S
O14 Cd15 2.223 . S
O14 C22 1.315 . S
Cd15 O14 2.223 . S
Cd15 O18 2.297 . S
Cd15 O19 2.439 . S
Cd15 O25 2.240 . S
Cd16 O17 2.240 . S
Cd16 O24 2.223 . S
Cd16 O26 2.297 . S
Cd16 O27 2.439 . S
O17 Cd16 2.240 . S
O17 C22 1.279 . S
O18 Cd15 2.297 . S
O18 C20 1.247 . S
O19 Cd15 2.439 . S
O19 C20 1.208 . S
C20 O18 1.247 . S
C20 O19 1.208 . S
C21 O26 1.247 . S
C21 O27 1.208 . S
C22 O14 1.315 . S
C22 O17 1.279 . S
C23 O24 1.315 . S
C23 O25 1.279 . S
O24 Cd16 2.223 . S
O24 C23 1.315 . S
O25 Cd15 2.240 . S
O25 C23 1.279 . S
O26 Cd16 2.297 . S
O26 C21 1.247 . S
O27 Cd16 2.439 . S
O27 C21 1.208 . S
O28 Cd29 2.223 . S
O28 C36 1.315 . S
Cd29 O28 2.223 . S
Cd29 O32 2.297 . S
Cd29 O33 2.439 . S
Cd29 O39 2.240 . S
Cd30 O31 2.240 . S
Cd30 O38 2.223 . S
Cd30 O40 2.297 . S
Cd30 O41 2.439 . S
O31 Cd30 2.240 . S
O31 C36 1.279 . S
O32 Cd29 2.297 . S
O32 C34 1.247 . S
O33 Cd29 2.439 . S
O33 C34 1.208 . S
C34 O32 1.247 . S
C34 O33 1.208 . S
C35 O40 1.247 . S
C35 O41 1.208 . S
C36 O28 1.315 . S
C36 O31 1.279 . S
C37 O38 1.315 . S
C37 O39 1.279 . S
O38 Cd30 2.223 . S
O38 C37 1.315 . S
O39 Cd29 2.240 . S
O39 C37 1.279 . S
O40 Cd30 2.297 . S
O40 C35 1.247 . S
O41 Cd30 2.439 . S
O41 C35 1.208 . S
O42 Cd43 2.223 . S
O42 C50 1.315 . S
Cd43 O42 2.223 . S
Cd43 O46 2.297 . S
Cd43 O47 2.439 . S
Cd43 O53 2.240 . S
Cd44 O45 2.240 . S
Cd44 O52 2.223 . S
Cd44 O54 2.297 . S
Cd44 O55 2.439 . S
O45 Cd44 2.240 . S
O45 C50 1.279 . S
O46 Cd43 2.297 . S
O46 C48 1.247 . S
O47 Cd43 2.439 . S
O47 C48 1.208 . S
C48 O46 1.247 . S
C48 O47 1.208 . S
C49 O54 1.247 . S
C49 O55 1.208 . S
C50 O42 1.315 . S
C50 O45 1.279 . S
C51 O52 1.315 . S
C51 O53 1.279 . S
O52 Cd44 2.223 . S
O52 C51 1.315 . S
O53 Cd43 2.240 . S
O53 C51 1.279 . S
O54 Cd44 2.297 . S
O54 C49 1.247 . S
O55 Cd44 2.439 . S
O55 C49 1.208 . S
O56 Cd57 2.223 . S
O56 C64 1.315 . S
Cd57 O56 2.223 . S
Cd57 O60 2.297 . S
Cd57 O61 2.439 . S
Cd57 O67 2.240 . S
Cd58 O59 2.240 . S
Cd58 O66 2.223 . S
Cd58 O68 2.297 . S
Cd58 O69 2.439 . S
O59 Cd58 2.240 . S
O59 C64 1.279 . S
O60 Cd57 2.297 . S
O60 C62 1.247 . S
O61 Cd57 2.439 . S
O61 C62 1.208 . S
C62 O60 1.247 . S
C62 O61 1.208 . S
C63 O68 1.247 . S
C63 O69 1.208 . S
C64 O56 1.315 . S
C64 O59 1.279 . S
C65 O66 1.315 . S
C65 O67 1.279 . S
O66 Cd58 2.223 . S
O66 C65 1.315 . S
O67 Cd57 2.240 . S
O67 C65 1.279 . S
O68 Cd58 2.297 . S
O68 C63 1.247 . S
O69 Cd58 2.439 . S
O69 C63 1.208 . S
O70 Cd71 2.223 . S
O70 C78 1.315 . S
Cd71 O70 2.223 . S
Cd71 O74 2.297 . S
Cd71 O75 2.439 . S
Cd71 O81 2.240 . S
Cd72 O73 2.240 . S
Cd72 O80 2.223 . S
Cd72 O82 2.297 . S
Cd72 O83 2.439 . S
O73 Cd72 2.240 . S
O73 C78 1.279 . S
O74 Cd71 2.297 . S
O74 C76 1.247 . S
O75 Cd71 2.439 . S
O75 C76 1.208 . S
C76 O74 1.247 . S
C76 O75 1.208 . S
C77 O82 1.247 . S
C77 O83 1.208 . S
C78 O70 1.315 . S
C78 O73 1.279 . S
C79 O80 1.315 . S
C79 O81 1.279 . S
O80 Cd72 2.223 . S
O80 C79 1.315 . S
O81 Cd71 2.240 . S
O81 C79 1.279 . S
O82 Cd72 2.297 . S
O82 C77 1.247 . S
O83 Cd72 2.439 . S
O83 C77 1.208 . S
O84 Cd85 2.223 . S
O84 C92 1.315 . S
Cd85 O84 2.223 . S
Cd85 O88 2.297 . S
Cd85 O89 2.439 . S
Cd85 O95 2.240 . S
Cd86 O87 2.240 . S
Cd86 O94 2.223 . S
Cd86 O96 2.297 . S
Cd86 O97 2.439 . S
O87 Cd86 2.240 . S
O87 C92 1.279 . S
O88 Cd85 2.297 . S
O88 C90 1.247 . S
O89 Cd85 2.439 . S
O89 C90 1.208 . S
C90 O88 1.247 . S
C90 O89 1.208 . S
C91 O96 1.247 . S
C91 O97 1.208 . S
C92 O84 1.315 . S
C92 O87 1.279 . S
C93 O94 1.315 . S
C93 O95 1.279 . S
O94 Cd86 2.223 . S
O94 C93 1.315 . S
O95 Cd85 2.240 . S
O95 C93 1.279 . S
O96 Cd86 2.297 . S
O96 C91 1.247 . S
O97 Cd86 2.439 . S
O97 C91 1.208 . S
O98 Cd99 2.223 . S
O98 C106 1.315 . S
Cd99 O98 2.223 . S
Cd99 O102 2.297 . S
Cd99 O103 2.439 . S
Cd99 O109 2.240 . S
Cd100 O101 2.240 . S
Cd100 O108 2.223 . S
Cd100 O110 2.297 . S
Cd100 O111 2.439 . S
O101 Cd100 2.240 . S
O101 C106 1.279 . S
O102 Cd99 2.297 . S
O102 C104 1.247 . S
O103 Cd99 2.439 . S
O103 C104 1.208 . S
C104 O102 1.247 . S
C104 O103 1.208 . S
C105 O110 1.247 . S
C105 O111 1.208 . S
C106 O98 1.315 . S
C106 O101 1.279 . S
C107 O108 1.315 . S
C107 O109 1.279 . S
O108 Cd100 2.223 . S
O108 C107 1.315 . S
O109 Cd99 2.240 . S
O109 C107 1.279 . S
O110 Cd100 2.297 . S
O110 C105 1.247 . S
O111 Cd100 2.439 . S
O111 C105 1.208 . S
O112 Cd113 2.223 . S
O112 C120 1.315 . S
Cd113 O112 2.223 . S
Cd113 O116 2.297 . S
Cd113 O117 2.439 . S
Cd113 O123 2.240 . S
Cd114 O115 2.240 . S
Cd114 O122 2.223 . S
Cd114 O124 2.297 . S
Cd114 O125 2.439 . S
O115 Cd114 2.240 . S
O115 C120 1.279 . S
O116 Cd113 2.297 . S
O116 C118 1.247 . S
O117 Cd113 2.439 . S
O117 C118 1.208 . S
C118 O116 1.247 . S
C118 O117 1.208 . S
C119 O124 1.247 . S
C119 O125 1.208 . S
C120 O112 1.315 . S
C120 O115 1.279 . S
C121 O122 1.315 . S
C121 O123 1.279 . S
O122 Cd114 2.223 . S
O122 C121 1.315 . S
O123 Cd113 2.240 . S
O123 C121 1.279 . S
O124 Cd114 2.297 . S
O124 C119 1.247 . S
O125 Cd114 2.439 . S
O125 C119 1.208 . S
O126 Cd127 2.223 . S
O126 C134 1.315 . S
Cd127 O126 2.223 . S
Cd127 O130 2.297 . S
Cd127 O131 2.439 . S
Cd127 O137 2.240 . S
Cd128 O129 2.240 . S
Cd128 O136 2.223 . S
Cd128 O138 2.297 . S
Cd128 O139 2.439 . S
O129 Cd128 2.240 . S
O129 C134 1.279 . S
O130 Cd127 2.297 . S
O130 C132 1.247 . S
O131 Cd127 2.439 . S
O131 C132 1.208 . S
C132 O130 1.247 . S
C132 O131 1.208 . S
C133 O138 1.247 . S
C133 O139 1.208 . S
C134 O126 1.315 . S
C134 O129 1.279 . S
C135 O136 1.315 . S
C135 O137 1.279 . S
O136 Cd128 2.223 . S
O136 C135 1.315 . S
O137 Cd127 2.240 . S
O137 C135 1.279 . S
O138 Cd128 2.297 . S
O138 C133 1.247 . S
O139 Cd128 2.439 . S
O139 C133 1.208 . S
O140 Cd141 2.223 . S
O140 C148 1.315 . S
Cd141 O140 2.223 . S
Cd141 O144 2.297 . S
Cd141 O145 2.439 . S
Cd141 O151 2.240 . S
Cd142 O143 2.240 . S
Cd142 O150 2.223 . S
Cd142 O152 2.297 . S
Cd142 O153 2.439 . S
O143 Cd142 2.240 . S
O143 C148 1.279 . S
O144 Cd141 2.297 . S
O144 C146 1.247 . S
O145 Cd141 2.439 . S
O145 C146 1.208 . S
C146 O144 1.247 . S
C146 O145 1.208 . S
C147 O152 1.247 . S
C147 O153 1.208 . S
C148 O140 1.315 . S
C148 O143 1.279 . S
C149 O150 1.315 . S
C149 O151 1.279 . S
O150 Cd142 2.223 . S
O150 C149 1.315 . S
O151 Cd141 2.240 . S
O151 C149 1.279 . S
O152 Cd142 2.297 . S
O152 C147 1.247 . S
O153 Cd142 2.439 . S
O153 C147 1.208 . S
O154 Cd155 2.223 . S
O154 C162 1.315 . S
Cd155 O154 2.223 . S
Cd155 O158 2.297 . S
Cd155 O159 2.439 . S
Cd155 O165 2.240 . S
Cd156 O157 2.240 . S
Cd156 O164 2.223 . S
Cd156 O166 2.297 . S
Cd156 O167 2.439 . S
O157 Cd156 2.240 . S
O157 C162 1.279 . S
O158 Cd155 2.297 . S
O158 C160 1.247 . S
O159 Cd155 2.439 . S
O159 C160 1.208 . S
C160 O158 1.247 . S
C160 O159 1.208 . S
C161 O166 1.247 . S
C161 O167 1.208 . S
C162 O154 1.315 . S
C162 O157 1.279 . S
C163 O164 1.315 . S
C163 O165 1.279 . S
O164 Cd156 2.223 . S
O164 C163 1.315 . S
O165 Cd155 2.240 . S
O165 C163 1.279 . S
O166 Cd156 2.297 . S
O166 C161 1.247 . S
O167 Cd156 2.439 . S
O167 C161 1.208 . S
O168 Cd169 2.223 . S
O168 C176 1.315 . S
Cd169 O168 2.223 . S
Cd169 O172 2.297 . S
Cd169 O173 2.439 . S
Cd169 O179 2.240 . S
Cd170 O171 2.240 . S
Cd170 O178 2.223 . S
Cd170 O180 2.297 . S
Cd170 O181 2.439 . S
O171 Cd170 2.240 . S
O171 C176 1.279 . S
O172 Cd169 2.297 . S
O172 C174 1.247 . S
O173 Cd169 2.439 . S
O173 C174 1.208 . S
C174 O172 1.247 . S
C174 O173 1.208 . S
C175 O180 1.247 . S
C175 O181 1.208 . S
C176 O168 1.315 . S
C176 O171 1.279 . S
C177 O178 1.315 . S
C177 O179 1.279 . S
O178 Cd170 2.223 . S
O178 C177 1.315 . S
O179 Cd169 2.240 . S
O179 C177 1.279 . S
O180 Cd170 2.297 . S
O180 C175 1.247 . S
O181 Cd170 2.439 . S
O181 C175 1.208 . S
O182 Cd183 2.223 . S
O182 C190 1.315 . S
Cd183 O182 2.223 . S
Cd183 O186 2.297 . S
Cd183 O187 2.439 . S
Cd183 O193 2.240 . S
Cd184 O185 2.240 . S
Cd184 O192 2.223 . S
Cd184 O194 2.297 . S
Cd184 O195 2.439 . S
O185 Cd184 2.240 . S
O185 C190 1.279 . S
O186 Cd183 2.297 . S
O186 C188 1.247 . S
O187 Cd183 2.439 . S
O187 C188 1.208 . S
C188 O186 1.247 . S
C188 O187 1.208 . S
C189 O194 1.247 . S
C189 O195 1.208 . S
C190 O182 1.315 . S
C190 O185 1.279 . S
C191 O192 1.315 . S
C191 O193 1.279 . S
O192 Cd184 2.223 . S
O192 C191 1.315 . S
O193 Cd183 2.240 . S
O193 C191 1.279 . S
O194 Cd184 2.297 . S
O194 C189 1.247 . S
O195 Cd184 2.439 . S
O195 C189 1.208 . S
O196 Cd197 2.223 . S
O196 C204 1.315 . S
Cd197 O196 2.223 . S
Cd197 O200 2.297 . S
Cd197 O201 2.439 . S
Cd197 O207 2.240 . S
Cd198 O199 2.240 . S
Cd198 O206 2.223 . S
Cd198 O208 2.297 . S
Cd198 O209 2.439 . S
O199 Cd198 2.240 . S
O199 C204 1.279 . S
O200 Cd197 2.297 . S
O200 C202 1.247 . S
O201 Cd197 2.439 . S
O201 C202 1.208 . S
C202 O200 1.247 . S
C202 O201 1.208 . S
C203 O208 1.247 . S
C203 O209 1.208 . S
C204 O196 1.315 . S
C204 O199 1.279 . S
C205 O206 1.315 . S
C205 O207 1.279 . S
O206 Cd198 2.223 . S
O206 C205 1.315 . S
O207 Cd197 2.240 . S
O207 C205 1.279 . S
O208 Cd198 2.297 . S
O208 C203 1.247 . S
O209 Cd198 2.439 . S
O209 C203 1.208 . S
O210 Cd211 2.223 . S
O210 C218 1.315 . S
Cd211 O210 2.223 . S
Cd211 O214 2.297 . S
Cd211 O215 2.439 . S
Cd211 O221 2.240 . S
Cd212 O213 2.240 . S
Cd212 O220 2.223 . S
Cd212 O222 2.297 . S
Cd212 O223 2.439 . S
O213 Cd212 2.240 . S
O213 C218 1.279 . S
O214 Cd211 2.297 . S
O214 C216 1.247 . S
O215 Cd211 2.439 . S
O215 C216 1.208 . S
C216 O214 1.247 . S
C216 O215 1.208 . S
C217 O222 1.247 . S
C217 O223 1.208 . S
C218 O210 1.315 . S
C218 O213 1.279 . S
C219 O220 1.315 . S
C219 O221 1.279 . S
O220 Cd212 2.223 . S
O220 C219 1.315 . S
O221 Cd211 2.240 . S
O221 C219 1.279 . S
O222 Cd212 2.297 . S
O222 C217 1.247 . S
O223 Cd212 2.439 . S
O223 C217 1.208 . S
O224 Cd225 2.223 . S
O224 C232 1.315 . S
Cd225 O224 2.223 . S
Cd225 O228 2.297 . S
Cd225 O229 2.439 . S
Cd225 O235 2.240 . S
Cd226 O227 2.240 . S
Cd226 O234 2.223 . S
Cd226 O236 2.297 . S
Cd226 O237 2.439 . S
O227 Cd226 2.240 . S
O227 C232 1.279 . S
O228 Cd225 2.297 . S
O228 C230 1.247 . S
O229 Cd225 2.439 . S
O229 C230 1.208 . S
C230 O228 1.247 . S
C230 O229 1.208 . S
C231 O236 1.247 . S
C231 O237 1.208 . S
C232 O224 1.315 . S
C232 O227 1.279 . S
C233 O234 1.315 . S
C233 O235 1.279 . S
O234 Cd226 2.223 . S
O234 C233 1.315 . S
O235 Cd225 2.240 . S
O235 C233 1.279 . S
O236 Cd226 2.297 . S
O236 C231 1.247 . S
O237 Cd226 2.439 . S
O237 C231 1.208 . S
O238 Cd239 2.223 . S
O238 C246 1.315 . S
Cd239 O238 2.223 . S
Cd239 O242 2.297 . S
Cd239 O243 2.439 . S
Cd239 O249 2.240 . S
Cd240 O241 2.240 . S
Cd240 O248 2.223 . S
Cd240 O250 2.297 . S
Cd240 O251 2.439 . S
O241 Cd240 2.240 . S
O241 C246 1.279 . S
O242 Cd239 2.297 . S
O242 C244 1.247 . S
O243 Cd239 2.439 . S
O243 C244 1.208 . S
C244 O242 1.247 . S
C244 O243 1.208 . S
C245 O250 1.247 . S
C245 O251 1.208 . S
C246 O238 1.315 . S
C246 O241 1.279 . S
C247 O248 1.315 . S
C247 O249 1.279 . S
O248 Cd240 2.223 . S
O248 C247 1.315 . S
O249 Cd239 2.240 . S
O249 C247 1.279 . S
O250 Cd240 2.297 . S
O250 C245 1.247 . S
O251 Cd240 2.439 . S
O251 C245 1.208 . S
O252 Cd253 2.223 . S
O252 C260 1.315 . S
Cd253 O252 2.223 . S
Cd253 O256 2.297 . S
Cd253 O257 2.439 . S
Cd253 O263 2.240 . S
Cd254 O255 2.240 . S
Cd254 O262 2.223 . S
Cd254 O264 2.297 . S
Cd254 O265 2.439 . S
O255 Cd254 2.240 . S
O255 C260 1.279 . S
O256 Cd253 2.297 . S
O256 C258 1.247 . S
O257 Cd253 2.439 . S
O257 C258 1.208 . S
C258 O256 1.247 . S
C258 O257 1.208 . S
C259 O264 1.247 . S
C259 O265 1.208 . S
C260 O252 1.315 . S
C260 O255 1.279 . S
C261 O262 1.315 . S
C261 O263 1.279 . S
O262 Cd254 2.223 . S
O262 C261 1.315 . S
O263 Cd253 2.240 . S
O263 C261 1.279 . S
O264 Cd254 2.297 . S
O264 C259 1.247 . S
O265 Cd254 2.439 . S
O265 C259 1.208 . S
O266 Cd267 2.223 . S
O266 C274 1.315 . S
Cd267 O266 2.223 . S
Cd267 O270 2.297 . S
Cd267 O271 2.439 . S
Cd267 O277 2.240 . S
Cd268 O269 2.240 . S
Cd268 O276 2.223 . S
Cd268 O278 2.297 . S
Cd268 O279 2.439 . S
O269 Cd268 2.240 . S
O269 C274 1.279 . S
O270 Cd267 2.297 . S
O270 C272 1.247 . S
O271 Cd267 2.439 . S
O271 C272 1.208 . S
C272 O270 1.247 . S
C272 O271 1.208 . S
C273 O278 1.247 . S
C273 O279 1.208 . S
C274 O266 1.315 . S
C274 O269 1.279 . S
C275 O276 1.315 . S
C275 O277 1.279 . S
O276 Cd268 2.223 . S
O276 C275 1.315 . S
O277 Cd267 2.240 . S
O277 C275 1.279 . S
O278 Cd268 2.297 . S
O278 C273 1.247 . S
O279 Cd268 2.439 . S
O279 C273 1.208 . S
O280 Cd281 2.223 . S
O280 C288 1.315 . S
Cd281 O280 2.223 . S
Cd281 O284 2.297 . S
Cd281 O285 2.439 . S
Cd281 O291 2.240 . S
Cd282 O283 2.240 . S
Cd282 O290 2.223 . S
Cd282 O292 2.297 . S
Cd282 O293 2.439 . S
O283 Cd282 2.240 . S
O283 C288 1.279 . S
O284 Cd281 2.297 . S
O284 C286 1.247 . S
O285 Cd281 2.439 . S
O285 C286 1.208 . S
C286 O284 1.247 . S
C286 O285 1.208 . S
C287 O292 1.247 . S
C287 O293 1.208 . S
C288 O280 1.315 . S
C288 O283 1.279 . S
C289 O290 1.315 . S
C289 O291 1.279 . S
O290 Cd282 2.223 . S
O290 C289 1.315 . S
O291 Cd281 2.240 . S
O291 C289 1.279 . S
O292 Cd282 2.297 . S
O292 C287 1.247 . S
O293 Cd282 2.439 . S
O293 C287 1.208 . S
O294 Cd295 2.223 . S
O294 C302 1.315 . S
Cd295 O294 2.223 . S
Cd295 O298 2.297 . S
Cd295 O299 2.439 . S
Cd295 O305 2.240 . S
Cd296 O297 2.240 . S
Cd296 O304 2.223 . S
Cd296 O306 2.297 . S
Cd296 O307 2.439 . S
O297 Cd296 2.240 . S
O297 C302 1.279 . S
O298 Cd295 2.297 . S
O298 C300 1.247 . S
O299 Cd295 2.439 . S
O299 C300 1.208 . S
C300 O298 1.247 . S
C300 O299 1.208 . S
C301 O306 1.247 . S
C301 O307 1.208 . S
C302 O294 1.315 . S
C302 O297 1.279 . S
C303 O304 1.315 . S
C303 O305 1.279 . S
O304 Cd296 2.223 . S
O304 C303 1.315 . S
O305 Cd295 2.240 . S
O305 C303 1.279 . S
O306 Cd296 2.297 . S
O306 C301 1.247 . S
O307 Cd296 2.439 . S
O307 C301 1.208 . S
O308 Cd309 2.223 . S
O308 C316 1.315 . S
Cd309 O308 2.223 . S
Cd309 O312 2.297 . S
Cd309 O313 2.439 . S
Cd309 O319 2.240 . S
Cd310 O311 2.240 . S
Cd310 O318 2.223 . S
Cd310 O320 2.297 . S
Cd310 O321 2.439 . S
O311 Cd310 2.240 . S
O311 C316 1.279 . S
O312 Cd309 2.297 . S
O312 C314 1.247 . S
O313 Cd309 2.439 . S
O313 C314 1.208 . S
C314 O312 1.247 . S
C314 O313 1.208 . S
C315 O320 1.247 . S
C315 O321 1.208 . S
C316 O308 1.315 . S
C316 O311 1.279 . S
C317 O318 1.315 . S
C317 O319 1.279 . S
O318 Cd310 2.223 . S
O318 C317 1.315 . S
O319 Cd309 2.240 . S
O319 C317 1.279 . S
O320 Cd310 2.297 . S
O320 C315 1.247 . S
O321 Cd310 2.439 . S
O321 C315 1.208 . S
O322 Cd323 2.223 . S
O322 C330 1.315 . S
Cd323 O322 2.223 . S
Cd323 O326 2.297 . S
Cd323 O327 2.439 . S
Cd323 O333 2.240 . S
Cd324 O325 2.240 . S
Cd324 O332 2.223 . S
Cd324 O334 2.297 . S
Cd324 O335 2.439 . S
O325 Cd324 2.240 . S
O325 C330 1.279 . S
O326 Cd323 2.297 . S
O326 C328 1.247 . S
O327 Cd323 2.439 . S
O327 C328 1.208 . S
C328 O326 1.247 . S
C328 O327 1.208 . S
C329 O334 1.247 . S
C329 O335 1.208 . S
C330 O322 1.315 . S
C330 O325 1.279 . S
C331 O332 1.315 . S
C331 O333 1.279 . S
O332 Cd324 2.223 . S
O332 C331 1.315 . S
O333 Cd323 2.240 . S
O333 C331 1.279 . S
O334 Cd324 2.297 . S
O334 C329 1.247 . S
O335 Cd324 2.439 . S
O335 C329 1.208 . S
H336 C348 0.930 . S
H337 C350 0.930 . S
H338 C351 0.930 . S
H339 C355 0.959 . S
H340 C355 0.959 . S
H341 C355 0.961 . S
H342 C356 0.960 . S
H343 C356 0.961 . S
H344 C356 0.959 . S
H345 C359 0.929 . S
H346 C360 0.931 . S
H347 C362 0.930 . S
C348 H336 0.930 . S
C348 C349 1.399 . S
C348 C353 1.399 . S
C349 C348 1.399 . S
C349 C350 1.376 . S
C350 H337 0.930 . S
C350 C349 1.376 . S
C350 C351 1.388 . S
C351 H338 0.930 . S
C351 C350 1.388 . S
C351 C352 1.390 . S
C352 C351 1.390 . S
C352 C353 1.394 . S
C352 C358 1.465 . S
C353 C348 1.399 . S
C353 C352 1.394 . S
C353 C354 1.516 . S
C354 C353 1.516 . S
C354 C355 1.502 . S
C354 C356 1.561 . S
C354 C357 1.526 . S
C355 H339 0.959 . S
C355 H340 0.959 . S
C355 H341 0.961 . S
C355 C354 1.502 . S
C356 H342 0.960 . S
C356 H343 0.961 . S
C356 H344 0.959 . S
C356 C354 1.561 . S
C357 C354 1.526 . S
C357 C358 1.396 . S
C357 C362 1.390 . S
C358 C352 1.465 . S
C358 C357 1.396 . S
C358 C359 1.399 . S
C359 H345 0.929 . S
C359 C358 1.399 . S
C359 C360 1.385 . S
C360 H346 0.931 . S
C360 C359 1.385 . S
C360 C361 1.389 . S
C361 C360 1.389 . S
C361 C362 1.387 . S
C362 H347 0.930 . S
C362 C357 1.390 . S
C362 C361 1.387 . S
H363 C375 0.930 . S
H364 C377 0.930 . S
H365 C378 0.930 1_655 S
H366 C382 0.959 . S
H367 C382 0.959 . S
H368 C382 0.961 . S
H369 C383 0.960 . S
H370 C383 0.961 . S
H371 C383 0.959 . S
H372 C386 0.929 . S
H373 C387 0.931 . S
H374 C389 0.930 . S
C375 H363 0.930 . S
C375 C376 1.399 . S
C375 C380 1.399 . S
C376 C375 1.399 . S
C376 C377 1.376 1_455 S
C377 H364 0.930 . S
C377 C376 1.376 1_655 S
C377 C378 1.388 1_655 S
C378 H365 0.930 1_455 S
C378 C377 1.388 1_455 S
C378 C379 1.390 . S
C379 C378 1.390 . S
C379 C380 1.394 . S
C379 C385 1.465 . S
C380 C375 1.399 . S
C380 C379 1.394 . S
C380 C381 1.516 . S
C381 C380 1.516 . S
C381 C382 1.502 . S
C381 C383 1.561 . S
C381 C384 1.526 . S
C382 H366 0.959 . S
C382 H367 0.959 . S
C382 H368 0.961 . S
C382 C381 1.502 . S
C383 H369 0.960 . S
C383 H370 0.961 . S
C383 H371 0.959 . S
C383 C381 1.561 . S
C384 C381 1.526 . S
C384 C385 1.396 . S
C384 C389 1.390 . S
C385 C379 1.465 . S
C385 C384 1.396 . S
C385 C386 1.399 . S
C386 H372 0.929 . S
C386 C385 1.399 . S
C386 C387 1.385 . S
C387 H373 0.931 . S
C387 C386 1.385 . S
C387 C388 1.389 . S
C388 C387 1.389 . S
C388 C389 1.387 . S
C389 H374 0.930 . S
C389 C384 1.390 . S
C389 C388 1.387 . S
H390 C402 0.930 . S
H391 C404 0.930 . S
H392 C405 0.930 . S
H393 C409 0.959 . S
H394 C409 0.959 1_554 S
H395 C409 0.961 . S
H396 C410 0.960 . S
H397 C410 0.961 1_554 S
H398 C410 0.959 . S
H399 C413 0.929 . S
H400 C414 0.931 . S
H401 C416 0.930 1_554 S
C402 H390 0.930 . S
C402 C403 1.399 . S
C402 C407 1.399 . S
C403 C402 1.399 . S
C403 C404 1.376 . S
C404 H391 0.930 . S
C404 C403 1.376 . S
C404 C405 1.388 . S
C405 H392 0.930 . S
C405 C404 1.388 . S
C405 C406 1.390 . S
C406 C405 1.390 . S
C406 C407 1.394 . S
C406 C412 1.465 . S
C407 C402 1.399 . S
C407 C406 1.394 . S
C407 C408 1.516 . S
C408 C407 1.516 . S
C408 C409 1.502 . S
C408 C410 1.561 . S
C408 C411 1.526 . S
C409 H393 0.959 . S
C409 H394 0.959 1_556 S
C409 H395 0.961 . S
C409 C408 1.502 . S
C410 H396 0.960 . S
C410 H397 0.961 1_556 S
C410 H398 0.959 . S
C410 C408 1.561 . S
C411 C408 1.526 . S
C411 C412 1.396 . S
C411 C416 1.390 . S
C412 C406 1.465 . S
C412 C411 1.396 . S
C412 C413 1.399 . S
C413 H399 0.929 . S
C413 C412 1.399 . S
C413 C414 1.385 . S
C414 H400 0.931 . S
C414 C413 1.385 . S
C414 C415 1.389 . S
C415 C414 1.389 . S
C415 C416 1.387 . S
C416 H401 0.930 1_556 S
C416 C411 1.390 . S
C416 C415 1.387 . S
H417 C429 0.930 . S
H418 C431 0.930 . S
H419 C432 0.930 . S
H420 C436 0.959 . S
H421 C436 0.959 . S
H422 C436 0.961 . S
H423 C437 0.960 . S
H424 C437 0.961 . S
H425 C437 0.959 . S
H426 C440 0.929 . S
H427 C441 0.931 . S
H428 C443 0.930 . S
C429 H417 0.930 . S
C429 C430 1.399 . S
C429 C434 1.399 . S
C430 C429 1.399 . S
C430 C431 1.376 . S
C431 H418 0.930 . S
C431 C430 1.376 . S
C431 C432 1.388 . S
C432 H419 0.930 . S
C432 C431 1.388 . S
C432 C433 1.390 . S
C433 C432 1.390 . S
C433 C434 1.394 . S
C433 C439 1.465 . S
C434 C429 1.399 . S
C434 C433 1.394 . S
C434 C435 1.516 . S
C435 C434 1.516 . S
C435 C436 1.502 . S
C435 C437 1.561 . S
C435 C438 1.526 . S
C436 H420 0.959 . S
C436 H421 0.959 . S
C436 H422 0.961 . S
C436 C435 1.502 . S
C437 H423 0.960 . S
C437 H424 0.961 . S
C437 H425 0.959 . S
C437 C435 1.561 . S
C438 C435 1.526 . S
C438 C439 1.396 . S
C438 C443 1.390 . S
C439 C433 1.465 . S
C439 C438 1.396 . S
C439 C440 1.399 . S
C440 H426 0.929 . S
C440 C439 1.399 . S
C440 C441 1.385 . S
C441 H427 0.931 . S
C441 C440 1.385 . S
C441 C442 1.389 . S
C442 C441 1.389 . S
C442 C443 1.387 . S
C443 H428 0.930 . S
C443 C438 1.390 . S
C443 C442 1.387 . S
H444 C456 0.930 . S
H445 C458 0.930 . S
H446 C459 0.930 . S
H447 C463 0.959 . S
H448 C463 0.959 . S
H449 C463 0.961 . S
H450 C464 0.960 . S
H451 C464 0.961 . S
H452 C464 0.959 . S
H453 C467 0.929 . S
H454 C468 0.931 . S
H455 C470 0.930 . S
C456 H444 0.930 . S
C456 C457 1.399 . S
C456 C461 1.399 . S
C457 C456 1.399 . S
C457 C458 1.376 . S
C458 H445 0.930 . S
C458 C457 1.376 . S
C458 C459 1.388 . S
C459 H446 0.930 . S
C459 C458 1.388 . S
C459 C460 1.390 . S
C460 C459 1.390 . S
C460 C461 1.394 . S
C460 C466 1.465 . S
C461 C456 1.399 . S
C461 C460 1.394 . S
C461 C462 1.516 . S
C462 C461 1.516 . S
C462 C463 1.502 . S
C462 C464 1.561 . S
C462 C465 1.526 . S
C463 H447 0.959 . S
C463 H448 0.959 . S
C463 H449 0.961 . S
C463 C462 1.502 . S
C464 H450 0.960 . S
C464 H451 0.961 . S
C464 H452 0.959 . S
C464 C462 1.561 . S
C465 C462 1.526 . S
C465 C466 1.396 . S
C465 C470 1.390 . S
C466 C460 1.465 . S
C466 C465 1.396 . S
C466 C467 1.399 . S
C467 H453 0.929 . S
C467 C466 1.399 . S
C467 C468 1.385 . S
C468 H454 0.931 . S
C468 C467 1.385 . S
C468 C469 1.389 . S
C469 C468 1.389 . S
C469 C470 1.387 . S
C470 H455 0.930 . S
C470 C465 1.390 . S
C470 C469 1.387 . S
H471 C483 0.930 . S
H472 C485 0.930 . S
H473 C486 0.930 . S
H474 C490 0.959 . S
H475 C490 0.959 . S
H476 C490 0.961 . S
H477 C491 0.960 . S
H478 C491 0.961 . S
H479 C491 0.959 . S
H480 C494 0.929 . S
H481 C495 0.931 . S
H482 C497 0.930 . S
C483 H471 0.930 . S
C483 C484 1.399 . S
C483 C488 1.399 . S
C484 C483 1.399 . S
C484 C485 1.376 . S
C485 H472 0.930 . S
C485 C484 1.376 . S
C485 C486 1.388 . S
C486 H473 0.930 . S
C486 C485 1.388 . S
C486 C487 1.390 . S
C487 C486 1.390 . S
C487 C488 1.394 . S
C487 C493 1.465 . S
C488 C483 1.399 . S
C488 C487 1.394 . S
C488 C489 1.516 . S
C489 C488 1.516 . S
C489 C490 1.502 . S
C489 C491 1.561 . S
C489 C492 1.526 . S
C490 H474 0.959 . S
C490 H475 0.959 . S
C490 H476 0.961 . S
C490 C489 1.502 . S
C491 H477 0.960 . S
C491 H478 0.961 . S
C491 H479 0.959 . S
C491 C489 1.561 . S
C492 C489 1.526 . S
C492 C493 1.396 . S
C492 C497 1.390 . S
C493 C487 1.465 . S
C493 C492 1.396 . S
C493 C494 1.399 . S
C494 H480 0.929 . S
C494 C493 1.399 . S
C494 C495 1.385 . S
C495 H481 0.931 . S
C495 C494 1.385 . S
C495 C496 1.389 . S
C496 C495 1.389 . S
C496 C497 1.387 . S
C497 H482 0.930 . S
C497 C492 1.390 . S
C497 C496 1.387 . S
H498 C510 0.930 . S
H499 C512 0.930 . S
H500 C513 0.930 . S
H501 C517 0.959 . S
H502 C517 0.959 . S
H503 C517 0.961 . S
H504 C518 0.960 . S
H505 C518 0.961 . S
H506 C518 0.959 . S
H507 C521 0.929 1_556 S
H508 C522 0.931 . S
H509 C524 0.930 . S
C510 H498 0.930 . S
C510 C511 1.399 . S
C510 C515 1.399 . S
C511 C510 1.399 . S
C511 C512 1.376 . S
C512 H499 0.930 . S
C512 C511 1.376 . S
C512 C513 1.388 . S
C513 H500 0.930 . S
C513 C512 1.388 . S
C513 C514 1.390 . S
C514 C513 1.390 . S
C514 C515 1.394 . S
C514 C520 1.465 . S
C515 C510 1.399 . S
C515 C514 1.394 . S
C515 C516 1.516 . S
C516 C515 1.516 . S
C516 C517 1.502 . S
C516 C518 1.561 . S
C516 C519 1.526 . S
C517 H501 0.959 . S
C517 H502 0.959 . S
C517 H503 0.961 . S
C517 C516 1.502 . S
C518 H504 0.960 . S
C518 H505 0.961 . S
C518 H506 0.959 . S
C518 C516 1.561 . S
C519 C516 1.526 . S
C519 C520 1.396 . S
C519 C524 1.390 . S
C520 C514 1.465 . S
C520 C519 1.396 . S
C520 C521 1.399 . S
C521 H507 0.929 1_554 S
C521 C520 1.399 . S
C521 C522 1.385 1_554 S
C522 H508 0.931 . S
C522 C521 1.385 1_556 S
C522 C523 1.389 1_556 S
C523 C522 1.389 1_554 S
C523 C524 1.387 . S
C524 H509 0.930 . S
C524 C519 1.390 . S
C524 C523 1.387 . S
H525 C537 0.930 . S
H526 C539 0.930 . S
H527 C540 0.930 . S
H528 C544 0.959 . S
H529 C544 0.959 . S
H530 C544 0.961 . S
H531 C545 0.960 . S
H532 C545 0.961 . S
H533 C545 0.959 . S
H534 C548 0.929 . S
H535 C549 0.931 . S
H536 C551 0.930 . S
C537 H525 0.930 . S
C537 C538 1.399 . S
C537 C542 1.399 . S
C538 C537 1.399 . S
C538 C539 1.376 . S
C539 H526 0.930 . S
C539 C538 1.376 . S
C539 C540 1.388 . S
C540 H527 0.930 . S
C540 C539 1.388 . S
C540 C541 1.390 . S
C541 C540 1.390 . S
C541 C542 1.394 . S
C541 C547 1.465 . S
C542 C537 1.399 . S
C542 C541 1.394 . S
C542 C543 1.516 . S
C543 C542 1.516 . S
C543 C544 1.502 . S
C543 C545 1.561 . S
C543 C546 1.526 . S
C544 H528 0.959 . S
C544 H529 0.959 . S
C544 H530 0.961 . S
C544 C543 1.502 . S
C545 H531 0.960 . S
C545 H532 0.961 . S
C545 H533 0.959 . S
C545 C543 1.561 . S
C546 C543 1.526 . S
C546 C547 1.396 . S
C546 C551 1.390 . S
C547 C541 1.465 . S
C547 C546 1.396 . S
C547 C548 1.399 . S
C548 H534 0.929 . S
C548 C547 1.399 . S
C548 C549 1.385 . S
C549 H535 0.931 . S
C549 C548 1.385 . S
C549 C550 1.389 . S
C550 C549 1.389 . S
C550 C551 1.387 . S
C551 H536 0.930 . S
C551 C546 1.390 . S
C551 C550 1.387 . S
H552 C564 0.930 . S
H553 C566 0.930 . S
H554 C567 0.930 . S
H555 C571 0.959 . S
H556 C571 0.959 . S
H557 C571 0.961 . S
H558 C572 0.960 . S
H559 C572 0.961 . S
H560 C572 0.959 . S
H561 C575 0.929 . S
H562 C576 0.931 . S
H563 C578 0.930 . S
C564 H552 0.930 . S
C564 C565 1.399 . S
C564 C569 1.399 . S
C565 C564 1.399 . S
C565 C566 1.376 . S
C566 H553 0.930 . S
C566 C565 1.376 . S
C566 C567 1.388 . S
C567 H554 0.930 . S
C567 C566 1.388 . S
C567 C568 1.390 . S
C568 C567 1.390 . S
C568 C569 1.394 . S
C568 C574 1.465 . S
C569 C564 1.399 . S
C569 C568 1.394 . S
C569 C570 1.516 . S
C570 C569 1.516 . S
C570 C571 1.502 . S
C570 C572 1.561 . S
C570 C573 1.526 . S
C571 H555 0.959 . S
C571 H556 0.959 . S
C571 H557 0.961 . S
C571 C570 1.502 . S
C572 H558 0.960 . S
C572 H559 0.961 . S
C572 H560 0.959 . S
C572 C570 1.561 . S
C573 C570 1.526 . S
C573 C574 1.396 . S
C573 C578 1.390 . S
C574 C568 1.465 . S
C574 C573 1.396 . S
C574 C575 1.399 . S
C575 H561 0.929 . S
C575 C574 1.399 . S
C575 C576 1.385 . S
C576 H562 0.931 . S
C576 C575 1.385 . S
C576 C577 1.389 . S
C577 C576 1.389 . S
C577 C578 1.387 . S
C578 H563 0.930 . S
C578 C573 1.390 . S
C578 C577 1.387 . S
H579 C591 0.930 1_565 S
H580 C593 0.930 . S
H581 C594 0.930 . S
H582 C598 0.959 . S
H583 C598 0.959 . S
H584 C598 0.961 1_565 S
H585 C599 0.950 1_565 S
H586 C599 0.961 . S
H587 C599 0.959 . S
H588 C602 0.929 . S
H589 C603 0.931 . S
H590 C605 0.930 . S
C591 H579 0.930 1_545 S
C591 C592 1.399 . S
C591 C596 1.399 . S
C592 C591 1.399 . S
C592 C593 1.376 . S
C593 H580 0.930 . S
C593 C592 1.376 . S
C593 C594 1.388 . S
C594 H581 0.930 . S
C594 C593 1.388 . S
C594 C595 1.390 . S
C595 C594 1.390 . S
C595 C596 1.394 . S
C595 C601 1.465 . S
C596 C591 1.399 . S
C596 C595 1.394 . S
C596 C597 1.516 . S
C597 C596 1.516 . S
C597 C598 1.502 . S
C597 C599 1.561 . S
C597 C600 1.526 . S
C598 H582 0.959 . S
C598 H583 0.959 . S
C598 H584 0.961 1_545 S
C598 C597 1.502 . S
C599 H585 0.950 1_545 S
C599 H586 0.961 . S
C599 H587 0.959 . S
C599 C597 1.561 . S
C600 C597 1.526 . S
C600 C601 1.396 . S
C600 C605 1.390 . S
C601 C595 1.465 . S
C601 C600 1.396 . S
C601 C602 1.399 . S
C602 H588 0.929 . S
C602 C601 1.399 . S
C602 C603 1.385 . S
C603 H589 0.931 . S
C603 C602 1.385 . S
C603 C604 1.389 . S
C604 C603 1.389 . S
C604 C605 1.387 . S
C605 H590 0.930 . S
C605 C600 1.390 . S
C605 C604 1.387 . S
H606 C618 0.930 . S
H607 C620 0.930 . S
H608 C621 0.930 . S
H609 C625 0.959 . S
H610 C625 0.959 . S
H611 C625 0.961 . S
H612 C626 0.960 . S
H613 C626 0.961 . S
H614 C626 0.959 . S
H615 C629 0.929 . S
H616 C630 0.931 . S
H617 C632 0.930 . S
C618 H606 0.930 . S
C618 C619 1.399 . S
C618 C623 1.399 . S
C619 C618 1.399 . S
C619 C620 1.376 . S
C620 H607 0.930 . S
C620 C619 1.376 . S
C620 C621 1.388 . S
C621 H608 0.930 . S
C621 C620 1.388 . S
C621 C622 1.390 . S
C622 C621 1.390 . S
C622 C623 1.394 . S
C622 C628 1.465 . S
C623 C618 1.399 . S
C623 C622 1.394 . S
C623 C624 1.516 . S
C624 C623 1.516 . S
C624 C625 1.502 . S
C624 C626 1.561 . S
C624 C627 1.526 . S
C625 H609 0.959 . S
C625 H610 0.959 . S
C625 H611 0.961 . S
C625 C624 1.502 . S
C626 H612 0.960 . S
C626 H613 0.961 . S
C626 H614 0.959 . S
C626 C624 1.561 . S
C627 C624 1.526 . S
C627 C628 1.396 . S
C627 C632 1.390 . S
C628 C622 1.465 . S
C628 C627 1.396 . S
C628 C629 1.399 . S
C629 H615 0.929 . S
C629 C628 1.399 . S
C629 C630 1.385 . S
C630 H616 0.931 . S
C630 C629 1.385 . S
C630 C631 1.389 . S
C631 C630 1.389 . S
C631 C632 1.387 . S
C632 H617 0.930 . S
C632 C627 1.390 . S
C632 C631 1.387 . S
H633 C645 0.930 . S
H634 C647 0.930 . S
H635 C648 0.930 . S
H636 C652 0.959 . S
H637 C652 0.959 . S
H638 C652 0.961 . S
H639 C653 0.960 . S
H640 C653 0.961 . S
H641 C653 0.959 . S
H642 C656 0.929 . S
H643 C657 0.931 . S
H644 C659 0.930 . S
C645 H633 0.930 . S
C645 C646 1.399 . S
C645 C650 1.399 . S
C646 C645 1.399 . S
C646 C647 1.376 . S
C647 H634 0.930 . S
C647 C646 1.376 . S
C647 C648 1.388 . S
C648 H635 0.930 . S
C648 C647 1.388 . S
C648 C649 1.390 . S
C649 C648 1.390 . S
C649 C650 1.394 . S
C649 C655 1.465 . S
C650 C645 1.399 . S
C650 C649 1.394 . S
C650 C651 1.516 . S
C651 C650 1.516 . S
C651 C652 1.502 . S
C651 C653 1.561 . S
C651 C654 1.526 . S
C652 H636 0.959 . S
C652 H637 0.959 . S
C652 H638 0.961 . S
C652 C651 1.502 . S
C653 H639 0.960 . S
C653 H640 0.961 . S
C653 H641 0.959 . S
C653 C651 1.561 . S
C654 C651 1.526 . S
C654 C655 1.396 . S
C654 C659 1.390 . S
C655 C649 1.465 . S
C655 C654 1.396 . S
C655 C656 1.399 . S
C656 H642 0.929 . S
C656 C655 1.399 . S
C656 C657 1.385 . S
C657 H643 0.931 . S
C657 C656 1.385 . S
C657 C658 1.389 . S
C658 C657 1.389 . S
C658 C659 1.387 . S
C659 H644 0.930 . S
C659 C654 1.390 . S
C659 C658 1.387 . S
H660 C672 0.930 . S
H661 C674 0.930 . S
H662 C675 0.930 . S
H663 C679 0.959 . S
H664 C679 0.959 . S
H665 C679 0.961 . S
H666 C680 0.960 . S
H667 C680 0.961 . S
H668 C680 0.959 . S
H669 C683 0.929 . S
H670 C684 0.931 . S
H671 C686 0.930 . S
C672 H660 0.930 . S
C672 C673 1.399 . S
C672 C677 1.399 . S
C673 C672 1.399 . S
C673 C674 1.376 . S
C674 H661 0.930 . S
C674 C673 1.376 . S
C674 C675 1.388 . S
C675 H662 0.930 . S
C675 C674 1.388 . S
C675 C676 1.390 . S
C676 C675 1.390 . S
C676 C677 1.394 . S
C676 C682 1.465 . S
C677 C672 1.399 . S
C677 C676 1.394 . S
C677 C678 1.516 . S
C678 C677 1.516 . S
C678 C679 1.502 . S
C678 C680 1.561 . S
C678 C681 1.526 . S
C679 H663 0.959 . S
C679 H664 0.959 . S
C679 H665 0.961 . S
C679 C678 1.502 . S
C680 H666 0.960 . S
C680 H667 0.961 . S
C680 H668 0.959 . S
C680 C678 1.561 . S
C681 C678 1.526 . S
C681 C682 1.396 . S
C681 C686 1.390 . S
C682 C676 1.465 . S
C682 C681 1.396 . S
C682 C683 1.399 . S
C683 H669 0.929 . S
C683 C682 1.399 . S
C683 C684 1.385 . S
C684 H670 0.931 . S
C684 C683 1.385 . S
C684 C685 1.389 . S
C685 C684 1.389 . S
C685 C686 1.387 . S
C686 H671 0.930 . S
C686 C681 1.390 . S
C686 C685 1.387 . S
H687 C699 0.930 . S
H688 C701 0.930 . S
H689 C702 0.930 . S
H690 C706 0.959 1_545 S
H691 C706 0.959 . S
H692 C706 0.961 . S
H693 C707 0.960 . S
H694 C707 0.961 . S
H695 C707 0.959 . S
H696 C710 0.929 . S
H697 C711 0.931 . S
H698 C713 0.930 . S
C699 H687 0.930 . S
C699 C700 1.399 . S
C699 C704 1.425 . S
C700 C699 1.399 . S
C700 C701 1.376 1_565 S
C701 H688 0.930 . S
C701 C700 1.376 1_545 S
C701 C702 1.388 . S
C702 H689 0.930 . S
C702 C701 1.388 . S
C702 C703 1.390 . S
C703 C702 1.390 . S
C703 C704 1.365 1_545 S
C703 C709 1.465 . S
C704 C699 1.425 . S
C704 C703 1.365 1_565 S
C704 C705 1.514 1_565 S
C705 C704 1.514 1_545 S
C705 C706 1.491 1_545 S
C705 C707 1.540 1_545 S
C705 C708 1.563 . S
C706 H690 0.959 1_565 S
C706 H691 0.959 . S
C706 H692 0.961 . S
C706 C705 1.491 1_565 S
C707 H693 0.960 . S
C707 H694 0.961 . S
C707 H695 0.959 . S
C707 C705 1.540 1_565 S
C708 C705 1.563 . S
C708 C709 1.396 . S
C708 C713 1.390 . S
C709 C703 1.465 . S
C709 C708 1.396 . S
C709 C710 1.399 . S
C710 H696 0.929 . S
C710 C709 1.399 . S
C710 C711 1.385 . S
C711 H697 0.931 . S
C711 C710 1.385 . S
C711 C712 1.389 . S
C712 C711 1.389 . S
C712 C713 1.387 . S
C713 H698 0.930 . S
C713 C708 1.390 . S
C713 C712 1.387 . S
H714 C726 0.930 . S
H715 C728 0.930 . S
H716 C729 0.930 . S
H717 C733 0.959 . S
H718 C733 0.959 . S
H719 C733 0.961 . S
H720 C734 0.960 . S
H721 C734 0.961 . S
H722 C734 0.959 . S
H723 C737 0.929 . S
H724 C738 0.931 . S
H725 C740 0.930 . S
C726 H714 0.930 . S
C726 C727 1.399 . S
C726 C731 1.399 . S
C727 C726 1.399 . S
C727 C728 1.376 . S
C728 H715 0.930 . S
C728 C727 1.376 . S
C728 C729 1.388 . S
C729 H716 0.930 . S
C729 C728 1.388 . S
C729 C730 1.390 . S
C730 C729 1.390 . S
C730 C731 1.394 . S
C730 C736 1.465 . S
C731 C726 1.399 . S
C731 C730 1.394 . S
C731 C732 1.516 . S
C732 C731 1.516 . S
C732 C733 1.502 . S
C732 C734 1.561 . S
C732 C735 1.526 . S
C733 H717 0.959 . S
C733 H718 0.959 . S
C733 H719 0.961 . S
C733 C732 1.502 . S
C734 H720 0.960 . S
C734 H721 0.961 . S
C734 H722 0.959 . S
C734 C732 1.561 . S
C735 C732 1.526 . S
C735 C736 1.396 . S
C735 C740 1.390 . S
C736 C730 1.465 . S
C736 C735 1.396 . S
C736 C737 1.399 1_556 S
C737 H723 0.929 . S
C737 C736 1.399 1_554 S
C737 C738 1.385 . S
C738 H724 0.931 . S
C738 C737 1.385 . S
C738 C739 1.389 . S
C739 C738 1.389 . S
C739 C740 1.387 1_554 S
C740 H725 0.930 . S
C740 C735 1.390 . S
C740 C739 1.387 1_556 S
H741 C753 0.930 . S
H742 C755 0.930 . S
H743 C756 0.930 . S
H744 C760 0.959 1_565 S
H745 C760 0.959 . S
H746 C760 0.961 . S
H747 C761 0.960 . S
H748 C761 0.961 . S
H749 C761 0.959 . S
H750 C764 0.929 . S
H751 C765 0.931 . S
H752 C767 0.930 . S
C753 H741 0.930 . S
C753 C754 1.399 . S
C753 C758 1.415 . S
C754 C753 1.399 . S
C754 C755 1.376 1_545 S
C755 H742 0.930 . S
C755 C754 1.376 1_565 S
C755 C756 1.388 . S
C756 H743 0.930 . S
C756 C755 1.388 . S
C756 C757 1.390 . S
C757 C756 1.390 . S
C757 C758 1.377 1_565 S
C757 C763 1.465 . S
C758 C753 1.415 . S
C758 C757 1.377 1_545 S
C758 C759 1.515 1_545 S
C759 C758 1.515 1_565 S
C759 C760 1.502 1_565 S
C759 C761 1.561 1_565 S
C759 C762 1.526 . S
C760 H744 0.959 1_545 S
C760 H745 0.959 . S
C760 H746 0.961 . S
C760 C759 1.502 1_545 S
C761 H747 0.960 . S
C761 H748 0.961 . S
C761 H749 0.959 . S
C761 C759 1.561 1_545 S
C762 C759 1.526 . S
C762 C763 1.396 . S
C762 C767 1.390 . S
C763 C757 1.465 . S
C763 C762 1.396 . S
C763 C764 1.399 . S
C764 H750 0.929 . S
C764 C763 1.399 . S
C764 C765 1.385 . S
C765 H751 0.931 . S
C765 C764 1.385 . S
C765 C766 1.389 . S
C766 C765 1.389 . S
C766 C767 1.387 . S
C767 H752 0.930 . S
C767 C762 1.390 . S
C767 C766 1.387 . S
H768 C780 0.930 . S
H769 C782 0.930 . S
H770 C783 0.930 . S
H771 C787 0.959 . S
H772 C787 0.959 . S
H773 C787 0.961 . S
H774 C788 0.960 . S
H775 C788 0.961 . S
H776 C788 0.959 . S
H777 C791 0.929 . S
H778 C792 0.931 . S
H779 C794 0.930 . S
C780 H768 0.930 . S
C780 C781 1.399 . S
C780 C785 1.399 . S
C781 C780 1.399 . S
C781 C782 1.376 . S
C782 H769 0.930 . S
C782 C781 1.376 . S
C782 C783 1.388 . S
C783 H770 0.930 . S
C783 C782 1.388 . S
C783 C784 1.390 . S
C784 C783 1.390 . S
C784 C785 1.394 . S
C784 C790 1.465 . S
C785 C780 1.399 . S
C785 C784 1.394 . S
C785 C786 1.516 . S
C786 C785 1.516 . S
C786 C787 1.502 . S
C786 C788 1.561 . S
C786 C789 1.526 . S
C787 H771 0.959 . S
C787 H772 0.959 . S
C787 H773 0.961 . S
C787 C786 1.502 . S
C788 H774 0.960 . S
C788 H775 0.961 . S
C788 H776 0.959 . S
C788 C786 1.561 . S
C789 C786 1.526 . S
C789 C790 1.396 . S
C789 C794 1.390 . S
C790 C784 1.465 . S
C790 C789 1.396 . S
C790 C791 1.399 . S
C791 H777 0.929 . S
C791 C790 1.399 . S
C791 C792 1.385 . S
C792 H778 0.931 . S
C792 C791 1.385 . S
C792 C793 1.389 . S
C793 C792 1.389 . S
C793 C794 1.387 . S
C794 H779 0.930 . S
C794 C789 1.390 . S
C794 C793 1.387 . S
H795 C807 0.930 . S
H796 C809 0.930 . S
H797 C810 0.930 . S
H798 C814 0.959 . S
H799 C814 0.959 . S
H800 C814 0.961 . S
H801 C815 0.960 . S
H802 C815 0.961 . S
H803 C815 0.959 . S
H804 C818 0.929 . S
H805 C819 0.931 . S
H806 C821 0.930 . S
C807 H795 0.930 . S
C807 C808 1.399 . S
C807 C812 1.399 . S
C808 C807 1.399 . S
C808 C809 1.376 . S
C809 H796 0.930 . S
C809 C808 1.376 . S
C809 C810 1.388 . S
C810 H797 0.930 . S
C810 C809 1.388 . S
C810 C811 1.390 . S
C811 C810 1.390 . S
C811 C812 1.394 . S
C811 C817 1.465 . S
C812 C807 1.399 . S
C812 C811 1.394 . S
C812 C813 1.516 . S
C813 C812 1.516 . S
C813 C814 1.502 . S
C813 C815 1.561 . S
C813 C816 1.526 . S
C814 H798 0.959 . S
C814 H799 0.959 . S
C814 H800 0.961 . S
C814 C813 1.502 . S
C815 H801 0.960 . S
C815 H802 0.961 . S
C815 H803 0.959 . S
C815 C813 1.561 . S
C816 C813 1.526 . S
C816 C817 1.396 . S
C816 C821 1.390 . S
C817 C811 1.465 . S
C817 C816 1.396 . S
C817 C818 1.399 . S
C818 H804 0.929 . S
C818 C817 1.399 . S
C818 C819 1.385 . S
C819 H805 0.931 . S
C819 C818 1.385 . S
C819 C820 1.389 . S
C820 C819 1.389 . S
C820 C821 1.387 . S
C821 H806 0.930 . S
C821 C816 1.390 . S
C821 C820 1.387 . S
H822 C834 0.930 . S
H823 C836 0.930 . S
H824 C837 0.930 1_554 S
H825 C841 0.959 . S
H826 C841 0.959 . S
H827 C841 0.961 . S
H828 C842 0.960 1_556 S
H829 C842 0.961 . S
H830 C842 0.959 1_556 S
H831 C845 0.929 . S
H832 C846 0.931 . S
H833 C848 0.930 . S
C834 H822 0.930 . S
C834 C835 1.399 . S
C834 C839 1.399 1_556 S
C835 C834 1.399 . S
C835 C836 1.376 . S
C836 H823 0.930 . S
C836 C835 1.376 . S
C836 C837 1.388 . S
C837 H824 0.930 1_556 S
C837 C836 1.388 . S
C837 C838 1.390 1_556 S
C838 C837 1.390 1_554 S
C838 C839 1.394 . S
C838 C844 1.465 . S
C839 C834 1.399 1_554 S
C839 C838 1.394 . S
C839 C840 1.516 . S
C840 C839 1.516 . S
C840 C841 1.502 . S
C840 C842 1.561 . S
C840 C843 1.526 . S
C841 H825 0.959 . S
C841 H826 0.959 . S
C841 H827 0.961 . S
C841 C840 1.502 . S
C842 H828 0.960 1_554 S
C842 H829 0.961 . S
C842 H830 0.959 1_554 S
C842 C840 1.561 . S
C843 C840 1.526 . S
C843 C844 1.396 . S
C843 C848 1.390 . S
C844 C838 1.465 . S
C844 C843 1.396 . S
C844 C845 1.399 . S
C845 H831 0.929 . S
C845 C844 1.399 . S
C845 C846 1.385 . S
C846 H832 0.931 . S
C846 C845 1.385 . S
C846 C847 1.389 . S
C847 C846 1.389 . S
C847 C848 1.387 . S
C848 H833 0.930 . S
C848 C843 1.390 . S
C848 C847 1.387 . S
H849 C861 0.930 . S
H850 C863 0.930 . S
H851 C864 0.930 . S
H852 C868 0.959 . S
H853 C868 0.959 . S
H854 C868 0.961 . S
H855 C869 0.960 . S
H856 C869 0.961 . S
H857 C869 0.959 . S
H858 C872 0.929 . S
H859 C873 0.931 . S
H860 C875 0.930 . S
C861 H849 0.930 . S
C861 C862 1.399 . S
C861 C866 1.399 . S
C862 C861 1.399 . S
C862 C863 1.376 . S
C863 H850 0.930 . S
C863 C862 1.376 . S
C863 C864 1.388 . S
C864 H851 0.930 . S
C864 C863 1.388 . S
C864 C865 1.390 . S
C865 C864 1.390 . S
C865 C866 1.394 . S
C865 C871 1.465 . S
C866 C861 1.399 . S
C866 C865 1.394 . S
C866 C867 1.516 . S
C867 C866 1.516 . S
C867 C868 1.502 . S
C867 C869 1.561 . S
C867 C870 1.526 . S
C868 H852 0.959 . S
C868 H853 0.959 . S
C868 H854 0.961 . S
C868 C867 1.502 . S
C869 H855 0.960 . S
C869 H856 0.961 . S
C869 H857 0.959 . S
C869 C867 1.561 . S
C870 C867 1.526 . S
C870 C871 1.396 . S
C870 C875 1.390 . S
C871 C865 1.465 . S
C871 C870 1.396 . S
C871 C872 1.399 . S
C872 H858 0.929 . S
C872 C871 1.399 . S
C872 C873 1.385 . S
C873 H859 0.931 . S
C873 C872 1.385 . S
C873 C874 1.389 . S
C874 C873 1.389 . S
C874 C875 1.387 . S
C875 H860 0.930 . S
C875 C870 1.390 . S
C875 C874 1.387 . S
H876 C888 0.930 . S
H877 C890 0.930 . S
H878 C891 0.930 . S
H879 C895 0.959 . S
H880 C895 0.959 . S
H881 C895 0.961 . S
H882 C896 0.960 . S
H883 C896 0.961 . S
H884 C896 0.959 . S
H885 C899 0.929 . S
H886 C900 0.931 . S
H887 C902 0.930 . S
C888 H876 0.930 . S
C888 C889 1.399 . S
C888 C893 1.399 . S
C889 C888 1.399 . S
C889 C890 1.376 . S
C890 H877 0.930 . S
C890 C889 1.376 . S
C890 C891 1.388 . S
C891 H878 0.930 . S
C891 C890 1.388 . S
C891 C892 1.390 . S
C892 C891 1.390 . S
C892 C893 1.394 . S
C892 C898 1.465 . S
C893 C888 1.399 . S
C893 C892 1.394 . S
C893 C894 1.516 . S
C894 C893 1.516 . S
C894 C895 1.502 . S
C894 C896 1.561 . S
C894 C897 1.526 . S
C895 H879 0.959 . S
C895 H880 0.959 . S
C895 H881 0.961 . S
C895 C894 1.502 . S
C896 H882 0.960 . S
C896 H883 0.961 . S
C896 H884 0.959 . S
C896 C894 1.561 . S
C897 C894 1.526 . S
C897 C898 1.396 . S
C897 C902 1.390 . S
C898 C892 1.465 . S
C898 C897 1.396 . S
C898 C899 1.399 . S
C899 H885 0.929 . S
C899 C898 1.399 . S
C899 C900 1.385 . S
C900 H886 0.931 . S
C900 C899 1.385 . S
C900 C901 1.389 . S
C901 C900 1.389 . S
C901 C902 1.387 . S
C902 H887 0.930 . S
C902 C897 1.390 . S
C902 C901 1.387 . S
H903 C915 0.930 . S
H904 C917 0.930 . S
H905 C918 0.930 . S
H906 C922 0.959 1_455 S
H907 C922 0.959 . S
H908 C922 0.961 1_455 S
H909 C923 0.960 . S
H910 C923 0.961 . S
H911 C923 0.959 . S
H912 C926 0.929 . S
H913 C927 0.931 . S
H914 C929 0.930 . S
C915 H903 0.930 . S
C915 C916 1.399 . S
C915 C920 1.399 1_455 S
C916 C915 1.399 . S
C916 C917 1.376 . S
C917 H904 0.930 . S
C917 C916 1.376 . S
C917 C918 1.388 1_455 S
C918 H905 0.930 . S
C918 C917 1.388 1_655 S
C918 C919 1.390 . S
C919 C918 1.390 . S
C919 C920 1.394 . S
C919 C925 1.465 . S
C920 C915 1.399 1_655 S
C920 C919 1.394 . S
C920 C921 1.516 . S
C921 C920 1.516 . S
C921 C922 1.502 . S
C921 C923 1.561 . S
C921 C924 1.526 . S
C922 H906 0.959 1_655 S
C922 H907 0.959 . S
C922 H908 0.961 1_655 S
C922 C921 1.502 . S
C923 H909 0.960 . S
C923 H910 0.961 . S
C923 H911 0.959 . S
C923 C921 1.561 . S
C924 C921 1.526 . S
C924 C925 1.396 . S
C924 C929 1.390 . S
C925 C919 1.465 . S
C925 C924 1.396 . S
C925 C926 1.399 . S
C926 H912 0.929 . S
C926 C925 1.399 . S
C926 C927 1.385 . S
C927 H913 0.931 . S
C927 C926 1.385 . S
C927 C928 1.389 . S
C928 C927 1.389 . S
C928 C929 1.387 . S
C929 H914 0.930 . S
C929 C924 1.390 . S
C929 C928 1.387 . S
H930 C942 0.940 . S
H931 C944 0.930 . S
H932 C945 0.930 . S
H933 C949 0.959 . S
H934 C949 0.959 . S
H935 C949 0.961 . S
H936 C950 0.960 . S
H937 C950 0.961 . S
H938 C950 0.959 . S
H939 C953 0.929 . S
H940 C954 0.931 . S
H941 C956 0.930 . S
C942 H930 0.940 . S
C942 C943 1.367 1_455 S
C942 C947 1.422 . S
C943 C942 1.367 1_655 S
C943 C944 1.376 . S
C944 H931 0.930 . S
C944 C943 1.376 . S
C944 C945 1.388 . S
C945 H932 0.930 . S
C945 C944 1.388 . S
C945 C946 1.390 1_655 S
C946 C945 1.390 1_455 S
C946 C947 1.394 . S
C946 C952 1.465 . S
C947 C942 1.422 . S
C947 C946 1.394 . S
C947 C948 1.516 . S
C948 C947 1.516 . S
C948 C949 1.502 . S
C948 C950 1.561 . S
C948 C951 1.526 . S
C949 H933 0.959 . S
C949 H934 0.959 . S
C949 H935 0.961 . S
C949 C948 1.502 . S
C950 H936 0.960 . S
C950 H937 0.961 . S
C950 H938 0.959 . S
C950 C948 1.561 . S
C951 C948 1.526 . S
C951 C952 1.396 . S
C951 C956 1.390 . S
C952 C946 1.465 . S
C952 C951 1.396 . S
C952 C953 1.399 . S
C953 H939 0.929 . S
C953 C952 1.399 . S
C953 C954 1.385 . S
C954 H940 0.931 . S
C954 C953 1.385 . S
C954 C955 1.389 . S
C955 C954 1.389 . S
C955 C956 1.387 . S
C956 H941 0.930 . S
C956 C951 1.390 . S
C956 C955 1.387 . S
H957 C969 0.930 . S
H958 C971 0.930 . S
H959 C972 0.930 . S
H960 C976 0.959 . S
H961 C976 0.959 . S
H962 C976 0.961 . S
H963 C977 0.960 . S
H964 C977 0.961 . S
H965 C977 0.959 . S
H966 C980 0.929 . S
H967 C981 0.931 . S
H968 C983 0.930 . S
C969 H957 0.930 . S
C969 C970 1.399 . S
C969 C974 1.399 . S
C970 C969 1.399 . S
C970 C971 1.376 . S
C971 H958 0.930 . S
C971 C970 1.376 . S
C971 C972 1.388 . S
C972 H959 0.930 . S
C972 C971 1.388 . S
C972 C973 1.390 . S
C973 C972 1.390 . S
C973 C974 1.394 . S
C973 C979 1.465 . S
C974 C969 1.399 . S
C974 C973 1.394 . S
C974 C975 1.516 . S
C975 C974 1.516 . S
C975 C976 1.502 . S
C975 C977 1.561 . S
C975 C978 1.526 . S
C976 H960 0.959 . S
C976 H961 0.959 . S
C976 H962 0.961 . S
C976 C975 1.502 . S
C977 H963 0.960 . S
C977 H964 0.961 . S
C977 H965 0.959 . S
C977 C975 1.561 . S
C978 C975 1.526 . S
C978 C979 1.396 . S
C978 C983 1.390 . S
C979 C973 1.465 . S
C979 C978 1.396 . S
C979 C980 1.399 . S
C980 H966 0.929 . S
C980 C979 1.399 . S
C980 C981 1.385 . S
C981 H967 0.931 . S
C981 C980 1.385 . S
C981 C982 1.389 . S
C982 C981 1.389 . S
C982 C983 1.387 . S
C983 H968 0.930 . S
C983 C978 1.390 . S
C983 C982 1.387 . S
H984 C996 0.930 . S
H985 C998 0.930 . S
H986 C999 0.930 . S
H987 C1003 0.959 . S
H988 C1003 0.959 . S
H989 C1003 0.961 . S
H990 C1004 0.960 . S
H991 C1004 0.961 . S
H992 C1004 0.959 . S
H993 C1007 0.929 . S
H994 C1008 0.931 . S
H995 C1010 0.930 . S
C996 H984 0.930 . S
C996 C997 1.399 . S
C996 C1001 1.399 . S
C997 C996 1.399 . S
C997 C998 1.376 . S
C998 H985 0.930 . S
C998 C997 1.376 . S
C998 C999 1.388 . S
C999 H986 0.930 . S
C999 C998 1.388 . S
C999 C1000 1.390 . S
C1000 C999 1.390 . S
C1000 C1001 1.394 . S
C1000 C1006 1.465 . S
C1001 C996 1.399 . S
C1001 C1000 1.394 . S
C1001 C1002 1.516 . S
C1002 C1001 1.516 . S
C1002 C1003 1.502 . S
C1002 C1004 1.561 . S
C1002 C1005 1.526 . S
C1003 H987 0.959 . S
C1003 H988 0.959 . S
C1003 H989 0.961 . S
C1003 C1002 1.502 . S
C1004 H990 0.960 . S
C1004 H991 0.961 . S
C1004 H992 0.959 . S
C1004 C1002 1.561 . S
C1005 C1002 1.526 . S
C1005 C1006 1.396 . S
C1005 C1010 1.390 . S
C1006 C1000 1.465 . S
C1006 C1005 1.396 . S
C1006 C1007 1.399 . S
C1007 H993 0.929 . S
C1007 C1006 1.399 . S
C1007 C1008 1.385 . S
C1008 H994 0.931 . S
C1008 C1007 1.385 . S
C1008 C1009 1.389 . S
C1009 C1008 1.389 . S
C1009 C1010 1.387 . S
C1010 H995 0.930 . S
C1010 C1005 1.390 . S
C1010 C1009 1.387 . S
H1011 C1023 0.930 . S
H1012 C1025 0.930 . S
H1013 C1026 0.930 . S
H1014 C1030 0.942 1_565 S
H1015 C1030 0.959 . S
H1016 C1030 0.961 . S
H1017 C1031 0.960 . S
H1018 C1031 0.961 . S
H1019 C1031 0.959 . S
H1020 C1034 0.929 . S
H1021 C1035 0.931 . S
H1022 C1037 0.930 . S
C1023 H1011 0.930 . S
C1023 C1024 1.398 1_545 S
C1023 C1028 1.399 1_545 S
C1024 C1023 1.398 1_565 S
C1024 C1025 1.379 . S
C1025 H1012 0.930 . S
C1025 C1024 1.379 . S
C1025 C1026 1.388 . S
C1026 H1013 0.930 . S
C1026 C1025 1.388 . S
C1026 C1027 1.390 . S
C1027 C1026 1.390 . S
C1027 C1028 1.394 . S
C1027 C1033 1.465 . S
C1028 C1023 1.399 1_565 S
C1028 C1027 1.394 . S
C1028 C1029 1.516 1_565 S
C1029 C1028 1.516 1_545 S
C1029 C1030 1.502 . S
C1029 C1031 1.561 . S
C1029 C1032 1.526 1_545 S
C1030 H1014 0.942 1_545 S
C1030 H1015 0.959 . S
C1030 H1016 0.961 . S
C1030 C1029 1.502 . S
C1031 H1017 0.960 . S
C1031 H1018 0.961 . S
C1031 H1019 0.959 . S
C1031 C1029 1.561 . S
C1032 C1029 1.526 1_565 S
C1032 C1033 1.396 . S
C1032 C1037 1.390 . S
C1033 C1027 1.465 . S
C1033 C1032 1.396 . S
C1033 C1034 1.399 . S
C1034 H1020 0.929 . S
C1034 C1033 1.399 . S
C1034 C1035 1.385 . S
C1035 H1021 0.931 . S
C1035 C1034 1.385 . S
C1035 C1036 1.389 . S
C1036 C1035 1.389 . S
C1036 C1037 1.387 . S
C1037 H1022 0.930 . S
C1037 C1032 1.390 . S
C1037 C1036 1.387 . S
H1038 C1050 0.930 . S
H1039 C1052 0.930 . S
H1040 C1053 0.930 . S
H1041 C1057 0.959 . S
H1042 C1057 0.959 . S
H1043 C1057 0.961 . S
H1044 C1058 0.960 . S
H1045 C1058 0.961 . S
H1046 C1058 0.959 . S
H1047 C1061 0.929 . S
H1048 C1062 0.931 . S
H1049 C1064 0.930 . S
C1050 H1038 0.930 . S
C1050 C1051 1.399 . S
C1050 C1055 1.399 . S
C1051 C1050 1.399 . S
C1051 C1052 1.376 . S
C1052 H1039 0.930 . S
C1052 C1051 1.376 . S
C1052 C1053 1.388 . S
C1053 H1040 0.930 . S
C1053 C1052 1.388 . S
C1053 C1054 1.390 . S
C1054 C1053 1.390 . S
C1054 C1055 1.394 . S
C1054 C1060 1.465 . S
C1055 C1050 1.399 . S
C1055 C1054 1.394 . S
C1055 C1056 1.516 . S
C1056 C1055 1.516 . S
C1056 C1057 1.502 . S
C1056 C1058 1.561 . S
C1056 C1059 1.526 . S
C1057 H1041 0.959 . S
C1057 H1042 0.959 . S
C1057 H1043 0.961 . S
C1057 C1056 1.502 . S
C1058 H1044 0.960 . S
C1058 H1045 0.961 . S
C1058 H1046 0.959 . S
C1058 C1056 1.561 . S
C1059 C1056 1.526 . S
C1059 C1060 1.396 . S
C1059 C1064 1.390 . S
C1060 C1054 1.465 . S
C1060 C1059 1.396 . S
C1060 C1061 1.399 . S
C1061 H1047 0.929 . S
C1061 C1060 1.399 . S
C1061 C1062 1.385 . S
C1062 H1048 0.931 . S
C1062 C1061 1.385 . S
C1062 C1063 1.389 . S
C1063 C1062 1.389 . S
C1063 C1064 1.387 . S
C1064 H1049 0.930 . S
C1064 C1059 1.390 . S
C1064 C1063 1.387 . S
H1065 C1077 0.930 . S
H1066 C1079 0.930 . S
H1067 C1080 0.930 . S
H1068 C1084 0.959 . S
H1069 C1084 0.959 1_556 S
H1070 C1084 0.961 . S
H1071 C1085 0.960 . S
H1072 C1085 0.961 1_556 S
H1073 C1085 0.959 . S
H1074 C1088 0.929 . S
H1075 C1089 0.931 . S
H1076 C1091 0.930 . S
C1077 H1065 0.930 . S
C1077 C1078 1.399 . S
C1077 C1082 1.399 . S
C1078 C1077 1.399 . S
C1078 C1079 1.376 . S
C1079 H1066 0.930 . S
C1079 C1078 1.376 . S
C1079 C1080 1.388 . S
C1080 H1067 0.930 . S
C1080 C1079 1.388 . S
C1080 C1081 1.390 . S
C1081 C1080 1.390 . S
C1081 C1082 1.394 . S
C1081 C1087 1.465 . S
C1082 C1077 1.399 . S
C1082 C1081 1.394 . S
C1082 C1083 1.516 . S
C1083 C1082 1.516 . S
C1083 C1084 1.502 . S
C1083 C1085 1.561 . S
C1083 C1086 1.526 . S
C1084 H1068 0.959 . S
C1084 H1069 0.959 1_554 S
C1084 H1070 0.961 . S
C1084 C1083 1.502 . S
C1085 H1071 0.960 . S
C1085 H1072 0.961 1_554 S
C1085 H1073 0.959 . S
C1085 C1083 1.561 . S
C1086 C1083 1.526 . S
C1086 C1087 1.396 . S
C1086 C1091 1.390 1_554 S
C1087 C1081 1.465 . S
C1087 C1086 1.396 . S
C1087 C1088 1.399 1_545 S
C1088 H1074 0.929 . S
C1088 C1087 1.399 1_565 S
C1088 C1089 1.385 1_554 S
C1089 H1075 0.931 . S
C1089 C1088 1.385 1_556 S
C1089 C1090 1.389 . S
C1090 C1089 1.389 . S
C1090 C1091 1.387 1_565 S
C1091 H1076 0.930 . S
C1091 C1086 1.390 1_556 S
C1091 C1090 1.387 1_545 S
H1092 C1104 0.930 . S
H1093 C1106 0.930 . S
H1094 C1107 0.930 . S
H1095 C1111 0.959 . S
H1096 C1111 0.959 . S
H1097 C1111 0.961 . S
H1098 C1112 0.960 . S
H1099 C1112 0.961 . S
H1100 C1112 0.959 . S
H1101 C1115 0.929 . S
H1102 C1116 0.931 . S
H1103 C1118 0.930 . S
C1104 H1092 0.930 . S
C1104 C1105 1.399 . S
C1104 C1109 1.399 . S
C1105 C1104 1.399 . S
C1105 C1106 1.376 . S
C1106 H1093 0.930 . S
C1106 C1105 1.376 . S
C1106 C1107 1.388 . S
C1107 H1094 0.930 . S
C1107 C1106 1.388 . S
C1107 C1108 1.390 . S
C1108 C1107 1.390 . S
C1108 C1109 1.394 . S
C1108 C1114 1.465 . S
C1109 C1104 1.399 . S
C1109 C1108 1.394 . S
C1109 C1110 1.516 . S
C1110 C1109 1.516 . S
C1110 C1111 1.502 . S
C1110 C1112 1.561 . S
C1110 C1113 1.526 . S
C1111 H1095 0.959 . S
C1111 H1096 0.959 . S
C1111 H1097 0.961 . S
C1111 C1110 1.502 . S
C1112 H1098 0.960 . S
C1112 H1099 0.961 . S
C1112 H1100 0.959 . S
C1112 C1110 1.561 . S
C1113 C1110 1.526 . S
C1113 C1114 1.396 . S
C1113 C1118 1.390 . S
C1114 C1108 1.465 . S
C1114 C1113 1.396 . S
C1114 C1115 1.399 . S
C1115 H1101 0.929 . S
C1115 C1114 1.399 . S
C1115 C1116 1.385 . S
C1116 H1102 0.931 . S
C1116 C1115 1.385 . S
C1116 C1117 1.389 . S
C1117 C1116 1.389 . S
C1117 C1118 1.387 . S
C1118 H1103 0.930 . S
C1118 C1113 1.390 . S
C1118 C1117 1.387 . S
H1119 C1131 0.930 . S
H1120 C1133 0.930 . S
H1121 C1134 0.930 . S
H1122 C1138 0.959 . S
H1123 C1138 0.959 . S
H1124 C1138 0.961 . S
H1125 C1139 0.960 1_554 S
H1126 C1139 0.961 . S
H1127 C1139 0.959 . S
H1128 C1142 0.929 . S
H1129 C1143 0.931 . S
H1130 C1145 0.930 . S
C1131 H1119 0.930 . S
C1131 C1132 1.399 . S
C1131 C1136 1.399 1_554 S
C1132 C1131 1.399 . S
C1132 C1133 1.376 . S
C1133 H1120 0.930 . S
C1133 C1132 1.376 . S
C1133 C1134 1.388 1_554 S
C1134 H1121 0.930 . S
C1134 C1133 1.388 1_556 S
C1134 C1135 1.390 . S
C1135 C1134 1.390 . S
C1135 C1136 1.394 . S
C1135 C1141 1.465 . S
C1136 C1131 1.399 1_556 S
C1136 C1135 1.394 . S
C1136 C1137 1.516 . S
C1137 C1136 1.516 . S
C1137 C1138 1.502 . S
C1137 C1139 1.561 . S
C1137 C1140 1.526 . S
C1138 H1122 0.959 . S
C1138 H1123 0.959 . S
C1138 H1124 0.961 . S
C1138 C1137 1.502 . S
C1139 H1125 0.960 1_556 S
C1139 H1126 0.961 . S
C1139 H1127 0.959 . S
C1139 C1137 1.561 . S
C1140 C1137 1.526 . S
C1140 C1141 1.396 . S
C1140 C1145 1.390 . S
C1141 C1135 1.465 . S
C1141 C1140 1.396 . S
C1141 C1142 1.399 . S
C1142 H1128 0.929 . S
C1142 C1141 1.399 . S
C1142 C1143 1.385 . S
C1143 H1129 0.931 . S
C1143 C1142 1.385 . S
C1143 C1144 1.389 . S
C1144 C1143 1.389 . S
C1144 C1145 1.387 . S
C1145 H1130 0.930 . S
C1145 C1140 1.390 . S
C1145 C1144 1.387 . S
H1146 C1158 0.930 . S
H1147 C1160 0.930 . S
H1148 C1161 0.930 . S
H1149 C1165 0.959 . S
H1150 C1165 0.959 . S
H1151 C1165 0.961 . S
H1152 C1166 0.960 . S
H1153 C1166 0.961 . S
H1154 C1166 0.959 . S
H1155 C1169 0.929 . S
H1156 C1170 0.931 . S
H1157 C1172 0.930 . S
C1158 H1146 0.930 . S
C1158 C1159 1.399 . S
C1158 C1163 1.399 . S
C1159 C1158 1.399 . S
C1159 C1160 1.376 . S
C1160 H1147 0.930 . S
C1160 C1159 1.376 . S
C1160 C1161 1.388 . S
C1161 H1148 0.930 . S
C1161 C1160 1.388 . S
C1161 C1162 1.390 . S
C1162 C1161 1.390 . S
C1162 C1163 1.394 . S
C1162 C1168 1.465 . S
C1163 C1158 1.399 . S
C1163 C1162 1.394 . S
C1163 C1164 1.516 . S
C1164 C1163 1.516 . S
C1164 C1165 1.502 . S
C1164 C1166 1.561 . S
C1164 C1167 1.526 . S
C1165 H1149 0.959 . S
C1165 H1150 0.959 . S
C1165 H1151 0.961 . S
C1165 C1164 1.502 . S
C1166 H1152 0.960 . S
C1166 H1153 0.961 . S
C1166 H1154 0.959 . S
C1166 C1164 1.561 . S
C1167 C1164 1.526 . S
C1167 C1168 1.396 . S
C1167 C1172 1.390 . S
C1168 C1162 1.465 . S
C1168 C1167 1.396 . S
C1168 C1169 1.399 . S
C1169 H1155 0.929 . S
C1169 C1168 1.399 . S
C1169 C1170 1.385 . S
C1170 H1156 0.931 . S
C1170 C1169 1.385 . S
C1170 C1171 1.389 . S
C1171 C1170 1.389 . S
C1171 C1172 1.387 . S
C1172 H1157 0.930 . S
C1172 C1167 1.390 . S
C1172 C1171 1.387 . S
H1173 C1185 0.930 . S
H1174 C1187 0.930 . S
H1175 C1188 0.930 . S
H1176 C1192 0.959 . S
H1177 C1192 0.959 . S
H1178 C1192 0.961 . S
H1179 C1193 0.960 . S
H1180 C1193 0.961 . S
H1181 C1193 0.959 . S
H1182 C1196 0.929 . S
H1183 C1197 0.931 . S
H1184 C1199 0.930 . S
C1185 H1173 0.930 . S
C1185 C1186 1.399 . S
C1185 C1190 1.399 . S
C1186 C1185 1.399 . S
C1186 C1187 1.376 . S
C1187 H1174 0.930 . S
C1187 C1186 1.376 . S
C1187 C1188 1.388 . S
C1188 H1175 0.930 . S
C1188 C1187 1.388 . S
C1188 C1189 1.390 . S
C1189 C1188 1.390 . S
C1189 C1190 1.394 . S
C1189 C1195 1.465 . S
C1190 C1185 1.399 . S
C1190 C1189 1.394 . S
C1190 C1191 1.516 . S
C1191 C1190 1.516 . S
C1191 C1192 1.502 . S
C1191 C1193 1.561 . S
C1191 C1194 1.526 . S
C1192 H1176 0.959 . S
C1192 H1177 0.959 . S
C1192 H1178 0.961 . S
C1192 C1191 1.502 . S
C1193 H1179 0.960 . S
C1193 H1180 0.961 . S
C1193 H1181 0.959 . S
C1193 C1191 1.561 . S
C1194 C1191 1.526 . S
C1194 C1195 1.396 . S
C1194 C1199 1.390 . S
C1195 C1189 1.465 . S
C1195 C1194 1.396 . S
C1195 C1196 1.399 . S
C1196 H1182 0.929 . S
C1196 C1195 1.399 . S
C1196 C1197 1.385 . S
C1197 H1183 0.931 . S
C1197 C1196 1.385 . S
C1197 C1198 1.389 . S
C1198 C1197 1.389 . S
C1198 C1199 1.387 . S
C1199 H1184 0.930 . S
C1199 C1194 1.390 . S
C1199 C1198 1.387 . S
H1200 C1212 0.930 . S
H1201 C1214 0.930 . S
H1202 C1215 0.930 . S
H1203 C1219 0.959 . S
H1204 C1219 0.959 . S
H1205 C1219 0.961 . S
H1206 C1220 0.960 . S
H1207 C1220 0.961 . S
H1208 C1220 0.959 . S
H1209 C1223 0.929 . S
H1210 C1224 0.931 . S
H1211 C1226 0.930 . S
C1212 H1200 0.930 . S
C1212 C1213 1.399 . S
C1212 C1217 1.399 . S
C1213 C1212 1.399 . S
C1213 C1214 1.376 . S
C1214 H1201 0.930 . S
C1214 C1213 1.376 . S
C1214 C1215 1.388 . S
C1215 H1202 0.930 . S
C1215 C1214 1.388 . S
C1215 C1216 1.390 . S
C1216 C1215 1.390 . S
C1216 C1217 1.394 . S
C1216 C1222 1.465 . S
C1217 C1212 1.399 . S
C1217 C1216 1.394 . S
C1217 C1218 1.516 . S
C1218 C1217 1.516 . S
C1218 C1219 1.502 . S
C1218 C1220 1.561 . S
C1218 C1221 1.526 . S
C1219 H1203 0.959 . S
C1219 H1204 0.959 . S
C1219 H1205 0.961 . S
C1219 C1218 1.502 . S
C1220 H1206 0.960 . S
C1220 H1207 0.961 . S
C1220 H1208 0.959 . S
C1220 C1218 1.561 . S
C1221 C1218 1.526 . S
C1221 C1222 1.396 . S
C1221 C1226 1.390 . S
C1222 C1216 1.465 . S
C1222 C1221 1.396 . S
C1222 C1223 1.399 . S
C1223 H1209 0.929 . S
C1223 C1222 1.399 . S
C1223 C1224 1.385 . S
C1224 H1210 0.931 . S
C1224 C1223 1.385 . S
C1224 C1225 1.389 . S
C1225 C1224 1.389 . S
C1225 C1226 1.387 . S
C1226 H1211 0.930 . S
C1226 C1221 1.390 . S
C1226 C1225 1.387 . S
H1227 C1239 0.929 . S
H1228 C1241 0.930 . S
H1229 C1242 0.930 . S
H1230 C1246 0.959 1_655 S
H1231 C1246 0.959 . S
H1232 C1246 0.961 1_655 S
H1233 C1247 0.960 . S
H1234 C1247 0.961 . S
H1235 C1247 0.959 . S
H1236 C1250 0.929 . S
H1237 C1251 0.931 . S
H1238 C1253 0.930 . S
C1239 H1227 0.929 . S
C1239 C1240 1.397 1_455 S
C1239 C1244 1.399 1_565 S
C1240 C1239 1.397 1_655 S
C1240 C1241 1.374 1_655 S
C1241 H1228 0.930 . S
C1241 C1240 1.374 1_455 S
C1241 C1242 1.388 . S
C1242 H1229 0.930 . S
C1242 C1241 1.388 . S
C1242 C1243 1.390 1_565 S
C1243 C1242 1.390 1_545 S
C1243 C1244 1.394 . S
C1243 C1249 1.465 . S
C1244 C1239 1.399 1_545 S
C1244 C1243 1.394 . S
C1244 C1245 1.516 . S
C1245 C1244 1.516 . S
C1245 C1246 1.502 . S
C1245 C1247 1.561 . S
C1245 C1248 1.526 . S
C1246 H1230 0.959 1_455 S
C1246 H1231 0.959 . S
C1246 H1232 0.961 1_455 S
C1246 C1245 1.502 . S
C1247 H1233 0.960 . S
C1247 H1234 0.961 . S
C1247 H1235 0.959 . S
C1247 C1245 1.561 . S
C1248 C1245 1.526 . S
C1248 C1249 1.396 . S
C1248 C1253 1.390 . S
C1249 C1243 1.465 . S
C1249 C1248 1.396 . S
C1249 C1250 1.399 . S
C1250 H1236 0.929 . S
C1250 C1249 1.399 . S
C1250 C1251 1.385 . S
C1251 H1237 0.931 . S
C1251 C1250 1.385 . S
C1251 C1252 1.389 . S
C1252 C1251 1.389 . S
C1252 C1253 1.387 . S
C1253 H1238 0.930 . S
C1253 C1248 1.390 . S
C1253 C1252 1.387 . S
H1254 C1266 0.930 . S
H1255 C1268 0.930 . S
H1256 C1269 0.930 . S
H1257 C1273 0.959 . S
H1258 C1273 0.959 . S
H1259 C1273 0.961 . S
H1260 C1274 0.960 . S
H1261 C1274 0.961 . S
H1262 C1274 0.959 . S
H1263 C1277 0.929 . S
H1264 C1278 0.931 . S
H1265 C1280 0.930 . S
C1266 H1254 0.930 . S
C1266 C1267 1.399 . S
C1266 C1271 1.399 . S
C1267 C1266 1.399 . S
C1267 C1268 1.376 . S
C1268 H1255 0.930 . S
C1268 C1267 1.376 . S
C1268 C1269 1.388 . S
C1269 H1256 0.930 . S
C1269 C1268 1.388 . S
C1269 C1270 1.390 . S
C1270 C1269 1.390 . S
C1270 C1271 1.394 . S
C1270 C1276 1.465 . S
C1271 C1266 1.399 . S
C1271 C1270 1.394 . S
C1271 C1272 1.516 . S
C1272 C1271 1.516 . S
C1272 C1273 1.502 . S
C1272 C1274 1.561 . S
C1272 C1275 1.526 . S
C1273 H1257 0.959 . S
C1273 H1258 0.959 . S
C1273 H1259 0.961 . S
C1273 C1272 1.502 . S
C1274 H1260 0.960 . S
C1274 H1261 0.961 . S
C1274 H1262 0.959 . S
C1274 C1272 1.561 . S
C1275 C1272 1.526 . S
C1275 C1276 1.396 . S
C1275 C1280 1.390 . S
C1276 C1270 1.465 . S
C1276 C1275 1.396 . S
C1276 C1277 1.399 . S
C1277 H1263 0.929 . S
C1277 C1276 1.399 . S
C1277 C1278 1.385 . S
C1278 H1264 0.931 . S
C1278 C1277 1.385 . S
C1278 C1279 1.389 . S
C1279 C1278 1.389 . S
C1279 C1280 1.387 . S
C1280 H1265 0.930 . S
C1280 C1275 1.390 . S
C1280 C1279 1.387 . S
H1281 C1293 0.930 . S
H1282 C1295 0.930 . S
H1283 C1296 0.930 . S
H1284 C1300 0.959 . S
H1285 C1300 0.959 . S
H1286 C1300 0.961 . S
H1287 C1301 0.960 . S
H1288 C1301 0.961 . S
H1289 C1301 0.959 . S
H1290 C1304 0.929 . S
H1291 C1305 0.931 . S
H1292 C1307 0.930 . S
C1293 H1281 0.930 . S
C1293 C1294 1.399 . S
C1293 C1298 1.399 1_545 S
C1294 C1293 1.399 . S
C1294 C1295 1.376 . S
C1295 H1282 0.930 . S
C1295 C1294 1.376 . S
C1295 C1296 1.388 1_545 S
C1296 H1283 0.930 . S
C1296 C1295 1.388 1_565 S
C1296 C1297 1.390 . S
C1297 C1296 1.390 . S
C1297 C1298 1.394 . S
C1297 C1303 1.465 . S
C1298 C1293 1.399 1_565 S
C1298 C1297 1.394 . S
C1298 C1299 1.516 . S
C1299 C1298 1.516 . S
C1299 C1300 1.502 . S
C1299 C1301 1.561 . S
C1299 C1302 1.526 . S
C1300 H1284 0.959 . S
C1300 H1285 0.959 . S
C1300 H1286 0.961 . S
C1300 C1299 1.502 . S
C1301 H1287 0.960 . S
C1301 H1288 0.961 . S
C1301 H1289 0.959 . S
C1301 C1299 1.561 . S
C1302 C1299 1.526 . S
C1302 C1303 1.396 . S
C1302 C1307 1.390 . S
C1303 C1297 1.465 . S
C1303 C1302 1.396 . S
C1303 C1304 1.399 . S
C1304 H1290 0.929 . S
C1304 C1303 1.399 . S
C1304 C1305 1.385 . S
C1305 H1291 0.931 . S
C1305 C1304 1.385 . S
C1305 C1306 1.389 . S
C1306 C1305 1.389 . S
C1306 C1307 1.387 . S
C1307 H1292 0.930 . S
C1307 C1302 1.390 . S
C1307 C1306 1.387 . S
H1308 C1320 0.930 . S
H1309 C1322 0.930 . S
H1310 C1323 0.930 . S
H1311 C1327 0.959 . S
H1312 C1327 0.959 . S
H1313 C1327 0.961 . S
H1314 C1328 0.960 . S
H1315 C1328 0.961 . S
H1316 C1328 0.959 . S
H1317 C1331 0.929 . S
H1318 C1332 0.931 . S
H1319 C1334 0.930 . S
C1320 H1308 0.930 . S
C1320 C1321 1.399 . S
C1320 C1325 1.399 . S
C1321 C1320 1.399 . S
C1321 C1322 1.376 . S
C1322 H1309 0.930 . S
C1322 C1321 1.376 . S
C1322 C1323 1.388 . S
C1323 H1310 0.930 . S
C1323 C1322 1.388 . S
C1323 C1324 1.390 . S
C1324 C1323 1.390 . S
C1324 C1325 1.394 . S
C1324 C1330 1.465 . S
C1325 C1320 1.399 . S
C1325 C1324 1.394 . S
C1325 C1326 1.516 . S
C1326 C1325 1.516 . S
C1326 C1327 1.502 . S
C1326 C1328 1.561 . S
C1326 C1329 1.526 . S
C1327 H1311 0.959 . S
C1327 H1312 0.959 . S
C1327 H1313 0.961 . S
C1327 C1326 1.502 . S
C1328 H1314 0.960 . S
C1328 H1315 0.961 . S
C1328 H1316 0.959 . S
C1328 C1326 1.561 . S
C1329 C1326 1.526 . S
C1329 C1330 1.396 . S
C1329 C1334 1.390 . S
C1330 C1324 1.465 . S
C1330 C1329 1.396 . S
C1330 C1331 1.399 . S
C1331 H1317 0.929 . S
C1331 C1330 1.399 . S
C1331 C1332 1.385 . S
C1332 H1318 0.931 . S
C1332 C1331 1.385 . S
C1332 C1333 1.389 . S
C1333 C1332 1.389 . S
C1333 C1334 1.387 . S
C1334 H1319 0.930 . S
C1334 C1329 1.390 . S
C1334 C1333 1.387 . S
H1335 C1347 0.932 . S
H1336 C1349 0.930 . S
H1337 C1350 0.930 . S
H1338 C1354 0.959 . S
H1339 C1354 0.959 . S
H1340 C1354 0.961 . S
H1341 C1355 0.960 . S
H1342 C1355 0.961 . S
H1343 C1355 0.959 . S
H1344 C1358 0.929 . S
H1345 C1359 0.931 . S
H1346 C1361 0.930 . S
C1347 H1335 0.932 . S
C1347 C1348 1.399 1_455 S
C1347 C1352 1.397 1_455 S
C1348 C1347 1.399 1_655 S
C1348 C1349 1.381 . S
C1349 H1336 0.930 . S
C1349 C1348 1.381 . S
C1349 C1350 1.388 . S
C1350 H1337 0.930 . S
C1350 C1349 1.388 . S
C1350 C1351 1.390 . S
C1351 C1350 1.390 . S
C1351 C1352 1.394 . S
C1351 C1357 1.465 . S
C1352 C1347 1.397 1_655 S
C1352 C1351 1.394 . S
C1352 C1353 1.516 . S
C1353 C1352 1.516 . S
C1353 C1354 1.502 1_655 S
C1353 C1355 1.561 . S
C1353 C1356 1.526 . S
C1354 H1338 0.959 . S
C1354 H1339 0.959 . S
C1354 H1340 0.961 . S
C1354 C1353 1.502 1_455 S
C1355 H1341 0.960 . S
C1355 H1342 0.961 . S
C1355 H1343 0.959 . S
C1355 C1353 1.561 . S
C1356 C1353 1.526 . S
C1356 C1357 1.396 . S
C1356 C1361 1.390 . S
C1357 C1351 1.465 . S
C1357 C1356 1.396 . S
C1357 C1358 1.399 . S
C1358 H1344 0.929 . S
C1358 C1357 1.399 . S
C1358 C1359 1.385 . S
C1359 H1345 0.931 . S
C1359 C1358 1.385 . S
C1359 C1360 1.389 . S
C1360 C1359 1.389 . S
C1360 C1361 1.387 . S
C1361 H1346 0.930 . S
C1361 C1356 1.390 . S
C1361 C1360 1.387 . S
H1362 C1374 0.930 . S
H1363 C1376 0.930 . S
H1364 C1377 0.930 . S
H1365 C1381 0.959 . S
H1366 C1381 0.959 . S
H1367 C1381 0.961 . S
H1368 C1382 0.960 . S
H1369 C1382 0.961 . S
H1370 C1382 0.959 . S
H1371 C1385 0.929 . S
H1372 C1386 0.931 . S
H1373 C1388 0.930 . S
C1374 H1362 0.930 . S
C1374 C1375 1.399 . S
C1374 C1379 1.399 . S
C1375 C1374 1.399 . S
C1375 C1376 1.376 . S
C1376 H1363 0.930 . S
C1376 C1375 1.376 . S
C1376 C1377 1.388 . S
C1377 H1364 0.930 . S
C1377 C1376 1.388 . S
C1377 C1378 1.390 . S
C1378 C1377 1.390 . S
C1378 C1379 1.394 . S
C1378 C1384 1.465 . S
C1379 C1374 1.399 . S
C1379 C1378 1.394 . S
C1379 C1380 1.516 . S
C1380 C1379 1.516 . S
C1380 C1381 1.502 . S
C1380 C1382 1.561 . S
C1380 C1383 1.526 . S
C1381 H1365 0.959 . S
C1381 H1366 0.959 . S
C1381 H1367 0.961 . S
C1381 C1380 1.502 . S
C1382 H1368 0.960 . S
C1382 H1369 0.961 . S
C1382 H1370 0.959 . S
C1382 C1380 1.561 . S
C1383 C1380 1.526 . S
C1383 C1384 1.396 . S
C1383 C1388 1.390 . S
C1384 C1378 1.465 . S
C1384 C1383 1.396 . S
C1384 C1385 1.399 . S
C1385 H1371 0.929 . S
C1385 C1384 1.399 . S
C1385 C1386 1.385 . S
C1386 H1372 0.931 . S
C1386 C1385 1.385 . S
C1386 C1387 1.389 . S
C1387 C1386 1.389 . S
C1387 C1388 1.387 . S
C1388 H1373 0.930 . S
C1388 C1383 1.390 . S
C1388 C1387 1.387 . S
H1389 C1401 0.930 . S
H1390 C1403 0.930 . S
H1391 C1404 0.930 . S
H1392 C1408 0.959 . S
H1393 C1408 0.959 . S
H1394 C1408 0.961 . S
H1395 C1409 0.960 . S
H1396 C1409 0.961 . S
H1397 C1409 0.959 . S
H1398 C1412 0.929 . S
H1399 C1413 0.931 . S
H1400 C1415 0.930 . S
C1401 H1389 0.930 . S
C1401 C1402 1.399 . S
C1401 C1406 1.399 . S
C1402 C1401 1.399 . S
C1402 C1403 1.376 . S
C1403 H1390 0.930 . S
C1403 C1402 1.376 . S
C1403 C1404 1.388 . S
C1404 H1391 0.930 . S
C1404 C1403 1.388 . S
C1404 C1405 1.390 . S
C1405 C1404 1.390 . S
C1405 C1406 1.394 . S
C1405 C1411 1.465 . S
C1406 C1401 1.399 . S
C1406 C1405 1.394 . S
C1406 C1407 1.516 . S
C1407 C1406 1.516 . S
C1407 C1408 1.502 . S
C1407 C1409 1.561 . S
C1407 C1410 1.526 . S
C1408 H1392 0.959 . S
C1408 H1393 0.959 . S
C1408 H1394 0.961 . S
C1408 C1407 1.502 . S
C1409 H1395 0.960 . S
C1409 H1396 0.961 . S
C1409 H1397 0.959 . S
C1409 C1407 1.561 . S
C1410 C1407 1.526 . S
C1410 C1411 1.396 . S
C1410 C1415 1.390 . S
C1411 C1405 1.465 . S
C1411 C1410 1.396 . S
C1411 C1412 1.399 . S
C1412 H1398 0.929 . S
C1412 C1411 1.399 . S
C1412 C1413 1.385 . S
C1413 H1399 0.931 . S
C1413 C1412 1.385 . S
C1413 C1414 1.389 . S
C1414 C1413 1.389 . S
C1414 C1415 1.387 . S
C1415 H1400 0.930 . S
C1415 C1410 1.390 . S
C1415 C1414 1.387 . S
H1416 C1428 0.930 . S
H1417 C1430 0.930 . S
H1418 C1431 0.930 . S
H1419 C1435 0.959 . S
H1420 C1435 0.959 . S
H1421 C1435 0.961 . S
H1422 C1436 0.960 . S
H1423 C1436 0.961 . S
H1424 C1436 0.959 . S
H1425 C1439 0.929 . S
H1426 C1440 0.931 . S
H1427 C1442 0.930 . S
C1428 H1416 0.930 . S
C1428 C1429 1.399 . S
C1428 C1433 1.399 . S
C1429 C1428 1.399 . S
C1429 C1430 1.376 . S
C1430 H1417 0.930 . S
C1430 C1429 1.376 . S
C1430 C1431 1.388 . S
C1431 H1418 0.930 . S
C1431 C1430 1.388 . S
C1431 C1432 1.390 . S
C1432 C1431 1.390 . S
C1432 C1433 1.394 . S
C1432 C1438 1.465 . S
C1433 C1428 1.399 . S
C1433 C1432 1.394 . S
C1433 C1434 1.516 . S
C1434 C1433 1.516 . S
C1434 C1435 1.502 . S
C1434 C1436 1.561 . S
C1434 C1437 1.526 . S
C1435 H1419 0.959 . S
C1435 H1420 0.959 . S
C1435 H1421 0.961 . S
C1435 C1434 1.502 . S
C1436 H1422 0.960 . S
C1436 H1423 0.961 . S
C1436 H1424 0.959 . S
C1436 C1434 1.561 . S
C1437 C1434 1.526 . S
C1437 C1438 1.396 . S
C1437 C1442 1.390 . S
C1438 C1432 1.465 . S
C1438 C1437 1.396 . S
C1438 C1439 1.399 . S
C1439 H1425 0.929 . S
C1439 C1438 1.399 . S
C1439 C1440 1.385 . S
C1440 H1426 0.931 . S
C1440 C1439 1.385 . S
C1440 C1441 1.389 . S
C1441 C1440 1.389 . S
C1441 C1442 1.387 . S
C1442 H1427 0.930 . S
C1442 C1437 1.390 . S
C1442 C1441 1.387 . S
H1443 C1455 0.930 . S
H1444 C1457 0.930 . S
H1445 C1458 0.930 . S
H1446 C1462 0.959 . S
H1447 C1462 0.959 . S
H1448 C1462 0.961 . S
H1449 C1463 0.960 . S
H1450 C1463 0.961 . S
H1451 C1463 0.959 . S
H1452 C1466 0.929 . S
H1453 C1467 0.931 . S
H1454 C1469 0.930 . S
C1455 H1443 0.930 . S
C1455 C1456 1.399 . S
C1455 C1460 1.399 . S
C1456 C1455 1.399 . S
C1456 C1457 1.376 . S
C1457 H1444 0.930 . S
C1457 C1456 1.376 . S
C1457 C1458 1.388 . S
C1458 H1445 0.930 . S
C1458 C1457 1.388 . S
C1458 C1459 1.390 . S
C1459 C1458 1.390 . S
C1459 C1460 1.394 . S
C1459 C1465 1.465 . S
C1460 C1455 1.399 . S
C1460 C1459 1.394 . S
C1460 C1461 1.516 . S
C1461 C1460 1.516 . S
C1461 C1462 1.502 . S
C1461 C1463 1.561 . S
C1461 C1464 1.526 . S
C1462 H1446 0.959 . S
C1462 H1447 0.959 . S
C1462 H1448 0.961 . S
C1462 C1461 1.502 . S
C1463 H1449 0.960 . S
C1463 H1450 0.961 . S
C1463 H1451 0.959 . S
C1463 C1461 1.561 . S
C1464 C1461 1.526 . S
C1464 C1465 1.396 . S
C1464 C1469 1.390 . S
C1465 C1459 1.465 . S
C1465 C1464 1.396 . S
C1465 C1466 1.399 . S
C1466 H1452 0.929 . S
C1466 C1465 1.399 . S
C1466 C1467 1.385 . S
C1467 H1453 0.931 . S
C1467 C1466 1.385 . S
C1467 C1468 1.389 . S
C1468 C1467 1.389 . S
C1468 C1469 1.387 . S
C1469 H1454 0.930 . S
C1469 C1464 1.390 . S
C1469 C1468 1.387 . S
H1470 C1482 0.930 . S
H1471 C1484 0.930 . S
H1472 C1485 0.930 . S
H1473 C1489 0.959 . S
H1474 C1489 0.959 . S
H1475 C1489 0.961 . S
H1476 C1490 0.960 . S
H1477 C1490 0.961 . S
H1478 C1490 0.959 . S
H1479 C1493 0.929 . S
H1480 C1494 0.931 . S
H1481 C1496 0.930 . S
C1482 H1470 0.930 . S
C1482 C1483 1.399 1_554 S
C1482 C1487 1.399 1_655 S
C1483 C1482 1.399 1_556 S
C1483 C1484 1.376 . S
C1484 H1471 0.930 . S
C1484 C1483 1.376 . S
C1484 C1485 1.388 1_655 S
C1485 H1472 0.930 . S
C1485 C1484 1.388 1_455 S
C1485 C1486 1.390 1_556 S
C1486 C1485 1.390 1_554 S
C1486 C1487 1.394 . S
C1486 C1492 1.465 . S
C1487 C1482 1.399 1_455 S
C1487 C1486 1.394 . S
C1487 C1488 1.516 . S
C1488 C1487 1.516 . S
C1488 C1489 1.502 . S
C1488 C1490 1.561 . S
C1488 C1491 1.526 . S
C1489 H1473 0.959 . S
C1489 H1474 0.959 . S
C1489 H1475 0.961 . S
C1489 C1488 1.502 . S
C1490 H1476 0.960 . S
C1490 H1477 0.961 . S
C1490 H1478 0.959 . S
C1490 C1488 1.561 . S
C1491 C1488 1.526 . S
C1491 C1492 1.396 . S
C1491 C1496 1.390 . S
C1492 C1486 1.465 . S
C1492 C1491 1.396 . S
C1492 C1493 1.399 . S
C1493 H1479 0.929 . S
C1493 C1492 1.399 . S
C1493 C1494 1.385 . S
C1494 H1480 0.931 . S
C1494 C1493 1.385 . S
C1494 C1495 1.389 . S
C1495 C1494 1.389 . S
C1495 C1496 1.387 . S
C1496 H1481 0.930 . S
C1496 C1491 1.390 . S
C1496 C1495 1.387 . S
H1497 C1509 0.930 . S
H1498 C1511 0.930 . S
H1499 C1512 0.930 . S
H1500 C1516 0.959 . S
H1501 C1516 0.959 . S
H1502 C1516 0.961 . S
H1503 C1517 0.960 . S
H1504 C1517 0.961 . S
H1505 C1517 0.959 . S
H1506 C1520 0.929 . S
H1507 C1521 0.931 . S
H1508 C1523 0.930 . S
C1509 H1497 0.930 . S
C1509 C1510 1.399 . S
C1509 C1514 1.399 . S
C1510 C1509 1.399 . S
C1510 C1511 1.376 . S
C1511 H1498 0.930 . S
C1511 C1510 1.376 . S
C1511 C1512 1.388 . S
C1512 H1499 0.930 . S
C1512 C1511 1.388 . S
C1512 C1513 1.390 . S
C1513 C1512 1.390 . S
C1513 C1514 1.394 . S
C1513 C1519 1.465 . S
C1514 C1509 1.399 . S
C1514 C1513 1.394 . S
C1514 C1515 1.516 . S
C1515 C1514 1.516 . S
C1515 C1516 1.502 . S
C1515 C1517 1.561 . S
C1515 C1518 1.526 . S
C1516 H1500 0.959 . S
C1516 H1501 0.959 . S
C1516 H1502 0.961 . S
C1516 C1515 1.502 . S
C1517 H1503 0.960 . S
C1517 H1504 0.961 . S
C1517 H1505 0.959 . S
C1517 C1515 1.561 . S
C1518 C1515 1.526 . S
C1518 C1519 1.396 . S
C1518 C1523 1.390 . S
C1519 C1513 1.465 . S
C1519 C1518 1.396 . S
C1519 C1520 1.399 . S
C1520 H1506 0.929 . S
C1520 C1519 1.399 . S
C1520 C1521 1.385 . S
C1521 H1507 0.931 . S
C1521 C1520 1.385 . S
C1521 C1522 1.389 . S
C1522 C1521 1.389 . S
C1522 C1523 1.387 . S
C1523 H1508 0.930 . S
C1523 C1518 1.390 . S
C1523 C1522 1.387 . S
H1524 C1536 0.930 . S
H1525 C1538 0.930 . S
H1526 C1539 0.930 . S
H1527 C1543 0.959 . S
H1528 C1543 0.959 . S
H1529 C1543 0.961 . S
H1530 C1544 0.960 . S
H1531 C1544 0.961 . S
H1532 C1544 0.959 . S
H1533 C1547 0.929 . S
H1534 C1548 0.931 . S
H1535 C1550 0.930 . S
C1536 H1524 0.930 . S
C1536 C1537 1.399 . S
C1536 C1541 1.399 . S
C1537 C1536 1.399 . S
C1537 C1538 1.376 . S
C1538 H1525 0.930 . S
C1538 C1537 1.376 . S
C1538 C1539 1.388 . S
C1539 H1526 0.930 . S
C1539 C1538 1.388 . S
C1539 C1540 1.390 . S
C1540 C1539 1.390 . S
C1540 C1541 1.394 . S
C1540 C1546 1.465 . S
C1541 C1536 1.399 . S
C1541 C1540 1.394 . S
C1541 C1542 1.516 . S
C1542 C1541 1.516 . S
C1542 C1543 1.502 . S
C1542 C1544 1.561 . S
C1542 C1545 1.526 . S
C1543 H1527 0.959 . S
C1543 H1528 0.959 . S
C1543 H1529 0.961 . S
C1543 C1542 1.502 . S
C1544 H1530 0.960 . S
C1544 H1531 0.961 . S
C1544 H1532 0.959 . S
C1544 C1542 1.561 . S
C1545 C1542 1.526 . S
C1545 C1546 1.396 . S
C1545 C1550 1.390 . S
C1546 C1540 1.465 . S
C1546 C1545 1.396 . S
C1546 C1547 1.399 . S
C1547 H1533 0.929 . S
C1547 C1546 1.399 . S
C1547 C1548 1.385 . S
C1548 H1534 0.931 . S
C1548 C1547 1.385 . S
C1548 C1549 1.389 . S
C1549 C1548 1.389 . S
C1549 C1550 1.387 . S
C1550 H1535 0.930 . S
C1550 C1545 1.390 . S
C1550 C1549 1.387 . S
H1551 C1563 0.930 . S
H1552 C1565 0.930 . S
H1553 C1566 0.930 . S
H1554 C1570 0.959 . S
H1555 C1570 0.959 . S
H1556 C1570 0.961 . S
H1557 C1571 0.960 . S
H1558 C1571 0.961 . S
H1559 C1571 0.959 . S
H1560 C1574 0.929 . S
H1561 C1575 0.931 . S
H1562 C1577 0.930 . S
C1563 H1551 0.930 . S
C1563 C1564 1.399 . S
C1563 C1568 1.399 . S
C1564 C1563 1.399 . S
C1564 C1565 1.376 . S
C1565 H1552 0.930 . S
C1565 C1564 1.376 . S
C1565 C1566 1.388 . S
C1566 H1553 0.930 . S
C1566 C1565 1.388 . S
C1566 C1567 1.390 . S
C1567 C1566 1.390 . S
C1567 C1568 1.394 . S
C1567 C1573 1.465 . S
C1568 C1563 1.399 . S
C1568 C1567 1.394 . S
C1568 C1569 1.516 . S
C1569 C1568 1.516 . S
C1569 C1570 1.502 . S
C1569 C1571 1.561 . S
C1569 C1572 1.526 . S
C1570 H1554 0.959 . S
C1570 H1555 0.959 . S
C1570 H1556 0.961 . S
C1570 C1569 1.502 . S
C1571 H1557 0.960 . S
C1571 H1558 0.961 . S
C1571 H1559 0.959 . S
C1571 C1569 1.561 . S
C1572 C1569 1.526 . S
C1572 C1573 1.396 . S
C1572 C1577 1.390 . S
C1573 C1567 1.465 . S
C1573 C1572 1.396 . S
C1573 C1574 1.399 . S
C1574 H1560 0.929 . S
C1574 C1573 1.399 . S
C1574 C1575 1.385 . S
C1575 H1561 0.931 . S
C1575 C1574 1.385 . S
C1575 C1576 1.389 . S
C1576 C1575 1.389 . S
C1576 C1577 1.387 . S
C1577 H1562 0.930 . S
C1577 C1572 1.390 . S
C1577 C1576 1.387 . S
H1578 C1590 0.930 . S
H1579 C1592 0.930 . S
H1580 C1593 0.930 . S
H1581 C1597 0.959 1_554 S
H1582 C1597 0.959 . S
H1583 C1597 0.978 . S
H1584 C1598 0.960 . S
H1585 C1598 0.961 . S
H1586 C1598 0.959 . S
H1587 C1601 0.929 . S
H1588 C1602 0.931 . S
H1589 C1604 0.930 . S
C1590 H1578 0.930 . S
C1590 C1591 1.395 1_556 S
C1590 C1595 1.399 . S
C1591 C1590 1.395 1_554 S
C1591 C1592 1.373 1_554 S
C1592 H1579 0.930 . S
C1592 C1591 1.373 1_556 S
C1592 C1593 1.388 . S
C1593 H1580 0.930 . S
C1593 C1592 1.388 . S
C1593 C1594 1.390 . S
C1594 C1593 1.390 . S
C1594 C1595 1.394 . S
C1594 C1600 1.465 . S
C1595 C1590 1.399 . S
C1595 C1594 1.394 . S
C1595 C1596 1.516 . S
C1596 C1595 1.516 . S
C1596 C1597 1.502 . S
C1596 C1598 1.561 . S
C1596 C1599 1.526 . S
C1597 H1581 0.959 1_556 S
C1597 H1582 0.959 . S
C1597 H1583 0.978 . S
C1597 C1596 1.502 . S
C1598 H1584 0.960 . S
C1598 H1585 0.961 . S
C1598 H1586 0.959 . S
C1598 C1596 1.561 . S
C1599 C1596 1.526 . S
C1599 C1600 1.396 . S
C1599 C1604 1.390 . S
C1600 C1594 1.465 . S
C1600 C1599 1.396 . S
C1600 C1601 1.399 . S
C1601 H1587 0.929 . S
C1601 C1600 1.399 . S
C1601 C1602 1.385 . S
C1602 H1588 0.931 . S
C1602 C1601 1.385 . S
C1602 C1603 1.389 . S
C1603 C1602 1.389 . S
C1603 C1604 1.387 . S
C1604 H1589 0.930 . S
C1604 C1599 1.390 . S
C1604 C1603 1.387 . S
H1605 C1617 0.930 . S
H1606 C1619 0.930 . S
H1607 C1620 0.930 . S
H1608 C1624 0.959 . S
H1609 C1624 0.959 . S
H1610 C1624 0.961 . S
H1611 C1625 0.960 . S
H1612 C1625 0.961 . S
H1613 C1625 0.959 . S
H1614 C1628 0.929 . S
H1615 C1629 0.931 . S
H1616 C1631 0.930 . S
C1617 H1605 0.930 . S
C1617 C1618 1.399 . S
C1617 C1622 1.399 . S
C1618 C1617 1.399 . S
C1618 C1619 1.376 . S
C1619 H1606 0.930 . S
C1619 C1618 1.376 . S
C1619 C1620 1.388 . S
C1620 H1607 0.930 . S
C1620 C1619 1.388 . S
C1620 C1621 1.390 . S
C1621 C1620 1.390 . S
C1621 C1622 1.394 . S
C1621 C1627 1.465 . S
C1622 C1617 1.399 . S
C1622 C1621 1.394 . S
C1622 C1623 1.516 . S
C1623 C1622 1.516 . S
C1623 C1624 1.502 . S
C1623 C1625 1.561 . S
C1623 C1626 1.526 . S
C1624 H1608 0.959 . S
C1624 H1609 0.959 . S
C1624 H1610 0.961 . S
C1624 C1623 1.502 . S
C1625 H1611 0.960 . S
C1625 H1612 0.961 . S
C1625 H1613 0.959 . S
C1625 C1623 1.561 . S
C1626 C1623 1.526 . S
C1626 C1627 1.396 . S
C1626 C1631 1.390 1_655 S
C1627 C1621 1.465 . S
C1627 C1626 1.396 . S
C1627 C1628 1.399 . S
C1628 H1614 0.929 . S
C1628 C1627 1.399 . S
C1628 C1629 1.385 1_655 S
C1629 H1615 0.931 . S
C1629 C1628 1.385 1_455 S
C1629 C1630 1.389 . S
C1630 C1629 1.389 . S
C1630 C1631 1.387 . S
C1631 H1616 0.930 . S
C1631 C1626 1.390 1_455 S
C1631 C1630 1.387 . S
C349 C132 1.251 . S
C361 C6 1.248 . S
C376 C20 1.273 1_455 S
C388 C146 1.266 . S
C403 C34 1.258 . S
C415 C160 1.247 1_556 S
C430 C48 1.273 . S
C442 C118 1.264 . S
C457 C62 1.254 . S
C469 C216 1.269 . S
C484 C174 1.272 . S
C496 C76 1.261 1_655 S
C511 C90 1.265 . S
C523 C188 1.273 1_554 S
C538 C202 1.246 . S
C550 C104 1.256 . S
C565 C230 1.269 . S
C577 C258 1.254 . S
C592 C314 1.247 1_545 S
C604 C244 1.250 . S
C619 C272 1.273 . S
C631 C328 1.262 1_565 S
C646 C300 1.271 . S
C658 C286 1.258 . S
C673 C287 1.885 . S
C685 C7 1.860 . S
C700 C21 1.798 . S
C712 C245 1.841 . S
C727 C35 1.856 . S
C739 C259 1.885 . S
C754 C49 1.800 . S
C766 C273 1.846 . S
C781 C63 1.883 . S
C793 C329 1.870 . S
C808 C301 1.807 . S
C820 C77 1.857 . S
C835 C315 1.844 . S
C847 C91 1.883 . S
C862 C231 1.820 . S
C874 C105 1.796 . S
C889 C217 1.846 . S
C901 C119 1.801 . S
C916 C133 1.829 . S
C928 C175 1.796 . S
C943 C189 1.870 . S
C955 C147 1.820 . S
C970 C203 1.854 . S
C982 C161 1.806 . S
C997 C9 1.096 . S
C1009 C232 1.206 . S
C1024 C330 1.203 1_565 S
C1036 C23 1.204 . S
C1051 C302 1.208 . S
C1063 C37 1.100 . S
C1078 C51 1.138 . S
C1090 C316 1.182 . S
C1105 C65 1.177 . S
C1117 C246 1.189 . S
C1132 C260 1.204 . S
C1144 C79 1.094 . S
C1159 C274 1.181 . S
C1171 C93 1.137 . S
C1186 C288 1.202 . S
C1198 C107 1.093 . S
C1213 C8 1.182 . S
C1225 C121 1.115 . S
C1240 C22 1.230 . S
C1252 C135 1.153 . S
C1267 C36 1.214 . S
C1279 C149 1.111 . S
C1294 C50 1.192 . S
C1306 C163 1.186 . S
C1321 C64 1.191 . S
C1333 C177 1.093 . S
C1348 C78 1.220 1_655 S
C1360 C191 1.170 . S
C1375 C205 1.206 . S
C1387 C92 1.216 . S
C1402 C106 1.182 . S
C1414 C219 1.143 . S
C1429 C120 1.212 . S
C1441 C233 1.207 . S
C1456 C247 1.122 . S
C1468 C176 1.182 . S
C1483 C190 1.213 . S
C1495 C261 1.109 . S
C1510 C275 1.203 . S
C1522 C204 1.203 . S
C1537 C289 1.093 . S
C1549 C218 1.204 . S
C1564 C303 1.203 . S
C1576 C148 1.219 . S
C1591 C162 1.234 . S
C1603 C317 1.149 . S
C1618 C331 1.095 . S
C1630 C134 1.206 . S
