# Generated by pormake.
# Topology sxg, (6)-cn, num edge types: 1
# Building blocks:
#     Node 0, Type 0, BuildingBlock: MIFKUJ_clean_sbu_0, # of connection points: 6
#     Node 1, Type 0, BuildingBlock: MIFKUJ_clean_sbu_0, # of connection points: 6
#     Node 2, Type 0, BuildingBlock: MIFKUJ_clean_sbu_0, # of connection points: 6
#     Node 3, Type 0, BuildingBlock: MIFKUJ_clean_sbu_0, # of connection points: 6
#     Node 4, Type 0, BuildingBlock: MIFKUJ_clean_sbu_0, # of connection points: 6
#     Node 5, Type 0, BuildingBlock: MIFKUJ_clean_sbu_0, # of connection points: 6
#     Node 6, Type 0, BuildingBlock: MIFKUJ_clean_sbu_0, # of connection points: 6
#     Node 7, Type 0, BuildingBlock: MIFKUJ_clean_sbu_0, # of connection points: 6
#     Node 8, Type 0, BuildingBlock: MIFKUJ_clean_sbu_0, # of connection points: 6
#     Node 9, Type 0, BuildingBlock: MIFKUJ_clean_sbu_0, # of connection points: 6
#     Node 10, Type 0, BuildingBlock: MIFKUJ_clean_sbu_0, # of connection points: 6
#     Node 11, Type 0, BuildingBlock: MIFKUJ_clean_sbu_0, # of connection points: 6
#     Node 12, Type 0, BuildingBlock: MIFKUJ_clean_sbu_0, # of connection points: 6
#     Node 13, Type 0, BuildingBlock: MIFKUJ_clean_sbu_0, # of connection points: 6
#     Node 14, Type 0, BuildingBlock: MIFKUJ_clean_sbu_0, # of connection points: 6
#     Node 15, Type 0, BuildingBlock: MIFKUJ_clean_sbu_0, # of connection points: 6
#     Node 16, Type 0, BuildingBlock: MIFKUJ_clean_sbu_0, # of connection points: 6
#     Node 17, Type 0, BuildingBlock: MIFKUJ_clean_sbu_0, # of connection points: 6
#     Node 18, Type 0, BuildingBlock: MIFKUJ_clean_sbu_0, # of connection points: 6
#     Node 19, Type 0, BuildingBlock: MIFKUJ_clean_sbu_0, # of connection points: 6
#     Node 20, Type 0, BuildingBlock: MIFKUJ_clean_sbu_0, # of connection points: 6
#     Node 21, Type 0, BuildingBlock: MIFKUJ_clean_sbu_0, # of connection points: 6
#     Node 22, Type 0, BuildingBlock: MIFKUJ_clean_sbu_0, # of connection points: 6
#     Node 23, Type 0, BuildingBlock: MIFKUJ_clean_sbu_0, # of connection points: 6
#     Edge 24, Type (0, 0), BuildingBlock: KIFKEQ_clean_linker_1, # of connection points: 2
#     Edge 25, Type (0, 0), BuildingBlock: KIFKEQ_clean_linker_1, # of connection points: 2
#     Edge 26, Type (0, 0), BuildingBlock: KIFKEQ_clean_linker_1, # of connection points: 2
#     Edge 27, Type (0, 0), BuildingBlock: KIFKEQ_clean_linker_1, # of connection points: 2
#     Edge 28, Type (0, 0), BuildingBlock: KIFKEQ_clean_linker_1, # of connection points: 2
#     Edge 29, Type (0, 0), BuildingBlock: KIFKEQ_clean_linker_1, # of connection points: 2
#     Edge 30, Type (0, 0), BuildingBlock: KIFKEQ_clean_linker_1, # of connection points: 2
#     Edge 31, Type (0, 0), BuildingBlock: KIFKEQ_clean_linker_1, # of connection points: 2
#     Edge 32, Type (0, 0), BuildingBlock: KIFKEQ_clean_linker_1, # of connection points: 2
#     Edge 33, Type (0, 0), BuildingBlock: KIFKEQ_clean_linker_1, # of connection points: 2
#     Edge 34, Type (0, 0), BuildingBlock: KIFKEQ_clean_linker_1, # of connection points: 2
#     Edge 35, Type (0, 0), BuildingBlock: KIFKEQ_clean_linker_1, # of connection points: 2
#     Edge 36, Type (0, 0), BuildingBlock: KIFKEQ_clean_linker_1, # of connection points: 2
#     Edge 37, Type (0, 0), BuildingBlock: KIFKEQ_clean_linker_1, # of connection points: 2
#     Edge 38, Type (0, 0), BuildingBlock: KIFKEQ_clean_linker_1, # of connection points: 2
#     Edge 39, Type (0, 0), BuildingBlock: KIFKEQ_clean_linker_1, # of connection points: 2
#     Edge 40, Type (0, 0), BuildingBlock: KIFKEQ_clean_linker_1, # of connection points: 2
#     Edge 41, Type (0, 0), BuildingBlock: KIFKEQ_clean_linker_1, # of connection points: 2
#     Edge 42, Type (0, 0), BuildingBlock: KIFKEQ_clean_linker_1, # of connection points: 2
#     Edge 43, Type (0, 0), BuildingBlock: KIFKEQ_clean_linker_1, # of connection points: 2
#     Edge 44, Type (0, 0), BuildingBlock: KIFKEQ_clean_linker_1, # of connection points: 2
#     Edge 45, Type (0, 0), BuildingBlock: KIFKEQ_clean_linker_1, # of connection points: 2
#     Edge 46, Type (0, 0), BuildingBlock: KIFKEQ_clean_linker_1, # of connection points: 2
#     Edge 47, Type (0, 0), BuildingBlock: KIFKEQ_clean_linker_1, # of connection points: 2
#     Edge 48, Type (0, 0), BuildingBlock: KIFKEQ_clean_linker_1, # of connection points: 2
#     Edge 49, Type (0, 0), BuildingBlock: KIFKEQ_clean_linker_1, # of connection points: 2
#     Edge 50, Type (0, 0), BuildingBlock: KIFKEQ_clean_linker_1, # of connection points: 2
#     Edge 51, Type (0, 0), BuildingBlock: KIFKEQ_clean_linker_1, # of connection points: 2
#     Edge 52, Type (0, 0), BuildingBlock: KIFKEQ_clean_linker_1, # of connection points: 2
#     Edge 53, Type (0, 0), BuildingBlock: KIFKEQ_clean_linker_1, # of connection points: 2
#     Edge 54, Type (0, 0), BuildingBlock: KIFKEQ_clean_linker_1, # of connection points: 2
#     Edge 55, Type (0, 0), BuildingBlock: KIFKEQ_clean_linker_1, # of connection points: 2
#     Edge 56, Type (0, 0), BuildingBlock: KIFKEQ_clean_linker_1, # of connection points: 2
#     Edge 57, Type (0, 0), BuildingBlock: KIFKEQ_clean_linker_1, # of connection points: 2
#     Edge 58, Type (0, 0), BuildingBlock: KIFKEQ_clean_linker_1, # of connection points: 2
#     Edge 59, Type (0, 0), BuildingBlock: KIFKEQ_clean_linker_1, # of connection points: 2
#     Edge 60, Type (0, 0), BuildingBlock: KIFKEQ_clean_linker_1, # of connection points: 2
#     Edge 61, Type (0, 0), BuildingBlock: KIFKEQ_clean_linker_1, # of connection points: 2
#     Edge 62, Type (0, 0), BuildingBlock: KIFKEQ_clean_linker_1, # of connection points: 2
#     Edge 63, Type (0, 0), BuildingBlock: KIFKEQ_clean_linker_1, # of connection points: 2
#     Edge 64, Type (0, 0), BuildingBlock: KIFKEQ_clean_linker_1, # of connection points: 2
#     Edge 65, Type (0, 0), BuildingBlock: KIFKEQ_clean_linker_1, # of connection points: 2
#     Edge 66, Type (0, 0), BuildingBlock: KIFKEQ_clean_linker_1, # of connection points: 2
#     Edge 67, Type (0, 0), BuildingBlock: KIFKEQ_clean_linker_1, # of connection points: 2
#     Edge 68, Type (0, 0), BuildingBlock: KIFKEQ_clean_linker_1, # of connection points: 2
#     Edge 69, Type (0, 0), BuildingBlock: KIFKEQ_clean_linker_1, # of connection points: 2
#     Edge 70, Type (0, 0), BuildingBlock: KIFKEQ_clean_linker_1, # of connection points: 2
#     Edge 71, Type (0, 0), BuildingBlock: KIFKEQ_clean_linker_1, # of connection points: 2
#     Edge 72, Type (0, 0), BuildingBlock: KIFKEQ_clean_linker_1, # of connection points: 2
#     Edge 73, Type (0, 0), BuildingBlock: KIFKEQ_clean_linker_1, # of connection points: 2
#     Edge 74, Type (0, 0), BuildingBlock: KIFKEQ_clean_linker_1, # of connection points: 2
#     Edge 75, Type (0, 0), BuildingBlock: KIFKEQ_clean_linker_1, # of connection points: 2
#     Edge 76, Type (0, 0), BuildingBlock: KIFKEQ_clean_linker_1, # of connection points: 2
#     Edge 77, Type (0, 0), BuildingBlock: KIFKEQ_clean_linker_1, # of connection points: 2
#     Edge 78, Type (0, 0), BuildingBlock: KIFKEQ_clean_linker_1, # of connection points: 2
#     Edge 79, Type (0, 0), BuildingBlock: KIFKEQ_clean_linker_1, # of connection points: 2
#     Edge 80, Type (0, 0), BuildingBlock: KIFKEQ_clean_linker_1, # of connection points: 2
#     Edge 81, Type (0, 0), BuildingBlock: KIFKEQ_clean_linker_1, # of connection points: 2
#     Edge 82, Type (0, 0), BuildingBlock: KIFKEQ_clean_linker_1, # of connection points: 2
#     Edge 83, Type (0, 0), BuildingBlock: KIFKEQ_clean_linker_1, # of connection points: 2
#     Edge 84, Type (0, 0), BuildingBlock: KIFKEQ_clean_linker_1, # of connection points: 2
#     Edge 85, Type (0, 0), BuildingBlock: KIFKEQ_clean_linker_1, # of connection points: 2
#     Edge 86, Type (0, 0), BuildingBlock: KIFKEQ_clean_linker_1, # of connection points: 2
#     Edge 87, Type (0, 0), BuildingBlock: KIFKEQ_clean_linker_1, # of connection points: 2
#     Edge 88, Type (0, 0), BuildingBlock: KIFKEQ_clean_linker_1, # of connection points: 2
#     Edge 89, Type (0, 0), BuildingBlock: KIFKEQ_clean_linker_1, # of connection points: 2
#     Edge 90, Type (0, 0), BuildingBlock: KIFKEQ_clean_linker_1, # of connection points: 2
#     Edge 91, Type (0, 0), BuildingBlock: KIFKEQ_clean_linker_1, # of connection points: 2
#     Edge 92, Type (0, 0), BuildingBlock: KIFKEQ_clean_linker_1, # of connection points: 2
#     Edge 93, Type (0, 0), BuildingBlock: KIFKEQ_clean_linker_1, # of connection points: 2
#     Edge 94, Type (0, 0), BuildingBlock: KIFKEQ_clean_linker_1, # of connection points: 2
#     Edge 95, Type (0, 0), BuildingBlock: KIFKEQ_clean_linker_1, # of connection points: 2
# Relax obj value: 0.175
# Max RMSD: 0.248
# Mean RMSD: 0.248
data_MOF--net-sxg--node1-MIFKUJ_clean_sbu_0--edge1-KIFKEQ_clean_linker_1
_symmetry_space_group_name_H-M    P1
_symmetry_Int_Tables_number       1
_symmetry_cell_setting            triclinic
loop_
_symmetry_equiv_pos_as_xyz
'x, y, z'
_cell_length_a     47.819918
_cell_length_b     47.826371
_cell_length_c     47.868226
_cell_angle_alpha  89.816087
_cell_angle_beta   89.855067
_cell_angle_gamma 90.02797
loop_
_atom_site_label
_atom_site_type_symbol
_atom_site_fract_x
_atom_site_fract_y
_atom_site_fract_z
_atom_type_partial_charge
Zn0 Zn 0.04677 0.27335 0.23659 0.0
Zn1 Zn 0.97869 0.32168 0.25647 0.0
C2 C 0.07726 0.28722 0.18673 0.0
O3 O 0.05522 0.27582 0.17508 0.0
C4 C 0.94913 0.30741 0.30252 0.0
O5 O 0.95532 0.33404 0.30532 0.0
O6 O 0.06069 0.23755 0.25435 0.0
O7 O 0.03008 0.30177 0.26206 0.0
O8 O 0.01077 0.33923 0.27779 0.0
C9 C 0.07815 0.23505 0.2742 0.0
O10 O 0.08717 0.25755 0.28701 0.0
O11 O 0.07801 0.28957 0.21317 0.0
C12 C 0.92465 0.34631 0.24593 0.0
O13 O 0.91639 0.32025 0.24876 0.0
O14 O 0.95066 0.3519 0.24694 0.0
O15 O 0.99621 0.30491 0.22126 0.0
O16 O 0.01333 0.26357 0.21201 0.0
O17 O 0.95896 0.29429 0.28164 0.0
C18 C 0.03296 0.32528 0.27382 0.0
C19 C 0.99302 0.28082 0.21059 0.0
Zn20 Zn 0.45679 0.70612 0.74648 0.0
Zn21 Zn 0.49738 0.65638 0.74263 0.0
C22 C 0.42802 0.71543 0.69427 0.0
O23 O 0.44417 0.73766 0.69373 0.0
C24 C 0.51675 0.66558 0.79695 0.0
O25 O 0.5089 0.63927 0.79825 0.0
O26 O 0.44103 0.74084 0.76419 0.0
O27 O 0.44938 0.67495 0.7753 0.0
O28 O 0.46026 0.63966 0.74814 0.0
C29 C 0.41476 0.74037 0.76832 0.0
O30 O 0.40064 0.7178 0.76165 0.0
O31 O 0.4305 0.6981 0.71433 0.0
C32 C 0.55139 0.63507 0.74136 0.0
O33 O 0.55607 0.66192 0.73771 0.0
O34 O 0.52631 0.62625 0.74204 0.0
O35 O 0.49976 0.6765 0.70693 0.0
O36 O 0.49462 0.71663 0.72848 0.0
O37 O 0.51073 0.67969 0.77519 0.0
C38 C 0.44498 0.65012 0.76696 0.0
C39 C 0.50343 0.70266 0.70764 0.0
Zn40 Zn 0.54692 0.21586 0.7534 0.0
Zn41 Zn 0.50839 0.1611 0.75223 0.0
C42 C 0.57053 0.22223 0.80787 0.0
O43 O 0.55493 0.24484 0.80768 0.0
C44 C 0.49014 0.1759 0.69786 0.0
O45 O 0.50617 0.15458 0.69141 0.0
O46 O 0.56099 0.25468 0.74429 0.0
O47 O 0.56126 0.18839 0.72376 0.0
O48 O 0.54472 0.14758 0.73875 0.0
C49 C 0.57062 0.26386 0.72124 0.0
O50 O 0.57066 0.24755 0.69921 0.0
O51 O 0.56959 0.20576 0.78713 0.0
C52 C 0.45649 0.13708 0.7613 0.0
O53 O 0.45137 0.16399 0.76329 0.0
O54 O 0.48153 0.12909 0.75714 0.0
O55 O 0.51017 0.17995 0.78888 0.0
O56 O 0.50661 0.22009 0.76732 0.0
O57 O 0.48949 0.18452 0.72292 0.0
C58 C 0.56205 0.16174 0.72448 0.0
C59 C 0.5006 0.20457 0.78809 0.0
Zn60 Zn 0.95384 0.77483 0.24998 0.0
Zn61 Zn 0.0062 0.82721 0.2362 0.0
C62 C 0.93323 0.77094 0.30898 0.0
O63 O 0.95641 0.75787 0.31575 0.0
C64 C 0.0315 0.8155 0.18708 0.0
O65 O 0.02213 0.84122 0.18467 0.0
O66 O 0.93976 0.73931 0.23196 0.0
O67 O 0.9411 0.80919 0.2281 0.0
O68 O 0.97156 0.84343 0.22092 0.0
C69 C 0.91402 0.73864 0.22537 0.0
O70 O 0.89908 0.76152 0.22817 0.0
O71 O 0.9294 0.77882 0.28392 0.0
C72 C 0.05949 0.85183 0.24231 0.0
O73 O 0.06593 0.82531 0.24548 0.0
O74 O 0.03399 0.85861 0.23906 0.0
O75 O 0.003 0.81243 0.27513 0.0
O76 O 0.99364 0.76878 0.26422 0.0
O77 O 0.02446 0.80128 0.20847 0.0
C78 C 0.94723 0.83329 0.21853 0.0
C79 C 0.00517 0.78654 0.28017 0.0
Zn80 Zn 0.24953 0.0342 0.27669 0.0
Zn81 Zn 0.24345 0.99156 0.32776 0.0
C82 C 0.19448 0.06107 0.27608 0.0
O83 O 0.18877 0.04298 0.25632 0.0
C84 C 0.29624 0.96699 0.32314 0.0
O85 O 0.29398 0.97122 0.35014 0.0
O86 O 0.26426 0.05144 0.24085 0.0
O87 O 0.27883 0.03952 0.30746 0.0
O88 O 0.2514 0.0288 0.34314 0.0
C89 C 0.27154 0.07702 0.24089 0.0
O90 O 0.27131 0.09071 0.26465 0.0
O91 O 0.21826 0.06037 0.28787 0.0
C92 C 0.23732 0.93798 0.35093 0.0
O93 O 0.23978 0.93248 0.32416 0.0
O94 O 0.23685 0.9634 0.35877 0.0
O95 O 0.20906 0.9915 0.30523 0.0
O96 O 0.23238 0.99627 0.26591 0.0
O97 O 0.2772 0.97619 0.30702 0.0
C98 C 0.27066 0.04359 0.33249 0.0
C99 C 0.21104 0.98753 0.27922 0.0
Zn100 Zn 0.26705 0.94761 0.77087 0.0
Zn101 Zn 0.24104 0.01815 0.81617 0.0
C102 C 0.30911 0.91647 0.80043 0.0
O103 O 0.32127 0.94104 0.80184 0.0
C104 C 0.19378 0.04996 0.81055 0.0
O105 O 0.19493 0.04554 0.83762 0.0
O106 O 0.25261 0.93521 0.73337 0.0
O107 O 0.23888 0.96592 0.79482 0.0
O108 O 0.22619 0.98329 0.83442 0.0
C109 C 0.22854 0.92543 0.72784 0.0
O110 O 0.20956 0.92403 0.74769 0.0
O111 O 0.28499 0.91454 0.78953 0.0
C112 C 0.25409 0.07081 0.84216 0.0
O113 O 0.25196 0.07998 0.81635 0.0
O114 O 0.25236 0.04467 0.84689 0.0
O115 O 0.27439 0.00815 0.79145 0.0
O116 O 0.29624 0.97776 0.76452 0.0
O117 O 0.21119 0.03783 0.79465 0.0
C118 C 0.23167 0.96186 0.81998 0.0
C119 C 0.29514 0.00179 0.77599 0.0
Zn120 Zn 0.74747 0.46159 0.7252 0.0
Zn121 Zn 0.73259 0.49825 0.67637 0.0
C122 C 0.6945 0.43293 0.73301 0.0
O123 O 0.69376 0.44756 0.75619 0.0
C124 C 0.78386 0.52615 0.67302 0.0
O125 O 0.779 0.51998 0.64675 0.0
O126 O 0.76416 0.44467 0.76002 0.0
O127 O 0.77501 0.45585 0.6926 0.0
O128 O 0.74222 0.46191 0.66102 0.0
C129 C 0.77097 0.41898 0.75998 0.0
O130 O 0.76903 0.40485 0.73657 0.0
O131 O 0.71502 0.43601 0.71634 0.0
C132 C 0.71723 0.54872 0.65099 0.0
O133 O 0.71518 0.55561 0.67747 0.0
O134 O 0.72207 0.52342 0.64464 0.0
O135 O 0.70097 0.49707 0.70269 0.0
O136 O 0.73097 0.49953 0.73708 0.0
O137 O 0.76712 0.51725 0.69178 0.0
C138 C 0.76527 0.45116 0.66827 0.0
C139 C 0.70679 0.50453 0.72728 0.0
Zn140 Zn 0.74289 0.5394 0.20873 0.0
Zn141 Zn 0.74539 0.50208 0.15879 0.0
C142 C 0.79659 0.56583 0.21748 0.0
O143 O 0.7966 0.55008 0.24003 0.0
C144 C 0.69042 0.48345 0.16883 0.0
O145 O 0.68908 0.49077 0.14239 0.0
O146 O 0.72743 0.55474 0.24469 0.0
O147 O 0.71443 0.55086 0.17813 0.0
O148 O 0.74156 0.53938 0.14298 0.0
C149 C 0.724 0.58109 0.24531 0.0
O150 O 0.72941 0.59577 0.22267 0.0
O151 O 0.77627 0.56396 0.20052 0.0
C152 C 0.74361 0.44918 0.13525 0.0
O153 O 0.7437 0.4431 0.16204 0.0
O154 O 0.74557 0.47459 0.12766 0.0
O155 O 0.78139 0.49799 0.17763 0.0
O156 O 0.75938 0.5002 0.21768 0.0
O157 O 0.71244 0.48938 0.18247 0.0
C158 C 0.72335 0.55532 0.15342 0.0
C159 C 0.78014 0.4918 0.20324 0.0
Zn160 Zn 0.28927 0.24857 0.03835 0.0
Zn161 Zn 0.33653 0.24161 0.99352 0.0
C162 C 0.27727 0.19715 0.06826 0.0
O163 O 0.25416 0.19823 0.0535 0.0
C164 C 0.32757 0.2978 0.97674 0.0
O165 O 0.35291 0.29985 0.98707 0.0
O166 O 0.25552 0.26784 0.05475 0.0
O167 O 0.32285 0.2749 0.04563 0.0
O168 O 0.35667 0.24927 0.0279 0.0
C169 C 0.25609 0.27297 0.0808 0.0
O170 O 0.27881 0.26692 0.09495 0.0
O171 O 0.29582 0.21587 0.06451 0.0
C172 C 0.35858 0.23928 0.9383 0.0
O173 O 0.33228 0.24391 0.9319 0.0
O174 O 0.36541 0.23636 0.96379 0.0
O175 O 0.31501 0.20666 0.99616 0.0
O176 O 0.27681 0.23146 0.00054 0.0
O177 O 0.31438 0.27482 0.97947 0.0
C178 C 0.3485 0.26761 0.04499 0.0
C179 C 0.28905 0.20932 0.99231 0.0
Zn180 Zn 0.77836 0.25215 0.96573 0.0
Zn181 Zn 0.83081 0.26171 0.00173 0.0
C182 C 0.77189 0.30318 0.93454 0.0
O183 O 0.74897 0.30472 0.94966 0.0
C184 C 0.82767 0.20857 0.0248 0.0
O185 O 0.85351 0.20958 0.01545 0.0
O186 O 0.74215 0.23691 0.95097 0.0
O187 O 0.80821 0.22228 0.96055 0.0
O188 O 0.84351 0.25169 0.964 0.0
C189 C 0.74187 0.22798 0.92601 0.0
O190 O 0.76544 0.22735 0.91184 0.0
O191 O 0.78847 0.28279 0.93841 0.0
C192 C 0.8546 0.27228 0.05302 0.0
O193 O 0.8276 0.27388 0.05793 0.0
O194 O 0.86289 0.26847 0.02803 0.0
O195 O 0.80767 0.29576 0.00159 0.0
O196 O 0.76924 0.27072 0.00289 0.0
O197 O 0.81143 0.22901 0.01975 0.0
C198 C 0.83217 0.23071 0.95255 0.0
C199 C 0.78209 0.29339 0.00794 0.0
Zn200 Zn 0.72034 0.73628 0.4567 0.0
Zn201 Zn 0.66666 0.74448 0.50623 0.0
C202 C 0.71082 0.68413 0.42635 0.0
O203 O 0.71866 0.67192 0.44963 0.0
C204 C 0.67093 0.80185 0.51859 0.0
O205 O 0.64547 0.80198 0.50834 0.0
O206 O 0.75837 0.7509 0.44551 0.0
O207 O 0.69086 0.7672 0.45433 0.0
O208 O 0.65444 0.74205 0.46675 0.0
C209 C 0.76261 0.77211 0.42999 0.0
O210 O 0.74121 0.78737 0.42203 0.0
O211 O 0.70982 0.71064 0.42512 0.0
C212 C 0.63858 0.74845 0.55703 0.0
O213 O 0.6648 0.75123 0.56469 0.0
O214 O 0.6331 0.74443 0.53136 0.0
O215 O 0.68974 0.7135 0.51964 0.0
O216 O 0.7264 0.71156 0.4912 0.0
O217 O 0.68593 0.78015 0.51563 0.0
C218 C 0.66625 0.75838 0.44955 0.0
C219 C 0.71335 0.70366 0.51302 0.0
Zn220 Zn 0.21612 0.74698 0.53686 0.0
Zn221 Zn 0.16439 0.74529 0.48956 0.0
C222 C 0.22269 0.80166 0.5609 0.0
O223 O 0.24518 0.80213 0.5451 0.0
C224 C 0.17286 0.69211 0.46866 0.0
O225 O 0.14642 0.69187 0.47623 0.0
O226 O 0.25247 0.7327 0.55336 0.0
O227 O 0.18502 0.71942 0.54762 0.0
O228 O 0.14726 0.73501 0.52562 0.0
C229 C 0.253 0.72665 0.57926 0.0
O230 O 0.22967 0.72832 0.59373 0.0
O231 O 0.20676 0.78044 0.56024 0.0
C232 C 0.13962 0.74811 0.43577 0.0
O233 O 0.16587 0.74421 0.42866 0.0
O234 O 0.1333 0.74992 0.46154 0.0
O235 O 0.18455 0.7815 0.4893 0.0
O236 O 0.22531 0.76188 0.49756 0.0
O237 O 0.18759 0.71342 0.47455 0.0
C238 C 0.15853 0.72132 0.54529 0.0
C239 C 0.21084 0.7813 0.48659 0.0
Zn240 Zn 0.99553 0.66081 0.74539 0.0
Zn241 Zn 0.95209 0.71281 0.74296 0.0
C242 C 0.01145 0.67367 0.68873 0.0
O243 O 0.99622 0.6515 0.68328 0.0
C244 C 0.92601 0.71694 0.7982 0.0
O245 O 0.9449 0.73645 0.80228 0.0
O246 O 0.02304 0.62913 0.74896 0.0
O247 O 0.99702 0.6818 0.78083 0.0
O248 O 0.99091 0.72177 0.75886 0.0
C249 C 0.04856 0.63663 0.75001 0.0
O250 O 0.05448 0.66346 0.75039 0.0
O251 O 0.01185 0.68329 0.71345 0.0
C252 C 0.91156 0.75018 0.7204 0.0
O253 O 0.89682 0.72699 0.72063 0.0
O254 O 0.93697 0.74927 0.72809 0.0
O255 O 0.94426 0.68264 0.71365 0.0
O256 O 0.95773 0.64589 0.73814 0.0
O257 O 0.92598 0.70366 0.77521 0.0
C258 C 0.00071 0.70795 0.77937 0.0
C259 C 0.9411 0.65723 0.72098 0.0
Zn260 Zn 0.49548 0.33358 0.24624 0.0
Zn261 Zn 0.54592 0.28129 0.25512 0.0
C262 C 0.48626 0.33486 0.18789 0.0
O263 O 0.49151 0.3615 0.19201 0.0
C264 C 0.57048 0.27905 0.30954 0.0
O265 O 0.55471 0.25664 0.31174 0.0
O266 O 0.46957 0.36664 0.24885 0.0
O267 O 0.48054 0.30724 0.2739 0.0
O268 O 0.50871 0.2705 0.27345 0.0
C269 C 0.44478 0.36314 0.23992 0.0
O270 O 0.43756 0.33867 0.22982 0.0
O271 O 0.48979 0.31774 0.20793 0.0
C272 C 0.57721 0.24017 0.21968 0.0
O273 O 0.5792 0.25989 0.20061 0.0
O274 O 0.56403 0.24509 0.24226 0.0
O275 O 0.55189 0.313 0.2266 0.0
O276 O 0.53439 0.34656 0.25262 0.0
O277 O 0.5698 0.2933 0.28714 0.0
C278 C 0.48625 0.28246 0.28123 0.0
C279 C 0.55342 0.3377 0.23646 0.0
Zn280 Zn 0.50901 0.83387 0.25502 0.0
Zn281 Zn 0.45429 0.78124 0.2444 0.0
C282 C 0.5254 0.82983 0.31089 0.0
O283 O 0.52032 0.85673 0.30851 0.0
C284 C 0.4204 0.77768 0.19598 0.0
O285 O 0.43814 0.75733 0.19097 0.0
O286 O 0.53649 0.86551 0.25275 0.0
O287 O 0.51713 0.81084 0.2218 0.0
O288 O 0.48796 0.77479 0.21843 0.0
C289 C 0.56208 0.85947 0.25665 0.0
O290 O 0.56912 0.83324 0.26087 0.0
O291 O 0.51881 0.81376 0.29084 0.0
C292 C 0.41958 0.74549 0.27672 0.0
O293 O 0.40823 0.76991 0.28216 0.0
O294 O 0.44141 0.74468 0.26149 0.0
O295 O 0.45468 0.81151 0.27426 0.0
O296 O 0.47069 0.84971 0.25447 0.0
O297 O 0.42308 0.79183 0.21825 0.0
C298 C 0.50929 0.78846 0.21004 0.0
C299 C 0.45083 0.83648 0.26596 0.0
Zn300 Zn 0.98826 0.16724 0.74976 0.0
Zn301 Zn 0.04377 0.22905 0.74544 0.0
C302 C 0.95325 0.16656 0.7954 0.0
O303 O 0.958 0.13983 0.79127 0.0
C304 C 0.07264 0.2153 0.69372 0.0
O305 O 0.04863 0.22213 0.68235 0.0
O306 O 0.96459 0.13765 0.73207 0.0
O307 O 0.00466 0.19525 0.72281 0.0
O308 O 0.00982 0.24032 0.72202 0.0
C309 C 0.9389 0.14382 0.72902 0.0
O310 O 0.93075 0.16962 0.73371 0.0
O311 O 0.96512 0.18452 0.77973 0.0
C312 C 0.08088 0.26082 0.7795 0.0
O313 O 0.09518 0.23737 0.77874 0.0
O314 O 0.05706 0.26174 0.76785 0.0
O315 O 0.02956 0.19698 0.76898 0.0
O316 O 0.02226 0.15206 0.76848 0.0
O317 O 0.07524 0.21639 0.72014 0.0
C318 C 0.99479 0.21904 0.71677 0.0
C319 C 0.039 0.17237 0.77211 0.0
Zn320 Zn 0.75538 0.99242 0.66161 0.0
Zn321 Zn 0.74834 0.95756 0.71483 0.0
C322 C 0.70207 0.01605 0.67146 0.0
O323 O 0.69656 0.00138 0.64899 0.0
C324 C 0.79944 0.9267 0.72092 0.0
O325 O 0.80128 0.942 0.7436 0.0
O326 O 0.76142 0.01713 0.6285 0.0
O327 O 0.79111 0.98938 0.68173 0.0
O328 O 0.76771 0.99556 0.72049 0.0
C329 C 0.77236 0.0406 0.63426 0.0
O330 O 0.78091 0.04535 0.65987 0.0
O331 O 0.72599 0.0139 0.68278 0.0
C332 C 0.72683 0.91919 0.75421 0.0
O333 O 0.72497 0.9045 0.73113 0.0
O334 O 0.73553 0.94426 0.75269 0.0
O335 O 0.71684 0.94891 0.68692 0.0
O336 O 0.74259 0.95596 0.6493 0.0
O337 O 0.7788 0.93032 0.70464 0.0
C338 C 0.78997 -0.00107 0.70626 0.0
C339 C 0.72317 0.943 0.66176 0.0
Zn340 Zn 0.74932 0.99501 0.15602 0.0
Zn341 Zn 0.75114 0.03936 0.20669 0.0
C342 C 0.80583 0.98125 0.16884 0.0
O343 O 0.81023 0.99397 0.14487 0.0
C344 C 0.69699 0.06672 0.21313 0.0
O345 O 0.69339 0.04795 0.23291 0.0
O346 O 0.74854 0.96689 0.12496 0.0
O347 O 0.71385 0.99193 0.17654 0.0
O348 O 0.73347 0.00145 0.21704 0.0
C349 C 0.75006 0.94133 0.13226 0.0
O350 O 0.75019 0.93506 0.159 0.0
O351 O 0.78154 0.98191 0.17963 0.0
C352 C 0.77365 0.08107 0.24098 0.0
O353 O 0.76798 0.09526 0.21813 0.0
O354 O 0.76888 0.05492 0.24146 0.0
O355 O 0.77957 0.04616 0.17538 0.0
O356 O 0.75401 0.03249 0.13987 0.0
O357 O 0.71932 0.06622 0.19864 0.0
C358 C 0.71376 0.99051 0.20295 0.0
C359 C 0.77106 0.04963 0.15046 0.0
Zn360 Zn 0.23714 0.48011 0.33063 0.0
Zn361 Zn 0.25087 0.54326 0.28187 0.0
C362 C 0.18261 0.45935 0.3268 0.0
O363 O 0.18505 0.46309 0.35388 0.0
C364 C 0.30084 0.57358 0.29966 0.0
O365 O 0.31154 0.54847 0.30263 0.0
O366 O 0.24278 0.45044 0.35968 0.0
O367 O 0.26989 0.47691 0.30524 0.0
O368 O 0.27717 0.51063 0.27382 0.0
C369 C 0.24508 0.42549 0.35095 0.0
O370 O 0.24461 0.42075 0.32393 0.0
O371 O 0.20183 0.46858 0.31086 0.0
C372 C 0.21917 0.57859 0.24672 0.0
O373 O 0.21733 0.59213 0.2705 0.0
O374 O 0.23192 0.55527 0.24626 0.0
O375 O 0.2217 0.5375 0.31188 0.0
O376 O 0.23589 0.51679 0.35002 0.0
O377 O 0.2754 0.5761 0.29234 0.0
C378 C 0.28353 0.48721 0.28488 0.0
C379 C 0.22878 0.53894 0.33739 0.0
Zn380 Zn 0.23828 0.499 0.83835 0.0
Zn381 Zn 0.24689 0.46293 0.78739 0.0
C382 C 0.29292 0.5197 0.83108 0.0
O383 O 0.2945 0.50949 0.85654 0.0
C384 C 0.19476 0.43368 0.78172 0.0
O385 O 0.19339 0.44813 0.75837 0.0
O386 O 0.2319 0.52699 0.86886 0.0
O387 O 0.2033 0.49801 0.81664 0.0
O388 O 0.22832 0.50092 0.77847 0.0
C389 C 0.22741 0.55137 0.85915 0.0
O390 O 0.22618 0.5548 0.83193 0.0
O391 O 0.27064 0.51592 0.81714 0.0
C392 C 0.26705 0.42196 0.74895 0.0
O393 O 0.26683 0.40689 0.77195 0.0
O394 O 0.26054 0.44769 0.75039 0.0
O395 O 0.27621 0.45409 0.81789 0.0
O396 O 0.24787 0.46204 0.85343 0.0
O397 O 0.21547 0.43723 0.79785 0.0
C398 C 0.20559 0.50573 0.79148 0.0
C399 C 0.2679 0.4485 0.84265 0.0
Zn400 Zn 0.66068 0.75493 0.99343 0.0
Zn401 Zn 0.71358 0.75003 0.95381 0.0
C402 C 0.66721 0.69925 0.01125 0.0
O403 O 0.64158 0.69835 0.00144 0.0
C404 C 0.72335 0.80334 0.92814 0.0
O405 O 0.74663 0.80179 0.9426 0.0
O406 O 0.6284 0.75868 0.02071 0.0
O407 O 0.68299 0.78932 0.99621 0.0
O408 O 0.72206 0.76541 0.99315 0.0
C409 C 0.63368 0.75323 0.04622 0.0
O410 O 0.65945 0.74721 0.0535 0.0
O411 O 0.68167 0.72122 0.00726 0.0
C412 C 0.75501 0.71605 0.92181 0.0
O413 O 0.73421 0.69904 0.9162 0.0
O414 O 0.75073 0.73697 0.93762 0.0
O415 O 0.68178 0.72279 0.94264 0.0
O416 O 0.6464 0.74952 0.95548 0.0
O417 O 0.70536 0.78392 0.93053 0.0
C418 C 0.70888 0.78715 0.00102 0.0
C419 C 0.65684 0.73166 0.939 0.0
Zn420 Zn 0.16642 0.76645 0.97657 0.0
Zn421 Zn 0.21379 0.74265 0.04128 0.0
C422 C 0.19293 0.81686 0.95857 0.0
O423 O 0.17361 0.82781 0.97474 0.0
C424 C 0.21418 0.69358 0.07323 0.0
O425 O 0.23594 0.69001 0.0568 0.0
O426 O 0.13645 0.76125 0.94791 0.0
O427 O 0.18146 0.72747 0.9876 0.0
O428 O 0.22334 0.72114 0.00633 0.0
C429 C 0.14253 0.76002 0.92208 0.0
O430 O 0.16889 0.76083 0.91435 0.0
O431 O 0.1956 0.79048 0.95785 0.0
C432 C 0.24639 0.77084 0.08202 0.0
O433 O 0.22305 0.7674 0.09615 0.0
O434 O 0.24734 0.7629 0.05671 0.0
O435 O 0.18474 0.7672 0.02687 0.0
O436 O 0.14741 0.7848 0.00986 0.0
O437 O 0.19958 0.7156 0.07038 0.0
C438 C 0.20619 0.71746 0.9862 0.0
C439 C 0.1613 0.77836 0.03133 0.0
Zn440 Zn 0.33789 0.23762 0.49472 0.0
Zn441 Zn 0.28518 0.25384 0.5482 0.0
C442 C 0.32858 0.18581 0.47449 0.0
O443 O 0.35463 0.18569 0.48318 0.0
C444 C 0.27059 0.30784 0.5737 0.0
O445 O 0.24782 0.30677 0.55843 0.0
O446 O 0.3681 0.24026 0.46525 0.0
O447 O 0.32089 0.27561 0.49489 0.0
O448 O 0.27779 0.26682 0.5085 0.0
C449 C 0.35896 0.24061 0.4403 0.0
O450 O 0.3318 0.24075 0.43619 0.0
O451 O 0.31329 0.20682 0.48014 0.0
C452 C 0.24802 0.21585 0.57999 0.0
O453 O 0.27096 0.20384 0.58911 0.0
O454 O 0.24982 0.23565 0.56232 0.0
O455 O 0.32002 0.23269 0.56048 0.0
O456 O 0.35471 0.22581 0.53034 0.0
O457 O 0.28866 0.2885 0.57156 0.0
C458 C 0.29481 0.27892 0.49205 0.0
C459 C 0.34439 0.22368 0.55467 0.0
Zn460 Zn 0.82917 0.24838 0.5177 0.0
Zn461 Zn 0.77821 0.23379 0.45049 0.0
C462 C 0.83396 0.30237 0.53897 0.0
O463 O 0.86044 0.29567 0.53594 0.0
C464 C 0.79821 0.18669 0.41886 0.0
O465 O 0.79786 0.17442 0.44344 0.0
O466 O 0.85295 0.23372 0.54847 0.0
O467 O 0.79734 0.22109 0.51027 0.0
O468 O 0.76557 0.20636 0.4802 0.0
C469 C 0.84453 0.23736 0.5734 0.0
O470 O 0.81983 0.24854 0.57779 0.0
O471 O 0.81532 0.2854 0.53065 0.0
C472 C 0.74426 0.2687 0.41572 0.0
O473 O 0.76511 0.26469 0.39829 0.0
O474 O 0.74571 0.25834 0.44014 0.0
O475 O 0.80925 0.25386 0.46858 0.0
O476 O 0.85204 0.25363 0.48287 0.0
O477 O 0.79141 0.2123 0.4169 0.0
C478 C 0.77723 0.20482 0.50409 0.0
C479 C 0.83506 0.2535 0.46266 0.0
H480 H 0.07719 0.31337 0.30741 0.0
H481 H 0.04806 0.37095 0.24443 0.0
H482 H 0.11644 0.3448 0.31767 0.0
H483 H 0.08713 0.40229 0.25442 0.0
H484 H 0.17201 0.44506 0.27226 0.0
H485 H 0.13983 0.40892 0.25558 0.0
H486 H 0.11377 0.39252 0.34047 0.0
H487 H 0.14554 0.42844 0.35714 0.0
C488 C 0.07982 0.33228 0.29515 0.0
C489 C 0.05987 0.33989 0.27517 0.0
C490 C 0.102 0.35037 0.30116 0.0
C491 C 0.10458 0.37615 0.28706 0.0
C492 C 0.08575 0.38257 0.26554 0.0
C493 C 0.06343 0.36469 0.25983 0.0
C494 C 0.15923 0.43389 0.28731 0.0
C495 C 0.16129 0.43972 0.31603 0.0
C496 C 0.14095 0.41313 0.27777 0.0
C497 C 0.12471 0.39759 0.29679 0.0
C498 C 0.12652 0.4037 0.32539 0.0
C499 C 0.14447 0.42459 0.33488 0.0
H500 H 0.28898 0.5586 0.78942 0.0
H501 H 0.34647 0.52415 0.84989 0.0
H502 H 0.32425 0.59275 0.77523 0.0
H503 H 0.38196 0.55793 0.83526 0.0
H504 H 0.42913 0.64029 0.82104 0.0
H505 H 0.39132 0.60917 0.83691 0.0
H506 H 0.3694 0.59277 0.75095 0.0
H507 H 0.40707 0.62349 0.7354 0.0
C508 C 0.3093 0.55804 0.79936 0.0
C509 C 0.31504 0.53862 0.82066 0.0
C510 C 0.32945 0.57766 0.79132 0.0
C511 C 0.35581 0.57813 0.80427 0.0
C512 C 0.36165 0.55844 0.8253 0.0
C513 C 0.34144 0.53893 0.83346 0.0
C514 C 0.41589 0.63023 0.80573 0.0
C515 C 0.42089 0.63399 0.7771 0.0
C516 C 0.39448 0.6123 0.81471 0.0
C517 C 0.3775 0.59841 0.79514 0.0
C518 C 0.38199 0.60323 0.76653 0.0
C519 C 0.40362 0.62065 0.75762 0.0
H520 H 0.61543 0.16001 0.74206 0.0
H521 H 0.55971 0.12789 0.67929 0.0
H522 H 0.65039 0.12531 0.72925 0.0
H523 H 0.59526 0.0944 0.66466 0.0
H524 H 0.64535 0.0148 0.66977 0.0
H525 H 0.61312 0.05272 0.6802 0.0
H526 H 0.68325 0.1064 0.69992 0.0
H527 H 0.71509 0.0676 0.69144 0.0
C528 C 0.61128 0.1462 0.72464 0.0
C529 C 0.5852 0.1466 0.71141 0.0
C530 C 0.63126 0.12621 0.71725 0.0
C531 C 0.62564 0.1065 0.69616 0.0
C532 C 0.60011 0.10851 0.6816 0.0
C533 C 0.5799 0.12803 0.68952 0.0
C534 C 0.65371 0.03464 0.67674 0.0
C535 C 0.68258 0.03823 0.68014 0.0
C536 C 0.63531 0.05661 0.6823 0.0
C537 C 0.64543 0.08301 0.69056 0.0
C538 C 0.67448 0.08641 0.69405 0.0
C539 C 0.69281 0.06416 0.68921 0.0
H540 H 0.94936 0.87057 0.17548 0.0
H541 H 0.89514 0.83859 0.24021 0.0
H542 H 0.91455 0.90569 0.16339 0.0
H543 H 0.86137 0.87506 0.23024 0.0
H544 H 0.79519 0.93163 0.19451 0.0
H545 H 0.8278 0.89406 0.20365 0.0
H546 H 0.89609 0.94722 0.17646 0.0
H547 H 0.86266 0.9838 0.16479 0.0
C548 C 0.92985 0.87109 0.18703 0.0
C549 C 0.92478 0.85184 0.20859 0.0
C550 C 0.91002 0.89154 0.18049 0.0
C551 C 0.88507 0.89387 0.1961 0.0
C552 C 0.8799 0.87395 0.21729 0.0
C553 C 0.89933 0.85294 0.22314 0.0
C554 C 0.81722 0.93533 0.19073 0.0
C555 C 0.82642 0.96064 0.17896 0.0
C556 C 0.8361 0.91373 0.19609 0.0
C557 C 0.86488 0.91718 0.19071 0.0
C558 C 0.87412 0.94317 0.18011 0.0
C559 C 0.85505 0.96444 0.17386 0.0
H560 H 0.27634 0.16474 0.46434 0.0
H561 H 0.36182 0.1626 0.43534 0.0
H562 H 0.26326 0.13155 0.4279 0.0
H563 H 0.34875 0.13112 0.39797 0.0
H564 H 0.32252 0.05014 0.35457 0.0
H565 H 0.3366 0.08528 0.3887 0.0
H566 H 0.25588 0.12541 0.38036 0.0
H567 H 0.24162 0.08915 0.34765 0.0
C568 C 0.29222 0.15724 0.45004 0.0
C569 C 0.3201 0.16571 0.45292 0.0
C570 C 0.28477 0.13848 0.42894 0.0
C571 C 0.30497 0.12848 0.40987 0.0
C572 C 0.33274 0.13766 0.41257 0.0
C573 C 0.34025 0.15579 0.43401 0.0
C574 C 0.30815 0.06684 0.35981 0.0
C575 C 0.28116 0.06725 0.34865 0.0
C576 C 0.3161 0.08702 0.37932 0.0
C577 C 0.29728 0.10817 0.38764 0.0
C578 C 0.27069 0.10913 0.37514 0.0
C579 C 0.26262 0.08865 0.35611 0.0
H580 H 0.26461 0.95403 0.86479 0.0
H581 H 0.20916 0.91059 0.80882 0.0
H582 H 0.2631 0.91459 0.89719 0.0
H583 H 0.20706 0.87104 0.84166 0.0
H584 H 0.21477 0.80146 0.90793 0.0
H585 H 0.23184 0.83261 0.87082 0.0
H586 H 0.2201 0.90345 0.92532 0.0
H587 H 0.20286 0.8726 0.96202 0.0
C588 C 0.25271 0.93561 0.85913 0.0
C589 C 0.23668 0.93532 0.83465 0.0
C590 C 0.25177 0.91312 0.87767 0.0
C591 C 0.23447 0.89007 0.87224 0.0
C592 C 0.2206 0.88856 0.84636 0.0
C593 C 0.22175 0.91112 0.82759 0.0
C594 C 0.21645 0.82364 0.91213 0.0
C595 C 0.2075 0.83467 0.93788 0.0
C596 C 0.22603 0.84142 0.89083 0.0
C597 C 0.22739 0.8704 0.89521 0.0
C598 C 0.21968 0.88115 0.92144 0.0
C599 C 0.20968 0.86352 0.94245 0.0
H600 H 0.78134 0.31982 0.5518 0.0
H601 H 0.86855 0.34009 0.56441 0.0
H602 H 0.76799 0.35775 0.58272 0.0
H603 H 0.85495 0.37843 0.59537 0.0
H604 H 0.81111 0.41719 0.67679 0.0
H605 H 0.83041 0.38302 0.64371 0.0
H606 H 0.77097 0.41006 0.58149 0.0
H607 H 0.75184 0.44371 0.61393 0.0
C608 C 0.79766 0.33259 0.56087 0.0
C609 C 0.82599 0.32702 0.55558 0.0
C610 C 0.79001 0.35432 0.57857 0.0
C611 C 0.81049 0.37098 0.59135 0.0
C612 C 0.83882 0.3657 0.58591 0.0
C613 C 0.84653 0.34394 0.56804 0.0
C614 C 0.8025 0.41602 0.65592 0.0
C615 C 0.77967 0.43277 0.64816 0.0
C616 C 0.81356 0.39659 0.63702 0.0
C617 C 0.8018 0.39371 0.61027 0.0
C618 C 0.78004 0.41151 0.60216 0.0
C619 C 0.76914 0.43081 0.62082 0.0
H620 H 0.67047 0.57731 0.14759 0.0
H621 H 0.7563 0.58755 0.1214 0.0
H622 H 0.65628 0.61375 0.11405 0.0
H623 H 0.74244 0.62334 0.08819 0.0
H624 H 0.71224 0.70209 0.0461 0.0
H625 H 0.7241 0.67025 0.08402 0.0
H626 H 0.65432 0.61738 0.06207 0.0
H627 H 0.64199 0.64962 0.02442 0.0
C628 C 0.68626 0.58772 0.13504 0.0
C629 C 0.71438 0.57963 0.13682 0.0
C630 C 0.67819 0.60829 0.11571 0.0
C631 C 0.69825 0.62127 0.09834 0.0
C632 C 0.72649 0.61396 0.10133 0.0
C633 C 0.73442 0.59333 0.12024 0.0
C634 C 0.69958 0.68353 0.04912 0.0
C635 C 0.67631 0.67826 0.03207 0.0
C636 C 0.7063 0.66535 0.07097 0.0
C637 C 0.69004 0.64138 0.07616 0.0
C638 C 0.66693 0.63595 0.05894 0.0
C639 C 0.66012 0.65421 0.03713 0.0
H640 H 0.34161 0.31009 0.08332 0.0
H641 H 0.40298 0.25262 0.05004 0.0
H642 H 0.37677 0.32782 0.11613 0.0
H643 H 0.43749 0.2702 0.08248 0.0
H644 H 0.47571 0.28172 0.17033 0.0
H645 H 0.44236 0.26718 0.13475 0.0
H646 H 0.4244 0.35363 0.11576 0.0
H647 H 0.45784 0.3683 0.15136 0.0
C648 C 0.36252 0.3014 0.08286 0.0
C649 C 0.3694 0.27987 0.06414 0.0
C650 C 0.38263 0.3116 0.10151 0.0
C651 C 0.40976 0.3002 0.10189 0.0
C652 C 0.41667 0.27911 0.08286 0.0
C653 C 0.39681 0.26915 0.06419 0.0
C654 C 0.46501 0.29763 0.15826 0.0
C655 C 0.46952 0.32613 0.16355 0.0
C656 C 0.44589 0.28931 0.13794 0.0
C657 C 0.4307 0.30932 0.12267 0.0
C658 C 0.43564 0.33782 0.12747 0.0
C659 C 0.45504 0.34616 0.14759 0.0
H660 H 0.84602 0.17662 0.94137 0.0
H661 H 0.84648 0.26006 0.907 0.0
H662 H 0.87358 0.16015 0.90147 0.0
H663 H 0.8722 0.24368 0.86634 0.0
H664 H 0.95087 0.21677 0.82157 0.0
H665 H 0.91854 0.23094 0.85809 0.0
H666 H 0.87713 0.15062 0.85313 0.0
H667 H 0.91062 0.13603 0.81755 0.0
C668 C 0.8515 0.19117 0.92485 0.0
C669 C 0.84477 0.21954 0.92715 0.0
C670 C 0.86712 0.18184 0.90197 0.0
C671 C 0.87562 0.20075 0.88095 0.0
C672 C 0.86689 0.22875 0.88257 0.0
C673 C 0.85198 0.23812 0.90566 0.0
C674 C 0.93482 0.20221 0.82831 0.0
C675 C 0.93328 0.17532 0.81696 0.0
C676 C 0.9161 0.21036 0.84906 0.0
C677 C 0.89503 0.19198 0.85843 0.0
C678 C 0.89331 0.16514 0.8467 0.0
C679 C 0.91242 0.15682 0.82629 0.0
H680 H 0.52736 0.77882 0.33677 0.0
H681 H 0.56914 0.85865 0.33193 0.0
H682 H 0.56253 0.7623 0.36976 0.0
H683 H 0.60547 0.84179 0.36293 0.0
H684 H 0.653 0.81279 0.44013 0.0
H685 H 0.6182 0.83052 0.4074 0.0
H686 H 0.60755 0.74695 0.37441 0.0
H687 H 0.64071 0.72936 0.40877 0.0
C688 C 0.54414 0.79277 0.34281 0.0
C689 C 0.54533 0.82008 0.33222 0.0
C690 C 0.5646 0.78325 0.3614 0.0
C691 C 0.58722 0.80057 0.36908 0.0
C692 C 0.58823 0.82793 0.35822 0.0
C693 C 0.56736 0.83765 0.34033 0.0
C694 C 0.64338 0.79846 0.42551 0.0
C695 C 0.64938 0.76985 0.42673 0.0
C696 C 0.62343 0.80852 0.40668 0.0
C697 C 0.60957 0.79019 0.38825 0.0
C698 C 0.61692 0.76167 0.38873 0.0
C699 C 0.63626 0.75157 0.40808 0.0
H700 H 0.15939 0.73557 0.59984 0.0
H701 H 0.11575 0.68448 0.54019 0.0
H702 H 0.12353 0.72587 0.63465 0.0
H703 H 0.08104 0.67226 0.57552 0.0
H704 H 0.00633 0.67709 0.63214 0.0
H705 H 0.04281 0.68791 0.59823 0.0
H706 H 0.10205 0.69794 0.66581 0.0
H707 H 0.06482 0.68975 0.69931 0.0
C708 C 0.14254 0.72136 0.59463 0.0
C709 C 0.14028 0.71056 0.56757 0.0
C710 C 0.12187 0.71569 0.61459 0.0
C711 C 0.09884 0.69841 0.60813 0.0
C712 C 0.09771 0.6864 0.58126 0.0
C713 C 0.11789 0.69289 0.56107 0.0
C714 C 0.02709 0.68219 0.63957 0.0
C715 C 0.03269 0.68292 0.66827 0.0
C716 C 0.04826 0.68794 0.62015 0.0
C717 C 0.07586 0.69351 0.62895 0.0
C718 C 0.0812 0.69436 0.65789 0.0
C719 C 0.05979 0.68957 0.67726 0.0
H720 H 0.90118 0.6375 0.75525 0.0
H721 H 0.92549 0.64134 0.66858 0.0
H722 H 0.86191 0.60741 0.74352 0.0
H723 H 0.88728 0.60953 0.65662 0.0
H724 H 0.80381 0.56797 0.64029 0.0
H725 H 0.83985 0.60199 0.65138 0.0
H726 H 0.85192 0.56194 0.73168 0.0
H727 H 0.8144 0.52915 0.72106 0.0
C728 C 0.89794 0.63178 0.7336 0.0
C729 C 0.91609 0.64158 0.71274 0.0
C730 C 0.87568 0.61424 0.72686 0.0
C731 C 0.87153 0.60545 0.69915 0.0
C732 C 0.88949 0.61599 0.67815 0.0
C733 C 0.91144 0.63415 0.68489 0.0
C734 C 0.81426 0.56648 0.66031 0.0
C735 C 0.80645 0.54592 0.67984 0.0
C736 C 0.83506 0.58593 0.66664 0.0
C737 C 0.84901 0.58491 0.69246 0.0
C738 C 0.8413 0.56396 0.71184 0.0
C739 C 0.81997 0.54493 0.70574 0.0
H740 H 0.58647 0.33592 0.18944 0.0
H741 H 0.57069 0.38407 0.26402 0.0
H742 H 0.62034 0.37128 0.17392 0.0
H743 H 0.60436 0.41911 0.24862 0.0
H744 H 0.68699 0.46237 0.22217 0.0
H745 H 0.65569 0.42552 0.23917 0.0
H746 H 0.61638 0.42173 0.15819 0.0
H747 H 0.64739 0.45845 0.1412 0.0
C748 C 0.59045 0.35384 0.20262 0.0
C749 C 0.57576 0.35734 0.2278 0.0
C750 C 0.60966 0.37415 0.19369 0.0
C751 C 0.61484 0.39805 0.21001 0.0
C752 C 0.60092 0.4009 0.23567 0.0
C753 C 0.58151 0.38088 0.24438 0.0
C754 C 0.67145 0.4539 0.2081 0.0
C755 C 0.66964 0.46347 0.18036 0.0
C756 C 0.65361 0.43275 0.21781 0.0
C757 C 0.63382 0.42053 0.19989 0.0
C758 C 0.63174 0.4304 0.17233 0.0
C759 C 0.64933 0.4517 0.16272 0.0
H760 H 0.42506 0.83975 0.31656 0.0
H761 H 0.41948 0.86813 0.23125 0.0
H762 H 0.38681 0.87069 0.32953 0.0
H763 H 0.37957 0.89738 0.24326 0.0
H764 H 0.33133 0.97157 0.27817 0.0
H765 H 0.36728 0.93833 0.26377 0.0
H766 H 0.34094 0.88194 0.32981 0.0
H767 H 0.30702 0.91636 0.3453 0.0
C768 C 0.41499 0.85211 0.30047 0.0
C769 C 0.42514 0.8518 0.27302 0.0
C770 C 0.39289 0.86982 0.30777 0.0
C771 C 0.37991 0.887 0.28754 0.0
C772 C 0.38938 0.88533 0.2597 0.0
C773 C 0.41204 0.86829 0.25265 0.0
C774 C 0.33349 0.95204 0.2895 0.0
C775 C 0.31687 0.94659 0.313 0.0
C776 C 0.35388 0.93275 0.28116 0.0
C777 C 0.35741 0.9072 0.29564 0.0
C778 C 0.33973 0.90156 0.31855 0.0
C779 C 0.32006 0.9212 0.32736 0.0
H780 H 0.15842 0.05018 0.76617 0.0
H781 H 0.19273 0.10223 0.831 0.0
H782 H 0.12711 0.08797 0.75235 0.0
H783 H 0.16325 0.14095 0.81602 0.0
H784 H 0.07261 0.17546 0.8167 0.0
H785 H 0.11664 0.15092 0.82209 0.0
H786 H 0.11666 0.13163 0.73371 0.0
H787 H 0.07133 0.15474 0.7292 0.0
C788 C 0.1596 0.07004 0.77695 0.0
C789 C 0.17717 0.07331 0.79999 0.0
C790 C 0.14201 0.09189 0.76886 0.0
C791 C 0.14236 0.11759 0.78328 0.0
C792 C 0.16177 0.1213 0.80496 0.0
C793 C 0.17866 0.09919 0.81354 0.0
C794 C 0.08264 0.16677 0.79836 0.0
C795 C 0.06887 0.16661 0.77268 0.0
C796 C 0.10798 0.15272 0.8013 0.0
C797 C 0.12 0.13859 0.77842 0.0
C798 C 0.10757 0.14145 0.75194 0.0
C799 C 0.08188 0.15497 0.74921 0.0
H800 H 0.7532 0.89984 0.64395 0.0
H801 H 0.66889 0.93158 0.64713 0.0
H802 H 0.73928 0.86475 0.61054 0.0
H803 H 0.65411 0.89523 0.61404 0.0
H804 H 0.65034 0.85467 0.52616 0.0
H805 H 0.65993 0.88616 0.56516 0.0
H806 H 0.7152 0.82417 0.60099 0.0
H807 H 0.70719 0.79397 0.56141 0.0
C808 C 0.73135 0.89853 0.63809 0.0
C809 C 0.71205 0.91815 0.64798 0.0
C810 C 0.72327 0.87835 0.61897 0.0
C811 C 0.69556 0.87719 0.60935 0.0
C812 C 0.67573 0.89585 0.62068 0.0
C813 C 0.68397 0.9163 0.63992 0.0
C814 C 0.66489 0.84812 0.54221 0.0
C815 C 0.67844 0.82215 0.54043 0.0
C816 C 0.67 0.86589 0.5648 0.0
C817 C 0.68834 0.85774 0.5863 0.0
C818 C 0.70144 0.83149 0.58459 0.0
C819 C 0.6969 0.81414 0.56177 0.0
H820 H 0.85766 0.1623 0.03919 0.0
H821 H 0.77821 0.20314 0.05311 0.0
H822 H 0.84436 0.12536 0.07185 0.0
H823 H 0.76505 0.16616 0.08592 0.0
H824 H 0.74091 0.07542 0.11039 0.0
H825 H 0.75457 0.11494 0.08131 0.0
H826 H 0.83399 0.11907 0.12391 0.0
H827 H 0.82009 0.07928 0.15345 0.0
C828 C 0.83735 0.16339 0.0492 0.0
C829 C 0.81889 0.18554 0.04344 0.0
C830 C 0.82989 0.14239 0.06809 0.0
C831 C 0.80378 0.14304 0.08149 0.0
C832 C 0.78527 0.16511 0.07571 0.0
C833 C 0.79276 0.1862 0.05689 0.0
C834 C 0.7613 0.08476 0.11359 0.0
C835 C 0.77961 0.07418 0.13393 0.0
C836 C 0.76899 0.10753 0.09711 0.0
C837 C 0.79531 0.11999 0.10035 0.0
C838 C 0.81361 0.10966 0.12092 0.0
C839 C 0.80567 0.08706 0.13784 0.0
H840 H 0.22713 0.68211 0.45247 0.0
H841 H 0.14223 0.65351 0.44062 0.0
H842 H 0.24339 0.64761 0.41818 0.0
H843 H 0.15841 0.61969 0.40639 0.0
H844 H 0.19273 0.58207 0.32644 0.0
H845 H 0.18136 0.62126 0.35728 0.0
H846 H 0.24362 0.593 0.41606 0.0
H847 H 0.25476 0.5537 0.38551 0.0
C848 C 0.212 0.66845 0.44266 0.0
C849 C 0.18344 0.67041 0.44939 0.0
C850 C 0.22128 0.64883 0.42303 0.0
C851 C 0.20207 0.63128 0.40944 0.0
C852 C 0.1736 0.63327 0.41622 0.0
C853 C 0.16441 0.65245 0.43609 0.0
C854 C 0.20428 0.58451 0.34572 0.0
C855 C 0.22437 0.56468 0.35377 0.0
C856 C 0.1977 0.60682 0.36339 0.0
C857 C 0.21149 0.60996 0.38911 0.0
C858 C 0.23275 0.5911 0.39633 0.0
C859 C 0.23897 0.56855 0.37893 0.0
H860 H 0.29027 0.29203 0.93409 0.0
H861 H 0.34257 0.35279 0.97529 0.0
H862 H 0.2781 0.32663 0.89869 0.0
H863 H 0.32954 0.38785 0.94047 0.0
H864 H 0.32154 0.43766 0.85966 0.0
H865 H 0.33629 0.40025 0.89174 0.0
H866 H 0.25167 0.3683 0.89312 0.0
H867 H 0.23743 0.40523 0.86115 0.0
C868 C 0.29868 0.31298 0.93592 0.0
C869 C 0.31725 0.31976 0.95756 0.0
C870 C 0.29179 0.33282 0.91556 0.0
C871 C 0.30299 0.36003 0.91657 0.0
C872 C 0.32104 0.36695 0.93865 0.0
C873 C 0.32822 0.34698 0.95882 0.0
C874 C 0.30644 0.42215 0.86642 0.0
C875 C 0.27846 0.42406 0.858 0.0
C876 C 0.31469 0.40099 0.88503 0.0
C877 C 0.2951 0.38134 0.89522 0.0
C878 C 0.26739 0.38281 0.88562 0.0
C879 C 0.25918 0.404 0.86736 0.0
H880 H 0.53539 0.63952 0.84415 0.0
H881 H 0.54482 0.71559 0.79604 0.0
H882 H 0.57194 0.65505 0.87592 0.0
H883 H 0.58161 0.73097 0.82778 0.0
H884 H 0.61744 0.76161 0.91211 0.0
H885 H 0.58476 0.74592 0.87673 0.0
H886 H 0.6236 0.66439 0.87706 0.0
H887 H 0.65668 0.68032 0.91294 0.0
C888 C 0.54514 0.65964 0.84041 0.0
C889 C 0.53699 0.67642 0.81766 0.0
C890 C 0.56636 0.66834 0.85844 0.0
C891 C 0.57985 0.6941 0.85423 0.0
C892 C 0.5715 0.71106 0.83166 0.0
C893 C 0.55032 0.70231 0.81355 0.0
C894 C 0.61918 0.74036 0.90452 0.0
C895 C 0.6394 0.72207 0.91547 0.0
C896 C 0.60056 0.73145 0.88407 0.0
C897 C 0.60147 0.70389 0.87419 0.0
C898 C 0.62224 0.6857 0.88452 0.0
C899 C 0.64127 0.69481 0.90485 0.0
H900 H 0.04647 0.76158 0.17379 0.0
H901 H 0.06737 0.84811 0.15804 0.0
H902 H 0.0829 0.74717 0.14035 0.0
H903 H 0.10364 0.83383 0.1255 0.0
H904 H 0.17843 0.80161 0.08027 0.0
H905 H 0.15052 0.80606 0.12324 0.0
H906 H 0.08493 0.75665 0.08601 0.0
H907 H 0.11255 0.7527 0.04319 0.0
C908 C 0.05897 0.77741 0.16341 0.0
C909 C 0.05377 0.80592 0.16804 0.0
C910 C 0.07981 0.76921 0.14448 0.0
C911 C 0.09617 0.78943 0.1306 0.0
C912 C 0.09163 0.81781 0.1362 0.0
C913 C 0.07055 0.82597 0.15452 0.0
C914 C 0.1584 0.79112 0.08172 0.0
C915 C 0.14739 0.77703 0.05862 0.0
C916 C 0.14246 0.79368 0.10615 0.0
C917 C 0.1156 0.7817 0.10783 0.0
C918 C 0.10564 0.76583 0.08536 0.0
C919 C 0.12129 0.76378 0.06084 0.0
H920 H 0.43692 0.19222 0.70914 0.0
H921 H 0.49531 0.17973 0.64148 0.0
H922 H 0.3997 0.20103 0.67575 0.0
H923 H 0.45876 0.19063 0.60786 0.0
H924 H 0.38533 0.18444 0.55148 0.0
H925 H 0.41952 0.1725 0.58712 0.0
H926 H 0.3802 0.23102 0.64377 0.0
H927 H 0.34496 0.24123 0.60866 0.0
C928 C 0.44192 0.19218 0.68705 0.0
C929 C 0.46895 0.18544 0.67779 0.0
C930 C 0.42057 0.19724 0.66783 0.0
C931 C 0.42597 0.19634 0.63892 0.0
C932 C 0.45345 0.19069 0.62985 0.0
C933 C 0.47458 0.18487 0.64907 0.0
C934 C 0.38382 0.19431 0.57178 0.0
C935 C 0.36264 0.21379 0.57735 0.0
C936 C 0.40362 0.1878 0.59213 0.0
C937 C 0.40319 0.20125 0.61827 0.0
C938 C 0.38123 0.21999 0.62409 0.0
C939 C 0.36098 0.22594 0.60394 0.0
H940 H 0.88088 0.22565 0.44362 0.0
H941 H 0.81307 0.27889 0.41739 0.0
H942 H 0.9041 0.23294 0.39863 0.0
H943 H 0.83585 0.28576 0.37214 0.0
H944 H 0.91342 0.33443 0.33689 0.0
H945 H 0.88028 0.31451 0.36966 0.0
H946 H 0.9044 0.23132 0.34435 0.0
H947 H 0.93794 0.25152 0.31083 0.0
C948 C 0.87049 0.23806 0.42777 0.0
C949 C 0.84526 0.25179 0.43377 0.0
C950 C 0.88363 0.24203 0.40198 0.0
C951 C 0.87189 0.26015 0.38209 0.0
C952 C 0.84536 0.27176 0.3872 0.0
C953 C 0.83217 0.26763 0.41291 0.0
C954 C 0.91164 0.31188 0.33807 0.0
C955 C 0.92855 0.29451 0.32156 0.0
C956 C 0.89231 0.30047 0.35659 0.0
C957 C 0.88957 0.27138 0.35931 0.0
C958 C 0.90608 0.25384 0.34249 0.0
C959 C 0.92526 0.26535 0.32347 0.0
H960 H 0.13838 0.06273 0.26601 0.0
H961 H 0.20628 0.11167 0.29949 0.0
H962 H 0.10704 0.10254 0.27113 0.0
H963 H 0.17557 0.15198 0.30313 0.0
H964 H 0.11301 0.22005 0.31727 0.0
H965 H 0.13808 0.17596 0.32309 0.0
H966 H 0.09894 0.14434 0.24819 0.0
H967 H 0.07307 0.18751 0.24335 0.0
C968 C 0.14657 0.08202 0.27453 0.0
C969 C 0.17482 0.08416 0.28208 0.0
C970 C 0.12867 0.10497 0.2773 0.0
C971 C 0.13874 0.13083 0.28709 0.0
C972 C 0.16681 0.13248 0.2958 0.0
C973 C 0.18456 0.10935 0.29354 0.0
C974 C 0.10946 0.20345 0.30236 0.0
C975 C 0.09114 0.20741 0.27977 0.0
C976 C 0.12401 0.1782 0.30554 0.0
C977 C 0.12085 0.15645 0.28599 0.0
C978 C 0.10171 0.16021 0.26401 0.0
C979 C 0.08693 0.18521 0.26107 0.0
H980 H 0.36556 0.91071 0.79751 0.0
H981 H 0.28961 0.86438 0.81323 0.0
H982 H 0.39163 0.86734 0.79448 0.0
H983 H 0.31594 0.82076 0.81201 0.0
H984 H 0.35957 0.75196 0.76271 0.0
H985 H 0.33491 0.79387 0.7766 0.0
H986 H 0.41108 0.82666 0.81253 0.0
H987 H 0.43615 0.78502 0.79698 0.0
C988 C 0.35461 0.89122 0.80128 0.0
C989 C 0.32551 0.89083 0.80516 0.0
C990 C 0.36961 0.86624 0.79965 0.0
C991 C 0.35589 0.84033 0.80242 0.0
C992 C 0.3271 0.84021 0.80881 0.0
C993 C 0.31201 0.86519 0.80982 0.0
C994 C 0.37102 0.76803 0.77377 0.0
C995 C 0.39981 0.76528 0.77865 0.0
C996 C 0.35679 0.79205 0.78204 0.0
C997 C 0.37085 0.81379 0.79592 0.0
C998 C 0.39959 0.81062 0.80153 0.0
C999 C 0.41398 0.78672 0.79274 0.0
H1000 H 0.69714 0.38958 0.69608 0.0
H1001 H 0.64332 0.42748 0.75784 0.0
H1002 H 0.66421 0.35113 0.69108 0.0
H1003 H 0.60971 0.38962 0.75204 0.0
H1004 H 0.57948 0.29943 0.76478 0.0
H1005 H 0.60661 0.34222 0.76496 0.0
H1006 H 0.61997 0.33472 0.67594 0.0
H1007 H 0.59351 0.29103 0.67599 0.0
C1008 C 0.67798 0.38997 0.70819 0.0
C1009 C 0.67299 0.41138 0.72761 0.0
C1010 C 0.65895 0.36797 0.7052 0.0
C1011 C 0.63432 0.36703 0.72134 0.0
C1012 C 0.62874 0.38926 0.73974 0.0
C1013 C 0.64794 0.41107 0.74298 0.0
C1014 C 0.58794 0.30698 0.74514 0.0
C1015 C 0.5845 0.29161 0.7204 0.0
C1016 C 0.60339 0.33175 0.7452 0.0
C1017 C 0.61565 0.34203 0.72048 0.0
C1018 C 0.61127 0.32722 0.69548 0.0
C1019 C 0.59593 0.30225 0.69545 0.0
H1020 H 0.84193 0.57672 0.25047 0.0
H1021 H 0.79937 0.60539 0.17618 0.0
H1022 H 0.87314 0.61697 0.24791 0.0
H1023 H 0.83086 0.64541 0.17343 0.0
H1024 H 0.86047 0.73129 0.20756 0.0
H1025 H 0.83529 0.68755 0.20179 0.0
H1026 H 0.91035 0.64142 0.22156 0.0
H1027 H 0.93565 0.68545 0.22772 0.0
C1028 C 0.83952 0.59134 0.23332 0.0
C1029 C 0.81792 0.58801 0.21374 0.0
C1030 C 0.85755 0.61434 0.23175 0.0
C1031 C 0.85433 0.63456 0.2106 0.0
C1032 C 0.83362 0.63044 0.19022 0.0
C1033 C 0.81565 0.60742 0.19174 0.0
C1034 C 0.87178 0.71186 0.21031 0.0
C1035 C 0.90004 0.71191 0.21827 0.0
C1036 C 0.85735 0.68673 0.20682 0.0
C1037 C 0.87078 0.66097 0.21129 0.0
C1038 C 0.89934 0.66094 0.21825 0.0
C1039 C 0.91387 0.68616 0.2216 0.0
H1040 H 0.2893 0.1309 0.23429 0.0
H1041 H 0.26606 0.05753 0.18729 0.0
H1042 H 0.2937 0.15743 0.19103 0.0
H1043 H 0.2708 0.08413 0.14384 0.0
H1044 H 0.2425 0.15341 0.0808 0.0
H1045 H 0.24463 0.12232 0.1212 0.0
H1046 H 0.3209 0.16248 0.14784 0.0
H1047 H 0.31863 0.19384 0.1076 0.0
C1048 C 0.2855 0.1203 0.2147 0.0
C1049 C 0.27716 0.09211 0.21431 0.0
C1050 C 0.28819 0.1355 0.18985 0.0
C1051 C 0.28251 0.12295 0.16395 0.0
C1052 C 0.27501 0.0945 0.16347 0.0
C1053 C 0.27247 0.07922 0.18836 0.0
C1054 C 0.2599 0.15543 0.09509 0.0
C1055 C 0.28027 0.17629 0.09106 0.0
C1056 C 0.26121 0.13747 0.11818 0.0
C1057 C 0.28285 0.14001 0.13787 0.0
C1058 C 0.30376 0.16022 0.13328 0.0
C1059 C 0.30253 0.17809 0.11011 0.0
H1060 H 0.26542 0.92047 0.68464 0.0
H1061 H 0.18028 0.90122 0.70828 0.0
H1062 H 0.25978 0.89419 0.64196 0.0
H1063 H 0.17414 0.87568 0.66463 0.0
H1064 H 0.19099 0.79865 0.60824 0.0
H1065 H 0.18865 0.83254 0.64588 0.0
H1066 H 0.24011 0.88942 0.59764 0.0
H1067 H 0.24356 0.85474 0.56058 0.0
C1068 C 0.24525 0.91108 0.68047 0.0
C1069 C 0.22343 0.91265 0.70012 0.0
C1070 C 0.2419 0.89615 0.65573 0.0
C1071 C 0.21652 0.88257 0.64974 0.0
C1072 C 0.19416 0.88539 0.66874 0.0
C1073 C 0.19761 0.9002 0.69371 0.0
C1074 C 0.20149 0.81856 0.60553 0.0
C1075 C 0.21786 0.82389 0.58169 0.0
C1076 C 0.2 0.83815 0.62708 0.0
C1077 C 0.21451 0.86369 0.62509 0.0
C1078 C 0.2293 0.8697 0.60029 0.0
C1079 C 0.23118 0.8499 0.57896 0.0
H1080 H 0.78523 0.36414 0.7671 0.0
H1081 H 0.77067 0.44042 0.81304 0.0
H1082 H 0.78958 0.33848 0.81086 0.0
H1083 H 0.77546 0.41472 0.85691 0.0
H1084 H 0.74194 0.35019 0.92222 0.0
H1085 H 0.74638 0.38009 0.88118 0.0
H1086 H 0.81726 0.33156 0.85329 0.0
H1087 H 0.81258 0.30133 0.89422 0.0
C1088 C 0.78342 0.37554 0.78653 0.0
C1089 C 0.77733 0.40429 0.78653 0.0
C1090 C 0.78609 0.36083 0.81165 0.0
C1091 C 0.78268 0.37451 0.8374 0.0
C1092 C 0.77781 0.4035 0.83742 0.0
C1093 C 0.77522 0.41825 0.81227 0.0
C1094 C 0.75868 0.34607 0.90752 0.0
C1095 C 0.77673 0.32321 0.91137 0.0
C1096 C 0.76135 0.36335 0.88407 0.0
C1097 C 0.78209 0.35813 0.86387 0.0
C1098 C 0.80085 0.33592 0.86829 0.0
C1099 C 0.79825 0.31869 0.89183 0.0
H1100 H 0.70468 0.5579 0.29416 0.0
H1101 H 0.72692 0.63681 0.25593 0.0
H1102 H 0.69555 0.58182 0.33827 0.0
H1103 H 0.71899 0.66044 0.29995 0.0
H1104 H 0.68838 0.70157 0.37687 0.0
H1105 H 0.68595 0.6756 0.33327 0.0
H1106 H 0.72163 0.60337 0.37442 0.0
H1107 H 0.72298 0.629 0.41818 0.0
C1108 C 0.70754 0.58034 0.29516 0.0
C1109 C 0.71659 0.59545 0.2716 0.0
C1110 C 0.70245 0.59404 0.32046 0.0
C1111 C 0.70658 0.62309 0.32276 0.0
C1112 C 0.71503 0.63818 0.29892 0.0
C1113 C 0.7198 0.62456 0.27364 0.0
C1114 C 0.69535 0.68002 0.37666 0.0
C1115 C 0.70626 0.66745 0.40085 0.0
C1116 C 0.6941 0.66516 0.35163 0.0
C1117 C 0.70402 0.6375 0.35015 0.0
C1118 C 0.71359 0.62453 0.37475 0.0
C1119 C 0.71455 0.6393 0.39986 0.0
H1120 H 0.20734 0.29288 0.05823 0.0
H1121 H 0.2472 0.27428 0.137 0.0
H1122 H 0.16398 0.30385 0.08285 0.0
H1123 H 0.20381 0.28397 0.16144 0.0
H1124 H 0.12607 0.31235 0.20315 0.0
H1125 H 0.16947 0.31601 0.17647 0.0
H1126 H 0.12878 0.2779 0.10556 0.0
H1127 H 0.08541 0.27539 0.13171 0.0
C1128 C 0.20689 0.29129 0.0808 0.0
C1129 C 0.23063 0.28247 0.09563 0.0
C1130 C 0.182 0.29744 0.09493 0.0
C1131 C 0.18021 0.29456 0.12417 0.0
C1132 C 0.20438 0.28686 0.139 0.0
C1133 C 0.2293 0.28105 0.12492 0.0
C1134 C 0.12633 0.30524 0.18169 0.0
C1135 C 0.10241 0.29323 0.16967 0.0
C1136 C 0.15125 0.30717 0.16643 0.0
C1137 C 0.15284 0.29688 0.13894 0.0
C1138 C 0.12841 0.28633 0.12652 0.0
C1139 C 0.10348 0.28467 0.14165 0.0
H1140 H 0.73437 0.2084 0.87313 0.0
H1141 H 0.68877 0.2335 0.94698 0.0
H1142 H 0.69058 0.20309 0.84803 0.0
H1143 H 0.64476 0.22772 0.92185 0.0
H1144 H 0.60786 0.17925 0.81277 0.0
H1145 H 0.64739 0.17612 0.84466 0.0
H1146 H 0.6217 0.25326 0.88377 0.0
H1147 H 0.58189 0.25617 0.85226 0.0
C1148 C 0.71498 0.21234 0.88417 0.0
C1149 C 0.71509 0.22156 0.91199 0.0
C1150 C 0.68982 0.20911 0.86981 0.0
C1151 C 0.66418 0.21504 0.88293 0.0
C1152 C 0.66421 0.22328 0.91109 0.0
C1153 C 0.68941 0.22644 0.92551 0.0
C1154 C 0.61036 0.1953 0.82848 0.0
C1155 C 0.59193 0.21815 0.82976 0.0
C1156 C 0.6331 0.19357 0.84665 0.0
C1157 C 0.63788 0.21461 0.86651 0.0
C1158 C 0.61851 0.2366 0.86884 0.0
C1159 C 0.59576 0.23834 0.85066 0.0
H1160 H 0.80873 0.73866 0.43438 0.0
H1161 H 0.77999 0.81592 0.39727 0.0
H1162 H 0.85204 0.74211 0.40802 0.0
H1163 H 0.82393 0.81997 0.37163 0.0
H1164 H 0.88142 0.79257 0.29973 0.0
H1165 H 0.84298 0.79671 0.33243 0.0
H1166 H 0.8955 0.76452 0.39851 0.0
H1167 H 0.93401 0.75945 0.36524 0.0
C1168 C 0.8119 0.75675 0.42106 0.0
C1169 C 0.79067 0.77679 0.41759 0.0
C1170 C 0.83691 0.75883 0.40604 0.0
C1171 C 0.84142 0.78113 0.38735 0.0
C1172 C 0.82091 0.80215 0.38532 0.0
C1173 C 0.79577 0.79994 0.40017 0.0
C1174 C 0.88493 0.78654 0.32127 0.0
C1175 C 0.91074 0.77538 0.3298 0.0
C1176 C 0.86287 0.78919 0.34017 0.0
C1177 C 0.86603 0.78096 0.3682 0.0
C1178 C 0.89219 0.77069 0.37699 0.0
C1179 C 0.9143 0.76786 0.35796 0.0
H1180 H 0.41738 0.74819 0.64859 0.0
H1181 H 0.38615 0.67633 0.69387 0.0
H1182 H 0.37627 0.7472 0.61862 0.0
H1183 H 0.3452 0.67513 0.66359 0.0
H1184 H 0.26034 0.71119 0.63364 0.0
H1185 H 0.30408 0.70499 0.65868 0.0
H1186 H 0.35025 0.72143 0.58271 0.0
H1187 H 0.30626 0.72804 0.55757 0.0
C1188 C 0.40196 0.73191 0.65189 0.0
C1189 C 0.40493 0.71253 0.67384 0.0
C1190 C 0.37845 0.73124 0.63457 0.0
C1191 C 0.35729 0.71123 0.63885 0.0
C1192 C 0.36089 0.69108 0.66001 0.0
C1193 C 0.38446 0.69168 0.67726 0.0
C1194 C 0.27977 0.71322 0.62214 0.0
C1195 C 0.27974 0.72027 0.59361 0.0
C1196 C 0.30491 0.70946 0.6365 0.0
C1197 C 0.33072 0.71273 0.62273 0.0
C1198 C 0.33073 0.71904 0.59399 0.0
C1199 C 0.30552 0.72268 0.57956 0.0
H1200 H 0.84523 0.91284 0.752 0.0
H1201 H 0.79862 0.888 0.67892 0.0
H1202 H 0.87462 0.87156 0.74737 0.0
H1203 H 0.82841 0.8469 0.67402 0.0
H1204 H 0.85758 0.75909 0.70431 0.0
H1205 H 0.8332 0.80354 0.70044 0.0
H1206 H 0.90982 0.8474 0.71931 0.0
H1207 H 0.93423 0.80276 0.72368 0.0
C1208 C 0.84153 0.89881 0.73468 0.0
C1209 C 0.81938 0.90356 0.71603 0.0
C1210 C 0.85853 0.87522 0.73191 0.0
C1211 C 0.85375 0.85582 0.71043 0.0
C1212 C 0.83237 0.86124 0.69103 0.0
C1213 C 0.81539 0.88487 0.69377 0.0
C1214 C 0.86936 0.77819 0.70729 0.0
C1215 C 0.8978 0.77733 0.71458 0.0
C1216 C 0.8554 0.80373 0.70488 0.0
C1217 C 0.86953 0.82904 0.70971 0.0
C1218 C 0.89826 0.82825 0.71584 0.0
C1219 C 0.91227 0.80267 0.71819 0.0
H1220 H 0.64409 0.07044 0.23453 0.0
H1221 H 0.70447 0.11602 0.18495 0.0
H1222 H 0.61271 0.11055 0.23318 0.0
H1223 H 0.67367 0.15653 0.1845 0.0
H1224 H 0.60539 0.22098 0.17348 0.0
H1225 H 0.63164 0.17748 0.16881 0.0
H1226 H 0.60956 0.15515 0.25362 0.0
H1227 H 0.58264 0.19793 0.25786 0.0
C1228 C 0.65063 0.08902 0.22326 0.0
C1229 C 0.67685 0.09008 0.21 0.0
C1230 C 0.63271 0.11213 0.22264 0.0
C1231 C 0.64069 0.13705 0.20902 0.0
C1232 C 0.66657 0.1377 0.19494 0.0
C1233 C 0.68436 0.11446 0.1953 0.0
C1234 C 0.60593 0.20663 0.19102 0.0
C1235 C 0.59193 0.21304 0.21606 0.0
C1236 C 0.62116 0.18173 0.18842 0.0
C1237 C 0.6229 0.16268 0.21086 0.0
C1238 C 0.6084 0.16894 0.23569 0.0
C1239 C 0.59306 0.19369 0.23821 0.0
H1240 H 0.43182 0.69152 0.26174 0.0
H1241 H 0.37404 0.74056 0.31086 0.0
H1242 H 0.40401 0.64972 0.27111 0.0
H1243 H 0.34661 0.69873 0.32064 0.0
H1244 H 0.28545 0.62846 0.29525 0.0
H1245 H 0.31583 0.66926 0.29339 0.0
H1246 H 0.38788 0.61637 0.30642 0.0
H1247 H 0.35747 0.57539 0.30783 0.0
C1248 C 0.41348 0.69331 0.27495 0.0
C1249 C 0.40501 0.71945 0.28531 0.0
C1250 C 0.39758 0.66931 0.28041 0.0
C1251 C 0.37289 0.67092 0.29641 0.0
C1252 C 0.36519 0.69685 0.30781 0.0
C1253 C 0.38104 0.72081 0.30231 0.0
C1254 C 0.30773 0.62552 0.29802 0.0
C1255 C 0.31901 0.59862 0.30155 0.0
C1256 C 0.32517 0.64896 0.2971 0.0
C1257 C 0.35434 0.6461 0.29967 0.0
C1258 C 0.36555 0.61927 0.30403 0.0
C1259 C 0.34808 0.5958 0.30503 0.0
H1260 H 0.05795 0.31315 0.78164 0.0
H1261 H 0.13445 0.2679 0.79798 0.0
H1262 H 0.08262 0.35724 0.7883 0.0
H1263 H 0.15912 0.31196 0.80417 0.0
H1264 H 0.1956 0.39574 0.82456 0.0
H1265 H 0.16501 0.35538 0.83096 0.0
H1266 H 0.11751 0.38036 0.75839 0.0
H1267 H 0.14777 0.42083 0.75219 0.0
C1268 C 0.07991 0.31257 0.78712 0.0
C1269 C 0.09436 0.28702 0.78881 0.0
C1270 C 0.09404 0.33784 0.7908 0.0
C1271 C 0.12288 0.33808 0.79632 0.0
C1272 C 0.13686 0.31249 0.80007 0.0
C1273 C 0.12273 0.28721 0.79638 0.0
C1274 C 0.17834 0.39287 0.81024 0.0
C1275 C 0.17427 0.41131 0.78767 0.0
C1276 C 0.16091 0.36969 0.81387 0.0
C1277 C 0.13895 0.3646 0.79511 0.0
C1278 C 0.13405 0.38385 0.7734 0.0
C1279 C 0.15153 0.40695 0.7697 0.0
H1280 H 0.67923 0.81034 0.89269 0.0
H1281 H 0.7597 0.84533 0.91416 0.0
H1282 H 0.67641 0.84178 0.85267 0.0
H1283 H 0.75701 0.87649 0.87383 0.0
H1284 H 0.70589 0.8671 0.76387 0.0
H1285 H 0.70196 0.84269 0.8083 0.0
H1286 H 0.73233 0.91596 0.8512 0.0
H1287 H 0.73666 0.94045 0.80646 0.0
C1288 C 0.69617 0.82498 0.88909 0.0
C1289 C 0.71986 0.82509 0.90641 0.0
C1290 C 0.69459 0.8429 0.86608 0.0
C1291 C 0.71664 0.86137 0.85989 0.0
C1292 C 0.7396 0.86262 0.87813 0.0
C1293 C 0.74121 0.84464 0.90116 0.0
C1294 C 0.71143 0.87818 0.78277 0.0
C1295 C 0.7217 0.90568 0.78159 0.0
C1296 C 0.70899 0.86423 0.80829 0.0
C1297 C 0.71682 0.8774 0.83329 0.0
C1298 C 0.72636 0.9052 0.83225 0.0
C1299 C 0.72868 0.91925 0.80666 0.0
H1300 H 0.77041 0.13679 0.25111 0.0
H1301 H 0.79755 0.05899 0.28817 0.0
H1302 H 0.78151 0.16126 0.29385 0.0
H1303 H 0.81024 0.08379 0.33083 0.0
H1304 H 0.79008 0.13077 0.41265 0.0
H1305 H 0.78874 0.10466 0.36924 0.0
H1306 H 0.81518 0.17861 0.32401 0.0
H1307 H 0.81486 0.20505 0.36746 0.0
C1308 C 0.77934 0.12499 0.26826 0.0
C1309 C 0.78294 0.09594 0.26634 0.0
C1310 C 0.78598 0.1391 0.29281 0.0
C1311 C 0.79688 0.12462 0.31597 0.0
C1312 C 0.80144 0.09562 0.31365 0.0
C1313 C 0.79432 0.08139 0.28916 0.0
C1314 C 0.796 0.14131 0.39346 0.0
C1315 C 0.80215 0.17001 0.39331 0.0
C1316 C 0.79539 0.12629 0.3685 0.0
C1317 C 0.80144 0.13954 0.34289 0.0
C1318 C 0.80957 0.16786 0.34315 0.0
C1319 C 0.80961 0.18301 0.36806 0.0
H1320 H 0.17339 0.69604 0.11364 0.0
H1321 H 0.24273 0.64577 0.08489 0.0
H1322 H 0.16791 0.66519 0.15408 0.0
H1323 H 0.23786 0.61566 0.12542 0.0
H1324 H 0.21874 0.55654 0.19394 0.0
H1325 H 0.21111 0.58155 0.15012 0.0
H1326 H 0.19355 0.65712 0.19624 0.0
H1327 H 0.20018 0.63195 0.23986 0.0
C1328 C 0.18729 0.67829 0.11581 0.0
C1329 C 0.20868 0.67352 0.0962 0.0
C1330 C 0.18424 0.66068 0.13905 0.0
C1331 C 0.20254 0.63799 0.14316 0.0
C1332 C 0.22311 0.63263 0.12283 0.0
C1333 C 0.22609 0.65012 0.09964 0.0
C1334 C 0.21274 0.57836 0.1947 0.0
C1335 C 0.21047 0.59235 0.22038 0.0
C1336 C 0.20851 0.59275 0.16958 0.0
C1337 C 0.20214 0.62149 0.16959 0.0
C1338 C 0.1982 0.63498 0.19535 0.0
C1339 C 0.20221 0.62055 0.22044 0.0
H1340 H 0.25939 0.4441 0.69648 0.0
H1341 H 0.28501 0.36877 0.73942 0.0
H1342 H 0.26319 0.41977 0.6517 0.0
H1343 H 0.28857 0.3446 0.69494 0.0
H1344 H 0.31349 0.31312 0.61082 0.0
H1345 H 0.31589 0.34372 0.65124 0.0
H1346 H 0.2371 0.3811 0.62797 0.0
H1347 H 0.23472 0.35055 0.5872 0.0
C1348 C 0.26613 0.42248 0.69637 0.0
C1349 C 0.27184 0.40835 0.72155 0.0
C1350 C 0.26813 0.40853 0.67074 0.0
C1351 C 0.27617 0.38027 0.66978 0.0
C1352 C 0.28268 0.36647 0.6949 0.0
C1353 C 0.28048 0.38031 0.72046 0.0
C1354 C 0.29681 0.3281 0.61404 0.0
C1355 C 0.2737 0.3291 0.59595 0.0
C1356 C 0.29817 0.34556 0.63731 0.0
C1357 C 0.27652 0.36456 0.64302 0.0
C1358 C 0.25417 0.36674 0.62408 0.0
C1359 C 0.25274 0.34913 0.60079 0.0
H1360 H 0.924 0.73454 0.85247 0.0
H1361 H 0.87626 0.68988 0.7905 0.0
H1362 H 0.88493 0.73098 0.88508 0.0
H1363 H 0.83675 0.68741 0.82249 0.0
H1364 H 0.77347 0.67195 0.89025 0.0
H1365 H 0.81664 0.6688 0.86321 0.0
H1366 H 0.84083 0.75078 0.89234 0.0
H1367 H 0.7984 0.75331 0.92016 0.0
C1368 C 0.90516 0.72391 0.84583 0.0
C1369 C 0.90321 0.71262 0.81884 0.0
C1370 C 0.88262 0.72203 0.86447 0.0
C1371 C 0.85738 0.70915 0.85648 0.0
C1372 C 0.85584 0.69714 0.82969 0.0
C1373 C 0.87851 0.69869 0.8112 0.0
C1374 C 0.7882 0.68913 0.89114 0.0
C1375 C 0.78236 0.71292 0.9073 0.0
C1376 C 0.81291 0.68744 0.87544 0.0
C1377 C 0.8323 0.70963 0.87525 0.0
C1378 C 0.82675 0.73305 0.89214 0.0
C1379 C 0.80222 0.7346 0.90804 0.0
H1380 H 0.299 0.77741 0.06008 0.0
H1381 H 0.25222 0.78414 0.13713 0.0
H1382 H 0.34237 0.78511 0.08568 0.0
H1383 H 0.29551 0.79113 0.16271 0.0
H1384 H 0.37737 0.81512 0.2019 0.0
H1385 H 0.33618 0.81999 0.17216 0.0
H1386 H 0.36845 0.75579 0.11757 0.0
H1387 H 0.40963 0.75133 0.1468 0.0
C1388 C 0.29791 0.78088 0.0824 0.0
C1389 C 0.27218 0.77975 0.09661 0.0
C1390 C 0.32279 0.78515 0.09709 0.0
C1391 C 0.32246 0.78834 0.1263 0.0
C1392 C 0.29655 0.78894 0.14022 0.0
C1393 C 0.27169 0.78473 0.12554 0.0
C1394 C 0.37579 0.80231 0.18335 0.0
C1395 C 0.39663 0.78262 0.17687 0.0
C1396 C 0.35216 0.80503 0.16637 0.0
C1397 C 0.34894 0.7882 0.14253 0.0
C1398 C 0.37037 0.76935 0.13553 0.0
C1399 C 0.39391 0.76661 0.15248 0.0
H1400 H 0.23594 0.1763 0.61991 0.0
H1401 H 0.19804 0.24152 0.57009 0.0
H1402 H 0.19212 0.17058 0.64569 0.0
H1403 H 0.15481 0.23637 0.5962 0.0
H1404 H 0.07433 0.21328 0.63677 0.0
H1405 H 0.11524 0.20757 0.60699 0.0
H1406 H 0.16714 0.19783 0.68016 0.0
H1407 H 0.12606 0.20278 0.70996 0.0
C1408 C 0.21822 0.1892 0.61425 0.0
C1409 C 0.22061 0.20955 0.59312 0.0
C1410 C 0.19317 0.18605 0.62914 0.0
C1411 C 0.17001 0.20318 0.62322 0.0
C1412 C 0.17206 0.22257 0.60116 0.0
C1413 C 0.197 0.22565 0.58625 0.0
C1414 C 0.09441 0.20955 0.64652 0.0
C1415 C 0.09701 0.20889 0.67576 0.0
C1416 C 0.1179 0.20641 0.62943 0.0
C1417 C 0.14455 0.20258 0.64115 0.0
C1418 C 0.14692 0.20053 0.67039 0.0
C1419 C 0.12339 0.2036 0.68751 0.0
H1420 H 0.58249 0.24889 0.35652 0.0
H1421 H 0.60633 0.32353 0.31118 0.0
H1422 H 0.62264 0.2546 0.387 0.0
H1423 H 0.64627 0.32956 0.34214 0.0
H1424 H 0.73439 0.29261 0.36498 0.0
H1425 H 0.6892 0.3024 0.34418 0.0
H1426 H 0.64836 0.28127 0.42207 0.0
H1427 H 0.69378 0.27094 0.44287 0.0
C1428 C 0.59591 0.2669 0.35348 0.0
C1429 C 0.5916 0.2854 0.33107 0.0
C1430 C 0.61883 0.27033 0.37113 0.0
C1431 C 0.63784 0.29237 0.36677 0.0
C1432 C 0.63225 0.31211 0.34571 0.0
C1433 C 0.60935 0.30865 0.32801 0.0
C1434 C 0.71586 0.29061 0.3779 0.0
C1435 C 0.71762 0.28041 0.40537 0.0
C1436 C 0.6899 0.29646 0.36602 0.0
C1437 C 0.66515 0.29225 0.38138 0.0
C1438 C 0.66707 0.28426 0.4096 0.0
C1439 C 0.69309 0.27846 0.42152 0.0
H1440 H 0.94918 0.31537 0.19968 0.0
H1441 H 0.98597 0.23685 0.1745 0.0
H1442 H 0.91503 0.31157 0.16244 0.0
H1443 H 0.95159 0.23311 0.13693 0.0
H1444 H 0.91069 0.26026 0.05236 0.0
H1445 H 0.94266 0.2595 0.09218 0.0
H1446 H 0.87485 0.28315 0.14697 0.0
H1447 H 0.84305 0.2842 0.10737 0.0
C1448 C 0.94968 0.29703 0.18652 0.0
C1449 C 0.97035 0.27646 0.19008 0.0
C1450 C 0.93007 0.29486 0.16514 0.0
C1451 C 0.93077 0.27214 0.14664 0.0
C1452 C 0.95083 0.25104 0.15067 0.0
C1453 C 0.97036 0.2531 0.1723 0.0
C1454 C 0.90267 0.26542 0.07289 0.0
C1455 C 0.87442 0.27256 0.07667 0.0
C1456 C 0.92089 0.26467 0.09572 0.0
C1457 C 0.91121 0.27124 0.12268 0.0
C1458 C 0.88295 0.27823 0.12641 0.0
C1459 C 0.86475 0.27882 0.10369 0.0
H1460 H 0.64405 0.75594 0.61321 0.0
H1461 H 0.58237 0.74224 0.54881 0.0
H1462 H 0.60788 0.75133 0.64882 0.0
H1463 H 0.54609 0.7382 0.58449 0.0
H1464 H 0.50853 0.68305 0.65511 0.0
H1465 H 0.53842 0.70035 0.61802 0.0
H1466 H 0.56376 0.76947 0.6701 0.0
H1467 H 0.53359 0.75174 0.70785 0.0
C1468 C 0.62269 0.75238 0.60662 0.0
C1469 C 0.61613 0.74885 0.57823 0.0
C1470 C 0.60192 0.75006 0.62704 0.0
C1471 C 0.5742 0.74418 0.61946 0.0
C1472 C 0.56738 0.74235 0.59096 0.0
C1473 C 0.58814 0.74464 0.57054 0.0
C1474 C 0.52019 0.70215 0.65862 0.0
C1475 C 0.519 0.71589 0.68448 0.0
C1476 C 0.53712 0.71224 0.63721 0.0
C1477 C 0.55343 0.73629 0.64111 0.0
C1478 C 0.55147 0.75078 0.6666 0.0
C1479 C 0.53417 0.74075 0.6881 0.0
H1480 H 0.41466 0.23197 0.94492 0.0
H1481 H 0.35133 0.24443 0.88179 0.0
H1482 H 0.45013 0.22818 0.90864 0.0
H1483 H 0.38699 0.24015 0.84537 0.0
H1484 H 0.46503 0.24987 0.7884 0.0
H1485 H 0.43109 0.26206 0.82502 0.0
H1486 H 0.45865 0.19125 0.87395 0.0
H1487 H 0.49228 0.17935 0.83805 0.0
C1488 C 0.4083 0.23393 0.92331 0.0
C1489 C 0.38013 0.23805 0.91621 0.0
C1490 C 0.42863 0.23179 0.90253 0.0
C1491 C 0.42126 0.23365 0.8742 0.0
C1492 C 0.39327 0.23883 0.86706 0.0
C1493 C 0.37285 0.24099 0.8879 0.0
C1494 C 0.46395 0.23718 0.80715 0.0
C1495 C 0.48125 0.21364 0.81034 0.0
C1496 C 0.44447 0.24404 0.82797 0.0
C1497 C 0.44236 0.22766 0.85235 0.0
C1498 C 0.46007 0.20452 0.85561 0.0
C1499 C 0.47923 0.19759 0.83489 0.0
H1500 H 0.14547 0.73804 0.38003 0.0
H1501 H 0.08464 0.7626 0.44223 0.0
H1502 H 0.11039 0.74372 0.34355 0.0
H1503 H 0.04955 0.76824 0.4056 0.0
H1504 H 0.01551 0.81602 0.32727 0.0
H1505 H 0.04587 0.80328 0.36601 0.0
H1506 H 0.06352 0.72409 0.32663 0.0
H1507 H 0.03271 0.73681 0.28768 0.0
C1508 C 0.12456 0.74447 0.38595 0.0
C1509 C 0.11789 0.75018 0.41398 0.0
C1510 C 0.10443 0.74746 0.36507 0.0
C1511 C 0.07731 0.75644 0.37178 0.0
C1512 C 0.07041 0.76147 0.39987 0.0
C1513 C 0.09047 0.75823 0.42081 0.0
C1514 C 0.02567 0.79578 0.32696 0.0
C1515 C 0.02192 0.77747 0.3044 0.0
C1516 C 0.04287 0.78841 0.34925 0.0
C1517 C 0.05703 0.76272 0.3493 0.0
C1518 C 0.0529 0.74409 0.32701 0.0
C1519 C 0.03522 0.75129 0.30484 0.0
H1520 H 0.15607 0.99139 0.29043 0.0
H1521 H 0.2153 0.94839 0.23768 0.0
H1522 H 0.11912 0.96017 0.27513 0.0
H1523 H 0.17797 0.91673 0.22212 0.0
H1524 H 0.11575 0.84381 0.24733 0.0
H1525 H 0.15226 0.87931 0.24865 0.0
H1526 H 0.09025 0.94372 0.23601 0.0
H1527 H 0.05357 0.90825 0.23508 0.0
C1528 C 0.16097 0.97553 0.27504 0.0
C1529 C 0.18847 0.97203 0.26539 0.0
C1530 C 0.13978 0.95778 0.26612 0.0
C1531 C 0.14569 0.93589 0.24757 0.0
C1532 C 0.17293 0.93333 0.23662 0.0
C1533 C 0.19418 0.95149 0.24531 0.0
C1534 C 0.1099 0.86552 0.24463 0.0
C1535 C 0.08172 0.87327 0.24158 0.0
C1536 C 0.13088 0.88583 0.24503 0.0
C1537 C 0.1241 0.91429 0.24244 0.0
C1538 C 0.09604 0.92194 0.23829 0.0
C1539 C 0.07505 0.90164 0.23784 0.0
H1540 H 0.4009 0.14887 0.76322 0.0
H1541 H 0.45912 0.07977 0.76238 0.0
H1542 H 0.36202 0.11626 0.76518 0.0
H1543 H 0.41999 0.04696 0.76512 0.0
H1544 H 0.30178 0.05216 0.80167 0.0
H1545 H 0.34098 0.08426 0.79774 0.0
H1546 H 0.38067 0.02908 0.73835 0.0
H1547 H 0.34159 0.9965 0.74279 0.0
C1548 C 0.40543 0.12668 0.76366 0.0
C1549 C 0.43312 0.11689 0.7628 0.0
C1550 C 0.38309 0.10797 0.7649 0.0
C1551 C 0.38787 0.079 0.76548 0.0
C1552 C 0.41558 0.06916 0.76441 0.0
C1553 C 0.438 0.08793 0.76303 0.0
C1554 C 0.31875 0.04691 0.78764 0.0
C1555 C 0.3185 0.02179 0.7725 0.0
C1556 C 0.34122 0.06538 0.78531 0.0
C1557 C 0.36397 0.05927 0.76769 0.0
C1558 C 0.36365 0.03423 0.75238 0.0
C1559 C 0.34116 0.01567 0.75477 0.0
H1560 H 0.71357 0.55325 0.75637 0.0
H1561 H 0.6523 0.49221 0.73112 0.0
H1562 H 0.67582 0.58568 0.76892 0.0
H1563 H 0.61491 0.52419 0.74291 0.0
H1564 H 0.54926 0.58351 0.76572 0.0
H1565 H 0.58807 0.55158 0.7742 0.0
H1566 H 0.6453 0.61185 0.73824 0.0
H1567 H 0.60666 0.64412 0.73087 0.0
C1568 C 0.69204 0.54645 0.75454 0.0
C1569 C 0.68563 0.5205 0.74263 0.0
C1570 C 0.67046 0.56505 0.76136 0.0
C1571 C 0.64234 0.55772 0.75646 0.0
C1572 C 0.6362 0.53057 0.74717 0.0
C1573 C 0.65763 0.51222 0.74026 0.0
C1574 C 0.57017 0.58994 0.75976 0.0
C1575 C 0.5749 0.616 0.74703 0.0
C1576 C 0.59242 0.57173 0.76476 0.0
C1577 C 0.61979 0.57904 0.75671 0.0
C1578 C 0.6246 0.60566 0.74509 0.0
C1579 C 0.60238 0.62401 0.74045 0.0
H1580 H 0.93441 0.40219 0.23881 0.0
H1581 H 0.86767 0.34177 0.24741 0.0
H1582 H 0.89999 0.43943 0.23387 0.0
H1583 H 0.83326 0.37904 0.24204 0.0
H1584 H 0.77774 0.45682 0.24916 0.0
H1585 H 0.81342 0.42266 0.26348 0.0
H1586 H 0.86728 0.45137 0.19669 0.0
H1587 H 0.83231 0.48521 0.18282 0.0
C1588 C 0.91241 0.39684 0.23966 0.0
C1589 C 0.90379 0.36897 0.24314 0.0
C1590 C 0.89269 0.41818 0.23686 0.0
C1591 C 0.86391 0.41216 0.23751 0.0
C1592 C 0.85527 0.38439 0.24178 0.0
C1593 C 0.87501 0.36301 0.24451 0.0
C1594 C 0.79744 0.45606 0.23797 0.0
C1595 C 0.80217 0.47351 0.21478 0.0
C1596 C 0.81773 0.43643 0.24598 0.0
C1597 C 0.84314 0.43432 0.23116 0.0
C1598 C 0.84813 0.45265 0.20877 0.0
C1599 C 0.82794 0.47193 0.20068 0.0
H1600 H 0.24846 0.21689 0.95239 0.0
H1601 H 0.2993 0.15409 0.99254 0.0
H1602 H 0.23431 0.18251 0.91708 0.0
H1603 H 0.28578 0.12018 0.95755 0.0
H1604 H 0.24979 0.0592 0.89795 0.0
H1605 H 0.25009 0.09214 0.93663 0.0
H1606 H 0.25991 0.16063 0.87834 0.0
H1607 H 0.2588 0.12774 0.83956 0.0
C1608 C 0.25594 0.19558 0.95408 0.0
C1609 C 0.27511 0.18811 0.97496 0.0
C1610 C 0.24815 0.176 0.93376 0.0
C1611 C 0.2592 0.14868 0.93429 0.0
C1612 C 0.27668 0.14089 0.95652 0.0
C1613 C 0.28457 0.16038 0.97654 0.0
C1614 C 0.25201 0.08129 0.89336 0.0
C1615 C 0.25479 0.0908 0.86568 0.0
C1616 C 0.25208 0.10018 0.91554 0.0
C1617 C 0.25512 0.12904 0.91062 0.0
C1618 C 0.25714 0.13861 0.88288 0.0
C1619 C 0.25692 0.1197 0.86066 0.0
H1620 H 0.7972 0.34762 0.00515 0.0
H1621 H 0.7361 0.2922 0.04236 0.0
H1622 H 0.77997 0.38589 0.0333 0.0
H1623 H 0.7184 0.33108 0.07072 0.0
H1624 H 0.7402 0.39311 0.14491 0.0
H1625 H 0.74109 0.35584 0.11045 0.0
H1626 H 0.74108 0.41726 0.04405 0.0
H1627 H 0.74079 0.45466 0.07854 0.0
C1628 C 0.7797 0.34378 0.01907 0.0
C1629 C 0.76828 0.3169 0.02201 0.0
C1630 C 0.76959 0.36581 0.03496 0.0
C1631 C 0.74789 0.36144 0.05426 0.0
C1632 C 0.7353 0.3349 0.05609 0.0
C1633 C 0.74533 0.31276 0.03988 0.0
C1634 C 0.74008 0.39867 0.12296 0.0
C1635 C 0.74116 0.42677 0.11439 0.0
C1636 C 0.7402 0.3773 0.10322 0.0
C1637 C 0.74137 0.38368 0.07459 0.0
C1638 C 0.74054 0.4118 0.06603 0.0
C1639 C 0.74049 0.43317 0.08576 0.0
H1640 H 0.72774 0.70875 0.56711 0.0
H1641 H 0.72234 0.6492 0.49996 0.0
H1642 H 0.7338 0.6707 0.60057 0.0
H1643 H 0.72664 0.61088 0.53332 0.0
H1644 H 0.74328 0.54598 0.60029 0.0
H1645 H 0.75024 0.58387 0.56682 0.0
H1646 H 0.70199 0.63896 0.61983 0.0
H1647 H 0.6964 0.60148 0.65377 0.0
C1648 C 0.7286 0.68744 0.55952 0.0
C1649 C 0.72475 0.68174 0.53111 0.0
C1650 C 0.73158 0.66561 0.57866 0.0
C1651 C 0.72985 0.63763 0.56981 0.0
C1652 C 0.72817 0.6321 0.54097 0.0
C1653 C 0.72578 0.65404 0.52175 0.0
C1654 C 0.73403 0.56618 0.60462 0.0
C1655 C 0.7191 0.57078 0.62951 0.0
C1656 C 0.73808 0.58793 0.58547 0.0
C1657 C 0.72693 0.61464 0.59063 0.0
C1658 C 0.7116 0.61896 0.61542 0.0
C1659 C 0.70799 0.59736 0.63474 0.0
H1660 H 0.21181 0.77811 0.4304 0.0
H1661 H 0.23548 0.83082 0.4992 0.0
H1662 H 0.2216 0.81606 0.39772 0.0
H1663 H 0.24664 0.86868 0.46663 0.0
H1664 H 0.22137 0.93932 0.40589 0.0
H1665 H 0.22031 0.9004 0.43895 0.0
H1666 H 0.25424 0.84578 0.37553 0.0
H1667 H 0.25415 0.88437 0.34234 0.0
C1668 C 0.22008 0.7976 0.43835 0.0
C1669 C 0.22329 0.80154 0.46713 0.0
C1670 C 0.22576 0.81939 0.41968 0.0
C1671 C 0.23472 0.84563 0.4295 0.0
C1672 C 0.23933 0.84895 0.45835 0.0
C1673 C 0.23345 0.82715 0.47701 0.0
C1674 C 0.22861 0.91899 0.3991 0.0
C1675 C 0.23743 0.91481 0.37144 0.0
C1676 C 0.22829 0.89669 0.4181 0.0
C1677 C 0.23715 0.86982 0.40995 0.0
C1678 C 0.24676 0.86598 0.38244 0.0
C1679 C 0.24673 0.88815 0.36339 0.0
H1680 H 0.03512 0.75351 0.77371 0.0
H1681 H 0.00538 0.69238 0.83338 0.0
H1682 H 0.06815 0.77135 0.80864 0.0
H1683 H 0.03794 0.7101 0.86801 0.0
H1684 H 0.08615 0.75871 0.93115 0.0
H1685 H 0.04932 0.75207 0.89668 0.0
H1686 H 0.11129 0.74935 0.83098 0.0
H1687 H 0.14823 0.75625 0.86538 0.0
C1688 C 0.0353 0.7443 0.79441 0.0
C1689 C 0.01797 0.72145 0.80087 0.0
C1690 C 0.05424 0.75435 0.81428 0.0
C1691 C 0.05561 0.74203 0.84097 0.0
C1692 C 0.03719 0.72017 0.84772 0.0
C1693 C 0.01871 0.70988 0.82783 0.0
C1694 C 0.09194 0.7569 0.90934 0.0
C1695 C 0.12014 0.7576 0.90103 0.0
C1696 C 0.07084 0.75316 0.88963 0.0
C1697 C 0.07749 0.75011 0.86121 0.0
C1698 C 0.10556 0.75195 0.85273 0.0
C1699 C 0.12671 0.75562 0.87247 0.0
H1700 H 0.49805 0.24172 0.32006 0.0
H1701 H 0.43084 0.29232 0.28724 0.0
H1702 H 0.46722 0.22558 0.35786 0.0
H1703 H 0.40039 0.27646 0.32468 0.0
H1704 H 0.34531 0.2336 0.38566 0.0
H1705 H 0.37602 0.23642 0.34517 0.0
H1706 H 0.44674 0.25011 0.3994 0.0
H1707 H 0.41599 0.24677 0.44016 0.0
C1708 C 0.47658 0.24889 0.32057 0.0
C1709 C 0.46691 0.2685 0.30091 0.0
C1710 C 0.45904 0.23984 0.34229 0.0
C1711 C 0.43147 0.24992 0.34435 0.0
C1712 C 0.42142 0.26811 0.3236 0.0
C1713 C 0.43894 0.27735 0.30221 0.0
C1714 C 0.36744 0.23702 0.38902 0.0
C1715 C 0.37817 0.24046 0.41609 0.0
C1716 C 0.38502 0.23857 0.36579 0.0
C1717 C 0.41374 0.24371 0.36908 0.0
C1718 C 0.42473 0.24587 0.39621 0.0
C1719 C 0.40709 0.24422 0.41954 0.0
H1720 H 0.58336 0.78037 0.04423 0.0
H1721 H 0.63403 0.72725 0.09685 0.0
H1722 H 0.54937 0.7853 0.08231 0.0
H1723 H 0.59983 0.73187 0.1346 0.0
H1724 H 0.51789 0.73541 0.18924 0.0
H1725 H 0.54483 0.7229 0.1471 0.0
H1726 H 0.56007 0.81037 0.13073 0.0
H1727 H 0.5342 0.82276 0.17266 0.0
C1728 C 0.58697 0.76937 0.06371 0.0
C1729 C 0.61152 0.75382 0.06776 0.0
C1730 C 0.56755 0.77215 0.08542 0.0
C1731 C 0.57208 0.75895 0.11131 0.0
C1732 C 0.59578 0.74205 0.11477 0.0
C1733 C 0.61544 0.73968 0.09327 0.0
C1734 C 0.52693 0.75185 0.17649 0.0
C1735 C 0.52421 0.78001 0.18434 0.0
C1736 C 0.54226 0.74473 0.15249 0.0
C1737 C 0.55425 0.76574 0.13565 0.0
C1738 C 0.55076 0.79382 0.14316 0.0
C1739 C 0.53617 0.80085 0.16732 0.0
H1740 H 0.83846 0.25415 0.62764 0.0
H1741 H 0.89433 0.21005 0.57194 0.0
H1742 H 0.87255 0.24928 0.66541 0.0
H1743 H 0.92818 0.20543 0.60946 0.0
H1744 H 0.97123 0.1776 0.68671 0.0
H1745 H 0.93181 0.18064 0.65511 0.0
H1746 H 0.92208 0.26813 0.67499 0.0
H1747 H 0.96152 0.26491 0.70761 0.0
C1748 C 0.85784 0.24317 0.62355 0.0
C1749 C 0.86375 0.23241 0.59687 0.0
C1750 C 0.87736 0.24061 0.64508 0.0
C1751 C 0.90288 0.22696 0.6403 0.0
C1752 C 0.90849 0.21575 0.61379 0.0
C1753 C 0.88915 0.21848 0.59229 0.0
C1754 C 0.96036 0.19738 0.68489 0.0
C1755 C 0.96931 0.22101 0.69974 0.0
C1756 C 0.93793 0.19914 0.6666 0.0
C1757 C 0.92413 0.22464 0.66247 0.0
C1758 C 0.93234 0.24816 0.678 0.0
C1759 C 0.95493 0.24639 0.69645 0.0
H1760 H 0.78801 0.04287 0.74304 0.0
H1761 H 0.84362 0.99629 0.68932 0.0
H1762 H 0.8251 0.07746 0.75081 0.0
H1763 H 0.88008 0.03074 0.69644 0.0
H1764 H 0.94735 0.08739 0.73002 0.0
H1765 H 0.91191 0.05082 0.72975 0.0
H1766 H 0.84731 0.11336 0.72089 0.0
H1767 H 0.88271 0.15003 0.7218 0.0
C1768 C 0.80829 0.03976 0.73341 0.0
C1769 C 0.81296 0.01711 0.71544 0.0
C1770 C 0.82936 0.05965 0.73755 0.0
C1771 C 0.85539 0.05694 0.72398 0.0
C1772 C 0.86039 0.03336 0.70736 0.0
C1773 C 0.83943 0.01369 0.70315 0.0
C1774 C 0.92561 0.09334 0.72778 0.0
C1775 C 0.91783 0.12158 0.7258 0.0
C1776 C 0.9053 0.0724 0.72775 0.0
C1777 C 0.87681 0.07924 0.72555 0.0
C1778 C 0.86905 0.10747 0.72321 0.0
C1779 C 0.88937 0.12843 0.72334 0.0
H1780 H 0.66162 0.98331 0.1829 0.0
H1781 H 0.71385 0.96348 0.25376 0.0
H1782 H 0.62444 0.95457 0.20206 0.0
H1783 H 0.67613 0.93431 0.27321 0.0
H1784 H 0.61839 0.85322 0.26382 0.0
H1785 H 0.65458 0.88856 0.25703 0.0
H1786 H 0.59101 0.95077 0.24152 0.0
H1787 H 0.55478 0.91542 0.24787 0.0
C1788 C 0.66501 0.973 0.2028 0.0
C1789 C 0.69069 0.97536 0.21672 0.0
C1790 C 0.64358 0.95675 0.21392 0.0
C1791 C 0.64736 0.94226 0.23916 0.0
C1792 C 0.67275 0.94525 0.25366 0.0
C1793 C 0.69422 0.96195 0.24263 0.0
C1794 C 0.61211 0.87451 0.25928 0.0
C1795 C 0.58376 0.88143 0.25573 0.0
C1796 C 0.63285 0.89479 0.25571 0.0
C1797 C 0.62558 0.92232 0.2485 0.0
C1798 C 0.59717 0.92959 0.2467 0.0
C1799 C 0.57645 0.90934 0.25029 0.0
H1800 H 0.39561 0.36757 0.21164 0.0
H1801 H 0.44643 0.40919 0.27341 0.0
H1802 H 0.35825 0.40165 0.21937 0.0
H1803 H 0.4088 0.44292 0.28136 0.0
H1804 H 0.31675 0.45436 0.31656 0.0
H1805 H 0.35812 0.42845 0.30231 0.0
H1806 H 0.3487 0.45903 0.21795 0.0
H1807 H 0.30722 0.48596 0.23243 0.0
C1808 C 0.39892 0.3842 0.22659 0.0
C1809 C 0.42376 0.38557 0.24219 0.0
C1810 C 0.37767 0.40378 0.23079 0.0
C1811 C 0.38078 0.42474 0.25095 0.0
C1812 C 0.40604 0.42686 0.26569 0.0
C1813 C 0.42749 0.40759 0.26115 0.0
C1814 C 0.3235 0.45573 0.29497 0.0
C1815 C 0.30873 0.47209 0.27554 0.0
C1816 C 0.34729 0.44108 0.28692 0.0
C1817 C 0.35658 0.442 0.25915 0.0
C1818 C 0.34188 0.4582 0.23953 0.0
C1819 C 0.31829 0.47354 0.24779 0.0
H1820 H 0.20713 0.5438 0.74817 0.0
H1821 H 0.15131 0.50341 0.80679 0.0
H1822 H 0.16856 0.57397 0.7326 0.0
H1823 H 0.11334 0.53335 0.79171 0.0
H1824 H 0.04422 0.57952 0.75008 0.0
H1825 H 0.0821 0.5455 0.75358 0.0
H1826 H 0.14244 0.61272 0.75503 0.0
H1827 H 0.10473 0.64666 0.75101 0.0
C1828 C 0.18657 0.54106 0.75734 0.0
C1829 C 0.18225 0.5215 0.77886 0.0
C1830 C 0.16458 0.55839 0.74861 0.0
C1831 C 0.13791 0.5561 0.76101 0.0
C1832 C 0.13346 0.5355 0.78148 0.0
C1833 C 0.15534 0.51848 0.79031 0.0
C1834 C 0.06557 0.58702 0.75092 0.0
C1835 C 0.07142 0.6158 0.7507 0.0
C1836 C 0.08727 0.56754 0.75291 0.0
C1837 C 0.11527 0.57642 0.75472 0.0
C1838 C 0.12115 0.60517 0.75336 0.0
C1839 C 0.09947 0.62463 0.75139 0.0
H1840 H 0.69488 0.8416 -0.0007 0.0
H1841 H 0.75363 0.78442 0.03709 0.0
H1842 H 0.71158 0.87898 0.02891 0.0
H1843 H 0.7708 0.8224 0.06707 0.0
H1844 H 0.75131 0.88497 0.14143 0.0
H1845 H 0.74886 0.84786 0.10679 0.0
H1846 H 0.75032 0.90959 0.04073 0.0
H1847 H 0.75215 0.94681 0.07539 0.0
C1848 C 0.71177 0.83718 0.01371 0.0
C1849 C 0.72272 0.81006 0.0162 0.0
C1850 C 0.72156 0.85871 0.03051 0.0
C1851 C 0.74248 0.85367 0.05041 0.0
C1852 C 0.7545 0.82682 0.05202 0.0
C1853 C 0.74483 0.80517 0.03483 0.0
C1854 C 0.75136 0.89064 0.11951 0.0
C1855 C 0.75126 0.91886 0.11115 0.0
C1856 C 0.75031 0.86932 0.09965 0.0
C1857 C 0.74916 0.87579 0.07103 0.0
C1858 C 0.75075 0.90397 0.06266 0.0
C1859 C 0.75174 0.92529 0.08251 0.0
H1860 H 0.23541 0.5537 0.9158 0.0
H1861 H 0.21411 0.60462 0.84417 0.0
H1862 H 0.23196 0.59487 0.94577 0.0
H1863 H 0.21108 0.64559 0.87395 0.0
H1864 H 0.17429 0.70287 0.94153 0.0
H1865 H 0.18019 0.66288 0.91088 0.0
H1866 H 0.25599 0.64026 0.95432 0.0
H1867 H 0.24991 0.68017 0.98547 0.0
C1868 C 0.22999 0.57363 0.90647 0.0
C1869 C 0.2249 0.57588 0.87767 0.0
C1870 C 0.22827 0.59723 0.92357 0.0
C1871 C 0.22127 0.62344 0.91218 0.0
C1872 C 0.21623 0.62562 0.88338 0.0
C1873 C 0.21806 0.60213 0.86632 0.0
C1874 C 0.19232 0.68949 0.94451 0.0
C1875 C 0.21148 0.69459 0.96613 0.0
C1876 C 0.19576 0.66664 0.92684 0.0
C1877 C 0.21845 0.64834 0.93032 0.0
C1878 C 0.23806 0.65379 0.95144 0.0
C1879 C 0.23468 0.67677 0.96912 0.0
H1880 H 0.24279 0.30275 0.48749 0.0
H1881 H 0.32376 0.29871 0.44727 0.0
H1882 H 0.22729 0.33657 0.45215 0.0
H1883 H 0.30814 0.33196 0.41211 0.0
H1884 H 0.26271 0.37258 0.33954 0.0
H1885 H 0.27139 0.33477 0.37282 0.0
H1886 H 0.24361 0.38762 0.44035 0.0
H1887 H 0.2351 0.42561 0.40715 0.0
C1888 C 0.25715 0.30885 0.47102 0.0
C1889 C 0.28453 0.29818 0.47022 0.0
C1890 C 0.2483 0.32819 0.45091 0.0
C1891 C 0.26653 0.33672 0.42946 0.0
C1892 C 0.29359 0.32548 0.42827 0.0
C1893 C 0.30256 0.30657 0.44853 0.0
C1894 C 0.25824 0.37607 0.36145 0.0
C1895 C 0.24859 0.40214 0.37082 0.0
C1896 C 0.26321 0.35445 0.38044 0.0
C1897 C 0.25822 0.35839 0.40907 0.0
C1898 C 0.24744 0.38404 0.41833 0.0
C1899 C 0.24284 0.40582 0.39938 0.0
H1900 H 0.78137 0.20509 0.56057 0.0
H1901 H 0.75837 0.15272 0.49103 0.0
H1902 H 0.77748 0.16524 0.59203 0.0
H1903 H 0.75601 0.11233 0.52211 0.0
H1904 H 0.7376 0.04737 0.58966 0.0
H1905 H 0.73433 0.08803 0.55895 0.0
H1906 H 0.80433 0.12577 0.60183 0.0
H1907 H 0.80643 0.08588 0.63329 0.0
C1908 C 0.77528 0.18501 0.5521 0.0
C1909 C 0.77034 0.18187 0.52343 0.0
C1910 C 0.77336 0.16208 0.57003 0.0
C1911 C 0.76712 0.13535 0.55955 0.0
C1912 C 0.76073 0.13257 0.531 0.0
C1913 C 0.76209 0.1557 0.51314 0.0
C1914 C 0.75238 0.06432 0.59227 0.0
C1915 C 0.77229 0.06356 0.61377 0.0
C1916 C 0.75052 0.08764 0.57471 0.0
C1917 C 0.76885 0.11041 0.57805 0.0
C1918 C 0.78931 0.10906 0.5991 0.0
C1919 C 0.7908 0.08604 0.61694 0.0
loop_
_geom_bond_atom_site_label_1
_geom_bond_atom_site_label_2
_geom_bond_distance
_geom_bond_site_symmetry_2
_ccdc_geom_bond_type
Zn0 O6 1.969 . S
Zn0 O7 1.965 . S
Zn0 O11 2.024 . S
Zn0 O16 1.969 . S
Zn1 O8 1.969 1_655 S
Zn1 O14 1.969 . S
Zn1 O15 1.965 . S
Zn1 O17 2.024 . S
C2 O3 1.229 . S
C2 O11 1.058 . S
O3 C2 1.229 . S
C4 O5 1.229 . S
C4 O17 1.058 . S
O5 C4 1.229 . S
O6 Zn0 1.969 . S
O6 C9 1.267 . S
O7 Zn0 1.965 . S
O7 C18 1.260 . S
O8 Zn1 1.969 1_455 S
O8 C18 1.258 . S
C9 O6 1.267 . S
C9 O10 1.228 . S
O10 C9 1.228 . S
O11 Zn0 2.024 . S
O11 C2 1.058 . S
C12 O13 1.228 . S
C12 O14 1.267 . S
O13 C12 1.228 . S
O14 Zn1 1.969 . S
O14 C12 1.267 . S
O15 Zn1 1.965 . S
O15 C19 1.260 . S
O16 Zn0 1.969 . S
O16 C19 1.258 1_455 S
O17 Zn1 2.024 . S
O17 C4 1.058 . S
C18 O7 1.260 . S
C18 O8 1.258 . S
C19 O15 1.260 . S
C19 O16 1.258 1_655 S
Zn20 O26 1.969 . S
Zn20 O27 1.965 . S
Zn20 O31 2.024 . S
Zn20 O36 1.969 . S
Zn21 O28 1.969 . S
Zn21 O34 1.969 . S
Zn21 O35 1.965 . S
Zn21 O37 2.024 . S
C22 O23 1.229 . S
C22 O31 1.058 . S
O23 C22 1.229 . S
C24 O25 1.229 . S
C24 O37 1.058 . S
O25 C24 1.229 . S
O26 Zn20 1.969 . S
O26 C29 1.267 . S
O27 Zn20 1.965 . S
O27 C38 1.260 . S
O28 Zn21 1.969 . S
O28 C38 1.258 . S
C29 O26 1.267 . S
C29 O30 1.228 . S
O30 C29 1.228 . S
O31 Zn20 2.024 . S
O31 C22 1.058 . S
C32 O33 1.228 . S
C32 O34 1.267 . S
O33 C32 1.228 . S
O34 Zn21 1.969 . S
O34 C32 1.267 . S
O35 Zn21 1.965 . S
O35 C39 1.260 . S
O36 Zn20 1.969 . S
O36 C39 1.258 . S
O37 Zn21 2.024 . S
O37 C24 1.058 . S
C38 O27 1.260 . S
C38 O28 1.258 . S
C39 O35 1.260 . S
C39 O36 1.258 . S
Zn40 O46 1.969 . S
Zn40 O47 1.965 . S
Zn40 O51 2.024 . S
Zn40 O56 1.969 . S
Zn41 O48 1.969 . S
Zn41 O54 1.969 . S
Zn41 O55 1.965 . S
Zn41 O57 2.024 . S
C42 O43 1.229 . S
C42 O51 1.058 . S
O43 C42 1.229 . S
C44 O45 1.229 . S
C44 O57 1.058 . S
O45 C44 1.229 . S
O46 Zn40 1.969 . S
O46 C49 1.267 . S
O47 Zn40 1.965 . S
O47 C58 1.260 . S
O48 Zn41 1.969 . S
O48 C58 1.258 . S
C49 O46 1.267 . S
C49 O50 1.228 . S
O50 C49 1.228 . S
O51 Zn40 2.024 . S
O51 C42 1.058 . S
C52 O53 1.228 . S
C52 O54 1.267 . S
O53 C52 1.228 . S
O54 Zn41 1.969 . S
O54 C52 1.267 . S
O55 Zn41 1.965 . S
O55 C59 1.260 . S
O56 Zn40 1.969 . S
O56 C59 1.258 . S
O57 Zn41 2.024 . S
O57 C44 1.058 . S
C58 O47 1.260 . S
C58 O48 1.258 . S
C59 O55 1.260 . S
C59 O56 1.258 . S
Zn60 O66 1.969 . S
Zn60 O67 1.965 . S
Zn60 O71 2.024 . S
Zn60 O76 1.969 . S
Zn61 O68 1.969 1_455 S
Zn61 O74 1.969 . S
Zn61 O75 1.965 . S
Zn61 O77 2.024 . S
C62 O63 1.229 . S
C62 O71 1.058 . S
O63 C62 1.229 . S
C64 O65 1.229 . S
C64 O77 1.058 . S
O65 C64 1.229 . S
O66 Zn60 1.969 . S
O66 C69 1.267 . S
O67 Zn60 1.965 . S
O67 C78 1.260 . S
O68 Zn61 1.969 1_655 S
O68 C78 1.258 . S
C69 O66 1.267 . S
C69 O70 1.228 . S
O70 C69 1.228 . S
O71 Zn60 2.024 . S
O71 C62 1.058 . S
C72 O73 1.228 . S
C72 O74 1.267 . S
O73 C72 1.228 . S
O74 Zn61 1.969 . S
O74 C72 1.267 . S
O75 Zn61 1.965 . S
O75 C79 1.260 . S
O76 Zn60 1.969 . S
O76 C79 1.258 1_655 S
O77 Zn61 2.024 . S
O77 C64 1.058 . S
C78 O67 1.260 . S
C78 O68 1.258 . S
C79 O75 1.260 . S
C79 O76 1.258 1_455 S
Zn80 O86 1.969 . S
Zn80 O87 1.965 . S
Zn80 O91 2.024 . S
Zn80 O96 1.969 . S
Zn81 O88 1.969 1_565 S
Zn81 O94 1.969 . S
Zn81 O95 1.965 . S
Zn81 O97 2.024 . S
C82 O83 1.229 . S
C82 O91 1.058 . S
O83 C82 1.229 . S
C84 O85 1.229 . S
C84 O97 1.058 . S
O85 C84 1.229 . S
O86 Zn80 1.969 . S
O86 C89 1.267 . S
O87 Zn80 1.965 . S
O87 C98 1.260 . S
O88 Zn81 1.969 1_545 S
O88 C98 1.258 . S
C89 O86 1.267 . S
C89 O90 1.228 . S
O90 C89 1.228 . S
O91 Zn80 2.024 . S
O91 C82 1.058 . S
C92 O93 1.228 . S
C92 O94 1.267 . S
O93 C92 1.228 . S
O94 Zn81 1.969 . S
O94 C92 1.267 . S
O95 Zn81 1.965 . S
O95 C99 1.260 . S
O96 Zn80 1.969 . S
O96 C99 1.258 1_545 S
O97 Zn81 2.024 . S
O97 C84 1.058 . S
C98 O87 1.260 . S
C98 O88 1.258 . S
C99 O95 1.260 . S
C99 O96 1.258 1_565 S
Zn100 O106 1.969 . S
Zn100 O107 1.965 . S
Zn100 O111 2.024 . S
Zn100 O116 1.969 . S
Zn101 O108 1.969 1_545 S
Zn101 O114 1.969 . S
Zn101 O115 1.965 . S
Zn101 O117 2.024 . S
C102 O103 1.229 . S
C102 O111 1.058 . S
O103 C102 1.229 . S
C104 O105 1.229 . S
C104 O117 1.058 . S
O105 C104 1.229 . S
O106 Zn100 1.969 . S
O106 C109 1.267 . S
O107 Zn100 1.965 . S
O107 C118 1.260 . S
O108 Zn101 1.969 1_565 S
O108 C118 1.258 . S
C109 O106 1.267 . S
C109 O110 1.228 . S
O110 C109 1.228 . S
O111 Zn100 2.024 . S
O111 C102 1.058 . S
C112 O113 1.228 . S
C112 O114 1.267 . S
O113 C112 1.228 . S
O114 Zn101 1.969 . S
O114 C112 1.267 . S
O115 Zn101 1.965 . S
O115 C119 1.260 . S
O116 Zn100 1.969 . S
O116 C119 1.258 1_565 S
O117 Zn101 2.024 . S
O117 C104 1.058 . S
C118 O107 1.260 . S
C118 O108 1.258 . S
C119 O115 1.260 . S
C119 O116 1.258 1_545 S
Zn120 O126 1.969 . S
Zn120 O127 1.965 . S
Zn120 O131 2.024 . S
Zn120 O136 1.969 . S
Zn121 O128 1.969 . S
Zn121 O134 1.969 . S
Zn121 O135 1.965 . S
Zn121 O137 2.024 . S
C122 O123 1.229 . S
C122 O131 1.058 . S
O123 C122 1.229 . S
C124 O125 1.229 . S
C124 O137 1.058 . S
O125 C124 1.229 . S
O126 Zn120 1.969 . S
O126 C129 1.267 . S
O127 Zn120 1.965 . S
O127 C138 1.260 . S
O128 Zn121 1.969 . S
O128 C138 1.258 . S
C129 O126 1.267 . S
C129 O130 1.228 . S
O130 C129 1.228 . S
O131 Zn120 2.024 . S
O131 C122 1.058 . S
C132 O133 1.228 . S
C132 O134 1.267 . S
O133 C132 1.228 . S
O134 Zn121 1.969 . S
O134 C132 1.267 . S
O135 Zn121 1.965 . S
O135 C139 1.260 . S
O136 Zn120 1.969 . S
O136 C139 1.258 . S
O137 Zn121 2.024 . S
O137 C124 1.058 . S
C138 O127 1.260 . S
C138 O128 1.258 . S
C139 O135 1.260 . S
C139 O136 1.258 . S
Zn140 O146 1.969 . S
Zn140 O147 1.965 . S
Zn140 O151 2.024 . S
Zn140 O156 1.969 . S
Zn141 O148 1.969 . S
Zn141 O154 1.969 . S
Zn141 O155 1.965 . S
Zn141 O157 2.024 . S
C142 O143 1.229 . S
C142 O151 1.058 . S
O143 C142 1.229 . S
C144 O145 1.229 . S
C144 O157 1.058 . S
O145 C144 1.229 . S
O146 Zn140 1.969 . S
O146 C149 1.267 . S
O147 Zn140 1.965 . S
O147 C158 1.260 . S
O148 Zn141 1.969 . S
O148 C158 1.258 . S
C149 O146 1.267 . S
C149 O150 1.228 . S
O150 C149 1.228 . S
O151 Zn140 2.024 . S
O151 C142 1.058 . S
C152 O153 1.228 . S
C152 O154 1.267 . S
O153 C152 1.228 . S
O154 Zn141 1.969 . S
O154 C152 1.267 . S
O155 Zn141 1.965 . S
O155 C159 1.260 . S
O156 Zn140 1.969 . S
O156 C159 1.258 . S
O157 Zn141 2.024 . S
O157 C144 1.058 . S
C158 O147 1.260 . S
C158 O148 1.258 . S
C159 O155 1.260 . S
C159 O156 1.258 . S
Zn160 O166 1.969 . S
Zn160 O167 1.965 . S
Zn160 O171 2.024 . S
Zn160 O176 1.969 . S
Zn161 O168 1.969 1_556 S
Zn161 O174 1.969 . S
Zn161 O175 1.965 . S
Zn161 O177 2.024 . S
C162 O163 1.229 . S
C162 O171 1.058 . S
O163 C162 1.229 . S
C164 O165 1.229 . S
C164 O177 1.058 . S
O165 C164 1.229 . S
O166 Zn160 1.969 . S
O166 C169 1.267 . S
O167 Zn160 1.965 . S
O167 C178 1.260 . S
O168 Zn161 1.969 1_554 S
O168 C178 1.258 . S
C169 O166 1.267 . S
C169 O170 1.228 . S
O170 C169 1.228 . S
O171 Zn160 2.024 . S
O171 C162 1.058 . S
C172 O173 1.228 . S
C172 O174 1.267 . S
O173 C172 1.228 . S
O174 Zn161 1.969 . S
O174 C172 1.267 . S
O175 Zn161 1.965 . S
O175 C179 1.260 . S
O176 Zn160 1.969 . S
O176 C179 1.258 1_554 S
O177 Zn161 2.024 . S
O177 C164 1.058 . S
C178 O167 1.260 . S
C178 O168 1.258 . S
C179 O175 1.260 . S
C179 O176 1.258 1_556 S
Zn180 O186 1.969 . S
Zn180 O187 1.965 . S
Zn180 O191 2.024 . S
Zn180 O196 1.969 . S
Zn181 O188 1.969 1_554 S
Zn181 O194 1.969 . S
Zn181 O195 1.965 . S
Zn181 O197 2.024 . S
C182 O183 1.229 . S
C182 O191 1.058 . S
O183 C182 1.229 . S
C184 O185 1.229 . S
C184 O197 1.058 . S
O185 C184 1.229 . S
O186 Zn180 1.969 . S
O186 C189 1.267 . S
O187 Zn180 1.965 . S
O187 C198 1.260 . S
O188 Zn181 1.969 1_556 S
O188 C198 1.258 . S
C189 O186 1.267 . S
C189 O190 1.228 . S
O190 C189 1.228 . S
O191 Zn180 2.024 . S
O191 C182 1.058 . S
C192 O193 1.228 . S
C192 O194 1.267 . S
O193 C192 1.228 . S
O194 Zn181 1.969 . S
O194 C192 1.267 . S
O195 Zn181 1.965 . S
O195 C199 1.260 . S
O196 Zn180 1.969 . S
O196 C199 1.258 1_556 S
O197 Zn181 2.024 . S
O197 C184 1.058 . S
C198 O187 1.260 . S
C198 O188 1.258 . S
C199 O195 1.260 . S
C199 O196 1.258 1_554 S
Zn200 O206 1.969 . S
Zn200 O207 1.965 . S
Zn200 O211 2.024 . S
Zn200 O216 1.969 . S
Zn201 O208 1.969 . S
Zn201 O214 1.969 . S
Zn201 O215 1.965 . S
Zn201 O217 2.024 . S
C202 O203 1.229 . S
C202 O211 1.058 . S
O203 C202 1.229 . S
C204 O205 1.229 . S
C204 O217 1.058 . S
O205 C204 1.229 . S
O206 Zn200 1.969 . S
O206 C209 1.267 . S
O207 Zn200 1.965 . S
O207 C218 1.260 . S
O208 Zn201 1.969 . S
O208 C218 1.258 . S
C209 O206 1.267 . S
C209 O210 1.228 . S
O210 C209 1.228 . S
O211 Zn200 2.024 . S
O211 C202 1.058 . S
C212 O213 1.228 . S
C212 O214 1.267 . S
O213 C212 1.228 . S
O214 Zn201 1.969 . S
O214 C212 1.267 . S
O215 Zn201 1.965 . S
O215 C219 1.260 . S
O216 Zn200 1.969 . S
O216 C219 1.258 . S
O217 Zn201 2.024 . S
O217 C204 1.058 . S
C218 O207 1.260 . S
C218 O208 1.258 . S
C219 O215 1.260 . S
C219 O216 1.258 . S
Zn220 O226 1.969 . S
Zn220 O227 1.965 . S
Zn220 O231 2.024 . S
Zn220 O236 1.969 . S
Zn221 O228 1.969 . S
Zn221 O234 1.969 . S
Zn221 O235 1.965 . S
Zn221 O237 2.024 . S
C222 O223 1.229 . S
C222 O231 1.058 . S
O223 C222 1.229 . S
C224 O225 1.229 . S
C224 O237 1.058 . S
O225 C224 1.229 . S
O226 Zn220 1.969 . S
O226 C229 1.267 . S
O227 Zn220 1.965 . S
O227 C238 1.260 . S
O228 Zn221 1.969 . S
O228 C238 1.258 . S
C229 O226 1.267 . S
C229 O230 1.228 . S
O230 C229 1.228 . S
O231 Zn220 2.024 . S
O231 C222 1.058 . S
C232 O233 1.228 . S
C232 O234 1.267 . S
O233 C232 1.228 . S
O234 Zn221 1.969 . S
O234 C232 1.267 . S
O235 Zn221 1.965 . S
O235 C239 1.260 . S
O236 Zn220 1.969 . S
O236 C239 1.258 . S
O237 Zn221 2.024 . S
O237 C224 1.058 . S
C238 O227 1.260 . S
C238 O228 1.258 . S
C239 O235 1.260 . S
C239 O236 1.258 . S
Zn240 O246 1.969 . S
Zn240 O247 1.965 . S
Zn240 O251 2.024 . S
Zn240 O256 1.969 1_455 S
Zn241 O248 1.969 . S
Zn241 O254 1.969 . S
Zn241 O255 1.965 . S
Zn241 O257 2.024 . S
C242 O243 1.229 . S
C242 O251 1.058 . S
O243 C242 1.229 . S
C244 O245 1.229 . S
C244 O257 1.058 . S
O245 C244 1.229 . S
O246 Zn240 1.969 . S
O246 C249 1.267 . S
O247 Zn240 1.965 . S
O247 C258 1.260 . S
O248 Zn241 1.969 . S
O248 C258 1.258 1_655 S
C249 O246 1.267 . S
C249 O250 1.228 . S
O250 C249 1.228 . S
O251 Zn240 2.024 . S
O251 C242 1.058 . S
C252 O253 1.228 . S
C252 O254 1.267 . S
O253 C252 1.228 . S
O254 Zn241 1.969 . S
O254 C252 1.267 . S
O255 Zn241 1.965 . S
O255 C259 1.260 . S
O256 Zn240 1.969 1_655 S
O256 C259 1.258 . S
O257 Zn241 2.024 . S
O257 C244 1.058 . S
C258 O247 1.260 . S
C258 O248 1.258 1_455 S
C259 O255 1.260 . S
C259 O256 1.258 . S
Zn260 O266 1.969 . S
Zn260 O267 1.965 . S
Zn260 O271 2.024 . S
Zn260 O276 1.969 . S
Zn261 O268 1.969 . S
Zn261 O274 1.969 . S
Zn261 O275 1.965 . S
Zn261 O277 2.024 . S
C262 O263 1.229 . S
C262 O271 1.058 . S
O263 C262 1.229 . S
C264 O265 1.229 . S
C264 O277 1.058 . S
O265 C264 1.229 . S
O266 Zn260 1.969 . S
O266 C269 1.267 . S
O267 Zn260 1.965 . S
O267 C278 1.260 . S
O268 Zn261 1.969 . S
O268 C278 1.258 . S
C269 O266 1.267 . S
C269 O270 1.228 . S
O270 C269 1.228 . S
O271 Zn260 2.024 . S
O271 C262 1.058 . S
C272 O273 1.228 . S
C272 O274 1.267 . S
O273 C272 1.228 . S
O274 Zn261 1.969 . S
O274 C272 1.267 . S
O275 Zn261 1.965 . S
O275 C279 1.260 . S
O276 Zn260 1.969 . S
O276 C279 1.258 . S
O277 Zn261 2.024 . S
O277 C264 1.058 . S
C278 O267 1.260 . S
C278 O268 1.258 . S
C279 O275 1.260 . S
C279 O276 1.258 . S
Zn280 O286 1.969 . S
Zn280 O287 1.965 . S
Zn280 O291 2.024 . S
Zn280 O296 1.969 . S
Zn281 O288 1.969 . S
Zn281 O294 1.969 . S
Zn281 O295 1.965 . S
Zn281 O297 2.024 . S
C282 O283 1.229 . S
C282 O291 1.058 . S
O283 C282 1.229 . S
C284 O285 1.229 . S
C284 O297 1.058 . S
O285 C284 1.229 . S
O286 Zn280 1.969 . S
O286 C289 1.267 . S
O287 Zn280 1.965 . S
O287 C298 1.260 . S
O288 Zn281 1.969 . S
O288 C298 1.258 . S
C289 O286 1.267 . S
C289 O290 1.228 . S
O290 C289 1.228 . S
O291 Zn280 2.024 . S
O291 C282 1.058 . S
C292 O293 1.228 . S
C292 O294 1.267 . S
O293 C292 1.228 . S
O294 Zn281 1.969 . S
O294 C292 1.267 . S
O295 Zn281 1.965 . S
O295 C299 1.260 . S
O296 Zn280 1.969 . S
O296 C299 1.258 . S
O297 Zn281 2.024 . S
O297 C284 1.058 . S
C298 O287 1.260 . S
C298 O288 1.258 . S
C299 O295 1.260 . S
C299 O296 1.258 . S
Zn300 O306 1.969 . S
Zn300 O307 1.965 . S
Zn300 O311 2.024 . S
Zn300 O316 1.969 1_655 S
Zn301 O308 1.969 . S
Zn301 O314 1.969 . S
Zn301 O315 1.965 . S
Zn301 O317 2.024 . S
C302 O303 1.229 . S
C302 O311 1.058 . S
O303 C302 1.229 . S
C304 O305 1.229 . S
C304 O317 1.058 . S
O305 C304 1.229 . S
O306 Zn300 1.969 . S
O306 C309 1.267 . S
O307 Zn300 1.965 . S
O307 C318 1.260 . S
O308 Zn301 1.969 . S
O308 C318 1.258 1_455 S
C309 O306 1.267 . S
C309 O310 1.228 . S
O310 C309 1.228 . S
O311 Zn300 2.024 . S
O311 C302 1.058 . S
C312 O313 1.228 . S
C312 O314 1.267 . S
O313 C312 1.228 . S
O314 Zn301 1.969 . S
O314 C312 1.267 . S
O315 Zn301 1.965 . S
O315 C319 1.260 . S
O316 Zn300 1.969 1_455 S
O316 C319 1.258 . S
O317 Zn301 2.024 . S
O317 C304 1.058 . S
C318 O307 1.260 . S
C318 O308 1.258 1_655 S
C319 O315 1.260 . S
C319 O316 1.258 . S
Zn320 O326 1.969 . S
Zn320 O327 1.965 . S
Zn320 O331 2.024 . S
Zn320 O336 1.969 1_545 S
Zn321 O328 1.969 . S
Zn321 O334 1.969 . S
Zn321 O335 1.965 . S
Zn321 O337 2.024 . S
C322 O323 1.229 . S
C322 O331 1.058 . S
O323 C322 1.229 . S
C324 O325 1.229 . S
C324 O337 1.058 . S
O325 C324 1.229 . S
O326 Zn320 1.969 . S
O326 C329 1.267 . S
O327 Zn320 1.965 . S
O327 C338 1.260 . S
O328 Zn321 1.969 . S
O328 C338 1.258 1_565 S
C329 O326 1.267 . S
C329 O330 1.228 . S
O330 C329 1.228 . S
O331 Zn320 2.024 . S
O331 C322 1.058 . S
C332 O333 1.228 . S
C332 O334 1.267 . S
O333 C332 1.228 . S
O334 Zn321 1.969 . S
O334 C332 1.267 . S
O335 Zn321 1.965 . S
O335 C339 1.260 . S
O336 Zn320 1.969 1_565 S
O336 C339 1.258 . S
O337 Zn321 2.024 . S
O337 C324 1.058 . S
C338 O327 1.260 . S
C338 O328 1.258 1_545 S
C339 O335 1.260 . S
C339 O336 1.258 . S
Zn340 O346 1.969 . S
Zn340 O347 1.965 . S
Zn340 O351 2.024 . S
Zn340 O356 1.969 1_565 S
Zn341 O348 1.969 . S
Zn341 O354 1.969 . S
Zn341 O355 1.965 . S
Zn341 O357 2.024 . S
C342 O343 1.229 . S
C342 O351 1.058 . S
O343 C342 1.229 . S
C344 O345 1.229 . S
C344 O357 1.058 . S
O345 C344 1.229 . S
O346 Zn340 1.969 . S
O346 C349 1.267 . S
O347 Zn340 1.965 . S
O347 C358 1.260 . S
O348 Zn341 1.969 . S
O348 C358 1.258 1_545 S
C349 O346 1.267 . S
C349 O350 1.228 . S
O350 C349 1.228 . S
O351 Zn340 2.024 . S
O351 C342 1.058 . S
C352 O353 1.228 . S
C352 O354 1.267 . S
O353 C352 1.228 . S
O354 Zn341 1.969 . S
O354 C352 1.267 . S
O355 Zn341 1.965 . S
O355 C359 1.260 . S
O356 Zn340 1.969 1_545 S
O356 C359 1.258 . S
O357 Zn341 2.024 . S
O357 C344 1.058 . S
C358 O347 1.260 . S
C358 O348 1.258 1_565 S
C359 O355 1.260 . S
C359 O356 1.258 . S
Zn360 O366 1.969 . S
Zn360 O367 1.965 . S
Zn360 O371 2.024 . S
Zn360 O376 1.969 . S
Zn361 O368 1.969 . S
Zn361 O374 1.969 . S
Zn361 O375 1.965 . S
Zn361 O377 2.024 . S
C362 O363 1.229 . S
C362 O371 1.058 . S
O363 C362 1.229 . S
C364 O365 1.229 . S
C364 O377 1.058 . S
O365 C364 1.229 . S
O366 Zn360 1.969 . S
O366 C369 1.267 . S
O367 Zn360 1.965 . S
O367 C378 1.260 . S
O368 Zn361 1.969 . S
O368 C378 1.258 . S
C369 O366 1.267 . S
C369 O370 1.228 . S
O370 C369 1.228 . S
O371 Zn360 2.024 . S
O371 C362 1.058 . S
C372 O373 1.228 . S
C372 O374 1.267 . S
O373 C372 1.228 . S
O374 Zn361 1.969 . S
O374 C372 1.267 . S
O375 Zn361 1.965 . S
O375 C379 1.260 . S
O376 Zn360 1.969 . S
O376 C379 1.258 . S
O377 Zn361 2.024 . S
O377 C364 1.058 . S
C378 O367 1.260 . S
C378 O368 1.258 . S
C379 O375 1.260 . S
C379 O376 1.258 . S
Zn380 O386 1.969 . S
Zn380 O387 1.965 . S
Zn380 O391 2.024 . S
Zn380 O396 1.969 . S
Zn381 O388 1.969 . S
Zn381 O394 1.969 . S
Zn381 O395 1.965 . S
Zn381 O397 2.024 . S
C382 O383 1.229 . S
C382 O391 1.058 . S
O383 C382 1.229 . S
C384 O385 1.229 . S
C384 O397 1.058 . S
O385 C384 1.229 . S
O386 Zn380 1.969 . S
O386 C389 1.267 . S
O387 Zn380 1.965 . S
O387 C398 1.260 . S
O388 Zn381 1.969 . S
O388 C398 1.258 . S
C389 O386 1.267 . S
C389 O390 1.228 . S
O390 C389 1.228 . S
O391 Zn380 2.024 . S
O391 C382 1.058 . S
C392 O393 1.228 . S
C392 O394 1.267 . S
O393 C392 1.228 . S
O394 Zn381 1.969 . S
O394 C392 1.267 . S
O395 Zn381 1.965 . S
O395 C399 1.260 . S
O396 Zn380 1.969 . S
O396 C399 1.258 . S
O397 Zn381 2.024 . S
O397 C384 1.058 . S
C398 O387 1.260 . S
C398 O388 1.258 . S
C399 O395 1.260 . S
C399 O396 1.258 . S
Zn400 O406 1.969 . S
Zn400 O407 1.965 . S
Zn400 O411 2.024 . S
Zn400 O416 1.969 1_554 S
Zn401 O408 1.969 . S
Zn401 O414 1.969 . S
Zn401 O415 1.965 . S
Zn401 O417 2.024 . S
C402 O403 1.229 . S
C402 O411 1.058 . S
O403 C402 1.229 . S
C404 O405 1.229 . S
C404 O417 1.058 . S
O405 C404 1.229 . S
O406 Zn400 1.969 . S
O406 C409 1.267 . S
O407 Zn400 1.965 . S
O407 C418 1.260 . S
O408 Zn401 1.969 . S
O408 C418 1.258 1_556 S
C409 O406 1.267 . S
C409 O410 1.228 . S
O410 C409 1.228 . S
O411 Zn400 2.024 . S
O411 C402 1.058 . S
C412 O413 1.228 . S
C412 O414 1.267 . S
O413 C412 1.228 . S
O414 Zn401 1.969 . S
O414 C412 1.267 . S
O415 Zn401 1.965 . S
O415 C419 1.260 . S
O416 Zn400 1.969 1_556 S
O416 C419 1.258 . S
O417 Zn401 2.024 . S
O417 C404 1.058 . S
C418 O407 1.260 . S
C418 O408 1.258 1_554 S
C419 O415 1.260 . S
C419 O416 1.258 . S
Zn420 O426 1.969 . S
Zn420 O427 1.965 . S
Zn420 O431 2.024 . S
Zn420 O436 1.969 1_556 S
Zn421 O428 1.969 . S
Zn421 O434 1.969 . S
Zn421 O435 1.965 . S
Zn421 O437 2.024 . S
C422 O423 1.229 . S
C422 O431 1.058 . S
O423 C422 1.229 . S
C424 O425 1.229 . S
C424 O437 1.058 . S
O425 C424 1.229 . S
O426 Zn420 1.969 . S
O426 C429 1.267 . S
O427 Zn420 1.965 . S
O427 C438 1.260 . S
O428 Zn421 1.969 . S
O428 C438 1.258 1_554 S
C429 O426 1.267 . S
C429 O430 1.228 . S
O430 C429 1.228 . S
O431 Zn420 2.024 . S
O431 C422 1.058 . S
C432 O433 1.228 . S
C432 O434 1.267 . S
O433 C432 1.228 . S
O434 Zn421 1.969 . S
O434 C432 1.267 . S
O435 Zn421 1.965 . S
O435 C439 1.260 . S
O436 Zn420 1.969 1_554 S
O436 C439 1.258 . S
O437 Zn421 2.024 . S
O437 C424 1.058 . S
C438 O427 1.260 . S
C438 O428 1.258 1_556 S
C439 O435 1.260 . S
C439 O436 1.258 . S
Zn440 O446 1.969 . S
Zn440 O447 1.965 . S
Zn440 O451 2.024 . S
Zn440 O456 1.969 . S
Zn441 O448 1.969 . S
Zn441 O454 1.969 . S
Zn441 O455 1.965 . S
Zn441 O457 2.024 . S
C442 O443 1.229 . S
C442 O451 1.058 . S
O443 C442 1.229 . S
C444 O445 1.229 . S
C444 O457 1.058 . S
O445 C444 1.229 . S
O446 Zn440 1.969 . S
O446 C449 1.267 . S
O447 Zn440 1.965 . S
O447 C458 1.260 . S
O448 Zn441 1.969 . S
O448 C458 1.258 . S
C449 O446 1.267 . S
C449 O450 1.228 . S
O450 C449 1.228 . S
O451 Zn440 2.024 . S
O451 C442 1.058 . S
C452 O453 1.228 . S
C452 O454 1.267 . S
O453 C452 1.228 . S
O454 Zn441 1.969 . S
O454 C452 1.267 . S
O455 Zn441 1.965 . S
O455 C459 1.260 . S
O456 Zn440 1.969 . S
O456 C459 1.258 . S
O457 Zn441 2.024 . S
O457 C444 1.058 . S
C458 O447 1.260 . S
C458 O448 1.258 . S
C459 O455 1.260 . S
C459 O456 1.258 . S
Zn460 O466 1.969 . S
Zn460 O467 1.965 . S
Zn460 O471 2.024 . S
Zn460 O476 1.969 . S
Zn461 O468 1.969 . S
Zn461 O474 1.969 . S
Zn461 O475 1.965 . S
Zn461 O477 2.024 . S
C462 O463 1.229 . S
C462 O471 1.058 . S
O463 C462 1.229 . S
C464 O465 1.229 . S
C464 O477 1.058 . S
O465 C464 1.229 . S
O466 Zn460 1.969 . S
O466 C469 1.267 . S
O467 Zn460 1.965 . S
O467 C478 1.260 . S
O468 Zn461 1.969 . S
O468 C478 1.258 . S
C469 O466 1.267 . S
C469 O470 1.228 . S
O470 C469 1.228 . S
O471 Zn460 2.024 . S
O471 C462 1.058 . S
C472 O473 1.228 . S
C472 O474 1.267 . S
O473 C472 1.228 . S
O474 Zn461 1.969 . S
O474 C472 1.267 . S
O475 Zn461 1.965 . S
O475 C479 1.260 . S
O476 Zn460 1.969 . S
O476 C479 1.258 . S
O477 Zn461 2.024 . S
O477 C464 1.058 . S
C478 O467 1.260 . S
C478 O468 1.258 . S
C479 O475 1.260 . S
C479 O476 1.258 . S
H480 C488 0.950 . S
H481 C493 0.950 . S
H482 C490 0.950 . S
H483 C492 0.950 . S
H484 C494 0.950 . S
H485 C496 0.950 . S
H486 C498 0.950 . S
H487 C499 0.950 . S
C488 H480 0.950 . S
C488 C489 1.386 . S
C488 C490 1.391 . S
C489 C488 1.386 . S
C489 C493 1.393 . S
C490 H482 0.950 . S
C490 C488 1.391 . S
C490 C491 1.400 . S
C491 C490 1.400 . S
C491 C492 1.398 . S
C491 C497 1.491 . S
C492 H483 0.950 . S
C492 C491 1.398 . S
C492 C493 1.391 . S
C493 H481 0.950 . S
C493 C489 1.393 . S
C493 C492 1.391 . S
C494 H484 0.950 . S
C494 C495 1.386 . S
C494 C496 1.391 . S
C495 C494 1.386 . S
C495 C499 1.393 . S
C496 H485 0.950 . S
C496 C494 1.391 . S
C496 C497 1.400 . S
C497 C491 1.491 . S
C497 C496 1.400 . S
C497 C498 1.398 . S
C498 H486 0.950 . S
C498 C497 1.398 . S
C498 C499 1.391 . S
C499 H487 0.950 . S
C499 C495 1.393 . S
C499 C498 1.391 . S
H500 C508 0.950 . S
H501 C513 0.950 . S
H502 C510 0.950 . S
H503 C512 0.950 . S
H504 C514 0.950 . S
H505 C516 0.950 . S
H506 C518 0.950 . S
H507 C519 0.950 . S
C508 H500 0.950 . S
C508 C509 1.386 . S
C508 C510 1.391 . S
C509 C508 1.386 . S
C509 C513 1.393 . S
C510 H502 0.950 . S
C510 C508 1.391 . S
C510 C511 1.400 . S
C511 C510 1.400 . S
C511 C512 1.398 . S
C511 C517 1.491 . S
C512 H503 0.950 . S
C512 C511 1.398 . S
C512 C513 1.391 . S
C513 H501 0.950 . S
C513 C509 1.393 . S
C513 C512 1.391 . S
C514 H504 0.950 . S
C514 C515 1.386 . S
C514 C516 1.391 . S
C515 C514 1.386 . S
C515 C519 1.393 . S
C516 H505 0.950 . S
C516 C514 1.391 . S
C516 C517 1.400 . S
C517 C511 1.491 . S
C517 C516 1.400 . S
C517 C518 1.398 . S
C518 H506 0.950 . S
C518 C517 1.398 . S
C518 C519 1.391 . S
C519 H507 0.950 . S
C519 C515 1.393 . S
C519 C518 1.391 . S
H520 C528 0.950 . S
H521 C533 0.950 . S
H522 C530 0.950 . S
H523 C532 0.950 . S
H524 C534 0.950 . S
H525 C536 0.950 . S
H526 C538 0.950 . S
H527 C539 0.950 . S
C528 H520 0.950 . S
C528 C529 1.386 . S
C528 C530 1.391 . S
C529 C528 1.386 . S
C529 C533 1.393 . S
C530 H522 0.950 . S
C530 C528 1.391 . S
C530 C531 1.400 . S
C531 C530 1.400 . S
C531 C532 1.398 . S
C531 C537 1.491 . S
C532 H523 0.950 . S
C532 C531 1.398 . S
C532 C533 1.391 . S
C533 H521 0.950 . S
C533 C529 1.393 . S
C533 C532 1.391 . S
C534 H524 0.950 . S
C534 C535 1.386 . S
C534 C536 1.391 . S
C535 C534 1.386 . S
C535 C539 1.393 . S
C536 H525 0.950 . S
C536 C534 1.391 . S
C536 C537 1.400 . S
C537 C531 1.491 . S
C537 C536 1.400 . S
C537 C538 1.398 . S
C538 H526 0.950 . S
C538 C537 1.398 . S
C538 C539 1.391 . S
C539 H527 0.950 . S
C539 C535 1.393 . S
C539 C538 1.391 . S
H540 C548 0.950 . S
H541 C553 0.950 . S
H542 C550 0.950 . S
H543 C552 0.950 . S
H544 C554 0.950 . S
H545 C556 0.950 . S
H546 C558 0.950 . S
H547 C559 0.950 . S
C548 H540 0.950 . S
C548 C549 1.386 . S
C548 C550 1.391 . S
C549 C548 1.386 . S
C549 C553 1.393 . S
C550 H542 0.950 . S
C550 C548 1.391 . S
C550 C551 1.400 . S
C551 C550 1.400 . S
C551 C552 1.398 . S
C551 C557 1.491 . S
C552 H543 0.950 . S
C552 C551 1.398 . S
C552 C553 1.391 . S
C553 H541 0.950 . S
C553 C549 1.393 . S
C553 C552 1.391 . S
C554 H544 0.950 . S
C554 C555 1.386 . S
C554 C556 1.391 . S
C555 C554 1.386 . S
C555 C559 1.393 . S
C556 H545 0.950 . S
C556 C554 1.391 . S
C556 C557 1.400 . S
C557 C551 1.491 . S
C557 C556 1.400 . S
C557 C558 1.398 . S
C558 H546 0.950 . S
C558 C557 1.398 . S
C558 C559 1.391 . S
C559 H547 0.950 . S
C559 C555 1.393 . S
C559 C558 1.391 . S
H560 C568 0.950 . S
H561 C573 0.950 . S
H562 C570 0.950 . S
H563 C572 0.950 . S
H564 C574 0.950 . S
H565 C576 0.950 . S
H566 C578 0.950 . S
H567 C579 0.950 . S
C568 H560 0.950 . S
C568 C569 1.386 . S
C568 C570 1.391 . S
C569 C568 1.386 . S
C569 C573 1.393 . S
C570 H562 0.950 . S
C570 C568 1.391 . S
C570 C571 1.400 . S
C571 C570 1.400 . S
C571 C572 1.398 . S
C571 C577 1.491 . S
C572 H563 0.950 . S
C572 C571 1.398 . S
C572 C573 1.391 . S
C573 H561 0.950 . S
C573 C569 1.393 . S
C573 C572 1.391 . S
C574 H564 0.950 . S
C574 C575 1.386 . S
C574 C576 1.391 . S
C575 C574 1.386 . S
C575 C579 1.393 . S
C576 H565 0.950 . S
C576 C574 1.391 . S
C576 C577 1.400 . S
C577 C571 1.491 . S
C577 C576 1.400 . S
C577 C578 1.398 . S
C578 H566 0.950 . S
C578 C577 1.398 . S
C578 C579 1.391 . S
C579 H567 0.950 . S
C579 C575 1.393 . S
C579 C578 1.391 . S
H580 C588 0.950 . S
H581 C593 0.950 . S
H582 C590 0.950 . S
H583 C592 0.950 . S
H584 C594 0.950 . S
H585 C596 0.950 . S
H586 C598 0.950 . S
H587 C599 0.950 . S
C588 H580 0.950 . S
C588 C589 1.386 . S
C588 C590 1.391 . S
C589 C588 1.386 . S
C589 C593 1.393 . S
C590 H582 0.950 . S
C590 C588 1.391 . S
C590 C591 1.400 . S
C591 C590 1.400 . S
C591 C592 1.398 . S
C591 C597 1.491 . S
C592 H583 0.950 . S
C592 C591 1.398 . S
C592 C593 1.391 . S
C593 H581 0.950 . S
C593 C589 1.393 . S
C593 C592 1.391 . S
C594 H584 0.950 . S
C594 C595 1.386 . S
C594 C596 1.391 . S
C595 C594 1.386 . S
C595 C599 1.393 . S
C596 H585 0.950 . S
C596 C594 1.391 . S
C596 C597 1.400 . S
C597 C591 1.491 . S
C597 C596 1.400 . S
C597 C598 1.398 . S
C598 H586 0.950 . S
C598 C597 1.398 . S
C598 C599 1.391 . S
C599 H587 0.950 . S
C599 C595 1.393 . S
C599 C598 1.391 . S
H600 C608 0.950 . S
H601 C613 0.950 . S
H602 C610 0.950 . S
H603 C612 0.950 . S
H604 C614 0.950 . S
H605 C616 0.950 . S
H606 C618 0.950 . S
H607 C619 0.950 . S
C608 H600 0.950 . S
C608 C609 1.386 . S
C608 C610 1.391 . S
C609 C608 1.386 . S
C609 C613 1.393 . S
C610 H602 0.950 . S
C610 C608 1.391 . S
C610 C611 1.400 . S
C611 C610 1.400 . S
C611 C612 1.398 . S
C611 C617 1.491 . S
C612 H603 0.950 . S
C612 C611 1.398 . S
C612 C613 1.391 . S
C613 H601 0.950 . S
C613 C609 1.393 . S
C613 C612 1.391 . S
C614 H604 0.950 . S
C614 C615 1.386 . S
C614 C616 1.391 . S
C615 C614 1.386 . S
C615 C619 1.393 . S
C616 H605 0.950 . S
C616 C614 1.391 . S
C616 C617 1.400 . S
C617 C611 1.491 . S
C617 C616 1.400 . S
C617 C618 1.398 . S
C618 H606 0.950 . S
C618 C617 1.398 . S
C618 C619 1.391 . S
C619 H607 0.950 . S
C619 C615 1.393 . S
C619 C618 1.391 . S
H620 C628 0.950 . S
H621 C633 0.950 . S
H622 C630 0.950 . S
H623 C632 0.950 . S
H624 C634 0.950 . S
H625 C636 0.950 . S
H626 C638 0.950 . S
H627 C639 0.950 . S
C628 H620 0.950 . S
C628 C629 1.386 . S
C628 C630 1.391 . S
C629 C628 1.386 . S
C629 C633 1.393 . S
C630 H622 0.950 . S
C630 C628 1.391 . S
C630 C631 1.400 . S
C631 C630 1.400 . S
C631 C632 1.398 . S
C631 C637 1.491 . S
C632 H623 0.950 . S
C632 C631 1.398 . S
C632 C633 1.391 . S
C633 H621 0.950 . S
C633 C629 1.393 . S
C633 C632 1.391 . S
C634 H624 0.950 . S
C634 C635 1.386 . S
C634 C636 1.391 . S
C635 C634 1.386 . S
C635 C639 1.393 . S
C636 H625 0.950 . S
C636 C634 1.391 . S
C636 C637 1.400 . S
C637 C631 1.491 . S
C637 C636 1.400 . S
C637 C638 1.398 . S
C638 H626 0.950 . S
C638 C637 1.398 . S
C638 C639 1.391 . S
C639 H627 0.950 . S
C639 C635 1.393 . S
C639 C638 1.391 . S
H640 C648 0.950 . S
H641 C653 0.950 . S
H642 C650 0.950 . S
H643 C652 0.950 . S
H644 C654 0.950 . S
H645 C656 0.950 . S
H646 C658 0.950 . S
H647 C659 0.950 . S
C648 H640 0.950 . S
C648 C649 1.386 . S
C648 C650 1.391 . S
C649 C648 1.386 . S
C649 C653 1.393 . S
C650 H642 0.950 . S
C650 C648 1.391 . S
C650 C651 1.400 . S
C651 C650 1.400 . S
C651 C652 1.398 . S
C651 C657 1.491 . S
C652 H643 0.950 . S
C652 C651 1.398 . S
C652 C653 1.391 . S
C653 H641 0.950 . S
C653 C649 1.393 . S
C653 C652 1.391 . S
C654 H644 0.950 . S
C654 C655 1.386 . S
C654 C656 1.391 . S
C655 C654 1.386 . S
C655 C659 1.393 . S
C656 H645 0.950 . S
C656 C654 1.391 . S
C656 C657 1.400 . S
C657 C651 1.491 . S
C657 C656 1.400 . S
C657 C658 1.398 . S
C658 H646 0.950 . S
C658 C657 1.398 . S
C658 C659 1.391 . S
C659 H647 0.950 . S
C659 C655 1.393 . S
C659 C658 1.391 . S
H660 C668 0.950 . S
H661 C673 0.950 . S
H662 C670 0.950 . S
H663 C672 0.950 . S
H664 C674 0.950 . S
H665 C676 0.950 . S
H666 C678 0.950 . S
H667 C679 0.950 . S
C668 H660 0.950 . S
C668 C669 1.386 . S
C668 C670 1.391 . S
C669 C668 1.386 . S
C669 C673 1.393 . S
C670 H662 0.950 . S
C670 C668 1.391 . S
C670 C671 1.400 . S
C671 C670 1.400 . S
C671 C672 1.398 . S
C671 C677 1.491 . S
C672 H663 0.950 . S
C672 C671 1.398 . S
C672 C673 1.391 . S
C673 H661 0.950 . S
C673 C669 1.393 . S
C673 C672 1.391 . S
C674 H664 0.950 . S
C674 C675 1.386 . S
C674 C676 1.391 . S
C675 C674 1.386 . S
C675 C679 1.393 . S
C676 H665 0.950 . S
C676 C674 1.391 . S
C676 C677 1.400 . S
C677 C671 1.491 . S
C677 C676 1.400 . S
C677 C678 1.398 . S
C678 H666 0.950 . S
C678 C677 1.398 . S
C678 C679 1.391 . S
C679 H667 0.950 . S
C679 C675 1.393 . S
C679 C678 1.391 . S
H680 C688 0.950 . S
H681 C693 0.950 . S
H682 C690 0.950 . S
H683 C692 0.950 . S
H684 C694 0.950 . S
H685 C696 0.950 . S
H686 C698 0.950 . S
H687 C699 0.950 . S
C688 H680 0.950 . S
C688 C689 1.386 . S
C688 C690 1.391 . S
C689 C688 1.386 . S
C689 C693 1.393 . S
C690 H682 0.950 . S
C690 C688 1.391 . S
C690 C691 1.400 . S
C691 C690 1.400 . S
C691 C692 1.398 . S
C691 C697 1.491 . S
C692 H683 0.950 . S
C692 C691 1.398 . S
C692 C693 1.391 . S
C693 H681 0.950 . S
C693 C689 1.393 . S
C693 C692 1.391 . S
C694 H684 0.950 . S
C694 C695 1.386 . S
C694 C696 1.391 . S
C695 C694 1.386 . S
C695 C699 1.393 . S
C696 H685 0.950 . S
C696 C694 1.391 . S
C696 C697 1.400 . S
C697 C691 1.491 . S
C697 C696 1.400 . S
C697 C698 1.398 . S
C698 H686 0.950 . S
C698 C697 1.398 . S
C698 C699 1.391 . S
C699 H687 0.950 . S
C699 C695 1.393 . S
C699 C698 1.391 . S
H700 C708 0.950 . S
H701 C713 0.950 . S
H702 C710 0.950 . S
H703 C712 0.950 . S
H704 C714 0.950 . S
H705 C716 0.950 . S
H706 C718 0.950 . S
H707 C719 0.950 . S
C708 H700 0.950 . S
C708 C709 1.386 . S
C708 C710 1.391 . S
C709 C708 1.386 . S
C709 C713 1.393 . S
C710 H702 0.950 . S
C710 C708 1.391 . S
C710 C711 1.400 . S
C711 C710 1.400 . S
C711 C712 1.398 . S
C711 C717 1.491 . S
C712 H703 0.950 . S
C712 C711 1.398 . S
C712 C713 1.391 . S
C713 H701 0.950 . S
C713 C709 1.393 . S
C713 C712 1.391 . S
C714 H704 0.950 . S
C714 C715 1.386 . S
C714 C716 1.391 . S
C715 C714 1.386 . S
C715 C719 1.393 . S
C716 H705 0.950 . S
C716 C714 1.391 . S
C716 C717 1.400 . S
C717 C711 1.491 . S
C717 C716 1.400 . S
C717 C718 1.398 . S
C718 H706 0.950 . S
C718 C717 1.398 . S
C718 C719 1.391 . S
C719 H707 0.950 . S
C719 C715 1.393 . S
C719 C718 1.391 . S
H720 C728 0.950 . S
H721 C733 0.950 . S
H722 C730 0.950 . S
H723 C732 0.950 . S
H724 C734 0.950 . S
H725 C736 0.950 . S
H726 C738 0.950 . S
H727 C739 0.950 . S
C728 H720 0.950 . S
C728 C729 1.386 . S
C728 C730 1.391 . S
C729 C728 1.386 . S
C729 C733 1.393 . S
C730 H722 0.950 . S
C730 C728 1.391 . S
C730 C731 1.400 . S
C731 C730 1.400 . S
C731 C732 1.398 . S
C731 C737 1.491 . S
C732 H723 0.950 . S
C732 C731 1.398 . S
C732 C733 1.391 . S
C733 H721 0.950 . S
C733 C729 1.393 . S
C733 C732 1.391 . S
C734 H724 0.950 . S
C734 C735 1.386 . S
C734 C736 1.391 . S
C735 C734 1.386 . S
C735 C739 1.393 . S
C736 H725 0.950 . S
C736 C734 1.391 . S
C736 C737 1.400 . S
C737 C731 1.491 . S
C737 C736 1.400 . S
C737 C738 1.398 . S
C738 H726 0.950 . S
C738 C737 1.398 . S
C738 C739 1.391 . S
C739 H727 0.950 . S
C739 C735 1.393 . S
C739 C738 1.391 . S
H740 C748 0.950 . S
H741 C753 0.950 . S
H742 C750 0.950 . S
H743 C752 0.950 . S
H744 C754 0.950 . S
H745 C756 0.950 . S
H746 C758 0.950 . S
H747 C759 0.950 . S
C748 H740 0.950 . S
C748 C749 1.386 . S
C748 C750 1.391 . S
C749 C748 1.386 . S
C749 C753 1.393 . S
C750 H742 0.950 . S
C750 C748 1.391 . S
C750 C751 1.400 . S
C751 C750 1.400 . S
C751 C752 1.398 . S
C751 C757 1.491 . S
C752 H743 0.950 . S
C752 C751 1.398 . S
C752 C753 1.391 . S
C753 H741 0.950 . S
C753 C749 1.393 . S
C753 C752 1.391 . S
C754 H744 0.950 . S
C754 C755 1.386 . S
C754 C756 1.391 . S
C755 C754 1.386 . S
C755 C759 1.393 . S
C756 H745 0.950 . S
C756 C754 1.391 . S
C756 C757 1.400 . S
C757 C751 1.491 . S
C757 C756 1.400 . S
C757 C758 1.398 . S
C758 H746 0.950 . S
C758 C757 1.398 . S
C758 C759 1.391 . S
C759 H747 0.950 . S
C759 C755 1.393 . S
C759 C758 1.391 . S
H760 C768 0.950 . S
H761 C773 0.950 . S
H762 C770 0.950 . S
H763 C772 0.950 . S
H764 C774 0.950 . S
H765 C776 0.950 . S
H766 C778 0.950 . S
H767 C779 0.950 . S
C768 H760 0.950 . S
C768 C769 1.386 . S
C768 C770 1.391 . S
C769 C768 1.386 . S
C769 C773 1.393 . S
C770 H762 0.950 . S
C770 C768 1.391 . S
C770 C771 1.400 . S
C771 C770 1.400 . S
C771 C772 1.398 . S
C771 C777 1.491 . S
C772 H763 0.950 . S
C772 C771 1.398 . S
C772 C773 1.391 . S
C773 H761 0.950 . S
C773 C769 1.393 . S
C773 C772 1.391 . S
C774 H764 0.950 . S
C774 C775 1.386 . S
C774 C776 1.391 . S
C775 C774 1.386 . S
C775 C779 1.393 . S
C776 H765 0.950 . S
C776 C774 1.391 . S
C776 C777 1.400 . S
C777 C771 1.491 . S
C777 C776 1.400 . S
C777 C778 1.398 . S
C778 H766 0.950 . S
C778 C777 1.398 . S
C778 C779 1.391 . S
C779 H767 0.950 . S
C779 C775 1.393 . S
C779 C778 1.391 . S
H780 C788 0.950 . S
H781 C793 0.950 . S
H782 C790 0.950 . S
H783 C792 0.950 . S
H784 C794 0.950 . S
H785 C796 0.950 . S
H786 C798 0.950 . S
H787 C799 0.950 . S
C788 H780 0.950 . S
C788 C789 1.386 . S
C788 C790 1.391 . S
C789 C788 1.386 . S
C789 C793 1.393 . S
C790 H782 0.950 . S
C790 C788 1.391 . S
C790 C791 1.400 . S
C791 C790 1.400 . S
C791 C792 1.398 . S
C791 C797 1.491 . S
C792 H783 0.950 . S
C792 C791 1.398 . S
C792 C793 1.391 . S
C793 H781 0.950 . S
C793 C789 1.393 . S
C793 C792 1.391 . S
C794 H784 0.950 . S
C794 C795 1.386 . S
C794 C796 1.391 . S
C795 C794 1.386 . S
C795 C799 1.393 . S
C796 H785 0.950 . S
C796 C794 1.391 . S
C796 C797 1.400 . S
C797 C791 1.491 . S
C797 C796 1.400 . S
C797 C798 1.398 . S
C798 H786 0.950 . S
C798 C797 1.398 . S
C798 C799 1.391 . S
C799 H787 0.950 . S
C799 C795 1.393 . S
C799 C798 1.391 . S
H800 C808 0.950 . S
H801 C813 0.950 . S
H802 C810 0.950 . S
H803 C812 0.950 . S
H804 C814 0.950 . S
H805 C816 0.950 . S
H806 C818 0.950 . S
H807 C819 0.950 . S
C808 H800 0.950 . S
C808 C809 1.386 . S
C808 C810 1.391 . S
C809 C808 1.386 . S
C809 C813 1.393 . S
C810 H802 0.950 . S
C810 C808 1.391 . S
C810 C811 1.400 . S
C811 C810 1.400 . S
C811 C812 1.398 . S
C811 C817 1.491 . S
C812 H803 0.950 . S
C812 C811 1.398 . S
C812 C813 1.391 . S
C813 H801 0.950 . S
C813 C809 1.393 . S
C813 C812 1.391 . S
C814 H804 0.950 . S
C814 C815 1.386 . S
C814 C816 1.391 . S
C815 C814 1.386 . S
C815 C819 1.393 . S
C816 H805 0.950 . S
C816 C814 1.391 . S
C816 C817 1.400 . S
C817 C811 1.491 . S
C817 C816 1.400 . S
C817 C818 1.398 . S
C818 H806 0.950 . S
C818 C817 1.398 . S
C818 C819 1.391 . S
C819 H807 0.950 . S
C819 C815 1.393 . S
C819 C818 1.391 . S
H820 C828 0.950 . S
H821 C833 0.950 . S
H822 C830 0.950 . S
H823 C832 0.950 . S
H824 C834 0.950 . S
H825 C836 0.950 . S
H826 C838 0.950 . S
H827 C839 0.950 . S
C828 H820 0.950 . S
C828 C829 1.386 . S
C828 C830 1.391 . S
C829 C828 1.386 . S
C829 C833 1.393 . S
C830 H822 0.950 . S
C830 C828 1.391 . S
C830 C831 1.400 . S
C831 C830 1.400 . S
C831 C832 1.398 . S
C831 C837 1.491 . S
C832 H823 0.950 . S
C832 C831 1.398 . S
C832 C833 1.391 . S
C833 H821 0.950 . S
C833 C829 1.393 . S
C833 C832 1.391 . S
C834 H824 0.950 . S
C834 C835 1.386 . S
C834 C836 1.391 . S
C835 C834 1.386 . S
C835 C839 1.393 . S
C836 H825 0.950 . S
C836 C834 1.391 . S
C836 C837 1.400 . S
C837 C831 1.491 . S
C837 C836 1.400 . S
C837 C838 1.398 . S
C838 H826 0.950 . S
C838 C837 1.398 . S
C838 C839 1.391 . S
C839 H827 0.950 . S
C839 C835 1.393 . S
C839 C838 1.391 . S
H840 C848 0.950 . S
H841 C853 0.950 . S
H842 C850 0.950 . S
H843 C852 0.950 . S
H844 C854 0.950 . S
H845 C856 0.950 . S
H846 C858 0.950 . S
H847 C859 0.950 . S
C848 H840 0.950 . S
C848 C849 1.386 . S
C848 C850 1.391 . S
C849 C848 1.386 . S
C849 C853 1.393 . S
C850 H842 0.950 . S
C850 C848 1.391 . S
C850 C851 1.400 . S
C851 C850 1.400 . S
C851 C852 1.398 . S
C851 C857 1.491 . S
C852 H843 0.950 . S
C852 C851 1.398 . S
C852 C853 1.391 . S
C853 H841 0.950 . S
C853 C849 1.393 . S
C853 C852 1.391 . S
C854 H844 0.950 . S
C854 C855 1.386 . S
C854 C856 1.391 . S
C855 C854 1.386 . S
C855 C859 1.393 . S
C856 H845 0.950 . S
C856 C854 1.391 . S
C856 C857 1.400 . S
C857 C851 1.491 . S
C857 C856 1.400 . S
C857 C858 1.398 . S
C858 H846 0.950 . S
C858 C857 1.398 . S
C858 C859 1.391 . S
C859 H847 0.950 . S
C859 C855 1.393 . S
C859 C858 1.391 . S
H860 C868 0.950 . S
H861 C873 0.950 . S
H862 C870 0.950 . S
H863 C872 0.950 . S
H864 C874 0.950 . S
H865 C876 0.950 . S
H866 C878 0.950 . S
H867 C879 0.950 . S
C868 H860 0.950 . S
C868 C869 1.386 . S
C868 C870 1.391 . S
C869 C868 1.386 . S
C869 C873 1.393 . S
C870 H862 0.950 . S
C870 C868 1.391 . S
C870 C871 1.400 . S
C871 C870 1.400 . S
C871 C872 1.398 . S
C871 C877 1.491 . S
C872 H863 0.950 . S
C872 C871 1.398 . S
C872 C873 1.391 . S
C873 H861 0.950 . S
C873 C869 1.393 . S
C873 C872 1.391 . S
C874 H864 0.950 . S
C874 C875 1.386 . S
C874 C876 1.391 . S
C875 C874 1.386 . S
C875 C879 1.393 . S
C876 H865 0.950 . S
C876 C874 1.391 . S
C876 C877 1.400 . S
C877 C871 1.491 . S
C877 C876 1.400 . S
C877 C878 1.398 . S
C878 H866 0.950 . S
C878 C877 1.398 . S
C878 C879 1.391 . S
C879 H867 0.950 . S
C879 C875 1.393 . S
C879 C878 1.391 . S
H880 C888 0.950 . S
H881 C893 0.950 . S
H882 C890 0.950 . S
H883 C892 0.950 . S
H884 C894 0.950 . S
H885 C896 0.950 . S
H886 C898 0.950 . S
H887 C899 0.950 . S
C888 H880 0.950 . S
C888 C889 1.386 . S
C888 C890 1.391 . S
C889 C888 1.386 . S
C889 C893 1.393 . S
C890 H882 0.950 . S
C890 C888 1.391 . S
C890 C891 1.400 . S
C891 C890 1.400 . S
C891 C892 1.398 . S
C891 C897 1.491 . S
C892 H883 0.950 . S
C892 C891 1.398 . S
C892 C893 1.391 . S
C893 H881 0.950 . S
C893 C889 1.393 . S
C893 C892 1.391 . S
C894 H884 0.950 . S
C894 C895 1.386 . S
C894 C896 1.391 . S
C895 C894 1.386 . S
C895 C899 1.393 . S
C896 H885 0.950 . S
C896 C894 1.391 . S
C896 C897 1.400 . S
C897 C891 1.491 . S
C897 C896 1.400 . S
C897 C898 1.398 . S
C898 H886 0.950 . S
C898 C897 1.398 . S
C898 C899 1.391 . S
C899 H887 0.950 . S
C899 C895 1.393 . S
C899 C898 1.391 . S
H900 C908 0.950 . S
H901 C913 0.950 . S
H902 C910 0.950 . S
H903 C912 0.950 . S
H904 C914 0.950 . S
H905 C916 0.950 . S
H906 C918 0.950 . S
H907 C919 0.950 . S
C908 H900 0.950 . S
C908 C909 1.386 . S
C908 C910 1.391 . S
C909 C908 1.386 . S
C909 C913 1.393 . S
C910 H902 0.950 . S
C910 C908 1.391 . S
C910 C911 1.400 . S
C911 C910 1.400 . S
C911 C912 1.398 . S
C911 C917 1.491 . S
C912 H903 0.950 . S
C912 C911 1.398 . S
C912 C913 1.391 . S
C913 H901 0.950 . S
C913 C909 1.393 . S
C913 C912 1.391 . S
C914 H904 0.950 . S
C914 C915 1.386 . S
C914 C916 1.391 . S
C915 C914 1.386 . S
C915 C919 1.393 . S
C916 H905 0.950 . S
C916 C914 1.391 . S
C916 C917 1.400 . S
C917 C911 1.491 . S
C917 C916 1.400 . S
C917 C918 1.398 . S
C918 H906 0.950 . S
C918 C917 1.398 . S
C918 C919 1.391 . S
C919 H907 0.950 . S
C919 C915 1.393 . S
C919 C918 1.391 . S
H920 C928 0.950 . S
H921 C933 0.950 . S
H922 C930 0.950 . S
H923 C932 0.950 . S
H924 C934 0.950 . S
H925 C936 0.950 . S
H926 C938 0.950 . S
H927 C939 0.950 . S
C928 H920 0.950 . S
C928 C929 1.386 . S
C928 C930 1.391 . S
C929 C928 1.386 . S
C929 C933 1.393 . S
C930 H922 0.950 . S
C930 C928 1.391 . S
C930 C931 1.400 . S
C931 C930 1.400 . S
C931 C932 1.398 . S
C931 C937 1.491 . S
C932 H923 0.950 . S
C932 C931 1.398 . S
C932 C933 1.391 . S
C933 H921 0.950 . S
C933 C929 1.393 . S
C933 C932 1.391 . S
C934 H924 0.950 . S
C934 C935 1.386 . S
C934 C936 1.391 . S
C935 C934 1.386 . S
C935 C939 1.393 . S
C936 H925 0.950 . S
C936 C934 1.391 . S
C936 C937 1.400 . S
C937 C931 1.491 . S
C937 C936 1.400 . S
C937 C938 1.398 . S
C938 H926 0.950 . S
C938 C937 1.398 . S
C938 C939 1.391 . S
C939 H927 0.950 . S
C939 C935 1.393 . S
C939 C938 1.391 . S
H940 C948 0.950 . S
H941 C953 0.950 . S
H942 C950 0.950 . S
H943 C952 0.950 . S
H944 C954 0.950 . S
H945 C956 0.950 . S
H946 C958 0.950 . S
H947 C959 0.950 . S
C948 H940 0.950 . S
C948 C949 1.386 . S
C948 C950 1.391 . S
C949 C948 1.386 . S
C949 C953 1.393 . S
C950 H942 0.950 . S
C950 C948 1.391 . S
C950 C951 1.400 . S
C951 C950 1.400 . S
C951 C952 1.398 . S
C951 C957 1.491 . S
C952 H943 0.950 . S
C952 C951 1.398 . S
C952 C953 1.391 . S
C953 H941 0.950 . S
C953 C949 1.393 . S
C953 C952 1.391 . S
C954 H944 0.950 . S
C954 C955 1.386 . S
C954 C956 1.391 . S
C955 C954 1.386 . S
C955 C959 1.393 . S
C956 H945 0.950 . S
C956 C954 1.391 . S
C956 C957 1.400 . S
C957 C951 1.491 . S
C957 C956 1.400 . S
C957 C958 1.398 . S
C958 H946 0.950 . S
C958 C957 1.398 . S
C958 C959 1.391 . S
C959 H947 0.950 . S
C959 C955 1.393 . S
C959 C958 1.391 . S
H960 C968 0.950 . S
H961 C973 0.950 . S
H962 C970 0.950 . S
H963 C972 0.950 . S
H964 C974 0.950 . S
H965 C976 0.950 . S
H966 C978 0.950 . S
H967 C979 0.950 . S
C968 H960 0.950 . S
C968 C969 1.386 . S
C968 C970 1.391 . S
C969 C968 1.386 . S
C969 C973 1.393 . S
C970 H962 0.950 . S
C970 C968 1.391 . S
C970 C971 1.400 . S
C971 C970 1.400 . S
C971 C972 1.398 . S
C971 C977 1.491 . S
C972 H963 0.950 . S
C972 C971 1.398 . S
C972 C973 1.391 . S
C973 H961 0.950 . S
C973 C969 1.393 . S
C973 C972 1.391 . S
C974 H964 0.950 . S
C974 C975 1.386 . S
C974 C976 1.391 . S
C975 C974 1.386 . S
C975 C979 1.393 . S
C976 H965 0.950 . S
C976 C974 1.391 . S
C976 C977 1.400 . S
C977 C971 1.491 . S
C977 C976 1.400 . S
C977 C978 1.398 . S
C978 H966 0.950 . S
C978 C977 1.398 . S
C978 C979 1.391 . S
C979 H967 0.950 . S
C979 C975 1.393 . S
C979 C978 1.391 . S
H980 C988 0.950 . S
H981 C993 0.950 . S
H982 C990 0.950 . S
H983 C992 0.950 . S
H984 C994 0.950 . S
H985 C996 0.950 . S
H986 C998 0.950 . S
H987 C999 0.950 . S
C988 H980 0.950 . S
C988 C989 1.386 . S
C988 C990 1.391 . S
C989 C988 1.386 . S
C989 C993 1.393 . S
C990 H982 0.950 . S
C990 C988 1.391 . S
C990 C991 1.400 . S
C991 C990 1.400 . S
C991 C992 1.398 . S
C991 C997 1.491 . S
C992 H983 0.950 . S
C992 C991 1.398 . S
C992 C993 1.391 . S
C993 H981 0.950 . S
C993 C989 1.393 . S
C993 C992 1.391 . S
C994 H984 0.950 . S
C994 C995 1.386 . S
C994 C996 1.391 . S
C995 C994 1.386 . S
C995 C999 1.393 . S
C996 H985 0.950 . S
C996 C994 1.391 . S
C996 C997 1.400 . S
C997 C991 1.491 . S
C997 C996 1.400 . S
C997 C998 1.398 . S
C998 H986 0.950 . S
C998 C997 1.398 . S
C998 C999 1.391 . S
C999 H987 0.950 . S
C999 C995 1.393 . S
C999 C998 1.391 . S
H1000 C1008 0.950 . S
H1001 C1013 0.950 . S
H1002 C1010 0.950 . S
H1003 C1012 0.950 . S
H1004 C1014 0.950 . S
H1005 C1016 0.950 . S
H1006 C1018 0.950 . S
H1007 C1019 0.950 . S
C1008 H1000 0.950 . S
C1008 C1009 1.386 . S
C1008 C1010 1.391 . S
C1009 C1008 1.386 . S
C1009 C1013 1.393 . S
C1010 H1002 0.950 . S
C1010 C1008 1.391 . S
C1010 C1011 1.400 . S
C1011 C1010 1.400 . S
C1011 C1012 1.398 . S
C1011 C1017 1.491 . S
C1012 H1003 0.950 . S
C1012 C1011 1.398 . S
C1012 C1013 1.391 . S
C1013 H1001 0.950 . S
C1013 C1009 1.393 . S
C1013 C1012 1.391 . S
C1014 H1004 0.950 . S
C1014 C1015 1.386 . S
C1014 C1016 1.391 . S
C1015 C1014 1.386 . S
C1015 C1019 1.393 . S
C1016 H1005 0.950 . S
C1016 C1014 1.391 . S
C1016 C1017 1.400 . S
C1017 C1011 1.491 . S
C1017 C1016 1.400 . S
C1017 C1018 1.398 . S
C1018 H1006 0.950 . S
C1018 C1017 1.398 . S
C1018 C1019 1.391 . S
C1019 H1007 0.950 . S
C1019 C1015 1.393 . S
C1019 C1018 1.391 . S
H1020 C1028 0.950 . S
H1021 C1033 0.950 . S
H1022 C1030 0.950 . S
H1023 C1032 0.950 . S
H1024 C1034 0.950 . S
H1025 C1036 0.950 . S
H1026 C1038 0.950 . S
H1027 C1039 0.950 . S
C1028 H1020 0.950 . S
C1028 C1029 1.386 . S
C1028 C1030 1.391 . S
C1029 C1028 1.386 . S
C1029 C1033 1.393 . S
C1030 H1022 0.950 . S
C1030 C1028 1.391 . S
C1030 C1031 1.400 . S
C1031 C1030 1.400 . S
C1031 C1032 1.398 . S
C1031 C1037 1.491 . S
C1032 H1023 0.950 . S
C1032 C1031 1.398 . S
C1032 C1033 1.391 . S
C1033 H1021 0.950 . S
C1033 C1029 1.393 . S
C1033 C1032 1.391 . S
C1034 H1024 0.950 . S
C1034 C1035 1.386 . S
C1034 C1036 1.391 . S
C1035 C1034 1.386 . S
C1035 C1039 1.393 . S
C1036 H1025 0.950 . S
C1036 C1034 1.391 . S
C1036 C1037 1.400 . S
C1037 C1031 1.491 . S
C1037 C1036 1.400 . S
C1037 C1038 1.398 . S
C1038 H1026 0.950 . S
C1038 C1037 1.398 . S
C1038 C1039 1.391 . S
C1039 H1027 0.950 . S
C1039 C1035 1.393 . S
C1039 C1038 1.391 . S
H1040 C1048 0.950 . S
H1041 C1053 0.950 . S
H1042 C1050 0.950 . S
H1043 C1052 0.950 . S
H1044 C1054 0.950 . S
H1045 C1056 0.950 . S
H1046 C1058 0.950 . S
H1047 C1059 0.950 . S
C1048 H1040 0.950 . S
C1048 C1049 1.386 . S
C1048 C1050 1.391 . S
C1049 C1048 1.386 . S
C1049 C1053 1.393 . S
C1050 H1042 0.950 . S
C1050 C1048 1.391 . S
C1050 C1051 1.400 . S
C1051 C1050 1.400 . S
C1051 C1052 1.398 . S
C1051 C1057 1.491 . S
C1052 H1043 0.950 . S
C1052 C1051 1.398 . S
C1052 C1053 1.391 . S
C1053 H1041 0.950 . S
C1053 C1049 1.393 . S
C1053 C1052 1.391 . S
C1054 H1044 0.950 . S
C1054 C1055 1.386 . S
C1054 C1056 1.391 . S
C1055 C1054 1.386 . S
C1055 C1059 1.393 . S
C1056 H1045 0.950 . S
C1056 C1054 1.391 . S
C1056 C1057 1.400 . S
C1057 C1051 1.491 . S
C1057 C1056 1.400 . S
C1057 C1058 1.398 . S
C1058 H1046 0.950 . S
C1058 C1057 1.398 . S
C1058 C1059 1.391 . S
C1059 H1047 0.950 . S
C1059 C1055 1.393 . S
C1059 C1058 1.391 . S
H1060 C1068 0.950 . S
H1061 C1073 0.950 . S
H1062 C1070 0.950 . S
H1063 C1072 0.950 . S
H1064 C1074 0.950 . S
H1065 C1076 0.950 . S
H1066 C1078 0.950 . S
H1067 C1079 0.950 . S
C1068 H1060 0.950 . S
C1068 C1069 1.386 . S
C1068 C1070 1.391 . S
C1069 C1068 1.386 . S
C1069 C1073 1.393 . S
C1070 H1062 0.950 . S
C1070 C1068 1.391 . S
C1070 C1071 1.400 . S
C1071 C1070 1.400 . S
C1071 C1072 1.398 . S
C1071 C1077 1.491 . S
C1072 H1063 0.950 . S
C1072 C1071 1.398 . S
C1072 C1073 1.391 . S
C1073 H1061 0.950 . S
C1073 C1069 1.393 . S
C1073 C1072 1.391 . S
C1074 H1064 0.950 . S
C1074 C1075 1.386 . S
C1074 C1076 1.391 . S
C1075 C1074 1.386 . S
C1075 C1079 1.393 . S
C1076 H1065 0.950 . S
C1076 C1074 1.391 . S
C1076 C1077 1.400 . S
C1077 C1071 1.491 . S
C1077 C1076 1.400 . S
C1077 C1078 1.398 . S
C1078 H1066 0.950 . S
C1078 C1077 1.398 . S
C1078 C1079 1.391 . S
C1079 H1067 0.950 . S
C1079 C1075 1.393 . S
C1079 C1078 1.391 . S
H1080 C1088 0.950 . S
H1081 C1093 0.950 . S
H1082 C1090 0.950 . S
H1083 C1092 0.950 . S
H1084 C1094 0.950 . S
H1085 C1096 0.950 . S
H1086 C1098 0.950 . S
H1087 C1099 0.950 . S
C1088 H1080 0.950 . S
C1088 C1089 1.386 . S
C1088 C1090 1.391 . S
C1089 C1088 1.386 . S
C1089 C1093 1.393 . S
C1090 H1082 0.950 . S
C1090 C1088 1.391 . S
C1090 C1091 1.400 . S
C1091 C1090 1.400 . S
C1091 C1092 1.398 . S
C1091 C1097 1.491 . S
C1092 H1083 0.950 . S
C1092 C1091 1.398 . S
C1092 C1093 1.391 . S
C1093 H1081 0.950 . S
C1093 C1089 1.393 . S
C1093 C1092 1.391 . S
C1094 H1084 0.950 . S
C1094 C1095 1.386 . S
C1094 C1096 1.391 . S
C1095 C1094 1.386 . S
C1095 C1099 1.393 . S
C1096 H1085 0.950 . S
C1096 C1094 1.391 . S
C1096 C1097 1.400 . S
C1097 C1091 1.491 . S
C1097 C1096 1.400 . S
C1097 C1098 1.398 . S
C1098 H1086 0.950 . S
C1098 C1097 1.398 . S
C1098 C1099 1.391 . S
C1099 H1087 0.950 . S
C1099 C1095 1.393 . S
C1099 C1098 1.391 . S
H1100 C1108 0.950 . S
H1101 C1113 0.950 . S
H1102 C1110 0.950 . S
H1103 C1112 0.950 . S
H1104 C1114 0.950 . S
H1105 C1116 0.950 . S
H1106 C1118 0.950 . S
H1107 C1119 0.950 . S
C1108 H1100 0.950 . S
C1108 C1109 1.386 . S
C1108 C1110 1.391 . S
C1109 C1108 1.386 . S
C1109 C1113 1.393 . S
C1110 H1102 0.950 . S
C1110 C1108 1.391 . S
C1110 C1111 1.400 . S
C1111 C1110 1.400 . S
C1111 C1112 1.398 . S
C1111 C1117 1.491 . S
C1112 H1103 0.950 . S
C1112 C1111 1.398 . S
C1112 C1113 1.391 . S
C1113 H1101 0.950 . S
C1113 C1109 1.393 . S
C1113 C1112 1.391 . S
C1114 H1104 0.950 . S
C1114 C1115 1.386 . S
C1114 C1116 1.391 . S
C1115 C1114 1.386 . S
C1115 C1119 1.393 . S
C1116 H1105 0.950 . S
C1116 C1114 1.391 . S
C1116 C1117 1.400 . S
C1117 C1111 1.491 . S
C1117 C1116 1.400 . S
C1117 C1118 1.398 . S
C1118 H1106 0.950 . S
C1118 C1117 1.398 . S
C1118 C1119 1.391 . S
C1119 H1107 0.950 . S
C1119 C1115 1.393 . S
C1119 C1118 1.391 . S
H1120 C1128 0.950 . S
H1121 C1133 0.950 . S
H1122 C1130 0.950 . S
H1123 C1132 0.950 . S
H1124 C1134 0.950 . S
H1125 C1136 0.950 . S
H1126 C1138 0.950 . S
H1127 C1139 0.950 . S
C1128 H1120 0.950 . S
C1128 C1129 1.386 . S
C1128 C1130 1.391 . S
C1129 C1128 1.386 . S
C1129 C1133 1.393 . S
C1130 H1122 0.950 . S
C1130 C1128 1.391 . S
C1130 C1131 1.400 . S
C1131 C1130 1.400 . S
C1131 C1132 1.398 . S
C1131 C1137 1.491 . S
C1132 H1123 0.950 . S
C1132 C1131 1.398 . S
C1132 C1133 1.391 . S
C1133 H1121 0.950 . S
C1133 C1129 1.393 . S
C1133 C1132 1.391 . S
C1134 H1124 0.950 . S
C1134 C1135 1.386 . S
C1134 C1136 1.391 . S
C1135 C1134 1.386 . S
C1135 C1139 1.393 . S
C1136 H1125 0.950 . S
C1136 C1134 1.391 . S
C1136 C1137 1.400 . S
C1137 C1131 1.491 . S
C1137 C1136 1.400 . S
C1137 C1138 1.398 . S
C1138 H1126 0.950 . S
C1138 C1137 1.398 . S
C1138 C1139 1.391 . S
C1139 H1127 0.950 . S
C1139 C1135 1.393 . S
C1139 C1138 1.391 . S
H1140 C1148 0.950 . S
H1141 C1153 0.950 . S
H1142 C1150 0.950 . S
H1143 C1152 0.950 . S
H1144 C1154 0.950 . S
H1145 C1156 0.950 . S
H1146 C1158 0.950 . S
H1147 C1159 0.950 . S
C1148 H1140 0.950 . S
C1148 C1149 1.386 . S
C1148 C1150 1.391 . S
C1149 C1148 1.386 . S
C1149 C1153 1.393 . S
C1150 H1142 0.950 . S
C1150 C1148 1.391 . S
C1150 C1151 1.400 . S
C1151 C1150 1.400 . S
C1151 C1152 1.398 . S
C1151 C1157 1.491 . S
C1152 H1143 0.950 . S
C1152 C1151 1.398 . S
C1152 C1153 1.391 . S
C1153 H1141 0.950 . S
C1153 C1149 1.393 . S
C1153 C1152 1.391 . S
C1154 H1144 0.950 . S
C1154 C1155 1.386 . S
C1154 C1156 1.391 . S
C1155 C1154 1.386 . S
C1155 C1159 1.393 . S
C1156 H1145 0.950 . S
C1156 C1154 1.391 . S
C1156 C1157 1.400 . S
C1157 C1151 1.491 . S
C1157 C1156 1.400 . S
C1157 C1158 1.398 . S
C1158 H1146 0.950 . S
C1158 C1157 1.398 . S
C1158 C1159 1.391 . S
C1159 H1147 0.950 . S
C1159 C1155 1.393 . S
C1159 C1158 1.391 . S
H1160 C1168 0.950 . S
H1161 C1173 0.950 . S
H1162 C1170 0.950 . S
H1163 C1172 0.950 . S
H1164 C1174 0.950 . S
H1165 C1176 0.950 . S
H1166 C1178 0.950 . S
H1167 C1179 0.950 . S
C1168 H1160 0.950 . S
C1168 C1169 1.386 . S
C1168 C1170 1.391 . S
C1169 C1168 1.386 . S
C1169 C1173 1.393 . S
C1170 H1162 0.950 . S
C1170 C1168 1.391 . S
C1170 C1171 1.400 . S
C1171 C1170 1.400 . S
C1171 C1172 1.398 . S
C1171 C1177 1.491 . S
C1172 H1163 0.950 . S
C1172 C1171 1.398 . S
C1172 C1173 1.391 . S
C1173 H1161 0.950 . S
C1173 C1169 1.393 . S
C1173 C1172 1.391 . S
C1174 H1164 0.950 . S
C1174 C1175 1.386 . S
C1174 C1176 1.391 . S
C1175 C1174 1.386 . S
C1175 C1179 1.393 . S
C1176 H1165 0.950 . S
C1176 C1174 1.391 . S
C1176 C1177 1.400 . S
C1177 C1171 1.491 . S
C1177 C1176 1.400 . S
C1177 C1178 1.398 . S
C1178 H1166 0.950 . S
C1178 C1177 1.398 . S
C1178 C1179 1.391 . S
C1179 H1167 0.950 . S
C1179 C1175 1.393 . S
C1179 C1178 1.391 . S
H1180 C1188 0.950 . S
H1181 C1193 0.950 . S
H1182 C1190 0.950 . S
H1183 C1192 0.950 . S
H1184 C1194 0.950 . S
H1185 C1196 0.950 . S
H1186 C1198 0.950 . S
H1187 C1199 0.950 . S
C1188 H1180 0.950 . S
C1188 C1189 1.386 . S
C1188 C1190 1.391 . S
C1189 C1188 1.386 . S
C1189 C1193 1.393 . S
C1190 H1182 0.950 . S
C1190 C1188 1.391 . S
C1190 C1191 1.400 . S
C1191 C1190 1.400 . S
C1191 C1192 1.398 . S
C1191 C1197 1.491 . S
C1192 H1183 0.950 . S
C1192 C1191 1.398 . S
C1192 C1193 1.391 . S
C1193 H1181 0.950 . S
C1193 C1189 1.393 . S
C1193 C1192 1.391 . S
C1194 H1184 0.950 . S
C1194 C1195 1.386 . S
C1194 C1196 1.391 . S
C1195 C1194 1.386 . S
C1195 C1199 1.393 . S
C1196 H1185 0.950 . S
C1196 C1194 1.391 . S
C1196 C1197 1.400 . S
C1197 C1191 1.491 . S
C1197 C1196 1.400 . S
C1197 C1198 1.398 . S
C1198 H1186 0.950 . S
C1198 C1197 1.398 . S
C1198 C1199 1.391 . S
C1199 H1187 0.950 . S
C1199 C1195 1.393 . S
C1199 C1198 1.391 . S
H1200 C1208 0.950 . S
H1201 C1213 0.950 . S
H1202 C1210 0.950 . S
H1203 C1212 0.950 . S
H1204 C1214 0.950 . S
H1205 C1216 0.950 . S
H1206 C1218 0.950 . S
H1207 C1219 0.950 . S
C1208 H1200 0.950 . S
C1208 C1209 1.386 . S
C1208 C1210 1.391 . S
C1209 C1208 1.386 . S
C1209 C1213 1.393 . S
C1210 H1202 0.950 . S
C1210 C1208 1.391 . S
C1210 C1211 1.400 . S
C1211 C1210 1.400 . S
C1211 C1212 1.398 . S
C1211 C1217 1.491 . S
C1212 H1203 0.950 . S
C1212 C1211 1.398 . S
C1212 C1213 1.391 . S
C1213 H1201 0.950 . S
C1213 C1209 1.393 . S
C1213 C1212 1.391 . S
C1214 H1204 0.950 . S
C1214 C1215 1.386 . S
C1214 C1216 1.391 . S
C1215 C1214 1.386 . S
C1215 C1219 1.393 . S
C1216 H1205 0.950 . S
C1216 C1214 1.391 . S
C1216 C1217 1.400 . S
C1217 C1211 1.491 . S
C1217 C1216 1.400 . S
C1217 C1218 1.398 . S
C1218 H1206 0.950 . S
C1218 C1217 1.398 . S
C1218 C1219 1.391 . S
C1219 H1207 0.950 . S
C1219 C1215 1.393 . S
C1219 C1218 1.391 . S
H1220 C1228 0.950 . S
H1221 C1233 0.950 . S
H1222 C1230 0.950 . S
H1223 C1232 0.950 . S
H1224 C1234 0.950 . S
H1225 C1236 0.950 . S
H1226 C1238 0.950 . S
H1227 C1239 0.950 . S
C1228 H1220 0.950 . S
C1228 C1229 1.386 . S
C1228 C1230 1.391 . S
C1229 C1228 1.386 . S
C1229 C1233 1.393 . S
C1230 H1222 0.950 . S
C1230 C1228 1.391 . S
C1230 C1231 1.400 . S
C1231 C1230 1.400 . S
C1231 C1232 1.398 . S
C1231 C1237 1.491 . S
C1232 H1223 0.950 . S
C1232 C1231 1.398 . S
C1232 C1233 1.391 . S
C1233 H1221 0.950 . S
C1233 C1229 1.393 . S
C1233 C1232 1.391 . S
C1234 H1224 0.950 . S
C1234 C1235 1.386 . S
C1234 C1236 1.391 . S
C1235 C1234 1.386 . S
C1235 C1239 1.393 . S
C1236 H1225 0.950 . S
C1236 C1234 1.391 . S
C1236 C1237 1.400 . S
C1237 C1231 1.491 . S
C1237 C1236 1.400 . S
C1237 C1238 1.398 . S
C1238 H1226 0.950 . S
C1238 C1237 1.398 . S
C1238 C1239 1.391 . S
C1239 H1227 0.950 . S
C1239 C1235 1.393 . S
C1239 C1238 1.391 . S
H1240 C1248 0.950 . S
H1241 C1253 0.950 . S
H1242 C1250 0.950 . S
H1243 C1252 0.950 . S
H1244 C1254 0.950 . S
H1245 C1256 0.950 . S
H1246 C1258 0.950 . S
H1247 C1259 0.950 . S
C1248 H1240 0.950 . S
C1248 C1249 1.386 . S
C1248 C1250 1.391 . S
C1249 C1248 1.386 . S
C1249 C1253 1.393 . S
C1250 H1242 0.950 . S
C1250 C1248 1.391 . S
C1250 C1251 1.400 . S
C1251 C1250 1.400 . S
C1251 C1252 1.398 . S
C1251 C1257 1.491 . S
C1252 H1243 0.950 . S
C1252 C1251 1.398 . S
C1252 C1253 1.391 . S
C1253 H1241 0.950 . S
C1253 C1249 1.393 . S
C1253 C1252 1.391 . S
C1254 H1244 0.950 . S
C1254 C1255 1.386 . S
C1254 C1256 1.391 . S
C1255 C1254 1.386 . S
C1255 C1259 1.393 . S
C1256 H1245 0.950 . S
C1256 C1254 1.391 . S
C1256 C1257 1.400 . S
C1257 C1251 1.491 . S
C1257 C1256 1.400 . S
C1257 C1258 1.398 . S
C1258 H1246 0.950 . S
C1258 C1257 1.398 . S
C1258 C1259 1.391 . S
C1259 H1247 0.950 . S
C1259 C1255 1.393 . S
C1259 C1258 1.391 . S
H1260 C1268 0.950 . S
H1261 C1273 0.950 . S
H1262 C1270 0.950 . S
H1263 C1272 0.950 . S
H1264 C1274 0.950 . S
H1265 C1276 0.950 . S
H1266 C1278 0.950 . S
H1267 C1279 0.950 . S
C1268 H1260 0.950 . S
C1268 C1269 1.386 . S
C1268 C1270 1.391 . S
C1269 C1268 1.386 . S
C1269 C1273 1.393 . S
C1270 H1262 0.950 . S
C1270 C1268 1.391 . S
C1270 C1271 1.400 . S
C1271 C1270 1.400 . S
C1271 C1272 1.398 . S
C1271 C1277 1.491 . S
C1272 H1263 0.950 . S
C1272 C1271 1.398 . S
C1272 C1273 1.391 . S
C1273 H1261 0.950 . S
C1273 C1269 1.393 . S
C1273 C1272 1.391 . S
C1274 H1264 0.950 . S
C1274 C1275 1.386 . S
C1274 C1276 1.391 . S
C1275 C1274 1.386 . S
C1275 C1279 1.393 . S
C1276 H1265 0.950 . S
C1276 C1274 1.391 . S
C1276 C1277 1.400 . S
C1277 C1271 1.491 . S
C1277 C1276 1.400 . S
C1277 C1278 1.398 . S
C1278 H1266 0.950 . S
C1278 C1277 1.398 . S
C1278 C1279 1.391 . S
C1279 H1267 0.950 . S
C1279 C1275 1.393 . S
C1279 C1278 1.391 . S
H1280 C1288 0.950 . S
H1281 C1293 0.950 . S
H1282 C1290 0.950 . S
H1283 C1292 0.950 . S
H1284 C1294 0.950 . S
H1285 C1296 0.950 . S
H1286 C1298 0.950 . S
H1287 C1299 0.950 . S
C1288 H1280 0.950 . S
C1288 C1289 1.386 . S
C1288 C1290 1.391 . S
C1289 C1288 1.386 . S
C1289 C1293 1.393 . S
C1290 H1282 0.950 . S
C1290 C1288 1.391 . S
C1290 C1291 1.400 . S
C1291 C1290 1.400 . S
C1291 C1292 1.398 . S
C1291 C1297 1.491 . S
C1292 H1283 0.950 . S
C1292 C1291 1.398 . S
C1292 C1293 1.391 . S
C1293 H1281 0.950 . S
C1293 C1289 1.393 . S
C1293 C1292 1.391 . S
C1294 H1284 0.950 . S
C1294 C1295 1.386 . S
C1294 C1296 1.391 . S
C1295 C1294 1.386 . S
C1295 C1299 1.393 . S
C1296 H1285 0.950 . S
C1296 C1294 1.391 . S
C1296 C1297 1.400 . S
C1297 C1291 1.491 . S
C1297 C1296 1.400 . S
C1297 C1298 1.398 . S
C1298 H1286 0.950 . S
C1298 C1297 1.398 . S
C1298 C1299 1.391 . S
C1299 H1287 0.950 . S
C1299 C1295 1.393 . S
C1299 C1298 1.391 . S
H1300 C1308 0.950 . S
H1301 C1313 0.950 . S
H1302 C1310 0.950 . S
H1303 C1312 0.950 . S
H1304 C1314 0.950 . S
H1305 C1316 0.950 . S
H1306 C1318 0.950 . S
H1307 C1319 0.950 . S
C1308 H1300 0.950 . S
C1308 C1309 1.386 . S
C1308 C1310 1.391 . S
C1309 C1308 1.386 . S
C1309 C1313 1.393 . S
C1310 H1302 0.950 . S
C1310 C1308 1.391 . S
C1310 C1311 1.400 . S
C1311 C1310 1.400 . S
C1311 C1312 1.398 . S
C1311 C1317 1.491 . S
C1312 H1303 0.950 . S
C1312 C1311 1.398 . S
C1312 C1313 1.391 . S
C1313 H1301 0.950 . S
C1313 C1309 1.393 . S
C1313 C1312 1.391 . S
C1314 H1304 0.950 . S
C1314 C1315 1.386 . S
C1314 C1316 1.391 . S
C1315 C1314 1.386 . S
C1315 C1319 1.393 . S
C1316 H1305 0.950 . S
C1316 C1314 1.391 . S
C1316 C1317 1.400 . S
C1317 C1311 1.491 . S
C1317 C1316 1.400 . S
C1317 C1318 1.398 . S
C1318 H1306 0.950 . S
C1318 C1317 1.398 . S
C1318 C1319 1.391 . S
C1319 H1307 0.950 . S
C1319 C1315 1.393 . S
C1319 C1318 1.391 . S
H1320 C1328 0.950 . S
H1321 C1333 0.950 . S
H1322 C1330 0.950 . S
H1323 C1332 0.950 . S
H1324 C1334 0.950 . S
H1325 C1336 0.950 . S
H1326 C1338 0.950 . S
H1327 C1339 0.950 . S
C1328 H1320 0.950 . S
C1328 C1329 1.386 . S
C1328 C1330 1.391 . S
C1329 C1328 1.386 . S
C1329 C1333 1.393 . S
C1330 H1322 0.950 . S
C1330 C1328 1.391 . S
C1330 C1331 1.400 . S
C1331 C1330 1.400 . S
C1331 C1332 1.398 . S
C1331 C1337 1.491 . S
C1332 H1323 0.950 . S
C1332 C1331 1.398 . S
C1332 C1333 1.391 . S
C1333 H1321 0.950 . S
C1333 C1329 1.393 . S
C1333 C1332 1.391 . S
C1334 H1324 0.950 . S
C1334 C1335 1.386 . S
C1334 C1336 1.391 . S
C1335 C1334 1.386 . S
C1335 C1339 1.393 . S
C1336 H1325 0.950 . S
C1336 C1334 1.391 . S
C1336 C1337 1.400 . S
C1337 C1331 1.491 . S
C1337 C1336 1.400 . S
C1337 C1338 1.398 . S
C1338 H1326 0.950 . S
C1338 C1337 1.398 . S
C1338 C1339 1.391 . S
C1339 H1327 0.950 . S
C1339 C1335 1.393 . S
C1339 C1338 1.391 . S
H1340 C1348 0.950 . S
H1341 C1353 0.950 . S
H1342 C1350 0.950 . S
H1343 C1352 0.950 . S
H1344 C1354 0.950 . S
H1345 C1356 0.950 . S
H1346 C1358 0.950 . S
H1347 C1359 0.950 . S
C1348 H1340 0.950 . S
C1348 C1349 1.386 . S
C1348 C1350 1.391 . S
C1349 C1348 1.386 . S
C1349 C1353 1.393 . S
C1350 H1342 0.950 . S
C1350 C1348 1.391 . S
C1350 C1351 1.400 . S
C1351 C1350 1.400 . S
C1351 C1352 1.398 . S
C1351 C1357 1.491 . S
C1352 H1343 0.950 . S
C1352 C1351 1.398 . S
C1352 C1353 1.391 . S
C1353 H1341 0.950 . S
C1353 C1349 1.393 . S
C1353 C1352 1.391 . S
C1354 H1344 0.950 . S
C1354 C1355 1.386 . S
C1354 C1356 1.391 . S
C1355 C1354 1.386 . S
C1355 C1359 1.393 . S
C1356 H1345 0.950 . S
C1356 C1354 1.391 . S
C1356 C1357 1.400 . S
C1357 C1351 1.491 . S
C1357 C1356 1.400 . S
C1357 C1358 1.398 . S
C1358 H1346 0.950 . S
C1358 C1357 1.398 . S
C1358 C1359 1.391 . S
C1359 H1347 0.950 . S
C1359 C1355 1.393 . S
C1359 C1358 1.391 . S
H1360 C1368 0.950 . S
H1361 C1373 0.950 . S
H1362 C1370 0.950 . S
H1363 C1372 0.950 . S
H1364 C1374 0.950 . S
H1365 C1376 0.950 . S
H1366 C1378 0.950 . S
H1367 C1379 0.950 . S
C1368 H1360 0.950 . S
C1368 C1369 1.386 . S
C1368 C1370 1.391 . S
C1369 C1368 1.386 . S
C1369 C1373 1.393 . S
C1370 H1362 0.950 . S
C1370 C1368 1.391 . S
C1370 C1371 1.400 . S
C1371 C1370 1.400 . S
C1371 C1372 1.398 . S
C1371 C1377 1.491 . S
C1372 H1363 0.950 . S
C1372 C1371 1.398 . S
C1372 C1373 1.391 . S
C1373 H1361 0.950 . S
C1373 C1369 1.393 . S
C1373 C1372 1.391 . S
C1374 H1364 0.950 . S
C1374 C1375 1.386 . S
C1374 C1376 1.391 . S
C1375 C1374 1.386 . S
C1375 C1379 1.393 . S
C1376 H1365 0.950 . S
C1376 C1374 1.391 . S
C1376 C1377 1.400 . S
C1377 C1371 1.491 . S
C1377 C1376 1.400 . S
C1377 C1378 1.398 . S
C1378 H1366 0.950 . S
C1378 C1377 1.398 . S
C1378 C1379 1.391 . S
C1379 H1367 0.950 . S
C1379 C1375 1.393 . S
C1379 C1378 1.391 . S
H1380 C1388 0.950 . S
H1381 C1393 0.950 . S
H1382 C1390 0.950 . S
H1383 C1392 0.950 . S
H1384 C1394 0.950 . S
H1385 C1396 0.950 . S
H1386 C1398 0.950 . S
H1387 C1399 0.950 . S
C1388 H1380 0.950 . S
C1388 C1389 1.386 . S
C1388 C1390 1.391 . S
C1389 C1388 1.386 . S
C1389 C1393 1.393 . S
C1390 H1382 0.950 . S
C1390 C1388 1.391 . S
C1390 C1391 1.400 . S
C1391 C1390 1.400 . S
C1391 C1392 1.398 . S
C1391 C1397 1.491 . S
C1392 H1383 0.950 . S
C1392 C1391 1.398 . S
C1392 C1393 1.391 . S
C1393 H1381 0.950 . S
C1393 C1389 1.393 . S
C1393 C1392 1.391 . S
C1394 H1384 0.950 . S
C1394 C1395 1.386 . S
C1394 C1396 1.391 . S
C1395 C1394 1.386 . S
C1395 C1399 1.393 . S
C1396 H1385 0.950 . S
C1396 C1394 1.391 . S
C1396 C1397 1.400 . S
C1397 C1391 1.491 . S
C1397 C1396 1.400 . S
C1397 C1398 1.398 . S
C1398 H1386 0.950 . S
C1398 C1397 1.398 . S
C1398 C1399 1.391 . S
C1399 H1387 0.950 . S
C1399 C1395 1.393 . S
C1399 C1398 1.391 . S
H1400 C1408 0.950 . S
H1401 C1413 0.950 . S
H1402 C1410 0.950 . S
H1403 C1412 0.950 . S
H1404 C1414 0.950 . S
H1405 C1416 0.950 . S
H1406 C1418 0.950 . S
H1407 C1419 0.950 . S
C1408 H1400 0.950 . S
C1408 C1409 1.386 . S
C1408 C1410 1.391 . S
C1409 C1408 1.386 . S
C1409 C1413 1.393 . S
C1410 H1402 0.950 . S
C1410 C1408 1.391 . S
C1410 C1411 1.400 . S
C1411 C1410 1.400 . S
C1411 C1412 1.398 . S
C1411 C1417 1.491 . S
C1412 H1403 0.950 . S
C1412 C1411 1.398 . S
C1412 C1413 1.391 . S
C1413 H1401 0.950 . S
C1413 C1409 1.393 . S
C1413 C1412 1.391 . S
C1414 H1404 0.950 . S
C1414 C1415 1.386 . S
C1414 C1416 1.391 . S
C1415 C1414 1.386 . S
C1415 C1419 1.393 . S
C1416 H1405 0.950 . S
C1416 C1414 1.391 . S
C1416 C1417 1.400 . S
C1417 C1411 1.491 . S
C1417 C1416 1.400 . S
C1417 C1418 1.398 . S
C1418 H1406 0.950 . S
C1418 C1417 1.398 . S
C1418 C1419 1.391 . S
C1419 H1407 0.950 . S
C1419 C1415 1.393 . S
C1419 C1418 1.391 . S
H1420 C1428 0.950 . S
H1421 C1433 0.950 . S
H1422 C1430 0.950 . S
H1423 C1432 0.950 . S
H1424 C1434 0.950 . S
H1425 C1436 0.950 . S
H1426 C1438 0.950 . S
H1427 C1439 0.950 . S
C1428 H1420 0.950 . S
C1428 C1429 1.386 . S
C1428 C1430 1.391 . S
C1429 C1428 1.386 . S
C1429 C1433 1.393 . S
C1430 H1422 0.950 . S
C1430 C1428 1.391 . S
C1430 C1431 1.400 . S
C1431 C1430 1.400 . S
C1431 C1432 1.398 . S
C1431 C1437 1.491 . S
C1432 H1423 0.950 . S
C1432 C1431 1.398 . S
C1432 C1433 1.391 . S
C1433 H1421 0.950 . S
C1433 C1429 1.393 . S
C1433 C1432 1.391 . S
C1434 H1424 0.950 . S
C1434 C1435 1.386 . S
C1434 C1436 1.391 . S
C1435 C1434 1.386 . S
C1435 C1439 1.393 . S
C1436 H1425 0.950 . S
C1436 C1434 1.391 . S
C1436 C1437 1.400 . S
C1437 C1431 1.491 . S
C1437 C1436 1.400 . S
C1437 C1438 1.398 . S
C1438 H1426 0.950 . S
C1438 C1437 1.398 . S
C1438 C1439 1.391 . S
C1439 H1427 0.950 . S
C1439 C1435 1.393 . S
C1439 C1438 1.391 . S
H1440 C1448 0.950 . S
H1441 C1453 0.950 . S
H1442 C1450 0.950 . S
H1443 C1452 0.950 . S
H1444 C1454 0.950 . S
H1445 C1456 0.950 . S
H1446 C1458 0.950 . S
H1447 C1459 0.950 . S
C1448 H1440 0.950 . S
C1448 C1449 1.386 . S
C1448 C1450 1.391 . S
C1449 C1448 1.386 . S
C1449 C1453 1.393 . S
C1450 H1442 0.950 . S
C1450 C1448 1.391 . S
C1450 C1451 1.400 . S
C1451 C1450 1.400 . S
C1451 C1452 1.398 . S
C1451 C1457 1.491 . S
C1452 H1443 0.950 . S
C1452 C1451 1.398 . S
C1452 C1453 1.391 . S
C1453 H1441 0.950 . S
C1453 C1449 1.393 . S
C1453 C1452 1.391 . S
C1454 H1444 0.950 . S
C1454 C1455 1.386 . S
C1454 C1456 1.391 . S
C1455 C1454 1.386 . S
C1455 C1459 1.393 . S
C1456 H1445 0.950 . S
C1456 C1454 1.391 . S
C1456 C1457 1.400 . S
C1457 C1451 1.491 . S
C1457 C1456 1.400 . S
C1457 C1458 1.398 . S
C1458 H1446 0.950 . S
C1458 C1457 1.398 . S
C1458 C1459 1.391 . S
C1459 H1447 0.950 . S
C1459 C1455 1.393 . S
C1459 C1458 1.391 . S
H1460 C1468 0.950 . S
H1461 C1473 0.950 . S
H1462 C1470 0.950 . S
H1463 C1472 0.950 . S
H1464 C1474 0.950 . S
H1465 C1476 0.950 . S
H1466 C1478 0.950 . S
H1467 C1479 0.950 . S
C1468 H1460 0.950 . S
C1468 C1469 1.386 . S
C1468 C1470 1.391 . S
C1469 C1468 1.386 . S
C1469 C1473 1.393 . S
C1470 H1462 0.950 . S
C1470 C1468 1.391 . S
C1470 C1471 1.400 . S
C1471 C1470 1.400 . S
C1471 C1472 1.398 . S
C1471 C1477 1.491 . S
C1472 H1463 0.950 . S
C1472 C1471 1.398 . S
C1472 C1473 1.391 . S
C1473 H1461 0.950 . S
C1473 C1469 1.393 . S
C1473 C1472 1.391 . S
C1474 H1464 0.950 . S
C1474 C1475 1.386 . S
C1474 C1476 1.391 . S
C1475 C1474 1.386 . S
C1475 C1479 1.393 . S
C1476 H1465 0.950 . S
C1476 C1474 1.391 . S
C1476 C1477 1.400 . S
C1477 C1471 1.491 . S
C1477 C1476 1.400 . S
C1477 C1478 1.398 . S
C1478 H1466 0.950 . S
C1478 C1477 1.398 . S
C1478 C1479 1.391 . S
C1479 H1467 0.950 . S
C1479 C1475 1.393 . S
C1479 C1478 1.391 . S
H1480 C1488 0.950 . S
H1481 C1493 0.950 . S
H1482 C1490 0.950 . S
H1483 C1492 0.950 . S
H1484 C1494 0.950 . S
H1485 C1496 0.950 . S
H1486 C1498 0.950 . S
H1487 C1499 0.950 . S
C1488 H1480 0.950 . S
C1488 C1489 1.386 . S
C1488 C1490 1.391 . S
C1489 C1488 1.386 . S
C1489 C1493 1.393 . S
C1490 H1482 0.950 . S
C1490 C1488 1.391 . S
C1490 C1491 1.400 . S
C1491 C1490 1.400 . S
C1491 C1492 1.398 . S
C1491 C1497 1.491 . S
C1492 H1483 0.950 . S
C1492 C1491 1.398 . S
C1492 C1493 1.391 . S
C1493 H1481 0.950 . S
C1493 C1489 1.393 . S
C1493 C1492 1.391 . S
C1494 H1484 0.950 . S
C1494 C1495 1.386 . S
C1494 C1496 1.391 . S
C1495 C1494 1.386 . S
C1495 C1499 1.393 . S
C1496 H1485 0.950 . S
C1496 C1494 1.391 . S
C1496 C1497 1.400 . S
C1497 C1491 1.491 . S
C1497 C1496 1.400 . S
C1497 C1498 1.398 . S
C1498 H1486 0.950 . S
C1498 C1497 1.398 . S
C1498 C1499 1.391 . S
C1499 H1487 0.950 . S
C1499 C1495 1.393 . S
C1499 C1498 1.391 . S
H1500 C1508 0.950 . S
H1501 C1513 0.950 . S
H1502 C1510 0.950 . S
H1503 C1512 0.950 . S
H1504 C1514 0.950 . S
H1505 C1516 0.950 . S
H1506 C1518 0.950 . S
H1507 C1519 0.950 . S
C1508 H1500 0.950 . S
C1508 C1509 1.386 . S
C1508 C1510 1.391 . S
C1509 C1508 1.386 . S
C1509 C1513 1.393 . S
C1510 H1502 0.950 . S
C1510 C1508 1.391 . S
C1510 C1511 1.400 . S
C1511 C1510 1.400 . S
C1511 C1512 1.398 . S
C1511 C1517 1.491 . S
C1512 H1503 0.950 . S
C1512 C1511 1.398 . S
C1512 C1513 1.391 . S
C1513 H1501 0.950 . S
C1513 C1509 1.393 . S
C1513 C1512 1.391 . S
C1514 H1504 0.950 . S
C1514 C1515 1.386 . S
C1514 C1516 1.391 . S
C1515 C1514 1.386 . S
C1515 C1519 1.393 . S
C1516 H1505 0.950 . S
C1516 C1514 1.391 . S
C1516 C1517 1.400 . S
C1517 C1511 1.491 . S
C1517 C1516 1.400 . S
C1517 C1518 1.398 . S
C1518 H1506 0.950 . S
C1518 C1517 1.398 . S
C1518 C1519 1.391 . S
C1519 H1507 0.950 . S
C1519 C1515 1.393 . S
C1519 C1518 1.391 . S
H1520 C1528 0.950 . S
H1521 C1533 0.950 . S
H1522 C1530 0.950 . S
H1523 C1532 0.950 . S
H1524 C1534 0.950 . S
H1525 C1536 0.950 . S
H1526 C1538 0.950 . S
H1527 C1539 0.950 . S
C1528 H1520 0.950 . S
C1528 C1529 1.386 . S
C1528 C1530 1.391 . S
C1529 C1528 1.386 . S
C1529 C1533 1.393 . S
C1530 H1522 0.950 . S
C1530 C1528 1.391 . S
C1530 C1531 1.400 . S
C1531 C1530 1.400 . S
C1531 C1532 1.398 . S
C1531 C1537 1.491 . S
C1532 H1523 0.950 . S
C1532 C1531 1.398 . S
C1532 C1533 1.391 . S
C1533 H1521 0.950 . S
C1533 C1529 1.393 . S
C1533 C1532 1.391 . S
C1534 H1524 0.950 . S
C1534 C1535 1.386 . S
C1534 C1536 1.391 . S
C1535 C1534 1.386 . S
C1535 C1539 1.393 . S
C1536 H1525 0.950 . S
C1536 C1534 1.391 . S
C1536 C1537 1.400 . S
C1537 C1531 1.491 . S
C1537 C1536 1.400 . S
C1537 C1538 1.398 . S
C1538 H1526 0.950 . S
C1538 C1537 1.398 . S
C1538 C1539 1.391 . S
C1539 H1527 0.950 . S
C1539 C1535 1.393 . S
C1539 C1538 1.391 . S
H1540 C1548 0.950 . S
H1541 C1553 0.950 . S
H1542 C1550 0.950 . S
H1543 C1552 0.950 . S
H1544 C1554 0.950 . S
H1545 C1556 0.950 . S
H1546 C1558 0.950 . S
H1547 C1559 0.950 . S
C1548 H1540 0.950 . S
C1548 C1549 1.386 . S
C1548 C1550 1.391 . S
C1549 C1548 1.386 . S
C1549 C1553 1.393 . S
C1550 H1542 0.950 . S
C1550 C1548 1.391 . S
C1550 C1551 1.400 . S
C1551 C1550 1.400 . S
C1551 C1552 1.398 . S
C1551 C1557 1.491 . S
C1552 H1543 0.950 . S
C1552 C1551 1.398 . S
C1552 C1553 1.391 . S
C1553 H1541 0.950 . S
C1553 C1549 1.393 . S
C1553 C1552 1.391 . S
C1554 H1544 0.950 . S
C1554 C1555 1.386 . S
C1554 C1556 1.391 . S
C1555 C1554 1.386 . S
C1555 C1559 1.393 . S
C1556 H1545 0.950 . S
C1556 C1554 1.391 . S
C1556 C1557 1.400 . S
C1557 C1551 1.491 . S
C1557 C1556 1.400 . S
C1557 C1558 1.398 . S
C1558 H1546 0.950 . S
C1558 C1557 1.398 . S
C1558 C1559 1.391 . S
C1559 H1547 0.950 . S
C1559 C1555 1.393 . S
C1559 C1558 1.391 . S
H1560 C1568 0.950 . S
H1561 C1573 0.950 . S
H1562 C1570 0.950 . S
H1563 C1572 0.950 . S
H1564 C1574 0.950 . S
H1565 C1576 0.950 . S
H1566 C1578 0.950 . S
H1567 C1579 0.950 . S
C1568 H1560 0.950 . S
C1568 C1569 1.386 . S
C1568 C1570 1.391 . S
C1569 C1568 1.386 . S
C1569 C1573 1.393 . S
C1570 H1562 0.950 . S
C1570 C1568 1.391 . S
C1570 C1571 1.400 . S
C1571 C1570 1.400 . S
C1571 C1572 1.398 . S
C1571 C1577 1.491 . S
C1572 H1563 0.950 . S
C1572 C1571 1.398 . S
C1572 C1573 1.391 . S
C1573 H1561 0.950 . S
C1573 C1569 1.393 . S
C1573 C1572 1.391 . S
C1574 H1564 0.950 . S
C1574 C1575 1.386 . S
C1574 C1576 1.391 . S
C1575 C1574 1.386 . S
C1575 C1579 1.393 . S
C1576 H1565 0.950 . S
C1576 C1574 1.391 . S
C1576 C1577 1.400 . S
C1577 C1571 1.491 . S
C1577 C1576 1.400 . S
C1577 C1578 1.398 . S
C1578 H1566 0.950 . S
C1578 C1577 1.398 . S
C1578 C1579 1.391 . S
C1579 H1567 0.950 . S
C1579 C1575 1.393 . S
C1579 C1578 1.391 . S
H1580 C1588 0.950 . S
H1581 C1593 0.950 . S
H1582 C1590 0.950 . S
H1583 C1592 0.950 . S
H1584 C1594 0.950 . S
H1585 C1596 0.950 . S
H1586 C1598 0.950 . S
H1587 C1599 0.950 . S
C1588 H1580 0.950 . S
C1588 C1589 1.386 . S
C1588 C1590 1.391 . S
C1589 C1588 1.386 . S
C1589 C1593 1.393 . S
C1590 H1582 0.950 . S
C1590 C1588 1.391 . S
C1590 C1591 1.400 . S
C1591 C1590 1.400 . S
C1591 C1592 1.398 . S
C1591 C1597 1.491 . S
C1592 H1583 0.950 . S
C1592 C1591 1.398 . S
C1592 C1593 1.391 . S
C1593 H1581 0.950 . S
C1593 C1589 1.393 . S
C1593 C1592 1.391 . S
C1594 H1584 0.950 . S
C1594 C1595 1.386 . S
C1594 C1596 1.391 . S
C1595 C1594 1.386 . S
C1595 C1599 1.393 . S
C1596 H1585 0.950 . S
C1596 C1594 1.391 . S
C1596 C1597 1.400 . S
C1597 C1591 1.491 . S
C1597 C1596 1.400 . S
C1597 C1598 1.398 . S
C1598 H1586 0.950 . S
C1598 C1597 1.398 . S
C1598 C1599 1.391 . S
C1599 H1587 0.950 . S
C1599 C1595 1.393 . S
C1599 C1598 1.391 . S
H1600 C1608 0.950 . S
H1601 C1613 0.950 . S
H1602 C1610 0.950 . S
H1603 C1612 0.950 . S
H1604 C1614 0.950 . S
H1605 C1616 0.950 . S
H1606 C1618 0.950 . S
H1607 C1619 0.950 . S
C1608 H1600 0.950 . S
C1608 C1609 1.386 . S
C1608 C1610 1.391 . S
C1609 C1608 1.386 . S
C1609 C1613 1.393 . S
C1610 H1602 0.950 . S
C1610 C1608 1.391 . S
C1610 C1611 1.400 . S
C1611 C1610 1.400 . S
C1611 C1612 1.398 . S
C1611 C1617 1.491 . S
C1612 H1603 0.950 . S
C1612 C1611 1.398 . S
C1612 C1613 1.391 . S
C1613 H1601 0.950 . S
C1613 C1609 1.393 . S
C1613 C1612 1.391 . S
C1614 H1604 0.950 . S
C1614 C1615 1.386 . S
C1614 C1616 1.391 . S
C1615 C1614 1.386 . S
C1615 C1619 1.393 . S
C1616 H1605 0.950 . S
C1616 C1614 1.391 . S
C1616 C1617 1.400 . S
C1617 C1611 1.491 . S
C1617 C1616 1.400 . S
C1617 C1618 1.398 . S
C1618 H1606 0.950 . S
C1618 C1617 1.398 . S
C1618 C1619 1.391 . S
C1619 H1607 0.950 . S
C1619 C1615 1.393 . S
C1619 C1618 1.391 . S
H1620 C1628 0.950 . S
H1621 C1633 0.950 . S
H1622 C1630 0.950 . S
H1623 C1632 0.950 . S
H1624 C1634 0.950 . S
H1625 C1636 0.950 . S
H1626 C1638 0.950 . S
H1627 C1639 0.950 . S
C1628 H1620 0.950 . S
C1628 C1629 1.386 . S
C1628 C1630 1.391 . S
C1629 C1628 1.386 . S
C1629 C1633 1.393 . S
C1630 H1622 0.950 . S
C1630 C1628 1.391 . S
C1630 C1631 1.400 . S
C1631 C1630 1.400 . S
C1631 C1632 1.398 . S
C1631 C1637 1.491 . S
C1632 H1623 0.950 . S
C1632 C1631 1.398 . S
C1632 C1633 1.391 . S
C1633 H1621 0.950 . S
C1633 C1629 1.393 . S
C1633 C1632 1.391 . S
C1634 H1624 0.950 . S
C1634 C1635 1.386 . S
C1634 C1636 1.391 . S
C1635 C1634 1.386 . S
C1635 C1639 1.393 . S
C1636 H1625 0.950 . S
C1636 C1634 1.391 . S
C1636 C1637 1.400 . S
C1637 C1631 1.491 . S
C1637 C1636 1.400 . S
C1637 C1638 1.398 . S
C1638 H1626 0.950 . S
C1638 C1637 1.398 . S
C1638 C1639 1.391 . S
C1639 H1627 0.950 . S
C1639 C1635 1.393 . S
C1639 C1638 1.391 . S
H1640 C1648 0.950 . S
H1641 C1653 0.950 . S
H1642 C1650 0.950 . S
H1643 C1652 0.950 . S
H1644 C1654 0.950 . S
H1645 C1656 0.950 . S
H1646 C1658 0.950 . S
H1647 C1659 0.950 . S
C1648 H1640 0.950 . S
C1648 C1649 1.386 . S
C1648 C1650 1.391 . S
C1649 C1648 1.386 . S
C1649 C1653 1.393 . S
C1650 H1642 0.950 . S
C1650 C1648 1.391 . S
C1650 C1651 1.400 . S
C1651 C1650 1.400 . S
C1651 C1652 1.398 . S
C1651 C1657 1.491 . S
C1652 H1643 0.950 . S
C1652 C1651 1.398 . S
C1652 C1653 1.391 . S
C1653 H1641 0.950 . S
C1653 C1649 1.393 . S
C1653 C1652 1.391 . S
C1654 H1644 0.950 . S
C1654 C1655 1.386 . S
C1654 C1656 1.391 . S
C1655 C1654 1.386 . S
C1655 C1659 1.393 . S
C1656 H1645 0.950 . S
C1656 C1654 1.391 . S
C1656 C1657 1.400 . S
C1657 C1651 1.491 . S
C1657 C1656 1.400 . S
C1657 C1658 1.398 . S
C1658 H1646 0.950 . S
C1658 C1657 1.398 . S
C1658 C1659 1.391 . S
C1659 H1647 0.950 . S
C1659 C1655 1.393 . S
C1659 C1658 1.391 . S
H1660 C1668 0.950 . S
H1661 C1673 0.950 . S
H1662 C1670 0.950 . S
H1663 C1672 0.950 . S
H1664 C1674 0.950 . S
H1665 C1676 0.950 . S
H1666 C1678 0.950 . S
H1667 C1679 0.950 . S
C1668 H1660 0.950 . S
C1668 C1669 1.386 . S
C1668 C1670 1.391 . S
C1669 C1668 1.386 . S
C1669 C1673 1.393 . S
C1670 H1662 0.950 . S
C1670 C1668 1.391 . S
C1670 C1671 1.400 . S
C1671 C1670 1.400 . S
C1671 C1672 1.398 . S
C1671 C1677 1.491 . S
C1672 H1663 0.950 . S
C1672 C1671 1.398 . S
C1672 C1673 1.391 . S
C1673 H1661 0.950 . S
C1673 C1669 1.393 . S
C1673 C1672 1.391 . S
C1674 H1664 0.950 . S
C1674 C1675 1.386 . S
C1674 C1676 1.391 . S
C1675 C1674 1.386 . S
C1675 C1679 1.393 . S
C1676 H1665 0.950 . S
C1676 C1674 1.391 . S
C1676 C1677 1.400 . S
C1677 C1671 1.491 . S
C1677 C1676 1.400 . S
C1677 C1678 1.398 . S
C1678 H1666 0.950 . S
C1678 C1677 1.398 . S
C1678 C1679 1.391 . S
C1679 H1667 0.950 . S
C1679 C1675 1.393 . S
C1679 C1678 1.391 . S
H1680 C1688 0.950 . S
H1681 C1693 0.950 . S
H1682 C1690 0.950 . S
H1683 C1692 0.950 . S
H1684 C1694 0.950 . S
H1685 C1696 0.950 . S
H1686 C1698 0.950 . S
H1687 C1699 0.950 . S
C1688 H1680 0.950 . S
C1688 C1689 1.386 . S
C1688 C1690 1.391 . S
C1689 C1688 1.386 . S
C1689 C1693 1.393 . S
C1690 H1682 0.950 . S
C1690 C1688 1.391 . S
C1690 C1691 1.400 . S
C1691 C1690 1.400 . S
C1691 C1692 1.398 . S
C1691 C1697 1.491 . S
C1692 H1683 0.950 . S
C1692 C1691 1.398 . S
C1692 C1693 1.391 . S
C1693 H1681 0.950 . S
C1693 C1689 1.393 . S
C1693 C1692 1.391 . S
C1694 H1684 0.950 . S
C1694 C1695 1.386 . S
C1694 C1696 1.391 . S
C1695 C1694 1.386 . S
C1695 C1699 1.393 . S
C1696 H1685 0.950 . S
C1696 C1694 1.391 . S
C1696 C1697 1.400 . S
C1697 C1691 1.491 . S
C1697 C1696 1.400 . S
C1697 C1698 1.398 . S
C1698 H1686 0.950 . S
C1698 C1697 1.398 . S
C1698 C1699 1.391 . S
C1699 H1687 0.950 . S
C1699 C1695 1.393 . S
C1699 C1698 1.391 . S
H1700 C1708 0.950 . S
H1701 C1713 0.950 . S
H1702 C1710 0.950 . S
H1703 C1712 0.950 . S
H1704 C1714 0.950 . S
H1705 C1716 0.950 . S
H1706 C1718 0.950 . S
H1707 C1719 0.950 . S
C1708 H1700 0.950 . S
C1708 C1709 1.386 . S
C1708 C1710 1.391 . S
C1709 C1708 1.386 . S
C1709 C1713 1.393 . S
C1710 H1702 0.950 . S
C1710 C1708 1.391 . S
C1710 C1711 1.400 . S
C1711 C1710 1.400 . S
C1711 C1712 1.398 . S
C1711 C1717 1.491 . S
C1712 H1703 0.950 . S
C1712 C1711 1.398 . S
C1712 C1713 1.391 . S
C1713 H1701 0.950 . S
C1713 C1709 1.393 . S
C1713 C1712 1.391 . S
C1714 H1704 0.950 . S
C1714 C1715 1.386 . S
C1714 C1716 1.391 . S
C1715 C1714 1.386 . S
C1715 C1719 1.393 . S
C1716 H1705 0.950 . S
C1716 C1714 1.391 . S
C1716 C1717 1.400 . S
C1717 C1711 1.491 . S
C1717 C1716 1.400 . S
C1717 C1718 1.398 . S
C1718 H1706 0.950 . S
C1718 C1717 1.398 . S
C1718 C1719 1.391 . S
C1719 H1707 0.950 . S
C1719 C1715 1.393 . S
C1719 C1718 1.391 . S
H1720 C1728 0.950 . S
H1721 C1733 0.950 . S
H1722 C1730 0.950 . S
H1723 C1732 0.950 . S
H1724 C1734 0.950 . S
H1725 C1736 0.950 . S
H1726 C1738 0.950 . S
H1727 C1739 0.950 . S
C1728 H1720 0.950 . S
C1728 C1729 1.386 . S
C1728 C1730 1.391 . S
C1729 C1728 1.386 . S
C1729 C1733 1.393 . S
C1730 H1722 0.950 . S
C1730 C1728 1.391 . S
C1730 C1731 1.400 . S
C1731 C1730 1.400 . S
C1731 C1732 1.398 . S
C1731 C1737 1.491 . S
C1732 H1723 0.950 . S
C1732 C1731 1.398 . S
C1732 C1733 1.391 . S
C1733 H1721 0.950 . S
C1733 C1729 1.393 . S
C1733 C1732 1.391 . S
C1734 H1724 0.950 . S
C1734 C1735 1.386 . S
C1734 C1736 1.391 . S
C1735 C1734 1.386 . S
C1735 C1739 1.393 . S
C1736 H1725 0.950 . S
C1736 C1734 1.391 . S
C1736 C1737 1.400 . S
C1737 C1731 1.491 . S
C1737 C1736 1.400 . S
C1737 C1738 1.398 . S
C1738 H1726 0.950 . S
C1738 C1737 1.398 . S
C1738 C1739 1.391 . S
C1739 H1727 0.950 . S
C1739 C1735 1.393 . S
C1739 C1738 1.391 . S
H1740 C1748 0.950 . S
H1741 C1753 0.950 . S
H1742 C1750 0.950 . S
H1743 C1752 0.950 . S
H1744 C1754 0.950 . S
H1745 C1756 0.950 . S
H1746 C1758 0.950 . S
H1747 C1759 0.950 . S
C1748 H1740 0.950 . S
C1748 C1749 1.386 . S
C1748 C1750 1.391 . S
C1749 C1748 1.386 . S
C1749 C1753 1.393 . S
C1750 H1742 0.950 . S
C1750 C1748 1.391 . S
C1750 C1751 1.400 . S
C1751 C1750 1.400 . S
C1751 C1752 1.398 . S
C1751 C1757 1.491 . S
C1752 H1743 0.950 . S
C1752 C1751 1.398 . S
C1752 C1753 1.391 . S
C1753 H1741 0.950 . S
C1753 C1749 1.393 . S
C1753 C1752 1.391 . S
C1754 H1744 0.950 . S
C1754 C1755 1.386 . S
C1754 C1756 1.391 . S
C1755 C1754 1.386 . S
C1755 C1759 1.393 . S
C1756 H1745 0.950 . S
C1756 C1754 1.391 . S
C1756 C1757 1.400 . S
C1757 C1751 1.491 . S
C1757 C1756 1.400 . S
C1757 C1758 1.398 . S
C1758 H1746 0.950 . S
C1758 C1757 1.398 . S
C1758 C1759 1.391 . S
C1759 H1747 0.950 . S
C1759 C1755 1.393 . S
C1759 C1758 1.391 . S
H1760 C1768 0.950 . S
H1761 C1773 0.950 . S
H1762 C1770 0.950 . S
H1763 C1772 0.950 . S
H1764 C1774 0.950 . S
H1765 C1776 0.950 . S
H1766 C1778 0.950 . S
H1767 C1779 0.950 . S
C1768 H1760 0.950 . S
C1768 C1769 1.386 . S
C1768 C1770 1.391 . S
C1769 C1768 1.386 . S
C1769 C1773 1.393 . S
C1770 H1762 0.950 . S
C1770 C1768 1.391 . S
C1770 C1771 1.400 . S
C1771 C1770 1.400 . S
C1771 C1772 1.398 . S
C1771 C1777 1.491 . S
C1772 H1763 0.950 . S
C1772 C1771 1.398 . S
C1772 C1773 1.391 . S
C1773 H1761 0.950 . S
C1773 C1769 1.393 . S
C1773 C1772 1.391 . S
C1774 H1764 0.950 . S
C1774 C1775 1.386 . S
C1774 C1776 1.391 . S
C1775 C1774 1.386 . S
C1775 C1779 1.393 . S
C1776 H1765 0.950 . S
C1776 C1774 1.391 . S
C1776 C1777 1.400 . S
C1777 C1771 1.491 . S
C1777 C1776 1.400 . S
C1777 C1778 1.398 . S
C1778 H1766 0.950 . S
C1778 C1777 1.398 . S
C1778 C1779 1.391 . S
C1779 H1767 0.950 . S
C1779 C1775 1.393 . S
C1779 C1778 1.391 . S
H1780 C1788 0.950 . S
H1781 C1793 0.950 . S
H1782 C1790 0.950 . S
H1783 C1792 0.950 . S
H1784 C1794 0.950 . S
H1785 C1796 0.950 . S
H1786 C1798 0.950 . S
H1787 C1799 0.950 . S
C1788 H1780 0.950 . S
C1788 C1789 1.386 . S
C1788 C1790 1.391 . S
C1789 C1788 1.386 . S
C1789 C1793 1.393 . S
C1790 H1782 0.950 . S
C1790 C1788 1.391 . S
C1790 C1791 1.400 . S
C1791 C1790 1.400 . S
C1791 C1792 1.398 . S
C1791 C1797 1.491 . S
C1792 H1783 0.950 . S
C1792 C1791 1.398 . S
C1792 C1793 1.391 . S
C1793 H1781 0.950 . S
C1793 C1789 1.393 . S
C1793 C1792 1.391 . S
C1794 H1784 0.950 . S
C1794 C1795 1.386 . S
C1794 C1796 1.391 . S
C1795 C1794 1.386 . S
C1795 C1799 1.393 . S
C1796 H1785 0.950 . S
C1796 C1794 1.391 . S
C1796 C1797 1.400 . S
C1797 C1791 1.491 . S
C1797 C1796 1.400 . S
C1797 C1798 1.398 . S
C1798 H1786 0.950 . S
C1798 C1797 1.398 . S
C1798 C1799 1.391 . S
C1799 H1787 0.950 . S
C1799 C1795 1.393 . S
C1799 C1798 1.391 . S
H1800 C1808 0.950 . S
H1801 C1813 0.950 . S
H1802 C1810 0.950 . S
H1803 C1812 0.950 . S
H1804 C1814 0.950 . S
H1805 C1816 0.950 . S
H1806 C1818 0.950 . S
H1807 C1819 0.950 . S
C1808 H1800 0.950 . S
C1808 C1809 1.386 . S
C1808 C1810 1.391 . S
C1809 C1808 1.386 . S
C1809 C1813 1.393 . S
C1810 H1802 0.950 . S
C1810 C1808 1.391 . S
C1810 C1811 1.400 . S
C1811 C1810 1.400 . S
C1811 C1812 1.398 . S
C1811 C1817 1.491 . S
C1812 H1803 0.950 . S
C1812 C1811 1.398 . S
C1812 C1813 1.391 . S
C1813 H1801 0.950 . S
C1813 C1809 1.393 . S
C1813 C1812 1.391 . S
C1814 H1804 0.950 . S
C1814 C1815 1.386 . S
C1814 C1816 1.391 . S
C1815 C1814 1.386 . S
C1815 C1819 1.393 . S
C1816 H1805 0.950 . S
C1816 C1814 1.391 . S
C1816 C1817 1.400 . S
C1817 C1811 1.491 . S
C1817 C1816 1.400 . S
C1817 C1818 1.398 . S
C1818 H1806 0.950 . S
C1818 C1817 1.398 . S
C1818 C1819 1.391 . S
C1819 H1807 0.950 . S
C1819 C1815 1.393 . S
C1819 C1818 1.391 . S
H1820 C1828 0.950 . S
H1821 C1833 0.950 . S
H1822 C1830 0.950 . S
H1823 C1832 0.950 . S
H1824 C1834 0.950 . S
H1825 C1836 0.950 . S
H1826 C1838 0.950 . S
H1827 C1839 0.950 . S
C1828 H1820 0.950 . S
C1828 C1829 1.386 . S
C1828 C1830 1.391 . S
C1829 C1828 1.386 . S
C1829 C1833 1.393 . S
C1830 H1822 0.950 . S
C1830 C1828 1.391 . S
C1830 C1831 1.400 . S
C1831 C1830 1.400 . S
C1831 C1832 1.398 . S
C1831 C1837 1.491 . S
C1832 H1823 0.950 . S
C1832 C1831 1.398 . S
C1832 C1833 1.391 . S
C1833 H1821 0.950 . S
C1833 C1829 1.393 . S
C1833 C1832 1.391 . S
C1834 H1824 0.950 . S
C1834 C1835 1.386 . S
C1834 C1836 1.391 . S
C1835 C1834 1.386 . S
C1835 C1839 1.393 . S
C1836 H1825 0.950 . S
C1836 C1834 1.391 . S
C1836 C1837 1.400 . S
C1837 C1831 1.491 . S
C1837 C1836 1.400 . S
C1837 C1838 1.398 . S
C1838 H1826 0.950 . S
C1838 C1837 1.398 . S
C1838 C1839 1.391 . S
C1839 H1827 0.950 . S
C1839 C1835 1.393 . S
C1839 C1838 1.391 . S
H1840 C1848 0.950 . S
H1841 C1853 0.950 . S
H1842 C1850 0.950 . S
H1843 C1852 0.950 . S
H1844 C1854 0.950 . S
H1845 C1856 0.950 . S
H1846 C1858 0.950 . S
H1847 C1859 0.950 . S
C1848 H1840 0.950 . S
C1848 C1849 1.386 . S
C1848 C1850 1.391 . S
C1849 C1848 1.386 . S
C1849 C1853 1.393 . S
C1850 H1842 0.950 . S
C1850 C1848 1.391 . S
C1850 C1851 1.400 . S
C1851 C1850 1.400 . S
C1851 C1852 1.398 . S
C1851 C1857 1.491 . S
C1852 H1843 0.950 . S
C1852 C1851 1.398 . S
C1852 C1853 1.391 . S
C1853 H1841 0.950 . S
C1853 C1849 1.393 . S
C1853 C1852 1.391 . S
C1854 H1844 0.950 . S
C1854 C1855 1.386 . S
C1854 C1856 1.391 . S
C1855 C1854 1.386 . S
C1855 C1859 1.393 . S
C1856 H1845 0.950 . S
C1856 C1854 1.391 . S
C1856 C1857 1.400 . S
C1857 C1851 1.491 . S
C1857 C1856 1.400 . S
C1857 C1858 1.398 . S
C1858 H1846 0.950 . S
C1858 C1857 1.398 . S
C1858 C1859 1.391 . S
C1859 H1847 0.950 . S
C1859 C1855 1.393 . S
C1859 C1858 1.391 . S
H1860 C1868 0.950 . S
H1861 C1873 0.950 . S
H1862 C1870 0.950 . S
H1863 C1872 0.950 . S
H1864 C1874 0.950 . S
H1865 C1876 0.950 . S
H1866 C1878 0.950 . S
H1867 C1879 0.950 . S
C1868 H1860 0.950 . S
C1868 C1869 1.386 . S
C1868 C1870 1.391 . S
C1869 C1868 1.386 . S
C1869 C1873 1.393 . S
C1870 H1862 0.950 . S
C1870 C1868 1.391 . S
C1870 C1871 1.400 . S
C1871 C1870 1.400 . S
C1871 C1872 1.398 . S
C1871 C1877 1.491 . S
C1872 H1863 0.950 . S
C1872 C1871 1.398 . S
C1872 C1873 1.391 . S
C1873 H1861 0.950 . S
C1873 C1869 1.393 . S
C1873 C1872 1.391 . S
C1874 H1864 0.950 . S
C1874 C1875 1.386 . S
C1874 C1876 1.391 . S
C1875 C1874 1.386 . S
C1875 C1879 1.393 . S
C1876 H1865 0.950 . S
C1876 C1874 1.391 . S
C1876 C1877 1.400 . S
C1877 C1871 1.491 . S
C1877 C1876 1.400 . S
C1877 C1878 1.398 . S
C1878 H1866 0.950 . S
C1878 C1877 1.398 . S
C1878 C1879 1.391 . S
C1879 H1867 0.950 . S
C1879 C1875 1.393 . S
C1879 C1878 1.391 . S
H1880 C1888 0.950 . S
H1881 C1893 0.950 . S
H1882 C1890 0.950 . S
H1883 C1892 0.950 . S
H1884 C1894 0.950 . S
H1885 C1896 0.950 . S
H1886 C1898 0.950 . S
H1887 C1899 0.950 . S
C1888 H1880 0.950 . S
C1888 C1889 1.386 . S
C1888 C1890 1.391 . S
C1889 C1888 1.386 . S
C1889 C1893 1.393 . S
C1890 H1882 0.950 . S
C1890 C1888 1.391 . S
C1890 C1891 1.400 . S
C1891 C1890 1.400 . S
C1891 C1892 1.398 . S
C1891 C1897 1.491 . S
C1892 H1883 0.950 . S
C1892 C1891 1.398 . S
C1892 C1893 1.391 . S
C1893 H1881 0.950 . S
C1893 C1889 1.393 . S
C1893 C1892 1.391 . S
C1894 H1884 0.950 . S
C1894 C1895 1.386 . S
C1894 C1896 1.391 . S
C1895 C1894 1.386 . S
C1895 C1899 1.393 . S
C1896 H1885 0.950 . S
C1896 C1894 1.391 . S
C1896 C1897 1.400 . S
C1897 C1891 1.491 . S
C1897 C1896 1.400 . S
C1897 C1898 1.398 . S
C1898 H1886 0.950 . S
C1898 C1897 1.398 . S
C1898 C1899 1.391 . S
C1899 H1887 0.950 . S
C1899 C1895 1.393 . S
C1899 C1898 1.391 . S
H1900 C1908 0.950 . S
H1901 C1913 0.950 . S
H1902 C1910 0.950 . S
H1903 C1912 0.950 . S
H1904 C1914 0.950 . S
H1905 C1916 0.950 . S
H1906 C1918 0.950 . S
H1907 C1919 0.950 . S
C1908 H1900 0.950 . S
C1908 C1909 1.386 . S
C1908 C1910 1.391 . S
C1909 C1908 1.386 . S
C1909 C1913 1.393 . S
C1910 H1902 0.950 . S
C1910 C1908 1.391 . S
C1910 C1911 1.400 . S
C1911 C1910 1.400 . S
C1911 C1912 1.398 . S
C1911 C1917 1.491 . S
C1912 H1903 0.950 . S
C1912 C1911 1.398 . S
C1912 C1913 1.391 . S
C1913 H1901 0.950 . S
C1913 C1909 1.393 . S
C1913 C1912 1.391 . S
C1914 H1904 0.950 . S
C1914 C1915 1.386 . S
C1914 C1916 1.391 . S
C1915 C1914 1.386 . S
C1915 C1919 1.393 . S
C1916 H1905 0.950 . S
C1916 C1914 1.391 . S
C1916 C1917 1.400 . S
C1917 C1911 1.491 . S
C1917 C1916 1.400 . S
C1917 C1918 1.398 . S
C1918 H1906 0.950 . S
C1918 C1917 1.398 . S
C1918 C1919 1.391 . S
C1919 H1907 0.950 . S
C1919 C1915 1.393 . S
C1919 C1918 1.391 . S
C489 C18 1.259 . S
C495 C362 1.224 . S
C509 C382 1.207 . S
C515 C38 1.247 . S
C529 C58 1.245 . S
C535 C322 1.206 . S
C549 C78 1.264 . S
C555 C342 1.237 . S
C569 C442 1.219 . S
C575 C98 1.249 . S
C589 C118 1.257 . S
C595 C422 1.231 . S
C609 C462 1.207 . S
C615 C138 1.245 . S
C629 C158 1.264 . S
C635 C402 1.238 . S
C649 C178 1.259 . S
C655 C262 1.224 . S
C669 C198 1.255 . S
C675 C302 1.218 . S
C689 C282 1.221 . S
C695 C218 1.251 . S
C709 C238 1.247 . S
C715 C242 1.207 . S
C729 C259 1.255 . S
C735 C124 1.219 . S
C749 C279 1.249 . S
C755 C144 1.217 . S
C769 C299 1.254 . S
C775 C84 1.226 . S
C789 C104 1.215 . S
C795 C319 1.253 . S
C809 C339 1.262 . S
C815 C204 1.237 . S
C829 C184 1.207 . S
C835 C359 1.245 . S
C849 C224 1.228 . S
C855 C379 1.261 . S
C869 C164 1.236 . S
C875 C399 1.261 . S
C889 C24 1.207 . S
C895 C419 1.245 . S
C909 C64 1.221 . S
C915 C439 1.257 . S
C929 C44 1.239 . S
C935 C459 1.264 . S
C949 C479 1.259 . S
C955 C4 1.225 . S
C969 C82 1.338 . S
C975 C9 1.431 . S
C989 C102 1.313 . S
C995 C29 1.441 . S
C1009 C122 1.299 . S
C1015 C49 1.446 . S
C1029 C142 1.322 . S
C1035 C69 1.438 . S
C1049 C89 1.446 . S
C1055 C162 1.294 . S
C1069 C109 1.432 . S
C1075 C222 1.333 . S
C1089 C129 1.446 . S
C1095 C182 1.295 . S
C1109 C149 1.437 . S
C1115 C202 1.326 . S
C1129 C169 1.435 . S
C1135 C2 1.329 . S
C1149 C189 1.436 . S
C1155 C42 1.321 . S
C1169 C209 1.431 . S
C1175 C62 1.336 . S
C1189 C22 1.325 . S
C1195 C229 1.437 . S
C1209 C324 1.294 . S
C1215 C252 1.446 . S
C1229 C344 1.298 . S
C1235 C272 1.446 . S
C1249 C292 1.447 . S
C1255 C364 1.295 . S
C1269 C312 1.445 . S
C1275 C384 1.298 . S
C1289 C404 1.315 . S
C1295 C332 1.438 . S
C1309 C352 1.439 . S
C1315 C464 1.321 . S
C1329 C424 1.337 . S
C1335 C372 1.432 . S
C1349 C392 1.440 . S
C1355 C444 1.309 . S
C1369 C244 1.295 . S
C1375 C412 1.446 . S
C1389 C432 1.442 . S
C1395 C284 1.303 . S
C1409 C452 1.431 . S
C1415 C304 1.337 . S
C1429 C264 1.295 . S
C1435 C472 1.447 . S
C1449 C19 1.497 . S
C1455 C192 1.514 . S
C1469 C212 1.540 . S
C1475 C39 1.524 . S
C1489 C172 1.515 . S
C1495 C59 1.500 . S
C1509 C232 1.538 . S
C1515 C79 1.521 . S
C1529 C99 1.526 . S
C1535 C72 1.540 . S
C1549 C52 1.544 . S
C1555 C119 1.529 . S
C1569 C139 1.496 . S
C1575 C32 1.513 . S
C1589 C12 1.514 . S
C1595 C159 1.498 . S
C1609 C179 1.516 . S
C1615 C112 1.534 . S
C1629 C199 1.503 . S
C1635 C152 1.518 . S
C1649 C219 1.497 . S
C1655 C132 1.515 . S
C1669 C239 1.506 . S
C1675 C92 1.524 . S
C1689 C258 1.520 . S
C1695 C429 1.533 . S
C1709 C278 1.508 . S
C1715 C449 1.527 . S
C1729 C409 1.538 . S
C1735 C298 1.521 . S
C1749 C469 1.538 . S
C1755 C318 1.525 . S
C1769 C338 1.509 . S
C1775 C309 1.524 . S
C1789 C358 1.523 . S
C1795 C289 1.539 . S
C1809 C269 1.517 . S
C1815 C378 1.502 . S
C1829 C398 1.513 . S
C1835 C249 1.527 . S
C1849 C418 1.515 . S
C1855 C349 1.533 . S
C1869 C389 1.514 . S
C1875 C438 1.498 . S
C1889 C458 1.496 . S
C1895 C369 1.513 . S
C1909 C478 1.529 . S
C1915 C329 1.543 . S
