# Generated by pormake.
# Topology umw, (4)-cn, num edge types: 1
# Building blocks:
#     Node 0, Type 0, BuildingBlock: KUFVIS_clean_sbu_0, # of connection points: 4
#     Node 1, Type 0, BuildingBlock: KUFVIS_clean_sbu_0, # of connection points: 4
#     Node 2, Type 0, BuildingBlock: KUFVIS_clean_sbu_0, # of connection points: 4
#     Node 3, Type 0, BuildingBlock: KUFVIS_clean_sbu_0, # of connection points: 4
#     Node 4, Type 0, BuildingBlock: KUFVIS_clean_sbu_0, # of connection points: 4
#     Node 5, Type 0, BuildingBlock: KUFVIS_clean_sbu_0, # of connection points: 4
#     Node 6, Type 0, BuildingBlock: KUFVIS_clean_sbu_0, # of connection points: 4
#     Node 7, Type 0, BuildingBlock: KUFVIS_clean_sbu_0, # of connection points: 4
#     Edge 8, Type (0, 0), BuildingBlock: CIFDUS_clean_linker_0, # of connection points: 2
#     Edge 9, Type (0, 0), BuildingBlock: CIFDUS_clean_linker_0, # of connection points: 2
#     Edge 10, Type (0, 0), BuildingBlock: CIFDUS_clean_linker_0, # of connection points: 2
#     Edge 11, Type (0, 0), BuildingBlock: CIFDUS_clean_linker_0, # of connection points: 2
#     Edge 12, Type (0, 0), BuildingBlock: CIFDUS_clean_linker_0, # of connection points: 2
#     Edge 13, Type (0, 0), BuildingBlock: CIFDUS_clean_linker_0, # of connection points: 2
#     Edge 14, Type (0, 0), BuildingBlock: CIFDUS_clean_linker_0, # of connection points: 2
#     Edge 15, Type (0, 0), BuildingBlock: CIFDUS_clean_linker_0, # of connection points: 2
#     Edge 16, Type (0, 0), BuildingBlock: CIFDUS_clean_linker_0, # of connection points: 2
#     Edge 17, Type (0, 0), BuildingBlock: CIFDUS_clean_linker_0, # of connection points: 2
#     Edge 18, Type (0, 0), BuildingBlock: CIFDUS_clean_linker_0, # of connection points: 2
#     Edge 19, Type (0, 0), BuildingBlock: CIFDUS_clean_linker_0, # of connection points: 2
#     Edge 20, Type (0, 0), BuildingBlock: CIFDUS_clean_linker_0, # of connection points: 2
#     Edge 21, Type (0, 0), BuildingBlock: CIFDUS_clean_linker_0, # of connection points: 2
#     Edge 22, Type (0, 0), BuildingBlock: CIFDUS_clean_linker_0, # of connection points: 2
#     Edge 23, Type (0, 0), BuildingBlock: CIFDUS_clean_linker_0, # of connection points: 2
# Relax obj value: 0.130
# Max RMSD: 0.105
# Mean RMSD: 0.105
data_MOF--net-umw--node1-KUFVIS_clean_sbu_0--edge1-CIFDUS_clean_linker_0
_symmetry_space_group_name_H-M    P1
_symmetry_Int_Tables_number       1
_symmetry_cell_setting            triclinic
loop_
_symmetry_equiv_pos_as_xyz
'x, y, z'
_cell_length_a     36.060569
_cell_length_b     36.191402
_cell_length_c     22.463219
_cell_angle_alpha  90.721087
_cell_angle_beta   90.216872
_cell_angle_gamma 90.129647
loop_
_atom_site_label
_atom_site_type_symbol
_atom_site_fract_x
_atom_site_fract_y
_atom_site_fract_z
_atom_type_partial_charge
Mn0 Mn 0.42012 0.20781 0.29495 0.0
Mn1 Mn 0.50968 0.18092 0.28232 0.0
C2 C 0.45425 0.19166 0.37793 0.0
C3 C 0.37588 0.25388 0.31592 0.0
C4 C 0.44431 0.13051 0.25369 0.0
O5 O 0.43389 0.225 0.21007 0.0
O6 O 0.49414 0.20869 0.21234 0.0
C7 C 0.54204 0.2561 0.29098 0.0
N8 N 0.54019 0.22071 0.31073 0.0
C9 C 0.58626 0.23317 0.38614 0.0
C10 C 0.58885 0.26967 0.36636 0.0
C11 C 0.56652 0.28122 0.31874 0.0
C12 C 0.56088 0.20959 0.35742 0.0
H13 H 0.52484 0.26512 0.25451 0.0
C14 C 0.46641 0.22362 0.18687 0.0
O15 O 0.36678 0.22319 0.28883 0.0
O16 O 0.41101 0.25943 0.32427 0.0
N17 N 0.5298 0.15342 0.34698 0.0
C18 C 0.52607 0.11655 0.35732 0.0
C19 C 0.54852 0.0998 0.40042 0.0
C20 C 0.57502 0.12093 0.43176 0.0
C21 C 0.57884 0.15865 0.4197 0.0
C22 C 0.55619 0.17365 0.37542 0.0
H23 H 0.50642 0.0999 0.3324 0.0
O24 O 0.41839 0.19146 0.37964 0.0
O25 O 0.46894 0.20164 0.3283 0.0
O26 O 0.41857 0.15338 0.26703 0.0
O27 O 0.47894 0.13841 0.25509 0.0
C28 C 0.60462 0.18181 0.44924 0.0
C29 C 0.608 0.21919 0.43297 0.0
H30 H 0.60792 0.28905 0.38735 0.0
H31 H 0.56825 0.30939 0.30335 0.0
H32 H 0.54555 0.07062 0.40923 0.0
H33 H 0.59219 0.10794 0.46514 0.0
H34 H 0.62205 0.17113 0.48441 0.0
H35 H 0.62784 0.23677 0.45608 0.0
Mn36 Mn 0.82721 0.41977 0.54203 0.0
Mn37 Mn 0.85664 0.50831 0.53559 0.0
C38 C 0.85206 0.44861 0.62517 0.0
C39 C 0.77755 0.37972 0.56257 0.0
C40 C 0.90157 0.44292 0.4893 0.0
O41 O 0.80595 0.4376 0.46205 0.0
O42 O 0.82205 0.49764 0.46945 0.0
C43 C 0.78455 0.5431 0.56401 0.0
N44 N 0.82127 0.53863 0.5762 0.0
C45 C 0.81765 0.57979 0.66094 0.0
C46 C 0.77983 0.58502 0.6491 0.0
C47 C 0.76319 0.56651 0.60051 0.0
C48 C 0.83741 0.55585 0.62336 0.0
H49 H 0.77163 0.52875 0.52689 0.0
C50 C 0.80586 0.47077 0.44255 0.0
O51 O 0.80635 0.36811 0.53307 0.0
O52 O 0.77668 0.41448 0.57604 0.0
N53 N 0.89068 0.52352 0.59676 0.0
C54 C 0.92779 0.51676 0.60038 0.0
C55 C 0.94899 0.53439 0.64504 0.0
C56 C 0.93195 0.55923 0.6849 0.0
C57 C 0.89393 0.56652 0.67932 0.0
C58 C 0.87436 0.54852 0.63341 0.0
H59 H 0.94118 0.49814 0.56935 0.0
O60 O 0.84903 0.41301 0.62319 0.0
O61 O 0.8389 0.46615 0.5799 0.0
O62 O 0.87973 0.41694 0.50568 0.0
O63 O 0.89448 0.47746 0.49561 0.0
C64 C 0.87469 0.59096 0.71746 0.0
C65 C 0.83648 0.59729 0.70865 0.0
H66 H 0.76329 0.60311 0.67707 0.0
H67 H 0.73399 0.57028 0.59123 0.0
H68 H 0.97838 0.52886 0.6487 0.0
H69 H 0.94832 0.57254 0.7196 0.0
H70 H 0.88896 0.60486 0.75389 0.0
H71 H 0.8219 0.61587 0.73858 0.0
Mn72 Mn 0.6182 0.82419 0.8021 0.0
Mn73 Mn 0.53113 0.86002 0.80564 0.0
C74 C 0.58796 0.83033 0.892 0.0
C75 C 0.66102 0.77556 0.80507 0.0
C76 C 0.6005 0.90648 0.79312 0.0
O77 O 0.60116 0.81794 0.71481 0.0
O78 O 0.54347 0.84092 0.72576 0.0
C79 C 0.48552 0.79334 0.78067 0.0
N80 N 0.49293 0.824 0.81436 0.0
C81 C 0.43409 0.81974 0.86406 0.0
C82 C 0.42567 0.78818 0.82966 0.0
C83 C 0.45168 0.77469 0.78829 0.0
C84 C 0.46851 0.83667 0.85529 0.0
H85 H 0.50512 0.78353 0.74789 0.0
C86 C 0.56888 0.82588 0.69441 0.0
O87 O 0.67042 0.80815 0.78678 0.0
O88 O 0.62585 0.76997 0.81307 0.0
N89 N 0.51409 0.87988 0.87965 0.0
C90 C 0.52824 0.90836 0.91281 0.0
C91 C 0.50694 0.92363 0.9591 0.0
C92 C 0.47113 0.90993 0.97012 0.0
C93 C 0.45702 0.88084 0.93485 0.0
C94 C 0.47977 0.86636 0.89001 0.0
H95 H 0.55527 0.91972 0.90322 0.0
O96 O 0.62378 0.8301 0.88867 0.0
O97 O 0.56965 0.82808 0.84174 0.0
O98 O 0.62435 0.88059 0.79321 0.0
O99 O 0.56582 0.90105 0.79652 0.0
C100 C 0.42146 0.86538 0.94264 0.0
C101 C 0.40999 0.83483 0.90728 0.0
H102 H 0.39948 0.77392 0.835 0.0
H103 H 0.44541 0.7503 0.76171 0.0
H104 H 0.51775 0.94656 -0.01488 0.0
H105 H 0.45472 0.92199 0.00564 0.0
H106 H 0.40307 0.87618 0.97665 0.0
H107 H 0.38299 0.8226 0.91469 0.0
Mn108 Mn 0.20651 0.60577 0.06083 0.0
Mn109 Mn 0.17749 0.51629 0.0631 0.0
C110 C 0.2136 0.57098 0.14522 0.0
C111 C 0.25169 0.6527 0.0618 0.0
C112 C 0.12479 0.58121 0.06834 0.0
O113 O 0.2061 0.59249 0.97146 0.0
O114 O 0.18518 0.5339 0.98177 0.0
C115 C 0.24592 0.48151 0.01584 0.0
N116 N 0.21762 0.48228 0.05573 0.0
C117 C 0.23772 0.42528 0.09921 0.0
C118 C 0.26616 0.42302 0.05689 0.0
C119 C 0.27057 0.45153 0.01554 0.0
C120 C 0.21388 0.45569 0.09701 0.0
H121 H 0.24984 0.50386 -0.01484 0.0
C122 C 0.19629 0.56081 0.95012 0.0
O123 O 0.21705 0.65974 0.05073 0.0
O124 O 0.26073 0.61806 0.06275 0.0
N125 N 0.16924 0.49429 0.13888 0.0
C126 C 0.14466 0.50392 0.18221 0.0
C127 C 0.13879 0.47991 0.22998 0.0
C128 C 0.15832 0.44646 0.23287 0.0
C129 C 0.18366 0.43726 0.18797 0.0
C130 C 0.18792 0.46192 0.14094 0.0
H131 H 0.12949 0.52954 0.17997 0.0
O132 O 0.20892 0.60641 0.14909 0.0
O133 O 0.21057 0.55594 0.09271 0.0
O134 O 0.14899 0.60657 0.06141 0.0
O135 O 0.13308 0.54715 0.07154 0.0
C136 C 0.20586 0.40526 0.18911 0.0
C137 C 0.23302 0.39938 0.14493 0.0
H138 H 0.28543 0.4001 0.05685 0.0
H139 H 0.29304 0.45048 0.98377 0.0
H140 H 0.11895 0.48679 0.26422 0.0
H141 H 0.154 0.4283 0.2702 0.0
H142 H 0.20313 0.38566 0.22488 0.0
H143 H 0.25082 0.37538 0.14748 0.0
Mn144 Mn 0.43157 0.83156 0.26302 0.0
Mn145 Mn 0.51486 0.87534 0.26679 0.0
C146 C 0.46418 0.8397 0.17569 0.0
C147 C 0.39318 0.77914 0.25211 0.0
C148 C 0.44158 0.91561 0.27374 0.0
O149 O 0.4466 0.82462 0.35055 0.0
O150 O 0.49988 0.85709 0.34563 0.0
C151 C 0.5629 0.81198 0.29873 0.0
N152 N 0.55605 0.84227 0.2652 0.0
C153 C 0.61757 0.8408 0.22404 0.0
C154 C 0.62565 0.81009 0.25927 0.0
C155 C 0.59804 0.79533 0.29617 0.0
C156 C 0.58204 0.85598 0.22821 0.0
H157 H 0.54177 0.80078 0.32728 0.0
C158 C 0.47638 0.83771 0.37416 0.0
O159 O 0.38016 0.81059 0.27093 0.0
O160 O 0.4289 0.77697 0.24741 0.0
N161 N 0.53499 0.89447 0.19491 0.0
C162 C 0.52069 0.92007 0.15753 0.0
C163 C 0.54361 0.93603 0.11446 0.0
C164 C 0.58099 0.92543 0.1102 0.0
C165 C 0.59504 0.89872 0.14891 0.0
C166 C 0.57088 0.88394 0.19104 0.0
H167 H 0.4922 0.92841 0.16113 0.0
O168 O 0.42833 0.83863 0.17664 0.0
O169 O 0.48108 0.83914 0.22724 0.0
O170 O 0.42066 0.88726 0.27724 0.0
O171 O 0.47652 0.91362 0.26807 0.0
C172 C 0.63179 0.88553 0.14656 0.0
C173 C 0.64299 0.85642 0.1839 0.0
H174 H 0.65272 0.79721 0.25751 0.0
H175 H 0.60391 0.77135 0.32288 0.0
H176 H 0.53264 0.95696 0.08541 0.0
H177 H 0.59854 0.93773 0.07677 0.0
H178 H 0.65124 0.89664 0.11478 0.0
H179 H 0.67088 0.84561 0.18021 0.0
Mn180 Mn 0.20008 0.4309 0.5159 0.0
Mn181 Mn 0.15705 0.5142 0.51681 0.0
C182 C 0.20495 0.46955 0.43599 0.0
C183 C 0.25049 0.39004 0.51501 0.0
C184 C 0.11629 0.44248 0.49887 0.0
O185 O 0.19666 0.44161 0.60552 0.0
O186 O 0.16277 0.49384 0.59722 0.0
C187 C 0.21429 0.55796 0.58214 0.0
N188 N 0.19013 0.55403 0.53577 0.0
C189 C 0.20329 0.61554 0.50208 0.0
C190 C 0.22744 0.62064 0.55058 0.0
C191 C 0.23323 0.59158 0.59045 0.0
C192 C 0.18488 0.58157 0.49647 0.0
H193 H 0.21925 0.53557 0.61231 0.0
C194 C 0.17955 0.46952 0.62818 0.0
O195 O 0.21675 0.37846 0.52216 0.0
O196 O 0.25546 0.42557 0.5177 0.0
N197 N 0.15001 0.53846 0.44245 0.0
C198 C 0.13019 0.52718 0.39376 0.0
C199 C 0.1239 0.5521 0.34732 0.0
C200 C 0.13818 0.58816 0.35124 0.0
C201 C 0.15859 0.59911 0.40168 0.0
C202 C 0.16345 0.57334 0.44701 0.0
H203 H 0.11906 0.49951 0.39071 0.0
O204 O 0.20454 0.43398 0.4283 0.0
O205 O 0.19798 0.48213 0.48915 0.0
O206 O 0.14354 0.42151 0.5108 0.0
O207 O 0.1192 0.47735 0.4963 0.0
C208 C 0.17531 0.63418 0.4079 0.0
C209 C 0.19778 0.64234 0.45796 0.0
H210 H 0.24236 0.64642 0.55685 0.0
H211 H 0.25234 0.59506 0.62738 0.0
H212 H 0.10772 0.54381 0.30881 0.0
H213 H 0.13361 0.6071 0.31499 0.0
H214 H 0.17197 0.6547 0.37362 0.0
H215 H 0.21141 0.66899 0.46134 0.0
Mn216 Mn 0.60005 0.1994 0.76153 0.0
Mn217 Mn 0.50919 0.17494 0.76281 0.0
C218 C 0.56956 0.18278 0.67489 0.0
C219 C 0.64662 0.24388 0.7466 0.0
C220 C 0.57181 0.12107 0.78738 0.0
O221 O 0.58393 0.21785 0.84482 0.0
O222 O 0.52538 0.19694 0.83894 0.0
C223 C 0.48282 0.25248 0.76992 0.0
N224 N 0.48246 0.21873 0.74229 0.0
C225 C 0.44154 0.24091 0.66573 0.0
C226 C 0.44132 0.27576 0.69364 0.0
C227 C 0.46213 0.28157 0.74588 0.0
C228 C 0.4632 0.21313 0.6912 0.0
H229 H 0.49895 0.25735 0.80977 0.0
C230 C 0.55158 0.21326 0.86701 0.0
O231 O 0.65368 0.21309 0.77362 0.0
O232 O 0.6121 0.25033 0.73476 0.0
N233 N 0.4871 0.15348 0.69278 0.0
C234 C 0.48404 0.11681 0.67891 0.0
C235 C 0.46175 0.10536 0.63068 0.0
C236 C 0.44139 0.13158 0.59877 0.0
C237 C 0.44237 0.16874 0.61702 0.0
C238 C 0.46491 0.17835 0.66583 0.0
H239 H 0.49753 0.09633 0.70569 0.0
O240 O 0.60534 0.18187 0.67746 0.0
O241 O 0.55236 0.19478 0.72184 0.0
O242 O 0.5982 0.14487 0.78804 0.0
O243 O 0.53752 0.12923 0.77919 0.0
C244 C 0.42081 0.19634 0.5901 0.0
C245 C 0.42075 0.23254 0.61403 0.0
H246 H 0.42516 0.29819 0.67549 0.0
H247 H 0.46222 0.30844 0.7676 0.0
H248 H 0.45989 0.07637 0.61867 0.0
H249 H 0.42423 0.12271 0.56155 0.0
H250 H 0.40375 0.18989 0.55153 0.0
H251 H 0.40388 0.25351 0.5932 0.0
Mn252 Mn 0.83144 0.59181 0.01401 0.0
Mn253 Mn 0.85387 0.50186 0.02622 0.0
C254 C 0.84846 0.55752 0.93083 0.0
C255 C 0.78431 0.63479 -0.00665 0.0
C256 C 0.90607 0.56498 0.06171 0.0
O257 O 0.81227 0.57871 0.09766 0.0
O258 O 0.82301 0.51738 0.09418 0.0
C259 C 0.77835 0.47134 0.00842 0.0
N260 N 0.81466 0.47284 -0.00787 0.0
C261 C 0.80431 0.42925 0.91199 0.0
C262 C 0.76686 0.42703 0.92814 0.0
C263 C 0.75381 0.44826 0.97647 0.0
C264 C 0.82735 0.45301 0.94513 0.0
H265 H 0.76818 0.48776 0.04535 0.0
C266 C 0.80989 0.54624 0.11973 0.0
O267 O 0.81519 0.64525 0.01863 0.0
O268 O 0.78001 0.59974 0.98461 0.0
N269 N 0.88383 0.48241 0.96313 0.0
C270 C 0.92101 0.48669 0.9548 0.0
C271 C 0.93888 0.46597 0.91013 0.0
C272 C 0.91847 0.44075 0.875 0.0
C273 C 0.88035 0.43643 0.8849 0.0
C274 C 0.86419 0.45736 0.93074 0.0
H275 H 0.93701 0.50555 0.9823 0.0
O276 O 0.84951 0.59322 0.92981 0.0
O277 O 0.83699 0.54335 0.97996 0.0
O278 O 0.88571 0.59194 0.04469 0.0
O279 O 0.89572 0.53105 0.05954 0.0
C280 C 0.85776 0.41218 0.8511 0.0
C281 C 0.81968 0.40887 0.86427 0.0
H282 H 0.74787 0.40918 0.90372 0.0
H283 H 0.72491 0.44683 -0.01095 0.0
H284 H 0.96834 0.46938 0.90288 0.0
H285 H 0.9323 0.425 0.84033 0.0
H286 H 0.86936 0.39607 0.81476 0.0
H287 H 0.80253 0.39032 0.83774 0.0
H288 H 0.47865 0.13689 0.44834 0.0
H289 H 0.47423 0.25512 0.43059 0.0
H290 H 0.509 0.2633 0.52368 0.0
H291 H 0.54084 0.23618 0.60938 0.0
H292 H 0.55946 0.11891 0.61263 0.0
H293 H 0.51975 0.11022 0.52488 0.0
C294 C 0.48614 0.16427 0.46448 0.0
C295 C 0.47489 0.19536 0.43317 0.0
C296 C 0.50875 0.16866 0.51473 0.0
C297 C 0.48337 0.23093 0.45451 0.0
C298 C 0.50327 0.23559 0.50718 0.0
C299 C 0.53644 0.20887 0.59005 0.0
C300 C 0.55079 0.17785 0.61824 0.0
C301 C 0.5163 0.20462 0.53734 0.0
C302 C 0.54692 0.14273 0.59236 0.0
C303 C 0.52457 0.13791 0.54219 0.0
H304 H 0.80063 0.4785 0.69389 0.0
H305 H 0.91773 0.45685 0.68417 0.0
H306 H 0.92808 0.49296 0.77622 0.0
H307 H 0.90283 0.53214 0.85799 0.0
H308 H 0.78439 0.53993 0.87851 0.0
H309 H 0.77493 0.50851 0.78263 0.0
C310 C 0.82833 0.48168 0.71242 0.0
C311 C 0.85872 0.4671 0.68193 0.0
C312 C 0.83352 0.50001 0.76672 0.0
C313 C 0.89431 0.46933 0.70674 0.0
C314 C 0.90011 0.48972 0.75913 0.0
C315 C 0.87511 0.52612 0.84174 0.0
C316 C 0.84429 0.5374 0.87482 0.0
C317 C 0.86988 0.50557 0.78913 0.0
C318 C 0.80833 0.53072 0.8534 0.0
C319 C 0.80295 0.51281 0.79898 0.0
H320 H 0.53679 0.82374 0.15768 0.0
H321 H 0.43132 0.82024 0.06981 0.0
H322 H 0.46212 0.80168 0.97765 0.0
H323 H 0.5193 0.80362 0.91657 0.0
H324 H 0.62184 0.83604 7e-05 0.0
H325 H 0.59394 0.8269 0.09743 0.0
C326 C 0.52086 0.82348 0.11755 0.0
C327 C 0.48259 0.82862 0.1198 0.0
C328 C 0.53851 0.81965 0.06277 0.0
C329 C 0.46134 0.81972 0.06882 0.0
C330 C 0.47874 0.80954 0.0158 0.0
C331 C 0.5345 0.81223 0.95564 0.0
C332 C 0.571 0.82476 0.95054 0.0
C333 C 0.51718 0.81304 0.0111 0.0
C334 C 0.59266 0.82905 0.00241 0.0
C335 C 0.5768 0.82438 0.05817 0.0
H336 H 0.2291 0.44984 0.32451 0.0
H337 H 0.23353 0.53903 0.45037 0.0
H338 H 0.23658 0.58449 0.36969 0.0
H339 H 0.21938 0.59396 0.2612 0.0
H340 H 0.25551 0.50828 0.14215 0.0
H341 H 0.2583 0.46398 0.22449 0.0
C342 C 0.23087 0.47919 0.33452 0.0
C343 C 0.22203 0.4931 0.39115 0.0
C344 C 0.23929 0.50408 0.28961 0.0
C345 C 0.23129 0.52982 0.40491 0.0
C346 C 0.23486 0.55523 0.35936 0.0
C347 C 0.22807 0.56567 0.25311 0.0
C348 C 0.22942 0.55093 0.19527 0.0
C349 C 0.23477 0.54228 0.30076 0.0
C350 C 0.24681 0.51679 0.186 0.0
C351 C 0.24971 0.49221 0.23289 0.0
H352 H 0.38794 0.31416 0.38846 0.0
H353 H 0.30034 0.24654 0.31345 0.0
H354 H 0.25468 0.2801 0.37317 0.0
H355 H 0.23936 0.32842 0.4471 0.0
H356 H 0.32607 0.39831 0.51864 0.0
H357 H 0.37235 0.36355 0.46122 0.0
C358 C 0.3588 0.30703 0.3845 0.0
C359 C 0.34771 0.27786 0.34589 0.0
C360 C 0.33257 0.32635 0.41952 0.0
C361 C 0.30979 0.26895 0.34213 0.0
C362 C 0.28363 0.28796 0.37678 0.0
C363 C 0.26848 0.3356 0.45117 0.0
C364 C 0.27929 0.36549 0.48835 0.0
C365 C 0.29471 0.31644 0.4161 0.0
C366 C 0.31704 0.37508 0.49133 0.0
C367 C 0.34346 0.35541 0.45796 0.0
H368 H 0.78746 0.31591 0.62405 0.0
H369 H 0.70339 0.39003 0.55999 0.0
H370 H 0.65578 0.35584 0.61379 0.0
H371 H 0.63814 0.30602 0.68109 0.0
H372 H 0.72202 0.23298 0.74959 0.0
H373 H 0.7696 0.26604 0.69361 0.0
C374 C 0.75856 0.32392 0.62088 0.0
C375 C 0.74874 0.35486 0.58678 0.0
C376 C 0.73145 0.30493 0.65408 0.0
C377 C 0.71145 0.36587 0.5849 0.0
C378 C 0.6843 0.34656 0.61619 0.0
C379 C 0.66688 0.2975 0.68446 0.0
C380 C 0.67638 0.26709 0.72003 0.0
C381 C 0.69402 0.31638 0.65159 0.0
C382 C 0.71383 0.25647 0.72322 0.0
C383 C 0.74106 0.27517 0.69066 0.0
H384 H 0.79769 0.69647 0.92799 0.0
H385 H 0.70957 0.62884 -0.00345 0.0
H386 H 0.66384 0.66435 0.94063 0.0
H387 H 0.6488 0.714 0.87103 0.0
H388 H 0.73678 0.78076 0.79921 0.0
H389 H 0.78254 0.7457 0.85586 0.0
C390 C 0.76838 0.69017 0.93165 0.0
C391 C 0.7569 0.66069 0.96765 0.0
C392 C 0.74227 0.70989 0.89737 0.0
C393 C 0.71898 0.65188 0.97016 0.0
C394 C 0.69287 0.67191 0.93763 0.0
C395 C 0.67803 0.72053 0.86683 0.0
C396 C 0.6892 0.74991 0.83028 0.0
C397 C 0.7042 0.70068 0.90048 0.0
C398 C 0.72728 0.75812 0.82635 0.0
C399 C 0.7535 0.73831 0.85934 0.0
H400 H 0.3187 0.64307 0.11706 0.0
H401 H 0.24005 0.72739 0.06912 0.0
H402 H 0.27485 0.77299 0.12811 0.0
H403 H 0.3269 0.78888 0.19576 0.0
H404 H 0.40664 0.70516 0.24097 0.0
H405 H 0.37175 0.65936 0.18213 0.0
C406 C 0.30948 0.67156 0.11849 0.0
C407 C 0.27678 0.68166 0.08794 0.0
C408 C 0.32936 0.69764 0.15353 0.0
C409 C 0.26519 0.71873 0.09141 0.0
C410 C 0.28492 0.74482 0.12578 0.0
C411 C 0.33624 0.76043 0.1937 0.0
C412 C 0.36895 0.75031 0.22405 0.0
C413 C 0.3167 0.7345 0.15788 0.0
C414 C 0.38126 0.71358 0.21907 0.0
C415 C 0.36149 0.68745 0.18487 0.0
H416 H 0.44329 0.96293 0.18281 0.0
H417 H 0.40656 0.95328 0.36394 0.0
H418 H 0.39823 0.02065 0.37036 0.0
H419 H 0.41187 0.08272 0.3293 0.0
H420 H 0.45733 0.09092 0.15288 0.0
H421 H 0.45248 0.02383 0.13947 0.0
C422 C 0.43311 0.97553 0.22346 0.0
C423 C 0.42586 0.9533 0.27297 0.0
C424 C 0.43056 1.01416 0.22764 0.0
C425 C 0.41188 0.96983 0.32503 0.0
C426 C 0.40765 1.00838 0.32886 0.0
C427 C 0.41962 0.06974 0.28739 0.0
C428 C 0.43445 0.09154 0.24166 0.0
C429 C 0.41836 0.03092 0.28121 0.0
C430 C 0.44549 0.07459 0.18819 0.0
C431 C 0.44286 0.03629 0.18073 0.0
H432 H 0.95129 0.39546 0.53809 0.0
H433 H 0.9367 0.47281 0.39556 0.0
H434 H 1.00351 0.47427 0.37908 0.0
H435 H 0.06572 0.46303 0.41764 0.0
H436 H 0.08197 0.38845 0.56328 0.0
H437 H 1.01505 0.37579 0.5657 0.0
C438 C 0.96274 0.41139 0.50192 0.0
C439 C 0.93922 0.43402 0.468 0.0
C440 C 1.00151 0.41318 0.4942 0.0
C441 C 0.95434 0.45516 0.42204 0.0
C442 C 0.99254 0.45624 0.41297 0.0
C443 C 0.05472 0.44328 0.44892 0.0
C444 C 0.07856 0.42705 0.4907 0.0
C445 C 1.0164 0.43685 0.45071 0.0
C446 C 0.06411 0.40121 0.5306 0.0
C447 C 0.02581 0.39426 0.53229 0.0
H448 H 0.58481 0.955 0.70878 0.0
H449 H 0.63777 0.94517 0.8796 0.0
H450 H 0.63608 1.01266 0.89349 0.0
H451 H 0.61103 0.07406 0.86159 0.0
H452 H 0.55707 0.08058 0.69077 0.0
H453 H 0.5674 1.01541 0.67214 0.0
C454 C 0.59731 0.96786 0.74794 0.0
C455 C 0.61197 0.94549 0.79253 0.0
C456 C 0.5949 1.00618 0.75637 0.0
C457 C 0.62726 0.96213 0.84392 0.0
C458 C 0.62563 1.00064 0.8523 0.0
C459 C 0.60183 0.06105 0.82038 0.0
C460 C 0.58176 0.08176 0.77854 0.0
C461 C 0.60813 0.02291 0.80974 0.0
C462 C 0.57083 0.06487 0.72471 0.0
C463 C 0.57723 0.02762 0.71362 0.0
H464 H 0.95566 0.61695 0.02154 0.0
H465 H 0.94423 0.52689 0.14432 0.0
H466 H 1.01085 0.52696 0.16181 0.0
H467 H 0.07262 0.54655 0.13272 0.0
H468 H 0.08659 0.63587 0.00976 0.0
H469 H 0.01888 0.64249 0.00229 0.0
C470 C 0.96771 0.59811 0.05334 0.0
C471 C 0.94494 0.57173 0.08125 0.0
C472 C 1.00656 0.59776 0.06245 0.0
C473 C 0.96107 0.54724 0.1219 0.0
C474 C 0.99924 0.54715 0.1318 0.0
C475 C 0.06098 0.56794 0.10501 0.0
C476 C 0.08466 0.5904 0.07136 0.0
C477 C 0.02231 0.57131 0.10074 0.0
C478 C 0.06899 0.61823 0.03619 0.0
C479 C 0.03025 0.62183 0.03165 0.0
H480 H 0.48257 0.22418 0.91114 0.0
H481 H 0.59827 0.23298 0.96008 0.0
H482 H 0.58034 0.24527 0.06371 0.0
H483 H 0.53257 0.24392 0.14109 0.0
H484 H 0.4175 0.22864 0.09274 0.0
H485 H 0.43445 0.22973 -0.01282 0.0
C486 C 0.50409 0.22905 0.94419 0.0
C487 C 0.54194 0.22675 0.92789 0.0
C488 C 0.49357 0.23501 0.00357 0.0
C489 C 0.56911 0.23419 0.97128 0.0
C490 C 0.55879 0.2411 0.03053 0.0
C491 C 0.51096 0.24151 0.10751 0.0
C492 C 0.47374 0.23551 0.12492 0.0
C493 C 0.5212 0.24018 0.04734 0.0
C494 C 0.44619 0.23326 0.0808 0.0
C495 C 0.45603 0.23338 0.02047 0.0
H496 H 0.78688 0.48163 0.16731 0.0
H497 H 0.80068 0.59751 0.2101 0.0
H498 H 0.79255 0.58413 0.31585 0.0
H499 H 0.79331 0.53856 0.39566 0.0
H500 H 0.78641 0.42207 0.35252 0.0
H501 H 0.77928 0.4368 0.24713 0.0
C502 C 0.78751 0.50418 0.19957 0.0
C503 C 0.79527 0.54053 0.18076 0.0
C504 C 0.78446 0.49604 0.26027 0.0
C505 C 0.79503 0.56936 0.22315 0.0
C506 C 0.7907 0.56161 0.28371 0.0
C507 C 0.7896 0.51626 0.36346 0.0
C508 C 0.7913 0.47909 0.3821 0.0
C509 C 0.78723 0.52488 0.3028 0.0
C510 C 0.78552 0.45081 0.33969 0.0
C511 C 0.78177 0.45925 0.27929 0.0
H512 H 0.50067 0.81164 0.64877 0.0
H513 H 0.61476 0.82755 0.59727 0.0
H514 H 0.59551 0.83066 0.49267 0.0
H515 H 0.54602 0.83599 0.41899 0.0
H516 H 0.43179 0.81886 0.46894 0.0
H517 H 0.45153 0.80941 0.57246 0.0
C518 C 0.5215 0.81514 0.61462 0.0
C519 C 0.55919 0.81975 0.63086 0.0
C520 C 0.51013 0.81734 0.55497 0.0
C521 C 0.58575 0.82383 0.58602 0.0
C522 C 0.57464 0.82598 0.52637 0.0
C523 C 0.52523 0.82974 0.45208 0.0
C524 C 0.48725 0.82863 0.43617 0.0
C525 C 0.53684 0.82393 0.51078 0.0
C526 C 0.46104 0.82011 0.47992 0.0
C527 C 0.47238 0.81474 0.53901 0.0
H528 H 0.21654 0.49644 0.89926 0.0
H529 H 0.17621 0.60527 0.85737 0.0
H530 H 0.16493 0.58477 0.75421 0.0
H531 H 0.16277 0.53529 0.68025 0.0
H532 H 0.20747 0.42744 0.71979 0.0
H533 H 0.21972 0.44823 0.8224 0.0
C534 C 0.20612 0.51608 0.86742 0.0
C535 C 0.19733 0.55247 0.8858 0.0
C536 C 0.1995 0.50397 0.80907 0.0
C537 C 0.18362 0.5774 0.84402 0.0
C538 C 0.1767 0.56546 0.78551 0.0
C539 C 0.17518 0.51594 0.71087 0.0
C540 C 0.18389 0.47946 0.69211 0.0
C541 C 0.18374 0.52859 0.76825 0.0
C542 C 0.20014 0.45536 0.73298 0.0
C543 C 0.20746 0.4674 0.79133 0.0
loop_
_geom_bond_atom_site_label_1
_geom_bond_atom_site_label_2
_geom_bond_distance
_geom_bond_site_symmetry_2
_ccdc_geom_bond_type
Mn0 O5 2.095 . S
Mn0 O15 2.162 . S
Mn0 O16 2.297 . S
Mn0 O24 2.385 . S
Mn0 O25 2.209 . S
Mn0 O26 2.094 . S
Mn1 O6 2.121 . S
Mn1 N8 2.257 . S
Mn1 N17 2.282 . S
Mn1 O25 2.215 . S
Mn1 O27 2.117 . S
C2 O24 1.234 . S
C2 O25 1.283 . S
C3 O15 1.281 . S
C3 O16 1.236 . S
C4 O26 1.240 . S
C4 O27 1.264 . S
O5 Mn0 2.095 . S
O5 C14 1.250 . S
O6 Mn1 2.121 . S
O6 C14 1.258 . S
C7 N8 1.326 . S
C7 C11 1.460 . S
C7 H13 0.929 . S
N8 Mn1 2.257 . S
N8 C7 1.326 . S
N8 C12 1.362 . S
C9 C10 1.258 . S
C9 C12 1.431 . S
C9 C29 1.449 . S
C10 C9 1.258 . S
C10 C11 1.477 . S
C10 H30 0.931 . S
C11 C7 1.460 . S
C11 C10 1.477 . S
C11 H31 0.930 . S
C12 N8 1.362 . S
C12 C9 1.431 . S
C12 C22 1.476 . S
H13 C7 0.929 . S
C14 O5 1.250 . S
C14 O6 1.258 . S
O15 Mn0 2.162 . S
O15 C3 1.281 . S
O16 Mn0 2.297 . S
O16 C3 1.236 . S
N17 Mn1 2.282 . S
N17 C18 1.328 . S
N17 C22 1.318 . S
C18 N17 1.328 . S
C18 C19 1.457 . S
C18 H23 0.929 . S
C19 C18 1.457 . S
C19 C20 1.291 . S
C19 H32 0.931 . S
C20 C19 1.291 . S
C20 C21 1.373 . S
C20 H33 0.929 . S
C21 C20 1.373 . S
C21 C22 1.396 . S
C21 C28 1.403 . S
C22 C12 1.476 . S
C22 N17 1.318 . S
C22 C21 1.396 . S
H23 C18 0.929 . S
O24 Mn0 2.385 . S
O24 C2 1.234 . S
O25 Mn0 2.209 . S
O25 Mn1 2.215 . S
O25 C2 1.283 . S
O26 Mn0 2.094 . S
O26 C4 1.240 . S
O27 Mn1 2.117 . S
O27 C4 1.264 . S
C28 C21 1.403 . S
C28 C29 1.399 . S
C28 H34 0.929 . S
C29 C9 1.449 . S
C29 C28 1.399 . S
C29 H35 0.930 . S
H30 C10 0.931 . S
H31 C11 0.930 . S
H32 C19 0.931 . S
H33 C20 0.929 . S
H34 C28 0.929 . S
H35 C29 0.930 . S
Mn36 O41 2.095 . S
Mn36 O51 2.162 . S
Mn36 O52 2.297 . S
Mn36 O60 2.385 . S
Mn36 O61 2.209 . S
Mn36 O62 2.094 . S
Mn37 O42 2.121 . S
Mn37 N44 2.257 . S
Mn37 N53 2.282 . S
Mn37 O61 2.215 . S
Mn37 O63 2.117 . S
C38 O60 1.234 . S
C38 O61 1.283 . S
C39 O51 1.281 . S
C39 O52 1.236 . S
C40 O62 1.240 . S
C40 O63 1.264 . S
O41 Mn36 2.095 . S
O41 C50 1.250 . S
O42 Mn37 2.121 . S
O42 C50 1.258 . S
C43 N44 1.326 . S
C43 C47 1.460 . S
C43 H49 0.929 . S
N44 Mn37 2.257 . S
N44 C43 1.326 . S
N44 C48 1.362 . S
C45 C46 1.258 . S
C45 C48 1.431 . S
C45 C65 1.449 . S
C46 C45 1.258 . S
C46 C47 1.477 . S
C46 H66 0.931 . S
C47 C43 1.460 . S
C47 C46 1.477 . S
C47 H67 0.930 . S
C48 N44 1.362 . S
C48 C45 1.431 . S
C48 C58 1.476 . S
H49 C43 0.929 . S
C50 O41 1.250 . S
C50 O42 1.258 . S
O51 Mn36 2.162 . S
O51 C39 1.281 . S
O52 Mn36 2.297 . S
O52 C39 1.236 . S
N53 Mn37 2.282 . S
N53 C54 1.328 . S
N53 C58 1.318 . S
C54 N53 1.328 . S
C54 C55 1.457 . S
C54 H59 0.929 . S
C55 C54 1.457 . S
C55 C56 1.291 . S
C55 H68 0.931 . S
C56 C55 1.291 . S
C56 C57 1.373 . S
C56 H69 0.929 . S
C57 C56 1.373 . S
C57 C58 1.396 . S
C57 C64 1.403 . S
C58 C48 1.476 . S
C58 N53 1.318 . S
C58 C57 1.396 . S
H59 C54 0.929 . S
O60 Mn36 2.385 . S
O60 C38 1.234 . S
O61 Mn36 2.209 . S
O61 Mn37 2.215 . S
O61 C38 1.283 . S
O62 Mn36 2.094 . S
O62 C40 1.240 . S
O63 Mn37 2.117 . S
O63 C40 1.264 . S
C64 C57 1.403 . S
C64 C65 1.399 . S
C64 H70 0.929 . S
C65 C45 1.449 . S
C65 C64 1.399 . S
C65 H71 0.930 . S
H66 C46 0.931 . S
H67 C47 0.930 . S
H68 C55 0.931 . S
H69 C56 0.929 . S
H70 C64 0.929 . S
H71 C65 0.930 . S
Mn72 O77 2.095 . S
Mn72 O87 2.162 . S
Mn72 O88 2.297 . S
Mn72 O96 2.385 . S
Mn72 O97 2.209 . S
Mn72 O98 2.094 . S
Mn73 O78 2.121 . S
Mn73 N80 2.257 . S
Mn73 N89 2.282 . S
Mn73 O97 2.215 . S
Mn73 O99 2.117 . S
C74 O96 1.234 . S
C74 O97 1.283 . S
C75 O87 1.281 . S
C75 O88 1.236 . S
C76 O98 1.240 . S
C76 O99 1.264 . S
O77 Mn72 2.095 . S
O77 C86 1.250 . S
O78 Mn73 2.121 . S
O78 C86 1.258 . S
C79 N80 1.326 . S
C79 C83 1.460 . S
C79 H85 0.929 . S
N80 Mn73 2.257 . S
N80 C79 1.326 . S
N80 C84 1.362 . S
C81 C82 1.258 . S
C81 C84 1.431 . S
C81 C101 1.449 . S
C82 C81 1.258 . S
C82 C83 1.477 . S
C82 H102 0.931 . S
C83 C79 1.460 . S
C83 C82 1.477 . S
C83 H103 0.930 . S
C84 N80 1.362 . S
C84 C81 1.431 . S
C84 C94 1.476 . S
H85 C79 0.929 . S
C86 O77 1.250 . S
C86 O78 1.258 . S
O87 Mn72 2.162 . S
O87 C75 1.281 . S
O88 Mn72 2.297 . S
O88 C75 1.236 . S
N89 Mn73 2.282 . S
N89 C90 1.328 . S
N89 C94 1.318 . S
C90 N89 1.328 . S
C90 C91 1.457 . S
C90 H95 0.929 . S
C91 C90 1.457 . S
C91 C92 1.291 . S
C91 H104 0.931 1_556 S
C92 C91 1.291 . S
C92 C93 1.373 . S
C92 H105 0.929 1_556 S
C93 C92 1.373 . S
C93 C94 1.396 . S
C93 C100 1.403 . S
C94 C84 1.476 . S
C94 N89 1.318 . S
C94 C93 1.396 . S
H95 C90 0.929 . S
O96 Mn72 2.385 . S
O96 C74 1.234 . S
O97 Mn72 2.209 . S
O97 Mn73 2.215 . S
O97 C74 1.283 . S
O98 Mn72 2.094 . S
O98 C76 1.240 . S
O99 Mn73 2.117 . S
O99 C76 1.264 . S
C100 C93 1.403 . S
C100 C101 1.399 . S
C100 H106 0.929 1_556 S
C101 C81 1.449 . S
C101 C100 1.399 . S
C101 H107 0.930 . S
H102 C82 0.931 . S
H103 C83 0.930 . S
H104 C91 0.931 1_554 S
H105 C92 0.929 1_554 S
H106 C100 0.929 1_554 S
H107 C101 0.930 . S
Mn108 O113 2.095 1_554 S
Mn108 O123 2.162 . S
Mn108 O124 2.297 . S
Mn108 O132 2.385 . S
Mn108 O133 2.209 . S
Mn108 O134 2.094 . S
Mn109 O114 2.121 1_554 S
Mn109 N116 2.257 . S
Mn109 N125 2.282 . S
Mn109 O133 2.215 . S
Mn109 O135 2.117 . S
C110 O132 1.234 . S
C110 O133 1.283 . S
C111 O123 1.281 . S
C111 O124 1.236 . S
C112 O134 1.240 . S
C112 O135 1.264 . S
O113 Mn108 2.095 1_556 S
O113 C122 1.250 . S
O114 Mn109 2.121 1_556 S
O114 C122 1.258 . S
C115 N116 1.326 . S
C115 C119 1.460 . S
C115 H121 0.929 . S
N116 Mn109 2.257 . S
N116 C115 1.326 . S
N116 C120 1.362 . S
C117 C118 1.258 . S
C117 C120 1.431 . S
C117 C137 1.449 . S
C118 C117 1.258 . S
C118 C119 1.477 . S
C118 H138 0.931 . S
C119 C115 1.460 . S
C119 C118 1.477 . S
C119 H139 0.930 . S
C120 N116 1.362 . S
C120 C117 1.431 . S
C120 C130 1.476 . S
H121 C115 0.929 . S
C122 O113 1.250 . S
C122 O114 1.258 . S
O123 Mn108 2.162 . S
O123 C111 1.281 . S
O124 Mn108 2.297 . S
O124 C111 1.236 . S
N125 Mn109 2.282 . S
N125 C126 1.328 . S
N125 C130 1.318 . S
C126 N125 1.328 . S
C126 C127 1.457 . S
C126 H131 0.929 . S
C127 C126 1.457 . S
C127 C128 1.291 . S
C127 H140 0.931 . S
C128 C127 1.291 . S
C128 C129 1.373 . S
C128 H141 0.929 . S
C129 C128 1.373 . S
C129 C130 1.396 . S
C129 C136 1.403 . S
C130 C120 1.476 . S
C130 N125 1.318 . S
C130 C129 1.396 . S
H131 C126 0.929 . S
O132 Mn108 2.385 . S
O132 C110 1.234 . S
O133 Mn108 2.209 . S
O133 Mn109 2.215 . S
O133 C110 1.283 . S
O134 Mn108 2.094 . S
O134 C112 1.240 . S
O135 Mn109 2.117 . S
O135 C112 1.264 . S
C136 C129 1.403 . S
C136 C137 1.399 . S
C136 H142 0.929 . S
C137 C117 1.449 . S
C137 C136 1.399 . S
C137 H143 0.930 . S
H138 C118 0.931 . S
H139 C119 0.930 . S
H140 C127 0.931 . S
H141 C128 0.929 . S
H142 C136 0.929 . S
H143 C137 0.930 . S
Mn144 O149 2.095 . S
Mn144 O159 2.162 . S
Mn144 O160 2.297 . S
Mn144 O168 2.385 . S
Mn144 O169 2.209 . S
Mn144 O170 2.094 . S
Mn145 O150 2.121 . S
Mn145 N152 2.257 . S
Mn145 N161 2.282 . S
Mn145 O169 2.215 . S
Mn145 O171 2.117 . S
C146 O168 1.234 . S
C146 O169 1.283 . S
C147 O159 1.281 . S
C147 O160 1.236 . S
C148 O170 1.240 . S
C148 O171 1.264 . S
O149 Mn144 2.095 . S
O149 C158 1.250 . S
O150 Mn145 2.121 . S
O150 C158 1.258 . S
C151 N152 1.326 . S
C151 C155 1.460 . S
C151 H157 0.929 . S
N152 Mn145 2.257 . S
N152 C151 1.326 . S
N152 C156 1.362 . S
C153 C154 1.258 . S
C153 C156 1.431 . S
C153 C173 1.449 . S
C154 C153 1.258 . S
C154 C155 1.477 . S
C154 H174 0.931 . S
C155 C151 1.460 . S
C155 C154 1.477 . S
C155 H175 0.930 . S
C156 N152 1.362 . S
C156 C153 1.431 . S
C156 C166 1.476 . S
H157 C151 0.929 . S
C158 O149 1.250 . S
C158 O150 1.258 . S
O159 Mn144 2.162 . S
O159 C147 1.281 . S
O160 Mn144 2.297 . S
O160 C147 1.236 . S
N161 Mn145 2.282 . S
N161 C162 1.328 . S
N161 C166 1.318 . S
C162 N161 1.328 . S
C162 C163 1.457 . S
C162 H167 0.929 . S
C163 C162 1.457 . S
C163 C164 1.291 . S
C163 H176 0.931 . S
C164 C163 1.291 . S
C164 C165 1.373 . S
C164 H177 0.929 . S
C165 C164 1.373 . S
C165 C166 1.396 . S
C165 C172 1.403 . S
C166 C156 1.476 . S
C166 N161 1.318 . S
C166 C165 1.396 . S
H167 C162 0.929 . S
O168 Mn144 2.385 . S
O168 C146 1.234 . S
O169 Mn144 2.209 . S
O169 Mn145 2.215 . S
O169 C146 1.283 . S
O170 Mn144 2.094 . S
O170 C148 1.240 . S
O171 Mn145 2.117 . S
O171 C148 1.264 . S
C172 C165 1.403 . S
C172 C173 1.399 . S
C172 H178 0.929 . S
C173 C153 1.449 . S
C173 C172 1.399 . S
C173 H179 0.930 . S
H174 C154 0.931 . S
H175 C155 0.930 . S
H176 C163 0.931 . S
H177 C164 0.929 . S
H178 C172 0.929 . S
H179 C173 0.930 . S
Mn180 O185 2.095 . S
Mn180 O195 2.162 . S
Mn180 O196 2.297 . S
Mn180 O204 2.385 . S
Mn180 O205 2.209 . S
Mn180 O206 2.094 . S
Mn181 O186 2.121 . S
Mn181 N188 2.257 . S
Mn181 N197 2.282 . S
Mn181 O205 2.215 . S
Mn181 O207 2.117 . S
C182 O204 1.234 . S
C182 O205 1.283 . S
C183 O195 1.281 . S
C183 O196 1.236 . S
C184 O206 1.240 . S
C184 O207 1.264 . S
O185 Mn180 2.095 . S
O185 C194 1.250 . S
O186 Mn181 2.121 . S
O186 C194 1.258 . S
C187 N188 1.326 . S
C187 C191 1.460 . S
C187 H193 0.929 . S
N188 Mn181 2.257 . S
N188 C187 1.326 . S
N188 C192 1.362 . S
C189 C190 1.258 . S
C189 C192 1.431 . S
C189 C209 1.449 . S
C190 C189 1.258 . S
C190 C191 1.477 . S
C190 H210 0.931 . S
C191 C187 1.460 . S
C191 C190 1.477 . S
C191 H211 0.930 . S
C192 N188 1.362 . S
C192 C189 1.431 . S
C192 C202 1.476 . S
H193 C187 0.929 . S
C194 O185 1.250 . S
C194 O186 1.258 . S
O195 Mn180 2.162 . S
O195 C183 1.281 . S
O196 Mn180 2.297 . S
O196 C183 1.236 . S
N197 Mn181 2.282 . S
N197 C198 1.328 . S
N197 C202 1.318 . S
C198 N197 1.328 . S
C198 C199 1.457 . S
C198 H203 0.929 . S
C199 C198 1.457 . S
C199 C200 1.291 . S
C199 H212 0.931 . S
C200 C199 1.291 . S
C200 C201 1.373 . S
C200 H213 0.929 . S
C201 C200 1.373 . S
C201 C202 1.396 . S
C201 C208 1.403 . S
C202 C192 1.476 . S
C202 N197 1.318 . S
C202 C201 1.396 . S
H203 C198 0.929 . S
O204 Mn180 2.385 . S
O204 C182 1.234 . S
O205 Mn180 2.209 . S
O205 Mn181 2.215 . S
O205 C182 1.283 . S
O206 Mn180 2.094 . S
O206 C184 1.240 . S
O207 Mn181 2.117 . S
O207 C184 1.264 . S
C208 C201 1.403 . S
C208 C209 1.399 . S
C208 H214 0.929 . S
C209 C189 1.449 . S
C209 C208 1.399 . S
C209 H215 0.930 . S
H210 C190 0.931 . S
H211 C191 0.930 . S
H212 C199 0.931 . S
H213 C200 0.929 . S
H214 C208 0.929 . S
H215 C209 0.930 . S
Mn216 O221 2.095 . S
Mn216 O231 2.162 . S
Mn216 O232 2.297 . S
Mn216 O240 2.385 . S
Mn216 O241 2.209 . S
Mn216 O242 2.094 . S
Mn217 O222 2.121 . S
Mn217 N224 2.257 . S
Mn217 N233 2.282 . S
Mn217 O241 2.215 . S
Mn217 O243 2.117 . S
C218 O240 1.234 . S
C218 O241 1.283 . S
C219 O231 1.281 . S
C219 O232 1.236 . S
C220 O242 1.240 . S
C220 O243 1.264 . S
O221 Mn216 2.095 . S
O221 C230 1.250 . S
O222 Mn217 2.121 . S
O222 C230 1.258 . S
C223 N224 1.326 . S
C223 C227 1.460 . S
C223 H229 0.929 . S
N224 Mn217 2.257 . S
N224 C223 1.326 . S
N224 C228 1.362 . S
C225 C226 1.258 . S
C225 C228 1.431 . S
C225 C245 1.449 . S
C226 C225 1.258 . S
C226 C227 1.477 . S
C226 H246 0.931 . S
C227 C223 1.460 . S
C227 C226 1.477 . S
C227 H247 0.930 . S
C228 N224 1.362 . S
C228 C225 1.431 . S
C228 C238 1.476 . S
H229 C223 0.929 . S
C230 O221 1.250 . S
C230 O222 1.258 . S
O231 Mn216 2.162 . S
O231 C219 1.281 . S
O232 Mn216 2.297 . S
O232 C219 1.236 . S
N233 Mn217 2.282 . S
N233 C234 1.328 . S
N233 C238 1.318 . S
C234 N233 1.328 . S
C234 C235 1.457 . S
C234 H239 0.929 . S
C235 C234 1.457 . S
C235 C236 1.291 . S
C235 H248 0.931 . S
C236 C235 1.291 . S
C236 C237 1.373 . S
C236 H249 0.929 . S
C237 C236 1.373 . S
C237 C238 1.396 . S
C237 C244 1.403 . S
C238 C228 1.476 . S
C238 N233 1.318 . S
C238 C237 1.396 . S
H239 C234 0.929 . S
O240 Mn216 2.385 . S
O240 C218 1.234 . S
O241 Mn216 2.209 . S
O241 Mn217 2.215 . S
O241 C218 1.283 . S
O242 Mn216 2.094 . S
O242 C220 1.240 . S
O243 Mn217 2.117 . S
O243 C220 1.264 . S
C244 C237 1.403 . S
C244 C245 1.399 . S
C244 H250 0.929 . S
C245 C225 1.449 . S
C245 C244 1.399 . S
C245 H251 0.930 . S
H246 C226 0.931 . S
H247 C227 0.930 . S
H248 C235 0.931 . S
H249 C236 0.929 . S
H250 C244 0.929 . S
H251 C245 0.930 . S
Mn252 O257 2.095 . S
Mn252 O267 2.162 . S
Mn252 O268 2.297 . S
Mn252 O276 2.385 1_554 S
Mn252 O277 2.209 1_554 S
Mn252 O278 2.094 . S
Mn253 O258 2.121 . S
Mn253 N260 2.257 . S
Mn253 N269 2.282 1_554 S
Mn253 O277 2.215 1_554 S
Mn253 O279 2.117 . S
C254 O276 1.234 . S
C254 O277 1.283 . S
C255 O267 1.281 . S
C255 O268 1.236 . S
C256 O278 1.240 . S
C256 O279 1.264 . S
O257 Mn252 2.095 . S
O257 C266 1.250 . S
O258 Mn253 2.121 . S
O258 C266 1.258 . S
C259 N260 1.326 . S
C259 C263 1.460 . S
C259 H265 0.929 . S
N260 Mn253 2.257 . S
N260 C259 1.326 . S
N260 C264 1.362 1_554 S
C261 C262 1.258 . S
C261 C264 1.431 . S
C261 C281 1.449 . S
C262 C261 1.258 . S
C262 C263 1.477 1_556 S
C262 H282 0.931 . S
C263 C259 1.460 . S
C263 C262 1.477 1_554 S
C263 H283 0.930 . S
C264 N260 1.362 1_556 S
C264 C261 1.431 . S
C264 C274 1.476 . S
H265 C259 0.929 . S
C266 O257 1.250 . S
C266 O258 1.258 . S
O267 Mn252 2.162 . S
O267 C255 1.281 . S
O268 Mn252 2.297 . S
O268 C255 1.236 . S
N269 Mn253 2.282 1_556 S
N269 C270 1.328 . S
N269 C274 1.318 . S
C270 N269 1.328 . S
C270 C271 1.457 . S
C270 H275 0.929 . S
C271 C270 1.457 . S
C271 C272 1.291 . S
C271 H284 0.931 . S
C272 C271 1.291 . S
C272 C273 1.373 . S
C272 H285 0.929 . S
C273 C272 1.373 . S
C273 C274 1.396 . S
C273 C280 1.403 . S
C274 C264 1.476 . S
C274 N269 1.318 . S
C274 C273 1.396 . S
H275 C270 0.929 . S
O276 Mn252 2.385 1_556 S
O276 C254 1.234 . S
O277 Mn252 2.209 1_556 S
O277 Mn253 2.215 1_556 S
O277 C254 1.283 . S
O278 Mn252 2.094 . S
O278 C256 1.240 . S
O279 Mn253 2.117 . S
O279 C256 1.264 . S
C280 C273 1.403 . S
C280 C281 1.399 . S
C280 H286 0.929 . S
C281 C261 1.449 . S
C281 C280 1.399 . S
C281 H287 0.930 . S
H282 C262 0.931 . S
H283 C263 0.930 . S
H284 C271 0.931 . S
H285 C272 0.929 . S
H286 C280 0.929 . S
H287 C281 0.930 . S
H288 C294 0.930 . S
H289 C297 0.930 . S
H290 C298 0.930 . S
H291 C299 0.930 . S
H292 C302 0.930 . S
H293 C303 0.930 . S
C294 H288 0.930 . S
C294 C295 1.355 . S
C294 C296 1.415 . S
C295 C294 1.355 . S
C295 C297 1.419 . S
C296 C294 1.415 . S
C296 C301 1.425 . S
C296 C303 1.409 . S
C297 H289 0.930 . S
C297 C295 1.419 . S
C297 C298 1.362 . S
C298 H290 0.930 . S
C298 C297 1.362 . S
C298 C301 1.409 . S
C299 H291 0.930 . S
C299 C300 1.355 . S
C299 C301 1.415 . S
C300 C299 1.355 . S
C300 C302 1.419 . S
C301 C296 1.425 . S
C301 C298 1.409 . S
C301 C299 1.415 . S
C302 H292 0.930 . S
C302 C300 1.419 . S
C302 C303 1.362 . S
C303 H293 0.930 . S
C303 C296 1.409 . S
C303 C302 1.362 . S
H304 C310 0.930 . S
H305 C313 0.930 . S
H306 C314 0.930 . S
H307 C315 0.930 . S
H308 C318 0.930 . S
H309 C319 0.930 . S
C310 H304 0.930 . S
C310 C311 1.355 . S
C310 C312 1.415 . S
C311 C310 1.355 . S
C311 C313 1.419 . S
C312 C310 1.415 . S
C312 C317 1.425 . S
C312 C319 1.409 . S
C313 H305 0.930 . S
C313 C311 1.419 . S
C313 C314 1.362 . S
C314 H306 0.930 . S
C314 C313 1.362 . S
C314 C317 1.409 . S
C315 H307 0.930 . S
C315 C316 1.355 . S
C315 C317 1.415 . S
C316 C315 1.355 . S
C316 C318 1.419 . S
C317 C312 1.425 . S
C317 C314 1.409 . S
C317 C315 1.415 . S
C318 H308 0.930 . S
C318 C316 1.419 . S
C318 C319 1.362 . S
C319 H309 0.930 . S
C319 C312 1.409 . S
C319 C318 1.362 . S
H320 C326 0.930 . S
H321 C329 0.930 . S
H322 C330 0.930 . S
H323 C331 0.930 . S
H324 C334 0.930 . S
H325 C335 0.930 . S
C326 H320 0.930 . S
C326 C327 1.355 . S
C326 C328 1.415 . S
C327 C326 1.355 . S
C327 C329 1.419 . S
C328 C326 1.415 . S
C328 C333 1.425 . S
C328 C335 1.409 . S
C329 H321 0.930 . S
C329 C327 1.419 . S
C329 C330 1.362 . S
C330 H322 0.930 . S
C330 C329 1.362 . S
C330 C333 1.409 . S
C331 H323 0.930 . S
C331 C332 1.355 . S
C331 C333 1.415 1_556 S
C332 C331 1.355 . S
C332 C334 1.419 . S
C333 C328 1.425 . S
C333 C330 1.409 . S
C333 C331 1.415 1_554 S
C334 H324 0.930 . S
C334 C332 1.419 . S
C334 C335 1.362 1_556 S
C335 H325 0.930 . S
C335 C328 1.409 . S
C335 C334 1.362 1_554 S
H336 C342 0.930 . S
H337 C345 0.930 . S
H338 C346 0.930 . S
H339 C347 0.930 . S
H340 C350 0.930 . S
H341 C351 0.930 . S
C342 H336 0.930 . S
C342 C343 1.355 . S
C342 C344 1.415 . S
C343 C342 1.355 . S
C343 C345 1.419 . S
C344 C342 1.415 . S
C344 C349 1.425 . S
C344 C351 1.409 . S
C345 H337 0.930 . S
C345 C343 1.419 . S
C345 C346 1.362 . S
C346 H338 0.930 . S
C346 C345 1.362 . S
C346 C349 1.409 . S
C347 H339 0.930 . S
C347 C348 1.355 . S
C347 C349 1.415 . S
C348 C347 1.355 . S
C348 C350 1.419 . S
C349 C344 1.425 . S
C349 C346 1.409 . S
C349 C347 1.415 . S
C350 H340 0.930 . S
C350 C348 1.419 . S
C350 C351 1.362 . S
C351 H341 0.930 . S
C351 C344 1.409 . S
C351 C350 1.362 . S
H352 C358 0.930 . S
H353 C361 0.930 . S
H354 C362 0.930 . S
H355 C363 0.930 . S
H356 C366 0.930 . S
H357 C367 0.930 . S
C358 H352 0.930 . S
C358 C359 1.355 . S
C358 C360 1.415 . S
C359 C358 1.355 . S
C359 C361 1.419 . S
C360 C358 1.415 . S
C360 C365 1.425 . S
C360 C367 1.409 . S
C361 H353 0.930 . S
C361 C359 1.419 . S
C361 C362 1.362 . S
C362 H354 0.930 . S
C362 C361 1.362 . S
C362 C365 1.409 . S
C363 H355 0.930 . S
C363 C364 1.355 . S
C363 C365 1.415 . S
C364 C363 1.355 . S
C364 C366 1.419 . S
C365 C360 1.425 . S
C365 C362 1.409 . S
C365 C363 1.415 . S
C366 H356 0.930 . S
C366 C364 1.419 . S
C366 C367 1.362 . S
C367 H357 0.930 . S
C367 C360 1.409 . S
C367 C366 1.362 . S
H368 C374 0.930 . S
H369 C377 0.930 . S
H370 C378 0.930 . S
H371 C379 0.930 . S
H372 C382 0.930 . S
H373 C383 0.930 . S
C374 H368 0.930 . S
C374 C375 1.355 . S
C374 C376 1.415 . S
C375 C374 1.355 . S
C375 C377 1.419 . S
C376 C374 1.415 . S
C376 C381 1.425 . S
C376 C383 1.409 . S
C377 H369 0.930 . S
C377 C375 1.419 . S
C377 C378 1.362 . S
C378 H370 0.930 . S
C378 C377 1.362 . S
C378 C381 1.409 . S
C379 H371 0.930 . S
C379 C380 1.355 . S
C379 C381 1.415 . S
C380 C379 1.355 . S
C380 C382 1.419 . S
C381 C376 1.425 . S
C381 C378 1.409 . S
C381 C379 1.415 . S
C382 H372 0.930 . S
C382 C380 1.419 . S
C382 C383 1.362 . S
C383 H373 0.930 . S
C383 C376 1.409 . S
C383 C382 1.362 . S
H384 C390 0.930 . S
H385 C393 0.930 1_554 S
H386 C394 0.930 . S
H387 C395 0.930 . S
H388 C398 0.930 . S
H389 C399 0.930 . S
C390 H384 0.930 . S
C390 C391 1.355 . S
C390 C392 1.415 . S
C391 C390 1.355 . S
C391 C393 1.419 . S
C392 C390 1.415 . S
C392 C397 1.425 . S
C392 C399 1.409 . S
C393 H385 0.930 1_556 S
C393 C391 1.419 . S
C393 C394 1.362 . S
C394 H386 0.930 . S
C394 C393 1.362 . S
C394 C397 1.409 . S
C395 H387 0.930 . S
C395 C396 1.355 . S
C395 C397 1.415 . S
C396 C395 1.355 . S
C396 C398 1.419 . S
C397 C392 1.425 . S
C397 C394 1.409 . S
C397 C395 1.415 . S
C398 H388 0.930 . S
C398 C396 1.419 . S
C398 C399 1.362 . S
C399 H389 0.930 . S
C399 C392 1.409 . S
C399 C398 1.362 . S
H400 C406 0.930 . S
H401 C409 0.930 . S
H402 C410 0.930 . S
H403 C411 0.930 . S
H404 C414 0.930 . S
H405 C415 0.930 . S
C406 H400 0.930 . S
C406 C407 1.355 . S
C406 C408 1.415 . S
C407 C406 1.355 . S
C407 C409 1.419 . S
C408 C406 1.415 . S
C408 C413 1.425 . S
C408 C415 1.409 . S
C409 H401 0.930 . S
C409 C407 1.419 . S
C409 C410 1.362 . S
C410 H402 0.930 . S
C410 C409 1.362 . S
C410 C413 1.409 . S
C411 H403 0.930 . S
C411 C412 1.355 . S
C411 C413 1.415 . S
C412 C411 1.355 . S
C412 C414 1.419 . S
C413 C408 1.425 . S
C413 C410 1.409 . S
C413 C411 1.415 . S
C414 H404 0.930 . S
C414 C412 1.419 . S
C414 C415 1.362 . S
C415 H405 0.930 . S
C415 C408 1.409 . S
C415 C414 1.362 . S
H416 C422 0.930 . S
H417 C425 0.930 . S
H418 C426 0.930 . S
H419 C427 0.930 . S
H420 C430 0.930 . S
H421 C431 0.930 . S
C422 H416 0.930 . S
C422 C423 1.355 . S
C422 C424 1.415 . S
C423 C422 1.355 . S
C423 C425 1.419 . S
C424 C422 1.415 . S
C424 C429 1.425 1_565 S
C424 C431 1.409 1_565 S
C425 H417 0.930 . S
C425 C423 1.419 . S
C425 C426 1.362 . S
C426 H418 0.930 . S
C426 C425 1.362 . S
C426 C429 1.409 1_565 S
C427 H419 0.930 . S
C427 C428 1.355 . S
C427 C429 1.415 . S
C428 C427 1.355 . S
C428 C430 1.419 . S
C429 C424 1.425 1_545 S
C429 C426 1.409 1_545 S
C429 C427 1.415 . S
C430 H420 0.930 . S
C430 C428 1.419 . S
C430 C431 1.362 . S
C431 H421 0.930 . S
C431 C424 1.409 1_545 S
C431 C430 1.362 . S
H432 C438 0.930 . S
H433 C441 0.930 . S
H434 C442 0.930 . S
H435 C443 0.930 . S
H436 C446 0.930 . S
H437 C447 0.930 . S
C438 H432 0.930 . S
C438 C439 1.355 . S
C438 C440 1.415 . S
C439 C438 1.355 . S
C439 C441 1.419 . S
C440 C438 1.415 . S
C440 C445 1.425 1_655 S
C440 C447 1.409 1_655 S
C441 H433 0.930 . S
C441 C439 1.419 . S
C441 C442 1.362 . S
C442 H434 0.930 . S
C442 C441 1.362 . S
C442 C445 1.409 1_655 S
C443 H435 0.930 . S
C443 C444 1.355 . S
C443 C445 1.415 . S
C444 C443 1.355 . S
C444 C446 1.419 . S
C445 C440 1.425 1_455 S
C445 C442 1.409 1_455 S
C445 C443 1.415 . S
C446 H436 0.930 . S
C446 C444 1.419 . S
C446 C447 1.362 . S
C447 H437 0.930 . S
C447 C440 1.409 1_455 S
C447 C446 1.362 . S
H448 C454 0.930 . S
H449 C457 0.930 . S
H450 C458 0.930 . S
H451 C459 0.930 . S
H452 C462 0.930 . S
H453 C463 0.930 . S
C454 H448 0.930 . S
C454 C455 1.355 . S
C454 C456 1.415 . S
C455 C454 1.355 . S
C455 C457 1.419 . S
C456 C454 1.415 . S
C456 C461 1.425 1_565 S
C456 C463 1.409 1_565 S
C457 H449 0.930 . S
C457 C455 1.419 . S
C457 C458 1.362 . S
C458 H450 0.930 . S
C458 C457 1.362 . S
C458 C461 1.409 1_565 S
C459 H451 0.930 . S
C459 C460 1.355 . S
C459 C461 1.415 . S
C460 C459 1.355 . S
C460 C462 1.419 . S
C461 C456 1.425 1_545 S
C461 C458 1.409 1_545 S
C461 C459 1.415 . S
C462 H452 0.930 . S
C462 C460 1.419 . S
C462 C463 1.362 . S
C463 H453 0.930 . S
C463 C456 1.409 1_545 S
C463 C462 1.362 . S
H464 C470 0.930 1_556 S
H465 C473 0.930 . S
H466 C474 0.930 . S
H467 C475 0.930 . S
H468 C478 0.930 . S
H469 C479 0.930 . S
C470 H464 0.930 1_554 S
C470 C471 1.355 . S
C470 C472 1.415 . S
C471 C470 1.355 . S
C471 C473 1.419 . S
C472 C470 1.415 . S
C472 C477 1.425 1_655 S
C472 C479 1.409 1_654 S
C473 H465 0.930 . S
C473 C471 1.419 . S
C473 C474 1.362 . S
C474 H466 0.930 . S
C474 C473 1.362 . S
C474 C477 1.409 1_655 S
C475 H467 0.930 . S
C475 C476 1.355 . S
C475 C477 1.415 . S
C476 C475 1.355 . S
C476 C478 1.419 1_554 S
C477 C472 1.425 1_455 S
C477 C474 1.409 1_455 S
C477 C475 1.415 . S
C478 H468 0.930 . S
C478 C476 1.419 1_556 S
C478 C479 1.362 . S
C479 H469 0.930 . S
C479 C472 1.409 1_456 S
C479 C478 1.362 . S
H480 C486 0.930 . S
H481 C489 0.930 . S
H482 C490 0.930 . S
H483 C491 0.930 . S
H484 C494 0.930 . S
H485 C495 0.930 . S
C486 H480 0.930 . S
C486 C487 1.355 . S
C486 C488 1.415 1_556 S
C487 C486 1.355 . S
C487 C489 1.419 . S
C488 C486 1.415 1_554 S
C488 C493 1.425 . S
C488 C495 1.409 . S
C489 H481 0.930 . S
C489 C487 1.419 . S
C489 C490 1.362 1_556 S
C490 H482 0.930 . S
C490 C489 1.362 1_554 S
C490 C493 1.409 . S
C491 H483 0.930 . S
C491 C492 1.355 . S
C491 C493 1.415 . S
C492 C491 1.355 . S
C492 C494 1.419 . S
C493 C488 1.425 . S
C493 C490 1.409 . S
C493 C491 1.415 . S
C494 H484 0.930 . S
C494 C492 1.419 . S
C494 C495 1.362 . S
C495 H485 0.930 . S
C495 C488 1.409 . S
C495 C494 1.362 . S
H496 C502 0.930 . S
H497 C505 0.930 . S
H498 C506 0.930 . S
H499 C507 0.930 . S
H500 C510 0.930 . S
H501 C511 0.930 . S
C502 H496 0.930 . S
C502 C503 1.355 . S
C502 C504 1.415 . S
C503 C502 1.355 . S
C503 C505 1.419 . S
C504 C502 1.415 . S
C504 C509 1.425 . S
C504 C511 1.409 . S
C505 H497 0.930 . S
C505 C503 1.419 . S
C505 C506 1.362 . S
C506 H498 0.930 . S
C506 C505 1.362 . S
C506 C509 1.409 . S
C507 H499 0.930 . S
C507 C508 1.355 . S
C507 C509 1.415 . S
C508 C507 1.355 . S
C508 C510 1.419 . S
C509 C504 1.425 . S
C509 C506 1.409 . S
C509 C507 1.415 . S
C510 H500 0.930 . S
C510 C508 1.419 . S
C510 C511 1.362 . S
C511 H501 0.930 . S
C511 C504 1.409 . S
C511 C510 1.362 . S
H512 C518 0.930 . S
H513 C521 0.930 . S
H514 C522 0.930 . S
H515 C523 0.930 . S
H516 C526 0.930 . S
H517 C527 0.930 . S
C518 H512 0.930 . S
C518 C519 1.355 . S
C518 C520 1.415 . S
C519 C518 1.355 . S
C519 C521 1.419 . S
C520 C518 1.415 . S
C520 C525 1.425 . S
C520 C527 1.409 . S
C521 H513 0.930 . S
C521 C519 1.419 . S
C521 C522 1.362 . S
C522 H514 0.930 . S
C522 C521 1.362 . S
C522 C525 1.409 . S
C523 H515 0.930 . S
C523 C524 1.355 . S
C523 C525 1.415 . S
C524 C523 1.355 . S
C524 C526 1.419 . S
C525 C520 1.425 . S
C525 C522 1.409 . S
C525 C523 1.415 . S
C526 H516 0.930 . S
C526 C524 1.419 . S
C526 C527 1.362 . S
C527 H517 0.930 . S
C527 C520 1.409 . S
C527 C526 1.362 . S
H528 C534 0.930 . S
H529 C537 0.930 . S
H530 C538 0.930 . S
H531 C539 0.930 . S
H532 C542 0.930 . S
H533 C543 0.930 . S
C534 H528 0.930 . S
C534 C535 1.355 . S
C534 C536 1.415 . S
C535 C534 1.355 . S
C535 C537 1.419 . S
C536 C534 1.415 . S
C536 C541 1.425 . S
C536 C543 1.409 . S
C537 H529 0.930 . S
C537 C535 1.419 . S
C537 C538 1.362 . S
C538 H530 0.930 . S
C538 C537 1.362 . S
C538 C541 1.409 . S
C539 H531 0.930 . S
C539 C540 1.355 . S
C539 C541 1.415 . S
C540 C539 1.355 . S
C540 C542 1.419 . S
C541 C536 1.425 . S
C541 C538 1.409 . S
C541 C539 1.415 . S
C542 H532 0.930 . S
C542 C540 1.419 . S
C542 C543 1.362 . S
C543 H533 0.930 . S
C543 C536 1.409 . S
C543 C542 1.362 . S
C295 C2 0.916 . S
C300 C218 0.878 . S
C311 C38 0.925 . S
C316 C254 0.950 . S
C327 C146 0.879 . S
C332 C74 0.872 . S
C343 C182 0.951 . S
C348 C110 0.935 . S
C359 C3 1.474 . S
C364 C183 1.481 . S
C375 C39 1.501 . S
C380 C219 1.496 . S
C391 C255 1.499 1_556 S
C396 C75 1.492 . S
C407 C111 1.458 . S
C412 C147 1.461 . S
C423 C148 1.449 . S
C428 C4 1.489 . S
C439 C40 1.469 . S
C444 C184 1.481 . S
C455 C76 1.485 . S
C460 C220 1.451 . S
C471 C256 1.466 . S
C476 C112 1.484 . S
C487 C230 1.406 . S
C492 C14 1.325 . S
C503 C266 1.405 . S
C508 C50 1.396 . S
C519 C86 1.413 . S
C524 C158 1.385 . S
C535 C122 1.324 . S
C540 C194 1.355 . S
