# Generated by pormake.
# Topology snp, (6)-cn, num edge types: 1
# Building blocks:
#     Node 0, Type 0, BuildingBlock: BETGAK_clean_sbu_0, # of connection points: 6
#     Node 1, Type 0, BuildingBlock: BETGAK_clean_sbu_0, # of connection points: 6
#     Node 2, Type 0, BuildingBlock: BETGAK_clean_sbu_0, # of connection points: 6
#     Node 3, Type 0, BuildingBlock: BETGAK_clean_sbu_0, # of connection points: 6
#     Edge 4, Type (0, 0), BuildingBlock: MIFKUJ_clean_linker_0, # of connection points: 2
#     Edge 5, Type (0, 0), BuildingBlock: MIFKUJ_clean_linker_0, # of connection points: 2
#     Edge 6, Type (0, 0), BuildingBlock: MIFKUJ_clean_linker_0, # of connection points: 2
#     Edge 7, Type (0, 0), BuildingBlock: MIFKUJ_clean_linker_0, # of connection points: 2
#     Edge 8, Type (0, 0), BuildingBlock: MIFKUJ_clean_linker_0, # of connection points: 2
#     Edge 9, Type (0, 0), BuildingBlock: MIFKUJ_clean_linker_0, # of connection points: 2
#     Edge 10, Type (0, 0), BuildingBlock: MIFKUJ_clean_linker_0, # of connection points: 2
#     Edge 11, Type (0, 0), BuildingBlock: MIFKUJ_clean_linker_0, # of connection points: 2
#     Edge 12, Type (0, 0), BuildingBlock: MIFKUJ_clean_linker_0, # of connection points: 2
#     Edge 13, Type (0, 0), BuildingBlock: MIFKUJ_clean_linker_0, # of connection points: 2
#     Edge 14, Type (0, 0), BuildingBlock: MIFKUJ_clean_linker_0, # of connection points: 2
#     Edge 15, Type (0, 0), BuildingBlock: MIFKUJ_clean_linker_0, # of connection points: 2
# Relax obj value: 0.554
# Max RMSD: 0.176
# Mean RMSD: 0.176
data_MOF--net-snp--node1-BETGAK_clean_sbu_0--edge1-MIFKUJ_clean_linker_0
_symmetry_space_group_name_H-M    P1
_symmetry_Int_Tables_number       1
_symmetry_cell_setting            triclinic
loop_
_symmetry_equiv_pos_as_xyz
'x, y, z'
_cell_length_a     33.045241
_cell_length_b     32.671946
_cell_length_c     38.389949
_cell_angle_alpha  89.4558
_cell_angle_beta   90.477314
_cell_angle_gamma 89.114183
loop_
_atom_site_label
_atom_site_type_symbol
_atom_site_fract_x
_atom_site_fract_y
_atom_site_fract_z
_atom_type_partial_charge
La0 La 0.21681 0.08356 0.11879 0.0
La1 La 0.22228 0.00291 1.09599 0.0
C2 C 0.21046 0.15314 0.14616 0.0
C3 C 0.24044 0.17553 0.1665 0.0
C4 C 0.23955 0.21836 0.16715 0.0
C5 C 0.26794 0.23932 0.18717 0.0
C6 C 0.29736 0.21762 0.20706 0.0
C7 C 0.2992 0.17466 0.20469 0.0
C8 C 0.27122 0.1539 0.18444 0.0
C9 C 0.29447 0.06144 1.10336 0.0
C10 C 0.20575 0.01157 0.17885 0.0
C11 C 0.25387 0.9399 1.06955 0.0
C12 C 0.27964 0.93185 1.03924 0.0
C13 C 0.26882 0.94649 1.00595 0.0
C14 C 0.29404 0.93909 0.97771 0.0
C15 C 0.33089 0.91733 0.98217 0.0
C16 C 0.3418 0.9031 1.01568 0.0
C17 C 0.31638 0.91032 1.04393 0.0
C18 C 0.14828 0.01919 0.11362 0.0
C19 C 0.19473 0.07279 1.0377 0.0
O20 O 0.21994 0.14754 0.1137 0.0
O21 O 0.19726 0.11962 0.1606 0.0
O22 O 0.27665 0.09566 1.09602 0.0
O23 O 0.26827 0.04051 0.11935 0.0
O24 O 0.20666 0.05159 0.17097 0.0
O25 O 0.21391 0.98538 0.15302 0.0
O26 O 0.21651 0.95197 1.06346 0.0
O27 O 0.27087 0.96099 1.09424 0.0
O28 O 0.16508 0.98307 0.11546 0.0
O29 O 0.1715 0.04463 1.09903 0.0
O30 O 0.21326 0.03632 1.04333 0.0
O31 O 0.18789 0.09524 1.06602 0.0
H32 H 0.21656 0.23551 0.15268 0.0
H33 H 0.26603 0.27241 0.18793 0.0
H34 H 0.32083 0.15668 0.21992 0.0
H35 H 0.27296 0.12077 0.18357 0.0
H36 H 0.24078 0.96346 1.00159 0.0
H37 H 0.28402 0.94961 0.95219 0.0
H38 H 0.36994 0.88639 1.02014 0.0
H39 H 0.32544 0.89912 1.06953 0.0
La40 La 0.96896 0.24353 0.61917 0.0
La41 La 0.04601 0.25816 0.5992 0.0
C42 C 0.89873 0.22977 0.64085 0.0
C43 C 0.87326 0.20439 0.66282 0.0
C44 C 0.83135 0.2081 0.6582 0.0
C45 C 0.80539 0.18536 0.67879 0.0
C46 C 0.82093 0.15831 0.70441 0.0
C47 C 0.86323 0.15387 0.70841 0.0
C48 C 0.88933 0.17681 0.68765 0.0
C49 C 0.98217 0.32372 0.60196 0.0
C50 C 0.03592 0.23154 0.68124 0.0
C51 C 0.11459 0.28784 0.58717 0.0
C52 C 0.14655 0.28109 0.56168 0.0
C53 C 0.14689 0.24576 0.54129 0.0
C54 C 0.17842 0.23852 0.51819 0.0
C55 C 0.21015 0.26653 0.51504 0.0
C56 C 0.20969 0.30186 0.53569 0.0
C57 C 0.17807 0.30903 0.55889 0.0
C58 C 0.03513 0.17917 0.59564 0.0
C59 C 0.98228 0.23075 0.53836 0.0
O60 O 0.92359 0.2549 0.65607 0.0
O61 O 0.91464 0.21208 0.61374 0.0
O62 O 0.95262 0.30191 0.59119 0.0
O63 O 0.00368 0.30009 0.62059 0.0
O64 O -0.00254 0.22584 0.67141 0.0
O65 O 0.0605 0.2467 0.65684 0.0
O66 O 0.10844 0.25698 0.60814 0.0
O67 O 0.08062 0.30414 0.57547 0.0
O68 O 0.05072 0.20149 0.5714 0.0
O69 O 0.02082 0.20272 0.61865 0.0
O70 O 0.01477 0.2539 0.54529 0.0
O71 O 0.9622 0.21762 0.56589 0.0
H72 H 0.8186 0.22924 0.63897 0.0
H73 H 0.77309 0.19025 0.6755 0.0
H74 H 0.87606 0.1331 0.72785 0.0
H75 H 0.92177 0.17343 0.69119 0.0
H76 H 0.12297 0.22361 0.54343 0.0
H77 H 0.17805 0.21078 0.50298 0.0
H78 H 0.23329 0.32434 0.53346 0.0
H79 H 0.17824 0.33635 0.57467 0.0
La80 La 0.8214 0.00515 0.12245 0.0
La81 La 0.82195 0.08825 1.09877 0.0
C82 C 0.8296 0.93469 0.14951 0.0
C83 C 0.80249 0.90219 0.16107 0.0
C84 C 0.81344 0.86118 0.15563 0.0
C85 C 0.79064 0.82979 0.17021 0.0
C86 C 0.75698 0.83899 0.19118 0.0
C87 C 0.74408 0.88024 0.19359 0.0
C88 C 0.76657 0.91149 0.17863 0.0
C89 C 0.7458 0.03076 1.10294 0.0
C90 C 0.83477 0.07862 0.18132 0.0
C91 C 0.79351 0.15313 1.07188 0.0
C92 C 0.76118 0.1571 1.04575 0.0
C93 C 0.74433 0.12144 1.03234 0.0
C94 C 0.71316 0.12385 1.00789 0.0
C95 C 0.6978 0.1621 0.99637 0.0
C96 C 0.71363 0.19792 1.0111 0.0
C97 C 0.74518 0.19539 1.03569 0.0
C98 C 0.89391 0.06151 0.1211 0.0
C99 C 0.84528 0.01813 1.04108 0.0
O100 O 0.83021 0.94179 0.11611 0.0
O101 O 0.82903 0.96855 0.16734 0.0
O102 O 0.7615 0.99483 1.0992 0.0
O103 O 0.77267 0.05115 0.11887 0.0
O104 O 0.83291 0.03833 0.17421 0.0
O105 O 0.82932 0.10508 0.15493 0.0
O106 O 0.82713 0.1355 1.06147 0.0
O107 O 0.78126 0.13778 1.10141 0.0
O108 O 0.88215 0.09979 0.12136 0.0
O109 O 0.86758 0.04247 1.10419 0.0
O110 O 0.83081 0.05622 1.04646 0.0
O111 O 0.84838 0.9936 1.06916 0.0
H112 H 0.84057 0.85346 0.1413 0.0
H113 H 0.8008 0.79847 0.16664 0.0
H114 H 0.71853 0.8891 0.2094 0.0
H115 H 0.75702 0.94299 0.18244 0.0
H116 H 0.75574 0.09155 1.04045 0.0
H117 H 0.70266 0.09555 0.99678 0.0
H118 H 0.70235 0.22784 1.003 0.0
H119 H 0.7573 0.22318 1.04653 0.0
La120 La 0.05837 0.83621 0.6226 0.0
La121 La 0.98555 0.86817 0.59761 0.0
C122 C 0.13103 0.81322 0.6337 0.0
C123 C 0.16985 0.82542 0.64897 0.0
C124 C 0.20561 0.81596 0.63106 0.0
C125 C 0.24332 0.82346 0.64622 0.0
C126 C 0.24566 0.841 0.67932 0.0
C127 C 0.20982 0.85128 0.69689 0.0
C128 C 0.17215 0.84344 0.68192 0.0
C129 C 0.00601 0.77498 0.61139 0.0
C130 C -0.00151 0.87278 0.683 0.0
C131 C 0.91025 0.87305 0.58683 0.0
C132 C 0.88119 0.85724 0.56161 0.0
C133 C 0.83973 0.86364 0.56696 0.0
C134 C 0.81146 0.84711 0.54405 0.0
C135 C 0.82433 0.82384 0.51546 0.0
C136 C 0.86608 0.81711 0.51053 0.0
C137 C 0.8943 0.83362 0.5335 0.0
C138 C 0.04163 0.92379 0.60948 0.0
C139 C 0.0508 0.86711 0.53869 0.0
O140 O 0.10123 0.80618 0.65485 0.0
O141 O 0.11886 0.83273 0.60571 0.0
O142 O 0.02817 0.78054 0.63845 0.0
O143 O 0.01186 0.80608 0.59162 0.0
O144 O 0.03701 0.86207 0.67527 0.0
O145 O 0.97285 0.87485 0.65579 0.0
O146 O 0.93582 0.90017 0.57541 0.0
O147 O 0.92791 0.84502 0.60644 0.0
O148 O 0.01535 0.92695 0.58424 0.0
O149 O 0.03256 0.89361 0.62744 0.0
O150 O 0.01107 0.86662 0.54403 0.0
O151 O 0.07465 0.85834 0.56666 0.0
H152 H 0.20436 0.80171 0.60571 0.0
H153 H 0.27061 0.81501 0.6324 0.0
H154 H 0.211 0.86376 0.72288 0.0
H155 H 0.14498 0.85081 0.69632 0.0
H156 H 0.82923 0.88132 0.58895 0.0
H157 H 0.77955 0.8526 0.54865 0.0
H158 H 0.87704 0.79999 0.48841 0.0
H159 H 0.9263 0.82805 0.52932 0.0
H160 H 0.90514 0.98031 0.13487 0.0
H161 H 0.92691 0.94885 0.18942 0.0
H162 H 0.95218 0.06912 0.23024 0.0
H163 H 0.93028 0.09975 0.17566 0.0
H164 H 0.96723 0.92133 0.2362 0.0
H165 H 0.03948 0.05482 0.30993 0.0
H166 H 0.02072 0.08374 0.36605 0.0
H167 H 0.90056 0.03789 0.35489 0.0
H168 H 0.91746 0.00981 0.2977 0.0
H169 H 0.07653 0.98338 1.10524 0.0
H170 H 0.03094 0.96977 0.15291 0.0
H171 H 0.09738 0.05368 0.21757 0.0
H172 H 0.13665 0.07344 0.1672 0.0
H173 H 0.04359 0.04783 0.25205 0.0
H174 H 0.10211 0.93253 0.22193 0.0
H175 H 0.13559 0.87332 0.19439 0.0
H176 H 0.02064 0.83254 0.15643 0.0
H177 H 0.98672 0.89174 0.18321 0.0
C178 C 0.91604 -0.00019 0.15546 0.0
C179 C 0.91617 0.04244 0.15088 0.0
C180 C 0.92805 0.98185 0.18717 0.0
C181 C 0.94244 0.00589 0.21498 0.0
C182 C 0.94228 0.04887 0.20993 0.0
C183 C 0.93036 0.06669 0.17817 0.0
C184 C 0.9643 0.9862 0.24595 0.0
C185 C 0.98409 0.94944 0.23734 0.0
C186 C 0.99067 0.01228 0.26408 0.0
C187 C 0.97969 0.03071 0.29828 0.0
C188 C 0.00867 0.05134 0.31859 0.0
C189 C -0.00166 0.06765 0.35091 0.0
C190 C 0.95939 0.06293 0.36389 0.0
C191 C 0.93066 0.04182 0.34459 0.0
C192 C 0.94056 0.0259 0.312 0.0
C193 C 0.07983 0.00046 0.12915 0.0
C194 C 0.11147 0.02793 0.13322 0.0
C195 C 0.0551 0.99116 0.15714 0.0
C196 C 0.06329 0.00713 0.19041 0.0
C197 C 0.09137 0.03889 0.19303 0.0
C198 C 0.11415 0.05027 0.16409 0.0
C199 C 0.04004 0.99238 0.22101 0.0
C200 C 0.0274 0.02003 0.24698 0.0
C201 C 0.02219 0.95281 0.22141 0.0
C202 C 0.0419 0.9166 0.20507 0.0
C203 C 0.08406 0.91093 0.20773 0.0
C204 C 0.1031 0.87738 0.19217 0.0
C205 C 0.08023 0.84909 0.17375 0.0
C206 C 0.0383 0.85436 0.17087 0.0
C207 C 0.01913 0.8879 0.18642 0.0
H208 H 0.095 0.82313 0.16166 0.0
H209 H 0.95151 0.07548 0.38898 0.0
H210 H 0.10391 0.89655 0.64979 0.0
H211 H 0.17193 0.92271 0.65369 0.0
H212 H 0.141 0.01369 0.57528 0.0
H213 H 0.07402 0.98451 0.5687 0.0
H214 H 0.22627 0.01278 0.58483 0.0
H215 H 0.10972 -0.00108 0.69278 0.0
H216 H 0.09707 0.95632 0.74493 0.0
H217 H 0.22467 0.93214 0.75627 0.0
H218 H 0.23783 0.97433 0.70387 0.0
H219 H 0.0733 0.12436 0.55426 0.0
H220 H 0.13458 0.08677 0.56948 0.0
H221 H 0.12283 0.12614 0.67648 0.0
H222 H 0.05853 0.15755 0.66187 0.0
H223 H 0.15442 0.06747 0.687 0.0
H224 H 0.21891 0.14775 0.61572 0.0
H225 H 0.2434 0.19578 0.57113 0.0
H226 H 0.23738 0.10185 0.49399 0.0
H227 H 0.21205 0.05341 0.5376 0.0
C228 C 0.11201 0.92126 0.63243 0.0
C229 C 0.08326 0.93928 0.6095 0.0
C230 C 0.15119 0.93603 0.63467 0.0
C231 C 0.1615 0.97138 0.61628 0.0
C232 C 0.13401 0.9869 0.59068 0.0
C233 C 0.09521 0.97082 0.58724 0.0
C234 C 0.19276 -0.00117 0.63099 0.0
C235 C 0.21094 0.02554 0.60713 0.0
C236 C 0.18281 0.01558 0.66374 0.0
C237 C 0.17477 0.98961 0.69459 0.0
C238 C 0.13502 0.98457 0.70654 0.0
C239 C 0.12774 0.96034 0.73596 0.0
C240 C 0.16006 0.94142 0.75384 0.0
C241 C 0.19967 0.94665 0.74227 0.0
C242 C 0.20703 0.97041 0.71257 0.0
C243 C 0.0831 0.12334 0.58128 0.0
C244 C 0.06145 0.14469 0.60669 0.0
C245 C 0.11936 0.10333 0.58991 0.0
C246 C 0.1355 0.10501 0.62404 0.0
C247 C 0.11229 0.12442 0.64979 0.0
C248 C 0.07504 0.14254 0.64142 0.0
C249 C 0.17218 0.08012 0.63365 0.0
C250 C 0.17056 0.05662 0.66439 0.0
C251 C 0.19998 0.0674 0.60778 0.0
C252 C 0.21417 0.09645 0.58045 0.0
C253 C 0.22265 0.1372 0.58926 0.0
C254 C 0.23673 0.16458 0.56408 0.0
C255 C 0.24236 0.15172 0.52986 0.0
C256 C 0.23345 0.11161 0.52063 0.0
C257 C 0.21941 0.08406 0.54569 0.0
H258 H 0.25345 0.17286 0.51043 0.0
H259 H 0.15442 0.92277 0.77669 0.0
H260 H 0.69778 0.10294 1.10657 0.0
H261 H 0.62338 0.10954 1.10632 0.0
H262 H 0.61415 0.97816 1.10319 0.0
H263 H 0.68754 0.97191 1.10148 0.0
H264 H 0.55743 0.0005 1.06694 0.0
H265 H 0.5929 0.05043 0.18029 0.0
H266 H 0.62687 0.09479 0.22278 0.0
H267 H 0.56967 0.20084 0.1759 0.0
H268 H 0.53572 0.15712 0.13287 0.0
H269 H 0.34438 0.99164 0.11507 0.0
H270 H 0.41903 0.98679 0.1151 0.0
H271 H 0.42512 0.11644 1.09533 0.0
H272 H 0.35119 0.12116 1.09454 0.0
H273 H 0.48234 0.09613 0.14302 0.0
H274 H 0.4445 0.04316 1.03144 0.0
H275 H 0.4128 0.99739 0.98872 0.0
H276 H 0.47519 0.89399 1.03497 0.0
H277 H 0.50673 0.93898 1.07836 0.0
C278 C 0.67993 0.07544 1.10599 0.0
C279 C 0.69968 0.03683 1.10427 0.0
C280 C 0.63678 0.07913 1.10611 0.0
C281 C 0.61138 0.04434 1.10539 0.0
C282 C 0.63154 0.00597 1.10365 0.0
C283 C 0.67428 0.00236 1.10288 0.0
C284 C 0.56448 0.04703 1.10583 0.0
C285 C 0.54146 0.02107 1.08424 0.0
C286 C 0.54181 0.07424 0.12738 0.0
C287 C 0.56214 0.10056 0.15315 0.0
C288 C 0.58779 0.08324 0.17892 0.0
C289 C 0.607 0.10826 0.20311 0.0
C290 C 0.60053 0.15062 0.20197 0.0
C291 C 0.57472 0.16804 0.1767 0.0
C292 C 0.55547 0.14316 0.15242 0.0
C293 C 0.36148 0.01917 1.1107 0.0
C294 C 0.34077 0.05683 1.10476 0.0
C295 C 0.40465 0.01639 1.11058 0.0
C296 C 0.42902 0.05124 1.10505 0.0
C297 C 0.40814 0.08881 1.09975 0.0
C298 C 0.36526 0.09145 1.09922 0.0
C299 C 0.47571 0.04909 1.10467 0.0
C300 C 0.49855 0.07531 0.12607 0.0
C301 C 0.49822 0.0217 1.08334 0.0
C302 C 0.4777 0.99441 1.05837 0.0
C303 C 0.45102 0.01059 1.03283 0.0
C304 C 0.43319 0.98481 1.00841 0.0
C305 C 0.44213 0.94288 1.0091 0.0
C306 C 0.4684 0.92651 1.03446 0.0
C307 C 0.48623 0.95211 1.05898 0.0
H308 H 0.42893 0.92308 0.98985 0.0
H309 H 0.61543 0.16994 0.22073 0.0
H310 H 0.04718 0.37383 0.61577 0.0
H311 H 0.05061 0.4486 0.61277 0.0
H312 H 0.92439 0.45522 0.58353 0.0
H313 H 0.92198 0.38022 0.58413 0.0
H314 H 0.95303 0.5133 0.55179 0.0
H315 H 0.97218 0.48026 0.67242 0.0
H316 H 0.00318 0.44641 0.72402 0.0
H317 H 0.11761 0.49983 0.69982 0.0
H318 H 0.08738 0.53364 0.64785 0.0
H319 H 0.93632 0.73102 0.59585 0.0
H320 H 0.93033 0.65603 0.59121 0.0
H321 H 0.05989 0.64281 0.60031 0.0
H322 H 0.06572 0.71712 0.60482 0.0
H323 H 0.02705 0.58918 0.64274 0.0
H324 H 0.00304 0.6243 0.52176 0.0
H325 H 0.96761 0.66007 0.47326 0.0
H326 H 0.85593 0.60448 0.50274 0.0
H327 H 0.89062 0.56875 0.5517 0.0
C328 C 0.0201 0.39114 0.60865 0.0
C329 C 0.98424 0.3703 0.60041 0.0
C330 C 0.02188 0.43451 0.60731 0.0
C331 C 0.98745 0.45924 0.5989 0.0
C332 C 0.95171 0.43812 0.59026 0.0
C333 C 0.95023 0.39471 0.59076 0.0
C334 C 0.98863 0.50646 0.59889 0.0
C335 C 0.96885 0.52951 0.57215 0.0
C336 C 0.00936 0.52931 0.62483 0.0
C337 C 0.02761 0.50913 0.65607 0.0
C338 C 0.00401 0.48459 0.67801 0.0
C339 C 0.02144 0.46543 0.70732 0.0
C340 C 0.06237 0.47087 0.71513 0.0
C341 C 0.08593 0.49559 0.6937 0.0
C342 C 0.06866 0.51478 0.66433 0.0
C343 C 0.96363 0.71227 0.59563 0.0
C344 C 0.00163 0.73086 0.59983 0.0
C345 C 0.96022 0.66896 0.59327 0.0
C346 C -0.00533 0.64256 0.59534 0.0
C347 C 0.03256 0.66148 0.59868 0.0
C348 C 0.03594 0.70447 0.60083 0.0
C349 C 0.99178 0.59566 0.59565 0.0
C350 C 0.01123 0.57276 0.62248 0.0
C351 C 0.97008 0.57313 0.57024 0.0
C352 C 0.94935 0.59417 0.54059 0.0
C353 C 0.97088 0.61991 0.51803 0.0
C354 C 0.95094 0.64014 0.49044 0.0
C355 C 0.90952 0.63464 0.48498 0.0
C356 C 0.88799 0.60876 0.50703 0.0
C357 C 0.90779 0.58847 0.53468 0.0
H358 H 0.89413 0.65037 0.46363 0.0
H359 H 0.0758 0.45601 0.73784 0.0
H360 H 0.2918 0.28085 0.52153 0.0
H361 H 0.34345 0.27352 0.47621 0.0
H362 H 0.2525 0.22945 0.40514 0.0
H363 H 0.2012 0.23752 0.44937 0.0
H364 H 0.32331 0.18533 0.40086 0.0
H365 H 0.27636 0.33109 0.40644 0.0
H366 H 0.27098 0.39667 0.43764 0.0
H367 H 0.40002 0.39715 0.45196 0.0
H368 H 0.406 0.33133 0.42109 0.0
H369 H 0.27321 0.28114 0.24802 0.0
H370 H 0.30041 0.29673 0.30478 0.0
H371 H 0.40209 0.21543 0.28729 0.0
H372 H 0.37561 0.20048 0.22919 0.0
H373 H 0.36652 0.31592 0.34684 0.0
H374 H 0.39886 0.14942 0.34884 0.0
H375 H 0.38882 0.08661 0.31457 0.0
H376 H 0.27156 0.13111 0.28151 0.0
H377 H 0.28098 0.19399 0.3157 0.0
C378 C 0.28297 0.26954 0.49621 0.0
C379 C 0.24237 0.25982 0.489 0.0
C380 C 0.31254 0.26504 0.47055 0.0
C381 C 0.30181 0.25067 0.43748 0.0
C382 C 0.26158 0.23994 0.4307 0.0
C383 C 0.2322 0.24459 0.45607 0.0
C384 C 0.33048 0.25006 0.40817 0.0
C385 C 0.33452 0.21354 0.3896 0.0
C386 C 0.34517 0.2868 0.3936 0.0
C387 C 0.34157 0.32627 0.41189 0.0
C388 C 0.30351 0.34516 0.41642 0.0
C389 C 0.30036 0.38233 0.43401 0.0
C390 C 0.33513 0.40101 0.44687 0.0
C391 C 0.37312 0.38259 0.44207 0.0
C392 C 0.37641 0.34537 0.42455 0.0
C393 C 0.30252 0.26821 0.25509 0.0
C394 C 0.32138 0.23827 0.23448 0.0
C395 C 0.31821 0.27732 0.28781 0.0
C396 C 0.35267 0.25634 0.3006 0.0
C397 C 0.3751 0.23147 0.27803 0.0
C398 C 0.35959 0.22259 0.245 0.0
C399 C 0.35674 0.25166 0.3388 0.0
C400 C 0.35887 0.28704 0.35913 0.0
C401 C 0.34658 0.21401 0.35483 0.0
C402 C 0.34076 0.17629 0.3345 0.0
C403 C 0.37098 0.14567 0.33425 0.0
C404 C 0.3654 0.11013 0.31485 0.0
C405 C 0.32963 0.10495 0.29579 0.0
C406 C 0.29927 0.13519 0.29622 0.0
C407 C 0.3047 0.17074 0.31559 0.0
H408 H 0.32536 0.07743 0.2808 0.0
H409 H 0.33264 0.42979 0.46047 0.0
H410 H 0.82982 0.14987 0.77464 0.0
H411 H 0.77827 0.13079 0.8162 0.0
H412 H 0.69552 0.10499 0.73199 0.0
H413 H 0.74758 0.12363 0.68984 0.0
H414 H 0.66438 0.16001 0.77811 0.0
H415 H 0.72424 0.02667 0.78628 0.0
H416 H 0.78242 0.97844 0.78914 0.0
H417 H 0.81919 0.02877 0.88706 0.0
H418 H 0.76183 0.07767 0.88465 0.0
H419 H 0.63564 0.11059 0.97906 0.0
H420 H 0.61661 0.0948 0.91913 0.0
H421 H 0.67868 0.2022 0.88327 0.0
H422 H 0.69948 0.21689 0.9422 0.0
H423 H 0.68703 0.07735 0.88559 0.0
H424 H 0.65461 0.22736 0.80373 0.0
H425 H 0.60448 0.28389 0.80306 0.0
H426 H 0.5196 0.20809 0.85653 0.0
H427 H 0.56895 0.15076 0.85708 0.0
C428 C 0.80129 0.13865 0.76482 0.0
C429 C 0.79273 0.13853 0.72896 0.0
C430 C 0.77172 0.12776 0.78865 0.0
C431 C 0.73314 0.11617 0.77713 0.0
C432 C 0.72515 0.11374 0.74133 0.0
C433 C 0.75485 0.12454 0.71738 0.0
C434 C 0.70036 0.11232 0.80287 0.0
C435 C 0.6686 0.14139 0.80143 0.0
C436 C 0.70522 0.08695 0.83266 0.0
C437 C 0.73847 0.05581 0.83529 0.0
C438 C 0.74466 0.02738 0.80849 0.0
C439 C 0.77759 -1e-05 0.81 0.0
C440 C 0.80453 0.00067 0.83823 0.0
C441 C 0.7983 0.0283 0.86524 0.0
C442 C 0.76547 0.05576 0.86387 0.0
C443 C 0.64398 0.13168 0.95849 0.0
C444 C 0.67087 0.16378 0.96517 0.0
C445 C 0.63255 0.12285 0.9243 0.0
C446 C 0.64699 0.14677 0.8967 0.0
C447 C 0.66714 0.18324 0.90414 0.0
C448 C 0.67922 0.19162 0.93815 0.0
C449 C 0.65404 0.1282 0.86226 0.0
C450 C 0.68109 0.0946 0.86176 0.0
C451 C 0.64563 0.15019 0.83114 0.0
C452 C 0.61555 0.18453 0.83028 0.0
C453 C 0.62511 0.22247 0.81499 0.0
C454 C 0.59685 0.25476 0.81474 0.0
C455 C 0.55887 0.24958 0.8297 0.0
C456 C 0.54905 0.21208 0.84496 0.0
C457 C 0.57719 0.17967 0.84528 0.0
H458 H 0.53705 0.27464 0.82951 0.0
H459 H 0.83037 0.97998 0.83911 0.0
H460 H 0.75903 0.86594 0.48889 0.0
H461 H 0.72008 0.84938 0.43691 0.0
H462 H 0.78479 0.73423 0.42917 0.0
H463 H 0.82332 0.75009 0.4819 0.0
H464 H 0.7685 0.84306 0.37972 0.0
H465 H 0.72551 0.67094 0.3747 0.0
H466 H 0.69697 0.61838 0.41349 0.0
H467 H 0.63937 0.71204 0.47412 0.0
H468 H 0.667 0.76513 0.43542 0.0
H469 H 0.79804 0.77442 0.22235 0.0
H470 H 0.78261 0.74639 0.27891 0.0
H471 H 0.66596 0.80682 0.27613 0.0
H472 H 0.67956 0.8328 0.21771 0.0
H473 H 0.69443 0.72473 0.33181 0.0
H474 H 0.71081 0.88234 0.30503 0.0
H475 H 0.74289 0.93402 0.26724 0.0
H476 H 0.85565 0.86713 0.27353 0.0
H477 H 0.82427 0.81551 0.3118 0.0
C478 C 0.76385 0.83632 0.47707 0.0
C479 C 0.79483 0.80966 0.48907 0.0
C480 C 0.74149 0.82689 0.44735 0.0
C481 C 0.74968 0.79069 0.42918 0.0
C482 C 0.77777 0.76218 0.443 0.0
C483 C 0.80019 0.77158 0.47279 0.0
C484 C 0.73684 0.78764 0.39238 0.0
C485 C 0.75137 0.81763 0.36959 0.0
C486 C 0.71559 0.75386 0.37895 0.0
C487 C 0.69867 0.72207 0.40227 0.0
C488 C 0.70662 0.68034 0.39621 0.0
C489 C 0.69061 0.65044 0.41821 0.0
C490 C 0.66647 0.66186 0.44631 0.0
C491 C 0.65821 0.70323 0.45243 0.0
C492 C 0.67412 0.73325 0.43051 0.0
C493 C 0.76786 0.77969 0.23221 0.0
C494 C 0.7409 0.80798 0.21605 0.0
C495 C 0.75904 0.76325 0.26486 0.0
C496 C 0.72372 0.77556 0.28196 0.0
C497 C 0.69361 0.7973 0.26335 0.0
C498 C 0.70192 0.81291 0.2302 0.0
C499 C 0.72599 0.78022 0.32002 0.0
C500 C 0.71032 0.75055 0.34259 0.0
C501 C 0.74642 0.81417 0.33375 0.0
C502 C 0.76527 0.84523 0.31105 0.0
C503 C 0.74247 0.87886 0.2984 0.0
C504 C 0.76055 0.90815 0.27703 0.0
C505 C 0.80129 0.90387 0.268 0.0
C506 C 0.82412 0.87044 0.28055 0.0
C507 C 0.80628 0.84129 0.3022 0.0
H508 H 0.81513 0.92641 0.25124 0.0
H509 H 0.65411 0.63867 0.4633 0.0
H510 H 0.27637 0.90985 0.70744 0.0
H511 H 0.33075 0.91306 0.75058 0.0
H512 H 0.35737 0.78469 0.73562 0.0
H513 H 0.30243 0.78157 0.69245 0.0
H514 H 0.33149 0.80078 0.79965 0.0
H515 H 0.43509 0.85179 0.72972 0.0
H516 H 0.46717 0.89372 0.68429 0.0
H517 H 0.43935 0.00281 0.74137 0.0
H518 H 0.40652 0.96171 0.7869 0.0
H519 H 0.37389 0.84638 0.96924 0.0
H520 H 0.40084 0.82477 0.91331 0.0
H521 H 0.36909 0.94285 0.86883 0.0
H522 H 0.34553 0.96584 0.92525 0.0
H523 H 0.42692 0.91015 0.83162 0.0
H524 H 0.29686 0.86294 0.87842 0.0
H525 H 0.2557 0.82648 0.9218 0.0
H526 H 0.32502 0.71624 0.905 0.0
H527 H 0.36685 0.7523 0.86175 0.0
C528 C 0.29478 0.88278 0.71256 0.0
C529 C 0.28494 0.8454 0.69729 0.0
C530 C 0.32626 0.88466 0.73683 0.0
C531 C 0.34825 0.84907 0.74632 0.0
C532 C 0.34099 0.81254 0.72847 0.0
C533 C 0.3096 0.81077 0.70393 0.0
C534 C 0.37004 0.84826 0.78017 0.0
C535 C 0.35375 0.82354 0.80641 0.0
C536 C 0.3985 0.87839 0.78907 0.0
C537 C 0.41836 0.90352 0.76184 0.0
C538 C 0.43561 0.88474 0.73254 0.0
C539 C 0.45396 0.90838 0.70676 0.0
C540 C 0.45533 0.95089 0.70996 0.0
C541 C 0.43836 0.96986 0.73897 0.0
C542 C 0.41997 0.94637 0.76484 0.0
C543 C 0.37425 0.8684 0.94801 0.0
C544 C 0.35591 0.90733 0.95132 0.0
C545 C 0.38958 0.85589 0.91594 0.0
C546 C 0.38544 0.88158 0.88654 0.0
C547 C 0.37204 0.92215 0.89096 0.0
C548 C 0.35775 0.93502 0.92315 0.0
C549 C 0.38604 0.86467 0.85081 0.0
C550 C 0.40649 0.88591 0.82446 0.0
C551 C 0.36038 0.83209 0.84155 0.0
C552 C 0.33523 0.81035 0.86732 0.0
C553 C 0.30336 0.83096 0.88413 0.0
C554 C 0.27995 0.8104 0.90867 0.0
C555 C 0.28783 0.76909 0.91624 0.0
C556 C 0.31905 0.74825 0.89919 0.0
C557 C 0.34264 0.76873 0.87469 0.0
H558 H 0.26967 0.75321 0.93524 0.0
H559 H 0.46954 0.96914 0.68996 0.0
H560 H 0.86517 0.93863 1.01649 0.0
H561 H 0.88966 0.9154 0.9594 0.0
H562 H 0.88655 0.03962 0.92182 0.0
H563 H 0.86142 0.06278 0.97863 0.0
H564 H 0.86293 0.914 0.88998 0.0
H565 H 0.94131 0.05815 0.87281 0.0
H566 H 0.98151 0.10859 0.9053 0.0
H567 H 0.04163 0.01111 0.96207 0.0
H568 H 0.00078 0.96031 0.93067 0.0
H569 H 0.92007 0.89025 0.70787 0.0
H570 H 0.89607 0.91348 0.76469 0.0
H571 H 0.01853 0.91344 0.80323 0.0
H572 H 0.04269 0.89007 0.74589 0.0
H573 H 0.98518 0.97355 0.83724 0.0
H574 H 0.93535 0.83889 0.82697 0.0
H575 H 0.89945 0.78108 0.80068 0.0
H576 H 0.78768 0.84971 0.80338 0.0
H577 H 0.82293 0.90802 0.82935 0.0
C578 C 0.86951 0.96147 0.99632 0.0
C579 C 0.86056 0.00332 1.00397 0.0
C580 C 0.88386 0.94781 0.9628 0.0
C581 C 0.89154 0.97494 0.93437 0.0
C582 C 0.88259 0.01681 0.94204 0.0
C583 C 0.86744 0.0304 0.97532 0.0
C584 C 0.90813 0.95973 0.89762 0.0
C585 C 0.88927 0.92797 0.87853 0.0
C586 C 0.94352 0.97538 0.8811 0.0
C587 C 0.96815 0.00567 0.89951 0.0
C588 C 0.96308 0.04761 0.8923 0.0
C589 C 0.98571 0.07622 0.9107 0.0
C590 C 0.01419 0.06306 0.93566 0.0
C591 C 0.01963 0.02127 0.94269 0.0
C592 C -0.00346 0.99261 0.92481 0.0
C593 C 0.94242 0.89473 0.7282 0.0
C594 C 0.98403 0.88707 0.72054 0.0
C595 C 0.92826 0.90818 0.76174 0.0
C596 C 0.95443 0.91537 0.79074 0.0
C597 C -0.00375 0.90855 0.78293 0.0
C598 C 0.01046 0.89463 0.74932 0.0
C599 C 0.93836 0.92967 0.82808 0.0
C600 C 0.9579 0.96057 0.84781 0.0
C601 C 0.90341 0.91314 0.84512 0.0
C602 C 0.88195 0.87812 0.82966 0.0
C603 C 0.90317 0.84178 0.82171 0.0
C604 C 0.88291 0.80887 0.80691 0.0
C605 C 0.84134 0.81178 0.80023 0.0
C606 C 0.81991 0.84754 0.80847 0.0
C607 C 0.84003 0.88055 0.82325 0.0
H608 H 0.82571 0.78627 0.78877 0.0
H609 H 0.03203 0.08523 0.94956 0.0
H610 H 0.18602 0.05636 0.23967 0.0
H611 H 0.16222 0.03371 0.29716 0.0
H612 H 0.1685 0.90867 0.26387 0.0
H613 H 0.19232 0.93137 0.20623 0.0
H614 H 0.10134 0.91447 0.30377 0.0
H615 H 0.23756 0.95782 0.32735 0.0
H616 H 0.29344 0.00704 0.32844 0.0
H617 H 0.22238 0.08836 0.39137 0.0
H618 H 0.16581 0.03995 0.39017 0.0
H619 H 0.00971 0.88875 0.47599 0.0
H620 H 0.0343 0.91245 0.41942 0.0
H621 H 0.15684 0.90225 0.45721 0.0
H622 H 0.13189 0.87935 0.51451 0.0
H623 H 0.16144 0.96255 0.41432 0.0
H624 H 0.02568 0.92299 0.32866 0.0
H625 H 0.96939 0.87442 0.32552 0.0
H626 H 0.03913 0.78604 0.38503 0.0
H627 H 0.09606 0.83393 0.38815 0.0
C628 C 0.18292 0.02383 0.24421 0.0
C629 C 0.19227 0.9964 0.21655 0.0
C630 C 0.16896 0.01049 0.27804 0.0
C631 C 0.16294 0.96855 0.28714 0.0
C632 C 0.17222 0.94115 0.25946 0.0
C633 C 0.1864 0.95448 0.22565 0.0
C634 C 0.14717 0.95354 0.32442 0.0
C635 C 0.11481 0.92552 0.32768 0.0
C636 C 0.1632 0.96651 0.35742 0.0
C637 C 0.19732 0.99538 0.35843 0.0
C638 C 0.23375 0.98631 0.34124 0.0
C639 C 0.26556 0.01406 0.34188 0.0
C640 C 0.26143 0.05082 0.35992 0.0
C641 C 0.22551 0.05989 0.37738 0.0
C642 C 0.19358 0.0323 0.37674 0.0
C643 C 0.0421 0.89097 0.47273 0.0
C644 C 0.06797 0.88077 0.50162 0.0
C645 C 0.05667 0.90466 0.43921 0.0
C646 C 0.09858 0.90915 0.43128 0.0
C647 C 0.12449 0.89957 0.46042 0.0
C648 C 0.10986 0.88585 0.49408 0.0
C649 C 0.11493 0.92384 0.39387 0.0
C650 C 0.14763 0.95167 0.39051 0.0
C651 C 0.09871 0.9113 0.36069 0.0
C652 C 0.0649 0.88221 0.359 0.0
C653 C 0.02902 0.89316 0.34103 0.0
C654 C -0.00299 0.86576 0.33925 0.0
C655 C 0.00062 0.82723 0.3552 0.0
C656 C 0.03633 0.81596 0.37282 0.0
C657 C 0.06847 0.84321 0.37462 0.0
H658 H 0.97579 0.80608 0.35383 0.0
H659 H 0.2861 0.07222 0.36047 0.0
H660 H 0.11339 0.23906 0.71353 0.0
H661 H 0.13936 0.2131 0.77007 0.0
H662 H 0.02341 0.1611 0.79143 0.0
H663 H -0.00242 0.187 0.73512 0.0
H664 H 0.13279 0.22082 0.83753 0.0
H665 H 0.02402 0.08796 0.84893 0.0
H666 H 0.98723 0.04064 0.81066 0.0
H667 H 0.08105 0.05014 0.73445 0.0
H668 H 0.11819 0.09736 0.77245 0.0
H669 H 0.15959 0.1485 1.01654 0.0
H670 H 0.13447 0.17318 0.95976 0.0
H671 H 0.16761 0.05799 0.9141 0.0
H672 H 0.19275 0.0331 0.97138 0.0
H673 H 0.10343 0.08003 0.87793 0.0
H674 H 0.21927 0.16064 0.90067 0.0
H675 H 0.26383 0.20695 0.93312 0.0
H676 H 0.16983 0.29918 0.9332 0.0
H677 H 0.12452 0.2532 0.90111 0.0
C678 C 0.09296 0.22225 0.73006 0.0
C679 C 0.05252 0.2161 0.71813 0.0
C680 C 0.1082 0.20702 0.76325 0.0
C681 C 0.08453 0.18366 0.78694 0.0
C682 C 0.04402 0.17772 0.77496 0.0
C683 C 0.02867 0.19329 0.742 0.0
C684 C 0.10168 0.16609 0.82326 0.0
C685 C 0.12569 0.19006 0.84603 0.0
C686 C 0.09502 0.12532 0.83608 0.0
C687 C 0.07384 0.09578 0.8137 0.0
C688 C 0.03697 0.07926 0.82432 0.0
C689 C 0.01607 0.05257 0.80263 0.0
C690 C 0.03209 0.04181 0.77034 0.0
C691 C 0.06888 0.05805 0.75961 0.0
C692 C 0.08979 0.08489 0.78118 0.0
C693 C 0.16202 0.12799 0.99467 0.0
C694 C 0.1793 0.08817 1.00033 0.0
C695 C 0.14746 0.1426 0.96116 0.0
C696 C 0.1488 0.11868 0.93025 0.0
C697 C 0.16544 0.07849 0.936 0.0
C698 C 0.18037 0.06394 0.96959 0.0
C699 C 0.13336 0.13538 0.893 0.0
C700 C 0.11003 0.11106 0.86982 0.0
C701 C 0.1414 0.17566 0.87946 0.0
C702 C 0.16838 0.20332 0.89883 0.0
C703 C 0.20801 0.19069 0.90783 0.0
C704 C 0.23341 0.21689 0.92612 0.0
C705 C 0.21963 0.25594 0.9353 0.0
C706 C 0.18044 0.2689 0.92613 0.0
C707 C 0.15489 0.24279 0.90788 0.0
H708 H 0.23934 0.27618 0.94945 0.0
H709 H 0.01587 0.02115 0.75356 0.0
H710 H 0.86468 0.15546 0.20079 0.0
H711 H 0.88874 0.18075 0.25712 0.0
H712 H 0.85936 0.06575 0.30509 0.0
H713 H 0.83689 0.03976 0.24825 0.0
H714 H 0.84465 0.11883 0.35312 0.0
H715 H 0.96148 0.11 0.28144 0.0
H716 H 0.00758 0.12395 0.23279 0.0
H717 H 0.00819 0.2512 0.25966 0.0
H718 H 0.96217 0.2377 0.30854 0.0
H719 H 0.93885 0.16169 0.51916 0.0
H720 H 0.91721 0.13647 0.46267 0.0
H721 H 0.97008 0.24093 0.4126 0.0
H722 H -0.0051 0.26445 0.46973 0.0
H723 H 0.973 0.19371 0.36453 0.0
H724 H 0.84997 0.20871 0.42848 0.0
H725 H 0.80223 0.1987 0.4768 0.0
H726 H 0.80809 0.06862 0.46206 0.0
H727 H 0.8562 0.07786 0.41387 0.0
C728 C 0.86327 0.13501 0.22312 0.0
C729 C 0.84813 0.09482 0.21835 0.0
C730 C 0.87781 0.14976 0.25612 0.0
C731 C 0.878 0.12565 0.28727 0.0
C732 C 0.86144 0.08592 0.28271 0.0
C733 C 0.84788 0.07072 0.24945 0.0
C734 C 0.89466 0.14157 0.32375 0.0
C735 C 0.87306 0.1348 0.3551 0.0
C736 C 0.93132 0.1642 0.32856 0.0
C737 C 0.95828 0.17265 0.29868 0.0
C738 C 0.97151 0.14082 0.277 0.0
C739 C -0.00241 0.14869 0.24934 0.0
C740 C 0.01078 0.18847 0.24309 0.0
C741 C -0.00206 0.22038 0.26452 0.0
C742 C 0.9719 0.21257 0.29226 0.0
C743 C 0.94613 0.17982 0.49637 0.0
C744 C 0.96905 0.21598 0.50079 0.0
C745 C 0.93269 0.16533 0.463 0.0
C746 C 0.93939 0.18666 0.431 0.0
C747 C 0.96302 0.22268 0.43535 0.0
C748 C 0.97755 0.23665 0.46888 0.0
C749 C 0.92276 0.1714 0.39407 0.0
C750 C 0.94441 0.1781 0.36261 0.0
C751 C 0.88559 0.14965 0.38888 0.0
C752 C 0.85696 0.14395 0.41787 0.0
C753 C 0.84122 0.17797 0.43569 0.0
C754 C 0.81409 0.17244 0.46303 0.0
C755 C 0.80223 0.13304 0.47256 0.0
C756 C 0.81737 0.0991 0.4547 0.0
C757 C 0.84454 0.10446 0.42736 0.0
H758 H 0.78122 0.12883 0.49373 0.0
H759 H 0.03097 0.19455 0.22166 0.0
loop_
_geom_bond_atom_site_label_1
_geom_bond_atom_site_label_2
_geom_bond_distance
_geom_bond_site_symmetry_2
_ccdc_geom_bond_type
La0 C2 2.928 . S
La0 O20 2.521 . S
La0 O21 2.628 . S
La0 O22 2.554 . S
La0 O23 2.757 1_554 S
La0 O24 2.470 . S
La0 O29 2.482 . S
La0 O31 2.503 1_554 S
La1 C11 2.928 1_545 S
La1 O23 2.482 . S
La1 O25 2.503 1_556 S
La1 O26 2.521 1_545 S
La1 O27 2.628 . S
La1 O28 2.554 . S
La1 O29 2.757 1_556 S
La1 O30 2.470 . S
C2 La0 2.928 . S
C2 C3 1.503 . S
C2 O20 1.261 . S
C2 O21 1.243 . S
C3 C2 1.503 . S
C3 C4 1.394 . S
C3 C8 1.373 . S
C4 C3 1.394 . S
C4 C5 1.380 . S
C4 H32 0.930 . S
C5 C4 1.380 . S
C5 C6 1.376 . S
C5 H33 0.930 . S
C6 C5 1.376 . S
C6 C7 1.370 . S
C7 C6 1.370 . S
C7 C8 1.396 . S
C7 H34 0.929 . S
C8 C3 1.373 . S
C8 C7 1.396 . S
C8 H35 0.929 . S
C9 O22 1.240 . S
C9 O23 1.289 1_554 S
C10 O24 1.258 . S
C10 O25 1.256 . S
C11 La1 2.928 1_565 S
C11 C12 1.503 . S
C11 O26 1.261 . S
C11 O27 1.243 1_565 S
C12 C11 1.503 . S
C12 C13 1.394 . S
C12 C17 1.373 . S
C13 C12 1.394 . S
C13 C14 1.380 . S
C13 H36 0.930 . S
C14 C13 1.380 . S
C14 C15 1.376 . S
C14 H37 0.930 . S
C15 C14 1.376 . S
C15 C16 1.370 . S
C16 C15 1.370 . S
C16 C17 1.396 . S
C16 H38 0.929 . S
C17 C12 1.373 . S
C17 C16 1.396 . S
C17 H39 0.929 . S
C18 O28 1.219 1_554 S
C18 O29 1.303 . S
C19 O30 1.258 . S
C19 O31 1.256 . S
O20 La0 2.521 . S
O20 C2 1.261 . S
O21 La0 2.628 . S
O21 C2 1.243 . S
O22 La0 2.554 . S
O22 C9 1.240 . S
O23 La0 2.757 1_556 S
O23 La1 2.482 . S
O23 C9 1.289 1_556 S
O24 La0 2.470 . S
O24 C10 1.258 . S
O25 La1 2.503 1_554 S
O25 C10 1.256 . S
O26 La1 2.521 1_565 S
O26 C11 1.261 . S
O27 La1 2.628 . S
O27 C11 1.243 1_545 S
O28 La1 2.554 . S
O28 C18 1.219 1_556 S
O29 La0 2.482 . S
O29 La1 2.757 1_554 S
O29 C18 1.303 . S
O30 La1 2.470 . S
O30 C19 1.258 . S
O31 La0 2.503 1_556 S
O31 C19 1.256 . S
H32 C4 0.930 . S
H33 C5 0.930 . S
H34 C7 0.929 . S
H35 C8 0.929 . S
H36 C13 0.930 . S
H37 C14 0.930 . S
H38 C16 0.929 . S
H39 C17 0.929 . S
La40 C42 2.928 . S
La40 O60 2.521 . S
La40 O61 2.628 . S
La40 O62 2.554 . S
La40 O63 2.757 1_655 S
La40 O64 2.470 1_655 S
La40 O69 2.482 . S
La40 O71 2.503 . S
La41 C51 2.928 . S
La41 O63 2.482 . S
La41 O65 2.503 . S
La41 O66 2.521 . S
La41 O67 2.628 . S
La41 O68 2.554 . S
La41 O69 2.757 1_455 S
La41 O70 2.470 1_455 S
C42 La40 2.928 . S
C42 C43 1.503 . S
C42 O60 1.261 . S
C42 O61 1.243 . S
C43 C42 1.503 . S
C43 C44 1.394 . S
C43 C48 1.373 . S
C44 C43 1.394 . S
C44 C45 1.380 . S
C44 H72 0.930 . S
C45 C44 1.380 . S
C45 C46 1.376 . S
C45 H73 0.930 . S
C46 C45 1.376 . S
C46 C47 1.370 . S
C47 C46 1.370 . S
C47 C48 1.396 . S
C47 H74 0.929 . S
C48 C43 1.373 . S
C48 C47 1.396 . S
C48 H75 0.929 . S
C49 O62 1.240 . S
C49 O63 1.289 1_655 S
C50 O64 1.258 . S
C50 O65 1.256 . S
C51 La41 2.928 . S
C51 C52 1.503 . S
C51 O66 1.261 . S
C51 O67 1.243 . S
C52 C51 1.503 . S
C52 C53 1.394 . S
C52 C57 1.373 . S
C53 C52 1.394 . S
C53 C54 1.380 . S
C53 H76 0.930 . S
C54 C53 1.380 . S
C54 C55 1.376 . S
C54 H77 0.930 . S
C55 C54 1.376 . S
C55 C56 1.370 . S
C56 C55 1.370 . S
C56 C57 1.396 . S
C56 H78 0.929 . S
C57 C52 1.373 . S
C57 C56 1.396 . S
C57 H79 0.929 . S
C58 O68 1.240 . S
C58 O69 1.289 1_455 S
C59 O70 1.258 . S
C59 O71 1.256 . S
O60 La40 2.521 . S
O60 C42 1.261 . S
O61 La40 2.628 . S
O61 C42 1.243 . S
O62 La40 2.554 . S
O62 C49 1.240 . S
O63 La40 2.757 1_455 S
O63 La41 2.482 . S
O63 C49 1.289 1_455 S
O64 La40 2.470 1_455 S
O64 C50 1.258 . S
O65 La41 2.503 . S
O65 C50 1.256 . S
O66 La41 2.521 . S
O66 C51 1.261 . S
O67 La41 2.628 . S
O67 C51 1.243 . S
O68 La41 2.554 . S
O68 C58 1.240 . S
O69 La40 2.482 . S
O69 La41 2.757 1_655 S
O69 C58 1.289 1_655 S
O70 La41 2.470 1_655 S
O70 C59 1.258 . S
O71 La40 2.503 . S
O71 C59 1.256 . S
H72 C44 0.930 . S
H73 C45 0.930 . S
H74 C47 0.929 . S
H75 C48 0.929 . S
H76 C53 0.930 . S
H77 C54 0.930 . S
H78 C56 0.929 . S
H79 C57 0.929 . S
La80 C82 2.928 . S
La80 O100 2.521 . S
La80 O101 2.628 . S
La80 O102 2.554 . S
La80 O103 2.757 1_564 S
La80 O104 2.470 1_565 S
La80 O109 2.482 . S
La80 O111 2.503 1_554 S
La81 C91 2.928 . S
La81 O103 2.482 . S
La81 O105 2.503 1_556 S
La81 O106 2.521 . S
La81 O107 2.628 . S
La81 O108 2.554 . S
La81 O109 2.757 1_546 S
La81 O110 2.470 1_545 S
C82 La80 2.928 . S
C82 C83 1.503 . S
C82 O100 1.261 . S
C82 O101 1.243 . S
C83 C82 1.503 . S
C83 C84 1.394 . S
C83 C88 1.373 . S
C84 C83 1.394 . S
C84 C85 1.380 . S
C84 H112 0.930 . S
C85 C84 1.380 . S
C85 C86 1.376 . S
C85 H113 0.930 . S
C86 C85 1.376 . S
C86 C87 1.370 . S
C87 C86 1.370 . S
C87 C88 1.396 . S
C87 H114 0.929 . S
C88 C83 1.373 . S
C88 C87 1.396 . S
C88 H115 0.929 . S
C89 O102 1.240 . S
C89 O103 1.289 1_564 S
C90 O104 1.258 . S
C90 O105 1.256 . S
C91 La81 2.928 . S
C91 C92 1.503 . S
C91 O106 1.261 . S
C91 O107 1.243 . S
C92 C91 1.503 . S
C92 C93 1.394 . S
C92 C97 1.373 . S
C93 C92 1.394 . S
C93 C94 1.380 . S
C93 H116 0.930 . S
C94 C93 1.380 . S
C94 C95 1.376 . S
C94 H117 0.930 . S
C95 C94 1.376 . S
C95 C96 1.370 . S
C96 C95 1.370 . S
C96 C97 1.396 . S
C96 H118 0.929 . S
C97 C92 1.373 . S
C97 C96 1.396 . S
C97 H119 0.929 . S
C98 O108 1.219 1_554 S
C98 O109 1.303 1_545 S
C99 O110 1.258 . S
C99 O111 1.256 . S
O100 La80 2.521 . S
O100 C82 1.261 . S
O101 La80 2.628 . S
O101 C82 1.243 . S
O102 La80 2.554 . S
O102 C89 1.240 . S
O103 La80 2.757 1_546 S
O103 La81 2.482 . S
O103 C89 1.289 1_546 S
O104 La80 2.470 1_545 S
O104 C90 1.258 . S
O105 La81 2.503 1_554 S
O105 C90 1.256 . S
O106 La81 2.521 . S
O106 C91 1.261 . S
O107 La81 2.628 . S
O107 C91 1.243 . S
O108 La81 2.554 . S
O108 C98 1.219 1_556 S
O109 La80 2.482 . S
O109 La81 2.757 1_564 S
O109 C98 1.303 1_565 S
O110 La81 2.470 1_565 S
O110 C99 1.258 . S
O111 La80 2.503 1_556 S
O111 C99 1.256 . S
H112 C84 0.930 . S
H113 C85 0.930 . S
H114 C87 0.929 . S
H115 C88 0.929 . S
H116 C93 0.930 . S
H117 C94 0.930 . S
H118 C96 0.929 . S
H119 C97 0.929 . S
La120 C122 2.928 . S
La120 O140 2.521 . S
La120 O141 2.628 . S
La120 O142 2.554 . S
La120 O143 2.757 . S
La120 O144 2.470 . S
La120 O149 2.482 . S
La120 O151 2.503 . S
La121 C131 2.928 1_455 S
La121 O143 2.482 . S
La121 O145 2.503 . S
La121 O146 2.521 1_455 S
La121 O147 2.628 . S
La121 O148 2.554 . S
La121 O149 2.757 . S
La121 O150 2.470 . S
C122 La120 2.928 . S
C122 C123 1.503 . S
C122 O140 1.261 . S
C122 O141 1.243 . S
C123 C122 1.503 . S
C123 C124 1.394 . S
C123 C128 1.373 . S
C124 C123 1.394 . S
C124 C125 1.380 . S
C124 H152 0.930 . S
C125 C124 1.380 . S
C125 C126 1.376 . S
C125 H153 0.930 . S
C126 C125 1.376 . S
C126 C127 1.370 . S
C127 C126 1.370 . S
C127 C128 1.396 . S
C127 H154 0.929 . S
C128 C123 1.373 . S
C128 C127 1.396 . S
C128 H155 0.929 . S
C129 O142 1.240 . S
C129 O143 1.289 . S
C130 O144 1.258 . S
C130 O145 1.256 . S
C131 La121 2.928 1_655 S
C131 C132 1.503 . S
C131 O146 1.261 . S
C131 O147 1.243 1_655 S
C132 C131 1.503 . S
C132 C133 1.394 . S
C132 C137 1.373 . S
C133 C132 1.394 . S
C133 C134 1.380 . S
C133 H156 0.930 . S
C134 C133 1.380 . S
C134 C135 1.376 . S
C134 H157 0.930 . S
C135 C134 1.376 . S
C135 C136 1.370 . S
C136 C135 1.370 . S
C136 C137 1.396 . S
C136 H158 0.929 . S
C137 C132 1.373 . S
C137 C136 1.396 . S
C137 H159 0.929 . S
C138 O148 1.240 . S
C138 O149 1.289 . S
C139 O150 1.258 . S
C139 O151 1.256 . S
O140 La120 2.521 . S
O140 C122 1.261 . S
O141 La120 2.628 . S
O141 C122 1.243 . S
O142 La120 2.554 . S
O142 C129 1.240 . S
O143 La120 2.757 . S
O143 La121 2.482 . S
O143 C129 1.289 . S
O144 La120 2.470 . S
O144 C130 1.258 . S
O145 La121 2.503 . S
O145 C130 1.256 . S
O146 La121 2.521 1_655 S
O146 C131 1.261 . S
O147 La121 2.628 . S
O147 C131 1.243 1_455 S
O148 La121 2.554 . S
O148 C138 1.240 . S
O149 La120 2.482 . S
O149 La121 2.757 . S
O149 C138 1.289 . S
O150 La121 2.470 . S
O150 C139 1.258 . S
O151 La120 2.503 . S
O151 C139 1.256 . S
H152 C124 0.930 . S
H153 C125 0.930 . S
H154 C127 0.929 . S
H155 C128 0.929 . S
H156 C133 0.930 . S
H157 C134 0.930 . S
H158 C136 0.929 . S
H159 C137 0.929 . S
H160 C178 0.951 . S
H161 C180 0.951 . S
H162 C182 0.950 . S
H163 C183 0.950 . S
H164 C185 0.950 1_655 S
H165 C188 0.950 1_545 S
H166 C189 0.950 . S
H167 C191 0.950 . S
H168 C192 0.950 . S
H169 C193 0.951 . S
H170 C195 0.951 . S
H171 C197 0.950 1_565 S
H172 C198 0.950 . S
H173 C200 0.950 . S
H174 C203 0.950 . S
H175 C204 0.950 . S
H176 C206 0.950 . S
H177 C207 0.950 . S
C178 H160 0.951 . S
C178 C179 1.366 . S
C178 C180 1.388 . S
C179 C178 1.366 . S
C179 C183 1.385 1_565 S
C180 H161 0.951 . S
C180 C178 1.388 . S
C180 C181 1.366 1_565 S
C181 C180 1.366 1_545 S
C181 C182 1.414 . S
C181 C184 1.499 . S
C182 H162 0.950 . S
C182 C181 1.414 . S
C182 C183 1.374 . S
C183 H163 0.950 . S
C183 C179 1.385 1_545 S
C183 C182 1.374 . S
C184 C181 1.499 . S
C184 C185 1.373 1_654 S
C184 C186 1.389 1_655 S
C185 H164 0.950 1_455 S
C185 C184 1.373 1_456 S
C185 C201 1.377 . S
C186 C184 1.389 1_455 S
C186 C187 1.524 1_545 S
C186 C200 1.377 . S
C187 C186 1.524 1_565 S
C187 C188 1.397 1_455 S
C187 C192 1.363 . S
C188 H165 0.950 1_565 S
C188 C187 1.397 1_655 S
C188 C189 1.334 . S
C189 H166 0.950 . S
C189 C188 1.334 . S
C189 C190 1.287 . S
C190 C189 1.287 . S
C190 C191 1.524 1_655 S
C190 H209 0.913 . S
C191 H167 0.950 . S
C191 C190 1.524 1_455 S
C191 C192 1.415 . S
C192 H168 0.950 . S
C192 C187 1.363 . S
C192 C191 1.415 . S
C193 H169 0.951 . S
C193 C194 1.366 . S
C193 C195 1.388 . S
C194 C193 1.366 . S
C194 C198 1.385 . S
C195 H170 0.951 . S
C195 C193 1.388 . S
C195 C196 1.366 . S
C196 C195 1.366 . S
C196 C197 1.414 . S
C196 C199 1.499 . S
C197 H171 0.950 1_545 S
C197 C196 1.414 . S
C197 C198 1.374 . S
C198 H172 0.950 . S
C198 C194 1.385 . S
C198 C197 1.374 . S
C199 C196 1.499 . S
C199 C200 1.373 . S
C199 C201 1.389 1_554 S
C200 H173 0.950 . S
C200 C186 1.377 . S
C200 C199 1.373 . S
C201 C185 1.377 . S
C201 C199 1.389 1_556 S
C201 C202 1.524 . S
C202 C201 1.524 . S
C202 C203 1.397 . S
C202 C207 1.363 . S
C203 H174 0.950 . S
C203 C202 1.397 . S
C203 C204 1.334 . S
C204 H175 0.950 . S
C204 C203 1.334 . S
C204 C205 1.287 . S
C205 C204 1.287 . S
C205 C206 1.524 . S
C205 H208 0.999 . S
C206 H176 0.950 . S
C206 C205 1.524 . S
C206 C207 1.415 . S
C207 H177 0.950 . S
C207 C202 1.363 . S
C207 C206 1.415 . S
H208 C205 0.999 . S
H209 C190 0.913 . S
H210 C228 0.951 . S
H211 C230 0.951 . S
H212 C232 0.950 . S
H213 C233 0.950 . S
H214 C235 0.950 . S
H215 C238 0.950 . S
H216 C239 0.950 . S
H217 C241 0.950 . S
H218 C242 0.950 1_545 S
H219 C243 0.951 . S
H220 C245 0.951 . S
H221 C247 0.950 . S
H222 C248 0.949 1_655 S
H223 C250 0.950 1_655 S
H224 C253 0.950 . S
H225 C254 0.950 . S
H226 C256 0.950 . S
H227 C257 0.950 . S
C228 H210 0.951 . S
C228 C229 1.366 . S
C228 C230 1.388 . S
C229 C228 1.366 . S
C229 C233 1.385 . S
C230 H211 0.951 . S
C230 C228 1.388 . S
C230 C231 1.366 . S
C231 C230 1.366 . S
C231 C232 1.414 . S
C231 C234 1.499 . S
C232 H212 0.950 . S
C232 C231 1.414 . S
C232 C233 1.374 . S
C233 H213 0.950 . S
C233 C229 1.385 . S
C233 C232 1.374 . S
C234 C231 1.499 . S
C234 C235 1.373 1_565 S
C234 C236 1.389 1_565 S
C235 H214 0.950 . S
C235 C234 1.373 1_545 S
C235 C251 1.377 . S
C236 C234 1.389 1_545 S
C236 C237 1.524 1_445 S
C236 C250 1.377 . S
C237 C236 1.524 1_665 S
C237 C238 1.397 . S
C237 C242 1.363 . S
C238 H215 0.950 . S
C238 C237 1.397 . S
C238 C239 1.334 . S
C239 H216 0.950 . S
C239 C238 1.334 . S
C239 C240 1.287 . S
C240 C239 1.287 . S
C240 C241 1.524 . S
C240 H259 0.913 . S
C241 H217 0.950 . S
C241 C240 1.524 . S
C241 C242 1.415 . S
C242 H218 0.950 1_565 S
C242 C237 1.363 . S
C242 C241 1.415 . S
C243 H219 0.951 . S
C243 C244 1.366 . S
C243 C245 1.388 1_655 S
C244 C243 1.366 . S
C244 C248 1.385 1_655 S
C245 H220 0.951 . S
C245 C243 1.388 1_455 S
C245 C246 1.366 . S
C246 C245 1.366 . S
C246 C247 1.414 . S
C246 C249 1.499 . S
C247 H221 0.950 . S
C247 C246 1.414 . S
C247 C248 1.374 . S
C248 H222 0.949 1_455 S
C248 C244 1.385 1_455 S
C248 C247 1.374 . S
C249 C246 1.499 . S
C249 C250 1.373 . S
C249 C251 1.389 . S
C250 H223 0.950 1_455 S
C250 C236 1.377 . S
C250 C249 1.373 . S
C251 C235 1.377 . S
C251 C249 1.389 . S
C251 C252 1.524 . S
C252 C251 1.524 . S
C252 C253 1.397 . S
C252 C257 1.363 . S
C253 H224 0.950 . S
C253 C252 1.397 . S
C253 C254 1.334 . S
C254 H225 0.950 . S
C254 C253 1.334 . S
C254 C255 1.287 . S
C255 C254 1.287 . S
C255 C256 1.524 . S
C255 H258 0.999 . S
C256 H226 0.950 . S
C256 C255 1.524 . S
C256 C257 1.415 . S
C257 H227 0.950 . S
C257 C252 1.363 . S
C257 C256 1.415 . S
H258 C255 0.999 . S
H259 C240 0.913 . S
H260 C278 0.951 . S
H261 C280 0.951 . S
H262 C282 0.950 . S
H263 C283 0.950 . S
H264 C285 0.929 1_565 S
H265 C288 0.950 . S
H266 C289 0.950 . S
H267 C291 0.950 . S
H268 C292 0.950 . S
H269 C293 0.951 . S
H270 C295 0.951 1_565 S
H271 C297 0.950 . S
H272 C298 0.950 . S
H273 C300 0.950 . S
H274 C303 0.950 . S
H275 C304 0.947 1_545 S
H276 C306 0.950 . S
H277 C307 0.950 . S
C278 H260 0.951 . S
C278 C279 1.366 1_545 S
C278 C280 1.388 . S
C279 C278 1.366 1_565 S
C279 C283 1.385 1_556 S
C280 H261 0.951 . S
C280 C278 1.388 . S
C280 C281 1.366 . S
C281 C280 1.366 . S
C281 C282 1.414 1_546 S
C281 C284 1.499 . S
C282 H262 0.950 . S
C282 C281 1.414 1_564 S
C282 C283 1.374 . S
C283 H263 0.950 . S
C283 C279 1.385 1_554 S
C283 C282 1.374 . S
C284 C281 1.499 . S
C284 C285 1.406 . S
C284 C286 1.374 1_556 S
C285 H264 0.929 1_545 S
C285 C284 1.406 . S
C285 C301 1.383 . S
C286 C284 1.374 1_554 S
C286 C287 1.524 . S
C286 C300 1.377 . S
C287 C286 1.524 . S
C287 C288 1.397 . S
C287 C292 1.363 . S
C288 H265 0.950 . S
C288 C287 1.397 . S
C288 C289 1.334 . S
C289 H266 0.950 . S
C289 C288 1.334 . S
C289 C290 1.287 . S
C290 C289 1.287 . S
C290 C291 1.524 . S
C290 H309 0.913 . S
C291 H267 0.950 . S
C291 C290 1.524 . S
C291 C292 1.415 . S
C292 H268 0.950 . S
C292 C287 1.363 . S
C292 C291 1.415 . S
C293 H269 0.951 . S
C293 C294 1.366 1_554 S
C293 C295 1.388 . S
C294 C293 1.366 1_556 S
C294 C298 1.385 . S
C295 H270 0.951 1_545 S
C295 C293 1.388 . S
C295 C296 1.366 1_554 S
C296 C295 1.366 1_556 S
C296 C297 1.414 . S
C296 C299 1.499 . S
C297 H271 0.950 . S
C297 C296 1.414 . S
C297 C298 1.374 . S
C298 H272 0.950 . S
C298 C294 1.385 . S
C298 C297 1.374 . S
C299 C296 1.499 . S
C299 C300 1.373 1_556 S
C299 C301 1.389 . S
C300 H273 0.950 . S
C300 C286 1.377 . S
C300 C299 1.373 1_554 S
C301 C285 1.383 . S
C301 C299 1.389 . S
C301 C302 1.524 1_545 S
C302 C301 1.524 1_565 S
C302 C303 1.397 1_565 S
C302 C307 1.363 . S
C303 H274 0.950 . S
C303 C302 1.397 1_545 S
C303 C304 1.334 1_545 S
C304 H275 0.947 1_565 S
C304 C303 1.334 1_565 S
C304 C305 1.287 . S
C305 C304 1.287 . S
C305 C306 1.524 . S
C305 H308 0.999 . S
C306 H276 0.950 . S
C306 C305 1.524 . S
C306 C307 1.415 . S
C307 H277 0.950 . S
C307 C302 1.363 . S
C307 C306 1.415 . S
H308 C305 0.999 . S
H309 C290 0.913 . S
H310 C328 0.951 . S
H311 C330 0.951 . S
H312 C332 0.950 . S
H313 C333 0.950 . S
H314 C335 0.950 . S
H315 C338 0.950 . S
H316 C339 0.950 . S
H317 C341 0.950 . S
H318 C342 0.950 . S
H319 C343 0.951 . S
H320 C345 0.951 . S
H321 C347 0.950 . S
H322 C348 0.950 . S
H323 C350 0.950 . S
H324 C353 0.950 . S
H325 C354 0.950 . S
H326 C356 0.950 . S
H327 C357 0.950 . S
C328 H310 0.951 . S
C328 C329 1.366 1_455 S
C328 C330 1.388 . S
C329 C328 1.366 1_655 S
C329 C333 1.385 . S
C330 H311 0.951 . S
C330 C328 1.388 . S
C330 C331 1.366 . S
C331 C330 1.366 . S
C331 C332 1.414 1_455 S
C331 C334 1.499 . S
C332 H312 0.950 . S
C332 C331 1.414 1_655 S
C332 C333 1.374 . S
C333 H313 0.950 . S
C333 C329 1.385 . S
C333 C332 1.374 . S
C334 C331 1.499 . S
C334 C335 1.373 1_455 S
C334 C336 1.389 . S
C335 H314 0.950 . S
C335 C334 1.373 1_655 S
C335 C351 1.377 1_655 S
C336 C334 1.389 . S
C336 C337 1.524 . S
C336 C350 1.377 . S
C337 C336 1.524 . S
C337 C338 1.397 . S
C337 C342 1.363 . S
C338 H315 0.950 . S
C338 C337 1.397 . S
C338 C339 1.334 . S
C339 H316 0.950 . S
C339 C338 1.334 . S
C339 C340 1.287 . S
C340 C339 1.287 . S
C340 C341 1.524 . S
C340 H359 0.913 . S
C341 H317 0.950 . S
C341 C340 1.524 . S
C341 C342 1.415 . S
C342 H318 0.950 . S
C342 C337 1.363 . S
C342 C341 1.415 . S
C343 H319 0.951 . S
C343 C344 1.366 . S
C343 C345 1.388 . S
C344 C343 1.366 . S
C344 C348 1.385 . S
C345 H320 0.951 . S
C345 C343 1.388 . S
C345 C346 1.366 . S
C346 C345 1.366 . S
C346 C347 1.414 . S
C346 C349 1.499 . S
C347 H321 0.950 . S
C347 C346 1.414 . S
C347 C348 1.374 . S
C348 H322 0.950 . S
C348 C344 1.385 . S
C348 C347 1.374 . S
C349 C346 1.499 . S
C349 C350 1.373 . S
C349 C351 1.389 . S
C350 H323 0.950 . S
C350 C336 1.377 . S
C350 C349 1.373 . S
C351 C335 1.377 1_455 S
C351 C349 1.389 . S
C351 C352 1.524 1_455 S
C352 C351 1.524 1_655 S
C352 C353 1.397 . S
C352 C357 1.363 . S
C353 H324 0.950 . S
C353 C352 1.397 . S
C353 C354 1.334 . S
C354 H325 0.950 . S
C354 C353 1.334 . S
C354 C355 1.287 . S
C355 C354 1.287 . S
C355 C356 1.524 . S
C355 H358 0.999 . S
C356 H326 0.950 . S
C356 C355 1.524 . S
C356 C357 1.415 . S
C357 H327 0.950 . S
C357 C352 1.363 . S
C357 C356 1.415 . S
H358 C355 0.999 . S
H359 C340 0.913 . S
H360 C378 0.951 . S
H361 C380 0.951 . S
H362 C382 0.950 . S
H363 C383 0.950 . S
H364 C385 0.950 . S
H365 C388 0.950 . S
H366 C389 0.950 . S
H367 C391 0.950 . S
H368 C392 0.950 . S
H369 C393 0.951 . S
H370 C395 0.951 . S
H371 C397 0.950 . S
H372 C398 0.950 . S
H373 C400 0.950 . S
H374 C403 0.950 . S
H375 C404 0.950 . S
H376 C406 0.950 . S
H377 C407 0.950 . S
C378 H360 0.951 . S
C378 C379 1.366 . S
C378 C380 1.388 . S
C379 C378 1.366 . S
C379 C383 1.385 . S
C380 H361 0.951 . S
C380 C378 1.388 . S
C380 C381 1.366 . S
C381 C380 1.366 . S
C381 C382 1.414 . S
C381 C384 1.499 . S
C382 H362 0.950 . S
C382 C381 1.414 . S
C382 C383 1.374 . S
C383 H363 0.950 . S
C383 C379 1.385 . S
C383 C382 1.374 . S
C384 C381 1.499 . S
C384 C385 1.373 . S
C384 C386 1.389 . S
C385 H364 0.950 . S
C385 C384 1.373 . S
C385 C401 1.377 . S
C386 C384 1.389 . S
C386 C387 1.524 . S
C386 C400 1.377 . S
C387 C386 1.524 . S
C387 C388 1.397 . S
C387 C392 1.363 . S
C388 H365 0.950 . S
C388 C387 1.397 . S
C388 C389 1.334 . S
C389 H366 0.950 . S
C389 C388 1.334 . S
C389 C390 1.287 . S
C390 C389 1.287 . S
C390 C391 1.524 . S
C390 H409 0.913 . S
C391 H367 0.950 . S
C391 C390 1.524 . S
C391 C392 1.415 . S
C392 H368 0.950 . S
C392 C387 1.363 . S
C392 C391 1.415 . S
C393 H369 0.951 . S
C393 C394 1.366 . S
C393 C395 1.388 . S
C394 C393 1.366 . S
C394 C398 1.385 . S
C395 H370 0.951 . S
C395 C393 1.388 . S
C395 C396 1.366 . S
C396 C395 1.366 . S
C396 C397 1.414 . S
C396 C399 1.499 . S
C397 H371 0.950 . S
C397 C396 1.414 . S
C397 C398 1.374 . S
C398 H372 0.950 . S
C398 C394 1.385 . S
C398 C397 1.374 . S
C399 C396 1.499 . S
C399 C400 1.373 . S
C399 C401 1.389 . S
C400 H373 0.950 . S
C400 C386 1.377 . S
C400 C399 1.373 . S
C401 C385 1.377 . S
C401 C399 1.389 . S
C401 C402 1.524 . S
C402 C401 1.524 . S
C402 C403 1.397 . S
C402 C407 1.363 . S
C403 H374 0.950 . S
C403 C402 1.397 . S
C403 C404 1.334 . S
C404 H375 0.950 . S
C404 C403 1.334 . S
C404 C405 1.287 . S
C405 C404 1.287 . S
C405 C406 1.524 . S
C405 H408 0.999 . S
C406 H376 0.950 . S
C406 C405 1.524 . S
C406 C407 1.415 . S
C407 H377 0.950 . S
C407 C402 1.363 . S
C407 C406 1.415 . S
H408 C405 0.999 . S
H409 C390 0.913 . S
H410 C428 0.951 . S
H411 C430 0.951 . S
H412 C432 0.950 . S
H413 C433 0.950 . S
H414 C435 0.950 . S
H415 C438 0.950 . S
H416 C439 0.950 . S
H417 C441 0.950 1_455 S
H418 C442 0.950 . S
H419 C443 0.951 . S
H420 C445 0.951 . S
H421 C447 0.950 . S
H422 C448 0.950 . S
H423 C450 0.950 . S
H424 C453 0.950 . S
H425 C454 0.950 . S
H426 C456 0.950 . S
H427 C457 0.950 . S
C428 H410 0.951 . S
C428 C429 1.366 . S
C428 C430 1.388 . S
C429 C428 1.366 . S
C429 C433 1.385 . S
C430 H411 0.951 . S
C430 C428 1.388 . S
C430 C431 1.366 . S
C431 C430 1.366 . S
C431 C432 1.414 . S
C431 C434 1.499 . S
C432 H412 0.950 . S
C432 C431 1.414 . S
C432 C433 1.374 . S
C433 H413 0.950 . S
C433 C429 1.385 . S
C433 C432 1.374 . S
C434 C431 1.499 . S
C434 C435 1.373 . S
C434 C436 1.389 . S
C435 H414 0.950 . S
C435 C434 1.373 . S
C435 C451 1.377 . S
C436 C434 1.389 . S
C436 C437 1.524 . S
C436 C450 1.377 . S
C437 C436 1.524 . S
C437 C438 1.397 . S
C437 C442 1.363 . S
C438 H415 0.950 . S
C438 C437 1.397 . S
C438 C439 1.334 . S
C439 H416 0.950 . S
C439 C438 1.334 . S
C439 C440 1.287 . S
C440 C439 1.287 . S
C440 C441 1.524 . S
C440 H459 0.913 . S
C441 H417 0.950 1_655 S
C441 C440 1.524 . S
C441 C442 1.415 . S
C442 H418 0.950 . S
C442 C437 1.363 . S
C442 C441 1.415 . S
C443 H419 0.951 . S
C443 C444 1.366 . S
C443 C445 1.388 . S
C444 C443 1.366 . S
C444 C448 1.385 . S
C445 H420 0.951 . S
C445 C443 1.388 . S
C445 C446 1.366 . S
C446 C445 1.366 . S
C446 C447 1.414 . S
C446 C449 1.499 . S
C447 H421 0.950 . S
C447 C446 1.414 . S
C447 C448 1.374 . S
C448 H422 0.950 . S
C448 C444 1.385 . S
C448 C447 1.374 . S
C449 C446 1.499 . S
C449 C450 1.373 . S
C449 C451 1.389 . S
C450 H423 0.950 . S
C450 C436 1.377 . S
C450 C449 1.373 . S
C451 C435 1.377 . S
C451 C449 1.389 . S
C451 C452 1.524 . S
C452 C451 1.524 . S
C452 C453 1.397 . S
C452 C457 1.363 . S
C453 H424 0.950 . S
C453 C452 1.397 . S
C453 C454 1.334 . S
C454 H425 0.950 . S
C454 C453 1.334 . S
C454 C455 1.287 . S
C455 C454 1.287 . S
C455 C456 1.524 . S
C455 H458 0.999 . S
C456 H426 0.950 . S
C456 C455 1.524 . S
C456 C457 1.415 . S
C457 H427 0.950 . S
C457 C452 1.363 . S
C457 C456 1.415 . S
H458 C455 0.999 . S
H459 C440 0.913 . S
H460 C478 0.951 . S
H461 C480 0.951 . S
H462 C482 0.950 . S
H463 C483 0.950 . S
H464 C485 0.950 . S
H465 C488 0.950 . S
H466 C489 0.950 . S
H467 C491 0.950 . S
H468 C492 0.950 . S
H469 C493 0.951 . S
H470 C495 0.951 . S
H471 C497 0.950 . S
H472 C498 0.950 . S
H473 C500 0.950 . S
H474 C503 0.950 . S
H475 C504 0.950 . S
H476 C506 0.950 . S
H477 C507 0.950 . S
C478 H460 0.951 . S
C478 C479 1.366 . S
C478 C480 1.388 . S
C479 C478 1.366 . S
C479 C483 1.385 . S
C480 H461 0.951 . S
C480 C478 1.388 . S
C480 C481 1.366 . S
C481 C480 1.366 . S
C481 C482 1.414 . S
C481 C484 1.499 . S
C482 H462 0.950 . S
C482 C481 1.414 . S
C482 C483 1.374 . S
C483 H463 0.950 . S
C483 C479 1.385 . S
C483 C482 1.374 . S
C484 C481 1.499 . S
C484 C485 1.373 . S
C484 C486 1.389 . S
C485 H464 0.950 . S
C485 C484 1.373 . S
C485 C501 1.377 . S
C486 C484 1.389 . S
C486 C487 1.524 . S
C486 C500 1.377 . S
C487 C486 1.524 . S
C487 C488 1.397 . S
C487 C492 1.363 . S
C488 H465 0.950 . S
C488 C487 1.397 . S
C488 C489 1.334 . S
C489 H466 0.950 . S
C489 C488 1.334 . S
C489 C490 1.287 . S
C490 C489 1.287 . S
C490 C491 1.524 . S
C490 H509 0.913 . S
C491 H467 0.950 . S
C491 C490 1.524 . S
C491 C492 1.415 . S
C492 H468 0.950 . S
C492 C487 1.363 . S
C492 C491 1.415 . S
C493 H469 0.951 . S
C493 C494 1.366 . S
C493 C495 1.388 . S
C494 C493 1.366 . S
C494 C498 1.385 . S
C495 H470 0.951 . S
C495 C493 1.388 . S
C495 C496 1.366 . S
C496 C495 1.366 . S
C496 C497 1.414 . S
C496 C499 1.499 . S
C497 H471 0.950 . S
C497 C496 1.414 . S
C497 C498 1.374 . S
C498 H472 0.950 . S
C498 C494 1.385 . S
C498 C497 1.374 . S
C499 C496 1.499 . S
C499 C500 1.373 . S
C499 C501 1.389 . S
C500 H473 0.950 . S
C500 C486 1.377 . S
C500 C499 1.373 . S
C501 C485 1.377 . S
C501 C499 1.389 . S
C501 C502 1.524 . S
C502 C501 1.524 . S
C502 C503 1.397 . S
C502 C507 1.363 . S
C503 H474 0.950 . S
C503 C502 1.397 . S
C503 C504 1.334 . S
C504 H475 0.950 . S
C504 C503 1.334 . S
C504 C505 1.287 . S
C505 C504 1.287 . S
C505 C506 1.524 . S
C505 H508 0.999 . S
C506 H476 0.950 . S
C506 C505 1.524 . S
C506 C507 1.415 . S
C507 H477 0.950 . S
C507 C502 1.363 . S
C507 C506 1.415 . S
H508 C505 0.999 . S
H509 C490 0.913 . S
H510 C528 0.951 . S
H511 C530 0.951 . S
H512 C532 0.950 . S
H513 C533 0.950 . S
H514 C535 0.950 . S
H515 C538 0.950 . S
H516 C539 0.950 . S
H517 C541 0.950 . S
H518 C542 0.950 . S
H519 C543 0.951 . S
H520 C545 0.951 . S
H521 C547 0.950 . S
H522 C548 0.950 1_545 S
H523 C550 0.950 . S
H524 C553 0.950 . S
H525 C554 0.950 . S
H526 C556 0.950 . S
H527 C557 0.950 . S
C528 H510 0.951 . S
C528 C529 1.366 . S
C528 C530 1.388 . S
C529 C528 1.366 . S
C529 C533 1.385 . S
C530 H511 0.951 . S
C530 C528 1.388 . S
C530 C531 1.366 . S
C531 C530 1.366 . S
C531 C532 1.414 . S
C531 C534 1.499 . S
C532 H512 0.950 . S
C532 C531 1.414 . S
C532 C533 1.374 . S
C533 H513 0.950 . S
C533 C529 1.385 . S
C533 C532 1.374 . S
C534 C531 1.499 . S
C534 C535 1.373 . S
C534 C536 1.389 . S
C535 H514 0.950 . S
C535 C534 1.373 . S
C535 C551 1.377 . S
C536 C534 1.389 . S
C536 C537 1.524 . S
C536 C550 1.377 . S
C537 C536 1.524 . S
C537 C538 1.397 . S
C537 C542 1.363 . S
C538 H515 0.950 . S
C538 C537 1.397 . S
C538 C539 1.334 . S
C539 H516 0.950 . S
C539 C538 1.334 . S
C539 C540 1.287 . S
C540 C539 1.287 . S
C540 C541 1.524 . S
C540 H559 0.913 . S
C541 H517 0.950 . S
C541 C540 1.524 . S
C541 C542 1.415 . S
C542 H518 0.950 . S
C542 C537 1.363 . S
C542 C541 1.415 . S
C543 H519 0.951 . S
C543 C544 1.366 . S
C543 C545 1.388 . S
C544 C543 1.366 . S
C544 C548 1.385 . S
C545 H520 0.951 . S
C545 C543 1.388 . S
C545 C546 1.366 . S
C546 C545 1.366 . S
C546 C547 1.414 . S
C546 C549 1.499 . S
C547 H521 0.950 . S
C547 C546 1.414 . S
C547 C548 1.374 . S
C548 H522 0.950 1_565 S
C548 C544 1.385 . S
C548 C547 1.374 . S
C549 C546 1.499 . S
C549 C550 1.373 . S
C549 C551 1.389 . S
C550 H523 0.950 . S
C550 C536 1.377 . S
C550 C549 1.373 . S
C551 C535 1.377 . S
C551 C549 1.389 . S
C551 C552 1.524 . S
C552 C551 1.524 . S
C552 C553 1.397 . S
C552 C557 1.363 . S
C553 H524 0.950 . S
C553 C552 1.397 . S
C553 C554 1.334 . S
C554 H525 0.950 . S
C554 C553 1.334 . S
C554 C555 1.287 . S
C555 C554 1.287 . S
C555 C556 1.524 . S
C555 H558 0.999 . S
C556 H526 0.950 . S
C556 C555 1.524 . S
C556 C557 1.415 . S
C557 H527 0.950 . S
C557 C552 1.363 . S
C557 C556 1.415 . S
H558 C555 0.999 . S
H559 C540 0.913 . S
H560 C578 0.951 . S
H561 C580 0.951 . S
H562 C582 0.950 . S
H563 C583 0.950 . S
H564 C585 0.950 . S
H565 C588 0.950 . S
H566 C589 0.950 1_545 S
H567 C591 0.950 . S
H568 C592 0.950 . S
H569 C593 0.951 . S
H570 C595 0.951 . S
H571 C597 0.950 1_455 S
H572 C598 0.943 1_455 S
H573 C600 0.950 . S
H574 C603 0.950 . S
H575 C604 0.950 . S
H576 C606 0.950 . S
H577 C607 0.950 . S
C578 H560 0.951 . S
C578 C579 1.366 . S
C578 C580 1.388 . S
C579 C578 1.366 . S
C579 C583 1.385 . S
C580 H561 0.951 . S
C580 C578 1.388 . S
C580 C581 1.366 . S
C581 C580 1.366 . S
C581 C582 1.414 . S
C581 C584 1.499 . S
C582 H562 0.950 . S
C582 C581 1.414 . S
C582 C583 1.374 . S
C583 H563 0.950 . S
C583 C579 1.385 . S
C583 C582 1.374 . S
C584 C581 1.499 . S
C584 C585 1.373 . S
C584 C586 1.389 . S
C585 H564 0.950 . S
C585 C584 1.373 . S
C585 C601 1.377 . S
C586 C584 1.389 . S
C586 C587 1.524 . S
C586 C600 1.377 . S
C587 C586 1.524 . S
C587 C588 1.397 . S
C587 C592 1.363 1_655 S
C588 H565 0.950 . S
C588 C587 1.397 . S
C588 C589 1.334 . S
C589 H566 0.950 1_565 S
C589 C588 1.334 . S
C589 C590 1.287 1_655 S
C590 C589 1.287 1_455 S
C590 C591 1.524 . S
C590 H609 0.913 1_565 S
C591 H567 0.950 . S
C591 C590 1.524 . S
C591 C592 1.415 . S
C592 H568 0.950 . S
C592 C587 1.363 1_455 S
C592 C591 1.415 . S
C593 H569 0.951 . S
C593 C594 1.366 . S
C593 C595 1.388 . S
C594 C593 1.366 . S
C594 C598 1.389 . S
C595 H570 0.951 . S
C595 C593 1.388 . S
C595 C596 1.366 . S
C596 C595 1.366 . S
C596 C597 1.414 . S
C596 C599 1.499 . S
C597 H571 0.950 1_655 S
C597 C596 1.414 . S
C597 C598 1.377 . S
C598 H572 0.943 1_655 S
C598 C594 1.389 . S
C598 C597 1.377 . S
C599 C596 1.499 . S
C599 C600 1.373 . S
C599 C601 1.389 . S
C600 H573 0.950 . S
C600 C586 1.377 . S
C600 C599 1.373 . S
C601 C585 1.377 . S
C601 C599 1.389 . S
C601 C602 1.524 . S
C602 C601 1.524 . S
C602 C603 1.397 . S
C602 C607 1.363 . S
C603 H574 0.950 . S
C603 C602 1.397 . S
C603 C604 1.334 . S
C604 H575 0.950 . S
C604 C603 1.334 . S
C604 C605 1.287 . S
C605 C604 1.287 . S
C605 C606 1.524 . S
C605 H608 0.999 . S
C606 H576 0.950 . S
C606 C605 1.524 . S
C606 C607 1.415 . S
C607 H577 0.950 . S
C607 C602 1.363 . S
C607 C606 1.415 . S
H608 C605 0.999 . S
H609 C590 0.913 1_545 S
H610 C628 0.932 1_545 S
H611 C630 0.950 1_545 S
H612 C632 0.950 . S
H613 C633 0.950 . S
H614 C635 0.950 . S
H615 C638 0.950 . S
H616 C639 0.950 . S
H617 C641 0.950 1_545 S
H618 C642 0.950 . S
H619 C643 0.951 . S
H620 C645 0.951 . S
H621 C647 0.950 . S
H622 C648 0.950 . S
H623 C650 0.950 . S
H624 C653 0.950 . S
H625 C654 0.950 . S
H626 C656 0.950 . S
H627 C657 0.950 . S
C628 H610 0.932 1_565 S
C628 C629 1.377 . S
C628 C630 1.395 . S
C629 C628 1.377 . S
C629 C633 1.385 . S
C630 H611 0.950 1_565 S
C630 C628 1.395 . S
C630 C631 1.366 . S
C631 C630 1.366 . S
C631 C632 1.414 . S
C631 C634 1.499 . S
C632 H612 0.950 . S
C632 C631 1.414 . S
C632 C633 1.374 . S
C633 H613 0.950 . S
C633 C629 1.385 . S
C633 C632 1.374 . S
C634 C631 1.499 . S
C634 C635 1.373 . S
C634 C636 1.389 . S
C635 H614 0.950 . S
C635 C634 1.373 . S
C635 C651 1.377 . S
C636 C634 1.389 . S
C636 C637 1.524 . S
C636 C650 1.377 . S
C637 C636 1.524 . S
C637 C638 1.397 . S
C637 C642 1.363 . S
C638 H615 0.950 . S
C638 C637 1.397 . S
C638 C639 1.334 . S
C639 H616 0.950 . S
C639 C638 1.334 . S
C639 C640 1.287 . S
C640 C639 1.287 . S
C640 C641 1.524 . S
C640 H659 0.913 . S
C641 H617 0.950 1_565 S
C641 C640 1.524 . S
C641 C642 1.415 . S
C642 H618 0.950 . S
C642 C637 1.363 . S
C642 C641 1.415 . S
C643 H619 0.951 . S
C643 C644 1.366 . S
C643 C645 1.388 . S
C644 C643 1.366 . S
C644 C648 1.385 . S
C645 H620 0.951 . S
C645 C643 1.388 . S
C645 C646 1.366 . S
C646 C645 1.366 . S
C646 C647 1.414 . S
C646 C649 1.499 . S
C647 H621 0.950 . S
C647 C646 1.414 . S
C647 C648 1.374 . S
C648 H622 0.950 . S
C648 C644 1.385 . S
C648 C647 1.374 . S
C649 C646 1.499 . S
C649 C650 1.373 . S
C649 C651 1.389 . S
C650 H623 0.950 . S
C650 C636 1.377 . S
C650 C649 1.373 . S
C651 C635 1.377 . S
C651 C649 1.389 . S
C651 C652 1.524 . S
C652 C651 1.524 . S
C652 C653 1.397 . S
C652 C657 1.363 . S
C653 H624 0.950 . S
C653 C652 1.397 . S
C653 C654 1.334 . S
C654 H625 0.950 . S
C654 C653 1.334 . S
C654 C655 1.287 . S
C655 C654 1.287 . S
C655 C656 1.524 . S
C655 H658 0.999 . S
C656 H626 0.950 . S
C656 C655 1.524 . S
C656 C657 1.415 . S
C657 H627 0.950 . S
C657 C652 1.363 . S
C657 C656 1.415 . S
H658 C655 0.999 . S
H659 C640 0.913 . S
H660 C678 0.951 . S
H661 C680 0.951 . S
H662 C682 0.950 . S
H663 C683 0.950 . S
H664 C685 0.950 . S
H665 C688 0.950 . S
H666 C689 0.950 . S
H667 C691 0.950 . S
H668 C692 0.950 . S
H669 C693 0.951 . S
H670 C695 0.951 . S
H671 C697 0.950 . S
H672 C698 0.950 . S
H673 C700 0.950 . S
H674 C703 0.950 . S
H675 C704 0.950 . S
H676 C706 0.950 . S
H677 C707 0.950 . S
C678 H660 0.951 . S
C678 C679 1.366 . S
C678 C680 1.388 . S
C679 C678 1.366 . S
C679 C683 1.385 . S
C680 H661 0.951 . S
C680 C678 1.388 . S
C680 C681 1.366 . S
C681 C680 1.366 . S
C681 C682 1.414 . S
C681 C684 1.499 . S
C682 H662 0.950 . S
C682 C681 1.414 . S
C682 C683 1.374 . S
C683 H663 0.950 . S
C683 C679 1.385 . S
C683 C682 1.374 . S
C684 C681 1.499 . S
C684 C685 1.373 . S
C684 C686 1.389 . S
C685 H664 0.950 . S
C685 C684 1.373 . S
C685 C701 1.377 . S
C686 C684 1.389 . S
C686 C687 1.524 . S
C686 C700 1.377 . S
C687 C686 1.524 . S
C687 C688 1.397 . S
C687 C692 1.363 . S
C688 H665 0.950 . S
C688 C687 1.397 . S
C688 C689 1.334 . S
C689 H666 0.950 . S
C689 C688 1.334 . S
C689 C690 1.287 . S
C690 C689 1.287 . S
C690 C691 1.524 . S
C690 H709 0.913 . S
C691 H667 0.950 . S
C691 C690 1.524 . S
C691 C692 1.415 . S
C692 H668 0.950 . S
C692 C687 1.363 . S
C692 C691 1.415 . S
C693 H669 0.951 . S
C693 C694 1.366 . S
C693 C695 1.388 . S
C694 C693 1.366 . S
C694 C698 1.385 . S
C695 H670 0.951 . S
C695 C693 1.388 . S
C695 C696 1.366 . S
C696 C695 1.366 . S
C696 C697 1.414 . S
C696 C699 1.499 . S
C697 H671 0.950 . S
C697 C696 1.414 . S
C697 C698 1.374 . S
C698 H672 0.950 . S
C698 C694 1.385 . S
C698 C697 1.374 . S
C699 C696 1.499 . S
C699 C700 1.373 . S
C699 C701 1.389 . S
C700 H673 0.950 . S
C700 C686 1.377 . S
C700 C699 1.373 . S
C701 C685 1.377 . S
C701 C699 1.389 . S
C701 C702 1.524 . S
C702 C701 1.524 . S
C702 C703 1.397 . S
C702 C707 1.363 . S
C703 H674 0.950 . S
C703 C702 1.397 . S
C703 C704 1.334 . S
C704 H675 0.950 . S
C704 C703 1.334 . S
C704 C705 1.287 . S
C705 C704 1.287 . S
C705 C706 1.524 . S
C705 H708 0.999 . S
C706 H676 0.950 . S
C706 C705 1.524 . S
C706 C707 1.415 . S
C707 H677 0.950 . S
C707 C702 1.363 . S
C707 C706 1.415 . S
H708 C705 0.999 . S
H709 C690 0.913 . S
H710 C728 0.951 . S
H711 C730 0.951 . S
H712 C732 0.950 . S
H713 C733 0.950 . S
H714 C735 0.950 . S
H715 C738 0.950 . S
H716 C739 0.950 . S
H717 C741 0.950 1_455 S
H718 C742 0.950 . S
H719 C743 0.951 . S
H720 C745 0.951 . S
H721 C747 0.950 . S
H722 C748 0.950 . S
H723 C750 0.950 . S
H724 C753 0.950 . S
H725 C754 0.950 . S
H726 C756 0.950 . S
H727 C757 0.950 . S
C728 H710 0.951 . S
C728 C729 1.366 . S
C728 C730 1.388 . S
C729 C728 1.366 . S
C729 C733 1.385 . S
C730 H711 0.951 . S
C730 C728 1.388 . S
C730 C731 1.366 . S
C731 C730 1.366 . S
C731 C732 1.414 . S
C731 C734 1.499 . S
C732 H712 0.950 . S
C732 C731 1.414 . S
C732 C733 1.374 . S
C733 H713 0.950 . S
C733 C729 1.385 . S
C733 C732 1.374 . S
C734 C731 1.499 . S
C734 C735 1.373 . S
C734 C736 1.389 . S
C735 H714 0.950 . S
C735 C734 1.373 . S
C735 C751 1.377 . S
C736 C734 1.389 . S
C736 C737 1.524 . S
C736 C750 1.377 . S
C737 C736 1.524 . S
C737 C738 1.397 . S
C737 C742 1.363 . S
C738 H715 0.950 . S
C738 C737 1.397 . S
C738 C739 1.334 . S
C739 H716 0.950 . S
C739 C738 1.334 . S
C739 C740 1.287 1_655 S
C740 C739 1.287 1_455 S
C740 C741 1.524 1_455 S
C740 H759 0.913 . S
C741 H717 0.950 1_655 S
C741 C740 1.524 1_655 S
C741 C742 1.415 . S
C742 H718 0.950 . S
C742 C737 1.363 . S
C742 C741 1.415 . S
C743 H719 0.951 . S
C743 C744 1.366 . S
C743 C745 1.388 . S
C744 C743 1.366 . S
C744 C748 1.385 . S
C745 H720 0.951 . S
C745 C743 1.388 . S
C745 C746 1.366 . S
C746 C745 1.366 . S
C746 C747 1.414 . S
C746 C749 1.499 . S
C747 H721 0.950 . S
C747 C746 1.414 . S
C747 C748 1.374 . S
C748 H722 0.950 . S
C748 C744 1.385 . S
C748 C747 1.374 . S
C749 C746 1.499 . S
C749 C750 1.373 . S
C749 C751 1.389 . S
C750 H723 0.950 . S
C750 C736 1.377 . S
C750 C749 1.373 . S
C751 C735 1.377 . S
C751 C749 1.389 . S
C751 C752 1.524 . S
C752 C751 1.524 . S
C752 C753 1.397 . S
C752 C757 1.363 . S
C753 H724 0.950 . S
C753 C752 1.397 . S
C753 C754 1.334 . S
C754 H725 0.950 . S
C754 C753 1.334 . S
C754 C755 1.287 . S
C755 C754 1.287 . S
C755 C756 1.524 . S
C755 H758 0.999 . S
C756 H726 0.950 . S
C756 C755 1.524 . S
C756 C757 1.415 . S
C757 H727 0.950 . S
C757 C752 1.363 . S
C757 C756 1.415 . S
H758 C755 0.999 . S
H759 C740 0.913 . S
C179 C98 0.992 1_565 S
C194 C18 0.995 . S
C229 C138 0.986 . S
C244 C58 0.988 1_655 S
C279 C89 0.764 1_556 S
C294 C9 0.762 1_556 S
C329 C49 0.764 . S
C344 C129 0.762 . S
C379 C55 1.105 . S
C394 C6 1.101 . S
C429 C46 1.099 . S
C444 C95 1.104 . S
C479 C135 1.106 . S
C494 C86 1.099 . S
C529 C126 1.099 . S
C544 C15 1.106 . S
C579 C99 4.507 . S
C594 C130 4.635 1_655 S
C629 C10 4.634 1_565 S
C644 C139 4.507 . S
C679 C50 4.634 . S
C694 C19 4.506 . S
C729 C90 4.634 . S
C744 C59 4.507 . S
