# Generated by pormake.
# Topology srs, (3)-cn, num edge types: 1
# Building blocks:
#     Node 0, Type 0, BuildingBlock: OLANEW_clean_sbu_2, # of connection points: 3
#     Node 1, Type 0, BuildingBlock: OLANEW_clean_sbu_2, # of connection points: 3
#     Node 2, Type 0, BuildingBlock: OLANEW_clean_sbu_2, # of connection points: 3
#     Node 3, Type 0, BuildingBlock: OLANEW_clean_sbu_2, # of connection points: 3
#     Node 4, Type 0, BuildingBlock: OLANEW_clean_sbu_2, # of connection points: 3
#     Node 5, Type 0, BuildingBlock: OLANEW_clean_sbu_2, # of connection points: 3
#     Node 6, Type 0, BuildingBlock: OLANEW_clean_sbu_2, # of connection points: 3
#     Node 7, Type 0, BuildingBlock: OLANEW_clean_sbu_2, # of connection points: 3
#     Edge 8, Type (0, 0), BuildingBlock: TEMPAE_clean_linker_10, # of connection points: 2
#     Edge 9, Type (0, 0), BuildingBlock: TEMPAE_clean_linker_10, # of connection points: 2
#     Edge 10, Type (0, 0), BuildingBlock: TEMPAE_clean_linker_10, # of connection points: 2
#     Edge 11, Type (0, 0), BuildingBlock: TEMPAE_clean_linker_10, # of connection points: 2
#     Edge 12, Type (0, 0), BuildingBlock: TEMPAE_clean_linker_10, # of connection points: 2
#     Edge 13, Type (0, 0), BuildingBlock: TEMPAE_clean_linker_10, # of connection points: 2
#     Edge 14, Type (0, 0), BuildingBlock: TEMPAE_clean_linker_10, # of connection points: 2
#     Edge 15, Type (0, 0), BuildingBlock: TEMPAE_clean_linker_10, # of connection points: 2
#     Edge 16, Type (0, 0), BuildingBlock: TEMPAE_clean_linker_10, # of connection points: 2
#     Edge 17, Type (0, 0), BuildingBlock: TEMPAE_clean_linker_10, # of connection points: 2
#     Edge 18, Type (0, 0), BuildingBlock: TEMPAE_clean_linker_10, # of connection points: 2
#     Edge 19, Type (0, 0), BuildingBlock: TEMPAE_clean_linker_10, # of connection points: 2
# Relax obj value: 0.001
# Max RMSD: 0.083
# Mean RMSD: 0.072
data_MOF--net-srs--node1-OLANEW_clean_sbu_2--edge1-TEMPAE_clean_linker_10
_symmetry_space_group_name_H-M    P1
_symmetry_Int_Tables_number       1
_symmetry_cell_setting            triclinic
loop_
_symmetry_equiv_pos_as_xyz
'x, y, z'
_cell_length_a     36.909417
_cell_length_b     54.352939
_cell_length_c     46.58247
_cell_angle_alpha  101.272
_cell_angle_beta   89.242078
_cell_angle_gamma 102.86781
loop_
_atom_site_label
_atom_site_type_symbol
_atom_site_fract_x
_atom_site_fract_y
_atom_site_fract_z
_atom_type_partial_charge
O0 O 0.07775 0.07673 0.11206 0.0
Cd1 Cd 0.042 0.08485 0.15618 0.0
O2 O 0.12895 0.10287 0.13268 0.0
Cd3 Cd 0.09957 0.12065 0.16907 0.0
O4 O 0.07784 0.15552 0.17896 0.0
C5 C 0.08198 0.16759 0.15793 0.0
O6 O 0.09759 0.15791 0.13413 0.0
C7 C 0.1123 0.08648 0.11092 0.0
C8 C 0.04451 0.0503 0.19294 0.0
O9 O 0.01896 0.04543 0.17293 0.0
O10 O 0.06895 0.07151 0.19551 0.0
O11 O 0.09831 0.90291 0.39917 0.0
Cd12 Cd 0.04584 0.89012 0.36376 0.0
O13 O 0.12404 0.87151 0.37781 0.0
Cd14 Cd 0.07663 0.85202 0.34812 0.0
O15 O 0.0314 0.81835 0.33395 0.0
C16 C 0.0401 0.7966 0.32969 0.0
O17 O 0.07529 0.79599 0.33227 0.0
C18 C 0.12498 0.89143 0.39762 0.0
C19 C 0.04753 0.92552 0.32734 0.0
O20 O 0.03067 0.9276 0.35164 0.0
O21 O 0.06371 0.90673 0.32033 0.0
O22 O 0.4526 0.90496 0.65709 0.0
Cd23 Cd 0.48088 0.87686 0.6205 0.0
O24 O 0.40772 0.89841 0.62436 0.0
Cd25 Cd 0.35811 0.90553 0.60524 0.0
O26 O 0.31308 0.90726 0.57625 0.0
C27 C 0.31921 0.92217 0.55796 0.0
O28 O 0.35249 0.93708 0.55765 0.0
C29 C 0.422 0.9093 0.64961 0.0
C30 C 0.49636 0.83389 0.63792 0.0
O31 O 0.52052 0.85531 0.64169 0.0
O32 O 0.46449 0.83301 0.62664 0.0
O33 O 0.33581 0.12208 0.81986 0.0
Cd34 Cd 0.2893 0.08218 0.81927 0.0
O35 O 0.34129 0.13335 0.86789 0.0
Cd36 Cd 0.29935 0.10125 0.87815 0.0
O37 O 0.26243 0.08482 0.91002 0.0
C38 C 0.24087 0.09862 0.92244 0.0
O39 O 0.24082 0.12034 0.91404 0.0
C40 C 0.35077 0.13775 0.84271 0.0
C41 C 0.31183 0.04156 0.78265 0.0
O42 O 0.29447 0.05603 0.77232 0.0
O43 O 0.31804 0.04601 0.8104 0.0
O44 O 0.61779 0.40002 0.9083 0.0
Cd45 Cd 0.56485 0.3881 0.87339 0.0
O46 O 0.64308 0.36878 0.88578 0.0
Cd47 Cd 0.59494 0.35001 0.85657 0.0
O48 O 0.54804 0.31739 0.84279 0.0
C49 C 0.5547 0.29526 0.84165 0.0
O50 O 0.58886 0.2937 0.84716 0.0
C51 C 0.64439 0.38843 0.90605 0.0
C52 C 0.56876 0.42291 0.83594 0.0
O53 O 0.5522 0.42597 0.86032 0.0
O54 O 0.58356 0.4034 0.82933 0.0
O55 O -0.02574 0.40778 0.16814 0.0
Cd56 Cd 0.00855 0.38134 0.13477 0.0
O57 O 0.93121 0.39819 0.13334 0.0
Cd58 Cd 0.88133 0.40247 0.11171 0.0
O59 O 0.83608 0.40305 0.08225 0.0
C60 C 0.84156 0.41816 0.06417 0.0
O61 O 0.87431 0.43382 0.06421 0.0
C62 C 0.94326 0.41017 0.15885 0.0
C63 C 0.01696 0.33635 0.15164 0.0
O64 O 0.04121 0.35754 0.15932 0.0
O65 O -0.01176 0.33663 0.13662 0.0
O66 O 0.83024 0.61901 0.31142 0.0
Cd67 Cd 0.786 0.57828 0.31174 0.0
O68 O 0.84212 0.62816 0.35896 0.0
Cd69 Cd 0.80126 0.59586 0.36998 0.0
O70 O 0.76389 0.58057 0.40224 0.0
C71 C 0.77709 0.57287 0.42308 0.0
O72 O 0.81251 0.57235 0.42328 0.0
C73 C 0.84797 0.63376 0.3338 0.0
C74 C 0.81335 0.53809 0.27876 0.0
O75 O 0.79517 0.55099 0.26655 0.0
O76 O 0.81806 0.54387 0.30669 0.0
O77 O 0.61392 0.57133 0.61775 0.0
Cd78 Cd 0.57672 0.5807 0.6607 0.0
O79 O 0.64257 0.61206 0.62241 0.0
Cd80 Cd 0.60808 0.6282 0.65614 0.0
O81 O 0.58098 0.66068 0.66556 0.0
C82 C 0.57911 0.67088 0.64343 0.0
O83 O 0.59214 0.66074 0.61859 0.0
C84 C 0.63841 0.58871 0.60936 0.0
C85 C 0.57591 0.54648 0.69848 0.0
O86 O 0.55114 0.54182 0.6779 0.0
O87 O 0.6011 0.56734 0.70116 0.0
C88 C 0.0295 0.96431 0.31554 0.0
C89 C 0.04799 0.94414 0.30785 0.0
C90 C 0.02923 0.98185 0.2971 0.0
C91 C 0.04791 0.97918 0.27031 0.0
C92 C 0.06683 0.95897 0.2625 0.0
C93 C 0.06663 0.94169 0.28135 0.0
C94 C 0.00873 0.00314 0.30619 0.0
C95 C 0.08711 0.95553 0.23413 0.0
C96 C 0.01808 0.0092 0.20997 0.0
C97 C 0.04561 0.03202 0.21258 0.0
C98 C 0.01856 -0.00818 0.22858 0.0
C99 C 0.04727 -0.00264 0.25029 0.0
C100 C 0.07521 0.0203 0.25298 0.0
C101 C 0.07404 0.03737 0.2341 0.0
C102 C -0.01176 0.96756 0.22505 0.0
C103 C 0.10631 0.02686 0.27584 0.0
H104 H 0.01504 0.96636 0.33597 0.0
H105 H 0.08102 0.92619 0.27523 0.0
H106 H 0.02806 0.02213 0.30721 0.0
H107 H -0.0135 0.00145 0.28965 0.0
H108 H -0.00407 0.00274 0.32786 0.0
H109 H 0.10088 0.93904 0.23145 0.0
H110 H 0.06734 0.95232 0.21533 0.0
H111 H 0.10851 0.97326 0.23322 0.0
H112 H -0.00399 0.00491 0.19342 0.0
H113 H 0.09543 0.05494 0.23627 0.0
H114 H -0.027 0.96705 0.2457 0.0
H115 H 0.00061 0.95042 0.22055 0.0
H116 H 0.96799 0.96603 0.207 0.0
H117 H 0.09464 0.02815 0.29802 0.0
H118 H 0.12605 0.04537 0.27494 0.0
H119 H 0.12196 0.01136 0.27278 0.0
C120 C 0.15482 0.91957 0.44436 0.0
C121 C 0.15571 0.89985 0.42006 0.0
C122 C 0.18177 0.92577 0.46722 0.0
C123 C 0.21025 0.91195 0.4657 0.0
C124 C 0.21212 0.89274 0.44073 0.0
C125 C 0.18487 0.88694 0.41824 0.0
C126 C 0.17898 0.94646 0.49344 0.0
C127 C 0.24218 0.87764 0.43822 0.0
C128 C 0.29773 0.93647 0.51441 0.0
C129 C 0.29019 0.92122 0.5358 0.0
C130 C 0.2715 0.93429 0.49195 0.0
C131 C 0.23695 0.91641 0.49085 0.0
C132 C 0.22871 0.90158 0.51291 0.0
C133 C 0.2554 0.90417 0.53512 0.0
C134 C 0.28122 0.95051 0.46888 0.0
C135 C 0.19213 0.88234 0.51253 0.0
H136 H 0.13245 0.92969 0.44596 0.0
H137 H 0.18596 0.87177 0.39952 0.0
H138 H 0.17261 0.93772 0.51306 0.0
H139 H 0.20593 0.96067 0.49806 0.0
H140 H 0.157 0.95679 0.49025 0.0
H141 H 0.24096 0.86436 0.41667 0.0
H142 H 0.27001 0.89093 0.44137 0.0
H143 H 0.23932 0.86614 0.45569 0.0
H144 H 0.32447 0.94978 0.51481 0.0
H145 H 0.24925 0.89239 0.5516 0.0
H146 H 0.25899 0.96083 0.46655 0.0
H147 H 0.28323 0.9379 0.44737 0.0
H148 H 0.30803 0.96485 0.47406 0.0
H149 H 0.16863 0.8918 0.51141 0.0
H150 H 0.1892 0.87336 0.53216 0.0
H151 H 0.18978 0.86688 0.49272 0.0
C152 C 0.42681 0.94979 0.68662 0.0
C153 C 0.40454 0.92771 0.6694 0.0
C154 C 0.41081 0.96792 0.70499 0.0
C155 C 0.37162 0.9635 0.70669 0.0
C156 C 0.34903 0.9409 0.68982 0.0
C157 C 0.36579 0.92334 0.67116 0.0
C158 C 0.43584 -0.00799 0.72222 0.0
C159 C 0.3072 0.93522 0.69156 0.0
C160 C 0.33506 0.00093 0.77413 0.0
C161 C 0.32534 0.02085 0.76301 0.0
C162 C 0.34913 0.98168 0.75585 0.0
C163 C 0.3544 0.98273 0.72591 0.0
C164 C 0.34439 0.00271 0.71453 0.0
C165 C 0.32961 0.02137 0.73316 0.0
C166 C 0.35875 0.96037 0.76864 0.0
C167 C 0.35021 0.00475 0.68285 0.0
H168 H 0.4568 0.95317 0.6852 0.0
H169 H 0.3486 0.90595 0.65837 0.0
H170 H 0.42883 0.00927 0.71635 0.0
H171 H 0.43139 -0.00682 0.74599 0.0
H172 H 0.46574 -0.00731 0.71814 0.0
H173 H 0.29368 0.91646 0.67759 0.0
H174 H 0.2991 0.93496 0.71455 0.0
H175 H 0.29627 0.95063 0.6846 0.0
H176 H 0.33157 0.00035 0.79715 0.0
H177 H 0.32234 0.03681 0.72449 0.0
H178 H 0.38907 0.96142 0.76737 0.0
H179 H 0.34441 0.94135 0.75575 0.0
H180 H 0.35087 0.96144 0.79187 0.0
H181 H 0.38019 0.00708 0.67808 0.0
H182 H 0.34053 0.02126 0.67734 0.0
H183 H 0.33517 -0.01318 0.66827 0.0
C184 C 0.11261 0.06696 0.0575 0.0
C185 C 0.1321 0.08137 0.08322 0.0
C186 C 0.12951 0.06579 0.03021 0.0
C187 C 0.16674 0.07934 0.02865 0.0
C188 C 0.1873 0.09242 0.05474 0.0
C189 C 0.16975 0.09325 0.08169 0.0
C190 C 0.10678 0.05143 0.00292 0.0
C191 C 0.22715 0.10698 0.05405 0.0
C192 C 0.22206 0.07038 0.95933 0.0
C193 C 0.21908 0.09194 0.9479 0.0
C194 C 0.20415 0.06544 0.98512 0.0
C195 C 0.1829 0.0825 -0.00021 0.0
C196 C 0.17872 0.10373 -0.01224 0.0
C197 C 0.19678 0.10815 0.96198 0.0
C198 C 0.209 0.0425 -0.00282 0.0
C199 C 0.15621 0.12237 0.00268 0.0
H200 H 0.08357 0.05757 0.05844 0.0
H201 H 0.18518 0.10425 0.10144 0.0
H202 H 0.10007 0.06544 -0.00943 0.0
H203 H 0.1228 0.03934 -0.01165 0.0
H204 H 0.0803 0.03896 0.00807 0.0
H205 H 0.24041 0.11381 0.07631 0.0
H206 H 0.24379 0.09469 0.04049 0.0
H207 H 0.2281 0.12395 0.04389 0.0
H208 H 0.23915 0.0577 0.94856 0.0
H209 H 0.19412 0.12478 0.95326 0.0
H210 H 0.1816 0.03106 0.00208 0.0
H211 H 0.22556 0.04921 0.01807 0.0
H212 H 0.22336 0.02976 0.98178 0.0
H213 H 0.12767 0.11185 0.00633 0.0
H214 H 0.15425 0.1372 -0.01025 0.0
H215 H 0.16913 0.13226 0.02446 0.0
C216 C -0.00358 0.28889 0.14957 0.0
C217 C 0.02313 0.31196 0.1582 0.0
C218 C 0.00372 0.26522 0.15255 0.0
C219 C 0.03862 0.26461 0.16428 0.0
C220 C 0.06495 0.28794 0.17439 0.0
C221 C 0.05686 0.31135 0.17128 0.0
C222 C -0.02519 0.24077 0.14172 0.0
C223 C 0.10249 0.2881 0.18701 0.0
C224 C 0.05329 0.20298 0.18494 0.0
C225 C 0.07025 0.19223 0.15991 0.0
C226 C 0.04261 0.22651 0.18673 0.0
C227 C 0.04915 0.23953 0.16298 0.0
C228 C 0.06614 0.2287 0.13768 0.0
C229 C 0.07641 0.20522 0.13645 0.0
C230 C 0.02446 0.23748 0.21401 0.0
C231 C 0.07367 0.24198 0.11188 0.0
H232 H 0.97018 0.2892 0.13964 0.0
H233 H 0.07761 0.32908 0.17812 0.0
H234 H -0.01534 0.22962 0.12179 0.0
H235 H 0.97047 0.22849 0.15844 0.0
H236 H 0.94769 0.24469 0.13627 0.0
H237 H 0.11827 0.30788 0.19659 0.0
H238 H 0.0993 0.27631 0.2042 0.0
H239 H 0.11914 0.27939 0.16951 0.0
H240 H 0.04841 0.19305 0.20315 0.0
H241 H 0.08948 0.1971 0.11702 0.0
H242 H -0.00323 0.24025 0.20826 0.0
H243 H 0.04147 0.25667 0.22422 0.0
H244 H 0.02094 0.22485 0.23041 0.0
H245 H 0.04727 0.24467 0.10321 0.0
H246 H 0.08707 0.23096 0.09383 0.0
H247 H 0.09204 0.26137 0.11894 0.0
C248 C 0.39238 0.16546 0.81276 0.0
C249 C 0.37939 0.16113 0.84021 0.0
C250 C 0.42009 0.1873 0.81036 0.0
C251 C 0.43507 0.20523 0.836 0.0
C252 C 0.42167 0.20117 0.86369 0.0
C253 C 0.39408 0.17919 0.86546 0.0
C254 C 0.43374 0.19099 0.78046 0.0
C255 C 0.43688 0.21988 0.89155 0.0
C256 C 0.53187 0.24784 0.83794 0.0
C257 C 0.52416 0.27184 0.83713 0.0
C258 C 0.50315 0.22582 0.83655 0.0
C259 C 0.46576 0.2278 0.8342 0.0
C260 C 0.4578 0.25172 0.83217 0.0
C261 C 0.48711 0.27349 0.83369 0.0
C262 C 0.51279 0.20064 0.83873 0.0
C263 C 0.41827 0.25454 0.8295 0.0
H264 H 0.38119 0.15165 0.79312 0.0
H265 H 0.38414 0.17612 0.88676 0.0
H266 H 0.43101 0.21006 0.77675 0.0
H267 H 0.46368 0.19069 0.77918 0.0
H268 H 0.41822 0.17583 0.76259 0.0
H269 H 0.42268 0.21433 0.91127 0.0
H270 H 0.46703 0.2209 0.89428 0.0
H271 H 0.43375 0.23948 0.89031 0.0
H272 H 0.5604 0.24632 0.84046 0.0
H273 H 0.4809 0.29193 0.83292 0.0
H274 H 0.49926 0.1852 0.82036 0.0
H275 H 0.50212 0.19483 0.85936 0.0
H276 H 0.54325 0.20193 0.83847 0.0
H277 H 0.40309 0.23974 0.81121 0.0
H278 H 0.41689 0.27388 0.82573 0.0
H279 H 0.40356 0.25141 0.84985 0.0
C280 C 0.02111 0.74864 0.32257 0.0
C281 C 0.01102 0.77238 0.32518 0.0
C282 C -0.00589 0.72575 0.32147 0.0
C283 C 0.95607 0.72658 0.32297 0.0
C284 C 0.94557 0.75029 0.32429 0.0
C285 C -0.02682 0.77293 0.32539 0.0
C286 C 0.00643 0.70084 0.31997 0.0
C287 C 0.90526 0.75191 0.32578 0.0
C288 C 0.88396 0.66343 0.30308 0.0
C289 C 0.87529 0.65761 0.33078 0.0
C290 C 0.90997 0.68593 0.30014 0.0
C291 C 0.92764 0.70301 0.32549 0.0
C292 C 0.91879 0.69734 0.35349 0.0
C293 C 0.89282 0.67473 0.35578 0.0
C294 C 0.91879 0.69133 0.26992 0.0
C295 C 0.93698 0.7151 0.38107 0.0
H296 H 0.05025 0.74798 0.32223 0.0
H297 H 0.96512 0.79115 0.32728 0.0
H298 H -0.00023 0.69377 0.34064 0.0
H299 H -0.00878 0.68583 0.30189 0.0
H300 H 0.03676 0.70311 0.31662 0.0
H301 H 0.90151 0.77132 0.32415 0.0
H302 H 0.88858 0.73749 0.3079 0.0
H303 H 0.89395 0.7474 0.34681 0.0
H304 H 0.87057 0.65034 0.28363 0.0
H305 H 0.88626 0.67048 0.37729 0.0
H306 H 0.9487 0.69224 0.26585 0.0
H307 H 0.9135 0.71033 0.26833 0.0
H308 H 0.90206 0.6764 0.25245 0.0
H309 H 0.96752 0.71694 0.38067 0.0
H310 H 0.92653 0.70814 0.40119 0.0
H311 H 0.93187 0.73463 0.3823 0.0
C312 C 0.56336 0.70519 0.6206 0.0
C313 C 0.56413 0.69429 0.64544 0.0
C314 C 0.55074 0.72786 0.62196 0.0
C315 C 0.53843 0.73998 0.64883 0.0
C316 C 0.53855 0.72892 0.67394 0.0
C317 C 0.55146 0.70618 0.67197 0.0
C318 C 0.55108 0.73902 0.59466 0.0
C319 C 0.52548 0.74127 0.70291 0.0
C320 C 0.54225 0.81094 0.65335 0.0
C321 C 0.50584 0.81044 0.64455 0.0
C322 C 0.5528 0.78827 0.65629 0.0
C323 C 0.52627 0.76453 0.65041 0.0
C324 C 0.489 0.7641 0.64308 0.0
C325 C 0.47924 0.78705 0.64016 0.0
C326 C 0.59284 0.78955 0.66413 0.0
C327 C 0.45984 0.7392 0.63686 0.0
H328 H 0.57302 0.69616 0.59999 0.0
H329 H 0.55193 0.69786 0.69126 0.0
H330 H 0.52272 0.74088 0.58937 0.0
H331 H 0.56939 0.75861 0.59843 0.0
H332 H 0.56102 0.72702 0.57539 0.0
H333 H 0.5261 0.72979 0.72011 0.0
H334 H 0.54335 0.76076 0.71046 0.0
H335 H 0.4967 0.74366 0.70034 0.0
H336 H 0.56295 0.82893 0.65692 0.0
H337 H 0.45098 0.7865 0.63356 0.0
H338 H 0.60606 0.77985 0.64498 0.0
H339 H 0.59443 0.77924 0.68225 0.0
H340 H 0.60912 0.80968 0.67078 0.0
H341 H 0.466 0.72704 0.61615 0.0
H342 H 0.43142 0.74247 0.63473 0.0
H343 H 0.46028 0.72822 0.65453 0.0
C344 C 0.54679 0.5061 0.71609 0.0
C345 C 0.57534 0.52837 0.7186 0.0
C346 C 0.54574 0.48886 0.7351 0.0
C347 C 0.57398 0.49396 0.75713 0.0
C348 C 0.60295 0.51634 0.75973 0.0
C349 C 0.60327 0.53329 0.74046 0.0
C350 C 0.51434 0.46523 0.73168 0.0
C351 C 0.6336 0.5224 0.7829 0.0
C352 C 0.55316 0.46206 0.82305 0.0
C353 C 0.57051 0.44126 0.81595 0.0
C354 C 0.55419 0.47941 0.80417 0.0
C355 C 0.57308 0.47591 0.77754 0.0
C356 C 0.59083 0.45504 0.77031 0.0
C357 C 0.5893 0.43796 0.78958 0.0
C358 C 0.53489 0.50141 0.81263 0.0
C359 C 0.61132 0.45071 0.74214 0.0
H360 H 0.52508 0.50215 0.69928 0.0
H361 H 0.62546 0.55042 0.74255 0.0
H362 H 0.52567 0.44763 0.72759 0.0
H363 H 0.49877 0.46533 0.75222 0.0
H364 H 0.4946 0.46401 0.71339 0.0
H365 H 0.65426 0.5405 0.7819 0.0
H366 H 0.62159 0.52424 0.80497 0.0
H367 H 0.64827 0.5064 0.78029 0.0
H368 H 0.53857 0.46477 0.84337 0.0
H369 H 0.60282 0.42196 0.78391 0.0
H370 H 0.51319 0.5001 0.79579 0.0
H371 H 0.55513 0.52003 0.81358 0.0
H372 H 0.52163 0.50155 0.8342 0.0
H373 H 0.59196 0.4478 0.72314 0.0
H374 H 0.624 0.43374 0.73989 0.0
H375 H 0.63361 0.46796 0.74113 0.0
C376 C 0.81912 0.43245 0.02096 0.0
C377 C 0.81228 0.4169 0.04209 0.0
C378 C 0.79251 0.43023 -0.00124 0.0
C379 C 0.75828 0.41204 -0.00232 0.0
C380 C 0.7508 0.3968 0.01941 0.0
C381 C 0.77786 0.39942 0.04134 0.0
C382 C 0.80144 0.44686 0.97602 0.0
C383 C 0.71456 0.37721 0.01904 0.0
C384 C 0.67489 0.41573 0.95298 0.0
C385 C 0.6755 0.39645 0.92816 0.0
C386 C 0.70229 0.42158 0.97545 0.0
C387 C 0.73097 0.40786 0.97302 0.0
C388 C 0.73251 0.38909 0.94754 0.0
C389 C 0.70478 0.38361 0.92546 0.0
C390 C 0.69981 0.44179 0.00225 0.0
C391 C 0.76277 0.37413 0.94404 0.0
H392 H 0.84557 0.44607 0.0214 0.0
H393 H 0.77225 0.38739 0.05762 0.0
H394 H 0.80288 0.43455 0.95421 0.0
H395 H 0.77907 0.45724 0.97448 0.0
H396 H 0.8283 0.46118 0.98098 0.0
H397 H 0.71233 0.36778 0.03831 0.0
H398 H 0.69076 0.38653 0.01869 0.0
H399 H 0.71205 0.36213 -0.00114 0.0
H400 H 0.65242 0.42578 0.95527 0.0
H401 H 0.70564 0.36878 0.90633 0.0
H402 H 0.72664 0.45614 0.00672 0.0
H403 H 0.69423 0.43263 0.02164 0.0
H404 H 0.67744 0.45202 -0.00014 0.0
H405 H 0.79052 0.38752 0.94709 0.0
H406 H 0.76122 0.36123 0.92221 0.0
H407 H 0.76049 0.36226 0.96112 0.0
C408 C 0.88391 0.42148 0.17712 0.0
C409 C 0.92282 0.42774 0.17686 0.0
C410 C 0.86432 0.43829 0.19396 0.0
C411 C 0.8842 0.46207 0.21051 0.0
C412 C 0.92355 0.4684 0.21037 0.0
C413 C 0.9424 0.45099 0.19382 0.0
C414 C 0.82242 0.43062 0.1941 0.0
C415 C 0.94573 0.49376 0.2273 0.0
C416 C 0.83515 0.51719 0.2311 0.0
C417 C 0.82954 0.51772 0.26103 0.0
C418 C 0.85259 0.49901 0.21433 0.0
C419 C 0.86397 0.48058 0.22768 0.0
C420 C 0.85732 0.48051 0.25767 0.0
C421 C 0.84055 0.49928 0.27408 0.0
C422 C 0.8598 0.5 0.18254 0.0
C423 C 0.86834 0.46082 0.27251 0.0
H424 H 0.86881 0.40321 0.16454 0.0
H425 H -0.02748 0.45584 0.19356 0.0
H426 H 0.8131 0.43089 0.21688 0.0
H427 H 0.81021 0.44468 0.18541 0.0
H428 H 0.81124 0.41113 0.18074 0.0
H429 H -0.02384 0.49583 0.22463 0.0
H430 H 0.93733 0.50991 0.21983 0.0
H431 H 0.93988 0.49558 0.25094 0.0
H432 H 0.82688 0.5315 0.22094 0.0
H433 H 0.83604 0.49951 0.29717 0.0
H434 H 0.84702 0.48121 0.16841 0.0
H435 H 0.89017 0.50369 0.179 0.0
H436 H 0.84864 0.51526 0.17533 0.0
H437 H 0.8563 0.4411 0.26013 0.0
H438 H 0.85902 0.46232 0.29544 0.0
H439 H 0.89901 0.46339 0.27271 0.0
C440 C 0.71838 0.57287 0.45063 0.0
C441 C 0.75445 0.56846 0.44891 0.0
C442 C 0.69878 0.57266 0.47663 0.0
C443 C 0.71557 0.5678 0.50148 0.0
C444 C 0.75093 0.56164 0.49931 0.0
C445 C 0.77 0.56209 0.47305 0.0
C446 C 0.66106 0.57924 0.47803 0.0
C447 C 0.7696 0.55609 0.52521 0.0
C448 C 0.68736 0.60192 0.57436 0.0
C449 C 0.66053 0.58239 0.58322 0.0
C450 C 0.70613 0.59715 0.54824 0.0
C451 C 0.69805 0.57219 0.53044 0.0
C452 C 0.67207 0.5521 0.53972 0.0
C453 C 0.65355 0.55745 0.56602 0.0
C454 C 0.73375 0.61911 0.5392 0.0
C455 C 0.66298 0.52521 0.52143 0.0
H456 H 0.706 0.57762 0.43205 0.0
H457 H 0.79772 0.55843 0.47187 0.0
H458 H 0.6407 0.56494 0.48753 0.0
H459 H 0.66299 0.59832 0.49253 0.0
H460 H 0.65027 0.57993 0.45611 0.0
H461 H 0.79453 0.54824 0.51889 0.0
H462 H 0.77835 0.57412 0.5418 0.0
H463 H 0.74995 0.54218 0.53576 0.0
H464 H 0.69316 0.62122 0.58753 0.0
H465 H 0.63293 0.54222 0.57269 0.0
H466 H 0.72382 0.62301 0.51852 0.0
H467 H 0.76097 0.61386 0.53499 0.0
H468 H 0.73803 0.6371 0.5561 0.0
H469 H 0.64866 0.52525 0.50065 0.0
H470 H 0.64477 0.51127 0.53292 0.0
H471 H 0.68886 0.51847 0.51558 0.0
loop_
_geom_bond_atom_site_label_1
_geom_bond_atom_site_label_2
_geom_bond_distance
_geom_bond_site_symmetry_2
_ccdc_geom_bond_type
O0 Cd1 2.300 . S
O0 C7 1.275 . S
Cd1 O0 2.300 . S
Cd1 O9 2.381 . S
Cd1 O10 2.378 . S
O2 Cd3 2.385 . S
O2 C7 1.255 . S
Cd3 O2 2.385 . S
Cd3 O4 2.317 . S
O4 Cd3 2.317 . S
O4 C5 1.232 . S
C5 O4 1.232 . S
C5 O6 1.218 . S
O6 C5 1.218 . S
C7 O0 1.275 . S
C7 O2 1.255 . S
C8 O9 1.258 . S
C8 O10 1.256 . S
O9 Cd1 2.381 . S
O9 C8 1.258 . S
O10 Cd1 2.378 . S
O10 C8 1.256 . S
O11 Cd12 2.300 . S
O11 C18 1.275 . S
Cd12 O11 2.300 . S
Cd12 O20 2.381 . S
Cd12 O21 2.378 . S
O13 Cd14 2.385 . S
O13 C18 1.255 . S
Cd14 O13 2.385 . S
Cd14 O15 2.317 . S
O15 Cd14 2.317 . S
O15 C16 1.232 . S
C16 O15 1.232 . S
C16 O17 1.218 . S
O17 C16 1.218 . S
C18 O11 1.275 . S
C18 O13 1.255 . S
C19 O20 1.258 . S
C19 O21 1.256 . S
O20 Cd12 2.381 . S
O20 C19 1.258 . S
O21 Cd12 2.378 . S
O21 C19 1.256 . S
O22 Cd23 2.300 . S
O22 C29 1.275 . S
Cd23 O22 2.300 . S
Cd23 O31 2.381 . S
Cd23 O32 2.378 . S
O24 Cd25 2.385 . S
O24 C29 1.255 . S
Cd25 O24 2.385 . S
Cd25 O26 2.317 . S
O26 Cd25 2.317 . S
O26 C27 1.232 . S
C27 O26 1.232 . S
C27 O28 1.218 . S
O28 C27 1.218 . S
C29 O22 1.275 . S
C29 O24 1.255 . S
C30 O31 1.258 . S
C30 O32 1.256 . S
O31 Cd23 2.381 . S
O31 C30 1.258 . S
O32 Cd23 2.378 . S
O32 C30 1.256 . S
O33 Cd34 2.300 . S
O33 C40 1.275 . S
Cd34 O33 2.300 . S
Cd34 O42 2.381 . S
Cd34 O43 2.378 . S
O35 Cd36 2.385 . S
O35 C40 1.255 . S
Cd36 O35 2.385 . S
Cd36 O37 2.317 . S
O37 Cd36 2.317 . S
O37 C38 1.232 . S
C38 O37 1.232 . S
C38 O39 1.218 . S
O39 C38 1.218 . S
C40 O33 1.275 . S
C40 O35 1.255 . S
C41 O42 1.258 . S
C41 O43 1.256 . S
O42 Cd34 2.381 . S
O42 C41 1.258 . S
O43 Cd34 2.378 . S
O43 C41 1.256 . S
O44 Cd45 2.300 . S
O44 C51 1.275 . S
Cd45 O44 2.300 . S
Cd45 O53 2.381 . S
Cd45 O54 2.378 . S
O46 Cd47 2.385 . S
O46 C51 1.255 . S
Cd47 O46 2.385 . S
Cd47 O48 2.317 . S
O48 Cd47 2.317 . S
O48 C49 1.232 . S
C49 O48 1.232 . S
C49 O50 1.218 . S
O50 C49 1.218 . S
C51 O44 1.275 . S
C51 O46 1.255 . S
C52 O53 1.258 . S
C52 O54 1.256 . S
O53 Cd45 2.381 . S
O53 C52 1.258 . S
O54 Cd45 2.378 . S
O54 C52 1.256 . S
O55 Cd56 2.300 . S
O55 C62 1.275 . S
Cd56 O55 2.300 . S
Cd56 O64 2.381 . S
Cd56 O65 2.378 . S
O57 Cd58 2.385 . S
O57 C62 1.255 . S
Cd58 O57 2.385 . S
Cd58 O59 2.317 . S
O59 Cd58 2.317 . S
O59 C60 1.232 . S
C60 O59 1.232 . S
C60 O61 1.218 . S
O61 C60 1.218 . S
C62 O55 1.275 . S
C62 O57 1.255 . S
C63 O64 1.258 . S
C63 O65 1.256 . S
O64 Cd56 2.381 . S
O64 C63 1.258 . S
O65 Cd56 2.378 . S
O65 C63 1.256 . S
O66 Cd67 2.300 . S
O66 C73 1.275 . S
Cd67 O66 2.300 . S
Cd67 O75 2.381 . S
Cd67 O76 2.378 . S
O68 Cd69 2.385 . S
O68 C73 1.255 . S
Cd69 O68 2.385 . S
Cd69 O70 2.317 . S
O70 Cd69 2.317 . S
O70 C71 1.232 . S
C71 O70 1.232 . S
C71 O72 1.218 . S
O72 C71 1.218 . S
C73 O66 1.275 . S
C73 O68 1.255 . S
C74 O75 1.258 . S
C74 O76 1.256 . S
O75 Cd67 2.381 . S
O75 C74 1.258 . S
O76 Cd67 2.378 . S
O76 C74 1.256 . S
O77 Cd78 2.300 . S
O77 C84 1.275 . S
Cd78 O77 2.300 . S
Cd78 O86 2.381 . S
Cd78 O87 2.378 . S
O79 Cd80 2.385 . S
O79 C84 1.255 . S
Cd80 O79 2.385 . S
Cd80 O81 2.317 . S
O81 Cd80 2.317 . S
O81 C82 1.232 . S
C82 O81 1.232 . S
C82 O83 1.218 . S
O83 C82 1.218 . S
C84 O77 1.275 . S
C84 O79 1.255 . S
C85 O86 1.258 . S
C85 O87 1.256 . S
O86 Cd78 2.381 . S
O86 C85 1.258 . S
O87 Cd78 2.378 . S
O87 C85 1.256 . S
C88 C89 1.391 . S
C88 C90 1.394 1_565 S
C88 H104 0.931 . S
C89 C88 1.391 . S
C89 C93 1.376 . S
C90 C88 1.394 1_545 S
C90 C91 1.369 . S
C90 C94 1.531 . S
C91 C90 1.369 . S
C91 C92 1.410 . S
C91 C99 1.503 . S
C92 C91 1.410 . S
C92 C93 1.392 1_545 S
C92 C95 1.511 . S
C93 C89 1.376 . S
C93 C92 1.392 1_565 S
C93 H105 0.929 . S
C94 C90 1.531 . S
C94 H106 0.960 . S
C94 H107 0.962 . S
C94 H108 0.960 . S
C95 C92 1.511 . S
C95 H109 0.972 . S
C95 H110 0.961 . S
C95 H111 0.961 . S
C96 C97 1.370 . S
C96 C98 1.363 . S
C96 H112 0.931 . S
C97 C96 1.370 . S
C97 C101 1.408 . S
C98 C96 1.363 . S
C98 C99 1.370 . S
C98 C102 1.524 1_545 S
C99 C91 1.503 . S
C99 C98 1.370 . S
C99 C100 1.403 . S
C100 C99 1.403 . S
C100 C101 1.404 . S
C100 C103 1.539 . S
C101 C97 1.408 . S
C101 C100 1.404 . S
C101 H113 0.930 . S
C102 C98 1.524 1_565 S
C102 H114 0.956 . S
C102 H115 0.961 . S
C102 H116 0.961 . S
C103 C100 1.539 . S
C103 H117 0.958 . S
C103 H118 0.961 . S
C103 H119 0.960 . S
H104 C88 0.931 . S
H105 C93 0.929 . S
H106 C94 0.960 . S
H107 C94 0.962 . S
H108 C94 0.960 . S
H109 C95 0.972 . S
H110 C95 0.961 . S
H111 C95 0.961 . S
H112 C96 0.931 . S
H113 C101 0.930 . S
H114 C102 0.956 . S
H115 C102 0.961 . S
H116 C102 0.961 . S
H117 C103 0.958 . S
H118 C103 0.961 . S
H119 C103 0.960 . S
C120 C121 1.391 . S
C120 C122 1.394 . S
C120 H136 0.931 . S
C121 C120 1.391 . S
C121 C125 1.376 . S
C122 C120 1.394 . S
C122 C123 1.369 . S
C122 C126 1.531 . S
C123 C122 1.369 . S
C123 C124 1.410 . S
C123 C131 1.503 . S
C124 C123 1.410 . S
C124 C125 1.392 . S
C124 C127 1.511 . S
C125 C121 1.376 . S
C125 C124 1.392 . S
C125 H137 0.929 . S
C126 C122 1.531 . S
C126 H138 0.960 . S
C126 H139 0.962 . S
C126 H140 0.960 . S
C127 C124 1.511 . S
C127 H141 0.961 . S
C127 H142 0.961 . S
C127 H143 0.961 . S
C128 C129 1.370 . S
C128 C130 1.363 . S
C128 H144 0.931 . S
C129 C128 1.370 . S
C129 C133 1.408 . S
C130 C128 1.363 . S
C130 C131 1.370 . S
C130 C134 1.524 . S
C131 C123 1.503 . S
C131 C130 1.370 . S
C131 C132 1.403 . S
C132 C131 1.403 . S
C132 C133 1.404 . S
C132 C135 1.539 . S
C133 C129 1.408 . S
C133 C132 1.404 . S
C133 H145 0.930 . S
C134 C130 1.524 . S
C134 H146 0.956 . S
C134 H147 0.961 . S
C134 H148 0.961 . S
C135 C132 1.539 . S
C135 H149 0.958 . S
C135 H150 0.961 . S
C135 H151 0.960 . S
H136 C120 0.931 . S
H137 C125 0.929 . S
H138 C126 0.960 . S
H139 C126 0.962 . S
H140 C126 0.960 . S
H141 C127 0.961 . S
H142 C127 0.961 . S
H143 C127 0.961 . S
H144 C128 0.931 . S
H145 C133 0.930 . S
H146 C134 0.956 . S
H147 C134 0.961 . S
H148 C134 0.961 . S
H149 C135 0.958 . S
H150 C135 0.961 . S
H151 C135 0.960 . S
C152 C153 1.391 . S
C152 C154 1.394 . S
C152 H168 0.931 . S
C153 C152 1.391 . S
C153 C157 1.376 . S
C154 C152 1.394 . S
C154 C155 1.369 . S
C154 C158 1.531 . S
C155 C154 1.369 . S
C155 C156 1.410 . S
C155 C163 1.503 . S
C156 C155 1.410 . S
C156 C157 1.392 . S
C156 C159 1.511 . S
C157 C153 1.376 . S
C157 C156 1.392 . S
C157 H169 0.929 . S
C158 C154 1.531 . S
C158 H170 0.960 1_565 S
C158 H171 0.962 . S
C158 H172 0.960 1_565 S
C159 C156 1.511 . S
C159 H173 0.961 . S
C159 H174 0.961 . S
C159 H175 0.961 . S
C160 C161 1.370 . S
C160 C162 1.363 1_545 S
C160 H176 0.931 . S
C161 C160 1.370 . S
C161 C165 1.408 . S
C162 C160 1.363 1_565 S
C162 C163 1.370 . S
C162 C166 1.524 . S
C163 C155 1.503 . S
C163 C162 1.370 . S
C163 C164 1.403 1_565 S
C164 C163 1.403 1_545 S
C164 C165 1.404 . S
C164 C167 1.539 . S
C165 C161 1.408 . S
C165 C164 1.404 . S
C165 H177 0.930 . S
C166 C162 1.524 . S
C166 H178 0.956 . S
C166 H179 0.961 . S
C166 H180 0.961 . S
C167 C164 1.539 . S
C167 H181 0.958 . S
C167 H182 0.961 . S
C167 H183 0.960 1_545 S
H168 C152 0.931 . S
H169 C157 0.929 . S
H170 C158 0.960 1_545 S
H171 C158 0.962 . S
H172 C158 0.960 1_545 S
H173 C159 0.961 . S
H174 C159 0.961 . S
H175 C159 0.961 . S
H176 C160 0.931 . S
H177 C165 0.930 . S
H178 C166 0.956 . S
H179 C166 0.961 . S
H180 C166 0.961 . S
H181 C167 0.958 . S
H182 C167 0.961 . S
H183 C167 0.960 1_565 S
C184 C185 1.391 . S
C184 C186 1.394 . S
C184 H200 0.931 . S
C185 C184 1.391 . S
C185 C189 1.376 . S
C186 C184 1.394 . S
C186 C187 1.369 . S
C186 C190 1.531 . S
C187 C186 1.369 . S
C187 C188 1.410 . S
C187 C195 1.503 . S
C188 C187 1.410 . S
C188 C189 1.392 . S
C188 C191 1.511 . S
C189 C185 1.376 . S
C189 C188 1.392 . S
C189 H201 0.929 . S
C190 C186 1.531 . S
C190 H202 0.960 . S
C190 H203 0.962 . S
C190 H204 0.960 . S
C191 C188 1.511 . S
C191 H205 0.961 . S
C191 H206 0.961 . S
C191 H207 0.961 . S
C192 C193 1.370 . S
C192 C194 1.360 1_556 S
C192 H208 0.931 . S
C193 C192 1.370 . S
C193 C197 1.408 . S
C194 C192 1.360 1_554 S
C194 C195 1.372 . S
C194 C198 1.526 . S
C195 C187 1.503 . S
C195 C194 1.372 . S
C195 C196 1.403 . S
C196 C195 1.403 . S
C196 C197 1.404 1_554 S
C196 C199 1.539 . S
C197 C193 1.408 . S
C197 C196 1.404 1_556 S
C197 H209 0.930 . S
C198 C194 1.526 . S
C198 H210 0.956 . S
C198 H211 0.961 . S
C198 H212 0.973 . S
C199 C196 1.539 . S
C199 H213 0.958 . S
C199 H214 0.961 . S
C199 H215 0.960 . S
H200 C184 0.931 . S
H201 C189 0.929 . S
H202 C190 0.960 . S
H203 C190 0.962 . S
H204 C190 0.960 . S
H205 C191 0.961 . S
H206 C191 0.961 . S
H207 C191 0.961 . S
H208 C192 0.931 . S
H209 C197 0.930 . S
H210 C198 0.956 . S
H211 C198 0.961 . S
H212 C198 0.973 . S
H213 C199 0.958 . S
H214 C199 0.961 . S
H215 C199 0.960 . S
C216 C217 1.391 1_655 S
C216 C218 1.394 1_655 S
C216 H232 0.931 . S
C217 C216 1.391 1_455 S
C217 C221 1.376 . S
C218 C216 1.394 1_455 S
C218 C219 1.369 . S
C218 C222 1.531 1_455 S
C219 C218 1.369 . S
C219 C220 1.410 . S
C219 C227 1.503 . S
C220 C219 1.410 . S
C220 C221 1.392 . S
C220 C223 1.511 . S
C221 C217 1.376 . S
C221 C220 1.392 . S
C221 H233 0.929 . S
C222 C218 1.531 1_655 S
C222 H234 0.960 1_655 S
C222 H235 0.962 . S
C222 H236 0.960 . S
C223 C220 1.511 . S
C223 H237 0.961 . S
C223 H238 0.961 . S
C223 H239 0.961 . S
C224 C225 1.370 . S
C224 C226 1.363 . S
C224 H240 0.931 . S
C225 C224 1.370 . S
C225 C229 1.408 . S
C226 C224 1.363 . S
C226 C227 1.370 . S
C226 C230 1.524 . S
C227 C219 1.503 . S
C227 C226 1.370 . S
C227 C228 1.403 . S
C228 C227 1.403 . S
C228 C229 1.404 . S
C228 C231 1.539 . S
C229 C225 1.408 . S
C229 C228 1.404 . S
C229 H241 0.930 . S
C230 C226 1.524 . S
C230 H242 0.956 . S
C230 H243 0.961 . S
C230 H244 0.961 . S
C231 C228 1.539 . S
C231 H245 0.958 . S
C231 H246 0.961 . S
C231 H247 0.960 . S
H232 C216 0.931 . S
H233 C221 0.929 . S
H234 C222 0.960 1_455 S
H235 C222 0.962 . S
H236 C222 0.960 . S
H237 C223 0.961 . S
H238 C223 0.961 . S
H239 C223 0.961 . S
H240 C224 0.931 . S
H241 C229 0.930 . S
H242 C230 0.956 . S
H243 C230 0.961 . S
H244 C230 0.961 . S
H245 C231 0.958 . S
H246 C231 0.961 . S
H247 C231 0.960 . S
C248 C249 1.391 . S
C248 C250 1.394 . S
C248 H264 0.931 . S
C249 C248 1.391 . S
C249 C253 1.376 . S
C250 C248 1.394 . S
C250 C251 1.369 . S
C250 C254 1.531 . S
C251 C250 1.369 . S
C251 C252 1.410 . S
C251 C259 1.503 . S
C252 C251 1.410 . S
C252 C253 1.392 . S
C252 C255 1.511 . S
C253 C249 1.376 . S
C253 C252 1.392 . S
C253 H265 0.929 . S
C254 C250 1.531 . S
C254 H266 0.960 . S
C254 H267 0.962 . S
C254 H268 0.960 . S
C255 C252 1.511 . S
C255 H269 0.961 . S
C255 H270 0.961 . S
C255 H271 0.961 . S
C256 C257 1.370 . S
C256 C258 1.363 . S
C256 H272 0.931 . S
C257 C256 1.370 . S
C257 C261 1.408 . S
C258 C256 1.363 . S
C258 C259 1.370 . S
C258 C262 1.524 . S
C259 C251 1.503 . S
C259 C258 1.370 . S
C259 C260 1.403 . S
C260 C259 1.403 . S
C260 C261 1.404 . S
C260 C263 1.539 . S
C261 C257 1.408 . S
C261 C260 1.404 . S
C261 H273 0.930 . S
C262 C258 1.524 . S
C262 H274 0.956 . S
C262 H275 0.961 . S
C262 H276 0.961 . S
C263 C260 1.539 . S
C263 H277 0.958 . S
C263 H278 0.961 . S
C263 H279 0.960 . S
H264 C248 0.931 . S
H265 C253 0.929 . S
H266 C254 0.960 . S
H267 C254 0.962 . S
H268 C254 0.960 . S
H269 C255 0.961 . S
H270 C255 0.961 . S
H271 C255 0.961 . S
H272 C256 0.931 . S
H273 C261 0.930 . S
H274 C262 0.956 . S
H275 C262 0.961 . S
H276 C262 0.961 . S
H277 C263 0.958 . S
H278 C263 0.961 . S
H279 C263 0.960 . S
C280 C281 1.391 . S
C280 C282 1.394 1_455 S
C280 H296 0.931 . S
C281 C280 1.391 . S
C281 C285 1.376 1_455 S
C282 C280 1.394 1_655 S
C282 C283 1.369 . S
C282 C286 1.531 . S
C283 C282 1.369 . S
C283 C284 1.410 . S
C283 C291 1.503 . S
C284 C283 1.410 . S
C284 C285 1.392 . S
C284 C287 1.511 . S
C285 C281 1.376 1_655 S
C285 C284 1.392 . S
C285 H297 0.929 . S
C286 C282 1.531 . S
C286 H298 0.960 . S
C286 H299 0.962 1_655 S
C286 H300 0.960 1_655 S
C287 C284 1.511 . S
C287 H301 0.961 . S
C287 H302 0.961 . S
C287 H303 0.961 . S
C288 C289 1.370 . S
C288 C290 1.363 . S
C288 H304 0.931 . S
C289 C288 1.370 . S
C289 C293 1.408 . S
C290 C288 1.363 . S
C290 C291 1.370 . S
C290 C294 1.524 . S
C291 C283 1.503 . S
C291 C290 1.370 . S
C291 C292 1.403 . S
C292 C291 1.403 . S
C292 C293 1.404 . S
C292 C295 1.539 . S
C293 C289 1.408 . S
C293 C292 1.404 . S
C293 H305 0.930 . S
C294 C290 1.524 . S
C294 H306 0.956 1_655 S
C294 H307 0.961 . S
C294 H308 0.961 . S
C295 C292 1.539 . S
C295 H309 0.958 . S
C295 H310 0.961 . S
C295 H311 0.960 . S
H296 C280 0.931 . S
H297 C285 0.929 . S
H298 C286 0.960 . S
H299 C286 0.962 1_455 S
H300 C286 0.960 1_455 S
H301 C287 0.961 . S
H302 C287 0.961 . S
H303 C287 0.961 . S
H304 C288 0.931 . S
H305 C293 0.930 . S
H306 C294 0.956 1_455 S
H307 C294 0.961 . S
H308 C294 0.961 . S
H309 C295 0.958 . S
H310 C295 0.961 . S
H311 C295 0.960 . S
C312 C313 1.391 . S
C312 C314 1.394 . S
C312 H328 0.931 . S
C313 C312 1.391 . S
C313 C317 1.376 . S
C314 C312 1.394 . S
C314 C315 1.369 . S
C314 C318 1.531 . S
C315 C314 1.369 . S
C315 C316 1.410 . S
C315 C323 1.503 . S
C316 C315 1.410 . S
C316 C317 1.392 . S
C316 C319 1.511 . S
C317 C313 1.376 . S
C317 C316 1.392 . S
C317 H329 0.929 . S
C318 C314 1.531 . S
C318 H330 0.960 . S
C318 H331 0.962 . S
C318 H332 0.960 . S
C319 C316 1.511 . S
C319 H333 0.961 . S
C319 H334 0.961 . S
C319 H335 0.961 . S
C320 C321 1.370 . S
C320 C322 1.363 . S
C320 H336 0.931 . S
C321 C320 1.370 . S
C321 C325 1.408 . S
C322 C320 1.363 . S
C322 C323 1.370 . S
C322 C326 1.524 . S
C323 C315 1.503 . S
C323 C322 1.370 . S
C323 C324 1.403 . S
C324 C323 1.403 . S
C324 C325 1.404 . S
C324 C327 1.539 . S
C325 C321 1.408 . S
C325 C324 1.404 . S
C325 H337 0.930 . S
C326 C322 1.524 . S
C326 H338 0.956 . S
C326 H339 0.961 . S
C326 H340 0.961 . S
C327 C324 1.539 . S
C327 H341 0.958 . S
C327 H342 0.961 . S
C327 H343 0.960 . S
H328 C312 0.931 . S
H329 C317 0.929 . S
H330 C318 0.960 . S
H331 C318 0.962 . S
H332 C318 0.960 . S
H333 C319 0.961 . S
H334 C319 0.961 . S
H335 C319 0.961 . S
H336 C320 0.931 . S
H337 C325 0.930 . S
H338 C326 0.956 . S
H339 C326 0.961 . S
H340 C326 0.961 . S
H341 C327 0.958 . S
H342 C327 0.961 . S
H343 C327 0.960 . S
C344 C345 1.391 . S
C344 C346 1.394 . S
C344 H360 0.931 . S
C345 C344 1.391 . S
C345 C349 1.376 . S
C346 C344 1.394 . S
C346 C347 1.369 . S
C346 C350 1.531 . S
C347 C346 1.369 . S
C347 C348 1.410 . S
C347 C355 1.503 . S
C348 C347 1.410 . S
C348 C349 1.392 . S
C348 C351 1.511 . S
C349 C345 1.376 . S
C349 C348 1.392 . S
C349 H361 0.929 . S
C350 C346 1.531 . S
C350 H362 0.960 . S
C350 H363 0.962 . S
C350 H364 0.960 . S
C351 C348 1.511 . S
C351 H365 0.961 . S
C351 H366 0.961 . S
C351 H367 0.961 . S
C352 C353 1.370 . S
C352 C354 1.363 . S
C352 H368 0.931 . S
C353 C352 1.370 . S
C353 C357 1.408 . S
C354 C352 1.363 . S
C354 C355 1.370 . S
C354 C358 1.524 . S
C355 C347 1.503 . S
C355 C354 1.370 . S
C355 C356 1.403 . S
C356 C355 1.403 . S
C356 C357 1.404 . S
C356 C359 1.539 . S
C357 C353 1.408 . S
C357 C356 1.404 . S
C357 H369 0.930 . S
C358 C354 1.524 . S
C358 H370 0.956 . S
C358 H371 0.961 . S
C358 H372 0.961 . S
C359 C356 1.539 . S
C359 H373 0.958 . S
C359 H374 0.961 . S
C359 H375 0.960 . S
H360 C344 0.931 . S
H361 C349 0.929 . S
H362 C350 0.960 . S
H363 C350 0.962 . S
H364 C350 0.960 . S
H365 C351 0.961 . S
H366 C351 0.961 . S
H367 C351 0.961 . S
H368 C352 0.931 . S
H369 C357 0.930 . S
H370 C358 0.956 . S
H371 C358 0.961 . S
H372 C358 0.961 . S
H373 C359 0.958 . S
H374 C359 0.961 . S
H375 C359 0.960 . S
C376 C377 1.391 1_556 S
C376 C378 1.394 . S
C376 H392 0.931 . S
C377 C376 1.391 1_554 S
C377 C381 1.376 . S
C378 C376 1.394 . S
C378 C379 1.369 . S
C378 C382 1.531 . S
C379 C378 1.369 . S
C379 C380 1.410 1_556 S
C379 C387 1.503 . S
C380 C379 1.410 1_554 S
C380 C381 1.392 . S
C380 C383 1.511 . S
C381 C377 1.376 . S
C381 C380 1.392 . S
C381 H393 0.929 . S
C382 C378 1.531 . S
C382 H394 0.960 . S
C382 H395 0.962 . S
C382 H396 0.960 . S
C383 C380 1.511 . S
C383 H397 0.961 . S
C383 H398 0.961 . S
C383 H399 0.961 . S
C384 C385 1.370 . S
C384 C386 1.363 . S
C384 H400 0.931 . S
C385 C384 1.370 . S
C385 C389 1.408 . S
C386 C384 1.363 . S
C386 C387 1.370 . S
C386 C390 1.524 . S
C387 C379 1.503 . S
C387 C386 1.370 . S
C387 C388 1.403 . S
C388 C387 1.403 . S
C388 C389 1.404 . S
C388 C391 1.539 . S
C389 C385 1.408 . S
C389 C388 1.404 . S
C389 H401 0.930 . S
C390 C386 1.524 . S
C390 H402 0.956 . S
C390 H403 0.935 1_556 S
C390 H404 0.961 . S
C391 C388 1.539 . S
C391 H405 0.958 . S
C391 H406 0.961 . S
C391 H407 0.960 . S
H392 C376 0.931 . S
H393 C381 0.929 . S
H394 C382 0.960 . S
H395 C382 0.962 . S
H396 C382 0.960 . S
H397 C383 0.961 . S
H398 C383 0.961 . S
H399 C383 0.961 . S
H400 C384 0.931 . S
H401 C389 0.930 . S
H402 C390 0.956 . S
H403 C390 0.935 1_554 S
H404 C390 0.961 . S
H405 C391 0.958 . S
H406 C391 0.961 . S
H407 C391 0.960 . S
C408 C409 1.391 . S
C408 C410 1.394 . S
C408 H424 0.931 . S
C409 C408 1.391 . S
C409 C413 1.376 . S
C410 C408 1.394 . S
C410 C411 1.369 . S
C410 C414 1.531 . S
C411 C410 1.369 . S
C411 C412 1.410 . S
C411 C419 1.503 . S
C412 C411 1.410 . S
C412 C413 1.392 . S
C412 C415 1.511 . S
C413 C409 1.376 . S
C413 C412 1.392 . S
C413 H425 0.929 . S
C414 C410 1.531 . S
C414 H426 0.960 . S
C414 H427 0.962 . S
C414 H428 0.960 . S
C415 C412 1.511 . S
C415 H429 0.961 . S
C415 H430 0.961 . S
C415 H431 0.961 . S
C416 C417 1.370 . S
C416 C418 1.363 . S
C416 H432 0.931 . S
C417 C416 1.370 . S
C417 C421 1.408 . S
C418 C416 1.363 . S
C418 C419 1.370 . S
C418 C422 1.524 . S
C419 C411 1.503 . S
C419 C418 1.370 . S
C419 C420 1.403 . S
C420 C419 1.403 . S
C420 C421 1.404 . S
C420 C423 1.539 . S
C421 C417 1.408 . S
C421 C420 1.404 . S
C421 H433 0.930 . S
C422 C418 1.524 . S
C422 H434 0.956 . S
C422 H435 0.961 . S
C422 H436 0.961 . S
C423 C420 1.539 . S
C423 H437 0.958 . S
C423 H438 0.961 . S
C423 H439 0.960 . S
H424 C408 0.931 . S
H425 C413 0.929 . S
H426 C414 0.960 . S
H427 C414 0.962 . S
H428 C414 0.960 . S
H429 C415 0.961 . S
H430 C415 0.961 . S
H431 C415 0.961 . S
H432 C416 0.931 . S
H433 C421 0.930 . S
H434 C422 0.956 . S
H435 C422 0.961 . S
H436 C422 0.961 . S
H437 C423 0.958 . S
H438 C423 0.961 . S
H439 C423 0.960 . S
C440 C441 1.391 . S
C440 C442 1.394 . S
C440 H456 0.931 . S
C441 C440 1.391 . S
C441 C445 1.376 . S
C442 C440 1.394 . S
C442 C443 1.369 . S
C442 C446 1.531 . S
C443 C442 1.369 . S
C443 C444 1.410 . S
C443 C451 1.503 . S
C444 C443 1.410 . S
C444 C445 1.392 . S
C444 C447 1.511 . S
C445 C441 1.376 . S
C445 C444 1.392 . S
C445 H457 0.929 . S
C446 C442 1.531 . S
C446 H458 0.960 . S
C446 H459 0.962 . S
C446 H460 0.960 . S
C447 C444 1.511 . S
C447 H461 0.961 . S
C447 H462 0.961 . S
C447 H463 0.961 . S
C448 C449 1.370 . S
C448 C450 1.363 . S
C448 H464 0.931 . S
C449 C448 1.370 . S
C449 C453 1.408 . S
C450 C448 1.363 . S
C450 C451 1.370 . S
C450 C454 1.524 . S
C451 C443 1.503 . S
C451 C450 1.370 . S
C451 C452 1.403 . S
C452 C451 1.403 . S
C452 C453 1.404 . S
C452 C455 1.539 . S
C453 C449 1.408 . S
C453 C452 1.404 . S
C453 H465 0.930 . S
C454 C450 1.524 . S
C454 H466 0.956 . S
C454 H467 0.961 . S
C454 H468 0.961 . S
C455 C452 1.539 . S
C455 H469 0.958 . S
C455 H470 0.961 . S
C455 H471 0.960 . S
H456 C440 0.931 . S
H457 C445 0.929 . S
H458 C446 0.960 . S
H459 C446 0.962 . S
H460 C446 0.960 . S
H461 C447 0.961 . S
H462 C447 0.961 . S
H463 C447 0.961 . S
H464 C448 0.931 . S
H465 C453 0.930 . S
H466 C454 0.956 . S
H467 C454 0.961 . S
H468 C454 0.961 . S
H469 C455 0.958 . S
H470 C455 0.961 . S
H471 C455 0.960 . S
C89 C19 1.565 . S
C97 C8 1.587 . S
C121 C18 1.524 . S
C129 C27 1.244 . S
C153 C29 1.489 . S
C161 C41 1.520 . S
C185 C7 1.531 . S
C193 C38 1.285 . S
C217 C63 1.574 1_455 S
C225 C5 1.412 . S
C249 C40 1.504 . S
C257 C49 1.277 . S
C281 C16 1.331 . S
C289 C73 1.509 . S
C313 C82 1.427 . S
C321 C30 1.552 . S
C345 C85 1.581 . S
C353 C52 1.550 . S
C377 C60 1.236 . S
C385 C51 1.501 . S
C409 C62 1.434 . S
C417 C74 1.509 . S
C441 C71 1.267 . S
C449 C84 1.521 . S
