# Generated by pormake.
# Topology snl, (6)-cn, num edge types: 1
# Building blocks:
#     Node 0, Type 0, BuildingBlock: UKALOJ_clean_sbu_0, # of connection points: 6
#     Node 1, Type 0, BuildingBlock: UKALOJ_clean_sbu_0, # of connection points: 6
#     Node 2, Type 0, BuildingBlock: UKALOJ_clean_sbu_0, # of connection points: 6
#     Node 3, Type 0, BuildingBlock: UKALOJ_clean_sbu_0, # of connection points: 6
#     Node 4, Type 0, BuildingBlock: UKALOJ_clean_sbu_0, # of connection points: 6
#     Node 5, Type 0, BuildingBlock: UKALOJ_clean_sbu_0, # of connection points: 6
#     Node 6, Type 0, BuildingBlock: UKALOJ_clean_sbu_0, # of connection points: 6
#     Node 7, Type 0, BuildingBlock: UKALOJ_clean_sbu_0, # of connection points: 6
#     Node 8, Type 0, BuildingBlock: UKALOJ_clean_sbu_0, # of connection points: 6
#     Node 9, Type 0, BuildingBlock: UKALOJ_clean_sbu_0, # of connection points: 6
#     Node 10, Type 0, BuildingBlock: UKALOJ_clean_sbu_0, # of connection points: 6
#     Node 11, Type 0, BuildingBlock: UKALOJ_clean_sbu_0, # of connection points: 6
#     Node 12, Type 0, BuildingBlock: UKALOJ_clean_sbu_0, # of connection points: 6
#     Node 13, Type 0, BuildingBlock: UKALOJ_clean_sbu_0, # of connection points: 6
#     Node 14, Type 0, BuildingBlock: UKALOJ_clean_sbu_0, # of connection points: 6
#     Node 15, Type 0, BuildingBlock: UKALOJ_clean_sbu_0, # of connection points: 6
#     Edge 16, Type (0, 0), BuildingBlock: OJICUG_clean_linker_0, # of connection points: 2
#     Edge 17, Type (0, 0), BuildingBlock: OJICUG_clean_linker_0, # of connection points: 2
#     Edge 18, Type (0, 0), BuildingBlock: OJICUG_clean_linker_0, # of connection points: 2
#     Edge 19, Type (0, 0), BuildingBlock: OJICUG_clean_linker_0, # of connection points: 2
#     Edge 20, Type (0, 0), BuildingBlock: OJICUG_clean_linker_0, # of connection points: 2
#     Edge 21, Type (0, 0), BuildingBlock: OJICUG_clean_linker_0, # of connection points: 2
#     Edge 22, Type (0, 0), BuildingBlock: OJICUG_clean_linker_0, # of connection points: 2
#     Edge 23, Type (0, 0), BuildingBlock: OJICUG_clean_linker_0, # of connection points: 2
#     Edge 24, Type (0, 0), BuildingBlock: OJICUG_clean_linker_0, # of connection points: 2
#     Edge 25, Type (0, 0), BuildingBlock: OJICUG_clean_linker_0, # of connection points: 2
#     Edge 26, Type (0, 0), BuildingBlock: OJICUG_clean_linker_0, # of connection points: 2
#     Edge 27, Type (0, 0), BuildingBlock: OJICUG_clean_linker_0, # of connection points: 2
#     Edge 28, Type (0, 0), BuildingBlock: OJICUG_clean_linker_0, # of connection points: 2
#     Edge 29, Type (0, 0), BuildingBlock: OJICUG_clean_linker_0, # of connection points: 2
#     Edge 30, Type (0, 0), BuildingBlock: OJICUG_clean_linker_0, # of connection points: 2
#     Edge 31, Type (0, 0), BuildingBlock: OJICUG_clean_linker_0, # of connection points: 2
#     Edge 32, Type (0, 0), BuildingBlock: OJICUG_clean_linker_0, # of connection points: 2
#     Edge 33, Type (0, 0), BuildingBlock: OJICUG_clean_linker_0, # of connection points: 2
#     Edge 34, Type (0, 0), BuildingBlock: OJICUG_clean_linker_0, # of connection points: 2
#     Edge 35, Type (0, 0), BuildingBlock: OJICUG_clean_linker_0, # of connection points: 2
#     Edge 36, Type (0, 0), BuildingBlock: OJICUG_clean_linker_0, # of connection points: 2
#     Edge 37, Type (0, 0), BuildingBlock: OJICUG_clean_linker_0, # of connection points: 2
#     Edge 38, Type (0, 0), BuildingBlock: OJICUG_clean_linker_0, # of connection points: 2
#     Edge 39, Type (0, 0), BuildingBlock: OJICUG_clean_linker_0, # of connection points: 2
#     Edge 40, Type (0, 0), BuildingBlock: OJICUG_clean_linker_0, # of connection points: 2
#     Edge 41, Type (0, 0), BuildingBlock: OJICUG_clean_linker_0, # of connection points: 2
#     Edge 42, Type (0, 0), BuildingBlock: OJICUG_clean_linker_0, # of connection points: 2
#     Edge 43, Type (0, 0), BuildingBlock: OJICUG_clean_linker_0, # of connection points: 2
#     Edge 44, Type (0, 0), BuildingBlock: OJICUG_clean_linker_0, # of connection points: 2
#     Edge 45, Type (0, 0), BuildingBlock: OJICUG_clean_linker_0, # of connection points: 2
#     Edge 46, Type (0, 0), BuildingBlock: OJICUG_clean_linker_0, # of connection points: 2
#     Edge 47, Type (0, 0), BuildingBlock: OJICUG_clean_linker_0, # of connection points: 2
#     Edge 48, Type (0, 0), BuildingBlock: OJICUG_clean_linker_0, # of connection points: 2
#     Edge 49, Type (0, 0), BuildingBlock: OJICUG_clean_linker_0, # of connection points: 2
#     Edge 50, Type (0, 0), BuildingBlock: OJICUG_clean_linker_0, # of connection points: 2
#     Edge 51, Type (0, 0), BuildingBlock: OJICUG_clean_linker_0, # of connection points: 2
#     Edge 52, Type (0, 0), BuildingBlock: OJICUG_clean_linker_0, # of connection points: 2
#     Edge 53, Type (0, 0), BuildingBlock: OJICUG_clean_linker_0, # of connection points: 2
#     Edge 54, Type (0, 0), BuildingBlock: OJICUG_clean_linker_0, # of connection points: 2
#     Edge 55, Type (0, 0), BuildingBlock: OJICUG_clean_linker_0, # of connection points: 2
#     Edge 56, Type (0, 0), BuildingBlock: OJICUG_clean_linker_0, # of connection points: 2
#     Edge 57, Type (0, 0), BuildingBlock: OJICUG_clean_linker_0, # of connection points: 2
#     Edge 58, Type (0, 0), BuildingBlock: OJICUG_clean_linker_0, # of connection points: 2
#     Edge 59, Type (0, 0), BuildingBlock: OJICUG_clean_linker_0, # of connection points: 2
#     Edge 60, Type (0, 0), BuildingBlock: OJICUG_clean_linker_0, # of connection points: 2
#     Edge 61, Type (0, 0), BuildingBlock: OJICUG_clean_linker_0, # of connection points: 2
#     Edge 62, Type (0, 0), BuildingBlock: OJICUG_clean_linker_0, # of connection points: 2
#     Edge 63, Type (0, 0), BuildingBlock: OJICUG_clean_linker_0, # of connection points: 2
# Relax obj value: 0.099
# Max RMSD: 0.115
# Mean RMSD: 0.102
data_MOF--net-snl--node1-UKALOJ_clean_sbu_0--edge1-OJICUG_clean_linker_0
_symmetry_space_group_name_H-M    P1
_symmetry_Int_Tables_number       1
_symmetry_cell_setting            triclinic
loop_
_symmetry_equiv_pos_as_xyz
'x, y, z'
_cell_length_a     55.902794
_cell_length_b     50.46596
_cell_length_c     11.301138
_cell_angle_alpha  88.143461
_cell_angle_beta   89.409967
_cell_angle_gamma 90.43001
loop_
_atom_site_label
_atom_site_type_symbol
_atom_site_fract_x
_atom_site_fract_y
_atom_site_fract_z
_atom_type_partial_charge
Zn0 Zn 0.13119 0.66736 0.0161 0.0
O1 O 0.13235 0.66798 0.82823 0.0
C2 C 0.14303 0.60912 0.01739 0.0
Zn3 Zn 0.17011 0.66113 0.01125 0.0
C4 C 0.15162 0.665 0.76949 0.0
O5 O 0.1712 0.66186 0.82443 0.0
C6 C 0.14932 0.66303 0.25821 0.0
O7 O 0.17605 0.70353 0.00722 0.0
O8 O 0.13743 0.70947 0.01379 0.0
N9 N 0.20578 0.65525 0.02017 0.0
C10 C 0.22164 0.66528 0.09606 0.0
C11 C 0.23851 0.6332 0.01114 0.0
N12 N 0.21638 0.63557 0.96604 0.0
N13 N 0.24226 0.65171 0.09247 0.0
C14 C 0.0768 0.66203 0.96986 0.0
C15 C 0.06361 0.69548 0.0602 0.0
N16 N 0.09572 0.67453 0.01599 0.0
N17 N 0.0875 0.6953 0.07189 0.0
N18 N 0.05643 0.67477 -0.00309 0.0
H19 H 0.09593 0.63785 0.84689 0.0
H20 H 0.06385 0.63835 0.82813 0.0
H21 H 0.07677 0.62007 0.95072 0.0
C22 C 0.07847 0.63831 0.89381 0.0
C23 C 0.21648 0.6866 0.18282 0.0
H24 H 0.19789 0.69348 0.18161 0.0
H25 H 0.22808 0.70404 0.1614 0.0
H26 H 0.22075 0.6794 0.27394 0.0
O27 O 0.16842 0.65959 0.19949 0.0
O28 O 0.12999 0.66692 0.2029 0.0
C29 C 0.15846 0.71927 0.01094 0.0
O30 O 0.12541 0.62499 0.02037 0.0
O31 O 0.16413 0.61881 0.01276 0.0
Zn32 Zn 0.62551 0.91269 0.1793 0.0
O33 O 0.58703 0.9081 0.18342 0.0
C34 C 0.62886 0.88936 0.4282 0.0
Zn35 Zn 0.62918 0.86913 0.18808 0.0
C36 C 0.57682 0.88546 0.18921 0.0
O37 O 0.59001 0.86494 0.19301 0.0
C38 C 0.67767 0.8969 0.17118 0.0
O39 O 0.62843 0.87063 0.00076 0.0
O40 O 0.62453 0.91401 -0.008 0.0
N41 N 0.63216 0.82927 0.19275 0.0
C42 C 0.64847 0.81259 0.14881 0.0
C43 C 0.62354 0.78936 0.25287 0.0
N44 N 0.6167 0.8148 0.25722 0.0
N45 N 0.64353 0.78761 0.18651 0.0
C46 C 0.61132 0.96646 0.27615 0.0
C47 C 0.63682 0.99257 0.19252 0.0
N48 N 0.62245 0.95287 0.19075 0.0
N49 N 0.63802 0.96929 0.1376 0.0
N50 N 0.62027 0.99132 0.2803 0.0
H51 H 0.59018 0.93355 0.35498 0.0
H52 H 0.57574 0.96479 0.3478 0.0
H53 H 0.59863 0.95884 0.455 0.0
C54 C 0.59316 0.95496 0.3631 0.0
C55 C 0.66896 0.82049 0.06873 0.0
H56 H 0.66518 0.83923 0.01893 0.0
H57 H 0.67274 0.8046 0.00568 0.0
H58 H 0.68515 0.82322 0.12304 0.0
O59 O 0.66818 0.87388 0.18169 0.0
O60 O 0.66392 0.91691 0.16964 0.0
C61 C 0.62647 0.89213 0.93964 0.0
O62 O 0.62745 0.91072 0.36689 0.0
O63 O 0.62983 0.8676 0.37553 0.0
Zn64 Zn 0.35037 0.40685 0.73541 0.0
O65 O 0.34893 0.36417 0.75581 0.0
C66 C 0.37144 0.41029 0.98006 0.0
Zn67 Zn 0.38982 0.40662 0.73753 0.0
C68 C 0.369 0.35281 0.76984 0.0
O69 O 0.38815 0.36633 0.76318 0.0
C70 C 0.37271 0.46081 0.70628 0.0
O71 O 0.38797 0.40243 0.55063 0.0
O72 O 0.34891 0.40425 0.54903 0.0
N73 N 0.42597 0.40443 0.72774 0.0
C74 C 0.44194 0.41615 0.65219 0.0
C75 C 0.46093 0.3885 0.76182 0.0
N76 N 0.43781 0.38738 0.79608 0.0
N77 N 0.46404 0.40639 0.67168 0.0
C78 C 0.29755 0.39869 0.81368 0.0
C79 C 0.28061 0.42868 0.70749 0.0
N80 N 0.31442 0.40995 0.74215 0.0
N81 N 0.30385 0.42844 0.67584 0.0
N82 N 0.27622 0.41023 0.79382 0.0
H83 H 0.32129 0.37593 0.92832 0.0
H84 H 0.29623 0.35813 0.87384 0.0
H85 H 0.29175 0.38146 -0.01133 0.0
C86 C 0.30213 0.37754 0.90694 0.0
C87 C 0.43572 0.43624 0.55643 0.0
H88 H 0.41649 0.43676 0.53723 0.0
H89 H 0.44573 0.43228 0.47364 0.0
H90 H 0.44066 0.45629 0.58572 0.0
O91 O 0.39157 0.44722 0.7152 0.0
O92 O 0.35248 0.44919 0.71372 0.0
C93 C 0.36862 0.40292 0.49284 0.0
O94 O 0.35204 0.40989 0.92257 0.0
O95 O 0.39123 0.41003 0.92367 0.0
Zn96 Zn 0.84886 0.14526 0.93831 0.0
O97 O 0.84922 0.18859 0.93286 0.0
C98 C 0.86894 0.14435 0.69443 0.0
Zn99 Zn 0.88987 0.144 0.93837 0.0
C100 C 0.86969 0.20013 0.93287 0.0
O101 O 0.88847 0.18603 0.93327 0.0
C102 C 0.87045 0.08907 0.95057 0.0
O103 O 0.88966 0.14419 0.12534 0.0
O104 O 0.85021 0.14548 0.12589 0.0
N105 N 0.92752 0.14661 0.92813 0.0
C106 C 0.94626 0.13251 0.97164 0.0
C107 C 0.96086 0.16465 0.86725 0.0
N108 N 0.93686 0.16652 0.86352 0.0
N109 N 0.96753 0.14344 0.93431 0.0
C110 C 0.79237 0.15452 0.88303 0.0
C111 C 0.77708 0.12482 -0.00127 0.0
N112 N 0.81077 0.14298 0.94328 0.0
N113 N 0.80092 0.12468 0.01526 0.0
N114 N 0.77094 0.14336 0.9161 0.0
H115 H 0.81463 0.1777 0.76079 0.0
H116 H 0.78954 0.19481 0.82215 0.0
H117 H 0.78446 0.17097 0.71049 0.0
C118 C 0.7956 0.1756 0.788 0.0
C119 C 0.94343 0.10908 0.05533 0.0
H120 H 0.92617 0.11 0.10427 0.0
H121 H 0.95841 0.10823 0.11895 0.0
H122 H 0.94345 0.09071 0.00407 0.0
O123 O 0.89013 0.102 0.94561 0.0
O124 O 0.85075 0.10181 0.94728 0.0
C125 C 0.86986 0.14485 0.18222 0.0
O126 O 0.84919 0.14484 0.75136 0.0
O127 O 0.88854 0.14391 0.75085 0.0
Zn128 Zn 0.13705 0.36628 0.00983 0.0
O129 O 0.13558 0.3655 0.82259 0.0
C130 C 0.1827 0.39549 -0.011 0.0
Zn131 Zn 0.13151 0.4108 0.00524 0.0
C132 C 0.13293 0.38723 0.76379 0.0
O133 O 0.1306 0.40874 0.81848 0.0
C134 C 0.13558 0.38994 0.2513 0.0
O135 O 0.09399 0.40434 0.01449 0.0
O136 O 0.09996 0.36134 0.02038 0.0
N137 N 0.12585 0.45174 -0.01025 0.0
C138 C 0.13742 0.47369 0.02609 0.0
C139 C 0.1066 0.4868 0.93267 0.0
N140 N 0.10676 0.46012 0.93168 0.0
N141 N 0.12568 0.49608 -0.009 0.0
C142 C 0.15107 0.30606 0.96289 0.0
C143 C 0.13236 0.28674 0.1068 0.0
N144 N 0.14066 0.32523 0.02655 0.0
N145 N 0.12922 0.313 0.1161 0.0
N146 N 0.14609 0.28171 0.01171 0.0
H147 H 0.1721 0.33146 0.84495 0.0
H148 H 0.15188 0.30904 0.77439 0.0
H149 H 0.1789 0.29641 0.83878 0.0
C150 C 0.16444 0.31111 0.84899 0.0
C151 C 0.15935 0.47289 0.10089 0.0
H152 H 0.16042 0.45375 0.15149 0.0
H153 H 0.15939 0.48949 0.1629 0.0
H154 H 0.1754 0.47484 0.04258 0.0
O155 O 0.13252 0.41159 0.1925 0.0
O156 O 0.13828 0.3685 0.19661 0.0
C157 C 0.08569 0.38079 0.02033 0.0
O158 O 0.17392 0.37217 -0.00231 0.0
O159 O 0.16899 0.41552 -0.00672 0.0
Zn160 Zn 0.85578 0.91617 0.02827 0.0
O161 O 0.85887 0.87306 0.03564 0.0
C162 C 0.87551 0.91877 0.26998 0.0
Zn163 Zn 0.89658 0.92 0.0239 0.0
C164 C 0.87974 0.86273 0.03591 0.0
O165 O 0.89812 0.87791 0.03305 0.0
C166 C 0.87345 0.97358 0.01106 0.0
O167 O 0.89669 0.91948 0.83679 0.0
O168 O 0.85738 0.91572 0.84079 0.0
N169 N 0.93417 0.92384 0.03016 0.0
C170 C 0.95313 0.90994 -0.01002 0.0
C171 C 0.96722 0.94242 0.08309 0.0
N172 N 0.94318 0.94399 0.08767 0.0
N173 N 0.97423 0.92117 0.02257 0.0
C174 C 0.79969 0.90346 0.08692 0.0
C175 C 0.78398 0.93057 0.96291 0.0
N176 N 0.81794 0.91525 0.02377 0.0
N177 N 0.80786 0.93189 0.94666 0.0
N178 N 0.77811 0.91289 0.0506 0.0
H179 H 0.79759 0.86395 0.1596 0.0
H180 H 0.79176 0.88922 0.26406 0.0
H181 H 0.82217 0.883 0.21391 0.0
C182 C 0.80316 0.88392 0.18752 0.0
C183 C 0.95071 0.88642 0.91358 0.0
H184 H 0.93344 0.88688 0.86626 0.0
H185 H 0.95112 0.86808 0.97019 0.0
H186 H 0.9657 0.88589 0.84858 0.0
O187 O 0.89368 0.96216 0.01341 0.0
O188 O 0.85449 0.95934 0.01789 0.0
C189 C 0.87695 0.91752 0.78216 0.0
O190 O 0.85579 0.91693 0.21534 0.0
O191 O 0.89506 0.92046 0.21129 0.0
Zn192 Zn 0.37662 0.62888 0.5548 0.0
O193 O 0.38627 0.66942 0.52756 0.0
C194 C 0.39518 0.61983 0.31017 0.0
Zn195 Zn 0.41524 0.62065 0.55289 0.0
C196 C 0.40773 0.67706 0.51055 0.0
O197 O 0.42455 0.66044 0.51911 0.0
C198 C 0.38433 0.5723 0.59294 0.0
O199 O 0.41629 0.62479 0.73976 0.0
O200 O 0.37764 0.63262 0.74101 0.0
N201 N 0.44949 0.60859 0.54445 0.0
C202 C 0.47058 0.62155 0.54423 0.0
C203 C 0.47693 0.58288 0.48115 0.0
N204 N 0.45353 0.58448 0.50667 0.0
N205 N 0.48813 0.60595 0.50239 0.0
C206 C 0.32926 0.65163 0.4662 0.0
C207 C 0.30387 0.63078 0.57655 0.0
N208 N 0.34152 0.63835 0.55094 0.0
N209 N 0.32571 0.6258 0.62086 0.0
N210 N 0.30561 0.64695 0.47946 0.0
H211 H 0.35988 0.66782 0.36416 0.0
H212 H 0.33392 0.68788 0.36425 0.0
H213 H 0.33428 0.65865 0.27873 0.0
C214 C 0.34023 0.66712 0.36299 0.0
C215 C 0.47396 0.64852 0.5935 0.0
H216 H 0.46092 0.65149 0.66652 0.0
H217 H 0.47076 0.66392 0.52334 0.0
H218 H 0.4924 0.65094 0.6272 0.0
O219 O 0.40554 0.5811 0.58277 0.0
O220 O 0.36703 0.5883 0.5824 0.0
C221 C 0.39704 0.62912 0.79726 0.0
O222 O 0.37608 0.62416 0.36759 0.0
O223 O 0.41441 0.61652 0.36693 0.0
Zn224 Zn 0.61991 0.17702 0.77794 0.0
O225 O 0.61905 0.17588 0.96519 0.0
C226 C 0.67037 0.15398 0.79445 0.0
Zn227 Zn 0.61936 0.13308 0.7855 0.0
C228 C 0.6184 0.15416 0.02579 0.0
O229 O 0.61794 0.13222 0.97294 0.0
C230 C 0.62112 0.15602 0.53702 0.0
O231 O 0.5808 0.13364 0.78276 0.0
O232 O 0.58054 0.17694 0.77466 0.0
N233 N 0.61899 0.09266 0.77646 0.0
C234 C 0.60864 0.07776 0.69366 0.0
C235 C 0.63553 0.05425 0.77647 0.0
N236 N 0.63544 0.07785 0.82909 0.0
N237 N 0.6189 0.05367 0.69086 0.0
C238 C 0.63123 0.23504 0.69868 0.0
C239 C 0.60382 0.25599 0.7878 0.0
N240 N 0.61963 0.21746 0.77167 0.0
N241 N 0.60276 0.23057 0.82765 0.0
N242 N 0.62146 0.25937 0.70632 0.0
H243 H 0.65348 0.20648 0.60895 0.0
H244 H 0.66816 0.23616 0.64721 0.0
H245 H 0.64769 0.23685 0.52528 0.0
C246 C 0.65105 0.22804 0.61478 0.0
C247 C 0.59003 0.08731 0.60713 0.0
H248 H 0.58599 0.1085 0.61244 0.0
H249 H 0.57311 0.07624 0.62527 0.0
H250 H 0.59579 0.08327 0.5153 0.0
O251 O 0.62171 0.13456 0.59793 0.0
O252 O 0.62008 0.17768 0.59019 0.0
C253 C 0.56895 0.15505 0.7776 0.0
O254 O 0.65957 0.1762 0.78567 0.0
O255 O 0.65779 0.13283 0.7937 0.0
Zn256 Zn 0.91137 0.36644 0.95547 0.0
O257 O 0.91017 0.36561 0.14339 0.0
C258 C 0.90045 0.4246 0.95454 0.0
Zn259 Zn 0.87241 0.37286 0.96006 0.0
C260 C 0.8909 0.36877 0.20198 0.0
O261 O 0.87138 0.37214 0.14689 0.0
C262 C 0.89302 0.37066 0.7134 0.0
O263 O 0.86563 0.33073 0.96219 0.0
O264 O 0.90424 0.32441 0.95646 0.0
N265 N 0.8371 0.38083 0.95096 0.0
C266 C 0.82105 0.37096 0.87594 0.0
C267 C 0.80709 0.40723 0.93751 0.0
N268 N 0.82829 0.4032 -0.00945 0.0
N269 N 0.80231 0.38737 0.8644 0.0
C270 C 0.96582 0.37093 0.00201 0.0
C271 C 0.97884 0.33754 0.91075 0.0
N272 N 0.94681 0.3586 0.95565 0.0
N273 N 0.95493 0.33785 0.89923 0.0
N274 N 0.98614 0.35813 0.97445 0.0
H275 H 0.94688 0.39498 0.12623 0.0
H276 H 0.97895 0.39431 0.14434 0.0
H277 H 0.966 0.41285 0.02258 0.0
C278 C 0.96429 0.39452 0.07889 0.0
C279 C 0.82301 0.34457 0.81868 0.0
H280 H 0.82375 0.32878 0.88884 0.0
H281 H 0.80729 0.34027 0.76331 0.0
H282 H 0.83947 0.34354 0.76394 0.0
O283 O 0.87386 0.37393 0.77208 0.0
O284 O 0.91242 0.36709 0.76867 0.0
C285 C 0.88312 0.31481 0.95826 0.0
O286 O 0.91801 0.40868 0.95204 0.0
O287 O 0.87936 0.41496 0.95849 0.0
Zn288 Zn 0.41147 0.16548 0.7733 0.0
O289 O 0.41211 0.16402 0.96057 0.0
C290 C 0.36302 0.13779 0.78973 0.0
Zn291 Zn 0.4152 0.12192 0.78195 0.0
C292 C 0.41413 0.14253 0.02166 0.0
O293 O 0.41614 0.12065 0.96928 0.0
C294 C 0.4119 0.14525 0.53311 0.0
O295 O 0.45367 0.12636 0.77805 0.0
O296 O 0.45067 0.16951 0.76892 0.0
N297 N 0.41815 0.08172 0.77075 0.0
C298 C 0.42925 0.06805 0.68554 0.0
C299 C 0.40369 0.04205 0.76948 0.0
N300 N 0.40254 0.06537 0.8241 0.0
N301 N 0.42025 0.0432 0.68171 0.0
C302 C 0.39242 0.22231 0.80998 0.0
C303 C 0.41853 0.24522 0.71197 0.0
N304 N 0.40879 0.20537 0.76857 0.0
N305 N 0.42497 0.21965 0.70781 0.0
N306 N 0.39807 0.24727 0.7745 0.0
H307 H 0.37488 0.19619 0.93894 0.0
H308 H 0.36695 0.23083 0.94743 0.0
H309 H 0.35565 0.21153 0.8295 0.0
C310 C 0.37134 0.21468 0.88669 0.0
C311 C 0.44744 0.07945 0.59852 0.0
H312 H 0.45048 0.10086 0.60647 0.0
H313 H 0.46483 0.06957 0.61392 0.0
H314 H 0.44196 0.07554 0.50666 0.0
O315 O 0.41331 0.12388 0.59437 0.0
O316 O 0.41092 0.167 0.58583 0.0
C317 C 0.46387 0.149 0.77264 0.0
O318 O 0.37246 0.16084 0.77928 0.0
O319 O 0.37681 0.11781 0.79134 0.0
Zn320 Zn 0.69103 0.62816 0.21558 0.0
O321 O 0.69277 0.67079 0.19606 0.0
C322 C 0.67015 0.62497 0.97072 0.0
Zn323 Zn 0.65164 0.6287 0.2131 0.0
C324 C 0.6728 0.68236 0.18179 0.0
O325 O 0.65354 0.66902 0.18747 0.0
C326 C 0.66836 0.57437 0.24422 0.0
O327 O 0.65332 0.63294 0.40019 0.0
O328 O 0.69234 0.63062 0.4018 0.0
N329 N 0.61557 0.63091 0.22165 0.0
C330 C 0.59958 0.61884 0.29583 0.0
C331 C 0.5805 0.6462 0.18509 0.0
N332 N 0.6037 0.64779 0.15261 0.0
N333 N 0.5774 0.62814 0.27457 0.0
C334 C 0.74412 0.63591 0.14124 0.0
C335 C 0.76045 0.60572 0.24881 0.0
N336 N 0.7269 0.6247 0.21074 0.0
N337 N 0.73709 0.60609 0.2779 0.0
N338 N 0.76529 0.62422 0.16328 0.0
H339 H 0.74567 0.67656 0.08259 0.0
H340 H 0.75088 0.65343 0.9676 0.0
H341 H 0.72098 0.65876 0.02408 0.0
C342 C 0.74002 0.65719 0.04801 0.0
C343 C 0.60576 0.59886 0.39215 0.0
H344 H 0.62491 0.59869 0.41324 0.0
H345 H 0.59539 0.60262 0.47408 0.0
H346 H 0.60124 0.57873 0.36251 0.0
O347 O 0.64958 0.58809 0.23537 0.0
O348 O 0.68864 0.58586 0.23666 0.0
C349 C 0.67267 0.63221 0.45799 0.0
O350 O 0.68957 0.6253 0.02816 0.0
O351 O 0.65038 0.62528 0.02715 0.0
Zn352 Zn 0.19188 0.88899 0.0223 0.0
O353 O 0.19167 0.84571 0.0287 0.0
C354 C 0.17182 0.88994 0.26609 0.0
Zn355 Zn 0.15088 0.89013 0.02213 0.0
C356 C 0.17125 0.83409 0.0287 0.0
O357 O 0.15241 0.84811 0.02762 0.0
C358 C 0.17017 0.94509 0.00943 0.0
O359 O 0.15107 0.88989 0.83519 0.0
O360 O 0.19051 0.88864 0.8347 0.0
N361 N 0.11323 0.88744 0.03239 0.0
C362 C 0.0945 0.90155 -0.01113 0.0
C363 C 0.07989 0.86941 0.09328 0.0
N364 N 0.10389 0.86754 0.09699 0.0
N365 N 0.07322 0.89063 0.02624 0.0
C366 C 0.24836 0.87982 0.07671 0.0
C367 C 0.26357 0.90965 0.96135 0.0
N368 N 0.22993 0.89139 0.01698 0.0
N369 N 0.23971 0.90977 0.94521 0.0
N370 N 0.26977 0.89103 0.0435 0.0
H371 H 0.22623 0.85666 0.19958 0.0
H372 H 0.25106 0.83943 0.13634 0.0
H373 H 0.25656 0.86307 0.2484 0.0
C374 C 0.24521 0.85864 0.17137 0.0
C375 C 0.09733 0.92496 0.90512 0.0
H376 H 0.11457 0.92402 0.85606 0.0
H377 H 0.08233 0.92583 0.84159 0.0
H378 H 0.09735 0.94334 0.95634 0.0
O379 O 0.15051 0.93213 0.01459 0.0
O380 O 0.18989 0.93238 0.01272 0.0
C381 C 0.17086 0.88923 0.77834 0.0
O382 O 0.19158 0.88953 0.20919 0.0
O383 O 0.15222 0.89029 0.20966 0.0
Zn384 Zn 0.91103 0.62301 0.9674 0.0
O385 O 0.94852 0.629 0.95863 0.0
C386 C 0.90713 0.64398 0.72129 0.0
Zn387 Zn 0.90565 0.66756 0.96266 0.0
C388 C 0.95693 0.65247 0.95257 0.0
O389 O 0.94277 0.67201 0.95257 0.0
C390 C 0.85989 0.63879 -0.01809 0.0
O391 O 0.90708 0.66828 0.14994 0.0
O392 O 0.91185 0.62502 0.1542 0.0
N393 N 0.90269 0.70872 0.94672 0.0
C394 C 0.89075 0.72804 0.00293 0.0
C395 C 0.91378 0.74716 0.87488 0.0
N396 N 0.9168 0.72086 0.86689 0.0
N397 N 0.89746 0.75237 0.95928 0.0
C398 C 0.90525 0.56004 0.94585 0.0
C399 C 0.93576 0.54714 0.04223 0.0
N400 N 0.91653 0.58207 -0.01668 0.0
N401 N 0.93543 0.5738 0.04325 0.0
N402 N 0.917 0.53773 -0.01803 0.0
H403 H 0.88249 0.57995 0.81922 0.0
H404 H 0.88394 0.54424 0.80658 0.0
H405 H 0.86735 0.55849 0.92606 0.0
C406 C 0.88358 0.56073 0.86918 0.0
C407 C 0.8737 0.72319 0.10434 0.0
H408 H 0.87231 0.7018 0.1289 0.0
H409 H 0.87971 0.73445 0.18153 0.0
H410 H 0.85576 0.73061 0.07934 0.0
O411 O 0.86876 0.66207 0.97393 0.0
O412 O 0.87351 0.61867 0.97831 0.0
C413 C 0.9096 0.64654 0.20881 0.0
O414 O 0.91012 0.62231 0.78011 0.0
O415 O 0.90449 0.66544 0.77592 0.0
Zn416 Zn 0.18502 0.1178 0.93253 0.0
O417 O 0.18207 0.16082 0.92576 0.0
C418 C 0.16528 0.11546 0.69083 0.0
Zn419 Zn 0.14421 0.11426 0.93696 0.0
C420 C 0.16131 0.17138 0.9261 0.0
O421 O 0.14278 0.15642 0.92867 0.0
C422 C 0.16723 0.06054 0.94906 0.0
O423 O 0.14411 0.11464 0.12407 0.0
O424 O 0.18344 0.11816 0.12004 0.0
N425 N 0.10662 0.11046 0.93059 0.0
C426 C 0.08765 0.12432 0.97082 0.0
C427 C 0.0736 0.09185 0.87753 0.0
N428 N 0.09764 0.09031 0.87297 0.0
N429 N 0.06656 0.11307 0.93816 0.0
C430 C 0.24105 0.13066 0.87431 0.0
C431 C 0.25684 0.10323 -0.00339 0.0
N432 N 0.22285 0.11866 0.93691 0.0
N433 N 0.23297 0.1018 0.01296 0.0
N434 N 0.26266 0.12117 0.90992 0.0
H435 H 0.24284 0.17042 0.80447 0.0
H436 H 0.24907 0.14562 0.69831 0.0
H437 H 0.21854 0.15128 0.748 0.0
C438 C 0.23752 0.1505 0.77492 0.0
C439 C 0.09004 0.14783 0.0473 0.0
H440 H 0.08961 0.16618 -0.00928 0.0
H441 H 0.07505 0.14833 0.11229 0.0
H442 H 0.10731 0.14738 0.09462 0.0
O443 O 0.14704 0.07205 0.94685 0.0
O444 O 0.18623 0.0747 0.94239 0.0
C445 C 0.16386 0.11647 0.17869 0.0
O446 O 0.18502 0.11714 0.74547 0.0
O447 O 0.14573 0.11392 0.74953 0.0
Zn448 Zn 0.62755 0.41362 0.39936 0.0
O449 O 0.62656 0.40993 0.21257 0.0
C450 C 0.65684 0.46306 0.36057 0.0
Zn451 Zn 0.66645 0.40659 0.39816 0.0
C452 C 0.6459 0.40592 0.15535 0.0
O453 O 0.66534 0.40275 0.21182 0.0
C454 C 0.64788 0.41459 0.64239 0.0
O455 O 0.65831 0.36563 0.42763 0.0
O456 O 0.61966 0.37302 0.43009 0.0
N457 N 0.70215 0.40014 0.40055 0.0
C458 C 0.71457 0.3868 0.48405 0.0
C459 C 0.73879 0.41371 0.39575 0.0
N460 N 0.71727 0.41666 0.34456 0.0
N461 N 0.73745 0.3952 0.48409 0.0
C462 C 0.57179 0.41155 0.4082 0.0
C463 C 0.56513 0.45018 0.4711 0.0
N464 N 0.59287 0.42455 0.4098 0.0
N465 N 0.58861 0.44861 0.44757 0.0
N466 N 0.55404 0.42712 0.44853 0.0
H467 H 0.58217 0.38137 0.28862 0.0
H468 H 0.57141 0.36938 0.43087 0.0
H469 H 0.55045 0.3821 0.3232 0.0
C470 C 0.56868 0.38454 0.35941 0.0
C471 C 0.70498 0.36383 0.55811 0.0
H472 H 0.70131 0.3475 0.49783 0.0
H473 H 0.71808 0.35639 0.62392 0.0
H474 H 0.68812 0.36883 0.60385 0.0
O475 O 0.66714 0.41099 0.58498 0.0
O476 O 0.62856 0.41728 0.58568 0.0
C477 C 0.63699 0.35703 0.44267 0.0
O478 O 0.6358 0.45382 0.37115 0.0
O479 O 0.67434 0.44741 0.37034 0.0
Zn480 Zn 0.4207 0.85736 0.18285 0.0
O481 O 0.42227 0.85886 -0.00452 0.0
C482 C 0.37035 0.88026 0.16428 0.0
Zn483 Zn 0.42133 0.90131 0.1749 0.0
C484 C 0.42262 0.88056 0.93468 0.0
O485 O 0.42266 0.90252 -0.01263 0.0
C486 C 0.41904 0.878 0.42357 0.0
O487 O 0.45987 0.90091 0.17731 0.0
O488 O 0.46008 0.85764 0.18964 0.0
N489 N 0.42156 0.94171 0.1854 0.0
C490 C 0.43186 0.95654 0.26866 0.0
C491 C 0.40497 0.9801 0.18607 0.0
N492 N 0.40511 0.95656 0.13294 0.0
N493 N 0.42157 0.98061 0.27185 0.0
C494 C 0.41198 0.7991 0.26577 0.0
C495 C 0.43581 0.77829 0.15426 0.0
N496 N 0.42148 0.81693 0.18684 0.0
N497 N 0.43622 0.80395 0.11737 0.0
N498 N 0.42098 0.77476 0.24837 0.0
H499 H 0.38266 0.82288 0.32751 0.0
H500 H 0.38071 0.78814 0.36991 0.0
H501 H 0.40159 0.80951 0.44112 0.0
C502 C 0.39306 0.80529 0.35566 0.0
C503 C 0.45041 0.9469 0.35529 0.0
H504 H 0.45464 0.92578 0.34874 0.0
H505 H 0.46727 0.95816 0.33845 0.0
H506 H 0.44447 0.9506 0.44719 0.0
O507 O 0.4191 0.89946 0.36247 0.0
O508 O 0.41949 0.85628 0.37058 0.0
C509 C 0.4717 0.87951 0.18488 0.0
O510 O 0.38116 0.85804 0.17159 0.0
O511 O 0.38289 0.90141 0.16704 0.0
C512 C 0.17209 0.66029 0.57299 0.0
C513 C 0.15108 0.66462 0.63866 0.0
H514 H 0.18798 0.65617 0.40171 0.0
C515 C 0.12941 0.66814 0.57816 0.0
H516 H 0.18906 0.6574 0.61683 0.0
C517 C 0.1288 0.66747 0.45471 0.0
C518 C 0.14982 0.66319 0.38906 0.0
H519 H 0.11288 0.67143 0.62609 0.0
H520 H 0.11184 0.67036 0.41081 0.0
C521 C 0.17146 0.65955 0.44958 0.0
C522 C 0.62783 0.86712 0.75178 0.0
C523 C 0.62699 0.89148 0.80879 0.0
H524 H 0.62908 0.8473 0.58717 0.0
C525 C 0.62715 0.9151 0.73955 0.0
H526 H 0.62782 0.84853 0.80251 0.0
C527 C 0.62807 0.91437 0.61609 0.0
C528 C 0.62868 0.89001 0.55905 0.0
H529 H 0.6267 0.9342 0.78061 0.0
H530 H 0.62832 0.93295 0.56547 0.0
C531 C 0.62862 0.86639 0.62828 0.0
C532 C 0.39131 0.40483 0.29998 0.0
C533 C 0.36929 0.404 0.36155 0.0
H534 H 0.40931 0.40778 0.13179 0.0
C535 C 0.34804 0.40572 0.29652 0.0
H536 H 0.40805 0.40372 0.34726 0.0
C537 C 0.34878 0.40821 0.1729 0.0
C538 C 0.3708 0.40909 0.11134 0.0
H539 H 0.33078 0.4053 0.34106 0.0
H540 H 0.33204 0.40931 0.12562 0.0
C541 C 0.39205 0.40736 0.17635 0.0
C542 C 0.89092 0.14352 0.50015 0.0
C543 C 0.86917 0.14443 0.56342 0.0
H544 H 0.90823 0.14293 0.3305 0.0
C545 C 0.84765 0.14551 0.50023 0.0
H546 H 0.90782 0.14268 0.54608 0.0
C547 C 0.84789 0.14567 0.37654 0.0
C548 C 0.86964 0.14476 0.31325 0.0
H549 H 0.83058 0.14626 0.5462 0.0
H550 H 0.83099 0.14651 0.33063 0.0
C551 C 0.89116 0.14368 0.37646 0.0
C552 C 0.13182 0.41272 0.44452 0.0
C553 C 0.13523 0.38936 0.38241 0.0
H554 H 0.12828 0.43036 0.61327 0.0
C555 C 0.13773 0.36523 0.44686 0.0
H556 H 0.12979 0.43163 0.39765 0.0
C557 C 0.13679 0.36447 0.57057 0.0
C558 C 0.13335 0.38782 0.63268 0.0
H559 H 0.14033 0.34683 0.40182 0.0
H560 H 0.13883 0.34557 0.61739 0.0
C561 C 0.13088 0.41196 0.56823 0.0
C562 C 0.89802 0.91993 0.58513 0.0
C563 C 0.87662 0.91768 0.65115 0.0
H564 H 0.91446 0.92212 0.41331 0.0
C565 C 0.85483 0.91585 0.59068 0.0
H566 H 0.91511 0.92138 0.62888 0.0
C567 C 0.85445 0.91628 0.467 0.0
C568 C 0.87584 0.91857 0.40099 0.0
H569 H 0.83801 0.91411 0.63881 0.0
H570 H 0.83736 0.91479 0.42325 0.0
C571 C 0.89763 0.92038 0.46145 0.0
C572 C 0.41788 0.62292 -0.00791 0.0
C573 C 0.39674 0.62764 0.92871 0.0
H574 H 0.43395 0.61644 0.16163 0.0
C575 C 0.37499 0.62911 -0.00808 0.0
H576 H 0.43491 0.62148 0.9463 0.0
C577 C 0.3744 0.6259 0.11536 0.0
C578 C 0.39553 0.62124 0.17877 0.0
H579 H 0.35832 0.63245 0.94602 0.0
H580 H 0.35735 0.62716 0.161 0.0
C581 C 0.41729 0.61979 0.11562 0.0
C582 C 0.62062 0.13088 0.2247 0.0
C583 C 0.6189 0.15457 0.15665 0.0
H584 H 0.6231 0.11279 0.39779 0.0
C585 C 0.61826 0.17879 0.21478 0.0
H586 H 0.62132 0.1119 0.18273 0.0
C587 C 0.6192 0.1793 0.3382 0.0
C588 C 0.62085 0.15561 0.40621 0.0
H589 H 0.61701 0.19743 0.165 0.0
H590 H 0.61854 0.19828 0.38022 0.0
C591 C 0.62166 0.1314 0.34808 0.0
C592 C 0.87026 0.37273 0.39853 0.0
C593 C 0.8914 0.36906 0.33286 0.0
H594 H 0.85424 0.37619 0.56991 0.0
C595 C 0.91312 0.36609 0.39341 0.0
H596 H 0.85324 0.37513 0.3547 0.0
C597 C 0.91368 0.36674 0.51689 0.0
C598 C 0.89255 0.37041 0.58253 0.0
H599 H 0.92975 0.3633 0.34549 0.0
H600 H 0.9307 0.36434 0.5608 0.0
C601 C 0.87084 0.3734 0.52198 0.0
C602 C 0.41269 0.12026 0.34517 0.0
C603 C 0.41206 0.14461 0.40226 0.0
H604 H 0.41401 0.10045 0.18061 0.0
C605 C 0.41205 0.16824 0.33307 0.0
H606 H 0.41248 0.10167 0.39577 0.0
C607 C 0.41279 0.16752 0.20957 0.0
C608 C 0.41363 0.14316 0.15251 0.0
H609 H 0.41158 0.18732 0.37423 0.0
H610 H 0.41275 0.18611 0.15887 0.0
C611 C 0.41355 0.11954 0.22171 0.0
C612 C 0.64943 0.6279 0.77478 0.0
C613 C 0.67073 0.62617 0.83946 0.0
H614 H 0.63331 0.6315 0.6041 0.0
C615 C 0.69271 0.62701 0.77759 0.0
H616 H 0.6322 0.62751 0.81961 0.0
C617 C 0.69336 0.62944 0.65397 0.0
C618 C 0.67206 0.63116 0.58926 0.0
H619 H 0.70948 0.6259 0.82462 0.0
H620 H 0.71059 0.62984 0.60916 0.0
C621 C 0.65008 0.63039 0.65114 0.0
C622 C 0.14983 0.89064 0.46037 0.0
C623 C 0.17159 0.88983 0.39711 0.0
H624 H 0.13251 0.89109 0.63001 0.0
C625 C 0.1931 0.88876 0.46033 0.0
H626 H 0.13293 0.89145 0.41442 0.0
C627 C 0.19285 0.88852 0.58403 0.0
C628 C 0.17109 0.88934 0.6473 0.0
H629 H 0.21018 0.88807 0.41437 0.0
H630 H 0.20976 0.8877 0.62996 0.0
C631 C 0.14958 0.8904 0.58406 0.0
C632 C 0.91088 0.62116 0.52819 0.0
C633 C 0.90745 0.64453 0.59018 0.0
H634 H 0.91439 0.60347 0.35953 0.0
C635 C 0.90487 0.66864 0.52562 0.0
H636 H 0.91296 0.60227 0.57515 0.0
C637 C 0.90574 0.66936 0.40189 0.0
C638 C 0.90921 0.64599 0.33992 0.0
H639 H 0.90224 0.68704 0.57058 0.0
H640 H 0.90361 0.68824 0.35493 0.0
C641 C 0.91175 0.62188 0.40448 0.0
C642 C 0.14316 0.11393 0.49937 0.0
C643 C 0.16496 0.11562 0.55983 0.0
H644 H 0.12568 0.11295 0.33194 0.0
C645 C 0.18637 0.1177 0.49383 0.0
H646 H 0.12632 0.11234 0.54749 0.0
C647 C 0.18599 0.11805 0.37016 0.0
C648 C 0.16419 0.11634 0.30969 0.0
H649 H 0.20346 0.1191 0.53759 0.0
H650 H 0.20282 0.11964 0.32204 0.0
C651 C 0.14278 0.1143 0.3757 0.0
C652 C 0.62527 0.41285 0.96051 0.0
C653 C 0.64624 0.40725 0.02391 0.0
H654 H 0.60937 0.41992 0.79098 0.0
C655 C 0.66787 0.40465 0.96065 0.0
H656 H 0.60833 0.41517 0.00631 0.0
C657 C 0.6685 0.40759 0.83711 0.0
C658 C 0.64753 0.41322 0.77375 0.0
H659 H 0.68441 0.40051 0.00654 0.0
H660 H 0.68541 0.40523 0.79126 0.0
C661 C 0.62591 0.41579 0.83696 0.0
C662 C 0.41928 0.90352 0.73542 0.0
C663 C 0.42205 0.88003 0.80382 0.0
H664 H 0.41571 0.92125 0.56212 0.0
C665 C 0.42354 0.8558 0.74611 0.0
H666 H 0.41792 0.92249 0.77707 0.0
C667 C 0.42235 0.85509 0.62281 0.0
C668 C 0.41952 0.87857 0.55441 0.0
H669 H 0.42567 0.83731 0.79613 0.0
H670 H 0.42385 0.83614 0.58124 0.0
C671 C 0.41797 0.90279 0.61212 0.0
C672 C 0.14248 0.76558 0.01954 0.0
C673 C 0.16224 0.74859 0.01499 0.0
H674 H 0.1298 0.80527 0.02803 0.0
C675 C 0.18537 0.75998 0.01667 0.0
H676 H 0.12441 0.75768 0.01885 0.0
C677 C 0.18855 0.78765 0.02216 0.0
C678 C 0.16867 0.80457 0.02627 0.0
H679 H 0.20104 0.74751 0.01387 0.0
H680 H 0.20654 0.79576 0.02274 0.0
C681 C 0.14563 0.79304 0.0251 0.0
C682 C 0.53784 0.85874 0.19201 0.0
C683 C 0.54991 0.88342 0.19013 0.0
H684 H 0.504 0.83798 0.19187 0.0
C685 C 0.53589 0.90652 0.18788 0.0
H686 H 0.5479 0.84049 0.19382 0.0
C687 C 0.51077 0.90508 0.18668 0.0
C688 C 0.49863 0.88049 0.18772 0.0
H689 H 0.54433 0.92592 0.18671 0.0
H690 H 0.50084 0.92344 0.18472 0.0
C691 C 0.51258 0.8573 0.19086 0.0
C692 C 0.39004 0.31583 0.86876 0.0
C693 C 0.37127 0.32426 0.79515 0.0
H694 H 0.41322 0.28396 0.91943 0.0
C695 C 0.35841 0.30552 0.7318 0.0
H696 H 0.40009 0.32995 0.91927 0.0
C697 C 0.36598 0.27909 0.73299 0.0
C698 C 0.38624 0.27149 0.79782 0.0
H699 H 0.344 0.31168 0.67399 0.0
H700 H 0.3573 0.2651 0.67642 0.0
C701 C 0.39754 0.28967 0.86948 0.0
C702 C 0.99904 0.1087 0.9571 0.0
C703 C 0.99228 0.13551 0.95199 0.0
H704 H 0.02779 0.08073 0.95903 0.0
C705 C 1.01067 0.15486 0.95012 0.0
H706 H 0.9857 0.09314 0.9541 0.0
C707 C 0.03495 0.14774 0.95051 0.0
C708 C 0.04173 0.12094 0.95368 0.0
H709 H 1.00624 0.1757 0.94445 0.0
H710 H 0.04827 0.16331 0.94213 0.0
C711 C 0.02333 0.10158 0.95828 0.0
C712 C 0.17402 0.24526 0.9657 0.0
C713 C 0.1507 0.25549 0.96976 0.0
H714 H 0.19586 0.21059 0.94847 0.0
C715 C 0.13138 0.23839 0.94973 0.0
H716 H 0.18918 0.25796 -0.0167 0.0
C717 C 0.13506 0.21151 0.92994 0.0
C718 C 0.15823 0.20075 0.93143 0.0
H719 H 0.11325 0.24578 0.95342 0.0
H720 H 0.11955 0.19899 0.91749 0.0
C721 C 0.17777 0.21812 0.94663 0.0
C722 C 0.04176 0.92541 0.00356 0.0
C723 C 0.04848 0.8986 0.00868 0.0
H724 H 1.01305 0.95344 0.00164 0.0
C725 C 0.03006 0.87928 0.01064 0.0
H726 H 0.05511 0.94095 0.00651 0.0
C727 C 1.00579 0.88644 0.0103 0.0
C728 C 0.99905 0.91325 0.00708 0.0
H729 H 0.03447 0.85842 0.01632 0.0
H730 H 0.99245 0.87089 0.01874 0.0
C731 C 1.01747 0.93258 0.00242 0.0
C732 C 0.413 0.72629 0.50611 0.0
C733 C 0.41211 0.70236 0.44727 0.0
H734 H 0.41772 0.76831 0.48871 0.0
C735 C 0.41424 0.70243 0.32353 0.0
H736 H 0.41149 0.72647 0.60173 0.0
C737 C 0.41695 0.72625 0.25869 0.0
C738 C 0.41757 0.75041 0.31649 0.0
H739 H 0.41343 0.68401 0.27686 0.0
H740 H 0.41833 0.72586 0.16311 0.0
C741 C 0.41608 0.75018 0.44114 0.0
C742 C 0.52991 0.12944 0.77489 0.0
C743 C 0.54202 0.15404 0.775 0.0
H744 H 0.49638 0.10858 0.7737 0.0
C745 C 0.52805 0.17722 0.77284 0.0
H746 H 0.53986 0.1111 0.77607 0.0
C747 C 0.5028 0.17575 0.7714 0.0
C748 C 0.49076 0.15107 0.77206 0.0
H749 H 0.53662 0.19654 0.7727 0.0
H750 H 0.49272 0.19399 0.77031 0.0
C751 C 0.5048 0.12798 0.77346 0.0
C752 C 0.89548 0.2411 0.93375 0.0
C753 C 0.8724 0.22963 0.9366 0.0
H754 H 0.91688 0.27636 0.93869 0.0
C755 C 0.85264 0.24657 0.9469 0.0
H756 H 0.91122 0.22887 0.926 0.0
C757 C 0.85598 0.27418 0.95469 0.0
C758 C 0.87915 0.28552 0.95222 0.0
H759 H 0.83463 0.23851 0.94989 0.0
H760 H 0.8404 0.28659 0.96304 0.0
C761 C 0.89879 0.26851 0.94142 0.0
C762 C 0.67536 0.75559 0.22902 0.0
C763 C 0.65559 0.76363 0.16154 0.0
H764 H 0.69701 0.72268 0.2871 0.0
C765 C 0.64494 0.74603 0.08488 0.0
H766 H 0.68352 0.76913 0.28942 0.0
C767 C 0.65254 0.71991 0.08305 0.0
C768 C 0.67078 0.711 0.15878 0.0
H769 H 0.62962 0.75209 0.03303 0.0
H770 H 0.64291 0.70614 0.02892 0.0
C771 C 0.68306 0.72924 0.22738 0.0
C772 C 0.86845 0.78845 -0.00257 0.0
C773 C 0.89196 0.77867 -0.00199 0.0
H774 H 0.84593 0.82278 0.0088 0.0
C775 C 0.91079 0.79623 0.02118 0.0
H776 H 0.85364 0.77544 0.97759 0.0
C777 C 0.90651 0.82306 0.03896 0.0
C778 C 0.88322 0.83339 0.03244 0.0
H779 H 0.92906 0.78922 0.02185 0.0
H780 H 0.9217 0.83589 0.05412 0.0
C781 C 0.8641 0.81559 0.01443 0.0
C782 C 0.64857 0.29107 0.59868 0.0
C783 C 0.62541 0.28282 0.63234 0.0
H784 H 0.67022 0.31982 0.50564 0.0
C785 C 0.60587 0.29812 0.59421 0.0
H786 H 0.66407 0.28042 0.62976 0.0
C787 C 0.60947 0.32148 0.52628 0.0
C788 C 0.63272 0.33002 0.49453 0.0
H789 H 0.58778 0.29216 0.61838 0.0
H790 H 0.59407 0.33321 0.50212 0.0
C791 C 0.65212 0.31407 0.52866 0.0
C792 C 1.01916 0.39073 -0.01557 0.0
C793 C 1.01057 0.36459 -0.0009 0.0
H794 H 0.04979 0.41649 -0.01913 0.0
C795 C 0.02662 0.34421 0.02735 0.0
H796 H 1.00726 0.40666 0.95882 0.0
C797 C 0.05093 0.34969 0.03839 0.0
C798 C 0.05969 0.37571 0.0207 0.0
H799 H 1.02034 0.32393 0.03855 0.0
H800 H 0.06291 0.33339 0.05805 0.0
C801 C 0.04353 0.39629 -0.00408 0.0
C802 C 0.51723 0.63814 0.41229 0.0
C803 C 0.51174 0.61259 0.45861 0.0
H804 H 0.54278 0.66309 0.31979 0.0
C805 C 0.52836 0.59222 0.44323 0.0
H806 H 0.50448 0.65402 0.41494 0.0
C807 C 0.54966 0.5971 0.38132 0.0
C808 C 0.55541 0.62275 0.33803 0.0
H809 H 0.52434 0.57216 0.47457 0.0
H810 H 0.5611 0.58051 0.36417 0.0
C811 C 0.53898 0.64322 0.35427 0.0
C812 C 0.50227 0.39055 0.59209 0.0
C813 C 0.486 0.41127 0.60696 0.0
H814 H 0.53684 0.37921 0.53384 0.0
C815 C 0.49205 0.43673 0.56229 0.0
H816 H 0.49823 0.3708 0.62732 0.0
C817 C 0.51358 0.44123 0.50169 0.0
C818 C 0.53014 0.42068 0.48886 0.0
H819 H 0.48076 0.45352 0.57794 0.0
H820 H 0.51786 0.4612 0.46992 0.0
C821 C 0.52422 0.39525 0.53518 0.0
C822 C 1.0161 0.68868 0.94243 0.0
C823 C 0.03206 0.6683 0.97175 0.0
H824 H 0.97985 0.69961 0.91165 0.0
C825 C 0.02341 0.64222 -0.01236 0.0
H826 H 0.02245 0.70892 0.9302 0.0
C827 C 0.99901 0.63676 0.9768 0.0
C828 C 0.98293 0.65738 0.95138 0.0
H829 H 0.03527 0.6263 0.0139 0.0
H830 H 0.99266 0.61662 -0.00702 0.0
C831 C 0.99178 0.6833 0.93202 0.0
C832 C 0.1157 0.5691 0.02783 0.0
C833 C 0.13897 0.57975 0.01733 0.0
H834 H 0.09343 0.53432 0.02943 0.0
C835 C 0.15815 0.56202 0.0041 0.0
H836 H 0.10047 0.58196 0.03866 0.0
C837 C 0.15406 0.53451 -0.00099 0.0
C838 C 0.1307 0.52397 0.00792 0.0
H839 H 0.17632 0.56944 -0.00493 0.0
H840 H 0.1691 0.52168 -0.01634 0.0
C841 C 0.11165 0.54171 0.02283 0.0
C842 C 0.71381 0.92621 0.13097 0.0
C843 C 0.70421 0.90063 0.15269 0.0
H844 H 0.74458 0.94997 0.08319 0.0
C845 C 0.72006 0.87899 0.14917 0.0
H846 H 0.7024 0.94345 0.13274 0.0
C847 C 0.74456 0.88284 0.12091 0.0
C848 C 0.75385 0.90844 0.09545 0.0
H849 H 0.71344 0.85898 0.16521 0.0
H850 H 0.75591 0.86569 0.1138 0.0
C851 C 0.7381 0.93 0.10238 0.0
C852 C 0.39771 0.50116 0.67338 0.0
C853 C 0.37483 0.48958 0.68144 0.0
H854 H 0.41852 0.53593 0.63826 0.0
C855 C 0.35466 0.5055 0.66057 0.0
H856 H 0.41365 0.48955 0.68914 0.0
C857 C 0.35749 0.53256 0.63124 0.0
C858 C 0.38051 0.54389 0.62196 0.0
H859 H 0.3368 0.49705 0.66584 0.0
H860 H 0.34176 0.5445 0.61541 0.0
C861 C 0.40051 0.52787 0.64372 0.0
C862 C 0.73197 0.12453 0.85708 0.0
C863 C 0.74672 0.14691 0.87146 0.0
H864 H 0.69717 0.10912 0.82036 0.0
C865 C 0.7364 0.17212 0.85318 0.0
H866 H 0.73919 0.10482 0.8705 0.0
C867 C 0.71186 0.1747 0.82472 0.0
C868 C 0.69702 0.15213 0.81349 0.0
H869 H 0.74695 0.18983 0.86593 0.0
H870 H 0.70438 0.19437 0.81478 0.0
C871 C 0.70772 0.12706 0.82814 0.0
C872 C 0.93151 0.49219 0.95226 0.0
C873 C 0.91227 0.5098 0.96459 0.0
H874 H 0.94301 0.45198 0.93839 0.0
C875 C 0.88895 0.49911 0.97076 0.0
H876 H 0.9497 0.4997 0.94788 0.0
C877 C 0.88507 0.47158 0.96549 0.0
C878 C 0.90441 0.45397 0.95485 0.0
H879 H 0.87375 0.51184 -0.01586 0.0
H880 H 0.8669 0.46406 0.97233 0.0
C881 C 0.92766 0.46476 0.94709 0.0
C882 C 0.30269 0.10435 0.85705 0.0
C883 C 0.28689 0.12583 0.86519 0.0
H884 H 0.33842 0.09111 0.8258 0.0
C885 C 0.2961 0.15152 0.84099 0.0
H886 H 0.29628 0.08432 0.87522 0.0
C887 C 0.32059 0.15553 0.81278 0.0
C888 C 0.3365 0.13396 0.80807 0.0
H889 H 0.2847 0.1686 0.84902 0.0
H890 H 0.32715 0.17558 0.79777 0.0
C891 C 0.32697 0.1083 0.82853 0.0
C892 C 0.68627 0.5298 0.29166 0.0
C893 C 0.66612 0.54565 0.26973 0.0
H894 H 0.69919 0.49096 0.33851 0.0
C895 C 0.64323 0.53407 0.27777 0.0
H896 H 0.70413 0.53825 0.28649 0.0
C897 C 0.64041 0.50738 0.30856 0.0
C898 C 0.66042 0.49147 0.33128 0.0
H899 H 0.62731 0.54565 0.26106 0.0
H900 H 0.62243 0.49923 0.31395 0.0
C901 C 0.68343 0.50283 0.322 0.0
C902 C 0.32888 0.85959 0.13314 0.0
C903 C 0.34371 0.88214 0.14501 0.0
H904 H 0.29378 0.84451 0.09186 0.0
C905 C 0.33301 0.90722 0.13118 0.0
H906 H 0.33637 0.83991 0.14247 0.0
C907 C 0.30875 0.90979 0.1025 0.0
C908 C 0.294 0.88743 0.08764 0.0
H909 H 0.34356 0.92515 0.13947 0.0
H910 H 0.30152 0.92951 0.08975 0.0
C911 C 0.30433 0.8622 0.10501 0.0
C912 C 0.64109 1.01621 0.43239 0.0
C913 C 0.6196 1.00813 0.38074 0.0
H914 H 0.65761 0.03675 0.57321 0.0
C915 C 0.59781 1.01443 0.43556 0.0
H916 H 0.65815 1.0113 0.39282 0.0
C917 C 0.59755 0.02795 0.54157 0.0
C918 C 0.61904 0.03636 0.59217 0.0
H919 H 0.581 1.00877 0.39686 0.0
H920 H 0.58055 0.03214 0.58316 0.0
C921 C 0.64081 0.0302 0.53689 0.0
C922 C 0.22208 0.37709 0.92857 0.0
C923 C 0.20811 0.39914 0.95666 0.0
H924 H 0.25453 0.36345 0.85046 0.0
C925 C 0.21773 0.42475 0.93841 0.0
H926 H 0.21508 0.35709 0.94036 0.0
C927 C 0.24042 0.42825 0.88777 0.0
C928 C 0.2539 0.40626 0.85535 0.0
H929 H 0.20741 0.44212 0.95885 0.0
H930 H 0.24729 0.44817 0.87153 0.0
C931 C 0.24473 0.38065 0.87759 0.0
C932 C 0.89345 0.01834 -0.01345 0.0
C933 C 0.87227 1.00315 -0.00325 0.0
H934 H 0.90951 0.0568 0.96346 0.0
C935 C 0.85025 1.01654 -0.00967 0.0
H936 H 0.91077 1.00888 -0.00935 0.0
C937 C 0.84952 0.04433 0.9744 0.0
C938 C 0.87079 0.05945 0.96426 0.0
H939 H 0.83355 1.00556 -0.00257 0.0
H940 H 0.83229 0.05395 0.9704 0.0
C941 C 0.89273 0.04598 0.97055 0.0
C942 C 0.27072 0.67359 0.22302 0.0
C943 C 0.25969 0.6504 0.18435 0.0
H944 H 0.29267 0.69099 0.35437 0.0
C945 C 0.26337 0.62632 0.24663 0.0
H946 H 0.26825 0.6923 0.17553 0.0
C947 C 0.27765 0.62548 0.34684 0.0
C948 C 0.28843 0.64872 0.38653 0.0
H949 H 0.25471 0.6083 0.21924 0.0
H950 H 0.2807 0.60659 0.39211 0.0
C951 C 0.28465 0.67283 0.32469 0.0
C952 C 0.39968 1.00411 0.4258 0.0
C953 C 0.42145 0.99789 0.37063 0.0
H954 H 0.38236 0.02315 0.56951 0.0
C955 C 0.44295 1.00631 0.42117 0.0
H956 H 0.38288 0.99757 0.38949 0.0
C957 C 0.44269 0.01991 0.52695 0.0
C958 C 0.4209 0.0263 0.58159 0.0
H959 H 0.45994 1.0021 0.37961 0.0
H960 H 0.45951 0.02559 0.56556 0.0
C961 C 0.39941 0.01819 0.53006 0.0
C962 C 0.82029 0.65731 0.03795 0.0
C963 C 0.83434 0.63523 0.01126 0.0
H964 H 0.78739 0.67098 0.11127 0.0
C965 C 0.82454 0.60965 0.02706 0.0
H966 H 0.82743 0.67728 0.02789 0.0
C967 C 0.80154 0.60619 0.07396 0.0
C968 C 0.78793 0.62819 0.10495 0.0
H969 H 0.83491 0.59226 0.0075 0.0
H970 H 0.7945 0.58628 0.08846 0.0
C971 C 0.79732 0.65378 0.08512 0.0
C972 C 0.19037 0.01758 0.96952 0.0
C973 C 0.16836 0.03098 0.96315 0.0
H974 H 0.20832 0.98017 -0.01056 0.0
C975 C 0.14716 1.01581 0.97329 0.0
H976 H 0.20708 0.02854 0.96246 0.0
C977 C 0.14788 0.98817 -0.01074 0.0
C978 C 0.16982 0.9747 -0.00441 0.0
H979 H 0.12986 0.0253 0.96921 0.0
H980 H 0.1311 0.97736 -0.00364 0.0
C981 C 0.19109 0.9898 -0.01457 0.0
C982 C 0.74589 0.39661 0.6966 0.0
C983 C 0.75385 0.39278 0.57991 0.0
H984 H 0.75538 0.39741 0.88003 0.0
C985 C 0.77804 0.38804 0.55766 0.0
H986 H 0.72739 0.40136 0.71464 0.0
C987 C 0.79394 0.38615 0.65159 0.0
C988 C 0.78578 0.38883 0.7688 0.0
H989 H 0.78451 0.38578 0.46793 0.0
H990 H 0.81267 0.38284 0.6329 0.0
C991 C 0.76176 0.39457 0.79057 0.0
loop_
_geom_bond_atom_site_label_1
_geom_bond_atom_site_label_2
_geom_bond_distance
_geom_bond_site_symmetry_2
_ccdc_geom_bond_type
Zn0 O1 2.055 1_554 S
Zn0 O8 2.046 . S
Zn0 N16 2.036 . S
Zn0 O28 2.053 . S
Zn0 O30 2.066 . S
O1 Zn0 2.055 1_556 S
O1 C4 1.259 . S
C2 O30 1.256 . S
C2 O31 1.244 . S
Zn3 O5 2.046 1_554 S
Zn3 O7 2.055 . S
Zn3 N9 2.036 . S
Zn3 O27 2.066 . S
Zn3 O31 2.053 . S
C4 O1 1.259 . S
C4 O5 1.254 . S
O5 Zn3 2.046 1_556 S
O5 C4 1.254 . S
C6 O27 1.256 . S
C6 O28 1.244 . S
O7 Zn3 2.055 . S
O7 C29 1.259 . S
O8 Zn0 2.046 . S
O8 C29 1.254 . S
N9 Zn3 2.036 . S
N9 C10 1.298 . S
N9 N12 1.398 . S
C10 N9 1.298 . S
C10 N13 1.367 . S
C10 C23 1.481 . S
C11 N12 1.299 . S
C11 N13 1.379 . S
N12 N9 1.398 . S
N12 C11 1.299 . S
N13 C10 1.367 . S
N13 C11 1.379 . S
C14 N16 1.298 . S
C14 N18 1.367 . S
C14 C22 1.481 1_554 S
C15 N17 1.299 . S
C15 N18 1.379 . S
N16 Zn0 2.036 . S
N16 C14 1.298 . S
N16 N17 1.398 . S
N17 C15 1.299 . S
N17 N16 1.398 . S
N18 C14 1.367 . S
N18 C15 1.379 . S
H19 C22 0.980 . S
H20 C22 0.981 . S
H21 C22 0.981 . S
C22 C14 1.481 1_556 S
C22 H19 0.980 . S
C22 H20 0.981 . S
C22 H21 0.981 . S
C23 C10 1.481 . S
C23 H24 0.980 . S
C23 H25 0.981 . S
C23 H26 0.981 . S
H24 C23 0.980 . S
H25 C23 0.981 . S
H26 C23 0.981 . S
O27 Zn3 2.066 . S
O27 C6 1.256 . S
O28 Zn0 2.053 . S
O28 C6 1.244 . S
C29 O7 1.259 . S
C29 O8 1.254 . S
O30 Zn0 2.066 . S
O30 C2 1.256 . S
O31 C2 1.244 . S
O31 Zn3 2.053 . S
Zn32 O33 2.055 . S
Zn32 O40 2.046 . S
Zn32 N48 2.036 . S
Zn32 O60 2.053 . S
Zn32 O62 2.066 . S
O33 Zn32 2.055 . S
O33 C36 1.259 . S
C34 O62 1.256 . S
C34 O63 1.244 . S
Zn35 O37 2.046 . S
Zn35 O39 2.055 . S
Zn35 N41 2.036 . S
Zn35 O59 2.066 . S
Zn35 O63 2.053 . S
C36 O33 1.259 . S
C36 O37 1.254 . S
O37 Zn35 2.046 . S
O37 C36 1.254 . S
C38 O59 1.256 . S
C38 O60 1.244 . S
O39 Zn35 2.055 . S
O39 C61 1.259 . S
O40 Zn32 2.046 . S
O40 C61 1.254 . S
N41 Zn35 2.036 . S
N41 C42 1.298 . S
N41 N44 1.398 . S
C42 N41 1.298 . S
C42 N45 1.367 . S
C42 C55 1.481 . S
C43 N44 1.299 . S
C43 N45 1.379 . S
N44 N41 1.398 . S
N44 C43 1.299 . S
N45 C42 1.367 . S
N45 C43 1.379 . S
C46 N48 1.298 . S
C46 N50 1.367 . S
C46 C54 1.481 . S
C47 N49 1.299 . S
C47 N50 1.379 . S
N48 Zn32 2.036 . S
N48 C46 1.298 . S
N48 N49 1.398 . S
N49 C47 1.299 . S
N49 N48 1.398 . S
N50 C46 1.367 . S
N50 C47 1.379 . S
H51 C54 0.980 . S
H52 C54 0.981 . S
H53 C54 0.981 . S
C54 C46 1.481 . S
C54 H51 0.980 . S
C54 H52 0.981 . S
C54 H53 0.981 . S
C55 C42 1.481 . S
C55 H56 0.980 . S
C55 H57 0.981 . S
C55 H58 0.981 . S
H56 C55 0.980 . S
H57 C55 0.981 . S
H58 C55 0.981 . S
O59 Zn35 2.066 . S
O59 C38 1.256 . S
O60 Zn32 2.053 . S
O60 C38 1.244 . S
C61 O39 1.259 . S
C61 O40 1.254 . S
O62 Zn32 2.066 . S
O62 C34 1.256 . S
O63 C34 1.244 . S
O63 Zn35 2.053 . S
Zn64 O65 2.055 . S
Zn64 O72 2.046 . S
Zn64 N80 2.036 . S
Zn64 O92 2.053 . S
Zn64 O94 2.066 . S
O65 Zn64 2.055 . S
O65 C68 1.259 . S
C66 O94 1.256 . S
C66 O95 1.244 . S
Zn67 O69 2.046 . S
Zn67 O71 2.055 . S
Zn67 N73 2.036 . S
Zn67 O91 2.066 . S
Zn67 O95 2.053 . S
C68 O65 1.259 . S
C68 O69 1.254 . S
O69 Zn67 2.046 . S
O69 C68 1.254 . S
C70 O91 1.256 . S
C70 O92 1.244 . S
O71 Zn67 2.055 . S
O71 C93 1.259 . S
O72 Zn64 2.046 . S
O72 C93 1.254 . S
N73 Zn67 2.036 . S
N73 C74 1.298 . S
N73 N76 1.398 . S
C74 N73 1.298 . S
C74 N77 1.367 . S
C74 C87 1.481 . S
C75 N76 1.299 . S
C75 N77 1.379 . S
N76 N73 1.398 . S
N76 C75 1.299 . S
N77 C74 1.367 . S
N77 C75 1.379 . S
C78 N80 1.298 . S
C78 N82 1.367 . S
C78 C86 1.481 . S
C79 N81 1.299 . S
C79 N82 1.379 . S
N80 Zn64 2.036 . S
N80 C78 1.298 . S
N80 N81 1.398 . S
N81 C79 1.299 . S
N81 N80 1.398 . S
N82 C78 1.367 . S
N82 C79 1.379 . S
H83 C86 0.980 . S
H84 C86 0.981 . S
H85 C86 0.981 . S
C86 C78 1.481 . S
C86 H83 0.980 . S
C86 H84 0.981 . S
C86 H85 0.981 . S
C87 C74 1.481 . S
C87 H88 0.980 . S
C87 H89 0.981 . S
C87 H90 0.981 . S
H88 C87 0.980 . S
H89 C87 0.981 . S
H90 C87 0.981 . S
O91 Zn67 2.066 . S
O91 C70 1.256 . S
O92 Zn64 2.053 . S
O92 C70 1.244 . S
C93 O71 1.259 . S
C93 O72 1.254 . S
O94 Zn64 2.066 . S
O94 C66 1.256 . S
O95 C66 1.244 . S
O95 Zn67 2.053 . S
Zn96 O97 2.055 . S
Zn96 O104 2.046 1_556 S
Zn96 N112 2.036 . S
Zn96 O124 2.053 . S
Zn96 O126 2.066 . S
O97 Zn96 2.055 . S
O97 C100 1.259 . S
C98 O126 1.256 . S
C98 O127 1.244 . S
Zn99 O101 2.046 . S
Zn99 O103 2.055 1_556 S
Zn99 N105 2.036 . S
Zn99 O123 2.066 . S
Zn99 O127 2.053 . S
C100 O97 1.259 . S
C100 O101 1.254 . S
O101 Zn99 2.046 . S
O101 C100 1.254 . S
C102 O123 1.256 . S
C102 O124 1.244 . S
O103 Zn99 2.055 1_554 S
O103 C125 1.259 . S
O104 Zn96 2.046 1_554 S
O104 C125 1.254 . S
N105 Zn99 2.036 . S
N105 C106 1.298 . S
N105 N108 1.398 . S
C106 N105 1.298 . S
C106 N109 1.367 . S
C106 C119 1.481 1_556 S
C107 N108 1.299 . S
C107 N109 1.379 . S
N108 N105 1.398 . S
N108 C107 1.299 . S
N109 C106 1.367 . S
N109 C107 1.379 . S
C110 N112 1.298 . S
C110 N114 1.367 . S
C110 C118 1.481 . S
C111 N113 1.299 . S
C111 N114 1.379 . S
N112 Zn96 2.036 . S
N112 C110 1.298 . S
N112 N113 1.398 . S
N113 C111 1.299 . S
N113 N112 1.398 . S
N114 C110 1.367 . S
N114 C111 1.379 . S
H115 C118 0.980 . S
H116 C118 0.981 . S
H117 C118 0.981 . S
C118 C110 1.481 . S
C118 H115 0.980 . S
C118 H116 0.981 . S
C118 H117 0.981 . S
C119 C106 1.481 1_554 S
C119 H120 0.980 . S
C119 H121 0.981 . S
C119 H122 0.981 . S
H120 C119 0.980 . S
H121 C119 0.981 . S
H122 C119 0.981 . S
O123 Zn99 2.066 . S
O123 C102 1.256 . S
O124 Zn96 2.053 . S
O124 C102 1.244 . S
C125 O103 1.259 . S
C125 O104 1.254 . S
O126 Zn96 2.066 . S
O126 C98 1.256 . S
O127 C98 1.244 . S
O127 Zn99 2.053 . S
Zn128 O129 2.055 . S
Zn128 O136 2.046 . S
Zn128 N144 2.036 . S
Zn128 O156 2.053 1_556 S
Zn128 O158 2.066 . S
O129 Zn128 2.055 . S
O129 C132 1.259 . S
C130 O158 1.256 . S
C130 O159 1.244 . S
Zn131 O133 2.046 . S
Zn131 O135 2.055 . S
Zn131 N137 2.036 . S
Zn131 O155 2.066 1_556 S
Zn131 O159 2.053 . S
C132 O129 1.259 . S
C132 O133 1.254 . S
O133 Zn131 2.046 . S
O133 C132 1.254 . S
C134 O155 1.256 . S
C134 O156 1.244 . S
O135 Zn131 2.055 . S
O135 C157 1.259 . S
O136 Zn128 2.046 . S
O136 C157 1.254 . S
N137 Zn131 2.036 . S
N137 C138 1.298 . S
N137 N140 1.398 . S
C138 N137 1.298 . S
C138 N141 1.367 . S
C138 C151 1.481 . S
C139 N140 1.299 . S
C139 N141 1.379 . S
N140 N137 1.398 . S
N140 C139 1.299 . S
N141 C138 1.367 . S
N141 C139 1.379 . S
C142 N144 1.298 . S
C142 N146 1.367 . S
C142 C150 1.481 . S
C143 N145 1.299 . S
C143 N146 1.379 . S
N144 Zn128 2.036 . S
N144 C142 1.298 . S
N144 N145 1.398 . S
N145 C143 1.299 . S
N145 N144 1.398 . S
N146 C142 1.367 . S
N146 C143 1.379 . S
H147 C150 0.980 . S
H148 C150 0.981 . S
H149 C150 0.981 . S
C150 C142 1.481 . S
C150 H147 0.980 . S
C150 H148 0.981 . S
C150 H149 0.981 . S
C151 C138 1.481 . S
C151 H152 0.980 . S
C151 H153 0.981 . S
C151 H154 0.981 1_556 S
H152 C151 0.980 . S
H153 C151 0.981 . S
H154 C151 0.981 1_554 S
O155 Zn131 2.066 1_554 S
O155 C134 1.256 . S
O156 Zn128 2.053 1_554 S
O156 C134 1.244 . S
C157 O135 1.259 . S
C157 O136 1.254 . S
O158 Zn128 2.066 . S
O158 C130 1.256 . S
O159 C130 1.244 . S
O159 Zn131 2.053 . S
Zn160 O161 2.055 . S
Zn160 O168 2.046 1_554 S
Zn160 N176 2.036 . S
Zn160 O188 2.053 . S
Zn160 O190 2.066 . S
O161 Zn160 2.055 . S
O161 C164 1.259 . S
C162 O190 1.256 . S
C162 O191 1.244 . S
Zn163 O165 2.046 . S
Zn163 O167 2.055 1_554 S
Zn163 N169 2.036 . S
Zn163 O187 2.066 . S
Zn163 O191 2.053 . S
C164 O161 1.259 . S
C164 O165 1.254 . S
O165 Zn163 2.046 . S
O165 C164 1.254 . S
C166 O187 1.256 . S
C166 O188 1.244 . S
O167 Zn163 2.055 1_556 S
O167 C189 1.259 . S
O168 Zn160 2.046 1_556 S
O168 C189 1.254 . S
N169 Zn163 2.036 . S
N169 C170 1.298 . S
N169 N172 1.398 . S
C170 N169 1.298 . S
C170 N173 1.367 . S
C170 C183 1.481 1_554 S
C171 N172 1.299 . S
C171 N173 1.379 . S
N172 N169 1.398 . S
N172 C171 1.299 . S
N173 C170 1.367 . S
N173 C171 1.379 . S
C174 N176 1.298 . S
C174 N178 1.367 . S
C174 C182 1.481 . S
C175 N177 1.299 . S
C175 N178 1.379 . S
N176 Zn160 2.036 . S
N176 C174 1.298 . S
N176 N177 1.398 . S
N177 C175 1.299 . S
N177 N176 1.398 . S
N178 C174 1.367 . S
N178 C175 1.379 . S
H179 C182 0.980 . S
H180 C182 0.981 . S
H181 C182 0.981 . S
C182 C174 1.481 . S
C182 H179 0.980 . S
C182 H180 0.981 . S
C182 H181 0.981 . S
C183 C170 1.481 1_556 S
C183 H184 0.980 . S
C183 H185 0.981 . S
C183 H186 0.981 . S
H184 C183 0.980 . S
H185 C183 0.981 . S
H186 C183 0.981 . S
O187 Zn163 2.066 . S
O187 C166 1.256 . S
O188 Zn160 2.053 . S
O188 C166 1.244 . S
C189 O167 1.259 . S
C189 O168 1.254 . S
O190 Zn160 2.066 . S
O190 C162 1.256 . S
O191 C162 1.244 . S
O191 Zn163 2.053 . S
Zn192 O193 2.055 . S
Zn192 O200 2.046 . S
Zn192 N208 2.036 . S
Zn192 O220 2.053 . S
Zn192 O222 2.066 . S
O193 Zn192 2.055 . S
O193 C196 1.259 . S
C194 O222 1.256 . S
C194 O223 1.244 . S
Zn195 O197 2.046 . S
Zn195 O199 2.055 . S
Zn195 N201 2.036 . S
Zn195 O219 2.066 . S
Zn195 O223 2.053 . S
C196 O193 1.259 . S
C196 O197 1.254 . S
O197 Zn195 2.046 . S
O197 C196 1.254 . S
C198 O219 1.256 . S
C198 O220 1.244 . S
O199 Zn195 2.055 . S
O199 C221 1.259 . S
O200 Zn192 2.046 . S
O200 C221 1.254 . S
N201 Zn195 2.036 . S
N201 C202 1.298 . S
N201 N204 1.398 . S
C202 N201 1.298 . S
C202 N205 1.367 . S
C202 C215 1.481 . S
C203 N204 1.299 . S
C203 N205 1.379 . S
N204 N201 1.398 . S
N204 C203 1.299 . S
N205 C202 1.367 . S
N205 C203 1.379 . S
C206 N208 1.298 . S
C206 N210 1.367 . S
C206 C214 1.481 . S
C207 N209 1.299 . S
C207 N210 1.379 . S
N208 Zn192 2.036 . S
N208 C206 1.298 . S
N208 N209 1.398 . S
N209 C207 1.299 . S
N209 N208 1.398 . S
N210 C206 1.367 . S
N210 C207 1.379 . S
H211 C214 0.980 . S
H212 C214 0.981 . S
H213 C214 0.981 . S
C214 C206 1.481 . S
C214 H211 0.980 . S
C214 H212 0.981 . S
C214 H213 0.981 . S
C215 C202 1.481 . S
C215 H216 0.980 . S
C215 H217 0.981 . S
C215 H218 0.981 . S
H216 C215 0.980 . S
H217 C215 0.981 . S
H218 C215 0.981 . S
O219 Zn195 2.066 . S
O219 C198 1.256 . S
O220 Zn192 2.053 . S
O220 C198 1.244 . S
C221 O199 1.259 . S
C221 O200 1.254 . S
O222 Zn192 2.066 . S
O222 C194 1.256 . S
O223 C194 1.244 . S
O223 Zn195 2.053 . S
Zn224 O225 2.055 . S
Zn224 O232 2.046 . S
Zn224 N240 2.036 . S
Zn224 O252 2.053 . S
Zn224 O254 2.066 . S
O225 Zn224 2.055 . S
O225 C228 1.259 . S
C226 O254 1.256 . S
C226 O255 1.244 . S
Zn227 O229 2.046 . S
Zn227 O231 2.055 . S
Zn227 N233 2.036 . S
Zn227 O251 2.066 . S
Zn227 O255 2.053 . S
C228 O225 1.259 . S
C228 O229 1.254 . S
O229 Zn227 2.046 . S
O229 C228 1.254 . S
C230 O251 1.256 . S
C230 O252 1.244 . S
O231 Zn227 2.055 . S
O231 C253 1.259 . S
O232 Zn224 2.046 . S
O232 C253 1.254 . S
N233 Zn227 2.036 . S
N233 C234 1.298 . S
N233 N236 1.398 . S
C234 N233 1.298 . S
C234 N237 1.367 . S
C234 C247 1.481 . S
C235 N236 1.299 . S
C235 N237 1.379 . S
N236 N233 1.398 . S
N236 C235 1.299 . S
N237 C234 1.367 . S
N237 C235 1.379 . S
C238 N240 1.298 . S
C238 N242 1.367 . S
C238 C246 1.481 . S
C239 N241 1.299 . S
C239 N242 1.379 . S
N240 Zn224 2.036 . S
N240 C238 1.298 . S
N240 N241 1.398 . S
N241 C239 1.299 . S
N241 N240 1.398 . S
N242 C238 1.367 . S
N242 C239 1.379 . S
H243 C246 0.980 . S
H244 C246 0.981 . S
H245 C246 0.981 . S
C246 C238 1.481 . S
C246 H243 0.980 . S
C246 H244 0.981 . S
C246 H245 0.981 . S
C247 C234 1.481 . S
C247 H248 0.980 . S
C247 H249 0.981 . S
C247 H250 0.981 . S
H248 C247 0.980 . S
H249 C247 0.981 . S
H250 C247 0.981 . S
O251 Zn227 2.066 . S
O251 C230 1.256 . S
O252 Zn224 2.053 . S
O252 C230 1.244 . S
C253 O231 1.259 . S
C253 O232 1.254 . S
O254 Zn224 2.066 . S
O254 C226 1.256 . S
O255 C226 1.244 . S
O255 Zn227 2.053 . S
Zn256 O257 2.055 1_556 S
Zn256 O264 2.046 . S
Zn256 N272 2.036 . S
Zn256 O284 2.053 . S
Zn256 O286 2.066 . S
O257 Zn256 2.055 1_554 S
O257 C260 1.259 . S
C258 O286 1.256 . S
C258 O287 1.244 . S
Zn259 O261 2.046 1_556 S
Zn259 O263 2.055 . S
Zn259 N265 2.036 . S
Zn259 O283 2.066 . S
Zn259 O287 2.053 . S
C260 O257 1.259 . S
C260 O261 1.254 . S
O261 Zn259 2.046 1_554 S
O261 C260 1.254 . S
C262 O283 1.256 . S
C262 O284 1.244 . S
O263 Zn259 2.055 . S
O263 C285 1.259 . S
O264 Zn256 2.046 . S
O264 C285 1.254 . S
N265 Zn259 2.036 . S
N265 C266 1.298 . S
N265 N268 1.398 . S
C266 N265 1.298 . S
C266 N269 1.367 . S
C266 C279 1.481 . S
C267 N268 1.299 . S
C267 N269 1.379 . S
N268 N265 1.398 . S
N268 C267 1.299 . S
N269 C266 1.367 . S
N269 C267 1.379 . S
C270 N272 1.298 . S
C270 N274 1.367 . S
C270 C278 1.481 1_556 S
C271 N273 1.299 . S
C271 N274 1.379 . S
N272 Zn256 2.036 . S
N272 C270 1.298 . S
N272 N273 1.398 . S
N273 C271 1.299 . S
N273 N272 1.398 . S
N274 C270 1.367 . S
N274 C271 1.379 . S
H275 C278 0.980 . S
H276 C278 0.981 . S
H277 C278 0.981 . S
C278 C270 1.481 1_554 S
C278 H275 0.980 . S
C278 H276 0.981 . S
C278 H277 0.981 . S
C279 C266 1.481 . S
C279 H280 0.980 . S
C279 H281 0.981 . S
C279 H282 0.981 . S
H280 C279 0.980 . S
H281 C279 0.981 . S
H282 C279 0.981 . S
O283 Zn259 2.066 . S
O283 C262 1.256 . S
O284 Zn256 2.053 . S
O284 C262 1.244 . S
C285 O263 1.259 . S
C285 O264 1.254 . S
O286 Zn256 2.066 . S
O286 C258 1.256 . S
O287 C258 1.244 . S
O287 Zn259 2.053 . S
Zn288 O289 2.055 . S
Zn288 O296 2.046 . S
Zn288 N304 2.036 . S
Zn288 O316 2.053 . S
Zn288 O318 2.066 . S
O289 Zn288 2.055 . S
O289 C292 1.259 . S
C290 O318 1.256 . S
C290 O319 1.244 . S
Zn291 O293 2.046 . S
Zn291 O295 2.055 . S
Zn291 N297 2.036 . S
Zn291 O315 2.066 . S
Zn291 O319 2.053 . S
C292 O289 1.259 . S
C292 O293 1.254 . S
O293 Zn291 2.046 . S
O293 C292 1.254 . S
C294 O315 1.256 . S
C294 O316 1.244 . S
O295 Zn291 2.055 . S
O295 C317 1.259 . S
O296 Zn288 2.046 . S
O296 C317 1.254 . S
N297 Zn291 2.036 . S
N297 C298 1.298 . S
N297 N300 1.398 . S
C298 N297 1.298 . S
C298 N301 1.367 . S
C298 C311 1.481 . S
C299 N300 1.299 . S
C299 N301 1.379 . S
N300 N297 1.398 . S
N300 C299 1.299 . S
N301 C298 1.367 . S
N301 C299 1.379 . S
C302 N304 1.298 . S
C302 N306 1.367 . S
C302 C310 1.481 . S
C303 N305 1.299 . S
C303 N306 1.379 . S
N304 Zn288 2.036 . S
N304 C302 1.298 . S
N304 N305 1.398 . S
N305 C303 1.299 . S
N305 N304 1.398 . S
N306 C302 1.367 . S
N306 C303 1.379 . S
H307 C310 0.980 . S
H308 C310 0.981 . S
H309 C310 0.981 . S
C310 C302 1.481 . S
C310 H307 0.980 . S
C310 H308 0.981 . S
C310 H309 0.981 . S
C311 C298 1.481 . S
C311 H312 0.980 . S
C311 H313 0.981 . S
C311 H314 0.981 . S
H312 C311 0.980 . S
H313 C311 0.981 . S
H314 C311 0.981 . S
O315 Zn291 2.066 . S
O315 C294 1.256 . S
O316 Zn288 2.053 . S
O316 C294 1.244 . S
C317 O295 1.259 . S
C317 O296 1.254 . S
O318 Zn288 2.066 . S
O318 C290 1.256 . S
O319 C290 1.244 . S
O319 Zn291 2.053 . S
Zn320 O321 2.055 . S
Zn320 O328 2.046 . S
Zn320 N336 2.036 . S
Zn320 O348 2.053 . S
Zn320 O350 2.066 . S
O321 Zn320 2.055 . S
O321 C324 1.259 . S
C322 O350 1.256 . S
C322 O351 1.244 . S
Zn323 O325 2.046 . S
Zn323 O327 2.055 . S
Zn323 N329 2.036 . S
Zn323 O347 2.066 . S
Zn323 O351 2.053 . S
C324 O321 1.259 . S
C324 O325 1.254 . S
O325 Zn323 2.046 . S
O325 C324 1.254 . S
C326 O347 1.256 . S
C326 O348 1.244 . S
O327 Zn323 2.055 . S
O327 C349 1.259 . S
O328 Zn320 2.046 . S
O328 C349 1.254 . S
N329 Zn323 2.036 . S
N329 C330 1.298 . S
N329 N332 1.398 . S
C330 N329 1.298 . S
C330 N333 1.367 . S
C330 C343 1.481 . S
C331 N332 1.299 . S
C331 N333 1.379 . S
N332 N329 1.398 . S
N332 C331 1.299 . S
N333 C330 1.367 . S
N333 C331 1.379 . S
C334 N336 1.298 . S
C334 N338 1.367 . S
C334 C342 1.481 . S
C335 N337 1.299 . S
C335 N338 1.379 . S
N336 Zn320 2.036 . S
N336 C334 1.298 . S
N336 N337 1.398 . S
N337 C335 1.299 . S
N337 N336 1.398 . S
N338 C334 1.367 . S
N338 C335 1.379 . S
H339 C342 0.980 . S
H340 C342 0.981 . S
H341 C342 0.981 . S
C342 C334 1.481 . S
C342 H339 0.980 . S
C342 H340 0.981 . S
C342 H341 0.981 . S
C343 C330 1.481 . S
C343 H344 0.980 . S
C343 H345 0.981 . S
C343 H346 0.981 . S
H344 C343 0.980 . S
H345 C343 0.981 . S
H346 C343 0.981 . S
O347 Zn323 2.066 . S
O347 C326 1.256 . S
O348 Zn320 2.053 . S
O348 C326 1.244 . S
C349 O327 1.259 . S
C349 O328 1.254 . S
O350 Zn320 2.066 . S
O350 C322 1.256 . S
O351 C322 1.244 . S
O351 Zn323 2.053 . S
Zn352 O353 2.055 . S
Zn352 O360 2.046 1_554 S
Zn352 N368 2.036 . S
Zn352 O380 2.053 . S
Zn352 O382 2.066 . S
O353 Zn352 2.055 . S
O353 C356 1.259 . S
C354 O382 1.256 . S
C354 O383 1.244 . S
Zn355 O357 2.046 . S
Zn355 O359 2.055 1_554 S
Zn355 N361 2.036 . S
Zn355 O379 2.066 . S
Zn355 O383 2.053 . S
C356 O353 1.259 . S
C356 O357 1.254 . S
O357 Zn355 2.046 . S
O357 C356 1.254 . S
C358 O379 1.256 . S
C358 O380 1.244 . S
O359 Zn355 2.055 1_556 S
O359 C381 1.259 . S
O360 Zn352 2.046 1_556 S
O360 C381 1.254 . S
N361 Zn355 2.036 . S
N361 C362 1.298 . S
N361 N364 1.398 . S
C362 N361 1.298 . S
C362 N365 1.367 . S
C362 C375 1.481 1_554 S
C363 N364 1.299 . S
C363 N365 1.379 . S
N364 N361 1.398 . S
N364 C363 1.299 . S
N365 C362 1.367 . S
N365 C363 1.379 . S
C366 N368 1.298 . S
C366 N370 1.367 . S
C366 C374 1.481 . S
C367 N369 1.299 . S
C367 N370 1.379 . S
N368 Zn352 2.036 . S
N368 C366 1.298 . S
N368 N369 1.398 . S
N369 C367 1.299 . S
N369 N368 1.398 . S
N370 C366 1.367 . S
N370 C367 1.379 . S
H371 C374 0.980 . S
H372 C374 0.981 . S
H373 C374 0.981 . S
C374 C366 1.481 . S
C374 H371 0.980 . S
C374 H372 0.981 . S
C374 H373 0.981 . S
C375 C362 1.481 1_556 S
C375 H376 0.980 . S
C375 H377 0.981 . S
C375 H378 0.981 . S
H376 C375 0.980 . S
H377 C375 0.981 . S
H378 C375 0.981 . S
O379 Zn355 2.066 . S
O379 C358 1.256 . S
O380 Zn352 2.053 . S
O380 C358 1.244 . S
C381 O359 1.259 . S
C381 O360 1.254 . S
O382 Zn352 2.066 . S
O382 C354 1.256 . S
O383 C354 1.244 . S
O383 Zn355 2.053 . S
Zn384 O385 2.055 . S
Zn384 O392 2.046 . S
Zn384 N400 2.036 . S
Zn384 O412 2.053 . S
Zn384 O414 2.066 1_554 S
O385 Zn384 2.055 . S
O385 C388 1.259 . S
C386 O414 1.256 . S
C386 O415 1.244 . S
Zn387 O389 2.046 . S
Zn387 O391 2.055 . S
Zn387 N393 2.036 . S
Zn387 O411 2.066 . S
Zn387 O415 2.053 1_554 S
C388 O385 1.259 . S
C388 O389 1.254 . S
O389 Zn387 2.046 . S
O389 C388 1.254 . S
C390 O411 1.256 . S
C390 O412 1.244 . S
O391 Zn387 2.055 . S
O391 C413 1.259 . S
O392 Zn384 2.046 . S
O392 C413 1.254 . S
N393 Zn387 2.036 . S
N393 C394 1.298 . S
N393 N396 1.398 . S
C394 N393 1.298 . S
C394 N397 1.367 . S
C394 C407 1.481 . S
C395 N396 1.299 . S
C395 N397 1.379 . S
N396 N393 1.398 . S
N396 C395 1.299 . S
N397 C394 1.367 . S
N397 C395 1.379 . S
C398 N400 1.298 . S
C398 N402 1.367 . S
C398 C406 1.481 . S
C399 N401 1.299 . S
C399 N402 1.379 . S
N400 Zn384 2.036 . S
N400 C398 1.298 . S
N400 N401 1.398 . S
N401 C399 1.299 . S
N401 N400 1.398 . S
N402 C398 1.367 . S
N402 C399 1.379 . S
H403 C406 0.980 . S
H404 C406 0.981 . S
H405 C406 0.981 1_556 S
C406 C398 1.481 . S
C406 H403 0.980 . S
C406 H404 0.981 . S
C406 H405 0.981 1_554 S
C407 C394 1.481 . S
C407 H408 0.980 . S
C407 H409 0.981 . S
C407 H410 0.981 . S
H408 C407 0.980 . S
H409 C407 0.981 . S
H410 C407 0.981 . S
O411 Zn387 2.066 . S
O411 C390 1.256 . S
O412 Zn384 2.053 . S
O412 C390 1.244 . S
C413 O391 1.259 . S
C413 O392 1.254 . S
O414 Zn384 2.066 1_556 S
O414 C386 1.256 . S
O415 C386 1.244 . S
O415 Zn387 2.053 1_556 S
Zn416 O417 2.055 . S
Zn416 O424 2.046 1_556 S
Zn416 N432 2.036 . S
Zn416 O444 2.053 . S
Zn416 O446 2.066 . S
O417 Zn416 2.055 . S
O417 C420 1.259 . S
C418 O446 1.256 . S
C418 O447 1.244 . S
Zn419 O421 2.046 . S
Zn419 O423 2.055 1_556 S
Zn419 N425 2.036 . S
Zn419 O443 2.066 . S
Zn419 O447 2.053 . S
C420 O417 1.259 . S
C420 O421 1.254 . S
O421 Zn419 2.046 . S
O421 C420 1.254 . S
C422 O443 1.256 . S
C422 O444 1.244 . S
O423 Zn419 2.055 1_554 S
O423 C445 1.259 . S
O424 Zn416 2.046 1_554 S
O424 C445 1.254 . S
N425 Zn419 2.036 . S
N425 C426 1.298 . S
N425 N428 1.398 . S
C426 N425 1.298 . S
C426 N429 1.367 . S
C426 C439 1.481 1_556 S
C427 N428 1.299 . S
C427 N429 1.379 . S
N428 N425 1.398 . S
N428 C427 1.299 . S
N429 C426 1.367 . S
N429 C427 1.379 . S
C430 N432 1.298 . S
C430 N434 1.367 . S
C430 C438 1.481 . S
C431 N433 1.299 . S
C431 N434 1.379 . S
N432 Zn416 2.036 . S
N432 C430 1.298 . S
N432 N433 1.398 . S
N433 C431 1.299 . S
N433 N432 1.398 . S
N434 C430 1.367 . S
N434 C431 1.379 . S
H435 C438 0.980 . S
H436 C438 0.981 . S
H437 C438 0.981 . S
C438 C430 1.481 . S
C438 H435 0.980 . S
C438 H436 0.981 . S
C438 H437 0.981 . S
C439 C426 1.481 1_554 S
C439 H440 0.980 . S
C439 H441 0.981 . S
C439 H442 0.981 . S
H440 C439 0.980 . S
H441 C439 0.981 . S
H442 C439 0.981 . S
O443 Zn419 2.066 . S
O443 C422 1.256 . S
O444 Zn416 2.053 . S
O444 C422 1.244 . S
C445 O423 1.259 . S
C445 O424 1.254 . S
O446 Zn416 2.066 . S
O446 C418 1.256 . S
O447 C418 1.244 . S
O447 Zn419 2.053 . S
Zn448 O449 2.055 . S
Zn448 O456 2.046 . S
Zn448 N464 2.036 . S
Zn448 O476 2.053 . S
Zn448 O478 2.066 . S
O449 Zn448 2.055 . S
O449 C452 1.259 . S
C450 O478 1.256 . S
C450 O479 1.244 . S
Zn451 O453 2.046 . S
Zn451 O455 2.055 . S
Zn451 N457 2.036 . S
Zn451 O475 2.066 . S
Zn451 O479 2.053 . S
C452 O449 1.259 . S
C452 O453 1.254 . S
O453 Zn451 2.046 . S
O453 C452 1.254 . S
C454 O475 1.256 . S
C454 O476 1.244 . S
O455 Zn451 2.055 . S
O455 C477 1.259 . S
O456 Zn448 2.046 . S
O456 C477 1.254 . S
N457 Zn451 2.036 . S
N457 C458 1.298 . S
N457 N460 1.398 . S
C458 N457 1.298 . S
C458 N461 1.367 . S
C458 C471 1.481 . S
C459 N460 1.299 . S
C459 N461 1.379 . S
N460 N457 1.398 . S
N460 C459 1.299 . S
N461 C458 1.367 . S
N461 C459 1.379 . S
C462 N464 1.298 . S
C462 N466 1.367 . S
C462 C470 1.481 . S
C463 N465 1.299 . S
C463 N466 1.379 . S
N464 Zn448 2.036 . S
N464 C462 1.298 . S
N464 N465 1.398 . S
N465 C463 1.299 . S
N465 N464 1.398 . S
N466 C462 1.367 . S
N466 C463 1.379 . S
H467 C470 0.980 . S
H468 C470 0.981 . S
H469 C470 0.981 . S
C470 C462 1.481 . S
C470 H467 0.980 . S
C470 H468 0.981 . S
C470 H469 0.981 . S
C471 C458 1.481 . S
C471 H472 0.980 . S
C471 H473 0.981 . S
C471 H474 0.981 . S
H472 C471 0.980 . S
H473 C471 0.981 . S
H474 C471 0.981 . S
O475 Zn451 2.066 . S
O475 C454 1.256 . S
O476 Zn448 2.053 . S
O476 C454 1.244 . S
C477 O455 1.259 . S
C477 O456 1.254 . S
O478 Zn448 2.066 . S
O478 C450 1.256 . S
O479 C450 1.244 . S
O479 Zn451 2.053 . S
Zn480 O481 2.055 . S
Zn480 O488 2.046 . S
Zn480 N496 2.036 . S
Zn480 O508 2.053 . S
Zn480 O510 2.066 . S
O481 Zn480 2.055 . S
O481 C484 1.259 . S
C482 O510 1.256 . S
C482 O511 1.244 . S
Zn483 O485 2.046 . S
Zn483 O487 2.055 . S
Zn483 N489 2.036 . S
Zn483 O507 2.066 . S
Zn483 O511 2.053 . S
C484 O481 1.259 . S
C484 O485 1.254 . S
O485 Zn483 2.046 . S
O485 C484 1.254 . S
C486 O507 1.256 . S
C486 O508 1.244 . S
O487 Zn483 2.055 . S
O487 C509 1.259 . S
O488 Zn480 2.046 . S
O488 C509 1.254 . S
N489 Zn483 2.036 . S
N489 C490 1.298 . S
N489 N492 1.398 . S
C490 N489 1.298 . S
C490 N493 1.367 . S
C490 C503 1.481 . S
C491 N492 1.299 . S
C491 N493 1.379 . S
N492 N489 1.398 . S
N492 C491 1.299 . S
N493 C490 1.367 . S
N493 C491 1.379 . S
C494 N496 1.298 . S
C494 N498 1.367 . S
C494 C502 1.481 . S
C495 N497 1.299 . S
C495 N498 1.379 . S
N496 Zn480 2.036 . S
N496 C494 1.298 . S
N496 N497 1.398 . S
N497 C495 1.299 . S
N497 N496 1.398 . S
N498 C494 1.367 . S
N498 C495 1.379 . S
H499 C502 0.980 . S
H500 C502 0.981 . S
H501 C502 0.981 . S
C502 C494 1.481 . S
C502 H499 0.980 . S
C502 H500 0.981 . S
C502 H501 0.981 . S
C503 C490 1.481 . S
C503 H504 0.980 . S
C503 H505 0.981 . S
C503 H506 0.981 . S
H504 C503 0.980 . S
H505 C503 0.981 . S
H506 C503 0.981 . S
O507 Zn483 2.066 . S
O507 C486 1.256 . S
O508 Zn480 2.053 . S
O508 C486 1.244 . S
C509 O487 1.259 . S
C509 O488 1.254 . S
O510 Zn480 2.066 . S
O510 C482 1.256 . S
O511 C482 1.244 . S
O511 Zn483 2.053 . S
C512 C513 1.387 . S
C512 H516 0.950 . S
C512 C521 1.390 . S
C513 C512 1.387 . S
C513 C515 1.387 . S
H514 C521 0.950 . S
C515 C513 1.387 . S
C515 C517 1.390 . S
C515 H519 0.950 . S
H516 C512 0.950 . S
C517 C515 1.390 . S
C517 C518 1.387 . S
C517 H520 0.950 . S
C518 C517 1.387 . S
C518 C521 1.387 . S
H519 C515 0.950 . S
H520 C517 0.950 . S
C521 C512 1.390 . S
C521 H514 0.950 . S
C521 C518 1.387 . S
C522 C523 1.387 . S
C522 H526 0.950 . S
C522 C531 1.390 . S
C523 C522 1.387 . S
C523 C525 1.387 . S
H524 C531 0.950 . S
C525 C523 1.387 . S
C525 C527 1.390 . S
C525 H529 0.950 . S
H526 C522 0.950 . S
C527 C525 1.390 . S
C527 C528 1.387 . S
C527 H530 0.950 . S
C528 C527 1.387 . S
C528 C531 1.387 . S
H529 C525 0.950 . S
H530 C527 0.950 . S
C531 C522 1.390 . S
C531 H524 0.950 . S
C531 C528 1.387 . S
C532 C533 1.387 . S
C532 H536 0.950 . S
C532 C541 1.390 . S
C533 C532 1.387 . S
C533 C535 1.387 . S
H534 C541 0.949 1_556 S
C535 C533 1.387 . S
C535 C537 1.390 . S
C535 H539 0.950 . S
H536 C532 0.950 . S
C537 C535 1.390 . S
C537 C538 1.387 1_554 S
C537 H540 0.950 1_554 S
C538 C537 1.387 1_556 S
C538 C541 1.387 1_556 S
H539 C535 0.950 . S
H540 C537 0.950 1_556 S
C541 C532 1.390 . S
C541 H534 0.949 1_554 S
C541 C538 1.387 1_554 S
C542 C543 1.387 . S
C542 H546 0.950 . S
C542 C551 1.390 . S
C543 C542 1.387 . S
C543 C545 1.387 . S
H544 C551 0.950 . S
C545 C543 1.387 . S
C545 C547 1.390 . S
C545 H549 0.950 . S
H546 C542 0.950 . S
C547 C545 1.390 . S
C547 C548 1.387 . S
C547 H550 0.950 . S
C548 C547 1.387 . S
C548 C551 1.387 . S
H549 C545 0.950 . S
H550 C547 0.950 . S
C551 C542 1.390 . S
C551 H544 0.950 . S
C551 C548 1.387 . S
C552 C553 1.387 . S
C552 H556 0.950 . S
C552 C561 1.390 . S
C553 C552 1.387 . S
C553 C555 1.387 . S
H554 C561 0.950 . S
C555 C553 1.387 . S
C555 C557 1.390 . S
C555 H559 0.950 . S
H556 C552 0.950 . S
C557 C555 1.390 . S
C557 C558 1.387 . S
C557 H560 0.950 . S
C558 C557 1.387 . S
C558 C561 1.387 . S
H559 C555 0.950 . S
H560 C557 0.950 . S
C561 C552 1.390 . S
C561 H554 0.950 . S
C561 C558 1.387 . S
C562 C563 1.387 . S
C562 H566 0.950 . S
C562 C571 1.390 . S
C563 C562 1.387 . S
C563 C565 1.387 . S
H564 C571 0.950 . S
C565 C563 1.387 . S
C565 C567 1.390 . S
C565 H569 0.950 . S
H566 C562 0.950 . S
C567 C565 1.390 . S
C567 C568 1.387 . S
C567 H570 0.950 . S
C568 C567 1.387 . S
C568 C571 1.387 . S
H569 C565 0.950 . S
H570 C567 0.950 . S
C571 C562 1.390 . S
C571 H564 0.950 . S
C571 C568 1.387 . S
C572 C573 1.387 . S
C572 H576 0.950 . S
C572 C581 1.390 . S
C573 C572 1.387 . S
C573 C575 1.387 . S
H574 C581 0.950 1_554 S
C575 C573 1.387 . S
C575 C577 1.390 . S
C575 H579 0.950 . S
H576 C572 0.950 . S
C577 C575 1.390 . S
C577 C578 1.387 1_556 S
C577 H580 0.950 1_556 S
C578 C577 1.387 1_554 S
C578 C581 1.387 1_554 S
H579 C575 0.950 . S
H580 C577 0.950 1_554 S
C581 C572 1.390 . S
C581 H574 0.950 1_556 S
C581 C578 1.387 1_556 S
C582 C583 1.387 . S
C582 H586 0.950 . S
C582 C591 1.390 . S
C583 C582 1.387 . S
C583 C585 1.387 . S
H584 C591 0.950 . S
C585 C583 1.387 . S
C585 C587 1.390 . S
C585 H589 0.950 . S
H586 C582 0.950 . S
C587 C585 1.390 . S
C587 C588 1.387 . S
C587 H590 0.950 . S
C588 C587 1.387 . S
C588 C591 1.387 . S
H589 C585 0.950 . S
H590 C587 0.950 . S
C591 C582 1.390 . S
C591 H584 0.950 . S
C591 C588 1.387 . S
C592 C593 1.387 . S
C592 H596 0.950 . S
C592 C601 1.390 . S
C593 C592 1.387 . S
C593 C595 1.387 . S
H594 C601 0.950 . S
C595 C593 1.387 . S
C595 C597 1.390 . S
C595 H599 0.950 . S
H596 C592 0.950 . S
C597 C595 1.390 . S
C597 C598 1.387 . S
C597 H600 0.950 . S
C598 C597 1.387 . S
C598 C601 1.387 . S
H599 C595 0.950 . S
H600 C597 0.950 . S
C601 C592 1.390 . S
C601 H594 0.950 . S
C601 C598 1.387 . S
C602 C603 1.387 . S
C602 H606 0.950 . S
C602 C611 1.390 . S
C603 C602 1.387 . S
C603 C605 1.387 . S
H604 C611 0.950 . S
C605 C603 1.387 . S
C605 C607 1.390 . S
C605 H609 0.950 . S
H606 C602 0.950 . S
C607 C605 1.390 . S
C607 C608 1.387 . S
C607 H610 0.950 . S
C608 C607 1.387 . S
C608 C611 1.387 . S
H609 C605 0.950 . S
H610 C607 0.950 . S
C611 C602 1.390 . S
C611 H604 0.950 . S
C611 C608 1.387 . S
C612 C613 1.387 1_556 S
C612 H616 0.950 1_556 S
C612 C621 1.390 . S
C613 C612 1.387 1_554 S
C613 C615 1.387 1_554 S
H614 C621 0.950 . S
C615 C613 1.387 1_556 S
C615 C617 1.390 . S
C615 H619 0.950 1_556 S
H616 C612 0.950 1_554 S
C617 C615 1.390 . S
C617 C618 1.387 . S
C617 H620 0.950 . S
C618 C617 1.387 . S
C618 C621 1.387 . S
H619 C615 0.950 1_554 S
H620 C617 0.950 . S
C621 C612 1.390 . S
C621 H614 0.950 . S
C621 C618 1.387 . S
C622 C623 1.387 . S
C622 H626 0.950 . S
C622 C631 1.390 . S
C623 C622 1.387 . S
C623 C625 1.387 . S
H624 C631 0.950 . S
C625 C623 1.387 . S
C625 C627 1.390 . S
C625 H629 0.950 . S
H626 C622 0.950 . S
C627 C625 1.390 . S
C627 C628 1.387 . S
C627 H630 0.950 . S
C628 C627 1.387 . S
C628 C631 1.387 . S
H629 C625 0.950 . S
H630 C627 0.950 . S
C631 C622 1.390 . S
C631 H624 0.950 . S
C631 C628 1.387 . S
C632 C633 1.387 . S
C632 H636 0.950 . S
C632 C641 1.390 . S
C633 C632 1.387 . S
C633 C635 1.387 . S
H634 C641 0.950 . S
C635 C633 1.387 . S
C635 C637 1.390 . S
C635 H639 0.950 . S
H636 C632 0.950 . S
C637 C635 1.390 . S
C637 C638 1.387 . S
C637 H640 0.950 . S
C638 C637 1.387 . S
C638 C641 1.387 . S
H639 C635 0.950 . S
H640 C637 0.950 . S
C641 C632 1.390 . S
C641 H634 0.950 . S
C641 C638 1.387 . S
C642 C643 1.387 . S
C642 H646 0.950 . S
C642 C651 1.390 . S
C643 C642 1.387 . S
C643 C645 1.387 . S
H644 C651 0.950 . S
C645 C643 1.387 . S
C645 C647 1.390 . S
C645 H649 0.950 . S
H646 C642 0.950 . S
C647 C645 1.390 . S
C647 C648 1.387 . S
C647 H650 0.950 . S
C648 C647 1.387 . S
C648 C651 1.387 . S
H649 C645 0.950 . S
H650 C647 0.950 . S
C651 C642 1.390 . S
C651 H644 0.950 . S
C651 C648 1.387 . S
C652 C653 1.387 . S
C652 H656 0.950 . S
C652 C661 1.390 . S
C653 C652 1.387 . S
C653 C655 1.387 . S
H654 C661 0.950 1_556 S
C655 C653 1.387 . S
C655 C657 1.390 . S
C655 H659 0.950 . S
H656 C652 0.950 . S
C657 C655 1.390 . S
C657 C658 1.387 1_554 S
C657 H660 0.950 1_554 S
C658 C657 1.387 1_556 S
C658 C661 1.387 1_556 S
H659 C655 0.950 . S
H660 C657 0.950 1_556 S
C661 C652 1.390 . S
C661 H654 0.950 1_554 S
C661 C658 1.387 1_554 S
C662 C663 1.387 . S
C662 H666 0.950 . S
C662 C671 1.390 . S
C663 C662 1.387 . S
C663 C665 1.387 . S
H664 C671 0.950 . S
C665 C663 1.387 . S
C665 C667 1.390 . S
C665 H669 0.950 . S
H666 C662 0.950 . S
C667 C665 1.390 . S
C667 C668 1.387 . S
C667 H670 0.950 . S
C668 C667 1.387 . S
C668 C671 1.387 . S
H669 C665 0.950 . S
H670 C667 0.950 . S
C671 C662 1.390 . S
C671 H664 0.950 . S
C671 C668 1.387 . S
C672 C673 1.387 . S
C672 H676 0.950 . S
C672 C681 1.390 . S
C673 C672 1.387 . S
C673 C675 1.390 . S
H674 C681 0.950 . S
C675 C673 1.390 . S
C675 C677 1.390 . S
C675 H679 0.947 1_554 S
H676 C672 0.950 . S
C677 C675 1.390 . S
C677 C678 1.387 . S
C677 H680 0.950 1_554 S
C678 C677 1.387 . S
C678 C681 1.387 . S
H679 C675 0.947 1_556 S
H680 C677 0.950 1_556 S
C681 C672 1.390 . S
C681 H674 0.950 . S
C681 C678 1.387 . S
C682 C683 1.387 . S
C682 H686 0.950 . S
C682 C691 1.390 . S
C683 C682 1.387 . S
C683 C685 1.387 . S
H684 C691 0.950 . S
C685 C683 1.387 . S
C685 C687 1.390 . S
C685 H689 0.950 . S
H686 C682 0.950 . S
C687 C685 1.390 . S
C687 C688 1.387 . S
C687 H690 0.950 . S
C688 C687 1.387 . S
C688 C691 1.387 . S
H689 C685 0.950 . S
H690 C687 0.950 . S
C691 C682 1.390 . S
C691 H684 0.950 . S
C691 C688 1.387 . S
C692 C693 1.387 . S
C692 H696 0.950 . S
C692 C701 1.390 . S
C693 C692 1.387 . S
C693 C695 1.387 . S
H694 C701 0.950 . S
C695 C693 1.387 . S
C695 C697 1.390 . S
C695 H699 0.950 . S
H696 C692 0.950 . S
C697 C695 1.390 . S
C697 C698 1.387 . S
C697 H700 0.950 . S
C698 C697 1.387 . S
C698 C701 1.387 . S
H699 C695 0.950 . S
H700 C697 0.950 . S
C701 C692 1.390 . S
C701 H694 0.950 . S
C701 C698 1.387 . S
C702 C703 1.387 . S
C702 H706 0.950 . S
C702 C711 1.390 1_655 S
C703 C702 1.387 . S
C703 C705 1.387 1_556 S
H704 C711 0.950 . S
C705 C703 1.387 1_554 S
C705 C707 1.390 1_655 S
C705 H709 0.950 . S
H706 C702 0.950 . S
C707 C705 1.390 1_455 S
C707 C708 1.387 1_554 S
C707 H710 0.950 . S
C708 C707 1.387 1_556 S
C708 C711 1.387 . S
H709 C705 0.950 . S
H710 C707 0.950 . S
C711 C702 1.390 1_455 S
C711 H704 0.950 . S
C711 C708 1.387 . S
C712 C713 1.387 . S
C712 H716 0.950 . S
C712 C721 1.390 . S
C713 C712 1.387 . S
C713 C715 1.387 . S
H714 C721 0.950 . S
C715 C713 1.387 . S
C715 C717 1.390 . S
C715 H719 0.950 1_556 S
H716 C712 0.950 . S
C717 C715 1.390 . S
C717 C718 1.387 . S
C717 H720 0.950 1_556 S
C718 C717 1.387 . S
C718 C721 1.387 . S
H719 C715 0.950 1_554 S
H720 C717 0.950 1_554 S
C721 C712 1.390 . S
C721 H714 0.950 . S
C721 C718 1.387 . S
C722 C723 1.387 . S
C722 H726 0.950 . S
C722 C731 1.390 1_455 S
C723 C722 1.387 . S
C723 C725 1.387 1_554 S
H724 C731 0.950 . S
C725 C723 1.387 1_556 S
C725 C727 1.390 1_455 S
C725 H729 0.950 . S
H726 C722 0.950 . S
C727 C725 1.390 1_655 S
C727 C728 1.387 1_556 S
C727 H730 0.950 . S
C728 C727 1.387 1_554 S
C728 C731 1.387 . S
H729 C725 0.950 . S
H730 C727 0.950 . S
C731 C722 1.390 1_655 S
C731 H724 0.950 . S
C731 C728 1.387 . S
C732 C733 1.387 . S
C732 H736 0.950 . S
C732 C741 1.390 . S
C733 C732 1.387 . S
C733 C735 1.387 . S
H734 C741 0.950 . S
C735 C733 1.387 . S
C735 C737 1.390 . S
C735 H739 0.950 . S
H736 C732 0.950 . S
C737 C735 1.390 . S
C737 C738 1.387 . S
C737 H740 0.950 . S
C738 C737 1.387 . S
C738 C741 1.387 . S
H739 C735 0.950 . S
H740 C737 0.950 . S
C741 C732 1.390 . S
C741 H734 0.950 . S
C741 C738 1.387 . S
C742 C743 1.387 . S
C742 H746 0.950 . S
C742 C751 1.390 . S
C743 C742 1.387 . S
C743 C745 1.387 . S
H744 C751 0.950 . S
C745 C743 1.387 . S
C745 C747 1.390 . S
C745 H749 0.950 . S
H746 C742 0.950 . S
C747 C745 1.390 . S
C747 C748 1.387 . S
C747 H750 0.950 . S
C748 C747 1.387 . S
C748 C751 1.387 . S
H749 C745 0.950 . S
H750 C747 0.950 . S
C751 C742 1.390 . S
C751 H744 0.950 . S
C751 C748 1.387 . S
C752 C753 1.387 . S
C752 H756 0.950 . S
C752 C761 1.390 . S
C753 C752 1.387 . S
C753 C755 1.387 . S
H754 C761 0.950 . S
C755 C753 1.387 . S
C755 C757 1.390 . S
C755 H759 0.950 1_556 S
H756 C752 0.950 . S
C757 C755 1.390 . S
C757 C758 1.389 . S
C757 H760 0.948 1_556 S
C758 C757 1.389 . S
C758 C761 1.387 . S
H759 C755 0.950 1_554 S
H760 C757 0.948 1_554 S
C761 C752 1.390 . S
C761 H754 0.950 . S
C761 C758 1.387 . S
C762 C763 1.387 . S
C762 H766 0.950 . S
C762 C771 1.390 . S
C763 C762 1.387 . S
C763 C765 1.387 . S
H764 C771 0.950 . S
C765 C763 1.387 . S
C765 C767 1.390 . S
C765 H769 0.950 . S
H766 C762 0.950 . S
C767 C765 1.390 . S
C767 C768 1.387 . S
C767 H770 0.950 . S
C768 C767 1.387 . S
C768 C771 1.387 . S
H769 C765 0.950 . S
H770 C767 0.950 . S
C771 C762 1.390 . S
C771 H764 0.950 . S
C771 C768 1.387 . S
C772 C773 1.387 . S
C772 H776 0.950 . S
C772 C781 1.390 . S
C773 C772 1.387 . S
C773 C775 1.387 . S
H774 C781 0.950 . S
C775 C773 1.387 . S
C775 C777 1.390 . S
C775 H779 0.950 1_554 S
H776 C772 0.950 . S
C777 C775 1.390 . S
C777 C778 1.387 . S
C777 H780 0.950 1_554 S
C778 C777 1.387 . S
C778 C781 1.387 . S
H779 C775 0.950 1_556 S
H780 C777 0.950 1_556 S
C781 C772 1.390 . S
C781 H774 0.950 . S
C781 C778 1.387 . S
C782 C783 1.387 . S
C782 H786 0.950 . S
C782 C791 1.390 . S
C783 C782 1.387 . S
C783 C785 1.387 . S
H784 C791 0.950 . S
C785 C783 1.387 . S
C785 C787 1.390 . S
C785 H789 0.950 . S
H786 C782 0.950 . S
C787 C785 1.390 . S
C787 C788 1.387 . S
C787 H790 0.950 . S
C788 C787 1.387 . S
C788 C791 1.387 . S
H789 C785 0.950 . S
H790 C787 0.950 . S
C791 C782 1.390 . S
C791 H784 0.950 . S
C791 C788 1.387 . S
C792 C793 1.387 . S
C792 H796 0.950 . S
C792 C801 1.390 . S
C793 C792 1.387 . S
C793 C795 1.387 1_556 S
H794 C801 0.950 . S
C795 C793 1.387 1_554 S
C795 C797 1.390 . S
C795 H799 0.950 . S
H796 C792 0.950 . S
C797 C795 1.390 . S
C797 C798 1.387 1_554 S
C797 H800 0.950 . S
C798 C797 1.387 1_556 S
C798 C801 1.387 . S
H799 C795 0.950 . S
H800 C797 0.950 . S
C801 C792 1.390 . S
C801 H794 0.950 . S
C801 C798 1.387 . S
C802 C803 1.387 . S
C802 H806 0.950 . S
C802 C811 1.390 . S
C803 C802 1.387 . S
C803 C805 1.387 . S
H804 C811 0.950 . S
C805 C803 1.387 . S
C805 C807 1.390 . S
C805 H809 0.950 . S
H806 C802 0.950 . S
C807 C805 1.390 . S
C807 C808 1.387 . S
C807 H810 0.950 . S
C808 C807 1.387 . S
C808 C811 1.387 . S
H809 C805 0.950 . S
H810 C807 0.950 . S
C811 C802 1.390 . S
C811 H804 0.950 . S
C811 C808 1.387 . S
C812 C813 1.387 . S
C812 H816 0.950 . S
C812 C821 1.390 . S
C813 C812 1.387 . S
C813 C815 1.387 . S
H814 C821 0.950 . S
C815 C813 1.387 . S
C815 C817 1.390 . S
C815 H819 0.950 . S
H816 C812 0.950 . S
C817 C815 1.390 . S
C817 C818 1.387 . S
C817 H820 0.950 . S
C818 C817 1.387 . S
C818 C821 1.387 . S
H819 C815 0.950 . S
H820 C817 0.950 . S
C821 C812 1.390 . S
C821 H814 0.950 . S
C821 C818 1.387 . S
C822 C823 1.387 1_556 S
C822 H826 0.950 . S
C822 C831 1.390 . S
C823 C822 1.387 1_554 S
C823 C825 1.387 . S
H824 C831 0.950 . S
C825 C823 1.387 . S
C825 C827 1.390 . S
C825 H829 0.950 . S
H826 C822 0.950 . S
C827 C825 1.390 . S
C827 C828 1.387 . S
C827 H830 0.950 . S
C828 C827 1.387 . S
C828 C831 1.387 1_554 S
H829 C825 0.950 . S
H830 C827 0.950 . S
C831 C822 1.390 . S
C831 H824 0.950 . S
C831 C828 1.387 1_556 S
C832 C833 1.387 1_556 S
C832 H836 0.950 . S
C832 C841 1.390 . S
C833 C832 1.387 1_554 S
C833 C835 1.387 . S
H834 C841 0.950 . S
C835 C833 1.387 . S
C835 C837 1.390 . S
C835 H839 0.950 . S
H836 C832 0.950 . S
C837 C835 1.390 . S
C837 C838 1.387 1_554 S
C837 H840 0.950 . S
C838 C837 1.387 1_556 S
C838 C841 1.387 . S
H839 C835 0.950 . S
H840 C837 0.950 . S
C841 C832 1.390 . S
C841 H834 0.950 . S
C841 C838 1.387 . S
C842 C843 1.387 . S
C842 H846 0.950 . S
C842 C851 1.390 . S
C843 C842 1.387 . S
C843 C845 1.387 . S
H844 C851 0.950 . S
C845 C843 1.387 . S
C845 C847 1.390 . S
C845 H849 0.950 . S
H846 C842 0.950 . S
C847 C845 1.390 . S
C847 C848 1.387 . S
C847 H850 0.950 . S
C848 C847 1.387 . S
C848 C851 1.387 . S
H849 C845 0.950 . S
H850 C847 0.950 . S
C851 C842 1.390 . S
C851 H844 0.950 . S
C851 C848 1.387 . S
C852 C853 1.387 . S
C852 H856 0.950 . S
C852 C861 1.390 . S
C853 C852 1.387 . S
C853 C855 1.387 . S
H854 C861 0.950 . S
C855 C853 1.387 . S
C855 C857 1.390 . S
C855 H859 0.950 . S
H856 C852 0.950 . S
C857 C855 1.390 . S
C857 C858 1.387 . S
C857 H860 0.950 . S
C858 C857 1.387 . S
C858 C861 1.387 . S
H859 C855 0.950 . S
H860 C857 0.950 . S
C861 C852 1.390 . S
C861 H854 0.950 . S
C861 C858 1.387 . S
C862 C863 1.387 . S
C862 H866 0.950 . S
C862 C871 1.390 . S
C863 C862 1.387 . S
C863 C865 1.387 . S
H864 C871 0.950 . S
C865 C863 1.387 . S
C865 C867 1.390 . S
C865 H869 0.950 . S
H866 C862 0.950 . S
C867 C865 1.390 . S
C867 C868 1.387 . S
C867 H870 0.950 . S
C868 C867 1.387 . S
C868 C871 1.387 . S
H869 C865 0.950 . S
H870 C867 0.950 . S
C871 C862 1.390 . S
C871 H864 0.950 . S
C871 C868 1.387 . S
C872 C873 1.387 . S
C872 H876 0.950 . S
C872 C881 1.390 . S
C873 C872 1.387 . S
C873 C875 1.387 1_554 S
H874 C881 0.950 . S
C875 C873 1.387 1_556 S
C875 C877 1.390 . S
C875 H879 0.950 . S
H876 C872 0.950 . S
C877 C875 1.390 . S
C877 C878 1.387 . S
C877 H880 0.950 . S
C878 C877 1.387 . S
C878 C881 1.387 1_556 S
H879 C875 0.950 . S
H880 C877 0.950 . S
C881 C872 1.390 . S
C881 H874 0.950 . S
C881 C878 1.387 1_554 S
C882 C883 1.387 . S
C882 H886 0.950 . S
C882 C891 1.390 . S
C883 C882 1.387 . S
C883 C885 1.387 . S
H884 C891 0.950 . S
C885 C883 1.387 . S
C885 C887 1.390 . S
C885 H889 0.950 . S
H886 C882 0.950 . S
C887 C885 1.390 . S
C887 C888 1.387 . S
C887 H890 0.950 . S
C888 C887 1.387 . S
C888 C891 1.387 . S
H889 C885 0.950 . S
H890 C887 0.950 . S
C891 C882 1.390 . S
C891 H884 0.950 . S
C891 C888 1.387 . S
C892 C893 1.387 . S
C892 H896 0.950 . S
C892 C901 1.390 . S
C893 C892 1.387 . S
C893 C895 1.387 . S
H894 C901 0.950 . S
C895 C893 1.387 . S
C895 C897 1.390 . S
C895 H899 0.950 . S
H896 C892 0.950 . S
C897 C895 1.390 . S
C897 C898 1.387 . S
C897 H900 0.950 . S
C898 C897 1.387 . S
C898 C901 1.387 . S
H899 C895 0.950 . S
H900 C897 0.950 . S
C901 C892 1.390 . S
C901 H894 0.950 . S
C901 C898 1.387 . S
C902 C903 1.387 . S
C902 H906 0.950 . S
C902 C911 1.390 . S
C903 C902 1.387 . S
C903 C905 1.387 . S
H904 C911 0.950 . S
C905 C903 1.387 . S
C905 C907 1.390 . S
C905 H909 0.950 . S
H906 C902 0.950 . S
C907 C905 1.390 . S
C907 C908 1.387 . S
C907 H910 0.950 . S
C908 C907 1.387 . S
C908 C911 1.387 . S
H909 C905 0.950 . S
H910 C907 0.950 . S
C911 C902 1.390 . S
C911 H904 0.950 . S
C911 C908 1.387 . S
C912 C913 1.387 . S
C912 H916 0.950 . S
C912 C921 1.390 1_565 S
C913 C912 1.387 . S
C913 C915 1.387 . S
H914 C921 0.950 . S
C915 C913 1.387 . S
C915 C917 1.390 1_565 S
C915 H919 0.950 . S
H916 C912 0.950 . S
C917 C915 1.390 1_545 S
C917 C918 1.387 . S
C917 H920 0.950 . S
C918 C917 1.387 . S
C918 C921 1.387 . S
H919 C915 0.950 . S
H920 C917 0.950 . S
C921 C912 1.390 1_545 S
C921 H914 0.950 . S
C921 C918 1.387 . S
C922 C923 1.387 . S
C922 H926 0.950 . S
C922 C931 1.390 . S
C923 C922 1.387 . S
C923 C925 1.387 . S
H924 C931 0.950 . S
C925 C923 1.387 . S
C925 C927 1.390 . S
C925 H929 0.950 . S
H926 C922 0.950 . S
C927 C925 1.390 . S
C927 C928 1.387 . S
C927 H930 0.950 . S
C928 C927 1.387 . S
C928 C931 1.387 . S
H929 C925 0.950 . S
H930 C927 0.950 . S
C931 C922 1.390 . S
C931 H924 0.950 . S
C931 C928 1.387 . S
C932 C933 1.387 . S
C932 H936 0.950 . S
C932 C941 1.390 1_565 S
C933 C932 1.387 . S
C933 C935 1.387 1_554 S
H934 C941 0.950 . S
C935 C933 1.387 1_556 S
C935 C937 1.390 1_565 S
C935 H939 0.950 . S
H936 C932 0.950 . S
C937 C935 1.390 1_545 S
C937 C938 1.387 . S
C937 H940 0.950 . S
C938 C937 1.387 . S
C938 C941 1.387 1_556 S
H939 C935 0.950 . S
H940 C937 0.950 . S
C941 C932 1.390 1_545 S
C941 H934 0.950 . S
C941 C938 1.387 1_554 S
C942 C943 1.387 . S
C942 H946 0.950 . S
C942 C951 1.390 . S
C943 C942 1.387 . S
C943 C945 1.387 . S
H944 C951 0.950 . S
C945 C943 1.387 . S
C945 C947 1.390 . S
C945 H949 0.950 . S
H946 C942 0.950 . S
C947 C945 1.390 . S
C947 C948 1.387 . S
C947 H950 0.950 . S
C948 C947 1.387 . S
C948 C951 1.387 . S
H949 C945 0.950 . S
H950 C947 0.950 . S
C951 C942 1.390 . S
C951 H944 0.950 . S
C951 C948 1.387 . S
C952 C953 1.387 . S
C952 H956 0.950 . S
C952 C961 1.390 1_565 S
C953 C952 1.387 . S
C953 C955 1.387 . S
H954 C961 0.950 . S
C955 C953 1.387 . S
C955 C957 1.390 1_565 S
C955 H959 0.950 . S
H956 C952 0.950 . S
C957 C955 1.390 1_545 S
C957 C958 1.387 . S
C957 H960 0.950 . S
C958 C957 1.387 . S
C958 C961 1.387 . S
H959 C955 0.950 . S
H960 C957 0.950 . S
C961 C952 1.390 1_545 S
C961 H954 0.950 . S
C961 C958 1.387 . S
C962 C963 1.387 . S
C962 H966 0.950 . S
C962 C971 1.390 . S
C963 C962 1.387 . S
C963 C965 1.387 . S
H964 C971 0.950 . S
C965 C963 1.387 . S
C965 C967 1.390 . S
C965 H969 0.950 . S
H966 C962 0.950 . S
C967 C965 1.390 . S
C967 C968 1.387 . S
C967 H970 0.950 . S
C968 C967 1.387 . S
C968 C971 1.387 . S
H969 C965 0.950 . S
H970 C967 0.950 . S
C971 C962 1.390 . S
C971 H964 0.950 . S
C971 C968 1.387 . S
C972 C973 1.387 . S
C972 H976 0.950 . S
C972 C981 1.390 1_546 S
C973 C972 1.387 . S
C973 C975 1.387 . S
H974 C981 0.950 . S
C975 C973 1.387 . S
C975 C977 1.390 1_545 S
C975 H979 0.950 . S
H976 C972 0.950 . S
C977 C975 1.390 1_565 S
C977 C978 1.387 1_556 S
C977 H980 0.950 1_556 S
C978 C977 1.387 1_554 S
C978 C981 1.387 . S
H979 C975 0.950 . S
H980 C977 0.950 1_554 S
C981 C972 1.390 1_564 S
C981 H974 0.950 . S
C981 C978 1.387 . S
C982 C983 1.387 . S
C982 H986 0.950 . S
C982 C991 1.390 . S
C983 C982 1.387 . S
C983 C985 1.387 . S
H984 C991 0.950 . S
C985 C983 1.387 . S
C985 C987 1.390 . S
C985 H989 0.950 . S
H986 C982 0.950 . S
C987 C985 1.390 . S
C987 C988 1.387 . S
C987 H990 0.950 . S
C988 C987 1.387 . S
C988 C991 1.387 . S
H989 C985 0.950 . S
H990 C987 0.950 . S
C991 C982 1.390 . S
C991 H984 0.950 . S
C991 C988 1.387 . S
C513 C4 1.480 . S
C518 C6 1.486 . S
C523 C61 1.482 1_556 S
C528 C34 1.489 . S
C533 C93 1.481 . S
C538 C66 1.487 . S
C543 C98 1.493 . S
C548 C125 1.484 . S
C553 C134 1.486 . S
C558 C132 1.480 . S
C563 C189 1.483 . S
C568 C162 1.492 . S
C573 C221 1.481 . S
C578 C194 1.486 . S
C583 C228 1.480 1_554 S
C588 C230 1.486 . S
C593 C260 1.481 . S
C598 C262 1.485 . S
C603 C294 1.489 . S
C608 C292 1.482 1_554 S
C613 C322 1.487 . S
C618 C349 1.480 . S
C623 C354 1.492 . S
C628 C381 1.483 . S
C633 C386 1.487 . S
C638 C413 1.481 . S
C643 C418 1.492 . S
C648 C445 1.483 . S
C653 C452 1.480 . S
C658 C454 1.486 . S
C663 C484 1.481 1_556 S
C668 C486 1.487 . S
C673 C29 2.094 . S
C678 C356 2.080 . S
C683 C36 2.174 . S
C688 C509 2.180 . S
C693 C68 1.364 . S
C698 N306 1.331 . S
C703 N109 1.630 . S
C708 N429 1.595 . S
C713 N146 1.565 . S
C718 C420 1.633 . S
C723 N365 1.628 . S
C728 N173 1.598 . S
C733 C196 1.212 . S
C738 N498 1.141 . S
C743 C253 2.180 . S
C748 C317 2.174 . S
C753 C100 2.079 . S
C758 C285 2.094 . S
C763 N45 1.331 . S
C768 C324 1.364 . S
C773 N397 1.567 . S
C778 C164 1.634 . S
C783 N242 1.145 . S
C788 C477 1.211 . S
C793 N274 1.351 1_455 S
C798 C157 1.390 . S
C803 N205 1.110 . S
C808 N333 1.141 . S
C813 N77 1.138 . S
C818 N466 1.115 . S
C823 N18 1.351 1_655 S
C828 C388 1.389 . S
C833 C2 1.635 . S
C838 N141 1.616 . S
C843 C38 1.876 . S
C848 N178 1.868 . S
C853 C70 1.347 . S
C858 C198 1.354 . S
C863 N114 2.052 . S
C868 C226 2.068 . S
C873 N402 1.618 . S
C878 C258 1.634 . S
C883 N434 1.867 . S
C888 C290 1.877 . S
C893 C326 1.348 . S
C898 C450 1.355 . S
C903 C482 2.068 . S
C908 N370 2.052 . S
C913 N50 1.162 . S
C918 N237 1.165 . S
C923 C130 1.464 . S
C928 N82 1.456 . S
C933 C166 2.328 . S
C938 C102 2.328 . S
C943 N13 1.058 . S
C948 N210 1.122 . S
C953 N493 1.165 . S
C958 N301 1.162 . S
C963 C390 1.463 . S
C968 N338 1.457 . S
C973 C422 2.328 . S
C978 C358 2.328 . S
C983 N461 1.123 . S
C988 N269 1.059 . S
