# Generated by pormake.
# Topology sml, (6)-cn, num edge types: 1
# Building blocks:
#     Node 0, Type 0, BuildingBlock: CUKXOW_clean_sbu_0, # of connection points: 6
#     Node 1, Type 0, BuildingBlock: CUKXOW_clean_sbu_0, # of connection points: 6
#     Node 2, Type 0, BuildingBlock: CUKXOW_clean_sbu_0, # of connection points: 6
#     Node 3, Type 0, BuildingBlock: CUKXOW_clean_sbu_0, # of connection points: 6
#     Node 4, Type 0, BuildingBlock: CUKXOW_clean_sbu_0, # of connection points: 6
#     Node 5, Type 0, BuildingBlock: CUKXOW_clean_sbu_0, # of connection points: 6
#     Edge 6, Type (0, 0), BuildingBlock: XIVTED_clean_linker_0, # of connection points: 2
#     Edge 7, Type (0, 0), BuildingBlock: XIVTED_clean_linker_0, # of connection points: 2
#     Edge 8, Type (0, 0), BuildingBlock: XIVTED_clean_linker_0, # of connection points: 2
#     Edge 9, Type (0, 0), BuildingBlock: XIVTED_clean_linker_0, # of connection points: 2
#     Edge 10, Type (0, 0), BuildingBlock: XIVTED_clean_linker_0, # of connection points: 2
#     Edge 11, Type (0, 0), BuildingBlock: XIVTED_clean_linker_0, # of connection points: 2
#     Edge 12, Type (0, 0), BuildingBlock: XIVTED_clean_linker_0, # of connection points: 2
#     Edge 13, Type (0, 0), BuildingBlock: XIVTED_clean_linker_0, # of connection points: 2
#     Edge 14, Type (0, 0), BuildingBlock: XIVTED_clean_linker_0, # of connection points: 2
#     Edge 15, Type (0, 0), BuildingBlock: XIVTED_clean_linker_0, # of connection points: 2
#     Edge 16, Type (0, 0), BuildingBlock: XIVTED_clean_linker_0, # of connection points: 2
#     Edge 17, Type (0, 0), BuildingBlock: XIVTED_clean_linker_0, # of connection points: 2
#     Edge 18, Type (0, 0), BuildingBlock: XIVTED_clean_linker_0, # of connection points: 2
#     Edge 19, Type (0, 0), BuildingBlock: XIVTED_clean_linker_0, # of connection points: 2
#     Edge 20, Type (0, 0), BuildingBlock: XIVTED_clean_linker_0, # of connection points: 2
#     Edge 21, Type (0, 0), BuildingBlock: XIVTED_clean_linker_0, # of connection points: 2
#     Edge 22, Type (0, 0), BuildingBlock: XIVTED_clean_linker_0, # of connection points: 2
#     Edge 23, Type (0, 0), BuildingBlock: XIVTED_clean_linker_0, # of connection points: 2
# Relax obj value: 0.147
# Max RMSD: 0.193
# Mean RMSD: 0.193
data_MOF--net-sml--node1-CUKXOW_clean_sbu_0--edge1-XIVTED_clean_linker_0
_symmetry_space_group_name_H-M    P1
_symmetry_Int_Tables_number       1
_symmetry_cell_setting            triclinic
loop_
_symmetry_equiv_pos_as_xyz
'x, y, z'
_cell_length_a     43.292761
_cell_length_b     43.282987
_cell_length_c     14.34968
_cell_angle_alpha  89.840527
_cell_angle_beta   90.286803
_cell_angle_gamma 120.05928
loop_
_atom_site_label
_atom_site_type_symbol
_atom_site_fract_x
_atom_site_fract_y
_atom_site_fract_z
_atom_type_partial_charge
Tb0 Tb 0.18708 0.38383 1.03389 0.0
C1 C 0.10929 0.36401 0.07717 0.0
Tb2 Tb 0.17336 0.44457 0.07603 0.0
O3 O 0.17146 0.36348 0.1754 0.0
O4 O 0.19607 0.41822 0.14892 0.0
O5 O 0.12901 0.35347 1.03143 0.0
C6 C 0.15748 0.49129 0.15164 0.0
O7 O 0.12234 0.39715 0.10852 0.0
C8 C 0.17924 0.4341 0.89881 0.0
C9 C 0.25148 0.46428 1.03556 0.0
O10 O 0.14865 0.47813 0.06827 0.0
O11 O 0.1749 0.47789 0.19241 0.0
O12 O 0.18831 0.46506 0.93431 0.0
O13 O 0.16463 0.41039 0.96059 0.0
O14 O 0.23103 0.47429 0.07914 0.0
O15 O 0.2388 0.4314 1.00272 0.0
C16 C 0.20942 0.33983 0.97468 0.0
O17 O 0.21316 0.35268 0.05788 0.0
O18 O 0.19266 0.35159 0.92331 0.0
C19 C 0.18138 0.39459 0.21088 0.0
Tb20 Tb 0.79363 0.19356 0.34718 0.0
C21 C 0.73148 0.11697 0.38699 0.0
Tb22 Tb 0.72139 0.18536 0.38954 0.0
O23 O 0.797 0.17721 0.4891 0.0
O24 O 0.77032 0.2053 0.46192 0.0
O25 O 0.76299 0.13552 0.34563 0.0
C26 C 0.6609 0.17322 0.47083 0.0
O27 O 0.71303 0.13198 0.41706 0.0
C28 C 0.73688 0.18968 0.21222 0.0
C29 C 0.78309 0.26151 0.34318 0.0
O30 O 0.66365 0.16494 0.38567 0.0
O31 O 0.69211 0.18819 0.51 0.0
O32 O 0.71652 0.20069 0.24751 0.0
O33 O 0.74474 0.17406 0.27435 0.0
O34 O 0.75245 0.24307 0.38801 0.0
O35 O 0.80151 0.24659 0.31265 0.0
C36 C 0.85878 0.2119 0.2862 0.0
O37 O 0.85062 0.21621 0.36989 0.0
O38 O 0.82995 0.19678 0.23554 0.0
C39 C 0.77769 0.18939 0.52431 0.0
Tb40 Tb 0.5935 0.80287 0.69556 0.0
C41 C 0.61662 0.74513 0.72959 0.0
Tb42 Tb 0.53388 0.72054 0.74297 0.0
O43 O 0.60699 0.81957 0.8435 0.0
O44 O 0.56843 0.76922 0.80829 0.0
O45 O 0.62547 0.77669 0.69129 0.0
C46 C 0.487 0.66339 0.83803 0.0
O47 O 0.58458 0.72231 0.76474 0.0
C48 C 0.54439 0.73405 0.56161 0.0
C49 C 0.50966 0.77597 0.69144 0.0
O50 O 0.50698 0.66307 0.77105 0.0
O51 O 0.49381 0.69585 0.85181 0.0
O52 O 0.52184 0.70281 0.59554 0.0
O53 O 0.55839 0.75434 0.63011 0.0
O54 O 0.50136 0.74561 0.73446 0.0
O55 O 0.54227 0.7989 0.66061 0.0
C56 C 0.62907 0.86712 0.61775 0.0
O57 O 0.60371 0.85682 0.67842 0.0
O58 O 0.63524 0.84107 0.60068 0.0
C59 C 0.5838 0.78866 0.8772 0.0
Tb60 Tb 0.78673 0.60157 0.9881 0.0
C61 C 0.86673 0.62282 1.02964 0.0
Tb62 Tb 0.80543 0.54131 1.03619 0.0
O63 O 0.77668 0.61219 0.13291 0.0
O64 O 0.79042 0.57447 0.10382 0.0
O65 O 0.84489 0.63223 0.98917 0.0
C66 C 0.81873 0.49452 0.12273 0.0
O67 O 0.85653 0.58995 0.0601 0.0
C68 C 0.79624 0.55005 0.85817 0.0
C69 C 0.72517 0.52045 1.00534 0.0
O70 O 0.83462 0.51186 0.04725 0.0
O71 O 0.79593 0.5038 0.14867 0.0
O72 O 0.79153 0.52037 0.89389 0.0
O73 O 0.80928 0.57391 0.92012 0.0
O74 O 0.74758 0.5118 0.04474 0.0
O75 O 0.73534 0.55262 0.97068 0.0
C76 C 0.76875 0.64282 0.89088 0.0
O77 O 0.75744 0.60931 0.87495 0.0
O78 O 0.79064 0.65335 0.96141 0.0
C79 C 0.78379 0.58904 0.17031 0.0
Tb80 Tb 0.16921 0.78776 0.35152 0.0
C81 C 0.23107 0.86381 0.41438 0.0
Tb82 Tb 0.24835 0.80015 0.40094 0.0
O83 O 0.15214 0.78266 0.4995 0.0
O84 O 0.2007 0.78964 0.4639 0.0
O85 O 0.20052 0.8459 0.36658 0.0
C86 C 0.30358 0.80348 0.49183 0.0
O87 O 0.25092 0.84981 0.4423 0.0
C88 C 0.23632 0.80134 0.21916 0.0
C89 C 0.1847 0.72285 0.35179 0.0
O90 O 0.30542 0.82749 0.43381 0.0
O91 O 0.27066 0.77789 0.49911 0.0
O92 O 0.26634 0.80633 0.25364 0.0
O93 O 0.21666 0.79698 0.28757 0.0
O94 O 0.21623 0.7424 0.39323 0.0
O95 O 0.16417 0.73574 0.32152 0.0
C96 C 0.10993 0.77618 0.26476 0.0
O97 O 0.1114 0.76332 0.3453 0.0
O98 O 0.14204 0.79589 0.2323 0.0
C99 C 0.18172 0.78623 0.53303 0.0
Tb100 Tb 0.37733 0.17775 0.72365 0.0
C101 C 0.3585 0.23588 0.7754 0.0
Tb102 Tb 0.43867 0.25167 0.76981 0.0
O103 O 0.35732 0.17153 0.86589 0.0
O104 O 0.412 0.20197 0.83972 0.0
O105 O 0.3475 0.206 0.72696 0.0
C106 C 0.48714 0.31334 0.84746 0.0
O107 O 0.39171 0.25528 0.80737 0.0
C108 C 0.42768 0.23707 0.5911 0.0
C109 C 0.45762 0.19384 0.71684 0.0
O110 O 0.47084 0.31016 0.76889 0.0
O111 O 0.47572 0.28187 0.88273 0.0
O112 O 0.45868 0.25872 0.62713 0.0
O113 O 0.4042 0.22737 0.65347 0.0
O114 O 0.46795 0.22333 0.76567 0.0
O115 O 0.42456 0.17436 0.68425 0.0
C116 C 0.33342 0.11202 0.65883 0.0
O117 O 0.3489 0.11998 0.7396 0.0
O118 O 0.34236 0.14136 0.61346 0.0
C119 C 0.38848 0.19247 0.90204 0.0
H120 H 0.29678 0.22283 0.68397 0.0
H121 H 0.24586 0.31756 0.08171 0.0
H122 H 0.3618 0.2751 0.92559 0.0
H123 H 0.21014 0.31429 0.79877 0.0
H124 H 0.27851 0.28838 1.03172 0.0
H125 H 0.25592 0.24433 0.73039 0.0
C126 C 0.30235 0.23865 0.7467 0.0
C127 C 0.33282 0.24746 0.80069 0.0
C128 C 0.2634 0.29383 0.98044 0.0
C129 C 0.28629 0.2713 0.85441 0.0
C130 C 0.24463 0.31038 1.00896 0.0
C131 C 0.22562 0.31867 0.944 0.0
C132 C 0.26314 0.28526 0.88618 0.0
C133 C 0.22473 0.30848 0.85076 0.0
C134 C 0.27918 0.25094 0.77279 0.0
C135 C 0.33889 0.26801 0.88124 0.0
N136 N 0.24349 0.29237 0.82422 0.0
N137 N 0.31579 0.27903 0.90576 0.0
H138 H 0.06159 0.30189 0.98589 0.0
H139 H 0.91845 0.2448 0.39133 0.0
H140 H 0.07297 0.36623 0.22702 0.0
H141 H 0.88315 0.21397 0.10759 0.0
H142 H 0.9799 0.27784 0.33761 0.0
H143 H -0.00024 0.2593 1.03422 0.0
C144 C 0.05113 0.30697 0.04878 0.0
C145 C 0.07221 0.33771 0.1022 0.0
C146 C 0.95877 0.26359 0.28707 0.0
C147 C 0.00268 0.28921 0.15824 0.0
C148 C 0.92371 0.24461 0.31765 0.0
C149 C 0.89575 0.22706 0.25353 0.0
C150 C 0.96609 0.26498 0.19162 0.0
C151 C 0.9041 0.22744 0.15896 0.0
C152 C 0.01602 0.28282 0.07598 0.0
C153 C 0.05755 0.34315 0.18308 0.0
N154 N 0.93872 0.24645 0.13039 0.0
N155 N 0.02385 0.31906 0.20883 0.0
H156 H 0.66312 0.06931 0.43393 0.0
H157 H 0.68885 0.90009 0.50453 0.0
H158 H 0.76441 0.07629 0.37875 0.0
H159 H 0.60635 0.9144 0.62899 0.0
H160 H 0.71443 0.96033 0.43481 0.0
H161 H 0.63862 0.00739 0.47816 0.0
C162 C 0.68028 0.0578 0.43077 0.0
C163 C 0.71608 0.07828 0.40391 0.0
C164 C 0.6907 0.95003 0.47733 0.0
C165 C 0.68799 0.00685 0.45558 0.0
C166 C 0.67616 0.91582 0.51684 0.0
C167 C 0.64561 0.90247 0.57282 0.0
C168 C 0.67404 0.97032 0.49317 0.0
C169 C 0.63005 0.92369 0.58678 0.0
C170 C 0.66622 0.02231 0.45625 0.0
C171 C 0.7367 0.06149 0.39963 0.0
N172 N 0.64435 0.95637 0.54721 0.0
N173 N 0.72244 0.02669 0.42617 0.0
H174 H 0.60505 0.67859 0.70035 0.0
H175 H 0.78459 0.7114 0.92775 0.0
H176 H 0.68849 0.78524 0.76824 0.0
H177 H 0.71843 0.62024 0.75468 0.0
H178 H 0.75172 0.74038 0.87055 0.0
H179 H 0.64713 0.65732 0.72111 0.0
C180 C 0.63243 0.69758 0.71905 0.0
C181 C 0.64337 0.73363 0.73323 0.0
C182 C 0.74491 0.71433 0.8439 0.0
C183 C 0.69167 0.70941 0.75846 0.0
C184 C 0.7636 0.69781 0.87648 0.0
C185 C 0.75384 0.66326 0.84658 0.0
C186 C 0.71607 0.69582 0.78226 0.0
C187 C 0.72655 0.64677 0.78015 0.0
C188 C 0.6565 0.68548 0.73043 0.0
C189 C 0.67916 0.75722 0.7566 0.0
N190 N 0.70826 0.66297 0.7513 0.0
N191 N 0.70203 0.74457 0.77018 0.0
H192 H 0.04835 0.76947 0.33028 0.0
H193 H 0.92603 0.6167 1.00944 0.0
H194 H 0.09552 0.75332 0.08492 0.0
H195 H 0.89222 0.69157 0.08469 0.0
H196 H -0.01218 0.6619 0.04834 0.0
H197 H -0.01045 0.73768 0.25439 0.0
C198 C 0.04631 0.75993 0.25952 0.0
C199 C 0.07653 0.76413 0.21305 0.0
C200 C 0.96688 0.66851 0.05472 0.0
C201 C 0.00975 0.72668 0.12829 0.0
C202 C 0.93175 0.64278 1.03329 0.0
C203 C 0.90422 0.65058 0.04415 0.0
C204 C 0.97413 0.70164 0.09028 0.0
C205 C 0.91286 0.68471 0.07511 0.0
C206 C 0.01292 0.74187 0.21649 0.0
C207 C 0.0727 0.7509 0.12214 0.0
N208 N 0.94705 0.70882 0.09926 0.0
N209 N 0.03963 0.73184 0.08332 0.0
H210 H 0.31705 0.05161 0.75224 0.0
H211 H 0.21485 0.9133 0.3408 0.0
H212 H 0.30297 0.08873 0.48473 0.0
H213 H 0.27391 0.89798 0.56193 0.0
H214 H 0.23605 0.97434 0.39933 0.0
H215 H 0.28861 -0.00893 0.69169 0.0
C216 C 0.30764 0.04693 0.68074 0.0
C217 C 0.31265 0.07521 0.62307 0.0
C218 C 0.24425 0.95742 0.43443 0.0
C219 C 0.28011 0.00574 0.5529 0.0
C220 C 0.23215 0.92268 0.40141 0.0
C221 C 0.24285 0.90061 0.44607 0.0
C222 C 0.26641 0.96954 0.51362 0.0
C223 C 0.26525 0.91406 0.52437 0.0
C224 C 0.29152 0.01235 0.64608 0.0
C225 C 0.29971 0.06755 0.53114 0.0
N226 N 0.27607 0.94745 0.55566 0.0
N227 N 0.28409 0.03338 0.49841 0.0
H228 H 0.15054 0.36984 0.80829 0.0
H229 H 0.21329 0.4588 0.30242 0.0
H230 H 0.20975 0.48349 0.76105 0.0
H231 H 0.14844 0.3454 0.34789 0.0
H232 H 0.21296 0.4685 0.47045 0.0
H233 H 0.15084 0.36017 0.64013 0.0
C234 C 0.16376 0.39272 0.76247 0.0
C235 C 0.18015 0.42749 0.79832 0.0
C236 C 0.1987 0.44149 0.44371 0.0
C237 C 0.18043 0.41676 0.60616 0.0
C238 C 0.19872 0.43599 0.34777 0.0
C239 C 0.18068 0.40129 0.3114 0.0
C240 C 0.18064 0.41201 0.50364 0.0
C241 C 0.1627 0.37261 0.37326 0.0
C242 C 0.16382 0.38724 0.66651 0.0
C243 C 0.19673 0.45624 0.73605 0.0
N244 N 0.16318 0.37859 0.46633 0.0
N245 N 0.19643 0.45025 0.64304 0.0
H246 H 0.76887 0.15738 0.12218 0.0
H247 H 0.75036 0.22596 0.61566 0.0
H248 H 0.72153 0.22313 0.07405 0.0
H249 H 0.79022 0.15368 0.66195 0.0
H250 H 0.74067 0.22636 0.78366 0.0
H251 H 0.77893 0.15741 0.9542 0.0
C252 C 0.76079 0.17197 0.07621 0.0
C253 C 0.74436 0.19027 0.11178 0.0
C254 C 0.75143 0.21031 0.75709 0.0
C255 C 0.75549 0.19027 0.91974 0.0
C256 C 0.75673 0.20992 0.66115 0.0
C257 C 0.77078 0.1895 0.62496 0.0
C258 C 0.76047 0.1903 0.81725 0.0
C259 C 0.77927 0.16975 0.68711 0.0
C260 C 0.76637 0.17187 0.98034 0.0
C261 C 0.7342 0.20859 0.04928 0.0
N262 N 0.77402 0.17066 0.78015 0.0
N263 N 0.73989 0.20811 0.95635 0.0
H264 H 0.58474 0.79987 0.48064 0.0
H265 H 0.54812 0.72223 0.95858 0.0
H266 H 0.51916 0.68817 0.4153 0.0
H267 H 0.60747 0.83442 1.02341 0.0
H268 H 0.53827 0.70883 0.12566 0.0
H269 H 0.59501 0.81308 0.31355 0.0
C270 C 0.57275 0.77816 0.43108 0.0
C271 C 0.55134 0.74292 0.46161 0.0
C272 C 0.55331 0.73641 0.10337 0.0
C273 C 0.56257 0.75763 0.27052 0.0
C274 C 0.55858 0.74399 1.00794 0.0
C275 C 0.57789 0.77943 0.97724 0.0
C276 C 0.56775 0.76453 0.16845 0.0
C277 C 0.59219 0.80669 0.04428 0.0
C278 C 0.57844 0.78565 0.33571 0.0
C279 C 0.53593 0.71574 0.39453 0.0
N280 N 0.58679 0.79871 0.13658 0.0
N281 N 0.54186 0.72363 0.30226 0.0
H282 H 0.78172 0.50276 0.71694 0.0
H283 H 0.76568 0.61853 0.31219 0.0
H284 H 0.80703 0.61107 0.76855 0.0
H285 H 0.8085 0.54943 0.26086 0.0
H286 H 0.76932 0.61021 0.48049 0.0
H287 H 0.77957 0.51273 0.54936 0.0
C288 C 0.78651 0.52856 0.69314 0.0
C289 C 0.79413 0.55601 0.75702 0.0
C290 C 0.7776 0.59662 0.43209 0.0
C291 C 0.79116 0.56732 0.56542 0.0
C292 C 0.77544 0.60121 0.33614 0.0
C293 C 0.78575 0.58363 0.27197 0.0
C294 C 0.7896 0.57378 0.46419 0.0
C295 C 0.79869 0.562 0.30718 0.0
C296 C 0.78541 0.53422 0.59753 0.0
C297 C 0.80037 0.58898 0.72199 0.0
N298 N 0.79987 0.55732 0.40078 0.0
N299 N 0.79838 0.59363 0.62855 0.0
H300 H 0.24753 0.80962 0.61416 0.0
H301 H 0.1703 0.76913 0.13554 0.0
H302 H 0.13655 0.76779 0.67954 0.0
H303 H 0.28263 0.82682 0.07398 0.0
H304 H 0.15711 0.76585 0.96841 0.0
H305 H 0.26098 0.81304 0.78162 0.0
C306 C 0.22599 0.80079 0.66374 0.0
C307 C 0.19087 0.78804 0.63311 0.0
C308 C 0.18468 0.77956 0.99135 0.0
C309 C 0.20593 0.79225 0.82457 0.0
C310 C 0.19213 0.78188 0.08694 0.0
C311 C 0.22752 0.79932 0.11872 0.0
C312 C 0.21289 0.79437 0.92689 0.0
C313 C 0.25493 0.81351 0.05231 0.0
C314 C 0.23366 0.803 0.75932 0.0
C315 C 0.16401 0.7777 0.70031 0.0
N316 N 0.24708 0.81078 0.95966 0.0
N317 N 0.17206 0.77994 0.79266 0.0
H318 H 0.36339 0.20115 0.4994 0.0
H319 H 0.45265 0.22506 0.99511 0.0
H320 H 0.47701 0.25543 0.45395 0.0
H321 H 0.33924 0.17605 1.03855 0.0
H322 H 0.46221 0.23573 0.16325 0.0
H323 H 0.3538 0.19015 0.33125 0.0
C324 C 0.38628 0.21057 0.45401 0.0
C325 C 0.42102 0.22919 0.49044 0.0
C326 C 0.43522 0.22273 0.13604 0.0
C327 C 0.41039 0.21701 0.29813 0.0
C328 C 0.42981 0.21684 1.03999 0.0
C329 C 0.39515 0.19991 1.00291 0.0
C330 C 0.40571 0.21144 0.19547 0.0
C331 C 0.36642 0.18922 0.06436 0.0
C332 C 0.38084 0.20444 0.35803 0.0
C333 C 0.44977 0.24104 0.42859 0.0
N334 N 0.37232 0.19512 0.1575 0.0
N335 N 0.44383 0.23478 0.33559 0.0
H336 H 0.12651 0.52596 0.06758 0.0
H337 H 0.20516 0.68128 0.44588 0.0
H338 H 0.17909 0.52324 0.32095 0.0
H339 H 0.13854 0.67827 0.21727 0.0
H340 H 0.192 0.62127 0.40591 0.0
H341 H 0.12653 0.5793 0.12505 0.0
C342 C 0.1376 0.53634 0.13584 0.0
C343 C 0.1531 0.52047 0.18942 0.0
C344 C 0.1799 0.63347 0.36488 0.0
C345 C 0.15351 0.58142 0.25511 0.0
C346 C 0.18749 0.66784 0.38759 0.0
C347 C 0.17319 0.68494 0.33429 0.0
C348 C 0.15823 0.6161 0.28732 0.0
C349 C 0.15014 0.66606 0.26019 0.0
C350 C 0.13763 0.56676 0.16857 0.0
C351 C 0.16709 0.53485 0.27726 0.0
N352 N 0.14375 0.63278 0.23804 0.0
N353 N 0.16728 0.5647 0.30694 0.0
H354 H 0.59394 0.14338 0.39525 0.0
H355 H 0.52257 0.21704 0.79905 0.0
H356 H 0.65422 0.195 0.64346 0.0
H357 H 0.45497 0.14925 0.57754 0.0
H358 H 0.57005 0.20664 0.74654 0.0
H359 H 0.54171 0.1426 0.46326 0.0
C360 C 0.59602 0.15423 0.46443 0.0
C361 C 0.62838 0.16951 0.5137 0.0
C362 C 0.54473 0.19371 0.70988 0.0
C363 C 0.56907 0.16898 0.59153 0.0
C364 C 0.51759 0.19968 0.73978 0.0
C365 C 0.48483 0.1842 0.69218 0.0
C366 C 0.53933 0.17245 0.63092 0.0
C367 C 0.47982 0.16173 0.61629 0.0
C368 C 0.56625 0.15376 0.50325 0.0
C369 C 0.62976 0.18314 0.60305 0.0
N370 N 0.50696 0.15687 0.58726 0.0
N371 N 0.60062 0.18285 0.63876 0.0
H372 H 0.2891 0.53036 0.11452 0.0
H373 H 0.46062 0.59308 0.79323 0.0
H374 H 0.30034 0.45994 0.92272 0.0
H375 H 0.44569 0.66199 0.98139 0.0
H376 H 0.40579 0.54193 0.85333 0.0
H377 H 0.34986 0.5767 0.07987 0.0
C378 C 0.3044 0.52453 0.06537 0.0
C379 C 0.2894 0.49129 1.02065 0.0
C380 C 0.41477 0.56818 0.88223 0.0
C381 C 0.35926 0.54455 0.98019 0.0
C382 C 0.44607 0.5973 0.84822 0.0
C383 C 0.45736 0.63172 0.88199 0.0
C384 C 0.39479 0.57371 0.95029 0.0
C385 C 0.43767 0.63587 0.95303 0.0
C386 C 0.33921 0.55107 0.0457 0.0
C387 C 0.31077 0.48524 0.95849 0.0
N388 N 0.4072 0.60727 0.98426 0.0
N389 N 0.34454 0.51177 0.93934 0.0
H390 H 0.83412 0.30502 0.21689 0.0
H391 H 0.79101 0.46283 0.28803 0.0
H392 H 0.76069 0.30448 0.42022 0.0
H393 H 0.85302 0.45987 0.05756 0.0
H394 H 0.78858 0.40952 0.35229 0.0
H395 H 0.84959 0.36582 0.17201 0.0
C396 C 0.8216 0.31781 0.25295 0.0
C397 C 0.79579 0.29948 0.32186 0.0
C398 C 0.80301 0.42058 0.28807 0.0
C399 C 0.81337 0.36888 0.27081 0.0
C400 C 0.80449 0.4511 0.25146 0.0
C401 C 0.82193 0.46547 0.16695 0.0
C402 C 0.81888 0.40402 0.23952 0.0
C403 C 0.83918 0.44944 0.1228 0.0
C404 C 0.83037 0.35246 0.22703 0.0
C405 C 0.78041 0.31736 0.36605 0.0
N406 N 0.83689 0.41923 0.15911 0.0
N407 N 0.7893 0.35091 0.33945 0.0
H408 H 0.30222 0.75479 0.6143 0.0
H409 H 0.51314 0.83266 0.59535 0.0
H410 H 0.37454 0.85074 0.46549 0.0
H411 H 0.43952 0.73669 0.74318 0.0
H412 H 0.46371 0.84255 0.55694 0.0
H413 H 0.35314 0.75074 0.6729 0.0
C414 C 0.32892 0.7752 0.59472 0.0
C415 C 0.3343 0.80302 0.53468 0.0
C416 C 0.45845 0.81945 0.59823 0.0
C417 C 0.39268 0.79844 0.60059 0.0
C418 C 0.48668 0.81375 0.62023 0.0
C419 C 0.48051 0.78361 0.67202 0.0
C420 C 0.4238 0.79483 0.62814 0.0
C421 C 0.44561 0.76016 0.70255 0.0
C422 C 0.35798 0.77286 0.62801 0.0
C423 C 0.36935 0.82882 0.51155 0.0
N424 N 0.41861 0.76618 0.67974 0.0
N425 N 0.39727 0.82577 0.544 0.0
H426 H 0.6911 0.45509 0.0906 0.0
H427 H 0.51625 0.3806 0.77482 0.0
H428 H 0.67292 0.52105 0.89729 0.0
H429 H 0.52821 0.32105 0.99966 0.0
H430 H 0.57194 0.43348 0.8237 0.0
H431 H 0.63028 0.40674 0.06321 0.0
C432 C 0.67426 0.45954 1.04283 0.0
C433 C 0.68731 0.49216 0.99567 0.0
C434 C 0.56217 0.40898 0.86307 0.0
C435 C 0.61748 0.43664 0.96349 0.0
C436 C 0.53039 0.37885 0.83526 0.0
C437 C 0.51785 0.34647 0.88303 0.0
C438 C 0.58164 0.40651 0.9386 0.0
C439 C 0.5371 0.34552 0.96076 0.0
C440 C 0.63943 0.43189 1.02738 0.0
C441 C 0.66407 0.49637 0.93512 0.0
N442 N 0.56823 0.375 0.98555 0.0
N443 N 0.63041 0.46879 0.92003 0.0
loop_
_geom_bond_atom_site_label_1
_geom_bond_atom_site_label_2
_geom_bond_distance
_geom_bond_site_symmetry_2
_ccdc_geom_bond_type
Tb0 O3 2.453 . S
Tb0 O4 2.596 . S
Tb0 O5 2.374 . S
Tb0 O13 2.343 1_554 S
Tb0 O15 2.353 . S
Tb0 O17 2.427 1_554 S
Tb0 O18 2.513 1_554 S
C1 O5 1.251 . S
C1 O7 1.263 . S
Tb2 O4 2.343 1_556 S
Tb2 O7 2.353 1_556 S
Tb2 O10 2.427 1_556 S
Tb2 O11 2.513 1_556 S
Tb2 O12 2.453 . S
Tb2 O13 2.596 . S
Tb2 O14 2.374 . S
O3 Tb0 2.453 . S
O3 C19 1.245 . S
O4 Tb0 2.596 . S
O4 Tb2 2.343 1_554 S
O4 C19 1.259 . S
O5 Tb0 2.374 . S
O5 C1 1.251 . S
C6 O10 1.275 . S
C6 O11 1.246 . S
O7 C1 1.263 . S
O7 Tb2 2.353 1_554 S
C8 O12 1.245 . S
C8 O13 1.259 . S
C9 O14 1.250 . S
C9 O15 1.263 1_556 S
O10 Tb2 2.427 1_554 S
O10 C6 1.275 . S
O11 Tb2 2.513 1_554 S
O11 C6 1.246 . S
O12 Tb2 2.453 . S
O12 C8 1.245 . S
O13 Tb0 2.343 1_556 S
O13 Tb2 2.596 . S
O13 C8 1.259 . S
O14 Tb2 2.374 . S
O14 C9 1.250 . S
O15 Tb0 2.353 . S
O15 C9 1.263 1_554 S
C16 O17 1.275 . S
C16 O18 1.246 . S
O17 Tb0 2.427 1_556 S
O17 C16 1.275 . S
O18 Tb0 2.513 1_556 S
O18 C16 1.246 . S
C19 O3 1.245 . S
C19 O4 1.259 . S
Tb20 O23 2.453 . S
Tb20 O24 2.596 . S
Tb20 O25 2.374 . S
Tb20 O33 2.343 . S
Tb20 O35 2.353 . S
Tb20 O37 2.427 . S
Tb20 O38 2.513 . S
C21 O25 1.251 . S
C21 O27 1.263 . S
Tb22 O24 2.343 . S
Tb22 O27 2.353 . S
Tb22 O30 2.427 . S
Tb22 O31 2.513 . S
Tb22 O32 2.453 . S
Tb22 O33 2.596 . S
Tb22 O34 2.374 . S
O23 Tb20 2.453 . S
O23 C39 1.245 . S
O24 Tb20 2.596 . S
O24 Tb22 2.343 . S
O24 C39 1.259 . S
O25 Tb20 2.374 . S
O25 C21 1.251 . S
C26 O30 1.275 . S
C26 O31 1.246 . S
O27 C21 1.263 . S
O27 Tb22 2.353 . S
C28 O32 1.245 . S
C28 O33 1.259 . S
C29 O34 1.250 . S
C29 O35 1.263 . S
O30 Tb22 2.427 . S
O30 C26 1.275 . S
O31 Tb22 2.513 . S
O31 C26 1.246 . S
O32 Tb22 2.453 . S
O32 C28 1.245 . S
O33 Tb20 2.343 . S
O33 Tb22 2.596 . S
O33 C28 1.259 . S
O34 Tb22 2.374 . S
O34 C29 1.250 . S
O35 Tb20 2.353 . S
O35 C29 1.263 . S
C36 O37 1.275 . S
C36 O38 1.246 . S
O37 Tb20 2.427 . S
O37 C36 1.275 . S
O38 Tb20 2.513 . S
O38 C36 1.246 . S
C39 O23 1.245 . S
C39 O24 1.259 . S
Tb40 O43 2.453 . S
Tb40 O44 2.596 . S
Tb40 O45 2.374 . S
Tb40 O53 2.343 . S
Tb40 O55 2.353 . S
Tb40 O57 2.427 . S
Tb40 O58 2.513 . S
C41 O45 1.251 . S
C41 O47 1.263 . S
Tb42 O44 2.343 . S
Tb42 O47 2.353 . S
Tb42 O50 2.427 . S
Tb42 O51 2.513 . S
Tb42 O52 2.453 . S
Tb42 O53 2.596 . S
Tb42 O54 2.374 . S
O43 Tb40 2.453 . S
O43 C59 1.245 . S
O44 Tb40 2.596 . S
O44 Tb42 2.343 . S
O44 C59 1.259 . S
O45 Tb40 2.374 . S
O45 C41 1.251 . S
C46 O50 1.275 . S
C46 O51 1.246 . S
O47 C41 1.263 . S
O47 Tb42 2.353 . S
C48 O52 1.245 . S
C48 O53 1.259 . S
C49 O54 1.250 . S
C49 O55 1.263 . S
O50 Tb42 2.427 . S
O50 C46 1.275 . S
O51 Tb42 2.513 . S
O51 C46 1.246 . S
O52 Tb42 2.453 . S
O52 C48 1.245 . S
O53 Tb40 2.343 . S
O53 Tb42 2.596 . S
O53 C48 1.259 . S
O54 Tb42 2.374 . S
O54 C49 1.250 . S
O55 Tb40 2.353 . S
O55 C49 1.263 . S
C56 O57 1.275 . S
C56 O58 1.246 . S
O57 Tb40 2.427 . S
O57 C56 1.275 . S
O58 Tb40 2.513 . S
O58 C56 1.246 . S
C59 O43 1.245 . S
C59 O44 1.259 . S
Tb60 O63 2.453 . S
Tb60 O64 2.596 . S
Tb60 O65 2.374 . S
Tb60 O73 2.343 1_554 S
Tb60 O75 2.353 . S
Tb60 O77 2.427 1_554 S
Tb60 O78 2.513 1_554 S
C61 O65 1.251 . S
C61 O67 1.263 . S
Tb62 O64 2.343 1_556 S
Tb62 O67 2.353 1_556 S
Tb62 O70 2.427 1_556 S
Tb62 O71 2.513 1_556 S
Tb62 O72 2.453 . S
Tb62 O73 2.596 . S
Tb62 O74 2.374 . S
O63 Tb60 2.453 . S
O63 C79 1.245 . S
O64 Tb60 2.596 . S
O64 Tb62 2.343 1_554 S
O64 C79 1.259 . S
O65 Tb60 2.374 . S
O65 C61 1.251 . S
C66 O70 1.275 . S
C66 O71 1.246 . S
O67 C61 1.263 . S
O67 Tb62 2.353 1_554 S
C68 O72 1.245 . S
C68 O73 1.259 . S
C69 O74 1.250 . S
C69 O75 1.263 1_556 S
O70 Tb62 2.427 1_554 S
O70 C66 1.275 . S
O71 Tb62 2.513 1_554 S
O71 C66 1.246 . S
O72 Tb62 2.453 . S
O72 C68 1.245 . S
O73 Tb60 2.343 1_556 S
O73 Tb62 2.596 . S
O73 C68 1.259 . S
O74 Tb62 2.374 . S
O74 C69 1.250 . S
O75 Tb60 2.353 . S
O75 C69 1.263 1_554 S
C76 O77 1.275 . S
C76 O78 1.246 . S
O77 Tb60 2.427 1_556 S
O77 C76 1.275 . S
O78 Tb60 2.513 1_556 S
O78 C76 1.246 . S
C79 O63 1.245 . S
C79 O64 1.259 . S
Tb80 O83 2.453 . S
Tb80 O84 2.596 . S
Tb80 O85 2.374 . S
Tb80 O93 2.343 . S
Tb80 O95 2.353 . S
Tb80 O97 2.427 . S
Tb80 O98 2.513 . S
C81 O85 1.251 . S
C81 O87 1.263 . S
Tb82 O84 2.343 . S
Tb82 O87 2.353 . S
Tb82 O90 2.427 . S
Tb82 O91 2.513 . S
Tb82 O92 2.453 . S
Tb82 O93 2.596 . S
Tb82 O94 2.374 . S
O83 Tb80 2.453 . S
O83 C99 1.245 . S
O84 Tb80 2.596 . S
O84 Tb82 2.343 . S
O84 C99 1.259 . S
O85 Tb80 2.374 . S
O85 C81 1.251 . S
C86 O90 1.275 . S
C86 O91 1.246 . S
O87 C81 1.263 . S
O87 Tb82 2.353 . S
C88 O92 1.245 . S
C88 O93 1.259 . S
C89 O94 1.250 . S
C89 O95 1.263 . S
O90 Tb82 2.427 . S
O90 C86 1.275 . S
O91 Tb82 2.513 . S
O91 C86 1.246 . S
O92 Tb82 2.453 . S
O92 C88 1.245 . S
O93 Tb80 2.343 . S
O93 Tb82 2.596 . S
O93 C88 1.259 . S
O94 Tb82 2.374 . S
O94 C89 1.250 . S
O95 Tb80 2.353 . S
O95 C89 1.263 . S
C96 O97 1.275 . S
C96 O98 1.246 . S
O97 Tb80 2.427 . S
O97 C96 1.275 . S
O98 Tb80 2.513 . S
O98 C96 1.246 . S
C99 O83 1.245 . S
C99 O84 1.259 . S
Tb100 O103 2.453 . S
Tb100 O104 2.596 . S
Tb100 O105 2.374 . S
Tb100 O113 2.343 . S
Tb100 O115 2.353 . S
Tb100 O117 2.427 . S
Tb100 O118 2.513 . S
C101 O105 1.251 . S
C101 O107 1.263 . S
Tb102 O104 2.343 . S
Tb102 O107 2.353 . S
Tb102 O110 2.427 . S
Tb102 O111 2.513 . S
Tb102 O112 2.453 . S
Tb102 O113 2.596 . S
Tb102 O114 2.374 . S
O103 Tb100 2.453 . S
O103 C119 1.245 . S
O104 Tb100 2.596 . S
O104 Tb102 2.343 . S
O104 C119 1.259 . S
O105 Tb100 2.374 . S
O105 C101 1.251 . S
C106 O110 1.275 . S
C106 O111 1.246 . S
O107 C101 1.263 . S
O107 Tb102 2.353 . S
C108 O112 1.245 . S
C108 O113 1.259 . S
C109 O114 1.250 . S
C109 O115 1.263 . S
O110 Tb102 2.427 . S
O110 C106 1.275 . S
O111 Tb102 2.513 . S
O111 C106 1.246 . S
O112 Tb102 2.453 . S
O112 C108 1.245 . S
O113 Tb100 2.343 . S
O113 Tb102 2.596 . S
O113 C108 1.259 . S
O114 Tb102 2.374 . S
O114 C109 1.250 . S
O115 Tb100 2.353 . S
O115 C109 1.263 . S
C116 O117 1.275 . S
C116 O118 1.246 . S
O117 Tb100 2.427 . S
O117 C116 1.275 . S
O118 Tb100 2.513 . S
O118 C116 1.246 . S
C119 O103 1.245 . S
C119 O104 1.259 . S
H120 C126 0.930 . S
H121 C130 0.930 . S
H122 C135 0.929 . S
H123 C133 0.929 . S
H124 C128 0.929 . S
H125 C134 0.929 . S
C126 H120 0.930 . S
C126 C127 1.367 . S
C126 C134 1.378 . S
C127 C126 1.367 . S
C127 C135 1.433 . S
C128 H124 0.929 . S
C128 C130 1.378 . S
C128 C132 1.350 . S
C129 C132 1.463 . S
C129 C134 1.350 . S
C129 N137 1.427 . S
C130 H121 0.930 . S
C130 C128 1.378 . S
C130 C131 1.367 . S
C131 C130 1.367 . S
C131 C133 1.433 . S
C132 C128 1.350 . S
C132 C129 1.463 . S
C132 N136 1.427 . S
C133 H123 0.929 . S
C133 C131 1.433 . S
C133 N136 1.384 . S
C134 H125 0.929 . S
C134 C126 1.378 . S
C134 C129 1.350 . S
C135 H122 0.929 . S
C135 C127 1.433 . S
C135 N137 1.384 . S
N136 C132 1.427 . S
N136 C133 1.384 . S
N137 C129 1.427 . S
N137 C135 1.384 . S
H138 C144 0.930 . S
H139 C148 0.930 . S
H140 C153 0.929 . S
H141 C151 0.929 . S
H142 C146 0.929 . S
H143 C152 0.929 . S
C144 H138 0.930 . S
C144 C145 1.367 . S
C144 C152 1.378 . S
C145 C144 1.367 . S
C145 C153 1.433 . S
C146 H142 0.929 . S
C146 C148 1.378 . S
C146 C150 1.350 . S
C147 C150 1.463 1_455 S
C147 C152 1.350 . S
C147 N155 1.427 . S
C148 H139 0.930 . S
C148 C146 1.378 . S
C148 C149 1.367 . S
C149 C148 1.367 . S
C149 C151 1.433 . S
C150 C146 1.350 . S
C150 C147 1.463 1_655 S
C150 N154 1.427 . S
C151 H141 0.929 . S
C151 C149 1.433 . S
C151 N154 1.384 . S
C152 H143 0.929 . S
C152 C144 1.378 . S
C152 C147 1.350 . S
C153 H140 0.929 . S
C153 C145 1.433 . S
C153 N155 1.384 . S
N154 C150 1.427 . S
N154 C151 1.384 . S
N155 C147 1.427 . S
N155 C153 1.384 . S
H156 C162 0.930 . S
H157 C166 0.930 . S
H158 C171 0.929 . S
H159 C169 0.929 . S
H160 C164 0.929 . S
H161 C170 0.929 . S
C162 H156 0.930 . S
C162 C163 1.367 . S
C162 C170 1.378 . S
C163 C162 1.367 . S
C163 C171 1.433 . S
C164 H160 0.929 . S
C164 C166 1.378 . S
C164 C168 1.350 . S
C165 C168 1.463 1_545 S
C165 C170 1.350 . S
C165 N173 1.427 . S
C166 H157 0.930 . S
C166 C164 1.378 . S
C166 C167 1.367 . S
C167 C166 1.367 . S
C167 C169 1.433 . S
C168 C164 1.350 . S
C168 C165 1.463 1_565 S
C168 N172 1.427 . S
C169 H159 0.929 . S
C169 C167 1.433 . S
C169 N172 1.384 . S
C170 H161 0.929 . S
C170 C162 1.378 . S
C170 C165 1.350 . S
C171 H158 0.929 . S
C171 C163 1.433 . S
C171 N173 1.384 . S
N172 C168 1.427 . S
N172 C169 1.384 . S
N173 C165 1.427 . S
N173 C171 1.384 . S
H174 C180 0.930 . S
H175 C184 0.930 . S
H176 C189 0.929 . S
H177 C187 0.929 . S
H178 C182 0.929 . S
H179 C188 0.929 . S
C180 H174 0.930 . S
C180 C181 1.367 . S
C180 C188 1.378 . S
C181 C180 1.367 . S
C181 C189 1.433 . S
C182 H178 0.929 . S
C182 C184 1.378 . S
C182 C186 1.350 . S
C183 C186 1.463 . S
C183 C188 1.350 . S
C183 N191 1.427 . S
C184 H175 0.930 . S
C184 C182 1.378 . S
C184 C185 1.367 . S
C185 C184 1.367 . S
C185 C187 1.433 . S
C186 C182 1.350 . S
C186 C183 1.463 . S
C186 N190 1.427 . S
C187 H177 0.929 . S
C187 C185 1.433 . S
C187 N190 1.384 . S
C188 H179 0.929 . S
C188 C180 1.378 . S
C188 C183 1.350 . S
C189 H176 0.929 . S
C189 C181 1.433 . S
C189 N191 1.384 . S
N190 C186 1.427 . S
N190 C187 1.384 . S
N191 C183 1.427 . S
N191 C189 1.384 . S
H192 C198 0.930 . S
H193 C202 0.930 1_556 S
H194 C207 0.929 . S
H195 C205 0.929 . S
H196 C200 0.926 1_556 S
H197 C206 0.929 1_655 S
C198 H192 0.930 . S
C198 C199 1.367 . S
C198 C206 1.378 . S
C199 C198 1.367 . S
C199 C207 1.433 . S
C200 H196 0.926 1_554 S
C200 C202 1.378 . S
C200 C204 1.350 . S
C201 C204 1.463 1_455 S
C201 C206 1.350 . S
C201 N209 1.427 . S
C202 H193 0.930 1_554 S
C202 C200 1.378 . S
C202 C203 1.367 . S
C203 C202 1.367 . S
C203 C205 1.433 . S
C204 C200 1.350 . S
C204 C201 1.463 1_655 S
C204 N208 1.427 . S
C205 H195 0.929 . S
C205 C203 1.433 . S
C205 N208 1.384 . S
C206 H197 0.929 1_455 S
C206 C198 1.378 . S
C206 C201 1.350 . S
C207 H194 0.929 . S
C207 C199 1.433 . S
C207 N209 1.384 . S
N208 C204 1.427 . S
N208 C205 1.384 . S
N209 C201 1.427 . S
N209 C207 1.384 . S
H210 C216 0.930 . S
H211 C220 0.930 . S
H212 C225 0.929 . S
H213 C223 0.929 . S
H214 C218 0.929 . S
H215 C224 0.929 . S
C216 H210 0.930 . S
C216 C217 1.367 . S
C216 C224 1.378 . S
C217 C216 1.367 . S
C217 C225 1.433 . S
C218 H214 0.929 . S
C218 C220 1.378 . S
C218 C222 1.350 . S
C219 C222 1.463 1_545 S
C219 C224 1.350 . S
C219 N227 1.427 . S
C220 H211 0.930 . S
C220 C218 1.378 . S
C220 C221 1.367 . S
C221 C220 1.367 . S
C221 C223 1.433 . S
C222 C218 1.350 . S
C222 C219 1.463 1_565 S
C222 N226 1.427 . S
C223 H213 0.929 . S
C223 C221 1.433 . S
C223 N226 1.384 . S
C224 H215 0.929 . S
C224 C216 1.378 . S
C224 C219 1.350 . S
C225 H212 0.929 . S
C225 C217 1.433 . S
C225 N227 1.384 . S
N226 C222 1.427 . S
N226 C223 1.384 . S
N227 C219 1.427 . S
N227 C225 1.384 . S
H228 C234 0.930 . S
H229 C238 0.930 . S
H230 C243 0.929 . S
H231 C241 0.929 . S
H232 C236 0.929 . S
H233 C242 0.929 . S
C234 H228 0.930 . S
C234 C235 1.367 . S
C234 C242 1.378 . S
C235 C234 1.367 . S
C235 C243 1.433 . S
C236 H232 0.929 . S
C236 C238 1.378 . S
C236 C240 1.350 . S
C237 C240 1.463 . S
C237 C242 1.350 . S
C237 N245 1.427 . S
C238 H229 0.930 . S
C238 C236 1.378 . S
C238 C239 1.367 . S
C239 C238 1.367 . S
C239 C241 1.433 . S
C240 C236 1.350 . S
C240 C237 1.463 . S
C240 N244 1.427 . S
C241 H231 0.929 . S
C241 C239 1.433 . S
C241 N244 1.384 . S
C242 H233 0.929 . S
C242 C234 1.378 . S
C242 C237 1.350 . S
C243 H230 0.929 . S
C243 C235 1.433 . S
C243 N245 1.384 . S
N244 C240 1.427 . S
N244 C241 1.384 . S
N245 C237 1.427 . S
N245 C243 1.384 . S
H246 C252 0.930 . S
H247 C256 0.930 . S
H248 C261 0.929 . S
H249 C259 0.929 . S
H250 C254 0.929 . S
H251 C260 0.929 . S
C252 H246 0.930 . S
C252 C253 1.367 . S
C252 C260 1.378 1_554 S
C253 C252 1.367 . S
C253 C261 1.433 . S
C254 H250 0.929 . S
C254 C256 1.378 . S
C254 C258 1.350 . S
C255 C258 1.463 . S
C255 C260 1.350 . S
C255 N263 1.427 . S
C256 H247 0.930 . S
C256 C254 1.378 . S
C256 C257 1.367 . S
C257 C256 1.367 . S
C257 C259 1.433 . S
C258 C254 1.350 . S
C258 C255 1.463 . S
C258 N262 1.427 . S
C259 H249 0.929 . S
C259 C257 1.433 . S
C259 N262 1.384 . S
C260 H251 0.929 . S
C260 C252 1.378 1_556 S
C260 C255 1.350 . S
C261 H248 0.929 . S
C261 C253 1.433 . S
C261 N263 1.384 1_554 S
N262 C258 1.427 . S
N262 C259 1.384 . S
N263 C255 1.427 . S
N263 C261 1.384 1_556 S
H264 C270 0.930 . S
H265 C274 0.930 1_556 S
H266 C279 0.929 . S
H267 C277 0.929 . S
H268 C272 0.929 . S
H269 C278 0.929 . S
C270 H264 0.930 . S
C270 C271 1.367 . S
C270 C278 1.378 . S
C271 C270 1.367 . S
C271 C279 1.433 . S
C272 H268 0.929 . S
C272 C274 1.378 . S
C272 C276 1.350 . S
C273 C276 1.463 . S
C273 C278 1.350 . S
C273 N281 1.427 . S
C274 H265 0.930 1_554 S
C274 C272 1.378 . S
C274 C275 1.367 1_554 S
C275 C274 1.367 1_556 S
C275 C277 1.433 . S
C276 C272 1.350 . S
C276 C273 1.463 . S
C276 N280 1.427 . S
C277 H267 0.929 . S
C277 C275 1.433 . S
C277 N280 1.384 1_556 S
C278 H269 0.929 . S
C278 C270 1.378 . S
C278 C273 1.350 . S
C279 H266 0.929 . S
C279 C271 1.433 . S
C279 N281 1.384 . S
N280 C276 1.427 . S
N280 C277 1.384 1_554 S
N281 C273 1.427 . S
N281 C279 1.384 . S
H282 C288 0.930 . S
H283 C292 0.930 . S
H284 C297 0.929 . S
H285 C295 0.929 . S
H286 C290 0.929 . S
H287 C296 0.929 . S
C288 H282 0.930 . S
C288 C289 1.367 . S
C288 C296 1.378 . S
C289 C288 1.367 . S
C289 C297 1.433 . S
C290 H286 0.929 . S
C290 C292 1.378 . S
C290 C294 1.350 . S
C291 C294 1.463 . S
C291 C296 1.350 . S
C291 N299 1.427 . S
C292 H283 0.930 . S
C292 C290 1.378 . S
C292 C293 1.367 . S
C293 C292 1.367 . S
C293 C295 1.433 . S
C294 C290 1.350 . S
C294 C291 1.463 . S
C294 N298 1.427 . S
C295 H285 0.929 . S
C295 C293 1.433 . S
C295 N298 1.384 . S
C296 H287 0.929 . S
C296 C288 1.378 . S
C296 C291 1.350 . S
C297 H284 0.929 . S
C297 C289 1.433 . S
C297 N299 1.384 . S
N298 C294 1.427 . S
N298 C295 1.384 . S
N299 C291 1.427 . S
N299 C297 1.384 . S
H300 C306 0.930 . S
H301 C310 0.930 . S
H302 C315 0.929 . S
H303 C313 0.929 . S
H304 C308 0.929 . S
H305 C314 0.929 . S
C306 H300 0.930 . S
C306 C307 1.367 . S
C306 C314 1.378 . S
C307 C306 1.367 . S
C307 C315 1.433 . S
C308 H304 0.929 . S
C308 C310 1.378 1_556 S
C308 C312 1.350 . S
C309 C312 1.463 . S
C309 C314 1.350 . S
C309 N317 1.427 . S
C310 H301 0.930 . S
C310 C308 1.378 1_554 S
C310 C311 1.367 . S
C311 C310 1.367 . S
C311 C313 1.433 . S
C312 C308 1.350 . S
C312 C309 1.463 . S
C312 N316 1.427 . S
C313 H303 0.929 . S
C313 C311 1.433 . S
C313 N316 1.384 1_554 S
C314 H305 0.929 . S
C314 C306 1.378 . S
C314 C309 1.350 . S
C315 H302 0.929 . S
C315 C307 1.433 . S
C315 N317 1.384 . S
N316 C312 1.427 . S
N316 C313 1.384 1_556 S
N317 C309 1.427 . S
N317 C315 1.384 . S
H318 C324 0.930 . S
H319 C328 0.925 1_556 S
H320 C333 0.929 . S
H321 C331 0.929 . S
H322 C326 0.929 . S
H323 C332 0.929 . S
C324 H318 0.930 . S
C324 C325 1.367 . S
C324 C332 1.378 . S
C325 C324 1.367 . S
C325 C333 1.433 . S
C326 H322 0.929 . S
C326 C328 1.390 . S
C326 C330 1.350 . S
C327 C330 1.463 . S
C327 C332 1.350 . S
C327 N335 1.427 . S
C328 H319 0.925 1_554 S
C328 C326 1.390 . S
C328 C329 1.360 1_554 S
C329 C328 1.360 1_556 S
C329 C331 1.433 . S
C330 C326 1.350 . S
C330 C327 1.463 . S
C330 N334 1.427 . S
C331 H321 0.929 . S
C331 C329 1.433 . S
C331 N334 1.384 1_556 S
C332 H323 0.929 . S
C332 C324 1.378 . S
C332 C327 1.350 . S
C333 H320 0.929 . S
C333 C325 1.433 . S
C333 N335 1.384 . S
N334 C330 1.427 . S
N334 C331 1.384 1_554 S
N335 C327 1.427 . S
N335 C333 1.384 . S
H336 C342 0.930 . S
H337 C346 0.930 . S
H338 C351 0.929 . S
H339 C349 0.929 . S
H340 C344 0.929 . S
H341 C350 0.929 . S
C342 H336 0.930 . S
C342 C343 1.367 . S
C342 C350 1.378 . S
C343 C342 1.367 . S
C343 C351 1.433 . S
C344 H340 0.929 . S
C344 C346 1.378 . S
C344 C348 1.350 . S
C345 C348 1.463 . S
C345 C350 1.350 . S
C345 N353 1.427 . S
C346 H337 0.930 . S
C346 C344 1.378 . S
C346 C347 1.367 . S
C347 C346 1.367 . S
C347 C349 1.433 . S
C348 C344 1.350 . S
C348 C345 1.463 . S
C348 N352 1.427 . S
C349 H339 0.929 . S
C349 C347 1.433 . S
C349 N352 1.384 . S
C350 H341 0.929 . S
C350 C342 1.378 . S
C350 C345 1.350 . S
C351 H338 0.929 . S
C351 C343 1.433 . S
C351 N353 1.384 . S
N352 C348 1.427 . S
N352 C349 1.384 . S
N353 C345 1.427 . S
N353 C351 1.384 . S
H354 C360 0.930 . S
H355 C364 0.930 . S
H356 C369 0.929 . S
H357 C367 0.929 . S
H358 C362 0.929 . S
H359 C368 0.929 . S
C360 H354 0.930 . S
C360 C361 1.367 . S
C360 C368 1.378 . S
C361 C360 1.367 . S
C361 C369 1.433 . S
C362 H358 0.929 . S
C362 C364 1.378 . S
C362 C366 1.350 . S
C363 C366 1.463 . S
C363 C368 1.350 . S
C363 N371 1.427 . S
C364 H355 0.930 . S
C364 C362 1.378 . S
C364 C365 1.367 . S
C365 C364 1.367 . S
C365 C367 1.433 . S
C366 C362 1.350 . S
C366 C363 1.463 . S
C366 N370 1.427 . S
C367 H357 0.929 . S
C367 C365 1.433 . S
C367 N370 1.384 . S
C368 H359 0.929 . S
C368 C360 1.378 . S
C368 C363 1.350 . S
C369 H356 0.929 . S
C369 C361 1.433 . S
C369 N371 1.384 . S
N370 C366 1.427 . S
N370 C367 1.384 . S
N371 C363 1.427 . S
N371 C369 1.384 . S
H372 C378 0.930 . S
H373 C382 0.930 . S
H374 C387 0.929 1_554 S
H375 C385 0.929 . S
H376 C380 0.929 . S
H377 C386 0.929 . S
C378 H372 0.930 . S
C378 C379 1.367 . S
C378 C386 1.378 . S
C379 C378 1.367 . S
C379 C387 1.433 . S
C380 H376 0.929 . S
C380 C382 1.378 . S
C380 C384 1.350 . S
C381 C384 1.463 . S
C381 C386 1.350 . S
C381 N389 1.427 . S
C382 H373 0.930 . S
C382 C380 1.378 . S
C382 C383 1.367 . S
C383 C382 1.367 . S
C383 C385 1.433 . S
C384 C380 1.350 . S
C384 C381 1.463 . S
C384 N388 1.427 . S
C385 H375 0.929 . S
C385 C383 1.433 . S
C385 N388 1.384 . S
C386 H377 0.929 . S
C386 C378 1.378 . S
C386 C381 1.350 . S
C387 H374 0.929 1_556 S
C387 C379 1.433 . S
C387 N389 1.384 . S
N388 C384 1.427 . S
N388 C385 1.384 . S
N389 C381 1.427 . S
N389 C387 1.384 . S
H390 C396 0.930 . S
H391 C400 0.930 . S
H392 C405 0.929 . S
H393 C403 0.929 . S
H394 C398 0.929 . S
H395 C404 0.929 . S
C396 H390 0.930 . S
C396 C397 1.367 . S
C396 C404 1.378 . S
C397 C396 1.367 . S
C397 C405 1.433 . S
C398 H394 0.929 . S
C398 C400 1.378 . S
C398 C402 1.350 . S
C399 C402 1.463 . S
C399 C404 1.350 . S
C399 N407 1.427 . S
C400 H391 0.930 . S
C400 C398 1.378 . S
C400 C401 1.367 . S
C401 C400 1.367 . S
C401 C403 1.433 . S
C402 C398 1.350 . S
C402 C399 1.463 . S
C402 N406 1.427 . S
C403 H393 0.929 . S
C403 C401 1.433 . S
C403 N406 1.384 . S
C404 H395 0.929 . S
C404 C396 1.378 . S
C404 C399 1.350 . S
C405 H392 0.929 . S
C405 C397 1.433 . S
C405 N407 1.384 . S
N406 C402 1.427 . S
N406 C403 1.384 . S
N407 C399 1.427 . S
N407 C405 1.384 . S
H408 C414 0.930 . S
H409 C418 0.930 . S
H410 C423 0.929 . S
H411 C421 0.929 . S
H412 C416 0.929 . S
H413 C422 0.929 . S
C414 H408 0.930 . S
C414 C415 1.367 . S
C414 C422 1.378 . S
C415 C414 1.367 . S
C415 C423 1.433 . S
C416 H412 0.929 . S
C416 C418 1.378 . S
C416 C420 1.350 . S
C417 C420 1.463 . S
C417 C422 1.350 . S
C417 N425 1.427 . S
C418 H409 0.930 . S
C418 C416 1.378 . S
C418 C419 1.367 . S
C419 C418 1.367 . S
C419 C421 1.433 . S
C420 C416 1.350 . S
C420 C417 1.463 . S
C420 N424 1.427 . S
C421 H411 0.929 . S
C421 C419 1.433 . S
C421 N424 1.384 . S
C422 H413 0.929 . S
C422 C414 1.378 . S
C422 C417 1.350 . S
C423 H410 0.929 . S
C423 C415 1.433 . S
C423 N425 1.384 . S
N424 C420 1.427 . S
N424 C421 1.384 . S
N425 C417 1.427 . S
N425 C423 1.384 . S
H426 C432 0.930 . S
H427 C436 0.930 . S
H428 C441 0.929 1_554 S
H429 C439 0.929 . S
H430 C434 0.929 . S
H431 C440 0.929 . S
C432 H426 0.930 . S
C432 C433 1.367 . S
C432 C440 1.378 . S
C433 C432 1.367 . S
C433 C441 1.433 . S
C434 H430 0.929 . S
C434 C436 1.378 . S
C434 C438 1.350 . S
C435 C438 1.463 . S
C435 C440 1.350 . S
C435 N443 1.427 . S
C436 H427 0.930 . S
C436 C434 1.378 . S
C436 C437 1.367 . S
C437 C436 1.367 . S
C437 C439 1.433 . S
C438 C434 1.350 . S
C438 C435 1.463 . S
C438 N442 1.427 . S
C439 H429 0.929 . S
C439 C437 1.433 . S
C439 N442 1.384 . S
C440 H431 0.929 . S
C440 C432 1.378 . S
C440 C435 1.350 . S
C441 H428 0.929 1_556 S
C441 C433 1.433 . S
C441 N443 1.384 . S
N442 C438 1.427 . S
N442 C439 1.384 . S
N443 C435 1.427 . S
N443 C441 1.384 . S
C127 C101 1.501 . S
C131 C16 1.438 . S
C145 C1 1.501 . S
C149 C36 1.437 . S
C163 C21 1.505 . S
C167 C56 1.452 . S
C181 C41 1.496 . S
C185 C76 1.439 . S
C199 C96 1.436 . S
C203 C61 1.496 . S
C217 C116 1.449 . S
C221 C81 1.506 . S
C235 C8 1.842 . S
C239 C19 1.842 . S
C253 C28 1.850 . S
C257 C39 1.850 . S
C271 C48 1.849 . S
C275 C59 1.849 . S
C289 C68 1.842 . S
C293 C79 1.842 . S
C307 C99 1.843 . S
C311 C88 1.843 . S
C325 C108 1.847 . S
C329 C119 1.847 . S
C343 C6 1.396 . S
C347 C89 1.439 . S
C361 C26 1.395 . S
C365 C109 1.439 . S
C379 C9 1.446 . S
C383 C46 1.413 . S
C397 C29 1.449 . S
C401 C66 1.412 . S
C415 C86 1.398 . S
C419 C49 1.445 . S
C433 C69 1.446 . S
C437 C106 1.413 . S
