# Generated by pormake.
# Topology fcu, (12)-cn, num edge types: 1
# Building blocks:
#     Node 0, Type 0, BuildingBlock: BOTCEU_clean_sbu_0, # of connection points: 12
#     Node 1, Type 0, BuildingBlock: BOTCEU_clean_sbu_0, # of connection points: 12
#     Node 2, Type 0, BuildingBlock: BOTCEU_clean_sbu_0, # of connection points: 12
#     Node 3, Type 0, BuildingBlock: BOTCEU_clean_sbu_0, # of connection points: 12
#     Edge 4, Type (0, 0), BuildingBlock: OJICUG_clean_linker_0, # of connection points: 2
#     Edge 5, Type (0, 0), BuildingBlock: OJICUG_clean_linker_0, # of connection points: 2
#     Edge 6, Type (0, 0), BuildingBlock: OJICUG_clean_linker_0, # of connection points: 2
#     Edge 7, Type (0, 0), BuildingBlock: OJICUG_clean_linker_0, # of connection points: 2
#     Edge 8, Type (0, 0), BuildingBlock: OJICUG_clean_linker_0, # of connection points: 2
#     Edge 9, Type (0, 0), BuildingBlock: OJICUG_clean_linker_0, # of connection points: 2
#     Edge 10, Type (0, 0), BuildingBlock: OJICUG_clean_linker_0, # of connection points: 2
#     Edge 11, Type (0, 0), BuildingBlock: OJICUG_clean_linker_0, # of connection points: 2
#     Edge 12, Type (0, 0), BuildingBlock: OJICUG_clean_linker_0, # of connection points: 2
#     Edge 13, Type (0, 0), BuildingBlock: OJICUG_clean_linker_0, # of connection points: 2
#     Edge 14, Type (0, 0), BuildingBlock: OJICUG_clean_linker_0, # of connection points: 2
#     Edge 15, Type (0, 0), BuildingBlock: OJICUG_clean_linker_0, # of connection points: 2
#     Edge 16, Type (0, 0), BuildingBlock: OJICUG_clean_linker_0, # of connection points: 2
#     Edge 17, Type (0, 0), BuildingBlock: OJICUG_clean_linker_0, # of connection points: 2
#     Edge 18, Type (0, 0), BuildingBlock: OJICUG_clean_linker_0, # of connection points: 2
#     Edge 19, Type (0, 0), BuildingBlock: OJICUG_clean_linker_0, # of connection points: 2
#     Edge 20, Type (0, 0), BuildingBlock: OJICUG_clean_linker_0, # of connection points: 2
#     Edge 21, Type (0, 0), BuildingBlock: OJICUG_clean_linker_0, # of connection points: 2
#     Edge 22, Type (0, 0), BuildingBlock: OJICUG_clean_linker_0, # of connection points: 2
#     Edge 23, Type (0, 0), BuildingBlock: OJICUG_clean_linker_0, # of connection points: 2
#     Edge 24, Type (0, 0), BuildingBlock: OJICUG_clean_linker_0, # of connection points: 2
#     Edge 25, Type (0, 0), BuildingBlock: OJICUG_clean_linker_0, # of connection points: 2
#     Edge 26, Type (0, 0), BuildingBlock: OJICUG_clean_linker_0, # of connection points: 2
#     Edge 27, Type (0, 0), BuildingBlock: OJICUG_clean_linker_0, # of connection points: 2
# Relax obj value: 0.054
# Max RMSD: 0.159
# Mean RMSD: 0.159
data_MOF--net-fcu--node1-BOTCEU_clean_sbu_0--edge1-OJICUG_clean_linker_0
_symmetry_space_group_name_H-M    P1
_symmetry_Int_Tables_number       1
_symmetry_cell_setting            triclinic
loop_
_symmetry_equiv_pos_as_xyz
'x, y, z'
_cell_length_a     30.75029
_cell_length_b     30.772889
_cell_length_c     30.758668
_cell_angle_alpha  102.57756
_cell_angle_beta   102.62238
_cell_angle_gamma 102.50073
loop_
_atom_site_label
_atom_site_type_symbol
_atom_site_fract_x
_atom_site_fract_y
_atom_site_fract_z
_atom_type_partial_charge
C0 C 0.1442 0.93598 0.10836 0.0
C1 C 0.14372 0.95407 0.1538 0.0
C2 C 0.09859 0.93482 0.15477 0.0
N3 N 0.10195 0.90774 0.08475 0.0
N4 N 0.0747 0.90702 0.11217 0.0
C5 C 0.18473 0.94218 0.08863 0.0
H6 H 0.17278 0.9398 0.05123 0.0
H7 H 0.20139 0.91402 0.09191 0.0
H8 H 0.21069 0.97601 0.10746 0.0
C9 C 0.0811 0.93619 0.19663 0.0
H10 H 0.04265 0.92621 0.18639 0.0
H11 H 0.09464 0.97121 0.22152 0.0
H12 H 0.09319 0.91135 0.21427 0.0
C13 C 0.95851 0.17443 0.83347 0.0
C14 C 0.02093 0.15624 0.81992 0.0
C15 C -0.00711 0.18514 0.81154 0.0
N16 N 0.96654 0.14123 0.85344 0.0
N17 N 0.00335 0.13002 0.84492 0.0
H18 H 0.92783 0.22794 0.85652 0.0
H19 H 0.90172 0.19471 0.79705 0.0
H20 H 0.8907 0.17004 0.84356 0.0
C21 C 0.91701 0.19253 0.83244 0.0
H22 H 0.08417 0.19077 0.80818 0.0
H23 H 0.05625 0.13314 0.77073 0.0
H24 H 0.08665 0.14087 0.83027 0.0
C25 C 0.06479 0.15534 0.80676 0.0
C26 C 0.02404 0.77319 0.03011 0.0
C27 C 0.04792 0.93113 0.98841 0.0
C28 C 0.93201 0.10258 0.15246 0.0
N29 N 0.90357 0.0785 0.11028 0.0
N30 N 0.90273 0.10542 0.08254 0.0
C31 C 0.9498 0.14784 0.15128 0.0
C32 C 0.9302 0.1481 0.10598 0.0
H33 H 0.9259 0.04633 0.18373 0.0
H34 H 0.91096 0.09616 0.21301 0.0
H35 H 0.97079 0.09846 0.21828 0.0
C36 C 0.93531 0.08473 0.19426 0.0
H37 H 0.93044 0.17729 0.04879 0.0
H38 H 0.9677 0.21537 0.10453 0.0
H39 H 0.90553 0.20448 0.09112 0.0
C40 C 0.93406 0.18879 0.08648 0.0
C41 C 0.17168 0.829 0.96832 0.0
C42 C 0.15245 0.81422 0.02985 0.0
N43 N 0.13828 0.84876 0.97615 0.0
N44 N 0.12643 0.83951 0.0124 0.0
C45 C 0.1819 0.80642 0.00227 0.0
H46 H 0.22573 0.85382 0.93907 0.0
H47 H 0.19373 0.79411 0.91213 0.0
H48 H 0.16812 0.84004 0.90098 0.0
C49 C 0.19062 0.82907 0.92748 0.0
C50 C 0.15087 0.80026 0.07319 0.0
H51 H 0.18605 0.80081 0.09261 0.0
H52 H 0.12801 0.76447 0.06397 0.0
H53 H 0.13669 0.82385 0.09528 0.0
C54 C 0.76907 0.02335 0.03133 0.0
C55 C 0.9275 0.98246 0.05671 0.0
C56 C 0.09925 0.14878 0.94191 0.0
N57 N 0.07593 0.10646 0.91373 0.0
C58 C 0.14471 0.14853 0.96037 0.0
N59 N 0.10356 0.0794 0.91338 0.0
C60 C 0.14602 0.10347 0.94137 0.0
H61 H 0.08289 0.20579 0.91956 0.0
H62 H 0.09772 0.21519 0.98159 0.0
H63 H 0.04176 0.17717 0.94481 0.0
C64 C 0.07926 0.18918 0.94766 0.0
H65 H 0.17804 0.04777 0.93372 0.0
C66 C 0.18807 0.08617 0.94315 0.0
H67 H 0.20553 0.09777 0.91802 0.0
H68 H 0.213 0.10024 0.97816 0.0
C69 C 0.82423 0.96163 0.17925 0.0
C70 C 0.80987 0.02345 0.16036 0.0
N71 N 0.84378 0.96928 0.14569 0.0
N72 N 0.83481 0.00575 0.13408 0.0
C73 C 0.80199 -0.00415 0.18974 0.0
H74 H 0.84997 0.93233 0.23298 0.0
C75 C 0.8244 0.92087 0.19829 0.0
H76 H 0.83445 0.89397 0.1753 0.0
H77 H 0.78972 0.90613 0.20236 0.0
H78 H 0.79778 0.08664 0.19468 0.0
H79 H 0.76065 0.05863 0.13683 0.0
C80 C 0.7966 0.06722 0.1593 0.0
H81 H 0.82021 0.08904 0.14497 0.0
C82 C 0.02252 0.02841 0.7791 0.0
C83 C 0.9801 0.05255 0.9372 0.0
C84 C 0.80212 0.06087 0.85625 0.0
N85 N 0.84614 0.08034 0.88215 0.0
C86 C 0.80248 0.04619 0.81025 0.0
C87 C 0.8492 0.05827 0.81131 0.0
N88 N 0.87419 0.07897 0.85559 0.0
C89 C 0.76128 0.05542 0.87556 0.0
H90 H 0.77202 0.05474 0.91224 0.0
H91 H 0.74702 0.08548 0.87452 0.0
H92 H 0.73369 0.02331 0.85461 0.0
C93 C 0.86933 0.05172 0.77105 0.0
H94 H 0.90457 0.07566 0.78013 0.0
H95 H 0.87199 0.01568 0.76149 0.0
H96 H 0.84645 0.05716 0.74059 0.0
C97 C 0.02025 0.81037 0.16053 0.0
C98 C -0.00767 0.80221 0.1896 0.0
C99 C 0.95806 0.82427 0.17898 0.0
N100 N 0.00267 0.83545 0.13429 0.0
N101 N 0.96605 0.84422 0.14582 0.0
H102 H 0.0559 0.76124 0.1381 0.0
H103 H 0.08369 0.79917 0.19556 0.0
H104 H 0.08598 0.82071 0.14531 0.0
C105 C 0.06426 0.79737 0.15996 0.0
C106 C 0.9168 0.82369 0.1974 0.0
H107 H 0.90137 0.78841 0.19963 0.0
H108 H 0.92791 0.84778 0.23284 0.0
H109 H 0.89049 0.83501 0.17506 0.0
C110 C 0.94979 0.19138 0.96122 0.0
C111 C 0.86659 0.01473 0.95151 0.0
C112 C 0.05662 0.85316 0.81208 0.0
C113 C 0.04392 0.80695 0.81219 0.0
C114 C 0.05807 0.80761 0.85861 0.0
N115 N 0.07727 0.87887 0.85605 0.0
N116 N 0.0776 0.85192 0.88375 0.0
C117 C 0.04999 0.87226 0.7711 0.0
H118 H 0.07383 0.90741 0.77948 0.0
H119 H 0.05551 0.84882 0.74109 0.0
H120 H 0.01387 0.87473 0.7612 0.0
C121 C 0.05274 0.76739 0.87878 0.0
H122 H 0.0522 0.77877 0.91544 0.0
H123 H 0.02059 0.73968 0.85815 0.0
H124 H 0.0828 0.75306 0.87798 0.0
C125 C 0.80607 0.15344 0.02814 0.0
C126 C 0.79804 0.18284 0.00055 0.0
C127 C 0.82033 0.17261 0.96641 0.0
N128 N 0.8313 0.12741 0.01052 0.0
N129 N 0.84024 0.13932 0.97417 0.0
C130 C 0.79297 0.15245 0.072 0.0
H131 H 0.75697 0.1302 0.06343 0.0
H132 H 0.79434 0.18784 0.09149 0.0
H133 H 0.81658 0.13799 0.09375 0.0
C134 C 0.82037 0.19176 0.92568 0.0
H135 H 0.78543 0.19513 0.91054 0.0
H136 H 0.84531 0.22674 0.9373 0.0
H137 H 0.8311 0.16927 0.89899 0.0
C138 C 0.18851 0.95777 0.96103 0.0
C139 C 0.01246 0.94884 0.87638 0.0
C140 C 0.84844 0.80516 0.06666 0.0
N141 N 0.87398 0.84928 0.086 0.0
N142 N 0.84709 0.87702 0.08418 0.0
C143 C 0.80234 0.80515 0.05159 0.0
C144 C 0.80296 0.85173 0.06331 0.0
H145 H 0.90487 0.77547 0.06127 0.0
H146 H 0.86709 0.75058 0.09195 0.0
H147 H 0.84749 0.73677 0.02967 0.0
C148 C 0.86816 0.76457 0.06174 0.0
H149 H 0.77111 0.90674 0.08006 0.0
H150 H 0.75296 0.8739 0.02011 0.0
H151 H 0.73201 0.8485 0.06161 0.0
C152 C 0.76241 0.87148 0.05627 0.0
C153 C 0.15273 0.02454 0.81728 0.0
N154 N 0.12642 0.00733 0.84246 0.0
N155 N 0.13791 0.97085 0.85159 0.0
C156 C 0.18185 -0.00348 0.80947 0.0
C157 C 0.17119 0.96261 0.83188 0.0
C158 C 0.15195 0.06814 0.80362 0.0
H159 H 0.12978 0.05933 0.76751 0.0
H160 H 0.18744 0.08735 0.80498 0.0
H161 H 0.13747 0.09023 0.82688 0.0
C162 C 0.18941 0.92126 0.8316 0.0
H163 H 0.19197 0.90572 0.79644 0.0
H164 H 0.22469 0.93225 0.85604 0.0
H165 H 0.16677 0.89511 0.84272 0.0
C166 C 0.95216 0.95385 0.19684 0.0
C167 C 0.94372 0.8699 0.02093 0.0
Cu168 Cu 0.08002 0.8632 0.02845 0.0
Cu169 Cu 0.01919 0.86072 0.08883 0.0
Cu170 Cu 0.85904 0.02214 0.08817 0.0
Cu171 Cu 0.85669 0.08197 0.0269 0.0
Cu172 Cu 0.01981 0.08404 0.86893 0.0
Cu173 Cu 0.08063 0.02386 0.86716 0.0
Cu174 Cu 0.87452 0.10745 0.94438 0.0
Cu175 Cu 0.93612 0.10777 0.88631 0.0
Cu176 Cu 0.10494 0.94098 0.88503 0.0
Cu177 Cu 0.1053 0.88202 0.94583 0.0
Cu178 Cu 0.93607 0.87809 0.11346 0.0
Cu179 Cu 0.87722 0.93906 0.11274 0.0
H180 H -0.01203 0.7552 0.02815 0.0
H181 H 0.04841 0.76807 0.05953 0.0
H182 H 0.03195 0.75871 -0.00264 0.0
H183 H 0.07481 0.95943 0.98468 0.0
H184 H 0.04492 0.94011 0.02434 0.0
H185 H 0.01409 0.92701 0.96385 0.0
H186 H 0.75159 0.02362 -0.00417 0.0
H187 H 0.7639 0.05158 0.05707 0.0
H188 H 0.75407 -0.01044 0.037 0.0
H189 H 0.95561 0.97866 0.08385 0.0
H190 H 0.93655 0.01842 0.05387 0.0
H191 H 0.92373 0.95808 0.02293 0.0
H192 H 0.02206 -0.00723 0.76133 0.0
H193 H 0.05141 0.05371 0.77438 0.0
H194 H -0.01082 0.03503 0.76402 0.0
H195 H 0.97644 0.07997 0.96508 0.0
H196 H 0.01609 0.04966 0.9463 0.0
H197 H 0.95571 0.01895 0.93384 0.0
H198 H 0.98024 0.20222 -0.00786 0.0
H199 H 0.95976 0.20545 0.93349 0.0
H200 H 0.92158 0.20507 0.97056 0.0
H201 H 0.87055 0.01113 0.91604 0.0
H202 H 0.88779 -0.00459 0.96902 0.0
H203 H 0.82955 0.00033 0.9491 0.0
H204 H 0.20262 0.93158 0.97451 0.0
H205 H 0.20273 0.964 0.93212 0.0
H206 H 0.19879 -0.00943 0.98918 0.0
H207 H 0.00862 0.91304 0.87934 0.0
H208 H -0.00678 0.96584 0.89802 0.0
H209 H -0.0019 0.94741 0.83958 0.0
H210 H 0.92745 0.97061 0.21027 0.0
H211 H 0.95462 0.9242 0.21125 0.0
H212 H -0.01323 0.97938 0.2076 0.0
H213 H 0.94184 0.83299 0.00662 0.0
H214 H 0.90805 0.87338 0.01708 0.0
H215 H 0.96102 0.89123 0.00165 0.0
O216 O 0.02845 0.81952 0.03626 0.0
O217 O 0.0601 0.89048 0.97942 0.0
O218 O 0.81549 0.02952 0.03609 0.0
O219 O 0.88655 0.97332 0.06833 0.0
O220 O 0.02821 0.03274 0.82539 0.0
O221 O 0.97078 0.06367 0.89597 0.0
O222 O 0.93495 0.14395 0.94597 0.0
O223 O 0.88111 0.06063 0.97603 0.0
O224 O 0.14109 0.94205 0.94558 0.0
O225 O 0.05849 0.97309 0.89131 0.0
O226 O 0.937 0.93855 0.14939 0.0
O227 O 0.96806 0.88467 0.06695 0.0
C228 C 0.14428 0.43377 0.60721 0.0
C229 C 0.14398 0.4526 0.65257 0.0
C230 C 0.0988 0.43396 0.65377 0.0
N231 N 0.10184 0.40578 0.58383 0.0
N232 N 0.07472 0.40582 0.61138 0.0
C233 C 0.18476 0.43913 0.58735 0.0
H234 H 0.1728 0.43608 0.54979 0.0
H235 H 0.20123 0.41097 0.59126 0.0
H236 H 0.21087 0.47298 0.60569 0.0
C237 C 0.08129 0.43631 0.69569 0.0
H238 H 0.04285 0.42674 0.68542 0.0
H239 H 0.09512 0.4715 0.72021 0.0
H240 H 0.09299 0.41159 0.71375 0.0
C241 C 0.95747 0.67313 0.33194 0.0
C242 C 0.01954 0.65442 0.31798 0.0
C243 C -0.00841 0.68341 0.30961 0.0
N244 N 0.96558 0.64015 0.35219 0.0
N245 N 0.00216 0.62858 0.34338 0.0
H246 H 0.92737 0.72706 0.3553 0.0
H247 H 0.90078 0.69382 0.2959 0.0
H248 H 0.88994 0.66938 0.34258 0.0
C249 C 0.91623 0.69162 0.33124 0.0
H250 H 0.08255 0.68846 0.30548 0.0
H251 H 0.05441 0.63058 0.26865 0.0
H252 H 0.08519 0.63898 0.32823 0.0
C253 C 0.06321 0.65319 0.30455 0.0
C254 C 0.02208 0.27192 0.52992 0.0
C255 C 0.04746 0.42925 0.48755 0.0
C256 C 0.93384 0.60426 0.65516 0.0
N257 N 0.90529 0.58014 0.61305 0.0
N258 N 0.90484 0.6068 0.58505 0.0
C259 C 0.95214 0.6493 0.65365 0.0
C260 C 0.93273 0.64937 0.60824 0.0
H261 H 0.92774 0.54836 0.68694 0.0
H262 H 0.91196 0.598 0.71531 0.0
H263 H 0.97206 0.60092 0.72158 0.0
C264 C 0.93681 0.58676 0.69716 0.0
H265 H 0.93389 0.67799 0.55081 0.0
H266 H 0.97089 0.71628 0.60656 0.0
H267 H 0.90873 0.70581 0.59254 0.0
C268 C 0.93718 0.68984 0.58841 0.0
C269 C 0.16949 0.3251 0.46646 0.0
C270 C 0.15056 0.311 0.52834 0.0
N271 N 0.13646 0.34538 0.47446 0.0
N272 N 0.12477 0.33651 0.51094 0.0
C273 C 0.17966 0.30265 0.50053 0.0
H274 H 0.22356 0.34868 0.43669 0.0
H275 H 0.19051 0.28929 0.40997 0.0
H276 H 0.16588 0.33587 0.399 0.0
C277 C 0.18814 0.32455 0.42537 0.0
C278 C 0.14922 0.29748 0.57194 0.0
H279 H 0.18447 0.29821 0.59133 0.0
H280 H 0.12646 0.26167 0.56303 0.0
H281 H 0.13507 0.32119 0.59392 0.0
C282 C 0.77057 0.52644 0.53496 0.0
C283 C 0.92839 0.48413 0.55901 0.0
C284 C 0.09926 0.64728 0.44091 0.0
N285 N 0.0751 0.60507 0.41266 0.0
C286 C 0.14448 0.64595 0.45907 0.0
N287 N 0.10194 0.57721 0.41227 0.0
C288 C 0.14463 0.60055 0.4399 0.0
H289 H 0.04316 0.67888 0.43428 0.0
H290 H 0.09308 0.70747 0.41908 0.0
H291 H 0.09549 0.71346 0.47902 0.0
C292 C 0.0816 0.68917 0.4437 0.0
H293 H 0.17358 0.54328 0.44105 0.0
C294 C 0.18524 0.58085 0.44431 0.0
H295 H 0.2011 0.58505 0.41582 0.0
H296 H 0.21177 0.59905 0.47798 0.0
C297 C 0.82533 0.46257 0.68154 0.0
C298 C 0.81116 0.52475 0.66335 0.0
N299 N 0.84536 0.47086 0.64846 0.0
N300 N 0.83648 0.50753 0.63723 0.0
C301 C 0.80293 0.4966 0.6922 0.0
H302 H 0.84873 0.43174 0.73481 0.0
C303 C 0.82456 0.421 0.69942 0.0
H304 H 0.83575 0.39486 0.67677 0.0
H305 H 0.78924 0.40557 0.7016 0.0
H306 H 0.79803 0.58738 0.69753 0.0
H307 H 0.76143 0.55927 0.63949 0.0
C308 C 0.79731 0.56824 0.66222 0.0
H309 H 0.82085 0.59045 0.64813 0.0
C310 C 0.02058 0.52596 0.27822 0.0
C311 C 0.97885 0.55098 0.43583 0.0
C312 C 0.80216 0.55872 0.35843 0.0
N313 N 0.84624 0.57943 0.38388 0.0
C314 C 0.80186 0.54583 0.31205 0.0
C315 C 0.84817 0.55995 0.31236 0.0
N316 N 0.87361 0.57964 0.35659 0.0
C317 C 0.76146 0.55231 0.37793 0.0
H318 H 0.76998 0.57664 0.41289 0.0
H319 H 0.73112 0.55729 0.3544 0.0
H320 H 0.75201 0.51645 0.38104 0.0
C321 C 0.86797 0.55442 0.27187 0.0
H322 H 0.9047 0.55398 0.28303 0.0
H323 H 0.8473 0.52218 0.2443 0.0
H324 H 0.86686 0.58431 0.25738 0.0
C325 C 0.02011 0.31031 0.66073 0.0
C326 C -0.00734 0.30286 0.69039 0.0
C327 C 0.95864 0.32531 0.68003 0.0
N328 N 0.0025 0.33533 0.63442 0.0
N329 N 0.96632 0.34471 0.64643 0.0
H330 H 0.05508 0.26074 0.63771 0.0
H331 H 0.08341 0.29843 0.69522 0.0
H332 H 0.08557 0.32007 0.645 0.0
C333 C 0.06383 0.29685 0.65974 0.0
C334 C 0.91811 0.32601 0.69938 0.0
H335 H 0.90298 0.2914 0.70333 0.0
H336 H 0.92995 0.35143 0.73415 0.0
H337 H 0.89135 0.3365 0.67666 0.0
C338 C 0.95111 0.6911 0.46146 0.0
C339 C 0.8678 0.51514 0.45457 0.0
C340 C 0.0546 0.35104 0.31068 0.0
C341 C 0.04169 0.30478 0.31058 0.0
C342 C 0.05597 0.3052 0.35693 0.0
N343 N 0.07551 0.37655 0.35468 0.0
N344 N 0.07577 0.34943 0.38223 0.0
C345 C 0.04795 0.37034 0.26985 0.0
H346 H 0.07184 0.40548 0.27833 0.0
H347 H 0.05339 0.34699 0.23973 0.0
H348 H 0.01185 0.37288 0.26005 0.0
C349 C 0.05058 0.26482 0.37685 0.0
H350 H 0.0502 0.27604 0.41357 0.0
H351 H 0.01833 0.23724 0.35621 0.0
H352 H 0.08053 0.25037 0.37579 0.0
C353 C 0.80927 0.65609 0.53063 0.0
C354 C 0.80151 0.6853 0.50272 0.0
C355 C 0.8234 0.67423 0.46842 0.0
N356 N 0.83393 0.62935 0.51299 0.0
N357 N 0.84271 0.64059 0.4763 0.0
C358 C 0.79622 0.65573 0.57461 0.0
H359 H 0.75997 0.63415 0.56622 0.0
H360 H 0.79829 0.69139 0.59402 0.0
H361 H 0.81937 0.64086 0.59639 0.0
C362 C 0.8234 0.69276 0.42731 0.0
H363 H 0.78858 0.69645 0.41227 0.0
H364 H 0.84868 0.72754 0.43851 0.0
H365 H 0.83369 0.66971 0.40068 0.0
C366 C 0.1875 0.45426 0.45903 0.0
C367 C 0.01102 0.44667 0.37622 0.0
C368 C 0.84848 0.30662 0.56802 0.0
N369 N 0.87432 0.35062 0.58743 0.0
N370 N 0.84769 0.37863 0.58607 0.0
C371 C 0.80244 0.30696 0.55341 0.0
C372 C 0.80341 0.35362 0.56544 0.0
H373 H 0.90449 0.27651 0.56175 0.0
H374 H 0.86705 0.25174 0.59279 0.0
H375 H 0.84686 0.23816 0.53055 0.0
C376 C 0.86788 0.26582 0.5626 0.0
H377 H 0.77219 0.40906 0.5826 0.0
H378 H 0.7532 0.37597 0.5227 0.0
H379 H 0.73279 0.351 0.56469 0.0
C380 C 0.76307 0.3737 0.55888 0.0
C381 C 0.15078 0.52296 0.3165 0.0
N382 N 0.12446 0.50526 0.34142 0.0
N383 N 0.13615 0.46878 0.35028 0.0
C384 C 0.18016 0.49528 0.30853 0.0
C385 C 0.16963 0.46103 0.33063 0.0
C386 C 0.15007 0.56696 0.30363 0.0
H387 H 0.12813 0.55866 0.26749 0.0
H388 H 0.18563 0.58643 0.30545 0.0
H389 H 0.1354 0.5886 0.32706 0.0
C390 C 0.18846 0.42008 0.33046 0.0
H391 H 0.19201 0.40519 0.29557 0.0
H392 H 0.22336 0.43134 0.35562 0.0
H393 H 0.16562 0.39335 0.34078 0.0
C394 C 0.95411 0.45486 0.69813 0.0
C395 C 0.94346 0.37081 0.52154 0.0
Cu396 Cu 0.07907 0.36112 0.52754 0.0
Cu397 Cu 0.01878 0.36016 0.5886 0.0
Cu398 Cu 0.86039 0.52404 0.59113 0.0
Cu399 Cu 0.85859 0.58354 0.52954 0.0
Cu400 Cu 0.01878 0.58287 0.36785 0.0
Cu401 Cu 0.07871 0.5216 0.36631 0.0
Cu402 Cu 0.87576 0.60739 0.446 0.0
Cu403 Cu 0.93574 0.60764 0.38611 0.0
Cu404 Cu 0.10346 0.43861 0.38383 0.0
Cu405 Cu 0.10391 0.37921 0.44436 0.0
Cu406 Cu 0.93657 0.37891 0.6144 0.0
Cu407 Cu 0.87827 0.44052 0.61486 0.0
H408 H -0.01377 0.25464 0.52929 0.0
H409 H 0.04709 0.2667 0.55877 0.0
H410 H 0.0286 0.25678 0.49658 0.0
H411 H 0.04516 0.43863 0.52371 0.0
H412 H 0.0134 0.42521 0.46346 0.0
H413 H 0.07423 0.45723 0.48321 0.0
H414 H 0.75287 0.52614 0.49932 0.0
H415 H 0.76601 0.55539 0.56036 0.0
H416 H 0.75531 0.49317 0.54146 0.0
H417 H 0.93719 0.51991 0.55563 0.0
H418 H 0.92473 0.45938 0.52549 0.0
H419 H 0.95661 0.48083 0.58638 0.0
H420 H 0.02037 0.49029 0.26084 0.0
H421 H 0.04924 0.55125 0.27317 0.0
H422 H -0.01293 0.53217 0.26301 0.0
H423 H 0.01479 0.54796 0.44484 0.0
H424 H 0.95433 0.51726 0.43181 0.0
H425 H 0.97516 0.57799 0.46408 0.0
H426 H -0.01539 0.70179 0.48878 0.0
H427 H 0.95593 0.70528 0.43216 0.0
H428 H 0.92525 0.70483 0.47593 0.0
H429 H 0.83149 0.5004 0.45441 0.0
H430 H 0.86938 0.51108 0.4183 0.0
H431 H 0.89048 0.49641 0.47103 0.0
H432 H 0.19836 0.48388 0.49069 0.0
H433 H 0.2016 0.42582 0.46707 0.0
H434 H 0.20118 0.46554 0.43163 0.0
H435 H -0.0039 0.4458 0.33969 0.0
H436 H 0.00725 0.41068 0.37855 0.0
H437 H -0.00778 0.46341 0.3986 0.0
H438 H -0.01588 0.48607 0.70835 0.0
H439 H 0.9262 0.46376 0.71264 0.0
H440 H 0.96511 0.4274 0.71197 0.0
H441 H 0.9418 0.33409 0.50658 0.0
H442 H 0.90773 0.37396 0.51819 0.0
H443 H 0.96034 0.39277 0.50252 0.0
O444 O 0.02713 0.31832 0.53586 0.0
O445 O 0.05924 0.38838 0.47848 0.0
O446 O 0.81683 0.5318 0.53929 0.0
O447 O 0.88746 0.47505 0.57068 0.0
O448 O 0.02646 0.53082 0.32462 0.0
O449 O 0.9698 0.56293 0.39504 0.0
O450 O 0.93592 0.64369 0.44624 0.0
O451 O 0.88251 0.56122 0.47852 0.0
O452 O 0.14003 0.43912 0.44407 0.0
O453 O 0.05706 0.47082 0.39066 0.0
O454 O 0.93818 0.43946 0.65071 0.0
O455 O 0.96812 0.38504 0.56745 0.0
C456 C 0.64478 0.93473 0.6068 0.0
C457 C 0.64432 0.95295 0.65222 0.0
C458 C 0.59923 0.93368 0.65327 0.0
N459 N 0.60253 0.90644 0.58325 0.0
N460 N 0.57534 0.90576 0.61073 0.0
C461 C 0.68528 0.94093 0.58702 0.0
H462 H 0.67326 0.93833 0.54957 0.0
H463 H 0.70207 0.91291 0.5905 0.0
H464 H 0.71114 0.97486 0.60569 0.0
C465 C 0.58172 0.93526 0.69513 0.0
H466 H 0.54328 0.92556 0.68485 0.0
H467 H 0.59547 0.97025 0.72005 0.0
H468 H 0.59352 0.91027 0.71272 0.0
C469 C 0.45809 0.17449 0.33376 0.0
C470 C 0.52031 0.15639 0.31954 0.0
C471 C 0.4921 0.18523 0.3114 0.0
N472 N 0.46646 0.14135 0.3537 0.0
N473 N 0.50316 0.1302 0.34479 0.0
H474 H 0.42743 0.22782 0.35737 0.0
H475 H 0.40103 0.1948 0.29787 0.0
H476 H 0.39044 0.16986 0.34435 0.0
C477 C 0.41656 0.19249 0.33315 0.0
H478 H 0.58305 0.19081 0.30683 0.0
H479 H 0.55498 0.13299 0.26984 0.0
H480 H 0.58611 0.14119 0.32925 0.0
C481 C 0.56389 0.15544 0.30582 0.0
C482 C 0.52428 0.77214 0.52858 0.0
C483 C 0.54853 0.93018 0.48707 0.0
C484 C 0.43155 0.1016 0.65384 0.0
N485 N 0.40347 0.07758 0.61147 0.0
N486 N 0.40289 0.10464 0.58385 0.0
C487 C 0.4494 0.14696 0.65289 0.0
C488 C 0.43022 0.14732 0.60753 0.0
H489 H 0.42532 0.04521 0.68495 0.0
H490 H 0.40965 0.09471 0.71385 0.0
H491 H 0.46971 0.09756 0.71996 0.0
C492 C 0.43444 0.0836 0.69553 0.0
H493 H 0.43126 0.17667 0.55052 0.0
H494 H 0.46792 0.2147 0.60653 0.0
H495 H 0.4057 0.20367 0.59234 0.0
C496 C 0.43438 0.18808 0.58812 0.0
C497 C 0.67213 0.82777 0.46682 0.0
C498 C 0.65267 0.81296 0.52824 0.0
N499 N 0.63864 0.8475 0.47448 0.0
N500 N 0.62666 0.8382 0.51067 0.0
C501 C 0.68226 0.8052 0.50081 0.0
H502 H 0.7263 0.85305 0.43791 0.0
H503 H 0.69489 0.79317 0.41104 0.0
H504 H 0.66877 0.83867 0.39946 0.0
C505 C 0.69135 0.828 0.42617 0.0
C506 C 0.65103 0.79919 0.57167 0.0
H507 H 0.6862 0.79981 0.59119 0.0
H508 H 0.62817 0.76341 0.56254 0.0
H509 H 0.6368 0.82283 0.59363 0.0
C510 C 0.26923 0.02283 0.53183 0.0
C511 C 0.4272 0.98151 0.55716 0.0
C512 C 0.59945 0.14892 0.44165 0.0
N513 N 0.57615 0.10662 0.4134 0.0
C514 C 0.64488 0.14862 0.46024 0.0
N515 N 0.60376 0.07952 0.41313 0.0
C516 C 0.64618 0.10356 0.44124 0.0
H517 H 0.54196 0.17727 0.44455 0.0
H518 H 0.58307 0.20592 0.41932 0.0
H519 H 0.59789 0.2153 0.48135 0.0
C520 C 0.57946 0.18931 0.44742 0.0
H521 H 0.67813 0.04779 0.43347 0.0
C522 C 0.68821 0.0862 0.44317 0.0
H523 H 0.70597 0.09804 0.41833 0.0
H524 H 0.71293 0.10002 0.47831 0.0
C525 C 0.32314 0.95957 0.67901 0.0
C526 C 0.3091 0.02166 0.66049 0.0
N527 N 0.34332 0.9677 0.64598 0.0
N528 N 0.33444 0.00429 0.63453 0.0
C529 C 0.3008 -0.0063 0.68944 0.0
H530 H 0.34663 0.9294 0.73284 0.0
C531 C 0.3225 0.91833 0.6974 0.0
H532 H 0.33379 0.89204 0.67503 0.0
H533 H 0.28719 0.90295 0.69965 0.0
H534 H 0.29695 0.08477 0.69491 0.0
H535 H 0.25978 0.05678 0.63709 0.0
C536 C 0.29576 0.06541 0.6595 0.0
H537 H 0.31931 0.0873 0.64517 0.0
C538 C 0.52289 0.02874 0.2788 0.0
C539 C 0.48054 0.05202 0.43677 0.0
C540 C 0.30247 0.06071 0.3577 0.0
N541 N 0.3466 0.08011 0.38333 0.0
C542 C 0.30246 0.04624 0.31156 0.0
C543 C 0.34907 0.05836 0.31225 0.0
N544 N 0.37437 0.0789 0.35647 0.0
C545 C 0.26187 0.05524 0.37736 0.0
H546 H 0.27285 0.05431 0.41394 0.0
H547 H 0.24771 0.08541 0.37671 0.0
H548 H 0.23413 0.02325 0.3564 0.0
C549 C 0.36881 0.05203 0.27171 0.0
H550 H 0.40415 0.07574 0.28071 0.0
H551 H 0.37109 0.0159 0.2616 0.0
H552 H 0.34585 0.05797 0.24162 0.0
C553 C 0.52075 0.80947 0.6594 0.0
C554 C 0.493 0.80168 0.68874 0.0
C555 C 0.45876 0.8238 0.678 0.0
N556 N 0.50309 0.83434 0.6329 0.0
N557 N 0.46654 0.84326 0.64445 0.0
H558 H 0.55641 0.76032 0.63708 0.0
H559 H 0.5842 0.79835 0.69452 0.0
H560 H 0.58648 0.81975 0.64419 0.0
C561 C 0.56476 0.79647 0.6589 0.0
C562 C 0.41792 0.82413 0.69693 0.0
H563 H 0.40317 0.78958 0.70122 0.0
H564 H 0.42933 0.84987 0.73149 0.0
H565 H 0.39101 0.83402 0.67376 0.0
C566 C 0.45058 0.19105 0.46223 0.0
C567 C 0.3679 0.01452 0.45277 0.0
C568 C 0.5569 0.85331 0.31065 0.0
C569 C 0.54406 0.80698 0.31039 0.0
C570 C 0.55837 0.80728 0.3567 0.0
N571 N 0.57776 0.87872 0.3547 0.0
N572 N 0.57813 0.85147 0.38212 0.0
C573 C 0.55011 0.87281 0.26995 0.0
H574 H 0.57452 0.90766 0.27831 0.0
H575 H 0.5547 0.84923 0.23945 0.0
H576 H 0.51425 0.87613 0.26086 0.0
C577 C 0.55283 0.76684 0.37655 0.0
H578 H 0.55247 0.77804 0.41328 0.0
H579 H 0.52052 0.73936 0.3559 0.0
H580 H 0.58271 0.75228 0.37544 0.0
C581 C 0.30653 0.15309 0.52905 0.0
C582 C 0.29867 0.18255 0.50147 0.0
C583 C 0.32125 0.17243 0.46755 0.0
N584 N 0.33194 0.12714 0.51164 0.0
N585 N 0.34113 0.13915 0.47542 0.0
C586 C 0.29297 0.15187 0.57265 0.0
H587 H 0.25694 0.12957 0.56372 0.0
H588 H 0.29417 0.1872 0.59215 0.0
H589 H 0.3164 0.13735 0.59453 0.0
C590 C 0.32146 0.19156 0.42682 0.0
H591 H 0.28654 0.19485 0.4115 0.0
H592 H 0.34636 0.22657 0.43851 0.0
H593 H 0.33236 0.16911 0.40027 0.0
C594 C 0.68906 0.95708 0.45994 0.0
C595 C 0.51296 0.94869 0.37585 0.0
C596 C 0.3486 0.80435 0.56301 0.0
N597 N 0.37431 0.84823 0.58399 0.0
N598 N 0.34725 0.87588 0.58461 0.0
C599 C 0.3023 0.80444 0.5504 0.0
C600 C 0.30292 0.85079 0.56495 0.0
H601 H 0.40295 0.7717 0.58006 0.0
H602 H 0.34434 0.73333 0.56156 0.0
H603 H 0.37022 0.75371 0.52008 0.0
C604 C 0.36776 0.76341 0.5562 0.0
H605 H 0.27386 0.90761 0.55961 0.0
H606 H 0.23473 0.85043 0.52788 0.0
H607 H 0.2485 0.86992 0.59013 0.0
C608 C 0.26261 0.87092 0.55999 0.0
C609 C 0.65335 0.02541 0.3173 0.0
N610 N 0.62686 0.00774 0.34209 0.0
N611 N 0.63836 0.97115 0.35089 0.0
C612 C 0.68263 -0.00241 0.30938 0.0
C613 C 0.67185 0.9633 0.33133 0.0
C614 C 0.65264 0.06929 0.30417 0.0
H615 H 0.63081 0.06082 0.26797 0.0
H616 H 0.68821 0.08875 0.30604 0.0
H617 H 0.63782 0.091 0.3274 0.0
C618 C 0.69025 0.92203 0.33081 0.0
H619 H 0.69304 0.90684 0.29567 0.0
H620 H 0.72544 0.93302 0.3554 0.0
H621 H 0.66757 0.8956 0.3416 0.0
C622 C 0.45276 0.95204 0.69645 0.0
C623 C 0.44474 0.87009 0.51982 0.0
Cu624 Cu 0.5804 0.86203 0.52686 0.0
Cu625 Cu 0.51969 0.85968 0.58746 0.0
Cu626 Cu 0.35892 0.02116 0.58893 0.0
Cu627 Cu 0.35712 0.08149 0.52798 0.0
Cu628 Cu 0.51999 0.08419 0.36863 0.0
Cu629 Cu 0.58096 0.024 0.36683 0.0
Cu630 Cu 0.37529 0.10719 0.44553 0.0
Cu631 Cu 0.4364 0.10773 0.38675 0.0
Cu632 Cu 0.60542 0.9408 0.38408 0.0
Cu633 Cu 0.60585 0.88111 0.44432 0.0
Cu634 Cu 0.4365 0.8771 0.61204 0.0
Cu635 Cu 0.37715 0.93781 0.61322 0.0
H636 H 0.48808 0.75409 0.52612 0.0
H637 H 0.5483 0.767 0.55826 0.0
H638 H 0.53267 0.75774 0.49609 0.0
H639 H 0.54578 0.93918 0.52309 0.0
H640 H 0.51462 0.92608 0.46268 0.0
H641 H 0.57535 0.95844 0.48321 0.0
H642 H 0.25195 0.02326 0.49633 0.0
H643 H 0.26399 0.05102 0.55758 0.0
H644 H 0.25406 -0.01101 0.53731 0.0
H645 H 0.43634 0.01759 0.55467 0.0
H646 H 0.42323 0.95737 0.52318 0.0
H647 H 0.45534 0.9774 0.58403 0.0
H648 H 0.52195 -0.00702 0.26089 0.0
H649 H 0.55205 0.05375 0.27415 0.0
H650 H 0.4898 0.03585 0.26383 0.0
H651 H 0.47691 0.07919 0.46491 0.0
H652 H 0.51654 0.04913 0.44569 0.0
H653 H 0.45616 0.01832 0.43314 0.0
H654 H 0.48153 0.20169 0.49263 0.0
H655 H 0.45979 0.20533 0.43433 0.0
H656 H 0.42271 0.20471 0.47248 0.0
H657 H 0.33135 -0.0007 0.45153 0.0
H658 H 0.37053 0.01113 0.41688 0.0
H659 H 0.39039 -0.00421 0.46952 0.0
H660 H 0.70326 0.93034 0.47216 0.0
H661 H 0.70322 0.96466 0.4314 0.0
H662 H 0.69928 -0.01085 0.489 0.0
H663 H 0.49835 0.94791 0.33929 0.0
H664 H 0.50917 0.91266 0.37809 0.0
H665 H 0.49389 0.96526 0.39801 0.0
H666 H 0.47992 0.9856 0.70721 0.0
H667 H 0.42359 0.95656 0.71099 0.0
H668 H 0.46759 0.92616 0.70975 0.0
H669 H 0.44383 0.83362 0.50469 0.0
H670 H 0.40872 0.87246 0.51602 0.0
H671 H 0.46155 0.89264 0.50125 0.0
O672 O 0.52873 0.81847 0.53471 0.0
O673 O 0.56063 0.88949 0.47794 0.0
O674 O 0.31567 0.02893 0.53682 0.0
O675 O 0.38634 0.97233 0.56892 0.0
O676 O 0.52852 0.03296 0.32507 0.0
O677 O 0.47114 0.06357 0.39579 0.0
O678 O 0.43562 0.14363 0.44672 0.0
O679 O 0.38191 0.06042 0.47727 0.0
O680 O 0.64164 0.94132 0.44443 0.0
O681 O 0.55898 0.97293 0.39072 0.0
O682 O 0.43718 0.93716 0.649 0.0
O683 O 0.46886 0.88419 0.56589 0.0
C684 C 0.64418 0.43507 0.10926 0.0
C685 C 0.643 0.45337 0.15449 0.0
C686 C 0.59762 0.43428 0.15474 0.0
N687 N 0.60191 0.40684 0.0852 0.0
N688 N 0.57416 0.40655 0.11213 0.0
C689 C 0.68599 0.43782 0.09148 0.0
H690 H 0.67554 0.42838 0.05303 0.0
H691 H 0.70438 0.41321 0.10293 0.0
H692 H 0.7103 0.47309 0.1053 0.0
C693 C 0.57798 0.43898 0.19536 0.0
H694 H 0.54039 0.43584 0.18366 0.0
H695 H 0.59627 0.47266 0.22178 0.0
H696 H 0.58213 0.41057 0.21136 0.0
C697 C 0.45859 0.6738 0.8325 0.0
C698 C 0.52054 0.65481 0.81855 0.0
C699 C 0.49276 0.68399 0.81016 0.0
N700 N 0.46649 0.64069 0.85269 0.0
N701 N 0.50301 0.629 0.84392 0.0
H702 H 0.42841 0.7276 0.85601 0.0
H703 H 0.40217 0.69482 0.7964 0.0
H704 H 0.39086 0.66987 0.84265 0.0
C705 C 0.41734 0.6923 0.83168 0.0
H706 H 0.5835 0.6884 0.80563 0.0
H707 H 0.55519 0.63035 0.76927 0.0
H708 H 0.58612 0.63921 0.82887 0.0
C709 C 0.56412 0.65327 0.80504 0.0
C710 C 0.52223 0.27281 0.03083 0.0
C711 C 0.54793 0.43042 0.98888 0.0
C712 C 0.43216 0.60465 0.15337 0.0
N713 N 0.4036 0.58045 0.11128 0.0
N714 N 0.40312 0.60705 0.08321 0.0
C715 C 0.45043 0.64968 0.15178 0.0
C716 C 0.43095 0.64966 0.10635 0.0
H717 H 0.42602 0.54879 0.1852 0.0
H718 H 0.41054 0.59859 0.2137 0.0
H719 H 0.47055 0.60124 0.21971 0.0
C720 C 0.43523 0.5872 0.1954 0.0
H721 H 0.43152 0.67815 0.04875 0.0
H722 H 0.4692 0.71635 0.10425 0.0
H723 H 0.40713 0.70631 0.09102 0.0
C724 C 0.43532 0.69008 0.08644 0.0
C725 C 0.66931 0.3258 0.96715 0.0
C726 C 0.65092 0.31201 0.02937 0.0
N727 N 0.63635 0.3461 0.97533 0.0
N728 N 0.62498 0.33742 0.01202 0.0
C729 C 0.67977 0.30355 0.00132 0.0
H730 H 0.72304 0.3491 0.93687 0.0
H731 H 0.68982 0.28973 0.91041 0.0
H732 H 0.6652 0.33633 0.89954 0.0
C733 C 0.6876 0.32505 0.92582 0.0
C734 C 0.6499 0.29862 0.07309 0.0
H735 H 0.6853 0.29971 0.09244 0.0
H736 H 0.62747 0.2627 0.06435 0.0
H737 H 0.63558 0.32217 0.09505 0.0
C738 C 0.26914 0.52591 0.03255 0.0
C739 C 0.42721 0.48443 0.05767 0.0
C740 C 0.59922 0.64746 0.94071 0.0
N741 N 0.57553 0.60514 0.91274 0.0
C742 C 0.64457 0.64682 0.95913 0.0
N743 N 0.60279 0.57771 0.9125 0.0
C744 C 0.6454 0.60154 0.94034 0.0
H745 H 0.54216 0.67649 0.94372 0.0
H746 H 0.58329 0.7045 0.9181 0.0
H747 H 0.59837 0.71424 0.98018 0.0
C748 C 0.57965 0.68814 0.94637 0.0
H749 H 0.67668 0.5453 0.93258 0.0
C750 C 0.68713 0.5837 0.94223 0.0
H751 H 0.705 0.5953 0.91737 0.0
H752 H 0.71187 0.59741 0.97736 0.0
C753 C 0.32378 0.46299 0.18001 0.0
C754 C 0.30939 0.52496 0.1615 0.0
N755 N 0.34378 0.4712 0.14688 0.0
N756 N 0.33477 0.50773 0.13545 0.0
C757 C 0.30129 0.49697 0.19052 0.0
H758 H 0.34755 0.43252 0.23348 0.0
C759 C 0.32323 0.4216 0.19815 0.0
H760 H 0.33435 0.39538 0.17554 0.0
H761 H 0.28799 0.4062 0.20056 0.0
H762 H 0.29625 0.58763 0.19558 0.0
H763 H 0.2596 0.55939 0.13758 0.0
C764 C 0.29551 0.56841 0.16028 0.0
H765 H 0.31901 0.59057 0.14613 0.0
C766 C 0.52109 0.52641 0.77852 0.0
C767 C 0.47963 0.5523 0.93692 0.0
C768 C 0.30202 0.56152 0.85651 0.0
N769 N 0.34611 0.58097 0.88229 0.0
C770 C 0.30224 0.5464 0.81049 0.0
C771 C 0.34892 0.55824 0.81142 0.0
N772 N 0.37403 0.5792 0.85562 0.0
C773 C 0.26125 0.55649 0.87593 0.0
H774 H 0.27204 0.55612 0.9127 0.0
H775 H 0.2471 0.58657 0.87462 0.0
H776 H 0.23358 0.52436 0.85522 0.0
C777 C 0.36893 0.55112 0.77111 0.0
H778 H 0.40418 0.57498 0.77994 0.0
H779 H 0.37155 0.51504 0.76194 0.0
H780 H 0.346 0.55627 0.74049 0.0
C781 C 0.51915 0.31104 0.16104 0.0
C782 C 0.49155 0.30355 0.19057 0.0
C783 C 0.45776 0.3263 0.18028 0.0
N784 N 0.50184 0.33633 0.13488 0.0
N785 N 0.4657 0.34587 0.14683 0.0
H786 H 0.55368 0.2612 0.13763 0.0
H787 H 0.58212 0.29845 0.19532 0.0
H788 H 0.58466 0.32048 0.14538 0.0
C789 C 0.56268 0.29724 0.15992 0.0
C790 C 0.41708 0.32696 0.1994 0.0
H791 H 0.40174 0.29228 0.20307 0.0
H792 H 0.42883 0.35219 0.23428 0.0
H793 H 0.39052 0.33769 0.1767 0.0
C794 C 0.45049 0.69172 0.96076 0.0
C795 C 0.36642 0.51569 0.95226 0.0
C796 C 0.55385 0.3507 0.81153 0.0
C797 C 0.54083 0.30455 0.81182 0.0
C798 C 0.55519 0.30537 0.85828 0.0
N799 N 0.57487 0.37652 0.85541 0.0
N800 N 0.57512 0.34969 0.88326 0.0
C801 C 0.54733 0.36959 0.77041 0.0
H802 H 0.57124 0.4047 0.77869 0.0
H803 H 0.55287 0.346 0.74052 0.0
H804 H 0.51123 0.37208 0.76037 0.0
C805 C 0.54989 0.26526 0.87861 0.0
H806 H 0.54956 0.27679 0.91531 0.0
H807 H 0.51765 0.23759 0.85815 0.0
H808 H 0.57987 0.25081 0.8777 0.0
C809 C 0.30724 0.65557 0.02871 0.0
C810 C 0.29937 0.68492 0.00102 0.0
C811 C 0.32134 0.67423 0.9667 0.0
N812 N 0.33206 0.62913 0.01098 0.0
N813 N 0.34091 0.64071 0.97444 0.0
C814 C 0.29435 0.65497 0.07273 0.0
H815 H 0.25814 0.63328 0.06437 0.0
H816 H 0.29635 0.69056 0.09229 0.0
H817 H 0.31763 0.6401 0.09435 0.0
C818 C 0.32137 0.69319 0.92586 0.0
H819 H 0.28645 0.6966 0.91073 0.0
H820 H 0.34635 0.72815 0.93737 0.0
H821 H 0.33201 0.67056 0.89921 0.0
C822 C 0.68724 0.45499 0.95972 0.0
C823 C 0.51118 0.44761 0.87685 0.0
C824 C 0.34815 0.30711 0.0678 0.0
N825 N 0.37377 0.3512 0.08706 0.0
N826 N 0.34696 0.37902 0.08521 0.0
C827 C 0.30207 0.30719 0.05277 0.0
C828 C 0.30279 0.3538 0.06441 0.0
H829 H 0.36693 0.25267 0.09326 0.0
H830 H 0.34695 0.23856 0.03097 0.0
H831 H 0.40443 0.27725 0.06218 0.0
C832 C 0.36778 0.26647 0.0629 0.0
H833 H 0.27118 0.40905 0.08091 0.0
H834 H 0.2526 0.37569 0.02112 0.0
H835 H 0.232 0.3509 0.06313 0.0
C836 C 0.2623 0.37363 0.05739 0.0
C837 C 0.65131 0.5225 0.81668 0.0
N838 N 0.62468 0.50494 0.84141 0.0
N839 N 0.63595 0.46827 0.85025 0.0
C840 C 0.68046 0.49454 0.80883 0.0
C841 C 0.66949 0.46029 0.8308 0.0
C842 C 0.65115 0.56666 0.80396 0.0
H843 H 0.62955 0.55858 0.76772 0.0
H844 H 0.68689 0.58596 0.80615 0.0
H845 H 0.63638 0.58837 0.82722 0.0
C846 C 0.68819 0.41929 0.83099 0.0
H847 H 0.69235 0.40449 0.79635 0.0
H848 H 0.7228 0.43048 0.85666 0.0
H849 H 0.66493 0.39251 0.84087 0.0
C850 C 0.45238 0.45595 0.19763 0.0
C851 C 0.44329 0.37161 0.02159 0.0
Cu852 Cu 0.57941 0.36213 0.02881 0.0
Cu853 Cu 0.51829 0.36097 0.08901 0.0
Cu854 Cu 0.3589 0.5242 0.0894 0.0
Cu855 Cu 0.35705 0.58355 0.02755 0.0
Cu856 Cu 0.51922 0.58299 0.86819 0.0
Cu857 Cu 0.57934 0.52196 0.86655 0.0
Cu858 Cu 0.37476 0.60829 0.94452 0.0
Cu859 Cu 0.43607 0.60776 0.886 0.0
Cu860 Cu 0.60323 0.43864 0.88411 0.0
Cu861 Cu 0.60369 0.37981 0.94525 0.0
Cu862 Cu 0.43591 0.37983 0.11437 0.0
Cu863 Cu 0.37714 0.44103 0.11376 0.0
H864 H 0.48684 0.25577 0.03166 0.0
H865 H 0.5482 0.26774 0.05898 0.0
H866 H 0.52736 0.25732 -0.00312 0.0
H867 H 0.57505 0.45837 0.98496 0.0
H868 H 0.54522 0.43962 0.0249 0.0
H869 H 0.51412 0.42667 0.96452 0.0
H870 H 0.2517 0.52624 -0.00295 0.0
H871 H 0.26427 0.55436 0.05829 0.0
H872 H 0.25383 0.49224 0.03829 0.0
H873 H 0.45544 0.48097 0.08494 0.0
H874 H 0.43607 0.52025 0.05443 0.0
H875 H 0.42346 0.45978 0.02406 0.0
H876 H 0.51946 0.49038 0.76077 0.0
H877 H 0.5505 0.55081 0.77352 0.0
H878 H 0.48827 0.53406 0.76367 0.0
H879 H 0.51554 0.5492 0.94596 0.0
H880 H 0.45508 0.51882 0.93364 0.0
H881 H 0.47616 0.57985 0.96481 0.0
H882 H 0.48106 0.70245 0.99156 0.0
H883 H 0.46041 0.70556 0.93288 0.0
H884 H 0.42251 0.70575 0.97024 0.0
H885 H 0.32953 0.50137 0.95047 0.0
H886 H 0.36977 0.51185 0.91657 0.0
H887 H 0.3879 0.49646 0.96956 0.0
H888 H 0.69773 0.48423 0.99167 0.0
H889 H 0.70158 0.42655 0.96737 0.0
H890 H 0.701 0.46692 0.93264 0.0
H891 H 0.49626 0.4464 0.84022 0.0
H892 H 0.50713 0.41172 0.87959 0.0
H893 H 0.49261 0.46487 0.89912 0.0
H894 H 0.48231 0.48726 0.20806 0.0
H895 H 0.42419 0.46477 0.21167 0.0
H896 H 0.46328 0.4286 0.21175 0.0
H897 H 0.40748 0.37457 0.01804 0.0
H898 H 0.46022 0.3937 0.0027 0.0
H899 H 0.44185 0.33495 0.00664 0.0
O900 O 0.52722 0.31919 0.03665 0.0
O901 O 0.55948 0.38942 0.97979 0.0
O902 O 0.31549 0.53159 0.03721 0.0
O903 O 0.38632 0.47535 0.06941 0.0
O904 O 0.52694 0.53107 0.82489 0.0
O905 O 0.47035 0.56338 0.89567 0.0
O906 O 0.43529 0.6443 0.94567 0.0
O907 O 0.38117 0.56167 0.97656 0.0
O908 O 0.6398 0.43948 0.94444 0.0
O909 O 0.55733 0.4714 0.89106 0.0
O910 O 0.437 0.44042 0.15019 0.0
O911 O 0.46773 0.38584 0.06757 0.0
C912 C 0.95512 0.22588 0.20008 0.0
C913 C 0.97411 0.18837 0.19157 0.0
H914 H 0.96172 0.29215 0.24505 0.0
C915 C 0.01539 0.18917 0.22257 0.0
H916 H 0.92275 0.22555 0.17721 0.0
C917 C 0.03723 0.2269 0.26176 0.0
C918 C 0.01828 0.26444 0.27002 0.0
H919 H 0.03092 0.16084 0.21628 0.0
H920 H 0.06927 0.22712 0.28515 0.0
C921 C 0.97719 0.26376 0.2389 0.0
C922 C 0.78838 -0.00442 0.2667 0.0
C923 C 0.77285 -0.00057 0.22169 0.0
H924 H 0.77197 -0.00688 0.33046 0.0
C925 C 0.72845 0.00494 0.20653 0.0
H926 H 0.82281 -0.00798 0.27929 0.0
C927 C 0.69954 0.00559 0.23564 0.0
C928 C 0.71464 0.00072 0.28028 0.0
H929 H 0.71541 0.00704 0.1716 0.0
H930 H 0.66477 0.00812 0.22257 0.0
C931 C 0.75942 -0.00376 0.29585 0.0
C932 C -0.00839 0.78906 0.26655 0.0
C933 C -0.00431 0.77325 0.22169 0.0
H934 H -0.012 0.77288 0.33018 0.0
C935 C 0.00052 0.72861 0.20667 0.0
H936 H -0.01137 0.82371 0.27905 0.0
C937 C 0.00013 0.69968 0.23576 0.0
C938 C -0.00505 0.71507 0.28023 0.0
H939 H 0.00283 0.71544 0.17186 0.0
H940 H 0.0022 0.66475 0.22285 0.0
C941 C -0.00878 0.7601 0.29567 0.0
C942 C 0.2238 0.04142 0.26378 0.0
C943 C 0.26198 0.02313 0.27095 0.0
H944 H 0.15642 0.03412 0.22001 0.0
C945 C 0.26116 0.98234 0.23941 0.0
H946 H 0.22401 0.07318 0.28752 0.0
C947 C 0.22259 0.95994 0.2013 0.0
C948 C 0.18444 0.97824 0.19397 0.0
H949 H 0.28991 0.96722 0.24475 0.0
H950 H 0.22227 0.92787 0.17799 0.0
C951 C 0.18528 0.01916 0.2254 0.0
C952 C 0.9796 0.76565 0.74048 0.0
C953 C 0.02061 0.76646 0.77178 0.0
H954 H 0.92523 0.72718 0.67881 0.0
C955 C 0.03951 0.72884 0.7639 0.0
H956 H 0.96414 0.79409 0.74634 0.0
C957 C 0.01768 0.6909 0.72491 0.0
C958 C 0.97647 0.69 0.69373 0.0
H959 H 0.07149 0.72914 0.78745 0.0
H960 H 0.03312 0.66246 0.71893 0.0
C961 C 0.95755 0.72759 0.70184 0.0
C962 C 0.1984 0.00365 0.73536 0.0
C963 C 0.21365 -0.00086 0.78013 0.0
H964 H 0.21411 0.00464 0.67116 0.0
C965 C 0.25841 -0.00539 0.79568 0.0
H966 H 0.16364 0.00622 0.72233 0.0
C967 C 0.28723 -0.00638 0.7664 0.0
C968 C 0.27159 -0.00279 0.72131 0.0
H969 H 0.27107 -0.00823 0.83038 0.0
H970 H 0.32169 -0.00986 0.77902 0.0
C971 C 0.22719 0.00269 0.70613 0.0
C972 C 0.0011 0.22956 0.70804 0.0
C973 C -0.00381 0.27421 0.72279 0.0
H974 H 0.00315 0.16598 0.7247 0.0
C975 C -0.00776 0.29028 0.76768 0.0
H976 H 0.00325 0.21613 0.67322 0.0
C977 C -0.00792 0.26158 0.79708 0.0
C978 C -0.00401 0.21658 0.78191 0.0
H979 H -0.01082 0.32492 0.77999 0.0
H980 H -0.01112 0.27452 0.83157 0.0
C981 C 0.001 0.20092 0.73742 0.0
C982 C 0.68559 0.01849 0.72345 0.0
C983 C 0.68498 0.97749 0.69233 0.0
H984 H 0.72397 0.07281 0.78544 0.0
C985 C 0.72326 0.95941 0.69995 0.0
H986 H 0.65663 0.03329 0.71781 0.0
C987 C 0.76169 0.98206 0.73815 0.0
C988 C 0.76224 0.02289 0.76945 0.0
H989 H 0.72313 0.9273 0.67684 0.0
H990 H 0.79052 0.96708 0.74377 0.0
C991 C 0.72397 0.04101 0.76191 0.0
C992 C 0.25413 0.22889 0.04823 0.0
C993 C 0.26149 0.26679 0.02965 0.0
H994 H 0.21031 0.16172 0.04106 0.0
C995 C 0.23019 0.26574 0.98854 0.0
H996 H 0.27767 0.22929 0.08024 0.0
C997 C 0.19213 0.22719 0.96611 0.0
C998 C 0.18467 0.1893 0.98467 0.0
H999 H 0.23569 0.29426 0.9732 0.0
H1000 H 0.16902 0.22666 0.93379 0.0
C1001 C 0.21582 0.1904 0.02592 0.0
C1002 C 0.28695 0.7623 0.00109 0.0
C1003 C 0.27078 0.71736 0.00473 0.0
H1004 H 0.2714 0.8264 -0.00157 0.0
C1005 C 0.22615 0.70266 0.0097 0.0
H1006 H 0.32158 0.77453 -0.00204 0.0
C1007 C 0.19759 0.73214 0.00992 0.0
C1008 C 0.21334 0.77673 0.00526 0.0
H1009 H 0.21269 0.6678 0.01167 0.0
H1010 H 0.16263 0.71943 0.01202 0.0
C1011 C 0.25836 0.79185 0.00135 0.0
C1012 C 0.69588 0.22952 0.0094 0.0
C1013 C 0.71137 0.27403 0.00447 0.0
H1014 H 0.71137 0.16539 0.01142 0.0
C1015 C 0.75635 0.28933 0.00054 0.0
H1016 H 0.66098 0.21673 0.01161 0.0
C1017 C 0.78515 0.26001 0.00047 0.0
C1018 C 0.76923 0.21508 0.00426 0.0
H1019 H 0.76919 0.32386 -0.00252 0.0
H1020 H 0.81976 0.2724 -0.00264 0.0
C1021 C 0.72465 0.20022 0.0093 0.0
C1022 C 0.73059 0.76372 0.98718 0.0
C1023 C 0.76181 0.76471 0.02832 0.0
H1024 H 0.66939 0.7248 0.93242 0.0
C1025 C 0.75434 0.72679 0.04685 0.0
H1026 H 0.73618 0.79227 0.97189 0.0
C1027 C 0.71593 0.68838 0.02453 0.0
C1028 C 0.68481 0.68738 0.9833 0.0
H1029 H 0.77782 0.72714 0.07888 0.0
H1030 H 0.71028 0.65974 0.0397 0.0
C1031 C 0.69247 0.72525 0.96472 0.0
C1032 C 0.75787 0.49388 0.79651 0.0
C1033 C 0.71307 0.4981 0.78036 0.0
H1034 H 0.82209 0.49109 0.78121 0.0
C1035 C 0.69872 0.50372 0.73593 0.0
H1036 H 0.76986 0.49022 0.83098 0.0
C1037 C 0.72843 0.50419 0.70761 0.0
C1038 C 0.77292 0.49911 0.72337 0.0
H1039 H 0.66398 0.5061 0.72243 0.0
H1040 H 0.71597 0.50687 0.67281 0.0
C1041 C 0.78764 0.49439 0.76816 0.0
C1042 C 0.22285 0.45906 0.70057 0.0
C1043 C 0.18471 0.4773 0.69261 0.0
H1044 H 0.28999 0.46672 0.74464 0.0
C1045 C 0.18546 0.51857 0.72343 0.0
H1046 H 0.22263 0.42676 0.67772 0.0
C1047 C 0.2238 0.54117 0.76192 0.0
C1048 C 0.26193 0.5229 0.76978 0.0
H1049 H 0.15663 0.53351 0.71753 0.0
H1050 H 0.2239 0.57318 0.78519 0.0
C1051 C 0.26127 0.48181 0.73878 0.0
C1052 C 0.19768 0.50439 0.23527 0.0
C1053 C 0.21246 0.49894 0.27974 0.0
H1054 H 0.2143 0.5073 0.17181 0.0
C1055 C 0.25738 0.49491 0.29558 0.0
H1056 H 0.16285 0.50664 0.222 0.0
C1057 C 0.28681 0.49532 0.26689 0.0
C1058 C 0.27164 0.49976 0.22205 0.0
H1059 H 0.2697 0.49142 0.33007 0.0
H1060 H 0.32135 0.49213 0.27973 0.0
C1061 C 0.22708 0.50478 0.20661 0.0
C1062 C 0.71432 0.51886 0.19579 0.0
C1063 C 0.68322 0.47782 0.19513 0.0
H1064 H 0.77678 0.57275 0.23384 0.0
C1065 C 0.69137 0.45931 0.23302 0.0
H1066 H 0.70829 0.53404 0.16717 0.0
C1067 C 0.73 0.48159 0.27112 0.0
C1068 C 0.76126 0.52242 0.27167 0.0
H1069 H 0.66838 0.42714 0.23284 0.0
H1070 H 0.7359 0.46642 0.29976 0.0
C1071 C 0.75329 0.54092 0.23376 0.0
C1072 C 0.26081 0.73274 0.48614 0.0
C1073 C 0.26175 0.76407 0.52715 0.0
H1074 H 0.2222 0.67107 0.43189 0.0
C1075 C 0.22418 0.75625 0.54612 0.0
H1076 H 0.28918 0.73854 0.47062 0.0
C1077 C 0.18619 0.71731 0.52437 0.0
C1078 C 0.18517 0.68609 0.4832 0.0
H1079 H 0.22458 0.77979 0.5781 0.0
H1080 H 0.15782 0.71139 0.53989 0.0
C1081 C 0.22269 0.69414 0.46419 0.0
C1082 C 0.19594 0.22875 0.509 0.0
C1083 C 0.21137 0.27324 0.50398 0.0
H1084 H 0.21168 0.16482 0.51159 0.0
C1085 C 0.2565 0.28869 0.50047 0.0
H1086 H 0.16095 0.21584 0.51093 0.0
C1087 C 0.2855 0.25956 0.50093 0.0
C1088 C 0.26965 0.21466 0.50481 0.0
H1089 H 0.26932 0.32321 0.49737 0.0
H1090 H 0.32022 0.27209 0.49813 0.0
C1091 C 0.22491 0.19963 0.50942 0.0
C1092 C 0.72778 0.70247 0.51039 0.0
C1093 C 0.7725 0.71743 0.50574 0.0
H1094 H 0.66375 0.71855 0.51157 0.0
C1095 C 0.78824 0.76216 0.50139 0.0
H1096 H 0.7146 0.66775 0.51281 0.0
C1097 C 0.75917 0.79125 0.5007 0.0
C1098 C 0.71407 0.77587 0.50434 0.0
H1099 H 0.8229 0.77457 0.4984 0.0
H1100 H 0.77192 0.82566 0.49732 0.0
C1101 C 0.69874 0.73149 0.50965 0.0
C1102 C 0.69236 0.22747 0.46654 0.0
C1103 C 0.68483 0.18937 0.4848 0.0
H1104 H 0.73599 0.29464 0.47407 0.0
C1105 C 0.71592 0.19022 0.52598 0.0
H1106 H 0.66929 0.22715 0.43429 0.0
C1107 C 0.75427 0.22864 0.54848 0.0
C1108 C 0.76172 0.26672 0.53018 0.0
H1109 H 0.71035 0.1614 0.54092 0.0
H1110 H 0.7778 0.22882 0.58041 0.0
C1111 C 0.73043 0.26596 0.48919 0.0
C1112 C 0.53633 0.22632 0.76363 0.0
C1113 C 0.51743 0.26394 0.77149 0.0
H1114 H 0.53013 0.16005 0.71857 0.0
C1115 C 0.47642 0.2631 0.74014 0.0
H1116 H 0.56831 0.22664 0.78719 0.0
C1117 C 0.45443 0.22503 0.70146 0.0
C1118 C 0.47343 0.18749 0.69331 0.0
H1119 H 0.46096 0.29153 0.74597 0.0
H1120 H 0.42216 0.22464 0.67838 0.0
C1121 C 0.51458 0.1884 0.72458 0.0
C1122 C 0.50169 0.72849 0.7067 0.0
C1123 C 0.49651 0.77306 0.72124 0.0
H1124 H 0.50375 0.66496 0.72349 0.0
C1125 C 0.49219 0.78906 0.76599 0.0
H1126 H 0.50417 0.71511 0.67199 0.0
C1127 C 0.49195 0.7604 0.79543 0.0
C1128 C 0.49605 0.71543 0.78047 0.0
H1129 H 0.48888 0.82363 0.77814 0.0
H1130 H 0.48851 0.77335 0.82982 0.0
C1131 C 0.50144 0.69985 0.73611 0.0
C1132 C 0.5165 0.69091 0.22267 0.0
C1133 C 0.47527 0.69037 0.19178 0.0
H1134 H 0.57075 0.72874 0.28499 0.0
C1135 C 0.45686 0.7283 0.2001 0.0
H1136 H 0.53159 0.66224 0.21651 0.0
C1137 C 0.47938 0.7663 0.23873 0.0
C1138 C 0.52037 0.76669 0.26981 0.0
H1139 H 0.42456 0.72821 0.17727 0.0
H1140 H 0.46427 0.79497 0.24479 0.0
C1141 C 0.5388 0.72877 0.26165 0.0
C1142 C 0.49072 0.26165 0.29698 0.0
C1143 C 0.4948 0.21671 0.28173 0.0
H1144 H 0.48765 0.32507 0.28009 0.0
C1145 C 0.49971 0.20122 0.23716 0.0
H1146 H 0.48757 0.27448 0.33151 0.0
C1147 C 0.49969 0.22997 0.20787 0.0
C1148 C 0.49476 0.2746 0.22276 0.0
H1149 H 0.50195 0.16633 0.22434 0.0
H1150 H 0.50186 0.21666 0.17304 0.0
C1151 C 0.49075 0.29046 0.26767 0.0
loop_
_geom_bond_atom_site_label_1
_geom_bond_atom_site_label_2
_geom_bond_distance
_geom_bond_site_symmetry_2
_ccdc_geom_bond_type
C0 C1 1.388 . S
C0 N3 1.338 . S
C0 C5 1.503 . S
C1 C0 1.388 . S
C1 C2 1.396 . S
C2 C1 1.396 . S
C2 N4 1.348 . S
C2 C9 1.504 . S
N3 C0 1.338 . S
N3 N4 1.361 . S
N3 Cu168 1.924 . S
N4 C2 1.348 . S
N4 N3 1.361 . S
N4 Cu169 1.964 . S
C5 C0 1.503 . S
C5 H6 0.979 . S
C5 H7 0.979 . S
C5 H8 0.979 . S
H6 C5 0.979 . S
H7 C5 0.979 . S
H8 C5 0.979 . S
C9 C2 1.504 . S
C9 H10 0.981 . S
C9 H11 0.980 1_565 S
C9 H12 0.979 . S
H10 C9 0.981 . S
H11 C9 0.980 1_545 S
H12 C9 0.979 . S
C13 C15 1.402 . S
C13 N16 1.356 . S
C13 C21 1.481 . S
C14 C15 1.400 1_455 S
C14 N17 1.329 . S
C14 C25 1.503 . S
C15 C13 1.402 . S
C15 C14 1.400 1_655 S
N16 C13 1.356 . S
N16 N17 1.343 1_655 S
N16 Cu175 1.941 . S
N17 C14 1.329 . S
N17 N16 1.343 1_455 S
N17 Cu172 1.937 . S
H18 C21 0.980 . S
H19 C21 0.980 . S
H20 C21 0.980 . S
C21 C13 1.481 . S
C21 H18 0.980 . S
C21 H19 0.980 . S
C21 H20 0.980 . S
H22 C25 0.978 . S
H23 C25 0.978 . S
H24 C25 0.983 . S
C25 C14 1.503 . S
C25 H22 0.978 . S
C25 H23 0.978 . S
C25 H24 0.983 . S
C26 H180 0.979 . S
C26 H181 0.981 . S
C26 H182 0.981 . S
C26 O216 1.438 . S
C27 H183 0.980 . S
C27 H184 0.979 . S
C27 H185 0.980 1_554 S
C27 O217 1.533 . S
C28 N29 1.338 . S
C28 C31 1.388 . S
C28 C36 1.503 . S
N29 C28 1.338 . S
N29 N30 1.361 . S
N29 Cu170 1.924 . S
N30 N29 1.361 . S
N30 C32 1.348 . S
N30 Cu171 1.964 . S
C31 C28 1.388 . S
C31 C32 1.396 . S
C32 N30 1.348 . S
C32 C31 1.396 . S
C32 C40 1.504 . S
H33 C36 0.979 . S
H34 C36 0.979 . S
H35 C36 0.979 . S
C36 C28 1.503 . S
C36 H33 0.979 . S
C36 H34 0.979 . S
C36 H35 0.979 . S
H37 C40 0.981 . S
H38 C40 0.980 1_455 S
H39 C40 0.979 . S
C40 C32 1.504 . S
C40 H37 0.981 . S
C40 H38 0.980 1_655 S
C40 H39 0.979 . S
C41 N43 1.356 . S
C41 C45 1.402 . S
C41 C49 1.481 . S
C42 N44 1.329 . S
C42 C45 1.400 1_554 S
C42 C50 1.503 . S
N43 C41 1.356 . S
N43 N44 1.343 1_556 S
N43 Cu177 1.941 . S
N44 C42 1.329 . S
N44 N43 1.343 1_554 S
N44 Cu168 1.937 . S
C45 C41 1.402 . S
C45 C42 1.400 1_556 S
H46 C49 0.980 . S
H47 C49 0.980 . S
H48 C49 0.980 . S
C49 C41 1.481 . S
C49 H46 0.980 . S
C49 H47 0.980 . S
C49 H48 0.980 . S
C50 C42 1.503 . S
C50 H51 0.978 . S
C50 H52 0.978 . S
C50 H53 0.983 . S
H51 C50 0.978 . S
H52 C50 0.978 . S
H53 C50 0.983 . S
C54 H186 0.979 . S
C54 H187 0.981 . S
C54 H188 0.981 . S
C54 O218 1.438 . S
C55 H189 0.980 . S
C55 H190 0.979 . S
C55 H191 0.980 1_545 S
C55 O219 1.533 . S
C56 N57 1.338 . S
C56 C58 1.388 . S
C56 C64 1.503 . S
N57 C56 1.338 . S
N57 N59 1.361 . S
N57 Cu172 1.924 . S
C58 C56 1.388 . S
C58 C60 1.396 . S
N59 N57 1.361 . S
N59 C60 1.348 . S
N59 Cu173 1.964 . S
C60 C58 1.396 . S
C60 N59 1.348 . S
C60 C66 1.504 . S
H61 C64 0.979 . S
H62 C64 0.979 . S
H63 C64 0.979 . S
C64 C56 1.503 . S
C64 H61 0.979 . S
C64 H62 0.979 . S
C64 H63 0.979 . S
H65 C66 0.981 . S
C66 C60 1.504 . S
C66 H65 0.981 . S
C66 H67 0.979 . S
C66 H68 0.980 1_556 S
H67 C66 0.979 . S
H68 C66 0.980 1_554 S
C69 N71 1.356 . S
C69 C73 1.402 . S
C69 C75 1.481 . S
C70 N72 1.329 . S
C70 C73 1.400 1_545 S
C70 C80 1.503 . S
N71 C69 1.356 . S
N71 N72 1.343 1_565 S
N71 Cu179 1.941 . S
N72 C70 1.329 . S
N72 N71 1.343 1_545 S
N72 Cu170 1.937 . S
C73 C69 1.402 . S
C73 C70 1.400 1_565 S
H74 C75 0.980 . S
C75 C69 1.481 . S
C75 H74 0.980 . S
C75 H76 0.980 . S
C75 H77 0.980 . S
H76 C75 0.980 . S
H77 C75 0.980 . S
H78 C80 0.978 . S
H79 C80 0.978 . S
C80 C70 1.503 . S
C80 H78 0.978 . S
C80 H79 0.978 . S
C80 H81 0.983 . S
H81 C80 0.983 . S
C82 H192 0.979 . S
C82 H193 0.981 . S
C82 H194 0.981 . S
C82 O220 1.438 . S
C83 H195 0.980 . S
C83 H196 0.979 . S
C83 H197 0.980 1_455 S
C83 O221 1.533 . S
C84 N85 1.338 . S
C84 C86 1.388 . S
C84 C89 1.503 . S
N85 C84 1.338 . S
N85 N88 1.361 . S
N85 Cu174 1.924 . S
C86 C84 1.388 . S
C86 C87 1.396 . S
C87 C86 1.396 . S
C87 N88 1.348 . S
C87 C93 1.504 . S
N88 N85 1.361 . S
N88 C87 1.348 . S
N88 Cu175 1.964 . S
C89 C84 1.503 . S
C89 H90 0.979 . S
C89 H91 0.979 . S
C89 H92 0.979 . S
H90 C89 0.979 . S
H91 C89 0.979 . S
H92 C89 0.979 . S
C93 C87 1.504 . S
C93 H94 0.981 . S
C93 H95 0.980 1_545 S
C93 H96 0.979 . S
H94 C93 0.981 . S
H95 C93 0.980 1_565 S
H96 C93 0.979 . S
C97 C98 1.402 . S
C97 N100 1.356 . S
C97 C105 1.481 . S
C98 C97 1.402 . S
C98 C99 1.400 1_455 S
C99 C98 1.400 1_655 S
C99 N101 1.328 . S
C99 C106 1.503 . S
N100 C97 1.356 . S
N100 N101 1.349 1_455 S
N100 Cu169 1.941 . S
N101 C99 1.328 . S
N101 N100 1.349 1_655 S
N101 Cu178 1.933 . S
H102 C105 0.980 . S
H103 C105 0.980 . S
H104 C105 0.980 . S
C105 C97 1.481 . S
C105 H102 0.980 . S
C105 H103 0.980 . S
C105 H104 0.980 . S
C106 C99 1.503 . S
C106 H107 0.978 . S
C106 H108 0.978 . S
C106 H109 0.983 . S
H107 C106 0.978 . S
H108 C106 0.978 . S
H109 C106 0.983 . S
C110 H198 0.979 . S
C110 H199 0.981 . S
C110 H200 0.981 . S
C110 O222 1.438 . S
C111 H201 0.980 . S
C111 H202 0.979 . S
C111 H203 0.980 1_556 S
C111 O223 1.533 . S
C112 C113 1.388 . S
C112 N115 1.338 . S
C112 C117 1.503 . S
C113 C112 1.388 . S
C113 C114 1.396 . S
C114 C113 1.396 . S
C114 N116 1.348 . S
C114 C121 1.504 . S
N115 C112 1.338 . S
N115 N116 1.361 . S
N115 Cu176 1.924 . S
N116 C114 1.348 . S
N116 N115 1.361 . S
N116 Cu177 1.964 . S
C117 C112 1.503 . S
C117 H118 0.979 . S
C117 H119 0.979 . S
C117 H120 0.979 . S
H118 C117 0.979 . S
H119 C117 0.979 . S
H120 C117 0.979 . S
C121 C114 1.504 . S
C121 H122 0.981 . S
C121 H123 0.980 1_455 S
C121 H124 0.979 . S
H122 C121 0.981 . S
H123 C121 0.980 1_655 S
H124 C121 0.979 . S
C125 C126 1.402 . S
C125 N128 1.356 . S
C125 C130 1.481 . S
C126 C125 1.402 . S
C126 C127 1.400 1_554 S
C127 C126 1.400 1_556 S
C127 N129 1.328 . S
C127 C134 1.503 . S
N128 C125 1.356 . S
N128 N129 1.349 1_554 S
N128 Cu171 1.941 . S
N129 C127 1.328 . S
N129 N128 1.349 1_556 S
N129 Cu174 1.933 . S
C130 C125 1.481 . S
C130 H131 0.980 . S
C130 H132 0.980 . S
C130 H133 0.980 . S
H131 C130 0.980 . S
H132 C130 0.980 . S
H133 C130 0.980 . S
C134 C127 1.503 . S
C134 H135 0.978 . S
C134 H136 0.978 . S
C134 H137 0.983 . S
H135 C134 0.978 . S
H136 C134 0.978 . S
H137 C134 0.983 . S
C138 H204 0.979 . S
C138 H205 0.981 . S
C138 H206 0.981 . S
C138 O224 1.438 . S
C139 H207 0.980 . S
C139 H208 0.979 . S
C139 H209 0.980 1_565 S
C139 O225 1.533 . S
C140 N141 1.338 . S
C140 C143 1.388 . S
C140 C148 1.503 . S
N141 C140 1.338 . S
N141 N142 1.361 . S
N141 Cu178 1.924 . S
N142 N141 1.361 . S
N142 C144 1.348 . S
N142 Cu179 1.964 . S
C143 C140 1.388 . S
C143 C144 1.396 . S
C144 N142 1.348 . S
C144 C143 1.396 . S
C144 C152 1.504 . S
H145 C148 0.979 . S
H146 C148 0.979 . S
H147 C148 0.979 . S
C148 C140 1.503 . S
C148 H145 0.979 . S
C148 H146 0.979 . S
C148 H147 0.979 . S
H149 C152 0.981 . S
H150 C152 0.980 1_556 S
H151 C152 0.979 . S
C152 C144 1.504 . S
C152 H149 0.981 . S
C152 H150 0.980 1_554 S
C152 H151 0.979 . S
C153 N154 1.356 . S
C153 C156 1.402 . S
C153 C158 1.481 . S
N154 C153 1.356 . S
N154 N155 1.349 1_545 S
N154 Cu173 1.941 . S
N155 N154 1.349 1_565 S
N155 C157 1.328 . S
N155 Cu176 1.933 . S
C156 C153 1.402 . S
C156 C157 1.400 1_545 S
C157 N155 1.328 . S
C157 C156 1.400 1_565 S
C157 C162 1.503 . S
C158 C153 1.481 . S
C158 H159 0.980 . S
C158 H160 0.980 . S
C158 H161 0.980 . S
H159 C158 0.980 . S
H160 C158 0.980 . S
H161 C158 0.980 . S
C162 C157 1.503 . S
C162 H163 0.978 . S
C162 H164 0.978 . S
C162 H165 0.983 . S
H163 C162 0.978 . S
H164 C162 0.978 . S
H165 C162 0.983 . S
C166 H210 0.979 . S
C166 H211 0.981 . S
C166 H212 0.981 . S
C166 O226 1.438 . S
C167 H213 0.980 . S
C167 H214 0.979 . S
C167 H215 0.980 1_655 S
C167 O227 1.533 . S
Cu168 N3 1.924 . S
Cu168 N44 1.937 . S
Cu168 O216 1.923 . S
Cu168 O217 1.930 . S
Cu169 N4 1.964 . S
Cu169 N100 1.941 . S
Cu169 O216 1.905 . S
Cu169 O227 1.920 1_455 S
Cu170 N29 1.924 . S
Cu170 N72 1.937 . S
Cu170 O218 1.923 . S
Cu170 O219 1.930 . S
Cu171 N30 1.964 . S
Cu171 N128 1.941 . S
Cu171 O218 1.905 . S
Cu171 O223 1.920 1_554 S
Cu172 N17 1.937 . S
Cu172 N57 1.924 . S
Cu172 O220 1.923 . S
Cu172 O221 1.930 . S
Cu173 N59 1.964 . S
Cu173 N154 1.941 . S
Cu173 O220 1.905 . S
Cu173 O225 1.920 1_545 S
Cu174 N85 1.924 . S
Cu174 N129 1.933 . S
Cu174 O222 1.923 . S
Cu174 O223 1.930 . S
Cu175 N16 1.941 . S
Cu175 N88 1.964 . S
Cu175 O221 1.920 1_655 S
Cu175 O222 1.905 . S
Cu176 N115 1.924 . S
Cu176 N155 1.933 . S
Cu176 O224 1.923 . S
Cu176 O225 1.930 . S
Cu177 N43 1.941 . S
Cu177 N116 1.964 . S
Cu177 O217 1.920 1_556 S
Cu177 O224 1.905 . S
Cu178 N101 1.933 . S
Cu178 N141 1.924 . S
Cu178 O226 1.923 . S
Cu178 O227 1.930 . S
Cu179 N71 1.941 . S
Cu179 N142 1.964 . S
Cu179 O219 1.920 1_565 S
Cu179 O226 1.905 . S
H180 C26 0.979 . S
H181 C26 0.981 . S
H182 C26 0.981 . S
H183 C27 0.980 . S
H184 C27 0.979 . S
H185 C27 0.980 1_556 S
H186 C54 0.979 . S
H187 C54 0.981 . S
H188 C54 0.981 . S
H189 C55 0.980 . S
H190 C55 0.979 . S
H191 C55 0.980 1_565 S
H192 C82 0.979 . S
H193 C82 0.981 . S
H194 C82 0.981 . S
H195 C83 0.980 . S
H196 C83 0.979 . S
H197 C83 0.980 1_655 S
H198 C110 0.979 . S
H199 C110 0.981 . S
H200 C110 0.981 . S
H201 C111 0.980 . S
H202 C111 0.979 . S
H203 C111 0.980 1_554 S
H204 C138 0.979 . S
H205 C138 0.981 . S
H206 C138 0.981 . S
H207 C139 0.980 . S
H208 C139 0.979 . S
H209 C139 0.980 1_545 S
H210 C166 0.979 . S
H211 C166 0.981 . S
H212 C166 0.981 . S
H213 C167 0.980 . S
H214 C167 0.979 . S
H215 C167 0.980 1_455 S
O216 C26 1.438 . S
O216 Cu168 1.923 . S
O216 Cu169 1.905 . S
O217 C27 1.533 . S
O217 Cu168 1.930 . S
O217 Cu177 1.920 1_554 S
O218 C54 1.438 . S
O218 Cu170 1.923 . S
O218 Cu171 1.905 . S
O219 C55 1.533 . S
O219 Cu170 1.930 . S
O219 Cu179 1.920 1_545 S
O220 C82 1.438 . S
O220 Cu172 1.923 . S
O220 Cu173 1.905 . S
O221 C83 1.533 . S
O221 Cu172 1.930 . S
O221 Cu175 1.920 1_455 S
O222 C110 1.438 . S
O222 Cu174 1.923 . S
O222 Cu175 1.905 . S
O223 C111 1.533 . S
O223 Cu171 1.920 1_556 S
O223 Cu174 1.930 . S
O224 C138 1.438 . S
O224 Cu176 1.923 . S
O224 Cu177 1.905 . S
O225 C139 1.533 . S
O225 Cu173 1.920 1_565 S
O225 Cu176 1.930 . S
O226 C166 1.438 . S
O226 Cu178 1.923 . S
O226 Cu179 1.905 . S
O227 C167 1.533 . S
O227 Cu169 1.920 1_655 S
O227 Cu178 1.930 . S
C228 C229 1.388 . S
C228 N231 1.338 . S
C228 C233 1.503 . S
C229 C228 1.388 . S
C229 C230 1.396 . S
C230 C229 1.396 . S
C230 N232 1.348 . S
C230 C237 1.504 . S
N231 C228 1.338 . S
N231 N232 1.361 . S
N231 Cu396 1.924 . S
N232 C230 1.348 . S
N232 N231 1.361 . S
N232 Cu397 1.964 . S
C233 C228 1.503 . S
C233 H234 0.979 . S
C233 H235 0.979 . S
C233 H236 0.979 . S
H234 C233 0.979 . S
H235 C233 0.979 . S
H236 C233 0.979 . S
C237 C230 1.504 . S
C237 H238 0.981 . S
C237 H239 0.980 . S
C237 H240 0.979 . S
H238 C237 0.981 . S
H239 C237 0.980 . S
H240 C237 0.979 . S
C241 C243 1.402 . S
C241 N244 1.356 . S
C241 C249 1.481 . S
C242 C243 1.400 1_455 S
C242 N245 1.329 . S
C242 C253 1.503 . S
C243 C241 1.402 . S
C243 C242 1.400 1_655 S
N244 C241 1.356 . S
N244 N245 1.343 1_655 S
N244 Cu403 1.941 . S
N245 C242 1.329 . S
N245 N244 1.343 1_455 S
N245 Cu400 1.937 . S
H246 C249 0.980 . S
H247 C249 0.980 . S
H248 C249 0.980 . S
C249 C241 1.481 . S
C249 H246 0.980 . S
C249 H247 0.980 . S
C249 H248 0.980 . S
H250 C253 0.978 . S
H251 C253 0.978 . S
H252 C253 0.983 . S
C253 C242 1.503 . S
C253 H250 0.978 . S
C253 H251 0.978 . S
C253 H252 0.983 . S
C254 H408 0.979 . S
C254 H409 0.981 . S
C254 H410 0.981 . S
C254 O444 1.438 . S
C255 H411 0.980 . S
C255 H412 0.979 . S
C255 H413 0.980 . S
C255 O445 1.533 . S
C256 N257 1.338 . S
C256 C259 1.388 . S
C256 C264 1.503 . S
N257 C256 1.338 . S
N257 N258 1.361 . S
N257 Cu398 1.924 . S
N258 N257 1.361 . S
N258 C260 1.348 . S
N258 Cu399 1.964 . S
C259 C256 1.388 . S
C259 C260 1.396 . S
C260 N258 1.348 . S
C260 C259 1.396 . S
C260 C268 1.504 . S
H261 C264 0.979 . S
H262 C264 0.979 . S
H263 C264 0.979 . S
C264 C256 1.503 . S
C264 H261 0.979 . S
C264 H262 0.979 . S
C264 H263 0.979 . S
H265 C268 0.981 . S
H266 C268 0.980 1_455 S
H267 C268 0.979 . S
C268 C260 1.504 . S
C268 H265 0.981 . S
C268 H266 0.980 1_655 S
C268 H267 0.979 . S
C269 N271 1.356 . S
C269 C273 1.402 . S
C269 C277 1.481 . S
C270 N272 1.325 . S
C270 C273 1.400 . S
C270 C278 1.503 . S
N271 C269 1.356 . S
N271 N272 1.365 . S
N271 Cu405 1.941 . S
N272 C270 1.325 . S
N272 N271 1.365 . S
N272 Cu396 1.924 . S
C273 C269 1.402 . S
C273 C270 1.400 . S
H274 C277 0.980 . S
H275 C277 0.980 . S
H276 C277 0.980 . S
C277 C269 1.481 . S
C277 H274 0.980 . S
C277 H275 0.980 . S
C277 H276 0.980 . S
C278 C270 1.503 . S
C278 H279 0.978 . S
C278 H280 0.978 . S
C278 H281 0.983 . S
H279 C278 0.978 . S
H280 C278 0.978 . S
H281 C278 0.983 . S
C282 H414 0.979 . S
C282 H415 0.981 . S
C282 H416 0.981 . S
C282 O446 1.438 . S
C283 H417 0.980 . S
C283 H418 0.979 . S
C283 H419 0.980 . S
C283 O447 1.533 . S
C284 N285 1.338 . S
C284 C286 1.388 . S
C284 C292 1.503 . S
N285 C284 1.338 . S
N285 N287 1.361 . S
N285 Cu400 1.924 . S
C286 C284 1.388 . S
C286 C288 1.396 . S
N287 N285 1.361 . S
N287 C288 1.348 . S
N287 Cu401 1.964 . S
C288 C286 1.396 . S
C288 N287 1.348 . S
C288 C294 1.504 . S
H289 C292 0.979 . S
H290 C292 0.979 . S
H291 C292 0.979 . S
C292 C284 1.503 . S
C292 H289 0.979 . S
C292 H290 0.979 . S
C292 H291 0.979 . S
H293 C294 0.981 . S
C294 C288 1.504 . S
C294 H293 0.981 . S
C294 H295 0.979 . S
C294 H296 0.980 . S
H295 C294 0.979 . S
H296 C294 0.980 . S
C297 N299 1.356 . S
C297 C301 1.402 . S
C297 C303 1.481 . S
C298 N300 1.325 . S
C298 C301 1.400 . S
C298 C308 1.503 . S
N299 C297 1.356 . S
N299 N300 1.365 . S
N299 Cu407 1.941 . S
N300 C298 1.325 . S
N300 N299 1.365 . S
N300 Cu398 1.924 . S
C301 C297 1.402 . S
C301 C298 1.400 . S
H302 C303 0.980 . S
C303 C297 1.481 . S
C303 H302 0.980 . S
C303 H304 0.980 . S
C303 H305 0.980 . S
H304 C303 0.980 . S
H305 C303 0.980 . S
H306 C308 0.978 . S
H307 C308 0.978 . S
C308 C298 1.503 . S
C308 H306 0.978 . S
C308 H307 0.978 . S
C308 H309 0.983 . S
H309 C308 0.983 . S
C310 H420 0.979 . S
C310 H421 0.981 . S
C310 H422 0.981 . S
C310 O448 1.438 . S
C311 H423 0.980 . S
C311 H424 0.979 . S
C311 H425 0.980 1_455 S
C311 O449 1.533 . S
C312 N313 1.338 . S
C312 C314 1.388 . S
C312 C317 1.503 . S
N313 C312 1.338 . S
N313 N316 1.361 . S
N313 Cu402 1.924 . S
C314 C312 1.388 . S
C314 C315 1.396 . S
C315 C314 1.396 . S
C315 N316 1.348 . S
C315 C321 1.504 . S
N316 N313 1.361 . S
N316 C315 1.348 . S
N316 Cu403 1.964 . S
C317 C312 1.503 . S
C317 H318 0.979 . S
C317 H319 0.979 . S
C317 H320 0.979 . S
H318 C317 0.979 . S
H319 C317 0.979 . S
H320 C317 0.979 . S
C321 C315 1.504 . S
C321 H322 0.981 . S
C321 H323 0.980 . S
C321 H324 0.979 . S
H322 C321 0.981 . S
H323 C321 0.980 . S
H324 C321 0.979 . S
C325 C326 1.402 . S
C325 N328 1.356 . S
C325 C333 1.481 . S
C326 C325 1.402 . S
C326 C327 1.400 1_455 S
C327 C326 1.400 1_655 S
C327 N329 1.328 . S
C327 C334 1.503 . S
N328 C325 1.356 . S
N328 N329 1.349 1_455 S
N328 Cu397 1.941 . S
N329 C327 1.328 . S
N329 N328 1.349 1_655 S
N329 Cu406 1.933 . S
H330 C333 0.980 . S
H331 C333 0.980 . S
H332 C333 0.980 . S
C333 C325 1.481 . S
C333 H330 0.980 . S
C333 H331 0.980 . S
C333 H332 0.980 . S
C334 C327 1.503 . S
C334 H335 0.978 . S
C334 H336 0.978 . S
C334 H337 0.983 . S
H335 C334 0.978 . S
H336 C334 0.978 . S
H337 C334 0.983 . S
C338 H426 0.979 . S
C338 H427 0.981 . S
C338 H428 0.981 . S
C338 O450 1.438 . S
C339 H429 0.980 . S
C339 H430 0.979 . S
C339 H431 0.980 . S
C339 O451 1.533 . S
C340 C341 1.388 . S
C340 N343 1.338 . S
C340 C345 1.503 . S
C341 C340 1.388 . S
C341 C342 1.396 . S
C342 C341 1.396 . S
C342 N344 1.348 . S
C342 C349 1.504 . S
N343 C340 1.338 . S
N343 N344 1.361 . S
N343 Cu404 1.924 . S
N344 C342 1.348 . S
N344 N343 1.361 . S
N344 Cu405 1.964 . S
C345 C340 1.503 . S
C345 H346 0.979 . S
C345 H347 0.979 . S
C345 H348 0.979 . S
H346 C345 0.979 . S
H347 C345 0.979 . S
H348 C345 0.979 . S
C349 C342 1.504 . S
C349 H350 0.981 . S
C349 H351 0.980 1_455 S
C349 H352 0.979 . S
H350 C349 0.981 . S
H351 C349 0.980 1_655 S
H352 C349 0.979 . S
C353 C354 1.402 . S
C353 N356 1.356 . S
C353 C358 1.481 . S
C354 C353 1.402 . S
C354 C355 1.400 . S
C355 C354 1.400 . S
C355 N357 1.325 . S
C355 C362 1.503 . S
N356 C353 1.356 . S
N356 N357 1.365 . S
N356 Cu399 1.941 . S
N357 C355 1.325 . S
N357 N356 1.365 . S
N357 Cu402 1.924 . S
C358 C353 1.481 . S
C358 H359 0.980 . S
C358 H360 0.980 . S
C358 H361 0.980 . S
H359 C358 0.980 . S
H360 C358 0.980 . S
H361 C358 0.980 . S
C362 C355 1.503 . S
C362 H363 0.978 . S
C362 H364 0.978 . S
C362 H365 0.983 . S
H363 C362 0.978 . S
H364 C362 0.978 . S
H365 C362 0.983 . S
C366 H432 0.979 . S
C366 H433 0.981 . S
C366 H434 0.981 . S
C366 O452 1.438 . S
C367 H435 0.980 . S
C367 H436 0.979 . S
C367 H437 0.980 . S
C367 O453 1.533 . S
C368 N369 1.338 . S
C368 C371 1.388 . S
C368 C376 1.503 . S
N369 C368 1.338 . S
N369 N370 1.361 . S
N369 Cu406 1.924 . S
N370 N369 1.361 . S
N370 C372 1.348 . S
N370 Cu407 1.964 . S
C371 C368 1.388 . S
C371 C372 1.396 . S
C372 N370 1.348 . S
C372 C371 1.396 . S
C372 C380 1.504 . S
H373 C376 0.979 . S
H374 C376 0.979 . S
H375 C376 0.979 . S
C376 C368 1.503 . S
C376 H373 0.979 . S
C376 H374 0.979 . S
C376 H375 0.979 . S
H377 C380 0.981 . S
H378 C380 0.980 . S
H379 C380 0.979 . S
C380 C372 1.504 . S
C380 H377 0.981 . S
C380 H378 0.980 . S
C380 H379 0.979 . S
C381 N382 1.356 . S
C381 C384 1.402 . S
C381 C386 1.481 . S
N382 C381 1.356 . S
N382 N383 1.365 . S
N382 Cu401 1.941 . S
N383 N382 1.365 . S
N383 C385 1.325 . S
N383 Cu404 1.924 . S
C384 C381 1.402 . S
C384 C385 1.400 . S
C385 N383 1.325 . S
C385 C384 1.400 . S
C385 C390 1.503 . S
C386 C381 1.481 . S
C386 H387 0.980 . S
C386 H388 0.980 . S
C386 H389 0.980 . S
H387 C386 0.980 . S
H388 C386 0.980 . S
H389 C386 0.980 . S
C390 C385 1.503 . S
C390 H391 0.978 . S
C390 H392 0.978 . S
C390 H393 0.983 . S
H391 C390 0.978 . S
H392 C390 0.978 . S
H393 C390 0.983 . S
C394 H438 0.979 . S
C394 H439 0.981 . S
C394 H440 0.981 . S
C394 O454 1.438 . S
C395 H441 0.980 . S
C395 H442 0.979 . S
C395 H443 0.980 1_655 S
C395 O455 1.533 . S
Cu396 N231 1.924 . S
Cu396 N272 1.924 . S
Cu396 O444 1.923 . S
Cu396 O445 1.930 . S
Cu397 N232 1.964 . S
Cu397 N328 1.941 . S
Cu397 O444 1.905 . S
Cu397 O455 1.920 1_455 S
Cu398 N257 1.924 . S
Cu398 N300 1.924 . S
Cu398 O446 1.923 . S
Cu398 O447 1.930 . S
Cu399 N258 1.964 . S
Cu399 N356 1.941 . S
Cu399 O446 1.905 . S
Cu399 O451 1.920 . S
Cu400 N245 1.937 . S
Cu400 N285 1.924 . S
Cu400 O448 1.923 . S
Cu400 O449 1.930 . S
Cu401 N287 1.964 . S
Cu401 N382 1.941 . S
Cu401 O448 1.905 . S
Cu401 O453 1.920 . S
Cu402 N313 1.924 . S
Cu402 N357 1.924 . S
Cu402 O450 1.923 . S
Cu402 O451 1.930 . S
Cu403 N244 1.941 . S
Cu403 N316 1.964 . S
Cu403 O449 1.920 1_655 S
Cu403 O450 1.905 . S
Cu404 N343 1.924 . S
Cu404 N383 1.924 . S
Cu404 O452 1.923 . S
Cu404 O453 1.930 . S
Cu405 N271 1.941 . S
Cu405 N344 1.964 . S
Cu405 O445 1.920 . S
Cu405 O452 1.905 . S
Cu406 N329 1.933 . S
Cu406 N369 1.924 . S
Cu406 O454 1.923 . S
Cu406 O455 1.930 . S
Cu407 N299 1.941 . S
Cu407 N370 1.964 . S
Cu407 O447 1.920 . S
Cu407 O454 1.905 . S
H408 C254 0.979 . S
H409 C254 0.981 . S
H410 C254 0.981 . S
H411 C255 0.980 . S
H412 C255 0.979 . S
H413 C255 0.980 . S
H414 C282 0.979 . S
H415 C282 0.981 . S
H416 C282 0.981 . S
H417 C283 0.980 . S
H418 C283 0.979 . S
H419 C283 0.980 . S
H420 C310 0.979 . S
H421 C310 0.981 . S
H422 C310 0.981 . S
H423 C311 0.980 . S
H424 C311 0.979 . S
H425 C311 0.980 1_655 S
H426 C338 0.979 . S
H427 C338 0.981 . S
H428 C338 0.981 . S
H429 C339 0.980 . S
H430 C339 0.979 . S
H431 C339 0.980 . S
H432 C366 0.979 . S
H433 C366 0.981 . S
H434 C366 0.981 . S
H435 C367 0.980 . S
H436 C367 0.979 . S
H437 C367 0.980 . S
H438 C394 0.979 . S
H439 C394 0.981 . S
H440 C394 0.981 . S
H441 C395 0.980 . S
H442 C395 0.979 . S
H443 C395 0.980 1_455 S
O444 C254 1.438 . S
O444 Cu396 1.923 . S
O444 Cu397 1.905 . S
O445 C255 1.533 . S
O445 Cu396 1.930 . S
O445 Cu405 1.920 . S
O446 C282 1.438 . S
O446 Cu398 1.923 . S
O446 Cu399 1.905 . S
O447 C283 1.533 . S
O447 Cu398 1.930 . S
O447 Cu407 1.920 . S
O448 C310 1.438 . S
O448 Cu400 1.923 . S
O448 Cu401 1.905 . S
O449 C311 1.533 . S
O449 Cu400 1.930 . S
O449 Cu403 1.920 1_455 S
O450 C338 1.438 . S
O450 Cu402 1.923 . S
O450 Cu403 1.905 . S
O451 C339 1.533 . S
O451 Cu399 1.920 . S
O451 Cu402 1.930 . S
O452 C366 1.438 . S
O452 Cu404 1.923 . S
O452 Cu405 1.905 . S
O453 C367 1.533 . S
O453 Cu401 1.920 . S
O453 Cu404 1.930 . S
O454 C394 1.438 . S
O454 Cu406 1.923 . S
O454 Cu407 1.905 . S
O455 C395 1.533 . S
O455 Cu397 1.920 1_655 S
O455 Cu406 1.930 . S
C456 C457 1.388 . S
C456 N459 1.338 . S
C456 C461 1.503 . S
C457 C456 1.388 . S
C457 C458 1.396 . S
C458 C457 1.396 . S
C458 N460 1.348 . S
C458 C465 1.504 . S
N459 C456 1.338 . S
N459 N460 1.361 . S
N459 Cu624 1.924 . S
N460 C458 1.348 . S
N460 N459 1.361 . S
N460 Cu625 1.964 . S
C461 C456 1.503 . S
C461 H462 0.979 . S
C461 H463 0.979 . S
C461 H464 0.979 . S
H462 C461 0.979 . S
H463 C461 0.979 . S
H464 C461 0.979 . S
C465 C458 1.504 . S
C465 H466 0.981 . S
C465 H467 0.980 1_565 S
C465 H468 0.979 . S
H466 C465 0.981 . S
H467 C465 0.980 1_545 S
H468 C465 0.979 . S
C469 C471 1.402 . S
C469 N472 1.356 . S
C469 C477 1.481 . S
C470 C471 1.400 . S
C470 N473 1.325 . S
C470 C481 1.503 . S
C471 C469 1.402 . S
C471 C470 1.400 . S
N472 C469 1.356 . S
N472 N473 1.365 . S
N472 Cu631 1.941 . S
N473 C470 1.325 . S
N473 N472 1.365 . S
N473 Cu628 1.924 . S
H474 C477 0.980 . S
H475 C477 0.980 . S
H476 C477 0.980 . S
C477 C469 1.481 . S
C477 H474 0.980 . S
C477 H475 0.980 . S
C477 H476 0.980 . S
H478 C481 0.978 . S
H479 C481 0.978 . S
H480 C481 0.983 . S
C481 C470 1.503 . S
C481 H478 0.978 . S
C481 H479 0.978 . S
C481 H480 0.983 . S
C482 H636 0.979 . S
C482 H637 0.981 . S
C482 H638 0.981 . S
C482 O672 1.438 . S
C483 H639 0.980 . S
C483 H640 0.979 . S
C483 H641 0.980 . S
C483 O673 1.533 . S
C484 N485 1.338 . S
C484 C487 1.388 . S
C484 C492 1.503 . S
N485 C484 1.338 . S
N485 N486 1.361 . S
N485 Cu626 1.924 . S
N486 N485 1.361 . S
N486 C488 1.348 . S
N486 Cu627 1.964 . S
C487 C484 1.388 . S
C487 C488 1.396 . S
C488 N486 1.348 . S
C488 C487 1.396 . S
C488 C496 1.504 . S
H489 C492 0.979 . S
H490 C492 0.979 . S
H491 C492 0.979 . S
C492 C484 1.503 . S
C492 H489 0.979 . S
C492 H490 0.979 . S
C492 H491 0.979 . S
H493 C496 0.981 . S
H494 C496 0.980 . S
H495 C496 0.979 . S
C496 C488 1.504 . S
C496 H493 0.981 . S
C496 H494 0.980 . S
C496 H495 0.979 . S
C497 N499 1.356 . S
C497 C501 1.402 . S
C497 C505 1.481 . S
C498 N500 1.325 . S
C498 C501 1.400 . S
C498 C506 1.503 . S
N499 C497 1.356 . S
N499 N500 1.365 . S
N499 Cu633 1.941 . S
N500 C498 1.325 . S
N500 N499 1.365 . S
N500 Cu624 1.924 . S
C501 C497 1.402 . S
C501 C498 1.400 . S
H502 C505 0.980 . S
H503 C505 0.980 . S
H504 C505 0.980 . S
C505 C497 1.481 . S
C505 H502 0.980 . S
C505 H503 0.980 . S
C505 H504 0.980 . S
C506 C498 1.503 . S
C506 H507 0.978 . S
C506 H508 0.978 . S
C506 H509 0.983 . S
H507 C506 0.978 . S
H508 C506 0.978 . S
H509 C506 0.983 . S
C510 H642 0.979 . S
C510 H643 0.981 . S
C510 H644 0.981 . S
C510 O674 1.438 . S
C511 H645 0.980 . S
C511 H646 0.979 . S
C511 H647 0.980 1_545 S
C511 O675 1.533 . S
C512 N513 1.338 . S
C512 C514 1.388 . S
C512 C520 1.503 . S
N513 C512 1.338 . S
N513 N515 1.361 . S
N513 Cu628 1.924 . S
C514 C512 1.388 . S
C514 C516 1.396 . S
N515 N513 1.361 . S
N515 C516 1.348 . S
N515 Cu629 1.964 . S
C516 C514 1.396 . S
C516 N515 1.348 . S
C516 C522 1.504 . S
H517 C520 0.979 . S
H518 C520 0.979 . S
H519 C520 0.979 . S
C520 C512 1.503 . S
C520 H517 0.979 . S
C520 H518 0.979 . S
C520 H519 0.979 . S
H521 C522 0.981 . S
C522 C516 1.504 . S
C522 H521 0.981 . S
C522 H523 0.979 . S
C522 H524 0.980 . S
H523 C522 0.979 . S
H524 C522 0.980 . S
C525 N527 1.356 . S
C525 C529 1.402 . S
C525 C531 1.481 . S
C526 N528 1.329 . S
C526 C529 1.400 1_545 S
C526 C536 1.503 . S
N527 C525 1.356 . S
N527 N528 1.343 1_565 S
N527 Cu635 1.941 . S
N528 C526 1.329 . S
N528 N527 1.343 1_545 S
N528 Cu626 1.937 . S
C529 C525 1.402 . S
C529 C526 1.400 1_565 S
H530 C531 0.980 . S
C531 C525 1.481 . S
C531 H530 0.980 . S
C531 H532 0.980 . S
C531 H533 0.980 . S
H532 C531 0.980 . S
H533 C531 0.980 . S
H534 C536 0.978 . S
H535 C536 0.978 . S
C536 C526 1.503 . S
C536 H534 0.978 . S
C536 H535 0.978 . S
C536 H537 0.983 . S
H537 C536 0.983 . S
C538 H648 0.979 . S
C538 H649 0.981 . S
C538 H650 0.981 . S
C538 O676 1.438 . S
C539 H651 0.980 . S
C539 H652 0.979 . S
C539 H653 0.980 . S
C539 O677 1.533 . S
C540 N541 1.338 . S
C540 C542 1.388 . S
C540 C545 1.503 . S
N541 C540 1.338 . S
N541 N544 1.361 . S
N541 Cu630 1.924 . S
C542 C540 1.388 . S
C542 C543 1.396 . S
C543 C542 1.396 . S
C543 N544 1.348 . S
C543 C549 1.504 . S
N544 N541 1.361 . S
N544 C543 1.348 . S
N544 Cu631 1.964 . S
C545 C540 1.503 . S
C545 H546 0.979 . S
C545 H547 0.979 . S
C545 H548 0.979 . S
H546 C545 0.979 . S
H547 C545 0.979 . S
H548 C545 0.979 . S
C549 C543 1.504 . S
C549 H550 0.981 . S
C549 H551 0.980 1_545 S
C549 H552 0.979 . S
H550 C549 0.981 . S
H551 C549 0.980 1_565 S
H552 C549 0.979 . S
C553 C554 1.402 . S
C553 N556 1.356 . S
C553 C561 1.481 . S
C554 C553 1.402 . S
C554 C555 1.400 . S
C555 C554 1.400 . S
C555 N557 1.325 . S
C555 C562 1.503 . S
N556 C553 1.356 . S
N556 N557 1.365 . S
N556 Cu625 1.941 . S
N557 C555 1.325 . S
N557 N556 1.365 . S
N557 Cu634 1.924 . S
H558 C561 0.980 . S
H559 C561 0.980 . S
H560 C561 0.980 . S
C561 C553 1.481 . S
C561 H558 0.980 . S
C561 H559 0.980 . S
C561 H560 0.980 . S
C562 C555 1.503 . S
C562 H563 0.978 . S
C562 H564 0.978 . S
C562 H565 0.983 . S
H563 C562 0.978 . S
H564 C562 0.978 . S
H565 C562 0.983 . S
C566 H654 0.979 . S
C566 H655 0.981 . S
C566 H656 0.981 . S
C566 O678 1.438 . S
C567 H657 0.980 . S
C567 H658 0.979 . S
C567 H659 0.980 . S
C567 O679 1.533 . S
C568 C569 1.388 . S
C568 N571 1.338 . S
C568 C573 1.503 . S
C569 C568 1.388 . S
C569 C570 1.396 . S
C570 C569 1.396 . S
C570 N572 1.348 . S
C570 C577 1.504 . S
N571 C568 1.338 . S
N571 N572 1.361 . S
N571 Cu632 1.924 . S
N572 C570 1.348 . S
N572 N571 1.361 . S
N572 Cu633 1.964 . S
C573 C568 1.503 . S
C573 H574 0.979 . S
C573 H575 0.979 . S
C573 H576 0.979 . S
H574 C573 0.979 . S
H575 C573 0.979 . S
H576 C573 0.979 . S
C577 C570 1.504 . S
C577 H578 0.981 . S
C577 H579 0.980 . S
C577 H580 0.979 . S
H578 C577 0.981 . S
H579 C577 0.980 . S
H580 C577 0.979 . S
C581 C582 1.402 . S
C581 N584 1.356 . S
C581 C586 1.481 . S
C582 C581 1.402 . S
C582 C583 1.400 . S
C583 C582 1.400 . S
C583 N585 1.325 . S
C583 C590 1.503 . S
N584 C581 1.356 . S
N584 N585 1.365 . S
N584 Cu627 1.941 . S
N585 C583 1.325 . S
N585 N584 1.365 . S
N585 Cu630 1.924 . S
C586 C581 1.481 . S
C586 H587 0.980 . S
C586 H588 0.980 . S
C586 H589 0.980 . S
H587 C586 0.980 . S
H588 C586 0.980 . S
H589 C586 0.980 . S
C590 C583 1.503 . S
C590 H591 0.978 . S
C590 H592 0.978 . S
C590 H593 0.983 . S
H591 C590 0.978 . S
H592 C590 0.978 . S
H593 C590 0.983 . S
C594 H660 0.979 . S
C594 H661 0.981 . S
C594 H662 0.981 . S
C594 O680 1.438 . S
C595 H663 0.980 . S
C595 H664 0.979 . S
C595 H665 0.980 1_565 S
C595 O681 1.533 . S
C596 N597 1.338 . S
C596 C599 1.388 . S
C596 C604 1.503 . S
N597 C596 1.338 . S
N597 N598 1.361 . S
N597 Cu634 1.924 . S
N598 N597 1.361 . S
N598 C600 1.348 . S
N598 Cu635 1.964 . S
C599 C596 1.388 . S
C599 C600 1.396 . S
C600 N598 1.348 . S
C600 C599 1.396 . S
C600 C608 1.504 . S
H601 C604 0.979 . S
H602 C604 0.979 . S
H603 C604 0.979 . S
C604 C596 1.503 . S
C604 H601 0.979 . S
C604 H602 0.979 . S
C604 H603 0.979 . S
H605 C608 0.981 . S
H606 C608 0.980 . S
H607 C608 0.979 . S
C608 C600 1.504 . S
C608 H605 0.981 . S
C608 H606 0.980 . S
C608 H607 0.979 . S
C609 N610 1.356 . S
C609 C612 1.402 . S
C609 C614 1.481 . S
N610 C609 1.356 . S
N610 N611 1.349 1_545 S
N610 Cu629 1.941 . S
N611 N610 1.349 1_565 S
N611 C613 1.328 . S
N611 Cu632 1.933 . S
C612 C609 1.402 . S
C612 C613 1.400 1_545 S
C613 N611 1.328 . S
C613 C612 1.400 1_565 S
C613 C618 1.503 . S
C614 C609 1.481 . S
C614 H615 0.980 . S
C614 H616 0.980 . S
C614 H617 0.980 . S
H615 C614 0.980 . S
H616 C614 0.980 . S
H617 C614 0.980 . S
C618 C613 1.503 . S
C618 H619 0.978 . S
C618 H620 0.978 . S
C618 H621 0.983 . S
H619 C618 0.978 . S
H620 C618 0.978 . S
H621 C618 0.983 . S
C622 H666 0.979 . S
C622 H667 0.981 . S
C622 H668 0.981 . S
C622 O682 1.438 . S
C623 H669 0.980 . S
C623 H670 0.979 . S
C623 H671 0.980 . S
C623 O683 1.533 . S
Cu624 N459 1.924 . S
Cu624 N500 1.924 . S
Cu624 O672 1.923 . S
Cu624 O673 1.930 . S
Cu625 N460 1.964 . S
Cu625 N556 1.941 . S
Cu625 O672 1.905 . S
Cu625 O683 1.920 . S
Cu626 N485 1.924 . S
Cu626 N528 1.937 . S
Cu626 O674 1.923 . S
Cu626 O675 1.930 . S
Cu627 N486 1.964 . S
Cu627 N584 1.941 . S
Cu627 O674 1.905 . S
Cu627 O679 1.920 . S
Cu628 N473 1.924 . S
Cu628 N513 1.924 . S
Cu628 O676 1.923 . S
Cu628 O677 1.930 . S
Cu629 N515 1.964 . S
Cu629 N610 1.941 . S
Cu629 O676 1.905 . S
Cu629 O681 1.920 1_545 S
Cu630 N541 1.924 . S
Cu630 N585 1.924 . S
Cu630 O678 1.923 . S
Cu630 O679 1.930 . S
Cu631 N472 1.941 . S
Cu631 N544 1.964 . S
Cu631 O677 1.920 . S
Cu631 O678 1.905 . S
Cu632 N571 1.924 . S
Cu632 N611 1.933 . S
Cu632 O680 1.923 . S
Cu632 O681 1.930 . S
Cu633 N499 1.941 . S
Cu633 N572 1.964 . S
Cu633 O673 1.920 . S
Cu633 O680 1.905 . S
Cu634 N557 1.924 . S
Cu634 N597 1.924 . S
Cu634 O682 1.923 . S
Cu634 O683 1.930 . S
Cu635 N527 1.941 . S
Cu635 N598 1.964 . S
Cu635 O675 1.920 1_565 S
Cu635 O682 1.905 . S
H636 C482 0.979 . S
H637 C482 0.981 . S
H638 C482 0.981 . S
H639 C483 0.980 . S
H640 C483 0.979 . S
H641 C483 0.980 . S
H642 C510 0.979 . S
H643 C510 0.981 . S
H644 C510 0.981 . S
H645 C511 0.980 . S
H646 C511 0.979 . S
H647 C511 0.980 1_565 S
H648 C538 0.979 . S
H649 C538 0.981 . S
H650 C538 0.981 . S
H651 C539 0.980 . S
H652 C539 0.979 . S
H653 C539 0.980 . S
H654 C566 0.979 . S
H655 C566 0.981 . S
H656 C566 0.981 . S
H657 C567 0.980 . S
H658 C567 0.979 . S
H659 C567 0.980 . S
H660 C594 0.979 . S
H661 C594 0.981 . S
H662 C594 0.981 . S
H663 C595 0.980 . S
H664 C595 0.979 . S
H665 C595 0.980 1_545 S
H666 C622 0.979 . S
H667 C622 0.981 . S
H668 C622 0.981 . S
H669 C623 0.980 . S
H670 C623 0.979 . S
H671 C623 0.980 . S
O672 C482 1.438 . S
O672 Cu624 1.923 . S
O672 Cu625 1.905 . S
O673 C483 1.533 . S
O673 Cu624 1.930 . S
O673 Cu633 1.920 . S
O674 C510 1.438 . S
O674 Cu626 1.923 . S
O674 Cu627 1.905 . S
O675 C511 1.533 . S
O675 Cu626 1.930 . S
O675 Cu635 1.920 1_545 S
O676 C538 1.438 . S
O676 Cu628 1.923 . S
O676 Cu629 1.905 . S
O677 C539 1.533 . S
O677 Cu628 1.930 . S
O677 Cu631 1.920 . S
O678 C566 1.438 . S
O678 Cu630 1.923 . S
O678 Cu631 1.905 . S
O679 C567 1.533 . S
O679 Cu627 1.920 . S
O679 Cu630 1.930 . S
O680 C594 1.438 . S
O680 Cu632 1.923 . S
O680 Cu633 1.905 . S
O681 C595 1.533 . S
O681 Cu629 1.920 1_565 S
O681 Cu632 1.930 . S
O682 C622 1.438 . S
O682 Cu634 1.923 . S
O682 Cu635 1.905 . S
O683 C623 1.533 . S
O683 Cu625 1.920 . S
O683 Cu634 1.930 . S
C684 C685 1.388 . S
C684 N687 1.338 . S
C684 C689 1.503 . S
C685 C684 1.388 . S
C685 C686 1.396 . S
C686 C685 1.396 . S
C686 N688 1.348 . S
C686 C693 1.504 . S
N687 C684 1.338 . S
N687 N688 1.361 . S
N687 Cu852 1.924 . S
N688 C686 1.348 . S
N688 N687 1.361 . S
N688 Cu853 1.964 . S
C689 C684 1.503 . S
C689 H690 0.979 . S
C689 H691 0.979 . S
C689 H692 0.979 . S
H690 C689 0.979 . S
H691 C689 0.979 . S
H692 C689 0.979 . S
C693 C686 1.504 . S
C693 H694 0.981 . S
C693 H695 0.980 . S
C693 H696 0.979 . S
H694 C693 0.981 . S
H695 C693 0.980 . S
H696 C693 0.979 . S
C697 C699 1.402 . S
C697 N700 1.356 . S
C697 C705 1.481 . S
C698 C699 1.400 . S
C698 N701 1.325 . S
C698 C709 1.503 . S
C699 C697 1.402 . S
C699 C698 1.400 . S
N700 C697 1.356 . S
N700 N701 1.365 . S
N700 Cu859 1.941 . S
N701 C698 1.325 . S
N701 N700 1.365 . S
N701 Cu856 1.924 . S
H702 C705 0.980 . S
H703 C705 0.980 . S
H704 C705 0.980 . S
C705 C697 1.481 . S
C705 H702 0.980 . S
C705 H703 0.980 . S
C705 H704 0.980 . S
H706 C709 0.978 . S
H707 C709 0.978 . S
H708 C709 0.983 . S
C709 C698 1.503 . S
C709 H706 0.978 . S
C709 H707 0.978 . S
C709 H708 0.983 . S
C710 H864 0.979 . S
C710 H865 0.981 . S
C710 H866 0.981 . S
C710 O900 1.438 . S
C711 H867 0.980 . S
C711 H868 0.979 . S
C711 H869 0.980 1_554 S
C711 O901 1.533 . S
C712 N713 1.338 . S
C712 C715 1.388 . S
C712 C720 1.503 . S
N713 C712 1.338 . S
N713 N714 1.361 . S
N713 Cu854 1.924 . S
N714 N713 1.361 . S
N714 C716 1.348 . S
N714 Cu855 1.964 . S
C715 C712 1.388 . S
C715 C716 1.396 . S
C716 N714 1.348 . S
C716 C715 1.396 . S
C716 C724 1.504 . S
H717 C720 0.979 . S
H718 C720 0.979 . S
H719 C720 0.979 . S
C720 C712 1.503 . S
C720 H717 0.979 . S
C720 H718 0.979 . S
C720 H719 0.979 . S
H721 C724 0.981 . S
H722 C724 0.980 . S
H723 C724 0.979 . S
C724 C716 1.504 . S
C724 H721 0.981 . S
C724 H722 0.980 . S
C724 H723 0.979 . S
C725 N727 1.356 . S
C725 C729 1.402 . S
C725 C733 1.481 . S
C726 N728 1.329 . S
C726 C729 1.400 1_554 S
C726 C734 1.503 . S
N727 C725 1.356 . S
N727 N728 1.343 1_556 S
N727 Cu861 1.941 . S
N728 C726 1.329 . S
N728 N727 1.343 1_554 S
N728 Cu852 1.937 . S
C729 C725 1.402 . S
C729 C726 1.400 1_556 S
H730 C733 0.980 . S
H731 C733 0.980 . S
H732 C733 0.980 . S
C733 C725 1.481 . S
C733 H730 0.980 . S
C733 H731 0.980 . S
C733 H732 0.980 . S
C734 C726 1.503 . S
C734 H735 0.978 . S
C734 H736 0.978 . S
C734 H737 0.983 . S
H735 C734 0.978 . S
H736 C734 0.978 . S
H737 C734 0.983 . S
C738 H870 0.979 . S
C738 H871 0.981 . S
C738 H872 0.981 . S
C738 O902 1.438 . S
C739 H873 0.980 . S
C739 H874 0.979 . S
C739 H875 0.980 . S
C739 O903 1.533 . S
C740 N741 1.338 . S
C740 C742 1.388 . S
C740 C748 1.503 . S
N741 C740 1.338 . S
N741 N743 1.361 . S
N741 Cu856 1.924 . S
C742 C740 1.388 . S
C742 C744 1.396 . S
N743 N741 1.361 . S
N743 C744 1.348 . S
N743 Cu857 1.964 . S
C744 C742 1.396 . S
C744 N743 1.348 . S
C744 C750 1.504 . S
H745 C748 0.979 . S
H746 C748 0.979 . S
H747 C748 0.979 . S
C748 C740 1.503 . S
C748 H745 0.979 . S
C748 H746 0.979 . S
C748 H747 0.979 . S
H749 C750 0.981 . S
C750 C744 1.504 . S
C750 H749 0.981 . S
C750 H751 0.979 . S
C750 H752 0.980 1_556 S
H751 C750 0.979 . S
H752 C750 0.980 1_554 S
C753 N755 1.356 . S
C753 C757 1.402 . S
C753 C759 1.481 . S
C754 N756 1.325 . S
C754 C757 1.400 . S
C754 C764 1.503 . S
N755 C753 1.356 . S
N755 N756 1.365 . S
N755 Cu863 1.941 . S
N756 C754 1.325 . S
N756 N755 1.365 . S
N756 Cu854 1.924 . S
C757 C753 1.402 . S
C757 C754 1.400 . S
H758 C759 0.980 . S
C759 C753 1.481 . S
C759 H758 0.980 . S
C759 H760 0.980 . S
C759 H761 0.980 . S
H760 C759 0.980 . S
H761 C759 0.980 . S
H762 C764 0.978 . S
H763 C764 0.978 . S
C764 C754 1.503 . S
C764 H762 0.978 . S
C764 H763 0.978 . S
C764 H765 0.983 . S
H765 C764 0.983 . S
C766 H876 0.979 . S
C766 H877 0.981 . S
C766 H878 0.981 . S
C766 O904 1.438 . S
C767 H879 0.980 . S
C767 H880 0.979 . S
C767 H881 0.980 . S
C767 O905 1.533 . S
C768 N769 1.338 . S
C768 C770 1.388 . S
C768 C773 1.503 . S
N769 C768 1.338 . S
N769 N772 1.361 . S
N769 Cu858 1.924 . S
C770 C768 1.388 . S
C770 C771 1.396 . S
C771 C770 1.396 . S
C771 N772 1.348 . S
C771 C777 1.504 . S
N772 N769 1.361 . S
N772 C771 1.348 . S
N772 Cu859 1.964 . S
C773 C768 1.503 . S
C773 H774 0.979 . S
C773 H775 0.979 . S
C773 H776 0.979 . S
H774 C773 0.979 . S
H775 C773 0.979 . S
H776 C773 0.979 . S
C777 C771 1.504 . S
C777 H778 0.981 . S
C777 H779 0.980 . S
C777 H780 0.979 . S
H778 C777 0.981 . S
H779 C777 0.980 . S
H780 C777 0.979 . S
C781 C782 1.402 . S
C781 N784 1.356 . S
C781 C789 1.481 . S
C782 C781 1.402 . S
C782 C783 1.400 . S
C783 C782 1.400 . S
C783 N785 1.325 . S
C783 C790 1.503 . S
N784 C781 1.356 . S
N784 N785 1.365 . S
N784 Cu853 1.941 . S
N785 C783 1.325 . S
N785 N784 1.365 . S
N785 Cu862 1.924 . S
H786 C789 0.980 . S
H787 C789 0.980 . S
H788 C789 0.980 . S
C789 C781 1.481 . S
C789 H786 0.980 . S
C789 H787 0.980 . S
C789 H788 0.980 . S
C790 C783 1.503 . S
C790 H791 0.978 . S
C790 H792 0.978 . S
C790 H793 0.983 . S
H791 C790 0.978 . S
H792 C790 0.978 . S
H793 C790 0.983 . S
C794 H882 0.979 . S
C794 H883 0.981 . S
C794 H884 0.981 . S
C794 O906 1.438 . S
C795 H885 0.980 . S
C795 H886 0.979 . S
C795 H887 0.980 1_556 S
C795 O907 1.533 . S
C796 C797 1.388 . S
C796 N799 1.338 . S
C796 C801 1.503 . S
C797 C796 1.388 . S
C797 C798 1.396 . S
C798 C797 1.396 . S
C798 N800 1.348 . S
C798 C805 1.504 . S
N799 C796 1.338 . S
N799 N800 1.361 . S
N799 Cu860 1.924 . S
N800 C798 1.348 . S
N800 N799 1.361 . S
N800 Cu861 1.964 . S
C801 C796 1.503 . S
C801 H802 0.979 . S
C801 H803 0.979 . S
C801 H804 0.979 . S
H802 C801 0.979 . S
H803 C801 0.979 . S
H804 C801 0.979 . S
C805 C798 1.504 . S
C805 H806 0.981 . S
C805 H807 0.980 . S
C805 H808 0.979 . S
H806 C805 0.981 . S
H807 C805 0.980 . S
H808 C805 0.979 . S
C809 C810 1.402 . S
C809 N812 1.356 . S
C809 C814 1.481 . S
C810 C809 1.402 . S
C810 C811 1.400 1_554 S
C811 C810 1.400 1_556 S
C811 N813 1.328 . S
C811 C818 1.503 . S
N812 C809 1.356 . S
N812 N813 1.349 1_554 S
N812 Cu855 1.941 . S
N813 C811 1.328 . S
N813 N812 1.349 1_556 S
N813 Cu858 1.933 . S
C814 C809 1.481 . S
C814 H815 0.980 . S
C814 H816 0.980 . S
C814 H817 0.980 . S
H815 C814 0.980 . S
H816 C814 0.980 . S
H817 C814 0.980 . S
C818 C811 1.503 . S
C818 H819 0.978 . S
C818 H820 0.978 . S
C818 H821 0.983 . S
H819 C818 0.978 . S
H820 C818 0.978 . S
H821 C818 0.983 . S
C822 H888 0.979 . S
C822 H889 0.981 . S
C822 H890 0.981 . S
C822 O908 1.438 . S
C823 H891 0.980 . S
C823 H892 0.979 . S
C823 H893 0.980 . S
C823 O909 1.533 . S
C824 N825 1.338 . S
C824 C827 1.388 . S
C824 C832 1.503 . S
N825 C824 1.338 . S
N825 N826 1.361 . S
N825 Cu862 1.924 . S
N826 N825 1.361 . S
N826 C828 1.348 . S
N826 Cu863 1.964 . S
C827 C824 1.388 . S
C827 C828 1.396 . S
C828 N826 1.348 . S
C828 C827 1.396 . S
C828 C836 1.504 . S
H829 C832 0.979 . S
H830 C832 0.979 . S
H831 C832 0.979 . S
C832 C824 1.503 . S
C832 H829 0.979 . S
C832 H830 0.979 . S
C832 H831 0.979 . S
H833 C836 0.981 . S
H834 C836 0.980 1_556 S
H835 C836 0.979 . S
C836 C828 1.504 . S
C836 H833 0.981 . S
C836 H834 0.980 1_554 S
C836 H835 0.979 . S
C837 N838 1.356 . S
C837 C840 1.402 . S
C837 C842 1.481 . S
N838 C837 1.356 . S
N838 N839 1.365 . S
N838 Cu857 1.941 . S
N839 N838 1.365 . S
N839 C841 1.325 . S
N839 Cu860 1.924 . S
C840 C837 1.402 . S
C840 C841 1.400 . S
C841 N839 1.325 . S
C841 C840 1.400 . S
C841 C846 1.503 . S
C842 C837 1.481 . S
C842 H843 0.980 . S
C842 H844 0.980 . S
C842 H845 0.980 . S
H843 C842 0.980 . S
H844 C842 0.980 . S
H845 C842 0.980 . S
C846 C841 1.503 . S
C846 H847 0.978 . S
C846 H848 0.978 . S
C846 H849 0.983 . S
H847 C846 0.978 . S
H848 C846 0.978 . S
H849 C846 0.983 . S
C850 H894 0.979 . S
C850 H895 0.981 . S
C850 H896 0.981 . S
C850 O910 1.438 . S
C851 H897 0.980 . S
C851 H898 0.979 . S
C851 H899 0.980 . S
C851 O911 1.533 . S
Cu852 N687 1.924 . S
Cu852 N728 1.937 . S
Cu852 O900 1.923 . S
Cu852 O901 1.930 . S
Cu853 N688 1.964 . S
Cu853 N784 1.941 . S
Cu853 O900 1.905 . S
Cu853 O911 1.920 . S
Cu854 N713 1.924 . S
Cu854 N756 1.924 . S
Cu854 O902 1.923 . S
Cu854 O903 1.930 . S
Cu855 N714 1.964 . S
Cu855 N812 1.941 . S
Cu855 O902 1.905 . S
Cu855 O907 1.920 1_554 S
Cu856 N701 1.924 . S
Cu856 N741 1.924 . S
Cu856 O904 1.923 . S
Cu856 O905 1.930 . S
Cu857 N743 1.964 . S
Cu857 N838 1.941 . S
Cu857 O904 1.905 . S
Cu857 O909 1.920 . S
Cu858 N769 1.924 . S
Cu858 N813 1.933 . S
Cu858 O906 1.923 . S
Cu858 O907 1.930 . S
Cu859 N700 1.941 . S
Cu859 N772 1.964 . S
Cu859 O905 1.920 . S
Cu859 O906 1.905 . S
Cu860 N799 1.924 . S
Cu860 N839 1.924 . S
Cu860 O908 1.923 . S
Cu860 O909 1.930 . S
Cu861 N727 1.941 . S
Cu861 N800 1.964 . S
Cu861 O901 1.920 1_556 S
Cu861 O908 1.905 . S
Cu862 N785 1.924 . S
Cu862 N825 1.924 . S
Cu862 O910 1.923 . S
Cu862 O911 1.930 . S
Cu863 N755 1.941 . S
Cu863 N826 1.964 . S
Cu863 O903 1.920 . S
Cu863 O910 1.905 . S
H864 C710 0.979 . S
H865 C710 0.981 . S
H866 C710 0.981 . S
H867 C711 0.980 . S
H868 C711 0.979 . S
H869 C711 0.980 1_556 S
H870 C738 0.979 . S
H871 C738 0.981 . S
H872 C738 0.981 . S
H873 C739 0.980 . S
H874 C739 0.979 . S
H875 C739 0.980 . S
H876 C766 0.979 . S
H877 C766 0.981 . S
H878 C766 0.981 . S
H879 C767 0.980 . S
H880 C767 0.979 . S
H881 C767 0.980 . S
H882 C794 0.979 . S
H883 C794 0.981 . S
H884 C794 0.981 . S
H885 C795 0.980 . S
H886 C795 0.979 . S
H887 C795 0.980 1_554 S
H888 C822 0.979 . S
H889 C822 0.981 . S
H890 C822 0.981 . S
H891 C823 0.980 . S
H892 C823 0.979 . S
H893 C823 0.980 . S
H894 C850 0.979 . S
H895 C850 0.981 . S
H896 C850 0.981 . S
H897 C851 0.980 . S
H898 C851 0.979 . S
H899 C851 0.980 . S
O900 C710 1.438 . S
O900 Cu852 1.923 . S
O900 Cu853 1.905 . S
O901 C711 1.533 . S
O901 Cu852 1.930 . S
O901 Cu861 1.920 1_554 S
O902 C738 1.438 . S
O902 Cu854 1.923 . S
O902 Cu855 1.905 . S
O903 C739 1.533 . S
O903 Cu854 1.930 . S
O903 Cu863 1.920 . S
O904 C766 1.438 . S
O904 Cu856 1.923 . S
O904 Cu857 1.905 . S
O905 C767 1.533 . S
O905 Cu856 1.930 . S
O905 Cu859 1.920 . S
O906 C794 1.438 . S
O906 Cu858 1.923 . S
O906 Cu859 1.905 . S
O907 C795 1.533 . S
O907 Cu855 1.920 1_556 S
O907 Cu858 1.930 . S
O908 C822 1.438 . S
O908 Cu860 1.923 . S
O908 Cu861 1.905 . S
O909 C823 1.533 . S
O909 Cu857 1.920 . S
O909 Cu860 1.930 . S
O910 C850 1.438 . S
O910 Cu862 1.923 . S
O910 Cu863 1.905 . S
O911 C851 1.533 . S
O911 Cu853 1.920 . S
O911 Cu862 1.930 . S
C912 C913 1.387 1_655 S
C912 H916 0.950 . S
C912 C921 1.390 . S
C913 C912 1.387 1_455 S
C913 C915 1.387 . S
H914 C921 0.950 . S
C915 C913 1.387 . S
C915 C917 1.390 . S
C915 H919 0.950 . S
H916 C912 0.950 . S
C917 C915 1.390 . S
C917 C918 1.387 1_455 S
C917 H920 0.950 . S
C918 C917 1.387 1_655 S
C918 C921 1.387 . S
H919 C915 0.950 . S
H920 C917 0.950 . S
C921 C912 1.390 . S
C921 H914 0.950 . S
C921 C918 1.387 . S
C922 C923 1.387 . S
C922 H926 0.950 . S
C922 C931 1.390 1_565 S
C923 C922 1.387 . S
C923 C925 1.387 . S
H924 C931 0.950 . S
C925 C923 1.387 . S
C925 C927 1.390 1_565 S
C925 H929 0.950 . S
H926 C922 0.950 . S
C927 C925 1.390 1_545 S
C927 C928 1.387 . S
C927 H930 0.950 . S
C928 C927 1.387 . S
C928 C931 1.387 . S
H929 C925 0.950 . S
H930 C927 0.950 . S
C931 C922 1.390 1_545 S
C931 H924 0.950 . S
C931 C928 1.387 . S
C932 C933 1.387 . S
C932 H936 0.950 . S
C932 C941 1.390 1_455 S
C933 C932 1.387 . S
C933 C935 1.387 . S
H934 C941 0.950 . S
C935 C933 1.387 . S
C935 C937 1.390 1_455 S
C935 H939 0.950 . S
H936 C932 0.950 . S
C937 C935 1.390 1_655 S
C937 C938 1.387 . S
C937 H940 0.950 . S
C938 C937 1.387 . S
C938 C941 1.387 . S
H939 C935 0.950 . S
H940 C937 0.950 . S
C941 C932 1.390 1_655 S
C941 H934 0.950 . S
C941 C938 1.387 . S
C942 C943 1.387 1_545 S
C942 H946 0.950 . S
C942 C951 1.390 . S
C943 C942 1.387 1_565 S
C943 C945 1.387 . S
H944 C951 0.950 . S
C945 C943 1.387 . S
C945 C947 1.390 . S
C945 H949 0.950 . S
H946 C942 0.950 . S
C947 C945 1.390 . S
C947 C948 1.387 1_565 S
C947 H950 0.950 . S
C948 C947 1.387 1_545 S
C948 C951 1.387 . S
H949 C945 0.950 . S
H950 C947 0.950 . S
C951 C942 1.390 . S
C951 H944 0.950 . S
C951 C948 1.387 . S
C952 C953 1.387 . S
C952 H956 0.950 . S
C952 C961 1.390 . S
C953 C952 1.387 . S
C953 C955 1.387 1_655 S
H954 C961 0.950 . S
C955 C953 1.387 1_455 S
C955 C957 1.390 . S
C955 H959 0.950 . S
H956 C952 0.950 . S
C957 C955 1.390 . S
C957 C958 1.387 . S
C957 H960 0.950 . S
C958 C957 1.387 . S
C958 C961 1.387 1_455 S
H959 C955 0.950 . S
H960 C957 0.950 . S
C961 C952 1.390 . S
C961 H954 0.950 . S
C961 C958 1.387 1_655 S
C962 C963 1.387 1_565 S
C962 H966 0.950 . S
C962 C971 1.390 . S
C963 C962 1.387 1_545 S
C963 C965 1.387 . S
H964 C971 0.950 . S
C965 C963 1.387 . S
C965 C967 1.390 . S
C965 H969 0.950 . S
H966 C962 0.950 . S
C967 C965 1.390 . S
C967 C968 1.387 1_545 S
C967 H970 0.950 . S
C968 C967 1.387 1_565 S
C968 C971 1.387 . S
H969 C965 0.950 . S
H970 C967 0.950 . S
C971 C962 1.390 . S
C971 H964 0.950 . S
C971 C968 1.387 . S
C972 C973 1.387 . S
C972 H976 0.950 . S
C972 C981 1.390 1_455 S
C973 C972 1.387 . S
C973 C975 1.387 . S
H974 C981 0.950 . S
C975 C973 1.387 . S
C975 C977 1.390 1_455 S
C975 H979 0.950 . S
H976 C972 0.950 . S
C977 C975 1.390 1_655 S
C977 C978 1.387 . S
C977 H980 0.950 . S
C978 C977 1.387 . S
C978 C981 1.387 . S
H979 C975 0.950 . S
H980 C977 0.950 . S
C981 C972 1.390 1_655 S
C981 H974 0.950 . S
C981 C978 1.387 . S
C982 C983 1.387 . S
C982 H986 0.950 . S
C982 C991 1.390 . S
C983 C982 1.387 . S
C983 C985 1.387 1_545 S
H984 C991 0.950 . S
C985 C983 1.387 1_565 S
C985 C987 1.390 . S
C985 H989 0.950 . S
H986 C982 0.950 . S
C987 C985 1.390 . S
C987 C988 1.387 . S
C987 H990 0.950 . S
C988 C987 1.387 . S
C988 C991 1.387 1_565 S
H989 C985 0.950 . S
H990 C987 0.950 . S
C991 C982 1.390 . S
C991 H984 0.950 . S
C991 C988 1.387 1_545 S
C992 C993 1.387 1_554 S
C992 H996 0.950 . S
C992 C1001 1.390 . S
C993 C992 1.387 1_556 S
C993 C995 1.387 . S
H994 C1001 0.950 . S
C995 C993 1.387 . S
C995 C997 1.390 . S
C995 H999 0.950 . S
H996 C992 0.950 . S
C997 C995 1.390 . S
C997 C998 1.387 1_556 S
C997 H1000 0.950 . S
C998 C997 1.387 1_554 S
C998 C1001 1.387 . S
H999 C995 0.950 . S
H1000 C997 0.950 . S
C1001 C992 1.390 . S
C1001 H994 0.950 . S
C1001 C998 1.387 . S
C1002 C1003 1.387 . S
C1002 H1006 0.950 . S
C1002 C1011 1.390 1_554 S
C1003 C1002 1.387 . S
C1003 C1005 1.387 . S
H1004 C1011 0.950 . S
C1005 C1003 1.387 . S
C1005 C1007 1.390 1_554 S
C1005 H1009 0.950 . S
H1006 C1002 0.950 . S
C1007 C1005 1.390 1_556 S
C1007 C1008 1.387 . S
C1007 H1010 0.950 . S
C1008 C1007 1.387 . S
C1008 C1011 1.387 . S
H1009 C1005 0.950 . S
H1010 C1007 0.950 . S
C1011 C1002 1.390 1_556 S
C1011 H1004 0.950 . S
C1011 C1008 1.387 . S
C1012 C1013 1.387 . S
C1012 H1016 0.950 . S
C1012 C1021 1.390 1_556 S
C1013 C1012 1.387 . S
C1013 C1015 1.387 . S
H1014 C1021 0.950 . S
C1015 C1013 1.387 . S
C1015 C1017 1.390 1_556 S
C1015 H1019 0.950 . S
H1016 C1012 0.950 . S
C1017 C1015 1.390 1_554 S
C1017 C1018 1.387 . S
C1017 H1020 0.950 . S
C1018 C1017 1.387 . S
C1018 C1021 1.387 . S
H1019 C1015 0.950 . S
H1020 C1017 0.950 . S
C1021 C1012 1.390 1_554 S
C1021 H1014 0.950 . S
C1021 C1018 1.387 . S
C1022 C1023 1.387 . S
C1022 H1026 0.950 . S
C1022 C1031 1.390 . S
C1023 C1022 1.387 . S
C1023 C1025 1.387 1_556 S
H1024 C1031 0.950 . S
C1025 C1023 1.387 1_554 S
C1025 C1027 1.390 . S
C1025 H1029 0.950 . S
H1026 C1022 0.950 . S
C1027 C1025 1.390 . S
C1027 C1028 1.387 . S
C1027 H1030 0.950 . S
C1028 C1027 1.387 . S
C1028 C1031 1.387 1_554 S
H1029 C1025 0.950 . S
H1030 C1027 0.950 . S
C1031 C1022 1.390 . S
C1031 H1024 0.950 . S
C1031 C1028 1.387 1_556 S
C1032 C1033 1.387 . S
C1032 H1036 0.950 . S
C1032 C1041 1.390 . S
C1033 C1032 1.387 . S
C1033 C1035 1.387 . S
H1034 C1041 0.950 . S
C1035 C1033 1.387 . S
C1035 C1037 1.390 . S
C1035 H1039 0.950 . S
H1036 C1032 0.950 . S
C1037 C1035 1.390 . S
C1037 C1038 1.387 . S
C1037 H1040 0.950 . S
C1038 C1037 1.387 . S
C1038 C1041 1.387 . S
H1039 C1035 0.950 . S
H1040 C1037 0.950 . S
C1041 C1032 1.390 . S
C1041 H1034 0.950 . S
C1041 C1038 1.387 . S
C1042 C1043 1.387 . S
C1042 H1046 0.950 . S
C1042 C1051 1.390 . S
C1043 C1042 1.387 . S
C1043 C1045 1.387 . S
H1044 C1051 0.950 . S
C1045 C1043 1.387 . S
C1045 C1047 1.390 . S
C1045 H1049 0.950 . S
H1046 C1042 0.950 . S
C1047 C1045 1.390 . S
C1047 C1048 1.387 . S
C1047 H1050 0.950 . S
C1048 C1047 1.387 . S
C1048 C1051 1.387 . S
H1049 C1045 0.950 . S
H1050 C1047 0.950 . S
C1051 C1042 1.390 . S
C1051 H1044 0.950 . S
C1051 C1048 1.387 . S
C1052 C1053 1.387 . S
C1052 H1056 0.950 . S
C1052 C1061 1.390 . S
C1053 C1052 1.387 . S
C1053 C1055 1.387 . S
H1054 C1061 0.950 . S
C1055 C1053 1.387 . S
C1055 C1057 1.390 . S
C1055 H1059 0.950 . S
H1056 C1052 0.950 . S
C1057 C1055 1.390 . S
C1057 C1058 1.387 . S
C1057 H1060 0.950 . S
C1058 C1057 1.387 . S
C1058 C1061 1.387 . S
H1059 C1055 0.950 . S
H1060 C1057 0.950 . S
C1061 C1052 1.390 . S
C1061 H1054 0.950 . S
C1061 C1058 1.387 . S
C1062 C1063 1.387 . S
C1062 H1066 0.950 . S
C1062 C1071 1.390 . S
C1063 C1062 1.387 . S
C1063 C1065 1.387 . S
H1064 C1071 0.950 . S
C1065 C1063 1.387 . S
C1065 C1067 1.390 . S
C1065 H1069 0.950 . S
H1066 C1062 0.950 . S
C1067 C1065 1.390 . S
C1067 C1068 1.387 . S
C1067 H1070 0.950 . S
C1068 C1067 1.387 . S
C1068 C1071 1.387 . S
H1069 C1065 0.950 . S
H1070 C1067 0.950 . S
C1071 C1062 1.390 . S
C1071 H1064 0.950 . S
C1071 C1068 1.387 . S
C1072 C1073 1.387 . S
C1072 H1076 0.950 . S
C1072 C1081 1.390 . S
C1073 C1072 1.387 . S
C1073 C1075 1.387 . S
H1074 C1081 0.950 . S
C1075 C1073 1.387 . S
C1075 C1077 1.390 . S
C1075 H1079 0.950 . S
H1076 C1072 0.950 . S
C1077 C1075 1.390 . S
C1077 C1078 1.387 . S
C1077 H1080 0.950 . S
C1078 C1077 1.387 . S
C1078 C1081 1.387 . S
H1079 C1075 0.950 . S
H1080 C1077 0.950 . S
C1081 C1072 1.390 . S
C1081 H1074 0.950 . S
C1081 C1078 1.387 . S
C1082 C1083 1.387 . S
C1082 H1086 0.950 . S
C1082 C1091 1.390 . S
C1083 C1082 1.387 . S
C1083 C1085 1.387 . S
H1084 C1091 0.950 . S
C1085 C1083 1.387 . S
C1085 C1087 1.390 . S
C1085 H1089 0.950 . S
H1086 C1082 0.950 . S
C1087 C1085 1.390 . S
C1087 C1088 1.387 . S
C1087 H1090 0.950 . S
C1088 C1087 1.387 . S
C1088 C1091 1.387 . S
H1089 C1085 0.950 . S
H1090 C1087 0.950 . S
C1091 C1082 1.390 . S
C1091 H1084 0.950 . S
C1091 C1088 1.387 . S
C1092 C1093 1.387 . S
C1092 H1096 0.950 . S
C1092 C1101 1.390 . S
C1093 C1092 1.387 . S
C1093 C1095 1.387 . S
H1094 C1101 0.950 . S
C1095 C1093 1.387 . S
C1095 C1097 1.390 . S
C1095 H1099 0.950 . S
H1096 C1092 0.950 . S
C1097 C1095 1.390 . S
C1097 C1098 1.387 . S
C1097 H1100 0.950 . S
C1098 C1097 1.387 . S
C1098 C1101 1.387 . S
H1099 C1095 0.950 . S
H1100 C1097 0.950 . S
C1101 C1092 1.390 . S
C1101 H1094 0.950 . S
C1101 C1098 1.387 . S
C1102 C1103 1.387 . S
C1102 H1106 0.950 . S
C1102 C1111 1.390 . S
C1103 C1102 1.387 . S
C1103 C1105 1.387 . S
H1104 C1111 0.950 . S
C1105 C1103 1.387 . S
C1105 C1107 1.390 . S
C1105 H1109 0.950 . S
H1106 C1102 0.950 . S
C1107 C1105 1.390 . S
C1107 C1108 1.387 . S
C1107 H1110 0.950 . S
C1108 C1107 1.387 . S
C1108 C1111 1.387 . S
H1109 C1105 0.950 . S
H1110 C1107 0.950 . S
C1111 C1102 1.390 . S
C1111 H1104 0.950 . S
C1111 C1108 1.387 . S
C1112 C1113 1.387 . S
C1112 H1116 0.950 . S
C1112 C1121 1.390 . S
C1113 C1112 1.387 . S
C1113 C1115 1.387 . S
H1114 C1121 0.950 . S
C1115 C1113 1.387 . S
C1115 C1117 1.390 . S
C1115 H1119 0.950 . S
H1116 C1112 0.950 . S
C1117 C1115 1.390 . S
C1117 C1118 1.387 . S
C1117 H1120 0.950 . S
C1118 C1117 1.387 . S
C1118 C1121 1.387 . S
H1119 C1115 0.950 . S
H1120 C1117 0.950 . S
C1121 C1112 1.390 . S
C1121 H1114 0.950 . S
C1121 C1118 1.387 . S
C1122 C1123 1.387 . S
C1122 H1126 0.950 . S
C1122 C1131 1.390 . S
C1123 C1122 1.387 . S
C1123 C1125 1.387 . S
H1124 C1131 0.950 . S
C1125 C1123 1.387 . S
C1125 C1127 1.390 . S
C1125 H1129 0.950 . S
H1126 C1122 0.950 . S
C1127 C1125 1.390 . S
C1127 C1128 1.387 . S
C1127 H1130 0.950 . S
C1128 C1127 1.387 . S
C1128 C1131 1.387 . S
H1129 C1125 0.950 . S
H1130 C1127 0.950 . S
C1131 C1122 1.390 . S
C1131 H1124 0.950 . S
C1131 C1128 1.387 . S
C1132 C1133 1.387 . S
C1132 H1136 0.950 . S
C1132 C1141 1.390 . S
C1133 C1132 1.387 . S
C1133 C1135 1.387 . S
H1134 C1141 0.950 . S
C1135 C1133 1.387 . S
C1135 C1137 1.390 . S
C1135 H1139 0.950 . S
H1136 C1132 0.950 . S
C1137 C1135 1.390 . S
C1137 C1138 1.387 . S
C1137 H1140 0.950 . S
C1138 C1137 1.387 . S
C1138 C1141 1.387 . S
H1139 C1135 0.950 . S
H1140 C1137 0.950 . S
C1141 C1132 1.390 . S
C1141 H1134 0.950 . S
C1141 C1138 1.387 . S
C1142 C1143 1.387 . S
C1142 H1146 0.950 . S
C1142 C1151 1.390 . S
C1143 C1142 1.387 . S
C1143 C1145 1.387 . S
H1144 C1151 0.950 . S
C1145 C1143 1.387 . S
C1145 C1147 1.390 . S
C1145 H1149 0.950 . S
H1146 C1142 0.950 . S
C1147 C1145 1.390 . S
C1147 C1148 1.387 . S
C1147 H1150 0.950 . S
C1148 C1147 1.387 . S
C1148 C1151 1.387 . S
H1149 C1145 0.950 . S
H1150 C1147 0.950 . S
C1151 C1142 1.390 . S
C1151 H1144 0.950 . S
C1151 C1148 1.387 . S
C913 C31 1.558 1_455 S
C918 C341 1.554 1_655 S
C923 C73 1.799 . S
C928 C612 1.798 . S
C933 C98 1.799 . S
C938 C243 1.800 . S
C943 C542 1.556 1_565 S
C948 C1 1.553 1_545 S
C953 C113 1.558 1_655 S
C958 C259 1.561 1_455 S
C963 C156 1.799 . S
C968 C529 1.800 . S
C973 C326 1.798 . S
C978 C15 1.797 . S
C983 C457 1.557 1_545 S
C988 C86 1.560 1_565 S
C993 C827 1.558 1_556 S
C998 C58 1.555 1_554 S
C1003 C810 1.799 . S
C1008 C45 1.798 . S
C1013 C729 1.798 . S
C1018 C126 1.799 . S
C1023 C143 1.557 1_556 S
C1028 C742 1.560 1_554 S
C1033 C840 1.801 . S
C1038 C301 1.805 . S
C1043 C229 1.555 . S
C1048 C770 1.556 . S
C1053 C384 1.798 . S
C1058 C757 1.794 . S
C1063 C685 1.554 . S
C1068 C314 1.554 . S
C1073 C599 1.557 . S
C1078 C286 1.557 . S
C1083 C273 1.798 . S
C1088 C582 1.794 . S
C1093 C354 1.798 . S
C1098 C501 1.802 . S
C1103 C514 1.556 . S
C1108 C371 1.557 . S
C1113 C797 1.555 . S
C1118 C487 1.554 . S
C1123 C554 1.798 . S
C1128 C699 1.802 . S
C1133 C715 1.555 . S
C1138 C569 1.555 . S
C1143 C471 1.799 . S
C1148 C782 1.795 . S
