# Generated by pormake.
# Topology und, (4)-cn, num edge types: 1
# Building blocks:
#     Node 0, Type 0, BuildingBlock: KUFVIS_clean_sbu_0, # of connection points: 4
#     Node 1, Type 0, BuildingBlock: KUFVIS_clean_sbu_0, # of connection points: 4
#     Node 2, Type 0, BuildingBlock: KUFVIS_clean_sbu_0, # of connection points: 4
#     Node 3, Type 0, BuildingBlock: KUFVIS_clean_sbu_0, # of connection points: 4
#     Node 4, Type 0, BuildingBlock: KUFVIS_clean_sbu_0, # of connection points: 4
#     Node 5, Type 0, BuildingBlock: KUFVIS_clean_sbu_0, # of connection points: 4
#     Node 6, Type 0, BuildingBlock: KUFVIS_clean_sbu_0, # of connection points: 4
#     Node 7, Type 0, BuildingBlock: KUFVIS_clean_sbu_0, # of connection points: 4
#     Node 8, Type 0, BuildingBlock: KUFVIS_clean_sbu_0, # of connection points: 4
#     Node 9, Type 0, BuildingBlock: KUFVIS_clean_sbu_0, # of connection points: 4
#     Node 10, Type 0, BuildingBlock: KUFVIS_clean_sbu_0, # of connection points: 4
#     Node 11, Type 0, BuildingBlock: KUFVIS_clean_sbu_0, # of connection points: 4
#     Node 12, Type 0, BuildingBlock: KUFVIS_clean_sbu_0, # of connection points: 4
#     Node 13, Type 0, BuildingBlock: KUFVIS_clean_sbu_0, # of connection points: 4
#     Node 14, Type 0, BuildingBlock: KUFVIS_clean_sbu_0, # of connection points: 4
#     Node 15, Type 0, BuildingBlock: KUFVIS_clean_sbu_0, # of connection points: 4
#     Edge 16, Type (0, 0), BuildingBlock: EZIPEK_clean_linker_0, # of connection points: 2
#     Edge 17, Type (0, 0), BuildingBlock: EZIPEK_clean_linker_0, # of connection points: 2
#     Edge 18, Type (0, 0), BuildingBlock: EZIPEK_clean_linker_0, # of connection points: 2
#     Edge 19, Type (0, 0), BuildingBlock: EZIPEK_clean_linker_0, # of connection points: 2
#     Edge 20, Type (0, 0), BuildingBlock: EZIPEK_clean_linker_0, # of connection points: 2
#     Edge 21, Type (0, 0), BuildingBlock: EZIPEK_clean_linker_0, # of connection points: 2
#     Edge 22, Type (0, 0), BuildingBlock: EZIPEK_clean_linker_0, # of connection points: 2
#     Edge 23, Type (0, 0), BuildingBlock: EZIPEK_clean_linker_0, # of connection points: 2
#     Edge 24, Type (0, 0), BuildingBlock: EZIPEK_clean_linker_0, # of connection points: 2
#     Edge 25, Type (0, 0), BuildingBlock: EZIPEK_clean_linker_0, # of connection points: 2
#     Edge 26, Type (0, 0), BuildingBlock: EZIPEK_clean_linker_0, # of connection points: 2
#     Edge 27, Type (0, 0), BuildingBlock: EZIPEK_clean_linker_0, # of connection points: 2
#     Edge 28, Type (0, 0), BuildingBlock: EZIPEK_clean_linker_0, # of connection points: 2
#     Edge 29, Type (0, 0), BuildingBlock: EZIPEK_clean_linker_0, # of connection points: 2
#     Edge 30, Type (0, 0), BuildingBlock: EZIPEK_clean_linker_0, # of connection points: 2
#     Edge 31, Type (0, 0), BuildingBlock: EZIPEK_clean_linker_0, # of connection points: 2
#     Edge 32, Type (0, 0), BuildingBlock: EZIPEK_clean_linker_0, # of connection points: 2
#     Edge 33, Type (0, 0), BuildingBlock: EZIPEK_clean_linker_0, # of connection points: 2
#     Edge 34, Type (0, 0), BuildingBlock: EZIPEK_clean_linker_0, # of connection points: 2
#     Edge 35, Type (0, 0), BuildingBlock: EZIPEK_clean_linker_0, # of connection points: 2
#     Edge 36, Type (0, 0), BuildingBlock: EZIPEK_clean_linker_0, # of connection points: 2
#     Edge 37, Type (0, 0), BuildingBlock: EZIPEK_clean_linker_0, # of connection points: 2
#     Edge 38, Type (0, 0), BuildingBlock: EZIPEK_clean_linker_0, # of connection points: 2
#     Edge 39, Type (0, 0), BuildingBlock: EZIPEK_clean_linker_0, # of connection points: 2
#     Edge 40, Type (0, 0), BuildingBlock: EZIPEK_clean_linker_0, # of connection points: 2
#     Edge 41, Type (0, 0), BuildingBlock: EZIPEK_clean_linker_0, # of connection points: 2
#     Edge 42, Type (0, 0), BuildingBlock: EZIPEK_clean_linker_0, # of connection points: 2
#     Edge 43, Type (0, 0), BuildingBlock: EZIPEK_clean_linker_0, # of connection points: 2
#     Edge 44, Type (0, 0), BuildingBlock: EZIPEK_clean_linker_0, # of connection points: 2
#     Edge 45, Type (0, 0), BuildingBlock: EZIPEK_clean_linker_0, # of connection points: 2
#     Edge 46, Type (0, 0), BuildingBlock: EZIPEK_clean_linker_0, # of connection points: 2
#     Edge 47, Type (0, 0), BuildingBlock: EZIPEK_clean_linker_0, # of connection points: 2
# Relax obj value: 0.021
# Max RMSD: 0.090
# Mean RMSD: 0.078
data_MOF--net-und--node1-KUFVIS_clean_sbu_0--edge1-EZIPEK_clean_linker_0
_symmetry_space_group_name_H-M    P1
_symmetry_Int_Tables_number       1
_symmetry_cell_setting            triclinic
loop_
_symmetry_equiv_pos_as_xyz
'x, y, z'
_cell_length_a     43.311371
_cell_length_b     43.288079
_cell_length_c     16.272594
_cell_angle_alpha  92.717344
_cell_angle_beta   93.026644
_cell_angle_gamma 90.250851
loop_
_atom_site_label
_atom_site_type_symbol
_atom_site_fract_x
_atom_site_fract_y
_atom_site_fract_z
_atom_type_partial_charge
Mn0 Mn 0.26223 0.34358 0.03282 0.0
Mn1 Mn 0.22643 0.3655 0.85746 0.0
C2 C 0.26438 0.3123 0.9135 0.0
C3 C 0.2594 0.31622 0.15315 0.0
C4 C 0.28616 0.39565 0.93389 0.0
O5 O 0.23445 0.37954 0.07038 0.0
O6 O 0.20499 0.38284 0.95382 0.0
C7 C 0.16653 0.33294 0.86624 0.0
N8 N 0.19242 0.33855 0.82518 0.0
C9 C 0.17483 0.30438 0.71117 0.0
C10 C 0.14793 0.29831 0.75211 0.0
C11 C 0.14383 0.31257 0.83011 0.0
C12 C 0.19675 0.32471 0.75051 0.0
H13 H 0.16329 0.34386 0.9262 0.0
C14 C 0.21146 0.39088 0.02957 0.0
O15 O 0.28024 0.33762 0.14728 0.0
O16 O 0.23897 0.31261 0.09257 0.0
N17 N 0.24462 0.34964 0.75946 0.0
C18 C 0.27204 0.35761 0.72858 0.0
C19 C 0.27978 0.34516 0.65112 0.0
C20 C 0.25908 0.32503 0.60565 0.0
C21 C 0.23077 0.3176 0.63799 0.0
C22 C 0.22426 0.33081 0.71535 0.0
H23 H 0.28795 0.3733 0.76272 0.0
O24 O 0.28385 0.30839 0.9752 0.0
O25 O 0.24419 0.33379 0.92457 0.0
O26 O 0.29146 0.37551 0.98782 0.0
O27 O 0.262 0.39406 0.88481 0.0
C28 C 0.20881 0.29751 0.59662 0.0
C29 C 0.18093 0.29077 0.63335 0.0
H30 H 0.13037 0.28261 0.72447 0.0
H31 H 0.12319 0.3079 0.86225 0.0
H32 H 0.30166 0.35107 0.62652 0.0
H33 H 0.2652 0.31533 0.54614 0.0
H34 H 0.21327 0.2869 0.53685 0.0
H35 H 0.16442 0.27494 0.60143 0.0
Mn36 Mn 0.93949 0.01093 0.26204 0.0
Mn37 Mn 0.90986 0.04748 0.42797 0.0
C38 C 0.96592 0.01002 0.38949 0.0
C39 C 0.97102 0.01266 0.14999 0.0
C40 C 0.88451 0.98631 0.3518 0.0
O41 O 0.90766 0.03984 0.21094 0.0
O42 O 0.89291 0.06667 0.32492 0.0
C43 C 0.93721 0.11016 0.42247 0.0
N44 N 0.93409 0.0834 0.46189 0.0
C45 C 0.9666 0.10309 0.57741 0.0
C46 C 0.97073 0.13056 0.53694 0.0
C47 C 0.95587 0.13414 0.45923 0.0
C48 C 0.94783 0.07995 0.53745 0.0
H49 H 0.92523 0.11331 0.36407 0.0
C50 C 0.89239 0.06136 0.24631 0.0
O51 O 0.94911 0.99209 0.15144 0.0
O52 O 0.97371 0.03274 0.21142 0.0
N53 N 0.92499 0.0311 0.52978 0.0
C54 C 0.91886 1.00311 0.56058 0.0
C55 C 0.93189 0.99594 0.63818 0.0
C56 C 0.95091 0.01766 0.68358 0.0
C57 C 0.95661 0.04643 0.65108 0.0
C58 C 0.94291 0.05232 0.57353 0.0
H59 H 0.90436 0.98623 0.52603 0.0
O60 O 0.97117 0.98928 0.33183 0.0
O61 O 0.9449 0.03025 0.37082 0.0
O62 O 0.90443 0.98244 0.29679 0.0
O63 O 0.88393 0.01029 0.40062 0.0
C64 C 0.97558 0.06937 0.69232 0.0
C65 C 0.98052 0.09771 0.65562 0.0
H66 H 0.98511 0.14911 0.56515 0.0
H67 H 0.9586 0.15543 0.42798 0.0
H68 H 0.92741 0.97366 0.66274 0.0
H69 H 0.96112 0.01196 0.74313 0.0
H70 H 0.9866 0.06537 0.75207 0.0
H71 H 0.99528 0.11512 0.6878 0.0
Mn72 Mn 0.25983 0.68793 0.49925 0.0
Mn73 Mn 0.2254 0.66606 0.66753 0.0
C74 C 0.264 0.71844 0.62049 0.0
C75 C 0.2594 0.71602 0.37952 0.0
C76 C 0.28667 0.64015 0.61922 0.0
O77 O 0.22876 0.65536 0.45033 0.0
O78 O 0.21173 0.6398 0.56909 0.0
C79 C 0.16534 0.69037 0.60381 0.0
N80 N 0.1872 0.68821 0.66657 0.0
C81 C 0.15982 0.72433 0.75245 0.0
C82 C 0.13616 0.72548 0.69054 0.0
C83 C 0.13914 0.70873 0.61541 0.0
C84 C 0.18537 0.70558 0.73719 0.0
H85 H 0.1681 0.67863 0.54479 0.0
C86 C 0.21236 0.63742 0.49088 0.0
O87 O 0.27854 0.69333 0.3904 0.0
O88 O 0.23946 0.7209 0.43505 0.0
N89 N 0.23529 0.68858 0.76936 0.0
C90 C 0.26064 0.68581 0.82161 0.0
C91 C 0.26183 0.70201 0.89851 0.0
C92 C 0.2367 0.72037 0.92127 0.0
C93 C 0.21067 0.72233 0.8674 0.0
C94 C 0.21063 0.70538 0.79213 0.0
H95 H 0.27979 0.67138 0.80462 0.0
O96 O 0.2842 0.72084 0.56521 0.0
O97 O 0.24213 0.69821 0.60307 0.0
O98 O 0.28687 0.65348 0.55038 0.0
O99 O 0.26536 0.64411 0.67047 0.0
C100 C 0.18476 0.74049 0.88559 0.0
C101 C 0.15944 0.7417 0.82779 0.0
H102 H 0.11602 0.73978 0.69918 0.0
H103 H 0.12148 0.71025 0.56622 0.0
H104 H 0.28203 0.70026 0.93992 0.0
H105 H 0.23722 0.7328 0.98031 0.0
H106 H 0.18429 0.75399 0.94329 0.0
H107 H 0.13995 0.75631 0.84152 0.0
Mn108 Mn 0.58411 0.01659 0.77504 0.0
Mn109 Mn 0.61086 0.05507 0.6169 0.0
C110 C 0.55436 0.01805 0.65366 0.0
C111 C 0.55532 0.01882 0.89222 0.0
C112 C 0.63181 0.98959 0.65828 0.0
O113 O 0.61983 0.04137 0.8304 0.0
O114 O 0.63446 0.0675 0.72231 0.0
C115 C 0.59307 0.11862 0.67081 0.0
N116 N 0.5898 0.09396 0.61592 0.0
C117 C 0.5516 0.12085 0.53402 0.0
C118 C 0.55354 0.14587 0.59195 0.0
C119 C 0.5746 0.14485 0.66032 0.0
C120 C 0.57013 0.09503 0.54892 0.0
H121 H 0.6101 0.11854 0.72114 0.0
C122 C 0.63659 0.06131 0.79858 0.0
O123 O 0.57475 0.99646 0.87934 0.0
O124 O 0.55483 0.04073 0.84103 0.0
N125 N 0.58987 0.04687 0.51132 0.0
C126 C 0.59699 0.02539 0.45184 0.0
C127 C 0.58037 0.02429 0.3753 0.0
C128 C 0.55803 0.04684 0.35864 0.0
C129 C 0.55344 0.07079 0.41737 0.0
C130 C 0.57047 0.07026 0.49291 0.0
H131 H 0.61659 0.01075 0.46108 0.0
O132 O 0.5489 0.99785 0.70715 0.0
O133 O 0.57663 0.0378 0.67419 0.0
O134 O 0.61473 0.98666 0.71962 0.0
O135 O 0.63197 0.0139 0.61531 0.0
C136 C 0.53381 0.09598 0.40221 0.0
C137 C 0.53272 0.12092 0.46086 0.0
H138 H 0.53963 0.16631 0.58335 0.0
H139 H 0.57693 0.16442 0.70418 0.0
H140 H 0.58566 1.00691 0.32822 0.0
H141 H 0.54593 0.04679 0.29886 0.0
H142 H 0.52003 0.09675 0.34483 0.0
H143 H 0.51799 0.14045 0.44796 0.0
Mn144 Mn 0.75369 0.69657 0.01691 0.0
Mn145 Mn 0.78959 0.66326 0.1781 0.0
C146 C 0.75406 0.72135 0.14602 0.0
C147 C 0.75967 0.73037 0.90941 0.0
C148 C 0.72624 0.64235 0.1045 0.0
O149 O 0.77936 0.66328 0.96176 0.0
O150 O 0.80652 0.64624 0.07275 0.0
C151 C 0.8528 0.68856 0.16619 0.0
N152 N 0.82688 0.68574 0.20908 0.0
C153 C 0.84893 0.71813 0.32174 0.0
C154 C 0.87562 0.72181 0.27798 0.0
C155 C 0.8776 0.70685 0.19996 0.0
C156 C 0.82492 0.6997 0.28469 0.0
H157 H 0.85459 0.67678 0.107 0.0
C158 C 0.80023 0.64652 0.99468 0.0
O159 O 0.73652 0.71096 0.90795 0.0
O160 O 0.77944 0.7288 0.97083 0.0
N161 N 0.77564 0.67799 0.28238 0.0
C162 C 0.74858 0.67154 0.31733 0.0
C163 C 0.74343 0.68376 0.3968 0.0
C164 C 0.7662 0.70233 0.43952 0.0
C165 C 0.79392 0.7085 0.40267 0.0
C166 C 0.79795 0.69529 0.32386 0.0
H167 H 0.731 0.65722 0.28488 0.0
O168 O 0.73419 0.72888 0.08836 0.0
O169 O 0.77318 0.69956 0.12564 0.0
O170 O 0.72288 0.66297 0.05036 0.0
O171 O 0.75064 0.64001 0.15176 0.0
C172 C 0.8177 0.72719 0.44114 0.0
C173 C 0.84516 0.7321 0.40054 0.0
H174 H 0.89478 0.73592 0.30386 0.0
H175 H 0.89823 0.70934 0.16605 0.0
H176 H 0.72199 0.67889 0.42507 0.0
H177 H 0.76235 0.71145 0.50088 0.0
H178 H 0.81508 0.73796 0.50182 0.0
H179 H 0.86326 0.74661 0.43054 0.0
Mn180 Mn 0.08896 0.02233 0.78104 0.0
Mn181 Mn 0.11506 0.99115 0.60399 0.0
C182 C 0.05898 0.02514 0.65894 0.0
C183 C 0.06068 0.01713 0.89808 0.0
C184 C 0.13979 0.05187 0.68561 0.0
O185 O 0.12359 0.99348 0.82056 0.0
O186 O 0.13551 0.97028 0.69899 0.0
C187 C 0.08802 0.92846 0.61096 0.0
N188 N 0.09102 0.95511 0.5708 0.0
C189 C 0.05631 0.9362 0.45911 0.0
C190 C 0.053 0.90848 0.49905 0.0
C191 C 0.06885 0.90464 0.57542 0.0
C192 C 0.0756 0.95918 0.49773 0.0
H193 H 0.10004 0.92545 0.66984 0.0
C194 C 0.13818 0.97329 0.77783 0.0
O195 O 0.08161 0.03861 0.89558 0.0
O196 O 0.05752 0.99772 0.83522 0.0
N197 N 0.09684 1.00877 0.50726 0.0
C198 C 0.102 0.03713 0.4775 0.0
C199 C 0.08765 0.04477 0.40181 0.0
C200 C 0.06847 0.02304 0.35692 0.0
C201 C 0.0639 0.99382 0.38809 0.0
C202 C 0.07894 0.98747 0.46367 0.0
H203 H 0.11706 0.05376 0.51099 0.0
O204 O 0.05429 0.04398 0.72128 0.0
O205 O 0.08123 1.00551 0.67031 0.0
O206 O 0.12109 0.05361 0.74399 0.0
O207 O 0.14041 0.02897 0.63291 0.0
C208 C 0.04484 0.97083 0.34736 0.0
C209 C 0.0409 0.9421 0.38306 0.0
H210 H 0.03819 0.89007 0.47192 0.0
H211 H 0.06627 0.88337 0.60687 0.0
H212 H 0.09137 0.06734 0.3781 0.0
H213 H 0.05727 0.02907 0.29881 0.0
H214 H 0.03288 0.97514 0.28897 0.0
H215 H 0.02581 0.92478 0.35172 0.0
Mn216 Mn 0.75289 0.3409 0.51394 0.0
Mn217 Mn 0.78478 0.37379 0.35476 0.0
C218 C 0.75239 0.31434 0.38704 0.0
C219 C 0.76039 0.30944 0.6277 0.0
C220 C 0.723 0.3937 0.42057 0.0
O221 O 0.77932 0.37572 0.56904 0.0
O222 O 0.80514 0.39131 0.4607 0.0
C223 C 0.84912 0.35059 0.3663 0.0
N224 N 0.82119 0.35203 0.32436 0.0
C225 C 0.83957 0.32071 0.21097 0.0
C226 C 0.8682 0.31812 0.25431 0.0
C227 C 0.87304 0.33329 0.33216 0.0
C228 C 0.81655 0.33812 0.2485 0.0
H229 H 0.8532 0.36294 0.42459 0.0
C230 C 0.79997 0.39207 0.53796 0.0
O231 O 0.7372 0.32838 0.62157 0.0
O232 O 0.77924 0.30986 0.56912 0.0
N233 N 0.76691 0.35826 0.25083 0.0
C234 C 0.73808 0.36332 0.21657 0.0
C235 C 0.7299 0.3507 0.13746 0.0
C236 C 0.75145 0.33312 0.09439 0.0
C237 C 0.78094 0.32819 0.13064 0.0
C238 C 0.78791 0.34164 0.20935 0.0
H239 H 0.72138 0.37689 0.24911 0.0
O240 O 0.73324 0.30692 0.44153 0.0
O241 O 0.77086 0.33738 0.40871 0.0
O242 O 0.72071 0.37272 0.47305 0.0
O243 O 0.74679 0.397 0.37845 0.0
C244 C 0.80367 0.31045 0.09181 0.0
C245 C 0.83296 0.30666 0.13204 0.0
H246 H 0.88672 0.30483 0.22808 0.0
H247 H 0.89524 0.33186 0.36549 0.0
H248 H 0.70706 0.35454 0.1097 0.0
H249 H 0.74515 0.32373 0.03338 0.0
H250 H 0.79883 0.29956 0.03113 0.0
H251 H 0.85025 0.2929 0.10173 0.0
Mn252 Mn 0.43472 0.02382 0.2586 0.0
Mn253 Mn 0.40648 0.98952 0.41863 0.0
C254 C 0.46333 0.02533 0.3831 0.0
C255 C 0.46499 0.01838 0.14499 0.0
C256 C 0.38408 0.05182 0.35869 0.0
O257 O 0.3983 0.99813 0.2073 0.0
O258 O 0.38903 0.96934 0.3143 0.0
C259 C 0.4356 0.92823 0.39357 0.0
N260 N 0.43084 0.954 0.44247 0.0
C261 C 0.46411 0.93506 0.55173 0.0
C262 C 0.46924 0.90824 0.50276 0.0
C263 C 0.45499 0.90486 0.42322 0.0
C264 C 0.44482 0.95769 0.51847 0.0
H265 H 0.42484 0.92561 0.33222 0.0
C266 C 0.38465 0.97562 0.23859 0.0
O267 O 0.44526 0.04086 0.15171 0.0
O268 O 0.46469 0.99774 0.1997 0.0
N269 N 0.42185 1.00622 0.52354 0.0
C270 C 0.41392 0.03319 0.56344 0.0
C271 C 0.425 0.03948 0.64496 0.0
C272 C 0.44384 0.01786 0.68458 0.0
C273 C 0.45189 0.9904 0.64245 0.0
C274 C 0.43961 0.98509 0.56189 0.0
H275 H 0.39889 0.04961 0.53392 0.0
O276 O 0.46978 0.04408 0.3268 0.0
O277 O 0.44096 1.00592 0.36337 0.0
O278 O 0.40403 0.05504 0.30455 0.0
O279 O 0.38137 0.02722 0.39894 0.0
C280 C 0.4711 0.96785 0.67777 0.0
C281 C 0.47749 0.94032 0.63205 0.0
H282 H 0.48414 0.89014 0.52548 0.0
H283 H 0.45896 0.8843 0.38487 0.0
H284 H 0.41865 0.06068 0.67759 0.0
H285 H 0.45124 0.02215 0.748 0.0
H286 H 0.48116 0.9715 0.73987 0.0
H287 H 0.49253 0.92326 0.65944 0.0
Mn288 Mn 0.76491 0.84687 0.53223 0.0
Mn289 Mn 0.72856 0.86757 0.35664 0.0
C290 C 0.7656 0.81385 0.41484 0.0
C291 C 0.76136 0.81964 0.65198 0.0
C292 C 0.79144 0.89419 0.42095 0.0
O293 O 0.73878 0.88371 0.57128 0.0
O294 O 0.71132 0.88984 0.45311 0.0
C295 C 0.66711 0.84134 0.3865 0.0
N296 N 0.69172 0.84321 0.33808 0.0
C297 C 0.66818 0.80685 0.23705 0.0
C298 C 0.64251 0.80469 0.2855 0.0
C299 C 0.64204 0.82192 0.36074 0.0
C300 C 0.69261 0.82639 0.26629 0.0
H301 H 0.66664 0.85447 0.44451 0.0
C302 C 0.71693 0.89655 0.5299 0.0
O303 O 0.78331 0.83991 0.6455 0.0
O304 O 0.74016 0.8179 0.59319 0.0
N305 N 0.74204 0.84712 0.25825 0.0
C306 C 0.76872 0.85138 0.21934 0.0
C307 C 0.77271 0.83583 0.14294 0.0
C308 C 0.74909 0.81642 0.10724 0.0
C309 C 0.72183 0.81257 0.14797 0.0
C310 C 0.71906 0.82876 0.22355 0.0
H311 H 0.78676 0.86654 0.2463 0.0
O312 O 0.78523 0.8105 0.47629 0.0
O313 O 0.74586 0.836 0.42508 0.0
O314 O 0.795 0.87748 0.48381 0.0
O315 O 0.76721 0.89298 0.37175 0.0
C316 C 0.69728 0.79332 0.11626 0.0
C317 C 0.67057 0.79024 0.16114 0.0
H318 H 0.62312 0.78977 0.26573 0.0
H319 H 0.62239 0.82027 0.39873 0.0
H320 H 0.79384 0.83887 0.11153 0.0
H321 H 0.75183 0.80459 0.04841 0.0
H322 H 0.69879 0.78062 0.05766 0.0
H323 H 0.65202 0.77503 0.13676 0.0
Mn324 Mn 0.43155 0.51148 0.75202 0.0
Mn325 Mn 0.4057 0.54394 0.92809 0.0
C326 C 0.46157 0.50942 0.87425 0.0
C327 C 0.46012 0.51642 0.63505 0.0
C328 C 0.38168 0.48215 0.85215 0.0
O329 O 0.39664 0.53948 0.7105 0.0
O330 O 0.38341 0.56204 0.83149 0.0
C331 C 0.43027 0.60699 0.90924 0.0
N332 N 0.42861 0.5813 0.95405 0.0
C333 C 0.46379 0.60362 0.06022 0.0
C334 C 0.46568 0.6304 0.01551 0.0
C335 C 0.44892 0.63204 0.93956 0.0
C336 C 0.44495 0.57933 0.02667 0.0
H337 H 0.41756 0.6083 0.85062 0.0
C338 C 0.38079 0.55868 0.75275 0.0
O339 O 0.43936 0.49475 0.63781 0.0
O340 O 0.46293 0.536 0.69751 0.0
N341 N 0.42531 0.52921 0.02686 0.0
C342 C 0.42092 0.5018 0.06249 0.0
C343 C 0.4361 0.4964 0.13883 0.0
C344 C 0.45522 0.51946 0.17846 0.0
C345 C 0.45876 0.54779 0.14161 0.0
C346 C 0.44291 0.55188 0.06569 0.0
H347 H 0.40581 0.48428 0.03319 0.0
O348 O 0.46625 0.49028 0.81259 0.0
O349 O 0.43938 0.5291 0.86209 0.0
O350 O 0.39925 0.48053 0.79105 0.0
O351 O 0.38195 0.50487 0.90558 0.0
C352 C 0.47744 0.57211 0.17715 0.0
C353 C 0.48011 0.59994 0.13631 0.0
H354 H 0.48008 0.64976 0.03867 0.0
H355 H 0.45041 0.65256 0.90444 0.0
H356 H 0.43305 0.47454 0.16709 0.0
H357 H 0.46707 0.51516 0.23709 0.0
H358 H 0.49004 0.56955 0.23555 0.0
H359 H 0.49487 0.61831 0.16381 0.0
Mn360 Mn 0.76932 0.19135 0.00361 0.0
Mn361 Mn 0.7415 0.16237 0.17353 0.0
C362 C 0.77055 0.22152 0.12549 0.0
C363 C 0.76112 0.22016 0.88609 0.0
C364 C 0.80293 0.14284 0.1043 0.0
O365 O 0.7432 0.15418 0.95847 0.0
O366 O 0.72038 0.14143 0.07434 0.0
C367 C 0.67694 0.18458 0.15866 0.0
N368 N 0.7047 0.18373 0.20185 0.0
C369 C 0.6861 0.21716 0.31064 0.0
C370 C 0.65736 0.21847 0.26714 0.0
C371 C 0.65277 0.20212 0.19079 0.0
C372 C 0.70935 0.19939 0.27534 0.0
H373 H 0.67327 0.17199 0.10016 0.0
C374 C 0.72368 0.13864 0.99652 0.0
O375 O 0.78423 0.20124 0.89368 0.0
O376 O 0.74139 0.21986 0.94295 0.0
N377 N 0.75982 0.18126 0.2731 0.0
C378 C 0.7891 0.17811 0.30646 0.0
C379 C 0.79743 0.19295 0.38297 0.0
C380 C 0.77553 0.21066 0.4245 0.0
C381 C 0.74547 0.21332 0.38953 0.0
C382 C 0.73843 0.19781 0.31344 0.0
H383 H 0.80601 0.16444 0.27501 0.0
O384 O 0.78848 0.22795 0.06731 0.0
O385 O 0.75272 0.19748 0.11029 0.0
O386 O 0.80345 0.16246 0.04804 0.0
O387 O 0.78012 0.13968 0.15017 0.0
C388 C 0.72235 0.231 0.42684 0.0
C389 C 0.69271 0.23305 0.3872 0.0
H390 H 0.63869 0.23202 0.29165 0.0
H391 H 0.63066 0.20302 0.15681 0.0
H392 H 0.82069 0.19085 0.40973 0.0
H393 H 0.78207 0.22227 0.48286 0.0
H394 H 0.7272 0.24333 0.48564 0.0
H395 H 0.67522 0.24702 0.41596 0.0
Mn396 Mn 0.07719 0.5119 0.26295 0.0
Mn397 Mn 0.10557 0.54914 0.10426 0.0
C398 C 0.04851 0.51362 0.14014 0.0
C399 C 0.04839 0.51342 0.38026 0.0
C400 C 0.12573 0.48436 0.14916 0.0
O401 O 0.11226 0.53763 0.31855 0.0
O402 O 0.12949 0.56112 0.20883 0.0
C403 C 0.08686 0.61196 0.16179 0.0
N404 N 0.08559 0.58854 0.10269 0.0
C405 C 0.05074 0.61739 0.01571 0.0
C406 C 0.0517 0.64175 0.0757 0.0
C407 C 0.06981 0.63899 0.14911 0.0
C408 C 0.06796 0.59086 0.03223 0.0
H409 H 0.10075 0.61007 0.21828 0.0
C410 C 0.13056 0.55601 0.28571 0.0
O411 O 0.06866 0.49184 0.36798 0.0
O412 O 0.04615 0.53476 0.32729 0.0
N413 N 0.08472 0.54115 0.99833 0.0
C414 C 0.08946 0.51763 0.94218 0.0
C415 C 0.07316 0.51675 0.8652 0.0
C416 C 0.05347 0.54117 0.84469 0.0
C417 C 0.05119 0.56667 0.90031 0.0
C418 C 0.06769 0.56588 0.97667 0.0
H419 H 0.1066 0.50057 0.95477 0.0
O420 O 0.04271 0.49294 0.1924 0.0
O421 O 0.07085 0.53302 0.16193 0.0
O422 O 0.10884 0.48233 0.21106 0.0
O423 O 0.12577 0.50783 0.10345 0.0
C424 C 0.03369 0.59309 0.88237 0.0
C425 C 0.03338 0.6184 0.94018 0.0
H426 H 0.03867 0.66268 0.06601 0.0
H427 H 0.07067 0.65768 0.19577 0.0
H428 H 0.07635 0.49768 0.82109 0.0
H429 H 0.04105 0.54056 0.78512 0.0
H430 H 0.0205 0.59424 0.82417 0.0
H431 H 0.0198 0.63858 0.9258 0.0
Mn432 Mn 0.26011 0.19376 0.51731 0.0
Mn433 Mn 0.29437 0.16992 0.69397 0.0
C434 C 0.25571 0.2224 0.63986 0.0
C435 C 0.26188 0.22371 0.40136 0.0
C436 C 0.23421 0.14219 0.61968 0.0
O437 O 0.291 0.16185 0.47565 0.0
O438 O 0.31252 0.14783 0.59721 0.0
C439 C 0.35167 0.20411 0.66403 0.0
N440 N 0.3301 0.19568 0.71671 0.0
C441 C 0.35197 0.23076 0.8237 0.0
C442 C 0.37617 0.23737 0.77325 0.0
C443 C 0.37565 0.22449 0.69233 0.0
C444 C 0.32892 0.21 0.79215 0.0
H445 H 0.34971 0.19645 0.59995 0.0
C446 C 0.30998 0.14568 0.51825 0.0
O447 O 0.2425 0.20073 0.40302 0.0
O448 O 0.28131 0.22783 0.46404 0.0
N449 N 0.27982 0.18817 0.7941 0.0
C450 C 0.25311 0.18203 0.83119 0.0
C451 C 0.24824 0.19559 0.90954 0.0
C452 C 0.27103 0.21494 0.94951 0.0
C453 C 0.29864 0.22027 0.91106 0.0
C454 C 0.3024 0.20573 0.83353 0.0
H455 H 0.23556 0.16702 0.8011 0.0
O456 O 0.23587 0.22591 0.57864 0.0
O457 O 0.27712 0.20222 0.62727 0.0
O458 O 0.23254 0.15844 0.55558 0.0
O459 O 0.25649 0.14451 0.67466 0.0
C460 C 0.32238 0.23984 0.94607 0.0
C461 C 0.34893 0.24527 0.90218 0.0
H462 H 0.39439 0.2535 0.7945 0.0
H463 H 0.39318 0.23091 0.65122 0.0
H464 H 0.2269 0.19124 0.93888 0.0
H465 H 0.26702 0.22571 0.00943 0.0
H466 H 0.32008 0.25146 0.00573 0.0
H467 H 0.36647 0.26129 0.92838 0.0
Mn468 Mn 0.58142 0.52384 0.2716 0.0
Mn469 Mn 0.6098 0.48658 0.1049 0.0
C470 C 0.5539 0.52375 0.14543 0.0
C471 C 0.55084 0.52219 0.38583 0.0
C472 C 0.63404 0.54927 0.1732 0.0
O473 O 0.61431 0.496 0.32281 0.0
O474 O 0.62943 0.46995 0.2083 0.0
C475 C 0.58436 0.42392 0.12508 0.0
N476 N 0.58659 0.44932 0.07951 0.0
C477 C 0.55346 0.42591 0.97018 0.0
C478 C 0.55061 0.39963 0.01641 0.0
C479 C 0.56614 0.39864 0.0942 0.0
C480 C 0.57183 0.45046 0.00439 0.0
H481 H 0.59653 0.42291 0.18426 0.0
C482 C 0.63032 0.47524 0.28683 0.0
O483 O 0.57217 0.54324 0.38214 0.0
O484 O 0.5482 0.50168 0.32545 0.0
N485 N 0.59255 0.50005 0.00185 0.0
C486 C 0.59747 0.52718 0.96518 0.0
C487 C 0.58345 0.53189 0.887 0.0
C488 C 0.56478 0.50858 0.84693 0.0
C489 C 0.5605 0.48065 0.8852 0.0
C490 C 0.57515 0.47722 0.96304 0.0
H491 H 0.61178 0.54523 0.99555 0.0
O492 O 0.54877 0.54459 0.20285 0.0
O493 O 0.57517 0.50372 0.16373 0.0
O494 O 0.61563 0.5526 0.23223 0.0
O495 O 0.63408 0.52524 0.12435 0.0
C496 C 0.5421 0.45616 0.84939 0.0
C497 C 0.53859 0.4288 0.89181 0.0
H498 H 0.53657 0.38008 0.99278 0.0
H499 H 0.56417 0.37839 0.13016 0.0
H500 H 0.5869 0.55351 0.85787 0.0
H501 H 0.5538 0.51238 0.78692 0.0
H502 H 0.53036 0.45821 0.78951 0.0
H503 H 0.52419 0.41023 0.8639 0.0
Mn504 Mn 0.25741 0.83796 0.01511 0.0
Mn505 Mn 0.29189 0.86741 0.85683 0.0
C506 C 0.25711 0.80965 0.89061 0.0
C507 C 0.26363 0.80661 0.1278 0.0
C508 C 0.2288 0.88872 0.91365 0.0
O509 O 0.28229 0.87464 0.06827 0.0
O510 O 0.31043 0.88589 0.96191 0.0
C511 C 0.35443 0.84174 0.88742 0.0
N512 N 0.32866 0.84477 0.83678 0.0
C513 C 0.34939 0.811 0.73232 0.0
C514 C 0.37626 0.80767 0.78295 0.0
C515 C 0.37877 0.82311 0.86091 0.0
C516 C 0.32598 0.83002 0.76179 0.0
H517 H 0.35631 0.85326 0.94782 0.0
C518 C 0.30397 0.88969 0.03745 0.0
O519 O 0.2407 0.8259 0.12166 0.0
O520 O 0.28405 0.8079 0.07324 0.0
N521 N 0.2766 0.85102 0.75188 0.0
C522 C 0.24895 0.85643 0.71151 0.0
C523 C 0.24232 0.84213 0.63363 0.0
C524 C 0.26428 0.82272 0.59804 0.0
C525 C 0.29315 0.81844 0.63929 0.0
C526 C 0.29848 0.83352 0.71656 0.0
H527 H 0.23184 0.87109 0.73897 0.0
O528 O 0.23804 0.80287 0.94564 0.0
O529 O 0.27601 0.83241 0.91129 0.0
O530 O 0.22563 0.86893 0.96882 0.0
O531 O 0.25325 0.89079 0.87291 0.0
C532 C 0.31663 0.79941 0.60812 0.0
C533 C 0.34466 0.7957 0.65449 0.0
H534 H 0.39498 0.79311 0.76291 0.0
H535 H 0.39934 0.8205 0.90064 0.0
H536 H 0.22011 0.84554 0.6018 0.0
H537 H 0.25806 0.8109 0.54004 0.0
H538 H 0.3136 0.78724 0.54907 0.0
H539 H 0.36229 0.78073 0.63004 0.0
Mn540 Mn 0.92936 0.52617 0.74758 0.0
Mn541 Mn 0.90059 0.49628 0.91586 0.0
C542 C 0.9578 0.52931 0.87237 0.0
C543 C 0.95868 0.51981 0.63178 0.0
C544 C 0.87874 0.55694 0.8461 0.0
O545 O 0.8944 0.49774 0.69949 0.0
O546 O 0.88089 0.4752 0.81505 0.0
C547 C 0.92646 0.43329 0.89714 0.0
N548 N 0.92347 0.46015 0.943 0.0
C549 C 0.95653 0.44148 0.05317 0.0
C550 C 0.95976 0.41353 0.00739 0.0
C551 C 0.94475 0.40947 0.92892 0.0
C552 C 0.93814 0.46445 0.01811 0.0
H553 H 0.91511 0.43013 0.8366 0.0
C554 C 0.87886 0.47805 0.73694 0.0
O555 O 0.9384 0.54173 0.6374 0.0
O556 O 0.9607 0.50075 0.69063 0.0
N557 N 0.91802 0.51421 0.01788 0.0
C558 C 0.91282 0.54267 0.05378 0.0
C559 C 0.92622 0.55045 0.13258 0.0
C560 C 0.94453 0.52879 0.17403 0.0
C561 C 0.94911 0.49947 0.13647 0.0
C562 C 0.93494 0.49293 0.05818 0.0
H563 H 0.89864 0.55939 0.02256 0.0
O564 O 0.96381 0.54781 0.81485 0.0
O565 O 0.93531 0.50983 0.8549 0.0
O566 O 0.89775 0.5579 0.78877 0.0
O567 O 0.87672 0.53426 0.89329 0.0
C568 C 0.96731 0.47654 0.1735 0.0
C569 C 0.97116 0.44762 0.13172 0.0
H570 H 0.97389 0.39513 0.03161 0.0
H571 H 0.94731 0.38804 0.89297 0.0
H572 H 0.92253 0.57311 0.16119 0.0
H573 H 0.95504 0.53495 0.2345 0.0
H574 H 0.97867 0.48103 0.23377 0.0
H575 H 0.98556 0.43033 0.16038 0.0
C576 C 0.23531 0.29059 0.27012 0.0
C577 C 0.26087 0.29372 0.21993 0.0
C578 C 0.28699 0.25065 0.28825 0.0
C579 C 0.26064 0.2463 0.33491 0.0
N580 N 0.20863 0.26052 0.36714 0.0
N581 N 0.3089 0.27365 0.17129 0.0
C582 C 0.23441 0.26571 0.32454 0.0
C583 C 0.28627 0.27308 0.22677 0.0
N584 N 0.21247 0.3123 0.26814 0.0
N585 N 0.31283 0.23325 0.30267 0.0
H586 H 0.30951 0.28958 0.12541 0.0
H587 H 0.3259 0.25685 0.16624 0.0
H588 H 0.31344 0.21471 0.34136 0.0
H589 H 0.33421 0.2381 0.27964 0.0
H590 H 0.19488 0.31374 0.30924 0.0
H591 H 0.21238 0.33064 0.22894 0.0
H592 H 0.18746 0.27111 0.35518 0.0
H593 H 0.20765 0.2443 0.41221 0.0
C594 C 0.99448 0.98985 0.51433 0.0
C595 C 0.98854 0.01446 0.46112 0.0
C596 C 0.02818 0.04636 0.53896 0.0
C597 C 0.03496 0.02143 0.59029 0.0
N598 N 0.01963 0.97227 0.64004 0.0
N599 N 1.00522 0.06306 0.41013 0.0
C600 C 0.01691 0.99381 0.58122 0.0
C601 C 1.00673 0.04197 0.47024 0.0
N602 N 0.97906 0.96235 0.4998 0.0
N603 N 0.04165 0.07464 0.55698 0.0
H604 H 0.99063 0.06074 0.35732 0.0
H605 H 0.02061 0.08152 0.40819 0.0
H606 H 0.05754 0.07883 0.60637 0.0
H607 H 0.03501 0.09467 0.52799 0.0
H608 H 0.98532 0.942 0.52766 0.0
H609 H 0.96072 0.95935 0.45617 0.0
H610 H 1.00472 0.95349 0.64295 0.0
H611 H 0.03526 0.97428 0.69082 0.0
C612 C 0.23671 0.76212 0.6924 0.0
C613 C 0.2627 0.74225 0.68895 0.0
C614 C 0.28656 0.76899 0.81316 0.0
C615 C 0.26012 0.78824 0.81778 0.0
N616 N 0.20804 0.80022 0.77067 0.0
N617 N 0.31442 0.72945 0.73726 0.0
C618 C 0.23461 0.78387 0.76003 0.0
C619 C 0.28833 0.74666 0.74647 0.0
N620 N 0.21501 0.76172 0.62806 0.0
N621 N 0.30889 0.77039 0.87599 0.0
H622 H 0.31558 0.71088 0.69447 0.0
H623 H 0.33548 0.73438 0.76902 0.0
H624 H 0.30864 0.78625 0.92609 0.0
H625 H 0.32676 0.75456 0.8821 0.0
H626 H 0.19746 0.77793 0.62229 0.0
H627 H 0.21601 0.74698 0.57584 0.0
H628 H 0.18719 0.79517 0.73795 0.0
H629 H 0.20629 0.81805 0.81551 0.0
C630 C 0.52007 0.01096 0.10135 0.0
C631 C 0.4883 0.01741 0.08072 0.0
C632 C 0.50098 0.0255 0.93846 0.0
C633 C 0.53251 0.01823 0.95769 0.0
N634 N 0.57331 0.011 0.06124 0.0
N635 N 0.44782 0.02312 0.97511 0.0
C636 C 0.54234 0.01223 0.03992 0.0
C637 C 0.47867 0.02307 0.99847 0.0
N638 N 0.52922 1.00363 0.17968 0.0
N639 N 0.4919 0.03547 0.86283 0.0
H640 H 0.43039 0.0191 0.01514 0.0
H641 H 0.4395 0.02377 0.91393 0.0
H642 H 0.50368 0.03071 0.80962 0.0
H643 H 0.47263 0.04961 0.85482 0.0
H644 H 0.55012 0.99297 0.19476 0.0
H645 H 0.51587 1.00738 0.23035 0.0
H646 H 0.58247 0.01043 0.12153 0.0
H647 H 0.59045 0.01361 0.01947 0.0
C648 C 0.26906 0.75099 0.17072 0.0
C649 C 0.2658 0.7832 0.19216 0.0
C650 C 0.26662 0.77043 0.33673 0.0
C651 C 0.26284 0.73855 0.31406 0.0
N652 N 0.25762 0.69855 0.20628 0.0
N653 N 0.26156 0.82345 0.29897 0.0
C654 C 0.26351 0.72877 0.23017 0.0
C655 C 0.26432 0.79283 0.27604 0.0
N656 N 0.27838 0.74122 0.09516 0.0
N657 N 0.27543 0.77938 0.41562 0.0
H658 H 0.2631 0.8412 0.25829 0.0
H659 H 0.25654 0.83101 0.3586 0.0
H660 H 0.27739 0.76399 0.46278 0.0
H661 H 0.28478 0.80129 0.43036 0.0
H662 H 0.28519 0.71851 0.08234 0.0
H663 H 0.28184 0.75568 0.04733 0.0
H664 H 0.25446 0.6909 0.14467 0.0
H665 H 0.2531 0.6817 0.24789 0.0
C666 C 0.5054 0.99699 0.45813 0.0
C667 C 0.48512 0.02263 0.45542 0.0
C668 C 0.51132 0.04605 0.58085 0.0
C669 C 0.53198 0.02064 0.58255 0.0
N670 N 0.54351 0.96831 0.53645 0.0
N671 N 0.47082 0.07339 0.50643 0.0
C672 C 0.52753 0.99508 0.52509 0.0
C673 C 0.48867 0.04766 0.51473 0.0
N674 N 0.50482 0.97529 0.39409 0.0
N675 N 0.51204 0.0676 0.64526 0.0
H676 H 0.4526 0.07442 0.46235 0.0
H677 H 0.47482 0.09416 0.54023 0.0
H678 H 0.52828 0.0675 0.69481 0.0
H679 H 0.49526 0.08445 0.65314 0.0
H680 H 0.52177 0.95855 0.38689 0.0
H681 H 0.48875 0.97527 0.34419 0.0
H682 H 0.53823 0.94755 0.50365 0.0
H683 H 0.56052 0.96593 0.58336 0.0
C684 C 0.28398 0.26537 0.7205 0.0
C685 C 0.2578 0.24533 0.71019 0.0
C686 C 0.23579 0.2697 0.83257 0.0
C687 C 0.26207 0.28955 0.84306 0.0
N688 N 0.3134 0.30337 0.80689 0.0
N689 N 0.20662 0.23127 0.74694 0.0
C690 C 0.28689 0.2864 0.79012 0.0
C691 C 0.23298 0.24847 0.76327 0.0
N692 N 0.30493 0.26592 0.6605 0.0
N693 N 0.21454 0.26973 0.89193 0.0
H694 H 0.20457 0.21385 0.70052 0.0
H695 H 0.18612 0.23522 0.77618 0.0
H696 H 0.21597 0.28444 0.94457 0.0
H697 H 0.19672 0.2536 0.89305 0.0
H698 H 0.32253 0.2823 0.65948 0.0
H699 H 0.30331 0.25169 0.60707 0.0
H700 H 0.33386 0.2993 0.77751 0.0
H701 H 0.31567 0.32059 0.85388 0.0
C702 C 0.01627 0.04038 0.97209 0.0
C703 C 0.03865 0.01661 0.965 0.0
C704 C 0.01426 0.98835 0.07234 0.0
C705 C 0.99304 0.01305 0.08291 0.0
N706 N 0.97513 0.06379 0.04874 0.0
N707 N 0.06175 0.97 0.01359 0.0
C708 C 0.99455 0.03948 0.03469 0.0
C709 C 0.03829 0.99103 0.01627 0.0
N710 N 0.01473 0.06302 0.91612 0.0
N711 N 0.01157 0.96238 0.11625 0.0
H712 H 0.07973 0.97146 0.97368 0.0
H713 H 0.06496 0.95249 0.05477 0.0
H714 H 0.99574 0.96024 0.16172 0.0
H715 H 0.02382 0.94214 0.10496 0.0
H716 H 0.99677 0.07882 0.9113 0.0
H717 H 0.03028 0.06482 0.86982 0.0
H718 H 0.9778 0.08538 0.02435 0.0
H719 H 0.95698 0.063 0.08826 0.0
C720 C 0.7569 0.74286 0.75976 0.0
C721 C 0.76353 0.75285 0.84317 0.0
C722 C 0.76945 0.80644 0.8008 0.0
C723 C 0.7623 0.79669 0.7178 0.0
N724 N 0.74829 0.75522 0.61751 0.0
N725 N 0.78849 0.79276 0.93528 0.0
C726 C 0.75574 0.76483 0.69721 0.0
C727 C 0.77356 0.7841 0.86165 0.0
N728 N 0.75545 0.71183 0.73887 0.0
N729 N 0.76998 0.8373 0.82339 0.0
H730 H 0.79246 0.77859 0.9842 0.0
H731 H 0.79976 0.81403 0.94563 0.0
H732 H 0.76552 0.85457 0.78195 0.0
H733 H 0.77118 0.84562 0.88465 0.0
H734 H 0.75381 0.70264 0.67852 0.0
H735 H 0.75949 0.69481 0.7813 0.0
H736 H 0.73514 0.73538 0.60216 0.0
H737 H 0.75449 0.76725 0.56694 0.0
C738 C 0.7861 0.27587 0.31466 0.0
C739 C 0.75767 0.29216 0.31685 0.0
C740 C 0.73733 0.26133 0.19495 0.0
C741 C 0.76579 0.24507 0.193 0.0
N742 N 0.81946 0.24161 0.23875 0.0
N743 N 0.70469 0.29773 0.26722 0.0
C744 C 0.79083 0.25388 0.24904 0.0
C745 C 0.73287 0.2841 0.2592 0.0
N746 N 0.80781 0.27958 0.37863 0.0
N747 N 0.7153 0.25653 0.13214 0.0
H748 H 0.70114 0.3162 0.30894 0.0
H749 H 0.68442 0.28984 0.23577 0.0
H750 H 0.71743 0.24027 0.08362 0.0
H751 H 0.69582 0.27024 0.12398 0.0
H752 H 0.82704 0.26544 0.38592 0.0
H753 H 0.80554 0.29494 0.42902 0.0
H754 H 0.83954 0.25014 0.27001 0.0
H755 H 0.8236 0.22422 0.19453 0.0
C756 C 0.76979 0.2343 0.74109 0.0
C757 C 0.75945 0.24313 0.81981 0.0
C758 C 0.75338 0.29672 0.77527 0.0
C759 C 0.76415 0.28765 0.69692 0.0
N760 N 0.79587 0.25013 0.62377 0.0
N761 N 0.73736 0.28305 0.90828 0.0
C762 C 0.77622 0.25722 0.68473 0.0
C763 C 0.75 0.27434 0.83582 0.0
N764 N 0.77162 0.20367 0.71732 0.0
N765 N 0.75023 0.32754 0.79591 0.0
H766 H 0.74067 0.27153 0.96253 0.0
H767 H 0.72264 0.30195 0.91334 0.0
H768 H 0.75622 0.34492 0.75737 0.0
H769 H 0.74563 0.33622 0.85475 0.0
H770 H 0.77583 0.19606 0.6572 0.0
H771 H 0.76488 0.18598 0.75403 0.0
H772 H 0.80767 0.22919 0.62028 0.0
H773 H 0.80437 0.26576 0.58416 0.0
C774 C 0.78528 0.76162 0.22969 0.0
C775 C 0.75856 0.74236 0.22041 0.0
C776 C 0.73654 0.76991 0.33916 0.0
C777 C 0.76293 0.78965 0.3469 0.0
N778 N 0.81548 0.79958 0.31304 0.0
N779 N 0.70713 0.73019 0.25896 0.0
C780 C 0.78825 0.78394 0.29645 0.0
C781 C 0.73378 0.74706 0.27333 0.0
N782 N 0.80681 0.76038 0.17101 0.0
N783 N 0.71503 0.77169 0.39783 0.0
H784 H 0.70516 0.71165 0.21582 0.0
H785 H 0.68654 0.73532 0.28671 0.0
H786 H 0.71618 0.78788 0.44737 0.0
H787 H 0.69725 0.75568 0.40164 0.0
H788 H 0.82437 0.77672 0.16794 0.0
H789 H 0.80602 0.7445 0.12092 0.0
H790 H 0.83611 0.79344 0.28669 0.0
H791 H 0.81805 0.81741 0.35783 0.0
C792 C 0.51301 0.4922 0.06413 0.0
C793 C 0.53144 0.51951 0.07344 0.0
C794 C 0.50363 0.54042 0.95283 0.0
C795 C 0.48533 0.51298 0.9435 0.0
N796 N 0.47801 0.45984 0.97681 0.0
N797 N 0.54186 0.57138 0.03442 0.0
C798 C 0.49171 0.48799 0.99504 0.0
C799 C 0.52597 0.54414 0.02001 0.0
N800 N 0.5142 0.47114 0.12433 0.0
N801 N 0.50124 0.56198 0.89399 0.0
H802 H 0.56026 0.57406 0.07795 0.0
H803 H 0.536 0.59181 0.00641 0.0
H804 H 0.48571 0.56007 0.84294 0.0
H805 H 0.51624 0.58069 0.89141 0.0
H806 H 0.49864 0.45282 0.12614 0.0
H807 H 0.52877 0.47336 0.17724 0.0
H808 H 0.48425 0.43979 0.00627 0.0
H809 H 0.46241 0.4557 0.92674 0.0
C810 C 1.0033 0.49062 0.44826 0.0
C811 C 0.02714 0.51336 0.44899 0.0
C812 C 1.00635 0.53986 0.57084 0.0
C813 C 0.9813 0.51844 0.56642 0.0
N814 N 0.9537 0.4754 0.498 0.0
N815 N 0.05106 0.56035 0.50717 0.0
C816 C 0.97929 0.49419 0.50462 0.0
C817 C 0.02851 0.53822 0.50923 0.0
N818 N 1.00356 0.46568 0.39345 0.0
N819 N 0.00964 0.561 0.63601 0.0
H820 H 0.06936 0.55834 0.4682 0.0
H821 H 0.05114 0.58125 0.54155 0.0
H822 H 0.99359 0.56348 0.68133 0.0
H823 H 0.02919 0.57482 0.64871 0.0
H824 H 0.98896 0.4466 0.39512 0.0
H825 H 0.01968 0.46299 0.34838 0.0
H826 H 0.94893 0.45921 0.44967 0.0
H827 H 0.93575 0.47754 0.53816 0.0
C828 C 0.01997 0.4935 0.01079 0.0
C829 C 0.02613 0.51811 0.07011 0.0
C830 C 0.98674 0.5499 0.00126 0.0
C831 C 0.98079 0.52538 0.94156 0.0
N832 N 0.99637 0.47666 0.8783 0.0
N833 N 0.01024 0.56653 0.13438 0.0
C834 C 0.99854 0.49786 0.94347 0.0
C835 C 1.00826 0.54558 0.06858 0.0
N836 N 0.03376 0.46543 0.02036 0.0
N837 N 0.97215 0.57757 0.99275 0.0
H838 H 0.02507 0.5641 0.1861 0.0
H839 H 0.99536 0.58514 0.14162 0.0
H840 H 0.95514 0.58104 0.9467 0.0
H841 H 0.97805 0.59764 0.02789 0.0
H842 H 0.02708 0.44539 0.98604 0.0
H843 H 0.05029 0.46133 0.06727 0.0
H844 H 0.01155 0.4583 0.8708 0.0
H845 H 0.98106 0.47863 0.82743 0.0
C846 C 0.48316 0.54338 0.51895 0.0
C847 C 0.48232 0.51722 0.56834 0.0
C848 C 0.52813 0.49584 0.50303 0.0
C849 C 0.52899 0.52195 0.45348 0.0
N850 N 0.50615 0.56921 0.40729 0.0
N851 N 0.50661 0.47116 0.61825 0.0
C852 C 0.5064 0.54558 0.46031 0.0
C853 C 0.50533 0.49397 0.56273 0.0
N854 N 0.46185 0.56631 0.52922 0.0
N855 N 0.54901 0.47255 0.49206 0.0
H856 H 0.49037 0.46868 0.66251 0.0
H857 H 0.52484 0.45576 0.6248 0.0
H858 H 0.56771 0.47423 0.45462 0.0
H859 H 0.54725 0.45096 0.51697 0.0
H860 H 0.46294 0.58778 0.50343 0.0
H861 H 0.44317 0.56432 0.56658 0.0
H862 H 0.48862 0.58542 0.40179 0.0
H863 H 0.52298 0.57199 0.36474 0.0
C864 C 0.14506 0.44659 0.04406 0.0
C865 C 0.14607 0.45786 0.12651 0.0
C866 C 0.18797 0.42091 0.1545 0.0
C867 C 0.19085 0.41517 0.06757 0.0
N868 N 0.17855 0.43734 0.93448 0.0
N869 N 0.17316 0.45872 0.26029 0.0
C870 C 0.17133 0.43235 0.01345 0.0
C871 C 0.16892 0.44593 0.18222 0.0
N872 N 0.11879 0.44833 0.99516 0.0
N873 N 0.20183 0.40238 0.21087 0.0
H874 H 0.16004 0.47716 0.28232 0.0
H875 H 0.19156 0.45274 0.30021 0.0
H876 H 0.21429 0.38274 0.1956 0.0
H877 H 0.19783 0.40464 0.27349 0.0
H878 H 0.11715 0.43878 0.93491 0.0
H879 H 0.09823 0.45629 0.01866 0.0
H880 H 0.1645 0.45065 0.89599 0.0
H881 H 0.20035 0.43278 0.91266 0.0
C882 C 0.80763 0.94882 0.39586 0.0
C883 C 0.81599 0.91743 0.40501 0.0
C884 C 0.87005 0.93107 0.38087 0.0
C885 C 0.86088 0.96166 0.36292 0.0
N886 N 0.81946 0.9977 0.3379 0.0
N887 N 0.85489 0.87782 0.39558 0.0
C888 C 0.8292 0.9699 0.36581 0.0
C889 C 0.84714 0.90833 0.39459 0.0
N890 N 0.77959 0.95904 0.4204 0.0
N891 N 0.90073 0.92397 0.38931 0.0
H892 H 0.83945 0.86067 0.40946 0.0
H893 H 0.87603 0.86929 0.3772 0.0
H894 H 0.91832 0.93953 0.37918 0.0
H895 H 0.90886 0.9034 0.41288 0.0
H896 H 0.7734 0.98227 0.42295 0.0
H897 H 0.76391 0.9448 0.44734 0.0
H898 H 0.79621 1.00355 0.33016 0.0
H899 H 0.83437 0.0137 0.31471 0.0
C900 C 0.34355 0.62617 0.64231 0.0
C901 C 0.31167 0.61777 0.64122 0.0
C902 C 0.32539 0.5708 0.71329 0.0
C903 C 0.35726 0.578 0.70958 0.0
N904 N 0.39707 0.60979 0.65823 0.0
N905 N 0.2738 0.57735 0.65257 0.0
C906 C 0.36645 0.60468 0.66938 0.0
C907 C 0.3031 0.58859 0.66962 0.0
N908 N 0.35201 0.65526 0.62276 0.0
N909 N 0.31619 0.54762 0.76078 0.0
H910 H 0.25724 0.58901 0.61713 0.0
H911 H 0.26712 0.55499 0.66525 0.0
H912 H 0.33171 0.53437 0.79499 0.0
H913 H 0.29313 0.54352 0.77231 0.0
H914 H 0.37448 0.66386 0.63204 0.0
H915 H 0.33629 0.67186 0.60337 0.0
H916 H 0.40499 0.62691 0.62153 0.0
H917 H 0.4145 0.59538 0.68059 0.0
C918 C 0.70746 0.08636 0.93416 0.0
C919 C 0.70132 0.11829 0.94757 0.0
C920 C 0.64973 0.11009 0.88179 0.0
C921 C 0.65839 0.08002 0.8538 0.0
N922 N 0.69699 0.04015 0.84707 0.0
N923 N 0.66737 0.1616 0.92589 0.0
C924 C 0.68777 0.06829 0.87798 0.0
C925 C 0.67268 0.13053 0.91869 0.0
N926 N 0.73095 0.07296 0.97841 0.0
N927 N 0.61937 0.11853 0.87739 0.0
H928 H 0.68361 0.17736 0.953 0.0
H929 H 0.64789 0.17186 0.89876 0.0
H930 H 0.60175 0.10338 0.85493 0.0
H931 H 0.61151 0.13926 0.90368 0.0
H932 H 0.73512 0.04925 0.97545 0.0
H933 H 0.74348 0.08514 0.02589 0.0
H934 H 0.71934 0.03182 0.85704 0.0
H935 H 0.68297 0.02635 0.80607 0.0
C936 C 0.18464 0.57343 0.3319 0.0
C937 C 0.15225 0.57501 0.3406 0.0
C938 C 0.16065 0.60955 0.4626 0.0
C939 C 0.19253 0.61292 0.44564 0.0
N940 N 0.2355 0.59558 0.36684 0.0
N941 N 0.10919 0.6006 0.40229 0.0
C942 C 0.20468 0.59421 0.38058 0.0
C943 C 0.14021 0.59481 0.40235 0.0
N944 N 0.19627 0.55123 0.27971 0.0
N945 N 0.14953 0.61869 0.53692 0.0
H946 H 0.09317 0.59081 0.35841 0.0
H947 H 0.09985 0.61767 0.44079 0.0
H948 H 0.16309 0.62624 0.58834 0.0
H949 H 0.1269 0.61414 0.55194 0.0
H950 H 0.21975 0.54667 0.27628 0.0
H951 H 0.18223 0.53551 0.24419 0.0
H952 H 0.24502 0.58606 0.31403 0.0
H953 H 0.25165 0.60674 0.40795 0.0
C954 C 0.65224 0.95441 0.54783 0.0
C955 C 0.65196 0.9631 0.63219 0.0
C956 C 0.69134 0.92306 0.65601 0.0
C957 C 0.69638 0.92055 0.56947 0.0
N958 N 0.68692 0.94632 0.44023 0.0
N959 N 0.67547 0.95714 0.76875 0.0
C960 C 0.67852 0.94 0.51738 0.0
C961 C 0.67282 0.94794 0.68735 0.0
N962 N 0.62677 0.958 0.49699 0.0
N963 N 0.70212 0.90123 0.70797 0.0
H964 H 0.66232 0.97486 0.79429 0.0
H965 H 0.69261 0.94875 0.80909 0.0
H966 H 0.71272 0.88089 0.68845 0.0
H967 H 0.69674 0.90139 0.76969 0.0
H968 H 0.62581 0.95005 0.43528 0.0
H969 H 0.606 0.96576 0.51964 0.0
H970 H 0.67409 0.96125 0.40336 0.0
H971 H 0.70854 0.9408 0.41868 0.0
C972 C 0.36524 0.43569 0.92595 0.0
C973 C 0.35903 0.45679 0.86352 0.0
C974 C 0.30406 0.44304 0.86106 0.0
C975 C 0.31025 0.42033 0.92057 0.0
N976 N 0.34491 0.40762 0.03584 0.0
N977 N 0.32429 0.4742 0.75604 0.0
C978 C 0.34044 0.41981 0.96023 0.0
C979 C 0.32897 0.45845 0.82625 0.0
N980 N 0.39517 0.43005 0.95055 0.0
N981 N 0.2745 0.4529 0.84538 0.0
H982 H 0.34237 0.48489 0.72805 0.0
H983 H 0.30337 0.47376 0.7213 0.0
H984 H 0.25632 0.44686 0.88105 0.0
H985 H 0.26898 0.47097 0.80729 0.0
H986 H 0.40176 0.41258 0.98957 0.0
H987 H 0.41348 0.44074 0.92392 0.0
H988 H 0.36602 0.40849 0.0696 0.0
H989 H 0.32675 0.40183 0.07172 0.0
C990 C 0.85784 0.13424 0.15984 0.0
C991 C 0.8301 0.12242 0.11974 0.0
C992 C 0.84581 0.0696 0.14967 0.0
C993 C 0.87279 0.08153 0.19359 0.0
N994 N 0.91022 0.12285 0.20902 0.0
N995 N 0.80508 0.07929 0.04619 0.0
C996 C 0.8806 0.11323 0.18927 0.0
C997 C 0.82633 0.09012 0.10541 0.0
N998 N 0.86218 0.16538 0.17159 0.0
N999 N 0.83828 0.039 0.15182 0.0
H1000 H 0.7932 0.09439 0.00786 0.0
H1001 H 0.80244 0.05598 0.02813 0.0
H1002 H 0.85249 0.02301 0.18093 0.0
H1003 H 0.81709 0.0299 0.12872 0.0
H1004 H 0.88009 0.17525 0.20948 0.0
H1005 H 0.84704 0.18124 0.14564 0.0
H1006 H 0.91802 0.14526 0.20114 0.0
H1007 H 0.92776 0.10732 0.22409 0.0
C1008 C 0.80616 0.59943 0.89949 0.0
C1009 C 0.81895 0.62677 0.93941 0.0
C1010 C 0.8705 0.6123 0.8963 0.0
C1011 C 0.85816 0.58378 0.8622 0.0
N1012 N 0.81386 0.55589 0.80309 0.0
N1013 N 0.85985 0.66466 0.94651 0.0
C1014 C 0.82575 0.57909 0.85518 0.0
C1015 C 0.85015 0.6349 0.9289 0.0
N1016 N 0.77556 0.59263 0.90519 0.0
N1017 N 0.90165 0.61746 0.90001 0.0
H1018 H 0.84479 0.68199 0.96571 0.0
H1019 H 0.88165 0.67285 0.93376 0.0
H1020 H 0.91693 0.60281 0.87033 0.0
H1021 H 0.91235 0.63576 0.93454 0.0
H1022 H 0.7657 0.57131 0.88635 0.0
H1023 H 0.76015 0.60805 0.93189 0.0
H1024 H 0.79031 0.55216 0.79017 0.0
H1025 H 0.828 0.54274 0.76521 0.0
C1026 C 0.17709 0.12738 0.62362 0.0
C1027 C 0.20899 0.11947 0.6337 0.0
C1028 C 0.19383 0.07272 0.70119 0.0
C1029 C 0.16251 0.07748 0.67747 0.0
N1030 N 0.124 0.10895 0.61069 0.0
N1031 N 0.24643 0.07962 0.6642 0.0
C1032 C 0.15403 0.1047 0.63679 0.0
C1033 C 0.217 0.09066 0.66735 0.0
N1034 N 0.16858 0.15685 0.60654 0.0
N1035 N 0.20141 0.05215 0.75957 0.0
H1036 H 0.26363 0.09064 0.63364 0.0
H1037 H 0.25249 0.05765 0.68298 0.0
H1038 H 0.18444 0.04119 0.79119 0.0
H1039 H 0.22398 0.04941 0.78366 0.0
H1040 H 0.14578 0.16441 0.60696 0.0
H1041 H 0.18431 0.17471 0.60036 0.0
H1042 H 0.11693 0.12637 0.57197 0.0
H1043 H 0.10652 0.09374 0.62421 0.0
C1044 C 0.6668 0.40412 0.37766 0.0
C1045 C 0.69683 0.41546 0.40386 0.0
C1046 C 0.68118 0.46789 0.36594 0.0
C1047 C 0.65166 0.45619 0.3382 0.0
N1048 N 0.61306 0.41655 0.345 0.0
N1049 N 0.73002 0.45939 0.44125 0.0
C1050 C 0.64344 0.42534 0.35284 0.0
C1051 C 0.70315 0.44781 0.40377 0.0
N1052 N 0.66096 0.37304 0.37082 0.0
N1053 N 0.68848 0.49804 0.35411 0.0
H1054 H 0.74669 0.44544 0.46889 0.0
H1055 H 0.73477 0.48289 0.45113 0.0
H1056 H 0.6722 0.51388 0.33284 0.0
H1057 H 0.71079 0.50714 0.3621 0.0
H1058 H 0.64076 0.36356 0.34228 0.0
H1059 H 0.67709 0.35645 0.38754 0.0
H1060 H 0.6051 0.39517 0.36215 0.0
H1061 H 0.59547 0.43201 0.32983 0.0
C1062 C 0.33956 0.93775 0.22306 0.0
C1063 C 0.36261 0.95526 0.18603 0.0
C1064 C 0.33988 0.93647 0.05256 0.0
C1065 C 0.32296 0.91299 0.09001 0.0
N1066 N 0.3161 0.88731 0.21812 0.0
N1067 N 0.3893 0.96202 0.05985 0.0
C1068 C 0.32542 0.91231 0.17749 0.0
C1069 C 0.36429 0.952 0.09902 0.0
N1070 N 0.32987 0.94583 0.29955 0.0
N1071 N 0.33213 0.94534 0.9748 0.0
H1072 H 0.4098 0.9696 0.09068 0.0
H1073 H 0.39114 0.9583 0.99645 0.0
H1074 H 0.3118 0.93825 0.94214 0.0
H1075 H 0.34351 0.96346 0.94867 0.0
H1076 H 0.312 0.93403 0.32546 0.0
H1077 H 0.3361 0.96667 0.33091 0.0
H1078 H 0.31924 0.8863 0.28198 0.0
H1079 H 0.30986 0.86618 0.18867 0.0
C1080 C 0.85181 0.40768 0.6031 0.0
C1081 C 0.81955 0.41281 0.59482 0.0
C1082 C 0.82572 0.45765 0.69245 0.0
C1083 C 0.85834 0.45582 0.68765 0.0
N1084 N 0.90281 0.42951 0.63503 0.0
N1085 N 0.77526 0.44329 0.63078 0.0
C1086 C 0.8715 0.4311 0.64129 0.0
C1087 C 0.80629 0.43791 0.63957 0.0
N1088 N 0.8633 0.37936 0.5809 0.0
N1089 N 0.81326 0.47747 0.74937 0.0
H1090 H 0.75991 0.42835 0.59712 0.0
H1091 H 0.76497 0.46349 0.65299 0.0
H1092 H 0.82667 0.49173 0.79048 0.0
H1093 H 0.78989 0.47761 0.76148 0.0
H1094 H 0.88634 0.37325 0.59172 0.0
H1095 H 0.84887 0.36076 0.56143 0.0
H1096 H 0.9132 0.41389 0.59453 0.0
H1097 H 0.91828 0.44507 0.66617 0.0
C1098 C 0.31356 0.09777 0.42321 0.0
C1099 C 0.32864 0.12162 0.47419 0.0
C1100 C 0.37846 0.10502 0.42316 0.0
C1101 C 0.36431 0.07855 0.38254 0.0
N1102 N 0.31819 0.04914 0.34328 0.0
N1103 N 0.37703 0.13964 0.54215 0.0
C1104 C 0.33169 0.07487 0.38205 0.0
C1105 C 0.3615 0.12302 0.47966 0.0
N1106 N 0.28198 0.09641 0.41612 0.0
N1107 N 0.40817 0.1131 0.40919 0.0
H1108 H 0.36618 0.14924 0.5923 0.0
H1109 H 0.40102 0.13929 0.55158 0.0
H1110 H 0.42147 0.10144 0.36653 0.0
H1111 H 0.41827 0.13381 0.4327 0.0
H1112 H 0.26963 0.08217 0.37261 0.0
H1113 H 0.26788 0.11028 0.45223 0.0
H1114 H 0.29522 0.04278 0.34885 0.0
H1115 H 0.3305 0.03341 0.30724 0.0
C1116 C 0.64797 0.60517 0.14712 0.0
C1117 C 0.65722 0.57408 0.15899 0.0
C1118 C 0.70935 0.58723 0.11757 0.0
C1119 C 0.7012 0.61896 0.11471 0.0
N1120 N 0.66343 0.65879 0.13942 0.0
N1121 N 0.6989 0.53739 0.17138 0.0
C1122 C 0.67065 0.62812 0.13261 0.0
C1123 C 0.68853 0.56568 0.14854 0.0
N1124 N 0.61737 0.61273 0.14618 0.0
N1125 N 0.73678 0.57731 0.08819 0.0
H1126 H 0.68476 0.52093 0.19544 0.0
H1127 H 0.72219 0.53142 0.17438 0.0
H1128 H 0.75271 0.59211 0.0644 0.0
H1129 H 0.74236 0.55403 0.07969 0.0
H1130 H 0.60891 0.63389 0.12735 0.0
H1131 H 0.60003 0.59709 0.15783 0.0
H1132 H 0.64294 0.66693 0.16305 0.0
H1133 H 0.67873 0.67636 0.12724 0.0
C1134 C 0.21254 0.94159 0.87437 0.0
C1135 C 0.20359 0.91134 0.89399 0.0
C1136 C 0.14971 0.92485 0.85465 0.0
C1137 C 0.16023 0.95237 0.8208 0.0
N1138 N 0.20371 0.98134 0.77768 0.0
N1139 N 0.16276 0.87257 0.88961 0.0
C1140 C 0.19223 0.95923 0.82479 0.0
C1141 C 0.1718 0.9025 0.8817 0.0
N1142 N 0.2403 0.95375 0.90395 0.0
N1143 N 0.11874 0.91967 0.85927 0.0
H1144 H 0.17786 0.85501 0.90587 0.0
H1145 H 0.14054 0.86451 0.87247 0.0
H1146 H 0.10206 0.93504 0.83752 0.0
H1147 H 0.10984 0.90147 0.89064 0.0
H1148 H 0.24678 0.97655 0.89516 0.0
H1149 H 0.25482 0.94235 0.94565 0.0
H1150 H 0.22736 0.98539 0.77433 0.0
H1151 H 0.18988 0.99262 0.73435 0.0
loop_
_geom_bond_atom_site_label_1
_geom_bond_atom_site_label_2
_geom_bond_distance
_geom_bond_site_symmetry_2
_ccdc_geom_bond_type
Mn0 O5 2.095 . S
Mn0 O15 2.162 . S
Mn0 O16 2.297 . S
Mn0 O24 2.385 1_554 S
Mn0 O25 2.209 1_554 S
Mn0 O26 2.094 . S
Mn1 O6 2.121 . S
Mn1 N8 2.257 . S
Mn1 N17 2.282 . S
Mn1 O25 2.215 . S
Mn1 O27 2.117 . S
C2 O24 1.234 . S
C2 O25 1.283 . S
C3 O15 1.281 . S
C3 O16 1.236 . S
C4 O26 1.240 1_556 S
C4 O27 1.264 . S
O5 Mn0 2.095 . S
O5 C14 1.250 . S
O6 Mn1 2.121 . S
O6 C14 1.258 1_556 S
C7 N8 1.326 . S
C7 C11 1.460 . S
C7 H13 0.929 . S
N8 Mn1 2.257 . S
N8 C7 1.326 . S
N8 C12 1.362 . S
C9 C10 1.258 . S
C9 C12 1.431 . S
C9 C29 1.449 . S
C10 C9 1.258 . S
C10 C11 1.477 . S
C10 H30 0.931 . S
C11 C7 1.460 . S
C11 C10 1.477 . S
C11 H31 0.930 . S
C12 N8 1.362 . S
C12 C9 1.431 . S
C12 C22 1.476 . S
H13 C7 0.929 . S
C14 O5 1.250 . S
C14 O6 1.258 1_554 S
O15 Mn0 2.162 . S
O15 C3 1.281 . S
O16 Mn0 2.297 . S
O16 C3 1.236 . S
N17 Mn1 2.282 . S
N17 C18 1.328 . S
N17 C22 1.318 . S
C18 N17 1.328 . S
C18 C19 1.457 . S
C18 H23 0.929 . S
C19 C18 1.457 . S
C19 C20 1.291 . S
C19 H32 0.931 . S
C20 C19 1.291 . S
C20 C21 1.373 . S
C20 H33 0.929 . S
C21 C20 1.373 . S
C21 C22 1.396 . S
C21 C28 1.403 . S
C22 C12 1.476 . S
C22 N17 1.318 . S
C22 C21 1.396 . S
H23 C18 0.929 . S
O24 Mn0 2.385 1_556 S
O24 C2 1.234 . S
O25 Mn0 2.209 1_556 S
O25 Mn1 2.215 . S
O25 C2 1.283 . S
O26 Mn0 2.094 . S
O26 C4 1.240 1_554 S
O27 Mn1 2.117 . S
O27 C4 1.264 . S
C28 C21 1.403 . S
C28 C29 1.399 . S
C28 H34 0.929 . S
C29 C9 1.449 . S
C29 C28 1.399 . S
C29 H35 0.930 . S
H30 C10 0.931 . S
H31 C11 0.930 . S
H32 C19 0.931 . S
H33 C20 0.929 . S
H34 C28 0.929 . S
H35 C29 0.930 . S
Mn36 O41 2.104 . S
Mn36 O51 2.157 1_545 S
Mn36 O52 2.305 . S
Mn36 O60 2.381 1_545 S
Mn36 O61 2.216 . S
Mn36 O62 2.083 1_545 S
Mn37 O42 2.121 . S
Mn37 N44 2.257 . S
Mn37 N53 2.282 . S
Mn37 O61 2.215 . S
Mn37 O63 2.117 1_545 S
C38 O60 1.234 1_545 S
C38 O61 1.283 . S
C39 O51 1.281 1_545 S
C39 O52 1.236 . S
C40 O62 1.240 . S
C40 O63 1.264 . S
O41 Mn36 2.104 . S
O41 C50 1.250 . S
O42 Mn37 2.121 . S
O42 C50 1.258 . S
C43 N44 1.326 . S
C43 C47 1.460 . S
C43 H49 0.929 . S
N44 Mn37 2.257 . S
N44 C43 1.326 . S
N44 C48 1.362 . S
C45 C46 1.258 . S
C45 C48 1.431 . S
C45 C65 1.449 . S
C46 C45 1.258 . S
C46 C47 1.477 . S
C46 H66 0.931 . S
C47 C43 1.460 . S
C47 C46 1.477 . S
C47 H67 0.930 . S
C48 N44 1.362 . S
C48 C45 1.431 . S
C48 C58 1.476 . S
H49 C43 0.929 . S
C50 O41 1.250 . S
C50 O42 1.258 . S
O51 Mn36 2.157 1_565 S
O51 C39 1.281 1_565 S
O52 Mn36 2.305 . S
O52 C39 1.236 . S
N53 Mn37 2.282 . S
N53 C54 1.328 1_545 S
N53 C58 1.318 . S
C54 N53 1.328 1_565 S
C54 C55 1.457 . S
C54 H59 0.929 . S
C55 C54 1.457 . S
C55 C56 1.291 . S
C55 H68 0.931 . S
C56 C55 1.291 . S
C56 C57 1.373 1_565 S
C56 H69 0.929 . S
C57 C56 1.373 1_545 S
C57 C58 1.396 . S
C57 C64 1.403 . S
C58 C48 1.476 . S
C58 N53 1.318 . S
C58 C57 1.396 . S
H59 C54 0.929 . S
O60 Mn36 2.381 1_565 S
O60 C38 1.234 1_565 S
O61 Mn36 2.216 . S
O61 Mn37 2.215 . S
O61 C38 1.283 . S
O62 Mn36 2.083 1_565 S
O62 C40 1.240 . S
O63 Mn37 2.117 1_565 S
O63 C40 1.264 . S
C64 C57 1.403 . S
C64 C65 1.399 . S
C64 H70 0.929 . S
C65 C45 1.449 . S
C65 C64 1.399 . S
C65 H71 0.930 . S
H66 C46 0.931 . S
H67 C47 0.930 . S
H68 C55 0.931 . S
H69 C56 0.929 . S
H70 C64 0.929 . S
H71 C65 0.930 . S
Mn72 O77 2.095 . S
Mn72 O87 2.162 . S
Mn72 O88 2.297 . S
Mn72 O96 2.385 . S
Mn72 O97 2.209 . S
Mn72 O98 2.094 . S
Mn73 O78 2.121 . S
Mn73 N80 2.257 . S
Mn73 N89 2.282 . S
Mn73 O97 2.215 . S
Mn73 O99 2.117 . S
C74 O96 1.234 . S
C74 O97 1.283 . S
C75 O87 1.281 . S
C75 O88 1.236 . S
C76 O98 1.240 . S
C76 O99 1.264 . S
O77 Mn72 2.095 . S
O77 C86 1.250 . S
O78 Mn73 2.121 . S
O78 C86 1.258 . S
C79 N80 1.326 . S
C79 C83 1.460 . S
C79 H85 0.929 . S
N80 Mn73 2.257 . S
N80 C79 1.326 . S
N80 C84 1.362 . S
C81 C82 1.258 . S
C81 C84 1.431 . S
C81 C101 1.449 . S
C82 C81 1.258 . S
C82 C83 1.477 . S
C82 H102 0.931 . S
C83 C79 1.460 . S
C83 C82 1.477 . S
C83 H103 0.930 . S
C84 N80 1.362 . S
C84 C81 1.431 . S
C84 C94 1.476 . S
H85 C79 0.929 . S
C86 O77 1.250 . S
C86 O78 1.258 . S
O87 Mn72 2.162 . S
O87 C75 1.281 . S
O88 Mn72 2.297 . S
O88 C75 1.236 . S
N89 Mn73 2.282 . S
N89 C90 1.328 . S
N89 C94 1.318 . S
C90 N89 1.328 . S
C90 C91 1.457 . S
C90 H95 0.929 . S
C91 C90 1.457 . S
C91 C92 1.291 . S
C91 H104 0.931 . S
C92 C91 1.291 . S
C92 C93 1.373 . S
C92 H105 0.929 . S
C93 C92 1.373 . S
C93 C94 1.396 . S
C93 C100 1.403 . S
C94 C84 1.476 . S
C94 N89 1.318 . S
C94 C93 1.396 . S
H95 C90 0.929 . S
O96 Mn72 2.385 . S
O96 C74 1.234 . S
O97 Mn72 2.209 . S
O97 Mn73 2.215 . S
O97 C74 1.283 . S
O98 Mn72 2.094 . S
O98 C76 1.240 . S
O99 Mn73 2.117 . S
O99 C76 1.264 . S
C100 C93 1.403 . S
C100 C101 1.399 . S
C100 H106 0.929 1_556 S
C101 C81 1.449 . S
C101 C100 1.399 . S
C101 H107 0.930 . S
H102 C82 0.931 . S
H103 C83 0.930 . S
H104 C91 0.931 . S
H105 C92 0.929 . S
H106 C100 0.929 1_554 S
H107 C101 0.930 . S
Mn108 O113 2.107 . S
Mn108 O123 2.153 1_545 S
Mn108 O124 2.307 . S
Mn108 O132 2.380 1_545 S
Mn108 O133 2.221 . S
Mn108 O134 2.078 1_545 S
Mn109 O114 2.121 . S
Mn109 N116 2.257 . S
Mn109 N125 2.282 . S
Mn109 O133 2.215 . S
Mn109 O135 2.117 1_545 S
C110 O132 1.234 1_545 S
C110 O133 1.283 . S
C111 O123 1.281 1_545 S
C111 O124 1.236 . S
C112 O134 1.240 . S
C112 O135 1.264 . S
O113 Mn108 2.107 . S
O113 C122 1.250 . S
O114 Mn109 2.121 . S
O114 C122 1.258 . S
C115 N116 1.326 . S
C115 C119 1.460 . S
C115 H121 0.929 . S
N116 Mn109 2.257 . S
N116 C115 1.326 . S
N116 C120 1.362 . S
C117 C118 1.258 . S
C117 C120 1.431 . S
C117 C137 1.449 . S
C118 C117 1.258 . S
C118 C119 1.477 . S
C118 H138 0.931 . S
C119 C115 1.460 . S
C119 C118 1.477 . S
C119 H139 0.930 . S
C120 N116 1.362 . S
C120 C117 1.431 . S
C120 C130 1.476 . S
H121 C115 0.929 . S
C122 O113 1.250 . S
C122 O114 1.258 . S
O123 Mn108 2.153 1_565 S
O123 C111 1.281 1_565 S
O124 Mn108 2.307 . S
O124 C111 1.236 . S
N125 Mn109 2.282 . S
N125 C126 1.328 1_545 S
N125 C130 1.318 . S
C126 N125 1.328 1_565 S
C126 C127 1.457 . S
C126 H131 0.929 . S
C127 C126 1.457 . S
C127 C128 1.291 . S
C127 H140 0.931 . S
C128 C127 1.291 . S
C128 C129 1.373 1_565 S
C128 H141 0.929 . S
C129 C128 1.373 1_545 S
C129 C130 1.396 . S
C129 C136 1.403 . S
C130 C120 1.476 . S
C130 N125 1.318 . S
C130 C129 1.396 . S
H131 C126 0.929 . S
O132 Mn108 2.380 1_565 S
O132 C110 1.234 1_565 S
O133 Mn108 2.221 . S
O133 Mn109 2.215 . S
O133 C110 1.283 . S
O134 Mn108 2.078 1_565 S
O134 C112 1.240 . S
O135 Mn109 2.117 1_565 S
O135 C112 1.264 . S
C136 C129 1.403 . S
C136 C137 1.399 . S
C136 H142 0.929 . S
C137 C117 1.449 . S
C137 C136 1.399 . S
C137 H143 0.930 . S
H138 C118 0.931 . S
H139 C119 0.930 . S
H140 C127 0.931 . S
H141 C128 0.929 . S
H142 C136 0.929 . S
H143 C137 0.930 . S
Mn144 O149 2.095 1_554 S
Mn144 O159 2.162 1_554 S
Mn144 O160 2.297 1_554 S
Mn144 O168 2.385 . S
Mn144 O169 2.209 . S
Mn144 O170 2.094 . S
Mn145 O150 2.121 . S
Mn145 N152 2.257 . S
Mn145 N161 2.282 . S
Mn145 O169 2.215 . S
Mn145 O171 2.117 . S
C146 O168 1.234 . S
C146 O169 1.283 . S
C147 O159 1.281 . S
C147 O160 1.236 . S
C148 O170 1.240 . S
C148 O171 1.264 . S
O149 Mn144 2.095 1_556 S
O149 C158 1.253 . S
O150 Mn145 2.121 . S
O150 C158 1.249 1_554 S
C151 N152 1.326 . S
C151 C155 1.460 . S
C151 H157 0.929 . S
N152 Mn145 2.257 . S
N152 C151 1.326 . S
N152 C156 1.362 . S
C153 C154 1.258 . S
C153 C156 1.431 . S
C153 C173 1.449 . S
C154 C153 1.258 . S
C154 C155 1.477 . S
C154 H174 0.931 . S
C155 C151 1.460 . S
C155 C154 1.477 . S
C155 H175 0.930 . S
C156 N152 1.362 . S
C156 C153 1.431 . S
C156 C166 1.476 . S
H157 C151 0.929 . S
C158 O149 1.253 . S
C158 O150 1.249 1_556 S
O159 Mn144 2.162 1_556 S
O159 C147 1.281 . S
O160 Mn144 2.297 1_556 S
O160 C147 1.236 . S
N161 Mn145 2.282 . S
N161 C162 1.328 . S
N161 C166 1.318 . S
C162 N161 1.328 . S
C162 C163 1.457 . S
C162 H167 0.929 . S
C163 C162 1.457 . S
C163 C164 1.291 . S
C163 H176 0.931 . S
C164 C163 1.291 . S
C164 C165 1.373 . S
C164 H177 0.929 . S
C165 C164 1.373 . S
C165 C166 1.396 . S
C165 C172 1.403 . S
C166 C156 1.476 . S
C166 N161 1.318 . S
C166 C165 1.396 . S
H167 C162 0.929 . S
O168 Mn144 2.385 . S
O168 C146 1.234 . S
O169 Mn144 2.209 . S
O169 Mn145 2.215 . S
O169 C146 1.283 . S
O170 Mn144 2.094 . S
O170 C148 1.240 . S
O171 Mn145 2.117 . S
O171 C148 1.264 . S
C172 C165 1.403 . S
C172 C173 1.399 . S
C172 H178 0.929 . S
C173 C153 1.449 . S
C173 C172 1.399 . S
C173 H179 0.930 . S
H174 C154 0.931 . S
H175 C155 0.930 . S
H176 C163 0.931 . S
H177 C164 0.929 . S
H178 C172 0.929 . S
H179 C173 0.930 . S
Mn180 O185 2.095 1_545 S
Mn180 O195 2.162 . S
Mn180 O196 2.297 1_545 S
Mn180 O204 2.385 . S
Mn180 O205 2.209 1_545 S
Mn180 O206 2.094 . S
Mn181 O186 2.121 . S
Mn181 N188 2.257 . S
Mn181 N197 2.282 1_565 S
Mn181 O205 2.215 . S
Mn181 O207 2.117 1_565 S
C182 O204 1.234 . S
C182 O205 1.283 1_545 S
C183 O195 1.281 . S
C183 O196 1.236 1_545 S
C184 O206 1.240 . S
C184 O207 1.264 . S
O185 Mn180 2.095 1_565 S
O185 C194 1.250 . S
O186 Mn181 2.121 . S
O186 C194 1.258 . S
C187 N188 1.326 . S
C187 C191 1.460 . S
C187 H193 0.929 . S
N188 Mn181 2.257 . S
N188 C187 1.326 . S
N188 C192 1.362 . S
C189 C190 1.258 . S
C189 C192 1.431 . S
C189 C209 1.449 . S
C190 C189 1.258 . S
C190 C191 1.477 . S
C190 H210 0.931 . S
C191 C187 1.460 . S
C191 C190 1.477 . S
C191 H211 0.930 . S
C192 N188 1.362 . S
C192 C189 1.431 . S
C192 C202 1.476 . S
H193 C187 0.929 . S
C194 O185 1.250 . S
C194 O186 1.258 . S
O195 Mn180 2.162 . S
O195 C183 1.281 . S
O196 Mn180 2.297 1_565 S
O196 C183 1.236 1_565 S
N197 Mn181 2.282 1_545 S
N197 C198 1.328 . S
N197 C202 1.318 1_545 S
C198 N197 1.328 . S
C198 C199 1.457 . S
C198 H203 0.929 . S
C199 C198 1.457 . S
C199 C200 1.291 . S
C199 H212 0.931 . S
C200 C199 1.291 . S
C200 C201 1.373 1_545 S
C200 H213 0.929 . S
C201 C200 1.373 1_565 S
C201 C202 1.396 . S
C201 C208 1.403 . S
C202 C192 1.476 . S
C202 N197 1.318 1_565 S
C202 C201 1.396 . S
H203 C198 0.929 . S
O204 Mn180 2.385 . S
O204 C182 1.234 . S
O205 Mn180 2.209 1_565 S
O205 Mn181 2.215 . S
O205 C182 1.283 1_565 S
O206 Mn180 2.094 . S
O206 C184 1.240 . S
O207 Mn181 2.117 1_545 S
O207 C184 1.264 . S
C208 C201 1.403 . S
C208 C209 1.399 . S
C208 H214 0.929 . S
C209 C189 1.449 . S
C209 C208 1.399 . S
C209 H215 0.930 . S
H210 C190 0.931 . S
H211 C191 0.930 . S
H212 C199 0.931 . S
H213 C200 0.929 . S
H214 C208 0.929 . S
H215 C209 0.930 . S
Mn216 O221 2.095 . S
Mn216 O231 2.162 . S
Mn216 O232 2.297 . S
Mn216 O240 2.385 . S
Mn216 O241 2.209 . S
Mn216 O242 2.094 . S
Mn217 O222 2.121 . S
Mn217 N224 2.257 . S
Mn217 N233 2.282 . S
Mn217 O241 2.215 . S
Mn217 O243 2.117 . S
C218 O240 1.234 . S
C218 O241 1.283 . S
C219 O231 1.281 . S
C219 O232 1.236 . S
C220 O242 1.240 . S
C220 O243 1.264 . S
O221 Mn216 2.095 . S
O221 C230 1.250 . S
O222 Mn217 2.121 . S
O222 C230 1.258 . S
C223 N224 1.326 . S
C223 C227 1.460 . S
C223 H229 0.929 . S
N224 Mn217 2.257 . S
N224 C223 1.326 . S
N224 C228 1.362 . S
C225 C226 1.258 . S
C225 C228 1.431 . S
C225 C245 1.449 . S
C226 C225 1.258 . S
C226 C227 1.477 . S
C226 H246 0.931 . S
C227 C223 1.460 . S
C227 C226 1.477 . S
C227 H247 0.930 . S
C228 N224 1.362 . S
C228 C225 1.431 . S
C228 C238 1.476 . S
H229 C223 0.929 . S
C230 O221 1.250 . S
C230 O222 1.258 . S
O231 Mn216 2.162 . S
O231 C219 1.281 . S
O232 Mn216 2.297 . S
O232 C219 1.236 . S
N233 Mn217 2.282 . S
N233 C234 1.328 . S
N233 C238 1.318 . S
C234 N233 1.328 . S
C234 C235 1.457 . S
C234 H239 0.929 . S
C235 C234 1.457 . S
C235 C236 1.291 . S
C235 H248 0.931 . S
C236 C235 1.291 . S
C236 C237 1.373 . S
C236 H249 0.929 . S
C237 C236 1.373 . S
C237 C238 1.396 . S
C237 C244 1.403 . S
C238 C228 1.476 . S
C238 N233 1.318 . S
C238 C237 1.396 . S
H239 C234 0.929 . S
O240 Mn216 2.385 . S
O240 C218 1.234 . S
O241 Mn216 2.209 . S
O241 Mn217 2.215 . S
O241 C218 1.283 . S
O242 Mn216 2.094 . S
O242 C220 1.240 . S
O243 Mn217 2.117 . S
O243 C220 1.264 . S
C244 C237 1.403 . S
C244 C245 1.399 . S
C244 H250 0.929 . S
C245 C225 1.449 . S
C245 C244 1.399 . S
C245 H251 0.930 . S
H246 C226 0.931 . S
H247 C227 0.930 . S
H248 C235 0.931 . S
H249 C236 0.929 . S
H250 C244 0.929 . S
H251 C245 0.930 . S
Mn252 O257 2.095 1_545 S
Mn252 O267 2.162 . S
Mn252 O268 2.297 1_545 S
Mn252 O276 2.385 . S
Mn252 O277 2.209 1_545 S
Mn252 O278 2.094 . S
Mn253 O258 2.121 . S
Mn253 N260 2.257 . S
Mn253 N269 2.282 1_565 S
Mn253 O277 2.215 . S
Mn253 O279 2.117 1_565 S
C254 O276 1.234 . S
C254 O277 1.283 1_545 S
C255 O267 1.281 . S
C255 O268 1.236 1_545 S
C256 O278 1.240 . S
C256 O279 1.264 . S
O257 Mn252 2.095 1_565 S
O257 C266 1.250 . S
O258 Mn253 2.121 . S
O258 C266 1.258 . S
C259 N260 1.326 . S
C259 C263 1.460 . S
C259 H265 0.929 . S
N260 Mn253 2.257 . S
N260 C259 1.326 . S
N260 C264 1.362 . S
C261 C262 1.258 . S
C261 C264 1.431 . S
C261 C281 1.449 . S
C262 C261 1.258 . S
C262 C263 1.477 . S
C262 H282 0.931 . S
C263 C259 1.460 . S
C263 C262 1.477 . S
C263 H283 0.930 . S
C264 N260 1.362 . S
C264 C261 1.431 . S
C264 C274 1.476 . S
H265 C259 0.929 . S
C266 O257 1.250 . S
C266 O258 1.258 . S
O267 Mn252 2.162 . S
O267 C255 1.281 . S
O268 Mn252 2.297 1_565 S
O268 C255 1.236 1_565 S
N269 Mn253 2.282 1_545 S
N269 C270 1.328 . S
N269 C274 1.318 1_545 S
C270 N269 1.328 . S
C270 C271 1.457 . S
C270 H275 0.929 . S
C271 C270 1.457 . S
C271 C272 1.291 . S
C271 H284 0.931 . S
C272 C271 1.291 . S
C272 C273 1.373 1_545 S
C272 H285 0.929 . S
C273 C272 1.373 1_565 S
C273 C274 1.396 . S
C273 C280 1.403 . S
C274 C264 1.476 . S
C274 N269 1.318 1_565 S
C274 C273 1.396 . S
H275 C270 0.929 . S
O276 Mn252 2.385 . S
O276 C254 1.234 . S
O277 Mn252 2.209 1_565 S
O277 Mn253 2.215 . S
O277 C254 1.283 1_565 S
O278 Mn252 2.094 . S
O278 C256 1.240 . S
O279 Mn253 2.117 1_545 S
O279 C256 1.264 . S
C280 C273 1.403 . S
C280 C281 1.399 . S
C280 H286 0.929 . S
C281 C261 1.449 . S
C281 C280 1.399 . S
C281 H287 0.930 . S
H282 C262 0.931 . S
H283 C263 0.930 . S
H284 C271 0.931 . S
H285 C272 0.929 . S
H286 C280 0.929 . S
H287 C281 0.930 . S
Mn288 O293 2.095 . S
Mn288 O303 2.162 . S
Mn288 O304 2.297 . S
Mn288 O312 2.385 . S
Mn288 O313 2.209 . S
Mn288 O314 2.094 . S
Mn289 O294 2.121 . S
Mn289 N296 2.257 . S
Mn289 N305 2.282 . S
Mn289 O313 2.215 . S
Mn289 O315 2.117 . S
C290 O312 1.234 . S
C290 O313 1.283 . S
C291 O303 1.281 . S
C291 O304 1.236 . S
C292 O314 1.240 . S
C292 O315 1.264 . S
O293 Mn288 2.095 . S
O293 C302 1.250 . S
O294 Mn289 2.121 . S
O294 C302 1.258 . S
C295 N296 1.326 . S
C295 C299 1.460 . S
C295 H301 0.929 . S
N296 Mn289 2.257 . S
N296 C295 1.326 . S
N296 C300 1.362 . S
C297 C298 1.258 . S
C297 C300 1.431 . S
C297 C317 1.449 . S
C298 C297 1.258 . S
C298 C299 1.477 . S
C298 H318 0.931 . S
C299 C295 1.460 . S
C299 C298 1.477 . S
C299 H319 0.930 . S
C300 N296 1.362 . S
C300 C297 1.431 . S
C300 C310 1.476 . S
H301 C295 0.929 . S
C302 O293 1.250 . S
C302 O294 1.258 . S
O303 Mn288 2.162 . S
O303 C291 1.281 . S
O304 Mn288 2.297 . S
O304 C291 1.236 . S
N305 Mn289 2.282 . S
N305 C306 1.328 . S
N305 C310 1.318 . S
C306 N305 1.328 . S
C306 C307 1.457 . S
C306 H311 0.929 . S
C307 C306 1.457 . S
C307 C308 1.291 . S
C307 H320 0.931 . S
C308 C307 1.291 . S
C308 C309 1.373 . S
C308 H321 0.929 . S
C309 C308 1.373 . S
C309 C310 1.396 . S
C309 C316 1.403 . S
C310 C300 1.476 . S
C310 N305 1.318 . S
C310 C309 1.396 . S
H311 C306 0.929 . S
O312 Mn288 2.385 . S
O312 C290 1.234 . S
O313 Mn288 2.209 . S
O313 Mn289 2.215 . S
O313 C290 1.283 . S
O314 Mn288 2.094 . S
O314 C292 1.240 . S
O315 Mn289 2.117 . S
O315 C292 1.264 . S
C316 C309 1.403 . S
C316 C317 1.399 . S
C316 H322 0.929 1_554 S
C317 C297 1.449 . S
C317 C316 1.399 . S
C317 H323 0.930 . S
H318 C298 0.931 . S
H319 C299 0.930 . S
H320 C307 0.931 . S
H321 C308 0.929 . S
H322 C316 0.929 1_556 S
H323 C317 0.930 . S
Mn324 O329 2.095 . S
Mn324 O339 2.162 . S
Mn324 O340 2.297 . S
Mn324 O348 2.385 . S
Mn324 O349 2.209 . S
Mn324 O350 2.094 . S
Mn325 O330 2.121 . S
Mn325 N332 2.257 1_556 S
Mn325 N341 2.282 1_556 S
Mn325 O349 2.215 . S
Mn325 O351 2.117 . S
C326 O348 1.234 . S
C326 O349 1.283 . S
C327 O339 1.281 . S
C327 O340 1.236 . S
C328 O350 1.240 . S
C328 O351 1.264 . S
O329 Mn324 2.095 . S
O329 C338 1.250 . S
O330 Mn325 2.121 . S
O330 C338 1.258 . S
C331 N332 1.326 1_556 S
C331 C335 1.460 1_556 S
C331 H337 0.929 . S
N332 Mn325 2.257 1_554 S
N332 C331 1.326 1_554 S
N332 C336 1.362 . S
C333 C334 1.258 . S
C333 C336 1.431 . S
C333 C353 1.449 . S
C334 C333 1.258 . S
C334 C335 1.477 . S
C334 H354 0.931 . S
C335 C331 1.460 1_554 S
C335 C334 1.477 . S
C335 H355 0.930 . S
C336 N332 1.362 . S
C336 C333 1.431 . S
C336 C346 1.476 . S
H337 C331 0.929 . S
C338 O329 1.250 . S
C338 O330 1.258 . S
O339 Mn324 2.162 . S
O339 C327 1.281 . S
O340 Mn324 2.297 . S
O340 C327 1.236 . S
N341 Mn325 2.282 1_554 S
N341 C342 1.328 . S
N341 C346 1.318 . S
C342 N341 1.328 . S
C342 C343 1.457 . S
C342 H347 0.929 . S
C343 C342 1.457 . S
C343 C344 1.291 . S
C343 H356 0.931 . S
C344 C343 1.291 . S
C344 C345 1.373 . S
C344 H357 0.929 . S
C345 C344 1.373 . S
C345 C346 1.396 . S
C345 C352 1.403 . S
C346 C336 1.476 . S
C346 N341 1.318 . S
C346 C345 1.396 . S
H347 C342 0.929 . S
O348 Mn324 2.385 . S
O348 C326 1.234 . S
O349 Mn324 2.209 . S
O349 Mn325 2.215 . S
O349 C326 1.283 . S
O350 Mn324 2.094 . S
O350 C328 1.240 . S
O351 Mn325 2.117 . S
O351 C328 1.264 . S
C352 C345 1.403 . S
C352 C353 1.399 . S
C352 H358 0.929 . S
C353 C333 1.449 . S
C353 C352 1.399 . S
C353 H359 0.930 . S
H354 C334 0.931 . S
H355 C335 0.930 . S
H356 C343 0.931 . S
H357 C344 0.929 . S
H358 C352 0.929 . S
H359 C353 0.930 . S
Mn360 O365 2.095 1_554 S
Mn360 O375 2.162 1_554 S
Mn360 O376 2.297 1_554 S
Mn360 O384 2.385 . S
Mn360 O385 2.209 . S
Mn360 O386 2.094 . S
Mn361 O366 2.121 . S
Mn361 N368 2.257 . S
Mn361 N377 2.282 . S
Mn361 O385 2.215 . S
Mn361 O387 2.117 . S
C362 O384 1.234 . S
C362 O385 1.283 . S
C363 O375 1.281 . S
C363 O376 1.236 . S
C364 O386 1.240 . S
C364 O387 1.264 . S
O365 Mn360 2.095 1_556 S
O365 C374 1.250 . S
O366 Mn361 2.121 . S
O366 C374 1.258 1_554 S
C367 N368 1.326 . S
C367 C371 1.460 . S
C367 H373 0.929 . S
N368 Mn361 2.257 . S
N368 C367 1.326 . S
N368 C372 1.362 . S
C369 C370 1.258 . S
C369 C372 1.431 . S
C369 C389 1.449 . S
C370 C369 1.258 . S
C370 C371 1.477 . S
C370 H390 0.931 . S
C371 C367 1.460 . S
C371 C370 1.477 . S
C371 H391 0.930 . S
C372 N368 1.362 . S
C372 C369 1.431 . S
C372 C382 1.476 . S
H373 C367 0.929 . S
C374 O365 1.250 . S
C374 O366 1.258 1_556 S
O375 Mn360 2.162 1_556 S
O375 C363 1.281 . S
O376 Mn360 2.297 1_556 S
O376 C363 1.236 . S
N377 Mn361 2.282 . S
N377 C378 1.328 . S
N377 C382 1.318 . S
C378 N377 1.328 . S
C378 C379 1.457 . S
C378 H383 0.929 . S
C379 C378 1.457 . S
C379 C380 1.291 . S
C379 H392 0.931 . S
C380 C379 1.291 . S
C380 C381 1.373 . S
C380 H393 0.929 . S
C381 C380 1.373 . S
C381 C382 1.396 . S
C381 C388 1.403 . S
C382 C372 1.476 . S
C382 N377 1.318 . S
C382 C381 1.396 . S
H383 C378 0.929 . S
O384 Mn360 2.385 . S
O384 C362 1.234 . S
O385 Mn360 2.209 . S
O385 Mn361 2.215 . S
O385 C362 1.283 . S
O386 Mn360 2.094 . S
O386 C364 1.240 . S
O387 Mn361 2.117 . S
O387 C364 1.264 . S
C388 C381 1.403 . S
C388 C389 1.399 . S
C388 H394 0.929 . S
C389 C369 1.449 . S
C389 C388 1.399 . S
C389 H395 0.930 . S
H390 C370 0.931 . S
H391 C371 0.930 . S
H392 C379 0.931 . S
H393 C380 0.929 . S
H394 C388 0.929 . S
H395 C389 0.930 . S
Mn396 O401 2.095 . S
Mn396 O411 2.162 . S
Mn396 O412 2.297 . S
Mn396 O420 2.385 . S
Mn396 O421 2.209 . S
Mn396 O422 2.094 . S
Mn397 O402 2.121 . S
Mn397 N404 2.257 . S
Mn397 N413 2.282 1_554 S
Mn397 O421 2.215 . S
Mn397 O423 2.117 . S
C398 O420 1.234 . S
C398 O421 1.283 . S
C399 O411 1.281 . S
C399 O412 1.236 . S
C400 O422 1.240 . S
C400 O423 1.264 . S
O401 Mn396 2.095 . S
O401 C410 1.250 . S
O402 Mn397 2.121 . S
O402 C410 1.258 . S
C403 N404 1.326 . S
C403 C407 1.460 . S
C403 H409 0.929 . S
N404 Mn397 2.257 . S
N404 C403 1.326 . S
N404 C408 1.362 1_554 S
C405 C406 1.258 . S
C405 C408 1.431 . S
C405 C425 1.449 . S
C406 C405 1.258 . S
C406 C407 1.477 1_556 S
C406 H426 0.931 . S
C407 C403 1.460 . S
C407 C406 1.477 1_554 S
C407 H427 0.930 . S
C408 N404 1.362 1_556 S
C408 C405 1.431 . S
C408 C418 1.476 . S
H409 C403 0.929 . S
C410 O401 1.250 . S
C410 O402 1.258 . S
O411 Mn396 2.162 . S
O411 C399 1.281 . S
O412 Mn396 2.297 . S
O412 C399 1.236 . S
N413 Mn397 2.282 1_556 S
N413 C414 1.328 . S
N413 C418 1.318 . S
C414 N413 1.328 . S
C414 C415 1.457 . S
C414 H419 0.929 1_556 S
C415 C414 1.457 . S
C415 C416 1.291 . S
C415 H428 0.931 . S
C416 C415 1.291 . S
C416 C417 1.373 . S
C416 H429 0.929 . S
C417 C416 1.373 . S
C417 C418 1.396 . S
C417 C424 1.403 . S
C418 C408 1.476 . S
C418 N413 1.318 . S
C418 C417 1.396 . S
H419 C414 0.929 1_554 S
O420 Mn396 2.385 . S
O420 C398 1.234 . S
O421 Mn396 2.209 . S
O421 Mn397 2.215 . S
O421 C398 1.283 . S
O422 Mn396 2.094 . S
O422 C400 1.240 . S
O423 Mn397 2.117 . S
O423 C400 1.264 . S
C424 C417 1.403 . S
C424 C425 1.399 . S
C424 H430 0.929 . S
C425 C405 1.449 . S
C425 C424 1.399 . S
C425 H431 0.930 . S
H426 C406 0.931 . S
H427 C407 0.930 . S
H428 C415 0.931 . S
H429 C416 0.929 . S
H430 C424 0.929 . S
H431 C425 0.930 . S
Mn432 O437 2.095 . S
Mn432 O447 2.162 . S
Mn432 O448 2.297 . S
Mn432 O456 2.385 . S
Mn432 O457 2.209 . S
Mn432 O458 2.094 . S
Mn433 O438 2.121 . S
Mn433 N440 2.257 . S
Mn433 N449 2.282 . S
Mn433 O457 2.215 . S
Mn433 O459 2.117 . S
C434 O456 1.234 . S
C434 O457 1.283 . S
C435 O447 1.281 . S
C435 O448 1.236 . S
C436 O458 1.240 . S
C436 O459 1.264 . S
O437 Mn432 2.095 . S
O437 C446 1.250 . S
O438 Mn433 2.121 . S
O438 C446 1.258 . S
C439 N440 1.326 . S
C439 C443 1.460 . S
C439 H445 0.929 . S
N440 Mn433 2.257 . S
N440 C439 1.326 . S
N440 C444 1.362 . S
C441 C442 1.258 . S
C441 C444 1.431 . S
C441 C461 1.449 . S
C442 C441 1.258 . S
C442 C443 1.477 . S
C442 H462 0.931 . S
C443 C439 1.460 . S
C443 C442 1.477 . S
C443 H463 0.930 . S
C444 N440 1.362 . S
C444 C441 1.431 . S
C444 C454 1.476 . S
H445 C439 0.929 . S
C446 O437 1.250 . S
C446 O438 1.258 . S
O447 Mn432 2.162 . S
O447 C435 1.281 . S
O448 Mn432 2.297 . S
O448 C435 1.236 . S
N449 Mn433 2.282 . S
N449 C450 1.328 . S
N449 C454 1.318 . S
C450 N449 1.328 . S
C450 C451 1.457 . S
C450 H455 0.929 . S
C451 C450 1.457 . S
C451 C452 1.291 . S
C451 H464 0.931 . S
C452 C451 1.291 . S
C452 C453 1.373 . S
C452 H465 0.929 . S
C453 C452 1.373 . S
C453 C454 1.396 . S
C453 C460 1.403 . S
C454 C444 1.476 . S
C454 N449 1.318 . S
C454 C453 1.396 . S
H455 C450 0.929 . S
O456 Mn432 2.385 . S
O456 C434 1.234 . S
O457 Mn432 2.209 . S
O457 Mn433 2.215 . S
O457 C434 1.283 . S
O458 Mn432 2.094 . S
O458 C436 1.240 . S
O459 Mn433 2.117 . S
O459 C436 1.264 . S
C460 C453 1.403 . S
C460 C461 1.399 . S
C460 H466 0.929 1_556 S
C461 C441 1.449 . S
C461 C460 1.399 . S
C461 H467 0.930 1_556 S
H462 C442 0.931 . S
H463 C443 0.930 . S
H464 C451 0.931 . S
H465 C452 0.929 . S
H466 C460 0.929 1_554 S
H467 C461 0.930 1_554 S
Mn468 O473 2.095 . S
Mn468 O483 2.162 . S
Mn468 O484 2.297 . S
Mn468 O492 2.385 . S
Mn468 O493 2.209 . S
Mn468 O494 2.094 . S
Mn469 O474 2.121 . S
Mn469 N476 2.257 . S
Mn469 N485 2.282 1_554 S
Mn469 O493 2.215 . S
Mn469 O495 2.117 . S
C470 O492 1.234 . S
C470 O493 1.283 . S
C471 O483 1.281 . S
C471 O484 1.236 . S
C472 O494 1.240 . S
C472 O495 1.264 . S
O473 Mn468 2.095 . S
O473 C482 1.250 . S
O474 Mn469 2.121 . S
O474 C482 1.258 . S
C475 N476 1.326 . S
C475 C479 1.460 1_554 S
C475 H481 0.929 . S
N476 Mn469 2.257 . S
N476 C475 1.326 . S
N476 C480 1.362 1_554 S
C477 C478 1.258 . S
C477 C480 1.431 . S
C477 C497 1.449 . S
C478 C477 1.258 . S
C478 C479 1.477 . S
C478 H498 0.931 . S
C479 C475 1.460 1_556 S
C479 C478 1.477 . S
C479 H499 0.933 . S
C480 N476 1.362 1_556 S
C480 C477 1.431 . S
C480 C490 1.476 . S
H481 C475 0.929 . S
C482 O473 1.250 . S
C482 O474 1.258 . S
O483 Mn468 2.162 . S
O483 C471 1.281 . S
O484 Mn468 2.297 . S
O484 C471 1.236 . S
N485 Mn469 2.282 1_556 S
N485 C486 1.328 . S
N485 C490 1.318 . S
C486 N485 1.328 . S
C486 C487 1.457 . S
C486 H491 0.929 1_556 S
C487 C486 1.457 . S
C487 C488 1.291 . S
C487 H500 0.931 . S
C488 C487 1.291 . S
C488 C489 1.373 . S
C488 H501 0.929 . S
C489 C488 1.373 . S
C489 C490 1.396 . S
C489 C496 1.403 . S
C490 C480 1.476 . S
C490 N485 1.318 . S
C490 C489 1.396 . S
H491 C486 0.929 1_554 S
O492 Mn468 2.385 . S
O492 C470 1.234 . S
O493 Mn468 2.209 . S
O493 Mn469 2.215 . S
O493 C470 1.283 . S
O494 Mn468 2.094 . S
O494 C472 1.240 . S
O495 Mn469 2.117 . S
O495 C472 1.264 . S
C496 C489 1.403 . S
C496 C497 1.399 . S
C496 H502 0.929 . S
C497 C477 1.449 . S
C497 C496 1.399 . S
C497 H503 0.930 . S
H498 C478 0.931 . S
H499 C479 0.933 . S
H500 C487 0.931 . S
H501 C488 0.929 . S
H502 C496 0.929 . S
H503 C497 0.930 . S
Mn504 O509 2.095 . S
Mn504 O519 2.162 . S
Mn504 O520 2.297 . S
Mn504 O528 2.385 1_554 S
Mn504 O529 2.209 1_554 S
Mn504 O530 2.094 1_554 S
Mn505 O510 2.121 . S
Mn505 N512 2.257 . S
Mn505 N521 2.282 . S
Mn505 O529 2.215 . S
Mn505 O531 2.117 . S
C506 O528 1.234 . S
C506 O529 1.283 . S
C507 O519 1.281 . S
C507 O520 1.236 . S
C508 O530 1.240 . S
C508 O531 1.264 . S
O509 Mn504 2.095 . S
O509 C518 1.250 . S
O510 Mn505 2.121 . S
O510 C518 1.258 1_556 S
C511 N512 1.326 . S
C511 C515 1.460 . S
C511 H517 0.929 . S
N512 Mn505 2.257 . S
N512 C511 1.326 . S
N512 C516 1.362 . S
C513 C514 1.258 . S
C513 C516 1.431 . S
C513 C533 1.449 . S
C514 C513 1.258 . S
C514 C515 1.477 . S
C514 H534 0.931 . S
C515 C511 1.460 . S
C515 C514 1.477 . S
C515 H535 0.930 . S
C516 N512 1.362 . S
C516 C513 1.431 . S
C516 C526 1.476 . S
H517 C511 0.929 . S
C518 O509 1.250 . S
C518 O510 1.258 1_554 S
O519 Mn504 2.162 . S
O519 C507 1.281 . S
O520 Mn504 2.297 . S
O520 C507 1.236 . S
N521 Mn505 2.282 . S
N521 C522 1.328 . S
N521 C526 1.318 . S
C522 N521 1.328 . S
C522 C523 1.457 . S
C522 H527 0.929 . S
C523 C522 1.457 . S
C523 C524 1.291 . S
C523 H536 0.931 . S
C524 C523 1.291 . S
C524 C525 1.373 . S
C524 H537 0.929 . S
C525 C524 1.373 . S
C525 C526 1.396 . S
C525 C532 1.403 . S
C526 C516 1.476 . S
C526 N521 1.318 . S
C526 C525 1.396 . S
H527 C522 0.929 . S
O528 Mn504 2.385 1_556 S
O528 C506 1.234 . S
O529 Mn504 2.209 1_556 S
O529 Mn505 2.215 . S
O529 C506 1.283 . S
O530 Mn504 2.094 1_556 S
O530 C508 1.240 . S
O531 Mn505 2.117 . S
O531 C508 1.264 . S
C532 C525 1.403 . S
C532 C533 1.399 . S
C532 H538 0.929 . S
C533 C513 1.449 . S
C533 C532 1.399 . S
C533 H539 0.930 . S
H534 C514 0.931 . S
H535 C515 0.930 . S
H536 C523 0.931 . S
H537 C524 0.929 . S
H538 C532 0.929 . S
H539 C533 0.930 . S
Mn540 O545 2.095 . S
Mn540 O555 2.162 . S
Mn540 O556 2.297 . S
Mn540 O564 2.385 . S
Mn540 O565 2.209 . S
Mn540 O566 2.094 . S
Mn541 O546 2.121 . S
Mn541 N548 2.257 . S
Mn541 N557 2.282 1_556 S
Mn541 O565 2.215 . S
Mn541 O567 2.117 . S
C542 O564 1.234 . S
C542 O565 1.283 . S
C543 O555 1.281 . S
C543 O556 1.236 . S
C544 O566 1.240 . S
C544 O567 1.264 . S
O545 Mn540 2.095 . S
O545 C554 1.250 . S
O546 Mn541 2.121 . S
O546 C554 1.258 . S
C547 N548 1.326 . S
C547 C551 1.460 1_556 S
C547 H553 0.929 . S
N548 Mn541 2.257 . S
N548 C547 1.326 . S
N548 C552 1.362 1_556 S
C549 C550 1.258 . S
C549 C552 1.431 . S
C549 C569 1.449 . S
C550 C549 1.258 . S
C550 C551 1.477 . S
C550 H570 0.931 . S
C551 C547 1.460 1_554 S
C551 C550 1.477 . S
C551 H571 0.934 . S
C552 N548 1.362 1_554 S
C552 C549 1.431 . S
C552 C562 1.476 . S
H553 C547 0.929 . S
C554 O545 1.250 . S
C554 O546 1.258 . S
O555 Mn540 2.162 . S
O555 C543 1.281 . S
O556 Mn540 2.297 . S
O556 C543 1.236 . S
N557 Mn541 2.282 1_554 S
N557 C558 1.328 . S
N557 C562 1.318 . S
C558 N557 1.328 . S
C558 C559 1.457 . S
C558 H563 0.929 . S
C559 C558 1.457 . S
C559 C560 1.291 . S
C559 H572 0.931 . S
C560 C559 1.291 . S
C560 C561 1.373 . S
C560 H573 0.929 . S
C561 C560 1.373 . S
C561 C562 1.396 . S
C561 C568 1.403 . S
C562 C552 1.476 . S
C562 N557 1.318 . S
C562 C561 1.396 . S
H563 C558 0.929 . S
O564 Mn540 2.385 . S
O564 C542 1.234 . S
O565 Mn540 2.209 . S
O565 Mn541 2.215 . S
O565 C542 1.283 . S
O566 Mn540 2.094 . S
O566 C544 1.240 . S
O567 Mn541 2.117 . S
O567 C544 1.264 . S
C568 C561 1.403 . S
C568 C569 1.399 . S
C568 H574 0.929 . S
C569 C549 1.449 . S
C569 C568 1.399 . S
C569 H575 0.930 . S
H570 C550 0.931 . S
H571 C551 0.934 . S
H572 C559 0.931 . S
H573 C560 0.929 . S
H574 C568 0.929 . S
H575 C569 0.930 . S
C576 C577 1.363 . S
C576 C582 1.379 . S
C576 N584 1.356 . S
C577 C576 1.363 . S
C577 C583 1.363 . S
C578 C579 1.363 . S
C578 C583 1.379 . S
C578 N585 1.356 . S
C579 C578 1.363 . S
C579 C582 1.363 . S
N580 C582 1.356 . S
N580 H592 0.984 . S
N580 H593 0.985 . S
N581 C583 1.356 . S
N581 H586 0.984 . S
N581 H587 0.985 . S
C582 C576 1.379 . S
C582 C579 1.363 . S
C582 N580 1.356 . S
C583 C577 1.363 . S
C583 C578 1.379 . S
C583 N581 1.356 . S
N584 C576 1.356 . S
N584 H590 0.984 . S
N584 H591 0.984 . S
N585 C578 1.356 . S
N585 H588 0.984 . S
N585 H589 0.985 . S
H586 N581 0.984 . S
H587 N581 0.985 . S
H588 N585 0.984 . S
H589 N585 0.985 . S
H590 N584 0.984 . S
H591 N584 0.984 . S
H592 N580 0.984 . S
H593 N580 0.985 . S
C594 C595 1.363 1_565 S
C594 C600 1.379 . S
C594 N602 1.356 . S
C595 C594 1.363 1_545 S
C595 C601 1.363 1_655 S
C596 C597 1.363 . S
C596 C601 1.379 . S
C596 N603 1.356 . S
C597 C596 1.363 . S
C597 C600 1.363 1_445 S
N598 C600 1.356 1_455 S
N598 H610 0.984 1_455 S
N598 H611 0.985 . S
N599 C601 1.356 1_655 S
N599 H604 0.984 . S
N599 H605 0.985 1_655 S
C600 C594 1.379 . S
C600 C597 1.363 1_665 S
C600 N598 1.356 1_655 S
C601 C595 1.363 1_455 S
C601 C596 1.379 . S
C601 N599 1.356 1_455 S
N602 C594 1.356 . S
N602 H608 0.984 . S
N602 H609 0.984 . S
N603 C596 1.356 . S
N603 H606 0.984 . S
N603 H607 0.985 . S
H604 N599 0.984 . S
H605 N599 0.985 1_455 S
H606 N603 0.984 . S
H607 N603 0.985 . S
H608 N602 0.984 . S
H609 N602 0.984 . S
H610 N598 0.984 1_655 S
H611 N598 0.985 . S
C612 C613 1.363 . S
C612 C618 1.379 . S
C612 N620 1.356 . S
C613 C612 1.363 . S
C613 C619 1.363 . S
C614 C615 1.363 . S
C614 C619 1.379 . S
C614 N621 1.356 . S
C615 C614 1.363 . S
C615 C618 1.363 . S
N616 C618 1.356 . S
N616 H628 0.984 . S
N616 H629 0.985 . S
N617 C619 1.356 . S
N617 H622 0.984 . S
N617 H623 0.985 . S
C618 C612 1.379 . S
C618 C615 1.363 . S
C618 N616 1.356 . S
C619 C613 1.363 . S
C619 C614 1.379 . S
C619 N617 1.356 . S
N620 C612 1.356 . S
N620 H626 0.984 . S
N620 H627 0.984 . S
N621 C614 1.356 . S
N621 H624 0.984 . S
N621 H625 0.985 . S
H622 N617 0.984 . S
H623 N617 0.985 . S
H624 N621 0.984 . S
H625 N621 0.985 . S
H626 N620 0.984 . S
H627 N620 0.984 . S
H628 N616 0.984 . S
H629 N616 0.985 . S
C630 C631 1.363 1_565 S
C630 C636 1.379 . S
C630 N638 1.356 . S
C631 C630 1.363 1_545 S
C631 C637 1.363 . S
C632 C633 1.363 . S
C632 C637 1.379 1_556 S
C632 N639 1.356 . S
C633 C632 1.363 . S
C633 C636 1.363 1_546 S
N634 C636 1.356 1_556 S
N634 H646 0.984 1_556 S
N634 H647 0.985 . S
N635 C637 1.356 . S
N635 H640 0.984 . S
N635 H641 0.985 . S
C636 C630 1.379 . S
C636 C633 1.363 1_564 S
C636 N634 1.356 1_554 S
C637 C631 1.363 . S
C637 C632 1.379 1_554 S
C637 N635 1.356 . S
N638 C630 1.356 . S
N638 H644 0.984 . S
N638 H645 0.984 . S
N639 C632 1.356 . S
N639 H642 0.984 . S
N639 H643 0.985 . S
H640 N635 0.984 . S
H641 N635 0.985 . S
H642 N639 0.984 . S
H643 N639 0.985 . S
H644 N638 0.984 . S
H645 N638 0.984 . S
H646 N634 0.984 1_554 S
H647 N634 0.985 . S
C648 C649 1.363 . S
C648 C654 1.379 . S
C648 N656 1.356 . S
C649 C648 1.363 . S
C649 C655 1.363 . S
C650 C651 1.363 . S
C650 C655 1.379 . S
C650 N657 1.356 . S
C651 C650 1.363 . S
C651 C654 1.363 . S
N652 C654 1.356 . S
N652 H664 0.984 . S
N652 H665 0.985 . S
N653 C655 1.356 . S
N653 H658 0.984 . S
N653 H659 0.985 . S
C654 C648 1.379 . S
C654 C651 1.363 . S
C654 N652 1.356 . S
C655 C649 1.363 . S
C655 C650 1.379 . S
C655 N653 1.356 . S
N656 C648 1.356 . S
N656 H662 0.984 . S
N656 H663 0.984 . S
N657 C650 1.356 . S
N657 H660 0.984 . S
N657 H661 0.985 . S
H658 N653 0.984 . S
H659 N653 0.985 . S
H660 N657 0.984 . S
H661 N657 0.985 . S
H662 N656 0.984 . S
H663 N656 0.984 . S
H664 N652 0.984 . S
H665 N652 0.985 . S
C666 C667 1.363 1_565 S
C666 C672 1.379 . S
C666 N674 1.356 . S
C667 C666 1.363 1_545 S
C667 C673 1.363 . S
C668 C669 1.363 . S
C668 C673 1.379 . S
C668 N675 1.356 . S
C669 C668 1.363 . S
C669 C672 1.363 1_545 S
N670 C672 1.356 . S
N670 H682 0.984 . S
N670 H683 0.985 . S
N671 C673 1.356 . S
N671 H676 0.984 . S
N671 H677 0.985 . S
C672 C666 1.379 . S
C672 C669 1.363 1_565 S
C672 N670 1.356 . S
C673 C667 1.363 . S
C673 C668 1.379 . S
C673 N671 1.356 . S
N674 C666 1.356 . S
N674 H680 0.984 . S
N674 H681 0.984 . S
N675 C668 1.356 . S
N675 H678 0.984 . S
N675 H679 0.985 . S
H676 N671 0.984 . S
H677 N671 0.985 . S
H678 N675 0.984 . S
H679 N675 0.985 . S
H680 N674 0.984 . S
H681 N674 0.984 . S
H682 N670 0.984 . S
H683 N670 0.985 . S
C684 C685 1.363 . S
C684 C690 1.379 . S
C684 N692 1.356 . S
C685 C684 1.363 . S
C685 C691 1.363 . S
C686 C687 1.363 . S
C686 C691 1.379 . S
C686 N693 1.356 . S
C687 C686 1.363 . S
C687 C690 1.363 . S
N688 C690 1.356 . S
N688 H700 0.984 . S
N688 H701 0.985 . S
N689 C691 1.356 . S
N689 H694 0.984 . S
N689 H695 0.985 . S
C690 C684 1.379 . S
C690 C687 1.363 . S
C690 N688 1.356 . S
C691 C685 1.363 . S
C691 C686 1.379 . S
C691 N689 1.356 . S
N692 C684 1.356 . S
N692 H698 0.984 . S
N692 H699 0.984 . S
N693 C686 1.356 . S
N693 H696 0.984 . S
N693 H697 0.985 . S
H694 N689 0.984 . S
H695 N689 0.985 . S
H696 N693 0.984 . S
H697 N693 0.985 . S
H698 N692 0.984 . S
H699 N692 0.984 . S
H700 N688 0.984 . S
H701 N688 0.985 . S
C702 C703 1.363 1_655 S
C702 C708 1.379 1_556 S
C702 N710 1.356 1_655 S
C703 C702 1.363 1_455 S
C703 C709 1.363 1_546 S
C704 C705 1.363 1_465 S
C704 C709 1.379 . S
C704 N711 1.356 1_455 S
C705 C704 1.363 1_645 S
C705 C708 1.363 . S
N706 C708 1.356 . S
N706 H718 0.984 . S
N706 H719 0.985 . S
N707 C709 1.356 1_556 S
N707 H712 0.984 . S
N707 H713 0.985 . S
C708 C702 1.379 1_554 S
C708 C705 1.363 . S
C708 N706 1.356 . S
C709 C703 1.363 1_564 S
C709 C704 1.379 . S
C709 N707 1.356 1_554 S
N710 C702 1.356 1_455 S
N710 H716 0.984 1_455 S
N710 H717 0.984 . S
N711 C704 1.356 1_655 S
N711 H714 0.984 . S
N711 H715 0.985 1_655 S
H712 N707 0.984 . S
H713 N707 0.985 . S
H714 N711 0.984 . S
H715 N711 0.985 1_455 S
H716 N710 0.984 1_655 S
H717 N710 0.984 . S
H718 N706 0.984 . S
H719 N706 0.985 . S
C720 C721 1.363 . S
C720 C726 1.379 . S
C720 N728 1.356 . S
C721 C720 1.363 . S
C721 C727 1.363 . S
C722 C723 1.363 . S
C722 C727 1.379 . S
C722 N729 1.356 . S
C723 C722 1.363 . S
C723 C726 1.363 . S
N724 C726 1.356 . S
N724 H736 0.984 . S
N724 H737 0.985 . S
N725 C727 1.356 . S
N725 H730 0.984 . S
N725 H731 0.985 . S
C726 C720 1.379 . S
C726 C723 1.363 . S
C726 N724 1.356 . S
C727 C721 1.363 . S
C727 C722 1.379 . S
C727 N725 1.356 . S
N728 C720 1.356 . S
N728 H734 0.984 . S
N728 H735 0.984 . S
N729 C722 1.356 . S
N729 H732 0.984 . S
N729 H733 0.985 . S
H730 N725 0.984 . S
H731 N725 0.985 . S
H732 N729 0.984 . S
H733 N729 0.985 . S
H734 N728 0.984 . S
H735 N728 0.984 . S
H736 N724 0.984 . S
H737 N724 0.985 . S
C738 C739 1.363 . S
C738 C744 1.379 . S
C738 N746 1.356 . S
C739 C738 1.363 . S
C739 C745 1.363 . S
C740 C741 1.363 . S
C740 C745 1.379 . S
C740 N747 1.356 . S
C741 C740 1.363 . S
C741 C744 1.363 . S
N742 C744 1.356 . S
N742 H754 0.984 . S
N742 H755 0.985 . S
N743 C745 1.356 . S
N743 H748 0.984 . S
N743 H749 0.985 . S
C744 C738 1.379 . S
C744 C741 1.363 . S
C744 N742 1.356 . S
C745 C739 1.363 . S
C745 C740 1.379 . S
C745 N743 1.356 . S
N746 C738 1.356 . S
N746 H752 0.984 . S
N746 H753 0.984 . S
N747 C740 1.356 . S
N747 H750 0.984 . S
N747 H751 0.985 . S
H748 N743 0.984 . S
H749 N743 0.985 . S
H750 N747 0.984 . S
H751 N747 0.985 . S
H752 N746 0.984 . S
H753 N746 0.984 . S
H754 N742 0.984 . S
H755 N742 0.985 . S
C756 C757 1.363 . S
C756 C762 1.379 . S
C756 N764 1.356 . S
C757 C756 1.363 . S
C757 C763 1.363 . S
C758 C759 1.363 . S
C758 C763 1.379 . S
C758 N765 1.356 . S
C759 C758 1.363 . S
C759 C762 1.363 . S
N760 C762 1.356 . S
N760 H772 0.984 . S
N760 H773 0.985 . S
N761 C763 1.356 . S
N761 H766 0.984 . S
N761 H767 0.985 . S
C762 C756 1.379 . S
C762 C759 1.363 . S
C762 N760 1.356 . S
C763 C757 1.363 . S
C763 C758 1.379 . S
C763 N761 1.356 . S
N764 C756 1.356 . S
N764 H770 0.984 . S
N764 H771 0.984 . S
N765 C758 1.356 . S
N765 H768 0.984 . S
N765 H769 0.985 . S
H766 N761 0.984 . S
H767 N761 0.985 . S
H768 N765 0.984 . S
H769 N765 0.985 . S
H770 N764 0.984 . S
H771 N764 0.984 . S
H772 N760 0.984 . S
H773 N760 0.985 . S
C774 C775 1.363 . S
C774 C780 1.379 . S
C774 N782 1.356 . S
C775 C774 1.363 . S
C775 C781 1.363 . S
C776 C777 1.363 . S
C776 C781 1.379 . S
C776 N783 1.356 . S
C777 C776 1.363 . S
C777 C780 1.363 . S
N778 C780 1.356 . S
N778 H790 0.984 . S
N778 H791 0.985 . S
N779 C781 1.356 . S
N779 H784 0.984 . S
N779 H785 0.985 . S
C780 C774 1.379 . S
C780 C777 1.363 . S
C780 N778 1.356 . S
C781 C775 1.363 . S
C781 C776 1.379 . S
C781 N779 1.356 . S
N782 C774 1.356 . S
N782 H788 0.984 . S
N782 H789 0.984 . S
N783 C776 1.356 . S
N783 H786 0.984 . S
N783 H787 0.985 . S
H784 N779 0.984 . S
H785 N779 0.985 . S
H786 N783 0.984 . S
H787 N783 0.985 . S
H788 N782 0.984 . S
H789 N782 0.984 . S
H790 N778 0.984 . S
H791 N778 0.985 . S
C792 C793 1.363 . S
C792 C798 1.379 1_554 S
C792 N800 1.356 . S
C793 C792 1.363 . S
C793 C799 1.363 . S
C794 C795 1.363 1_554 S
C794 C799 1.379 . S
C794 N801 1.356 . S
C795 C794 1.363 1_556 S
C795 C798 1.363 . S
N796 C798 1.356 . S
N796 H808 0.984 . S
N796 H809 0.985 . S
N797 C799 1.356 . S
N797 H802 0.984 . S
N797 H803 0.985 . S
C798 C792 1.379 1_556 S
C798 C795 1.363 . S
C798 N796 1.356 . S
C799 C793 1.363 . S
C799 C794 1.379 . S
C799 N797 1.356 . S
N800 C792 1.356 . S
N800 H806 0.984 1_554 S
N800 H807 0.984 . S
N801 C794 1.356 . S
N801 H804 0.984 1_554 S
N801 H805 0.985 . S
H802 N797 0.984 . S
H803 N797 0.985 . S
H804 N801 0.984 1_556 S
H805 N801 0.985 . S
H806 N800 0.984 1_556 S
H807 N800 0.984 . S
H808 N796 0.984 . S
H809 N796 0.985 . S
C810 C811 1.363 1_655 S
C810 C816 1.379 . S
C810 N818 1.356 1_655 S
C811 C810 1.363 1_455 S
C811 C817 1.363 . S
C812 C813 1.363 1_455 S
C812 C817 1.379 . S
C812 N819 1.356 1_455 S
C813 C812 1.363 1_655 S
C813 C816 1.363 . S
N814 C816 1.356 . S
N814 H826 0.984 . S
N814 H827 0.985 . S
N815 C817 1.356 . S
N815 H820 0.984 . S
N815 H821 0.985 . S
C816 C810 1.379 . S
C816 C813 1.363 . S
C816 N814 1.356 . S
C817 C811 1.363 . S
C817 C812 1.379 . S
C817 N815 1.356 . S
N818 C810 1.356 1_455 S
N818 H824 0.984 1_455 S
N818 H825 0.984 . S
N819 C812 1.356 1_655 S
N819 H822 0.984 . S
N819 H823 0.985 1_655 S
H820 N815 0.984 . S
H821 N815 0.985 . S
H822 N819 0.984 . S
H823 N819 0.985 1_455 S
H824 N818 0.984 1_655 S
H825 N818 0.984 . S
H826 N814 0.984 . S
H827 N814 0.985 . S
C828 C829 1.363 . S
C828 C834 1.379 1_454 S
C828 N836 1.356 . S
C829 C828 1.363 . S
C829 C835 1.363 . S
C830 C831 1.363 1_554 S
C830 C835 1.379 1_655 S
C830 N837 1.356 1_554 S
C831 C830 1.363 1_556 S
C831 C834 1.363 . S
N832 C834 1.356 . S
N832 H844 0.968 1_655 S
N832 H845 0.985 . S
N833 C835 1.356 . S
N833 H838 0.984 . S
N833 H839 0.968 1_455 S
C834 C828 1.379 1_656 S
C834 C831 1.363 . S
C834 N832 1.356 . S
C835 C829 1.363 . S
C835 C830 1.379 1_455 S
C835 N833 1.356 . S
N836 C828 1.356 . S
N836 H842 0.984 . S
N836 H843 0.984 . S
N837 C830 1.356 1_556 S
N837 H840 0.984 . S
N837 H841 0.985 1_556 S
H838 N833 0.984 . S
H839 N833 0.968 1_655 S
H840 N837 0.984 . S
H841 N837 0.985 1_554 S
H842 N836 0.984 . S
H843 N836 0.984 . S
H844 N832 0.968 1_455 S
H845 N832 0.985 . S
C846 C847 1.363 . S
C846 C852 1.379 . S
C846 N854 1.356 . S
C847 C846 1.363 . S
C847 C853 1.363 . S
C848 C849 1.363 . S
C848 C853 1.379 . S
C848 N855 1.356 . S
C849 C848 1.363 . S
C849 C852 1.363 . S
N850 C852 1.356 . S
N850 H862 0.984 . S
N850 H863 0.985 . S
N851 C853 1.356 . S
N851 H856 0.984 . S
N851 H857 0.985 . S
C852 C846 1.379 . S
C852 C849 1.363 . S
C852 N850 1.356 . S
C853 C847 1.363 . S
C853 C848 1.379 . S
C853 N851 1.356 . S
N854 C846 1.356 . S
N854 H860 0.984 . S
N854 H861 0.984 . S
N855 C848 1.356 . S
N855 H858 0.984 . S
N855 H859 0.985 . S
H856 N851 0.984 . S
H857 N851 0.985 . S
H858 N855 0.984 . S
H859 N855 0.985 . S
H860 N854 0.984 . S
H861 N854 0.984 . S
H862 N850 0.984 . S
H863 N850 0.985 . S
C864 C865 1.363 . S
C864 C870 1.379 . S
C864 N872 1.356 . S
C865 C864 1.363 . S
C865 C871 1.363 . S
C866 C867 1.363 . S
C866 C871 1.379 . S
C866 N873 1.356 . S
C867 C866 1.363 . S
C867 C870 1.363 . S
N868 C870 1.356 1_556 S
N868 H880 0.984 . S
N868 H881 0.985 . S
N869 C871 1.356 . S
N869 H874 0.984 . S
N869 H875 0.985 . S
C870 C864 1.379 . S
C870 C867 1.363 . S
C870 N868 1.356 1_554 S
C871 C865 1.363 . S
C871 C866 1.379 . S
C871 N869 1.356 . S
N872 C864 1.356 . S
N872 H878 0.984 1_554 S
N872 H879 0.984 . S
N873 C866 1.356 . S
N873 H876 0.984 . S
N873 H877 0.985 . S
H874 N869 0.984 . S
H875 N869 0.985 . S
H876 N873 0.984 . S
H877 N873 0.985 . S
H878 N872 0.984 1_556 S
H879 N872 0.984 . S
H880 N868 0.984 . S
H881 N868 0.985 . S
C882 C883 1.363 . S
C882 C888 1.379 . S
C882 N890 1.356 . S
C883 C882 1.363 . S
C883 C889 1.363 . S
C884 C885 1.363 . S
C884 C889 1.379 . S
C884 N891 1.356 . S
C885 C884 1.363 . S
C885 C888 1.363 . S
N886 C888 1.356 . S
N886 H898 0.984 . S
N886 H899 0.985 . S
N887 C889 1.356 . S
N887 H892 0.984 . S
N887 H893 0.985 . S
C888 C882 1.379 . S
C888 C885 1.363 . S
C888 N886 1.356 . S
C889 C883 1.363 . S
C889 C884 1.379 . S
C889 N887 1.356 . S
N890 C882 1.356 . S
N890 H896 0.984 . S
N890 H897 0.984 . S
N891 C884 1.356 . S
N891 H894 0.984 . S
N891 H895 0.985 . S
H892 N887 0.984 . S
H893 N887 0.985 . S
H894 N891 0.984 . S
H895 N891 0.985 . S
H896 N890 0.984 . S
H897 N890 0.984 . S
H898 N886 0.984 . S
H899 N886 0.985 . S
C900 C901 1.363 . S
C900 C906 1.379 . S
C900 N908 1.356 . S
C901 C900 1.363 . S
C901 C907 1.363 . S
C902 C903 1.363 . S
C902 C907 1.379 . S
C902 N909 1.356 . S
C903 C902 1.363 . S
C903 C906 1.363 . S
N904 C906 1.356 . S
N904 H916 0.984 . S
N904 H917 0.985 . S
N905 C907 1.356 . S
N905 H910 0.984 . S
N905 H911 0.985 . S
C906 C900 1.379 . S
C906 C903 1.363 . S
C906 N904 1.356 . S
C907 C901 1.363 . S
C907 C902 1.379 . S
C907 N905 1.356 . S
N908 C900 1.356 . S
N908 H914 0.984 . S
N908 H915 0.984 . S
N909 C902 1.356 . S
N909 H912 0.984 . S
N909 H913 0.985 . S
H910 N905 0.984 . S
H911 N905 0.985 . S
H912 N909 0.984 . S
H913 N909 0.985 . S
H914 N908 0.984 . S
H915 N908 0.984 . S
H916 N904 0.984 . S
H917 N904 0.985 . S
C918 C919 1.363 . S
C918 C924 1.379 . S
C918 N926 1.356 . S
C919 C918 1.363 . S
C919 C925 1.363 . S
C920 C921 1.363 . S
C920 C925 1.379 . S
C920 N927 1.356 . S
C921 C920 1.363 . S
C921 C924 1.363 . S
N922 C924 1.356 . S
N922 H934 0.984 . S
N922 H935 0.985 . S
N923 C925 1.356 . S
N923 H928 0.984 . S
N923 H929 0.985 . S
C924 C918 1.379 . S
C924 C921 1.363 . S
C924 N922 1.356 . S
C925 C919 1.363 . S
C925 C920 1.379 . S
C925 N923 1.356 . S
N926 C918 1.356 . S
N926 H932 0.984 . S
N926 H933 0.984 1_556 S
N927 C920 1.356 . S
N927 H930 0.984 . S
N927 H931 0.985 . S
H928 N923 0.984 . S
H929 N923 0.985 . S
H930 N927 0.984 . S
H931 N927 0.985 . S
H932 N926 0.984 . S
H933 N926 0.984 1_554 S
H934 N922 0.984 . S
H935 N922 0.985 . S
C936 C937 1.363 . S
C936 C942 1.379 . S
C936 N944 1.356 . S
C937 C936 1.363 . S
C937 C943 1.363 . S
C938 C939 1.363 . S
C938 C943 1.379 . S
C938 N945 1.356 . S
C939 C938 1.363 . S
C939 C942 1.363 . S
N940 C942 1.356 . S
N940 H952 0.984 . S
N940 H953 0.985 . S
N941 C943 1.356 . S
N941 H946 0.984 . S
N941 H947 0.985 . S
C942 C936 1.379 . S
C942 C939 1.363 . S
C942 N940 1.356 . S
C943 C937 1.363 . S
C943 C938 1.379 . S
C943 N941 1.356 . S
N944 C936 1.356 . S
N944 H950 0.984 . S
N944 H951 0.984 . S
N945 C938 1.356 . S
N945 H948 0.984 . S
N945 H949 0.985 . S
H946 N941 0.984 . S
H947 N941 0.985 . S
H948 N945 0.984 . S
H949 N945 0.985 . S
H950 N944 0.984 . S
H951 N944 0.984 . S
H952 N940 0.984 . S
H953 N940 0.985 . S
C954 C955 1.363 . S
C954 C960 1.379 . S
C954 N962 1.356 . S
C955 C954 1.363 . S
C955 C961 1.363 . S
C956 C957 1.363 . S
C956 C961 1.379 . S
C956 N963 1.356 . S
C957 C956 1.363 . S
C957 C960 1.363 . S
N958 C960 1.356 . S
N958 H970 0.984 . S
N958 H971 0.985 . S
N959 C961 1.356 . S
N959 H964 0.984 . S
N959 H965 0.985 . S
C960 C954 1.379 . S
C960 C957 1.363 . S
C960 N958 1.356 . S
C961 C955 1.363 . S
C961 C956 1.379 . S
C961 N959 1.356 . S
N962 C954 1.356 . S
N962 H968 0.984 . S
N962 H969 0.984 . S
N963 C956 1.356 . S
N963 H966 0.984 . S
N963 H967 0.985 . S
H964 N959 0.984 . S
H965 N959 0.985 . S
H966 N963 0.984 . S
H967 N963 0.985 . S
H968 N962 0.984 . S
H969 N962 0.984 . S
H970 N958 0.984 . S
H971 N958 0.985 . S
C972 C973 1.363 . S
C972 C978 1.379 . S
C972 N980 1.356 . S
C973 C972 1.363 . S
C973 C979 1.363 . S
C974 C975 1.363 . S
C974 C979 1.379 . S
C974 N981 1.356 . S
C975 C974 1.363 . S
C975 C978 1.363 . S
N976 C978 1.356 1_554 S
N976 H988 0.984 . S
N976 H989 0.985 . S
N977 C979 1.356 . S
N977 H982 0.984 . S
N977 H983 0.985 . S
C978 C972 1.379 . S
C978 C975 1.363 . S
C978 N976 1.356 1_556 S
C979 C973 1.363 . S
C979 C974 1.379 . S
C979 N977 1.356 . S
N980 C972 1.356 . S
N980 H986 0.984 1_556 S
N980 H987 0.984 . S
N981 C974 1.356 . S
N981 H984 0.984 . S
N981 H985 0.985 . S
H982 N977 0.984 . S
H983 N977 0.985 . S
H984 N981 0.984 . S
H985 N981 0.985 . S
H986 N980 0.984 1_554 S
H987 N980 0.984 . S
H988 N976 0.984 . S
H989 N976 0.985 . S
C990 C991 1.363 . S
C990 C996 1.379 . S
C990 N998 1.356 . S
C991 C990 1.363 . S
C991 C997 1.363 . S
C992 C993 1.363 . S
C992 C997 1.379 . S
C992 N999 1.356 . S
C993 C992 1.363 . S
C993 C996 1.363 . S
N994 C996 1.356 . S
N994 H1006 0.984 . S
N994 H1007 0.985 . S
N995 C997 1.356 . S
N995 H1000 0.984 . S
N995 H1001 0.985 . S
C996 C990 1.379 . S
C996 C993 1.363 . S
C996 N994 1.356 . S
C997 C991 1.363 . S
C997 C992 1.379 . S
C997 N995 1.356 . S
N998 C990 1.356 . S
N998 H1004 0.984 . S
N998 H1005 0.984 . S
N999 C992 1.356 . S
N999 H1002 0.984 . S
N999 H1003 0.985 . S
H1000 N995 0.984 . S
H1001 N995 0.985 . S
H1002 N999 0.984 . S
H1003 N999 0.985 . S
H1004 N998 0.984 . S
H1005 N998 0.984 . S
H1006 N994 0.984 . S
H1007 N994 0.985 . S
C1008 C1009 1.363 . S
C1008 C1014 1.379 . S
C1008 N1016 1.356 . S
C1009 C1008 1.363 . S
C1009 C1015 1.363 . S
C1010 C1011 1.363 . S
C1010 C1015 1.379 . S
C1010 N1017 1.356 . S
C1011 C1010 1.363 . S
C1011 C1014 1.363 . S
N1012 C1014 1.356 . S
N1012 H1024 0.984 . S
N1012 H1025 0.985 . S
N1013 C1015 1.356 1_554 S
N1013 H1018 0.984 . S
N1013 H1019 0.985 . S
C1014 C1008 1.379 . S
C1014 C1011 1.363 . S
C1014 N1012 1.356 . S
C1015 C1009 1.363 . S
C1015 C1010 1.379 . S
C1015 N1013 1.356 1_556 S
N1016 C1008 1.356 . S
N1016 H1022 0.984 . S
N1016 H1023 0.984 . S
N1017 C1010 1.356 . S
N1017 H1020 0.984 . S
N1017 H1021 0.985 1_556 S
H1018 N1013 0.984 . S
H1019 N1013 0.985 . S
H1020 N1017 0.984 . S
H1021 N1017 0.985 1_554 S
H1022 N1016 0.984 . S
H1023 N1016 0.984 . S
H1024 N1012 0.984 . S
H1025 N1012 0.985 . S
C1026 C1027 1.363 . S
C1026 C1032 1.379 . S
C1026 N1034 1.356 . S
C1027 C1026 1.363 . S
C1027 C1033 1.363 . S
C1028 C1029 1.363 . S
C1028 C1033 1.379 . S
C1028 N1035 1.356 . S
C1029 C1028 1.363 . S
C1029 C1032 1.363 . S
N1030 C1032 1.356 . S
N1030 H1042 0.984 . S
N1030 H1043 0.985 . S
N1031 C1033 1.356 . S
N1031 H1036 0.984 . S
N1031 H1037 0.985 . S
C1032 C1026 1.379 . S
C1032 C1029 1.363 . S
C1032 N1030 1.356 . S
C1033 C1027 1.363 . S
C1033 C1028 1.379 . S
C1033 N1031 1.356 . S
N1034 C1026 1.356 . S
N1034 H1040 0.984 . S
N1034 H1041 0.984 . S
N1035 C1028 1.356 . S
N1035 H1038 0.984 . S
N1035 H1039 0.985 . S
H1036 N1031 0.984 . S
H1037 N1031 0.985 . S
H1038 N1035 0.984 . S
H1039 N1035 0.985 . S
H1040 N1034 0.984 . S
H1041 N1034 0.984 . S
H1042 N1030 0.984 . S
H1043 N1030 0.985 . S
C1044 C1045 1.363 . S
C1044 C1050 1.379 . S
C1044 N1052 1.356 . S
C1045 C1044 1.363 . S
C1045 C1051 1.363 . S
C1046 C1047 1.363 . S
C1046 C1051 1.379 . S
C1046 N1053 1.356 . S
C1047 C1046 1.363 . S
C1047 C1050 1.363 . S
N1048 C1050 1.356 . S
N1048 H1060 0.984 . S
N1048 H1061 0.985 . S
N1049 C1051 1.356 . S
N1049 H1054 0.984 . S
N1049 H1055 0.985 . S
C1050 C1044 1.379 . S
C1050 C1047 1.363 . S
C1050 N1048 1.356 . S
C1051 C1045 1.363 . S
C1051 C1046 1.379 . S
C1051 N1049 1.356 . S
N1052 C1044 1.356 . S
N1052 H1058 0.984 . S
N1052 H1059 0.984 . S
N1053 C1046 1.356 . S
N1053 H1056 0.984 . S
N1053 H1057 0.985 . S
H1054 N1049 0.984 . S
H1055 N1049 0.985 . S
H1056 N1053 0.984 . S
H1057 N1053 0.985 . S
H1058 N1052 0.984 . S
H1059 N1052 0.984 . S
H1060 N1048 0.984 . S
H1061 N1048 0.985 . S
C1062 C1063 1.363 . S
C1062 C1068 1.379 . S
C1062 N1070 1.356 . S
C1063 C1062 1.363 . S
C1063 C1069 1.363 . S
C1064 C1065 1.363 . S
C1064 C1069 1.379 . S
C1064 N1071 1.356 1_554 S
C1065 C1064 1.363 . S
C1065 C1068 1.363 . S
N1066 C1068 1.356 . S
N1066 H1078 0.984 . S
N1066 H1079 0.985 . S
N1067 C1069 1.356 . S
N1067 H1072 0.984 . S
N1067 H1073 0.985 . S
C1068 C1062 1.379 . S
C1068 C1065 1.363 . S
C1068 N1066 1.356 . S
C1069 C1063 1.363 . S
C1069 C1064 1.379 . S
C1069 N1067 1.356 . S
N1070 C1062 1.356 . S
N1070 H1076 0.984 . S
N1070 H1077 0.984 . S
N1071 C1064 1.356 1_556 S
N1071 H1074 0.984 . S
N1071 H1075 0.985 . S
H1072 N1067 0.984 . S
H1073 N1067 0.985 . S
H1074 N1071 0.984 . S
H1075 N1071 0.985 . S
H1076 N1070 0.984 . S
H1077 N1070 0.984 . S
H1078 N1066 0.984 . S
H1079 N1066 0.985 . S
C1080 C1081 1.363 . S
C1080 C1086 1.379 . S
C1080 N1088 1.356 . S
C1081 C1080 1.363 . S
C1081 C1087 1.363 . S
C1082 C1083 1.363 . S
C1082 C1087 1.379 . S
C1082 N1089 1.356 . S
C1083 C1082 1.363 . S
C1083 C1086 1.363 . S
N1084 C1086 1.356 . S
N1084 H1096 0.984 . S
N1084 H1097 0.985 . S
N1085 C1087 1.356 . S
N1085 H1090 0.984 . S
N1085 H1091 0.985 . S
C1086 C1080 1.379 . S
C1086 C1083 1.363 . S
C1086 N1084 1.356 . S
C1087 C1081 1.363 . S
C1087 C1082 1.379 . S
C1087 N1085 1.356 . S
N1088 C1080 1.356 . S
N1088 H1094 0.984 . S
N1088 H1095 0.984 . S
N1089 C1082 1.356 . S
N1089 H1092 0.984 . S
N1089 H1093 0.985 . S
H1090 N1085 0.984 . S
H1091 N1085 0.985 . S
H1092 N1089 0.984 . S
H1093 N1089 0.985 . S
H1094 N1088 0.984 . S
H1095 N1088 0.984 . S
H1096 N1084 0.984 . S
H1097 N1084 0.985 . S
C1098 C1099 1.363 . S
C1098 C1104 1.379 . S
C1098 N1106 1.356 . S
C1099 C1098 1.363 . S
C1099 C1105 1.363 . S
C1100 C1101 1.363 . S
C1100 C1105 1.379 . S
C1100 N1107 1.356 . S
C1101 C1100 1.363 . S
C1101 C1104 1.363 . S
N1102 C1104 1.356 . S
N1102 H1114 0.984 . S
N1102 H1115 0.985 . S
N1103 C1105 1.356 . S
N1103 H1108 0.984 . S
N1103 H1109 0.985 . S
C1104 C1098 1.379 . S
C1104 C1101 1.363 . S
C1104 N1102 1.356 . S
C1105 C1099 1.363 . S
C1105 C1100 1.379 . S
C1105 N1103 1.356 . S
N1106 C1098 1.356 . S
N1106 H1112 0.984 . S
N1106 H1113 0.984 . S
N1107 C1100 1.356 . S
N1107 H1110 0.984 . S
N1107 H1111 0.985 . S
H1108 N1103 0.984 . S
H1109 N1103 0.985 . S
H1110 N1107 0.984 . S
H1111 N1107 0.985 . S
H1112 N1106 0.984 . S
H1113 N1106 0.984 . S
H1114 N1102 0.984 . S
H1115 N1102 0.985 . S
C1116 C1117 1.363 . S
C1116 C1122 1.379 . S
C1116 N1124 1.356 . S
C1117 C1116 1.363 . S
C1117 C1123 1.363 . S
C1118 C1119 1.363 . S
C1118 C1123 1.379 . S
C1118 N1125 1.356 . S
C1119 C1118 1.363 . S
C1119 C1122 1.363 . S
N1120 C1122 1.356 . S
N1120 H1132 0.984 . S
N1120 H1133 0.985 . S
N1121 C1123 1.356 . S
N1121 H1126 0.984 . S
N1121 H1127 0.985 . S
C1122 C1116 1.379 . S
C1122 C1119 1.363 . S
C1122 N1120 1.356 . S
C1123 C1117 1.363 . S
C1123 C1118 1.379 . S
C1123 N1121 1.356 . S
N1124 C1116 1.356 . S
N1124 H1130 0.984 . S
N1124 H1131 0.984 . S
N1125 C1118 1.356 . S
N1125 H1128 0.984 . S
N1125 H1129 0.985 . S
H1126 N1121 0.984 . S
H1127 N1121 0.985 . S
H1128 N1125 0.984 . S
H1129 N1125 0.985 . S
H1130 N1124 0.984 . S
H1131 N1124 0.984 . S
H1132 N1120 0.984 . S
H1133 N1120 0.985 . S
C1134 C1135 1.363 . S
C1134 C1140 1.379 . S
C1134 N1142 1.356 . S
C1135 C1134 1.363 . S
C1135 C1141 1.363 . S
C1136 C1137 1.363 . S
C1136 C1141 1.379 . S
C1136 N1143 1.356 . S
C1137 C1136 1.363 . S
C1137 C1140 1.363 . S
N1138 C1140 1.356 . S
N1138 H1150 0.984 . S
N1138 H1151 0.985 . S
N1139 C1141 1.356 1_554 S
N1139 H1144 0.984 . S
N1139 H1145 0.985 . S
C1140 C1134 1.379 . S
C1140 C1137 1.363 . S
C1140 N1138 1.356 . S
C1141 C1135 1.363 . S
C1141 C1136 1.379 . S
C1141 N1139 1.356 1_556 S
N1142 C1134 1.356 . S
N1142 H1148 0.984 . S
N1142 H1149 0.984 . S
N1143 C1136 1.356 . S
N1143 H1146 0.984 . S
N1143 H1147 0.985 . S
H1144 N1139 0.984 . S
H1145 N1139 0.985 . S
H1146 N1143 0.984 . S
H1147 N1143 0.985 . S
H1148 N1142 0.984 . S
H1149 N1142 0.984 . S
H1150 N1138 0.984 . S
H1151 N1138 0.985 . S
C577 C3 1.409 . S
C579 C435 1.409 . S
C595 C38 1.360 . S
C597 C182 1.360 . S
C613 C74 1.359 . S
C615 C506 1.359 . S
C631 C255 1.411 . S
C633 C111 1.411 . S
C649 C507 1.411 . S
C651 C75 1.411 . S
C667 C254 1.359 . S
C669 C110 1.359 . S
C685 C434 1.360 . S
C687 C2 1.360 . S
C703 C183 1.409 . S
C705 C39 1.409 . S
C721 C147 1.409 . S
C723 C291 1.409 . S
C739 C218 1.359 . S
C741 C362 1.359 . S
C757 C363 1.411 . S
C759 C219 1.411 . S
C775 C146 1.360 . S
C777 C290 1.360 . S
C793 C470 1.360 . S
C795 C326 1.360 . S
C811 C399 1.411 . S
C813 C543 1.411 . S
C829 C398 1.359 . S
C831 C542 1.359 . S
C847 C327 1.409 . S
C849 C471 1.409 . S
C865 C400 1.482 . S
C867 C14 1.470 . S
C883 C292 1.463 . S
C885 C40 1.463 . S
C901 C76 1.482 . S
C903 C338 1.470 . S
C919 C374 1.480 . S
C921 C122 1.480 . S
C937 C410 1.480 . S
C939 C86 1.480 . S
C955 C112 1.482 . S
C957 C302 1.470 . S
C973 C328 1.463 . S
C975 C4 1.463 . S
C991 C364 1.482 . S
C993 C50 1.470 . S
C1009 C158 1.476 . S
C1011 C544 1.482 . S
C1027 C436 1.463 . S
C1029 C184 1.463 . S
C1045 C220 1.482 . S
C1047 C482 1.470 . S
C1063 C266 1.480 . S
C1065 C518 1.480 . S
C1081 C230 1.480 . S
C1083 C554 1.480 . S
C1099 C446 1.470 . S
C1101 C256 1.482 . S
C1117 C472 1.463 . S
C1119 C148 1.463 . S
C1135 C508 1.482 . S
C1137 C194 1.470 . S
