# Generated by pormake.
# Topology umj, (4)-cn, num edge types: 1
# Building blocks:
#     Node 0, Type 0, BuildingBlock: ICAMEG_clean_sbu_1, # of connection points: 4
#     Node 1, Type 0, BuildingBlock: ICAMEG_clean_sbu_1, # of connection points: 4
#     Node 2, Type 0, BuildingBlock: ICAMEG_clean_sbu_1, # of connection points: 4
#     Node 3, Type 0, BuildingBlock: ICAMEG_clean_sbu_1, # of connection points: 4
#     Node 4, Type 0, BuildingBlock: ICAMEG_clean_sbu_1, # of connection points: 4
#     Node 5, Type 0, BuildingBlock: ICAMEG_clean_sbu_1, # of connection points: 4
#     Node 6, Type 0, BuildingBlock: ICAMEG_clean_sbu_1, # of connection points: 4
#     Node 7, Type 0, BuildingBlock: ICAMEG_clean_sbu_1, # of connection points: 4
#     Node 8, Type 0, BuildingBlock: ICAMEG_clean_sbu_1, # of connection points: 4
#     Node 9, Type 0, BuildingBlock: ICAMEG_clean_sbu_1, # of connection points: 4
#     Node 10, Type 0, BuildingBlock: ICAMEG_clean_sbu_1, # of connection points: 4
#     Node 11, Type 0, BuildingBlock: ICAMEG_clean_sbu_1, # of connection points: 4
#     Edge 12, Type (0, 0), BuildingBlock: KIFKEQ_clean_linker_1, # of connection points: 2
#     Edge 13, Type (0, 0), BuildingBlock: KIFKEQ_clean_linker_1, # of connection points: 2
#     Edge 14, Type (0, 0), BuildingBlock: KIFKEQ_clean_linker_1, # of connection points: 2
#     Edge 15, Type (0, 0), BuildingBlock: KIFKEQ_clean_linker_1, # of connection points: 2
#     Edge 16, Type (0, 0), BuildingBlock: KIFKEQ_clean_linker_1, # of connection points: 2
#     Edge 17, Type (0, 0), BuildingBlock: KIFKEQ_clean_linker_1, # of connection points: 2
#     Edge 18, Type (0, 0), BuildingBlock: KIFKEQ_clean_linker_1, # of connection points: 2
#     Edge 19, Type (0, 0), BuildingBlock: KIFKEQ_clean_linker_1, # of connection points: 2
#     Edge 20, Type (0, 0), BuildingBlock: KIFKEQ_clean_linker_1, # of connection points: 2
#     Edge 21, Type (0, 0), BuildingBlock: KIFKEQ_clean_linker_1, # of connection points: 2
#     Edge 22, Type (0, 0), BuildingBlock: KIFKEQ_clean_linker_1, # of connection points: 2
#     Edge 23, Type (0, 0), BuildingBlock: KIFKEQ_clean_linker_1, # of connection points: 2
#     Edge 24, Type (0, 0), BuildingBlock: KIFKEQ_clean_linker_1, # of connection points: 2
#     Edge 25, Type (0, 0), BuildingBlock: KIFKEQ_clean_linker_1, # of connection points: 2
#     Edge 26, Type (0, 0), BuildingBlock: KIFKEQ_clean_linker_1, # of connection points: 2
#     Edge 27, Type (0, 0), BuildingBlock: KIFKEQ_clean_linker_1, # of connection points: 2
#     Edge 28, Type (0, 0), BuildingBlock: KIFKEQ_clean_linker_1, # of connection points: 2
#     Edge 29, Type (0, 0), BuildingBlock: KIFKEQ_clean_linker_1, # of connection points: 2
#     Edge 30, Type (0, 0), BuildingBlock: KIFKEQ_clean_linker_1, # of connection points: 2
#     Edge 31, Type (0, 0), BuildingBlock: KIFKEQ_clean_linker_1, # of connection points: 2
#     Edge 32, Type (0, 0), BuildingBlock: KIFKEQ_clean_linker_1, # of connection points: 2
#     Edge 33, Type (0, 0), BuildingBlock: KIFKEQ_clean_linker_1, # of connection points: 2
#     Edge 34, Type (0, 0), BuildingBlock: KIFKEQ_clean_linker_1, # of connection points: 2
#     Edge 35, Type (0, 0), BuildingBlock: KIFKEQ_clean_linker_1, # of connection points: 2
# Relax obj value: 0.069
# Max RMSD: 0.254
# Mean RMSD: 0.228
data_MOF--net-umj--node1-ICAMEG_clean_sbu_1--edge1-KIFKEQ_clean_linker_1
_symmetry_space_group_name_H-M    P1
_symmetry_Int_Tables_number       1
_symmetry_cell_setting            triclinic
loop_
_symmetry_equiv_pos_as_xyz
'x, y, z'
_cell_length_a     31.201726
_cell_length_b     31.201459
_cell_length_c     90.292701
_cell_angle_alpha  89.990948
_cell_angle_beta   90.00652
_cell_angle_gamma 120.06251
loop_
_atom_site_label
_atom_site_type_symbol
_atom_site_fract_x
_atom_site_fract_y
_atom_site_fract_z
_atom_type_partial_charge
Co0 Co 0.10074 0.27968 0.08659 0.0
Co1 Co 0.98927 0.24454 0.06934 0.0
O2 O 0.03828 0.27861 0.08467 0.0
C3 C 0.04456 0.23372 0.11367 0.0
O4 O 0.00863 0.20544 0.10458 0.0
C5 C 0.01953 0.34944 0.06633 0.0
O6 O 0.06487 0.35716 0.0666 0.0
O7 O 0.04089 0.27034 0.05375 0.0
O8 O 0.11398 0.29189 0.0647 0.0
H9 H 0.91725 0.13887 0.02401 0.0
H10 H 0.07917 0.3435 0.10596 0.0
O11 O 0.08656 0.26623 0.10846 0.0
H12 H 0.22973 0.45807 0.07816 0.0
H13 H 0.25995 0.32323 0.11265 0.0
H14 H 0.15395 0.23948 0.06946 0.0
H15 H 0.19029 0.36778 0.07449 0.0
H16 H 0.18073 0.32176 0.10922 0.0
O17 O 0.98281 0.30536 0.06725 0.0
H18 H 0.97951 0.18093 0.04366 0.0
H19 H 0.89345 0.23856 0.06202 0.0
H20 H 0.233 0.24036 0.07238 0.0
H21 H 0.11759 0.43347 0.11005 0.0
H22 H 0.28661 0.28248 0.09411 0.0
H23 H 0.19332 0.49143 0.09606 0.0
O24 O 0.06878 0.20759 0.08276 0.0
H25 H 0.9037 0.25677 0.11494 0.0
H26 H 0.90487 0.14455 0.07669 0.0
H27 H 0.84251 0.11069 0.09664 0.0
H28 H 0.84174 0.16698 0.11596 0.0
H29 H 0.96559 0.28899 0.09485 0.0
H30 H 0.83039 0.19744 0.04251 0.0
H31 H 0.84204 0.147 0.02336 0.0
O32 O 0.99646 0.18417 0.07117 0.0
C33 C 0.08739 0.2866 0.05328 0.0
C34 C 0.91167 0.16059 0.03232 0.0
C35 C 0.86295 0.19352 0.04269 0.0
N36 N 0.93982 0.21173 0.05404 0.0
C37 C 0.9467 0.18435 0.0435 0.0
C38 C 0.89879 0.21678 0.05369 0.0
C39 C 0.8695 0.16521 0.03196 0.0
C40 C 0.11243 0.36845 0.09995 0.0
N41 N 0.13268 0.35041 0.09007 0.0
C42 C 0.13389 0.41937 0.10226 0.0
C43 C 0.17634 0.45188 0.09439 0.0
C44 C 0.19678 0.43318 0.08434 0.0
C45 C 0.17426 0.38204 0.0823 0.0
C46 C 0.23699 0.30489 0.10312 0.0
C47 C 0.17729 0.25824 0.07887 0.0
C48 C 0.1921 0.30388 0.10113 0.0
N49 N 0.1631 0.28105 0.08907 0.0
C50 C 0.22191 0.25845 0.0805 0.0
C51 C 0.25193 0.28203 0.09271 0.0
C52 C 0.02929 0.17513 0.07638 0.0
C53 C 0.90356 0.2319 0.10656 0.0
C54 C 0.90469 0.16926 0.08504 0.0
C55 C 0.86928 0.1499 0.0963 0.0
C56 C 0.86885 0.1815 0.10713 0.0
N57 N 0.93863 0.21873 0.08456 0.0
C58 C 0.93836 0.24997 0.09512 0.0
Co59 Co 0.81773 0.09424 0.41909 0.0
Co60 Co 0.74119 0.98529 0.40051 0.0
O61 O 0.75595 0.03213 0.41656 0.0
C62 C 0.80467 0.03417 0.44554 0.0
O63 O 0.79397 0.99797 0.43621 0.0
C64 C 0.66829 0.01793 0.39856 0.0
O65 O 0.70646 0.06263 0.40007 0.0
O66 O 0.76876 0.0391 0.38565 0.0
O67 O 0.81926 0.11074 0.39745 0.0
H68 H 0.77693 0.91916 0.35426 0.0
H69 H 0.73214 0.07042 0.43864 0.0
O70 O 0.81695 0.07732 0.4407 0.0
H71 H 0.76981 0.22512 0.41308 0.0
H72 H 0.93429 0.24948 0.44681 0.0
H73 H 0.9115 0.14914 0.40218 0.0
H74 H 0.8203 0.18587 0.40846 0.0
H75 H 0.85604 0.17119 0.44267 0.0
O76 O 0.67471 0.98058 0.39823 0.0
H77 H 0.79656 0.97836 0.37478 0.0
H78 H 0.65074 0.89174 0.39176 0.0
H79 H 0.99018 0.22734 0.40581 0.0
H80 H 0.6809 0.10857 0.44365 0.0
H81 H 0.00194 0.27809 0.42826 0.0
H82 H 0.69952 0.18638 0.43078 0.0
O83 O 0.85721 0.06227 0.41458 0.0
H84 H 0.6364 0.89197 0.44428 0.0
H85 H 0.7544 0.89882 0.40671 0.0
H86 H 0.72169 0.83221 0.42542 0.0
H87 H 0.66216 0.82846 0.44436 0.0
H88 H 0.67048 0.95825 0.42549 0.0
H89 H 0.62937 0.83177 0.37135 0.0
H90 H 0.6928 0.84523 0.35246 0.0
O91 O 0.80817 0.99097 0.40249 0.0
C92 C 0.79861 0.08567 0.38574 0.0
C93 C 0.74904 0.91278 0.36245 0.0
C94 C 0.66619 0.86377 0.37203 0.0
N95 N 0.72497 0.93819 0.38452 0.0
C96 C 0.75999 0.94608 0.37412 0.0
C97 C 0.67846 0.89787 0.38354 0.0
C98 C 0.7018 0.87134 0.36144 0.0
C99 C 0.74084 0.1046 0.43313 0.0
N100 N 0.77937 0.1261 0.42335 0.0
C101 C 0.71155 0.1259 0.43596 0.0
C102 C 0.72197 0.16952 0.42871 0.0
C103 C 0.76138 0.19126 0.41877 0.0
C104 C 0.78981 0.16885 0.41619 0.0
C105 C 0.92955 0.22777 0.43696 0.0
C106 C 0.9162 0.17126 0.41191 0.0
C107 C 0.88538 0.18341 0.43457 0.0
N108 N 0.87907 0.15598 0.42212 0.0
C109 C 0.9609 0.21539 0.41393 0.0
C110 C 0.96749 0.24381 0.42655 0.0
C111 C 0.85002 0.0232 0.40792 0.0
C112 C 0.66215 0.89309 0.43605 0.0
C113 C 0.72862 0.89749 0.41495 0.0
C114 C 0.71014 0.85963 0.42549 0.0
C115 C 0.67669 0.85752 0.4361 0.0
N116 N 0.71413 0.93219 0.41496 0.0
C117 C 0.68141 0.93042 0.42534 0.0
Co118 Co 0.72682 0.81895 0.75252 0.0
Co119 Co 0.75864 0.74236 0.73378 0.0
O120 O 0.72647 0.75697 0.74983 0.0
C121 C 0.77273 0.8044 0.779 0.0
O122 O 0.79812 0.79348 0.7697 0.0
C123 C 0.6527 0.67097 0.73143 0.0
O124 O 0.64709 0.7096 0.73308 0.0
O125 O 0.73373 0.77126 0.71897 0.0
O126 O 0.71249 0.82144 0.73087 0.0
H127 H 0.86199 0.77875 0.68781 0.0
H128 H 0.66389 0.73292 0.7718 0.0
O129 O 0.74237 0.81728 0.77413 0.0
H130 H 0.54852 0.77297 0.74632 0.0
H131 H 0.68942 0.93571 0.78056 0.0
H132 H 0.76706 0.91336 0.73589 0.0
H133 H 0.6385 0.82286 0.74186 0.0
H134 H 0.68841 0.85712 0.77619 0.0
O135 O 0.69615 0.6765 0.73119 0.0
H136 H 0.82248 0.79833 0.70835 0.0
H137 H 0.76023 0.65149 0.72472 0.0
H138 H 0.7686 0.9924 0.73974 0.0
H139 H 0.57426 0.68226 0.77666 0.0
H140 H 0.72958 0.00394 0.76222 0.0
H141 H 0.5159 0.70209 0.76383 0.0
O142 O 0.79842 0.85791 0.74817 0.0
H143 H 0.74381 0.63503 0.77722 0.0
H144 H 0.85748 0.75372 0.74017 0.0
H145 H 0.88984 0.71936 0.75882 0.0
H146 H 0.83279 0.6595 0.7775 0.0
H147 H 0.71313 0.67068 0.75847 0.0
H148 H 0.79872 0.63015 0.70429 0.0
H149 H 0.85019 0.69412 0.68569 0.0
O150 O 0.82059 0.80885 0.73609 0.0
C151 C 0.71732 0.80131 0.71911 0.0
C152 C 0.83981 0.75062 0.69588 0.0
C153 C 0.80424 0.66719 0.70511 0.0
N154 N 0.78954 0.72622 0.71779 0.0
C155 C 0.81751 0.76154 0.70756 0.0
C156 C 0.78248 0.67944 0.71664 0.0
C157 C 0.83313 0.7031 0.69468 0.0
C158 C 0.63878 0.74214 0.76631 0.0
N159 N 0.65641 0.78101 0.75664 0.0
C160 C 0.58805 0.71318 0.76905 0.0
C161 C 0.55532 0.72428 0.76183 0.0
C162 C 0.5736 0.76403 0.752 0.0
C163 C 0.62456 0.79211 0.7495 0.0
C164 C 0.70641 0.93107 0.7707 0.0
C165 C 0.74961 0.91796 0.74562 0.0
C166 C 0.706 0.8867 0.76818 0.0
N167 N 0.72716 0.88053 0.75571 0.0
C168 C 0.75078 0.96286 0.74777 0.0
C169 C 0.72894 0.96933 0.7604 0.0
C170 C 0.83036 0.85063 0.74159 0.0
C171 C 0.76899 0.66093 0.7691 0.0
C172 C 0.83247 0.72777 0.74829 0.0
C173 C 0.85098 0.70837 0.7588 0.0
C174 C 0.81894 0.67474 0.76927 0.0
N175 N 0.78342 0.71398 0.74819 0.0
C176 C 0.75179 0.68108 0.75842 0.0
Co177 Co 0.90023 0.7236 0.08686 0.0
Co178 Co 0.01142 0.75579 0.06977 0.0
O179 O 0.9617 0.72234 0.08503 0.0
C180 C 0.95667 0.76698 0.11407 0.0
O181 O 0.99409 0.79281 0.10515 0.0
C182 C 0.9781 0.65007 0.06656 0.0
O183 O 0.93314 0.64339 0.06684 0.0
O184 O 0.9601 0.73198 0.05413 0.0
O185 O 0.88718 0.7116 0.06497 0.0
H186 H 0.08656 0.86227 0.02476 0.0
H187 H 0.9187 0.65786 0.10632 0.0
O188 O 0.91397 0.73697 0.10874 0.0
H189 H 0.76714 0.54678 0.07838 0.0
H190 H 0.74187 0.6853 0.11254 0.0
H191 H 0.85004 0.76663 0.06955 0.0
H192 H 0.80928 0.63723 0.07467 0.0
H193 H 0.8196 0.68368 0.10931 0.0
O194 O 0.01548 0.69375 0.06747 0.0
H195 H 0.02375 0.82116 0.04432 0.0
H196 H 0.10562 0.75834 0.06236 0.0
H197 H 0.77249 0.76884 0.07226 0.0
H198 H 0.87759 0.56768 0.11046 0.0
H199 H 0.71781 0.72795 0.09389 0.0
H200 H 0.80132 0.51148 0.09639 0.0
O201 O 0.93436 0.79572 0.08311 0.0
H202 H 0.09653 0.73761 0.1146 0.0
H203 H 0.09774 0.8542 0.07748 0.0
H204 H 0.16131 0.88509 0.09711 0.0
H205 H 0.16104 0.82656 0.11581 0.0
H206 H 0.03323 0.70845 0.09493 0.0
H207 H 0.16916 0.79845 0.04293 0.0
H208 H 0.15991 0.85102 0.02399 0.0
O209 O 0.00677 0.8176 0.07182 0.0
C210 C 0.9138 0.71659 0.05359 0.0
C211 C 0.0911 0.83961 0.03298 0.0
C212 C 0.13743 0.80374 0.04317 0.0
N213 N 0.06132 0.78783 0.05455 0.0
C214 C 0.05575 0.81639 0.04411 0.0
C215 C 0.10132 0.78106 0.05413 0.0
C216 C 0.13222 0.83324 0.03255 0.0
C217 C 0.88524 0.63368 0.10028 0.0
N218 N 0.8662 0.65277 0.09035 0.0
C219 C 0.86224 0.58263 0.10262 0.0
C220 C 0.81949 0.55111 0.0947 0.0
C221 C 0.8003 0.57089 0.08459 0.0
C222 C 0.82434 0.62211 0.08253 0.0
C223 C 0.76531 0.70311 0.10305 0.0
C224 C 0.8262 0.74838 0.07891 0.0
C225 C 0.80937 0.70237 0.10117 0.0
N226 N 0.83897 0.72455 0.08917 0.0
C227 C 0.78245 0.74993 0.08042 0.0
C228 C 0.75182 0.72704 0.09257 0.0
C229 C 0.9746 0.82768 0.07697 0.0
C230 C 0.09717 0.76343 0.10647 0.0
C231 C 0.09727 0.82856 0.08562 0.0
C232 C 0.13343 0.84623 0.09668 0.0
C233 C 0.13329 0.81336 0.10716 0.0
N234 N 0.062 0.77953 0.08501 0.0
C235 C 0.06153 0.7471 0.09527 0.0
Co236 Co 0.17781 0.90292 0.42006 0.0
Co237 Co 0.25461 0.01151 0.40135 0.0
O238 O 0.23981 0.96477 0.41744 0.0
C239 C 0.19182 0.96315 0.44654 0.0
O240 O 0.2026 -0.00054 0.43724 0.0
C241 C 0.32719 0.97847 0.39933 0.0
O242 O 0.28898 0.93384 0.40093 0.0
O243 O 0.22673 0.95758 0.38656 0.0
O244 O 0.17566 0.88626 0.39841 0.0
H245 H 0.2188 0.07739 0.35505 0.0
H246 H 0.26364 0.92616 0.43944 0.0
O247 O 0.17918 0.91995 0.44167 0.0
H248 H 0.22427 0.77105 0.41385 0.0
H249 H 0.06104 0.7481 0.44794 0.0
H250 H 0.08356 0.84858 0.40335 0.0
H251 H 0.17425 0.81088 0.40937 0.0
H252 H 0.13955 0.82601 0.44367 0.0
O253 O 0.32091 0.01591 0.39902 0.0
H254 H 0.19915 0.01841 0.37564 0.0
H255 H 0.34517 0.1048 0.39249 0.0
H256 H 0.00461 0.77075 0.4071 0.0
H257 H 0.31442 0.88743 0.44431 0.0
H258 H 0.99299 0.71994 0.42954 0.0
H259 H 0.29495 0.8094 0.43143 0.0
O260 O 0.13867 0.93534 0.41566 0.0
H261 H 0.36001 0.10499 0.445 0.0
H262 H 0.24185 0.09828 0.40751 0.0
H263 H 0.27496 0.16506 0.42615 0.0
H264 H 0.33457 0.16874 0.44505 0.0
H265 H 0.32555 0.03854 0.42627 0.0
H266 H 0.36657 0.16455 0.37201 0.0
H267 H 0.30304 0.15109 0.35315 0.0
O268 O 0.18778 0.00614 0.40336 0.0
C269 C 0.19645 0.91112 0.38669 0.0
C270 C 0.24673 0.08377 0.36323 0.0
C271 C 0.3297 0.13265 0.37274 0.0
N272 N 0.27084 0.05848 0.38532 0.0
C273 C 0.23577 0.0506 0.37494 0.0
C274 C 0.31741 0.09868 0.38429 0.0
C275 C 0.29403 0.12508 0.36216 0.0
C276 C 0.25457 0.8919 0.43392 0.0
N277 N 0.21582 0.87061 0.42421 0.0
C278 C 0.2836 0.87026 0.43667 0.0
C279 C 0.2727 0.82652 0.42942 0.0
C280 C 0.23307 0.805 0.41955 0.0
C281 C 0.20491 0.82774 0.41705 0.0
C282 C 0.06572 0.76984 0.43809 0.0
C283 C 0.07892 0.82642 0.41306 0.0
C284 C 0.11004 0.81399 0.43563 0.0
N285 N 0.11626 0.84145 0.42319 0.0
C286 C 0.03407 0.7825 0.41516 0.0
C287 C 0.02755 0.75405 0.42776 0.0
C288 C 0.14598 0.97429 0.4089 0.0
C289 C 0.33422 0.1039 0.43679 0.0
C290 C 0.26767 0.09958 0.41572 0.0
C291 C 0.28638 0.13753 0.42623 0.0
C292 C 0.31986 0.13961 0.43682 0.0
N293 N 0.28199 0.06474 0.41575 0.0
C294 C 0.31475 0.06648 0.42611 0.0
Co295 Co 0.27862 0.18466 0.75253 0.0
Co296 Co 0.24236 0.25888 0.73454 0.0
O297 O 0.2763 0.24528 0.75024 0.0
C298 C 0.23105 0.19505 0.77928 0.0
O299 O 0.20297 0.20252 0.77006 0.0
C300 C 0.34749 0.33216 0.73177 0.0
O301 O 0.35403 0.294 0.73306 0.0
O302 O 0.26728 0.23111 0.71937 0.0
O303 O 0.29262 0.1835 0.73077 0.0
H304 H 0.13598 0.22077 0.68917 0.0
H305 H 0.34 0.27095 0.77193 0.0
O306 O 0.26362 0.18544 0.77425 0.0
H307 H 0.45834 0.23717 0.74556 0.0
H308 H 0.32242 0.07117 0.77976 0.0
H309 H 0.24158 0.09134 0.73549 0.0
H310 H 0.36846 0.18479 0.74134 0.0
H311 H 0.31983 0.14813 0.77583 0.0
O312 O 0.30368 0.32573 0.73184 0.0
H313 H 0.17782 0.2023 0.70928 0.0
H314 H 0.23735 0.34838 0.72604 0.0
H315 H 0.24362 0.01393 0.73891 0.0
H316 H 0.4295 0.32402 0.77655 0.0
H317 H 0.28426 0.00349 0.76118 0.0
H318 H 0.48936 0.30737 0.76328 0.0
O319 O 0.20688 0.14346 0.74827 0.0
H320 H 0.25615 0.36247 0.77886 0.0
H321 H 0.14281 0.24452 0.74161 0.0
H322 H 0.10967 0.2759 0.76094 0.0
H323 H 0.16653 0.33529 0.77974 0.0
H324 H 0.28765 0.32993 0.75939 0.0
H325 H 0.19646 0.3686 0.70604 0.0
H326 H 0.14519 0.30445 0.68746 0.0
O327 O 0.18193 0.19154 0.73692 0.0
C328 C 0.28528 0.2024 0.71912 0.0
C329 C 0.15806 0.24897 0.69723 0.0
C330 C 0.19207 0.33197 0.70669 0.0
N331 N 0.20955 0.27409 0.71889 0.0
C332 C 0.18168 0.23868 0.70867 0.0
C333 C 0.21518 0.32035 0.71797 0.0
C334 C 0.16329 0.29595 0.69627 0.0
C335 C 0.36577 0.26309 0.76624 0.0
N336 N 0.34902 0.22459 0.75646 0.0
C337 C 0.41643 0.29342 0.76886 0.0
C338 C 0.44999 0.28409 0.76138 0.0
C339 C 0.43261 0.24473 0.75143 0.0
C340 C 0.3817 0.21523 0.74908 0.0
C341 C 0.3047 0.07532 0.76999 0.0
C342 C 0.25965 0.0872 0.74515 0.0
C343 C 0.30305 0.11875 0.76773 0.0
N344 N 0.28098 0.12433 0.75538 0.0
C345 C 0.26054 0.04323 0.74706 0.0
C346 C 0.2833 0.03737 0.75956 0.0
C347 C 0.17382 0.1498 0.74201 0.0
C348 C 0.23104 0.33673 0.7707 0.0
C349 C 0.16777 0.27041 0.74975 0.0
C350 C 0.14881 0.28807 0.76065 0.0
C351 C 0.18074 0.32141 0.7712 0.0
N352 N 0.21715 0.28565 0.74933 0.0
C353 C 0.2487 0.31837 0.75961 0.0
Co354 Co 0.72246 0.89971 0.58215 0.0
Co355 Co 0.75592 0.01003 0.59998 0.0
O356 O 0.72206 0.96146 0.58448 0.0
C357 C 0.76605 0.95777 0.55518 0.0
O358 O 0.79217 0.99464 0.56425 0.0
C359 C 0.65033 0.97675 0.60351 0.0
O360 O 0.64379 0.93189 0.60276 0.0
O361 O 0.73197 0.95771 0.6153 0.0
O362 O 0.71033 0.88519 0.60398 0.0
H363 H 0.86309 0.08158 0.64506 0.0
H364 H 0.65741 0.92054 0.56313 0.0
O365 O 0.7359 0.91483 0.56034 0.0
H366 H 0.54503 0.76762 0.59031 0.0
H367 H 0.68237 0.74264 0.55534 0.0
H368 H 0.76451 0.84745 0.59888 0.0
H369 H 0.63545 0.80846 0.59395 0.0
H370 H 0.68175 0.82064 0.55921 0.0
O371 O 0.69398 0.01428 0.60268 0.0
H372 H 0.8215 0.02023 0.62516 0.0
H373 H 0.75914 0.10394 0.60823 0.0
H374 H 0.76573 0.7696 0.59552 0.0
H375 H 0.56728 0.88076 0.55909 0.0
H376 H 0.72444 0.71661 0.57361 0.0
H377 H 0.51043 0.80383 0.57278 0.0
O378 O 0.79453 0.93289 0.58588 0.0
H379 H 0.73802 0.09875 0.55605 0.0
H380 H 0.85453 0.09638 0.5925 0.0
H381 H 0.88561 0.16134 0.57329 0.0
H382 H 0.82711 0.16286 0.55492 0.0
H383 H 0.70866 0.03407 0.57531 0.0
H384 H 0.79972 0.16604 0.62802 0.0
H385 H 0.8523 0.15512 0.64657 0.0
O386 O 0.81748 0.00494 0.59755 0.0
C387 C 0.71587 0.91126 0.61554 0.0
C388 C 0.84043 0.08685 0.637 0.0
C389 C 0.80481 0.13422 0.62746 0.0
N390 N 0.78838 0.05882 0.61547 0.0
C391 C 0.81694 0.05234 0.62569 0.0
C392 C 0.78187 0.09892 0.6163 0.0
C393 C 0.83432 0.12808 0.63786 0.0
C394 C 0.63294 0.88677 0.569 0.0
N395 N 0.65166 0.86663 0.57868 0.0
C396 C 0.58193 0.86454 0.56672 0.0
C397 C 0.55004 0.82141 0.57442 0.0
C398 C 0.56943 0.80109 0.58427 0.0
C399 C 0.62064 0.82439 0.58629 0.0
C400 C 0.70036 0.76534 0.56495 0.0
C401 C 0.74609 0.82435 0.5894 0.0
C402 C 0.70018 0.80954 0.56719 0.0
N403 N 0.72259 0.83821 0.57934 0.0
C404 C 0.74708 0.78042 0.58751 0.0
C405 C 0.72396 0.75075 0.57521 0.0
C406 C 0.82695 0.97262 0.59214 0.0
C407 C 0.76382 0.0986 0.56403 0.0
C408 C 0.82891 0.0967 0.5845 0.0
C409 C 0.84669 0.13364 0.57368 0.0
C410 C 0.81384 0.13451 0.56338 0.0
N411 N 0.7798 0.06166 0.58507 0.0
C412 C 0.74738 0.06218 0.57499 0.0
Co413 Co 0.82272 0.72392 0.91604 0.0
Co414 Co 0.74389 0.75441 0.93402 0.0
O415 O 0.75955 0.7214 0.91846 0.0
C416 C 0.80572 0.7643 0.88881 0.0
O417 O 0.79426 0.79021 0.89772 0.0
C418 C 0.67169 0.64857 0.93726 0.0
O419 O 0.71007 0.64205 0.9369 0.0
O420 O 0.77211 0.73031 0.94929 0.0
O421 O 0.82669 0.71386 0.93795 0.0
H422 H 0.77679 0.85901 0.97954 0.0
H423 H 0.73676 0.65524 0.89759 0.0
O424 O 0.81953 0.7352 0.89414 0.0
H425 H 0.78369 0.54904 0.92547 0.0
H426 H 0.94207 0.68671 0.88946 0.0
H427 H 0.91805 0.77032 0.93234 0.0
H428 H 0.83092 0.63984 0.92845 0.0
H429 H 0.86221 0.6835 0.89337 0.0
O430 O 0.67789 0.69218 0.9364 0.0
H431 H 0.79777 0.81862 0.95959 0.0
H432 H 0.65251 0.75671 0.94198 0.0
H433 H 0.99837 0.77415 0.92894 0.0
H434 H 0.6887 0.56464 0.8942 0.0
H435 H 0.01074 0.73212 0.90737 0.0
H436 H 0.71202 0.5109 0.90824 0.0
O437 O 0.8597 0.79642 0.91908 0.0
H438 H 0.63867 0.7371 0.88976 0.0
H439 H 0.75563 0.85293 0.92676 0.0
H440 H 0.7222 0.88419 0.90748 0.0
H441 H 0.66318 0.82605 0.88883 0.0
H442 H 0.67353 0.70755 0.90909 0.0
H443 H 0.62977 0.7961 0.96181 0.0
H444 H 0.69225 0.84786 0.98072 0.0
O445 O 0.8103 0.81653 0.93189 0.0
C446 C 0.80457 0.71693 0.94951 0.0
C447 C 0.74932 0.83673 0.97132 0.0
C448 C 0.66677 0.80136 0.96138 0.0
N449 N 0.72657 0.78587 0.94955 0.0
C450 C 0.76104 0.81394 0.95998 0.0
C451 C 0.67983 0.77911 0.9502 0.0
C452 C 0.70185 0.83041 0.97199 0.0
C453 C 0.74743 0.63212 0.90362 0.0
N454 N 0.78677 0.65279 0.91313 0.0
C455 C 0.71996 0.58084 0.90171 0.0
C456 C 0.73302 0.5507 0.9096 0.0
C457 C 0.77321 0.57208 0.91928 0.0
C458 C 0.79977 0.62349 0.92093 0.0
C459 C 0.93708 0.70505 0.89893 0.0
C460 C 0.92306 0.75162 0.923 0.0
C461 C 0.892 0.70341 0.90118 0.0
N462 N 0.88538 0.72624 0.91316 0.0
C463 C 0.96866 0.75407 0.9211 0.0
C464 C 0.97559 0.73052 0.90898 0.0
C465 C 0.85153 0.82762 0.92573 0.0
C466 C 0.66419 0.76275 0.89787 0.0
C467 C 0.73011 0.82745 0.91865 0.0
C468 C 0.7112 0.84534 0.90778 0.0
C469 C 0.67804 0.81269 0.89733 0.0
N470 N 0.71633 0.77842 0.91909 0.0
C471 C 0.68389 0.74619 0.90887 0.0
Co472 Co 0.0906 0.82044 0.25022 0.0
Co473 Co 0.98202 0.74326 0.26887 0.0
O474 O 0.02872 0.75846 0.25275 0.0
C475 C 0.03007 0.80741 0.22387 0.0
O476 O 0.99382 0.79626 0.23323 0.0
C477 C 0.01589 0.67132 0.2707 0.0
O478 O 0.06031 0.70983 0.26908 0.0
O479 O 0.03597 0.77125 0.28366 0.0
O480 O 0.10749 0.82175 0.27182 0.0
H481 H 0.9157 0.77791 0.31527 0.0
H482 H 0.06689 0.73527 0.23051 0.0
O483 O 0.07332 0.81991 0.22867 0.0
H484 H 0.22229 0.7734 0.25569 0.0
H485 H 0.24509 0.93809 0.22237 0.0
H486 H 0.14541 0.91396 0.26725 0.0
H487 H 0.18268 0.8234 0.26058 0.0
H488 H 0.16714 0.85952 0.22652 0.0
O489 O 0.97817 0.67714 0.2711 0.0
H490 H 0.9747 0.79819 0.29465 0.0
H491 H 0.88915 0.65222 0.2777 0.0
H492 H 0.22329 0.99295 0.26363 0.0
H493 H 0.10539 0.68452 0.22522 0.0
H494 H 0.2737 0.00539 0.24104 0.0
H495 H 0.18356 0.70337 0.2379 0.0
O496 O 0.05835 0.85948 0.25494 0.0
H497 H 0.88887 0.63816 0.22512 0.0
H498 H 0.89481 0.75537 0.26283 0.0
H499 H 0.82797 0.72215 0.24419 0.0
H500 H 0.82469 0.66303 0.22519 0.0
H501 H 0.95534 0.6727 0.24386 0.0
H502 H 0.82939 0.63019 0.2982 0.0
H503 H 0.84242 0.69338 0.31713 0.0
O504 O 0.98698 0.80995 0.26694 0.0
C505 C 0.08253 0.80111 0.28354 0.0
C506 C 0.90951 0.75013 0.30706 0.0
C507 C 0.8611 0.66719 0.29749 0.0
N508 N 0.93505 0.72656 0.28492 0.0
C509 C 0.94269 0.76144 0.29533 0.0
C510 C 0.89508 0.67984 0.28592 0.0
C511 C 0.86843 0.70267 0.3081 0.0
C512 C 0.10122 0.74407 0.23593 0.0
N513 N 0.12272 0.78247 0.24576 0.0
C514 C 0.12272 0.71506 0.23295 0.0
C515 C 0.16654 0.72561 0.24009 0.0
C516 C 0.18828 0.76488 0.25008 0.0
C517 C 0.16567 0.79303 0.25281 0.0
C518 C 0.22353 0.93306 0.23228 0.0
C519 C 0.16739 0.91895 0.25747 0.0
C520 C 0.17936 0.8887 0.23467 0.0
N521 N 0.15211 0.88203 0.24719 0.0
C522 C 0.21134 0.96382 0.25544 0.0
C523 C 0.23957 0.9708 0.24276 0.0
C524 C 0.01918 0.85198 0.2616 0.0
C525 C 0.88979 0.66374 0.23339 0.0
C526 C 0.89367 0.72975 0.25457 0.0
C527 C 0.85569 0.71098 0.24407 0.0
C528 C 0.85384 0.67777 0.23341 0.0
N529 N 0.92875 0.71575 0.25447 0.0
C530 C 0.92722 0.68326 0.24406 0.0
Co531 Co 0.27757 0.09197 0.58361 0.0
Co532 Co 0.2407 0.97955 0.60054 0.0
O533 O 0.27621 0.02926 0.58544 0.0
C534 C 0.23312 0.03605 0.55636 0.0
O535 O 0.20661 0.99874 0.56525 0.0
C536 C 0.3458 0.01148 0.60464 0.0
O537 O 0.35288 0.05657 0.60416 0.0
O538 O 0.26342 0.03055 0.61625 0.0
O539 O 0.2901 0.10479 0.60547 0.0
H540 H 0.12927 0.90484 0.64463 0.0
H541 H 0.34094 0.07013 0.56415 0.0
O542 O 0.26378 0.07849 0.56173 0.0
H543 H 0.45623 0.22022 0.592 0.0
H544 H 0.32123 0.25175 0.55787 0.0
H545 H 0.23855 0.14548 0.60111 0.0
H546 H 0.366 0.18124 0.59571 0.0
H547 H 0.31944 0.1723 0.56106 0.0
O548 O 0.30202 0.97433 0.60351 0.0
H549 H 0.17301 0.96776 0.62527 0.0
H550 H 0.23584 0.88453 0.60831 0.0
H551 H 0.23976 0.22478 0.59843 0.0
H552 H 0.43087 0.10807 0.56003 0.0
H553 H 0.28134 0.27851 0.57668 0.0
H554 H 0.48918 0.18357 0.57405 0.0
O555 O 0.20547 0.0602 0.5874 0.0
H556 H 0.26138 0.89407 0.55623 0.0
H557 H 0.14243 0.89448 0.59211 0.0
H558 H 0.1125 0.83122 0.57241 0.0
H559 H 0.17222 0.83069 0.55432 0.0
H560 H 0.2896 0.95706 0.57597 0.0
H561 H 0.19306 0.82084 0.62756 0.0
H562 H 0.13917 0.83073 0.64585 0.0
O563 O 0.17993 0.98567 0.59781 0.0
C564 C 0.28152 0.07732 0.6169 0.0
C565 C 0.15249 0.90001 0.63668 0.0
C566 C 0.18836 0.8529 0.62712 0.0
N567 N 0.20652 0.92953 0.6156 0.0
C568 C 0.1772 0.93542 0.62567 0.0
C569 C 0.21254 0.8891 0.61627 0.0
C570 C 0.15811 0.85847 0.63737 0.0
C571 C 0.36606 0.10329 0.57017 0.0
N572 N 0.34826 0.12367 0.58007 0.0
C573 C 0.41695 0.12448 0.56784 0.0
C574 C 0.44965 0.1668 0.57573 0.0
C575 C 0.43119 0.18738 0.58581 0.0
C576 C 0.38008 0.16513 0.58787 0.0
C577 C 0.30309 0.22872 0.56741 0.0
C578 C 0.25701 0.16885 0.59168 0.0
C579 C 0.30188 0.18368 0.56926 0.0
N580 N 0.27928 0.15456 0.58132 0.0
C581 C 0.25744 0.21361 0.59019 0.0
C582 C 0.28072 0.24371 0.57797 0.0
C583 C 0.17192 0.01968 0.59302 0.0
C584 C 0.23504 0.89379 0.56408 0.0
C585 C 0.16859 0.89458 0.58424 0.0
C586 C 0.15146 0.8586 0.57314 0.0
C587 C 0.18499 0.85829 0.563 0.0
N588 N 0.21775 0.92921 0.58524 0.0
C589 C 0.25083 0.92925 0.57532 0.0
Co590 Co 0.17939 0.27765 0.91589 0.0
Co591 Co 0.25412 0.24296 0.93432 0.0
O592 O 0.24075 0.27698 0.91858 0.0
C593 C 0.19336 0.2337 0.88893 0.0
O594 O 0.20052 0.20523 0.89808 0.0
C595 C 0.32904 0.3478 0.93744 0.0
O596 O 0.29154 0.35567 0.9369 0.0
O597 O 0.22745 0.26935 0.94941 0.0
O598 O 0.17526 0.28852 0.93775 0.0
H599 H 0.21652 0.13881 0.98017 0.0
H600 H 0.26721 0.34329 0.89759 0.0
O601 O 0.18307 0.26569 0.89406 0.0
H602 H 0.22608 0.45502 0.92479 0.0
H603 H 0.0662 0.32138 0.88844 0.0
H604 H 0.08365 0.23548 0.93188 0.0
H605 H 0.17536 0.36446 0.9279 0.0
H606 H 0.1439 0.32057 0.8928 0.0
O607 O 0.3215 0.30366 0.93666 0.0
H608 H 0.19819 0.18054 0.95998 0.0
H609 H 0.34299 0.23645 0.94258 0.0
H610 H 0.00545 0.23567 0.92802 0.0
H611 H 0.31871 0.43359 0.89407 0.0
H612 H 0.99639 0.27887 0.90617 0.0
H613 H 0.29834 0.49012 0.90777 0.0
O614 O 0.13946 0.20529 0.91914 0.0
H615 H 0.35557 0.25374 0.88977 0.0
H616 H 0.23825 0.14258 0.92751 0.0
H617 H 0.26811 0.10807 0.90816 0.0
H618 H 0.32715 0.16382 0.8891 0.0
H619 H 0.32453 0.28662 0.90926 0.0
H620 H 0.36309 0.19565 0.96264 0.0
H621 H 0.2995 0.14624 0.98157 0.0
O622 O 0.18638 0.1826 0.93223 0.0
C623 C 0.19635 0.28451 0.94942 0.0
C624 C 0.24447 0.16006 0.97195 0.0
C625 C 0.32676 0.19202 0.96212 0.0
N626 N 0.2693 0.21038 0.95004 0.0
C627 C 0.23423 0.1836 0.96047 0.0
C628 C 0.31521 0.21508 0.95081 0.0
C629 C 0.29105 0.16429 0.97274 0.0
C630 C 0.2578 0.36763 0.90347 0.0
N631 N 0.21816 0.34864 0.91286 0.0
C632 C 0.28723 0.41873 0.90148 0.0
C633 C 0.27582 0.45043 0.90919 0.0
C634 C 0.23529 0.43077 0.91875 0.0
C635 C 0.20675 0.37948 0.92047 0.0
C636 C 0.06975 0.30255 0.89802 0.0
C637 C 0.08009 0.25469 0.92241 0.0
C638 C 0.1136 0.30192 0.90054 0.0
N639 N 0.11841 0.27847 0.91267 0.0
C640 C 0.03568 0.25451 0.92025 0.0
C641 C 0.0306 0.27871 0.90798 0.0
C642 C 0.14569 0.17312 0.926 0.0
C643 C 0.32998 0.2291 0.89804 0.0
C644 C 0.26399 0.16706 0.91927 0.0
C645 C 0.2808 0.14733 0.90834 0.0
C646 C 0.31395 0.17863 0.89766 0.0
N647 N 0.27986 0.2166 0.91956 0.0
C648 C 0.31246 0.24755 0.90915 0.0
Co649 Co 0.90404 0.18358 0.24937 0.0
Co650 Co 0.01193 0.25842 0.26857 0.0
O651 O 0.96634 0.24465 0.25226 0.0
C652 C 0.96491 0.19602 0.22312 0.0
O653 O -0.00024 0.20341 0.23262 0.0
C654 C 0.98013 0.33183 0.27032 0.0
O655 O 0.93547 0.29372 0.26869 0.0
O656 O 0.95727 0.23116 0.28314 0.0
O657 O 0.8864 0.1808 0.27096 0.0
H658 H 0.07423 0.22063 0.31528 0.0
H659 H 0.92978 0.27055 0.2302 0.0
O660 O 0.92216 0.18582 0.22782 0.0
H661 H 0.7743 0.23312 0.2552 0.0
H662 H 0.74995 0.07014 0.22068 0.0
H663 H 0.84738 0.08878 0.26569 0.0
H664 H 0.81244 0.18158 0.25974 0.0
H665 H 0.82846 0.1476 0.2254 0.0
O666 O 0.01742 0.32531 0.27076 0.0
H667 H 0.01642 0.20209 0.29443 0.0
H668 H 0.10561 0.34792 0.27774 0.0
H669 H 0.76893 0.01083 0.26148 0.0
H670 H 0.89274 0.32283 0.22527 0.0
H671 H 0.71964 0.00116 0.23883 0.0
H672 H 0.81455 0.30434 0.23786 0.0
O673 O 0.93506 0.14316 0.25388 0.0
H674 H 0.1076 0.36146 0.2248 0.0
H675 H 0.09783 0.24382 0.26298 0.0
H676 H 0.16481 0.27494 0.24441 0.0
H677 H 0.16995 0.33418 0.22514 0.0
H678 H 0.04107 0.32917 0.24352 0.0
H679 H 0.16422 0.36823 0.29848 0.0
H680 H 0.14876 0.30424 0.3174 0.0
O681 O 0.00517 0.19099 0.26668 0.0
C682 C 0.91075 0.20114 0.2828 0.0
C683 C 0.08147 0.24877 0.30708 0.0
C684 C 0.13195 0.33164 0.29766 0.0
N685 N 0.05795 0.27375 0.28482 0.0
C686 C 0.04897 0.23843 0.29522 0.0
C687 C 0.09862 0.31997 0.28596 0.0
C688 C 0.12325 0.29571 0.30827 0.0
C689 C 0.89542 0.2619 0.23558 0.0
N690 N 0.8731 0.22285 0.24516 0.0
C691 C 0.87475 0.29178 0.2328 0.0
C692 C 0.83092 0.28143 0.23988 0.0
C693 C 0.80834 0.2415 0.24962 0.0
C694 C 0.83012 0.21247 0.25216 0.0
C695 C 0.77101 0.07396 0.23061 0.0
C696 C 0.8259 0.08499 0.25588 0.0
C697 C 0.81549 0.11769 0.23333 0.0
N698 N 0.84211 0.12285 0.24589 0.0
C699 C 0.78162 0.0407 0.25352 0.0
C700 C 0.75402 0.03528 0.2408 0.0
C701 C 0.9732 0.14955 0.26095 0.0
C702 C 0.10584 0.33579 0.23317 0.0
C703 C 0.09987 0.26962 0.25463 0.0
C704 C 0.13789 0.28715 0.24416 0.0
C705 C 0.14077 0.32041 0.23336 0.0
N706 N 0.06579 0.28491 0.25438 0.0
C707 C 0.0684 0.31756 0.24384 0.0
H708 H 0.90447 0.18858 0.20001 0.0
H709 H 0.05221 0.21772 0.20995 0.0
H710 H 0.92499 0.20002 0.17369 0.0
H711 H 0.07221 0.22782 0.18369 0.0
H712 H 0.10632 0.28945 0.13635 0.0
H713 H 0.0871 0.28202 0.16282 0.0
H714 H 0.94087 0.15898 0.15378 0.0
H715 H 0.95945 0.16711 0.12751 0.0
C716 C 0.94117 0.19708 0.19658 0.0
C717 C 0.97653 0.2019 0.20709 0.0
C718 C 0.95293 0.20347 0.18149 0.0
C719 C 0.00027 0.21473 0.17654 0.0
C720 C 0.03564 0.21982 0.18709 0.0
C721 C 0.02395 0.21354 0.20216 0.0
C722 C 0.07016 0.2608 0.14005 0.0
C723 C 0.03453 0.22886 0.12981 0.0
C724 C 0.05915 0.2564 0.15521 0.0
C725 C 0.01231 0.21998 0.16044 0.0
C726 C 0.97696 0.18799 0.15016 0.0
C727 C 0.98787 0.19242 0.13506 0.0
H728 H 0.74353 0.94615 0.45874 0.0
H729 H 0.85312 0.09767 0.46843 0.0
H730 H 0.73228 0.92731 0.485 0.0
H731 H 0.84501 0.07833 0.49479 0.0
H732 H 0.75203 0.89375 0.53249 0.0
H733 H 0.76336 0.91252 0.50606 0.0
H734 H 0.7972 0.06241 0.5154 0.0
H735 H 0.78958 0.04428 0.54168 0.0
C736 C 0.76576 0.97532 0.46654 0.0
C737 C 0.79916 0.0234 0.46157 0.0
C738 C 0.75967 0.96443 0.48166 0.0
C739 C 0.7878 0.00106 0.49222 0.0
C740 C 0.82174 0.04919 0.48713 0.0
C741 C 0.82682 0.06037 0.47199 0.0
C742 C 0.76199 0.93064 0.5288 0.0
C743 C 0.77022 0.9676 0.5391 0.0
C744 C 0.7682 0.94149 0.51363 0.0
C745 C 0.78145 0.98924 0.50841 0.0
C746 C 0.78842 0.02567 0.51885 0.0
C747 C 0.78354 0.01516 0.53398 0.0
H748 H 0.75674 0.85219 0.80185 0.0
H749 H 0.79954 0.74331 0.79228 0.0
H750 H 0.76669 0.84338 0.82824 0.0
H751 H 0.80602 0.73149 0.81858 0.0
H752 H 0.74226 0.78628 0.87492 0.0
H753 H 0.73306 0.79417 0.84857 0.0
H754 H 0.85093 0.76253 0.83992 0.0
H755 H 0.85719 0.75104 0.86641 0.0
C756 C 0.76768 0.82592 0.80544 0.0
C757 C 0.77754 0.79862 0.79504 0.0
C758 C 0.77304 0.82043 0.82059 0.0
C759 C 0.78705 0.78646 0.82572 0.0
C760 C 0.79629 0.75881 0.81519 0.0
C761 C 0.79217 0.76526 0.80006 0.0
C762 C 0.76599 0.78074 0.86735 0.0
C763 C 0.80045 0.76807 0.87269 0.0
C764 C 0.76112 0.78579 0.85219 0.0
C765 C 0.79156 0.77962 0.84193 0.0
C766 C 0.82613 0.76682 0.84735 0.0
C767 C 0.83006 0.76049 0.86256 0.0
H768 H 0.04242 0.79043 0.128 0.0
H769 H 0.89163 0.75343 0.13643 0.0
H770 H 0.0595 0.7987 0.15433 0.0
H771 H 0.90937 0.7654 0.16293 0.0
H772 H 0.94199 0.74649 0.21061 0.0
H773 H 0.92355 0.73496 0.18431 0.0
H774 H 0.07474 0.84753 0.17466 0.0
H775 H 0.09366 0.85597 0.20103 0.0
C776 C 0.01301 0.78463 0.13554 0.0
C777 C 0.96571 0.77132 0.13019 0.0
C778 C 0.02292 0.78991 0.1507 0.0
C779 C 0.98614 0.78336 0.16095 0.0
C780 C 0.9386 0.77 0.15551 0.0
C781 C 0.92835 0.7634 0.1403 0.0
C782 C 0.97127 0.76866 0.20283 0.0
C783 C 0.01931 0.80204 0.20784 0.0
C784 C 0.96061 0.76238 0.18769 0.0
C785 C 0.99747 0.79026 0.17716 0.0
C786 C 0.04547 0.82438 0.1823 0.0
C787 C 0.0564 0.82966 0.19745 0.0
H788 H 0.20931 0.95022 0.54244 0.0
H789 H 0.24732 0.1013 0.534 0.0
H790 H 0.20109 0.93319 0.51611 0.0
H791 H 0.23539 0.08364 0.5075 0.0
H792 H 0.25345 0.05096 0.45982 0.0
H793 H 0.26545 0.06923 0.48611 0.0
H794 H 0.15241 0.91822 0.49577 0.0
H795 H 0.14353 0.89945 0.46938 0.0
C796 C 0.21533 0.97971 0.53489 0.0
C797 C 0.2289 0.02707 0.54024 0.0
C798 C 0.21009 0.96982 0.51973 0.0
C799 C 0.21692 0.00671 0.50948 0.0
C800 C 0.23057 0.05431 0.51492 0.0
C801 C 0.23714 0.06454 0.53013 0.0
C802 C 0.2313 0.02168 0.4676 0.0
C803 C 0.19763 0.97374 0.46258 0.0
C804 C 0.23784 0.03225 0.48273 0.0
C805 C 0.20993 0.9954 0.49327 0.0
C806 C 0.17559 0.94747 0.48813 0.0
C807 C 0.17006 0.93663 0.47297 0.0
H808 H 0.16506 0.2148 0.79302 0.0
H809 H 0.28631 0.18892 0.80198 0.0
H810 H 0.15685 0.22525 0.81933 0.0
H811 H 0.27889 0.20071 0.8284 0.0
H812 H 0.21422 0.16864 0.87516 0.0
H813 H 0.22401 0.16014 0.84885 0.0
H814 H 0.19724 0.28073 0.83976 0.0
H815 H 0.18607 0.28845 0.86623 0.0
C816 C 0.19009 0.2114 0.80061 0.0
C817 C 0.22616 0.20064 0.79539 0.0
C818 C 0.18564 0.21789 0.81571 0.0
C819 C 0.21723 0.21395 0.82602 0.0
C820 C 0.25348 0.20336 0.8208 0.0
C821 C 0.25787 0.19674 0.80565 0.0
C822 C 0.21025 0.19336 0.86758 0.0
C823 C 0.19907 0.22911 0.87282 0.0
C824 C 0.21634 0.18872 0.85246 0.0
C825 C 0.21159 0.2198 0.84215 0.0
C826 C 0.20056 0.25574 0.84738 0.0
C827 C 0.19434 0.26033 0.86256 0.0
H828 H 0.0593 0.31972 0.02941 0.0
H829 H 0.16711 0.28027 0.04366 0.0
H830 H 0.08994 0.32983 0.00415 0.0
H831 H 0.19621 0.28762 0.01826 0.0
H832 H 0.25837 0.32527 0.9728 0.0
H833 H 0.23737 0.33649 0.99788 0.0
H834 H 0.08552 0.28044 0.98423 0.0
H835 H 0.10762 0.27201 0.95893 0.0
C836 C 0.08978 0.31339 0.02712 0.0
C837 C 0.11065 0.29888 0.03848 0.0
C838 C 0.1071 0.31877 0.0126 0.0
C839 C 0.14513 0.30886 0.00901 0.0
C840 C 0.16732 0.29626 0.02054 0.0
C841 C 0.15057 0.29181 0.03515 0.0
C842 C 0.22067 0.31616 0.97515 0.0
C843 C 0.18448 0.29745 0.96397 0.0
C844 C 0.20849 0.32216 0.98957 0.0
C845 C 0.15952 0.30862 0.99325 0.0
C846 C 0.12377 0.29188 0.98186 0.0
C847 C 0.13628 0.28682 0.96733 0.0
H848 H 0.88514 0.16592 0.37652 0.0
H849 H 0.7367 0.06135 0.36219 0.0
H850 H 0.90659 0.19748 0.35131 0.0
H851 H 0.75698 0.09438 0.33717 0.0
H852 H 0.93187 0.26258 0.30631 0.0
H853 H 0.89912 0.24072 0.33134 0.0
H854 H 0.80138 0.08997 0.31703 0.0
H855 H 0.83254 0.11292 0.29183 0.0
C856 C 0.85676 0.15067 0.36805 0.0
C857 C 0.80953 0.11086 0.37125 0.0
C858 C 0.86888 0.16882 0.35357 0.0
C859 C 0.83367 0.14811 0.34206 0.0
C860 C 0.78547 0.11037 0.34559 0.0
C861 C 0.7737 0.09169 0.35997 0.0
C862 C 0.90264 0.22499 0.3085 0.0
C863 C 0.8849 0.18929 0.29718 0.0
C864 C 0.88418 0.21231 0.32288 0.0
C865 C 0.84817 0.16335 0.32636 0.0
C866 C 0.82868 0.12822 0.31481 0.0
C867 C 0.84657 0.14121 0.30033 0.0
H868 H 0.7276 0.8893 0.70974 0.0
H869 H 0.67741 0.73927 0.69573 0.0
H870 H 0.71902 0.91129 0.68444 0.0
H871 H 0.66614 0.76014 0.67063 0.0
H872 H 0.7241 0.8325 0.62508 0.0
H873 H 0.71601 0.8027 0.65045 0.0
H874 H 0.66927 0.90563 0.6644 0.0
H875 H 0.68001 0.93694 0.6392 0.0
C876 C 0.71337 0.86075 0.70131 0.0
C877 C 0.70371 0.81284 0.70463 0.0
C878 C 0.70826 0.87318 0.68678 0.0
C879 C 0.69245 0.83762 0.67535 0.0
C880 C 0.67973 0.78886 0.67899 0.0
C881 C 0.68575 0.77676 0.69341 0.0
C882 C 0.7114 0.84812 0.63356 0.0
C883 C 0.70326 0.88734 0.63023 0.0
C884 C 0.70653 0.83098 0.64813 0.0
C885 C 0.69247 0.85211 0.65961 0.0
C886 C 0.68145 0.88935 0.656 0.0
C887 C 0.68722 0.90704 0.64152 0.0
H888 H 0.94194 0.68359 0.02973 0.0
H889 H 0.83456 0.72375 0.04389 0.0
H890 H 0.91155 0.67375 0.00444 0.0
H891 H 0.80565 0.71653 0.01845 0.0
H892 H 0.74288 0.67688 0.973 0.0
H893 H 0.76424 0.66679 0.99815 0.0
H894 H 0.91618 0.72346 0.9845 0.0
H895 H 0.89381 0.73092 0.95914 0.0
C896 C 0.91163 0.69017 0.02741 0.0
C897 C 0.8908 0.70479 0.03875 0.0
C898 C 0.89446 0.68493 0.01288 0.0
C899 C 0.85657 0.69501 0.00926 0.0
C900 C 0.83445 0.70778 0.02077 0.0
C901 C 0.85109 0.71216 0.03538 0.0
C902 C 0.78071 0.68645 0.97536 0.0
C903 C 0.81683 0.70503 0.96416 0.0
C904 C 0.79308 0.68107 0.98982 0.0
C905 C 0.84214 0.69503 0.99351 0.0
C906 C 0.87786 0.71173 0.98211 0.0
C907 C 0.8652 0.71623 0.96755 0.0
H908 H 0.16216 0.88788 0.29289 0.0
H909 H 0.05896 0.73864 0.3069 0.0
H910 H 0.19348 0.909 0.31813 0.0
H911 H 0.09177 0.75863 0.33195 0.0
H912 H 0.10862 0.8328 0.37743 0.0
H913 H 0.08627 0.80227 0.35215 0.0
H914 H 0.23694 0.90159 0.33808 0.0
H915 H 0.25822 0.93367 0.36319 0.0
C916 C 0.1472 0.85928 0.30129 0.0
C917 C 0.10781 0.8119 0.298 0.0
C918 C 0.16521 0.8712 0.31579 0.0
C919 C 0.14476 0.83566 0.32722 0.0
C920 C 0.10752 0.78734 0.3236 0.0
C921 C 0.08897 0.77575 0.3092 0.0
C922 C 0.13703 0.84735 0.36896 0.0
C923 C 0.1849 0.88592 0.37221 0.0
C924 C 0.12438 0.82981 0.35444 0.0
C925 C 0.15966 0.8499 0.34294 0.0
C926 C 0.20843 0.88619 0.3465 0.0
C927 C 0.22076 0.90429 0.36093 0.0
H928 H 0.26273 0.02969 0.64349 0.0
H929 H 0.32603 0.17607 0.62433 0.0
H930 H 0.2742 0.06463 0.66803 0.0
H931 H 0.33918 0.21143 0.64918 0.0
H932 H 0.27829 0.23942 0.69246 0.0
H933 H 0.28709 0.21339 0.66804 0.0
H934 H 0.32935 0.11319 0.68735 0.0
H935 H 0.31873 0.13817 0.71212 0.0
C936 C 0.27989 0.06953 0.64449 0.0
C937 C 0.29292 0.10002 0.63186 0.0
C938 C 0.28696 0.08965 0.65866 0.0
C939 C 0.30755 0.14087 0.66064 0.0
C940 C 0.32252 0.17169 0.64804 0.0
C941 C 0.31513 0.15147 0.63379 0.0
C942 C 0.28994 0.21213 0.69161 0.0
C943 C 0.29709 0.19035 0.70434 0.0
C944 C 0.29552 0.19756 0.6775 0.0
C945 C 0.30872 0.16101 0.67567 0.0
C946 C 0.31836 0.14092 0.68837 0.0
C947 C 0.31254 0.1554 0.70257 0.0
H948 H 0.9093 0.5561 0.05868 0.0
H949 H 0.0614 0.64532 0.0728 0.0
H950 H 0.9187 0.48336 0.05787 0.0
H951 H 0.07033 0.57207 0.07266 0.0
H952 H 0.08649 0.44297 0.05773 0.0
H953 H 0.07629 0.51514 0.05704 0.0
H954 H 0.92623 0.42617 0.07309 0.0
H955 H 0.93593 0.35326 0.07311 0.0
C956 C 0.94475 0.5601 0.06168 0.0
C957 C 0.9847 0.60646 0.06576 0.0
C958 C 0.95002 0.51825 0.06133 0.0
C959 C 0.99521 0.5216 0.06524 0.0
C960 C 0.03521 0.56814 0.06932 0.0
C961 C 0.0301 0.61016 0.06947 0.0
C962 C 0.05119 0.43874 0.06103 0.0
C963 C 0.01197 0.39244 0.06547 0.0
C964 C 0.04547 0.48029 0.06076 0.0
C965 C 0.00058 0.47678 0.06512 0.0
C966 C 0.96113 0.43022 0.06945 0.0
C967 C 0.96668 0.38841 0.06953 0.0
H968 H 0.58154 0.93553 0.39034 0.0
H969 H 0.64196 0.08639 0.40541 0.0
H970 H 0.49916 0.92645 0.38937 0.0
H971 H 0.55991 0.07685 0.40503 0.0
H972 H 0.41354 0.06049 0.39069 0.0
H973 H 0.49577 0.06939 0.38934 0.0
H974 H 0.4357 0.91944 0.40533 0.0
H975 H 0.3537 0.91005 0.4061 0.0
C976 C 0.57716 0.9666 0.39351 0.0
C977 C 0.61819 0.01164 0.39791 0.0
C978 C 0.52996 0.96141 0.39303 0.0
C979 C 0.5228 0.00096 0.39712 0.0
C980 C 0.56404 0.04593 0.40152 0.0
C981 C 0.61114 0.05127 0.40184 0.0
C982 C 0.41803 0.02947 0.39386 0.0
C983 C 0.3772 0.98461 0.39847 0.0
C984 C 0.46514 0.03457 0.39315 0.0
C985 C 0.47246 0.9951 0.39722 0.0
C986 C 0.43142 0.95028 0.40183 0.0
C987 C 0.38437 0.94503 0.40237 0.0
H988 H 0.44237 0.35777 0.73807 0.0
H989 H 0.3523 0.41927 0.72366 0.0
H990 H 0.51551 0.43925 0.73728 0.0
H991 H 0.42638 0.50125 0.72224 0.0
H992 H 0.55839 0.64617 0.73841 0.0
H993 H 0.4847 0.56487 0.73779 0.0
H994 H 0.57176 0.50236 0.72132 0.0
H995 H 0.64624 0.58392 0.72255 0.0
C996 C 0.43827 0.38872 0.73455 0.0
C997 C 0.39152 0.38212 0.73092 0.0
C998 C 0.48042 0.43551 0.73398 0.0
C999 C 0.47707 0.47693 0.72961 0.0
C1000 C 0.43026 0.47027 0.72585 0.0
C1001 C 0.38782 0.42333 0.72659 0.0
C1002 C 0.56186 0.61512 0.73461 0.0
C1003 C 0.60816 0.62138 0.73056 0.0
C1004 C 0.51942 0.56847 0.73414 0.0
C1005 C 0.5221 0.52694 0.72947 0.0
C1006 C 0.56842 0.53338 0.7252 0.0
C1007 C 0.61109 0.5801 0.72584 0.0
H1008 H 0.43857 0.0795 0.61358 0.0
H1009 H 0.35166 0.92893 0.59794 0.0
H1010 H 0.5119 0.07123 0.61426 0.0
H1011 H 0.42568 0.92116 0.59796 0.0
H1012 H 0.5573 0.90704 0.61177 0.0
H1013 H 0.48378 0.9149 0.61305 0.0
H1014 H 0.56986 0.06715 0.59856 0.0
H1015 H 0.64403 0.05972 0.59795 0.0
C1016 C 0.43518 0.04458 0.61024 0.0
C1017 C 0.38934 0.00481 0.60571 0.0
C1018 C 0.47741 0.03998 0.61051 0.0
C1019 C 0.47503 0.99568 0.60606 0.0
C1020 C 0.42889 0.95563 0.60168 0.0
C1021 C 0.38642 0.96006 0.60161 0.0
C1022 C 0.5606 0.94232 0.60894 0.0
C1023 C 0.60647 0.98282 0.60477 0.0
C1024 C 0.51827 0.9467 0.60956 0.0
C1025 C 0.52058 0.99154 0.60583 0.0
C1026 C 0.5667 0.03223 0.60175 0.0
C1027 C 0.60926 0.028 0.60132 0.0
H1028 H 0.41654 0.35147 0.93088 0.0
H1029 H 0.35577 0.44133 0.94604 0.0
H1030 H 0.49932 0.42434 0.93095 0.0
H1031 H 0.43829 0.51346 0.94679 0.0
H1032 H 0.58353 0.64358 0.93104 0.0
H1033 H 0.50129 0.57029 0.93121 0.0
H1034 H 0.56427 0.4818 0.94603 0.0
H1035 H 0.64651 0.55462 0.94517 0.0
C1036 C 0.42101 0.38665 0.93443 0.0
C1037 C 0.37971 0.39074 0.9384 0.0
C1038 C 0.46846 0.42845 0.93454 0.0
C1039 C 0.47565 0.47505 0.93881 0.0
C1040 C 0.43423 0.47859 0.94311 0.0
C1041 C 0.38686 0.43706 0.9428 0.0
C1042 C 0.57968 0.60847 0.93438 0.0
C1043 C 0.62144 0.60486 0.93809 0.0
C1044 C 0.5325 0.56641 0.93456 0.0
C1045 C 0.52593 0.51991 0.93866 0.0
C1046 C 0.56784 0.51665 0.94256 0.0
C1047 C 0.61503 0.55855 0.94218 0.0
H1048 H 0.93448 0.5842 0.27921 0.0
H1049 H 0.08521 0.64618 0.26383 0.0
H1050 H 0.92671 0.50239 0.28032 0.0
H1051 H 0.07695 0.56465 0.26436 0.0
H1052 H 0.0622 0.41865 0.27878 0.0
H1053 H 0.0705 0.50072 0.28009 0.0
H1054 H 0.92027 0.4395 0.26422 0.0
H1055 H 0.91151 0.35785 0.26349 0.0
C1056 C 0.9658 0.58028 0.276 0.0
C1057 C 0.0104 0.62156 0.27146 0.0
C1058 C 0.96136 0.53342 0.27657 0.0
C1059 C 0.00124 0.52685 0.27242 0.0
C1060 C 0.04581 0.56836 0.26791 0.0
C1061 C 0.0504 0.61514 0.2675 0.0
C1062 C 0.03102 0.42288 0.27563 0.0
C1063 C 0.98624 0.38184 0.27108 0.0
C1064 C 0.03576 0.46988 0.27632 0.0
C1065 C 0.99597 0.47677 0.27229 0.0
C1066 C 0.95132 0.43554 0.26771 0.0
C1067 C 0.94645 0.38867 0.26718 0.0
H1068 H 0.09417 0.14407 0.0839 0.0
H1069 H 0.94712 0.09089 0.06625 0.0
H1070 H 0.08153 0.06079 0.08283 0.0
H1071 H 0.93489 0.00725 0.06502 0.0
H1072 H 0.91109 0.86036 0.08444 0.0
H1073 H 0.92467 0.9438 0.08304 0.0
H1074 H 0.07117 0.99539 0.06539 0.0
H1075 H 0.05793 0.9113 0.06693 0.0
C1076 C 0.05914 0.1147 0.07972 0.0
C1077 C 0.02144 0.12425 0.07528 0.0
C1078 C 0.05216 0.06695 0.07899 0.0
C1079 C 0.00727 0.02743 0.07384 0.0
C1080 C 0.96975 0.03693 0.06918 0.0
C1081 C 0.9768 0.08487 0.06985 0.0
C1082 C 0.94632 0.88929 0.08024 0.0
C1083 C 0.98359 0.87899 0.07588 0.0
C1084 C 0.95385 0.93717 0.07931 0.0
C1085 C 0.99887 0.97618 0.07405 0.0
C1086 C 0.03616 0.96608 0.0696 0.0
C1087 C 0.02855 0.91792 0.07045 0.0
H1088 H 0.94626 0.08914 0.41475 0.0
H1089 H 0.85217 0.9408 0.398 0.0
H1090 H 0.01729 0.07742 0.41346 0.0
H1091 H 0.92417 0.9294 0.39659 0.0
H1092 H 0.05007 0.90988 0.41656 0.0
H1093 H 0.97908 0.9215 0.41472 0.0
H1094 H 0.07173 0.06669 0.39588 0.0
H1095 H 0.14369 0.05541 0.39784 0.0
C1096 C 0.94062 0.05399 0.41072 0.0
C1097 C 0.89318 0.01567 0.40661 0.0
C1098 C 0.98164 0.04755 0.40985 0.0
C1099 C 0.97643 0.00258 0.40491 0.0
C1100 C 0.92924 0.9644 0.40056 0.0
C1101 C 0.88803 0.97094 0.40134 0.0
C1102 C 0.05563 0.9444 0.41199 0.0
C1103 C 0.10292 0.98195 0.40746 0.0
C1104 C 0.01462 0.95076 0.41081 0.0
C1105 C 0.0197 0.99489 0.40512 0.0
C1106 C 0.06676 0.03235 0.40042 0.0
C1107 C 0.10796 0.02589 0.40152 0.0
H1108 H 0.08913 0.14511 0.7312 0.0
H1109 H 0.14458 0.05438 0.74976 0.0
H1110 H 0.00663 0.07203 0.72944 0.0
H1111 H 0.06243 0.98209 0.74814 0.0
H1112 H 0.91533 0.85318 0.73178 0.0
H1113 H 0.9987 0.92564 0.73034 0.0
H1114 H 0.94299 0.01785 0.74728 0.0
H1115 H 0.86049 0.94656 0.7486 0.0
C1116 C 0.08384 0.10976 0.7349 0.0
C1117 C 0.12351 0.10588 0.74074 0.0
C1118 C 0.03658 0.0679 0.73391 0.0
C1119 C 0.02806 0.02128 0.73866 0.0
C1120 C 0.06788 0.01729 0.74422 0.0
C1121 C 0.11496 0.05901 0.74527 0.0
C1122 C 0.92092 0.88895 0.73514 0.0
C1123 C 0.88116 0.89381 0.7404 0.0
C1124 C 0.96863 0.9304 0.73435 0.0
C1125 C 0.97734 0.97749 0.73866 0.0
C1126 C 0.93745 0.98231 0.74367 0.0
C1127 C 0.8901 0.94111 0.74456 0.0
H1128 H 0.85812 0.90864 0.58377 0.0
H1129 H 0.91138 0.05392 0.60281 0.0
H1130 H 0.94072 0.92007 0.58513 0.0
H1131 H 0.99468 0.06499 0.6043 0.0
H1132 H 0.14303 0.08672 0.58612 0.0
H1133 H 0.06046 0.07582 0.58703 0.0
H1134 H 0.0028 0.92643 0.60303 0.0
H1135 H 0.08584 0.93695 0.60197 0.0
C1136 C 0.88739 0.94309 0.5883 0.0
C1137 C 0.87794 0.98054 0.59311 0.0
C1138 C 0.9348 0.94936 0.5892 0.0
C1139 C 0.97425 0.99328 0.59488 0.0
C1140 C 0.96504 0.0308 0.59976 0.0
C1141 C 0.91732 0.02444 0.59894 0.0
C1142 C 0.11291 0.05141 0.58985 0.0
C1143 C 0.1212 0.0125 0.59386 0.0
C1144 C 0.06554 0.04543 0.5905 0.0
C1145 C 0.02506 0.00035 0.59511 0.0
C1146 C 0.03323 0.96152 0.59929 0.0
C1147 C 0.08082 0.96756 0.59871 0.0
H1148 H 0.87386 0.89804 0.94722 0.0
H1149 H 0.92256 0.8737 0.90486 0.0
H1150 H 0.94647 0.98205 0.94798 0.0
H1151 H 0.99383 0.95735 0.90553 0.0
H1152 H 0.07241 0.12987 0.90558 0.0
H1153 H 0.00013 0.04688 0.9061 0.0
H1154 H 0.04895 0.01792 0.94768 0.0
H1155 H 0.12252 0.10125 0.94708 0.0
C1156 C 0.8997 0.9108 0.93804 0.0
C1157 C 0.89263 0.87943 0.92598 0.0
C1158 C 0.9413 0.9585 0.93855 0.0
C1159 C 0.9756 0.97577 0.92684 0.0
C1160 C 0.96786 0.94478 0.91468 0.0
C1161 C 0.92711 0.89699 0.91432 0.0
C1162 C 0.0679 0.10587 0.91484 0.0
C1163 C 0.10318 0.12201 0.92629 0.0
C1164 C 0.02654 0.05844 0.91512 0.0
C1165 C 0.01901 0.02638 0.92697 0.0
C1166 C 0.05392 0.04233 0.93849 0.0
C1167 C 0.09607 0.08966 0.93808 0.0
H1168 H 0.08588 0.94858 0.25556 0.0
H1169 H 0.93602 0.85366 0.27105 0.0
H1170 H 0.07441 0.01966 0.25705 0.0
H1171 H 0.92482 0.92581 0.27266 0.0
H1172 H 0.90855 0.05423 0.25275 0.0
H1173 H 0.919 0.98249 0.25464 0.0
H1174 H 0.06248 0.07282 0.27478 0.0
H1175 H 0.05242 0.14546 0.27277 0.0
C1176 C 0.05043 0.94276 0.25936 0.0
C1177 C 0.01164 0.89509 0.26306 0.0
C1178 C 0.04412 0.98382 0.26035 0.0
C1179 C 0.99881 0.97844 0.265 0.0
C1180 C 0.96011 0.931 0.26893 0.0
C1181 C 0.96653 0.88972 0.26804 0.0
C1182 C 0.94242 0.05909 0.25762 0.0
C1183 C 0.97993 0.10595 0.26248 0.0
C1184 C 0.94809 0.01765 0.25884 0.0
C1185 C 0.99146 0.02191 0.26488 0.0
C1186 C 0.02875 0.06851 0.26996 0.0
C1187 C 0.02299 0.1101 0.26882 0.0
loop_
_geom_bond_atom_site_label_1
_geom_bond_atom_site_label_2
_geom_bond_distance
_geom_bond_site_symmetry_2
_ccdc_geom_bond_type
Co0 O2 2.143 . S
Co0 O8 2.074 . S
Co0 O11 2.093 . S
Co0 O24 2.097 . S
Co0 N41 2.151 . S
Co0 N49 2.214 . S
Co1 O2 2.160 1_655 S
Co1 O7 2.058 1_655 S
Co1 O17 2.057 . S
Co1 O32 2.037 . S
Co1 N36 2.145 . S
Co1 N57 2.257 . S
O2 Co0 2.143 . S
O2 Co1 2.160 1_455 S
C3 O4 1.278 . S
C3 O11 1.224 . S
O4 C3 1.278 . S
C5 O6 1.245 1_655 S
C5 O17 1.232 . S
O6 C5 1.245 1_455 S
O7 Co1 2.058 1_455 S
O7 C33 1.269 . S
O8 Co0 2.074 . S
O8 C33 1.257 . S
H9 C34 0.930 . S
H10 C40 0.930 . S
O11 Co0 2.093 . S
O11 C3 1.224 . S
H12 C44 0.929 . S
H13 C46 0.930 . S
H14 C47 0.930 . S
H15 C45 0.929 . S
H16 C48 0.928 . S
O17 Co1 2.057 . S
O17 C5 1.232 . S
H18 C37 0.929 . S
H19 C38 0.929 . S
H20 C50 0.931 . S
H21 C42 0.929 . S
H22 C51 0.930 . S
H23 C43 0.931 . S
O24 Co0 2.097 . S
O24 C52 1.214 1_455 S
H25 C53 0.929 . S
H26 C54 0.929 . S
H27 C55 0.930 . S
H28 C56 0.929 . S
H29 C58 0.930 . S
H30 C35 0.930 . S
H31 C39 0.930 . S
O32 Co1 2.037 . S
O32 C52 1.234 . S
C33 O7 1.269 . S
C33 O8 1.257 . S
C34 H9 0.930 . S
C34 C37 1.388 . S
C34 C39 1.418 . S
C35 H30 0.930 . S
C35 C38 1.404 . S
C35 C39 1.353 . S
N36 Co1 2.145 . S
N36 C37 1.397 . S
N36 C38 1.334 . S
C37 H18 0.929 . S
C37 C34 1.388 . S
C37 N36 1.397 . S
C38 H19 0.929 . S
C38 C35 1.404 . S
C38 N36 1.334 . S
C39 H31 0.930 . S
C39 C34 1.418 . S
C39 C35 1.353 . S
C40 H10 0.930 . S
C40 N41 1.330 . S
C40 C42 1.446 . S
N41 Co0 2.151 . S
N41 C40 1.330 . S
N41 C45 1.418 . S
C42 H21 0.929 . S
C42 C40 1.446 . S
C42 C43 1.332 . S
C43 H23 0.931 . S
C43 C42 1.332 . S
C43 C44 1.267 . S
C44 H12 0.929 . S
C44 C43 1.267 . S
C44 C45 1.251 . S
C45 H15 0.929 . S
C45 N41 1.418 . S
C45 C44 1.251 . S
C46 H13 0.930 . S
C46 C48 1.406 . S
C46 C51 1.261 . S
C47 H14 0.930 . S
C47 N49 1.325 . S
C47 C50 1.357 . S
C48 H16 0.928 . S
C48 C46 1.406 . S
C48 N49 1.261 . S
N49 Co0 2.214 . S
N49 C47 1.325 . S
N49 C48 1.261 . S
C50 H20 0.931 . S
C50 C47 1.357 . S
C50 C51 1.312 . S
C51 H22 0.930 . S
C51 C46 1.261 . S
C51 C50 1.312 . S
C52 O24 1.214 1_655 S
C52 O32 1.234 . S
C53 H25 0.929 . S
C53 C56 1.391 . S
C53 C58 1.391 . S
C54 H26 0.929 . S
C54 C55 1.390 . S
C54 N57 1.391 . S
C55 H27 0.930 . S
C55 C54 1.390 . S
C55 C56 1.392 . S
C56 H28 0.929 . S
C56 C53 1.391 . S
C56 C55 1.392 . S
N57 Co1 2.257 . S
N57 C54 1.391 . S
N57 C58 1.388 . S
C58 H29 0.930 . S
C58 C53 1.391 . S
C58 N57 1.388 . S
Co59 O61 2.143 . S
Co59 O67 2.074 . S
Co59 O70 2.093 . S
Co59 O83 2.097 . S
Co59 N100 2.151 . S
Co59 N108 2.214 . S
Co60 O61 2.160 1_565 S
Co60 O66 2.058 1_565 S
Co60 O76 2.057 . S
Co60 O91 2.037 . S
Co60 N95 2.145 . S
Co60 N116 2.257 . S
O61 Co59 2.143 . S
O61 Co60 2.160 1_545 S
C62 O63 1.278 1_545 S
C62 O70 1.224 . S
O63 C62 1.278 1_565 S
C64 O65 1.245 1_565 S
C64 O76 1.232 . S
O65 C64 1.245 1_545 S
O66 Co60 2.058 1_545 S
O66 C92 1.269 . S
O67 Co59 2.074 . S
O67 C92 1.257 . S
H68 C93 0.930 . S
H69 C99 0.930 . S
O70 Co59 2.093 . S
O70 C62 1.224 . S
H71 C103 0.929 . S
H72 C105 0.930 . S
H73 C106 0.930 . S
H74 C104 0.929 . S
H75 C107 0.928 . S
O76 Co60 2.057 . S
O76 C64 1.232 . S
H77 C96 0.929 . S
H78 C97 0.929 . S
H79 C109 0.931 1_455 S
H80 C101 0.929 . S
H81 C110 0.930 . S
H82 C102 0.931 . S
O83 Co59 2.097 . S
O83 C111 1.214 1_545 S
H84 C112 0.929 . S
H85 C113 0.929 . S
H86 C114 0.930 . S
H87 C115 0.929 . S
H88 C117 0.930 . S
H89 C94 0.930 . S
H90 C98 0.930 . S
O91 Co60 2.037 . S
O91 C111 1.234 . S
C92 O66 1.269 . S
C92 O67 1.257 . S
C93 H68 0.930 . S
C93 C96 1.388 . S
C93 C98 1.418 . S
C94 H89 0.930 . S
C94 C97 1.404 . S
C94 C98 1.353 . S
N95 Co60 2.145 . S
N95 C96 1.397 . S
N95 C97 1.334 . S
C96 H77 0.929 . S
C96 C93 1.388 . S
C96 N95 1.397 . S
C97 H78 0.929 . S
C97 C94 1.404 . S
C97 N95 1.334 . S
C98 H90 0.930 . S
C98 C93 1.418 . S
C98 C94 1.353 . S
C99 H69 0.930 . S
C99 N100 1.330 . S
C99 C101 1.446 . S
N100 Co59 2.151 . S
N100 C99 1.330 . S
N100 C104 1.418 . S
C101 H80 0.929 . S
C101 C99 1.446 . S
C101 C102 1.332 . S
C102 H82 0.931 . S
C102 C101 1.332 . S
C102 C103 1.267 . S
C103 H71 0.929 . S
C103 C102 1.267 . S
C103 C104 1.251 . S
C104 H74 0.929 . S
C104 N100 1.418 . S
C104 C103 1.251 . S
C105 H72 0.930 . S
C105 C107 1.406 . S
C105 C110 1.261 1_655 S
C106 H73 0.930 . S
C106 N108 1.325 . S
C106 C109 1.357 . S
C107 H75 0.928 . S
C107 C105 1.406 . S
C107 N108 1.261 . S
N108 Co59 2.214 . S
N108 C106 1.325 . S
N108 C107 1.261 . S
C109 H79 0.931 1_655 S
C109 C106 1.357 . S
C109 C110 1.312 1_655 S
C110 H81 0.930 . S
C110 C105 1.261 1_455 S
C110 C109 1.312 1_455 S
C111 O83 1.214 1_565 S
C111 O91 1.234 . S
C112 H84 0.929 . S
C112 C115 1.391 . S
C112 C117 1.391 . S
C113 H85 0.929 . S
C113 C114 1.390 . S
C113 N116 1.391 . S
C114 H86 0.930 . S
C114 C113 1.390 . S
C114 C115 1.392 . S
C115 H87 0.929 . S
C115 C112 1.391 . S
C115 C114 1.392 . S
N116 Co60 2.257 . S
N116 C113 1.391 . S
N116 C117 1.388 . S
C117 H88 0.930 . S
C117 C112 1.391 . S
C117 N116 1.388 . S
Co118 O120 2.143 . S
Co118 O126 2.074 . S
Co118 O129 2.093 . S
Co118 O142 2.097 . S
Co118 N159 2.151 . S
Co118 N167 2.214 . S
Co119 O120 2.160 . S
Co119 O125 2.058 . S
Co119 O135 2.057 . S
Co119 O150 2.037 . S
Co119 N154 2.145 . S
Co119 N175 2.257 . S
O120 Co118 2.143 . S
O120 Co119 2.160 . S
C121 O122 1.278 . S
C121 O129 1.224 . S
O122 C121 1.278 . S
C123 O124 1.245 . S
C123 O135 1.232 . S
O124 C123 1.245 . S
O125 Co119 2.058 . S
O125 C151 1.269 . S
O126 Co118 2.074 . S
O126 C151 1.257 . S
H127 C152 0.930 . S
H128 C158 0.930 . S
O129 Co118 2.093 . S
O129 C121 1.224 . S
H130 C162 0.929 . S
H131 C164 0.930 . S
H132 C165 0.930 . S
H133 C163 0.929 . S
H134 C166 0.928 . S
O135 Co119 2.057 . S
O135 C123 1.232 . S
H136 C155 0.929 . S
H137 C156 0.929 . S
H138 C168 0.931 . S
H139 C160 0.929 . S
H140 C169 0.930 1_545 S
H141 C161 0.931 . S
O142 Co118 2.097 . S
O142 C170 1.214 . S
H143 C171 0.929 . S
H144 C172 0.929 . S
H145 C173 0.930 . S
H146 C174 0.929 . S
H147 C176 0.930 . S
H148 C153 0.930 . S
H149 C157 0.930 . S
O150 Co119 2.037 . S
O150 C170 1.234 . S
C151 O125 1.269 . S
C151 O126 1.257 . S
C152 H127 0.930 . S
C152 C155 1.388 . S
C152 C157 1.418 . S
C153 H148 0.930 . S
C153 C156 1.404 . S
C153 C157 1.353 . S
N154 Co119 2.145 . S
N154 C155 1.397 . S
N154 C156 1.334 . S
C155 H136 0.929 . S
C155 C152 1.388 . S
C155 N154 1.397 . S
C156 H137 0.929 . S
C156 C153 1.404 . S
C156 N154 1.334 . S
C157 H149 0.930 . S
C157 C152 1.418 . S
C157 C153 1.353 . S
C158 H128 0.930 . S
C158 N159 1.330 . S
C158 C160 1.446 . S
N159 Co118 2.151 . S
N159 C158 1.330 . S
N159 C163 1.418 . S
C160 H139 0.929 . S
C160 C158 1.446 . S
C160 C161 1.332 . S
C161 H141 0.931 . S
C161 C160 1.332 . S
C161 C162 1.267 . S
C162 H130 0.929 . S
C162 C161 1.267 . S
C162 C163 1.251 . S
C163 H133 0.929 . S
C163 N159 1.418 . S
C163 C162 1.251 . S
C164 H131 0.930 . S
C164 C166 1.406 . S
C164 C169 1.261 . S
C165 H132 0.930 . S
C165 N167 1.325 . S
C165 C168 1.357 . S
C166 H134 0.928 . S
C166 C164 1.406 . S
C166 N167 1.261 . S
N167 Co118 2.214 . S
N167 C165 1.325 . S
N167 C166 1.261 . S
C168 H138 0.931 . S
C168 C165 1.357 . S
C168 C169 1.312 . S
C169 H140 0.930 1_565 S
C169 C164 1.261 . S
C169 C168 1.312 . S
C170 O142 1.214 . S
C170 O150 1.234 . S
C171 H143 0.929 . S
C171 C174 1.391 . S
C171 C176 1.391 . S
C172 H144 0.929 . S
C172 C173 1.390 . S
C172 N175 1.391 . S
C173 H145 0.930 . S
C173 C172 1.390 . S
C173 C174 1.392 . S
C174 H146 0.929 . S
C174 C171 1.391 . S
C174 C173 1.392 . S
N175 Co119 2.257 . S
N175 C172 1.391 . S
N175 C176 1.388 . S
C176 H147 0.930 . S
C176 C171 1.391 . S
C176 N175 1.388 . S
Co177 O179 2.143 . S
Co177 O185 2.074 . S
Co177 O188 2.093 . S
Co177 O201 2.097 . S
Co177 N218 2.151 . S
Co177 N226 2.214 . S
Co178 O179 2.160 1_455 S
Co178 O184 2.058 1_455 S
Co178 O194 2.057 . S
Co178 O209 2.037 . S
Co178 N213 2.145 . S
Co178 N234 2.257 . S
O179 Co177 2.143 . S
O179 Co178 2.160 1_655 S
C180 O181 1.278 . S
C180 O188 1.224 . S
O181 C180 1.278 . S
C182 O183 1.245 1_455 S
C182 O194 1.232 . S
O183 C182 1.245 1_655 S
O184 Co178 2.058 1_655 S
O184 C210 1.269 . S
O185 Co177 2.074 . S
O185 C210 1.257 . S
H186 C211 0.930 . S
H187 C217 0.930 . S
O188 Co177 2.093 . S
O188 C180 1.224 . S
H189 C221 0.929 . S
H190 C223 0.930 . S
H191 C224 0.930 . S
H192 C222 0.929 . S
H193 C225 0.928 . S
O194 Co178 2.057 . S
O194 C182 1.232 . S
H195 C214 0.929 . S
H196 C215 0.929 . S
H197 C227 0.931 . S
H198 C219 0.929 . S
H199 C228 0.930 . S
H200 C220 0.931 . S
O201 Co177 2.097 . S
O201 C229 1.214 1_655 S
H202 C230 0.929 . S
H203 C231 0.929 . S
H204 C232 0.930 . S
H205 C233 0.929 . S
H206 C235 0.930 . S
H207 C212 0.930 . S
H208 C216 0.930 . S
O209 Co178 2.037 . S
O209 C229 1.234 . S
C210 O184 1.269 . S
C210 O185 1.257 . S
C211 H186 0.930 . S
C211 C214 1.388 . S
C211 C216 1.418 . S
C212 H207 0.930 . S
C212 C215 1.404 . S
C212 C216 1.353 . S
N213 Co178 2.145 . S
N213 C214 1.397 . S
N213 C215 1.334 . S
C214 H195 0.929 . S
C214 C211 1.388 . S
C214 N213 1.397 . S
C215 H196 0.929 . S
C215 C212 1.404 . S
C215 N213 1.334 . S
C216 H208 0.930 . S
C216 C211 1.418 . S
C216 C212 1.353 . S
C217 H187 0.930 . S
C217 N218 1.330 . S
C217 C219 1.446 . S
N218 Co177 2.151 . S
N218 C217 1.330 . S
N218 C222 1.418 . S
C219 H198 0.929 . S
C219 C217 1.446 . S
C219 C220 1.332 . S
C220 H200 0.931 . S
C220 C219 1.332 . S
C220 C221 1.267 . S
C221 H189 0.929 . S
C221 C220 1.267 . S
C221 C222 1.251 . S
C222 H192 0.929 . S
C222 N218 1.418 . S
C222 C221 1.251 . S
C223 H190 0.930 . S
C223 C225 1.406 . S
C223 C228 1.261 . S
C224 H191 0.930 . S
C224 N226 1.325 . S
C224 C227 1.357 . S
C225 H193 0.928 . S
C225 C223 1.406 . S
C225 N226 1.261 . S
N226 Co177 2.214 . S
N226 C224 1.325 . S
N226 C225 1.261 . S
C227 H197 0.931 . S
C227 C224 1.357 . S
C227 C228 1.312 . S
C228 H199 0.930 . S
C228 C223 1.261 . S
C228 C227 1.312 . S
C229 O201 1.214 1_455 S
C229 O209 1.234 . S
C230 H202 0.929 . S
C230 C233 1.391 . S
C230 C235 1.391 . S
C231 H203 0.929 . S
C231 C232 1.390 . S
C231 N234 1.391 . S
C232 H204 0.930 . S
C232 C231 1.390 . S
C232 C233 1.392 . S
C233 H205 0.929 . S
C233 C230 1.391 . S
C233 C232 1.392 . S
N234 Co178 2.257 . S
N234 C231 1.391 . S
N234 C235 1.388 . S
C235 H206 0.930 . S
C235 C230 1.391 . S
C235 N234 1.388 . S
Co236 O238 2.143 . S
Co236 O244 2.074 . S
Co236 O247 2.093 . S
Co236 O260 2.097 . S
Co236 N277 2.151 . S
Co236 N285 2.214 . S
Co237 O238 2.160 1_545 S
Co237 O243 2.058 1_545 S
Co237 O253 2.057 . S
Co237 O268 2.037 . S
Co237 N272 2.145 . S
Co237 N293 2.257 . S
O238 Co236 2.143 . S
O238 Co237 2.160 1_565 S
C239 O240 1.278 1_565 S
C239 O247 1.224 . S
O240 C239 1.278 1_545 S
C241 O242 1.245 1_545 S
C241 O253 1.232 . S
O242 C241 1.245 1_565 S
O243 Co237 2.058 1_565 S
O243 C269 1.269 . S
O244 Co236 2.074 . S
O244 C269 1.257 . S
H245 C270 0.930 . S
H246 C276 0.930 . S
O247 Co236 2.093 . S
O247 C239 1.224 . S
H248 C280 0.929 . S
H249 C282 0.930 . S
H250 C283 0.930 . S
H251 C281 0.929 . S
H252 C284 0.928 . S
O253 Co237 2.057 . S
O253 C241 1.232 . S
H254 C273 0.929 . S
H255 C274 0.929 . S
H256 C286 0.931 1_655 S
H257 C278 0.929 . S
H258 C287 0.930 . S
H259 C279 0.931 . S
O260 Co236 2.097 . S
O260 C288 1.214 1_565 S
H261 C289 0.929 . S
H262 C290 0.929 . S
H263 C291 0.930 . S
H264 C292 0.929 . S
H265 C294 0.930 . S
H266 C271 0.930 . S
H267 C275 0.930 . S
O268 Co237 2.037 . S
O268 C288 1.234 . S
C269 O243 1.269 . S
C269 O244 1.257 . S
C270 H245 0.930 . S
C270 C273 1.388 . S
C270 C275 1.418 . S
C271 H266 0.930 . S
C271 C274 1.404 . S
C271 C275 1.353 . S
N272 Co237 2.145 . S
N272 C273 1.397 . S
N272 C274 1.334 . S
C273 H254 0.929 . S
C273 C270 1.388 . S
C273 N272 1.397 . S
C274 H255 0.929 . S
C274 C271 1.404 . S
C274 N272 1.334 . S
C275 H267 0.930 . S
C275 C270 1.418 . S
C275 C271 1.353 . S
C276 H246 0.930 . S
C276 N277 1.330 . S
C276 C278 1.446 . S
N277 Co236 2.151 . S
N277 C276 1.330 . S
N277 C281 1.418 . S
C278 H257 0.929 . S
C278 C276 1.446 . S
C278 C279 1.332 . S
C279 H259 0.931 . S
C279 C278 1.332 . S
C279 C280 1.267 . S
C280 H248 0.929 . S
C280 C279 1.267 . S
C280 C281 1.251 . S
C281 H251 0.929 . S
C281 N277 1.418 . S
C281 C280 1.251 . S
C282 H249 0.930 . S
C282 C284 1.406 . S
C282 C287 1.261 1_455 S
C283 H250 0.930 . S
C283 N285 1.325 . S
C283 C286 1.357 . S
C284 H252 0.928 . S
C284 C282 1.406 . S
C284 N285 1.261 . S
N285 Co236 2.214 . S
N285 C283 1.325 . S
N285 C284 1.261 . S
C286 H256 0.931 1_455 S
C286 C283 1.357 . S
C286 C287 1.312 1_455 S
C287 H258 0.930 . S
C287 C282 1.261 1_655 S
C287 C286 1.312 1_655 S
C288 O260 1.214 1_545 S
C288 O268 1.234 . S
C289 H261 0.929 . S
C289 C292 1.391 . S
C289 C294 1.391 . S
C290 H262 0.929 . S
C290 C291 1.390 . S
C290 N293 1.391 . S
C291 H263 0.930 . S
C291 C290 1.390 . S
C291 C292 1.392 . S
C292 H264 0.929 . S
C292 C289 1.391 . S
C292 C291 1.392 . S
N293 Co237 2.257 . S
N293 C290 1.391 . S
N293 C294 1.388 . S
C294 H265 0.930 . S
C294 C289 1.391 . S
C294 N293 1.388 . S
Co295 O297 2.143 . S
Co295 O303 2.074 . S
Co295 O306 2.093 . S
Co295 O319 2.097 . S
Co295 N336 2.151 . S
Co295 N344 2.214 . S
Co296 O297 2.160 . S
Co296 O302 2.058 . S
Co296 O312 2.057 . S
Co296 O327 2.037 . S
Co296 N331 2.145 . S
Co296 N352 2.257 . S
O297 Co295 2.143 . S
O297 Co296 2.160 . S
C298 O299 1.278 . S
C298 O306 1.224 . S
O299 C298 1.278 . S
C300 O301 1.245 . S
C300 O312 1.232 . S
O301 C300 1.245 . S
O302 Co296 2.058 . S
O302 C328 1.269 . S
O303 Co295 2.074 . S
O303 C328 1.257 . S
H304 C329 0.930 . S
H305 C335 0.930 . S
O306 Co295 2.093 . S
O306 C298 1.224 . S
H307 C339 0.929 . S
H308 C341 0.930 . S
H309 C342 0.930 . S
H310 C340 0.929 . S
H311 C343 0.928 . S
O312 Co296 2.057 . S
O312 C300 1.232 . S
H313 C332 0.929 . S
H314 C333 0.929 . S
H315 C345 0.931 . S
H316 C337 0.929 . S
H317 C346 0.930 1_565 S
H318 C338 0.931 . S
O319 Co295 2.097 . S
O319 C347 1.214 . S
H320 C348 0.929 . S
H321 C349 0.929 . S
H322 C350 0.930 . S
H323 C351 0.929 . S
H324 C353 0.930 . S
H325 C330 0.930 . S
H326 C334 0.930 . S
O327 Co296 2.037 . S
O327 C347 1.234 . S
C328 O302 1.269 . S
C328 O303 1.257 . S
C329 H304 0.930 . S
C329 C332 1.388 . S
C329 C334 1.418 . S
C330 H325 0.930 . S
C330 C333 1.404 . S
C330 C334 1.353 . S
N331 Co296 2.145 . S
N331 C332 1.397 . S
N331 C333 1.334 . S
C332 H313 0.929 . S
C332 C329 1.388 . S
C332 N331 1.397 . S
C333 H314 0.929 . S
C333 C330 1.404 . S
C333 N331 1.334 . S
C334 H326 0.930 . S
C334 C329 1.418 . S
C334 C330 1.353 . S
C335 H305 0.930 . S
C335 N336 1.330 . S
C335 C337 1.446 . S
N336 Co295 2.151 . S
N336 C335 1.330 . S
N336 C340 1.418 . S
C337 H316 0.929 . S
C337 C335 1.446 . S
C337 C338 1.332 . S
C338 H318 0.931 . S
C338 C337 1.332 . S
C338 C339 1.267 . S
C339 H307 0.929 . S
C339 C338 1.267 . S
C339 C340 1.251 . S
C340 H310 0.929 . S
C340 N336 1.418 . S
C340 C339 1.251 . S
C341 H308 0.930 . S
C341 C343 1.406 . S
C341 C346 1.261 . S
C342 H309 0.930 . S
C342 N344 1.325 . S
C342 C345 1.357 . S
C343 H311 0.928 . S
C343 C341 1.406 . S
C343 N344 1.261 . S
N344 Co295 2.214 . S
N344 C342 1.325 . S
N344 C343 1.261 . S
C345 H315 0.931 . S
C345 C342 1.357 . S
C345 C346 1.312 . S
C346 H317 0.930 1_545 S
C346 C341 1.261 . S
C346 C345 1.312 . S
C347 O319 1.214 . S
C347 O327 1.234 . S
C348 H320 0.929 . S
C348 C351 1.391 . S
C348 C353 1.391 . S
C349 H321 0.929 . S
C349 C350 1.390 . S
C349 N352 1.391 . S
C350 H322 0.930 . S
C350 C349 1.390 . S
C350 C351 1.392 . S
C351 H323 0.929 . S
C351 C348 1.391 . S
C351 C350 1.392 . S
N352 Co296 2.257 . S
N352 C349 1.391 . S
N352 C353 1.388 . S
C353 H324 0.930 . S
C353 C348 1.391 . S
C353 N352 1.388 . S
Co354 O356 2.143 . S
Co354 O362 2.074 . S
Co354 O365 2.093 . S
Co354 O378 2.097 . S
Co354 N395 2.151 . S
Co354 N403 2.214 . S
Co355 O356 2.160 1_545 S
Co355 O361 2.058 1_545 S
Co355 O371 2.057 . S
Co355 O386 2.037 . S
Co355 N390 2.145 . S
Co355 N411 2.257 . S
O356 Co354 2.143 . S
O356 Co355 2.160 1_565 S
C357 O358 1.278 1_565 S
C357 O365 1.224 . S
O358 C357 1.278 1_545 S
C359 O360 1.245 1_545 S
C359 O371 1.232 . S
O360 C359 1.245 1_565 S
O361 Co355 2.058 1_565 S
O361 C387 1.269 . S
O362 Co354 2.074 . S
O362 C387 1.257 . S
H363 C388 0.930 . S
H364 C394 0.930 . S
O365 Co354 2.093 . S
O365 C357 1.224 . S
H366 C398 0.929 . S
H367 C400 0.930 . S
H368 C401 0.930 . S
H369 C399 0.929 . S
H370 C402 0.928 . S
O371 Co355 2.057 . S
O371 C359 1.232 . S
H372 C391 0.929 . S
H373 C392 0.929 . S
H374 C404 0.931 . S
H375 C396 0.929 . S
H376 C405 0.930 . S
H377 C397 0.931 . S
O378 Co354 2.097 . S
O378 C406 1.214 1_565 S
H379 C407 0.929 . S
H380 C408 0.929 . S
H381 C409 0.930 . S
H382 C410 0.929 . S
H383 C412 0.930 . S
H384 C389 0.930 . S
H385 C393 0.930 . S
O386 Co355 2.037 . S
O386 C406 1.234 . S
C387 O361 1.269 . S
C387 O362 1.257 . S
C388 H363 0.930 . S
C388 C391 1.388 . S
C388 C393 1.418 . S
C389 H384 0.930 . S
C389 C392 1.404 . S
C389 C393 1.353 . S
N390 Co355 2.145 . S
N390 C391 1.397 . S
N390 C392 1.334 . S
C391 H372 0.929 . S
C391 C388 1.388 . S
C391 N390 1.397 . S
C392 H373 0.929 . S
C392 C389 1.404 . S
C392 N390 1.334 . S
C393 H385 0.930 . S
C393 C388 1.418 . S
C393 C389 1.353 . S
C394 H364 0.930 . S
C394 N395 1.330 . S
C394 C396 1.446 . S
N395 Co354 2.151 . S
N395 C394 1.330 . S
N395 C399 1.418 . S
C396 H375 0.929 . S
C396 C394 1.446 . S
C396 C397 1.332 . S
C397 H377 0.931 . S
C397 C396 1.332 . S
C397 C398 1.267 . S
C398 H366 0.929 . S
C398 C397 1.267 . S
C398 C399 1.251 . S
C399 H369 0.929 . S
C399 N395 1.418 . S
C399 C398 1.251 . S
C400 H367 0.930 . S
C400 C402 1.406 . S
C400 C405 1.261 . S
C401 H368 0.930 . S
C401 N403 1.325 . S
C401 C404 1.357 . S
C402 H370 0.928 . S
C402 C400 1.406 . S
C402 N403 1.261 . S
N403 Co354 2.214 . S
N403 C401 1.325 . S
N403 C402 1.261 . S
C404 H374 0.931 . S
C404 C401 1.357 . S
C404 C405 1.312 . S
C405 H376 0.930 . S
C405 C400 1.261 . S
C405 C404 1.312 . S
C406 O378 1.214 1_545 S
C406 O386 1.234 . S
C407 H379 0.929 . S
C407 C410 1.391 . S
C407 C412 1.391 . S
C408 H380 0.929 . S
C408 C409 1.390 . S
C408 N411 1.391 . S
C409 H381 0.930 . S
C409 C408 1.390 . S
C409 C410 1.392 . S
C410 H382 0.929 . S
C410 C407 1.391 . S
C410 C409 1.392 . S
N411 Co355 2.257 . S
N411 C408 1.391 . S
N411 C412 1.388 . S
C412 H383 0.930 . S
C412 C407 1.391 . S
C412 N411 1.388 . S
Co413 O415 2.143 . S
Co413 O421 2.074 . S
Co413 O424 2.093 . S
Co413 O437 2.097 . S
Co413 N454 2.151 . S
Co413 N462 2.214 . S
Co414 O415 2.160 . S
Co414 O420 2.058 . S
Co414 O430 2.057 . S
Co414 O445 2.037 . S
Co414 N449 2.145 . S
Co414 N470 2.257 . S
O415 Co413 2.143 . S
O415 Co414 2.160 . S
C416 O417 1.278 . S
C416 O424 1.224 . S
O417 C416 1.278 . S
C418 O419 1.245 . S
C418 O430 1.232 . S
O419 C418 1.245 . S
O420 Co414 2.058 . S
O420 C446 1.269 . S
O421 Co413 2.074 . S
O421 C446 1.257 . S
H422 C447 0.930 . S
H423 C453 0.930 . S
O424 Co413 2.093 . S
O424 C416 1.224 . S
H425 C457 0.929 . S
H426 C459 0.930 1_455 S
H427 C460 0.930 . S
H428 C458 0.929 . S
H429 C461 0.928 . S
O430 Co414 2.057 . S
O430 C418 1.232 . S
H431 C450 0.929 . S
H432 C451 0.929 . S
H433 C463 0.931 . S
H434 C455 0.929 . S
H435 C464 0.930 . S
H436 C456 0.931 . S
O437 Co413 2.097 . S
O437 C465 1.214 . S
H438 C466 0.929 . S
H439 C467 0.929 . S
H440 C468 0.930 . S
H441 C469 0.929 . S
H442 C471 0.930 . S
H443 C448 0.930 . S
H444 C452 0.930 . S
O445 Co414 2.037 . S
O445 C465 1.234 . S
C446 O420 1.269 . S
C446 O421 1.257 . S
C447 H422 0.930 . S
C447 C450 1.388 . S
C447 C452 1.418 . S
C448 H443 0.930 . S
C448 C451 1.404 . S
C448 C452 1.353 . S
N449 Co414 2.145 . S
N449 C450 1.397 . S
N449 C451 1.334 . S
C450 H431 0.929 . S
C450 C447 1.388 . S
C450 N449 1.397 . S
C451 H432 0.929 . S
C451 C448 1.404 . S
C451 N449 1.334 . S
C452 H444 0.930 . S
C452 C447 1.418 . S
C452 C448 1.353 . S
C453 H423 0.930 . S
C453 N454 1.330 . S
C453 C455 1.446 . S
N454 Co413 2.151 . S
N454 C453 1.330 . S
N454 C458 1.418 . S
C455 H434 0.929 . S
C455 C453 1.446 . S
C455 C456 1.332 . S
C456 H436 0.931 . S
C456 C455 1.332 . S
C456 C457 1.267 . S
C457 H425 0.929 . S
C457 C456 1.267 . S
C457 C458 1.251 . S
C458 H428 0.929 . S
C458 N454 1.418 . S
C458 C457 1.251 . S
C459 H426 0.930 1_655 S
C459 C461 1.406 . S
C459 C464 1.261 1_655 S
C460 H427 0.930 . S
C460 N462 1.325 . S
C460 C463 1.357 1_655 S
C461 H429 0.928 . S
C461 C459 1.406 . S
C461 N462 1.261 . S
N462 Co413 2.214 . S
N462 C460 1.325 . S
N462 C461 1.261 . S
C463 H433 0.931 . S
C463 C460 1.357 1_455 S
C463 C464 1.312 . S
C464 H435 0.930 . S
C464 C459 1.261 1_455 S
C464 C463 1.312 . S
C465 O437 1.214 . S
C465 O445 1.234 . S
C466 H438 0.929 . S
C466 C469 1.391 . S
C466 C471 1.391 . S
C467 H439 0.929 . S
C467 C468 1.390 . S
C467 N470 1.391 . S
C468 H440 0.930 . S
C468 C467 1.390 . S
C468 C469 1.392 . S
C469 H441 0.929 . S
C469 C466 1.391 . S
C469 C468 1.392 . S
N470 Co414 2.257 . S
N470 C467 1.391 . S
N470 C471 1.388 . S
C471 H442 0.930 . S
C471 C466 1.391 . S
C471 N470 1.388 . S
Co472 O474 2.143 . S
Co472 O480 2.074 . S
Co472 O483 2.093 . S
Co472 O496 2.097 1_455 S
Co472 N513 2.151 . S
Co472 N521 2.214 . S
Co473 O474 2.160 1_655 S
Co473 O479 2.058 1_655 S
Co473 O489 2.057 . S
Co473 O504 2.037 . S
Co473 N508 2.145 . S
Co473 N529 2.257 . S
O474 Co472 2.143 . S
O474 Co473 2.160 1_455 S
C475 O476 1.278 1_455 S
C475 O483 1.224 . S
O476 C475 1.278 1_655 S
C477 O478 1.245 1_655 S
C477 O489 1.232 . S
O478 C477 1.245 1_455 S
O479 Co473 2.058 1_455 S
O479 C505 1.269 . S
O480 Co472 2.074 . S
O480 C505 1.257 . S
H481 C506 0.930 . S
H482 C512 0.930 . S
O483 Co472 2.093 . S
O483 C475 1.224 . S
H484 C516 0.929 . S
H485 C518 0.930 . S
H486 C519 0.930 . S
H487 C517 0.929 . S
H488 C520 0.928 . S
O489 Co473 2.057 . S
O489 C477 1.232 . S
H490 C509 0.929 . S
H491 C510 0.929 . S
H492 C522 0.931 1_545 S
H493 C514 0.929 . S
H494 C523 0.930 . S
H495 C515 0.931 . S
O496 Co472 2.097 1_655 S
O496 C524 1.214 . S
H497 C525 0.929 . S
H498 C526 0.929 . S
H499 C527 0.930 . S
H500 C528 0.929 . S
H501 C530 0.930 . S
H502 C507 0.930 . S
H503 C511 0.930 . S
O504 Co473 2.037 . S
O504 C524 1.234 . S
C505 O479 1.269 . S
C505 O480 1.257 . S
C506 H481 0.930 . S
C506 C509 1.388 . S
C506 C511 1.418 . S
C507 H502 0.930 . S
C507 C510 1.404 . S
C507 C511 1.353 . S
N508 Co473 2.145 . S
N508 C509 1.397 . S
N508 C510 1.334 . S
C509 H490 0.929 . S
C509 C506 1.388 . S
C509 N508 1.397 . S
C510 H491 0.929 . S
C510 C507 1.404 . S
C510 N508 1.334 . S
C511 H503 0.930 . S
C511 C506 1.418 . S
C511 C507 1.353 . S
C512 H482 0.930 . S
C512 N513 1.330 . S
C512 C514 1.446 . S
N513 Co472 2.151 . S
N513 C512 1.330 . S
N513 C517 1.418 . S
C514 H493 0.929 . S
C514 C512 1.446 . S
C514 C515 1.332 . S
C515 H495 0.931 . S
C515 C514 1.332 . S
C515 C516 1.267 . S
C516 H484 0.929 . S
C516 C515 1.267 . S
C516 C517 1.251 . S
C517 H487 0.929 . S
C517 N513 1.418 . S
C517 C516 1.251 . S
C518 H485 0.930 . S
C518 C520 1.406 . S
C518 C523 1.261 1_565 S
C519 H486 0.930 . S
C519 N521 1.325 . S
C519 C522 1.357 . S
C520 H488 0.928 . S
C520 C518 1.406 . S
C520 N521 1.261 . S
N521 Co472 2.214 . S
N521 C519 1.325 . S
N521 C520 1.261 . S
C522 H492 0.931 1_565 S
C522 C519 1.357 . S
C522 C523 1.312 1_565 S
C523 H494 0.930 . S
C523 C518 1.261 1_545 S
C523 C522 1.312 1_545 S
C524 O496 1.214 . S
C524 O504 1.234 . S
C525 H497 0.929 . S
C525 C528 1.391 . S
C525 C530 1.391 . S
C526 H498 0.929 . S
C526 C527 1.390 . S
C526 N529 1.391 . S
C527 H499 0.930 . S
C527 C526 1.390 . S
C527 C528 1.392 . S
C528 H500 0.929 . S
C528 C525 1.391 . S
C528 C527 1.392 . S
N529 Co473 2.257 . S
N529 C526 1.391 . S
N529 C530 1.388 . S
C530 H501 0.930 . S
C530 C525 1.391 . S
C530 N529 1.388 . S
Co531 O533 2.143 . S
Co531 O539 2.074 . S
Co531 O542 2.093 . S
Co531 O555 2.097 . S
Co531 N572 2.151 . S
Co531 N580 2.214 . S
Co532 O533 2.160 1_565 S
Co532 O538 2.058 1_565 S
Co532 O548 2.057 . S
Co532 O563 2.037 . S
Co532 N567 2.145 . S
Co532 N588 2.257 . S
O533 Co531 2.143 . S
O533 Co532 2.160 1_545 S
C534 O535 1.278 1_545 S
C534 O542 1.224 . S
O535 C534 1.278 1_565 S
C536 O537 1.245 1_565 S
C536 O548 1.232 . S
O537 C536 1.245 1_545 S
O538 Co532 2.058 1_545 S
O538 C564 1.269 . S
O539 Co531 2.074 . S
O539 C564 1.257 . S
H540 C565 0.930 . S
H541 C571 0.930 . S
O542 Co531 2.093 . S
O542 C534 1.224 . S
H543 C575 0.929 . S
H544 C577 0.930 . S
H545 C578 0.930 . S
H546 C576 0.929 . S
H547 C579 0.928 . S
O548 Co532 2.057 . S
O548 C536 1.232 . S
H549 C568 0.929 . S
H550 C569 0.929 . S
H551 C581 0.931 . S
H552 C573 0.929 . S
H553 C582 0.930 . S
H554 C574 0.931 . S
O555 Co531 2.097 . S
O555 C583 1.214 1_545 S
H556 C584 0.929 . S
H557 C585 0.929 . S
H558 C586 0.930 . S
H559 C587 0.929 . S
H560 C589 0.930 . S
H561 C566 0.930 . S
H562 C570 0.930 . S
O563 Co532 2.037 . S
O563 C583 1.234 . S
C564 O538 1.269 . S
C564 O539 1.257 . S
C565 H540 0.930 . S
C565 C568 1.388 . S
C565 C570 1.418 . S
C566 H561 0.930 . S
C566 C569 1.404 . S
C566 C570 1.353 . S
N567 Co532 2.145 . S
N567 C568 1.397 . S
N567 C569 1.334 . S
C568 H549 0.929 . S
C568 C565 1.388 . S
C568 N567 1.397 . S
C569 H550 0.929 . S
C569 C566 1.404 . S
C569 N567 1.334 . S
C570 H562 0.930 . S
C570 C565 1.418 . S
C570 C566 1.353 . S
C571 H541 0.930 . S
C571 N572 1.330 . S
C571 C573 1.446 . S
N572 Co531 2.151 . S
N572 C571 1.330 . S
N572 C576 1.418 . S
C573 H552 0.929 . S
C573 C571 1.446 . S
C573 C574 1.332 . S
C574 H554 0.931 . S
C574 C573 1.332 . S
C574 C575 1.267 . S
C575 H543 0.929 . S
C575 C574 1.267 . S
C575 C576 1.251 . S
C576 H546 0.929 . S
C576 N572 1.418 . S
C576 C575 1.251 . S
C577 H544 0.930 . S
C577 C579 1.406 . S
C577 C582 1.261 . S
C578 H545 0.930 . S
C578 N580 1.325 . S
C578 C581 1.357 . S
C579 H547 0.928 . S
C579 C577 1.406 . S
C579 N580 1.261 . S
N580 Co531 2.214 . S
N580 C578 1.325 . S
N580 C579 1.261 . S
C581 H551 0.931 . S
C581 C578 1.357 . S
C581 C582 1.312 . S
C582 H553 0.930 . S
C582 C577 1.261 . S
C582 C581 1.312 . S
C583 O555 1.214 1_565 S
C583 O563 1.234 . S
C584 H556 0.929 . S
C584 C587 1.391 . S
C584 C589 1.391 . S
C585 H557 0.929 . S
C585 C586 1.390 . S
C585 N588 1.391 . S
C586 H558 0.930 . S
C586 C585 1.390 . S
C586 C587 1.392 . S
C587 H559 0.929 . S
C587 C584 1.391 . S
C587 C586 1.392 . S
N588 Co532 2.257 . S
N588 C585 1.391 . S
N588 C589 1.388 . S
C589 H560 0.930 . S
C589 C584 1.391 . S
C589 N588 1.388 . S
Co590 O592 2.143 . S
Co590 O598 2.074 . S
Co590 O601 2.093 . S
Co590 O614 2.097 . S
Co590 N631 2.151 . S
Co590 N639 2.214 . S
Co591 O592 2.160 . S
Co591 O597 2.058 . S
Co591 O607 2.057 . S
Co591 O622 2.037 . S
Co591 N626 2.145 . S
Co591 N647 2.257 . S
O592 Co590 2.143 . S
O592 Co591 2.160 . S
C593 O594 1.278 . S
C593 O601 1.224 . S
O594 C593 1.278 . S
C595 O596 1.245 . S
C595 O607 1.232 . S
O596 C595 1.245 . S
O597 Co591 2.058 . S
O597 C623 1.269 . S
O598 Co590 2.074 . S
O598 C623 1.257 . S
H599 C624 0.930 . S
H600 C630 0.930 . S
O601 Co590 2.093 . S
O601 C593 1.224 . S
H602 C634 0.929 . S
H603 C636 0.930 1_655 S
H604 C637 0.930 . S
H605 C635 0.929 . S
H606 C638 0.928 . S
O607 Co591 2.057 . S
O607 C595 1.232 . S
H608 C627 0.929 . S
H609 C628 0.929 . S
H610 C640 0.931 . S
H611 C632 0.929 . S
H612 C641 0.930 . S
H613 C633 0.931 . S
O614 Co590 2.097 . S
O614 C642 1.214 . S
H615 C643 0.929 . S
H616 C644 0.929 . S
H617 C645 0.930 . S
H618 C646 0.929 . S
H619 C648 0.930 . S
H620 C625 0.930 . S
H621 C629 0.930 . S
O622 Co591 2.037 . S
O622 C642 1.234 . S
C623 O597 1.269 . S
C623 O598 1.257 . S
C624 H599 0.930 . S
C624 C627 1.388 . S
C624 C629 1.418 . S
C625 H620 0.930 . S
C625 C628 1.404 . S
C625 C629 1.353 . S
N626 Co591 2.145 . S
N626 C627 1.397 . S
N626 C628 1.334 . S
C627 H608 0.929 . S
C627 C624 1.388 . S
C627 N626 1.397 . S
C628 H609 0.929 . S
C628 C625 1.404 . S
C628 N626 1.334 . S
C629 H621 0.930 . S
C629 C624 1.418 . S
C629 C625 1.353 . S
C630 H600 0.930 . S
C630 N631 1.330 . S
C630 C632 1.446 . S
N631 Co590 2.151 . S
N631 C630 1.330 . S
N631 C635 1.418 . S
C632 H611 0.929 . S
C632 C630 1.446 . S
C632 C633 1.332 . S
C633 H613 0.931 . S
C633 C632 1.332 . S
C633 C634 1.267 . S
C634 H602 0.929 . S
C634 C633 1.267 . S
C634 C635 1.251 . S
C635 H605 0.929 . S
C635 N631 1.418 . S
C635 C634 1.251 . S
C636 H603 0.930 1_455 S
C636 C638 1.406 . S
C636 C641 1.261 1_455 S
C637 H604 0.930 . S
C637 N639 1.325 . S
C637 C640 1.357 1_455 S
C638 H606 0.928 . S
C638 C636 1.406 . S
C638 N639 1.261 . S
N639 Co590 2.214 . S
N639 C637 1.325 . S
N639 C638 1.261 . S
C640 H610 0.931 . S
C640 C637 1.357 1_655 S
C640 C641 1.312 . S
C641 H612 0.930 . S
C641 C636 1.261 1_655 S
C641 C640 1.312 . S
C642 O614 1.214 . S
C642 O622 1.234 . S
C643 H615 0.929 . S
C643 C646 1.391 . S
C643 C648 1.391 . S
C644 H616 0.929 . S
C644 C645 1.390 . S
C644 N647 1.391 . S
C645 H617 0.930 . S
C645 C644 1.390 . S
C645 C646 1.392 . S
C646 H618 0.929 . S
C646 C643 1.391 . S
C646 C645 1.392 . S
N647 Co591 2.257 . S
N647 C644 1.391 . S
N647 C648 1.388 . S
C648 H619 0.930 . S
C648 C643 1.391 . S
C648 N647 1.388 . S
Co649 O651 2.148 . S
Co649 O657 2.074 . S
Co649 O660 2.093 . S
Co649 O673 2.097 1_655 S
Co649 N690 2.151 . S
Co649 N698 2.214 . S
Co650 O651 2.146 1_455 S
Co650 O656 2.058 1_455 S
Co650 O666 2.057 . S
Co650 O681 2.037 . S
Co650 N685 2.145 . S
Co650 N706 2.257 . S
O651 Co649 2.148 . S
O651 Co650 2.146 1_655 S
C652 O653 1.278 1_655 S
C652 O660 1.224 . S
O653 C652 1.278 1_455 S
C654 O655 1.245 1_455 S
C654 O666 1.232 . S
O655 C654 1.245 1_655 S
O656 Co650 2.058 1_655 S
O656 C682 1.269 . S
O657 Co649 2.074 . S
O657 C682 1.257 . S
H658 C683 0.930 . S
H659 C689 0.930 . S
O660 Co649 2.093 . S
O660 C652 1.224 . S
H661 C693 0.929 . S
H662 C695 0.930 . S
H663 C696 0.930 . S
H664 C694 0.929 . S
H665 C697 0.928 . S
O666 Co650 2.057 . S
O666 C654 1.232 . S
H667 C686 0.929 . S
H668 C687 0.929 . S
H669 C699 0.931 1_565 S
H670 C691 0.929 . S
H671 C700 0.930 . S
H672 C692 0.931 . S
O673 Co649 2.097 1_455 S
O673 C701 1.214 . S
H674 C702 0.929 . S
H675 C703 0.929 . S
H676 C704 0.930 . S
H677 C705 0.929 . S
H678 C707 0.930 . S
H679 C684 0.930 . S
H680 C688 0.930 . S
O681 Co650 2.037 . S
O681 C701 1.234 . S
C682 O656 1.269 . S
C682 O657 1.257 . S
C683 H658 0.930 . S
C683 C686 1.388 . S
C683 C688 1.418 . S
C684 H679 0.930 . S
C684 C687 1.404 . S
C684 C688 1.353 . S
N685 Co650 2.145 . S
N685 C686 1.397 . S
N685 C687 1.334 . S
C686 H667 0.929 . S
C686 C683 1.388 . S
C686 N685 1.397 . S
C687 H668 0.929 . S
C687 C684 1.404 . S
C687 N685 1.334 . S
C688 H680 0.930 . S
C688 C683 1.418 . S
C688 C684 1.353 . S
C689 H659 0.930 . S
C689 N690 1.330 . S
C689 C691 1.446 . S
N690 Co649 2.151 . S
N690 C689 1.330 . S
N690 C694 1.418 . S
C691 H670 0.929 . S
C691 C689 1.446 . S
C691 C692 1.332 . S
C692 H672 0.931 . S
C692 C691 1.332 . S
C692 C693 1.267 . S
C693 H661 0.929 . S
C693 C692 1.267 . S
C693 C694 1.251 . S
C694 H664 0.929 . S
C694 N690 1.418 . S
C694 C693 1.251 . S
C695 H662 0.930 . S
C695 C697 1.406 . S
C695 C700 1.261 1_545 S
C696 H663 0.930 . S
C696 N698 1.325 . S
C696 C699 1.357 . S
C697 H665 0.928 . S
C697 C695 1.406 . S
C697 N698 1.261 . S
N698 Co649 2.214 . S
N698 C696 1.325 . S
N698 C697 1.261 . S
C699 H669 0.931 1_545 S
C699 C696 1.357 . S
C699 C700 1.312 1_545 S
C700 H671 0.930 . S
C700 C695 1.261 1_565 S
C700 C699 1.312 1_565 S
C701 O673 1.214 . S
C701 O681 1.234 . S
C702 H674 0.929 . S
C702 C705 1.391 . S
C702 C707 1.391 . S
C703 H675 0.929 . S
C703 C704 1.390 . S
C703 N706 1.391 . S
C704 H676 0.930 . S
C704 C703 1.390 . S
C704 C705 1.392 . S
C705 H677 0.929 . S
C705 C702 1.391 . S
C705 C704 1.392 . S
N706 Co650 2.257 . S
N706 C703 1.391 . S
N706 C707 1.388 . S
C707 H678 0.930 . S
C707 C702 1.391 . S
C707 N706 1.388 . S
H708 C716 0.950 . S
H709 C721 0.950 . S
H710 C718 0.950 . S
H711 C720 0.950 . S
H712 C722 0.950 . S
H713 C724 0.950 . S
H714 C726 0.950 1_655 S
H715 C727 0.950 . S
C716 H708 0.950 . S
C716 C717 1.386 . S
C716 C718 1.391 . S
C717 C716 1.386 . S
C717 C721 1.393 1_655 S
C718 H710 0.950 . S
C718 C716 1.391 . S
C718 C719 1.400 1_655 S
C719 C718 1.400 1_455 S
C719 C720 1.398 . S
C719 C725 1.491 . S
C720 H711 0.950 . S
C720 C719 1.398 . S
C720 C721 1.391 . S
C721 H709 0.950 . S
C721 C717 1.393 1_455 S
C721 C720 1.391 . S
C722 H712 0.950 . S
C722 C723 1.386 . S
C722 C724 1.391 . S
C723 C722 1.386 . S
C723 C727 1.393 . S
C724 H713 0.950 . S
C724 C722 1.391 . S
C724 C725 1.400 . S
C725 C719 1.491 . S
C725 C724 1.400 . S
C725 C726 1.398 . S
C726 H714 0.950 1_455 S
C726 C725 1.398 . S
C726 C727 1.391 . S
C727 H715 0.950 . S
C727 C723 1.393 . S
C727 C726 1.391 . S
H728 C736 0.950 . S
H729 C741 0.950 . S
H730 C738 0.950 . S
H731 C740 0.950 1_565 S
H732 C742 0.950 . S
H733 C744 0.950 . S
H734 C746 0.950 1_545 S
H735 C747 0.950 . S
C736 H728 0.950 . S
C736 C737 1.386 . S
C736 C738 1.391 . S
C737 C736 1.386 . S
C737 C741 1.393 . S
C738 H730 0.950 . S
C738 C736 1.391 . S
C738 C739 1.400 . S
C739 C738 1.400 . S
C739 C740 1.398 . S
C739 C745 1.491 1_545 S
C740 H731 0.950 1_545 S
C740 C739 1.398 . S
C740 C741 1.391 . S
C741 H729 0.950 . S
C741 C737 1.393 . S
C741 C740 1.391 . S
C742 H732 0.950 . S
C742 C743 1.386 . S
C742 C744 1.391 . S
C743 C742 1.386 . S
C743 C747 1.393 . S
C744 H733 0.950 . S
C744 C742 1.391 . S
C744 C745 1.400 . S
C745 C739 1.491 1_565 S
C745 C744 1.400 . S
C745 C746 1.398 . S
C746 H734 0.950 1_565 S
C746 C745 1.398 . S
C746 C747 1.391 . S
C747 H735 0.950 . S
C747 C743 1.393 . S
C747 C746 1.391 . S
H748 C756 0.950 . S
H749 C761 0.950 . S
H750 C758 0.950 . S
H751 C760 0.950 . S
H752 C762 0.950 . S
H753 C764 0.950 . S
H754 C766 0.950 . S
H755 C767 0.950 . S
C756 H748 0.950 . S
C756 C757 1.386 . S
C756 C758 1.391 . S
C757 C756 1.386 . S
C757 C761 1.393 . S
C758 H750 0.950 . S
C758 C756 1.391 . S
C758 C759 1.400 . S
C759 C758 1.400 . S
C759 C760 1.398 . S
C759 C765 1.491 . S
C760 H751 0.950 . S
C760 C759 1.398 . S
C760 C761 1.391 . S
C761 H749 0.950 . S
C761 C757 1.393 . S
C761 C760 1.391 . S
C762 H752 0.950 . S
C762 C763 1.386 . S
C762 C764 1.391 . S
C763 C762 1.386 . S
C763 C767 1.393 . S
C764 H753 0.950 . S
C764 C762 1.391 . S
C764 C765 1.400 . S
C765 C759 1.491 . S
C765 C764 1.400 . S
C765 C766 1.398 . S
C766 H754 0.950 . S
C766 C765 1.398 . S
C766 C767 1.391 . S
C767 H755 0.950 . S
C767 C763 1.393 . S
C767 C766 1.391 . S
H768 C776 0.950 . S
H769 C781 0.950 . S
H770 C778 0.950 . S
H771 C780 0.950 . S
H772 C782 0.950 . S
H773 C784 0.950 . S
H774 C786 0.950 . S
H775 C787 0.950 . S
C776 H768 0.950 . S
C776 C777 1.386 1_455 S
C776 C778 1.391 . S
C777 C776 1.386 1_655 S
C777 C781 1.393 . S
C778 H770 0.950 . S
C778 C776 1.391 . S
C778 C779 1.400 1_455 S
C779 C778 1.400 1_655 S
C779 C780 1.398 . S
C779 C785 1.491 . S
C780 H771 0.950 . S
C780 C779 1.398 . S
C780 C781 1.391 . S
C781 H769 0.950 . S
C781 C777 1.393 . S
C781 C780 1.391 . S
C782 H772 0.950 . S
C782 C783 1.386 1_655 S
C782 C784 1.391 . S
C783 C782 1.386 1_455 S
C783 C787 1.393 . S
C784 H773 0.950 . S
C784 C782 1.391 . S
C784 C785 1.400 . S
C785 C779 1.491 . S
C785 C784 1.400 . S
C785 C786 1.398 1_655 S
C786 H774 0.950 . S
C786 C785 1.398 1_455 S
C786 C787 1.391 . S
C787 H775 0.950 . S
C787 C783 1.393 . S
C787 C786 1.391 . S
H788 C796 0.950 . S
H789 C801 0.950 . S
H790 C798 0.950 . S
H791 C800 0.950 . S
H792 C802 0.950 . S
H793 C804 0.950 . S
H794 C806 0.950 . S
H795 C807 0.950 . S
C796 H788 0.950 . S
C796 C797 1.386 1_565 S
C796 C798 1.391 . S
C797 C796 1.386 1_545 S
C797 C801 1.393 . S
C798 H790 0.950 . S
C798 C796 1.391 . S
C798 C799 1.400 1_565 S
C799 C798 1.400 1_545 S
C799 C800 1.398 . S
C799 C805 1.491 1_545 S
C800 H791 0.950 . S
C800 C799 1.398 . S
C800 C801 1.391 . S
C801 H789 0.950 . S
C801 C797 1.393 . S
C801 C800 1.391 . S
C802 H792 0.950 . S
C802 C803 1.386 1_545 S
C802 C804 1.391 . S
C803 C802 1.386 1_565 S
C803 C807 1.393 . S
C804 H793 0.950 . S
C804 C802 1.391 . S
C804 C805 1.400 1_545 S
C805 C799 1.491 1_565 S
C805 C804 1.400 1_565 S
C805 C806 1.398 . S
C806 H794 0.950 . S
C806 C805 1.398 . S
C806 C807 1.391 . S
C807 H795 0.950 . S
C807 C803 1.393 . S
C807 C806 1.391 . S
H808 C816 0.950 . S
H809 C821 0.950 . S
H810 C818 0.950 . S
H811 C820 0.950 . S
H812 C822 0.950 . S
H813 C824 0.950 . S
H814 C826 0.950 . S
H815 C827 0.950 . S
C816 H808 0.950 . S
C816 C817 1.386 . S
C816 C818 1.391 . S
C817 C816 1.386 . S
C817 C821 1.393 . S
C818 H810 0.950 . S
C818 C816 1.391 . S
C818 C819 1.400 . S
C819 C818 1.400 . S
C819 C820 1.398 . S
C819 C825 1.491 . S
C820 H811 0.950 . S
C820 C819 1.398 . S
C820 C821 1.391 . S
C821 H809 0.950 . S
C821 C817 1.393 . S
C821 C820 1.391 . S
C822 H812 0.950 . S
C822 C823 1.386 . S
C822 C824 1.391 . S
C823 C822 1.386 . S
C823 C827 1.393 . S
C824 H813 0.950 . S
C824 C822 1.391 . S
C824 C825 1.400 . S
C825 C819 1.491 . S
C825 C824 1.400 . S
C825 C826 1.398 . S
C826 H814 0.950 . S
C826 C825 1.398 . S
C826 C827 1.391 . S
C827 H815 0.950 . S
C827 C823 1.393 . S
C827 C826 1.391 . S
H828 C836 0.950 . S
H829 C841 0.950 . S
H830 C838 0.950 . S
H831 C840 0.950 . S
H832 C842 0.950 . S
H833 C844 0.950 . S
H834 C846 0.950 . S
H835 C847 0.950 . S
C836 H828 0.950 . S
C836 C837 1.386 . S
C836 C838 1.391 . S
C837 C836 1.386 . S
C837 C841 1.393 . S
C838 H830 0.950 . S
C838 C836 1.391 . S
C838 C839 1.400 . S
C839 C838 1.400 . S
C839 C840 1.398 . S
C839 C845 1.491 1_554 S
C840 H831 0.950 . S
C840 C839 1.398 . S
C840 C841 1.391 . S
C841 H829 0.950 . S
C841 C837 1.393 . S
C841 C840 1.391 . S
C842 H832 0.950 . S
C842 C843 1.386 . S
C842 C844 1.391 . S
C843 C842 1.386 . S
C843 C847 1.393 . S
C844 H833 0.950 . S
C844 C842 1.391 . S
C844 C845 1.400 . S
C845 C839 1.491 1_556 S
C845 C844 1.400 . S
C845 C846 1.398 . S
C846 H834 0.950 . S
C846 C845 1.398 . S
C846 C847 1.391 . S
C847 H835 0.950 . S
C847 C843 1.393 . S
C847 C846 1.391 . S
H848 C856 0.950 . S
H849 C861 0.950 . S
H850 C858 0.950 . S
H851 C860 0.950 . S
H852 C862 0.950 . S
H853 C864 0.950 . S
H854 C866 0.950 . S
H855 C867 0.950 . S
C856 H848 0.950 . S
C856 C857 1.386 . S
C856 C858 1.391 . S
C857 C856 1.386 . S
C857 C861 1.393 . S
C858 H850 0.950 . S
C858 C856 1.391 . S
C858 C859 1.400 . S
C859 C858 1.400 . S
C859 C860 1.398 . S
C859 C865 1.491 . S
C860 H851 0.950 . S
C860 C859 1.398 . S
C860 C861 1.391 . S
C861 H849 0.950 . S
C861 C857 1.393 . S
C861 C860 1.391 . S
C862 H852 0.950 . S
C862 C863 1.386 . S
C862 C864 1.391 . S
C863 C862 1.386 . S
C863 C867 1.393 . S
C864 H853 0.950 . S
C864 C862 1.391 . S
C864 C865 1.400 . S
C865 C859 1.491 . S
C865 C864 1.400 . S
C865 C866 1.398 . S
C866 H854 0.950 . S
C866 C865 1.398 . S
C866 C867 1.391 . S
C867 H855 0.950 . S
C867 C863 1.393 . S
C867 C866 1.391 . S
H868 C876 0.950 . S
H869 C881 0.950 . S
H870 C878 0.950 . S
H871 C880 0.950 . S
H872 C882 0.950 . S
H873 C884 0.950 . S
H874 C886 0.950 . S
H875 C887 0.950 . S
C876 H868 0.950 . S
C876 C877 1.386 . S
C876 C878 1.391 . S
C877 C876 1.386 . S
C877 C881 1.393 . S
C878 H870 0.950 . S
C878 C876 1.391 . S
C878 C879 1.400 . S
C879 C878 1.400 . S
C879 C880 1.398 . S
C879 C885 1.491 . S
C880 H871 0.950 . S
C880 C879 1.398 . S
C880 C881 1.391 . S
C881 H869 0.950 . S
C881 C877 1.393 . S
C881 C880 1.391 . S
C882 H872 0.950 . S
C882 C883 1.386 . S
C882 C884 1.391 . S
C883 C882 1.386 . S
C883 C887 1.393 . S
C884 H873 0.950 . S
C884 C882 1.391 . S
C884 C885 1.400 . S
C885 C879 1.491 . S
C885 C884 1.400 . S
C885 C886 1.398 . S
C886 H874 0.950 . S
C886 C885 1.398 . S
C886 C887 1.391 . S
C887 H875 0.950 . S
C887 C883 1.393 . S
C887 C886 1.391 . S
H888 C896 0.950 . S
H889 C901 0.950 . S
H890 C898 0.950 . S
H891 C900 0.950 . S
H892 C902 0.950 . S
H893 C904 0.950 . S
H894 C906 0.950 . S
H895 C907 0.950 . S
C896 H888 0.950 . S
C896 C897 1.386 . S
C896 C898 1.391 . S
C897 C896 1.386 . S
C897 C901 1.393 . S
C898 H890 0.950 . S
C898 C896 1.391 . S
C898 C899 1.400 . S
C899 C898 1.400 . S
C899 C900 1.398 . S
C899 C905 1.491 1_554 S
C900 H891 0.950 . S
C900 C899 1.398 . S
C900 C901 1.391 . S
C901 H889 0.950 . S
C901 C897 1.393 . S
C901 C900 1.391 . S
C902 H892 0.950 . S
C902 C903 1.386 . S
C902 C904 1.391 . S
C903 C902 1.386 . S
C903 C907 1.393 . S
C904 H893 0.950 . S
C904 C902 1.391 . S
C904 C905 1.400 . S
C905 C899 1.491 1_556 S
C905 C904 1.400 . S
C905 C906 1.398 . S
C906 H894 0.950 . S
C906 C905 1.398 . S
C906 C907 1.391 . S
C907 H895 0.950 . S
C907 C903 1.393 . S
C907 C906 1.391 . S
H908 C916 0.950 . S
H909 C921 0.950 . S
H910 C918 0.950 . S
H911 C920 0.950 . S
H912 C922 0.950 . S
H913 C924 0.950 . S
H914 C926 0.950 . S
H915 C927 0.950 . S
C916 H908 0.950 . S
C916 C917 1.386 . S
C916 C918 1.391 . S
C917 C916 1.386 . S
C917 C921 1.393 . S
C918 H910 0.950 . S
C918 C916 1.391 . S
C918 C919 1.400 . S
C919 C918 1.400 . S
C919 C920 1.398 . S
C919 C925 1.491 . S
C920 H911 0.950 . S
C920 C919 1.398 . S
C920 C921 1.391 . S
C921 H909 0.950 . S
C921 C917 1.393 . S
C921 C920 1.391 . S
C922 H912 0.950 . S
C922 C923 1.386 . S
C922 C924 1.391 . S
C923 C922 1.386 . S
C923 C927 1.393 . S
C924 H913 0.950 . S
C924 C922 1.391 . S
C924 C925 1.400 . S
C925 C919 1.491 . S
C925 C924 1.400 . S
C925 C926 1.398 . S
C926 H914 0.950 . S
C926 C925 1.398 . S
C926 C927 1.391 . S
C927 H915 0.950 . S
C927 C923 1.393 . S
C927 C926 1.391 . S
H928 C936 0.950 . S
H929 C941 0.950 . S
H930 C938 0.950 . S
H931 C940 0.950 . S
H932 C942 0.950 . S
H933 C944 0.950 . S
H934 C946 0.950 . S
H935 C947 0.950 . S
C936 H928 0.950 . S
C936 C937 1.386 . S
C936 C938 1.391 . S
C937 C936 1.386 . S
C937 C941 1.393 . S
C938 H930 0.950 . S
C938 C936 1.391 . S
C938 C939 1.400 . S
C939 C938 1.400 . S
C939 C940 1.398 . S
C939 C945 1.491 . S
C940 H931 0.950 . S
C940 C939 1.398 . S
C940 C941 1.391 . S
C941 H929 0.950 . S
C941 C937 1.393 . S
C941 C940 1.391 . S
C942 H932 0.950 . S
C942 C943 1.386 . S
C942 C944 1.391 . S
C943 C942 1.386 . S
C943 C947 1.393 . S
C944 H933 0.950 . S
C944 C942 1.391 . S
C944 C945 1.400 . S
C945 C939 1.491 . S
C945 C944 1.400 . S
C945 C946 1.398 . S
C946 H934 0.950 . S
C946 C945 1.398 . S
C946 C947 1.391 . S
C947 H935 0.950 . S
C947 C943 1.393 . S
C947 C946 1.391 . S
H948 C956 0.950 . S
H949 C961 0.950 . S
H950 C958 0.950 . S
H951 C960 0.950 . S
H952 C962 0.950 . S
H953 C964 0.950 . S
H954 C966 0.950 . S
H955 C967 0.950 . S
C956 H948 0.950 . S
C956 C957 1.386 1_655 S
C956 C958 1.391 . S
C957 C956 1.386 1_455 S
C957 C961 1.393 . S
C958 H950 0.950 . S
C958 C956 1.391 . S
C958 C959 1.400 1_655 S
C959 C958 1.400 1_455 S
C959 C960 1.398 . S
C959 C965 1.491 1_455 S
C960 H951 0.950 . S
C960 C959 1.398 . S
C960 C961 1.391 . S
C961 H949 0.950 . S
C961 C957 1.393 . S
C961 C960 1.391 . S
C962 H952 0.950 . S
C962 C963 1.386 1_455 S
C962 C964 1.391 . S
C963 C962 1.386 1_655 S
C963 C967 1.393 . S
C964 H953 0.950 . S
C964 C962 1.391 . S
C964 C965 1.400 1_455 S
C965 C959 1.491 1_655 S
C965 C964 1.400 1_655 S
C965 C966 1.398 . S
C966 H954 0.950 . S
C966 C965 1.398 . S
C966 C967 1.391 . S
C967 H955 0.950 . S
C967 C963 1.393 . S
C967 C966 1.391 . S
H968 C976 0.950 . S
H969 C981 0.950 . S
H970 C978 0.950 . S
H971 C980 0.950 . S
H972 C982 0.950 . S
H973 C984 0.950 . S
H974 C986 0.950 . S
H975 C987 0.950 . S
C976 H968 0.950 . S
C976 C977 1.386 . S
C976 C978 1.391 . S
C977 C976 1.386 . S
C977 C981 1.393 1_565 S
C978 H970 0.950 . S
C978 C976 1.391 . S
C978 C979 1.400 . S
C979 C978 1.400 . S
C979 C980 1.398 1_565 S
C979 C985 1.491 1_565 S
C980 H971 0.950 . S
C980 C979 1.398 1_545 S
C980 C981 1.391 . S
C981 H969 0.950 . S
C981 C977 1.393 1_545 S
C981 C980 1.391 . S
C982 H972 0.950 . S
C982 C983 1.386 . S
C982 C984 1.391 . S
C983 C982 1.386 . S
C983 C987 1.393 1_545 S
C984 H973 0.950 . S
C984 C982 1.391 . S
C984 C985 1.400 . S
C985 C979 1.491 1_545 S
C985 C984 1.400 . S
C985 C986 1.398 1_545 S
C986 H974 0.950 . S
C986 C985 1.398 1_565 S
C986 C987 1.391 . S
C987 H975 0.950 . S
C987 C983 1.393 1_565 S
C987 C986 1.391 . S
H988 C996 0.950 . S
H989 C1001 0.950 . S
H990 C998 0.950 . S
H991 C1000 0.950 . S
H992 C1002 0.950 . S
H993 C1004 0.950 . S
H994 C1006 0.950 . S
H995 C1007 0.950 . S
C996 H988 0.950 . S
C996 C997 1.386 . S
C996 C998 1.391 . S
C997 C996 1.386 . S
C997 C1001 1.393 . S
C998 H990 0.950 . S
C998 C996 1.391 . S
C998 C999 1.400 . S
C999 C998 1.400 . S
C999 C1000 1.398 . S
C999 C1005 1.491 . S
C1000 H991 0.950 . S
C1000 C999 1.398 . S
C1000 C1001 1.391 . S
C1001 H989 0.950 . S
C1001 C997 1.393 . S
C1001 C1000 1.391 . S
C1002 H992 0.950 . S
C1002 C1003 1.386 . S
C1002 C1004 1.391 . S
C1003 C1002 1.386 . S
C1003 C1007 1.393 . S
C1004 H993 0.950 . S
C1004 C1002 1.391 . S
C1004 C1005 1.400 . S
C1005 C999 1.491 . S
C1005 C1004 1.400 . S
C1005 C1006 1.398 . S
C1006 H994 0.950 . S
C1006 C1005 1.398 . S
C1006 C1007 1.391 . S
C1007 H995 0.950 . S
C1007 C1003 1.393 . S
C1007 C1006 1.391 . S
H1008 C1016 0.950 . S
H1009 C1021 0.950 . S
H1010 C1018 0.950 . S
H1011 C1020 0.950 . S
H1012 C1022 0.950 . S
H1013 C1024 0.950 . S
H1014 C1026 0.950 . S
H1015 C1027 0.950 . S
C1016 H1008 0.950 . S
C1016 C1017 1.386 1_545 S
C1016 C1018 1.391 . S
C1017 C1016 1.386 1_565 S
C1017 C1021 1.393 . S
C1018 H1010 0.950 . S
C1018 C1016 1.391 . S
C1018 C1019 1.400 1_545 S
C1019 C1018 1.400 1_565 S
C1019 C1020 1.398 . S
C1019 C1025 1.491 1_565 S
C1020 H1011 0.950 . S
C1020 C1019 1.398 . S
C1020 C1021 1.391 . S
C1021 H1009 0.950 . S
C1021 C1017 1.393 . S
C1021 C1020 1.391 . S
C1022 H1012 0.950 . S
C1022 C1023 1.386 1_565 S
C1022 C1024 1.391 . S
C1023 C1022 1.386 1_545 S
C1023 C1027 1.393 . S
C1024 H1013 0.950 . S
C1024 C1022 1.391 . S
C1024 C1025 1.400 1_565 S
C1025 C1019 1.491 1_545 S
C1025 C1024 1.400 1_545 S
C1025 C1026 1.398 . S
C1026 H1014 0.950 . S
C1026 C1025 1.398 . S
C1026 C1027 1.391 . S
C1027 H1015 0.950 . S
C1027 C1023 1.393 . S
C1027 C1026 1.391 . S
H1028 C1036 0.950 . S
H1029 C1041 0.950 . S
H1030 C1038 0.950 . S
H1031 C1040 0.950 . S
H1032 C1042 0.950 . S
H1033 C1044 0.950 . S
H1034 C1046 0.950 . S
H1035 C1047 0.950 . S
C1036 H1028 0.950 . S
C1036 C1037 1.386 . S
C1036 C1038 1.391 . S
C1037 C1036 1.386 . S
C1037 C1041 1.393 . S
C1038 H1030 0.950 . S
C1038 C1036 1.391 . S
C1038 C1039 1.400 . S
C1039 C1038 1.400 . S
C1039 C1040 1.398 . S
C1039 C1045 1.491 . S
C1040 H1031 0.950 . S
C1040 C1039 1.398 . S
C1040 C1041 1.391 . S
C1041 H1029 0.950 . S
C1041 C1037 1.393 . S
C1041 C1040 1.391 . S
C1042 H1032 0.950 . S
C1042 C1043 1.386 . S
C1042 C1044 1.391 . S
C1043 C1042 1.386 . S
C1043 C1047 1.393 . S
C1044 H1033 0.950 . S
C1044 C1042 1.391 . S
C1044 C1045 1.400 . S
C1045 C1039 1.491 . S
C1045 C1044 1.400 . S
C1045 C1046 1.398 . S
C1046 H1034 0.950 . S
C1046 C1045 1.398 . S
C1046 C1047 1.391 . S
C1047 H1035 0.950 . S
C1047 C1043 1.393 . S
C1047 C1046 1.391 . S
H1048 C1056 0.950 . S
H1049 C1061 0.950 . S
H1050 C1058 0.950 . S
H1051 C1060 0.950 . S
H1052 C1062 0.950 . S
H1053 C1064 0.950 . S
H1054 C1066 0.950 . S
H1055 C1067 0.950 . S
C1056 H1048 0.950 . S
C1056 C1057 1.386 . S
C1056 C1058 1.391 . S
C1057 C1056 1.386 . S
C1057 C1061 1.393 1_655 S
C1058 H1050 0.950 . S
C1058 C1056 1.391 . S
C1058 C1059 1.400 . S
C1059 C1058 1.400 . S
C1059 C1060 1.398 1_655 S
C1059 C1065 1.491 1_655 S
C1060 H1051 0.950 . S
C1060 C1059 1.398 1_455 S
C1060 C1061 1.391 . S
C1061 H1049 0.950 . S
C1061 C1057 1.393 1_455 S
C1061 C1060 1.391 . S
C1062 H1052 0.950 . S
C1062 C1063 1.386 . S
C1062 C1064 1.391 . S
C1063 C1062 1.386 . S
C1063 C1067 1.393 1_455 S
C1064 H1053 0.950 . S
C1064 C1062 1.391 . S
C1064 C1065 1.400 . S
C1065 C1059 1.491 1_455 S
C1065 C1064 1.400 . S
C1065 C1066 1.398 1_455 S
C1066 H1054 0.950 . S
C1066 C1065 1.398 1_655 S
C1066 C1067 1.391 . S
C1067 H1055 0.950 . S
C1067 C1063 1.393 1_655 S
C1067 C1066 1.391 . S
H1068 C1076 0.950 . S
H1069 C1081 0.950 . S
H1070 C1078 0.950 . S
H1071 C1080 0.950 1_565 S
H1072 C1082 0.950 . S
H1073 C1084 0.950 . S
H1074 C1086 0.950 1_545 S
H1075 C1087 0.950 . S
C1076 H1068 0.950 . S
C1076 C1077 1.386 1_455 S
C1076 C1078 1.391 . S
C1077 C1076 1.386 1_655 S
C1077 C1081 1.393 . S
C1078 H1070 0.950 . S
C1078 C1076 1.391 . S
C1078 C1079 1.400 1_455 S
C1079 C1078 1.400 1_655 S
C1079 C1080 1.398 . S
C1079 C1085 1.491 1_645 S
C1080 H1071 0.950 1_545 S
C1080 C1079 1.398 . S
C1080 C1081 1.391 . S
C1081 H1069 0.950 . S
C1081 C1077 1.393 . S
C1081 C1080 1.391 . S
C1082 H1072 0.950 . S
C1082 C1083 1.386 1_655 S
C1082 C1084 1.391 . S
C1083 C1082 1.386 1_455 S
C1083 C1087 1.393 . S
C1084 H1073 0.950 . S
C1084 C1082 1.391 . S
C1084 C1085 1.400 1_655 S
C1085 C1079 1.491 1_465 S
C1085 C1084 1.400 1_455 S
C1085 C1086 1.398 . S
C1086 H1074 0.950 1_565 S
C1086 C1085 1.398 . S
C1086 C1087 1.391 . S
C1087 H1075 0.950 . S
C1087 C1083 1.393 . S
C1087 C1086 1.391 . S
H1088 C1096 0.950 . S
H1089 C1101 0.950 . S
H1090 C1098 0.950 . S
H1091 C1100 0.950 . S
H1092 C1102 0.950 . S
H1093 C1104 0.950 . S
H1094 C1106 0.950 . S
H1095 C1107 0.950 . S
C1096 H1088 0.950 . S
C1096 C1097 1.386 1_545 S
C1096 C1098 1.391 . S
C1097 C1096 1.386 1_565 S
C1097 C1101 1.393 . S
C1098 H1090 0.950 . S
C1098 C1096 1.391 . S
C1098 C1099 1.400 1_545 S
C1099 C1098 1.400 1_565 S
C1099 C1100 1.398 . S
C1099 C1105 1.491 1_665 S
C1100 H1091 0.950 . S
C1100 C1099 1.398 . S
C1100 C1101 1.391 . S
C1101 H1089 0.950 . S
C1101 C1097 1.393 . S
C1101 C1100 1.391 . S
C1102 H1092 0.950 . S
C1102 C1103 1.386 1_565 S
C1102 C1104 1.391 . S
C1103 C1102 1.386 1_545 S
C1103 C1107 1.393 . S
C1104 H1093 0.950 . S
C1104 C1102 1.391 . S
C1104 C1105 1.400 1_565 S
C1105 C1099 1.491 1_445 S
C1105 C1104 1.400 1_545 S
C1105 C1106 1.398 . S
C1106 H1094 0.950 . S
C1106 C1105 1.398 . S
C1106 C1107 1.391 . S
C1107 H1095 0.950 . S
C1107 C1103 1.393 . S
C1107 C1106 1.391 . S
H1108 C1116 0.950 . S
H1109 C1121 0.950 . S
H1110 C1118 0.950 1_655 S
H1111 C1120 0.950 . S
H1112 C1122 0.950 . S
H1113 C1124 0.950 1_455 S
H1114 C1126 0.950 . S
H1115 C1127 0.950 . S
C1116 H1108 0.950 . S
C1116 C1117 1.386 . S
C1116 C1118 1.391 . S
C1117 C1116 1.386 . S
C1117 C1121 1.393 . S
C1118 H1110 0.950 1_455 S
C1118 C1116 1.391 . S
C1118 C1119 1.400 . S
C1119 C1118 1.400 . S
C1119 C1120 1.398 . S
C1119 C1125 1.491 1_445 S
C1120 H1111 0.950 . S
C1120 C1119 1.398 . S
C1120 C1121 1.391 . S
C1121 H1109 0.950 . S
C1121 C1117 1.393 . S
C1121 C1120 1.391 . S
C1122 H1112 0.950 . S
C1122 C1123 1.386 . S
C1122 C1124 1.391 . S
C1123 C1122 1.386 . S
C1123 C1127 1.393 . S
C1124 H1113 0.950 1_655 S
C1124 C1122 1.391 . S
C1124 C1125 1.400 . S
C1125 C1119 1.491 1_665 S
C1125 C1124 1.400 . S
C1125 C1126 1.398 . S
C1126 H1114 0.950 . S
C1126 C1125 1.398 . S
C1126 C1127 1.391 . S
C1127 H1115 0.950 . S
C1127 C1123 1.393 . S
C1127 C1126 1.391 . S
H1128 C1136 0.950 . S
H1129 C1141 0.950 . S
H1130 C1138 0.950 . S
H1131 C1140 0.950 1_455 S
H1132 C1142 0.950 . S
H1133 C1144 0.950 . S
H1134 C1146 0.950 1_655 S
H1135 C1147 0.950 . S
C1136 H1128 0.950 . S
C1136 C1137 1.386 1_565 S
C1136 C1138 1.391 . S
C1137 C1136 1.386 1_545 S
C1137 C1141 1.393 . S
C1138 H1130 0.950 . S
C1138 C1136 1.391 . S
C1138 C1139 1.400 1_565 S
C1139 C1138 1.400 1_545 S
C1139 C1140 1.398 . S
C1139 C1145 1.491 1_645 S
C1140 H1131 0.950 1_655 S
C1140 C1139 1.398 . S
C1140 C1141 1.391 . S
C1141 H1129 0.950 . S
C1141 C1137 1.393 . S
C1141 C1140 1.391 . S
C1142 H1132 0.950 . S
C1142 C1143 1.386 1_545 S
C1142 C1144 1.391 . S
C1143 C1142 1.386 1_565 S
C1143 C1147 1.393 . S
C1144 H1133 0.950 . S
C1144 C1142 1.391 . S
C1144 C1145 1.400 1_545 S
C1145 C1139 1.491 1_465 S
C1145 C1144 1.400 1_565 S
C1145 C1146 1.398 . S
C1146 H1134 0.950 1_455 S
C1146 C1145 1.398 . S
C1146 C1147 1.391 . S
C1147 H1135 0.950 . S
C1147 C1143 1.393 . S
C1147 C1146 1.391 . S
H1148 C1156 0.950 . S
H1149 C1161 0.950 . S
H1150 C1158 0.950 1_545 S
H1151 C1160 0.950 . S
H1152 C1162 0.950 . S
H1153 C1164 0.950 1_565 S
H1154 C1166 0.950 . S
H1155 C1167 0.950 . S
C1156 H1148 0.950 . S
C1156 C1157 1.386 . S
C1156 C1158 1.391 . S
C1157 C1156 1.386 . S
C1157 C1161 1.393 . S
C1158 H1150 0.950 1_565 S
C1158 C1156 1.391 . S
C1158 C1159 1.400 . S
C1159 C1158 1.400 . S
C1159 C1160 1.398 . S
C1159 C1165 1.491 1_665 S
C1160 H1151 0.950 . S
C1160 C1159 1.398 . S
C1160 C1161 1.391 . S
C1161 H1149 0.950 . S
C1161 C1157 1.393 . S
C1161 C1160 1.391 . S
C1162 H1152 0.950 . S
C1162 C1163 1.386 . S
C1162 C1164 1.391 . S
C1163 C1162 1.386 . S
C1163 C1167 1.393 . S
C1164 H1153 0.950 1_545 S
C1164 C1162 1.391 . S
C1164 C1165 1.400 . S
C1165 C1159 1.491 1_445 S
C1165 C1164 1.400 . S
C1165 C1166 1.398 . S
C1166 H1154 0.950 . S
C1166 C1165 1.398 . S
C1166 C1167 1.391 . S
C1167 H1155 0.950 . S
C1167 C1163 1.393 . S
C1167 C1166 1.391 . S
H1168 C1176 0.950 1_455 S
H1169 C1181 0.950 . S
H1170 C1178 0.950 . S
H1171 C1180 0.950 . S
H1172 C1182 0.950 1_655 S
H1173 C1184 0.950 . S
H1174 C1186 0.950 . S
H1175 C1187 0.950 . S
C1176 H1168 0.950 1_655 S
C1176 C1177 1.386 . S
C1176 C1178 1.391 1_655 S
C1177 C1176 1.386 . S
C1177 C1181 1.393 . S
C1178 H1170 0.950 . S
C1178 C1176 1.391 1_455 S
C1178 C1179 1.400 1_455 S
C1179 C1178 1.400 1_655 S
C1179 C1180 1.398 . S
C1179 C1185 1.491 1_665 S
C1180 H1171 0.950 . S
C1180 C1179 1.398 . S
C1180 C1181 1.391 . S
C1181 H1169 0.950 . S
C1181 C1177 1.393 . S
C1181 C1180 1.391 . S
C1182 H1172 0.950 1_455 S
C1182 C1183 1.386 . S
C1182 C1184 1.391 1_455 S
C1183 C1182 1.386 . S
C1183 C1187 1.393 . S
C1184 H1173 0.950 . S
C1184 C1182 1.391 1_655 S
C1184 C1185 1.400 1_655 S
C1185 C1179 1.491 1_445 S
C1185 C1184 1.400 1_455 S
C1185 C1186 1.398 . S
C1186 H1174 0.950 . S
C1186 C1185 1.398 . S
C1186 C1187 1.391 . S
C1187 H1175 0.950 . S
C1187 C1183 1.393 . S
C1187 C1186 1.391 . S
C717 C652 1.435 . S
C723 C3 1.426 . S
C737 C62 1.418 . S
C743 C357 1.418 . S
C757 C121 1.435 . S
C763 C416 1.428 . S
C777 C180 1.413 . S
C783 C475 1.428 . S
C797 C534 1.420 . S
C803 C239 1.431 . S
C817 C298 1.418 . S
C823 C593 1.417 . S
C837 C33 1.275 . S
C843 C623 1.264 . S
C857 C92 1.298 . S
C863 C682 1.299 . S
C877 C151 1.307 . S
C883 C387 1.315 . S
C897 C210 1.280 . S
C903 C446 1.269 . S
C917 C505 1.302 . S
C923 C269 1.311 . S
C937 C564 1.309 . S
C943 C328 1.306 . S
C957 C182 1.409 . S
C963 C5 1.405 . S
C977 C64 1.489 . S
C983 C241 1.494 . S
C997 C300 1.559 . S
C1003 C123 1.555 . S
C1017 C536 1.483 . S
C1023 C359 1.477 . S
C1037 C595 1.382 . S
C1043 C418 1.387 . S
C1057 C477 1.503 . S
C1063 C654 1.508 . S
C1077 C52 1.299 . S
C1083 C229 1.308 . S
C1097 C111 1.294 . S
C1103 C288 1.304 . S
C1117 C347 1.416 . S
C1123 C170 1.413 . S
C1137 C406 1.299 . S
C1143 C583 1.307 . S
C1157 C465 1.267 . S
C1163 C642 1.259 . S
C1177 C524 1.360 . S
C1183 C701 1.367 . S
