# Generated by pormake.
# Topology ukf, (4)-cn, num edge types: 1
# Building blocks:
#     Node 0, Type 0, BuildingBlock: CEKHIL_clean_sbu_0, # of connection points: 4
#     Node 1, Type 0, BuildingBlock: CEKHIL_clean_sbu_0, # of connection points: 4
#     Node 2, Type 0, BuildingBlock: CEKHIL_clean_sbu_0, # of connection points: 4
#     Node 3, Type 0, BuildingBlock: CEKHIL_clean_sbu_0, # of connection points: 4
#     Node 4, Type 0, BuildingBlock: CEKHIL_clean_sbu_0, # of connection points: 4
#     Node 5, Type 0, BuildingBlock: CEKHIL_clean_sbu_0, # of connection points: 4
#     Node 6, Type 0, BuildingBlock: CEKHIL_clean_sbu_0, # of connection points: 4
#     Node 7, Type 0, BuildingBlock: CEKHIL_clean_sbu_0, # of connection points: 4
#     Node 8, Type 0, BuildingBlock: CEKHIL_clean_sbu_0, # of connection points: 4
#     Node 9, Type 0, BuildingBlock: CEKHIL_clean_sbu_0, # of connection points: 4
#     Node 10, Type 0, BuildingBlock: CEKHIL_clean_sbu_0, # of connection points: 4
#     Node 11, Type 0, BuildingBlock: CEKHIL_clean_sbu_0, # of connection points: 4
#     Edge 12, Type (0, 0), BuildingBlock: EZIPEK_clean_linker_0, # of connection points: 2
#     Edge 13, Type (0, 0), BuildingBlock: EZIPEK_clean_linker_0, # of connection points: 2
#     Edge 14, Type (0, 0), BuildingBlock: EZIPEK_clean_linker_0, # of connection points: 2
#     Edge 15, Type (0, 0), BuildingBlock: EZIPEK_clean_linker_0, # of connection points: 2
#     Edge 16, Type (0, 0), BuildingBlock: EZIPEK_clean_linker_0, # of connection points: 2
#     Edge 17, Type (0, 0), BuildingBlock: EZIPEK_clean_linker_0, # of connection points: 2
#     Edge 18, Type (0, 0), BuildingBlock: EZIPEK_clean_linker_0, # of connection points: 2
#     Edge 19, Type (0, 0), BuildingBlock: EZIPEK_clean_linker_0, # of connection points: 2
#     Edge 20, Type (0, 0), BuildingBlock: EZIPEK_clean_linker_0, # of connection points: 2
#     Edge 21, Type (0, 0), BuildingBlock: EZIPEK_clean_linker_0, # of connection points: 2
#     Edge 22, Type (0, 0), BuildingBlock: EZIPEK_clean_linker_0, # of connection points: 2
#     Edge 23, Type (0, 0), BuildingBlock: EZIPEK_clean_linker_0, # of connection points: 2
#     Edge 24, Type (0, 0), BuildingBlock: EZIPEK_clean_linker_0, # of connection points: 2
#     Edge 25, Type (0, 0), BuildingBlock: EZIPEK_clean_linker_0, # of connection points: 2
#     Edge 26, Type (0, 0), BuildingBlock: EZIPEK_clean_linker_0, # of connection points: 2
#     Edge 27, Type (0, 0), BuildingBlock: EZIPEK_clean_linker_0, # of connection points: 2
#     Edge 28, Type (0, 0), BuildingBlock: EZIPEK_clean_linker_0, # of connection points: 2
#     Edge 29, Type (0, 0), BuildingBlock: EZIPEK_clean_linker_0, # of connection points: 2
#     Edge 30, Type (0, 0), BuildingBlock: EZIPEK_clean_linker_0, # of connection points: 2
#     Edge 31, Type (0, 0), BuildingBlock: EZIPEK_clean_linker_0, # of connection points: 2
#     Edge 32, Type (0, 0), BuildingBlock: EZIPEK_clean_linker_0, # of connection points: 2
#     Edge 33, Type (0, 0), BuildingBlock: EZIPEK_clean_linker_0, # of connection points: 2
#     Edge 34, Type (0, 0), BuildingBlock: EZIPEK_clean_linker_0, # of connection points: 2
#     Edge 35, Type (0, 0), BuildingBlock: EZIPEK_clean_linker_0, # of connection points: 2
# Relax obj value: 0.103
# Max RMSD: 0.082
# Mean RMSD: 0.082
data_MOF--net-ukf--node1-CEKHIL_clean_sbu_0--edge1-EZIPEK_clean_linker_0
_symmetry_space_group_name_H-M    P1
_symmetry_Int_Tables_number       1
_symmetry_cell_setting            triclinic
loop_
_symmetry_equiv_pos_as_xyz
'x, y, z'
_cell_length_a     23.745502
_cell_length_b     23.73739
_cell_length_c     46.31199
_cell_angle_alpha  89.974337
_cell_angle_beta   90.034612
_cell_angle_gamma 119.88617
loop_
_atom_site_label
_atom_site_type_symbol
_atom_site_fract_x
_atom_site_fract_y
_atom_site_fract_z
_atom_type_partial_charge
Co0 Co 0.44679 0.25493 0.04044 0.0
O1 O 0.50639 0.34246 0.0535 0.0
O2 O 0.41154 0.31292 0.03345 0.0
C3 C 0.52622 0.24632 0.01803 0.0
O4 O 0.37343 0.16826 0.02334 0.0
Co5 Co 0.46761 0.13953 0.05863 0.0
O6 O 0.39275 0.08645 0.0338 0.0
C7 C 0.41948 0.20004 0.10023 0.0
C8 C 0.46578 0.35938 0.04406 0.0
C9 C 0.35918 0.10797 0.0217 0.0
O10 O 0.40842 0.2313 0.08037 0.0
O11 O 0.44801 0.1672 0.09599 0.0
O12 O 0.49706 0.27287 0.00476 0.0
O13 O 0.50752 0.22716 0.044 0.0
Co14 Co 0.19037 0.43966 0.37347 0.0
O15 O 0.16528 0.50227 0.38573 0.0
O16 O 0.0955 0.39992 0.37588 0.0
C17 C 0.26132 0.50818 0.34087 0.0
O18 O 0.20015 0.36183 0.35926 0.0
Co19 Co 0.33675 0.47458 0.37781 0.0
O20 O 0.30688 0.39245 0.3573 0.0
C21 C 0.25055 0.4292 0.42932 0.0
C22 C 0.10535 0.45735 0.3829 0.0
C23 C 0.24732 0.35087 0.3534 0.0
O24 O 0.19976 0.41945 0.41498 0.0
O25 O 0.30714 0.45149 0.41836 0.0
O26 O 0.20052 0.47304 0.33388 0.0
O27 O 0.27646 0.50233 0.36683 0.0
Co28 Co 0.75256 0.19793 0.70924 0.0
O29 O 0.66295 0.16073 0.72073 0.0
O30 O 0.70181 0.1068 0.69711 0.0
C31 C 0.75878 0.28867 0.69121 0.0
O32 O 0.844 0.22578 0.69244 0.0
Co33 Co 0.85615 0.32647 0.73729 0.0
O34 O 0.91847 0.30257 0.72157 0.0
C35 C 0.79328 0.208 0.77112 0.0
C36 C 0.6518 0.10743 0.70842 0.0
C37 C 0.90379 0.2651 0.69988 0.0
O38 O 0.77305 0.17325 0.74806 0.0
O39 O 0.81985 0.26969 0.77135 0.0
O40 O 0.73543 0.23647 0.67556 0.0
O41 O 0.77324 0.2833 0.7175 0.0
Co42 Co 0.57321 0.74092 0.03598 0.0
O43 O 0.51045 0.65302 0.04748 0.0
O44 O 0.61109 0.68404 0.0346 0.0
C45 C 0.50212 0.74868 0.00662 0.0
O46 O 0.6507 0.82821 0.02181 0.0
Co47 Co 0.54375 0.85461 0.04673 0.0
O48 O 0.62487 0.90767 0.02561 0.0
C49 C 0.58465 0.80014 0.09463 0.0
C50 C 0.55411 0.63704 0.04235 0.0
C51 C 0.66359 0.88772 0.01836 0.0
O52 O 0.59822 0.76548 0.07764 0.0
O53 O 0.55907 0.83382 0.08646 0.0
O54 O 0.53523 0.72247 -0.00285 0.0
O55 O 0.51172 0.76742 0.03303 0.0
Co56 Co 0.82719 0.5604 0.38023 0.0
O57 O 0.85638 0.50237 0.39466 0.0
O58 O 0.9213 0.59816 0.37541 0.0
C59 C 0.74341 0.47964 0.35632 0.0
O60 O 0.81245 0.63224 0.36199 0.0
Co61 Co 0.68545 0.53344 0.39364 0.0
O62 O 0.70574 0.60122 0.36471 0.0
C63 C 0.78927 0.58559 0.4383 0.0
C64 C 0.9142 0.54415 0.38608 0.0
C65 C 0.7633 0.64027 0.35627 0.0
O66 O 0.83496 0.5975 0.42008 0.0
O67 O 0.72872 0.55621 0.43211 0.0
O68 O 0.8006 0.50997 0.3445 0.0
O69 O 0.73945 0.49863 0.38177 0.0
Co70 Co 0.26922 0.84242 0.69931 0.0
O71 O 0.35598 0.85906 0.70789 0.0
O72 O 0.33108 0.93573 0.69981 0.0
C73 C 0.25013 0.7645 0.66613 0.0
O74 O 0.1845 0.842 0.6885 0.0
Co75 Co 0.15096 0.70364 0.71042 0.0
O76 O 0.10029 0.73964 0.69299 0.0
C77 C 0.21701 0.79131 0.75895 0.0
C78 C 0.37563 0.92027 0.70504 0.0
C79 C 0.12347 0.79905 0.68626 0.0
O80 O 0.25026 0.84007 0.74204 0.0
O81 O 0.18029 0.73309 0.75034 0.0
O82 O 0.28055 0.82541 0.65891 0.0
O83 O 0.23555 0.75388 0.69311 0.0
Co84 Co 0.75833 0.59053 0.62095 0.0
O85 O 0.67137 0.52254 0.61163 0.0
O86 O 0.6971 0.62296 0.62273 0.0
C87 C 0.77353 0.52434 0.65121 0.0
O88 O 0.84353 0.6727 0.63303 0.0
Co89 Co 0.87564 0.57065 0.60785 0.0
O90 O 0.9273 0.65408 0.62766 0.0
C91 C 0.80953 0.59787 0.56082 0.0
C92 C 0.65217 0.56395 0.61626 0.0
C93 C 0.90434 0.68993 0.63543 0.0
O94 O 0.77675 0.61214 0.57859 0.0
O95 O 0.84603 0.57512 0.56835 0.0
O96 O 0.7472 0.55747 0.66046 0.0
O97 O 0.78972 0.53271 0.62434 0.0
Co98 Co 0.19246 0.74186 0.94132 0.0
O99 O 0.16461 0.65347 0.92937 0.0
O100 O 0.09831 0.6857 0.94591 0.0
C101 C 0.27611 0.74973 0.96723 0.0
O102 O 0.20554 0.8298 0.9567 0.0
Co103 Co 0.33269 0.85445 0.92587 0.0
O104 O 0.30929 0.90887 0.94905 0.0
C105 C 0.22983 0.79645 0.88155 0.0
C106 C 0.10629 0.63817 0.93682 0.0
C107 C 0.25266 0.88934 0.95909 0.0
O108 O 0.18458 0.76558 0.90031 0.0
O109 O 0.29046 0.82793 0.88741 0.0
O110 O 0.21873 0.72392 0.97877 0.0
O111 O 0.28052 0.76778 0.94081 0.0
Co112 Co 0.44319 0.17635 0.27978 0.0
O113 O 0.50363 0.15003 0.26567 0.0
O114 O 0.40647 0.08207 0.28286 0.0
C115 C 0.52139 0.25841 0.30549 0.0
O116 O 0.36851 0.18729 0.29725 0.0
Co117 Co 0.46804 0.31849 0.2695 0.0
O118 O 0.39874 0.29395 0.29795 0.0
C119 C 0.42068 0.21973 0.2224 0.0
C120 C 0.46184 0.09118 0.27303 0.0
C121 C 0.3592 0.235 0.30424 0.0
O122 O 0.40974 0.17226 0.23941 0.0
O123 O 0.44649 0.2792 0.23025 0.0
O124 O 0.49068 0.20024 0.31639 0.0
O125 O 0.50372 0.26446 0.28006 0.0
Co126 Co 0.27461 0.46202 0.61071 0.0
O127 O 0.36409 0.51391 0.59907 0.0
O128 O 0.326 0.42336 0.62435 0.0
C129 C 0.26789 0.54783 0.6266 0.0
O130 O 0.1834 0.39911 0.6279 0.0
Co131 Co 0.17014 0.4846 0.58107 0.0
O132 O 0.10762 0.40268 0.59985 0.0
C133 C 0.23298 0.4254 0.54925 0.0
C134 C 0.37571 0.47318 0.6125 0.0
C135 C 0.12334 0.37961 0.62116 0.0
O136 O 0.25438 0.41371 0.57274 0.0
O137 O 0.20554 0.45979 0.54801 0.0
O138 O 0.29149 0.52063 0.64323 0.0
O139 O 0.25313 0.52528 0.60072 0.0
Co140 Co 0.83008 0.25858 0.94821 0.0
O141 O 0.85465 0.34601 0.93591 0.0
O142 O 0.92479 0.31411 0.94674 0.0
C143 C 0.7568 0.2546 0.97993 0.0
O144 O 0.82132 0.17179 0.96275 0.0
Co145 Co 0.68499 0.14568 0.94243 0.0
O146 O 0.71516 0.09425 0.96355 0.0
C147 C 0.77315 0.19027 0.89166 0.0
C148 C 0.91461 0.36136 0.93942 0.0
C149 C 0.77474 0.11338 0.96831 0.0
O150 O 0.82329 0.22989 0.90667 0.0
O151 O 0.71595 0.15576 0.90196 0.0
O152 O 0.81733 0.28093 0.98755 0.0
O153 O 0.74328 0.23384 0.95388 0.0
Co154 Co 0.56833 0.81493 0.27694 0.0
O155 O 0.50861 0.84349 0.26443 0.0
O156 O 0.60451 0.90848 0.28353 0.0
C157 C 0.48962 0.72805 0.30015 0.0
O158 O 0.64201 0.80052 0.29324 0.0
Co159 Co 0.54476 0.6777 0.25873 0.0
O160 O 0.62108 0.69901 0.28251 0.0
C161 C 0.59101 0.78536 0.21679 0.0
C162 C 0.55006 0.90109 0.27328 0.0
C163 C 0.65576 0.75397 0.29447 0.0
O164 O 0.60444 0.82824 0.23663 0.0
O165 O 0.56173 0.72413 0.22125 0.0
O166 O 0.51985 0.78393 0.31314 0.0
O167 O 0.50682 0.7268 0.27398 0.0
C168 C 0.23693 0.93884 0.00442 0.0
C169 C 0.24464 0.94059 0.97405 0.0
C170 C 0.30105 0.05998 0.97474 0.0
C171 C 0.30179 0.05809 0.0053 0.0
N172 N 0.24914 0.99994 0.04846 0.0
N173 N 0.259 0.99933 0.93 0.0
C174 C 0.26128 0.99859 0.01975 0.0
C175 C 0.2674 1.00037 0.95918 0.0
N176 N 0.21161 0.88104 0.01875 0.0
N177 N 0.33669 0.1177 0.96068 0.0
H178 H 0.23466 0.95561 0.91861 0.0
H179 H 0.27044 0.0405 0.91778 0.0
H180 H 0.35965 0.16209 0.97149 0.0
H181 H 0.34495 0.12145 0.9385 0.0
H182 H 0.21234 0.87728 0.04113 0.0
H183 H 0.19143 0.83658 0.00804 0.0
H184 H 0.21677 0.95908 0.0602 0.0
H185 H 0.26745 0.04378 0.05971 0.0
C186 C 0.2301 0.2753 0.31259 0.0
C187 C 0.23592 0.28698 0.34267 0.0
C188 C 0.29351 0.22569 0.3479 0.0
C189 C 0.29758 0.2242 0.3175 0.0
N190 N 0.25118 0.22408 0.27157 0.0
N191 N 0.25007 0.25389 0.38968 0.0
C192 C 0.25806 0.23989 0.30018 0.0
C193 C 0.25865 0.25398 0.36055 0.0
N194 N 0.20314 0.30307 0.29589 0.0
N195 N 0.32758 0.20517 0.36432 0.0
H196 H 0.2253 0.27561 0.39877 0.0
H197 H 0.26255 0.22855 0.40427 0.0
H198 H 0.35178 0.18306 0.35506 0.0
H199 H 0.3329 0.21103 0.3866 0.0
H200 H 0.20349 0.30294 0.27343 0.0
H201 H 0.18134 0.32771 0.305 0.0
H202 H 0.22081 0.231 0.25761 0.0
H203 H 0.27259 0.19891 0.26257 0.0
C204 C 0.98309 0.35385 0.66852 0.0
C205 C 0.95686 0.28852 0.67795 0.0
C206 C 0.04234 0.28101 0.65071 0.0
C207 C 0.0706 0.34771 0.64313 0.0
N208 N 0.07349 0.45036 0.6487 0.0
N209 N 0.96398 0.19118 0.68062 0.0
C210 C 0.04252 0.38469 0.65329 0.0
C211 C 0.98707 0.2522 0.6697 0.0
N212 N 0.95026 0.38661 0.67377 0.0
N213 N 0.06714 0.24511 0.63912 0.0
H214 H 0.92295 0.16904 0.69383 0.0
H215 H 0.98699 0.164 0.67786 0.0
H216 H 0.10812 0.26563 0.62586 0.0
H217 H 0.04555 0.19495 0.64137 0.0
H218 H 0.96245 0.43128 0.66469 0.0
H219 H 0.90666 0.36702 0.68508 0.0
H220 H 0.06027 0.48133 0.65858 0.0
H221 H 0.11639 0.47581 0.63702 0.0
C222 C 0.73228 0.94366 0.97532 0.0
C223 C 0.72583 0.93872 0.00572 0.0
C224 C 0.79109 0.05728 0.01026 0.0
C225 C 0.78714 0.06229 0.98 0.0
N226 N 0.77788 0.01463 0.93348 0.0
N227 N 0.76852 0.98622 0.05188 0.0
C228 C 0.76701 0.00653 0.9625 0.0
C229 C 0.76338 0.99438 0.02303 0.0
N230 N 0.70031 0.88885 0.95892 0.0
N231 N 0.81593 0.11224 0.02668 0.0
H232 H 0.74725 0.93991 0.06109 0.0
H233 H 0.79743 0.02393 0.06592 0.0
H234 H 0.83757 0.15839 0.01734 0.0
H235 H 0.81402 0.1122 0.04913 0.0
H236 H 0.69658 0.88908 0.93654 0.0
H237 H 0.67622 0.84263 0.96818 0.0
H238 H 0.76753 0.97682 0.91921 0.0
H239 H 0.80247 0.06094 0.92425 0.0
C240 C 0.75243 0.73965 0.29561 0.0
C241 C 0.71343 0.7603 0.3104 0.0
C242 C 0.74913 0.73692 0.35627 0.0
C243 C 0.77086 0.69922 0.34122 0.0
N244 N 0.80156 0.67091 0.29653 0.0
N245 N 0.68138 0.78696 0.35533 0.0
C246 C 0.77703 0.70419 0.31084 0.0
C247 C 0.71561 0.76357 0.34096 0.0
N248 N 0.76299 0.75181 0.26674 0.0
N249 N 0.75849 0.74445 0.38541 0.0
H250 H 0.65868 0.80901 0.34473 0.0
H251 H 0.67402 0.78302 0.37756 0.0
H252 H 0.78269 0.72458 0.39663 0.0
H253 H 0.74797 0.77469 0.39776 0.0
H254 H 0.79399 0.74183 0.25469 0.0
H255 H 0.74472 0.77756 0.25558 0.0
H256 H 0.80036 0.66589 0.27418 0.0
H257 H 0.82154 0.64651 0.30743 0.0
C258 C 1.0087 0.79203 0.6311 0.0
C259 C 0.95278 0.75339 0.64803 0.0
C260 C 0.01867 0.79536 0.69164 0.0
C261 C 0.07492 0.81512 0.67458 0.0
N262 N 0.1267 0.84683 0.6283 0.0
N263 N 0.90096 0.72865 0.69441 0.0
C264 C 0.07113 0.82041 0.64431 0.0
C265 C 0.95636 0.7604 0.6784 0.0
N266 N 1.00123 0.79727 0.60219 0.0
N267 N 0.02589 0.80625 0.72068 0.0
H268 H 0.85512 0.70455 0.68482 0.0
H269 H 0.90031 0.72546 0.71683 0.0
H270 H 0.07198 0.83076 0.73013 0.0
H271 H 0.98768 0.79586 0.73469 0.0
H272 H 0.03913 0.82674 0.58835 0.0
H273 H 0.95515 0.77526 0.59272 0.0
H274 H 0.12756 0.84589 0.60585 0.0
H275 H 0.17251 0.86936 0.63794 0.0
C276 C 0.65168 0.19741 0.00442 0.0
C277 C 0.7065 0.25727 -0.00281 0.0
C278 C 0.64422 0.31256 0.00513 0.0
C279 C 0.5869 0.25087 0.00759 0.0
N280 N 0.53466 0.13439 0.00383 0.0
N281 N 0.75593 0.37253 0.98884 0.0
C282 C 0.59026 0.19312 0.0058 0.0
C283 C 0.70336 0.31532 -0.00267 0.0
N284 N 0.65884 0.1449 0.01001 0.0
N285 N 0.6429 0.3683 0.01107 0.0
H286 H 0.80113 0.3771 0.98458 0.0
H287 H 0.75386 0.41461 0.98472 0.0
H288 H 0.60062 0.36904 0.01623 0.0
H289 H 0.68465 0.41364 0.0129 0.0
H290 H 0.6211 0.10055 0.01732 0.0
H291 H 0.70464 0.14887 0.01054 0.0
H292 H 0.53431 0.09087 0.0003 0.0
H293 H 0.48924 0.13073 0.00202 0.0
C294 C 0.31367 0.62151 0.3228 0.0
C295 C 0.31031 0.56023 0.32286 0.0
C296 C 0.42588 0.6113 0.31287 0.0
C297 C 0.42946 0.67252 0.31123 0.0
N298 N 0.37378 0.73455 0.30863 0.0
N299 N 0.35665 0.49471 0.30924 0.0
C300 C 0.37248 0.67744 0.31443 0.0
C301 C 0.36445 0.55458 0.31487 0.0
N302 N 0.26163 0.6266 0.33189 0.0
N303 N 0.48141 0.60774 0.31416 0.0
H304 H 0.31074 0.45312 0.30928 0.0
H305 H 0.39377 0.48763 0.30138 0.0
H306 H 0.52699 0.64926 0.31562 0.0
H307 H 0.48173 0.56449 0.31752 0.0
H308 H 0.264 0.67085 0.33605 0.0
H309 H 0.21661 0.58619 0.33654 0.0
H310 H 0.33209 0.73852 0.30739 0.0
H311 H 0.41586 0.77722 0.30302 0.0
C312 C 0.80503 0.38768 0.66061 0.0
C313 C 0.75918 0.34771 0.68133 0.0
C314 C 0.71976 0.42533 0.68478 0.0
C315 C 0.77297 0.46963 0.66718 0.0
N316 N 0.87943 0.4993 0.64927 0.0
N317 N 0.67633 0.33097 0.71606 0.0
C318 C 0.81973 0.45266 0.65848 0.0
C319 C 0.71817 0.36772 0.69466 0.0
N320 N 0.83421 0.36418 0.64278 0.0
N321 N 0.66854 0.43464 0.69059 0.0
H322 H 0.66903 0.28546 0.72204 0.0
H323 H 0.65144 0.34746 0.7289 0.0
H324 H 0.66558 0.47508 0.68445 0.0
H325 H 0.62556 0.39895 0.69995 0.0
H326 H 0.86435 0.39157 0.62581 0.0
H327 H 0.82448 0.31625 0.64364 0.0
H328 H 0.91593 0.48934 0.64337 0.0
H329 H 0.89443 0.54841 0.65165 0.0
C330 C 0.32984 0.68657 0.98176 0.0
C331 C 0.33086 0.74684 0.98039 0.0
C332 C 0.44839 0.80531 0.98625 0.0
C333 C 0.44677 0.7459 0.99125 0.0
N334 N 0.3852 0.62928 -0.00294 0.0
N335 N 0.38789 0.86223 0.98827 0.0
C336 C 0.38734 0.68612 0.98975 0.0
C337 C 0.38934 0.80594 0.98463 0.0
N338 N 0.27482 0.63009 0.9746 0.0
N339 N 0.50659 0.86082 0.98251 0.0
H340 H 0.34415 0.86239 0.98971 0.0
H341 H 0.42875 0.90642 -0.00652 0.0
H342 H 0.55009 0.85999 0.98167 0.0
H343 H 0.51076 0.90521 0.9768 0.0
H344 H 0.27381 0.58609 0.97169 0.0
H345 H 0.23079 0.62769 0.96986 0.0
H346 H 0.34202 0.58565 7e-05 0.0
H347 H 0.42655 0.62622 0.00164 0.0
C348 C 0.5832 0.32239 0.34924 0.0
C349 C 0.57906 0.31318 0.31898 0.0
C350 C 0.67826 0.41777 0.31299 0.0
C351 C 0.6875 0.42222 0.34325 0.0
N352 N 0.65812 0.36403 0.389 0.0
N353 N 0.63798 0.34234 0.27346 0.0
C354 C 0.64277 0.37034 0.36119 0.0
C355 C 0.63104 0.35791 0.30114 0.0
N356 N 0.53057 0.28749 0.36661 0.0
N357 N 0.71237 0.47044 0.29551 0.0
H358 H 0.60949 0.29605 0.26477 0.0
H359 H 0.67799 0.37265 0.26071 0.0
H360 H 0.74398 0.51682 0.30341 0.0
H361 H 0.70282 0.4693 0.27346 0.0
H362 H 0.53119 0.29709 0.38862 0.0
H363 H 0.48462 0.25469 0.35865 0.0
H364 H 0.62794 0.32407 0.4018 0.0
H365 H 0.70414 0.39298 0.39784 0.0
C366 C 0.21971 0.59962 0.6566 0.0
C367 C 0.26467 0.60577 0.63528 0.0
C368 C 0.29243 0.71918 0.62704 0.0
C369 C 0.2444 0.71041 0.6477 0.0
N370 N 0.1423 0.63303 0.6685 0.0
N371 N 0.3409 0.66937 0.59783 0.0
C372 C 0.20154 0.64742 0.65807 0.0
C373 C 0.29985 0.66488 0.61954 0.0
N374 N 0.19484 0.54924 0.67575 0.0
N375 N 0.33144 0.77873 0.615 0.0
H376 H 0.35263 0.63326 0.5937 0.0
H377 H 0.36179 0.7079 0.58329 0.0
H378 H 0.32033 0.81592 0.61543 0.0
H379 H 0.37415 0.79082 0.60393 0.0
H380 H 0.16583 0.54704 0.69312 0.0
H381 H 0.20659 0.5124 0.67546 0.0
H382 H 0.10816 0.58702 0.6759 0.0
H383 H 0.12529 0.66557 0.66585 0.0
C384 C 0.35493 0.17215 0.14597 0.0
C385 C 0.41289 0.21268 0.13059 0.0
C386 C 0.47478 0.24568 0.17519 0.0
C387 C 0.41643 0.20982 0.19103 0.0
N388 N 0.29959 0.14584 0.19232 0.0
N389 N 0.52386 0.30014 0.13046 0.0
C390 C 0.35581 0.17484 0.1767 0.0
C391 C 0.47136 0.25375 0.14528 0.0
N392 N 0.30004 0.1302 0.1312 0.0
N393 N 0.5337 0.26978 0.18863 0.0
H394 H 0.52261 0.30738 0.1083 0.0
H395 H 0.56596 0.33544 0.14057 0.0
H396 H 0.53838 0.26226 0.2105 0.0
H397 H 0.57769 0.29099 0.17752 0.0
H398 H 0.25807 0.0944 0.14117 0.0
H399 H 0.29783 0.12962 0.10868 0.0
H400 H 0.25363 0.12508 0.183 0.0
H401 H 0.29916 0.14607 0.21485 0.0
C402 C 0.29569 0.47248 0.47777 0.0
C403 C 0.24732 0.42108 0.46093 0.0
C404 C 0.19932 0.35822 0.50492 0.0
C405 C 0.24913 0.40924 0.52113 0.0
N406 N 0.35582 0.50285 0.52251 0.0
N407 N 0.16249 0.30865 0.45778 0.0
C408 C 0.30184 0.46144 0.50714 0.0
C409 C 0.20189 0.36162 0.47423 0.0
N410 N 0.33225 0.53344 0.4664 0.0
N411 N 0.14843 0.30836 0.51901 0.0
H412 H 0.16374 0.30943 0.43527 0.0
H413 H 0.13249 0.26269 0.46646 0.0
H414 H 0.1477 0.30405 0.54147 0.0
H415 H 0.10662 0.27338 0.50861 0.0
H416 H 0.36406 0.57355 0.47873 0.0
H417 H 0.3252 0.54584 0.44564 0.0
H418 H 0.39802 0.53932 0.51291 0.0
H419 H 0.36013 0.49579 0.54442 0.0
C420 C 0.82231 0.1729 0.84653 0.0
C421 C 0.77781 0.18811 0.86001 0.0
C422 C 0.72554 0.17954 0.81365 0.0
C423 C 0.77715 0.17765 0.79967 0.0
N424 N 0.87588 0.1732 0.80177 0.0
N425 N 0.69617 0.22039 0.85504 0.0
C426 C 0.82561 0.17363 0.81584 0.0
C427 C 0.73135 0.19477 0.84324 0.0
N428 N 0.86002 0.15664 0.86283 0.0
N429 N 0.67269 0.17034 0.79818 0.0
H430 H 0.7029 0.23792 0.87614 0.0
H431 H 0.66599 0.23145 0.84289 0.0
H432 H 0.66834 0.16001 0.77616 0.0
H433 H 0.63106 0.16623 0.80774 0.0
H434 H 0.88908 0.13963 0.854 0.0
H435 H 0.85832 0.15522 0.88533 0.0
H436 H 0.91685 0.17791 0.81224 0.0
H437 H 0.87715 0.17066 0.77928 0.0
C438 C 0.53265 0.77587 0.14242 0.0
C439 C 0.58987 0.79564 0.12603 0.0
C440 C 0.65335 0.81909 0.17052 0.0
C441 C 0.59666 0.80419 0.18641 0.0
N442 N 0.4871 0.78497 0.18757 0.0
N443 N 0.70659 0.84565 0.12373 0.0
C444 C 0.53798 0.78849 0.17227 0.0
C445 C 0.65105 0.82005 0.13982 0.0
N446 N 0.4729 0.74232 0.12961 0.0
N447 N 0.70839 0.83045 0.18477 0.0
H448 H 0.70628 0.8462 0.10122 0.0
H449 H 0.75296 0.87004 0.1327 0.0
H450 H 0.71182 0.83284 0.20726 0.0
H451 H 0.74917 0.83448 0.17442 0.0
H452 H 0.4295 0.72148 0.14117 0.0
H453 H 0.46675 0.72911 0.10785 0.0
H454 H 0.44504 0.77943 0.17785 0.0
H455 H 0.48987 0.79435 0.20969 0.0
C456 C 0.82825 0.65705 0.51374 0.0
C457 C 0.79906 0.59814 0.52964 0.0
C458 C 0.78065 0.53565 0.48552 0.0
C459 C 0.8037 0.59345 0.46926 0.0
N460 N 0.84314 0.70847 0.46679 0.0
N461 N 0.73413 0.48127 0.53061 0.0
C462 C 0.82595 0.65423 0.48302 0.0
C463 C 0.7711 0.53736 0.51544 0.0
N464 N 0.85963 0.71514 0.52794 0.0
N465 N 0.76881 0.47926 0.47229 0.0
H466 H 0.7247 0.48102 0.55264 0.0
H467 H 0.70746 0.4359 0.52086 0.0
H468 H 0.77653 0.47661 0.45026 0.0
H469 H 0.75778 0.437 0.48356 0.0
H470 H 0.88777 0.75948 0.51757 0.0
H471 H 0.86029 0.71851 0.55042 0.0
H472 H 0.85314 0.75291 0.47554 0.0
H473 H 0.84413 0.7079 0.44426 0.0
C474 C 0.23302 0.74968 0.83501 0.0
C475 C 0.21437 0.78871 0.85072 0.0
C476 C 0.19817 0.83283 0.80572 0.0
C477 C 0.22417 0.79921 0.7904 0.0
N478 N 0.27934 0.73702 0.7908 0.0
N479 N 0.18483 0.87206 0.85223 0.0
C480 C 0.24543 0.76093 0.8052 0.0
C481 C 0.19826 0.83158 0.83644 0.0
N482 N 0.23858 0.70164 0.84872 0.0
N483 N 0.17154 0.86379 0.79101 0.0
H484 H 0.18172 0.86988 0.87472 0.0
H485 H 0.17998 0.90959 0.84318 0.0
H486 H 0.17189 0.86664 0.76853 0.0
H487 H 0.14564 0.88315 0.80099 0.0
H488 H 0.24625 0.66764 0.83785 0.0
H489 H 0.22886 0.69177 0.8707 0.0
H490 H 0.30127 0.71385 0.80108 0.0
H491 H 0.29136 0.74637 0.76896 0.0
C492 C 0.52915 0.53458 0.0692 0.0
C493 C 0.53603 0.56694 0.04254 0.0
C494 C 0.49611 0.46297 0.01671 0.0
C495 C 0.48456 0.42974 0.04352 0.0
N496 N 0.48248 0.43222 0.09546 0.0
N497 N 0.5178 0.56106 0.99115 0.0
C498 C 0.49924 0.46523 0.06983 0.0
C499 C 0.51723 0.53083 0.01637 0.0
N500 N 0.55256 0.57052 0.09387 0.0
N501 N 0.49008 0.43048 0.99149 0.0
H502 H 0.53579 0.61097 0.98966 0.0
H503 H 0.49663 0.53622 0.97209 0.0
H504 H 0.47437 0.38094 0.99062 0.0
H505 H 0.50542 0.45342 0.97155 0.0
H506 H 0.55534 0.55123 0.11364 0.0
H507 H 0.57426 0.62107 0.09406 0.0
H508 H 0.48582 0.45396 0.11537 0.0
H509 H 0.45988 0.38167 0.09665 0.0
C510 C 0.98177 0.50713 0.35844 0.0
C511 C 0.96624 0.52581 0.38513 0.0
C512 C 0.03408 0.48964 0.41074 0.0
C513 C 0.05263 0.47472 0.3839 0.0
N514 N 0.0511 0.47725 0.33188 0.0
N515 N 0.98229 0.54146 0.4364 0.0
C516 C 0.02816 0.48547 0.35769 0.0
C517 C 0.99364 0.51868 0.41123 0.0
N518 N 0.95018 0.50759 0.33382 0.0
N519 N 0.05403 0.47447 0.43579 0.0
H520 H 0.95314 0.56285 0.43737 0.0
H521 H 1.00525 0.54384 0.45586 0.0
H522 H 0.08344 0.45332 0.43604 0.0
H523 H 0.03785 0.47808 0.4562 0.0
H524 H 0.95245 0.4865 0.31447 0.0
H525 H 0.91799 0.52538 0.33307 0.0
H526 H 0.04241 0.49263 0.31217 0.0
H527 H 0.08245 0.45858 0.33023 0.0
C528 C 0.54814 0.04278 0.68021 0.0
C529 C 0.58355 0.05265 0.70625 0.0
C530 C 0.48167 0.98072 0.73196 0.0
C531 C 0.44657 0.96874 0.7057 0.0
N532 N 0.44745 0.97857 0.65385 0.0
N533 N 0.58665 0.0229 0.75558 0.0
C534 C 0.48014 0.99707 0.67953 0.0
C535 C 0.55093 0.01909 0.73175 0.0
N536 N 0.57901 0.07909 0.65638 0.0
N537 N 0.44848 0.95709 0.75728 0.0
H538 H 0.63733 0.04953 0.75576 0.0
H539 H 0.56698 0.99538 0.77418 0.0
H540 H 0.39794 0.92903 0.75819 0.0
H541 H 0.47018 0.96936 0.77756 0.0
H542 H 0.55474 0.08053 0.63791 0.0
H543 H 0.62898 0.11103 0.65565 0.0
H544 H 0.47032 0.99124 0.63381 0.0
H545 H 0.39761 0.94641 0.65243 0.0
C546 C 0.54562 0.51524 0.58974 0.0
C547 C 0.58133 0.54206 0.6156 0.0
C548 C 0.48001 0.51699 0.64071 0.0
C549 C 0.44412 0.48735 0.61521 0.0
N550 N 0.44041 0.44643 0.5674 0.0
N551 N 0.58111 0.55676 0.66715 0.0
C552 C 0.47638 0.48297 0.5903 0.0
C553 C 0.54814 0.53978 0.64151 0.0
N554 N 0.57813 0.52271 0.56439 0.0
N555 N 0.44937 0.52542 0.6639 0.0
H556 H 0.63089 0.57408 0.66869 0.0
H557 H 0.5584 0.54891 0.68715 0.0
H558 H 0.39929 0.50696 0.66461 0.0
H559 H 0.47393 0.55387 0.68171 0.0
H560 H 0.55551 0.51026 0.5443 0.0
H561 H 0.62872 0.54683 0.56309 0.0
H562 H 0.46022 0.43614 0.5495 0.0
H563 H 0.38971 0.42096 0.56765 0.0
C564 C 0.02405 0.53501 0.91175 0.0
C565 C 0.05406 0.56822 0.93774 0.0
C566 C 0.99396 0.46535 0.96475 0.0
C567 C 0.96701 0.43131 0.93851 0.0
N568 N 0.96126 0.43169 0.88668 0.0
N569 N 0.07476 0.56406 0.98843 0.0
C570 C 0.98334 0.46574 0.9119 0.0
C571 C 0.04085 0.53307 0.96409 0.0
N572 N 0.03349 0.57015 0.88703 0.0
N573 N 0.97267 0.43354 0.99053 0.0
H574 H 0.10711 0.61391 0.98927 0.0
H575 H 0.0741 0.53993 0.00731 0.0
H576 H 0.94013 0.38384 0.99208 0.0
H577 H 0.98368 0.45699 0.01044 0.0
H578 H 1.00856 0.55053 0.86784 0.0
H579 H 0.06315 0.62056 0.88628 0.0
H580 H 0.97583 0.45225 0.86628 0.0
H581 H 0.93177 0.38125 0.88614 0.0
C582 C 0.51191 0.96907 0.29978 0.0
C583 C 0.53202 0.95328 0.27358 0.0
C584 C 0.49666 0.02019 0.2467 0.0
C585 C 0.48083 0.03958 0.2731 0.0
N586 N 0.48326 0.04064 0.3252 0.0
N587 N 0.55061 0.969 0.22242 0.0
C588 C 0.49092 0.01602 0.29976 0.0
C589 C 0.52626 0.98033 0.24711 0.0
N590 N 0.51051 0.93733 0.32466 0.0
N591 N 0.48136 0.03829 0.22117 0.0
H592 H 0.5723 0.94007 0.22203 0.0
H593 H 0.55416 0.99206 0.20285 0.0
H594 H 0.45936 0.06689 0.22016 0.0
H595 H 0.48537 0.02093 0.2011 0.0
H596 H 0.48856 0.94015 0.34363 0.0
H597 H 0.52729 0.90431 0.32585 0.0
H598 H 0.49764 0.03178 0.34514 0.0
H599 H 0.46701 0.07405 0.32633 0.0
loop_
_geom_bond_atom_site_label_1
_geom_bond_atom_site_label_2
_geom_bond_distance
_geom_bond_site_symmetry_2
_ccdc_geom_bond_type
Co0 O1 2.216 . S
Co0 O2 2.091 . S
Co0 O4 2.004 . S
Co0 O10 2.021 . S
Co0 O12 2.137 . S
Co0 O13 2.244 . S
O1 Co0 2.216 . S
O1 C8 1.247 . S
O2 Co0 2.091 . S
O2 C8 1.261 . S
C3 O12 1.247 . S
C3 O13 1.272 . S
O4 Co0 2.004 . S
O4 C9 1.259 . S
Co5 O6 2.061 . S
Co5 O11 2.052 . S
Co5 O13 2.135 . S
O6 Co5 2.061 . S
O6 C9 1.235 . S
C7 O10 1.238 . S
C7 O11 1.241 . S
C8 O1 1.247 . S
C8 O2 1.261 . S
C9 O4 1.259 . S
C9 O6 1.235 . S
O10 Co0 2.021 . S
O10 C7 1.238 . S
O11 Co5 2.052 . S
O11 C7 1.241 . S
O12 Co0 2.137 . S
O12 C3 1.247 . S
O13 Co0 2.244 . S
O13 C3 1.272 . S
O13 Co5 2.135 . S
Co14 O15 2.216 . S
Co14 O16 2.091 . S
Co14 O18 2.004 . S
Co14 O24 2.021 . S
Co14 O26 2.137 . S
Co14 O27 2.244 . S
O15 Co14 2.216 . S
O15 C22 1.247 . S
O16 Co14 2.091 . S
O16 C22 1.261 . S
C17 O26 1.247 . S
C17 O27 1.272 . S
O18 Co14 2.004 . S
O18 C23 1.259 . S
Co19 O20 2.061 . S
Co19 O25 2.052 . S
Co19 O27 2.135 . S
O20 Co19 2.061 . S
O20 C23 1.235 . S
C21 O24 1.238 . S
C21 O25 1.241 . S
C22 O15 1.247 . S
C22 O16 1.261 . S
C23 O18 1.259 . S
C23 O20 1.235 . S
O24 Co14 2.021 . S
O24 C21 1.238 . S
O25 Co19 2.052 . S
O25 C21 1.241 . S
O26 Co14 2.137 . S
O26 C17 1.247 . S
O27 Co14 2.244 . S
O27 C17 1.272 . S
O27 Co19 2.135 . S
Co28 O29 2.216 . S
Co28 O30 2.091 . S
Co28 O32 2.004 . S
Co28 O38 2.021 . S
Co28 O40 2.137 . S
Co28 O41 2.244 . S
O29 Co28 2.216 . S
O29 C36 1.247 . S
O30 Co28 2.091 . S
O30 C36 1.261 . S
C31 O40 1.247 . S
C31 O41 1.272 . S
O32 Co28 2.004 . S
O32 C37 1.259 . S
Co33 O34 2.061 . S
Co33 O39 2.052 . S
Co33 O41 2.135 . S
O34 Co33 2.061 . S
O34 C37 1.235 . S
C35 O38 1.238 . S
C35 O39 1.241 . S
C36 O29 1.247 . S
C36 O30 1.261 . S
C37 O32 1.259 . S
C37 O34 1.235 . S
O38 Co28 2.021 . S
O38 C35 1.238 . S
O39 Co33 2.052 . S
O39 C35 1.241 . S
O40 Co28 2.137 . S
O40 C31 1.247 . S
O41 Co28 2.244 . S
O41 C31 1.272 . S
O41 Co33 2.135 . S
Co42 O43 2.216 . S
Co42 O44 2.091 . S
Co42 O46 2.004 . S
Co42 O52 2.021 . S
Co42 O54 2.137 . S
Co42 O55 2.244 . S
O43 Co42 2.216 . S
O43 C50 1.247 . S
O44 Co42 2.091 . S
O44 C50 1.261 . S
C45 O54 1.247 . S
C45 O55 1.272 . S
O46 Co42 2.004 . S
O46 C51 1.259 . S
Co47 O48 2.061 . S
Co47 O53 2.052 . S
Co47 O55 2.135 . S
O48 Co47 2.061 . S
O48 C51 1.235 . S
C49 O52 1.238 . S
C49 O53 1.241 . S
C50 O43 1.247 . S
C50 O44 1.261 . S
C51 O46 1.259 . S
C51 O48 1.235 . S
O52 Co42 2.021 . S
O52 C49 1.238 . S
O53 Co47 2.052 . S
O53 C49 1.241 . S
O54 Co42 2.137 . S
O54 C45 1.247 . S
O55 Co42 2.244 . S
O55 C45 1.272 . S
O55 Co47 2.135 . S
Co56 O57 2.216 . S
Co56 O58 2.091 . S
Co56 O60 2.004 . S
Co56 O66 2.021 . S
Co56 O68 2.137 . S
Co56 O69 2.244 . S
O57 Co56 2.216 . S
O57 C64 1.247 . S
O58 Co56 2.091 . S
O58 C64 1.261 . S
C59 O68 1.247 . S
C59 O69 1.272 . S
O60 Co56 2.004 . S
O60 C65 1.259 . S
Co61 O62 2.061 . S
Co61 O67 2.052 . S
Co61 O69 2.135 . S
O62 Co61 2.061 . S
O62 C65 1.235 . S
C63 O66 1.238 . S
C63 O67 1.241 . S
C64 O57 1.247 . S
C64 O58 1.261 . S
C65 O60 1.259 . S
C65 O62 1.235 . S
O66 Co56 2.021 . S
O66 C63 1.238 . S
O67 Co61 2.052 . S
O67 C63 1.241 . S
O68 Co56 2.137 . S
O68 C59 1.247 . S
O69 Co56 2.244 . S
O69 C59 1.272 . S
O69 Co61 2.135 . S
Co70 O71 2.216 . S
Co70 O72 2.091 . S
Co70 O74 2.004 . S
Co70 O80 2.021 . S
Co70 O82 2.137 . S
Co70 O83 2.244 . S
O71 Co70 2.216 . S
O71 C78 1.247 . S
O72 Co70 2.091 . S
O72 C78 1.261 . S
C73 O82 1.247 . S
C73 O83 1.272 . S
O74 Co70 2.004 . S
O74 C79 1.259 . S
Co75 O76 2.061 . S
Co75 O81 2.052 . S
Co75 O83 2.135 . S
O76 Co75 2.061 . S
O76 C79 1.235 . S
C77 O80 1.238 . S
C77 O81 1.241 . S
C78 O71 1.247 . S
C78 O72 1.261 . S
C79 O74 1.259 . S
C79 O76 1.235 . S
O80 Co70 2.021 . S
O80 C77 1.238 . S
O81 Co75 2.052 . S
O81 C77 1.241 . S
O82 Co70 2.137 . S
O82 C73 1.247 . S
O83 Co70 2.244 . S
O83 C73 1.272 . S
O83 Co75 2.135 . S
Co84 O85 2.216 . S
Co84 O86 2.091 . S
Co84 O88 2.004 . S
Co84 O94 2.021 . S
Co84 O96 2.137 . S
Co84 O97 2.244 . S
O85 Co84 2.216 . S
O85 C92 1.247 . S
O86 Co84 2.091 . S
O86 C92 1.261 . S
C87 O96 1.247 . S
C87 O97 1.272 . S
O88 Co84 2.004 . S
O88 C93 1.259 . S
Co89 O90 2.061 . S
Co89 O95 2.052 . S
Co89 O97 2.135 . S
O90 Co89 2.061 . S
O90 C93 1.235 . S
C91 O94 1.238 . S
C91 O95 1.241 . S
C92 O85 1.247 . S
C92 O86 1.261 . S
C93 O88 1.259 . S
C93 O90 1.235 . S
O94 Co84 2.021 . S
O94 C91 1.238 . S
O95 Co89 2.052 . S
O95 C91 1.241 . S
O96 Co84 2.137 . S
O96 C87 1.247 . S
O97 Co84 2.244 . S
O97 C87 1.272 . S
O97 Co89 2.135 . S
Co98 O99 2.216 . S
Co98 O100 2.091 . S
Co98 O102 2.004 . S
Co98 O108 2.021 . S
Co98 O110 2.137 . S
Co98 O111 2.244 . S
O99 Co98 2.216 . S
O99 C106 1.247 . S
O100 Co98 2.091 . S
O100 C106 1.261 . S
C101 O110 1.247 . S
C101 O111 1.272 . S
O102 Co98 2.004 . S
O102 C107 1.259 . S
Co103 O104 2.061 . S
Co103 O109 2.052 . S
Co103 O111 2.135 . S
O104 Co103 2.061 . S
O104 C107 1.235 . S
C105 O108 1.238 . S
C105 O109 1.241 . S
C106 O99 1.247 . S
C106 O100 1.261 . S
C107 O102 1.259 . S
C107 O104 1.235 . S
O108 Co98 2.021 . S
O108 C105 1.238 . S
O109 Co103 2.052 . S
O109 C105 1.241 . S
O110 Co98 2.137 . S
O110 C101 1.247 . S
O111 Co98 2.244 . S
O111 C101 1.272 . S
O111 Co103 2.135 . S
Co112 O113 2.216 . S
Co112 O114 2.091 . S
Co112 O116 2.004 . S
Co112 O122 2.021 . S
Co112 O124 2.137 . S
Co112 O125 2.244 . S
O113 Co112 2.216 . S
O113 C120 1.247 . S
O114 Co112 2.091 . S
O114 C120 1.261 . S
C115 O124 1.247 . S
C115 O125 1.272 . S
O116 Co112 2.004 . S
O116 C121 1.259 . S
Co117 O118 2.061 . S
Co117 O123 2.052 . S
Co117 O125 2.135 . S
O118 Co117 2.061 . S
O118 C121 1.235 . S
C119 O122 1.238 . S
C119 O123 1.241 . S
C120 O113 1.247 . S
C120 O114 1.261 . S
C121 O116 1.259 . S
C121 O118 1.235 . S
O122 Co112 2.021 . S
O122 C119 1.238 . S
O123 Co117 2.052 . S
O123 C119 1.241 . S
O124 Co112 2.137 . S
O124 C115 1.247 . S
O125 Co112 2.244 . S
O125 C115 1.272 . S
O125 Co117 2.135 . S
Co126 O127 2.216 . S
Co126 O128 2.091 . S
Co126 O130 2.004 . S
Co126 O136 2.021 . S
Co126 O138 2.137 . S
Co126 O139 2.244 . S
O127 Co126 2.216 . S
O127 C134 1.247 . S
O128 Co126 2.091 . S
O128 C134 1.261 . S
C129 O138 1.247 . S
C129 O139 1.272 . S
O130 Co126 2.004 . S
O130 C135 1.259 . S
Co131 O132 2.061 . S
Co131 O137 2.052 . S
Co131 O139 2.135 . S
O132 Co131 2.061 . S
O132 C135 1.235 . S
C133 O136 1.238 . S
C133 O137 1.241 . S
C134 O127 1.247 . S
C134 O128 1.261 . S
C135 O130 1.259 . S
C135 O132 1.235 . S
O136 Co126 2.021 . S
O136 C133 1.238 . S
O137 Co131 2.052 . S
O137 C133 1.241 . S
O138 Co126 2.137 . S
O138 C129 1.247 . S
O139 Co126 2.244 . S
O139 C129 1.272 . S
O139 Co131 2.135 . S
Co140 O141 2.216 . S
Co140 O142 2.091 . S
Co140 O144 2.004 . S
Co140 O150 2.021 . S
Co140 O152 2.137 . S
Co140 O153 2.244 . S
O141 Co140 2.216 . S
O141 C148 1.247 . S
O142 Co140 2.091 . S
O142 C148 1.261 . S
C143 O152 1.247 . S
C143 O153 1.272 . S
O144 Co140 2.004 . S
O144 C149 1.259 . S
Co145 O146 2.061 . S
Co145 O151 2.052 . S
Co145 O153 2.135 . S
O146 Co145 2.061 . S
O146 C149 1.235 . S
C147 O150 1.238 . S
C147 O151 1.241 . S
C148 O141 1.247 . S
C148 O142 1.261 . S
C149 O144 1.259 . S
C149 O146 1.235 . S
O150 Co140 2.021 . S
O150 C147 1.238 . S
O151 Co145 2.052 . S
O151 C147 1.241 . S
O152 Co140 2.137 . S
O152 C143 1.247 . S
O153 Co140 2.244 . S
O153 C143 1.272 . S
O153 Co145 2.135 . S
Co154 O155 2.216 . S
Co154 O156 2.091 . S
Co154 O158 2.004 . S
Co154 O164 2.021 . S
Co154 O166 2.137 . S
Co154 O167 2.244 . S
O155 Co154 2.216 . S
O155 C162 1.247 . S
O156 Co154 2.091 . S
O156 C162 1.261 . S
C157 O166 1.247 . S
C157 O167 1.272 . S
O158 Co154 2.004 . S
O158 C163 1.259 . S
Co159 O160 2.061 . S
Co159 O165 2.052 . S
Co159 O167 2.135 . S
O160 Co159 2.061 . S
O160 C163 1.235 . S
C161 O164 1.238 . S
C161 O165 1.241 . S
C162 O155 1.247 . S
C162 O156 1.261 . S
C163 O158 1.259 . S
C163 O160 1.235 . S
O164 Co154 2.021 . S
O164 C161 1.238 . S
O165 Co159 2.052 . S
O165 C161 1.241 . S
O166 Co154 2.137 . S
O166 C157 1.247 . S
O167 Co154 2.244 . S
O167 C157 1.272 . S
O167 Co159 2.135 . S
C168 C169 1.363 1_554 S
C168 C174 1.379 1_565 S
C168 N176 1.356 . S
C169 C168 1.363 1_556 S
C169 C175 1.363 . S
C170 C171 1.363 1_556 S
C170 C175 1.379 1_545 S
C170 N177 1.356 . S
C171 C170 1.363 1_554 S
C171 C174 1.363 . S
N172 C174 1.356 . S
N172 H184 0.984 . S
N172 H185 0.985 . S
N173 C175 1.356 . S
N173 H178 0.984 . S
N173 H179 0.985 . S
C174 C168 1.379 1_545 S
C174 C171 1.363 . S
C174 N172 1.356 . S
C175 C169 1.363 . S
C175 C170 1.379 1_565 S
C175 N173 1.356 . S
N176 C168 1.356 . S
N176 H182 0.984 . S
N176 H183 0.984 . S
N177 C170 1.356 . S
N177 H180 0.984 . S
N177 H181 0.985 . S
H178 N173 0.984 . S
H179 N173 0.985 . S
H180 N177 0.984 . S
H181 N177 0.985 . S
H182 N176 0.984 . S
H183 N176 0.984 . S
H184 N172 0.984 . S
H185 N172 0.985 . S
C186 C187 1.363 . S
C186 C192 1.379 . S
C186 N194 1.356 . S
C187 C186 1.363 . S
C187 C193 1.363 . S
C188 C189 1.363 . S
C188 C193 1.379 . S
C188 N195 1.356 . S
C189 C188 1.363 . S
C189 C192 1.363 . S
N190 C192 1.356 . S
N190 H202 0.984 . S
N190 H203 0.985 . S
N191 C193 1.356 . S
N191 H196 0.984 . S
N191 H197 0.985 . S
C192 C186 1.379 . S
C192 C189 1.363 . S
C192 N190 1.356 . S
C193 C187 1.363 . S
C193 C188 1.379 . S
C193 N191 1.356 . S
N194 C186 1.356 . S
N194 H200 0.984 . S
N194 H201 0.984 . S
N195 C188 1.356 . S
N195 H198 0.984 . S
N195 H199 0.985 . S
H196 N191 0.984 . S
H197 N191 0.985 . S
H198 N195 0.984 . S
H199 N195 0.985 . S
H200 N194 0.984 . S
H201 N194 0.984 . S
H202 N190 0.984 . S
H203 N190 0.985 . S
C204 C205 1.363 . S
C204 C210 1.379 1_655 S
C204 N212 1.356 . S
C205 C204 1.363 . S
C205 C211 1.363 . S
C206 C207 1.363 . S
C206 C211 1.379 1_455 S
C206 N213 1.356 . S
C207 C206 1.363 . S
C207 C210 1.363 . S
N208 C210 1.356 . S
N208 H220 0.984 . S
N208 H221 0.985 . S
N209 C211 1.356 . S
N209 H214 0.984 . S
N209 H215 0.985 . S
C210 C204 1.379 1_455 S
C210 C207 1.363 . S
C210 N208 1.356 . S
C211 C205 1.363 . S
C211 C206 1.379 1_655 S
C211 N209 1.356 . S
N212 C204 1.356 . S
N212 H218 0.984 . S
N212 H219 0.984 . S
N213 C206 1.356 . S
N213 H216 0.984 . S
N213 H217 0.985 . S
H214 N209 0.984 . S
H215 N209 0.985 . S
H216 N213 0.984 . S
H217 N213 0.985 . S
H218 N212 0.984 . S
H219 N212 0.984 . S
H220 N208 0.984 . S
H221 N208 0.985 . S
C222 C223 1.363 1_556 S
C222 C228 1.379 1_565 S
C222 N230 1.356 . S
C223 C222 1.363 1_554 S
C223 C229 1.363 . S
C224 C225 1.363 1_554 S
C224 C229 1.379 1_545 S
C224 N231 1.356 . S
C225 C224 1.363 1_556 S
C225 C228 1.363 . S
N226 C228 1.356 . S
N226 H238 0.984 . S
N226 H239 0.985 . S
N227 C229 1.356 . S
N227 H232 0.984 . S
N227 H233 0.985 . S
C228 C222 1.379 1_545 S
C228 C225 1.363 . S
C228 N226 1.356 . S
C229 C223 1.363 . S
C229 C224 1.379 1_565 S
C229 N227 1.356 . S
N230 C222 1.356 . S
N230 H236 0.984 . S
N230 H237 0.984 . S
N231 C224 1.356 . S
N231 H234 0.984 . S
N231 H235 0.985 . S
H232 N227 0.984 . S
H233 N227 0.985 . S
H234 N231 0.984 . S
H235 N231 0.985 . S
H236 N230 0.984 . S
H237 N230 0.984 . S
H238 N226 0.984 . S
H239 N226 0.985 . S
C240 C241 1.363 . S
C240 C246 1.379 . S
C240 N248 1.356 . S
C241 C240 1.363 . S
C241 C247 1.363 . S
C242 C243 1.363 . S
C242 C247 1.379 . S
C242 N249 1.356 . S
C243 C242 1.363 . S
C243 C246 1.363 . S
N244 C246 1.356 . S
N244 H256 0.984 . S
N244 H257 0.985 . S
N245 C247 1.356 . S
N245 H250 0.984 . S
N245 H251 0.985 . S
C246 C240 1.379 . S
C246 C243 1.363 . S
C246 N244 1.356 . S
C247 C241 1.363 . S
C247 C242 1.379 . S
C247 N245 1.356 . S
N248 C240 1.356 . S
N248 H254 0.984 . S
N248 H255 0.984 . S
N249 C242 1.356 . S
N249 H252 0.984 . S
N249 H253 0.985 . S
H250 N245 0.984 . S
H251 N245 0.985 . S
H252 N249 0.984 . S
H253 N249 0.985 . S
H254 N248 0.984 . S
H255 N248 0.984 . S
H256 N244 0.984 . S
H257 N244 0.985 . S
C258 C259 1.363 . S
C258 C264 1.379 1_655 S
C258 N266 1.356 . S
C259 C258 1.363 . S
C259 C265 1.363 . S
C260 C261 1.363 . S
C260 C265 1.379 1_455 S
C260 N267 1.356 . S
C261 C260 1.363 . S
C261 C264 1.363 . S
N262 C264 1.356 . S
N262 H274 0.984 . S
N262 H275 0.985 . S
N263 C265 1.356 . S
N263 H268 0.984 . S
N263 H269 0.985 . S
C264 C258 1.379 1_455 S
C264 C261 1.363 . S
C264 N262 1.356 . S
C265 C259 1.363 . S
C265 C260 1.379 1_655 S
C265 N263 1.356 . S
N266 C258 1.356 . S
N266 H272 0.985 1_655 S
N266 H273 0.984 . S
N267 C260 1.356 . S
N267 H270 0.984 . S
N267 H271 0.985 1_455 S
H268 N263 0.984 . S
H269 N263 0.985 . S
H270 N267 0.984 . S
H271 N267 0.985 1_655 S
H272 N266 0.985 1_455 S
H273 N266 0.984 . S
H274 N262 0.984 . S
H275 N262 0.985 . S
C276 C277 1.363 . S
C276 C282 1.379 . S
C276 N284 1.356 . S
C277 C276 1.363 . S
C277 C283 1.363 1_556 S
C278 C279 1.363 . S
C278 C283 1.379 . S
C278 N285 1.356 . S
C279 C278 1.363 . S
C279 C282 1.363 1_554 S
N280 C282 1.356 . S
N280 H292 0.984 . S
N280 H293 0.985 . S
N281 C283 1.356 . S
N281 H286 0.984 . S
N281 H287 0.985 . S
C282 C276 1.379 . S
C282 C279 1.363 1_556 S
C282 N280 1.356 . S
C283 C277 1.363 1_554 S
C283 C278 1.379 . S
C283 N281 1.356 . S
N284 C276 1.356 . S
N284 H290 0.984 . S
N284 H291 0.984 . S
N285 C278 1.356 . S
N285 H288 0.984 . S
N285 H289 0.985 . S
H286 N281 0.984 . S
H287 N281 0.985 . S
H288 N285 0.984 . S
H289 N285 0.985 . S
H290 N284 0.984 . S
H291 N284 0.984 . S
H292 N280 0.984 . S
H293 N280 0.985 . S
C294 C295 1.363 . S
C294 C300 1.379 . S
C294 N302 1.356 . S
C295 C294 1.363 . S
C295 C301 1.363 . S
C296 C297 1.363 . S
C296 C301 1.379 . S
C296 N303 1.356 . S
C297 C296 1.363 . S
C297 C300 1.363 . S
N298 C300 1.356 . S
N298 H310 0.984 . S
N298 H311 0.985 . S
N299 C301 1.356 . S
N299 H304 0.984 . S
N299 H305 0.985 . S
C300 C294 1.379 . S
C300 C297 1.363 . S
C300 N298 1.356 . S
C301 C295 1.363 . S
C301 C296 1.379 . S
C301 N299 1.356 . S
N302 C294 1.356 . S
N302 H308 0.984 . S
N302 H309 0.984 . S
N303 C296 1.356 . S
N303 H306 0.984 . S
N303 H307 0.985 . S
H304 N299 0.984 . S
H305 N299 0.985 . S
H306 N303 0.984 . S
H307 N303 0.985 . S
H308 N302 0.984 . S
H309 N302 0.984 . S
H310 N298 0.984 . S
H311 N298 0.985 . S
C312 C313 1.363 . S
C312 C318 1.379 . S
C312 N320 1.356 . S
C313 C312 1.363 . S
C313 C319 1.363 . S
C314 C315 1.363 . S
C314 C319 1.379 . S
C314 N321 1.356 . S
C315 C314 1.363 . S
C315 C318 1.363 . S
N316 C318 1.356 . S
N316 H328 0.984 . S
N316 H329 0.985 . S
N317 C319 1.356 . S
N317 H322 0.984 . S
N317 H323 0.985 . S
C318 C312 1.379 . S
C318 C315 1.363 . S
C318 N316 1.356 . S
C319 C313 1.363 . S
C319 C314 1.379 . S
C319 N317 1.356 . S
N320 C312 1.356 . S
N320 H326 0.984 . S
N320 H327 0.984 . S
N321 C314 1.356 . S
N321 H324 0.984 . S
N321 H325 0.985 . S
H322 N317 0.984 . S
H323 N317 0.985 . S
H324 N321 0.984 . S
H325 N321 0.985 . S
H326 N320 0.984 . S
H327 N320 0.984 . S
H328 N316 0.984 . S
H329 N316 0.985 . S
C330 C331 1.363 1_554 S
C330 C336 1.379 . S
C330 N338 1.356 . S
C331 C330 1.363 1_556 S
C331 C337 1.363 . S
C332 C333 1.363 1_556 S
C332 C337 1.379 . S
C332 N339 1.356 . S
C333 C332 1.363 1_554 S
C333 C336 1.363 . S
N334 C336 1.356 . S
N334 H346 0.984 . S
N334 H347 0.985 . S
N335 C337 1.356 . S
N335 H340 0.984 . S
N335 H341 0.985 . S
C336 C330 1.379 . S
C336 C333 1.363 . S
C336 N334 1.356 . S
C337 C331 1.363 . S
C337 C332 1.379 . S
C337 N335 1.356 . S
N338 C330 1.356 . S
N338 H344 0.984 . S
N338 H345 0.984 . S
N339 C332 1.356 . S
N339 H342 0.984 . S
N339 H343 0.985 . S
H340 N335 0.984 . S
H341 N335 0.985 . S
H342 N339 0.984 . S
H343 N339 0.985 . S
H344 N338 0.984 . S
H345 N338 0.984 . S
H346 N334 0.984 . S
H347 N334 0.985 . S
C348 C349 1.363 . S
C348 C354 1.379 . S
C348 N356 1.356 . S
C349 C348 1.363 . S
C349 C355 1.363 . S
C350 C351 1.363 . S
C350 C355 1.379 . S
C350 N357 1.356 . S
C351 C350 1.363 . S
C351 C354 1.363 . S
N352 C354 1.356 . S
N352 H364 0.984 . S
N352 H365 0.985 . S
N353 C355 1.356 . S
N353 H358 0.984 . S
N353 H359 0.985 . S
C354 C348 1.379 . S
C354 C351 1.363 . S
C354 N352 1.356 . S
C355 C349 1.363 . S
C355 C350 1.379 . S
C355 N353 1.356 . S
N356 C348 1.356 . S
N356 H362 0.984 . S
N356 H363 0.984 . S
N357 C350 1.356 . S
N357 H360 0.984 . S
N357 H361 0.985 . S
H358 N353 0.984 . S
H359 N353 0.985 . S
H360 N357 0.984 . S
H361 N357 0.985 . S
H362 N356 0.984 . S
H363 N356 0.984 . S
H364 N352 0.984 . S
H365 N352 0.985 . S
C366 C367 1.363 . S
C366 C372 1.379 . S
C366 N374 1.356 . S
C367 C366 1.363 . S
C367 C373 1.363 . S
C368 C369 1.363 . S
C368 C373 1.379 . S
C368 N375 1.356 . S
C369 C368 1.363 . S
C369 C372 1.363 . S
N370 C372 1.356 . S
N370 H382 0.984 . S
N370 H383 0.985 . S
N371 C373 1.356 . S
N371 H376 0.984 . S
N371 H377 0.985 . S
C372 C366 1.379 . S
C372 C369 1.363 . S
C372 N370 1.356 . S
C373 C367 1.363 . S
C373 C368 1.379 . S
C373 N371 1.356 . S
N374 C366 1.356 . S
N374 H380 0.984 . S
N374 H381 0.984 . S
N375 C368 1.356 . S
N375 H378 0.984 . S
N375 H379 0.985 . S
H376 N371 0.984 . S
H377 N371 0.985 . S
H378 N375 0.984 . S
H379 N375 0.985 . S
H380 N374 0.984 . S
H381 N374 0.984 . S
H382 N370 0.984 . S
H383 N370 0.985 . S
C384 C385 1.363 . S
C384 C390 1.379 . S
C384 N392 1.356 . S
C385 C384 1.363 . S
C385 C391 1.363 . S
C386 C387 1.363 . S
C386 C391 1.379 . S
C386 N393 1.356 . S
C387 C386 1.363 . S
C387 C390 1.363 . S
N388 C390 1.356 . S
N388 H400 0.984 . S
N388 H401 0.985 . S
N389 C391 1.356 . S
N389 H394 0.984 . S
N389 H395 0.985 . S
C390 C384 1.379 . S
C390 C387 1.363 . S
C390 N388 1.356 . S
C391 C385 1.363 . S
C391 C386 1.379 . S
C391 N389 1.356 . S
N392 C384 1.356 . S
N392 H398 0.984 . S
N392 H399 0.984 . S
N393 C386 1.356 . S
N393 H396 0.984 . S
N393 H397 0.985 . S
H394 N389 0.984 . S
H395 N389 0.985 . S
H396 N393 0.984 . S
H397 N393 0.985 . S
H398 N392 0.984 . S
H399 N392 0.984 . S
H400 N388 0.984 . S
H401 N388 0.985 . S
C402 C403 1.363 . S
C402 C408 1.379 . S
C402 N410 1.356 . S
C403 C402 1.363 . S
C403 C409 1.363 . S
C404 C405 1.363 . S
C404 C409 1.379 . S
C404 N411 1.356 . S
C405 C404 1.363 . S
C405 C408 1.363 . S
N406 C408 1.356 . S
N406 H418 0.984 . S
N406 H419 0.985 . S
N407 C409 1.356 . S
N407 H412 0.984 . S
N407 H413 0.985 . S
C408 C402 1.379 . S
C408 C405 1.363 . S
C408 N406 1.356 . S
C409 C403 1.363 . S
C409 C404 1.379 . S
C409 N407 1.356 . S
N410 C402 1.356 . S
N410 H416 0.984 . S
N410 H417 0.984 . S
N411 C404 1.356 . S
N411 H414 0.984 . S
N411 H415 0.985 . S
H412 N407 0.984 . S
H413 N407 0.985 . S
H414 N411 0.984 . S
H415 N411 0.985 . S
H416 N410 0.984 . S
H417 N410 0.984 . S
H418 N406 0.984 . S
H419 N406 0.985 . S
C420 C421 1.363 . S
C420 C426 1.379 . S
C420 N428 1.356 . S
C421 C420 1.363 . S
C421 C427 1.363 . S
C422 C423 1.363 . S
C422 C427 1.379 . S
C422 N429 1.356 . S
C423 C422 1.363 . S
C423 C426 1.363 . S
N424 C426 1.356 . S
N424 H436 0.984 . S
N424 H437 0.985 . S
N425 C427 1.356 . S
N425 H430 0.984 . S
N425 H431 0.985 . S
C426 C420 1.379 . S
C426 C423 1.363 . S
C426 N424 1.356 . S
C427 C421 1.363 . S
C427 C422 1.379 . S
C427 N425 1.356 . S
N428 C420 1.356 . S
N428 H434 0.984 . S
N428 H435 0.984 . S
N429 C422 1.356 . S
N429 H432 0.984 . S
N429 H433 0.985 . S
H430 N425 0.984 . S
H431 N425 0.985 . S
H432 N429 0.984 . S
H433 N429 0.985 . S
H434 N428 0.984 . S
H435 N428 0.984 . S
H436 N424 0.984 . S
H437 N424 0.985 . S
C438 C439 1.363 . S
C438 C444 1.379 . S
C438 N446 1.356 . S
C439 C438 1.363 . S
C439 C445 1.363 . S
C440 C441 1.363 . S
C440 C445 1.379 . S
C440 N447 1.356 . S
C441 C440 1.363 . S
C441 C444 1.363 . S
N442 C444 1.356 . S
N442 H454 0.984 . S
N442 H455 0.985 . S
N443 C445 1.356 . S
N443 H448 0.984 . S
N443 H449 0.985 . S
C444 C438 1.379 . S
C444 C441 1.363 . S
C444 N442 1.356 . S
C445 C439 1.363 . S
C445 C440 1.379 . S
C445 N443 1.356 . S
N446 C438 1.356 . S
N446 H452 0.984 . S
N446 H453 0.984 . S
N447 C440 1.356 . S
N447 H450 0.984 . S
N447 H451 0.985 . S
H448 N443 0.984 . S
H449 N443 0.985 . S
H450 N447 0.984 . S
H451 N447 0.985 . S
H452 N446 0.984 . S
H453 N446 0.984 . S
H454 N442 0.984 . S
H455 N442 0.985 . S
C456 C457 1.363 . S
C456 C462 1.379 . S
C456 N464 1.356 . S
C457 C456 1.363 . S
C457 C463 1.363 . S
C458 C459 1.363 . S
C458 C463 1.379 . S
C458 N465 1.356 . S
C459 C458 1.363 . S
C459 C462 1.363 . S
N460 C462 1.356 . S
N460 H472 0.984 . S
N460 H473 0.985 . S
N461 C463 1.356 . S
N461 H466 0.984 . S
N461 H467 0.985 . S
C462 C456 1.379 . S
C462 C459 1.363 . S
C462 N460 1.356 . S
C463 C457 1.363 . S
C463 C458 1.379 . S
C463 N461 1.356 . S
N464 C456 1.356 . S
N464 H470 0.984 . S
N464 H471 0.984 . S
N465 C458 1.356 . S
N465 H468 0.984 . S
N465 H469 0.985 . S
H466 N461 0.984 . S
H467 N461 0.985 . S
H468 N465 0.984 . S
H469 N465 0.985 . S
H470 N464 0.984 . S
H471 N464 0.984 . S
H472 N460 0.984 . S
H473 N460 0.985 . S
C474 C475 1.363 . S
C474 C480 1.379 . S
C474 N482 1.356 . S
C475 C474 1.363 . S
C475 C481 1.363 . S
C476 C477 1.363 . S
C476 C481 1.379 . S
C476 N483 1.356 . S
C477 C476 1.363 . S
C477 C480 1.363 . S
N478 C480 1.356 . S
N478 H490 0.984 . S
N478 H491 0.985 . S
N479 C481 1.356 . S
N479 H484 0.984 . S
N479 H485 0.985 . S
C480 C474 1.379 . S
C480 C477 1.363 . S
C480 N478 1.356 . S
C481 C475 1.363 . S
C481 C476 1.379 . S
C481 N479 1.356 . S
N482 C474 1.356 . S
N482 H488 0.984 . S
N482 H489 0.984 . S
N483 C476 1.356 . S
N483 H486 0.984 . S
N483 H487 0.985 . S
H484 N479 0.984 . S
H485 N479 0.985 . S
H486 N483 0.984 . S
H487 N483 0.985 . S
H488 N482 0.984 . S
H489 N482 0.984 . S
H490 N478 0.984 . S
H491 N478 0.985 . S
C492 C493 1.363 . S
C492 C498 1.379 . S
C492 N500 1.356 . S
C493 C492 1.363 . S
C493 C499 1.363 . S
C494 C495 1.363 . S
C494 C499 1.379 . S
C494 N501 1.356 . S
C495 C494 1.363 . S
C495 C498 1.363 . S
N496 C498 1.356 . S
N496 H508 0.984 . S
N496 H509 0.985 . S
N497 C499 1.356 . S
N497 H502 0.984 . S
N497 H503 0.985 1_554 S
C498 C492 1.379 . S
C498 C495 1.363 . S
C498 N496 1.356 . S
C499 C493 1.363 . S
C499 C494 1.379 . S
C499 N497 1.356 . S
N500 C492 1.356 . S
N500 H506 0.984 . S
N500 H507 0.984 . S
N501 C494 1.356 . S
N501 H504 0.984 . S
N501 H505 0.985 1_554 S
H502 N497 0.984 . S
H503 N497 0.985 1_556 S
H504 N501 0.984 . S
H505 N501 0.985 1_556 S
H506 N500 0.984 . S
H507 N500 0.984 . S
H508 N496 0.984 . S
H509 N496 0.985 . S
C510 C511 1.363 . S
C510 C516 1.379 . S
C510 N518 1.356 . S
C511 C510 1.363 . S
C511 C517 1.363 1_655 S
C512 C513 1.363 . S
C512 C517 1.379 . S
C512 N519 1.356 . S
C513 C512 1.363 . S
C513 C516 1.363 1_455 S
N514 C516 1.356 . S
N514 H526 0.984 . S
N514 H527 0.985 1_655 S
N515 C517 1.356 . S
N515 H520 0.984 1_455 S
N515 H521 0.985 . S
C516 C510 1.379 . S
C516 C513 1.363 1_655 S
C516 N514 1.356 . S
C517 C511 1.363 1_455 S
C517 C512 1.379 . S
C517 N515 1.356 . S
N518 C510 1.356 . S
N518 H524 0.984 . S
N518 H525 0.984 . S
N519 C512 1.356 . S
N519 H522 0.984 . S
N519 H523 0.985 . S
H520 N515 0.984 1_655 S
H521 N515 0.985 . S
H522 N519 0.984 . S
H523 N519 0.985 . S
H524 N518 0.984 . S
H525 N518 0.984 . S
H526 N514 0.984 . S
H527 N514 0.985 1_455 S
C528 C529 1.363 . S
C528 C534 1.379 . S
C528 N536 1.356 . S
C529 C528 1.363 . S
C529 C535 1.363 1_545 S
C530 C531 1.363 . S
C530 C535 1.379 . S
C530 N537 1.356 . S
C531 C530 1.363 . S
C531 C534 1.363 1_565 S
N532 C534 1.356 . S
N532 H544 0.984 . S
N532 H545 0.985 1_545 S
N533 C535 1.356 . S
N533 H538 0.984 1_565 S
N533 H539 0.985 . S
C534 C528 1.379 . S
C534 C531 1.363 1_545 S
C534 N532 1.356 . S
C535 C529 1.363 1_565 S
C535 C530 1.379 . S
C535 N533 1.356 . S
N536 C528 1.356 . S
N536 H542 0.984 . S
N536 H543 0.984 . S
N537 C530 1.356 . S
N537 H540 0.984 . S
N537 H541 0.985 . S
H538 N533 0.984 1_545 S
H539 N533 0.985 . S
H540 N537 0.984 . S
H541 N537 0.985 . S
H542 N536 0.984 . S
H543 N536 0.984 . S
H544 N532 0.984 . S
H545 N532 0.985 1_565 S
C546 C547 1.363 . S
C546 C552 1.379 . S
C546 N554 1.356 . S
C547 C546 1.363 . S
C547 C553 1.363 . S
C548 C549 1.363 . S
C548 C553 1.379 . S
C548 N555 1.356 . S
C549 C548 1.363 . S
C549 C552 1.363 . S
N550 C552 1.356 . S
N550 H562 0.984 . S
N550 H563 0.985 . S
N551 C553 1.356 . S
N551 H556 0.984 . S
N551 H557 0.985 . S
C552 C546 1.379 . S
C552 C549 1.363 . S
C552 N550 1.356 . S
C553 C547 1.363 . S
C553 C548 1.379 . S
C553 N551 1.356 . S
N554 C546 1.356 . S
N554 H560 0.984 . S
N554 H561 0.984 . S
N555 C548 1.356 . S
N555 H558 0.984 . S
N555 H559 0.985 . S
H556 N551 0.984 . S
H557 N551 0.985 . S
H558 N555 0.984 . S
H559 N555 0.985 . S
H560 N554 0.984 . S
H561 N554 0.984 . S
H562 N550 0.984 . S
H563 N550 0.985 . S
C564 C565 1.363 1_655 S
C564 C570 1.379 . S
C564 N572 1.356 . S
C565 C564 1.363 1_455 S
C565 C571 1.363 . S
C566 C567 1.363 1_455 S
C566 C571 1.379 . S
C566 N573 1.356 . S
C567 C566 1.363 1_655 S
C567 C570 1.363 . S
N568 C570 1.356 . S
N568 H580 0.984 . S
N568 H581 0.985 . S
N569 C571 1.356 . S
N569 H574 0.984 . S
N569 H575 0.985 1_556 S
C570 C564 1.379 . S
C570 C567 1.363 . S
C570 N568 1.356 . S
C571 C565 1.363 . S
C571 C566 1.379 . S
C571 N569 1.356 . S
N572 C564 1.356 . S
N572 H578 0.984 . S
N572 H579 0.984 1_655 S
N573 C566 1.356 . S
N573 H576 0.984 1_455 S
N573 H577 0.985 1_556 S
H574 N569 0.984 . S
H575 N569 0.985 1_554 S
H576 N573 0.984 1_655 S
H577 N573 0.985 1_554 S
H578 N572 0.984 . S
H579 N572 0.984 1_455 S
H580 N568 0.984 . S
H581 N568 0.985 . S
C582 C583 1.363 . S
C582 C588 1.379 . S
C582 N590 1.356 . S
C583 C582 1.363 . S
C583 C589 1.363 1_565 S
C584 C585 1.363 . S
C584 C589 1.379 . S
C584 N591 1.356 . S
C585 C584 1.363 . S
C585 C588 1.363 1_545 S
N586 C588 1.356 . S
N586 H598 0.984 . S
N586 H599 0.985 1_565 S
N587 C589 1.356 . S
N587 H592 0.984 1_545 S
N587 H593 0.985 . S
C588 C582 1.379 . S
C588 C585 1.363 1_565 S
C588 N586 1.356 . S
C589 C583 1.363 1_545 S
C589 C584 1.379 . S
C589 N587 1.356 . S
N590 C582 1.356 . S
N590 H596 0.984 . S
N590 H597 0.984 . S
N591 C584 1.356 . S
N591 H594 0.984 . S
N591 H595 0.985 . S
H592 N587 0.984 1_565 S
H593 N587 0.985 . S
H594 N591 0.984 . S
H595 N591 0.985 . S
H596 N590 0.984 . S
H597 N590 0.984 . S
H598 N586 0.984 . S
H599 N586 0.985 1_545 S
C169 C107 1.403 . S
C171 C9 1.403 . S
C187 C23 1.403 . S
C189 C121 1.403 . S
C205 C37 1.403 . S
C207 C135 1.403 . S
C223 C51 1.403 . S
C225 C149 1.403 . S
C241 C163 1.403 . S
C243 C65 1.403 . S
C259 C93 1.403 . S
C261 C79 1.403 . S
C277 C143 1.456 . S
C279 C3 1.456 . S
C295 C17 1.456 . S
C297 C157 1.456 . S
C313 C31 1.456 . S
C315 C87 1.456 . S
C331 C101 1.456 . S
C333 C45 1.456 . S
C349 C115 1.456 . S
C351 C59 1.456 . S
C367 C129 1.456 . S
C369 C73 1.456 . S
C385 C7 1.595 . S
C387 C119 1.595 . S
C403 C21 1.595 . S
C405 C133 1.595 . S
C421 C147 1.595 . S
C423 C35 1.595 . S
C439 C49 1.595 . S
C441 C161 1.595 . S
C457 C91 1.595 . S
C459 C63 1.595 . S
C475 C105 1.595 . S
C477 C77 1.595 . S
C493 C50 1.463 . S
C495 C8 1.463 . S
C511 C64 1.463 . S
C513 C22 1.463 . S
C529 C36 1.463 . S
C531 C78 1.463 . S
C547 C92 1.463 . S
C549 C134 1.463 . S
C565 C106 1.463 . S
C567 C148 1.463 . S
C583 C162 1.463 . S
C585 C120 1.463 . S
