# Generated by pormake.
# Topology vbg, (5)-cn, num edge types: 1
# Building blocks:
#     Node 0, Type 0, BuildingBlock: BEQFEK_clean_sbu_0, # of connection points: 5
#     Node 1, Type 0, BuildingBlock: BEQFEK_clean_sbu_0, # of connection points: 5
#     Node 2, Type 0, BuildingBlock: BEQFEK_clean_sbu_0, # of connection points: 5
#     Node 3, Type 0, BuildingBlock: BEQFEK_clean_sbu_0, # of connection points: 5
#     Node 4, Type 0, BuildingBlock: BEQFEK_clean_sbu_0, # of connection points: 5
#     Node 5, Type 0, BuildingBlock: BEQFEK_clean_sbu_0, # of connection points: 5
#     Node 6, Type 0, BuildingBlock: BEQFEK_clean_sbu_0, # of connection points: 5
#     Node 7, Type 0, BuildingBlock: BEQFEK_clean_sbu_0, # of connection points: 5
#     Node 8, Type 0, BuildingBlock: BEQFEK_clean_sbu_0, # of connection points: 5
#     Node 9, Type 0, BuildingBlock: BEQFEK_clean_sbu_0, # of connection points: 5
#     Node 10, Type 0, BuildingBlock: BEQFEK_clean_sbu_0, # of connection points: 5
#     Node 11, Type 0, BuildingBlock: BEQFEK_clean_sbu_0, # of connection points: 5
#     Node 12, Type 0, BuildingBlock: BEQFEK_clean_sbu_0, # of connection points: 5
#     Node 13, Type 0, BuildingBlock: BEQFEK_clean_sbu_0, # of connection points: 5
#     Node 14, Type 0, BuildingBlock: BEQFEK_clean_sbu_0, # of connection points: 5
#     Node 15, Type 0, BuildingBlock: BEQFEK_clean_sbu_0, # of connection points: 5
#     Node 16, Type 0, BuildingBlock: BEQFEK_clean_sbu_0, # of connection points: 5
#     Node 17, Type 0, BuildingBlock: BEQFEK_clean_sbu_0, # of connection points: 5
#     Node 18, Type 0, BuildingBlock: BEQFEK_clean_sbu_0, # of connection points: 5
#     Node 19, Type 0, BuildingBlock: BEQFEK_clean_sbu_0, # of connection points: 5
#     Node 20, Type 0, BuildingBlock: BEQFEK_clean_sbu_0, # of connection points: 5
#     Node 21, Type 0, BuildingBlock: BEQFEK_clean_sbu_0, # of connection points: 5
#     Node 22, Type 0, BuildingBlock: BEQFEK_clean_sbu_0, # of connection points: 5
#     Node 23, Type 0, BuildingBlock: BEQFEK_clean_sbu_0, # of connection points: 5
#     Node 24, Type 0, BuildingBlock: BEQFEK_clean_sbu_0, # of connection points: 5
#     Node 25, Type 0, BuildingBlock: BEQFEK_clean_sbu_0, # of connection points: 5
#     Node 26, Type 0, BuildingBlock: BEQFEK_clean_sbu_0, # of connection points: 5
#     Node 27, Type 0, BuildingBlock: BEQFEK_clean_sbu_0, # of connection points: 5
#     Node 28, Type 0, BuildingBlock: BEQFEK_clean_sbu_0, # of connection points: 5
#     Node 29, Type 0, BuildingBlock: BEQFEK_clean_sbu_0, # of connection points: 5
#     Node 30, Type 0, BuildingBlock: BEQFEK_clean_sbu_0, # of connection points: 5
#     Node 31, Type 0, BuildingBlock: BEQFEK_clean_sbu_0, # of connection points: 5
#     Edge 32, Type (0, 0), BuildingBlock: CIFDUS_clean_linker_0, # of connection points: 2
#     Edge 33, Type (0, 0), BuildingBlock: CIFDUS_clean_linker_0, # of connection points: 2
#     Edge 34, Type (0, 0), BuildingBlock: CIFDUS_clean_linker_0, # of connection points: 2
#     Edge 35, Type (0, 0), BuildingBlock: CIFDUS_clean_linker_0, # of connection points: 2
#     Edge 36, Type (0, 0), BuildingBlock: CIFDUS_clean_linker_0, # of connection points: 2
#     Edge 37, Type (0, 0), BuildingBlock: CIFDUS_clean_linker_0, # of connection points: 2
#     Edge 38, Type (0, 0), BuildingBlock: CIFDUS_clean_linker_0, # of connection points: 2
#     Edge 39, Type (0, 0), BuildingBlock: CIFDUS_clean_linker_0, # of connection points: 2
#     Edge 40, Type (0, 0), BuildingBlock: CIFDUS_clean_linker_0, # of connection points: 2
#     Edge 41, Type (0, 0), BuildingBlock: CIFDUS_clean_linker_0, # of connection points: 2
#     Edge 42, Type (0, 0), BuildingBlock: CIFDUS_clean_linker_0, # of connection points: 2
#     Edge 43, Type (0, 0), BuildingBlock: CIFDUS_clean_linker_0, # of connection points: 2
#     Edge 44, Type (0, 0), BuildingBlock: CIFDUS_clean_linker_0, # of connection points: 2
#     Edge 45, Type (0, 0), BuildingBlock: CIFDUS_clean_linker_0, # of connection points: 2
#     Edge 46, Type (0, 0), BuildingBlock: CIFDUS_clean_linker_0, # of connection points: 2
#     Edge 47, Type (0, 0), BuildingBlock: CIFDUS_clean_linker_0, # of connection points: 2
#     Edge 48, Type (0, 0), BuildingBlock: CIFDUS_clean_linker_0, # of connection points: 2
#     Edge 49, Type (0, 0), BuildingBlock: CIFDUS_clean_linker_0, # of connection points: 2
#     Edge 50, Type (0, 0), BuildingBlock: CIFDUS_clean_linker_0, # of connection points: 2
#     Edge 51, Type (0, 0), BuildingBlock: CIFDUS_clean_linker_0, # of connection points: 2
#     Edge 52, Type (0, 0), BuildingBlock: CIFDUS_clean_linker_0, # of connection points: 2
#     Edge 53, Type (0, 0), BuildingBlock: CIFDUS_clean_linker_0, # of connection points: 2
#     Edge 54, Type (0, 0), BuildingBlock: CIFDUS_clean_linker_0, # of connection points: 2
#     Edge 55, Type (0, 0), BuildingBlock: CIFDUS_clean_linker_0, # of connection points: 2
#     Edge 56, Type (0, 0), BuildingBlock: CIFDUS_clean_linker_0, # of connection points: 2
#     Edge 57, Type (0, 0), BuildingBlock: CIFDUS_clean_linker_0, # of connection points: 2
#     Edge 58, Type (0, 0), BuildingBlock: CIFDUS_clean_linker_0, # of connection points: 2
#     Edge 59, Type (0, 0), BuildingBlock: CIFDUS_clean_linker_0, # of connection points: 2
#     Edge 60, Type (0, 0), BuildingBlock: CIFDUS_clean_linker_0, # of connection points: 2
#     Edge 61, Type (0, 0), BuildingBlock: CIFDUS_clean_linker_0, # of connection points: 2
#     Edge 62, Type (0, 0), BuildingBlock: CIFDUS_clean_linker_0, # of connection points: 2
#     Edge 63, Type (0, 0), BuildingBlock: CIFDUS_clean_linker_0, # of connection points: 2
#     Edge 64, Type (0, 0), BuildingBlock: CIFDUS_clean_linker_0, # of connection points: 2
#     Edge 65, Type (0, 0), BuildingBlock: CIFDUS_clean_linker_0, # of connection points: 2
#     Edge 66, Type (0, 0), BuildingBlock: CIFDUS_clean_linker_0, # of connection points: 2
#     Edge 67, Type (0, 0), BuildingBlock: CIFDUS_clean_linker_0, # of connection points: 2
#     Edge 68, Type (0, 0), BuildingBlock: CIFDUS_clean_linker_0, # of connection points: 2
#     Edge 69, Type (0, 0), BuildingBlock: CIFDUS_clean_linker_0, # of connection points: 2
#     Edge 70, Type (0, 0), BuildingBlock: CIFDUS_clean_linker_0, # of connection points: 2
#     Edge 71, Type (0, 0), BuildingBlock: CIFDUS_clean_linker_0, # of connection points: 2
#     Edge 72, Type (0, 0), BuildingBlock: CIFDUS_clean_linker_0, # of connection points: 2
#     Edge 73, Type (0, 0), BuildingBlock: CIFDUS_clean_linker_0, # of connection points: 2
#     Edge 74, Type (0, 0), BuildingBlock: CIFDUS_clean_linker_0, # of connection points: 2
#     Edge 75, Type (0, 0), BuildingBlock: CIFDUS_clean_linker_0, # of connection points: 2
#     Edge 76, Type (0, 0), BuildingBlock: CIFDUS_clean_linker_0, # of connection points: 2
#     Edge 77, Type (0, 0), BuildingBlock: CIFDUS_clean_linker_0, # of connection points: 2
#     Edge 78, Type (0, 0), BuildingBlock: CIFDUS_clean_linker_0, # of connection points: 2
#     Edge 79, Type (0, 0), BuildingBlock: CIFDUS_clean_linker_0, # of connection points: 2
#     Edge 80, Type (0, 0), BuildingBlock: CIFDUS_clean_linker_0, # of connection points: 2
#     Edge 81, Type (0, 0), BuildingBlock: CIFDUS_clean_linker_0, # of connection points: 2
#     Edge 82, Type (0, 0), BuildingBlock: CIFDUS_clean_linker_0, # of connection points: 2
#     Edge 83, Type (0, 0), BuildingBlock: CIFDUS_clean_linker_0, # of connection points: 2
#     Edge 84, Type (0, 0), BuildingBlock: CIFDUS_clean_linker_0, # of connection points: 2
#     Edge 85, Type (0, 0), BuildingBlock: CIFDUS_clean_linker_0, # of connection points: 2
#     Edge 86, Type (0, 0), BuildingBlock: CIFDUS_clean_linker_0, # of connection points: 2
#     Edge 87, Type (0, 0), BuildingBlock: CIFDUS_clean_linker_0, # of connection points: 2
#     Edge 88, Type (0, 0), BuildingBlock: CIFDUS_clean_linker_0, # of connection points: 2
#     Edge 89, Type (0, 0), BuildingBlock: CIFDUS_clean_linker_0, # of connection points: 2
#     Edge 90, Type (0, 0), BuildingBlock: CIFDUS_clean_linker_0, # of connection points: 2
#     Edge 91, Type (0, 0), BuildingBlock: CIFDUS_clean_linker_0, # of connection points: 2
#     Edge 92, Type (0, 0), BuildingBlock: CIFDUS_clean_linker_0, # of connection points: 2
#     Edge 93, Type (0, 0), BuildingBlock: CIFDUS_clean_linker_0, # of connection points: 2
#     Edge 94, Type (0, 0), BuildingBlock: CIFDUS_clean_linker_0, # of connection points: 2
#     Edge 95, Type (0, 0), BuildingBlock: CIFDUS_clean_linker_0, # of connection points: 2
#     Edge 96, Type (0, 0), BuildingBlock: CIFDUS_clean_linker_0, # of connection points: 2
#     Edge 97, Type (0, 0), BuildingBlock: CIFDUS_clean_linker_0, # of connection points: 2
#     Edge 98, Type (0, 0), BuildingBlock: CIFDUS_clean_linker_0, # of connection points: 2
#     Edge 99, Type (0, 0), BuildingBlock: CIFDUS_clean_linker_0, # of connection points: 2
#     Edge 100, Type (0, 0), BuildingBlock: CIFDUS_clean_linker_0, # of connection points: 2
#     Edge 101, Type (0, 0), BuildingBlock: CIFDUS_clean_linker_0, # of connection points: 2
#     Edge 102, Type (0, 0), BuildingBlock: CIFDUS_clean_linker_0, # of connection points: 2
#     Edge 103, Type (0, 0), BuildingBlock: CIFDUS_clean_linker_0, # of connection points: 2
#     Edge 104, Type (0, 0), BuildingBlock: CIFDUS_clean_linker_0, # of connection points: 2
#     Edge 105, Type (0, 0), BuildingBlock: CIFDUS_clean_linker_0, # of connection points: 2
#     Edge 106, Type (0, 0), BuildingBlock: CIFDUS_clean_linker_0, # of connection points: 2
#     Edge 107, Type (0, 0), BuildingBlock: CIFDUS_clean_linker_0, # of connection points: 2
#     Edge 108, Type (0, 0), BuildingBlock: CIFDUS_clean_linker_0, # of connection points: 2
#     Edge 109, Type (0, 0), BuildingBlock: CIFDUS_clean_linker_0, # of connection points: 2
#     Edge 110, Type (0, 0), BuildingBlock: CIFDUS_clean_linker_0, # of connection points: 2
#     Edge 111, Type (0, 0), BuildingBlock: CIFDUS_clean_linker_0, # of connection points: 2
# Relax obj value: 0.318
# Max RMSD: 0.148
# Mean RMSD: 0.148
data_MOF--net-vbg--node1-BEQFEK_clean_sbu_0--edge1-CIFDUS_clean_linker_0
_symmetry_space_group_name_H-M    P1
_symmetry_Int_Tables_number       1
_symmetry_cell_setting            triclinic
loop_
_symmetry_equiv_pos_as_xyz
'x, y, z'
_cell_length_a     65.675014
_cell_length_b     43.996057
_cell_length_c     36.409445
_cell_angle_alpha  90.002193
_cell_angle_beta   89.855004
_cell_angle_gamma 89.966825
loop_
_atom_site_label
_atom_site_type_symbol
_atom_site_fract_x
_atom_site_fract_y
_atom_site_fract_z
_atom_type_partial_charge
Co0 Co 0.01271 0.16048 0.48119 0.0
Co1 Co 0.0252 0.2017 0.41821 0.0
C2 C 0.00353 0.14056 0.40344 0.0
O3 O 0.0032 0.13433 0.43778 0.0
O4 O 0.01031 0.16634 0.3926 0.0
C5 C 0.9921 0.13707 0.54882 0.0
O6 O 0.97429 0.13352 0.53307 0.0
C7 C 0.0191 0.2444 0.35923 0.0
C8 C 0.05065 0.25894 0.34678 0.0
C9 C 0.03062 0.26234 0.33582 0.0
N10 N 0.03177 0.23108 0.38294 0.0
N11 N 0.05058 0.24003 0.37576 0.0
C12 C 0.99677 0.23772 0.35757 0.0
H13 H 0.99306 0.21696 0.37347 0.0
H14 H 0.98823 0.25695 0.36993 0.0
H15 H 0.99178 0.23499 0.32865 0.0
C16 C 0.99582 0.22076 0.51124 0.0
N17 N 0.00337 0.20325 0.48353 0.0
N18 N 0.01206 0.22132 0.45949 0.0
C19 C 0.0117 0.25035 0.47253 0.0
C20 C 1.00145 0.25123 0.50638 0.0
C21 C 0.9795 0.21071 0.5372 0.0
H22 H 0.9723 0.18955 0.52741 0.0
H23 H 0.96757 0.22855 0.53924 0.0
H24 H 0.98569 0.20781 0.56505 0.0
O25 O 0.04364 0.15995 0.48218 0.0
O26 O 0.05166 0.18709 0.43331 0.0
H27 H 0.02623 0.29446 0.47476 0.0
H28 H 0.01384 0.28517 0.43197 0.0
C29 C 0.02307 0.27595 0.4549 0.0
H30 H 0.03765 0.2675 0.44335 0.0
H31 H 0.06343 0.2326 0.38996 0.0
O32 O 0.00777 0.14162 0.5292 0.0
C33 C 0.05693 0.17107 0.46049 0.0
Co34 Co 0.21542 0.19676 0.4869 0.0
Co35 Co 0.21936 0.15138 0.42464 0.0
C36 C 0.23152 0.2161 0.40914 0.0
O37 O 0.22578 0.22284 0.44187 0.0
O38 O 0.23142 0.1883 0.39922 0.0
C39 C 0.24023 0.22531 0.53653 0.0
O40 O 0.2515 0.22722 0.50674 0.0
C41 C 0.23615 0.11211 0.36945 0.0
C42 C 0.21251 0.07661 0.36378 0.0
C43 C 0.23154 0.08543 0.35119 0.0
N44 N 0.22055 0.11877 0.39171 0.0
N45 N 0.20639 0.09767 0.38821 0.0
C46 C 0.25576 0.12947 0.36913 0.0
H47 H 0.25794 0.14138 0.3957 0.0
H48 H 0.26887 0.1141 0.36396 0.0
H49 H 0.25522 0.14683 0.34704 0.0
C50 C 0.22868 0.14057 0.52934 0.0
N51 N 0.22702 0.15651 0.49748 0.0
N52 N 0.23142 0.13828 0.47017 0.0
C53 C 0.23749 0.11089 0.48393 0.0
C54 C 0.23621 0.11121 0.52245 0.0
C55 C 0.21765 0.14938 0.56373 0.0
H56 H 0.20912 0.17088 0.56018 0.0
H57 H 0.22847 0.15143 0.58662 0.0
H58 H 0.20675 0.13115 0.57135 0.0
O59 O 0.18586 0.19014 0.48063 0.0
O60 O 0.18955 0.15892 0.433 0.0
H61 H 0.2294 0.0723 0.45156 0.0
H62 H 0.25315 0.06823 0.47601 0.0
C63 C 0.24336 0.08432 0.4606 0.0
H64 H 0.25174 0.09222 0.43598 0.0
H65 H 0.19275 0.09737 0.40299 0.0
O66 O 0.22139 0.21962 0.53253 0.0
C67 C 0.17825 0.17348 0.45553 0.0
Co68 Co 0.0434 0.19124 0.78695 0.0
Co69 Co 0.04139 0.14408 0.84682 0.0
C70 C 0.02907 0.2094 0.86511 0.0
O71 O 0.03282 0.21665 0.83173 0.0
O72 O 0.0311 0.18164 0.87463 0.0
C73 C 0.01792 0.21655 0.73623 0.0
O74 O 0.00488 0.20918 0.76218 0.0
C75 C 0.02569 0.10477 0.90364 0.0
C76 C 0.05232 0.07583 0.91618 0.0
C77 C 0.03258 0.08231 0.92711 0.0
N78 N 0.04068 0.11131 0.87994 0.0
N79 N 0.05647 0.09367 0.8871 0.0
C80 C 0.00599 0.12187 0.90571 0.0
H81 H 0.00372 0.131 0.93386 0.0
H82 H 0.00559 0.14055 0.88535 0.0
H83 H 0.99316 0.10634 0.89954 0.0
C84 C 0.02955 0.13662 0.74253 0.0
N85 N 0.0316 0.15145 0.77507 0.0
N86 N 0.02791 0.13226 0.80173 0.0
C87 C 0.02183 0.10525 0.78692 0.0
C88 C 0.02236 0.10687 0.74824 0.0
C89 C 0.03992 0.14712 0.70812 0.0
H90 H 0.05018 0.16656 0.7137 0.0
H91 H 0.0285 0.15387 0.6876 0.0
H92 H 0.04894 0.12825 0.696 0.0
O93 O 0.07343 0.1844 0.79068 0.0
O94 O 0.07107 0.15008 0.83525 0.0
H95 H 0.01022 0.08481 0.83614 0.0
H96 H 0.03095 0.06474 0.81463 0.0
C97 C 0.01681 0.07784 0.80941 0.0
H98 H 0.00575 0.06308 0.7949 0.0
H99 H 0.07038 0.09478 0.87325 0.0
O100 O 0.03683 0.21564 0.74364 0.0
C101 C 0.08178 0.1657 0.81282 0.0
Co102 Co 0.24773 0.15087 0.77881 0.0
Co103 Co 0.23246 0.19405 0.83823 0.0
C104 C 0.25387 0.13543 0.86069 0.0
O105 O 0.25572 0.12975 0.82648 0.0
O106 O 0.24586 0.16064 0.87065 0.0
C107 C 0.26524 0.1236 0.7078 0.0
O108 O 0.27702 0.10173 0.69542 0.0
C109 C 0.2362 0.24405 0.8884 0.0
C110 C 0.20416 0.25731 0.89839 0.0
C111 C 0.22408 0.26463 0.90714 0.0
N112 N 0.22405 0.22576 0.86907 0.0
N113 N 0.20491 0.23381 0.87481 0.0
C114 C 0.25881 0.24011 0.89042 0.0
H115 H 0.26334 0.21746 0.87974 0.0
H116 H 0.2663 0.25773 0.87327 0.0
H117 H 0.26415 0.2428 0.91914 0.0
C118 C 0.26608 0.20967 0.74788 0.0
N119 N 0.25677 0.19326 0.77476 0.0
N120 N 0.24727 0.21209 0.79688 0.0
C121 C 0.24853 0.24068 0.7826 0.0
C122 C 0.26059 0.24049 0.75064 0.0
C123 C 0.28406 0.19813 0.72674 0.0
H124 H 0.28713 0.17396 0.7332 0.0
H125 H 0.29766 0.21168 0.73438 0.0
H126 H 0.28196 0.20132 0.69697 0.0
O127 O 0.21645 0.14819 0.77307 0.0
O128 O 0.20728 0.17724 0.82004 0.0
H129 H 0.22182 0.25877 0.80888 0.0
H130 H 0.23259 0.28308 0.7741 0.0
C131 C 0.23624 0.26693 0.79653 0.0
H132 H 0.24507 0.27914 0.81786 0.0
H133 H 0.19237 0.22309 0.86296 0.0
O134 O 0.26136 0.12422 0.74201 0.0
C135 C 0.20265 0.15995 0.79355 0.0
Co136 Co 0.99334 0.94754 0.5268 0.0
Co137 Co 0.97877 0.90472 0.58587 0.0
C138 C 1.00075 0.96572 0.60527 0.0
O139 O 0.00303 0.97229 0.5713 0.0
O140 O 0.99247 0.94036 0.61407 0.0
C141 C 0.0163 0.97161 0.46393 0.0
O142 O 0.03312 0.97442 0.48305 0.0
C143 C 0.98747 0.85943 0.63951 0.0
C144 C 0.95692 0.84596 0.65939 0.0
C145 C 0.97755 0.84085 0.66426 0.0
N146 N 0.97339 0.87464 0.62058 0.0
N147 N 0.95512 0.86635 0.63207 0.0
C148 C 0.00987 0.86505 0.63598 0.0
H149 H 0.01691 0.86711 0.66356 0.0
H150 H 0.01283 0.88594 0.61975 0.0
H151 H 0.01704 0.84553 0.62164 0.0
C152 C 0.01132 0.88619 0.49581 0.0
N153 N 1.00251 0.90413 0.52225 0.0
N154 N 0.99302 0.88612 0.54535 0.0
C155 C 0.99383 0.85707 0.53278 0.0
C156 C 0.00549 0.85568 0.50054 0.0
C157 C 0.0295 0.89527 0.47364 0.0
H158 H 0.03477 0.9182 0.48115 0.0
H159 H 0.04213 0.8791 0.47908 0.0
H160 H 0.02628 0.89353 0.44397 0.0
O161 O 0.96205 0.9495 0.52587 0.0
O162 O 0.9522 0.91666 0.5683 0.0
H163 H 0.97771 0.81442 0.52818 0.0
H164 H 0.99067 0.82064 0.57116 0.0
C165 C 0.98164 0.8317 0.54918 0.0
H166 H 0.96739 0.84068 0.56143 0.0
H167 H 0.94149 0.87526 0.62208 0.0
O168 O 0.99943 0.96885 0.48058 0.0
C169 C 0.94795 0.93547 0.54321 0.0
Co170 Co 0.78148 0.92654 0.54441 0.0
Co171 Co 0.79917 0.96668 0.60375 0.0
C172 C 0.77753 0.90465 0.6221 0.0
O173 O 0.77261 0.89999 0.58856 0.0
O174 O 0.78724 0.92898 0.6302 0.0
C175 C 0.75432 0.90208 0.4866 0.0
O176 O 0.74017 0.89671 0.51134 0.0
C177 C 0.7905 1.00785 0.66102 0.0
C178 C 0.82061 1.02194 0.68211 0.0
C179 C 0.79984 1.02571 0.68719 0.0
N180 N 0.80497 0.99451 0.64097 0.0
N181 N 0.82301 1.00296 0.65334 0.0
C182 C 0.76826 1.00115 0.65673 0.0
H183 H 0.76598 0.97971 0.64127 0.0
H184 H 0.76097 1.01978 0.64101 0.0
H185 H 0.76071 0.9995 0.68397 0.0
C186 C 0.76393 0.98858 0.51901 0.0
N187 N 0.77308 0.96998 0.54408 0.0
N188 N 0.783 0.98725 0.56727 0.0
C189 C 0.78163 1.01677 0.55628 0.0
C190 C 0.76956 1.01889 0.52469 0.0
C191 C 0.74756 0.9791 0.49328 0.0
H192 H 0.74084 0.95724 0.50187 0.0
H193 H 0.7353 0.9965 0.49277 0.0
H194 H 0.7539 0.97805 0.46531 0.0
O195 O 0.81271 0.92397 0.53919 0.0
O196 O 0.82478 0.95617 0.58066 0.0
H197 H 0.79661 0.0604 0.55301 0.0
H198 H 0.78483 1.0517 0.5965 0.0
C199 C 0.79362 1.04203 0.5732 0.0
H200 H 0.80829 1.03328 0.58388 0.0
H201 H 0.83686 0.99531 0.6427 0.0
O202 O 0.77198 0.90988 0.49719 0.0
C203 C 0.82766 0.93774 0.55441 0.0
Co204 Co 0.96966 0.90942 0.2292 0.0
Co205 Co 0.96309 0.95746 0.17082 0.0
C206 C 0.97801 0.89361 0.1493 0.0
O207 O 0.97873 0.88627 0.18316 0.0
O208 O 0.97256 0.92055 0.14066 0.0
C209 C 0.99854 0.88751 0.27774 0.0
O210 O 0.01075 0.89798 0.25205 0.0
C211 C 0.97366 0.999 0.11288 0.0
C212 C 0.94532 1.02534 0.10487 0.0
C213 C 0.96495 1.02156 0.09163 0.0
N214 N 0.95994 0.99005 0.13783 0.0
N215 N 0.94306 1.00597 0.13324 0.0
C216 C 0.99411 0.98438 0.10797 0.0
H217 H 0.99554 0.96374 0.12513 0.0
H218 H 0.00622 1.00039 0.1166 0.0
H219 H 0.99665 0.97865 0.07861 0.0
C220 C 0.98174 0.96584 0.27111 0.0
N221 N 0.97903 0.95078 0.23893 0.0
N222 N 0.97935 0.97058 0.21206 0.0
C223 C 0.98397 0.99847 0.22607 0.0
C224 C 0.98597 0.99661 0.26447 0.0
C225 C 0.97402 0.95385 0.307 0.0
H226 H 0.96541 0.93244 0.3032 0.0
H227 H 0.98685 0.94996 0.32577 0.0
H228 H 0.96391 0.97088 0.32025 0.0
O229 O 0.93961 0.91085 0.23016 0.0
O230 O 0.93527 0.94878 0.19048 0.0
H231 H 0.96952 1.0363 0.20022 0.0
H232 H 0.99501 1.04397 0.21651 0.0
C233 C 0.98506 1.02675 0.20341 0.0
H234 H 0.99121 1.02144 0.17585 0.0
H235 H 0.92982 1.00298 0.14872 0.0
O236 O 0.97962 0.88562 0.27078 0.0
C237 C 0.9281 0.92956 0.21334 0.0
Co238 Co 0.7643 0.96049 0.23511 0.0
Co239 Co 0.77693 0.91861 0.17293 0.0
C240 C 0.75646 0.98092 0.15696 0.0
O241 O 0.75399 0.98522 0.19146 0.0
O242 O 0.76467 0.95613 0.14591 0.0
C243 C 0.74212 0.9879 0.30013 0.0
O244 O 0.72419 0.98705 0.28425 0.0
C245 C 0.7706 0.87726 0.11349 0.0
C246 C 0.80184 0.86122 0.10108 0.0
C247 C 0.78176 0.85902 0.08995 0.0
N248 N 0.78347 0.88955 0.13755 0.0
N249 N 0.8021 0.87978 0.1304 0.0
C250 C 0.74845 0.88521 0.11167 0.0
H251 H 0.74526 0.90621 0.1275 0.0
H252 H 0.73941 0.86652 0.12404 0.0
H253 H 0.74358 0.88816 0.08272 0.0
C254 C 0.74992 0.90022 0.26806 0.0
N255 N 0.75604 0.91749 0.23907 0.0
N256 N 0.76238 0.89917 0.213 0.0
C257 C 0.76131 0.86991 0.22536 0.0
C258 C 0.75338 0.86929 0.26129 0.0
C259 C 0.74108 0.91301 0.30235 0.0
H260 H 0.72942 0.92999 0.29485 0.0
H261 H 0.73356 0.89539 0.3194 0.0
H262 H 0.75345 0.92382 0.31833 0.0
O263 O 0.7951 0.96291 0.23549 0.0
O264 O 0.80324 0.92989 0.19204 0.0
H265 H 0.7864 0.85015 0.19634 0.0
H266 H 0.77181 0.82319 0.223 0.0
C267 C 0.77087 0.84375 0.2055 0.0
H268 H 0.76176 0.83853 0.18067 0.0
H269 H 0.81506 0.88641 0.14487 0.0
O270 O 0.75788 0.98024 0.28206 0.0
C271 C 0.80838 0.94826 0.21705 0.0
Co272 Co 0.00889 0.65877 0.97854 0.0
Co273 Co 0.02096 0.70615 0.92207 0.0
C274 C 1.00222 0.64495 0.89794 0.0
O275 O 1.00033 0.63655 0.93137 0.0
O276 O 0.00915 0.67149 0.89101 0.0
C277 C 0.98863 0.63109 0.04206 0.0
O278 O 0.97024 0.62651 0.0291 0.0
C279 C 0.01097 0.75426 0.87269 0.0
C280 C 0.04117 0.77072 0.85452 0.0
C281 C 0.02043 0.77481 0.84972 0.0
N282 N 0.02539 0.73886 0.89053 0.0
N283 N 0.04345 0.749 0.88016 0.0
C284 C 0.98875 0.74697 0.87505 0.0
H285 H 0.98624 0.72569 0.89079 0.0
H286 H 0.98072 0.76584 0.8892 0.0
H287 H 0.98223 0.74473 0.84708 0.0
C288 C 0.98927 0.7164 0.01485 0.0
N289 N 0.99795 0.70079 0.98639 0.0
N290 N 0.00654 0.72081 0.96456 0.0
C291 C 0.00541 0.74888 0.97998 0.0
C292 C 0.99434 0.74744 0.01277 0.0
C293 C 0.97151 0.7049 0.03655 0.0
H294 H 0.96618 0.68285 0.02575 0.0
H295 H 0.95876 0.72141 0.03462 0.0
H296 H 0.97534 0.70325 0.06596 0.0
O297 O 0.04019 0.66064 0.98039 0.0
O298 O 0.04758 0.69431 0.93744 0.0
H299 H 0.03139 0.76803 0.95251 0.0
H300 H 0.02118 0.79142 0.98873 0.0
C301 C 0.01716 0.77568 0.96609 0.0
H302 H 0.00779 0.78813 0.94573 0.0
H303 H 0.05729 0.74036 0.88955 0.0
O304 O 0.00364 0.63068 0.02016 0.0
C305 C 0.05328 0.67582 0.96193 0.0
Co306 Co 0.21599 0.69235 0.9796 0.0
Co307 Co 0.21009 0.6492 0.91661 0.0
C308 C 0.22767 0.71105 0.89977 0.0
O309 O 0.22629 0.71734 0.93407 0.0
O310 O 0.22293 0.68439 0.88898 0.0
C311 C 0.24453 0.70901 0.03222 0.0
O312 O 0.25726 0.69944 1.00681 0.0
C313 C 0.21642 0.60949 0.85576 0.0
C314 C 0.18962 0.57893 0.85789 0.0
C315 C 0.20749 0.58475 0.83906 0.0
N316 N 0.20451 0.61789 0.88363 0.0
N317 N 0.18841 0.59986 0.88482 0.0
C318 C 0.23562 0.62578 0.84528 0.0
H319 H 0.24436 0.63166 0.87035 0.0
H320 H 0.24529 0.61247 0.82624 0.0
H321 H 0.23149 0.64734 0.83138 0.0
C322 C 0.22643 0.63166 0.01699 0.0
N323 N 0.2241 0.64959 0.98678 0.0
N324 N 0.22477 0.6322 0.95767 0.0
C325 C 0.2293 0.60327 0.96816 0.0
C326 C 0.23067 0.60151 1.00676 0.0
C327 C 0.21912 0.64076 0.05416 0.0
H328 H 0.21101 0.66284 0.05308 0.0
H329 H 0.23229 0.64205 0.07273 0.0
H330 H 0.20866 0.62322 0.06536 0.0
O331 O 0.18571 0.69339 0.98015 0.0
O332 O 0.18254 0.66223 0.93263 0.0
H333 H 0.21647 0.56753 0.9359 0.0
H334 H 0.24186 0.55979 0.95263 0.0
C335 C 0.23163 0.57761 0.94153 0.0
H336 H 0.23807 0.58611 0.91532 0.0
H337 H 0.1768 0.60154 0.90434 0.0
O338 O 0.22602 0.71317 0.02341 0.0
C339 C 0.17468 0.67873 0.95758 0.0
Co340 Co 0.04348 0.69853 0.27197 0.0
Co341 Co 0.03786 0.65648 0.33661 0.0
C342 C 0.02631 0.72254 0.34635 0.0
O343 O 0.03166 0.72642 0.31283 0.0
O344 O 0.02678 0.69576 0.35975 0.0
C345 C 0.02106 0.72387 0.21725 0.0
O346 O 0.00743 0.72141 0.24359 0.0
C347 C 0.01757 0.62019 0.39074 0.0
C348 C 0.04203 0.58993 0.4108 0.0
C349 C 0.02171 0.59736 0.41545 0.0
N350 N 0.03462 0.62594 0.37183 0.0
N351 N 0.04921 0.60773 0.38364 0.0
C352 C 0.99827 0.63803 0.38697 0.0
H353 H 0.99864 0.65217 0.36175 0.0
H354 H 0.98496 0.62259 0.38595 0.0
H355 H 0.99642 0.65297 0.41132 0.0
C356 C 0.02979 0.64202 0.23097 0.0
N357 N 0.03155 0.65863 0.26231 0.0
N358 N 0.02659 0.64148 0.29029 0.0
C359 C 0.02005 0.614 0.27727 0.0
C360 C 0.0216 0.61318 0.23859 0.0
C361 C 0.04074 0.65011 0.19622 0.0
H362 H 0.05158 0.66903 0.20076 0.0
H363 H 0.02968 0.65669 0.17497 0.0
H364 H 0.04921 0.63008 0.18565 0.0
O365 O 0.07272 0.69184 0.28216 0.0
O366 O 0.06816 0.66212 0.33091 0.0
H367 H 0.02676 0.57663 0.31265 0.0
H368 H 0.00364 0.5721 0.28626 0.0
C369 C 0.01322 0.58853 0.30149 0.0
H370 H 0.00425 0.59766 0.32477 0.0
H371 H 0.06413 0.60791 0.37373 0.0
O372 O 0.0397 0.72043 0.22555 0.0
C373 C 0.07989 0.67609 0.30852 0.0
Co374 Co 0.24377 0.65736 0.28413 0.0
Co375 Co 0.23677 0.69771 0.35047 0.0
C376 C 0.254 0.63409 0.36185 0.0
O377 O 0.25302 0.63041 0.32703 0.0
O378 O 0.24921 0.65987 0.37556 0.0
C379 C 0.26675 0.63184 0.22083 0.0
O380 O 0.28399 0.6353 0.23855 0.0
C381 C 0.24347 0.73602 0.41388 0.0
C382 C 0.21325 0.75771 0.42063 0.0
C383 C 0.23245 0.75567 0.43589 0.0
N384 N 0.23133 0.72688 0.38661 0.0
N385 N 0.21334 0.74001 0.39055 0.0
C386 C 0.26473 0.72464 0.41966 0.0
H387 H 0.2677 0.70401 0.40311 0.0
H388 H 0.27573 0.7423 0.41078 0.0
H389 H 0.26738 0.71984 0.4492 0.0
C390 C 0.25809 0.71733 0.2515 0.0
N391 N 0.25343 0.69954 0.28082 0.0
N392 N 0.2515 0.71702 0.30981 0.0
C393 C 0.25588 0.74631 0.29985 0.0
C394 C 0.2605 0.74773 0.26206 0.0
C395 C 0.25503 0.70715 0.213 0.0
H396 H 0.24211 0.69108 0.21266 0.0
H397 H 0.26916 0.6961 0.20308 0.0
H398 H 0.25124 0.72628 0.19438 0.0
O399 O 0.21358 0.65889 0.28393 0.0
O400 O 0.20878 0.68677 0.33371 0.0
H401 H 0.23817 0.77925 0.32875 0.0
H402 H 0.26313 0.79249 0.31502 0.0
C403 C 0.2544 0.77272 0.32551 0.0
H404 H 0.26036 0.76625 0.35283 0.0
H405 H 0.20097 0.73639 0.37316 0.0
O406 O 0.25007 0.6365 0.23771 0.0
C407 C 0.20171 0.67184 0.30671 0.0
Co408 Co 0.99074 0.44659 0.02645 0.0
Co409 Co 0.97792 0.40357 0.08671 0.0
C410 C 0.99883 0.46674 0.10354 0.0
O411 O 1.00064 0.47282 0.06933 0.0
O412 O 0.99118 0.44108 0.11322 0.0
C413 C 0.01254 0.46977 0.96153 0.0
O414 O 0.02912 0.47504 0.98058 0.0
C415 C 0.98572 0.36275 0.14679 0.0
C416 C 0.95477 0.34618 0.16032 0.0
C417 C 0.97491 0.34487 0.17128 0.0
N418 N 0.97254 0.37415 0.12253 0.0
N419 N 0.9541 0.36397 0.13035 0.0
C420 C 0.00776 0.3714 0.14808 0.0
H421 H 0.0107 0.39176 0.13096 0.0
H422 H 0.01704 0.35245 0.13693 0.0
H423 H 0.01256 0.37571 0.17683 0.0
C424 C 0.01025 0.38726 0.99625 0.0
N425 N 1.00109 0.40386 0.02332 0.0
N426 N 0.99221 0.38484 0.04597 0.0
C427 C 0.99374 0.35609 0.03219 0.0
C428 C 0.00517 0.35631 0.99948 0.0
C429 C 0.0286 0.39797 0.97558 0.0
H430 H 0.03429 0.41962 0.98695 0.0
H431 H 0.04095 0.38081 0.97784 0.0
H432 H 0.02526 0.40015 0.94608 0.0
O433 O 0.95941 0.4477 0.02701 0.0
O434 O 0.95096 0.41437 0.06969 0.0
H435 H 0.96893 0.33713 0.0632 0.0
H436 H 0.97822 0.31317 0.02637 0.0
C437 C 0.98271 0.32946 0.04816 0.0
H438 H 0.9929 0.31764 0.0678 0.0
H439 H 0.94096 0.36995 0.11602 0.0
O440 O 0.99585 0.4655 0.97833 0.0
C441 C 0.94588 0.4331 0.04505 0.0
Co442 Co 0.77963 0.41934 0.04032 0.0
Co443 Co 0.79326 0.46028 0.1011 0.0
C444 C 0.77086 0.39806 0.11633 0.0
O445 O 0.76813 0.39451 0.08193 0.0
O446 O 0.78023 0.42193 0.12758 0.0
C447 C 0.75615 0.39264 0.98047 0.0
O448 O 0.74076 0.38827 1.003 0.0
C449 C 0.78067 0.50019 0.1577 0.0
C450 C 0.80816 0.52709 0.17071 0.0
C451 C 0.78774 0.52359 0.17942 0.0
N452 N 0.79615 0.49005 0.1373 0.0
N453 N 0.81264 0.50598 0.14511 0.0
C454 C 0.75922 0.48916 0.15358 0.0
H455 H 0.75703 0.47857 0.12622 0.0
H456 H 0.74825 0.50812 0.1573 0.0
H457 H 0.75611 0.47165 0.17478 0.0
C458 C 0.76231 0.47885 1.00925 0.0
N459 N 0.77021 0.46174 0.03696 0.0
N460 N 0.7794 0.47996 0.06001 0.0
C461 C 0.77908 0.50877 0.04605 0.0
C462 C 0.76828 0.50932 0.01271 0.0
C463 C 0.7449 0.46893 0.98583 0.0
H464 H 0.73879 0.44686 0.99515 0.0
H465 H 0.73249 0.48603 0.98753 0.0
H466 H 0.74956 0.46811 0.95681 0.0
O467 O 0.81092 0.41789 0.04074 0.0
O468 O 0.82056 0.45038 0.08382 0.0
H469 H 0.80576 0.52605 0.07248 0.0
H470 H 0.79346 0.55289 0.04197 0.0
C471 C 0.79089 0.53449 0.06228 0.0
H472 H 0.78232 0.5438 0.08605 0.0
H473 H 0.82675 0.50295 0.13236 0.0
O474 O 0.77334 0.39992 0.99356 0.0
C475 C 0.82493 0.43192 0.05824 0.0
Co476 Co 0.97535 0.41479 0.72086 0.0
Co477 Co 0.96419 0.4598 0.6606 0.0
C478 C 0.98414 0.39816 0.64141 0.0
O479 O 0.98513 0.39109 0.67542 0.0
O480 O 0.97738 0.4244 0.63239 0.0
C481 C 1.00064 0.38404 0.77611 0.0
O482 O 0.01612 0.3864 0.75333 0.0
C483 C 0.97489 0.50722 0.61092 0.0
C484 C 0.94522 0.52394 0.59061 0.0
C485 C 0.96606 0.52838 0.5879 0.0
N486 N 0.96002 0.49137 0.62703 0.0
N487 N 0.94226 0.50147 0.61517 0.0
C488 C 0.99705 0.50029 0.61574 0.0
H489 H 0.99913 0.47777 0.62892 0.0
H490 H 0.00401 0.51779 0.63367 0.0
H491 H 0.00501 0.50076 0.58882 0.0
C492 C 0.98975 0.47301 0.75804 0.0
N493 N 0.984 0.45728 0.72765 0.0
N494 N 0.97751 0.47688 0.7032 0.0
C495 C 0.97813 0.50538 0.71798 0.0
C496 C 0.98599 0.50415 0.75375 0.0
C497 C 0.9991 0.45858 0.79078 0.0
H498 H 0.98744 0.44492 0.80534 0.0
H499 H 0.01157 0.44378 0.78094 0.0
H500 H 0.00576 0.47546 0.80989 0.0
O501 O 0.94451 0.41473 0.72149 0.0
O502 O 0.9373 0.44631 0.67575 0.0
H503 H 0.95399 0.5255 0.68668 0.0
H504 H 0.96455 0.55017 0.72139 0.0
C505 C 0.9682 0.53245 0.70072 0.0
H506 H 0.97867 0.54231 0.67996 0.0
H507 H 0.92819 0.49274 0.62337 0.0
O508 O 0.98305 0.39222 0.76543 0.0
C509 C 0.93162 0.42843 0.70113 0.0
Co510 Co 0.77451 0.46042 0.73308 0.0
Co511 Co 0.76879 0.41792 0.67003 0.0
C512 C 0.75712 0.48251 0.65792 0.0
O513 O 0.76354 0.48684 0.69067 0.0
O514 O 0.75645 0.45546 0.64544 0.0
C515 C 0.75364 0.48169 0.79405 0.0
O516 O 0.7378 0.47345 0.77445 0.0
C517 C 0.75574 0.38094 0.60961 0.0
C518 C 0.78118 0.34793 0.6056 0.0
C519 C 0.76329 0.35716 0.58909 0.0
N520 N 0.76873 0.3858 0.63714 0.0
N521 N 0.78374 0.36585 0.63507 0.0
C522 C 0.73796 0.40106 0.60122 0.0
H523 H 0.73119 0.40974 0.62714 0.0
H524 H 0.72619 0.38902 0.58509 0.0
H525 H 0.74335 0.42078 0.58487 0.0
C526 C 0.76305 0.40321 0.77439 0.0
N527 N 0.7631 0.42042 0.74346 0.0
N528 N 0.75747 0.40341 0.71583 0.0
C529 C 0.75194 0.37554 0.72887 0.0
C530 C 0.75489 0.37438 0.76712 0.0
C531 C 0.77693 0.40963 0.80592 0.0
H532 H 0.78483 0.43167 0.80238 0.0
H533 H 0.7684 0.40912 0.83194 0.0
H534 H 0.78861 0.39142 0.80768 0.0
O535 O 0.80373 0.45408 0.72535 0.0
O536 O 0.79878 0.42505 0.67645 0.0
H537 H 0.75924 0.33646 0.69676 0.0
H538 H 0.73492 0.33447 0.71964 0.0
C539 C 0.74558 0.34974 0.70481 0.0
H540 H 0.73818 0.35849 0.67958 0.0
H541 H 0.7961 0.36522 0.65301 0.0
O542 O 0.77081 0.48377 0.7781 0.0
C543 C 0.81068 0.43837 0.69887 0.0
Co544 Co 0.52625 0.15982 0.98915 0.0
Co545 Co 0.52361 0.19951 0.92293 0.0
C546 C 0.50997 0.13473 0.91467 0.0
O547 O 0.51405 0.13123 0.94883 0.0
O548 O 0.51213 0.16095 0.90042 0.0
C549 C 0.50497 0.1422 0.05206 0.0
O550 O 0.48916 0.15062 0.03248 0.0
C551 C 0.50962 0.2317 0.86008 0.0
C552 C 0.53607 0.26092 0.84654 0.0
C553 C 0.51708 0.25182 0.83444 0.0
N554 N 0.52367 0.22874 0.88626 0.0
N555 N 0.53935 0.24643 0.87848 0.0
C556 C 0.49078 0.21262 0.8578 0.0
H557 H 0.48607 0.20509 0.88564 0.0
H558 H 0.47808 0.22511 0.84474 0.0
H559 H 0.49407 0.19224 0.84081 0.0
C560 C 0.5143 0.22026 0.0258 0.0
N561 N 0.51549 0.20113 0.9964 0.0
N562 N 0.51112 0.21652 0.96674 0.0
C563 C 0.50533 0.24512 0.97652 0.0
C564 C 0.50698 0.24896 0.01496 0.0
C565 C 0.52535 0.21442 0.06092 0.0
H566 H 0.53505 0.19388 0.05866 0.0
H567 H 0.51425 0.21167 0.08341 0.0
H568 H 0.53508 0.2342 0.06793 0.0
O569 O 0.55616 0.16388 0.98132 0.0
O570 O 0.55318 0.19255 0.93165 0.0
H571 H 0.51279 0.28111 0.93945 0.0
H572 H 0.48812 0.2849 0.96124 0.0
C573 C 0.49911 0.2686 0.94904 0.0
H574 H 0.49196 0.25752 0.92496 0.0
H575 H 0.55263 0.24759 0.89411 0.0
O576 O 0.5221 0.13947 0.03608 0.0
C577 C 0.56419 0.17878 0.95507 0.0
Co578 Co 0.72948 0.2018 0.97679 0.0
Co579 Co 0.71922 0.16222 0.91107 0.0
C580 C 0.73853 0.22548 0.89983 0.0
O581 O 0.73879 0.23034 0.93451 0.0
O582 O 0.73234 0.19981 0.88795 0.0
C583 C 0.75283 0.23216 0.03675 0.0
O584 O 0.76683 0.241 0.01325 0.0
C585 C 0.73184 0.12324 0.85354 0.0
C586 C 0.70309 0.10847 0.82756 0.0
C587 C 0.72411 0.10627 0.8249 0.0
N588 N 0.7162 0.13471 0.87247 0.0
N589 N 0.69899 0.12575 0.85721 0.0
C590 C 0.75363 0.13112 0.86116 0.0
H591 H 0.75467 0.15133 0.87923 0.0
H592 H 0.76104 0.11185 0.87553 0.0
H593 H 0.76198 0.13541 0.83513 0.0
C594 C 0.74636 0.14087 1.005 0.0
N595 N 0.73941 0.15929 0.97764 0.0
N596 N 0.73312 0.14187 0.95073 0.0
C597 C 0.73492 0.11218 0.96095 0.0
C598 C 0.74329 0.11025 0.9963 0.0
C599 C 0.75586 0.15184 0.03944 0.0
H600 H 0.76404 0.17336 0.03433 0.0
H601 H 0.76679 0.13488 0.0504 0.0
H602 H 0.74356 0.15483 0.0598 0.0
O603 O 0.69851 0.20014 0.97752 0.0
O604 O 0.69189 0.17276 0.9278 0.0
H605 H 0.72281 0.06654 0.9574 0.0
H606 H 0.73702 0.07938 0.91791 0.0
C607 C 0.72605 0.08638 0.93952 0.0
H608 H 0.71176 0.09369 0.92598 0.0
H609 H 0.68454 0.13218 0.86631 0.0
O610 O 0.73684 0.21915 0.02491 0.0
C611 C 0.68581 0.18772 0.95558 0.0
Co612 Co 0.52938 0.18778 0.30343 0.0
Co613 Co 0.5444 0.14476 0.36188 0.0
C614 C 0.5234 0.2064 0.38176 0.0
O615 O 0.51945 0.21215 0.34814 0.0
O616 O 0.53257 0.1816 0.38972 0.0
C617 C 0.5042 0.21814 0.24627 0.0
O618 O 0.48864 0.22061 0.26882 0.0
C619 C 0.53515 0.10651 0.42155 0.0
C620 C 0.56372 0.08171 0.43324 0.0
C621 C 0.54369 0.08516 0.4446 0.0
N622 N 0.54943 0.11565 0.39799 0.0
N623 N 0.56658 0.10102 0.40495 0.0
C624 C 0.5134 0.11669 0.41961 0.0
H625 H 0.50981 0.1254 0.39179 0.0
H626 H 0.50292 0.09774 0.42659 0.0
H627 H 0.51093 0.13546 0.43949 0.0
C628 C 0.51349 0.12707 0.27066 0.0
N629 N 0.52116 0.14454 0.29837 0.0
N630 N 0.52847 0.1262 0.3235 0.0
C631 C 0.52627 0.09691 0.31216 0.0
C632 C 0.5167 0.09609 0.27776 0.0
C633 C 0.50359 0.13939 0.23713 0.0
H634 H 0.49413 0.15926 0.24445 0.0
H635 H 0.49374 0.12214 0.22383 0.0
H636 H 0.51571 0.14596 0.21763 0.0
O637 O 0.56031 0.19036 0.30101 0.0
O638 O 0.57069 0.15547 0.34077 0.0
H639 H 0.53659 1.05005 0.31378 0.0
H640 H 0.52699 0.06527 0.3566 0.0
C641 C 0.53589 0.07054 0.33146 0.0
H642 H 0.55157 0.07666 0.33991 0.0
H643 H 0.58008 0.10397 0.39021 0.0
O644 O 0.52109 0.20831 0.25837 0.0
C645 C 0.57455 0.17523 0.31636 0.0
Co646 Co 0.73815 0.16813 0.28672 0.0
Co647 Co 0.72606 0.20802 0.35046 0.0
C648 C 0.74709 0.14827 0.36709 0.0
O649 O 0.74827 0.14457 0.33225 0.0
O650 O 0.73928 0.17282 0.37953 0.0
C651 C 0.76729 0.15648 0.22912 0.0
O652 O 0.78009 0.17238 0.24906 0.0
C653 C 0.72513 0.25039 0.41103 0.0
C654 C 0.69389 0.26924 0.40682 0.0
C655 C 0.71181 0.27115 0.4264 0.0
N656 N 0.71566 0.23707 0.38296 0.0
N657 N 0.69698 0.24823 0.38056 0.0
C658 C 0.74615 0.2423 0.42366 0.0
H659 H 0.75085 0.21988 0.41279 0.0
H660 H 0.75717 0.25945 0.41353 0.0
H661 H 0.74682 0.24215 0.45413 0.0
C662 C 0.74608 0.2312 0.25319 0.0
N663 N 0.7434 0.21215 0.28231 0.0
N664 N 0.74166 0.22863 0.31215 0.0
C665 C 0.74507 0.25836 0.3033 0.0
C666 C 0.74845 0.26131 0.26523 0.0
C667 C 0.74118 0.22232 0.21472 0.0
H668 H 0.73808 0.1978 0.2128 0.0
H669 H 0.75351 0.22977 0.19596 0.0
H670 H 0.72689 0.23362 0.20618 0.0
O671 O 0.70818 0.16161 0.28286 0.0
O672 O 0.70046 0.19303 0.32819 0.0
H673 H 0.74463 0.30648 0.31672 0.0
H674 H 0.75112 0.28109 0.354 0.0
C675 C 0.74144 0.28409 0.3294 0.0
H676 H 0.7253 0.28386 0.33834 0.0
H677 H 0.68637 0.24176 0.36079 0.0
O678 O 0.75042 0.1485 0.24342 0.0
C679 C 0.69502 0.17526 0.30257 0.0
Co680 Co 0.49081 0.94446 0.03961 0.0
Co681 Co 0.47791 0.90523 0.10385 0.0
C682 C 0.49858 0.96496 0.1205 0.0
O683 O 0.50018 0.96846 0.0856 0.0
O684 O 0.49075 0.94042 0.13306 0.0
C685 C 0.52042 0.95782 0.98238 0.0
O686 O 0.53424 0.94609 1.00423 0.0
C687 C 0.47024 0.86869 0.16868 0.0
C688 C 0.44303 0.8427 0.15113 0.0
C689 C 0.45595 0.8476 0.18041 0.0
N690 N 0.46566 0.87637 0.13426 0.0
N691 N 0.44936 0.86098 0.12387 0.0
C692 C 0.48898 0.87949 0.18805 0.0
H693 H 0.50038 0.88784 0.16789 0.0
H694 H 0.49577 0.86093 0.20465 0.0
H695 H 0.48489 0.89852 0.20666 0.0
C696 C 0.49959 0.88065 1.00878 0.0
N697 N 0.4965 0.90037 0.03705 0.0
N698 N 0.49411 0.88449 0.06716 0.0
C699 C 0.49716 0.85453 0.05945 0.0
C700 C 0.50096 0.85057 0.02153 0.0
C701 C 0.49575 0.88916 0.96994 0.0
H702 H 0.48635 0.91005 0.96909 0.0
H703 H 0.51058 0.89269 0.95615 0.0
H704 H 0.48749 0.87086 0.9552 0.0
O705 O 0.46086 0.95084 0.03415 0.0
O706 O 0.453 0.92044 0.08021 0.0
H707 H 0.47978 0.82103 0.08819 0.0
H708 H 0.50633 0.81142 0.08198 0.0
C709 C 0.49552 0.83019 0.08795 0.0
H710 H 0.49886 0.83965 0.11553 0.0
H711 H 0.44266 0.86277 0.09801 0.0
O712 O 0.50276 0.96316 0.99526 0.0
C713 C 0.44766 0.93763 0.05406 0.0
Co714 Co 0.28469 0.91294 0.04619 0.0
Co715 Co 0.2939 0.95715 0.10709 0.0
C716 C 0.27585 0.89553 0.12678 0.0
O717 O 0.27605 0.88902 0.09259 0.0
O718 O 0.28133 0.92205 0.13692 0.0
C719 C 0.2539 0.89626 0.99718 0.0
O720 O 0.24236 0.90913 0.0223 0.0
C721 C 0.28743 0.99689 0.16781 0.0
C722 C 0.31556 1.02447 0.17005 0.0
C723 C 0.29696 1.01981 0.18715 0.0
N724 N 0.29985 0.98805 0.1408 0.0
N725 N 0.31672 1.0044 0.14217 0.0
C726 C 0.26622 0.98501 0.17263 0.0
H727 H 0.26041 0.97585 0.14624 0.0
H728 H 0.25587 1.00315 0.18271 0.0
H729 H 0.26636 0.96625 0.193 0.0
C730 C 0.27433 0.97333 1.00798 0.0
N731 N 0.27728 0.95603 0.03861 0.0
N732 N 0.27827 0.97421 0.06707 0.0
C733 C 0.27441 1.00321 0.05592 0.0
C734 C 0.27146 1.00396 0.01765 0.0
C735 C 0.27877 0.96237 0.96996 0.0
H736 H 0.28128 0.93766 0.96932 0.0
H737 H 0.26647 0.96942 0.95099 0.0
H738 H 0.2932 0.97265 0.96023 0.0
O739 O 0.31476 0.91077 0.04291 0.0
O740 O 0.32101 0.94489 0.0865 0.0
H741 H 0.29365 1.03189 0.08788 0.0
H742 H 0.27302 1.05182 0.06649 0.0
C743 C 0.27737 1.03031 0.08018 0.0
H744 H 0.26832 1.02747 0.1057 0.0
H745 H 0.3289 1.00204 0.12391 0.0
O746 O 0.27251 0.89117 1.00475 0.0
C747 C 0.3272 0.92668 0.06161 0.0
Co748 Co 0.47345 0.91249 0.73325 0.0
Co749 Co 0.46192 0.9556 0.67233 0.0
C750 C 0.48174 0.8925 0.65545 0.0
O751 O 0.48331 0.88644 0.68967 0.0
O752 O 0.47438 0.91822 0.6458 0.0
C753 C 0.49667 0.88373 0.79287 0.0
O754 O 0.51262 0.88202 0.77108 0.0
C755 C 0.47522 0.99444 0.61568 0.0
C756 C 0.44796 1.02093 0.60001 0.0
C757 C 0.46849 1.01703 0.59245 0.0
N758 N 0.45945 0.98513 0.63587 0.0
N759 N 0.44309 1.00077 0.62647 0.0
C760 C 0.49656 0.98323 0.6211 0.0
H761 H 0.49839 0.97337 0.64892 0.0
H762 H 0.50769 1.00192 0.61709 0.0
H763 H 0.49983 0.96507 0.60077 0.0
C764 C 0.49113 0.97223 0.76599 0.0
N765 N 0.48332 0.95503 0.73813 0.0
N766 N 0.47659 0.97364 0.7128 0.0
C767 C 0.47888 1.00282 0.72451 0.0
C768 C 0.48827 1.00333 0.75914 0.0
C769 C 0.50194 0.95956 0.79833 0.0
H770 H 0.49041 0.95192 0.81843 0.0
H771 H 0.51162 0.94041 0.78935 0.0
H772 H 0.51187 0.97674 0.81154 0.0
O773 O 0.44242 0.91318 0.73319 0.0
O774 O 0.43442 0.94668 0.69004 0.0
H775 H 0.45461 1.02276 0.69351 0.0
H776 H 0.46709 1.04885 0.72412 0.0
C777 C 0.46951 1.0294 0.70524 0.0
H778 H 0.47963 1.0366 0.6824 0.0
H779 H 0.42877 0.99807 0.63852 0.0
O780 O 0.47967 0.89189 0.77955 0.0
C781 C 0.42916 0.9285 0.71542 0.0
Co782 Co 0.26361 0.94901 0.7398 0.0
Co783 Co 0.27758 0.90546 0.68046 0.0
C784 C 0.25626 0.96741 0.6616 0.0
O785 O 0.25426 0.97414 0.69563 0.0
O786 O 0.2641 0.94173 0.65253 0.0
C787 C 0.24154 0.97514 0.80506 0.0
O788 O 0.22471 0.98092 0.78692 0.0
C789 C 0.27241 0.86182 0.62213 0.0
C790 C 0.30394 0.84523 0.61391 0.0
C791 C 0.28424 0.84248 0.60097 0.0
N792 N 0.28458 0.87529 0.64651 0.0
N793 N 0.30337 0.86518 0.64182 0.0
C794 C 0.25032 0.86947 0.61784 0.0
H795 H 0.24668 0.89123 0.63174 0.0
H796 H 0.24101 0.85138 0.63084 0.0
H797 H 0.24621 0.87089 0.58834 0.0
C798 C 0.24476 0.88984 0.77021 0.0
N799 N 0.25388 0.90626 0.74302 0.0
N800 N 0.26286 0.88715 0.72061 0.0
C801 C 0.26135 0.85849 0.73452 0.0
C802 C 0.24981 0.85887 0.76706 0.0
C803 C 0.22734 0.90145 0.79271 0.0
H804 H 0.2218 0.9234 0.78183 0.0
H805 H 0.21462 0.88484 0.7919 0.0
H806 H 0.23169 0.90371 0.82176 0.0
O807 O 0.29479 0.95086 0.74128 0.0
O808 O 0.30386 0.91764 0.6989 0.0
H809 H 0.27614 0.81489 0.74075 0.0
H810 H 0.26348 0.82108 0.69743 0.0
C811 C 0.27279 0.83195 0.71917 0.0
H812 H 0.2873 0.83967 0.70669 0.0
H813 H 0.31589 0.87231 0.65714 0.0
O814 O 0.25749 0.96741 0.78771 0.0
C815 C 0.30855 0.93637 0.72373 0.0
Co816 Co 0.52159 0.66155 0.48151 0.0
Co817 Co 0.51642 0.70513 0.41907 0.0
C818 C 0.50369 0.6402 0.40641 0.0
O819 O 0.50865 0.63547 0.43999 0.0
O820 O 0.50499 0.66714 0.39354 0.0
C821 C 0.50312 0.64227 0.54666 0.0
O822 O 0.4865 0.65128 0.52985 0.0
C823 C 0.49818 0.74591 0.36793 0.0
C824 C 0.5207 0.78335 0.36593 0.0
C825 C 0.50159 0.77461 0.3539 0.0
N826 N 0.51444 0.7382 0.38778 0.0
N827 N 0.52794 0.76041 0.38643 0.0
C828 C 0.479 0.72754 0.36675 0.0
H829 H 0.47745 0.71382 0.39219 0.0
H830 H 0.46546 0.74241 0.36353 0.0
H831 H 0.47976 0.71164 0.34312 0.0
C832 C 0.51121 0.7188 0.52404 0.0
N833 N 0.51096 0.7018 0.4929 0.0
N834 N 0.5048 0.71884 0.46571 0.0
C835 C 0.49875 0.7463 0.47962 0.0
C836 C 0.50225 0.74726 0.51774 0.0
C837 C 0.52626 0.71321 0.55403 0.0
H838 H 0.53448 0.69151 0.54973 0.0
H839 H 0.51869 0.71366 0.58101 0.0
H840 H 0.53761 0.7319 0.55422 0.0
O841 O 0.55076 0.667 0.47099 0.0
O842 O 0.54663 0.69886 0.42436 0.0
H843 H 0.4814 0.76257 0.43391 0.0
H844 H 0.50341 0.78512 0.44545 0.0
C845 C 0.49055 0.77174 0.45684 0.0
H846 H 0.4808 0.78702 0.47355 0.0
H847 H 0.54172 0.76036 0.40063 0.0
O848 O 0.51925 0.63886 0.5277 0.0
C849 C 0.55815 0.68371 0.44578 0.0
Co850 Co 0.72147 0.70331 0.47476 0.0
Co851 Co 0.71463 0.65995 0.41108 0.0
C852 C 0.73253 0.72228 0.39519 0.0
O853 O 0.73228 0.72849 0.42962 0.0
O854 O 0.7268 0.69601 0.38467 0.0
C855 C 0.74881 0.71693 0.53097 0.0
O856 O 0.76172 0.70595 0.50671 0.0
C857 C 0.72427 0.62165 0.35013 0.0
C858 C 0.69736 0.59168 0.34544 0.0
C859 C 0.71629 0.59771 0.33013 0.0
N860 N 0.71069 0.62948 0.37581 0.0
N861 N 0.69452 0.61179 0.37285 0.0
C862 C 0.74527 0.63489 0.34817 0.0
H863 H 0.74944 0.64532 0.37486 0.0
H864 H 0.75663 0.61719 0.34093 0.0
H865 H 0.74562 0.65292 0.32688 0.0
C866 C 0.73075 0.64277 0.51182 0.0
N867 N 0.72902 0.66054 0.48134 0.0
N868 N 0.72933 0.64295 0.45233 0.0
C869 C 0.73319 0.6139 0.4632 0.0
C870 C 0.73443 0.61248 0.50178 0.0
C871 C 0.72254 0.65201 0.54855 0.0
H872 H 0.71506 0.67454 0.54723 0.0
H873 H 0.73489 0.65225 0.56902 0.0
H874 H 0.71119 0.63506 0.55812 0.0
O875 O 0.69124 0.70383 0.47413 0.0
O876 O 0.68675 0.67181 0.42762 0.0
H877 H 0.71913 0.57928 0.43084 0.0
H878 H 0.74385 0.56899 0.44888 0.0
C879 C 0.73465 0.58774 0.4371 0.0
H880 H 0.74189 0.59517 0.41116 0.0
H881 H 0.68178 0.61306 0.38997 0.0
O882 O 0.73079 0.72295 0.52048 0.0
C883 C 0.67957 0.68909 0.45261 0.0
Co884 Co 0.53612 0.69008 0.79592 0.0
Co885 Co 0.54125 0.65009 0.86286 0.0
C886 C 0.52394 0.71415 0.87224 0.0
O887 O 0.52648 0.71788 0.83768 0.0
O888 O 0.52746 0.68802 0.88627 0.0
C889 C 0.51404 0.72214 0.73762 0.0
O890 O 0.4995 0.72783 0.7615 0.0
C891 C 0.52744 0.60916 0.91825 0.0
C892 C 0.55565 0.58608 0.93622 0.0
C893 C 0.53477 0.58698 0.94167 0.0
N894 N 0.54323 0.62089 0.89996 0.0
N895 N 0.56011 0.60728 0.9108 0.0
C896 C 0.50575 0.61744 0.91045 0.0
H897 H 0.50438 0.62763 0.8827 0.0
H898 H 0.49576 0.59717 0.91256 0.0
H899 H 0.50058 0.6346 0.93077 0.0
C900 C 0.51961 0.63141 0.76329 0.0
N901 N 0.52512 0.64865 0.7926 0.0
N902 N 0.52912 0.63041 0.82011 0.0
C903 C 0.52723 0.60101 0.80834 0.0
C904 C 0.52121 0.6004 0.77126 0.0
C905 C 0.5136 0.64418 0.72721 0.0
H906 H 0.50304 0.66335 0.73181 0.0
H907 H 0.50574 0.62717 0.70978 0.0
H908 H 0.52763 0.65185 0.71318 0.0
O909 O 0.5668 0.68704 0.79855 0.0
O910 O 0.56957 0.66105 0.85051 0.0
H911 H 0.54898 0.57913 0.84316 0.0
H912 H 0.53532 0.55345 0.81322 0.0
C913 C 0.53403 0.5742 0.83037 0.0
H914 H 0.52287 0.57003 0.85272 0.0
H915 H 0.57457 0.61198 0.90029 0.0
O916 O 0.53047 0.70997 0.74876 0.0
C917 C 0.57769 0.67488 0.82352 0.0
Co918 Co 0.74362 0.66924 0.78896 0.0
Co919 Co 0.73051 0.71338 0.8485 0.0
C920 C 0.75028 0.65246 0.87022 0.0
O921 O 0.75188 0.64529 0.83624 0.0
O922 O 0.74333 0.67874 0.87851 0.0
C923 C 0.76308 0.63146 0.72049 0.0
O924 O 0.77273 0.60591 0.72719 0.0
C925 C 0.73598 0.75726 0.90535 0.0
C926 C 0.70449 0.77228 0.91745 0.0
C927 C 0.72455 0.77561 0.92834 0.0
N928 N 0.72329 0.74383 0.88183 0.0
N929 N 0.70451 0.75301 0.88876 0.0
C930 C 0.75823 0.74997 0.9076 0.0
H931 H 0.76186 0.72916 0.89175 0.0
H932 H 0.76711 0.76896 0.89553 0.0
H933 H 0.76294 0.74707 0.93665 0.0
C934 C 0.76059 0.72843 0.75544 0.0
N935 N 0.75274 0.71208 0.78392 0.0
N936 N 0.74525 0.73133 0.80793 0.0
C937 C 0.7469 0.76013 0.79439 0.0
C938 C 0.75665 0.75961 0.75999 0.0
C939 C 0.77355 0.71529 0.72571 0.0
H940 H 0.77873 0.69212 0.73295 0.0
H941 H 0.78704 0.73002 0.72113 0.0
H942 H 0.765 0.71507 0.69974 0.0
O943 O 0.71233 0.66753 0.78446 0.0
O944 O 0.70478 0.69859 0.83034 0.0
H945 H 0.73564 0.80644 0.79246 0.0
H946 H 0.74584 0.7942 0.83607 0.0
C947 C 0.73684 0.78706 0.81181 0.0
H948 H 0.72139 0.78072 0.82151 0.0
H949 H 0.69164 0.74531 0.8748 0.0
O950 O 0.75545 0.64632 0.74712 0.0
C951 C 0.69916 0.68087 0.80488 0.0
Co952 Co 0.49687 0.44261 0.54849 0.0
Co953 Co 0.47825 0.40052 0.60573 0.0
C954 C 0.50172 0.45801 0.62989 0.0
O955 O 0.50574 0.46482 0.59635 0.0
O956 O 0.49223 0.43323 0.63697 0.0
C957 C 0.52227 0.46992 0.48402 0.0
O958 O 0.54071 0.46897 0.4979 0.0
C959 C 0.47604 0.35288 0.65911 0.0
C960 C 0.4431 0.34197 0.66057 0.0
C961 C 0.46178 0.33376 0.6749 0.0
N962 N 0.46633 0.37111 0.63581 0.0
N963 N 0.44667 0.36459 0.63654 0.0
C964 C 0.49831 0.35546 0.66737 0.0
H965 H 0.50436 0.37757 0.65762 0.0
H966 H 0.50669 0.3371 0.65292 0.0
H967 H 0.50104 0.35304 0.6973 0.0
C968 C 0.50931 0.38157 0.51498 0.0
N969 N 0.50239 0.39865 0.54358 0.0
N970 N 0.49335 0.38043 0.56701 0.0
C971 C 0.49369 0.35152 0.55338 0.0
C972 C 0.50386 0.351 0.51944 0.0
C973 C 0.52012 0.39433 0.48256 0.0
H974 H 0.53179 0.41062 0.49206 0.0
H975 H 0.52781 0.3764 0.4662 0.0
H976 H 0.50879 0.40606 0.46509 0.0
O977 O 0.46656 0.44972 0.54158 0.0
O978 O 0.45466 0.41957 0.58506 0.0
H979 H 0.4661 0.33386 0.57647 0.0
H980 H 0.48051 0.30642 0.55023 0.0
C981 C 0.48165 0.32589 0.56946 0.0
H982 H 0.48909 0.31809 0.59508 0.0
H983 H 0.43566 0.37559 0.62077 0.0
O984 O 0.5072 0.4612 0.5032 0.0
C985 C 0.45173 0.4385 0.55959 0.0
Co986 Co 0.29436 0.41437 0.54547 0.0
Co987 Co 0.29154 0.45695 0.60932 0.0
C988 C 0.28028 0.39112 0.62171 0.0
O989 O 0.28388 0.38574 0.58772 0.0
O990 O 0.28199 0.41826 0.63341 0.0
C991 C 0.2714 0.39584 0.48697 0.0
O992 O 0.25672 0.4015 0.5106 0.0
C993 C 0.27544 0.49065 0.66922 0.0
C994 C 0.30001 0.52349 0.68184 0.0
C995 C 0.28098 0.51355 0.69296 0.0
N996 N 0.29049 0.48717 0.6449 0.0
N997 N 0.30513 0.50684 0.65222 0.0
C998 C 0.25732 0.47001 0.67141 0.0
H999 H 0.25389 0.46046 0.64391 0.0
H1000 H 0.24368 0.48181 0.68214 0.0
H1001 H 0.26087 0.45098 0.69033 0.0
C1002 C 0.28198 0.47356 0.50755 0.0
N1003 N 0.28257 0.45497 0.53743 0.0
N1004 N 0.27749 0.47092 0.56633 0.0
C1005 C 0.27163 0.49916 0.55543 0.0
C1006 C 0.27406 0.50215 0.51715 0.0
C1007 C 0.29496 0.46825 0.47443 0.0
H1008 H 0.3034 0.44651 0.47663 0.0
H1009 H 0.28544 0.46854 0.4496 0.0
H1010 H 0.30612 0.48705 0.47155 0.0
O1011 O 0.324 0.42105 0.5507 0.0
O1012 O 0.32099 0.45305 0.59747 0.0
H1013 H 0.27844 0.53557 0.59227 0.0
H1014 H 0.25456 0.53975 0.56812 0.0
C1015 C 0.2649 0.52331 0.58171 0.0
H1016 H 0.25682 0.51287 0.60529 0.0
H1017 H 0.31877 0.5084 0.63756 0.0
O1018 O 0.28945 0.39337 0.4991 0.0
C1019 C 0.33196 0.43885 0.5742 0.0
Co1020 Co 0.4734 0.4125 0.24092 0.0
Co1021 Co 0.46311 0.44718 0.17115 0.0
C1022 C 0.48385 0.3849 0.16518 0.0
O1023 O 0.48323 0.3829 0.20031 0.0
O1024 O 0.47792 0.40951 0.14986 0.0
C1025 C 0.49934 0.38708 0.29939 0.0
O1026 O 0.51224 0.37878 0.27365 0.0
C1027 C 0.47241 0.48446 0.10937 0.0
C1028 C 0.44246 0.50295 0.09279 0.0
C1029 C 0.46304 0.50344 0.08432 0.0
N1030 N 0.45807 0.47303 0.13141 0.0
N1031 N 0.44014 0.48387 0.12141 0.0
C1032 C 0.49471 0.47906 0.11481 0.0
H1033 H 0.49774 0.47122 0.14325 0.0
H1034 H 0.50353 0.50007 0.10911 0.0
H1035 H 0.4999 0.46102 0.09565 0.0
C1036 C 0.48897 0.47512 0.26449 0.0
N1037 N 0.4823 0.45525 0.23847 0.0
N1038 N 0.47587 0.47095 0.2102 0.0
C1039 C 0.4772 0.5012 0.21842 0.0
C1040 C 0.48548 0.5052 0.2538 0.0
C1041 C 0.49924 0.46586 0.29894 0.0
H1042 H 0.50877 0.44566 0.29361 0.0
H1043 H 0.50927 0.48412 0.30958 0.0
H1044 H 0.48728 0.46111 0.31952 0.0
O1045 O 0.44231 0.41207 0.24142 0.0
O1046 O 0.43609 0.43434 0.18798 0.0
H1047 H 0.46489 0.54641 0.21086 0.0
H1048 H 0.47921 0.53126 0.17256 0.0
C1049 C 0.46827 0.52559 0.19479 0.0
H1050 H 0.45401 0.51737 0.18197 0.0
H1051 H 0.42643 0.47874 0.13455 0.0
O1052 O 0.48212 0.39788 0.29 0.0
C1053 C 0.42979 0.42127 0.21696 0.0
Co1054 Co 0.27037 0.44641 0.23668 0.0
Co1055 Co 0.26689 0.40389 0.17211 0.0
C1056 C 0.25474 0.46989 0.16146 0.0
O1057 O 0.25983 0.47404 0.19501 0.0
O1058 O 0.25531 0.44296 0.14833 0.0
C1059 C 0.25288 0.47716 0.2997 0.0
O1060 O 0.23534 0.47582 0.28252 0.0
C1061 C 0.25012 0.36635 0.11453 0.0
C1062 C 0.27655 0.33745 0.10012 0.0
C1063 C 0.25661 0.34394 0.09077 0.0
N1064 N 0.26557 0.3729 0.13709 0.0
N1065 N 0.28125 0.35536 0.12874 0.0
C1066 C 0.23032 0.38317 0.1139 0.0
H1067 H 0.22887 0.3981 0.13832 0.0
H1068 H 0.21743 0.36692 0.11343 0.0
H1069 H 0.2295 0.39712 0.08855 0.0
C1070 C 0.25403 0.39053 0.27698 0.0
N1071 N 0.25747 0.40676 0.24578 0.0
N1072 N 0.25482 0.38867 0.21758 0.0
C1073 C 0.24883 0.36076 0.23016 0.0
C1074 C 0.24787 0.36085 0.26881 0.0
C1075 C 0.26097 0.4006 0.31382 0.0
H1076 H 0.2743 0.41571 0.31049 0.0
H1077 H 0.24822 0.41257 0.32753 0.0
H1078 H 0.26551 0.38107 0.33129 0.0
O1079 O 0.29991 0.43875 0.22888 0.0
O1080 O 0.29702 0.40956 0.17967 0.0
H1081 H 0.26012 0.32522 0.19581 0.0
H1082 H 0.23704 0.31562 0.22045 0.0
C1083 C 0.24525 0.334 0.20576 0.0
H1084 H 0.23623 0.34111 0.18155 0.0
H1085 H 0.29534 0.35625 0.14185 0.0
O1086 O 0.26897 0.46973 0.28243 0.0
C1087 C 0.30803 0.42307 0.2034 0.0
H1088 H 0.00999 0.31361 0.17987 0.0
H1089 H 0.95623 0.34372 0.23763 0.0
H1090 H 0.96934 0.32219 0.29477 0.0
H1091 H 0.99639 0.29589 0.32803 0.0
H1092 H 0.0499 0.26505 0.27006 0.0
H1093 H 0.03719 0.28773 0.21328 0.0
C1094 C 1.00135 0.31593 0.20509 0.0
C1095 C 0.98244 0.33062 0.20494 0.0
C1096 C 0.00905 0.30386 0.23766 0.0
C1097 C 0.97089 0.33242 0.23735 0.0
C1098 C 0.97842 0.32036 0.26996 0.0
C1099 C 0.00508 0.2937 0.30285 0.0
C1100 C 0.02373 0.27826 0.30278 0.0
C1101 C 0.9975 0.30613 0.27038 0.0
C1102 C 0.0354 0.27681 0.2705 0.0
C1103 C 0.0281 0.28951 0.23808 0.0
H1104 H 0.27803 0.99617 0.24607 0.0
H1105 H 0.29767 0.08085 0.1982 0.0
H1106 H 0.2795 0.10911 0.24619 0.0
H1107 H 0.2554 0.10924 0.29765 0.0
H1108 H 0.23525 1.02437 0.34464 0.0
H1109 H 0.25556 0.99629 0.29963 0.0
C1110 C 0.27823 1.02082 0.24615 0.0
C1111 C 0.28862 1.03661 0.21846 0.0
C1112 C 0.26743 1.03667 0.27306 0.0
C1113 C 0.28958 0.06842 0.21936 0.0
C1114 C 0.27909 0.08448 0.2465 0.0
C1115 C 0.25589 0.08464 0.29867 0.0
C1116 C 0.24419 0.0688 0.32467 0.0
C1117 C 0.2676 0.0688 0.27294 0.0
C1118 C 0.24421 1.03692 0.32475 0.0
C1119 C 0.25586 1.02093 0.29924 0.0
H1120 H 1.00277 1.04468 0.08436 0.0
H1121 H 0.94657 1.03083 0.02586 0.0
H1122 H 0.96267 1.04839 0.96892 0.0
H1123 H 0.99347 0.06381 0.93542 0.0
H1124 H 0.04985 0.07612 0.99399 0.0
H1125 H 0.03329 0.06087 0.05128 0.0
C1126 C 0.99417 1.04505 0.05902 0.0
C1127 C 0.97378 1.03575 0.05881 0.0
C1128 C 0.00365 1.05422 0.02651 0.0
C1129 C 0.96238 1.03783 0.02638 0.0
C1130 C 0.97161 1.04755 0.99388 0.0
C1131 C 1.00198 0.06374 0.96084 0.0
C1132 C 0.02269 0.07151 0.96083 0.0
C1133 C 0.99233 1.05525 0.99355 0.0
C1134 C 0.03386 0.07009 0.99356 0.0
C1135 C 0.02439 0.06166 0.02626 0.0
H1136 H 0.27006 0.34475 0.02159 0.0
H1137 H 0.21972 0.31605 0.08927 0.0
H1138 H 0.20359 0.29195 0.03611 0.0
H1139 H 0.20591 0.27472 0.97216 0.0
H1140 H 0.25643 0.3034 0.90469 0.0
H1141 H 0.27049 0.33223 0.95602 0.0
C1142 C 0.25546 0.33342 0.02441 0.0
C1143 C 0.24597 0.33193 0.05879 0.0
C1144 C 0.2465 0.31958 0.99401 0.0
C1145 C 0.22705 0.31759 0.06265 0.0
C1146 C 0.21794 0.30373 0.03244 0.0
C1147 C 0.21978 0.28778 0.96859 0.0
C1148 C 0.23055 0.28629 0.93535 0.0
C1149 C 0.22777 0.30404 0.9982 0.0
C1150 C 0.24837 0.30342 0.93065 0.0
C1151 C 0.25632 0.31998 0.95984 0.0
H1152 H 0.03129 0.77218 0.77913 0.0
H1153 H 0.98792 0.81294 0.85332 0.0
H1154 H 0.96976 0.83562 0.80138 0.0
H1155 H 0.96643 0.84343 0.73498 0.0
H1156 H 0.00957 0.80184 0.66095 0.0
H1157 H 0.02769 0.77935 0.71287 0.0
C1158 C 0.01803 0.78641 0.78379 0.0
C1159 C 0.01085 0.79118 0.81953 0.0
C1160 C 0.00759 0.79873 0.75399 0.0
C1161 C 0.99352 0.80909 0.8257 0.0
C1162 C 0.98317 0.82189 0.79615 0.0
C1163 C 0.97964 0.82908 0.73036 0.0
C1164 C 0.98689 0.82433 0.69463 0.0
C1165 C 0.98999 0.81659 0.7602 0.0
C1166 C 0.00403 0.80601 0.68853 0.0
C1167 C 0.01435 0.79324 0.71808 0.0
H1168 H 0.75861 0.07327 0.83097 0.0
H1169 H 0.71526 0.10735 0.75227 0.0
H1170 H 0.7362 0.08771 0.70189 0.0
H1171 H 0.76702 0.06185 0.68076 0.0
H1172 H 0.81009 1.02696 0.75936 0.0
H1173 H 0.78982 1.04827 0.80975 0.0
C1174 C 0.75396 0.07685 0.80278 0.0
C1175 C 0.73573 0.09216 0.79506 0.0
C1176 C 0.7662 0.06608 0.77422 0.0
C1177 C 0.7293 0.09554 0.75861 0.0
C1178 C 0.74133 0.08465 0.72992 0.0
C1179 C 0.77184 0.05875 0.70896 0.0
C1180 C 0.78963 1.04241 0.71671 0.0
C1181 C 0.75984 0.07008 0.73748 0.0
C1182 C 0.79633 1.03951 0.75305 0.0
C1183 C 0.78466 1.05132 0.78174 0.0
H1184 H 0.74734 0.82616 0.08348 0.0
H1185 H 0.80011 0.85683 0.02332 0.0
H1186 H 0.78634 0.835 0.96681 0.0
H1187 H 0.75867 0.80927 0.93465 0.0
H1188 H 0.70605 0.77814 0.9949 0.0
H1189 H 0.7197 0.80029 0.05133 0.0
C1190 C 0.75563 0.82845 0.05787 0.0
C1191 C 0.77439 0.84355 0.05707 0.0
C1192 C 0.74748 0.81646 0.02568 0.0
C1193 C 0.78555 0.84527 0.02426 0.0
C1194 C 0.77763 0.8331 0.99203 0.0
C1195 C 0.75038 0.80693 0.96024 0.0
C1196 C 0.7317 0.79162 0.96107 0.0
C1197 C 0.75852 0.81895 0.99243 0.0
C1198 C 0.72054 0.78989 0.99389 0.0
C1199 C 0.7284 0.80222 0.02609 0.0
H1200 H 0.24302 0.55592 0.842 0.0
H1201 H 0.19185 0.57393 0.77152 0.0
H1202 H 0.2104 0.55238 0.71899 0.0
H1203 H 0.24256 0.534 0.69269 0.0
H1204 H 0.29416 0.51787 0.76297 0.0
H1205 H 0.27443 0.53477 0.81643 0.0
C1206 C 0.23594 0.55461 0.81512 0.0
C1207 C 0.21644 0.56657 0.80988 0.0
C1208 C 0.24694 0.54352 0.78529 0.0
C1209 C 0.20698 0.56472 0.77559 0.0
C1210 C 0.21763 0.55282 0.74571 0.0
C1211 C 0.24925 0.53364 0.71991 0.0
C1212 C 0.26947 0.5244 0.72453 0.0
C1213 C 0.23782 0.54306 0.75013 0.0
C1214 C 0.2785 0.525 0.7593 0.0
C1215 C 0.26723 0.53435 0.78968 0.0
H1216 H 0.95663 0.53534 0.51673 0.0
H1217 H 0.99902 0.56447 0.5998 0.0
H1218 H 0.02013 0.58898 0.55305 0.0
H1219 H 0.02775 0.5985 0.48802 0.0
H1220 H 0.98541 0.56952 0.40494 0.0
H1221 H 0.96284 0.5485 0.4522 0.0
C1222 C 0.97029 0.54759 0.52454 0.0
C1223 C 0.97663 0.54766 0.56122 0.0
C1224 C 0.98237 0.56125 0.49755 0.0
C1225 C 0.99426 0.56354 0.57138 0.0
C1226 C 0.00627 0.57755 0.54476 0.0
C1227 C 0.01353 0.5876 0.48052 0.0
C1228 C 0.00806 0.58532 0.44355 0.0
C1229 C 1.00075 0.57577 0.5077 0.0
C1230 C 0.98965 0.57157 0.43357 0.0
C1231 C 0.97684 0.55956 0.46045 0.0
H1232 H 0.268 0.78456 0.44694 0.0
H1233 H 0.21142 0.76051 0.49969 0.0
H1234 H 0.22301 0.78396 0.55693 0.0
H1235 H 0.24947 0.8105 0.59152 0.0
H1236 H 0.30572 0.83543 0.53804 0.0
H1237 H 0.29456 0.81047 0.48166 0.0
C1238 C 0.25842 0.78389 0.4712 0.0
C1239 C 0.23915 0.77041 0.4697 0.0
C1240 C 0.26522 0.79713 0.50371 0.0
C1241 C 0.22639 0.77082 0.50061 0.0
C1242 C 0.23303 0.78399 0.53323 0.0
C1243 C 0.25911 0.81091 0.56734 0.0
C1244 C 0.27809 0.82536 0.56838 0.0
C1245 C 0.25243 0.79718 0.53501 0.0
C1246 C 0.29095 0.82449 0.53758 0.0
C1247 C 0.28455 0.81047 0.50537 0.0
H1248 H 0.74086 0.61876 0.27596 0.0
H1249 H 0.71417 0.53674 0.31956 0.0
H1250 H 0.73409 0.50629 0.27625 0.0
H1251 H 0.76072 0.50308 0.22929 0.0
H1252 H 0.7886 0.58485 0.18766 0.0
H1253 H 0.76741 0.61559 0.22887 0.0
C1254 C 0.73967 0.59421 0.27641 0.0
C1255 C 0.72659 0.57986 0.3015 0.0
C1256 C 0.75161 0.57695 0.25244 0.0
C1257 C 0.72431 0.54817 0.30055 0.0
C1258 C 0.73579 0.53079 0.27609 0.0
C1259 C 0.76192 0.52765 0.22893 0.0
C1260 C 0.77585 0.5419 0.20533 0.0
C1261 C 0.74973 0.54495 0.25243 0.0
C1262 C 0.7779 0.5736 0.20581 0.0
C1263 C 0.76573 0.59109 0.22906 0.0
H1264 H 0.72615 0.33395 0.57742 0.0
H1265 H 0.78324 0.3549 0.52455 0.0
H1266 H 0.77066 0.33398 0.46662 0.0
H1267 H 0.7444 0.30685 0.43299 0.0
H1268 H 0.68843 0.2815 0.48677 0.0
H1269 H 0.69896 0.30882 0.54234 0.0
C1270 C 0.73559 0.33428 0.55292 0.0
C1271 C 0.75541 0.34581 0.55453 0.0
C1272 C 0.72838 0.32185 0.52022 0.0
C1273 C 0.76791 0.34585 0.52335 0.0
C1274 C 0.76072 0.33411 0.49044 0.0
C1275 C 0.73462 0.30722 0.45703 0.0
C1276 C 0.71611 0.29161 0.45679 0.0
C1277 C 0.74116 0.32158 0.48886 0.0
C1278 C 0.70291 0.29329 0.48699 0.0
C1279 C 0.70899 0.30858 0.51865 0.0
H1280 H 0.49158 0.2922 0.67715 0.0
H1281 H 0.44008 0.32666 0.73776 0.0
H1282 H 0.45192 0.30062 0.79316 0.0
H1283 H 0.48014 0.27645 0.82608 0.0
H1284 H 0.53337 0.24676 0.76661 0.0
H1285 H 0.51826 0.26401 0.70881 0.0
C1286 C 0.48297 0.29378 0.70253 0.0
C1287 C 0.46552 0.31194 0.70423 0.0
C1288 C 0.4905 0.28046 0.73436 0.0
C1289 C 0.45375 0.31291 0.73635 0.0
C1290 C 0.46064 0.29842 0.76798 0.0
C1291 C 0.4881 0.27313 0.80024 0.0
C1292 C 0.50761 0.2604 0.79995 0.0
C1293 C 0.47949 0.28346 0.76762 0.0
C1294 C 0.51829 0.25678 0.76692 0.0
C1295 C 0.50964 0.26639 0.73409 0.0
H1296 H 0.49642 0.99448 0.54555 0.0
H1297 H 0.46774 0.07785 0.58047 0.0
H1298 H 0.49019 0.10694 0.53974 0.0
H1299 H 0.51808 0.10822 0.49518 0.0
H1300 H 0.54616 1.02476 0.45909 0.0
H1301 H 0.52474 0.99586 0.50182 0.0
C1302 C 0.49534 1.01905 0.54466 0.0
C1303 C 0.48084 1.03424 0.56623 0.0
C1304 C 0.50839 1.03541 0.52178 0.0
C1305 C 0.47889 0.06589 0.56391 0.0
C1306 C 0.4918 0.08244 0.54101 0.0
C1307 C 0.51934 0.08368 0.49648 0.0
C1308 C 0.53317 0.06838 0.47365 0.0
C1309 C 0.50662 0.06739 0.51999 0.0
C1310 C 0.53546 1.03681 0.4765 0.0
C1311 C 0.52311 1.02035 0.50052 0.0
H1312 H 0.46286 0.86926 0.24839 0.0
H1313 H 0.44949 0.78719 0.18844 0.0
H1314 H 0.45944 0.75654 0.24137 0.0
H1315 H 0.47895 0.75357 0.29802 0.0
H1316 H 0.4955 0.8355 0.35574 0.0
H1317 H 0.47796 0.86613 0.30954 0.0
C1318 C 0.46197 0.84466 0.24722 0.0
C1319 C 0.45635 0.83025 0.21455 0.0
C1320 C 0.46874 0.82737 0.27682 0.0
C1321 C 0.45418 0.79857 0.21342 0.0
C1322 C 0.46004 0.7811 0.24344 0.0
C1323 C 0.47802 0.77801 0.30129 0.0
C1324 C 0.48835 0.79242 0.33 0.0
C1325 C 0.46841 0.79528 0.27436 0.0
C1326 C 0.48769 0.82415 0.33344 0.0
C1327 C 0.47765 0.84157 0.30721 0.0
H1328 H 0.49324 0.48651 0.03838 0.0
H1329 H 0.45459 0.56211 0.06733 0.0
H1330 H 0.47353 0.59504 0.02516 0.0
H1331 H 0.50248 0.60274 0.98384 0.0
H1332 H 0.54134 0.52723 0.95529 0.0
H1333 H 0.52152 0.49385 0.99549 0.0
C1334 C 0.48913 0.51027 0.03571 0.0
C1335 C 0.47297 0.52224 0.05635 0.0
C1336 C 0.50028 0.52899 0.01214 0.0
C1337 C 0.46712 0.55263 0.05165 0.0
C1338 C 0.47801 0.57143 0.02786 0.0
C1339 C 0.50631 0.57884 0.98572 0.0
C1340 C 0.52301 0.56719 0.9662 0.0
C1341 C 0.49479 0.55991 1.00846 0.0
C1342 C 0.52845 0.53654 0.97015 0.0
C1343 C 0.51709 0.51748 0.99286 0.0
H1344 H 0.02216 0.17138 0.57706 0.0
H1345 H 0.9643 0.13085 0.6054 0.0
H1346 H 0.96519 0.15699 0.66509 0.0
H1347 H 0.98359 0.18958 0.70948 0.0
H1348 H 0.03955 0.2333 0.67601 0.0
H1349 H 0.03717 0.20938 0.61593 0.0
C1350 C 0.0097 0.16781 0.59619 0.0
C1351 C 0.9933 0.14865 0.58693 0.0
C1352 C 0.00952 0.18459 0.62861 0.0
C1353 C 0.97719 0.14515 0.61202 0.0
C1354 C 0.97754 0.16051 0.64578 0.0
C1355 C 0.99488 0.19475 0.68863 0.0
C1356 C 0.01207 0.21254 0.69748 0.0
C1357 C 0.99364 0.18038 0.65426 0.0
C1358 C 0.02639 0.21932 0.67002 0.0
C1359 C 0.02522 0.20525 0.63591 0.0
H1360 H 0.223 0.21988 0.60475 0.0
H1361 H 0.27964 0.20782 0.54597 0.0
H1362 H 0.29245 0.17561 0.59484 0.0
H1363 H 0.28566 0.14447 0.64902 0.0
H1364 H 0.22995 0.15691 0.70976 0.0
H1365 H 0.21849 0.19484 0.66511 0.0
C1366 C 0.23838 0.21097 0.60321 0.0
C1367 C 0.25005 0.21554 0.57117 0.0
C1368 C 0.2456 0.19178 0.63123 0.0
C1369 C 0.27011 0.20432 0.56991 0.0
C1370 C 0.27742 0.18552 0.5977 0.0
C1371 C 0.27105 0.15563 0.6526 0.0
C1372 C 0.25855 0.14781 0.68248 0.0
C1373 C 0.2649 0.17787 0.62744 0.0
C1374 C 0.23984 0.16274 0.68715 0.0
C1375 C 0.23332 0.18442 0.6616 0.0
H1376 H 0.03159 0.91722 0.30587 0.0
H1377 H 0.97783 0.86675 0.33714 0.0
H1378 H 0.97795 0.89107 0.39704 0.0
H1379 H 0.98978 0.93162 0.43578 0.0
H1380 H 0.04547 0.97929 0.41005 0.0
H1381 H 0.04753 0.95198 0.35113 0.0
C1382 C 0.02038 0.91064 0.32628 0.0
C1383 C 0.00424 0.89106 0.31663 0.0
C1384 C 0.0203 0.92519 0.36063 0.0
C1385 C 0.99009 0.88233 0.34361 0.0
C1386 C 0.98994 0.89659 0.37762 0.0
C1387 C 1.00236 0.93647 0.41731 0.0
C1388 C 0.01723 0.95807 0.42685 0.0
C1389 C 0.00423 0.91926 0.3854 0.0
C1390 C 0.03371 0.96306 0.40301 0.0
C1391 C 0.03504 0.94713 0.36972 0.0
H1392 H 0.71423 0.96362 0.34821 0.0
H1393 H 0.77502 1.00057 0.34151 0.0
H1394 H 0.78531 0.9703 0.39407 0.0
H1395 H 0.77841 0.92972 0.43668 0.0
H1396 H 0.71672 0.89853 0.45291 0.0
H1397 H 0.70584 0.92784 0.39901 0.0
C1398 C 0.72947 0.96605 0.35923 0.0
C1399 C 0.74407 0.98351 0.34017 0.0
C1400 C 0.73548 0.94795 0.38923 0.0
C1401 C 0.76363 0.98679 0.35525 0.0
C1402 C 0.7697 0.96885 0.38464 0.0
C1403 C 0.76256 0.92887 0.42845 0.0
C1404 C 0.7484 0.912 0.44914 0.0
C1405 C 0.75604 0.94824 0.40045 0.0
C1406 C 0.72797 0.91132 0.43759 0.0
C1407 C 0.72166 0.92864 0.40731 0.0
H1408 H 0.02024 0.66692 0.06166 0.0
H1409 H 0.96256 0.63243 0.10078 0.0
H1410 H 0.96571 0.66344 0.15638 0.0
H1411 H 0.98577 0.69803 0.19472 0.0
H1412 H 0.04336 0.73219 0.15489 0.0
H1413 H 0.03867 0.70473 0.09724 0.0
C1414 C 0.00841 0.66583 0.08246 0.0
C1415 C 0.99125 0.64713 0.07732 0.0
C1416 C 0.01001 0.68431 0.11353 0.0
C1417 C 0.97593 0.64652 0.10427 0.0
C1418 C 0.97762 0.6645 0.13578 0.0
C1419 C 0.997 0.7003 0.17302 0.0
C1420 C 0.01504 0.71679 0.17922 0.0
C1421 C 0.99459 0.68348 0.14063 0.0
C1422 C 0.02942 0.71949 0.15079 0.0
C1423 C 0.02691 0.70338 0.11813 0.0
H1424 H 0.23384 0.64572 0.18043 0.0
H1425 H 0.29834 0.62877 0.17 0.0
H1426 H 0.29802 0.65338 0.10919 0.0
H1427 H 0.27922 0.68421 0.06226 0.0
H1428 H 0.21914 0.7174 0.0903 0.0
H1429 H 0.21895 0.68613 0.14508 0.0
C1430 C 0.24806 0.6475 0.16537 0.0
C1431 C 0.2662 0.63616 0.18046 0.0
C1432 C 0.2488 0.66679 0.13515 0.0
C1433 C 0.28415 0.63764 0.15935 0.0
C1434 C 0.28409 0.65247 0.12517 0.0
C1435 C 0.26635 0.68533 0.0809 0.0
C1436 C 0.24871 0.70176 0.07108 0.0
C1437 C 0.26664 0.66833 0.1136 0.0
C1438 C 0.23262 0.70417 0.09648 0.0
C1439 C 0.23229 0.68585 0.1275 0.0
H1440 H 0.03445 0.40407 0.8125 0.0
H1441 H 0.97383 0.36897 0.82971 0.0
H1442 H 0.9714 0.39635 0.8876 0.0
H1443 H 0.98401 0.43589 0.92739 0.0
H1444 H 0.04506 0.47067 0.91353 0.0
H1445 H 0.04917 0.4394 0.85813 0.0
C1446 C 0.02106 0.40135 0.8297 0.0
C1447 C 0.00398 0.38556 0.81617 0.0
C1448 C 0.01932 0.41864 0.86205 0.0
C1449 C 0.98696 0.38166 0.83912 0.0
C1450 C 0.98534 0.39796 0.87172 0.0
C1451 C 0.99823 0.43712 0.91224 0.0
C1452 C 0.01415 0.45603 0.92447 0.0
C1453 C 1.00091 0.41789 0.88213 0.0
C1454 C 0.03248 0.45666 0.90448 0.0
C1455 C 0.03497 0.43833 0.87328 0.0
H1456 H 0.72426 0.45329 0.83516 0.0
H1457 H 0.7845 0.49252 0.84156 0.0
H1458 H 0.79187 0.46192 0.89528 0.0
H1459 H 0.7827 0.42145 0.93617 0.0
H1460 H 0.72069 0.38878 0.94008 0.0
H1461 H 0.71292 0.41799 0.88434 0.0
C1462 C 0.73871 0.45602 0.84909 0.0
C1463 C 0.75412 0.47428 0.83352 0.0
C1464 C 0.74284 0.43857 0.88051 0.0
C1465 C 0.77257 0.47807 0.85244 0.0
C1466 C 0.77696 0.46017 0.88277 0.0
C1467 C 0.76743 0.4203 0.92497 0.0
C1468 C 0.75227 0.40289 0.94245 0.0
C1469 C 0.76252 0.43948 0.89592 0.0
C1470 C 0.73266 0.40191 0.92713 0.0
C1471 C 0.7281 0.41915 0.89584 0.0
H1472 H 0.4747 0.16705 0.09484 0.0
H1473 H 0.53663 0.13363 0.09851 0.0
H1474 H 0.543 0.16335 0.15323 0.0
H1475 H 0.53222 0.20087 0.19673 0.0
H1476 H 0.46846 0.22357 0.2063 0.0
H1477 H 0.46203 0.19889 0.14684 0.0
C1478 C 0.48937 0.16549 0.10827 0.0
C1479 C 0.50544 0.14914 0.09167 0.0
C1480 C 0.49291 0.1822 0.14055 0.0
C1481 C 0.52416 0.14667 0.11007 0.0
C1482 C 0.52798 0.16413 0.14097 0.0
C1483 C 0.51681 0.20067 0.18606 0.0
C1484 C 0.50079 0.21351 0.20647 0.0
C1485 C 0.51272 0.1828 0.15545 0.0
C1486 C 0.4811 0.21363 0.19136 0.0
C1487 C 0.47733 0.19884 0.1579 0.0
H1488 H 0.79303 0.1911 0.18599 0.0
H1489 H 0.74096 0.13113 0.1807 0.0
H1490 H 0.72896 0.1572 0.12637 0.0
H1491 H 0.73083 0.20034 0.08574 0.0
H1492 H 0.78751 0.24917 0.07518 0.0
H1493 H 0.79927 0.22662 0.13331 0.0
C1494 C 0.77956 0.18284 0.17207 0.0
C1495 C 0.76722 0.16041 0.18873 0.0
C1496 C 0.77299 0.19726 0.13965 0.0
C1497 C 0.7503 0.14917 0.16939 0.0
C1498 C 0.74316 0.16447 0.13871 0.0
C1499 C 0.74594 0.20601 0.0956 0.0
C1500 C 0.75838 0.22599 0.07555 0.0
C1501 C 0.75385 0.18948 0.12491 0.0
C1502 C 0.7776 0.23366 0.08983 0.0
C1503 C 0.78453 0.22019 0.12251 0.0
H1504 H 0.53239 0.8915 0.83172 0.0
H1505 H 0.46684 0.89146 0.84357 0.0
H1506 H 0.46935 0.92552 0.89558 0.0
H1507 H 0.48942 0.95795 0.93424 0.0
H1508 H 0.55425 0.94284 0.94051 0.0
H1509 H 0.55311 0.91543 0.88165 0.0
C1510 C 0.5187 0.89806 0.84643 0.0
C1511 C 0.49938 0.89033 0.8324 0.0
C1512 C 0.52019 0.91681 0.87765 0.0
C1513 C 0.48189 0.89796 0.85287 0.0
C1514 C 0.48323 0.91803 0.88215 0.0
C1515 C 0.50347 0.9489 0.92291 0.0
C1516 C 0.5218 0.95186 0.94237 0.0
C1517 C 0.50224 0.92864 0.89357 0.0
C1518 C 0.53983 0.94059 0.9264 0.0
C1519 C 0.5391 0.9242 0.89333 0.0
H1520 H 0.26692 0.93577 0.83789 0.0
H1521 H 0.21323 0.98993 0.85862 0.0
H1522 H 0.20994 0.96631 0.91968 0.0
H1523 H 0.2235 0.93101 0.96716 0.0
H1524 H 0.27371 0.8718 0.93894 0.0
H1525 H 0.27625 0.89554 0.87897 0.0
C1526 C 0.2545 0.94288 0.85563 0.0
C1527 C 0.24048 0.96502 0.84381 0.0
C1528 C 0.25162 0.92736 0.88855 0.0
C1529 C 0.22432 0.97315 0.86718 0.0
C1530 C 0.22226 0.95928 0.90173 0.0
C1531 C 0.23444 0.92242 0.94736 0.0
C1532 C 0.24891 0.90038 0.95799 0.0
C1533 C 0.23574 0.93607 0.9125 0.0
C1534 C 0.2627 0.88914 0.93174 0.0
C1535 C 0.2644 0.90307 0.89767 0.0
H1536 H 0.47606 0.67027 0.59327 0.0
H1537 H 0.53668 0.632 0.58834 0.0
H1538 H 0.54664 0.66199 0.64124 0.0
H1539 H 0.53932 0.70174 0.68489 0.0
H1540 H 0.47712 0.73008 0.70239 0.0
H1541 H 0.46706 0.70418 0.64554 0.0
C1542 C 0.49125 0.66769 0.60447 0.0
C1543 C 0.50586 0.64982 0.58589 0.0
C1544 C 0.49688 0.68465 0.63556 0.0
C1545 C 0.52528 0.64614 0.60147 0.0
C1546 C 0.53114 0.66373 0.63131 0.0
C1547 C 0.5235 0.70251 0.67637 0.0
C1548 C 0.50895 0.71725 0.69843 0.0
C1549 C 0.51731 0.68397 0.64742 0.0
C1550 C 0.48867 0.71863 0.6862 0.0
C1551 C 0.48279 0.70308 0.65433 0.0
H1552 H 0.73606 0.67111 0.69158 0.0
H1553 H 0.79144 0.62258 0.66664 0.0
H1554 H 0.7937 0.64833 0.6072 0.0
H1555 H 0.77942 0.68388 0.56197 0.0
H1556 H 0.72477 0.73401 0.5886 0.0
H1557 H 0.72352 0.70982 0.64878 0.0
C1558 C 0.7486 0.66617 0.67306 0.0
C1559 C 0.76356 0.64507 0.68342 0.0
C1560 C 0.75026 0.68199 0.63972 0.0
C1561 C 0.77971 0.63875 0.65922 0.0
C1562 C 0.78114 0.65374 0.62544 0.0
C1563 C 0.76756 0.69023 0.58128 0.0
C1564 C 0.75201 0.71041 0.57046 0.0
C1565 C 0.76659 0.67561 0.61555 0.0
C1566 C 0.73683 0.71839 0.59603 0.0
C1567 C 0.7359 0.7042 0.63026 0.0
H1568 H 0.54727 0.44276 0.43312 0.0
H1569 H 0.489 0.48693 0.44624 0.0
H1570 H 0.47523 0.45752 0.39556 0.0
H1571 H 0.47838 0.41539 0.35327 0.0
H1572 H 0.53782 0.37883 0.32856 0.0
H1573 H 0.55205 0.40643 0.38119 0.0
C1574 C 0.53188 0.44706 0.42371 0.0
C1575 C 0.51895 0.46632 0.44418 0.0
C1576 C 0.52391 0.42973 0.39452 0.0
C1577 C 0.49913 0.47187 0.43129 0.0
C1578 C 0.49106 0.45442 0.40303 0.0
C1579 C 0.4945 0.4133 0.35919 0.0
C1580 C 0.50702 0.39546 0.33642 0.0
C1581 C 0.50303 0.43224 0.38585 0.0
C1582 C 0.52777 0.39257 0.34537 0.0
C1583 C 0.53603 0.40897 0.37487 0.0
H1584 H 0.28578 0.46399 0.34072 0.0
H1585 H 0.22127 0.48136 0.34979 0.0
H1586 H 0.2208 0.45587 0.40979 0.0
H1587 H 0.23824 0.42291 0.45531 0.0
H1588 H 0.29967 0.39277 0.43248 0.0
H1589 H 0.30098 0.42538 0.3787 0.0
C1590 C 0.27151 0.46245 0.35571 0.0
C1591 C 0.25346 0.47369 0.34011 0.0
C1592 C 0.27054 0.44338 0.38621 0.0
C1593 C 0.23536 0.47241 0.36078 0.0
C1594 C 0.23497 0.45712 0.39455 0.0
C1595 C 0.25174 0.42289 0.43812 0.0
C1596 C 0.26912 0.40624 0.44868 0.0
C1597 C 0.25226 0.44112 0.40649 0.0
C1598 C 0.28623 0.40578 0.4254 0.0
C1599 C 0.28716 0.42486 0.39503 0.0
H1600 H 0.08613 0.16627 0.409 0.0
H1601 H 0.07716 0.16758 0.52629 0.0
H1602 H 0.1142 0.16904 0.53553 0.0
H1603 H 0.14919 0.17289 0.50953 0.0
H1604 H 0.15732 0.16846 0.39202 0.0
H1605 H 0.12055 0.16553 0.38351 0.0
C1606 C 0.09229 0.16652 0.43663 0.0
C1607 C 0.07899 0.16698 0.46693 0.0
C1608 C 0.11344 0.16721 0.4416 0.0
C1609 C 0.08714 0.167 0.50255 0.0
C1610 C 0.10829 0.16812 0.50779 0.0
C1611 C 0.14283 0.17132 0.48213 0.0
C1612 C 0.1559 0.1713 0.45138 0.0
C1613 C 0.12159 0.1688 0.47745 0.0
C1614 C 0.14756 0.16863 0.41606 0.0
C1615 C 0.12655 0.16693 0.41117 0.0
H1616 H 0.17522 0.14662 0.84544 0.0
H1617 H 0.18055 0.16388 0.72942 0.0
H1618 H 0.14323 0.1678 0.72473 0.0
H1619 H 0.10911 0.17036 0.75543 0.0
H1620 H 0.10498 0.15133 0.87151 0.0
H1621 H 0.14174 0.14445 0.8745 0.0
C1622 C 0.16817 0.15055 0.81892 0.0
C1623 C 0.18058 0.15477 0.78778 0.0
C1624 C 0.14691 0.15314 0.81669 0.0
C1625 C 0.1713 0.16001 0.75365 0.0
C1626 C 0.14998 0.1627 0.75115 0.0
C1627 C 0.11632 0.16477 0.78132 0.0
C1628 C 0.10429 0.16182 0.81336 0.0
C1629 C 0.13764 0.16009 0.78273 0.0
C1630 C 0.11382 0.15392 0.84654 0.0
C1631 C 0.13486 0.1499 0.84827 0.0
H1632 H 0.85695 0.97981 0.54278 0.0
H1633 H 0.8462 0.88321 0.54128 0.0
H1634 H 0.88288 0.87396 0.5345 0.0
H1635 H 0.91816 0.8935 0.53642 0.0
H1636 H 0.92881 0.99013 0.53427 0.0
H1637 H 0.89196 0.99941 0.53452 0.0
C1638 C 0.86265 0.95676 0.54019 0.0
C1639 C 0.84897 0.93216 0.54282 0.0
C1640 C 0.88369 0.95172 0.5359 0.0
C1641 C 0.85644 0.90244 0.53916 0.0
C1642 C 0.8774 0.89719 0.53557 0.0
C1643 C 0.91236 0.91658 0.53522 0.0
C1644 C 0.92612 0.94116 0.53562 0.0
C1645 C 0.8912 0.92164 0.53498 0.0
C1646 C 0.91851 0.97091 0.5338 0.0
C1647 C 0.89745 0.97617 0.53423 0.0
H1648 H 0.90188 0.97732 0.21433 0.0
H1649 H 0.90481 0.87997 0.22752 0.0
H1650 H 0.86775 0.8777 0.23342 0.0
H1651 H 0.8345 0.90286 0.22944 0.0
H1652 H 0.8311 1.00028 0.21957 0.0
H1653 H 0.86847 1.00333 0.21849 0.0
C1654 C 0.89435 0.95568 0.21873 0.0
C1655 C 0.90594 0.92876 0.21989 0.0
C1656 C 0.87307 0.95464 0.22287 0.0
C1657 C 0.89615 0.90092 0.22636 0.0
C1658 C 0.875 0.89962 0.22969 0.0
C1659 C 0.84202 0.9248 0.22786 0.0
C1660 C 0.83027 0.95132 0.22449 0.0
C1661 C 0.86332 0.92624 0.22732 0.0
C1662 C 0.83996 0.97966 0.22252 0.0
C1663 C 0.86127 0.98131 0.22153 0.0
H1664 H 0.08302 0.69711 0.91804 0.0
H1665 H 0.07383 0.6486 0.01976 0.0
H1666 H 0.11091 0.64709 0.02929 0.0
H1667 H 0.1462 0.65929 1.00744 0.0
H1668 H 0.15375 0.70641 0.9045 0.0
H1669 H 0.1169 0.70931 0.89702 0.0
C1670 C 0.08897 0.68621 0.9425 0.0
C1671 C 0.07557 0.67301 0.9682 0.0
C1672 C 0.11005 0.68554 0.94768 0.0
C1673 C 0.08377 0.65879 0.99942 0.0
C1674 C 0.10496 0.6581 1.00494 0.0
C1675 C 0.13962 0.6706 0.98382 0.0
C1676 C 0.15249 0.68313 0.95677 0.0
C1677 C 0.11828 0.67147 0.97923 0.0
C1678 C 0.14402 0.69705 0.92576 0.0
C1679 C 0.123 0.69852 0.92139 0.0
H1680 H 0.10956 0.67413 0.25619 0.0
H1681 H 0.10016 0.67413 0.37342 0.0
H1682 H 0.13698 0.67312 0.38337 0.0
H1683 H 0.17195 0.6731 0.35872 0.0
H1684 H 0.1814 0.66843 0.24161 0.0
H1685 H 0.14458 0.67019 0.23158 0.0
C1686 C 0.11563 0.67392 0.28387 0.0
C1687 C 0.1022 0.67452 0.31404 0.0
C1688 C 0.13683 0.67241 0.28939 0.0
C1689 C 0.11021 0.67369 0.34978 0.0
C1690 C 0.13125 0.67317 0.35548 0.0
C1691 C 0.16592 0.67235 0.33102 0.0
C1692 C 0.17938 0.67082 0.30095 0.0
C1693 C 0.14472 0.67264 0.3255 0.0
C1694 C 0.17136 0.66949 0.26523 0.0
C1695 C 0.1503 0.67063 0.25947 0.0
H1696 H 0.85408 0.47492 0.04933 0.0
H1697 H 0.8446 0.37803 0.04717 0.0
H1698 H 0.88138 0.36984 0.04037 0.0
H1699 H 0.91642 0.39035 0.04054 0.0
H1700 H 0.92582 0.48724 0.03784 0.0
H1701 H 0.88887 0.4955 0.04041 0.0
C1702 C 0.8601 0.45204 0.04688 0.0
C1703 C 0.84672 0.42704 0.04917 0.0
C1704 C 0.8812 0.4476 0.04212 0.0
C1705 C 0.8546 0.39755 0.04548 0.0
C1706 C 0.87562 0.39291 0.04175 0.0
C1707 C 0.91032 0.41326 0.03978 0.0
C1708 C 0.92379 0.4382 0.03917 0.0
C1709 C 0.88909 0.41774 0.04078 0.0
C1710 C 0.91575 0.46774 0.03802 0.0
C1711 C 0.89464 0.47242 0.03982 0.0
H1712 H 0.83971 0.43265 0.75169 0.0
H1713 H 0.83115 0.43607 0.63434 0.0
H1714 H 0.86786 0.43146 0.62476 0.0
H1715 H 0.90236 0.42862 0.64966 0.0
H1716 H 0.91141 0.42182 0.76658 0.0
H1717 H 0.87448 0.42492 0.77657 0.0
C1718 C 0.84596 0.43244 0.7241 0.0
C1719 C 0.83287 0.4352 0.69373 0.0
C1720 C 0.86707 0.42888 0.71877 0.0
C1721 C 0.841 0.43418 0.65807 0.0
C1722 C 0.86195 0.43151 0.65259 0.0
C1723 C 0.89621 0.42745 0.67732 0.0
C1724 C 0.9095 0.42519 0.70737 0.0
C1725 C 0.87511 0.42907 0.68271 0.0
C1726 C 0.90141 0.42337 0.74303 0.0
C1727 C 0.88034 0.42543 0.74872 0.0
H1728 H 0.59362 0.1838 1.00808 0.0
H1729 H 0.58482 0.17693 0.891 0.0
H1730 H 0.62149 0.17995 0.88099 0.0
H1731 H 0.65598 0.18407 0.90507 0.0
H1732 H 0.66565 0.19429 0.02148 0.0
H1733 H 0.62878 0.19103 0.03223 0.0
C1734 C 0.59982 0.18279 0.98048 0.0
C1735 C 0.58657 0.17979 0.95032 0.0
C1736 C 0.62103 0.18548 0.97479 0.0
C1737 C 0.59472 0.17913 0.91462 0.0
C1738 C 0.61568 0.1809 0.90886 0.0
C1739 C 0.65004 0.18576 0.93283 0.0
C1740 C 0.66355 0.18927 0.96245 0.0
C1741 C 0.62895 0.1841 0.93868 0.0
C1742 C 0.65557 0.19176 0.99818 0.0
C1743 C 0.6345 0.18966 1.00434 0.0
H1744 H 0.66557 0.21808 0.30151 0.0
H1745 H 0.67522 0.1215 0.29205 0.0
H1746 H 0.63831 0.11298 0.29347 0.0
H1747 H 0.60355 0.13295 0.30347 0.0
H1748 H 0.59377 0.22973 0.3084 0.0
H1749 H 0.63052 0.23844 0.30231 0.0
C1750 C 0.65952 0.19522 0.29916 0.0
C1751 C 0.67299 0.17037 0.29704 0.0
C1752 C 0.63834 0.19062 0.29942 0.0
C1753 C 0.66509 0.1409 0.2936 0.0
C1754 C 0.64402 0.13606 0.29465 0.0
C1755 C 0.6095 0.15594 0.30261 0.0
C1756 C 0.59611 0.18071 0.30674 0.0
C1757 C 0.63055 0.1607 0.29846 0.0
C1758 C 0.60384 0.21039 0.30519 0.0
C1759 C 0.62483 0.21533 0.30193 0.0
H1760 H 0.35482 0.97238 0.05809 0.0
H1761 H 0.34894 0.87506 0.04943 0.0
H1762 H 0.38596 0.87006 0.04356 0.0
H1763 H 0.42006 0.8932 0.04579 0.0
H1764 H 0.42612 0.99061 0.04981 0.0
H1765 H 0.3889 0.99601 0.05192 0.0
C1766 C 0.3617 0.95014 0.05462 0.0
C1767 C 0.3493 0.92404 0.05474 0.0
C1768 C 0.38293 0.94756 0.05029 0.0
C1769 C 0.35824 0.89539 0.04954 0.0
C1770 C 0.37937 0.89255 0.04626 0.0
C1771 C 0.41315 0.91561 0.04636 0.0
C1772 C 0.42565 0.94151 0.04772 0.0
C1773 C 0.39186 0.91843 0.04721 0.0
C1774 C 0.4167 0.97045 0.04839 0.0
C1775 C 0.39547 0.97347 0.04995 0.0
H1776 H 0.33677 0.89285 0.73418 0.0
H1777 H 0.32946 0.99 0.72746 0.0
H1778 H 0.36661 0.99631 0.72555 0.0
H1779 H 0.40097 0.97347 0.7195 0.0
H1780 H 0.40817 0.8765 0.73041 0.0
H1781 H 0.37123 0.87067 0.73718 0.0
C1782 C 0.34338 0.91544 0.73315 0.0
C1783 C 0.33049 0.94097 0.7309 0.0
C1784 C 0.36466 0.91879 0.73233 0.0
C1785 C 0.33912 0.9701 0.7296 0.0
C1786 C 0.36033 0.97364 0.72813 0.0
C1787 C 0.39441 0.95112 0.72377 0.0
C1788 C 0.40719 0.92535 0.72393 0.0
C1789 C 0.37322 0.94807 0.72846 0.0
C1790 C 0.39863 0.89659 0.7301 0.0
C1791 C 0.37752 0.89328 0.73386 0.0
H1792 H 0.65081 0.68668 0.39947 0.0
H1793 H 0.65834 0.695 0.51664 0.0
H1794 H 0.62135 0.69323 0.52513 0.0
H1795 H 0.5868 0.68775 0.49913 0.0
H1796 H 0.57931 0.68427 0.38163 0.0
H1797 H 0.6163 0.68566 0.37324 0.0
C1798 C 0.64431 0.68827 0.42683 0.0
C1799 C 0.65723 0.69076 0.45741 0.0
C1800 C 0.62305 0.68793 0.43139 0.0
C1801 C 0.64866 0.6932 0.49268 0.0
C1802 C 0.62754 0.69202 0.49755 0.0
C1803 C 0.59334 0.68729 0.47175 0.0
C1804 C 0.58046 0.68551 0.44103 0.0
C1805 C 0.61458 0.68909 0.46713 0.0
C1806 C 0.58899 0.68554 0.40564 0.0
C1807 C 0.61011 0.68631 0.40085 0.0
H1808 H 0.67078 0.69032 0.85683 0.0
H1809 H 0.67705 0.66137 0.7442 0.0
H1810 H 0.6397 0.65848 0.73887 0.0
H1811 H 0.60498 0.66501 0.76698 0.0
H1812 H 0.60059 0.69186 0.8807 0.0
H1813 H 0.63752 0.69543 0.88459 0.0
C1814 C 0.66411 0.68337 0.83092 0.0
C1815 C 0.67679 0.67628 0.80084 0.0
C1816 C 0.64287 0.68176 0.82823 0.0
C1817 C 0.6677 0.66687 0.76782 0.0
C1818 C 0.64634 0.66543 0.76476 0.0
C1819 C 0.61221 0.67189 0.79239 0.0
C1820 C 0.6001 0.67845 0.82349 0.0
C1821 C 0.63372 0.67306 0.79477 0.0
C1822 C 0.60959 0.68678 0.85647 0.0
C1823 C 0.6307 0.68875 0.85873 0.0
H1824 H 0.42476 0.45761 0.60896 0.0
H1825 H 0.43097 0.43487 0.4945 0.0
H1826 H 0.39368 0.43333 0.48827 0.0
H1827 H 0.35947 0.43283 0.5179 0.0
H1828 H 0.35441 0.45588 0.63287 0.0
H1829 H 0.39111 0.46262 0.63656 0.0
C1830 C 0.41789 0.45323 0.58239 0.0
C1831 C 0.43041 0.44658 0.55217 0.0
C1832 C 0.39669 0.45165 0.57943 0.0
C1833 C 0.42152 0.44061 0.51793 0.0
C1834 C 0.40025 0.43923 0.51459 0.0
C1835 C 0.36646 0.43935 0.54368 0.0
C1836 C 0.35426 0.44336 0.57523 0.0
C1837 C 0.3877 0.44367 0.54554 0.0
C1838 C 0.36344 0.45244 0.60827 0.0
C1839 C 0.38443 0.45639 0.61042 0.0
H1840 H 0.33603 0.42496 0.25913 0.0
H1841 H 0.33069 0.41537 0.1416 0.0
H1842 H 0.36769 0.41276 0.13583 0.0
H1843 H 0.40158 0.41496 0.1636 0.0
H1844 H 0.40763 0.42131 0.28121 0.0
H1845 H 0.3704 0.42292 0.28764 0.0
C1846 C 0.34301 0.4223 0.23229 0.0
C1847 C 0.33058 0.42073 0.20076 0.0
C1848 C 0.36441 0.42004 0.22922 0.0
C1849 C 0.33984 0.41673 0.16626 0.0
C1850 C 0.36102 0.41524 0.16293 0.0
C1851 C 0.39477 0.41643 0.19072 0.0
C1852 C 0.40739 0.4182 0.22189 0.0
C1853 C 0.37344 0.41707 0.19415 0.0
C1854 C 0.39829 0.41976 0.25681 0.0
C1855 C 0.377 0.42091 0.26044 0.0
H1856 H 0.01162 0.07895 0.40269 0.0
H1857 H 0.98235 0.14897 0.33923 0.0
H1858 H 0.97367 0.11165 0.29168 0.0
H1859 H 0.9744 0.0585 0.26746 0.0
H1860 H 0.00825 0.99073 0.32735 0.0
H1861 H 0.01452 1.02699 0.37645 0.0
C1862 C 0.00314 0.08604 0.37865 0.0
C1863 C 0.99735 0.11695 0.37523 0.0
C1864 C 0.9989 0.06451 0.35041 0.0
C1865 C 0.98687 0.12551 0.34311 0.0
C1866 C 0.98194 0.10405 0.31571 0.0
C1867 C 0.98347 1.05161 0.29079 0.0
C1868 C 0.9904 1.02105 0.2933 0.0
C1869 C 0.98796 0.07339 0.31879 0.0
C1870 C 1.00189 1.01328 0.32466 0.0
C1871 C 0.00578 1.03433 0.35285 0.0
H1872 H 0.2594 0.29895 0.27164 0.0
H1873 H 0.22459 0.36623 0.33065 0.0
H1874 H 0.21771 0.32966 0.37949 0.0
H1875 H 0.22112 0.27784 0.40661 0.0
H1876 H 0.25434 0.20957 0.3463 0.0
H1877 H 0.26198 0.24648 0.29801 0.0
C1878 C 0.25003 0.30559 0.29482 0.0
C1879 C 0.24263 0.33593 0.29681 0.0
C1880 C 0.24586 0.28395 0.32335 0.0
C1881 C 0.23078 0.34353 0.32793 0.0
C1882 C 0.22676 0.32242 0.35616 0.0
C1883 C 0.23022 0.271 0.38315 0.0
C1884 C 0.23724 0.24048 0.38096 0.0
C1885 C 0.23427 0.2925 0.35449 0.0
C1886 C 0.2487 0.23256 0.34947 0.0
C1887 C 0.25307 0.25383 0.32148 0.0
H1888 H 0.01248 0.29315 1.00788 0.0
H1889 H 0.00548 0.36184 0.92463 0.0
H1890 H 0.01243 0.32464 0.87686 0.0
H1891 H 0.02072 0.27171 0.85718 0.0
H1892 H 0.02539 0.20193 0.9399 0.0
H1893 H 0.01883 0.23947 0.9879 0.0
C1894 C 0.01229 0.30009 0.97935 0.0
C1895 C 0.00889 0.33124 0.97069 0.0
C1896 C 0.01583 0.27785 0.95117 0.0
C1897 C 0.00882 0.33888 0.93301 0.0
C1898 C 0.01255 0.31723 0.90524 0.0
C1899 C 0.02022 0.26453 0.88564 0.0
C1900 C 0.02369 0.2334 0.89415 0.0
C1901 C 0.01621 0.28655 0.91377 0.0
C1902 C 0.02283 0.22529 0.93171 0.0
C1903 C 0.01909 0.24698 0.95956 0.0
H1904 H 0.23889 0.1226 0.93126 0.0
H1905 H 0.28356 0.09248 0.85227 0.0
H1906 H 0.29337 1.05087 0.89289 0.0
H1907 H 0.28937 1.02207 0.95071 0.0
H1908 H 0.24282 1.04867 0.02788 0.0
H1909 H 0.23423 0.09229 0.98911 0.0
C1910 C 0.25095 0.10719 0.92306 0.0
C1911 C 0.26054 0.11138 0.88835 0.0
C1912 C 0.25629 0.0823 0.94653 0.0
C1913 C 0.27586 0.09038 0.87849 0.0
C1914 C 0.2815 0.06632 0.90186 0.0
C1915 C 0.27706 1.03681 0.95906 0.0
C1916 C 0.26684 1.03133 0.99289 0.0
C1917 C 0.27175 0.06175 0.93587 0.0
C1918 C 0.25135 1.05207 1.00272 0.0
C1919 C 0.24627 0.07713 0.98023 0.0
H1920 H 0.02754 1.04276 0.74778 0.0
H1921 H 0.00517 0.11631 0.68079 0.0
H1922 H 0.99866 0.08115 0.63071 0.0
H1923 H 0.9983 1.02874 0.60497 0.0
H1924 H 0.01602 0.95397 0.67422 0.0
H1925 H 0.02471 0.98963 0.72357 0.0
C1926 C 0.02094 1.05126 0.72259 0.0
C1927 C 0.01744 0.08306 0.71862 0.0
C1928 C 0.01626 1.03025 0.69369 0.0
C1929 C 0.00901 0.09269 0.68491 0.0
C1930 C 0.00494 0.07229 0.65605 0.0
C1931 C 0.00423 1.02016 0.63072 0.0
C1932 C 0.00674 0.98831 0.63515 0.0
C1933 C 0.00854 1.04095 0.65986 0.0
C1934 C 0.014 0.97809 0.66944 0.0
C1935 C 0.01897 0.99863 0.69791 0.0
H1936 H 0.77091 0.81965 0.76614 0.0
H1937 H 0.74582 0.75709 0.6873 0.0
H1938 H 0.74987 0.79469 0.63869 0.0
H1939 H 0.76089 0.84598 0.61704 0.0
H1940 H 0.7848 0.90943 0.69623 0.0
H1941 H 0.78049 0.87187 0.74496 0.0
C1942 C 0.76622 0.81421 0.73839 0.0
C1943 C 0.75856 0.78465 0.73085 0.0
C1944 C 0.76826 0.8366 0.71 0.0
C1945 C 0.75254 0.77874 0.69433 0.0
C1946 C 0.7546 0.80063 0.66626 0.0
C1947 C 0.76505 0.85181 0.64494 0.0
C1948 C 0.77325 0.88112 0.65219 0.0
C1949 C 0.76258 0.8297 0.6735 0.0
C1950 C 0.7785 0.88749 0.68904 0.0
C1951 C 0.77606 0.86579 0.71727 0.0
H1952 H 0.98654 0.80986 1.00532 0.0
H1953 H 0.99602 0.74096 0.0875 0.0
H1954 H 0.99228 0.77861 0.13596 0.0
H1955 H 0.98636 0.83185 0.15617 0.0
H1956 H 0.97795 0.9015 0.07423 0.0
H1957 H 0.98166 0.86359 0.02556 0.0
C1958 C 0.98794 0.803 0.03378 0.0
C1959 C 0.99139 0.77188 0.04215 0.0
C1960 C 0.9861 0.82536 0.06208 0.0
C1961 C 0.99287 0.76408 0.07961 0.0
C1962 C 0.99095 0.78592 0.10764 0.0
C1963 C 0.98548 0.83893 0.1277 0.0
C1964 C 0.98188 0.87002 0.11947 0.0
C1965 C 0.98755 0.81673 0.09937 0.0
C1966 C 0.98073 0.8781 0.082 0.0
C1967 C 0.9828 0.85624 0.05389 0.0
H1968 H 0.73316 0.10301 0.07 0.0
H1969 H 0.75977 1.05419 0.97924 0.0
H1970 H 0.76536 1.01002 0.01914 0.0
H1971 H 0.76381 0.98521 0.08114 0.0
H1972 H 0.7376 1.03532 0.17154 0.0
H1973 H 0.73118 0.07839 0.13105 0.0
C1974 C 0.7404 0.08291 0.05882 0.0
C1975 C 0.74616 0.08254 0.02117 0.0
C1976 C 0.74372 0.0574 0.08223 0.0
C1977 C 0.75502 1.05554 1.00769 0.0
C1978 C 0.75832 1.03014 0.03074 0.0
C1979 C 0.7565 1.00538 0.09204 0.0
C1980 C 0.7512 1.00635 0.12999 0.0
C1981 C 0.75285 1.03071 0.06824 0.0
C1982 C 0.74189 1.03325 0.14291 0.0
C1983 C 0.7382 0.05819 0.11958 0.0
H1984 H 0.99945 0.56444 0.75054 0.0
H1985 H 0.97259 0.49965 0.82503 0.0
H1986 H 0.97508 0.53612 0.87523 0.0
H1987 H 0.98568 0.58652 0.89954 0.0
H1988 H 0.01058 0.65267 0.82447 0.0
H1989 H 0.0077 0.61639 0.77401 0.0
C1990 C 0.99396 0.55833 0.77765 0.0
C1991 C 0.98633 0.52856 0.78363 0.0
C1992 C 0.99501 0.58002 0.80684 0.0
C1993 C 0.97918 0.52169 0.81928 0.0
C1994 C 0.98044 0.5428 0.84824 0.0
C1995 C 0.99032 0.59322 0.87213 0.0
C1996 C 0.9984 0.62279 0.8665 0.0
C1997 C 0.98851 0.57203 0.84261 0.0
C1998 C 0.00426 0.63046 0.8303 0.0
C1999 C 1.00268 0.60951 0.80113 0.0
H2000 H 0.24184 0.79638 0.75816 0.0
H2001 H 0.2508 0.864 0.842 0.0
H2002 H 0.24496 0.82614 0.88963 0.0
H2003 H 0.23708 0.7729 0.90878 0.0
H2004 H 0.22992 0.70461 0.82481 0.0
H2005 H 0.23569 0.74269 0.77732 0.0
C2006 C 0.24269 0.80292 0.7868 0.0
C2007 C 0.2464 0.83386 0.7958 0.0
C2008 C 0.23976 0.78038 0.81471 0.0
C2009 C 0.24728 0.84112 0.83354 0.0
C2010 C 0.24419 0.81912 0.86114 0.0
C2011 C 0.23693 0.76616 0.88016 0.0
C2012 C 0.23302 0.73527 0.87114 0.0
C2013 C 0.24032 0.78856 0.85226 0.0
C2014 C 0.23291 0.72774 0.83338 0.0
C2015 C 0.23616 0.74974 0.80582 0.0
H2016 H 0.00727 0.85105 0.42406 0.0
H2017 H 0.01449 0.7969 0.52173 0.0
H2018 H 0.0201 0.75167 0.48406 0.0
H2019 H 0.02343 0.72658 0.42279 0.0
H2020 H 0.0179 0.78134 0.32509 0.0
H2021 H 0.01156 0.82633 0.36283 0.0
C2022 C 0.01033 0.82953 0.43728 0.0
C2023 C 0.0102 0.828 0.47631 0.0
C2024 C 0.01384 0.80318 0.41509 0.0
C2025 C 0.01399 0.79928 0.49216 0.0
C2026 C 0.01735 0.77316 0.47042 0.0
C2027 C 0.02065 0.74826 0.40957 0.0
C2028 C 0.02105 0.7499 0.37052 0.0
C2029 C 0.01723 0.77464 0.43176 0.0
C2030 C 0.01765 0.77874 0.35467 0.0
C2031 C 0.01402 0.80477 0.37643 0.0
H2032 H 0.26166 0.50584 0.44429 0.0
H2033 H 0.28175 0.56302 0.53327 0.0
H2034 H 0.27676 0.60795 0.49511 0.0
H2035 H 0.2667 0.63209 0.43541 0.0
H2036 H 0.25098 0.57375 0.34458 0.0
H2037 H 0.25505 0.52918 0.38361 0.0
C2038 C 0.26544 0.52794 0.45539 0.0
C2039 C 0.27179 0.53027 0.49257 0.0
C2040 C 0.26345 0.55406 0.43243 0.0
C2041 C 0.27607 0.55979 0.50573 0.0
C2042 C 0.2735 0.58582 0.48348 0.0
C2043 C 0.2643 0.60963 0.42397 0.0
C2044 C 0.25845 0.60687 0.38653 0.0
C2045 C 0.26711 0.5834 0.4467 0.0
C2046 C 0.25557 0.57717 0.37283 0.0
C2047 C 0.2578 0.55138 0.39535 0.0
H2048 H 0.99727 0.5298 0.09976 0.0
H2049 H 0.01305 0.45734 0.17397 0.0
H2050 H 0.02181 0.4947 0.22144 0.0
H2051 H 0.02541 0.5488 0.24253 0.0
H2052 H 0.00522 0.62021 0.17013 0.0
H2053 H 0.99838 0.58316 0.12222 0.0
C2054 C 1.00276 0.52205 0.1262 0.0
C2055 C 0.0047 0.4903 0.13254 0.0
C2056 C 0.00717 0.54388 0.15419 0.0
C2057 C 0.01144 0.48129 0.16768 0.0
C2058 C 0.01647 0.50284 0.19508 0.0
C2059 C 0.01919 0.55643 0.21661 0.0
C2060 C 0.01637 0.58818 0.21051 0.0
C2061 C 0.01437 0.53435 0.18889 0.0
C2062 C 0.00846 0.59664 0.17594 0.0
C2063 C 0.00423 0.57516 0.1483 0.0
H2064 H 0.73229 0.2825 0.19809 0.0
H2065 H 0.7765 0.30583 0.28063 0.0
H2066 H 0.78649 0.35054 0.24476 0.0
H2067 H 0.78393 0.38262 0.18769 0.0
H2068 H 0.74114 0.35594 0.10401 0.0
H2069 H 0.73001 0.31331 0.14173 0.0
C2070 C 0.74439 0.29673 0.20832 0.0
C2071 C 0.75356 0.28988 0.24268 0.0
C2072 C 0.7505 0.32235 0.18685 0.0
C2073 C 0.76876 0.31017 0.25493 0.0
C2074 C 0.77466 0.33586 0.23409 0.0
C2075 C 0.77201 0.36772 0.1778 0.0
C2076 C 0.76344 0.37321 0.14252 0.0
C2077 C 0.76576 0.34225 0.19973 0.0
C2078 C 0.74818 0.35288 0.13063 0.0
C2079 C 0.74174 0.3282 0.15236 0.0
H2080 H 0.99234 0.31333 0.49804 0.0
H2081 H 0.00799 0.24691 0.58024 0.0
H2082 H 0.00449 0.28505 0.6283 0.0
H2083 H 0.9963 0.33767 0.64835 0.0
H2084 H 0.98195 0.40501 0.56631 0.0
H2085 H 0.98602 0.36697 0.51796 0.0
C2086 C 0.99516 0.30719 0.5264 0.0
C2087 C 1.00001 0.27655 0.53502 0.0
C2088 C 0.99345 0.32981 0.55449 0.0
C2089 C 0.00354 0.26964 0.57232 0.0
C2090 C 1.00177 0.29174 0.60008 0.0
C2091 C 0.99425 0.34426 0.61992 0.0
C2092 C 0.98879 0.37473 0.61164 0.0
C2093 C 0.99657 0.32195 0.59171 0.0
C2094 C 0.98618 0.38213 0.57418 0.0
C2095 C 0.98845 0.36017 0.54621 0.0
H2096 H 0.75381 0.60813 0.5692 0.0
H2097 H 0.719 0.55385 0.49337 0.0
H2098 H 0.72323 0.50954 0.53298 0.0
H2099 H 0.73687 0.48526 0.59022 0.0
H2100 H 0.76808 0.54182 0.66884 0.0
H2101 H 0.76447 0.58543 0.6282 0.0
C2102 C 0.74674 0.58687 0.56139 0.0
C2103 C 0.73639 0.58491 0.52726 0.0
C2104 C 0.74844 0.5614 0.5854 0.0
C2105 C 0.72778 0.55648 0.51824 0.0
C2106 C 0.72993 0.53092 0.54141 0.0
C2107 C 0.74275 0.50717 0.59871 0.0
C2108 C 0.75281 0.50967 0.63314 0.0
C2109 C 0.74031 0.53294 0.57514 0.0
C2110 C 0.76018 0.53865 0.64305 0.0
C2111 C 0.75821 0.56387 0.61956 0.0
H2112 H 0.48434 1.00947 0.8356 0.0
H2113 H 0.50305 0.05962 0.73952 0.0
H2114 H 0.50993 0.10415 0.77763 0.0
H2115 H 0.51147 0.12944 0.83871 0.0
H2116 H 0.49565 0.07816 0.93554 0.0
H2117 H 0.48735 1.03408 0.89719 0.0
C2118 C 0.49019 1.02992 0.82283 0.0
C2119 C 0.49293 1.03063 0.78399 0.0
C2120 C 0.49473 0.05567 0.84538 0.0
C2121 C 0.50027 0.05801 0.76878 0.0
C2122 C 0.5044 0.08366 0.79079 0.0
C2123 C 0.50606 0.10874 0.8516 0.0
C2124 C 0.50407 0.10776 0.89051 0.0
C2125 C 0.50169 0.08291 0.82918 0.0
C2126 C 0.49732 0.08016 0.90604 0.0
C2127 C 0.49255 1.05473 0.88393 0.0
H2128 H 0.73532 0.28847 0.90583 0.0
H2129 H 0.75373 0.21834 0.83009 0.0
H2130 H 0.7606 0.25669 0.78296 0.0
H2131 H 0.76107 0.31086 0.76199 0.0
H2132 H 0.7394 0.38002 0.83615 0.0
H2133 H 0.73454 0.34212 0.88419 0.0
C2134 C 0.74108 0.28151 0.8792 0.0
C2135 C 0.7442 0.25012 0.8722 0.0
C2136 C 0.74448 0.30389 0.85138 0.0
C2137 C 0.75124 0.24204 0.83685 0.0
C2138 C 0.75515 0.26412 0.8096 0.0
C2139 C 0.7551 0.31774 0.78846 0.0
C2140 C 0.75113 0.34902 0.79514 0.0
C2141 C 0.75168 0.29524 0.81625 0.0
C2142 C 0.74343 0.35673 0.83014 0.0
C2143 C 0.74039 0.33481 0.85778 0.0
H2144 H 0.51675 0.29068 0.52586 0.0
H2145 H 0.49281 0.35417 0.44687 0.0
H2146 H 0.49623 0.31626 0.39829 0.0
H2147 H 0.50694 0.2649 0.37676 0.0
H2148 H 0.53011 0.2008 0.45598 0.0
H2149 H 0.52583 0.23829 0.50483 0.0
C2150 C 0.5121 0.29618 0.4981 0.0
C2151 C 0.50483 0.32589 0.49046 0.0
C2152 C 0.51395 0.2738 0.46978 0.0
C2153 C 0.4989 0.33207 0.45396 0.0
C2154 C 0.50075 0.31016 0.42593 0.0
C2155 C 0.51091 0.2589 0.40472 0.0
C2156 C 0.51892 0.22951 0.41201 0.0
C2157 C 0.50843 0.28092 0.43326 0.0
C2158 C 0.52393 0.22285 0.44885 0.0
C2159 C 0.52151 0.24449 0.47711 0.0
H2160 H 0.74641 0.14503 0.44429 0.0
H2161 H 0.76152 0.09174 0.3485 0.0
H2162 H 0.76936 1.04827 0.38742 0.0
H2163 H 0.77167 1.02398 0.44877 0.0
H2164 H 0.75744 0.07663 0.54518 0.0
H2165 H 0.74981 0.12087 0.50648 0.0
C2166 C 0.75155 0.12402 0.4318 0.0
C2167 C 0.75329 0.12235 0.39282 0.0
C2168 C 0.75619 0.09846 0.45474 0.0
C2169 C 0.75998 0.09442 0.37794 0.0
C2170 C 0.76444 0.06919 0.40037 0.0
C2171 C 0.76672 1.04499 0.46148 0.0
C2172 C 0.76504 1.04642 0.50035 0.0
C2173 C 0.76249 0.07071 0.43881 0.0
C2174 C 0.75902 0.07446 0.51569 0.0
C2175 C 0.75457 0.09992 0.49337 0.0
H2176 H 0.52424 0.0886 0.2028 0.0
H2177 H 0.49961 1.04108 0.29632 0.0
H2178 H 0.49272 0.99665 0.25773 0.0
H2179 H 0.49291 0.97085 0.1965 0.0
H2180 H 0.51711 1.01914 0.10298 0.0
H2181 H 0.52461 0.06288 0.14191 0.0
C2182 C 0.51721 0.06867 0.21484 0.0
C2183 C 0.5125 0.0687 0.25298 0.0
C2184 C 0.51316 1.04286 0.19216 0.0
C2185 C 0.50366 1.04207 0.26749 0.0
C2186 C 0.49961 1.01649 0.24522 0.0
C2187 C 0.5 0.99077 0.18454 0.0
C2188 C 0.50444 0.991 0.14624 0.0
C2189 C 0.50426 1.01647 0.20739 0.0
C2190 C 0.51349 1.01763 0.13195 0.0
C2191 C 0.51779 1.04296 0.15438 0.0
H2192 H 0.28917 0.83615 0.13124 0.0
H2193 H 0.25116 0.90062 0.18801 0.0
H2194 H 0.24286 0.86205 0.2346 0.0
H2195 H 0.2459 0.80867 0.25925 0.0
H2196 H 0.28794 0.74745 0.2059 0.0
H2197 H 0.29488 0.78535 0.15891 0.0
C2198 C 0.27896 0.84179 0.15367 0.0
C2199 C 0.27052 0.87144 0.15528 0.0
C2200 C 0.27491 0.81971 0.18148 0.0
C2201 C 0.25777 0.87815 0.18545 0.0
C2202 C 0.25304 0.85595 0.21233 0.0
C2203 C 0.25688 0.80368 0.23785 0.0
C2204 C 0.26597 0.77427 0.2364 0.0
C2205 C 0.26151 0.82647 0.21083 0.0
C2206 C 0.28012 0.76907 0.20779 0.0
C2207 C 0.28424 0.79099 0.18067 0.0
H2208 H 0.48138 0.82931 0.65949 0.0
H2209 H 0.49443 0.90234 0.58426 0.0
H2210 H 0.50227 0.86543 0.5358 0.0
H2211 H 0.5054 0.81158 0.51375 0.0
H2212 H 0.48842 0.73936 0.58764 0.0
H2213 H 0.48268 0.77605 0.63668 0.0
C2214 C 0.48611 0.83727 0.63262 0.0
C2215 C 0.48748 0.86906 0.62623 0.0
C2216 C 0.49005 0.81567 0.60411 0.0
C2217 C 0.49327 0.87835 0.59059 0.0
C2218 C 0.49776 0.85707 0.5626 0.0
C2219 C 0.50023 0.80373 0.54036 0.0
C2220 C 0.49793 0.77195 0.54657 0.0
C2221 C 0.49611 0.82552 0.56877 0.0
C2222 C 0.49125 0.76308 0.58185 0.0
C2223 C 0.48765 0.7843 0.61009 0.0
H2224 H 0.26047 1.02995 0.66236 0.0
H2225 H 0.23987 0.95698 0.593 0.0
H2226 H 0.23138 0.99368 0.54451 0.0
H2227 H 0.22958 1.04748 0.52126 0.0
H2228 H 0.25493 0.11862 0.58849 0.0
H2229 H 0.26124 0.08232 0.63735 0.0
C2230 C 0.25397 1.02198 0.63677 0.0
C2231 C 0.25055 0.99039 0.63205 0.0
C2232 C 0.24979 1.04327 0.60818 0.0
C2233 C 0.24258 0.98091 0.59797 0.0
C2234 C 0.23772 1.00205 0.57002 0.0
C2235 C 0.23672 1.05514 0.54638 0.0
C2236 C 0.24108 0.08664 0.55095 0.0
C2237 C 0.2413 1.03345 0.5746 0.0
C2238 C 0.25035 0.0953 0.58421 0.0
C2239 C 0.25431 0.07426 0.61234 0.0
H2240 H 0.50584 0.63451 0.32987 0.0
H2241 H 0.48856 0.58453 0.42694 0.0
H2242 H 0.48063 0.54011 0.38924 0.0
H2243 H 0.47873 0.51454 0.32874 0.0
H2244 H 0.49906 0.56215 0.23192 0.0
H2245 H 0.50491 0.6079 0.26885 0.0
C2246 C 0.50014 0.61404 0.34286 0.0
C2247 C 0.49768 0.61353 0.38178 0.0
C2248 C 0.49601 0.5878 0.32076 0.0
C2249 C 0.49059 0.58619 0.39748 0.0
C2250 C 0.48603 0.56054 0.37575 0.0
C2251 C 0.48476 0.53464 0.31547 0.0
C2252 C 0.48846 0.53413 0.2769 0.0
C2253 C 0.4888 0.56088 0.33735 0.0
C2254 C 0.4957 0.56132 0.26102 0.0
C2255 C 0.49925 0.58766 0.28241 0.0
H2256 H 0.75021 0.78035 0.40185 0.0
H2257 H 0.72513 0.71902 0.32134 0.0
H2258 H 0.72936 0.75732 0.2737 0.0
H2259 H 0.73875 0.80977 0.25396 0.0
H2260 H 0.76669 0.86951 0.3329 0.0
H2261 H 0.76264 0.83119 0.38073 0.0
C2262 C 0.7458 0.77517 0.37388 0.0
C2263 C 0.73721 0.74628 0.36598 0.0
C2264 C 0.74858 0.79753 0.34571 0.0
C2265 C 0.73179 0.74061 0.32903 0.0
C2266 C 0.73415 0.76275 0.30139 0.0
C2267 C 0.74421 0.81436 0.28147 0.0
C2268 C 0.75254 0.84338 0.2894 0.0
C2269 C 0.74236 0.7915 0.30925 0.0
C2270 C 0.75956 0.84818 0.32561 0.0
C2271 C 0.7574 0.82597 0.35325 0.0
H2272 H 0.50416 0.71903 0.941 0.0
H2273 H 0.53504 0.77268 0.85884 0.0
H2274 H 0.5319 0.81772 0.8974 0.0
H2275 H 0.52167 0.84233 0.95536 0.0
H2276 H 0.48571 0.79173 0.03352 0.0
H2277 H 0.49032 0.74584 0.99698 0.0
C2278 C 0.51009 0.74059 0.93136 0.0
C2279 C 0.51993 0.74186 0.89649 0.0
C2280 C 0.50769 0.76729 0.95359 0.0
C2281 C 0.5273 0.77047 0.88501 0.0
C2282 C 0.52562 0.79647 0.90733 0.0
C2283 C 0.51432 0.82165 0.9644 0.0
C2284 C 0.5035 0.82147 0.99832 0.0
C2285 C 0.51594 0.79527 0.94179 0.0
C2286 C 0.4948 0.79338 1.00888 0.0
C2287 C 0.49715 0.7668 0.98736 0.0
H2288 H 0.76235 0.5912 0.86613 0.0
H2289 H 0.74794 0.66115 0.94499 0.0
H2290 H 0.75225 0.62489 0.99512 0.0
H2291 H 0.75906 0.57204 0.01796 0.0
H2292 H 0.77467 0.50292 0.93914 0.0
H2293 H 0.77078 0.53927 0.88904 0.0
C2294 C 0.76031 0.59875 0.89424 0.0
C2295 C 0.75478 0.62953 0.90095 0.0
C2296 C 0.7628 0.5774 0.92366 0.0
C2297 C 0.7522 0.63805 0.93814 0.0
C2298 C 0.75463 0.61709 0.96721 0.0
C2299 C 0.76176 0.56489 0.98989 0.0
C2300 C 0.76672 0.53394 0.98289 0.0
C2301 C 0.75978 0.5865 0.96054 0.0
C2302 C 0.77012 0.52585 0.94585 0.0
C2303 C 0.76812 0.54693 0.91691 0.0
H2304 H 0.52395 0.51249 0.63006 0.0
H2305 H 0.48824 0.45503 0.70131 0.0
H2306 H 0.49126 0.49211 0.75078 0.0
H2307 H 0.50262 0.54288 0.7742 0.0
H2308 H 0.54031 0.59844 0.70424 0.0
H2309 H 0.53784 0.56093 0.65522 0.0
C2310 C 0.51698 0.5078 0.65646 0.0
C2311 C 0.5058 0.48042 0.66116 0.0
C2312 C 0.51894 0.52945 0.6856 0.0
C2313 C 0.49701 0.47543 0.69614 0.0
C2314 C 0.49866 0.49689 0.72478 0.0
C2315 C 0.51052 0.54667 0.74845 0.0
C2316 C 0.52123 0.57438 0.74323 0.0
C2317 C 0.50941 0.52426 0.71993 0.0
C2318 C 0.5314 0.57817 0.70929 0.0
C2319 C 0.53011 0.55643 0.68098 0.0
H2320 H 0.26755 0.30288 0.76075 0.0
H2321 H 0.26045 0.23613 0.67546 0.0
H2322 H 0.26616 0.2747 0.62867 0.0
H2323 H 0.2731 0.32865 0.61076 0.0
H2324 H 0.27748 0.39603 0.6965 0.0
H2325 H 0.27248 0.35696 0.74293 0.0
C2326 C 0.26711 0.29666 0.73197 0.0
C2327 C 0.26406 0.26574 0.72229 0.0
C2328 C 0.26978 0.31965 0.70461 0.0
C2329 C 0.26361 0.25894 0.68443 0.0
C2330 C 0.26658 0.28138 0.65731 0.0
C2331 C 0.27286 0.33493 0.63954 0.0
C2332 C 0.27575 0.36587 0.64939 0.0
C2333 C 0.26976 0.31197 0.66688 0.0
C2334 C 0.27529 0.37286 0.6873 0.0
C2335 C 0.27248 0.3503 0.71427 0.0
H2336 H 0.4968 0.38092 0.09174 0.0
H2337 H 0.48251 0.32485 0.18544 0.0
H2338 H 0.48759 0.27915 0.14839 0.0
H2339 H 0.49461 0.25429 0.0884 0.0
H2340 H 0.51357 0.30986 0.99691 0.0
H2341 H 0.50756 0.35548 0.03319 0.0
C2342 C 0.49495 0.35875 0.10427 0.0
C2343 C 0.48916 0.35698 0.14193 0.0
C2344 C 0.49838 0.33196 0.08269 0.0
C2345 C 0.48702 0.32756 0.157 0.0
C2346 C 0.48984 0.30113 0.13558 0.0
C2347 C 0.49791 0.27618 0.07626 0.0
C2348 C 0.50417 0.27766 0.03878 0.0
C2349 C 0.49538 0.3029 0.09823 0.0
C2350 C 0.50787 0.30704 0.02455 0.0
C2351 C 0.50474 0.33356 0.04576 0.0
H2352 H 0.24953 0.59706 0.07526 0.0
H2353 H 0.21718 0.54202 0.99669 0.0
H2354 H 0.22217 0.49739 0.03531 0.0
H2355 H 0.23564 0.47287 0.09252 0.0
H2356 H 0.26418 0.52968 0.17405 0.0
H2357 H 0.26004 0.57393 0.13436 0.0
C2358 C 0.24313 0.57558 0.06659 0.0
C2359 C 0.23324 0.57366 0.03192 0.0
C2360 C 0.24525 0.54975 0.0901 0.0
C2361 C 0.22558 0.54482 0.02193 0.0
C2362 C 0.22817 0.51901 0.04456 0.0
C2363 C 0.24084 0.49492 0.10184 0.0
C2364 C 0.2503 0.49729 0.13686 0.0
C2365 C 0.23805 0.521 0.07879 0.0
C2366 C 0.25677 0.52654 0.14778 0.0
C2367 C 0.25449 0.55213 0.12482 0.0
loop_
_geom_bond_atom_site_label_1
_geom_bond_atom_site_label_2
_geom_bond_distance
_geom_bond_site_symmetry_2
_ccdc_geom_bond_type
Co0 O3 1.970 . S
Co0 N17 1.989 . S
Co0 O25 1.967 . S
Co0 O32 1.920 . S
Co1 O4 1.966 . S
Co1 N10 2.022 . S
Co1 N18 1.993 . S
Co1 O26 1.941 . S
C2 O3 1.258 . S
C2 O4 1.263 . S
O3 Co0 1.970 . S
O3 C2 1.258 . S
O4 Co1 1.966 . S
O4 C2 1.263 . S
C5 O6 1.246 . S
C5 O32 1.289 . S
O6 C5 1.246 . S
C7 C9 1.400 . S
C7 N10 1.351 . S
C7 C12 1.501 . S
C8 C9 1.387 . S
C8 N11 1.341 . S
C9 C7 1.400 . S
C9 C8 1.387 . S
N10 Co1 2.022 . S
N10 C7 1.351 . S
N10 N11 1.365 . S
N11 C8 1.341 . S
N11 N10 1.365 . S
N11 H31 0.862 . S
C12 C7 1.501 . S
C12 H13 0.961 . S
C12 H14 0.961 1_455 S
C12 H15 0.960 . S
H13 C12 0.961 . S
H14 C12 0.961 1_655 S
H15 C12 0.960 . S
C16 N17 1.342 . S
C16 C20 1.401 . S
C16 C21 1.499 . S
N17 Co0 1.989 . S
N17 C16 1.342 . S
N17 N18 1.388 . S
N18 Co1 1.993 . S
N18 N17 1.388 . S
N18 C19 1.346 . S
C19 N18 1.346 . S
C19 C20 1.396 . S
C19 C29 1.510 . S
C20 C16 1.401 . S
C20 C19 1.396 . S
C21 C16 1.499 . S
C21 H22 0.959 . S
C21 H23 0.960 . S
C21 H24 0.961 . S
H22 C21 0.959 . S
H23 C21 0.960 . S
H24 C21 0.961 . S
O25 Co0 1.967 . S
O25 C33 1.258 . S
O26 Co1 1.941 . S
O26 C33 1.266 . S
H27 C29 0.959 . S
H28 C29 0.961 1_655 S
C29 C19 1.510 . S
C29 H27 0.959 . S
C29 H28 0.961 1_455 S
C29 H30 0.960 . S
H30 C29 0.960 . S
H31 N11 0.862 . S
O32 Co0 1.920 . S
O32 C5 1.289 . S
C33 O25 1.258 . S
C33 O26 1.266 . S
Co34 O37 1.970 . S
Co34 N51 1.989 . S
Co34 O59 1.967 . S
Co34 O66 1.920 . S
Co35 O38 1.966 . S
Co35 N44 2.022 . S
Co35 N52 1.993 . S
Co35 O60 1.941 . S
C36 O37 1.258 . S
C36 O38 1.263 . S
O37 Co34 1.970 . S
O37 C36 1.258 . S
O38 Co35 1.966 . S
O38 C36 1.263 . S
C39 O40 1.235 . S
C39 O66 1.289 . S
O40 C39 1.235 . S
C41 C43 1.400 . S
C41 N44 1.351 . S
C41 C46 1.501 . S
C42 C43 1.387 . S
C42 N45 1.341 . S
C43 C41 1.400 . S
C43 C42 1.387 . S
N44 Co35 2.022 . S
N44 C41 1.351 . S
N44 N45 1.365 . S
N45 C42 1.341 . S
N45 N44 1.365 . S
N45 H65 0.862 . S
C46 C41 1.501 . S
C46 H47 0.961 . S
C46 H48 0.961 . S
C46 H49 0.960 . S
H47 C46 0.961 . S
H48 C46 0.961 . S
H49 C46 0.960 . S
C50 N51 1.342 . S
C50 C54 1.401 . S
C50 C55 1.499 . S
N51 Co34 1.989 . S
N51 C50 1.342 . S
N51 N52 1.388 . S
N52 Co35 1.993 . S
N52 N51 1.388 . S
N52 C53 1.346 . S
C53 N52 1.346 . S
C53 C54 1.396 . S
C53 C63 1.510 . S
C54 C50 1.401 . S
C54 C53 1.396 . S
C55 C50 1.499 . S
C55 H56 0.959 . S
C55 H57 0.960 . S
C55 H58 0.961 . S
H56 C55 0.959 . S
H57 C55 0.960 . S
H58 C55 0.961 . S
O59 Co34 1.967 . S
O59 C67 1.258 . S
O60 Co35 1.941 . S
O60 C67 1.266 . S
H61 C63 0.959 1_565 S
H62 C63 0.961 1_565 S
C63 C53 1.510 . S
C63 H61 0.959 1_545 S
C63 H62 0.961 1_545 S
C63 H64 0.960 . S
H64 C63 0.960 . S
H65 N45 0.862 . S
O66 Co34 1.920 . S
O66 C39 1.289 . S
C67 O59 1.258 . S
C67 O60 1.266 . S
Co68 O71 1.970 . S
Co68 N85 1.989 . S
Co68 O93 1.967 . S
Co68 O100 1.920 . S
Co69 O72 1.966 . S
Co69 N78 2.022 . S
Co69 N86 1.993 . S
Co69 O94 1.941 . S
C70 O71 1.258 . S
C70 O72 1.263 . S
O71 Co68 1.970 . S
O71 C70 1.258 . S
O72 Co69 1.966 . S
O72 C70 1.263 . S
C73 O74 1.246 . S
C73 O100 1.289 . S
O74 C73 1.246 . S
C75 C77 1.400 . S
C75 N78 1.351 . S
C75 C80 1.501 . S
C76 C77 1.387 . S
C76 N79 1.341 . S
C77 C75 1.400 . S
C77 C76 1.387 . S
N78 Co69 2.022 . S
N78 C75 1.351 . S
N78 N79 1.365 . S
N79 C76 1.341 . S
N79 N78 1.365 . S
N79 H99 0.862 . S
C80 C75 1.501 . S
C80 H81 0.961 . S
C80 H82 0.961 1_455 S
C80 H83 0.960 . S
H81 C80 0.961 . S
H82 C80 0.961 1_655 S
H83 C80 0.960 . S
C84 N85 1.342 . S
C84 C88 1.401 . S
C84 C89 1.499 . S
N85 Co68 1.989 . S
N85 C84 1.342 . S
N85 N86 1.388 . S
N86 Co69 1.993 . S
N86 N85 1.388 . S
N86 C87 1.346 . S
C87 N86 1.346 . S
C87 C88 1.396 . S
C87 C97 1.510 . S
C88 C84 1.401 . S
C88 C87 1.396 . S
C89 C84 1.499 . S
C89 H90 0.959 . S
C89 H91 0.960 . S
C89 H92 0.961 . S
H90 C89 0.959 . S
H91 C89 0.960 . S
H92 C89 0.961 . S
O93 Co68 1.967 . S
O93 C101 1.258 . S
O94 Co69 1.941 . S
O94 C101 1.266 . S
H95 C97 0.959 1_565 S
H96 C97 0.961 1_665 S
C97 C87 1.510 . S
C97 H95 0.959 1_545 S
C97 H96 0.961 1_445 S
C97 H98 0.960 . S
H98 C97 0.960 . S
H99 N79 0.862 . S
O100 Co68 1.920 . S
O100 C73 1.289 . S
C101 O93 1.258 . S
C101 O94 1.266 . S
Co102 O105 1.970 . S
Co102 N119 1.989 . S
Co102 O127 1.967 . S
Co102 O134 1.920 . S
Co103 O106 1.966 . S
Co103 N112 2.022 . S
Co103 N120 1.993 . S
Co103 O128 1.941 . S
C104 O105 1.258 . S
C104 O106 1.263 . S
O105 Co102 1.970 . S
O105 C104 1.258 . S
O106 Co103 1.966 . S
O106 C104 1.263 . S
C107 O108 1.235 . S
C107 O134 1.289 . S
O108 C107 1.235 . S
C109 C111 1.400 . S
C109 N112 1.351 . S
C109 C114 1.501 . S
C110 C111 1.387 . S
C110 N113 1.341 . S
C111 C109 1.400 . S
C111 C110 1.387 . S
N112 Co103 2.022 . S
N112 C109 1.351 . S
N112 N113 1.365 . S
N113 C110 1.341 . S
N113 N112 1.365 . S
N113 H133 0.862 . S
C114 C109 1.501 . S
C114 H115 0.961 . S
C114 H116 0.961 . S
C114 H117 0.960 . S
H115 C114 0.961 . S
H116 C114 0.961 . S
H117 C114 0.960 . S
C118 N119 1.342 . S
C118 C122 1.401 . S
C118 C123 1.499 . S
N119 Co102 1.989 . S
N119 C118 1.342 . S
N119 N120 1.388 . S
N120 Co103 1.993 . S
N120 N119 1.388 . S
N120 C121 1.346 . S
C121 N120 1.346 . S
C121 C122 1.396 . S
C121 C131 1.510 . S
C122 C118 1.401 . S
C122 C121 1.396 . S
C123 C118 1.499 . S
C123 H124 0.959 . S
C123 H125 0.960 . S
C123 H126 0.961 . S
H124 C123 0.959 . S
H125 C123 0.960 . S
H126 C123 0.961 . S
O127 Co102 1.967 . S
O127 C135 1.258 . S
O128 Co103 1.941 . S
O128 C135 1.266 . S
H129 C131 0.959 . S
H130 C131 0.961 . S
C131 C121 1.510 . S
C131 H129 0.959 . S
C131 H130 0.961 . S
C131 H132 0.960 . S
H132 C131 0.960 . S
H133 N113 0.862 . S
O134 Co102 1.920 . S
O134 C107 1.289 . S
C135 O127 1.258 . S
C135 O128 1.266 . S
Co136 O139 1.970 . S
Co136 N153 1.989 . S
Co136 O161 1.967 . S
Co136 O168 1.920 . S
Co137 O140 1.966 . S
Co137 N146 2.022 . S
Co137 N154 1.993 . S
Co137 O162 1.941 . S
C138 O139 1.258 . S
C138 O140 1.263 . S
O139 Co136 1.970 . S
O139 C138 1.258 . S
O140 Co137 1.966 . S
O140 C138 1.263 . S
C141 O142 1.246 . S
C141 O168 1.289 . S
O142 C141 1.246 . S
C143 C145 1.400 . S
C143 N146 1.351 . S
C143 C148 1.501 . S
C144 C145 1.387 . S
C144 N147 1.341 . S
C145 C143 1.400 . S
C145 C144 1.387 . S
N146 Co137 2.022 . S
N146 C143 1.351 . S
N146 N147 1.365 . S
N147 C144 1.341 . S
N147 N146 1.365 . S
N147 H167 0.862 . S
C148 C143 1.501 . S
C148 H149 0.961 . S
C148 H150 0.961 1_655 S
C148 H151 0.960 . S
H149 C148 0.961 . S
H150 C148 0.961 1_455 S
H151 C148 0.960 . S
C152 N153 1.342 . S
C152 C156 1.401 . S
C152 C157 1.499 . S
N153 Co136 1.989 . S
N153 C152 1.342 . S
N153 N154 1.388 . S
N154 Co137 1.993 . S
N154 N153 1.388 . S
N154 C155 1.346 . S
C155 N154 1.346 . S
C155 C156 1.396 . S
C155 C165 1.510 . S
C156 C152 1.401 . S
C156 C155 1.396 . S
C157 C152 1.499 . S
C157 H158 0.959 . S
C157 H159 0.960 . S
C157 H160 0.961 . S
H158 C157 0.959 . S
H159 C157 0.960 . S
H160 C157 0.961 . S
O161 Co136 1.967 . S
O161 C169 1.258 . S
O162 Co137 1.941 . S
O162 C169 1.266 . S
H163 C165 0.959 . S
H164 C165 0.961 1_455 S
C165 C155 1.510 . S
C165 H163 0.959 . S
C165 H164 0.961 1_655 S
C165 H166 0.960 . S
H166 C165 0.960 . S
H167 N147 0.862 . S
O168 Co136 1.920 . S
O168 C141 1.289 . S
C169 O161 1.258 . S
C169 O162 1.266 . S
Co170 O173 1.970 . S
Co170 N187 1.989 . S
Co170 O195 1.967 . S
Co170 O202 1.920 . S
Co171 O174 1.966 . S
Co171 N180 2.022 . S
Co171 N188 1.993 . S
Co171 O196 1.941 . S
C172 O173 1.258 . S
C172 O174 1.263 . S
O173 Co170 1.970 . S
O173 C172 1.258 . S
O174 Co171 1.966 . S
O174 C172 1.263 . S
C175 O176 1.235 . S
C175 O202 1.289 . S
O176 C175 1.235 . S
C177 C179 1.400 . S
C177 N180 1.351 . S
C177 C182 1.501 . S
C178 C179 1.387 . S
C178 N181 1.341 . S
C179 C177 1.400 . S
C179 C178 1.387 . S
N180 Co171 2.022 . S
N180 C177 1.351 . S
N180 N181 1.365 . S
N181 C178 1.341 . S
N181 N180 1.365 . S
N181 H201 0.862 . S
C182 C177 1.501 . S
C182 H183 0.961 . S
C182 H184 0.961 . S
C182 H185 0.960 . S
H183 C182 0.961 . S
H184 C182 0.961 . S
H185 C182 0.960 . S
C186 N187 1.342 . S
C186 C190 1.401 . S
C186 C191 1.499 . S
N187 Co170 1.989 . S
N187 C186 1.342 . S
N187 N188 1.388 . S
N188 Co171 1.993 . S
N188 N187 1.388 . S
N188 C189 1.346 . S
C189 N188 1.346 . S
C189 C190 1.396 . S
C189 C199 1.510 . S
C190 C186 1.401 . S
C190 C189 1.396 . S
C191 C186 1.499 . S
C191 H192 0.959 . S
C191 H193 0.960 . S
C191 H194 0.961 . S
H192 C191 0.959 . S
H193 C191 0.960 . S
H194 C191 0.961 . S
O195 Co170 1.967 . S
O195 C203 1.258 . S
O196 Co171 1.941 . S
O196 C203 1.266 . S
H197 C199 0.959 1_545 S
H198 C199 0.961 1_545 S
C199 C189 1.510 . S
C199 H197 0.959 1_565 S
C199 H198 0.961 1_565 S
C199 H200 0.960 . S
H200 C199 0.960 . S
H201 N181 0.862 . S
O202 Co170 1.920 . S
O202 C175 1.289 . S
C203 O195 1.258 . S
C203 O196 1.266 . S
Co204 O207 1.970 . S
Co204 N221 1.989 . S
Co204 O229 1.967 . S
Co204 O236 1.920 . S
Co205 O208 1.966 . S
Co205 N214 2.022 . S
Co205 N222 1.993 . S
Co205 O230 1.941 . S
C206 O207 1.258 . S
C206 O208 1.263 . S
O207 Co204 1.970 . S
O207 C206 1.258 . S
O208 Co205 1.966 . S
O208 C206 1.263 . S
C209 O210 1.246 . S
C209 O236 1.289 . S
O210 C209 1.246 . S
C211 C213 1.400 . S
C211 N214 1.351 . S
C211 C216 1.501 . S
C212 C213 1.387 . S
C212 N215 1.341 . S
C213 C211 1.400 . S
C213 C212 1.387 . S
N214 Co205 2.022 . S
N214 C211 1.351 . S
N214 N215 1.365 . S
N215 C212 1.341 . S
N215 N214 1.365 . S
N215 H235 0.862 . S
C216 C211 1.501 . S
C216 H217 0.961 . S
C216 H218 0.961 1_655 S
C216 H219 0.960 . S
H217 C216 0.961 . S
H218 C216 0.961 1_455 S
H219 C216 0.960 . S
C220 N221 1.342 . S
C220 C224 1.401 . S
C220 C225 1.499 . S
N221 Co204 1.989 . S
N221 C220 1.342 . S
N221 N222 1.388 . S
N222 Co205 1.993 . S
N222 N221 1.388 . S
N222 C223 1.346 . S
C223 N222 1.346 . S
C223 C224 1.396 . S
C223 C233 1.510 . S
C224 C220 1.401 . S
C224 C223 1.396 . S
C225 C220 1.499 . S
C225 H226 0.959 . S
C225 H227 0.960 . S
C225 H228 0.961 . S
H226 C225 0.959 . S
H227 C225 0.960 . S
H228 C225 0.961 . S
O229 Co204 1.967 . S
O229 C237 1.258 . S
O230 Co205 1.941 . S
O230 C237 1.266 . S
H231 C233 0.959 1_545 S
H232 C233 0.961 1_445 S
C233 C223 1.510 . S
C233 H231 0.959 1_565 S
C233 H232 0.961 1_665 S
C233 H234 0.960 . S
H234 C233 0.960 . S
H235 N215 0.862 . S
O236 Co204 1.920 . S
O236 C209 1.289 . S
C237 O229 1.258 . S
C237 O230 1.266 . S
Co238 O241 1.970 . S
Co238 N255 1.989 . S
Co238 O263 1.967 . S
Co238 O270 1.920 . S
Co239 O242 1.966 . S
Co239 N248 2.022 . S
Co239 N256 1.993 . S
Co239 O264 1.941 . S
C240 O241 1.258 . S
C240 O242 1.263 . S
O241 Co238 1.970 . S
O241 C240 1.258 . S
O242 Co239 1.966 . S
O242 C240 1.263 . S
C243 O244 1.235 . S
C243 O270 1.289 . S
O244 C243 1.235 . S
C245 C247 1.400 . S
C245 N248 1.351 . S
C245 C250 1.501 . S
C246 C247 1.387 . S
C246 N249 1.341 . S
C247 C245 1.400 . S
C247 C246 1.387 . S
N248 Co239 2.022 . S
N248 C245 1.351 . S
N248 N249 1.365 . S
N249 C246 1.341 . S
N249 N248 1.365 . S
N249 H269 0.862 . S
C250 C245 1.501 . S
C250 H251 0.961 . S
C250 H252 0.961 . S
C250 H253 0.960 . S
H251 C250 0.961 . S
H252 C250 0.961 . S
H253 C250 0.960 . S
C254 N255 1.342 . S
C254 C258 1.401 . S
C254 C259 1.499 . S
N255 Co238 1.989 . S
N255 C254 1.342 . S
N255 N256 1.388 . S
N256 Co239 1.993 . S
N256 N255 1.388 . S
N256 C257 1.346 . S
C257 N256 1.346 . S
C257 C258 1.396 . S
C257 C267 1.510 . S
C258 C254 1.401 . S
C258 C257 1.396 . S
C259 C254 1.499 . S
C259 H260 0.959 . S
C259 H261 0.960 . S
C259 H262 0.961 . S
H260 C259 0.959 . S
H261 C259 0.960 . S
H262 C259 0.961 . S
O263 Co238 1.967 . S
O263 C271 1.258 . S
O264 Co239 1.941 . S
O264 C271 1.266 . S
H265 C267 0.959 . S
H266 C267 0.961 . S
C267 C257 1.510 . S
C267 H265 0.959 . S
C267 H266 0.961 . S
C267 H268 0.960 . S
H268 C267 0.960 . S
H269 N249 0.862 . S
O270 Co238 1.920 . S
O270 C243 1.289 . S
C271 O263 1.258 . S
C271 O264 1.266 . S
Co272 O275 1.970 . S
Co272 N289 1.989 . S
Co272 O297 1.967 . S
Co272 O304 1.920 1_556 S
Co273 O276 1.966 . S
Co273 N282 2.022 . S
Co273 N290 1.993 . S
Co273 O298 1.941 . S
C274 O275 1.258 . S
C274 O276 1.263 . S
O275 Co272 1.970 . S
O275 C274 1.258 . S
O276 Co273 1.966 . S
O276 C274 1.263 . S
C277 O278 1.246 . S
C277 O304 1.289 . S
O278 C277 1.246 . S
C279 C281 1.400 . S
C279 N282 1.351 . S
C279 C284 1.501 . S
C280 C281 1.387 . S
C280 N283 1.341 . S
C281 C279 1.400 . S
C281 C280 1.387 . S
N282 Co273 2.022 . S
N282 C279 1.351 . S
N282 N283 1.365 . S
N283 C280 1.341 . S
N283 N282 1.365 . S
N283 H303 0.862 . S
C284 C279 1.501 . S
C284 H285 0.961 . S
C284 H286 0.961 1_455 S
C284 H287 0.960 . S
H285 C284 0.961 . S
H286 C284 0.961 1_655 S
H287 C284 0.960 . S
C288 N289 1.342 1_554 S
C288 C292 1.401 1_554 S
C288 C293 1.499 . S
N289 Co272 1.989 . S
N289 C288 1.342 1_556 S
N289 N290 1.388 . S
N290 Co273 1.993 . S
N290 N289 1.388 . S
N290 C291 1.346 . S
C291 N290 1.346 . S
C291 C292 1.396 . S
C291 C301 1.510 . S
C292 C288 1.401 1_556 S
C292 C291 1.396 . S
C293 C288 1.499 . S
C293 H294 0.959 . S
C293 H295 0.960 . S
C293 H296 0.961 . S
H294 C293 0.959 . S
H295 C293 0.960 . S
H296 C293 0.961 . S
O297 Co272 1.967 . S
O297 C305 1.258 . S
O298 Co273 1.941 . S
O298 C305 1.266 . S
H299 C301 0.959 . S
H300 C301 0.961 1_655 S
C301 C291 1.510 . S
C301 H299 0.959 . S
C301 H300 0.961 1_455 S
C301 H302 0.960 . S
H302 C301 0.960 . S
H303 N283 0.862 . S
O304 Co272 1.920 1_554 S
O304 C277 1.289 . S
C305 O297 1.258 . S
C305 O298 1.266 . S
Co306 O309 1.970 . S
Co306 N323 1.989 . S
Co306 O331 1.967 . S
Co306 O338 1.920 1_556 S
Co307 O310 1.966 . S
Co307 N316 2.022 . S
Co307 N324 1.993 . S
Co307 O332 1.941 . S
C308 O309 1.258 . S
C308 O310 1.263 . S
O309 Co306 1.970 . S
O309 C308 1.258 . S
O310 Co307 1.966 . S
O310 C308 1.263 . S
C311 O312 1.235 . S
C311 O338 1.289 . S
O312 C311 1.235 . S
C313 C315 1.400 . S
C313 N316 1.351 . S
C313 C318 1.501 . S
C314 C315 1.387 . S
C314 N317 1.341 . S
C315 C313 1.400 . S
C315 C314 1.387 . S
N316 Co307 2.022 . S
N316 C313 1.351 . S
N316 N317 1.365 . S
N317 C314 1.341 . S
N317 N316 1.365 . S
N317 H337 0.862 . S
C318 C313 1.501 . S
C318 H319 0.961 . S
C318 H320 0.961 . S
C318 H321 0.960 . S
H319 C318 0.961 . S
H320 C318 0.961 . S
H321 C318 0.960 . S
C322 N323 1.342 1_554 S
C322 C326 1.401 1_554 S
C322 C327 1.499 . S
N323 Co306 1.989 . S
N323 C322 1.342 1_556 S
N323 N324 1.388 . S
N324 Co307 1.993 . S
N324 N323 1.388 . S
N324 C325 1.346 . S
C325 N324 1.346 . S
C325 C326 1.396 . S
C325 C335 1.510 . S
C326 C322 1.401 1_556 S
C326 C325 1.396 . S
C327 C322 1.499 . S
C327 H328 0.959 . S
C327 H329 0.960 . S
C327 H330 0.961 . S
H328 C327 0.959 . S
H329 C327 0.960 . S
H330 C327 0.961 . S
O331 Co306 1.967 . S
O331 C339 1.258 . S
O332 Co307 1.941 . S
O332 C339 1.266 . S
H333 C335 0.959 . S
H334 C335 0.961 . S
C335 C325 1.510 . S
C335 H333 0.959 . S
C335 H334 0.961 . S
C335 H336 0.960 . S
H336 C335 0.960 . S
H337 N317 0.862 . S
O338 Co306 1.920 1_554 S
O338 C311 1.289 . S
C339 O331 1.258 . S
C339 O332 1.266 . S
Co340 O343 1.970 . S
Co340 N357 1.989 . S
Co340 O365 1.967 . S
Co340 O372 1.920 . S
Co341 O344 1.966 . S
Co341 N350 2.022 . S
Co341 N358 1.993 . S
Co341 O366 1.941 . S
C342 O343 1.258 . S
C342 O344 1.263 . S
O343 Co340 1.970 . S
O343 C342 1.258 . S
O344 Co341 1.966 . S
O344 C342 1.263 . S
C345 O346 1.246 . S
C345 O372 1.289 . S
O346 C345 1.246 . S
C347 C349 1.400 . S
C347 N350 1.351 . S
C347 C352 1.501 . S
C348 C349 1.387 . S
C348 N351 1.341 . S
C349 C347 1.400 . S
C349 C348 1.387 . S
N350 Co341 2.022 . S
N350 C347 1.351 . S
N350 N351 1.365 . S
N351 C348 1.341 . S
N351 N350 1.365 . S
N351 H371 0.862 . S
C352 C347 1.501 . S
C352 H353 0.961 . S
C352 H354 0.961 1_455 S
C352 H355 0.960 . S
H353 C352 0.961 . S
H354 C352 0.961 1_655 S
H355 C352 0.960 . S
C356 N357 1.342 . S
C356 C360 1.401 . S
C356 C361 1.499 . S
N357 Co340 1.989 . S
N357 C356 1.342 . S
N357 N358 1.388 . S
N358 Co341 1.993 . S
N358 N357 1.388 . S
N358 C359 1.346 . S
C359 N358 1.346 . S
C359 C360 1.396 . S
C359 C369 1.510 . S
C360 C356 1.401 . S
C360 C359 1.396 . S
C361 C356 1.499 . S
C361 H362 0.959 . S
C361 H363 0.960 . S
C361 H364 0.961 . S
H362 C361 0.959 . S
H363 C361 0.960 . S
H364 C361 0.961 . S
O365 Co340 1.967 . S
O365 C373 1.258 . S
O366 Co341 1.941 . S
O366 C373 1.266 . S
H367 C369 0.959 . S
H368 C369 0.961 1_655 S
C369 C359 1.510 . S
C369 H367 0.959 . S
C369 H368 0.961 1_455 S
C369 H370 0.960 . S
H370 C369 0.960 . S
H371 N351 0.862 . S
O372 Co340 1.920 . S
O372 C345 1.289 . S
C373 O365 1.258 . S
C373 O366 1.266 . S
Co374 O377 1.970 . S
Co374 N391 1.989 . S
Co374 O399 1.967 . S
Co374 O406 1.920 . S
Co375 O378 1.966 . S
Co375 N384 2.022 . S
Co375 N392 1.993 . S
Co375 O400 1.941 . S
C376 O377 1.258 . S
C376 O378 1.263 . S
O377 Co374 1.970 . S
O377 C376 1.258 . S
O378 Co375 1.966 . S
O378 C376 1.263 . S
C379 O380 1.235 . S
C379 O406 1.289 . S
O380 C379 1.235 . S
C381 C383 1.400 . S
C381 N384 1.351 . S
C381 C386 1.501 . S
C382 C383 1.387 . S
C382 N385 1.341 . S
C383 C381 1.400 . S
C383 C382 1.387 . S
N384 Co375 2.022 . S
N384 C381 1.351 . S
N384 N385 1.365 . S
N385 C382 1.341 . S
N385 N384 1.365 . S
N385 H405 0.862 . S
C386 C381 1.501 . S
C386 H387 0.961 . S
C386 H388 0.961 . S
C386 H389 0.960 . S
H387 C386 0.961 . S
H388 C386 0.961 . S
H389 C386 0.960 . S
C390 N391 1.342 . S
C390 C394 1.401 . S
C390 C395 1.499 . S
N391 Co374 1.989 . S
N391 C390 1.342 . S
N391 N392 1.388 . S
N392 Co375 1.993 . S
N392 N391 1.388 . S
N392 C393 1.346 . S
C393 N392 1.346 . S
C393 C394 1.396 . S
C393 C403 1.510 . S
C394 C390 1.401 . S
C394 C393 1.396 . S
C395 C390 1.499 . S
C395 H396 0.959 . S
C395 H397 0.960 . S
C395 H398 0.961 . S
H396 C395 0.959 . S
H397 C395 0.960 . S
H398 C395 0.961 . S
O399 Co374 1.967 . S
O399 C407 1.258 . S
O400 Co375 1.941 . S
O400 C407 1.266 . S
H401 C403 0.959 . S
H402 C403 0.961 . S
C403 C393 1.510 . S
C403 H401 0.959 . S
C403 H402 0.961 . S
C403 H404 0.960 . S
H404 C403 0.960 . S
H405 N385 0.862 . S
O406 Co374 1.920 . S
O406 C379 1.289 . S
C407 O399 1.258 . S
C407 O400 1.266 . S
Co408 O411 1.970 . S
Co408 N425 1.989 . S
Co408 O433 1.967 . S
Co408 O440 1.920 1_554 S
Co409 O412 1.966 . S
Co409 N418 2.022 . S
Co409 N426 1.993 . S
Co409 O434 1.941 . S
C410 O411 1.258 . S
C410 O412 1.263 . S
O411 Co408 1.970 . S
O411 C410 1.258 . S
O412 Co409 1.966 . S
O412 C410 1.263 . S
C413 O414 1.246 . S
C413 O440 1.289 . S
O414 C413 1.246 . S
C415 C417 1.400 . S
C415 N418 1.351 . S
C415 C420 1.501 . S
C416 C417 1.387 . S
C416 N419 1.341 . S
C417 C415 1.400 . S
C417 C416 1.387 . S
N418 Co409 2.022 . S
N418 C415 1.351 . S
N418 N419 1.365 . S
N419 C416 1.341 . S
N419 N418 1.365 . S
N419 H439 0.862 . S
C420 C415 1.501 . S
C420 H421 0.961 . S
C420 H422 0.961 1_655 S
C420 H423 0.960 . S
H421 C420 0.961 . S
H422 C420 0.961 1_455 S
H423 C420 0.960 . S
C424 N425 1.342 1_556 S
C424 C428 1.401 1_556 S
C424 C429 1.499 . S
N425 Co408 1.989 . S
N425 C424 1.342 1_554 S
N425 N426 1.388 . S
N426 Co409 1.993 . S
N426 N425 1.388 . S
N426 C427 1.346 . S
C427 N426 1.346 . S
C427 C428 1.396 . S
C427 C437 1.510 . S
C428 C424 1.401 1_554 S
C428 C427 1.396 . S
C429 C424 1.499 . S
C429 H430 0.959 . S
C429 H431 0.960 . S
C429 H432 0.961 . S
H430 C429 0.959 . S
H431 C429 0.960 . S
H432 C429 0.961 . S
O433 Co408 1.967 . S
O433 C441 1.258 . S
O434 Co409 1.941 . S
O434 C441 1.266 . S
H435 C437 0.959 . S
H436 C437 0.961 1_455 S
C437 C427 1.510 . S
C437 H435 0.959 . S
C437 H436 0.961 1_655 S
C437 H438 0.960 . S
H438 C437 0.960 . S
H439 N419 0.862 . S
O440 Co408 1.920 1_556 S
O440 C413 1.289 . S
C441 O433 1.258 . S
C441 O434 1.266 . S
Co442 O445 1.970 . S
Co442 N459 1.989 . S
Co442 O467 1.967 . S
Co442 O474 1.920 1_554 S
Co443 O446 1.966 . S
Co443 N452 2.022 . S
Co443 N460 1.993 . S
Co443 O468 1.941 . S
C444 O445 1.258 . S
C444 O446 1.263 . S
O445 Co442 1.970 . S
O445 C444 1.258 . S
O446 Co443 1.966 . S
O446 C444 1.263 . S
C447 O448 1.235 . S
C447 O474 1.289 . S
O448 C447 1.235 . S
C449 C451 1.400 . S
C449 N452 1.351 . S
C449 C454 1.501 . S
C450 C451 1.387 . S
C450 N453 1.341 . S
C451 C449 1.400 . S
C451 C450 1.387 . S
N452 Co443 2.022 . S
N452 C449 1.351 . S
N452 N453 1.365 . S
N453 C450 1.341 . S
N453 N452 1.365 . S
N453 H473 0.862 . S
C454 C449 1.501 . S
C454 H455 0.961 . S
C454 H456 0.961 . S
C454 H457 0.960 . S
H455 C454 0.961 . S
H456 C454 0.961 . S
H457 C454 0.960 . S
C458 N459 1.342 1_556 S
C458 C462 1.401 1_556 S
C458 C463 1.499 . S
N459 Co442 1.989 . S
N459 C458 1.342 1_554 S
N459 N460 1.388 . S
N460 Co443 1.993 . S
N460 N459 1.388 . S
N460 C461 1.346 . S
C461 N460 1.346 . S
C461 C462 1.396 . S
C461 C471 1.510 . S
C462 C458 1.401 1_554 S
C462 C461 1.396 . S
C463 C458 1.499 . S
C463 H464 0.959 . S
C463 H465 0.960 . S
C463 H466 0.961 . S
H464 C463 0.959 . S
H465 C463 0.960 . S
H466 C463 0.961 . S
O467 Co442 1.967 . S
O467 C475 1.258 . S
O468 Co443 1.941 . S
O468 C475 1.266 . S
H469 C471 0.959 . S
H470 C471 0.961 . S
C471 C461 1.510 . S
C471 H469 0.959 . S
C471 H470 0.961 . S
C471 H472 0.960 . S
H472 C471 0.960 . S
H473 N453 0.862 . S
O474 Co442 1.920 1_556 S
O474 C447 1.289 . S
C475 O467 1.258 . S
C475 O468 1.266 . S
Co476 O479 1.970 . S
Co476 N493 1.989 . S
Co476 O501 1.967 . S
Co476 O508 1.920 . S
Co477 O480 1.966 . S
Co477 N486 2.022 . S
Co477 N494 1.993 . S
Co477 O502 1.941 . S
C478 O479 1.258 . S
C478 O480 1.263 . S
O479 Co476 1.970 . S
O479 C478 1.258 . S
O480 Co477 1.966 . S
O480 C478 1.263 . S
C481 O482 1.246 . S
C481 O508 1.289 . S
O482 C481 1.246 . S
C483 C485 1.400 . S
C483 N486 1.351 . S
C483 C488 1.501 . S
C484 C485 1.387 . S
C484 N487 1.341 . S
C485 C483 1.400 . S
C485 C484 1.387 . S
N486 Co477 2.022 . S
N486 C483 1.351 . S
N486 N487 1.365 . S
N487 C484 1.341 . S
N487 N486 1.365 . S
N487 H507 0.862 . S
C488 C483 1.501 . S
C488 H489 0.961 . S
C488 H490 0.961 1_655 S
C488 H491 0.960 . S
H489 C488 0.961 . S
H490 C488 0.961 1_455 S
H491 C488 0.960 . S
C492 N493 1.342 . S
C492 C496 1.401 . S
C492 C497 1.499 . S
N493 Co476 1.989 . S
N493 C492 1.342 . S
N493 N494 1.388 . S
N494 Co477 1.993 . S
N494 N493 1.388 . S
N494 C495 1.346 . S
C495 N494 1.346 . S
C495 C496 1.396 . S
C495 C505 1.510 . S
C496 C492 1.401 . S
C496 C495 1.396 . S
C497 C492 1.499 . S
C497 H498 0.959 . S
C497 H499 0.960 . S
C497 H500 0.961 . S
H498 C497 0.959 . S
H499 C497 0.960 . S
H500 C497 0.961 . S
O501 Co476 1.967 . S
O501 C509 1.258 . S
O502 Co477 1.941 . S
O502 C509 1.266 . S
H503 C505 0.959 . S
H504 C505 0.961 1_455 S
C505 C495 1.510 . S
C505 H503 0.959 . S
C505 H504 0.961 1_655 S
C505 H506 0.960 . S
H506 C505 0.960 . S
H507 N487 0.862 . S
O508 Co476 1.920 . S
O508 C481 1.289 . S
C509 O501 1.258 . S
C509 O502 1.266 . S
Co510 O513 1.970 . S
Co510 N527 1.989 . S
Co510 O535 1.967 . S
Co510 O542 1.920 . S
Co511 O514 1.966 . S
Co511 N520 2.022 . S
Co511 N528 1.993 . S
Co511 O536 1.941 . S
C512 O513 1.258 . S
C512 O514 1.263 . S
O513 Co510 1.970 . S
O513 C512 1.258 . S
O514 Co511 1.966 . S
O514 C512 1.263 . S
C515 O516 1.235 . S
C515 O542 1.289 . S
O516 C515 1.235 . S
C517 C519 1.400 . S
C517 N520 1.351 . S
C517 C522 1.501 . S
C518 C519 1.387 . S
C518 N521 1.341 . S
C519 C517 1.400 . S
C519 C518 1.387 . S
N520 Co511 2.022 . S
N520 C517 1.351 . S
N520 N521 1.365 . S
N521 C518 1.341 . S
N521 N520 1.365 . S
N521 H541 0.862 . S
C522 C517 1.501 . S
C522 H523 0.961 . S
C522 H524 0.961 . S
C522 H525 0.960 . S
H523 C522 0.961 . S
H524 C522 0.961 . S
H525 C522 0.960 . S
C526 N527 1.342 . S
C526 C530 1.401 . S
C526 C531 1.499 . S
N527 Co510 1.989 . S
N527 C526 1.342 . S
N527 N528 1.388 . S
N528 Co511 1.993 . S
N528 N527 1.388 . S
N528 C529 1.346 . S
C529 N528 1.346 . S
C529 C530 1.396 . S
C529 C539 1.510 . S
C530 C526 1.401 . S
C530 C529 1.396 . S
C531 C526 1.499 . S
C531 H532 0.959 . S
C531 H533 0.960 . S
C531 H534 0.961 . S
H532 C531 0.959 . S
H533 C531 0.960 . S
H534 C531 0.961 . S
O535 Co510 1.967 . S
O535 C543 1.258 . S
O536 Co511 1.941 . S
O536 C543 1.266 . S
H537 C539 0.959 . S
H538 C539 0.961 . S
C539 C529 1.510 . S
C539 H537 0.959 . S
C539 H538 0.961 . S
C539 H540 0.960 . S
H540 C539 0.960 . S
H541 N521 0.862 . S
O542 Co510 1.920 . S
O542 C515 1.289 . S
C543 O535 1.258 . S
C543 O536 1.266 . S
Co544 O547 1.970 . S
Co544 N561 1.989 . S
Co544 O569 1.967 . S
Co544 O576 1.920 1_556 S
Co545 O548 1.966 . S
Co545 N554 2.022 . S
Co545 N562 1.993 . S
Co545 O570 1.941 . S
C546 O547 1.258 . S
C546 O548 1.263 . S
O547 Co544 1.970 . S
O547 C546 1.258 . S
O548 Co545 1.966 . S
O548 C546 1.263 . S
C549 O550 1.235 . S
C549 O576 1.289 . S
O550 C549 1.235 . S
C551 C553 1.400 . S
C551 N554 1.351 . S
C551 C556 1.501 . S
C552 C553 1.387 . S
C552 N555 1.341 . S
C553 C551 1.400 . S
C553 C552 1.387 . S
N554 Co545 2.022 . S
N554 C551 1.351 . S
N554 N555 1.365 . S
N555 C552 1.341 . S
N555 N554 1.365 . S
N555 H575 0.862 . S
C556 C551 1.501 . S
C556 H557 0.961 . S
C556 H558 0.961 . S
C556 H559 0.960 . S
H557 C556 0.961 . S
H558 C556 0.961 . S
H559 C556 0.960 . S
C560 N561 1.342 1_554 S
C560 C564 1.401 1_554 S
C560 C565 1.499 . S
N561 Co544 1.989 . S
N561 C560 1.342 1_556 S
N561 N562 1.388 . S
N562 Co545 1.993 . S
N562 N561 1.388 . S
N562 C563 1.346 . S
C563 N562 1.346 . S
C563 C564 1.396 . S
C563 C573 1.510 . S
C564 C560 1.401 1_556 S
C564 C563 1.396 . S
C565 C560 1.499 . S
C565 H566 0.959 . S
C565 H567 0.960 . S
C565 H568 0.961 . S
H566 C565 0.959 . S
H567 C565 0.960 . S
H568 C565 0.961 . S
O569 Co544 1.967 . S
O569 C577 1.258 . S
O570 Co545 1.941 . S
O570 C577 1.266 . S
H571 C573 0.959 . S
H572 C573 0.961 . S
C573 C563 1.510 . S
C573 H571 0.959 . S
C573 H572 0.961 . S
C573 H574 0.960 . S
H574 C573 0.960 . S
H575 N555 0.862 . S
O576 Co544 1.920 1_554 S
O576 C549 1.289 . S
C577 O569 1.258 . S
C577 O570 1.266 . S
Co578 O581 1.970 . S
Co578 N595 1.989 . S
Co578 O603 1.967 . S
Co578 O610 1.920 1_556 S
Co579 O582 1.966 . S
Co579 N588 2.022 . S
Co579 N596 1.993 . S
Co579 O604 1.941 . S
C580 O581 1.258 . S
C580 O582 1.263 . S
O581 Co578 1.970 . S
O581 C580 1.258 . S
O582 Co579 1.966 . S
O582 C580 1.263 . S
C583 O584 1.235 . S
C583 O610 1.289 . S
O584 C583 1.235 . S
C585 C587 1.400 . S
C585 N588 1.351 . S
C585 C590 1.501 . S
C586 C587 1.387 . S
C586 N589 1.341 . S
C587 C585 1.400 . S
C587 C586 1.387 . S
N588 Co579 2.022 . S
N588 C585 1.351 . S
N588 N589 1.365 . S
N589 C586 1.341 . S
N589 N588 1.365 . S
N589 H609 0.862 . S
C590 C585 1.501 . S
C590 H591 0.961 . S
C590 H592 0.961 . S
C590 H593 0.960 . S
H591 C590 0.961 . S
H592 C590 0.961 . S
H593 C590 0.960 . S
C594 N595 1.342 1_554 S
C594 C598 1.401 1_554 S
C594 C599 1.499 . S
N595 Co578 1.989 . S
N595 C594 1.342 1_556 S
N595 N596 1.388 . S
N596 Co579 1.993 . S
N596 N595 1.388 . S
N596 C597 1.346 . S
C597 N596 1.346 . S
C597 C598 1.396 . S
C597 C607 1.510 . S
C598 C594 1.401 1_556 S
C598 C597 1.396 . S
C599 C594 1.499 . S
C599 H600 0.959 . S
C599 H601 0.960 . S
C599 H602 0.961 . S
H600 C599 0.959 . S
H601 C599 0.960 . S
H602 C599 0.961 . S
O603 Co578 1.967 . S
O603 C611 1.258 . S
O604 Co579 1.941 . S
O604 C611 1.266 . S
H605 C607 0.959 1_565 S
H606 C607 0.961 1_565 S
C607 C597 1.510 . S
C607 H605 0.959 1_545 S
C607 H606 0.961 1_545 S
C607 H608 0.960 . S
H608 C607 0.960 . S
H609 N589 0.862 . S
O610 Co578 1.920 1_554 S
O610 C583 1.289 . S
C611 O603 1.258 . S
C611 O604 1.266 . S
Co612 O615 1.970 . S
Co612 N629 1.989 . S
Co612 O637 1.967 . S
Co612 O644 1.920 . S
Co613 O616 1.966 . S
Co613 N622 2.022 . S
Co613 N630 1.993 . S
Co613 O638 1.941 . S
C614 O615 1.258 . S
C614 O616 1.263 . S
O615 Co612 1.970 . S
O615 C614 1.258 . S
O616 Co613 1.966 . S
O616 C614 1.263 . S
C617 O618 1.235 . S
C617 O644 1.289 . S
O618 C617 1.235 . S
C619 C621 1.400 . S
C619 N622 1.351 . S
C619 C624 1.501 . S
C620 C621 1.387 . S
C620 N623 1.341 . S
C621 C619 1.400 . S
C621 C620 1.387 . S
N622 Co613 2.022 . S
N622 C619 1.351 . S
N622 N623 1.365 . S
N623 C620 1.341 . S
N623 N622 1.365 . S
N623 H643 0.862 . S
C624 C619 1.501 . S
C624 H625 0.961 . S
C624 H626 0.961 . S
C624 H627 0.960 . S
H625 C624 0.961 . S
H626 C624 0.961 . S
H627 C624 0.960 . S
C628 N629 1.342 . S
C628 C632 1.401 . S
C628 C633 1.499 . S
N629 Co612 1.989 . S
N629 C628 1.342 . S
N629 N630 1.388 . S
N630 Co613 1.993 . S
N630 N629 1.388 . S
N630 C631 1.346 . S
C631 N630 1.346 . S
C631 C632 1.396 . S
C631 C641 1.510 . S
C632 C628 1.401 . S
C632 C631 1.396 . S
C633 C628 1.499 . S
C633 H634 0.959 . S
C633 H635 0.960 . S
C633 H636 0.961 . S
H634 C633 0.959 . S
H635 C633 0.960 . S
H636 C633 0.961 . S
O637 Co612 1.967 . S
O637 C645 1.258 . S
O638 Co613 1.941 . S
O638 C645 1.266 . S
H639 C641 0.959 1_565 S
H640 C641 0.961 1_565 S
C641 C631 1.510 . S
C641 H639 0.959 1_545 S
C641 H640 0.961 1_545 S
C641 H642 0.960 . S
H642 C641 0.960 . S
H643 N623 0.862 . S
O644 Co612 1.920 . S
O644 C617 1.289 . S
C645 O637 1.258 . S
C645 O638 1.266 . S
Co646 O649 1.970 . S
Co646 N663 1.989 . S
Co646 O671 1.967 . S
Co646 O678 1.920 . S
Co647 O650 1.966 . S
Co647 N656 2.022 . S
Co647 N664 1.993 . S
Co647 O672 1.941 . S
C648 O649 1.258 . S
C648 O650 1.263 . S
O649 Co646 1.970 . S
O649 C648 1.258 . S
O650 Co647 1.966 . S
O650 C648 1.263 . S
C651 O652 1.235 . S
C651 O678 1.289 . S
O652 C651 1.235 . S
C653 C655 1.400 . S
C653 N656 1.351 . S
C653 C658 1.501 . S
C654 C655 1.387 . S
C654 N657 1.341 . S
C655 C653 1.400 . S
C655 C654 1.387 . S
N656 Co647 2.022 . S
N656 C653 1.351 . S
N656 N657 1.365 . S
N657 C654 1.341 . S
N657 N656 1.365 . S
N657 H677 0.862 . S
C658 C653 1.501 . S
C658 H659 0.961 . S
C658 H660 0.961 . S
C658 H661 0.960 . S
H659 C658 0.961 . S
H660 C658 0.961 . S
H661 C658 0.960 . S
C662 N663 1.342 . S
C662 C666 1.401 . S
C662 C667 1.499 . S
N663 Co646 1.989 . S
N663 C662 1.342 . S
N663 N664 1.388 . S
N664 Co647 1.993 . S
N664 N663 1.388 . S
N664 C665 1.346 . S
C665 N664 1.346 . S
C665 C666 1.396 . S
C665 C675 1.510 . S
C666 C662 1.401 . S
C666 C665 1.396 . S
C667 C662 1.499 . S
C667 H668 0.959 . S
C667 H669 0.960 . S
C667 H670 0.961 . S
H668 C667 0.959 . S
H669 C667 0.960 . S
H670 C667 0.961 . S
O671 Co646 1.967 . S
O671 C679 1.258 . S
O672 Co647 1.941 . S
O672 C679 1.266 . S
H673 C675 0.959 . S
H674 C675 0.961 . S
C675 C665 1.510 . S
C675 H673 0.959 . S
C675 H674 0.961 . S
C675 H676 0.960 . S
H676 C675 0.960 . S
H677 N657 0.862 . S
O678 Co646 1.920 . S
O678 C651 1.289 . S
C679 O671 1.258 . S
C679 O672 1.266 . S
Co680 O683 1.970 . S
Co680 N697 1.989 . S
Co680 O705 1.967 . S
Co680 O712 1.920 1_554 S
Co681 O684 1.966 . S
Co681 N690 2.022 . S
Co681 N698 1.993 . S
Co681 O706 1.941 . S
C682 O683 1.258 . S
C682 O684 1.263 . S
O683 Co680 1.970 . S
O683 C682 1.258 . S
O684 Co681 1.966 . S
O684 C682 1.263 . S
C685 O686 1.235 . S
C685 O712 1.289 . S
O686 C685 1.235 . S
C687 C689 1.400 . S
C687 N690 1.351 . S
C687 C692 1.501 . S
C688 C689 1.387 . S
C688 N691 1.341 . S
C689 C687 1.400 . S
C689 C688 1.387 . S
N690 Co681 2.022 . S
N690 C687 1.351 . S
N690 N691 1.365 . S
N691 C688 1.341 . S
N691 N690 1.365 . S
N691 H711 0.862 . S
C692 C687 1.501 . S
C692 H693 0.961 . S
C692 H694 0.961 . S
C692 H695 0.960 . S
H693 C692 0.961 . S
H694 C692 0.961 . S
H695 C692 0.960 . S
C696 N697 1.342 1_556 S
C696 C700 1.401 1_556 S
C696 C701 1.499 . S
N697 Co680 1.989 . S
N697 C696 1.342 1_554 S
N697 N698 1.388 . S
N698 Co681 1.993 . S
N698 N697 1.388 . S
N698 C699 1.346 . S
C699 N698 1.346 . S
C699 C700 1.396 . S
C699 C709 1.510 . S
C700 C696 1.401 1_554 S
C700 C699 1.396 . S
C701 C696 1.499 . S
C701 H702 0.959 . S
C701 H703 0.960 . S
C701 H704 0.961 . S
H702 C701 0.959 . S
H703 C701 0.960 . S
H704 C701 0.961 . S
O705 Co680 1.967 . S
O705 C713 1.258 . S
O706 Co681 1.941 . S
O706 C713 1.266 . S
H707 C709 0.959 . S
H708 C709 0.961 . S
C709 C699 1.510 . S
C709 H707 0.959 . S
C709 H708 0.961 . S
C709 H710 0.960 . S
H710 C709 0.960 . S
H711 N691 0.862 . S
O712 Co680 1.920 1_556 S
O712 C685 1.289 . S
C713 O705 1.258 . S
C713 O706 1.266 . S
Co714 O717 1.970 . S
Co714 N731 1.989 . S
Co714 O739 1.967 . S
Co714 O746 1.920 1_554 S
Co715 O718 1.966 . S
Co715 N724 2.022 . S
Co715 N732 1.993 . S
Co715 O740 1.941 . S
C716 O717 1.258 . S
C716 O718 1.263 . S
O717 Co714 1.970 . S
O717 C716 1.258 . S
O718 Co715 1.966 . S
O718 C716 1.263 . S
C719 O720 1.235 . S
C719 O746 1.289 . S
O720 C719 1.235 . S
C721 C723 1.400 . S
C721 N724 1.351 . S
C721 C726 1.501 . S
C722 C723 1.387 . S
C722 N725 1.341 . S
C723 C721 1.400 . S
C723 C722 1.387 . S
N724 Co715 2.022 . S
N724 C721 1.351 . S
N724 N725 1.365 . S
N725 C722 1.341 . S
N725 N724 1.365 . S
N725 H745 0.862 . S
C726 C721 1.501 . S
C726 H727 0.961 . S
C726 H728 0.961 . S
C726 H729 0.960 . S
H727 C726 0.961 . S
H728 C726 0.961 . S
H729 C726 0.960 . S
C730 N731 1.342 1_556 S
C730 C734 1.401 1_556 S
C730 C735 1.499 . S
N731 Co714 1.989 . S
N731 C730 1.342 1_554 S
N731 N732 1.388 . S
N732 Co715 1.993 . S
N732 N731 1.388 . S
N732 C733 1.346 . S
C733 N732 1.346 . S
C733 C734 1.396 . S
C733 C743 1.510 . S
C734 C730 1.401 1_554 S
C734 C733 1.396 . S
C735 C730 1.499 . S
C735 H736 0.959 . S
C735 H737 0.960 . S
C735 H738 0.961 . S
H736 C735 0.959 . S
H737 C735 0.960 . S
H738 C735 0.961 . S
O739 Co714 1.967 . S
O739 C747 1.258 . S
O740 Co715 1.941 . S
O740 C747 1.266 . S
H741 C743 0.959 1_545 S
H742 C743 0.961 1_545 S
C743 C733 1.510 . S
C743 H741 0.959 1_565 S
C743 H742 0.961 1_565 S
C743 H744 0.960 . S
H744 C743 0.960 . S
H745 N725 0.862 . S
O746 Co714 1.920 1_556 S
O746 C719 1.289 . S
C747 O739 1.258 . S
C747 O740 1.266 . S
Co748 O751 1.970 . S
Co748 N765 1.989 . S
Co748 O773 1.967 . S
Co748 O780 1.920 . S
Co749 O752 1.966 . S
Co749 N758 2.022 . S
Co749 N766 1.993 . S
Co749 O774 1.941 . S
C750 O751 1.258 . S
C750 O752 1.263 . S
O751 Co748 1.970 . S
O751 C750 1.258 . S
O752 Co749 1.966 . S
O752 C750 1.263 . S
C753 O754 1.235 . S
C753 O780 1.289 . S
O754 C753 1.235 . S
C755 C757 1.400 . S
C755 N758 1.351 . S
C755 C760 1.501 . S
C756 C757 1.387 . S
C756 N759 1.341 . S
C757 C755 1.400 . S
C757 C756 1.387 . S
N758 Co749 2.022 . S
N758 C755 1.351 . S
N758 N759 1.365 . S
N759 C756 1.341 . S
N759 N758 1.365 . S
N759 H779 0.862 . S
C760 C755 1.501 . S
C760 H761 0.961 . S
C760 H762 0.961 . S
C760 H763 0.960 . S
H761 C760 0.961 . S
H762 C760 0.961 . S
H763 C760 0.960 . S
C764 N765 1.342 . S
C764 C768 1.401 . S
C764 C769 1.499 . S
N765 Co748 1.989 . S
N765 C764 1.342 . S
N765 N766 1.388 . S
N766 Co749 1.993 . S
N766 N765 1.388 . S
N766 C767 1.346 . S
C767 N766 1.346 . S
C767 C768 1.396 . S
C767 C777 1.510 . S
C768 C764 1.401 . S
C768 C767 1.396 . S
C769 C764 1.499 . S
C769 H770 0.959 . S
C769 H771 0.960 . S
C769 H772 0.961 . S
H770 C769 0.959 . S
H771 C769 0.960 . S
H772 C769 0.961 . S
O773 Co748 1.967 . S
O773 C781 1.258 . S
O774 Co749 1.941 . S
O774 C781 1.266 . S
H775 C777 0.959 1_545 S
H776 C777 0.961 1_545 S
C777 C767 1.510 . S
C777 H775 0.959 1_565 S
C777 H776 0.961 1_565 S
C777 H778 0.960 . S
H778 C777 0.960 . S
H779 N759 0.862 . S
O780 Co748 1.920 . S
O780 C753 1.289 . S
C781 O773 1.258 . S
C781 O774 1.266 . S
Co782 O785 1.970 . S
Co782 N799 1.989 . S
Co782 O807 1.967 . S
Co782 O814 1.920 . S
Co783 O786 1.966 . S
Co783 N792 2.022 . S
Co783 N800 1.993 . S
Co783 O808 1.941 . S
C784 O785 1.258 . S
C784 O786 1.263 . S
O785 Co782 1.970 . S
O785 C784 1.258 . S
O786 Co783 1.966 . S
O786 C784 1.263 . S
C787 O788 1.235 . S
C787 O814 1.289 . S
O788 C787 1.235 . S
C789 C791 1.400 . S
C789 N792 1.351 . S
C789 C794 1.501 . S
C790 C791 1.387 . S
C790 N793 1.341 . S
C791 C789 1.400 . S
C791 C790 1.387 . S
N792 Co783 2.022 . S
N792 C789 1.351 . S
N792 N793 1.365 . S
N793 C790 1.341 . S
N793 N792 1.365 . S
N793 H813 0.862 . S
C794 C789 1.501 . S
C794 H795 0.961 . S
C794 H796 0.961 . S
C794 H797 0.960 . S
H795 C794 0.961 . S
H796 C794 0.961 . S
H797 C794 0.960 . S
C798 N799 1.342 . S
C798 C802 1.401 . S
C798 C803 1.499 . S
N799 Co782 1.989 . S
N799 C798 1.342 . S
N799 N800 1.388 . S
N800 Co783 1.993 . S
N800 N799 1.388 . S
N800 C801 1.346 . S
C801 N800 1.346 . S
C801 C802 1.396 . S
C801 C811 1.510 . S
C802 C798 1.401 . S
C802 C801 1.396 . S
C803 C798 1.499 . S
C803 H804 0.959 . S
C803 H805 0.960 . S
C803 H806 0.961 . S
H804 C803 0.959 . S
H805 C803 0.960 . S
H806 C803 0.961 . S
O807 Co782 1.967 . S
O807 C815 1.258 . S
O808 Co783 1.941 . S
O808 C815 1.266 . S
H809 C811 0.959 . S
H810 C811 0.961 . S
C811 C801 1.510 . S
C811 H809 0.959 . S
C811 H810 0.961 . S
C811 H812 0.960 . S
H812 C811 0.960 . S
H813 N793 0.862 . S
O814 Co782 1.920 . S
O814 C787 1.289 . S
C815 O807 1.258 . S
C815 O808 1.266 . S
Co816 O819 1.970 . S
Co816 N833 1.989 . S
Co816 O841 1.967 . S
Co816 O848 1.920 . S
Co817 O820 1.966 . S
Co817 N826 2.022 . S
Co817 N834 1.993 . S
Co817 O842 1.941 . S
C818 O819 1.258 . S
C818 O820 1.263 . S
O819 Co816 1.970 . S
O819 C818 1.258 . S
O820 Co817 1.966 . S
O820 C818 1.263 . S
C821 O822 1.235 . S
C821 O848 1.289 . S
O822 C821 1.235 . S
C823 C825 1.400 . S
C823 N826 1.351 . S
C823 C828 1.501 . S
C824 C825 1.387 . S
C824 N827 1.341 . S
C825 C823 1.400 . S
C825 C824 1.387 . S
N826 Co817 2.022 . S
N826 C823 1.351 . S
N826 N827 1.365 . S
N827 C824 1.341 . S
N827 N826 1.365 . S
N827 H847 0.862 . S
C828 C823 1.501 . S
C828 H829 0.961 . S
C828 H830 0.961 . S
C828 H831 0.960 . S
H829 C828 0.961 . S
H830 C828 0.961 . S
H831 C828 0.960 . S
C832 N833 1.342 . S
C832 C836 1.401 . S
C832 C837 1.499 . S
N833 Co816 1.989 . S
N833 C832 1.342 . S
N833 N834 1.388 . S
N834 Co817 1.993 . S
N834 N833 1.388 . S
N834 C835 1.346 . S
C835 N834 1.346 . S
C835 C836 1.396 . S
C835 C845 1.510 . S
C836 C832 1.401 . S
C836 C835 1.396 . S
C837 C832 1.499 . S
C837 H838 0.959 . S
C837 H839 0.960 . S
C837 H840 0.961 . S
H838 C837 0.959 . S
H839 C837 0.960 . S
H840 C837 0.961 . S
O841 Co816 1.967 . S
O841 C849 1.258 . S
O842 Co817 1.941 . S
O842 C849 1.266 . S
H843 C845 0.959 . S
H844 C845 0.961 . S
C845 C835 1.510 . S
C845 H843 0.959 . S
C845 H844 0.961 . S
C845 H846 0.960 . S
H846 C845 0.960 . S
H847 N827 0.862 . S
O848 Co816 1.920 . S
O848 C821 1.289 . S
C849 O841 1.258 . S
C849 O842 1.266 . S
Co850 O853 1.970 . S
Co850 N867 1.989 . S
Co850 O875 1.967 . S
Co850 O882 1.920 . S
Co851 O854 1.966 . S
Co851 N860 2.022 . S
Co851 N868 1.993 . S
Co851 O876 1.941 . S
C852 O853 1.258 . S
C852 O854 1.263 . S
O853 Co850 1.970 . S
O853 C852 1.258 . S
O854 Co851 1.966 . S
O854 C852 1.263 . S
C855 O856 1.235 . S
C855 O882 1.289 . S
O856 C855 1.235 . S
C857 C859 1.400 . S
C857 N860 1.351 . S
C857 C862 1.501 . S
C858 C859 1.387 . S
C858 N861 1.341 . S
C859 C857 1.400 . S
C859 C858 1.387 . S
N860 Co851 2.022 . S
N860 C857 1.351 . S
N860 N861 1.365 . S
N861 C858 1.341 . S
N861 N860 1.365 . S
N861 H881 0.862 . S
C862 C857 1.501 . S
C862 H863 0.961 . S
C862 H864 0.961 . S
C862 H865 0.960 . S
H863 C862 0.961 . S
H864 C862 0.961 . S
H865 C862 0.960 . S
C866 N867 1.342 . S
C866 C870 1.401 . S
C866 C871 1.499 . S
N867 Co850 1.989 . S
N867 C866 1.342 . S
N867 N868 1.388 . S
N868 Co851 1.993 . S
N868 N867 1.388 . S
N868 C869 1.346 . S
C869 N868 1.346 . S
C869 C870 1.396 . S
C869 C879 1.510 . S
C870 C866 1.401 . S
C870 C869 1.396 . S
C871 C866 1.499 . S
C871 H872 0.959 . S
C871 H873 0.960 . S
C871 H874 0.961 . S
H872 C871 0.959 . S
H873 C871 0.960 . S
H874 C871 0.961 . S
O875 Co850 1.967 . S
O875 C883 1.258 . S
O876 Co851 1.941 . S
O876 C883 1.266 . S
H877 C879 0.959 . S
H878 C879 0.961 . S
C879 C869 1.510 . S
C879 H877 0.959 . S
C879 H878 0.961 . S
C879 H880 0.960 . S
H880 C879 0.960 . S
H881 N861 0.862 . S
O882 Co850 1.920 . S
O882 C855 1.289 . S
C883 O875 1.258 . S
C883 O876 1.266 . S
Co884 O887 1.970 . S
Co884 N901 1.989 . S
Co884 O909 1.967 . S
Co884 O916 1.920 . S
Co885 O888 1.966 . S
Co885 N894 2.022 . S
Co885 N902 1.993 . S
Co885 O910 1.941 . S
C886 O887 1.258 . S
C886 O888 1.263 . S
O887 Co884 1.970 . S
O887 C886 1.258 . S
O888 Co885 1.966 . S
O888 C886 1.263 . S
C889 O890 1.235 . S
C889 O916 1.289 . S
O890 C889 1.235 . S
C891 C893 1.400 . S
C891 N894 1.351 . S
C891 C896 1.501 . S
C892 C893 1.387 . S
C892 N895 1.341 . S
C893 C891 1.400 . S
C893 C892 1.387 . S
N894 Co885 2.022 . S
N894 C891 1.351 . S
N894 N895 1.365 . S
N895 C892 1.341 . S
N895 N894 1.365 . S
N895 H915 0.862 . S
C896 C891 1.501 . S
C896 H897 0.961 . S
C896 H898 0.961 . S
C896 H899 0.960 . S
H897 C896 0.961 . S
H898 C896 0.961 . S
H899 C896 0.960 . S
C900 N901 1.342 . S
C900 C904 1.401 . S
C900 C905 1.499 . S
N901 Co884 1.989 . S
N901 C900 1.342 . S
N901 N902 1.388 . S
N902 Co885 1.993 . S
N902 N901 1.388 . S
N902 C903 1.346 . S
C903 N902 1.346 . S
C903 C904 1.396 . S
C903 C913 1.510 . S
C904 C900 1.401 . S
C904 C903 1.396 . S
C905 C900 1.499 . S
C905 H906 0.959 . S
C905 H907 0.960 . S
C905 H908 0.961 . S
H906 C905 0.959 . S
H907 C905 0.960 . S
H908 C905 0.961 . S
O909 Co884 1.967 . S
O909 C917 1.258 . S
O910 Co885 1.941 . S
O910 C917 1.266 . S
H911 C913 0.959 . S
H912 C913 0.961 . S
C913 C903 1.510 . S
C913 H911 0.959 . S
C913 H912 0.961 . S
C913 H914 0.960 . S
H914 C913 0.960 . S
H915 N895 0.862 . S
O916 Co884 1.920 . S
O916 C889 1.289 . S
C917 O909 1.258 . S
C917 O910 1.266 . S
Co918 O921 1.970 . S
Co918 N935 1.989 . S
Co918 O943 1.967 . S
Co918 O950 1.920 . S
Co919 O922 1.966 . S
Co919 N928 2.022 . S
Co919 N936 1.993 . S
Co919 O944 1.941 . S
C920 O921 1.258 . S
C920 O922 1.263 . S
O921 Co918 1.970 . S
O921 C920 1.258 . S
O922 Co919 1.966 . S
O922 C920 1.263 . S
C923 O924 1.235 . S
C923 O950 1.289 . S
O924 C923 1.235 . S
C925 C927 1.400 . S
C925 N928 1.351 . S
C925 C930 1.501 . S
C926 C927 1.387 . S
C926 N929 1.341 . S
C927 C925 1.400 . S
C927 C926 1.387 . S
N928 Co919 2.022 . S
N928 C925 1.351 . S
N928 N929 1.365 . S
N929 C926 1.341 . S
N929 N928 1.365 . S
N929 H949 0.862 . S
C930 C925 1.501 . S
C930 H931 0.961 . S
C930 H932 0.961 . S
C930 H933 0.960 . S
H931 C930 0.961 . S
H932 C930 0.961 . S
H933 C930 0.960 . S
C934 N935 1.342 . S
C934 C938 1.401 . S
C934 C939 1.499 . S
N935 Co918 1.989 . S
N935 C934 1.342 . S
N935 N936 1.388 . S
N936 Co919 1.993 . S
N936 N935 1.388 . S
N936 C937 1.346 . S
C937 N936 1.346 . S
C937 C938 1.396 . S
C937 C947 1.510 . S
C938 C934 1.401 . S
C938 C937 1.396 . S
C939 C934 1.499 . S
C939 H940 0.959 . S
C939 H941 0.960 . S
C939 H942 0.961 . S
H940 C939 0.959 . S
H941 C939 0.960 . S
H942 C939 0.961 . S
O943 Co918 1.967 . S
O943 C951 1.258 . S
O944 Co919 1.941 . S
O944 C951 1.266 . S
H945 C947 0.959 . S
H946 C947 0.961 . S
C947 C937 1.510 . S
C947 H945 0.959 . S
C947 H946 0.961 . S
C947 H948 0.960 . S
H948 C947 0.960 . S
H949 N929 0.862 . S
O950 Co918 1.920 . S
O950 C923 1.289 . S
C951 O943 1.258 . S
C951 O944 1.266 . S
Co952 O955 1.970 . S
Co952 N969 1.989 . S
Co952 O977 1.967 . S
Co952 O984 1.920 . S
Co953 O956 1.966 . S
Co953 N962 2.022 . S
Co953 N970 1.993 . S
Co953 O978 1.941 . S
C954 O955 1.258 . S
C954 O956 1.263 . S
O955 Co952 1.970 . S
O955 C954 1.258 . S
O956 Co953 1.966 . S
O956 C954 1.263 . S
C957 O958 1.235 . S
C957 O984 1.289 . S
O958 C957 1.235 . S
C959 C961 1.400 . S
C959 N962 1.351 . S
C959 C964 1.501 . S
C960 C961 1.387 . S
C960 N963 1.341 . S
C961 C959 1.400 . S
C961 C960 1.387 . S
N962 Co953 2.022 . S
N962 C959 1.351 . S
N962 N963 1.365 . S
N963 C960 1.341 . S
N963 N962 1.365 . S
N963 H983 0.862 . S
C964 C959 1.501 . S
C964 H965 0.961 . S
C964 H966 0.961 . S
C964 H967 0.960 . S
H965 C964 0.961 . S
H966 C964 0.961 . S
H967 C964 0.960 . S
C968 N969 1.342 . S
C968 C972 1.401 . S
C968 C973 1.499 . S
N969 Co952 1.989 . S
N969 C968 1.342 . S
N969 N970 1.388 . S
N970 Co953 1.993 . S
N970 N969 1.388 . S
N970 C971 1.346 . S
C971 N970 1.346 . S
C971 C972 1.396 . S
C971 C981 1.510 . S
C972 C968 1.401 . S
C972 C971 1.396 . S
C973 C968 1.499 . S
C973 H974 0.959 . S
C973 H975 0.960 . S
C973 H976 0.961 . S
H974 C973 0.959 . S
H975 C973 0.960 . S
H976 C973 0.961 . S
O977 Co952 1.967 . S
O977 C985 1.258 . S
O978 Co953 1.941 . S
O978 C985 1.266 . S
H979 C981 0.959 . S
H980 C981 0.961 . S
C981 C971 1.510 . S
C981 H979 0.959 . S
C981 H980 0.961 . S
C981 H982 0.960 . S
H982 C981 0.960 . S
H983 N963 0.862 . S
O984 Co952 1.920 . S
O984 C957 1.289 . S
C985 O977 1.258 . S
C985 O978 1.266 . S
Co986 O989 1.970 . S
Co986 N1003 1.989 . S
Co986 O1011 1.967 . S
Co986 O1018 1.920 . S
Co987 O990 1.966 . S
Co987 N996 2.022 . S
Co987 N1004 1.993 . S
Co987 O1012 1.941 . S
C988 O989 1.258 . S
C988 O990 1.263 . S
O989 Co986 1.970 . S
O989 C988 1.258 . S
O990 Co987 1.966 . S
O990 C988 1.263 . S
C991 O992 1.235 . S
C991 O1018 1.289 . S
O992 C991 1.235 . S
C993 C995 1.400 . S
C993 N996 1.351 . S
C993 C998 1.501 . S
C994 C995 1.387 . S
C994 N997 1.341 . S
C995 C993 1.400 . S
C995 C994 1.387 . S
N996 Co987 2.022 . S
N996 C993 1.351 . S
N996 N997 1.365 . S
N997 C994 1.341 . S
N997 N996 1.365 . S
N997 H1017 0.862 . S
C998 C993 1.501 . S
C998 H999 0.961 . S
C998 H1000 0.961 . S
C998 H1001 0.960 . S
H999 C998 0.961 . S
H1000 C998 0.961 . S
H1001 C998 0.960 . S
C1002 N1003 1.342 . S
C1002 C1006 1.401 . S
C1002 C1007 1.499 . S
N1003 Co986 1.989 . S
N1003 C1002 1.342 . S
N1003 N1004 1.388 . S
N1004 Co987 1.993 . S
N1004 N1003 1.388 . S
N1004 C1005 1.346 . S
C1005 N1004 1.346 . S
C1005 C1006 1.396 . S
C1005 C1015 1.510 . S
C1006 C1002 1.401 . S
C1006 C1005 1.396 . S
C1007 C1002 1.499 . S
C1007 H1008 0.959 . S
C1007 H1009 0.960 . S
C1007 H1010 0.961 . S
H1008 C1007 0.959 . S
H1009 C1007 0.960 . S
H1010 C1007 0.961 . S
O1011 Co986 1.967 . S
O1011 C1019 1.258 . S
O1012 Co987 1.941 . S
O1012 C1019 1.266 . S
H1013 C1015 0.959 . S
H1014 C1015 0.961 . S
C1015 C1005 1.510 . S
C1015 H1013 0.959 . S
C1015 H1014 0.961 . S
C1015 H1016 0.960 . S
H1016 C1015 0.960 . S
H1017 N997 0.862 . S
O1018 Co986 1.920 . S
O1018 C991 1.289 . S
C1019 O1011 1.258 . S
C1019 O1012 1.266 . S
Co1020 O1023 1.970 . S
Co1020 N1037 1.989 . S
Co1020 O1045 1.967 . S
Co1020 O1052 1.920 . S
Co1021 O1024 1.966 . S
Co1021 N1030 2.022 . S
Co1021 N1038 1.993 . S
Co1021 O1046 1.941 . S
C1022 O1023 1.258 . S
C1022 O1024 1.263 . S
O1023 Co1020 1.970 . S
O1023 C1022 1.258 . S
O1024 Co1021 1.966 . S
O1024 C1022 1.263 . S
C1025 O1026 1.235 . S
C1025 O1052 1.289 . S
O1026 C1025 1.235 . S
C1027 C1029 1.400 . S
C1027 N1030 1.351 . S
C1027 C1032 1.501 . S
C1028 C1029 1.387 . S
C1028 N1031 1.341 . S
C1029 C1027 1.400 . S
C1029 C1028 1.387 . S
N1030 Co1021 2.022 . S
N1030 C1027 1.351 . S
N1030 N1031 1.365 . S
N1031 C1028 1.341 . S
N1031 N1030 1.365 . S
N1031 H1051 0.862 . S
C1032 C1027 1.501 . S
C1032 H1033 0.961 . S
C1032 H1034 0.961 . S
C1032 H1035 0.960 . S
H1033 C1032 0.961 . S
H1034 C1032 0.961 . S
H1035 C1032 0.960 . S
C1036 N1037 1.342 . S
C1036 C1040 1.401 . S
C1036 C1041 1.499 . S
N1037 Co1020 1.989 . S
N1037 C1036 1.342 . S
N1037 N1038 1.388 . S
N1038 Co1021 1.993 . S
N1038 N1037 1.388 . S
N1038 C1039 1.346 . S
C1039 N1038 1.346 . S
C1039 C1040 1.396 . S
C1039 C1049 1.510 . S
C1040 C1036 1.401 . S
C1040 C1039 1.396 . S
C1041 C1036 1.499 . S
C1041 H1042 0.959 . S
C1041 H1043 0.960 . S
C1041 H1044 0.961 . S
H1042 C1041 0.959 . S
H1043 C1041 0.960 . S
H1044 C1041 0.961 . S
O1045 Co1020 1.967 . S
O1045 C1053 1.258 . S
O1046 Co1021 1.941 . S
O1046 C1053 1.266 . S
H1047 C1049 0.959 . S
H1048 C1049 0.961 . S
C1049 C1039 1.510 . S
C1049 H1047 0.959 . S
C1049 H1048 0.961 . S
C1049 H1050 0.960 . S
H1050 C1049 0.960 . S
H1051 N1031 0.862 . S
O1052 Co1020 1.920 . S
O1052 C1025 1.289 . S
C1053 O1045 1.258 . S
C1053 O1046 1.266 . S
Co1054 O1057 1.970 . S
Co1054 N1071 1.989 . S
Co1054 O1079 1.967 . S
Co1054 O1086 1.920 . S
Co1055 O1058 1.966 . S
Co1055 N1064 2.022 . S
Co1055 N1072 1.993 . S
Co1055 O1080 1.941 . S
C1056 O1057 1.258 . S
C1056 O1058 1.263 . S
O1057 Co1054 1.970 . S
O1057 C1056 1.258 . S
O1058 Co1055 1.966 . S
O1058 C1056 1.263 . S
C1059 O1060 1.235 . S
C1059 O1086 1.289 . S
O1060 C1059 1.235 . S
C1061 C1063 1.400 . S
C1061 N1064 1.351 . S
C1061 C1066 1.501 . S
C1062 C1063 1.387 . S
C1062 N1065 1.341 . S
C1063 C1061 1.400 . S
C1063 C1062 1.387 . S
N1064 Co1055 2.022 . S
N1064 C1061 1.351 . S
N1064 N1065 1.365 . S
N1065 C1062 1.341 . S
N1065 N1064 1.365 . S
N1065 H1085 0.862 . S
C1066 C1061 1.501 . S
C1066 H1067 0.961 . S
C1066 H1068 0.961 . S
C1066 H1069 0.960 . S
H1067 C1066 0.961 . S
H1068 C1066 0.961 . S
H1069 C1066 0.960 . S
C1070 N1071 1.342 . S
C1070 C1074 1.401 . S
C1070 C1075 1.499 . S
N1071 Co1054 1.989 . S
N1071 C1070 1.342 . S
N1071 N1072 1.388 . S
N1072 Co1055 1.993 . S
N1072 N1071 1.388 . S
N1072 C1073 1.346 . S
C1073 N1072 1.346 . S
C1073 C1074 1.396 . S
C1073 C1083 1.510 . S
C1074 C1070 1.401 . S
C1074 C1073 1.396 . S
C1075 C1070 1.499 . S
C1075 H1076 0.959 . S
C1075 H1077 0.960 . S
C1075 H1078 0.961 . S
H1076 C1075 0.959 . S
H1077 C1075 0.960 . S
H1078 C1075 0.961 . S
O1079 Co1054 1.967 . S
O1079 C1087 1.258 . S
O1080 Co1055 1.941 . S
O1080 C1087 1.266 . S
H1081 C1083 0.959 . S
H1082 C1083 0.961 . S
C1083 C1073 1.510 . S
C1083 H1081 0.959 . S
C1083 H1082 0.961 . S
C1083 H1084 0.960 . S
H1084 C1083 0.960 . S
H1085 N1065 0.862 . S
O1086 Co1054 1.920 . S
O1086 C1059 1.289 . S
C1087 O1079 1.258 . S
C1087 O1080 1.266 . S
H1088 C1094 0.930 . S
H1089 C1097 0.930 . S
H1090 C1098 0.930 . S
H1091 C1099 0.930 . S
H1092 C1102 0.930 . S
H1093 C1103 0.930 . S
C1094 H1088 0.930 . S
C1094 C1095 1.355 1_455 S
C1094 C1096 1.415 . S
C1095 C1094 1.355 1_655 S
C1095 C1097 1.419 . S
C1096 C1094 1.415 . S
C1096 C1101 1.425 1_455 S
C1096 C1103 1.409 . S
C1097 H1089 0.930 . S
C1097 C1095 1.419 . S
C1097 C1098 1.362 . S
C1098 H1090 0.930 . S
C1098 C1097 1.362 . S
C1098 C1101 1.409 . S
C1099 H1091 0.930 . S
C1099 C1100 1.355 1_655 S
C1099 C1101 1.415 . S
C1100 C1099 1.355 1_455 S
C1100 C1102 1.419 . S
C1101 C1096 1.425 1_655 S
C1101 C1098 1.409 . S
C1101 C1099 1.415 . S
C1102 H1092 0.930 . S
C1102 C1100 1.419 . S
C1102 C1103 1.362 . S
C1103 H1093 0.930 . S
C1103 C1096 1.409 . S
C1103 C1102 1.362 . S
H1104 C1110 0.930 . S
H1105 C1113 0.930 . S
H1106 C1114 0.930 . S
H1107 C1115 0.930 . S
H1108 C1118 0.930 . S
H1109 C1119 0.930 . S
C1110 H1104 0.930 . S
C1110 C1111 1.355 . S
C1110 C1112 1.415 . S
C1111 C1110 1.355 . S
C1111 C1113 1.419 1_565 S
C1112 C1110 1.415 . S
C1112 C1117 1.425 1_565 S
C1112 C1119 1.409 . S
C1113 H1105 0.930 . S
C1113 C1111 1.419 1_545 S
C1113 C1114 1.362 . S
C1114 H1106 0.930 . S
C1114 C1113 1.362 . S
C1114 C1117 1.409 . S
C1115 H1107 0.930 . S
C1115 C1116 1.355 . S
C1115 C1117 1.415 . S
C1116 C1115 1.355 . S
C1116 C1118 1.419 1_545 S
C1117 C1112 1.425 1_545 S
C1117 C1114 1.409 . S
C1117 C1115 1.415 . S
C1118 H1108 0.930 . S
C1118 C1116 1.419 1_565 S
C1118 C1119 1.362 . S
C1119 H1109 0.930 . S
C1119 C1112 1.409 . S
C1119 C1118 1.362 . S
H1120 C1126 0.930 . S
H1121 C1129 0.930 . S
H1122 C1130 0.930 . S
H1123 C1131 0.930 . S
H1124 C1134 0.930 . S
H1125 C1135 0.930 . S
C1126 H1120 0.930 . S
C1126 C1127 1.355 1_455 S
C1126 C1128 1.415 . S
C1127 C1126 1.355 1_655 S
C1127 C1129 1.419 1_565 S
C1128 C1126 1.415 . S
C1128 C1133 1.425 1_464 S
C1128 C1135 1.409 1_554 S
C1129 H1121 0.930 . S
C1129 C1127 1.419 1_545 S
C1129 C1130 1.362 . S
C1130 H1122 0.930 . S
C1130 C1129 1.362 . S
C1130 C1133 1.409 1_554 S
C1131 H1123 0.930 . S
C1131 C1132 1.355 1_655 S
C1131 C1133 1.415 . S
C1132 C1131 1.355 1_455 S
C1132 C1134 1.419 1_545 S
C1133 C1128 1.425 1_646 S
C1133 C1130 1.409 1_556 S
C1133 C1131 1.415 . S
C1134 H1124 0.930 . S
C1134 C1132 1.419 1_565 S
C1134 C1135 1.362 . S
C1135 H1125 0.930 . S
C1135 C1128 1.409 1_556 S
C1135 C1134 1.362 . S
H1136 C1142 0.930 . S
H1137 C1145 0.930 . S
H1138 C1146 0.930 . S
H1139 C1147 0.930 . S
H1140 C1150 0.930 . S
H1141 C1151 0.930 . S
C1142 H1136 0.930 . S
C1142 C1143 1.355 . S
C1142 C1144 1.404 1_554 S
C1143 C1142 1.355 . S
C1143 C1145 1.419 . S
C1144 C1142 1.404 1_556 S
C1144 C1149 1.425 1_556 S
C1144 C1151 1.420 . S
C1145 H1137 0.930 . S
C1145 C1143 1.419 . S
C1145 C1146 1.362 . S
C1146 H1138 0.930 . S
C1146 C1145 1.362 . S
C1146 C1149 1.420 . S
C1147 H1139 0.930 . S
C1147 C1148 1.355 . S
C1147 C1149 1.404 1_556 S
C1148 C1147 1.355 . S
C1148 C1150 1.419 . S
C1149 C1144 1.425 1_554 S
C1149 C1146 1.420 . S
C1149 C1147 1.404 1_554 S
C1150 H1140 0.930 . S
C1150 C1148 1.419 . S
C1150 C1151 1.362 . S
C1151 H1141 0.930 . S
C1151 C1144 1.420 . S
C1151 C1150 1.362 . S
H1152 C1158 0.930 . S
H1153 C1161 0.930 . S
H1154 C1162 0.930 . S
H1155 C1163 0.930 . S
H1156 C1166 0.930 . S
H1157 C1167 0.930 . S
C1158 H1152 0.930 . S
C1158 C1159 1.355 . S
C1158 C1160 1.415 . S
C1159 C1158 1.355 . S
C1159 C1161 1.419 1_455 S
C1160 C1158 1.415 . S
C1160 C1165 1.425 1_455 S
C1160 C1167 1.409 . S
C1161 H1153 0.930 . S
C1161 C1159 1.419 1_655 S
C1161 C1162 1.362 . S
C1162 H1154 0.930 . S
C1162 C1161 1.362 . S
C1162 C1165 1.409 . S
C1163 H1155 0.930 . S
C1163 C1164 1.355 . S
C1163 C1165 1.415 . S
C1164 C1163 1.355 . S
C1164 C1166 1.419 1_655 S
C1165 C1160 1.425 1_655 S
C1165 C1162 1.409 . S
C1165 C1163 1.415 . S
C1166 H1156 0.930 . S
C1166 C1164 1.419 1_455 S
C1166 C1167 1.362 . S
C1167 H1157 0.930 . S
C1167 C1160 1.409 . S
C1167 C1166 1.362 . S
H1168 C1174 0.930 1_565 S
H1169 C1177 0.930 . S
H1170 C1178 0.930 . S
H1171 C1179 0.930 1_545 S
H1172 C1182 0.930 . S
H1173 C1183 0.930 . S
C1174 H1168 0.930 1_545 S
C1174 C1175 1.355 . S
C1174 C1176 1.415 1_545 S
C1175 C1174 1.355 . S
C1175 C1177 1.419 . S
C1176 C1174 1.415 1_565 S
C1176 C1181 1.425 1_565 S
C1176 C1183 1.409 . S
C1177 H1169 0.930 . S
C1177 C1175 1.419 . S
C1177 C1178 1.362 . S
C1178 H1170 0.930 . S
C1178 C1177 1.362 . S
C1178 C1181 1.409 . S
C1179 H1171 0.930 1_565 S
C1179 C1180 1.355 . S
C1179 C1181 1.415 1_565 S
C1180 C1179 1.355 . S
C1180 C1182 1.419 . S
C1181 C1176 1.425 1_545 S
C1181 C1178 1.409 . S
C1181 C1179 1.415 1_545 S
C1182 H1172 0.930 . S
C1182 C1180 1.419 . S
C1182 C1183 1.362 . S
C1183 H1173 0.930 . S
C1183 C1176 1.409 . S
C1183 C1182 1.362 . S
H1184 C1190 0.930 . S
H1185 C1193 0.930 . S
H1186 C1194 0.951 . S
H1187 C1195 0.930 . S
H1188 C1198 0.930 . S
H1189 C1199 0.951 . S
C1190 H1184 0.930 . S
C1190 C1191 1.355 . S
C1190 C1192 1.415 . S
C1191 C1190 1.355 . S
C1191 C1193 1.419 . S
C1192 C1190 1.415 . S
C1192 C1197 1.425 1_554 S
C1192 C1199 1.419 . S
C1193 H1185 0.930 . S
C1193 C1191 1.419 . S
C1193 C1194 1.332 1_554 S
C1194 H1186 0.951 . S
C1194 C1193 1.332 1_556 S
C1194 C1197 1.419 . S
C1195 H1187 0.930 . S
C1195 C1196 1.355 . S
C1195 C1197 1.415 . S
C1196 C1195 1.355 . S
C1196 C1198 1.419 . S
C1197 C1192 1.425 1_556 S
C1197 C1194 1.419 . S
C1197 C1195 1.415 . S
C1198 H1188 0.930 . S
C1198 C1196 1.419 . S
C1198 C1199 1.332 1_556 S
C1199 H1189 0.951 . S
C1199 C1192 1.419 . S
C1199 C1198 1.332 1_554 S
H1200 C1206 0.930 . S
H1201 C1209 0.930 . S
H1202 C1210 0.930 . S
H1203 C1211 0.930 . S
H1204 C1214 0.930 . S
H1205 C1215 0.930 . S
C1206 H1200 0.930 . S
C1206 C1207 1.355 . S
C1206 C1208 1.415 . S
C1207 C1206 1.355 . S
C1207 C1209 1.419 . S
C1208 C1206 1.415 . S
C1208 C1213 1.425 . S
C1208 C1215 1.409 . S
C1209 H1201 0.930 . S
C1209 C1207 1.419 . S
C1209 C1210 1.362 . S
C1210 H1202 0.930 . S
C1210 C1209 1.362 . S
C1210 C1213 1.409 . S
C1211 H1203 0.930 . S
C1211 C1212 1.355 . S
C1211 C1213 1.415 . S
C1212 C1211 1.355 . S
C1212 C1214 1.419 . S
C1213 C1208 1.425 . S
C1213 C1210 1.409 . S
C1213 C1211 1.415 . S
C1214 H1204 0.930 . S
C1214 C1212 1.419 . S
C1214 C1215 1.362 . S
C1215 H1205 0.930 . S
C1215 C1208 1.409 . S
C1215 C1214 1.362 . S
H1216 C1222 0.930 . S
H1217 C1225 0.930 . S
H1218 C1226 0.930 . S
H1219 C1227 0.930 . S
H1220 C1230 0.930 . S
H1221 C1231 0.930 . S
C1222 H1216 0.930 . S
C1222 C1223 1.355 . S
C1222 C1224 1.415 . S
C1223 C1222 1.355 . S
C1223 C1225 1.419 1_655 S
C1224 C1222 1.415 . S
C1224 C1229 1.425 1_655 S
C1224 C1231 1.409 . S
C1225 H1217 0.930 . S
C1225 C1223 1.419 1_455 S
C1225 C1226 1.362 . S
C1226 H1218 0.930 . S
C1226 C1225 1.362 . S
C1226 C1229 1.409 . S
C1227 H1219 0.930 . S
C1227 C1228 1.355 . S
C1227 C1229 1.415 . S
C1228 C1227 1.355 . S
C1228 C1230 1.419 1_455 S
C1229 C1224 1.425 1_455 S
C1229 C1226 1.409 . S
C1229 C1227 1.415 . S
C1230 H1220 0.930 . S
C1230 C1228 1.419 1_655 S
C1230 C1231 1.362 . S
C1231 H1221 0.930 . S
C1231 C1224 1.409 . S
C1231 C1230 1.362 . S
H1232 C1238 0.930 . S
H1233 C1241 0.930 . S
H1234 C1242 0.930 . S
H1235 C1243 0.930 . S
H1236 C1246 0.930 . S
H1237 C1247 0.930 . S
C1238 H1232 0.930 . S
C1238 C1239 1.355 . S
C1238 C1240 1.415 . S
C1239 C1238 1.355 . S
C1239 C1241 1.419 . S
C1240 C1238 1.415 . S
C1240 C1245 1.425 . S
C1240 C1247 1.409 . S
C1241 H1233 0.930 . S
C1241 C1239 1.419 . S
C1241 C1242 1.362 . S
C1242 H1234 0.930 . S
C1242 C1241 1.362 . S
C1242 C1245 1.409 . S
C1243 H1235 0.930 . S
C1243 C1244 1.355 . S
C1243 C1245 1.415 . S
C1244 C1243 1.355 . S
C1244 C1246 1.419 . S
C1245 C1240 1.425 . S
C1245 C1242 1.409 . S
C1245 C1243 1.415 . S
C1246 H1236 0.930 . S
C1246 C1244 1.419 . S
C1246 C1247 1.362 . S
C1247 H1237 0.930 . S
C1247 C1240 1.409 . S
C1247 C1246 1.362 . S
H1248 C1254 0.930 . S
H1249 C1257 0.930 . S
H1250 C1258 0.930 . S
H1251 C1259 0.930 . S
H1252 C1262 0.930 . S
H1253 C1263 0.930 . S
C1254 H1248 0.930 . S
C1254 C1255 1.355 . S
C1254 C1256 1.415 . S
C1255 C1254 1.355 . S
C1255 C1257 1.419 . S
C1256 C1254 1.415 . S
C1256 C1261 1.425 . S
C1256 C1263 1.409 . S
C1257 H1249 0.930 . S
C1257 C1255 1.419 . S
C1257 C1258 1.362 . S
C1258 H1250 0.930 . S
C1258 C1257 1.362 . S
C1258 C1261 1.409 . S
C1259 H1251 0.930 . S
C1259 C1260 1.355 . S
C1259 C1261 1.415 . S
C1260 C1259 1.355 . S
C1260 C1262 1.419 . S
C1261 C1256 1.425 . S
C1261 C1258 1.409 . S
C1261 C1259 1.415 . S
C1262 H1252 0.930 . S
C1262 C1260 1.419 . S
C1262 C1263 1.362 . S
C1263 H1253 0.930 . S
C1263 C1256 1.409 . S
C1263 C1262 1.362 . S
H1264 C1270 0.930 . S
H1265 C1273 0.930 . S
H1266 C1274 0.930 . S
H1267 C1275 0.930 . S
H1268 C1278 0.930 . S
H1269 C1279 0.930 . S
C1270 H1264 0.930 . S
C1270 C1271 1.355 . S
C1270 C1272 1.415 . S
C1271 C1270 1.355 . S
C1271 C1273 1.419 . S
C1272 C1270 1.415 . S
C1272 C1277 1.425 . S
C1272 C1279 1.409 . S
C1273 H1265 0.930 . S
C1273 C1271 1.419 . S
C1273 C1274 1.362 . S
C1274 H1266 0.930 . S
C1274 C1273 1.362 . S
C1274 C1277 1.409 . S
C1275 H1267 0.930 . S
C1275 C1276 1.355 . S
C1275 C1277 1.415 . S
C1276 C1275 1.355 . S
C1276 C1278 1.419 . S
C1277 C1272 1.425 . S
C1277 C1274 1.409 . S
C1277 C1275 1.415 . S
C1278 H1268 0.930 . S
C1278 C1276 1.419 . S
C1278 C1279 1.362 . S
C1279 H1269 0.930 . S
C1279 C1272 1.409 . S
C1279 C1278 1.362 . S
H1280 C1286 0.930 . S
H1281 C1289 0.930 . S
H1282 C1290 0.930 . S
H1283 C1291 0.930 . S
H1284 C1294 0.930 . S
H1285 C1295 0.930 . S
C1286 H1280 0.930 . S
C1286 C1287 1.355 . S
C1286 C1288 1.415 . S
C1287 C1286 1.355 . S
C1287 C1289 1.419 . S
C1288 C1286 1.415 . S
C1288 C1293 1.425 . S
C1288 C1295 1.409 . S
C1289 H1281 0.930 . S
C1289 C1287 1.419 . S
C1289 C1290 1.362 . S
C1290 H1282 0.930 . S
C1290 C1289 1.362 . S
C1290 C1293 1.409 . S
C1291 H1283 0.930 . S
C1291 C1292 1.355 . S
C1291 C1293 1.415 . S
C1292 C1291 1.355 . S
C1292 C1294 1.419 . S
C1293 C1288 1.425 . S
C1293 C1290 1.409 . S
C1293 C1291 1.415 . S
C1294 H1284 0.930 . S
C1294 C1292 1.419 . S
C1294 C1295 1.362 . S
C1295 H1285 0.930 . S
C1295 C1288 1.409 . S
C1295 C1294 1.362 . S
H1296 C1302 0.930 . S
H1297 C1305 0.930 . S
H1298 C1306 0.930 . S
H1299 C1307 0.930 . S
H1300 C1310 0.930 . S
H1301 C1311 0.930 . S
C1302 H1296 0.930 . S
C1302 C1303 1.355 . S
C1302 C1304 1.415 . S
C1303 C1302 1.355 . S
C1303 C1305 1.419 1_565 S
C1304 C1302 1.415 . S
C1304 C1309 1.425 1_565 S
C1304 C1311 1.409 . S
C1305 H1297 0.930 . S
C1305 C1303 1.419 1_545 S
C1305 C1306 1.362 . S
C1306 H1298 0.930 . S
C1306 C1305 1.362 . S
C1306 C1309 1.409 . S
C1307 H1299 0.930 . S
C1307 C1308 1.355 . S
C1307 C1309 1.415 . S
C1308 C1307 1.355 . S
C1308 C1310 1.419 1_545 S
C1309 C1304 1.425 1_545 S
C1309 C1306 1.409 . S
C1309 C1307 1.415 . S
C1310 H1300 0.930 . S
C1310 C1308 1.419 1_565 S
C1310 C1311 1.362 . S
C1311 H1301 0.930 . S
C1311 C1304 1.409 . S
C1311 C1310 1.362 . S
H1312 C1318 0.930 . S
H1313 C1321 0.930 . S
H1314 C1322 0.930 . S
H1315 C1323 0.930 . S
H1316 C1326 0.930 . S
H1317 C1327 0.930 . S
C1318 H1312 0.930 . S
C1318 C1319 1.355 . S
C1318 C1320 1.415 . S
C1319 C1318 1.355 . S
C1319 C1321 1.419 . S
C1320 C1318 1.415 . S
C1320 C1325 1.425 . S
C1320 C1327 1.409 . S
C1321 H1313 0.930 . S
C1321 C1319 1.419 . S
C1321 C1322 1.362 . S
C1322 H1314 0.930 . S
C1322 C1321 1.362 . S
C1322 C1325 1.409 . S
C1323 H1315 0.930 . S
C1323 C1324 1.355 . S
C1323 C1325 1.415 . S
C1324 C1323 1.355 . S
C1324 C1326 1.419 . S
C1325 C1320 1.425 . S
C1325 C1322 1.409 . S
C1325 C1323 1.415 . S
C1326 H1316 0.930 . S
C1326 C1324 1.419 . S
C1326 C1327 1.362 . S
C1327 H1317 0.930 . S
C1327 C1320 1.409 . S
C1327 C1326 1.362 . S
H1328 C1334 0.930 . S
H1329 C1337 0.930 . S
H1330 C1338 0.930 . S
H1331 C1339 0.930 . S
H1332 C1342 0.930 . S
H1333 C1343 0.930 . S
C1334 H1328 0.930 . S
C1334 C1335 1.355 . S
C1334 C1336 1.415 . S
C1335 C1334 1.355 . S
C1335 C1337 1.419 . S
C1336 C1334 1.415 . S
C1336 C1341 1.425 1_554 S
C1336 C1343 1.409 1_554 S
C1337 H1329 0.930 . S
C1337 C1335 1.419 . S
C1337 C1338 1.362 . S
C1338 H1330 0.930 . S
C1338 C1337 1.362 . S
C1338 C1341 1.409 1_554 S
C1339 H1331 0.930 . S
C1339 C1340 1.355 . S
C1339 C1341 1.415 . S
C1340 C1339 1.355 . S
C1340 C1342 1.419 . S
C1341 C1336 1.425 1_556 S
C1341 C1338 1.409 1_556 S
C1341 C1339 1.415 . S
C1342 H1332 0.930 . S
C1342 C1340 1.419 . S
C1342 C1343 1.362 . S
C1343 H1333 0.930 . S
C1343 C1336 1.409 1_556 S
C1343 C1342 1.362 . S
H1344 C1350 0.930 . S
H1345 C1353 0.930 . S
H1346 C1354 0.930 . S
H1347 C1355 0.930 . S
H1348 C1358 0.930 . S
H1349 C1359 0.930 . S
C1350 H1344 0.930 . S
C1350 C1351 1.355 . S
C1350 C1352 1.415 . S
C1351 C1350 1.355 . S
C1351 C1353 1.419 . S
C1352 C1350 1.415 . S
C1352 C1357 1.425 . S
C1352 C1359 1.409 . S
C1353 H1345 0.930 . S
C1353 C1351 1.419 . S
C1353 C1354 1.362 . S
C1354 H1346 0.930 . S
C1354 C1353 1.362 . S
C1354 C1357 1.409 . S
C1355 H1347 0.930 . S
C1355 C1356 1.355 . S
C1355 C1357 1.415 . S
C1356 C1355 1.355 . S
C1356 C1358 1.419 . S
C1357 C1352 1.425 . S
C1357 C1354 1.409 . S
C1357 C1355 1.415 . S
C1358 H1348 0.930 . S
C1358 C1356 1.419 . S
C1358 C1359 1.362 . S
C1359 H1349 0.930 . S
C1359 C1352 1.409 . S
C1359 C1358 1.362 . S
H1360 C1366 0.930 . S
H1361 C1369 0.930 . S
H1362 C1370 0.930 . S
H1363 C1371 0.930 . S
H1364 C1374 0.930 . S
H1365 C1375 0.930 . S
C1366 H1360 0.930 . S
C1366 C1367 1.355 . S
C1366 C1368 1.415 . S
C1367 C1366 1.355 . S
C1367 C1369 1.419 . S
C1368 C1366 1.415 . S
C1368 C1373 1.425 . S
C1368 C1375 1.409 . S
C1369 H1361 0.930 . S
C1369 C1367 1.419 . S
C1369 C1370 1.362 . S
C1370 H1362 0.930 . S
C1370 C1369 1.362 . S
C1370 C1373 1.409 . S
C1371 H1363 0.930 . S
C1371 C1372 1.355 . S
C1371 C1373 1.415 . S
C1372 C1371 1.355 . S
C1372 C1374 1.419 . S
C1373 C1368 1.425 . S
C1373 C1370 1.409 . S
C1373 C1371 1.415 . S
C1374 H1364 0.930 . S
C1374 C1372 1.419 . S
C1374 C1375 1.362 . S
C1375 H1365 0.930 . S
C1375 C1368 1.409 . S
C1375 C1374 1.362 . S
H1376 C1382 0.930 . S
H1377 C1385 0.930 . S
H1378 C1386 0.930 . S
H1379 C1387 0.930 . S
H1380 C1390 0.930 . S
H1381 C1391 0.950 . S
C1382 H1376 0.930 . S
C1382 C1383 1.355 . S
C1382 C1384 1.415 . S
C1383 C1382 1.355 . S
C1383 C1385 1.419 . S
C1384 C1382 1.415 . S
C1384 C1389 1.425 . S
C1384 C1391 1.409 . S
C1385 H1377 0.930 . S
C1385 C1383 1.419 . S
C1385 C1386 1.362 . S
C1386 H1378 0.930 . S
C1386 C1385 1.362 . S
C1386 C1389 1.409 . S
C1387 H1379 0.930 . S
C1387 C1388 1.355 . S
C1387 C1389 1.415 . S
C1388 C1387 1.355 . S
C1388 C1390 1.419 . S
C1389 C1384 1.425 . S
C1389 C1386 1.409 . S
C1389 C1387 1.415 . S
C1390 H1380 0.930 . S
C1390 C1388 1.419 . S
C1390 C1391 1.362 . S
C1391 H1381 0.950 . S
C1391 C1384 1.409 . S
C1391 C1390 1.362 . S
H1392 C1398 0.930 . S
H1393 C1401 0.930 . S
H1394 C1402 0.930 . S
H1395 C1403 0.930 . S
H1396 C1406 0.930 . S
H1397 C1407 0.930 . S
C1398 H1392 0.930 . S
C1398 C1399 1.355 . S
C1398 C1400 1.415 . S
C1399 C1398 1.355 . S
C1399 C1401 1.419 . S
C1400 C1398 1.415 . S
C1400 C1405 1.425 . S
C1400 C1407 1.409 . S
C1401 H1393 0.930 . S
C1401 C1399 1.419 . S
C1401 C1402 1.362 . S
C1402 H1394 0.930 . S
C1402 C1401 1.362 . S
C1402 C1405 1.409 . S
C1403 H1395 0.930 . S
C1403 C1404 1.355 . S
C1403 C1405 1.415 . S
C1404 C1403 1.355 . S
C1404 C1406 1.419 . S
C1405 C1400 1.425 . S
C1405 C1402 1.409 . S
C1405 C1403 1.415 . S
C1406 H1396 0.930 . S
C1406 C1404 1.419 . S
C1406 C1407 1.362 . S
C1407 H1397 0.930 . S
C1407 C1400 1.409 . S
C1407 C1406 1.362 . S
H1408 C1414 0.930 . S
H1409 C1417 0.930 . S
H1410 C1418 0.930 . S
H1411 C1419 0.930 . S
H1412 C1422 0.930 . S
H1413 C1423 0.930 . S
C1414 H1408 0.930 . S
C1414 C1415 1.355 . S
C1414 C1416 1.415 . S
C1415 C1414 1.355 . S
C1415 C1417 1.419 . S
C1416 C1414 1.415 . S
C1416 C1421 1.425 . S
C1416 C1423 1.409 . S
C1417 H1409 0.930 . S
C1417 C1415 1.419 . S
C1417 C1418 1.362 . S
C1418 H1410 0.930 . S
C1418 C1417 1.362 . S
C1418 C1421 1.409 . S
C1419 H1411 0.930 . S
C1419 C1420 1.355 . S
C1419 C1421 1.415 . S
C1420 C1419 1.355 . S
C1420 C1422 1.419 . S
C1421 C1416 1.425 . S
C1421 C1418 1.409 . S
C1421 C1419 1.415 . S
C1422 H1412 0.930 . S
C1422 C1420 1.419 . S
C1422 C1423 1.362 . S
C1423 H1413 0.930 . S
C1423 C1416 1.409 . S
C1423 C1422 1.362 . S
H1424 C1430 0.930 . S
H1425 C1433 0.930 . S
H1426 C1434 0.930 . S
H1427 C1435 0.930 . S
H1428 C1438 0.930 . S
H1429 C1439 0.930 . S
C1430 H1424 0.930 . S
C1430 C1431 1.355 . S
C1430 C1432 1.415 . S
C1431 C1430 1.355 . S
C1431 C1433 1.419 . S
C1432 C1430 1.415 . S
C1432 C1437 1.425 . S
C1432 C1439 1.409 . S
C1433 H1425 0.930 . S
C1433 C1431 1.419 . S
C1433 C1434 1.362 . S
C1434 H1426 0.930 . S
C1434 C1433 1.362 . S
C1434 C1437 1.409 . S
C1435 H1427 0.930 . S
C1435 C1436 1.355 . S
C1435 C1437 1.415 . S
C1436 C1435 1.355 . S
C1436 C1438 1.419 . S
C1437 C1432 1.425 . S
C1437 C1434 1.409 . S
C1437 C1435 1.415 . S
C1438 H1428 0.930 . S
C1438 C1436 1.419 . S
C1438 C1439 1.362 . S
C1439 H1429 0.930 . S
C1439 C1432 1.409 . S
C1439 C1438 1.362 . S
H1440 C1446 0.930 . S
H1441 C1449 0.930 . S
H1442 C1450 0.930 . S
H1443 C1451 0.930 . S
H1444 C1454 0.943 . S
H1445 C1455 0.930 1_455 S
C1446 H1440 0.930 . S
C1446 C1447 1.355 . S
C1446 C1448 1.415 . S
C1447 C1446 1.355 . S
C1447 C1449 1.419 . S
C1448 C1446 1.415 . S
C1448 C1453 1.425 . S
C1448 C1455 1.409 . S
C1449 H1441 0.930 . S
C1449 C1447 1.419 . S
C1449 C1450 1.362 . S
C1450 H1442 0.930 . S
C1450 C1449 1.362 . S
C1450 C1453 1.409 . S
C1451 H1443 0.930 . S
C1451 C1452 1.355 . S
C1451 C1453 1.415 . S
C1452 C1451 1.355 . S
C1452 C1454 1.419 . S
C1453 C1448 1.425 . S
C1453 C1450 1.409 . S
C1453 C1451 1.415 . S
C1454 H1444 0.943 . S
C1454 C1452 1.419 . S
C1454 C1455 1.362 . S
C1455 H1445 0.930 1_655 S
C1455 C1448 1.409 . S
C1455 C1454 1.362 . S
H1456 C1462 0.930 . S
H1457 C1465 0.930 . S
H1458 C1466 0.930 . S
H1459 C1467 0.930 . S
H1460 C1470 0.930 . S
H1461 C1471 0.930 . S
C1462 H1456 0.930 . S
C1462 C1463 1.355 . S
C1462 C1464 1.415 . S
C1463 C1462 1.355 . S
C1463 C1465 1.419 . S
C1464 C1462 1.415 . S
C1464 C1469 1.425 . S
C1464 C1471 1.409 . S
C1465 H1457 0.930 . S
C1465 C1463 1.419 . S
C1465 C1466 1.362 . S
C1466 H1458 0.930 . S
C1466 C1465 1.362 . S
C1466 C1469 1.409 . S
C1467 H1459 0.930 . S
C1467 C1468 1.355 . S
C1467 C1469 1.415 . S
C1468 C1467 1.355 . S
C1468 C1470 1.419 . S
C1469 C1464 1.425 . S
C1469 C1466 1.409 . S
C1469 C1467 1.415 . S
C1470 H1460 0.930 . S
C1470 C1468 1.419 . S
C1470 C1471 1.362 . S
C1471 H1461 0.930 . S
C1471 C1464 1.409 . S
C1471 C1470 1.362 . S
H1472 C1478 0.930 . S
H1473 C1481 0.930 . S
H1474 C1482 0.930 . S
H1475 C1483 0.930 . S
H1476 C1486 0.930 . S
H1477 C1487 0.930 . S
C1478 H1472 0.930 . S
C1478 C1479 1.355 . S
C1478 C1480 1.415 . S
C1479 C1478 1.355 . S
C1479 C1481 1.419 . S
C1480 C1478 1.415 . S
C1480 C1485 1.425 . S
C1480 C1487 1.409 . S
C1481 H1473 0.930 . S
C1481 C1479 1.419 . S
C1481 C1482 1.362 . S
C1482 H1474 0.930 . S
C1482 C1481 1.362 . S
C1482 C1485 1.409 . S
C1483 H1475 0.930 . S
C1483 C1484 1.355 . S
C1483 C1485 1.415 . S
C1484 C1483 1.355 . S
C1484 C1486 1.419 . S
C1485 C1480 1.425 . S
C1485 C1482 1.409 . S
C1485 C1483 1.415 . S
C1486 H1476 0.930 . S
C1486 C1484 1.419 . S
C1486 C1487 1.362 . S
C1487 H1477 0.930 . S
C1487 C1480 1.409 . S
C1487 C1486 1.362 . S
H1488 C1494 0.930 . S
H1489 C1497 0.930 . S
H1490 C1498 0.930 . S
H1491 C1499 0.930 . S
H1492 C1502 0.930 . S
H1493 C1503 0.930 . S
C1494 H1488 0.930 . S
C1494 C1495 1.355 . S
C1494 C1496 1.415 . S
C1495 C1494 1.355 . S
C1495 C1497 1.419 . S
C1496 C1494 1.415 . S
C1496 C1501 1.425 . S
C1496 C1503 1.409 . S
C1497 H1489 0.930 . S
C1497 C1495 1.419 . S
C1497 C1498 1.362 . S
C1498 H1490 0.930 . S
C1498 C1497 1.362 . S
C1498 C1501 1.409 . S
C1499 H1491 0.930 . S
C1499 C1500 1.355 . S
C1499 C1501 1.415 . S
C1500 C1499 1.355 . S
C1500 C1502 1.419 . S
C1501 C1496 1.425 . S
C1501 C1498 1.409 . S
C1501 C1499 1.415 . S
C1502 H1492 0.930 . S
C1502 C1500 1.419 . S
C1502 C1503 1.362 . S
C1503 H1493 0.930 . S
C1503 C1496 1.409 . S
C1503 C1502 1.362 . S
H1504 C1510 0.930 . S
H1505 C1513 0.930 . S
H1506 C1514 0.930 . S
H1507 C1515 0.930 . S
H1508 C1518 0.930 . S
H1509 C1519 0.930 . S
C1510 H1504 0.930 . S
C1510 C1511 1.355 . S
C1510 C1512 1.415 . S
C1511 C1510 1.355 . S
C1511 C1513 1.419 . S
C1512 C1510 1.415 . S
C1512 C1517 1.425 . S
C1512 C1519 1.409 . S
C1513 H1505 0.930 . S
C1513 C1511 1.419 . S
C1513 C1514 1.362 . S
C1514 H1506 0.930 . S
C1514 C1513 1.362 . S
C1514 C1517 1.409 . S
C1515 H1507 0.930 . S
C1515 C1516 1.355 . S
C1515 C1517 1.415 . S
C1516 C1515 1.355 . S
C1516 C1518 1.419 . S
C1517 C1512 1.425 . S
C1517 C1514 1.409 . S
C1517 C1515 1.415 . S
C1518 H1508 0.930 . S
C1518 C1516 1.419 . S
C1518 C1519 1.362 . S
C1519 H1509 0.930 . S
C1519 C1512 1.409 . S
C1519 C1518 1.362 . S
H1520 C1526 0.930 . S
H1521 C1529 0.930 . S
H1522 C1530 0.930 . S
H1523 C1531 0.930 . S
H1524 C1534 0.930 . S
H1525 C1535 0.930 . S
C1526 H1520 0.930 . S
C1526 C1527 1.355 . S
C1526 C1528 1.415 . S
C1527 C1526 1.355 . S
C1527 C1529 1.419 . S
C1528 C1526 1.415 . S
C1528 C1533 1.425 . S
C1528 C1535 1.409 . S
C1529 H1521 0.930 . S
C1529 C1527 1.419 . S
C1529 C1530 1.362 . S
C1530 H1522 0.930 . S
C1530 C1529 1.362 . S
C1530 C1533 1.409 . S
C1531 H1523 0.930 . S
C1531 C1532 1.355 . S
C1531 C1533 1.415 . S
C1532 C1531 1.355 . S
C1532 C1534 1.419 . S
C1533 C1528 1.425 . S
C1533 C1530 1.409 . S
C1533 C1531 1.415 . S
C1534 H1524 0.930 . S
C1534 C1532 1.419 . S
C1534 C1535 1.362 . S
C1535 H1525 0.930 . S
C1535 C1528 1.409 . S
C1535 C1534 1.362 . S
H1536 C1542 0.930 . S
H1537 C1545 0.930 . S
H1538 C1546 0.930 . S
H1539 C1547 0.930 . S
H1540 C1550 0.930 . S
H1541 C1551 0.930 . S
C1542 H1536 0.930 . S
C1542 C1543 1.355 . S
C1542 C1544 1.415 . S
C1543 C1542 1.355 . S
C1543 C1545 1.419 . S
C1544 C1542 1.415 . S
C1544 C1549 1.425 . S
C1544 C1551 1.409 . S
C1545 H1537 0.930 . S
C1545 C1543 1.419 . S
C1545 C1546 1.362 . S
C1546 H1538 0.930 . S
C1546 C1545 1.362 . S
C1546 C1549 1.409 . S
C1547 H1539 0.930 . S
C1547 C1548 1.355 . S
C1547 C1549 1.415 . S
C1548 C1547 1.355 . S
C1548 C1550 1.419 . S
C1549 C1544 1.425 . S
C1549 C1546 1.409 . S
C1549 C1547 1.415 . S
C1550 H1540 0.930 . S
C1550 C1548 1.419 . S
C1550 C1551 1.362 . S
C1551 H1541 0.930 . S
C1551 C1544 1.409 . S
C1551 C1550 1.362 . S
H1552 C1558 0.930 . S
H1553 C1561 0.930 . S
H1554 C1562 0.930 . S
H1555 C1563 0.930 . S
H1556 C1566 0.930 . S
H1557 C1567 0.930 . S
C1558 H1552 0.930 . S
C1558 C1559 1.355 . S
C1558 C1560 1.415 . S
C1559 C1558 1.355 . S
C1559 C1561 1.419 . S
C1560 C1558 1.415 . S
C1560 C1565 1.425 . S
C1560 C1567 1.409 . S
C1561 H1553 0.930 . S
C1561 C1559 1.419 . S
C1561 C1562 1.362 . S
C1562 H1554 0.930 . S
C1562 C1561 1.362 . S
C1562 C1565 1.409 . S
C1563 H1555 0.930 . S
C1563 C1564 1.355 . S
C1563 C1565 1.415 . S
C1564 C1563 1.355 . S
C1564 C1566 1.419 . S
C1565 C1560 1.425 . S
C1565 C1562 1.409 . S
C1565 C1563 1.415 . S
C1566 H1556 0.930 . S
C1566 C1564 1.419 . S
C1566 C1567 1.362 . S
C1567 H1557 0.930 . S
C1567 C1560 1.409 . S
C1567 C1566 1.362 . S
H1568 C1574 0.930 . S
H1569 C1577 0.930 . S
H1570 C1578 0.930 . S
H1571 C1579 0.930 . S
H1572 C1582 0.930 . S
H1573 C1583 0.930 . S
C1574 H1568 0.930 . S
C1574 C1575 1.355 . S
C1574 C1576 1.415 . S
C1575 C1574 1.355 . S
C1575 C1577 1.419 . S
C1576 C1574 1.415 . S
C1576 C1581 1.425 . S
C1576 C1583 1.409 . S
C1577 H1569 0.930 . S
C1577 C1575 1.419 . S
C1577 C1578 1.362 . S
C1578 H1570 0.930 . S
C1578 C1577 1.362 . S
C1578 C1581 1.409 . S
C1579 H1571 0.930 . S
C1579 C1580 1.355 . S
C1579 C1581 1.415 . S
C1580 C1579 1.355 . S
C1580 C1582 1.419 . S
C1581 C1576 1.425 . S
C1581 C1578 1.409 . S
C1581 C1579 1.415 . S
C1582 H1572 0.930 . S
C1582 C1580 1.419 . S
C1582 C1583 1.362 . S
C1583 H1573 0.930 . S
C1583 C1576 1.409 . S
C1583 C1582 1.362 . S
H1584 C1590 0.930 . S
H1585 C1593 0.930 . S
H1586 C1594 0.930 . S
H1587 C1595 0.930 . S
H1588 C1598 0.930 . S
H1589 C1599 0.930 . S
C1590 H1584 0.930 . S
C1590 C1591 1.355 . S
C1590 C1592 1.415 . S
C1591 C1590 1.355 . S
C1591 C1593 1.419 . S
C1592 C1590 1.415 . S
C1592 C1597 1.425 . S
C1592 C1599 1.409 . S
C1593 H1585 0.930 . S
C1593 C1591 1.419 . S
C1593 C1594 1.362 . S
C1594 H1586 0.930 . S
C1594 C1593 1.362 . S
C1594 C1597 1.409 . S
C1595 H1587 0.930 . S
C1595 C1596 1.355 . S
C1595 C1597 1.415 . S
C1596 C1595 1.355 . S
C1596 C1598 1.419 . S
C1597 C1592 1.425 . S
C1597 C1594 1.409 . S
C1597 C1595 1.415 . S
C1598 H1588 0.930 . S
C1598 C1596 1.419 . S
C1598 C1599 1.362 . S
C1599 H1589 0.930 . S
C1599 C1592 1.409 . S
C1599 C1598 1.362 . S
H1600 C1606 0.930 . S
H1601 C1609 0.930 . S
H1602 C1610 0.930 . S
H1603 C1611 0.930 . S
H1604 C1614 0.930 . S
H1605 C1615 0.930 . S
C1606 H1600 0.930 . S
C1606 C1607 1.355 . S
C1606 C1608 1.415 . S
C1607 C1606 1.355 . S
C1607 C1609 1.419 . S
C1608 C1606 1.415 . S
C1608 C1613 1.425 . S
C1608 C1615 1.409 . S
C1609 H1601 0.930 . S
C1609 C1607 1.419 . S
C1609 C1610 1.362 . S
C1610 H1602 0.930 . S
C1610 C1609 1.362 . S
C1610 C1613 1.409 . S
C1611 H1603 0.930 . S
C1611 C1612 1.355 . S
C1611 C1613 1.415 . S
C1612 C1611 1.355 . S
C1612 C1614 1.419 . S
C1613 C1608 1.425 . S
C1613 C1610 1.409 . S
C1613 C1611 1.415 . S
C1614 H1604 0.930 . S
C1614 C1612 1.419 . S
C1614 C1615 1.362 . S
C1615 H1605 0.930 . S
C1615 C1608 1.409 . S
C1615 C1614 1.362 . S
H1616 C1622 0.930 . S
H1617 C1625 0.930 . S
H1618 C1626 0.930 . S
H1619 C1627 0.930 . S
H1620 C1630 0.930 . S
H1621 C1631 0.930 . S
C1622 H1616 0.930 . S
C1622 C1623 1.355 . S
C1622 C1624 1.415 . S
C1623 C1622 1.355 . S
C1623 C1625 1.419 . S
C1624 C1622 1.415 . S
C1624 C1629 1.425 . S
C1624 C1631 1.409 . S
C1625 H1617 0.930 . S
C1625 C1623 1.419 . S
C1625 C1626 1.362 . S
C1626 H1618 0.930 . S
C1626 C1625 1.362 . S
C1626 C1629 1.409 . S
C1627 H1619 0.930 . S
C1627 C1628 1.355 . S
C1627 C1629 1.415 . S
C1628 C1627 1.355 . S
C1628 C1630 1.419 . S
C1629 C1624 1.425 . S
C1629 C1626 1.409 . S
C1629 C1627 1.415 . S
C1630 H1620 0.930 . S
C1630 C1628 1.419 . S
C1630 C1631 1.362 . S
C1631 H1621 0.930 . S
C1631 C1624 1.409 . S
C1631 C1630 1.362 . S
H1632 C1638 0.930 . S
H1633 C1641 0.930 . S
H1634 C1642 0.930 . S
H1635 C1643 0.930 . S
H1636 C1646 0.930 . S
H1637 C1647 0.930 . S
C1638 H1632 0.930 . S
C1638 C1639 1.355 . S
C1638 C1640 1.415 . S
C1639 C1638 1.355 . S
C1639 C1641 1.419 . S
C1640 C1638 1.415 . S
C1640 C1645 1.425 . S
C1640 C1647 1.409 . S
C1641 H1633 0.930 . S
C1641 C1639 1.419 . S
C1641 C1642 1.362 . S
C1642 H1634 0.930 . S
C1642 C1641 1.362 . S
C1642 C1645 1.409 . S
C1643 H1635 0.930 . S
C1643 C1644 1.355 . S
C1643 C1645 1.415 . S
C1644 C1643 1.355 . S
C1644 C1646 1.419 . S
C1645 C1640 1.425 . S
C1645 C1642 1.409 . S
C1645 C1643 1.415 . S
C1646 H1636 0.930 . S
C1646 C1644 1.419 . S
C1646 C1647 1.362 . S
C1647 H1637 0.930 . S
C1647 C1640 1.409 . S
C1647 C1646 1.362 . S
H1648 C1654 0.930 . S
H1649 C1657 0.930 . S
H1650 C1658 0.930 . S
H1651 C1659 0.930 . S
H1652 C1662 0.930 . S
H1653 C1663 0.930 . S
C1654 H1648 0.930 . S
C1654 C1655 1.355 . S
C1654 C1656 1.415 . S
C1655 C1654 1.355 . S
C1655 C1657 1.419 . S
C1656 C1654 1.415 . S
C1656 C1661 1.425 . S
C1656 C1663 1.409 . S
C1657 H1649 0.930 . S
C1657 C1655 1.419 . S
C1657 C1658 1.362 . S
C1658 H1650 0.930 . S
C1658 C1657 1.362 . S
C1658 C1661 1.409 . S
C1659 H1651 0.930 . S
C1659 C1660 1.355 . S
C1659 C1661 1.415 . S
C1660 C1659 1.355 . S
C1660 C1662 1.419 . S
C1661 C1656 1.425 . S
C1661 C1658 1.409 . S
C1661 C1659 1.415 . S
C1662 H1652 0.930 . S
C1662 C1660 1.419 . S
C1662 C1663 1.362 . S
C1663 H1653 0.930 . S
C1663 C1656 1.409 . S
C1663 C1662 1.362 . S
H1664 C1670 0.930 . S
H1665 C1673 0.930 . S
H1666 C1674 0.930 . S
H1667 C1675 0.930 . S
H1668 C1678 0.930 . S
H1669 C1679 0.930 . S
C1670 H1664 0.930 . S
C1670 C1671 1.355 . S
C1670 C1672 1.415 . S
C1671 C1670 1.355 . S
C1671 C1673 1.419 . S
C1672 C1670 1.415 . S
C1672 C1677 1.425 . S
C1672 C1679 1.409 . S
C1673 H1665 0.930 . S
C1673 C1671 1.419 . S
C1673 C1674 1.362 . S
C1674 H1666 0.930 . S
C1674 C1673 1.362 . S
C1674 C1677 1.409 . S
C1675 H1667 0.930 . S
C1675 C1676 1.355 . S
C1675 C1677 1.415 . S
C1676 C1675 1.355 . S
C1676 C1678 1.419 . S
C1677 C1672 1.425 . S
C1677 C1674 1.409 . S
C1677 C1675 1.415 . S
C1678 H1668 0.930 . S
C1678 C1676 1.419 . S
C1678 C1679 1.362 . S
C1679 H1669 0.930 . S
C1679 C1672 1.409 . S
C1679 C1678 1.362 . S
H1680 C1686 0.930 . S
H1681 C1689 0.930 . S
H1682 C1690 0.930 . S
H1683 C1691 0.930 . S
H1684 C1694 0.930 . S
H1685 C1695 0.930 . S
C1686 H1680 0.930 . S
C1686 C1687 1.355 . S
C1686 C1688 1.415 . S
C1687 C1686 1.355 . S
C1687 C1689 1.419 . S
C1688 C1686 1.415 . S
C1688 C1693 1.425 . S
C1688 C1695 1.409 . S
C1689 H1681 0.930 . S
C1689 C1687 1.419 . S
C1689 C1690 1.362 . S
C1690 H1682 0.930 . S
C1690 C1689 1.362 . S
C1690 C1693 1.409 . S
C1691 H1683 0.930 . S
C1691 C1692 1.355 . S
C1691 C1693 1.415 . S
C1692 C1691 1.355 . S
C1692 C1694 1.419 . S
C1693 C1688 1.425 . S
C1693 C1690 1.409 . S
C1693 C1691 1.415 . S
C1694 H1684 0.930 . S
C1694 C1692 1.419 . S
C1694 C1695 1.362 . S
C1695 H1685 0.930 . S
C1695 C1688 1.409 . S
C1695 C1694 1.362 . S
H1696 C1702 0.930 . S
H1697 C1705 0.930 . S
H1698 C1706 0.930 . S
H1699 C1707 0.930 . S
H1700 C1710 0.930 . S
H1701 C1711 0.930 . S
C1702 H1696 0.930 . S
C1702 C1703 1.355 . S
C1702 C1704 1.415 . S
C1703 C1702 1.355 . S
C1703 C1705 1.419 . S
C1704 C1702 1.415 . S
C1704 C1709 1.425 . S
C1704 C1711 1.409 . S
C1705 H1697 0.930 . S
C1705 C1703 1.419 . S
C1705 C1706 1.362 . S
C1706 H1698 0.930 . S
C1706 C1705 1.362 . S
C1706 C1709 1.409 . S
C1707 H1699 0.930 . S
C1707 C1708 1.355 . S
C1707 C1709 1.415 . S
C1708 C1707 1.355 . S
C1708 C1710 1.419 . S
C1709 C1704 1.425 . S
C1709 C1706 1.409 . S
C1709 C1707 1.415 . S
C1710 H1700 0.930 . S
C1710 C1708 1.419 . S
C1710 C1711 1.362 . S
C1711 H1701 0.930 . S
C1711 C1704 1.409 . S
C1711 C1710 1.362 . S
H1712 C1718 0.930 . S
H1713 C1721 0.930 . S
H1714 C1722 0.930 . S
H1715 C1723 0.930 . S
H1716 C1726 0.930 . S
H1717 C1727 0.930 . S
C1718 H1712 0.930 . S
C1718 C1719 1.355 . S
C1718 C1720 1.415 . S
C1719 C1718 1.355 . S
C1719 C1721 1.419 . S
C1720 C1718 1.415 . S
C1720 C1725 1.425 . S
C1720 C1727 1.409 . S
C1721 H1713 0.930 . S
C1721 C1719 1.419 . S
C1721 C1722 1.362 . S
C1722 H1714 0.930 . S
C1722 C1721 1.362 . S
C1722 C1725 1.409 . S
C1723 H1715 0.930 . S
C1723 C1724 1.355 . S
C1723 C1725 1.415 . S
C1724 C1723 1.355 . S
C1724 C1726 1.419 . S
C1725 C1720 1.425 . S
C1725 C1722 1.409 . S
C1725 C1723 1.415 . S
C1726 H1716 0.930 . S
C1726 C1724 1.419 . S
C1726 C1727 1.362 . S
C1727 H1717 0.930 . S
C1727 C1720 1.409 . S
C1727 C1726 1.362 . S
H1728 C1734 0.930 . S
H1729 C1737 0.930 . S
H1730 C1738 0.930 . S
H1731 C1739 0.930 . S
H1732 C1742 0.930 . S
H1733 C1743 0.930 1_554 S
C1734 H1728 0.930 . S
C1734 C1735 1.355 . S
C1734 C1736 1.415 . S
C1735 C1734 1.355 . S
C1735 C1737 1.419 . S
C1736 C1734 1.415 . S
C1736 C1741 1.425 . S
C1736 C1743 1.409 . S
C1737 H1729 0.930 . S
C1737 C1735 1.419 . S
C1737 C1738 1.362 . S
C1738 H1730 0.930 . S
C1738 C1737 1.362 . S
C1738 C1741 1.409 . S
C1739 H1731 0.930 . S
C1739 C1740 1.355 . S
C1739 C1741 1.415 . S
C1740 C1739 1.355 . S
C1740 C1742 1.419 . S
C1741 C1736 1.425 . S
C1741 C1738 1.409 . S
C1741 C1739 1.415 . S
C1742 H1732 0.930 . S
C1742 C1740 1.419 . S
C1742 C1743 1.362 . S
C1743 H1733 0.930 1_556 S
C1743 C1736 1.409 . S
C1743 C1742 1.362 . S
H1744 C1750 0.930 . S
H1745 C1753 0.930 . S
H1746 C1754 0.930 . S
H1747 C1755 0.930 . S
H1748 C1758 0.930 . S
H1749 C1759 0.930 . S
C1750 H1744 0.930 . S
C1750 C1751 1.355 . S
C1750 C1752 1.415 . S
C1751 C1750 1.355 . S
C1751 C1753 1.419 . S
C1752 C1750 1.415 . S
C1752 C1757 1.425 . S
C1752 C1759 1.409 . S
C1753 H1745 0.930 . S
C1753 C1751 1.419 . S
C1753 C1754 1.362 . S
C1754 H1746 0.930 . S
C1754 C1753 1.362 . S
C1754 C1757 1.409 . S
C1755 H1747 0.930 . S
C1755 C1756 1.355 . S
C1755 C1757 1.415 . S
C1756 C1755 1.355 . S
C1756 C1758 1.419 . S
C1757 C1752 1.425 . S
C1757 C1754 1.409 . S
C1757 C1755 1.415 . S
C1758 H1748 0.930 . S
C1758 C1756 1.419 . S
C1758 C1759 1.362 . S
C1759 H1749 0.930 . S
C1759 C1752 1.409 . S
C1759 C1758 1.362 . S
H1760 C1766 0.930 . S
H1761 C1769 0.930 . S
H1762 C1770 0.911 1_556 S
H1763 C1771 0.930 . S
H1764 C1774 0.930 . S
H1765 C1775 0.930 . S
C1766 H1760 0.930 . S
C1766 C1767 1.355 . S
C1766 C1768 1.415 . S
C1767 C1766 1.355 . S
C1767 C1769 1.419 . S
C1768 C1766 1.415 . S
C1768 C1773 1.425 . S
C1768 C1775 1.409 . S
C1769 H1761 0.930 . S
C1769 C1767 1.419 . S
C1769 C1770 1.362 . S
C1770 H1762 0.911 1_554 S
C1770 C1769 1.362 . S
C1770 C1773 1.409 . S
C1771 H1763 0.930 . S
C1771 C1772 1.355 . S
C1771 C1773 1.415 . S
C1772 C1771 1.355 . S
C1772 C1774 1.419 . S
C1773 C1768 1.425 . S
C1773 C1770 1.409 . S
C1773 C1771 1.415 . S
C1774 H1764 0.930 . S
C1774 C1772 1.419 . S
C1774 C1775 1.362 . S
C1775 H1765 0.930 . S
C1775 C1768 1.409 . S
C1775 C1774 1.362 . S
H1776 C1782 0.930 . S
H1777 C1785 0.930 . S
H1778 C1786 0.930 . S
H1779 C1787 0.930 . S
H1780 C1790 0.930 . S
H1781 C1791 0.930 . S
C1782 H1776 0.930 . S
C1782 C1783 1.355 . S
C1782 C1784 1.415 . S
C1783 C1782 1.355 . S
C1783 C1785 1.419 . S
C1784 C1782 1.415 . S
C1784 C1789 1.425 . S
C1784 C1791 1.409 . S
C1785 H1777 0.930 . S
C1785 C1783 1.419 . S
C1785 C1786 1.362 . S
C1786 H1778 0.930 . S
C1786 C1785 1.362 . S
C1786 C1789 1.409 . S
C1787 H1779 0.930 . S
C1787 C1788 1.355 . S
C1787 C1789 1.415 . S
C1788 C1787 1.355 . S
C1788 C1790 1.419 . S
C1789 C1784 1.425 . S
C1789 C1786 1.409 . S
C1789 C1787 1.415 . S
C1790 H1780 0.930 . S
C1790 C1788 1.419 . S
C1790 C1791 1.362 . S
C1791 H1781 0.930 . S
C1791 C1784 1.409 . S
C1791 C1790 1.362 . S
H1792 C1798 0.930 . S
H1793 C1801 0.930 . S
H1794 C1802 0.930 . S
H1795 C1803 0.930 . S
H1796 C1806 0.930 . S
H1797 C1807 0.930 . S
C1798 H1792 0.930 . S
C1798 C1799 1.355 . S
C1798 C1800 1.415 . S
C1799 C1798 1.355 . S
C1799 C1801 1.419 . S
C1800 C1798 1.415 . S
C1800 C1805 1.425 . S
C1800 C1807 1.409 . S
C1801 H1793 0.930 . S
C1801 C1799 1.419 . S
C1801 C1802 1.362 . S
C1802 H1794 0.930 . S
C1802 C1801 1.362 . S
C1802 C1805 1.409 . S
C1803 H1795 0.930 . S
C1803 C1804 1.355 . S
C1803 C1805 1.415 . S
C1804 C1803 1.355 . S
C1804 C1806 1.419 . S
C1805 C1800 1.425 . S
C1805 C1802 1.409 . S
C1805 C1803 1.415 . S
C1806 H1796 0.930 . S
C1806 C1804 1.419 . S
C1806 C1807 1.362 . S
C1807 H1797 0.930 . S
C1807 C1800 1.409 . S
C1807 C1806 1.362 . S
H1808 C1814 0.930 . S
H1809 C1817 0.930 . S
H1810 C1818 0.930 . S
H1811 C1819 0.930 . S
H1812 C1822 0.930 . S
H1813 C1823 0.930 . S
C1814 H1808 0.930 . S
C1814 C1815 1.355 . S
C1814 C1816 1.415 . S
C1815 C1814 1.355 . S
C1815 C1817 1.419 . S
C1816 C1814 1.415 . S
C1816 C1821 1.425 . S
C1816 C1823 1.409 . S
C1817 H1809 0.930 . S
C1817 C1815 1.419 . S
C1817 C1818 1.362 . S
C1818 H1810 0.930 . S
C1818 C1817 1.362 . S
C1818 C1821 1.409 . S
C1819 H1811 0.930 . S
C1819 C1820 1.355 . S
C1819 C1821 1.415 . S
C1820 C1819 1.355 . S
C1820 C1822 1.419 . S
C1821 C1816 1.425 . S
C1821 C1818 1.409 . S
C1821 C1819 1.415 . S
C1822 H1812 0.930 . S
C1822 C1820 1.419 . S
C1822 C1823 1.362 . S
C1823 H1813 0.930 . S
C1823 C1816 1.409 . S
C1823 C1822 1.362 . S
H1824 C1830 0.930 . S
H1825 C1833 0.930 . S
H1826 C1834 0.930 . S
H1827 C1835 0.930 . S
H1828 C1838 0.930 . S
H1829 C1839 0.930 . S
C1830 H1824 0.930 . S
C1830 C1831 1.355 . S
C1830 C1832 1.415 . S
C1831 C1830 1.355 . S
C1831 C1833 1.419 . S
C1832 C1830 1.415 . S
C1832 C1837 1.425 . S
C1832 C1839 1.409 . S
C1833 H1825 0.930 . S
C1833 C1831 1.419 . S
C1833 C1834 1.362 . S
C1834 H1826 0.930 . S
C1834 C1833 1.362 . S
C1834 C1837 1.409 . S
C1835 H1827 0.930 . S
C1835 C1836 1.355 . S
C1835 C1837 1.415 . S
C1836 C1835 1.355 . S
C1836 C1838 1.419 . S
C1837 C1832 1.425 . S
C1837 C1834 1.409 . S
C1837 C1835 1.415 . S
C1838 H1828 0.930 . S
C1838 C1836 1.419 . S
C1838 C1839 1.362 . S
C1839 H1829 0.930 . S
C1839 C1832 1.409 . S
C1839 C1838 1.362 . S
H1840 C1846 0.930 . S
H1841 C1849 0.930 . S
H1842 C1850 0.930 . S
H1843 C1851 0.930 . S
H1844 C1854 0.930 . S
H1845 C1855 0.930 . S
C1846 H1840 0.930 . S
C1846 C1847 1.355 . S
C1846 C1848 1.415 . S
C1847 C1846 1.355 . S
C1847 C1849 1.419 . S
C1848 C1846 1.415 . S
C1848 C1853 1.425 . S
C1848 C1855 1.409 . S
C1849 H1841 0.930 . S
C1849 C1847 1.419 . S
C1849 C1850 1.362 . S
C1850 H1842 0.930 . S
C1850 C1849 1.362 . S
C1850 C1853 1.409 . S
C1851 H1843 0.930 . S
C1851 C1852 1.355 . S
C1851 C1853 1.415 . S
C1852 C1851 1.355 . S
C1852 C1854 1.419 . S
C1853 C1848 1.425 . S
C1853 C1850 1.409 . S
C1853 C1851 1.415 . S
C1854 H1844 0.930 . S
C1854 C1852 1.419 . S
C1854 C1855 1.362 . S
C1855 H1845 0.930 . S
C1855 C1848 1.409 . S
C1855 C1854 1.362 . S
H1856 C1862 0.926 1_655 S
H1857 C1865 0.930 . S
H1858 C1866 0.930 . S
H1859 C1867 0.936 . S
H1860 C1870 0.930 1_565 S
H1861 C1871 0.930 . S
C1862 H1856 0.926 1_455 S
C1862 C1863 1.361 . S
C1862 C1864 1.413 1_455 S
C1863 C1862 1.361 . S
C1863 C1865 1.419 . S
C1864 C1862 1.413 1_655 S
C1864 C1869 1.425 1_655 S
C1864 C1871 1.409 . S
C1865 H1857 0.930 . S
C1865 C1863 1.419 . S
C1865 C1866 1.362 . S
C1866 H1858 0.930 . S
C1866 C1865 1.362 . S
C1866 C1869 1.409 . S
C1867 H1859 0.936 . S
C1867 C1868 1.346 1_455 S
C1867 C1869 1.418 . S
C1868 C1867 1.346 1_655 S
C1868 C1870 1.419 . S
C1869 C1864 1.425 1_455 S
C1869 C1866 1.409 . S
C1869 C1867 1.418 . S
C1870 H1860 0.930 1_545 S
C1870 C1868 1.419 . S
C1870 C1871 1.362 . S
C1871 H1861 0.930 . S
C1871 C1864 1.409 . S
C1871 C1870 1.362 . S
H1872 C1878 0.930 . S
H1873 C1881 0.930 . S
H1874 C1882 0.930 . S
H1875 C1883 0.930 . S
H1876 C1886 0.930 . S
H1877 C1887 0.930 . S
C1878 H1872 0.930 . S
C1878 C1879 1.355 . S
C1878 C1880 1.415 . S
C1879 C1878 1.355 . S
C1879 C1881 1.419 . S
C1880 C1878 1.415 . S
C1880 C1885 1.425 . S
C1880 C1887 1.409 . S
C1881 H1873 0.930 . S
C1881 C1879 1.419 . S
C1881 C1882 1.362 . S
C1882 H1874 0.930 . S
C1882 C1881 1.362 . S
C1882 C1885 1.409 . S
C1883 H1875 0.930 . S
C1883 C1884 1.355 . S
C1883 C1885 1.415 . S
C1884 C1883 1.355 . S
C1884 C1886 1.419 . S
C1885 C1880 1.425 . S
C1885 C1882 1.409 . S
C1885 C1883 1.415 . S
C1886 H1876 0.930 . S
C1886 C1884 1.419 . S
C1886 C1887 1.362 . S
C1887 H1877 0.930 . S
C1887 C1880 1.409 . S
C1887 C1886 1.362 . S
H1888 C1894 0.930 . S
H1889 C1897 0.930 . S
H1890 C1898 0.930 . S
H1891 C1899 0.930 . S
H1892 C1902 0.930 . S
H1893 C1903 0.930 . S
C1894 H1888 0.930 . S
C1894 C1895 1.355 1_455 S
C1894 C1896 1.415 . S
C1895 C1894 1.355 1_655 S
C1895 C1897 1.419 . S
C1896 C1894 1.415 . S
C1896 C1901 1.425 1_455 S
C1896 C1903 1.409 . S
C1897 H1889 0.930 . S
C1897 C1895 1.419 . S
C1897 C1898 1.362 . S
C1898 H1890 0.930 . S
C1898 C1897 1.362 . S
C1898 C1901 1.409 . S
C1899 H1891 0.930 . S
C1899 C1900 1.355 1_655 S
C1899 C1901 1.415 . S
C1900 C1899 1.355 1_455 S
C1900 C1902 1.419 . S
C1901 C1896 1.425 1_655 S
C1901 C1898 1.409 . S
C1901 C1899 1.415 . S
C1902 H1892 0.930 . S
C1902 C1900 1.419 . S
C1902 C1903 1.362 . S
C1903 H1893 0.930 . S
C1903 C1896 1.409 . S
C1903 C1902 1.362 . S
H1904 C1910 0.930 . S
H1905 C1913 0.930 . S
H1906 C1914 0.930 . S
H1907 C1915 0.930 . S
H1908 C1918 0.935 . S
H1909 C1919 0.930 . S
C1910 H1904 0.930 . S
C1910 C1911 1.355 . S
C1910 C1912 1.415 . S
C1911 C1910 1.355 . S
C1911 C1913 1.419 . S
C1912 C1910 1.415 . S
C1912 C1917 1.425 . S
C1912 C1919 1.409 . S
C1913 H1905 0.930 . S
C1913 C1911 1.419 . S
C1913 C1914 1.362 . S
C1914 H1906 0.930 . S
C1914 C1913 1.362 . S
C1914 C1917 1.409 . S
C1915 H1907 0.930 . S
C1915 C1916 1.355 . S
C1915 C1917 1.415 . S
C1916 C1915 1.355 . S
C1916 C1918 1.419 . S
C1917 C1912 1.425 . S
C1917 C1914 1.409 . S
C1917 C1915 1.415 . S
C1918 H1908 0.935 . S
C1918 C1916 1.419 . S
C1918 C1919 1.362 . S
C1919 H1909 0.930 . S
C1919 C1912 1.409 . S
C1919 C1918 1.362 . S
H1920 C1926 0.930 . S
H1921 C1929 0.930 1_545 S
H1922 C1930 0.930 . S
H1923 C1931 0.930 . S
H1924 C1934 0.930 . S
H1925 C1935 0.930 . S
C1926 H1920 0.930 . S
C1926 C1927 1.355 1_655 S
C1926 C1928 1.415 . S
C1927 C1926 1.355 1_455 S
C1927 C1929 1.419 . S
C1928 C1926 1.415 . S
C1928 C1933 1.425 1_655 S
C1928 C1935 1.409 . S
C1929 H1921 0.930 1_565 S
C1929 C1927 1.419 . S
C1929 C1930 1.362 . S
C1930 H1922 0.930 . S
C1930 C1929 1.362 . S
C1930 C1933 1.409 . S
C1931 H1923 0.930 . S
C1931 C1932 1.355 1_455 S
C1931 C1933 1.415 . S
C1932 C1931 1.355 1_655 S
C1932 C1934 1.419 . S
C1933 C1928 1.425 1_455 S
C1933 C1930 1.409 . S
C1933 C1931 1.415 . S
C1934 H1924 0.930 . S
C1934 C1932 1.419 . S
C1934 C1935 1.362 . S
C1935 H1925 0.930 . S
C1935 C1928 1.409 . S
C1935 C1934 1.362 . S
H1936 C1942 0.930 . S
H1937 C1945 0.930 . S
H1938 C1946 0.930 . S
H1939 C1947 0.930 . S
H1940 C1950 0.930 . S
H1941 C1951 0.930 . S
C1942 H1936 0.930 . S
C1942 C1943 1.355 . S
C1942 C1944 1.415 . S
C1943 C1942 1.355 . S
C1943 C1945 1.419 . S
C1944 C1942 1.415 . S
C1944 C1949 1.425 . S
C1944 C1951 1.409 . S
C1945 H1937 0.930 . S
C1945 C1943 1.419 . S
C1945 C1946 1.362 . S
C1946 H1938 0.930 . S
C1946 C1945 1.362 . S
C1946 C1949 1.409 . S
C1947 H1939 0.930 . S
C1947 C1948 1.355 . S
C1947 C1949 1.415 . S
C1948 C1947 1.355 . S
C1948 C1950 1.419 . S
C1949 C1944 1.425 . S
C1949 C1946 1.409 . S
C1949 C1947 1.415 . S
C1950 H1940 0.930 . S
C1950 C1948 1.419 . S
C1950 C1951 1.362 . S
C1951 H1941 0.930 . S
C1951 C1944 1.409 . S
C1951 C1950 1.362 . S
H1952 C1958 0.930 . S
H1953 C1961 0.930 . S
H1954 C1962 0.930 . S
H1955 C1963 0.930 . S
H1956 C1966 0.930 . S
H1957 C1967 0.930 . S
C1958 H1952 0.930 . S
C1958 C1959 1.355 1_655 S
C1958 C1960 1.415 . S
C1959 C1958 1.355 1_455 S
C1959 C1961 1.419 . S
C1960 C1958 1.415 . S
C1960 C1965 1.425 1_655 S
C1960 C1967 1.409 . S
C1961 H1953 0.930 . S
C1961 C1959 1.419 . S
C1961 C1962 1.362 . S
C1962 H1954 0.930 . S
C1962 C1961 1.362 . S
C1962 C1965 1.409 . S
C1963 H1955 0.930 . S
C1963 C1964 1.355 1_455 S
C1963 C1965 1.415 . S
C1964 C1963 1.355 1_655 S
C1964 C1966 1.419 . S
C1965 C1960 1.425 1_455 S
C1965 C1962 1.409 . S
C1965 C1963 1.415 . S
C1966 H1956 0.930 . S
C1966 C1964 1.419 . S
C1966 C1967 1.362 . S
C1967 H1957 0.930 . S
C1967 C1960 1.409 . S
C1967 C1966 1.362 . S
H1968 C1974 0.930 . S
H1969 C1977 0.930 1_556 S
H1970 C1978 0.930 . S
H1971 C1979 0.930 . S
H1972 C1982 0.930 . S
H1973 C1983 0.930 . S
C1974 H1968 0.930 . S
C1974 C1975 1.355 . S
C1974 C1976 1.415 . S
C1975 C1974 1.355 . S
C1975 C1977 1.419 . S
C1976 C1974 1.415 . S
C1976 C1981 1.425 . S
C1976 C1983 1.409 . S
C1977 H1969 0.930 1_554 S
C1977 C1975 1.419 . S
C1977 C1978 1.362 . S
C1978 H1970 0.930 . S
C1978 C1977 1.362 . S
C1978 C1981 1.409 . S
C1979 H1971 0.930 . S
C1979 C1980 1.355 . S
C1979 C1981 1.415 . S
C1980 C1979 1.355 . S
C1980 C1982 1.419 . S
C1981 C1976 1.425 . S
C1981 C1978 1.409 . S
C1981 C1979 1.415 . S
C1982 H1972 0.930 . S
C1982 C1980 1.419 . S
C1982 C1983 1.362 . S
C1983 H1973 0.930 . S
C1983 C1976 1.409 . S
C1983 C1982 1.362 . S
H1984 C1990 0.930 . S
H1985 C1993 0.930 . S
H1986 C1994 0.930 . S
H1987 C1995 0.930 . S
H1988 C1998 0.930 . S
H1989 C1999 0.930 . S
C1990 H1984 0.930 . S
C1990 C1991 1.355 1_455 S
C1990 C1992 1.415 . S
C1991 C1990 1.355 1_655 S
C1991 C1993 1.419 . S
C1992 C1990 1.415 . S
C1992 C1997 1.425 1_455 S
C1992 C1999 1.409 . S
C1993 H1985 0.930 . S
C1993 C1991 1.419 . S
C1993 C1994 1.362 . S
C1994 H1986 0.930 . S
C1994 C1993 1.362 . S
C1994 C1997 1.409 . S
C1995 H1987 0.930 . S
C1995 C1996 1.355 1_655 S
C1995 C1997 1.415 . S
C1996 C1995 1.355 1_455 S
C1996 C1998 1.419 . S
C1997 C1992 1.425 1_655 S
C1997 C1994 1.409 . S
C1997 C1995 1.415 . S
C1998 H1988 0.930 . S
C1998 C1996 1.419 . S
C1998 C1999 1.362 . S
C1999 H1989 0.930 . S
C1999 C1992 1.409 . S
C1999 C1998 1.362 . S
H2000 C2006 0.930 . S
H2001 C2009 0.930 . S
H2002 C2010 0.930 . S
H2003 C2011 0.930 . S
H2004 C2014 0.930 . S
H2005 C2015 0.930 . S
C2006 H2000 0.930 . S
C2006 C2007 1.355 . S
C2006 C2008 1.415 . S
C2007 C2006 1.355 . S
C2007 C2009 1.419 . S
C2008 C2006 1.415 . S
C2008 C2013 1.425 . S
C2008 C2015 1.409 . S
C2009 H2001 0.930 . S
C2009 C2007 1.419 . S
C2009 C2010 1.362 . S
C2010 H2002 0.930 . S
C2010 C2009 1.362 . S
C2010 C2013 1.409 . S
C2011 H2003 0.930 . S
C2011 C2012 1.355 . S
C2011 C2013 1.415 . S
C2012 C2011 1.355 . S
C2012 C2014 1.419 . S
C2013 C2008 1.425 . S
C2013 C2010 1.409 . S
C2013 C2011 1.415 . S
C2014 H2004 0.930 . S
C2014 C2012 1.419 . S
C2014 C2015 1.362 . S
C2015 H2005 0.930 . S
C2015 C2008 1.409 . S
C2015 C2014 1.362 . S
H2016 C2022 0.923 1_455 S
H2017 C2025 0.930 . S
H2018 C2026 0.930 . S
H2019 C2027 0.922 1_655 S
H2020 C2030 0.930 . S
H2021 C2031 0.930 . S
C2022 H2016 0.923 1_655 S
C2022 C2023 1.369 . S
C2022 C2024 1.409 1_655 S
C2023 C2022 1.369 . S
C2023 C2025 1.419 . S
C2024 C2022 1.409 1_455 S
C2024 C2029 1.425 1_455 S
C2024 C2031 1.409 . S
C2025 H2017 0.930 . S
C2025 C2023 1.419 . S
C2025 C2026 1.362 . S
C2026 H2018 0.930 . S
C2026 C2025 1.362 . S
C2026 C2029 1.409 . S
C2027 H2019 0.922 1_455 S
C2027 C2028 1.355 . S
C2027 C2029 1.415 1_455 S
C2028 C2027 1.355 . S
C2028 C2030 1.419 . S
C2029 C2024 1.425 1_655 S
C2029 C2026 1.409 . S
C2029 C2027 1.415 1_655 S
C2030 H2020 0.930 . S
C2030 C2028 1.419 . S
C2030 C2031 1.362 . S
C2031 H2021 0.930 . S
C2031 C2024 1.409 . S
C2031 C2030 1.362 . S
H2032 C2038 0.930 . S
H2033 C2041 0.930 . S
H2034 C2042 0.930 . S
H2035 C2043 0.930 . S
H2036 C2046 0.930 . S
H2037 C2047 0.930 . S
C2038 H2032 0.930 . S
C2038 C2039 1.355 . S
C2038 C2040 1.415 . S
C2039 C2038 1.355 . S
C2039 C2041 1.419 . S
C2040 C2038 1.415 . S
C2040 C2045 1.425 . S
C2040 C2047 1.409 . S
C2041 H2033 0.930 . S
C2041 C2039 1.419 . S
C2041 C2042 1.362 . S
C2042 H2034 0.930 . S
C2042 C2041 1.362 . S
C2042 C2045 1.409 . S
C2043 H2035 0.930 . S
C2043 C2044 1.355 . S
C2043 C2045 1.415 . S
C2044 C2043 1.355 . S
C2044 C2046 1.419 . S
C2045 C2040 1.425 . S
C2045 C2042 1.409 . S
C2045 C2043 1.415 . S
C2046 H2036 0.930 . S
C2046 C2044 1.419 . S
C2046 C2047 1.362 . S
C2047 H2037 0.930 . S
C2047 C2040 1.409 . S
C2047 C2046 1.362 . S
H2048 C2054 0.930 . S
H2049 C2057 0.930 . S
H2050 C2058 0.930 . S
H2051 C2059 0.930 . S
H2052 C2062 0.930 . S
H2053 C2063 0.930 . S
C2054 H2048 0.930 . S
C2054 C2055 1.355 . S
C2054 C2056 1.415 . S
C2055 C2054 1.355 . S
C2055 C2057 1.419 1_655 S
C2056 C2054 1.415 . S
C2056 C2061 1.425 1_655 S
C2056 C2063 1.409 . S
C2057 H2049 0.930 . S
C2057 C2055 1.419 1_455 S
C2057 C2058 1.362 . S
C2058 H2050 0.930 . S
C2058 C2057 1.362 . S
C2058 C2061 1.409 . S
C2059 H2051 0.930 . S
C2059 C2060 1.355 . S
C2059 C2061 1.415 . S
C2060 C2059 1.355 . S
C2060 C2062 1.419 1_455 S
C2061 C2056 1.425 1_455 S
C2061 C2058 1.409 . S
C2061 C2059 1.415 . S
C2062 H2052 0.930 . S
C2062 C2060 1.419 1_655 S
C2062 C2063 1.362 . S
C2063 H2053 0.930 . S
C2063 C2056 1.409 . S
C2063 C2062 1.362 . S
H2064 C2070 0.930 . S
H2065 C2073 0.930 . S
H2066 C2074 0.930 . S
H2067 C2075 0.930 . S
H2068 C2078 0.930 . S
H2069 C2079 0.930 . S
C2070 H2064 0.930 . S
C2070 C2071 1.355 . S
C2070 C2072 1.415 . S
C2071 C2070 1.355 . S
C2071 C2073 1.419 . S
C2072 C2070 1.415 . S
C2072 C2077 1.425 . S
C2072 C2079 1.409 . S
C2073 H2065 0.930 . S
C2073 C2071 1.419 . S
C2073 C2074 1.362 . S
C2074 H2066 0.930 . S
C2074 C2073 1.362 . S
C2074 C2077 1.409 . S
C2075 H2067 0.930 . S
C2075 C2076 1.355 . S
C2075 C2077 1.415 . S
C2076 C2075 1.355 . S
C2076 C2078 1.419 . S
C2077 C2072 1.425 . S
C2077 C2074 1.409 . S
C2077 C2075 1.415 . S
C2078 H2068 0.930 . S
C2078 C2076 1.419 . S
C2078 C2079 1.362 . S
C2079 H2069 0.930 . S
C2079 C2072 1.409 . S
C2079 C2078 1.362 . S
H2080 C2086 0.930 . S
H2081 C2089 0.930 . S
H2082 C2090 0.930 . S
H2083 C2091 0.930 . S
H2084 C2094 0.930 . S
H2085 C2095 0.930 . S
C2086 H2080 0.930 . S
C2086 C2087 1.355 1_655 S
C2086 C2088 1.415 . S
C2087 C2086 1.355 1_455 S
C2087 C2089 1.419 . S
C2088 C2086 1.415 . S
C2088 C2093 1.425 1_655 S
C2088 C2095 1.409 . S
C2089 H2081 0.930 . S
C2089 C2087 1.419 . S
C2089 C2090 1.362 . S
C2090 H2082 0.930 . S
C2090 C2089 1.362 . S
C2090 C2093 1.409 . S
C2091 H2083 0.930 . S
C2091 C2092 1.355 1_455 S
C2091 C2093 1.415 . S
C2092 C2091 1.355 1_655 S
C2092 C2094 1.419 . S
C2093 C2088 1.425 1_455 S
C2093 C2090 1.409 . S
C2093 C2091 1.415 . S
C2094 H2084 0.930 . S
C2094 C2092 1.419 . S
C2094 C2095 1.362 . S
C2095 H2085 0.930 . S
C2095 C2088 1.409 . S
C2095 C2094 1.362 . S
H2096 C2102 0.930 . S
H2097 C2105 0.930 . S
H2098 C2106 0.930 . S
H2099 C2107 0.930 . S
H2100 C2110 0.930 . S
H2101 C2111 0.930 . S
C2102 H2096 0.930 . S
C2102 C2103 1.355 . S
C2102 C2104 1.415 . S
C2103 C2102 1.355 . S
C2103 C2105 1.419 . S
C2104 C2102 1.415 . S
C2104 C2109 1.425 . S
C2104 C2111 1.409 . S
C2105 H2097 0.930 . S
C2105 C2103 1.419 . S
C2105 C2106 1.362 . S
C2106 H2098 0.930 . S
C2106 C2105 1.362 . S
C2106 C2109 1.409 . S
C2107 H2099 0.930 . S
C2107 C2108 1.355 . S
C2107 C2109 1.415 . S
C2108 C2107 1.355 . S
C2108 C2110 1.419 . S
C2109 C2104 1.425 . S
C2109 C2106 1.409 . S
C2109 C2107 1.415 . S
C2110 H2100 0.930 . S
C2110 C2108 1.419 . S
C2110 C2111 1.362 . S
C2111 H2101 0.930 . S
C2111 C2104 1.409 . S
C2111 C2110 1.362 . S
H2112 C2118 0.930 . S
H2113 C2121 0.930 . S
H2114 C2122 0.930 . S
H2115 C2123 0.930 . S
H2116 C2126 0.930 . S
H2117 C2127 0.930 . S
C2118 H2112 0.930 . S
C2118 C2119 1.355 . S
C2118 C2120 1.415 . S
C2119 C2118 1.355 . S
C2119 C2121 1.419 . S
C2120 C2118 1.415 . S
C2120 C2125 1.425 . S
C2120 C2127 1.409 . S
C2121 H2113 0.930 . S
C2121 C2119 1.419 . S
C2121 C2122 1.362 . S
C2122 H2114 0.930 . S
C2122 C2121 1.362 . S
C2122 C2125 1.409 . S
C2123 H2115 0.930 . S
C2123 C2124 1.355 . S
C2123 C2125 1.415 . S
C2124 C2123 1.355 . S
C2124 C2126 1.419 . S
C2125 C2120 1.425 . S
C2125 C2122 1.409 . S
C2125 C2123 1.415 . S
C2126 H2116 0.930 . S
C2126 C2124 1.419 . S
C2126 C2127 1.362 . S
C2127 H2117 0.930 . S
C2127 C2120 1.409 . S
C2127 C2126 1.362 . S
H2128 C2134 0.930 . S
H2129 C2137 0.930 . S
H2130 C2138 0.930 . S
H2131 C2139 0.930 . S
H2132 C2142 0.930 . S
H2133 C2143 0.930 . S
C2134 H2128 0.930 . S
C2134 C2135 1.355 . S
C2134 C2136 1.415 . S
C2135 C2134 1.355 . S
C2135 C2137 1.419 . S
C2136 C2134 1.415 . S
C2136 C2141 1.425 . S
C2136 C2143 1.409 . S
C2137 H2129 0.930 . S
C2137 C2135 1.419 . S
C2137 C2138 1.362 . S
C2138 H2130 0.930 . S
C2138 C2137 1.362 . S
C2138 C2141 1.409 . S
C2139 H2131 0.930 . S
C2139 C2140 1.355 . S
C2139 C2141 1.415 . S
C2140 C2139 1.355 . S
C2140 C2142 1.419 . S
C2141 C2136 1.425 . S
C2141 C2138 1.409 . S
C2141 C2139 1.415 . S
C2142 H2132 0.930 . S
C2142 C2140 1.419 . S
C2142 C2143 1.362 . S
C2143 H2133 0.930 . S
C2143 C2136 1.409 . S
C2143 C2142 1.362 . S
H2144 C2150 0.930 . S
H2145 C2153 0.930 . S
H2146 C2154 0.930 . S
H2147 C2155 0.930 . S
H2148 C2158 0.930 . S
H2149 C2159 0.930 . S
C2150 H2144 0.930 . S
C2150 C2151 1.355 . S
C2150 C2152 1.415 . S
C2151 C2150 1.355 . S
C2151 C2153 1.419 . S
C2152 C2150 1.415 . S
C2152 C2157 1.425 . S
C2152 C2159 1.409 . S
C2153 H2145 0.930 . S
C2153 C2151 1.419 . S
C2153 C2154 1.362 . S
C2154 H2146 0.930 . S
C2154 C2153 1.362 . S
C2154 C2157 1.409 . S
C2155 H2147 0.930 . S
C2155 C2156 1.355 . S
C2155 C2157 1.415 . S
C2156 C2155 1.355 . S
C2156 C2158 1.419 . S
C2157 C2152 1.425 . S
C2157 C2154 1.409 . S
C2157 C2155 1.415 . S
C2158 H2148 0.930 . S
C2158 C2156 1.419 . S
C2158 C2159 1.362 . S
C2159 H2149 0.930 . S
C2159 C2152 1.409 . S
C2159 C2158 1.362 . S
H2160 C2166 0.930 . S
H2161 C2169 0.930 . S
H2162 C2170 0.930 . S
H2163 C2171 0.930 . S
H2164 C2174 0.930 . S
H2165 C2175 0.930 . S
C2166 H2160 0.930 . S
C2166 C2167 1.355 . S
C2166 C2168 1.415 . S
C2167 C2166 1.355 . S
C2167 C2169 1.419 . S
C2168 C2166 1.415 . S
C2168 C2173 1.425 . S
C2168 C2175 1.409 . S
C2169 H2161 0.930 . S
C2169 C2167 1.419 . S
C2169 C2170 1.362 . S
C2170 H2162 0.930 . S
C2170 C2169 1.362 . S
C2170 C2173 1.409 . S
C2171 H2163 0.930 . S
C2171 C2172 1.355 . S
C2171 C2173 1.415 . S
C2172 C2171 1.355 . S
C2172 C2174 1.419 . S
C2173 C2168 1.425 . S
C2173 C2170 1.409 . S
C2173 C2171 1.415 . S
C2174 H2164 0.930 . S
C2174 C2172 1.419 . S
C2174 C2175 1.362 . S
C2175 H2165 0.930 . S
C2175 C2168 1.409 . S
C2175 C2174 1.362 . S
H2176 C2182 0.930 . S
H2177 C2185 0.930 . S
H2178 C2186 0.930 . S
H2179 C2187 0.930 . S
H2180 C2190 0.930 . S
H2181 C2191 0.930 . S
C2182 H2176 0.930 . S
C2182 C2183 1.355 . S
C2182 C2184 1.415 . S
C2183 C2182 1.355 . S
C2183 C2185 1.419 . S
C2184 C2182 1.415 . S
C2184 C2189 1.425 . S
C2184 C2191 1.409 . S
C2185 H2177 0.930 . S
C2185 C2183 1.419 . S
C2185 C2186 1.362 . S
C2186 H2178 0.930 . S
C2186 C2185 1.362 . S
C2186 C2189 1.409 . S
C2187 H2179 0.930 . S
C2187 C2188 1.355 . S
C2187 C2189 1.415 . S
C2188 C2187 1.355 . S
C2188 C2190 1.419 . S
C2189 C2184 1.425 . S
C2189 C2186 1.409 . S
C2189 C2187 1.415 . S
C2190 H2180 0.930 . S
C2190 C2188 1.419 . S
C2190 C2191 1.362 . S
C2191 H2181 0.930 . S
C2191 C2184 1.409 . S
C2191 C2190 1.362 . S
H2192 C2198 0.930 . S
H2193 C2201 0.930 . S
H2194 C2202 0.930 . S
H2195 C2203 0.930 . S
H2196 C2206 0.930 . S
H2197 C2207 0.930 . S
C2198 H2192 0.930 . S
C2198 C2199 1.355 . S
C2198 C2200 1.415 . S
C2199 C2198 1.355 . S
C2199 C2201 1.419 . S
C2200 C2198 1.415 . S
C2200 C2205 1.425 . S
C2200 C2207 1.409 . S
C2201 H2193 0.930 . S
C2201 C2199 1.419 . S
C2201 C2202 1.362 . S
C2202 H2194 0.930 . S
C2202 C2201 1.362 . S
C2202 C2205 1.409 . S
C2203 H2195 0.930 . S
C2203 C2204 1.355 . S
C2203 C2205 1.415 . S
C2204 C2203 1.355 . S
C2204 C2206 1.419 . S
C2205 C2200 1.425 . S
C2205 C2202 1.409 . S
C2205 C2203 1.415 . S
C2206 H2196 0.930 . S
C2206 C2204 1.419 . S
C2206 C2207 1.362 . S
C2207 H2197 0.930 . S
C2207 C2200 1.409 . S
C2207 C2206 1.362 . S
H2208 C2214 0.930 . S
H2209 C2217 0.930 . S
H2210 C2218 0.930 . S
H2211 C2219 0.930 . S
H2212 C2222 0.930 . S
H2213 C2223 0.930 . S
C2214 H2208 0.930 . S
C2214 C2215 1.355 . S
C2214 C2216 1.415 . S
C2215 C2214 1.355 . S
C2215 C2217 1.419 . S
C2216 C2214 1.415 . S
C2216 C2221 1.425 . S
C2216 C2223 1.409 . S
C2217 H2209 0.930 . S
C2217 C2215 1.419 . S
C2217 C2218 1.362 . S
C2218 H2210 0.930 . S
C2218 C2217 1.362 . S
C2218 C2221 1.409 . S
C2219 H2211 0.930 . S
C2219 C2220 1.355 . S
C2219 C2221 1.415 . S
C2220 C2219 1.355 . S
C2220 C2222 1.419 . S
C2221 C2216 1.425 . S
C2221 C2218 1.409 . S
C2221 C2219 1.415 . S
C2222 H2212 0.930 . S
C2222 C2220 1.419 . S
C2222 C2223 1.362 . S
C2223 H2213 0.930 . S
C2223 C2216 1.409 . S
C2223 C2222 1.362 . S
H2224 C2230 0.930 . S
H2225 C2233 0.930 . S
H2226 C2234 0.930 . S
H2227 C2235 0.930 . S
H2228 C2238 0.930 1_545 S
H2229 C2239 0.930 . S
C2230 H2224 0.930 . S
C2230 C2231 1.355 . S
C2230 C2232 1.415 . S
C2231 C2230 1.355 . S
C2231 C2233 1.419 . S
C2232 C2230 1.415 . S
C2232 C2237 1.425 . S
C2232 C2239 1.409 . S
C2233 H2225 0.930 . S
C2233 C2231 1.419 . S
C2233 C2234 1.362 . S
C2234 H2226 0.930 . S
C2234 C2233 1.362 . S
C2234 C2237 1.409 . S
C2235 H2227 0.930 . S
C2235 C2236 1.355 . S
C2235 C2237 1.415 . S
C2236 C2235 1.355 . S
C2236 C2238 1.419 . S
C2237 C2232 1.425 . S
C2237 C2234 1.409 . S
C2237 C2235 1.415 . S
C2238 H2228 0.930 1_565 S
C2238 C2236 1.419 . S
C2238 C2239 1.362 . S
C2239 H2229 0.930 . S
C2239 C2232 1.409 . S
C2239 C2238 1.362 . S
H2240 C2246 0.930 . S
H2241 C2249 0.930 . S
H2242 C2250 0.930 . S
H2243 C2251 0.930 . S
H2244 C2254 0.930 . S
H2245 C2255 0.930 . S
C2246 H2240 0.930 . S
C2246 C2247 1.355 . S
C2246 C2248 1.415 . S
C2247 C2246 1.355 . S
C2247 C2249 1.419 . S
C2248 C2246 1.415 . S
C2248 C2253 1.425 . S
C2248 C2255 1.409 . S
C2249 H2241 0.930 . S
C2249 C2247 1.419 . S
C2249 C2250 1.362 . S
C2250 H2242 0.930 . S
C2250 C2249 1.362 . S
C2250 C2253 1.409 . S
C2251 H2243 0.930 . S
C2251 C2252 1.355 . S
C2251 C2253 1.415 . S
C2252 C2251 1.355 . S
C2252 C2254 1.419 . S
C2253 C2248 1.425 . S
C2253 C2250 1.409 . S
C2253 C2251 1.415 . S
C2254 H2244 0.930 . S
C2254 C2252 1.419 . S
C2254 C2255 1.362 . S
C2255 H2245 0.930 . S
C2255 C2248 1.409 . S
C2255 C2254 1.362 . S
H2256 C2262 0.930 . S
H2257 C2265 0.930 . S
H2258 C2266 0.930 . S
H2259 C2267 0.930 . S
H2260 C2270 0.930 . S
H2261 C2271 0.930 . S
C2262 H2256 0.930 . S
C2262 C2263 1.355 . S
C2262 C2264 1.415 . S
C2263 C2262 1.355 . S
C2263 C2265 1.419 . S
C2264 C2262 1.415 . S
C2264 C2269 1.425 . S
C2264 C2271 1.409 . S
C2265 H2257 0.930 . S
C2265 C2263 1.419 . S
C2265 C2266 1.362 . S
C2266 H2258 0.930 . S
C2266 C2265 1.362 . S
C2266 C2269 1.409 . S
C2267 H2259 0.930 . S
C2267 C2268 1.355 . S
C2267 C2269 1.415 . S
C2268 C2267 1.355 . S
C2268 C2270 1.419 . S
C2269 C2264 1.425 . S
C2269 C2266 1.409 . S
C2269 C2267 1.415 . S
C2270 H2260 0.930 . S
C2270 C2268 1.419 . S
C2270 C2271 1.362 . S
C2271 H2261 0.930 . S
C2271 C2264 1.409 . S
C2271 C2270 1.362 . S
H2272 C2278 0.930 . S
H2273 C2281 0.930 . S
H2274 C2282 0.930 . S
H2275 C2283 0.930 . S
H2276 C2286 0.930 1_554 S
H2277 C2287 0.930 . S
C2278 H2272 0.930 . S
C2278 C2279 1.355 . S
C2278 C2280 1.415 . S
C2279 C2278 1.355 . S
C2279 C2281 1.419 . S
C2280 C2278 1.415 . S
C2280 C2285 1.425 . S
C2280 C2287 1.409 . S
C2281 H2273 0.930 . S
C2281 C2279 1.419 . S
C2281 C2282 1.362 . S
C2282 H2274 0.930 . S
C2282 C2281 1.362 . S
C2282 C2285 1.409 . S
C2283 H2275 0.930 . S
C2283 C2284 1.355 . S
C2283 C2285 1.415 . S
C2284 C2283 1.355 . S
C2284 C2286 1.419 . S
C2285 C2280 1.425 . S
C2285 C2282 1.409 . S
C2285 C2283 1.415 . S
C2286 H2276 0.930 1_556 S
C2286 C2284 1.419 . S
C2286 C2287 1.362 . S
C2287 H2277 0.930 . S
C2287 C2280 1.409 . S
C2287 C2286 1.362 . S
H2288 C2294 0.930 . S
H2289 C2297 0.930 . S
H2290 C2298 0.930 . S
H2291 C2299 0.930 . S
H2292 C2302 0.930 . S
H2293 C2303 0.930 . S
C2294 H2288 0.930 . S
C2294 C2295 1.355 . S
C2294 C2296 1.415 . S
C2295 C2294 1.355 . S
C2295 C2297 1.419 . S
C2296 C2294 1.415 . S
C2296 C2301 1.425 . S
C2296 C2303 1.409 . S
C2297 H2289 0.930 . S
C2297 C2295 1.419 . S
C2297 C2298 1.362 . S
C2298 H2290 0.930 . S
C2298 C2297 1.362 . S
C2298 C2301 1.409 . S
C2299 H2291 0.930 . S
C2299 C2300 1.355 . S
C2299 C2301 1.415 . S
C2300 C2299 1.355 . S
C2300 C2302 1.419 . S
C2301 C2296 1.425 . S
C2301 C2298 1.409 . S
C2301 C2299 1.415 . S
C2302 H2292 0.930 . S
C2302 C2300 1.419 . S
C2302 C2303 1.362 . S
C2303 H2293 0.930 . S
C2303 C2296 1.409 . S
C2303 C2302 1.362 . S
H2304 C2310 0.930 . S
H2305 C2313 0.930 . S
H2306 C2314 0.930 . S
H2307 C2315 0.930 . S
H2308 C2318 0.930 . S
H2309 C2319 0.930 . S
C2310 H2304 0.930 . S
C2310 C2311 1.355 . S
C2310 C2312 1.415 . S
C2311 C2310 1.355 . S
C2311 C2313 1.419 . S
C2312 C2310 1.415 . S
C2312 C2317 1.425 . S
C2312 C2319 1.409 . S
C2313 H2305 0.930 . S
C2313 C2311 1.419 . S
C2313 C2314 1.362 . S
C2314 H2306 0.930 . S
C2314 C2313 1.362 . S
C2314 C2317 1.409 . S
C2315 H2307 0.930 . S
C2315 C2316 1.355 . S
C2315 C2317 1.415 . S
C2316 C2315 1.355 . S
C2316 C2318 1.419 . S
C2317 C2312 1.425 . S
C2317 C2314 1.409 . S
C2317 C2315 1.415 . S
C2318 H2308 0.930 . S
C2318 C2316 1.419 . S
C2318 C2319 1.362 . S
C2319 H2309 0.930 . S
C2319 C2312 1.409 . S
C2319 C2318 1.362 . S
H2320 C2326 0.930 . S
H2321 C2329 0.930 . S
H2322 C2330 0.930 . S
H2323 C2331 0.930 . S
H2324 C2334 0.930 . S
H2325 C2335 0.930 . S
C2326 H2320 0.930 . S
C2326 C2327 1.355 . S
C2326 C2328 1.415 . S
C2327 C2326 1.355 . S
C2327 C2329 1.419 . S
C2328 C2326 1.415 . S
C2328 C2333 1.425 . S
C2328 C2335 1.409 . S
C2329 H2321 0.930 . S
C2329 C2327 1.419 . S
C2329 C2330 1.362 . S
C2330 H2322 0.930 . S
C2330 C2329 1.362 . S
C2330 C2333 1.409 . S
C2331 H2323 0.930 . S
C2331 C2332 1.355 . S
C2331 C2333 1.415 . S
C2332 C2331 1.355 . S
C2332 C2334 1.419 . S
C2333 C2328 1.425 . S
C2333 C2330 1.409 . S
C2333 C2331 1.415 . S
C2334 H2324 0.930 . S
C2334 C2332 1.419 . S
C2334 C2335 1.362 . S
C2335 H2325 0.930 . S
C2335 C2328 1.409 . S
C2335 C2334 1.362 . S
H2336 C2342 0.930 . S
H2337 C2345 0.930 . S
H2338 C2346 0.930 . S
H2339 C2347 0.930 . S
H2340 C2350 0.930 1_556 S
H2341 C2351 0.930 . S
C2342 H2336 0.930 . S
C2342 C2343 1.355 . S
C2342 C2344 1.415 . S
C2343 C2342 1.355 . S
C2343 C2345 1.419 . S
C2344 C2342 1.415 . S
C2344 C2349 1.425 . S
C2344 C2351 1.409 . S
C2345 H2337 0.930 . S
C2345 C2343 1.419 . S
C2345 C2346 1.362 . S
C2346 H2338 0.930 . S
C2346 C2345 1.362 . S
C2346 C2349 1.409 . S
C2347 H2339 0.930 . S
C2347 C2348 1.355 . S
C2347 C2349 1.415 . S
C2348 C2347 1.355 . S
C2348 C2350 1.419 . S
C2349 C2344 1.425 . S
C2349 C2346 1.409 . S
C2349 C2347 1.415 . S
C2350 H2340 0.930 1_554 S
C2350 C2348 1.419 . S
C2350 C2351 1.362 . S
C2351 H2341 0.930 . S
C2351 C2344 1.409 . S
C2351 C2350 1.362 . S
H2352 C2358 0.930 . S
H2353 C2361 0.930 1_556 S
H2354 C2362 0.930 . S
H2355 C2363 0.930 . S
H2356 C2366 0.930 . S
H2357 C2367 0.930 . S
C2358 H2352 0.930 . S
C2358 C2359 1.355 . S
C2358 C2360 1.415 . S
C2359 C2358 1.355 . S
C2359 C2361 1.419 . S
C2360 C2358 1.415 . S
C2360 C2365 1.425 . S
C2360 C2367 1.409 . S
C2361 H2353 0.930 1_554 S
C2361 C2359 1.419 . S
C2361 C2362 1.362 . S
C2362 H2354 0.930 . S
C2362 C2361 1.362 . S
C2362 C2365 1.409 . S
C2363 H2355 0.930 . S
C2363 C2364 1.355 . S
C2363 C2365 1.415 . S
C2364 C2363 1.355 . S
C2364 C2366 1.419 . S
C2365 C2360 1.425 . S
C2365 C2362 1.409 . S
C2365 C2363 1.415 . S
C2366 H2356 0.930 . S
C2366 C2364 1.419 . S
C2366 C2367 1.362 . S
C2367 H2357 0.930 . S
C2367 C2360 1.409 . S
C2367 C2366 1.362 . S
C1095 C417 0.535 . S
C1100 C9 0.535 . S
C1111 C723 0.641 . S
C1116 C43 0.641 . S
C1127 C213 0.574 . S
C1132 C77 0.574 . S
C1143 C1063 0.662 . S
C1148 C111 0.662 . S
C1159 C281 0.663 . S
C1164 C145 0.663 . S
C1175 C587 0.558 . S
C1180 C179 0.558 . S
C1191 C247 0.532 . S
C1196 C927 0.532 . S
C1207 C315 0.533 . S
C1212 C995 0.533 . S
C1223 C485 0.661 . S
C1228 C349 0.661 . S
C1239 C383 0.533 . S
C1244 C791 0.533 . S
C1255 C859 0.642 . S
C1260 C451 0.642 . S
C1271 C519 0.533 . S
C1276 C655 0.533 . S
C1287 C961 0.532 . S
C1292 C553 0.532 . S
C1303 C757 0.601 . S
C1308 C621 0.601 . S
C1319 C689 0.631 . S
C1324 C825 0.631 . S
C1335 C1029 0.596 . S
C1340 C893 0.596 . S
C1351 C5 0.646 . S
C1356 C73 0.638 . S
C1367 C39 0.461 . S
C1372 C107 0.526 . S
C1383 C209 0.647 . S
C1388 C141 0.636 . S
C1399 C243 0.602 . S
C1404 C175 0.539 . S
C1415 C277 0.647 . S
C1420 C345 0.637 . S
C1431 C379 0.502 . S
C1436 C311 0.571 . S
C1447 C481 0.648 . S
C1452 C413 0.630 . S
C1463 C515 0.536 . S
C1468 C447 0.469 . S
C1479 C549 0.643 . S
C1484 C617 0.607 . S
C1495 C651 0.626 . S
C1500 C583 0.574 . S
C1511 C753 0.646 . S
C1516 C685 0.639 . S
C1527 C787 0.572 . S
C1532 C719 0.625 . S
C1543 C821 0.575 . S
C1548 C889 0.507 . S
C1559 C923 0.647 . S
C1564 C855 0.637 . S
C1575 C957 0.615 . S
C1580 C1025 0.557 . S
C1591 C1059 0.435 . S
C1596 C991 0.430 . S
C1607 C33 1.525 . S
C1612 C67 1.525 . S
C1623 C135 1.502 . S
C1628 C101 1.501 . S
C1639 C203 1.497 . S
C1644 C169 1.496 . S
C1655 C237 1.501 . S
C1660 C271 1.499 . S
C1671 C305 1.522 . S
C1676 C339 1.521 . S
C1687 C373 1.525 . S
C1692 C407 1.524 . S
C1703 C475 1.523 . S
C1708 C441 1.524 . S
C1719 C543 1.523 . S
C1724 C509 1.524 . S
C1735 C577 1.511 . S
C1740 C611 1.513 . S
C1751 C679 1.499 . S
C1756 C645 1.500 . S
C1767 C747 1.522 . S
C1772 C713 1.521 . S
C1783 C815 1.498 . S
C1788 C781 1.497 . S
C1799 C883 1.515 . S
C1804 C849 1.513 . S
C1815 C951 1.525 . S
C1820 C917 1.525 . S
C1831 C985 1.523 . S
C1836 C1019 1.521 . S
C1847 C1087 1.525 . S
C1852 C1053 1.525 . S
C1863 C2 2.374 . S
C1868 C224 2.371 1_545 S
C1879 C1074 2.371 . S
C1884 C36 2.381 . S
C1895 C428 2.370 1_556 S
C1900 C70 2.375 . S
C1911 C104 2.396 . S
C1916 C734 2.387 1_546 S
C1927 C88 2.372 1_565 S
C1932 C138 2.374 . S
C1943 C938 2.371 . S
C1948 C172 2.374 . S
C1959 C292 2.375 1_554 S
C1964 C206 2.375 . S
C1975 C598 2.390 1_564 S
C1980 C240 2.397 . S
C1991 C496 2.375 . S
C1996 C274 2.375 . S
C2007 C802 2.370 . S
C2012 C308 2.379 . S
C2023 C156 2.391 . S
C2028 C342 2.387 . S
C2039 C1006 2.387 . S
C2044 C376 2.383 . S
C2055 C410 2.392 . S
C2060 C360 2.381 . S
C2071 C666 2.389 . S
C2076 C444 2.396 . S
C2087 C20 2.373 . S
C2092 C478 2.374 . S
C2103 C870 2.394 . S
C2108 C512 2.393 . S
C2119 C768 2.389 1_545 S
C2124 C546 2.396 . S
C2135 C580 2.384 . S
C2140 C530 2.373 . S
C2151 C972 2.371 . S
C2156 C614 2.374 . S
C2167 C648 2.396 . S
C2172 C190 2.393 1_545 S
C2183 C632 2.391 1_565 S
C2188 C682 2.387 . S
C2199 C716 2.388 . S
C2204 C394 2.376 . S
C2215 C750 2.374 . S
C2220 C836 2.374 . S
C2231 C784 2.391 . S
C2236 C54 2.379 1_565 S
C2247 C818 2.396 . S
C2252 C1040 2.388 . S
C2263 C852 2.374 . S
C2268 C258 2.373 . S
C2279 C886 2.393 . S
C2284 C700 2.394 1_556 S
C2295 C920 2.376 . S
C2300 C462 2.377 1_556 S
C2311 C954 2.375 . S
C2316 C904 2.370 . S
C2327 C122 2.375 . S
C2332 C988 2.375 . S
C2343 C1022 2.392 . S
C2348 C564 2.393 1_554 S
C2359 C326 2.394 1_554 S
C2364 C1056 2.395 . S
