# Generated by pormake.
# Topology rkf, (6)-cn, num edge types: 1
# Building blocks:
#     Node 0, Type 0, BuildingBlock: BETFEN_clean_sbu_0, # of connection points: 6
#     Node 1, Type 0, BuildingBlock: BETFEN_clean_sbu_0, # of connection points: 6
#     Node 2, Type 0, BuildingBlock: BETFEN_clean_sbu_0, # of connection points: 6
#     Node 3, Type 0, BuildingBlock: BETFEN_clean_sbu_0, # of connection points: 6
#     Node 4, Type 0, BuildingBlock: BETFEN_clean_sbu_0, # of connection points: 6
#     Node 5, Type 0, BuildingBlock: BETFEN_clean_sbu_0, # of connection points: 6
#     Edge 6, Type (0, 0), BuildingBlock: FUNLAD_clean_linker_0, # of connection points: 2
#     Edge 7, Type (0, 0), BuildingBlock: FUNLAD_clean_linker_0, # of connection points: 2
#     Edge 8, Type (0, 0), BuildingBlock: FUNLAD_clean_linker_0, # of connection points: 2
#     Edge 9, Type (0, 0), BuildingBlock: FUNLAD_clean_linker_0, # of connection points: 2
#     Edge 10, Type (0, 0), BuildingBlock: FUNLAD_clean_linker_0, # of connection points: 2
#     Edge 11, Type (0, 0), BuildingBlock: FUNLAD_clean_linker_0, # of connection points: 2
#     Edge 12, Type (0, 0), BuildingBlock: FUNLAD_clean_linker_0, # of connection points: 2
#     Edge 13, Type (0, 0), BuildingBlock: FUNLAD_clean_linker_0, # of connection points: 2
#     Edge 14, Type (0, 0), BuildingBlock: FUNLAD_clean_linker_0, # of connection points: 2
#     Edge 15, Type (0, 0), BuildingBlock: FUNLAD_clean_linker_0, # of connection points: 2
#     Edge 16, Type (0, 0), BuildingBlock: FUNLAD_clean_linker_0, # of connection points: 2
#     Edge 17, Type (0, 0), BuildingBlock: FUNLAD_clean_linker_0, # of connection points: 2
#     Edge 18, Type (0, 0), BuildingBlock: FUNLAD_clean_linker_0, # of connection points: 2
#     Edge 19, Type (0, 0), BuildingBlock: FUNLAD_clean_linker_0, # of connection points: 2
#     Edge 20, Type (0, 0), BuildingBlock: FUNLAD_clean_linker_0, # of connection points: 2
#     Edge 21, Type (0, 0), BuildingBlock: FUNLAD_clean_linker_0, # of connection points: 2
#     Edge 22, Type (0, 0), BuildingBlock: FUNLAD_clean_linker_0, # of connection points: 2
#     Edge 23, Type (0, 0), BuildingBlock: FUNLAD_clean_linker_0, # of connection points: 2
# Relax obj value: 0.609
# Max RMSD: 0.248
# Mean RMSD: 0.248
data_MOF--net-rkf--node1-BETFEN_clean_sbu_0--edge1-FUNLAD_clean_linker_0
_symmetry_space_group_name_H-M    P1
_symmetry_Int_Tables_number       1
_symmetry_cell_setting            triclinic
loop_
_symmetry_equiv_pos_as_xyz
'x, y, z'
_cell_length_a     29.434109
_cell_length_b     29.203738
_cell_length_c     52.017424
_cell_angle_alpha  90.166116
_cell_angle_beta   90.013204
_cell_angle_gamma 119.67426
loop_
_atom_site_label
_atom_site_type_symbol
_atom_site_fract_x
_atom_site_fract_y
_atom_site_fract_z
_atom_type_partial_charge
Pr0 Pr 0.31731 0.08683 0.14335 0.0
Pr1 Pr 0.36609 0.203 0.12613 0.0
C2 C 0.29446 -0.0133 0.1515 0.0
C3 C 0.28281 0.9498 0.17298 0.0
C4 C 0.23464 0.90293 0.17345 0.0
C5 C 0.22114 0.86885 0.19435 0.0
C6 C 0.25582 0.88076 0.21515 0.0
C7 C 0.30502 0.92677 0.21414 0.0
C8 C 0.31835 0.96109 0.1933 0.0
C9 C 0.25123 0.12827 0.14641 0.0
C10 C 0.34579 0.17297 0.19014 0.0
C11 C 0.40159 0.30623 1.11784 0.0
C12 C 0.42314 0.34307 1.09632 0.0
C13 C 0.44548 0.39734 1.10065 0.0
C14 C 0.46155 0.43223 1.0799 0.0
C15 C 0.45524 0.41317 1.05451 0.0
C16 C 0.43491 0.35874 1.05047 0.0
C17 C 0.41914 0.32405 1.0712 0.0
C18 C 0.43104 0.15933 1.12234 0.0
C19 C 0.31558 0.11449 1.07958 0.0
O20 O 0.34233 0.02612 0.14968 0.0
O21 O 0.25889 -0.00028 0.14612 0.0
O22 O 0.28235 0.13591 0.12818 0.0
O23 O 0.2498 0.09413 0.1629 0.0
O24 O 0.35254 0.20627 0.17123 0.0
O25 O 0.33865 0.12528 0.18497 0.0
O26 O 0.35233 0.27007 1.11571 0.0
O27 O 0.43103 0.28813 0.12696 0.0
O28 O 0.40165 0.15372 0.14113 0.0
O29 O 0.42908 0.19013 1.10498 0.0
O30 O 0.31183 0.0802 1.09741 0.0
O31 O 0.33127 0.16425 1.08577 0.0
H32 H 0.20676 0.89333 0.15793 0.0
H33 H 0.1826 0.83428 0.19463 0.0
H34 H 0.3329 0.93675 0.22968 0.0
H35 H 0.35603 -0.00317 0.19337 0.0
H36 H 0.44914 0.41259 1.12001 0.0
H37 H 0.47759 0.4739 1.08369 0.0
H38 H 0.42857 0.34242 1.03123 0.0
H39 H 0.40205 0.28215 1.06757 0.0
Pr40 Pr 0.32125 0.30801 0.48379 0.0
Pr41 Pr 0.21837 0.29878 0.46494 0.0
C42 C 0.41769 0.34479 0.50373 0.0
C43 C 0.44238 0.33821 0.52683 0.0
C44 C 0.41421 0.31985 0.54978 0.0
C45 C 0.43609 0.30763 0.57065 0.0
C46 C 0.4863 0.31317 0.5688 0.0
C47 C 0.51498 0.33325 0.54602 0.0
C48 C 0.49315 0.34573 0.52521 0.0
C49 C 0.24508 0.2049 0.47551 0.0
C50 C 0.22858 0.29358 0.5277 0.0
C51 C 0.12747 0.28249 0.44441 0.0
C52 C 0.10606 0.30279 0.42471 0.0
C53 C 0.07074 0.31943 0.43219 0.0
C54 C 0.04693 0.33544 0.41383 0.0
C55 C 0.05769 0.33475 0.38755 0.0
C56 C 0.09439 0.31962 0.38015 0.0
C57 C 0.11841 0.30383 0.39856 0.0
C58 C 0.30427 0.4012 0.46884 0.0
C59 C 0.29536 0.28632 0.42093 0.0
O60 O 0.39075 0.36925 0.5064 0.0
O61 O 0.39508 0.3035 0.4887 0.0
O62 O 0.23683 0.24017 0.48493 0.0
O63 O 0.29475 0.22032 0.47526 0.0
O64 O 0.19517 0.27761 0.5083 0.0
O65 O 0.27927 0.31146 0.52324 0.0
O66 O 0.15158 0.25743 0.43672 0.0
O67 O 0.14924 0.31256 0.46446 0.0
O68 O 0.30419 0.36193 0.4592 0.0
O69 O 0.25833 0.389 0.47733 0.0
O70 O 0.33309 0.3058 0.43857 0.0
O71 O 0.24759 0.27676 0.42672 0.0
H72 H 0.37468 0.31322 0.55125 0.0
H73 H 0.41269 0.29147 0.58779 0.0
H74 H 0.55382 0.33824 0.54412 0.0
H75 H 0.51527 0.35967 0.50754 0.0
H76 H 0.06075 0.31909 0.45227 0.0
H77 H 0.01941 0.34753 0.4202 0.0
H78 H 0.10308 0.31798 0.36005 0.0
H79 H 0.14564 0.29131 0.39224 0.0
Pr80 Pr 0.03755 0.26271 0.8101 0.0
Pr81 Pr 0.93294 0.23709 0.79393 0.0
C82 C 0.14122 0.31199 0.81917 0.0
C83 C 0.17883 0.34809 0.83813 0.0
C84 C 0.22727 0.35052 0.84082 0.0
C85 C 0.26335 0.38422 0.85899 0.0
C86 C 0.25156 0.41617 0.87476 0.0
C87 C 0.20309 0.41417 0.87166 0.0
C88 C 0.16694 0.38027 0.85353 0.0
C89 C -0.02333 0.15732 0.79343 0.0
C90 C 0.95344 0.21899 0.85662 0.0
C91 C 0.82966 0.19835 0.78574 0.0
C92 C 0.78942 0.18029 0.76574 0.0
C93 C 0.73691 0.15896 0.77288 0.0
C94 C 0.69768 0.1402 0.75415 0.0
C95 C 0.71054 0.14268 0.72799 0.0
C96 C 0.76355 0.16519 0.72096 0.0
C97 C 0.8027 0.18384 0.73971 0.0
C98 C -0.00369 0.34383 0.80396 0.0
C99 C 0.01908 0.26758 0.74639 0.0
O100 O 0.11868 0.33157 0.80472 0.0
O101 O 0.10924 0.26397 0.82692 0.0
O102 O -0.02088 0.19725 0.78331 0.0
O103 O 0.00751 0.17132 0.81331 0.0
O104 O 0.91925 0.20489 0.83747 0.0
O105 O 0.00364 0.24894 0.85178 0.0
O106 O 0.85029 0.16856 0.79044 0.0
O107 O 0.86376 0.24861 0.78608 0.0
O108 O -0.00692 0.30767 0.81858 0.0
O109 O -0.03203 0.32491 0.78344 0.0
O110 O 0.053 0.28474 0.76565 0.0
O111 O -0.03188 0.24232 0.75168 0.0
H112 H 0.23696 0.32586 0.82906 0.0
H113 H 0.29983 0.384 0.86119 0.0
H114 H 0.19297 0.43855 0.88334 0.0
H115 H 0.12964 0.37894 0.85163 0.0
H116 H 0.72619 0.15627 0.79297 0.0
H117 H 0.65731 0.1233 0.76015 0.0
H118 H 0.77471 0.16673 0.70101 0.0
H119 H 0.84317 0.20022 0.73394 0.0
Pr120 Pr 0.77053 0.04924 0.14442 0.0
Pr121 Pr 0.79262 0.96485 0.12903 0.0
C122 C 0.73395 0.11605 0.15327 0.0
C123 C 0.73798 0.14931 0.1754 0.0
C124 C 0.735 0.13079 0.20056 0.0
C125 C 0.74909 0.1654 0.22138 0.0
C126 C 0.767 0.21931 0.21743 0.0
C127 C 0.76714 0.23717 0.19234 0.0
C128 C 0.7526 0.20235 0.17149 0.0
C129 C 0.87583 0.08224 0.15008 0.0
C130 C 0.78847 -0.01429 0.19202 0.0
C131 C 0.80988 0.88364 1.1208 0.0
C132 C 0.78864 0.83923 1.10265 0.0
C133 C 0.78278 0.79054 1.11015 0.0
C134 C 0.76049 0.74746 1.09329 0.0
C135 C 0.74373 0.75251 1.06865 0.0
C136 C 0.74919 0.80143 1.06144 0.0
C137 C 0.7711 0.84422 1.07832 0.0
C138 C 0.68826 0.94101 0.12363 0.0
C139 C 0.80062 0.04155 1.08201 0.0
O140 O 0.70536 0.065 0.15618 0.0
O141 O 0.7781 0.12993 0.14156 0.0
O142 O 0.84799 0.05481 0.13144 0.0
O143 O 0.84904 0.09252 0.16663 0.0
O144 O 0.81017 0.97092 0.17392 0.0
O145 O 0.7646 0.01241 0.18565 0.0
O146 O 0.83949 0.93062 1.11117 0.0
O147 O 0.77666 0.88238 0.13776 0.0
O148 O 0.71716 0.961 0.14277 0.0
O149 O 0.71381 0.93395 1.10522 0.0
O150 O 0.77349 0.05456 1.09804 0.0
O151 O 0.81878 0.01088 1.09012 0.0
H152 H 0.72461 0.09021 0.20408 0.0
H153 H 0.74935 0.15053 0.2404 0.0
H154 H 0.78054 0.27844 0.18876 0.0
H155 H 0.75549 0.21743 0.15219 0.0
H156 H 0.79527 0.7858 0.12907 0.0
H157 H 0.75643 0.71029 1.09955 0.0
H158 H 0.73779 0.80722 1.04246 0.0
H159 H 0.77453 0.88131 1.07231 0.0
Pr160 Pr 0.8171 0.86647 0.48235 0.0
Pr161 Pr 0.85056 0.78684 0.46755 0.0
C162 C 0.76454 0.91382 0.49978 0.0
C163 C 0.73079 0.9137 0.52067 0.0
C164 C 0.74593 0.91869 0.54655 0.0
C165 C 0.71362 0.92062 0.56572 0.0
C166 C 0.66557 0.91737 0.55933 0.0
C167 C 0.65006 0.91094 0.53343 0.0
C168 C 0.68244 0.90926 0.51431 0.0
C169 C 0.91279 0.9113 0.45787 0.0
C170 C 0.88057 0.83384 0.52669 0.0
C171 C 0.88474 0.72264 0.44951 0.0
C172 C 0.91287 0.71686 0.42769 0.0
C173 C 0.93536 0.68458 0.43014 0.0
C174 C 0.96387 0.67987 0.40987 0.0
C175 C -0.02993 0.7073 0.38682 0.0
C176 C 0.94692 0.73925 0.38437 0.0
C177 C 0.91866 0.74415 0.40472 0.0
C178 C 0.7514 0.74402 0.49039 0.0
C179 C 0.8174 0.84333 0.41989 0.0
O180 O 0.74396 0.87274 0.48456 0.0
O181 O 0.81435 0.932 0.5045 0.0
O182 O 0.89775 0.87542 0.47447 0.0
O183 O 0.88078 0.92963 0.45564 0.0
O184 O 0.89315 0.81263 0.50745 0.0
O185 O 0.84655 0.85082 0.52301 0.0
O186 O 0.91218 0.76226 0.46497 0.0
O187 O 0.83795 0.71536 0.44488 0.0
O188 O 0.76937 0.77876 0.47329 0.0
O189 O 0.78508 0.72943 0.4963 0.0
O190 O 0.79752 0.86028 0.43794 0.0
O191 O 0.84336 0.81856 0.42627 0.0
H192 H 0.78295 0.92193 0.55196 0.0
H193 H 0.72712 0.92637 0.58545 0.0
H194 H 0.61309 0.90766 0.52789 0.0
H195 H 0.66994 0.90508 0.49442 0.0
H196 H 0.93122 0.66336 0.44783 0.0
H197 H -0.01894 0.65482 0.41221 0.0
H198 H 0.95179 0.76152 0.36698 0.0
H199 H 0.90187 0.76963 0.40264 0.0
Pr200 Pr 0.06944 0.88083 0.81194 0.0
Pr201 Pr 0.17128 0.90139 0.79334 0.0
C202 C -0.03322 0.83528 0.82296 0.0
C203 C 0.93121 0.79847 0.84217 0.0
C204 C 0.95102 0.78709 0.86424 0.0
C205 C 0.91697 0.75085 0.88213 0.0
C206 C 0.86251 0.72508 0.87816 0.0
C207 C 0.84299 0.73609 0.85573 0.0
C208 C 0.87716 0.77251 0.83786 0.0
C209 C 0.13186 -0.01549 0.79355 0.0
C210 C 0.15721 0.92331 0.85641 0.0
C211 C 0.27302 0.93684 0.78244 0.0
C212 C 0.31162 0.96064 0.76185 0.0
C213 C 0.36449 0.97874 0.76721 0.0
C214 C 0.40231 0.00418 0.74823 0.0
C215 C 0.38769 0.01175 0.72357 0.0
C216 C 0.33431 -0.00775 0.71815 0.0
C217 C 0.29656 0.96695 0.73717 0.0
C218 C 0.10609 0.7966 0.8063 0.0
C219 C 0.08056 0.86899 0.74834 0.0
O220 O -0.01372 0.8152 0.80685 0.0
O221 O 0.00119 0.88234 0.83117 0.0
O222 O 0.12651 0.94314 0.78358 0.0
O223 O 0.10283 0.97301 0.81397 0.0
O224 O 0.18945 0.93751 0.83643 0.0
O225 O 0.10675 0.8924 0.85266 0.0
O226 O 0.25582 0.96635 0.79261 0.0
O227 O 0.23639 0.88796 0.77909 0.0
O228 O 0.11284 0.83501 0.8202 0.0
O229 O 0.13268 0.81159 0.78519 0.0
O230 O 0.04941 0.85199 0.76859 0.0
O231 O 0.13201 0.89609 0.75212 0.0
H232 H -0.0072 0.80645 0.86767 0.0
H233 H 0.93332 0.7441 0.89941 0.0
H234 H 0.80134 0.71662 0.852 0.0
H235 H 0.8614 0.78039 0.82067 0.0
H236 H 0.3766 0.97398 0.78623 0.0
H237 H 0.44302 0.01849 0.75293 0.0
H238 H 0.32185 -0.00171 0.69949 0.0
H239 H 0.25582 0.95332 0.73281 0.0
C240 C 0.95809 0.11371 0.12536 0.0
C241 C 0.93236 0.11738 0.14728 0.0
C242 C 0.01105 0.14897 1.12181 0.0
C243 C 0.03944 0.1881 0.14023 0.0
C244 C 0.01328 0.19297 0.16177 0.0
C245 C 0.96016 0.15766 0.16531 0.0
C246 C 0.097 0.21744 0.13789 0.0
C247 C 0.12756 0.22647 0.15867 0.0
C248 C 0.17058 0.21422 0.15757 0.0
C249 C 0.20006 0.22185 0.1351 0.0
C250 C 0.22749 0.19472 0.13167 0.0
C251 C 0.22657 0.16055 0.15082 0.0
H252 H 0.15228 0.17818 0.19528 0.0
C253 C 0.2018 0.15736 0.17429 0.0
C254 C 0.17424 0.18429 0.17768 0.0
H255 H 0.20192 0.13243 0.18964 0.0
H256 H 0.93737 0.08352 1.11096 0.0
H257 H 0.03035 0.14419 1.1051 0.0
H258 H 0.0338 0.2234 0.17605 0.0
H259 H 0.94088 0.162 0.18212 0.0
H260 H 0.11213 0.21637 1.11899 0.0
H261 H 0.11173 0.22551 0.17764 0.0
H262 H 0.19942 0.24614 1.11958 0.0
H263 H 0.24741 0.19867 1.11362 0.0
C264 C -0.00192 0.91727 0.44748 0.0
C265 C 0.95675 0.92547 0.44041 0.0
C266 C 0.04345 0.93876 0.43263 0.0
C267 C 0.04765 0.96835 0.41059 0.0
C268 C 0.00311 0.96936 0.4016 0.0
C269 C 0.95827 0.94894 0.4167 0.0
C270 C 0.10072 0.00781 0.40195 0.0
C271 C 0.11125 0.05788 0.39894 0.0
C272 C 0.14782 0.09815 0.41708 0.0
C273 C 0.19798 0.10554 0.42149 0.0
C274 C 0.22883 0.13892 0.44121 0.0
C275 C 0.20994 0.16523 0.45687 0.0
H276 H 0.09004 0.11871 0.4298 0.0
C277 C 0.15969 0.15751 0.45253 0.0
C278 C 0.12912 0.12472 0.43258 0.0
H279 H 0.14424 0.17717 0.46438 0.0
H280 H -0.0031 0.89779 0.46536 0.0
H281 H 0.07697 0.93671 0.4398 0.0
H282 H 0.00435 -0.01015 0.38407 0.0
H283 H 0.9257 0.95355 0.41036 0.0
H284 H 0.13208 0.00135 0.4087 0.0
H285 H 0.08057 0.06502 0.39189 0.0
H286 H 0.21309 0.0853 0.40984 0.0
H287 H 0.26777 0.14459 0.44397 0.0
C288 C 0.1503 0.02541 0.75035 0.0
C289 C 0.14239 0.0293 0.77682 0.0
C290 C 0.1371 0.05245 0.73255 0.0
C291 C 0.11868 0.08559 0.74121 0.0
C292 C 0.12179 0.09801 0.76754 0.0
C293 C 0.13246 0.06899 0.78541 0.0
C294 C 0.08057 0.09205 0.72562 0.0
C295 C 0.03146 0.05059 0.7257 0.0
C296 C -0.00634 0.05727 0.74144 0.0
C297 C -0.02608 0.0891 0.73261 0.0
C298 C 0.95964 0.11562 0.75028 0.0
C299 C -0.03209 0.11273 0.77681 0.0
H300 H 0.00626 0.02091 0.77489 0.0
C301 C -0.02025 0.07453 0.78556 0.0
C302 C -0.00856 0.04591 0.76782 0.0
H303 H -0.01462 0.07079 0.80587 0.0
H304 H 0.15989 -0.00359 0.74315 0.0
H305 H 0.13537 0.04276 0.71232 0.0
H306 H 0.10805 0.12404 0.77449 0.0
H307 H 0.12724 0.07357 0.80569 0.0
H308 H 0.08532 0.13145 0.72631 0.0
H309 H 0.0268 0.01123 0.7263 0.0
H310 H -0.02496 0.09799 0.71234 0.0
H311 H 0.94877 0.1435 0.74293 0.0
C312 C 0.44617 0.48522 1.03329 0.0
C313 C 0.46344 0.44815 1.03222 0.0
C314 C 0.44144 0.50862 1.01083 0.0
C315 C 0.45303 0.49459 0.98681 0.0
C316 C 0.47642 0.46279 0.98617 0.0
C317 C 0.48156 0.43973 1.00865 0.0
C318 C 0.4341 0.50497 0.9622 0.0
C319 C 0.39017 0.50855 0.96095 0.0
C320 C 0.35706 0.49468 0.93751 0.0
C321 C 0.37679 0.49723 0.91259 0.0
C322 C 0.34256 0.47405 0.89187 0.0
C323 C 0.28811 0.4482 0.89561 0.0
H324 H 0.28657 0.47053 0.9597 0.0
C325 C 0.26875 0.44948 0.92012 0.0
C326 C 0.30289 0.47274 0.94077 0.0
H327 H 0.22709 0.42983 0.92376 0.0
H328 H 0.43243 0.49322 1.05114 0.0
H329 H 0.42575 0.5351 1.01227 0.0
H330 H 0.48688 0.45225 0.96801 0.0
H331 H 0.4967 0.41272 1.00731 0.0
H332 H 0.45016 0.4984 0.9447 0.0
H333 H 0.37219 0.5115 0.97862 0.0
H334 H 0.41839 0.51562 0.9091 0.0
H335 H 0.3587 0.47506 0.87303 0.0
C336 C -0.02645 0.32484 0.37073 0.0
C337 C 0.02769 0.34551 0.36783 0.0
C338 C 0.94372 0.3288 0.35092 0.0
C339 C -0.03257 0.35381 0.32768 0.0
C340 C 0.02191 0.37663 0.32527 0.0
C341 C 0.05178 0.37267 0.34513 0.0
C342 C 0.93629 0.35002 0.30443 0.0
C343 C 0.88523 0.33611 0.30492 0.0
C344 C 0.85142 0.31505 0.28181 0.0
C345 C 0.79995 0.27372 0.285 0.0
C346 C 0.77061 0.24471 0.26379 0.0
C347 C 0.79205 0.25701 0.23896 0.0
H348 H 0.90971 0.36362 0.25354 0.0
C349 C 0.84148 0.30182 0.23554 0.0
C350 C 0.8709 0.33069 0.25676 0.0
H351 H 0.85905 0.31244 0.21664 0.0
H352 H 0.95356 0.30288 0.38777 0.0
H353 H 0.90184 0.30928 0.35352 0.0
H354 H 0.04125 0.3959 0.30758 0.0
H355 H 0.09353 0.38966 0.34243 0.0
H356 H 0.95524 0.35342 0.28607 0.0
H357 H 0.86586 0.33253 0.32314 0.0
H358 H 0.78373 0.26137 0.30407 0.0
H359 H 0.73224 0.21094 0.26694 0.0
C360 C 0.62616 0.06709 0.71213 0.0
C361 C 0.66914 0.11768 0.70812 0.0
C362 C 0.59426 0.03819 0.69153 0.0
C363 C 0.60536 0.05929 0.66655 0.0
C364 C 0.64376 0.11229 0.66332 0.0
C365 C 0.67561 0.14117 0.68388 0.0
C366 C 0.58572 0.02563 0.64321 0.0
C367 C 0.57788 0.97601 0.64302 0.0
C368 C 0.58861 0.95245 0.62005 0.0
C369 C 0.60681 0.91673 0.62411 0.0
C370 C 0.6293 0.90298 0.60408 0.0
C371 C 0.63375 0.92441 0.57946 0.0
H372 H 0.57289 -0.0043 0.59068 0.0
C373 C 0.61105 0.95616 0.57482 0.0
C374 C 0.58837 0.9698 0.59487 0.0
H375 H 0.61341 0.97304 0.55603 0.0
H376 H 0.6196 0.04813 0.73069 0.0
H377 H 0.56338 -0.00179 0.69493 0.0
H378 H 0.65244 0.12996 0.64438 0.0
H379 H 0.70739 0.18074 0.68043 0.0
H380 H 0.59091 0.04621 0.62518 0.0
H381 H 0.5755 0.95677 0.6612 0.0
H382 H 0.60683 0.90205 0.64322 0.0
H383 H 0.64506 0.87718 0.60811 0.0
C384 C 0.74937 0.67839 1.0472 0.0
C385 C 0.72463 0.70883 1.04958 0.0
C386 C 0.74013 0.64615 1.0257 0.0
C387 C 0.70674 0.64466 1.0059 0.0
C388 C 0.67706 0.66965 1.00997 0.0
C389 C 0.68589 0.70143 1.03159 0.0
C390 C 0.70886 0.62676 0.97934 0.0
C391 C 0.75178 0.62695 0.97018 0.0
C392 C 0.76959 0.6398 0.94311 0.0
C393 C 0.75433 0.66927 0.92753 0.0
C394 C 0.78251 0.6941 0.90541 0.0
C395 C 0.82654 0.69016 0.89838 0.0
H396 H 0.82355 0.60996 0.94648 0.0
C397 C 0.83893 0.65703 0.91267 0.0
C398 C 0.81085 0.6323 0.93486 0.0
H399 H 0.87197 0.65226 0.90742 0.0
H400 H 0.77883 0.68235 1.06089 0.0
H401 H 0.76177 0.62529 1.02407 0.0
H402 H 0.65014 0.6683 0.99538 0.0
H403 H 0.66463 0.72274 1.03337 0.0
H404 H 0.67968 0.62455 0.96583 0.0
H405 H 0.78031 0.62703 0.98339 0.0
H406 H 0.72364 0.67725 0.93332 0.0
H407 H 0.77212 0.71964 0.89496 0.0
C408 C 0.05186 0.71023 0.37106 0.0
C409 C 0.00257 0.70475 0.36576 0.0
C410 C 0.08516 0.71419 0.35101 0.0
C411 C 0.06968 0.7128 0.3253 0.0
C412 C 0.01904 0.70355 0.32009 0.0
C413 C -0.0141 0.69994 0.34011 0.0
C414 C 0.10647 0.72564 0.30354 0.0
C415 C 0.15772 0.76117 0.30574 0.0
C416 C 0.19009 0.78831 0.283 0.0
C417 C 0.18168 0.76334 0.25894 0.0
C418 C 0.20573 0.79287 0.23698 0.0
C419 C 0.23845 0.84782 0.23869 0.0
H420 H 0.23383 0.86227 0.30341 0.0
C421 C 0.25009 0.87182 0.26309 0.0
C422 C 0.22643 0.84222 0.28504 0.0
H423 H 0.27485 0.91404 0.26518 0.0
H424 H 0.06564 0.71384 0.39067 0.0
H425 H 0.1234 0.71973 0.35569 0.0
H426 H 0.00598 0.7018 0.30045 0.0
H427 H 0.94769 0.69466 0.33552 0.0
H428 H 0.0894 0.71283 0.28454 0.0
H429 H 0.17383 0.77796 0.32446 0.0
H430 H 0.15519 0.72141 0.2569 0.0
H431 H 0.1972 0.77295 0.21855 0.0
C432 C 0.47175 0.09183 0.71122 0.0
C433 C 0.42781 0.04375 0.70415 0.0
C434 C 0.50371 0.12715 0.6924 0.0
C435 C 0.49196 0.11505 0.6662 0.0
C436 C 0.45168 0.06467 0.65927 0.0
C437 C 0.41965 0.02944 0.67805 0.0
C438 C 0.5151 0.15574 0.64586 0.0
C439 C 0.52691 0.20602 0.6502 0.0
C440 C 0.52715 0.24079 0.62937 0.0
C441 C 0.5386 0.23531 0.60367 0.0
C442 C 0.52812 0.26136 0.58403 0.0
C443 C 0.50625 0.29348 0.58974 0.0
H444 H 0.50111 0.28196 0.65485 0.0
C445 C 0.49898 0.30231 0.61557 0.0
C446 C 0.50965 0.27647 0.63518 0.0
H447 H 0.48314 0.32767 0.62057 0.0
H448 H 0.47943 0.10382 0.7312 0.0
H449 H 0.53576 0.16491 0.69841 0.0
H450 H 0.44236 0.05398 0.63921 0.0
H451 H 0.38692 -0.00795 0.67208 0.0
H452 H 0.5116 0.1416 0.62623 0.0
H453 H 0.52604 0.21871 0.66975 0.0
H454 H 0.55376 0.20949 0.59853 0.0
H455 H 0.53436 0.25393 0.5643 0.0
C456 C 0.46138 0.09862 0.13876 0.0
C457 C 0.4586 0.12922 1.11875 0.0
C458 C 0.48584 0.06857 0.13492 0.0
C459 C 0.50809 0.06867 1.11091 0.0
C460 C 0.50622 0.10027 1.09114 0.0
C461 C 0.4815 0.13005 1.09495 0.0
C462 C 0.53677 0.03946 1.10643 0.0
C463 C 0.52751 -0.00373 1.11979 0.0
C464 C 0.56269 0.97354 1.11862 0.0
C465 C 0.57126 0.95304 0.14127 0.0
C466 C 0.61013 0.93905 0.14228 0.0
C467 C 0.64024 0.94404 1.12046 0.0
H468 H 0.58358 -0.01065 1.07825 0.0
C469 C 0.62884 0.9602 1.09714 0.0
C470 C 0.5904 0.97515 1.09623 0.0
H471 H 0.65181 0.96456 1.08011 0.0
H472 H 0.44492 0.09812 0.15745 0.0
H473 H 0.48831 0.04651 0.151 0.0
H474 H 0.52374 0.10174 1.07262 0.0
H475 H 0.48007 0.15348 1.0792 0.0
H476 H 0.56785 0.05553 1.09224 0.0
H477 H 0.49648 -0.01985 0.134 0.0
H478 H 0.55013 0.95094 0.15869 0.0
H479 H 0.61839 0.92669 0.16048 0.0
C480 C 0.36202 0.48445 0.49319 0.0
C481 C 0.35204 0.45278 0.47123 0.0
C482 C 0.41061 0.53041 0.49625 0.0
C483 C 0.449 0.54576 0.47701 0.0
C484 C 0.43782 0.51511 0.45465 0.0
C485 C 0.39022 0.46858 0.45199 0.0
C486 C 0.50137 0.59303 0.47952 0.0
C487 C 0.52985 0.60521 0.50129 0.0
C488 C 0.58628 0.64541 0.50144 0.0
C489 C 0.62161 0.63571 0.51528 0.0
C490 C 0.67561 0.66901 0.51259 0.0
C491 C 0.69503 0.713 0.49632 0.0
H492 H 0.57945 0.70072 0.47619 0.0
C493 C 0.6596 0.72485 0.48403 0.0
C494 C 0.60576 0.69136 0.48651 0.0
H495 H 0.67344 0.75892 0.47164 0.0
H496 H 0.33317 0.47265 0.50834 0.0
H497 H 0.41815 0.55384 0.51355 0.0
H498 H 0.46672 0.52627 0.43955 0.0
H499 H 0.38335 0.44467 0.43491 0.0
H500 H 0.51977 0.61397 0.46191 0.0
H501 H 0.51355 0.58051 0.51817 0.0
H502 H 0.60752 0.60081 0.5271 0.0
H503 H 0.70207 0.65925 0.52249 0.0
C504 C 0.01559 0.43414 0.79329 0.0
C505 C 0.01634 0.39932 0.81159 0.0
C506 C 0.02754 0.48488 0.80026 0.0
C507 C 0.04047 0.50232 0.8258 0.0
C508 C 0.04459 0.46886 0.84389 0.0
C509 C 0.03219 0.41738 0.83689 0.0
C510 C 0.05079 0.55593 0.83302 0.0
C511 C 0.02201 0.5756 0.82266 0.0
C512 C 0.03837 0.63248 0.82176 0.0
C513 C 0.02286 0.65035 0.80026 0.0
C514 C 0.04298 0.70405 0.79611 0.0
C515 C 0.07759 0.74097 0.81384 0.0
H516 H 0.08308 0.65681 0.85729 0.0
C517 C 0.0903 0.72347 0.83641 0.0
C518 C 0.07119 0.66939 0.84026 0.0
H519 H 0.11741 0.75161 0.8502 0.0
H520 H 0.00455 0.42181 0.77352 0.0
H521 H 0.02634 0.51044 0.78555 0.0
H522 H 0.05569 0.4819 0.86357 0.0
H523 H 0.03348 0.3914 0.85132 0.0
H524 H 0.08432 0.58013 0.84515 0.0
H525 H -0.01191 0.54949 0.81109 0.0
H526 H -0.00258 0.62282 0.78577 0.0
H527 H 0.03294 0.71687 0.77853 0.0
C528 C 0.34433 0.16168 0.23925 0.0
C529 C 0.34112 0.18865 0.21741 0.0
C530 C 0.3379 0.17635 0.26447 0.0
C531 C 0.32707 0.21788 0.2686 0.0
C532 C 0.32364 0.24434 0.24673 0.0
C533 C 0.33104 0.23048 0.22176 0.0
C534 C 0.31591 0.23319 0.29484 0.0
C535 C 0.33453 0.22699 0.31777 0.0
C536 C 0.32435 0.24447 0.34369 0.0
C537 C 0.35999 0.25554 0.36408 0.0
C538 C 0.35139 0.27028 0.38872 0.0
C539 C 0.30613 0.2735 0.39414 0.0
H540 H 0.25001 0.23905 0.33426 0.0
C541 C 0.27016 0.26208 0.37381 0.0
C542 C 0.27922 0.24818 0.34901 0.0
H543 H 0.23459 0.26362 0.37705 0.0
H544 H 0.35165 0.12904 0.23687 0.0
H545 H 0.33999 0.15414 0.2806 0.0
H546 H 0.31499 0.27614 0.24892 0.0
H547 H 0.32753 0.25208 0.20571 0.0
H548 H 0.29329 0.25337 0.29492 0.0
H549 H 0.36069 0.21076 0.31757 0.0
H550 H 0.39496 0.25281 0.36096 0.0
H551 H 0.3799 0.27813 0.4037 0.0
C552 C 0.15415 0.27292 0.55911 0.0
C553 C 0.20792 0.29133 0.55474 0.0
C554 C 0.13431 0.27184 0.58403 0.0
C555 C 0.16748 0.28917 0.60578 0.0
C556 C 0.22119 0.30732 0.60135 0.0
C557 C 0.24102 0.3084 0.57643 0.0
C558 C 0.14877 0.28975 0.63317 0.0
C559 C 0.09827 0.27227 0.64078 0.0
C560 C 0.07961 0.27284 0.66817 0.0
C561 C 0.02532 0.24862 0.67316 0.0
C562 C 0.0056 0.24766 0.6981 0.0
C563 C 0.03942 0.27117 0.71919 0.0
H564 H 0.15541 0.31648 0.68689 0.0
C565 C 0.09375 0.29589 0.71422 0.0
C566 C 0.11348 0.2968 0.6893 0.0
H567 H 0.1215 0.31442 0.72976 0.0
H568 H 0.12696 0.25945 0.54313 0.0
H569 H 0.09289 0.2576 0.5859 0.0
H570 H 0.24835 0.32109 0.61735 0.0
H571 H 0.28252 0.32297 0.57418 0.0
H572 H 0.17902 0.30538 0.64778 0.0
H573 H 0.06788 0.25573 0.62626 0.0
H574 H -0.00238 0.22977 0.65763 0.0
H575 H 0.96366 0.22784 0.70086 0.0
C576 C 0.88303 0.17228 0.89128 0.0
C577 C 0.93617 0.1994 0.88381 0.0
C578 C 0.86808 0.15318 0.91672 0.0
C579 C 0.90583 0.16009 0.93544 0.0
C580 C 0.95867 0.18717 0.92782 0.0
C581 C -0.02644 0.20674 0.9027 0.0
C582 C 0.8928 0.13779 0.96252 0.0
C583 C 0.84795 0.12442 0.97573 0.0
C584 C 0.83703 0.10337 1.00311 0.0
C585 C 0.79984 0.1084 1.01822 0.0
C586 C 0.78807 0.08881 1.04362 0.0
C587 C 0.81237 0.06246 1.05476 0.0
H588 H 0.88913 0.07067 1.00344 0.0
C589 C 0.84903 0.05673 1.03953 0.0
C590 C 0.86126 0.07688 1.01428 0.0
H591 H 0.86873 0.03672 1.04717 0.0
H592 H 0.85285 0.16552 0.87743 0.0
H593 H 0.82689 0.13193 0.92142 0.0
H594 H -0.01098 0.1932 0.94143 0.0
H595 H 0.0148 0.22703 0.89801 0.0
H596 H 0.9235 0.13458 0.97249 0.0
H597 H 0.81864 0.13126 0.96665 0.0
H598 H 0.77991 0.12805 1.0104 0.0
H599 H 0.75958 0.09406 1.05447 0.0
C600 C 0.81425 0.94139 0.22687 0.0
C601 C 0.79099 0.97181 0.21981 0.0
C602 C 0.81547 0.9272 0.25274 0.0
C603 C 0.79341 0.94299 0.27263 0.0
C604 C 0.77051 0.97367 0.26547 0.0
C605 C 0.76924 -0.01225 0.23965 0.0
C606 C 0.79297 0.929 0.30088 0.0
C607 C 0.81244 0.89907 0.31093 0.0
C608 C 0.812 0.88515 0.33919 0.0
C609 C 0.83722 0.8568 0.34659 0.0
C610 C 0.8384 0.84275 0.37241 0.0
C611 C 0.81417 0.85634 0.39202 0.0
H612 H 0.7671 0.91987 0.35455 0.0
C613 C 0.7886 0.88443 0.38473 0.0
C614 C 0.78744 0.89854 0.35885 0.0
H615 H 0.76954 0.89594 0.39911 0.0
H616 H 0.83143 0.92809 0.21231 0.0
H617 H 0.83375 0.9038 0.25682 0.0
H618 H 0.75313 -0.01315 0.27998 0.0
H619 H 0.75092 0.01111 0.23528 0.0
H620 H 0.77543 0.94475 0.31394 0.0
H621 H 0.83034 0.88362 0.29791 0.0
H622 H 0.85659 0.84552 0.33226 0.0
H623 H 0.85881 0.8215 0.37699 0.0
C624 C 0.89124 0.85333 0.57539 0.0
C625 C 0.9074 0.83976 0.55241 0.0
C626 C 0.91758 0.85841 0.59903 0.0
C627 C 0.9614 0.85069 0.60038 0.0
C628 C -0.02248 0.83776 0.57732 0.0
C629 C 0.95098 0.83198 0.55398 0.0
C630 C -0.00727 0.85716 0.62475 0.0
C631 C -0.02529 0.85306 0.6492 0.0
C632 C 0.00456 0.85605 0.67365 0.0
C633 C -0.02409 0.83487 0.69638 0.0
C634 C 0.00073 0.83784 0.71993 0.0
C635 C 0.05569 0.86284 0.72206 0.0
H636 H 0.08377 0.89822 0.65869 0.0
C637 C 0.08487 0.88404 0.69933 0.0
C638 C 0.05974 0.88052 0.67546 0.0
H639 H 0.12717 0.90415 0.70003 0.0
H640 H 0.85813 0.85992 0.57516 0.0
H641 H 0.90405 0.86934 0.61607 0.0
H642 H 0.01101 0.83175 0.57731 0.0
H643 H 0.96534 0.82187 0.53695 0.0
H644 H 0.03168 0.86253 0.6222 0.0
H645 H 0.9345 0.84408 0.65165 0.0
H646 H 0.93361 0.81587 0.69602 0.0
H647 H -0.0237 0.82108 0.73671 0.0
C648 C 0.22654 -0.01365 0.88852 0.0
C649 C 0.17664 0.9427 0.8834 0.0
C650 C 0.24252 0.00502 0.91399 0.0
C651 C 0.20926 -0.01987 0.93517 0.0
C652 C 0.15994 0.93613 0.9299 0.0
C653 C 0.14378 0.91812 0.90462 0.0
C654 C 0.22422 -0.00341 0.96302 0.0
C655 C 0.26109 0.04521 0.97141 0.0
C656 C 0.27367 0.06136 0.99948 0.0
C657 C 0.29876 0.11528 1.00616 0.0
C658 C 0.3119 0.13236 1.03189 0.0
C659 C 0.30123 0.09618 1.052 0.0
H660 H 0.24486 -0.01672 1.01561 0.0
C661 C 0.27666 0.04219 1.04534 0.0
C662 C 0.26297 0.02504 1.01961 0.0
H663 H 0.26779 0.01285 1.06008 0.0
H664 H 0.25307 0.00655 0.87282 0.0
H665 H 0.28118 0.03839 0.91699 0.0
H666 H 0.13324 0.91554 0.94551 0.0
H667 H 0.10518 0.88444 0.90177 0.0
H668 H 0.20119 0.96734 0.97738 0.0
H669 H 0.28152 0.07574 0.95716 0.0
H670 H 0.30809 0.14462 0.99136 0.0
H671 H 0.3309 0.17422 1.03595 0.0
loop_
_geom_bond_atom_site_label_1
_geom_bond_atom_site_label_2
_geom_bond_distance
_geom_bond_site_symmetry_2
_ccdc_geom_bond_type
Pr0 C2 2.880 . S
Pr0 O20 2.562 . S
Pr0 O21 2.490 . S
Pr0 O22 2.695 . S
Pr0 O23 2.512 . S
Pr0 O25 2.437 . S
Pr0 O28 2.436 . S
Pr0 O30 2.438 1_554 S
Pr1 C11 2.880 . S
Pr1 O22 2.436 1_556 S
Pr1 O24 2.438 1_556 S
Pr1 O26 2.562 . S
Pr1 O27 2.490 . S
Pr1 O28 2.695 1_556 S
Pr1 O29 2.512 1_556 S
Pr1 O31 2.437 . S
C2 Pr0 2.880 . S
C2 C3 1.491 . S
C2 O20 1.254 . S
C2 O21 1.225 . S
C3 C2 1.491 . S
C3 C4 1.392 . S
C3 C8 1.356 . S
C4 C3 1.392 . S
C4 C5 1.368 . S
C4 H32 0.929 . S
C5 C4 1.368 . S
C5 C6 1.386 . S
C5 H33 0.929 1_545 S
C6 C5 1.386 . S
C6 C7 1.373 . S
C7 C6 1.373 . S
C7 C8 1.409 . S
C7 H34 0.931 . S
C8 C3 1.356 . S
C8 C7 1.409 . S
C8 H35 0.930 . S
C9 O22 1.270 . S
C9 O23 1.248 . S
C10 O24 1.267 . S
C10 O25 1.278 . S
C11 Pr1 2.880 . S
C11 C12 1.491 . S
C11 O26 1.254 . S
C11 O27 1.225 . S
C12 C11 1.491 . S
C12 C13 1.392 . S
C12 C17 1.356 . S
C13 C12 1.392 . S
C13 C14 1.368 . S
C13 H36 0.929 . S
C14 C13 1.368 . S
C14 C15 1.386 . S
C14 H37 0.929 . S
C15 C14 1.386 . S
C15 C16 1.373 . S
C16 C15 1.373 . S
C16 C17 1.409 . S
C16 H38 0.931 . S
C17 C12 1.356 . S
C17 C16 1.409 . S
C17 H39 0.930 . S
C18 O28 1.270 . S
C18 O29 1.248 . S
C19 O30 1.267 . S
C19 O31 1.278 . S
O20 Pr0 2.562 . S
O20 C2 1.254 . S
O21 Pr0 2.490 . S
O21 C2 1.225 . S
O22 Pr0 2.695 . S
O22 Pr1 2.436 1_554 S
O22 C9 1.270 . S
O23 Pr0 2.512 . S
O23 C9 1.248 . S
O24 Pr1 2.438 1_554 S
O24 C10 1.267 . S
O25 Pr0 2.437 . S
O25 C10 1.278 . S
O26 Pr1 2.562 . S
O26 C11 1.254 . S
O27 Pr1 2.490 . S
O27 C11 1.225 . S
O28 Pr0 2.436 . S
O28 Pr1 2.695 1_554 S
O28 C18 1.270 . S
O29 Pr1 2.512 1_554 S
O29 C18 1.248 . S
O30 Pr0 2.438 1_556 S
O30 C19 1.267 . S
O31 Pr1 2.437 . S
O31 C19 1.278 . S
H32 C4 0.929 . S
H33 C5 0.929 1_565 S
H34 C7 0.931 . S
H35 C8 0.930 . S
H36 C13 0.929 . S
H37 C14 0.929 . S
H38 C16 0.931 . S
H39 C17 0.930 . S
Pr40 C42 2.880 . S
Pr40 O60 2.562 . S
Pr40 O61 2.490 . S
Pr40 O62 2.695 . S
Pr40 O63 2.512 . S
Pr40 O65 2.437 . S
Pr40 O68 2.436 . S
Pr40 O70 2.438 . S
Pr41 C51 2.880 . S
Pr41 O62 2.436 . S
Pr41 O64 2.438 . S
Pr41 O66 2.562 . S
Pr41 O67 2.490 . S
Pr41 O68 2.695 . S
Pr41 O69 2.512 . S
Pr41 O71 2.437 . S
C42 Pr40 2.880 . S
C42 C43 1.491 . S
C42 O60 1.254 . S
C42 O61 1.225 . S
C43 C42 1.491 . S
C43 C44 1.392 . S
C43 C48 1.356 . S
C44 C43 1.392 . S
C44 C45 1.368 . S
C44 H72 0.929 . S
C45 C44 1.368 . S
C45 C46 1.386 . S
C45 H73 0.929 . S
C46 C45 1.386 . S
C46 C47 1.373 . S
C47 C46 1.373 . S
C47 C48 1.409 . S
C47 H74 0.931 . S
C48 C43 1.356 . S
C48 C47 1.409 . S
C48 H75 0.930 . S
C49 O62 1.270 . S
C49 O63 1.248 . S
C50 O64 1.267 . S
C50 O65 1.278 . S
C51 Pr41 2.880 . S
C51 C52 1.491 . S
C51 O66 1.254 . S
C51 O67 1.225 . S
C52 C51 1.491 . S
C52 C53 1.392 . S
C52 C57 1.356 . S
C53 C52 1.392 . S
C53 C54 1.368 . S
C53 H76 0.929 . S
C54 C53 1.368 . S
C54 C55 1.386 . S
C54 H77 0.929 . S
C55 C54 1.386 . S
C55 C56 1.373 . S
C56 C55 1.373 . S
C56 C57 1.409 . S
C56 H78 0.931 . S
C57 C52 1.356 . S
C57 C56 1.409 . S
C57 H79 0.930 . S
C58 O68 1.270 . S
C58 O69 1.248 . S
C59 O70 1.267 . S
C59 O71 1.278 . S
O60 Pr40 2.562 . S
O60 C42 1.254 . S
O61 Pr40 2.490 . S
O61 C42 1.225 . S
O62 Pr40 2.695 . S
O62 Pr41 2.436 . S
O62 C49 1.270 . S
O63 Pr40 2.512 . S
O63 C49 1.248 . S
O64 Pr41 2.438 . S
O64 C50 1.267 . S
O65 Pr40 2.437 . S
O65 C50 1.278 . S
O66 Pr41 2.562 . S
O66 C51 1.254 . S
O67 Pr41 2.490 . S
O67 C51 1.225 . S
O68 Pr40 2.436 . S
O68 Pr41 2.695 . S
O68 C58 1.270 . S
O69 Pr41 2.512 . S
O69 C58 1.248 . S
O70 Pr40 2.438 . S
O70 C59 1.267 . S
O71 Pr41 2.437 . S
O71 C59 1.278 . S
H72 C44 0.929 . S
H73 C45 0.929 . S
H74 C47 0.931 . S
H75 C48 0.930 . S
H76 C53 0.929 . S
H77 C54 0.929 . S
H78 C56 0.931 . S
H79 C57 0.930 . S
Pr80 C82 2.880 . S
Pr80 O100 2.562 . S
Pr80 O101 2.490 . S
Pr80 O102 2.702 . S
Pr80 O103 2.512 . S
Pr80 O105 2.437 1_455 S
Pr80 O108 2.436 . S
Pr80 O110 2.438 . S
Pr81 C91 2.880 . S
Pr81 O102 2.413 1_655 S
Pr81 O104 2.438 . S
Pr81 O106 2.562 . S
Pr81 O107 2.490 . S
Pr81 O108 2.695 1_655 S
Pr81 O109 2.512 . S
Pr81 O111 2.437 1_655 S
C82 Pr80 2.880 . S
C82 C83 1.491 . S
C82 O100 1.254 . S
C82 O101 1.225 . S
C83 C82 1.491 . S
C83 C84 1.392 . S
C83 C88 1.356 . S
C84 C83 1.392 . S
C84 C85 1.368 . S
C84 H112 0.929 . S
C85 C84 1.368 . S
C85 C86 1.386 . S
C85 H113 0.929 . S
C86 C85 1.386 . S
C86 C87 1.373 . S
C87 C86 1.373 . S
C87 C88 1.409 . S
C87 H114 0.931 . S
C88 C83 1.356 . S
C88 C87 1.409 . S
C88 H115 0.930 . S
C89 O102 1.289 . S
C89 O103 1.248 . S
C90 O104 1.267 . S
C90 O105 1.278 . S
C91 Pr81 2.880 . S
C91 C92 1.491 . S
C91 O106 1.254 . S
C91 O107 1.225 . S
C92 C91 1.491 . S
C92 C93 1.392 . S
C92 C97 1.356 . S
C93 C92 1.392 . S
C93 C94 1.368 . S
C93 H116 0.929 . S
C94 C93 1.368 . S
C94 C95 1.386 . S
C94 H117 0.929 . S
C95 C94 1.386 . S
C95 C96 1.373 . S
C96 C95 1.373 . S
C96 C97 1.409 . S
C96 H118 0.931 . S
C97 C92 1.356 . S
C97 C96 1.409 . S
C97 H119 0.930 . S
C98 O108 1.270 1_655 S
C98 O109 1.248 . S
C99 O110 1.267 . S
C99 O111 1.278 . S
O100 Pr80 2.562 . S
O100 C82 1.254 . S
O101 Pr80 2.490 . S
O101 C82 1.225 . S
O102 Pr80 2.702 . S
O102 Pr81 2.413 1_455 S
O102 C89 1.289 . S
O103 Pr80 2.512 . S
O103 C89 1.248 . S
O104 Pr81 2.438 . S
O104 C90 1.267 . S
O105 Pr80 2.437 1_655 S
O105 C90 1.278 . S
O106 Pr81 2.562 . S
O106 C91 1.254 . S
O107 Pr81 2.490 . S
O107 C91 1.225 . S
O108 Pr80 2.436 . S
O108 Pr81 2.695 1_455 S
O108 C98 1.270 1_455 S
O109 Pr81 2.512 . S
O109 C98 1.248 . S
O110 Pr80 2.438 . S
O110 C99 1.267 . S
O111 Pr81 2.437 1_455 S
O111 C99 1.278 . S
H112 C84 0.929 . S
H113 C85 0.929 . S
H114 C87 0.931 . S
H115 C88 0.930 . S
H116 C93 0.929 . S
H117 C94 0.929 . S
H118 C96 0.931 . S
H119 C97 0.930 . S
Pr120 C122 2.880 . S
Pr120 O140 2.562 . S
Pr120 O141 2.490 . S
Pr120 O142 2.695 . S
Pr120 O143 2.512 . S
Pr120 O145 2.443 . S
Pr120 O148 2.436 . S
Pr120 O150 2.438 1_554 S
Pr121 C131 2.880 . S
Pr121 O142 2.436 1_566 S
Pr121 O144 2.438 1_556 S
Pr121 O146 2.562 . S
Pr121 O147 2.490 . S
Pr121 O148 2.695 1_566 S
Pr121 O149 2.512 1_556 S
Pr121 O151 2.437 1_565 S
C122 Pr120 2.880 . S
C122 C123 1.491 . S
C122 O140 1.254 . S
C122 O141 1.225 . S
C123 C122 1.491 . S
C123 C124 1.392 . S
C123 C128 1.356 . S
C124 C123 1.392 . S
C124 C125 1.368 . S
C124 H152 0.929 . S
C125 C124 1.368 . S
C125 C126 1.386 . S
C125 H153 0.929 . S
C126 C125 1.386 . S
C126 C127 1.373 . S
C127 C126 1.373 . S
C127 C128 1.409 . S
C127 H154 0.931 . S
C128 C123 1.356 . S
C128 C127 1.409 . S
C128 H155 0.930 . S
C129 O142 1.270 . S
C129 O143 1.248 . S
C130 O144 1.267 . S
C130 O145 1.273 1_565 S
C131 Pr121 2.880 . S
C131 C132 1.491 . S
C131 O146 1.254 . S
C131 O147 1.225 . S
C132 C131 1.491 . S
C132 C133 1.392 . S
C132 C137 1.356 . S
C133 C132 1.392 . S
C133 C134 1.368 . S
C133 H156 0.929 . S
C134 C133 1.368 . S
C134 C135 1.386 . S
C134 H157 0.929 . S
C135 C134 1.386 . S
C135 C136 1.373 . S
C136 C135 1.373 . S
C136 C137 1.409 . S
C136 H158 0.931 . S
C137 C132 1.356 . S
C137 C136 1.409 . S
C137 H159 0.930 . S
C138 O148 1.270 1_565 S
C138 O149 1.248 . S
C139 O150 1.267 . S
C139 O151 1.278 . S
O140 Pr120 2.562 . S
O140 C122 1.254 . S
O141 Pr120 2.490 . S
O141 C122 1.225 . S
O142 Pr120 2.695 . S
O142 Pr121 2.436 1_544 S
O142 C129 1.270 . S
O143 Pr120 2.512 . S
O143 C129 1.248 . S
O144 Pr121 2.438 1_554 S
O144 C130 1.267 . S
O145 Pr120 2.443 . S
O145 C130 1.273 1_545 S
O146 Pr121 2.562 . S
O146 C131 1.254 . S
O147 Pr121 2.490 . S
O147 C131 1.225 . S
O148 Pr120 2.436 . S
O148 Pr121 2.695 1_544 S
O148 C138 1.270 1_545 S
O149 Pr121 2.512 1_554 S
O149 C138 1.248 . S
O150 Pr120 2.438 1_556 S
O150 C139 1.267 . S
O151 Pr121 2.437 1_545 S
O151 C139 1.278 . S
H152 C124 0.929 . S
H153 C125 0.929 . S
H154 C127 0.931 . S
H155 C128 0.930 . S
H156 C133 0.929 . S
H157 C134 0.929 . S
H158 C136 0.931 . S
H159 C137 0.930 . S
Pr160 C162 2.880 . S
Pr160 O180 2.562 . S
Pr160 O181 2.490 . S
Pr160 O182 2.695 . S
Pr160 O183 2.512 . S
Pr160 O185 2.437 . S
Pr160 O188 2.436 . S
Pr160 O190 2.438 . S
Pr161 C171 2.880 . S
Pr161 O182 2.436 . S
Pr161 O184 2.438 . S
Pr161 O186 2.562 . S
Pr161 O187 2.490 . S
Pr161 O188 2.695 . S
Pr161 O189 2.512 . S
Pr161 O191 2.437 . S
C162 Pr160 2.880 . S
C162 C163 1.491 . S
C162 O180 1.254 . S
C162 O181 1.225 . S
C163 C162 1.491 . S
C163 C164 1.392 . S
C163 C168 1.356 . S
C164 C163 1.392 . S
C164 C165 1.368 . S
C164 H192 0.929 . S
C165 C164 1.368 . S
C165 C166 1.386 . S
C165 H193 0.929 . S
C166 C165 1.386 . S
C166 C167 1.373 . S
C167 C166 1.373 . S
C167 C168 1.409 . S
C167 H194 0.931 . S
C168 C163 1.356 . S
C168 C167 1.409 . S
C168 H195 0.930 . S
C169 O182 1.270 . S
C169 O183 1.248 . S
C170 O184 1.267 . S
C170 O185 1.278 . S
C171 Pr161 2.880 . S
C171 C172 1.491 . S
C171 O186 1.254 . S
C171 O187 1.225 . S
C172 C171 1.491 . S
C172 C173 1.392 . S
C172 C177 1.356 1_655 S
C173 C172 1.392 . S
C173 C174 1.368 . S
C173 H196 0.929 . S
C174 C173 1.368 . S
C174 C175 1.386 1_655 S
C174 H197 0.929 . S
C175 C174 1.386 1_455 S
C175 C176 1.373 . S
C176 C175 1.373 . S
C176 C177 1.409 . S
C176 H198 0.931 . S
C177 C172 1.356 1_455 S
C177 C176 1.409 . S
C177 H199 0.930 . S
C178 O188 1.270 . S
C178 O189 1.248 . S
C179 O190 1.267 . S
C179 O191 1.278 . S
O180 Pr160 2.562 . S
O180 C162 1.254 . S
O181 Pr160 2.490 . S
O181 C162 1.225 . S
O182 Pr160 2.695 . S
O182 Pr161 2.436 . S
O182 C169 1.270 . S
O183 Pr160 2.512 . S
O183 C169 1.248 . S
O184 Pr161 2.438 . S
O184 C170 1.267 . S
O185 Pr160 2.437 . S
O185 C170 1.278 . S
O186 Pr161 2.562 . S
O186 C171 1.254 . S
O187 Pr161 2.490 . S
O187 C171 1.225 . S
O188 Pr160 2.436 . S
O188 Pr161 2.695 . S
O188 C178 1.270 . S
O189 Pr161 2.512 . S
O189 C178 1.248 . S
O190 Pr160 2.438 . S
O190 C179 1.267 . S
O191 Pr161 2.437 . S
O191 C179 1.278 . S
H192 C164 0.929 . S
H193 C165 0.929 . S
H194 C167 0.931 . S
H195 C168 0.930 . S
H196 C173 0.929 . S
H197 C174 0.929 . S
H198 C176 0.931 . S
H199 C177 0.930 . S
Pr200 C202 2.880 . S
Pr200 O220 2.562 . S
Pr200 O221 2.490 . S
Pr200 O222 2.695 . S
Pr200 O223 2.512 . S
Pr200 O225 2.437 . S
Pr200 O228 2.436 . S
Pr200 O230 2.438 . S
Pr201 C211 2.880 . S
Pr201 O222 2.436 . S
Pr201 O224 2.438 . S
Pr201 O226 2.562 . S
Pr201 O227 2.490 . S
Pr201 O228 2.695 . S
Pr201 O229 2.512 . S
Pr201 O231 2.437 . S
C202 Pr200 2.880 . S
C202 C203 1.491 . S
C202 O220 1.254 . S
C202 O221 1.225 . S
C203 C202 1.491 . S
C203 C204 1.392 . S
C203 C208 1.356 . S
C204 C203 1.392 . S
C204 C205 1.368 1_455 S
C204 H232 0.929 . S
C205 C204 1.368 1_655 S
C205 C206 1.386 1_655 S
C205 H233 0.929 . S
C206 C205 1.386 1_455 S
C206 C207 1.373 . S
C207 C206 1.373 . S
C207 C208 1.409 . S
C207 H234 0.931 . S
C208 C203 1.356 . S
C208 C207 1.409 . S
C208 H235 0.930 . S
C209 O222 1.270 . S
C209 O223 1.248 . S
C210 O224 1.267 . S
C210 O225 1.278 . S
C211 Pr201 2.880 . S
C211 C212 1.491 . S
C211 O226 1.254 . S
C211 O227 1.225 . S
C212 C211 1.491 . S
C212 C213 1.392 . S
C212 C217 1.356 1_565 S
C213 C212 1.392 . S
C213 C214 1.368 . S
C213 H236 0.929 . S
C214 C213 1.368 . S
C214 C215 1.386 1_565 S
C214 H237 0.929 . S
C215 C214 1.386 1_545 S
C215 C216 1.373 . S
C216 C215 1.373 . S
C216 C217 1.409 . S
C216 H238 0.931 . S
C217 C212 1.356 1_545 S
C217 C216 1.409 . S
C217 H239 0.930 . S
C218 O228 1.270 . S
C218 O229 1.248 . S
C219 O230 1.267 . S
C219 O231 1.278 . S
O220 Pr200 2.562 . S
O220 C202 1.254 . S
O221 Pr200 2.490 . S
O221 C202 1.225 . S
O222 Pr200 2.695 . S
O222 Pr201 2.436 . S
O222 C209 1.270 . S
O223 Pr200 2.512 . S
O223 C209 1.248 . S
O224 Pr201 2.438 . S
O224 C210 1.267 . S
O225 Pr200 2.437 . S
O225 C210 1.278 . S
O226 Pr201 2.562 . S
O226 C211 1.254 . S
O227 Pr201 2.490 . S
O227 C211 1.225 . S
O228 Pr200 2.436 . S
O228 Pr201 2.695 . S
O228 C218 1.270 . S
O229 Pr201 2.512 . S
O229 C218 1.248 . S
O230 Pr200 2.438 . S
O230 C219 1.267 . S
O231 Pr201 2.437 . S
O231 C219 1.278 . S
H232 C204 0.929 . S
H233 C205 0.929 . S
H234 C207 0.931 . S
H235 C208 0.930 . S
H236 C213 0.929 . S
H237 C214 0.929 . S
H238 C216 0.931 . S
H239 C217 0.930 . S
C240 C241 1.386 1_546 S
C240 C242 1.383 . S
C240 H256 0.951 . S
C241 C240 1.386 1_564 S
C241 C245 1.383 1_565 S
C242 C240 1.383 . S
C242 C243 1.402 1_656 S
C242 H257 0.951 1_655 S
C243 C242 1.402 1_454 S
C243 C244 1.375 1_455 S
C243 C246 1.481 . S
C244 C243 1.375 1_655 S
C244 C245 1.367 . S
C244 H258 0.951 . S
C245 C241 1.383 1_545 S
C245 C244 1.367 . S
C245 H259 0.950 1_545 S
C246 C243 1.481 . S
C246 C247 1.297 . S
C246 H260 0.950 . S
C247 C246 1.297 . S
C247 C248 1.479 . S
C247 H261 0.950 1_554 S
C248 C247 1.479 . S
C248 C249 1.375 1_554 S
C248 C254 1.404 . S
C249 C248 1.375 1_556 S
C249 C250 1.369 . S
C249 H262 0.950 . S
C250 C249 1.369 . S
C250 C251 1.392 1_556 S
C250 H263 0.951 . S
C251 C250 1.392 1_554 S
C251 C253 1.384 . S
H252 C254 0.949 . S
C253 C251 1.384 . S
C253 C254 1.385 . S
C253 H255 0.950 . S
C254 C248 1.404 . S
C254 H252 0.949 . S
C254 C253 1.385 . S
H255 C253 0.950 . S
H256 C240 0.951 . S
H257 C242 0.951 1_455 S
H258 C244 0.951 . S
H259 C245 0.950 1_565 S
H260 C246 0.950 . S
H261 C247 0.950 1_556 S
H262 C249 0.950 . S
H263 C250 0.951 . S
C264 C265 1.386 1_455 S
C264 C266 1.383 . S
C264 H280 0.951 . S
C265 C264 1.386 1_655 S
C265 C269 1.383 . S
C266 C264 1.383 . S
C266 C267 1.402 1_565 S
C266 H281 0.951 1_565 S
C267 C266 1.402 1_545 S
C267 C268 1.375 1_445 S
C267 C270 1.481 . S
C268 C267 1.375 1_665 S
C268 C269 1.367 . S
C268 H282 0.951 . S
C269 C265 1.383 . S
C269 C268 1.367 . S
C269 H283 0.950 . S
C270 C267 1.481 . S
C270 C271 1.297 . S
C270 H284 0.950 . S
C271 C270 1.297 . S
C271 C272 1.479 . S
C271 H285 0.950 . S
C272 C271 1.479 . S
C272 C273 1.375 . S
C272 C278 1.404 . S
C273 C272 1.375 . S
C273 C274 1.369 . S
C273 H286 0.950 . S
C274 C273 1.369 . S
C274 C275 1.392 . S
C274 H287 0.951 . S
C275 C274 1.392 . S
C275 C277 1.384 . S
H276 C278 0.949 . S
C277 C275 1.384 . S
C277 C278 1.385 . S
C277 H279 0.950 . S
C278 C272 1.404 . S
C278 H276 0.949 . S
C278 C277 1.385 . S
H279 C277 0.950 . S
H280 C264 0.951 . S
H281 C266 0.951 1_545 S
H282 C268 0.951 . S
H283 C269 0.950 . S
H284 C270 0.950 . S
H285 C271 0.950 . S
H286 C273 0.950 . S
H287 C274 0.951 . S
C288 C289 1.379 1_545 S
C288 C290 1.398 . S
C288 H304 0.942 1_545 S
C289 C288 1.379 1_565 S
C289 C293 1.383 1_565 S
C290 C288 1.398 . S
C290 C291 1.402 . S
C290 H305 0.951 . S
C291 C290 1.402 . S
C291 C292 1.375 . S
C291 C294 1.481 . S
C292 C291 1.375 . S
C292 C293 1.367 . S
C292 H306 0.951 . S
C293 C289 1.383 1_545 S
C293 C292 1.367 . S
C293 H307 0.950 . S
C294 C291 1.481 . S
C294 C295 1.297 . S
C294 H308 0.950 . S
C295 C294 1.297 . S
C295 C296 1.479 . S
C295 H309 0.950 . S
C296 C295 1.479 . S
C296 C297 1.375 . S
C296 C302 1.404 . S
C297 C296 1.375 . S
C297 C298 1.369 1_455 S
C297 H310 0.950 . S
C298 C297 1.369 1_655 S
C298 C299 1.392 . S
C298 H311 0.951 . S
C299 C298 1.392 . S
C299 C301 1.384 1_655 S
H300 C302 0.949 . S
C301 C299 1.384 1_455 S
C301 C302 1.385 . S
C301 H303 0.950 . S
C302 C296 1.404 . S
C302 H300 0.949 . S
C302 C301 1.385 . S
H303 C301 0.950 . S
H304 C288 0.942 1_565 S
H305 C290 0.951 . S
H306 C292 0.951 . S
H307 C293 0.950 . S
H308 C294 0.950 . S
H309 C295 0.950 . S
H310 C297 0.950 . S
H311 C298 0.951 . S
C312 C313 1.386 . S
C312 C314 1.383 . S
C312 H328 0.951 . S
C313 C312 1.386 . S
C313 C317 1.383 . S
C314 C312 1.383 . S
C314 C315 1.402 . S
C314 H329 0.951 . S
C315 C314 1.402 . S
C315 C316 1.375 . S
C315 C318 1.481 . S
C316 C315 1.375 . S
C316 C317 1.367 . S
C316 H330 0.951 . S
C317 C313 1.383 . S
C317 C316 1.367 . S
C317 H331 0.950 . S
C318 C315 1.481 . S
C318 C319 1.297 . S
C318 H332 0.950 . S
C319 C318 1.297 . S
C319 C320 1.479 . S
C319 H333 0.950 . S
C320 C319 1.479 . S
C320 C321 1.375 . S
C320 C326 1.404 . S
C321 C320 1.375 . S
C321 C322 1.369 . S
C321 H334 0.950 . S
C322 C321 1.369 . S
C322 C323 1.392 . S
C322 H335 0.951 . S
C323 C322 1.392 . S
C323 C325 1.384 . S
H324 C326 0.949 . S
C325 C323 1.384 . S
C325 C326 1.385 . S
C325 H327 0.950 . S
C326 C320 1.404 . S
C326 H324 0.949 . S
C326 C325 1.385 . S
H327 C325 0.950 . S
H328 C312 0.951 . S
H329 C314 0.951 . S
H330 C316 0.951 . S
H331 C317 0.950 . S
H332 C318 0.950 . S
H333 C319 0.950 . S
H334 C321 0.950 . S
H335 C322 0.951 . S
C336 C337 1.386 . S
C336 C338 1.383 . S
C336 H352 0.951 . S
C337 C336 1.386 . S
C337 C341 1.383 . S
C338 C336 1.383 . S
C338 C339 1.402 . S
C338 H353 0.951 . S
C339 C338 1.402 . S
C339 C340 1.375 . S
C339 C342 1.481 . S
C340 C339 1.375 . S
C340 C341 1.367 . S
C340 H354 0.951 . S
C341 C337 1.383 . S
C341 C340 1.367 . S
C341 H355 0.950 . S
C342 C339 1.481 . S
C342 C343 1.297 1_455 S
C342 H356 0.950 . S
C343 C342 1.297 1_655 S
C343 C344 1.479 . S
C343 H357 0.950 . S
C344 C343 1.479 . S
C344 C345 1.375 . S
C344 C350 1.404 . S
C345 C344 1.375 . S
C345 C346 1.369 . S
C345 H358 0.950 . S
C346 C345 1.369 . S
C346 C347 1.392 . S
C346 H359 0.951 . S
C347 C346 1.392 . S
C347 C349 1.384 . S
H348 C350 0.949 . S
C349 C347 1.384 . S
C349 C350 1.385 . S
C349 H351 0.950 . S
C350 C344 1.404 . S
C350 H348 0.949 . S
C350 C349 1.385 . S
H351 C349 0.950 . S
H352 C336 0.951 . S
H353 C338 0.951 . S
H354 C340 0.951 . S
H355 C341 0.950 . S
H356 C342 0.950 . S
H357 C343 0.950 . S
H358 C345 0.950 . S
H359 C346 0.951 . S
C360 C361 1.386 . S
C360 C362 1.383 . S
C360 H376 0.951 . S
C361 C360 1.386 . S
C361 C365 1.383 . S
C362 C360 1.383 . S
C362 C363 1.402 . S
C362 H377 0.951 . S
C363 C362 1.402 . S
C363 C364 1.375 . S
C363 C366 1.481 . S
C364 C363 1.375 . S
C364 C365 1.367 . S
C364 H378 0.951 . S
C365 C361 1.383 . S
C365 C364 1.367 . S
C365 H379 0.950 . S
C366 C363 1.481 . S
C366 C367 1.297 1_545 S
C366 H380 0.950 . S
C367 C366 1.297 1_565 S
C367 C368 1.479 . S
C367 H381 0.950 . S
C368 C367 1.479 . S
C368 C369 1.375 . S
C368 C374 1.404 . S
C369 C368 1.375 . S
C369 C370 1.369 . S
C369 H382 0.950 . S
C370 C369 1.369 . S
C370 C371 1.392 . S
C370 H383 0.951 . S
C371 C370 1.392 . S
C371 C373 1.384 . S
H372 C374 0.949 . S
C373 C371 1.384 . S
C373 C374 1.385 . S
C373 H375 0.950 . S
C374 C368 1.404 . S
C374 H372 0.949 . S
C374 C373 1.385 . S
H375 C373 0.950 . S
H376 C360 0.951 . S
H377 C362 0.951 . S
H378 C364 0.951 . S
H379 C365 0.950 . S
H380 C366 0.950 . S
H381 C367 0.950 . S
H382 C369 0.950 . S
H383 C370 0.951 . S
C384 C385 1.386 . S
C384 C386 1.383 . S
C384 H400 0.951 . S
C385 C384 1.386 . S
C385 C389 1.383 . S
C386 C384 1.383 . S
C386 C387 1.402 . S
C386 H401 0.951 . S
C387 C386 1.402 . S
C387 C388 1.375 . S
C387 C390 1.481 . S
C388 C387 1.375 . S
C388 C389 1.367 . S
C388 H402 0.951 . S
C389 C385 1.383 . S
C389 C388 1.367 . S
C389 H403 0.950 . S
C390 C387 1.481 . S
C390 C391 1.297 . S
C390 H404 0.950 . S
C391 C390 1.297 . S
C391 C392 1.479 . S
C391 H405 0.950 . S
C392 C391 1.479 . S
C392 C393 1.375 . S
C392 C398 1.404 . S
C393 C392 1.375 . S
C393 C394 1.369 . S
C393 H406 0.950 . S
C394 C393 1.369 . S
C394 C395 1.392 1_655 S
C394 H407 0.951 . S
C395 C394 1.392 1_455 S
C395 C397 1.384 . S
H396 C398 0.949 . S
C397 C395 1.384 . S
C397 C398 1.385 1_455 S
C397 H399 0.950 . S
C398 C392 1.404 . S
C398 H396 0.949 . S
C398 C397 1.385 1_655 S
H399 C397 0.950 . S
H400 C384 0.951 . S
H401 C386 0.951 . S
H402 C388 0.951 . S
H403 C389 0.950 . S
H404 C390 0.950 . S
H405 C391 0.950 . S
H406 C393 0.950 . S
H407 C394 0.951 . S
C408 C409 1.386 . S
C408 C410 1.383 . S
C408 H424 0.951 . S
C409 C408 1.386 . S
C409 C413 1.383 . S
C410 C408 1.383 . S
C410 C411 1.402 . S
C410 H425 0.951 . S
C411 C410 1.402 . S
C411 C412 1.375 . S
C411 C414 1.481 . S
C412 C411 1.375 . S
C412 C413 1.367 . S
C412 H426 0.951 . S
C413 C409 1.383 . S
C413 C412 1.367 . S
C413 H427 0.950 1_455 S
C414 C411 1.481 . S
C414 C415 1.297 . S
C414 H428 0.950 . S
C415 C414 1.297 . S
C415 C416 1.479 . S
C415 H429 0.950 . S
C416 C415 1.479 . S
C416 C417 1.375 . S
C416 C422 1.404 . S
C417 C416 1.375 . S
C417 C418 1.369 . S
C417 H430 0.950 . S
C418 C417 1.369 . S
C418 C419 1.392 1_565 S
C418 H431 0.951 . S
C419 C418 1.392 1_545 S
C419 C421 1.384 . S
H420 C422 0.949 . S
C421 C419 1.384 . S
C421 C422 1.385 1_545 S
C421 H423 0.950 . S
C422 C416 1.404 . S
C422 H420 0.949 . S
C422 C421 1.385 1_565 S
H423 C421 0.950 . S
H424 C408 0.951 . S
H425 C410 0.951 . S
H426 C412 0.951 . S
H427 C413 0.950 1_655 S
H428 C414 0.950 . S
H429 C415 0.950 . S
H430 C417 0.950 . S
H431 C418 0.951 . S
C432 C433 1.386 . S
C432 C434 1.383 . S
C432 H448 0.951 . S
C433 C432 1.386 . S
C433 C437 1.383 . S
C434 C432 1.383 . S
C434 C435 1.402 . S
C434 H449 0.951 . S
C435 C434 1.402 . S
C435 C436 1.375 . S
C435 C438 1.481 . S
C436 C435 1.375 . S
C436 C437 1.367 . S
C436 H450 0.951 . S
C437 C433 1.383 . S
C437 C436 1.367 . S
C437 H451 0.950 . S
C438 C435 1.481 . S
C438 C439 1.297 . S
C438 H452 0.950 . S
C439 C438 1.297 . S
C439 C440 1.479 . S
C439 H453 0.950 . S
C440 C439 1.479 . S
C440 C441 1.375 . S
C440 C446 1.404 . S
C441 C440 1.375 . S
C441 C442 1.369 . S
C441 H454 0.950 . S
C442 C441 1.369 . S
C442 C443 1.392 . S
C442 H455 0.951 . S
C443 C442 1.392 . S
C443 C445 1.384 . S
H444 C446 0.949 . S
C445 C443 1.384 . S
C445 C446 1.385 . S
C445 H447 0.950 . S
C446 C440 1.404 . S
C446 H444 0.949 . S
C446 C445 1.385 . S
H447 C445 0.950 . S
H448 C432 0.951 . S
H449 C434 0.951 . S
H450 C436 0.951 . S
H451 C437 0.950 . S
H452 C438 0.950 . S
H453 C439 0.950 . S
H454 C441 0.950 . S
H455 C442 0.951 . S
C456 C457 1.386 . S
C456 C458 1.383 . S
C456 H472 0.951 . S
C457 C456 1.386 . S
C457 C461 1.383 . S
C458 C456 1.383 . S
C458 C459 1.402 . S
C458 H473 0.951 . S
C459 C458 1.402 . S
C459 C460 1.375 . S
C459 C462 1.481 . S
C460 C459 1.375 . S
C460 C461 1.367 . S
C460 H474 0.951 . S
C461 C457 1.383 . S
C461 C460 1.367 . S
C461 H475 0.950 . S
C462 C459 1.481 . S
C462 C463 1.297 . S
C462 H476 0.950 . S
C463 C462 1.297 . S
C463 C464 1.479 . S
C463 H477 0.950 . S
C464 C463 1.479 . S
C464 C465 1.375 . S
C464 C470 1.404 1_545 S
C465 C464 1.375 . S
C465 C466 1.369 . S
C465 H478 0.950 . S
C466 C465 1.369 . S
C466 C467 1.392 1_545 S
C466 H479 0.951 . S
C467 C466 1.392 1_565 S
C467 C469 1.384 . S
H468 C470 0.949 . S
C469 C467 1.384 . S
C469 C470 1.385 . S
C469 H471 0.950 . S
C470 C464 1.404 1_565 S
C470 H468 0.949 . S
C470 C469 1.385 . S
H471 C469 0.950 . S
H472 C456 0.951 . S
H473 C458 0.951 . S
H474 C460 0.951 . S
H475 C461 0.950 . S
H476 C462 0.950 . S
H477 C463 0.950 . S
H478 C465 0.950 . S
H479 C466 0.951 . S
C480 C481 1.386 . S
C480 C482 1.383 . S
C480 H496 0.951 . S
C481 C480 1.386 . S
C481 C485 1.383 . S
C482 C480 1.383 . S
C482 C483 1.402 . S
C482 H497 0.951 . S
C483 C482 1.402 . S
C483 C484 1.375 . S
C483 C486 1.481 . S
C484 C483 1.375 . S
C484 C485 1.367 . S
C484 H498 0.951 . S
C485 C481 1.383 . S
C485 C484 1.367 . S
C485 H499 0.950 . S
C486 C483 1.481 . S
C486 C487 1.297 . S
C486 H500 0.950 . S
C487 C486 1.297 . S
C487 C488 1.479 . S
C487 H501 0.950 . S
C488 C487 1.479 . S
C488 C489 1.375 . S
C488 C494 1.404 . S
C489 C488 1.375 . S
C489 C490 1.369 . S
C489 H502 0.950 . S
C490 C489 1.369 . S
C490 C491 1.392 . S
C490 H503 0.951 . S
C491 C490 1.392 . S
C491 C493 1.384 . S
H492 C494 0.949 . S
C493 C491 1.384 . S
C493 C494 1.385 . S
C493 H495 0.950 . S
C494 C488 1.404 . S
C494 H492 0.949 . S
C494 C493 1.385 . S
H495 C493 0.950 . S
H496 C480 0.951 . S
H497 C482 0.951 . S
H498 C484 0.951 . S
H499 C485 0.950 . S
H500 C486 0.950 . S
H501 C487 0.950 . S
H502 C489 0.950 . S
H503 C490 0.951 . S
C504 C505 1.386 1_455 S
C504 C506 1.383 . S
C504 H520 0.951 . S
C505 C504 1.386 1_655 S
C505 C509 1.383 1_655 S
C506 C504 1.383 . S
C506 C507 1.402 . S
C506 H521 0.951 . S
C507 C506 1.402 . S
C507 C508 1.375 . S
C507 C510 1.481 . S
C508 C507 1.375 . S
C508 C509 1.366 . S
C508 H522 0.951 . S
C509 C505 1.383 1_455 S
C509 C508 1.366 . S
C509 H523 0.950 1_455 S
C510 C507 1.481 . S
C510 C511 1.297 . S
C510 H524 0.950 . S
C511 C510 1.297 . S
C511 C512 1.479 . S
C511 H525 0.950 . S
C512 C511 1.479 . S
C512 C513 1.375 . S
C512 C518 1.404 . S
C513 C512 1.375 . S
C513 C514 1.369 . S
C513 H526 0.950 . S
C514 C513 1.369 . S
C514 C515 1.392 . S
C514 H527 0.951 . S
C515 C514 1.392 . S
C515 C517 1.384 . S
H516 C518 0.949 . S
C517 C515 1.384 . S
C517 C518 1.385 . S
C517 H519 0.950 . S
C518 C512 1.404 . S
C518 H516 0.949 . S
C518 C517 1.385 . S
H519 C517 0.950 . S
H520 C504 0.951 . S
H521 C506 0.951 . S
H522 C508 0.951 . S
H523 C509 0.950 1_655 S
H524 C510 0.950 . S
H525 C511 0.950 . S
H526 C513 0.950 . S
H527 C514 0.951 . S
C528 C529 1.386 . S
C528 C530 1.383 . S
C528 H544 0.951 . S
C529 C528 1.386 . S
C529 C533 1.383 . S
C530 C528 1.383 . S
C530 C531 1.402 . S
C530 H545 0.951 . S
C531 C530 1.402 . S
C531 C532 1.375 . S
C531 C534 1.481 . S
C532 C531 1.375 . S
C532 C533 1.367 . S
C532 H546 0.951 . S
C533 C529 1.383 . S
C533 C532 1.367 . S
C533 H547 0.950 . S
C534 C531 1.481 . S
C534 C535 1.297 . S
C534 H548 0.950 . S
C535 C534 1.297 . S
C535 C536 1.479 . S
C535 H549 0.950 . S
C536 C535 1.479 . S
C536 C537 1.375 . S
C536 C542 1.404 . S
C537 C536 1.375 . S
C537 C538 1.369 . S
C537 H550 0.950 . S
C538 C537 1.369 . S
C538 C539 1.392 . S
C538 H551 0.951 . S
C539 C538 1.392 . S
C539 C541 1.384 . S
H540 C542 0.949 . S
C541 C539 1.384 . S
C541 C542 1.385 . S
C541 H543 0.950 . S
C542 C536 1.404 . S
C542 H540 0.949 . S
C542 C541 1.385 . S
H543 C541 0.950 . S
H544 C528 0.951 . S
H545 C530 0.951 . S
H546 C532 0.951 . S
H547 C533 0.950 . S
H548 C534 0.950 . S
H549 C535 0.950 . S
H550 C537 0.950 . S
H551 C538 0.951 . S
C552 C553 1.386 . S
C552 C554 1.383 . S
C552 H568 0.951 . S
C553 C552 1.386 . S
C553 C557 1.383 . S
C554 C552 1.383 . S
C554 C555 1.402 . S
C554 H569 0.951 . S
C555 C554 1.402 . S
C555 C556 1.375 . S
C555 C558 1.481 . S
C556 C555 1.375 . S
C556 C557 1.367 . S
C556 H570 0.951 . S
C557 C553 1.383 . S
C557 C556 1.367 . S
C557 H571 0.950 . S
C558 C555 1.481 . S
C558 C559 1.297 . S
C558 H572 0.950 . S
C559 C558 1.297 . S
C559 C560 1.479 . S
C559 H573 0.950 . S
C560 C559 1.479 . S
C560 C561 1.375 . S
C560 C566 1.404 . S
C561 C560 1.375 . S
C561 C562 1.369 . S
C561 H574 0.950 . S
C562 C561 1.369 . S
C562 C563 1.392 . S
C562 H575 0.951 . S
C563 C562 1.392 . S
C563 C565 1.384 . S
H564 C566 0.949 . S
C565 C563 1.384 . S
C565 C566 1.385 . S
C565 H567 0.950 . S
C566 C560 1.404 . S
C566 H564 0.949 . S
C566 C565 1.385 . S
H567 C565 0.950 . S
H568 C552 0.951 . S
H569 C554 0.951 . S
H570 C556 0.951 . S
H571 C557 0.950 . S
H572 C558 0.950 . S
H573 C559 0.950 . S
H574 C561 0.950 . S
H575 C562 0.951 . S
C576 C577 1.386 . S
C576 C578 1.383 . S
C576 H592 0.951 . S
C577 C576 1.386 . S
C577 C581 1.383 . S
C578 C576 1.383 . S
C578 C579 1.402 . S
C578 H593 0.951 . S
C579 C578 1.402 . S
C579 C580 1.375 . S
C579 C582 1.481 . S
C580 C579 1.375 . S
C580 C581 1.367 . S
C580 H594 0.951 . S
C581 C577 1.383 . S
C581 C580 1.367 . S
C581 H595 0.950 . S
C582 C579 1.481 . S
C582 C583 1.297 . S
C582 H596 0.950 . S
C583 C582 1.297 . S
C583 C584 1.479 . S
C583 H597 0.950 . S
C584 C583 1.479 . S
C584 C585 1.375 . S
C584 C590 1.404 . S
C585 C584 1.375 . S
C585 C586 1.369 . S
C585 H598 0.950 . S
C586 C585 1.369 . S
C586 C587 1.392 . S
C586 H599 0.951 . S
C587 C586 1.392 . S
C587 C589 1.384 . S
H588 C590 0.949 . S
C589 C587 1.384 . S
C589 C590 1.385 . S
C589 H591 0.950 . S
C590 C584 1.404 . S
C590 H588 0.949 . S
C590 C589 1.385 . S
H591 C589 0.950 . S
H592 C576 0.951 . S
H593 C578 0.951 . S
H594 C580 0.951 . S
H595 C581 0.950 . S
H596 C582 0.950 . S
H597 C583 0.950 . S
H598 C585 0.950 . S
H599 C586 0.951 . S
C600 C601 1.386 . S
C600 C602 1.383 . S
C600 H616 0.951 . S
C601 C600 1.386 . S
C601 C605 1.383 . S
C602 C600 1.383 . S
C602 C603 1.402 . S
C602 H617 0.951 . S
C603 C602 1.402 . S
C603 C604 1.375 . S
C603 C606 1.481 . S
C604 C603 1.375 . S
C604 C605 1.367 . S
C604 H618 0.951 . S
C605 C601 1.383 . S
C605 C604 1.367 . S
C605 H619 0.950 . S
C606 C603 1.481 . S
C606 C607 1.297 . S
C606 H620 0.950 . S
C607 C606 1.297 . S
C607 C608 1.479 . S
C607 H621 0.950 . S
C608 C607 1.479 . S
C608 C609 1.375 . S
C608 C614 1.404 . S
C609 C608 1.375 . S
C609 C610 1.369 . S
C609 H622 0.950 . S
C610 C609 1.369 . S
C610 C611 1.392 . S
C610 H623 0.951 . S
C611 C610 1.392 . S
C611 C613 1.384 . S
H612 C614 0.949 . S
C613 C611 1.384 . S
C613 C614 1.385 . S
C613 H615 0.950 . S
C614 C608 1.404 . S
C614 H612 0.949 . S
C614 C613 1.385 . S
H615 C613 0.950 . S
H616 C600 0.951 . S
H617 C602 0.951 . S
H618 C604 0.951 . S
H619 C605 0.950 . S
H620 C606 0.950 . S
H621 C607 0.950 . S
H622 C609 0.950 . S
H623 C610 0.951 . S
C624 C625 1.386 . S
C624 C626 1.383 . S
C624 H640 0.951 . S
C625 C624 1.386 . S
C625 C629 1.383 1_655 S
C626 C624 1.383 . S
C626 C627 1.402 1_655 S
C626 H641 0.951 . S
C627 C626 1.402 1_455 S
C627 C628 1.375 . S
C627 C630 1.481 . S
C628 C627 1.375 . S
C628 C629 1.367 . S
C628 H642 0.951 . S
C629 C625 1.383 1_455 S
C629 C628 1.367 . S
C629 H643 0.950 . S
C630 C627 1.481 . S
C630 C631 1.297 . S
C630 H644 0.950 . S
C631 C630 1.297 . S
C631 C632 1.479 . S
C631 H645 0.950 1_455 S
C632 C631 1.479 . S
C632 C633 1.375 . S
C632 C638 1.404 . S
C633 C632 1.375 . S
C633 C634 1.369 . S
C633 H646 0.950 1_455 S
C634 C633 1.369 . S
C634 C635 1.392 . S
C634 H647 0.951 . S
C635 C634 1.392 . S
C635 C637 1.384 . S
H636 C638 0.949 . S
C637 C635 1.384 . S
C637 C638 1.385 . S
C637 H639 0.950 . S
C638 C632 1.404 . S
C638 H636 0.949 . S
C638 C637 1.385 . S
H639 C637 0.950 . S
H640 C624 0.951 . S
H641 C626 0.951 . S
H642 C628 0.951 . S
H643 C629 0.950 . S
H644 C630 0.950 . S
H645 C631 0.950 1_655 S
H646 C633 0.950 1_655 S
H647 C634 0.951 . S
C648 C649 1.386 1_545 S
C648 C650 1.383 . S
C648 H664 0.951 . S
C649 C648 1.386 1_565 S
C649 C653 1.383 . S
C650 C648 1.383 . S
C650 C651 1.402 1_545 S
C650 H665 0.951 . S
C651 C650 1.402 1_565 S
C651 C652 1.375 . S
C651 C654 1.481 . S
C652 C651 1.375 . S
C652 C653 1.367 . S
C652 H666 0.951 . S
C653 C649 1.383 . S
C653 C652 1.367 . S
C653 H667 0.950 . S
C654 C651 1.481 . S
C654 C655 1.297 1_565 S
C654 H668 0.950 . S
C655 C654 1.297 1_545 S
C655 C656 1.479 . S
C655 H669 0.950 . S
C656 C655 1.479 . S
C656 C657 1.375 . S
C656 C662 1.404 . S
C657 C656 1.375 . S
C657 C658 1.369 . S
C657 H670 0.950 . S
C658 C657 1.369 . S
C658 C659 1.392 . S
C658 H671 0.951 . S
C659 C658 1.392 . S
C659 C661 1.384 . S
H660 C662 0.949 1_565 S
C661 C659 1.384 . S
C661 C662 1.385 . S
C661 H663 0.950 . S
C662 C656 1.404 . S
C662 H660 0.949 1_545 S
C662 C661 1.385 . S
H663 C661 0.950 . S
H664 C648 0.951 . S
H665 C650 0.951 . S
H666 C652 0.951 . S
H667 C653 0.950 . S
H668 C654 0.950 . S
H669 C655 0.950 . S
H670 C657 0.950 . S
H671 C658 0.951 . S
C241 C129 0.744 1_565 S
C251 C9 0.943 . S
C265 C169 0.804 . S
C275 C49 0.789 . S
C289 C209 0.747 . S
C299 C89 0.939 1_655 S
C313 C15 0.627 . S
C323 C86 0.457 . S
C337 C55 0.742 . S
C347 C126 0.684 . S
C361 C95 0.738 . S
C371 C166 0.727 . S
C385 C135 0.583 . S
C395 C206 0.461 . S
C409 C175 0.627 . S
C419 C6 0.457 . S
C433 C215 0.612 . S
C443 C46 0.454 . S
C457 C18 1.080 . S
C467 C138 1.119 . S
C481 C58 1.063 . S
C491 C178 1.097 . S
C505 C98 1.107 . S
C515 C218 1.059 . S
C529 C10 3.962 . S
C539 C59 3.995 . S
C553 C50 3.951 . S
C563 C99 3.999 . S
C577 C90 3.954 . S
C587 C139 3.994 . S
C601 C130 3.959 . S
C611 C179 4.007 . S
C625 C170 3.958 . S
C635 C219 3.994 . S
C649 C210 3.962 . S
C659 C19 4.008 . S
