# Generated by pormake.
# Topology una, (4)-cn, num edge types: 1
# Building blocks:
#     Node 0, Type 0, BuildingBlock: CEKHIL_clean_sbu_0, # of connection points: 4
#     Node 1, Type 0, BuildingBlock: CEKHIL_clean_sbu_0, # of connection points: 4
#     Node 2, Type 0, BuildingBlock: CEKHIL_clean_sbu_0, # of connection points: 4
#     Node 3, Type 0, BuildingBlock: CEKHIL_clean_sbu_0, # of connection points: 4
#     Node 4, Type 0, BuildingBlock: CEKHIL_clean_sbu_0, # of connection points: 4
#     Node 5, Type 0, BuildingBlock: CEKHIL_clean_sbu_0, # of connection points: 4
#     Node 6, Type 0, BuildingBlock: CEKHIL_clean_sbu_0, # of connection points: 4
#     Node 7, Type 0, BuildingBlock: CEKHIL_clean_sbu_0, # of connection points: 4
#     Node 8, Type 0, BuildingBlock: CEKHIL_clean_sbu_0, # of connection points: 4
#     Node 9, Type 0, BuildingBlock: CEKHIL_clean_sbu_0, # of connection points: 4
#     Node 10, Type 0, BuildingBlock: CEKHIL_clean_sbu_0, # of connection points: 4
#     Node 11, Type 0, BuildingBlock: CEKHIL_clean_sbu_0, # of connection points: 4
#     Edge 12, Type (0, 0), BuildingBlock: CIFDUS_clean_linker_0, # of connection points: 2
#     Edge 13, Type (0, 0), BuildingBlock: CIFDUS_clean_linker_0, # of connection points: 2
#     Edge 14, Type (0, 0), BuildingBlock: CIFDUS_clean_linker_0, # of connection points: 2
#     Edge 15, Type (0, 0), BuildingBlock: CIFDUS_clean_linker_0, # of connection points: 2
#     Edge 16, Type (0, 0), BuildingBlock: CIFDUS_clean_linker_0, # of connection points: 2
#     Edge 17, Type (0, 0), BuildingBlock: CIFDUS_clean_linker_0, # of connection points: 2
#     Edge 18, Type (0, 0), BuildingBlock: CIFDUS_clean_linker_0, # of connection points: 2
#     Edge 19, Type (0, 0), BuildingBlock: CIFDUS_clean_linker_0, # of connection points: 2
#     Edge 20, Type (0, 0), BuildingBlock: CIFDUS_clean_linker_0, # of connection points: 2
#     Edge 21, Type (0, 0), BuildingBlock: CIFDUS_clean_linker_0, # of connection points: 2
#     Edge 22, Type (0, 0), BuildingBlock: CIFDUS_clean_linker_0, # of connection points: 2
#     Edge 23, Type (0, 0), BuildingBlock: CIFDUS_clean_linker_0, # of connection points: 2
#     Edge 24, Type (0, 0), BuildingBlock: CIFDUS_clean_linker_0, # of connection points: 2
#     Edge 25, Type (0, 0), BuildingBlock: CIFDUS_clean_linker_0, # of connection points: 2
#     Edge 26, Type (0, 0), BuildingBlock: CIFDUS_clean_linker_0, # of connection points: 2
#     Edge 27, Type (0, 0), BuildingBlock: CIFDUS_clean_linker_0, # of connection points: 2
#     Edge 28, Type (0, 0), BuildingBlock: CIFDUS_clean_linker_0, # of connection points: 2
#     Edge 29, Type (0, 0), BuildingBlock: CIFDUS_clean_linker_0, # of connection points: 2
#     Edge 30, Type (0, 0), BuildingBlock: CIFDUS_clean_linker_0, # of connection points: 2
#     Edge 31, Type (0, 0), BuildingBlock: CIFDUS_clean_linker_0, # of connection points: 2
#     Edge 32, Type (0, 0), BuildingBlock: CIFDUS_clean_linker_0, # of connection points: 2
#     Edge 33, Type (0, 0), BuildingBlock: CIFDUS_clean_linker_0, # of connection points: 2
#     Edge 34, Type (0, 0), BuildingBlock: CIFDUS_clean_linker_0, # of connection points: 2
#     Edge 35, Type (0, 0), BuildingBlock: CIFDUS_clean_linker_0, # of connection points: 2
# Relax obj value: 0.021
# Max RMSD: 0.036
# Mean RMSD: 0.036
data_MOF--net-una--node1-CEKHIL_clean_sbu_0--edge1-CIFDUS_clean_linker_0
_symmetry_space_group_name_H-M    P1
_symmetry_Int_Tables_number       1
_symmetry_cell_setting            triclinic
loop_
_symmetry_equiv_pos_as_xyz
'x, y, z'
_cell_length_a     50.394584
_cell_length_b     50.352181
_cell_length_c     19.116574
_cell_angle_alpha  90.125855
_cell_angle_beta   89.912762
_cell_angle_gamma 120.0354
loop_
_atom_site_label
_atom_site_type_symbol
_atom_site_fract_x
_atom_site_fract_y
_atom_site_fract_z
_atom_type_partial_charge
Co0 Co 0.13895 0.45308 0.04399 0.0
O1 O 0.10968 0.45203 0.97798 0.0
O2 O 0.0973 0.42203 0.07063 0.0
C3 C 0.1702 0.45328 0.95954 0.0
O4 O 0.1644 0.44703 0.12096 0.0
Co5 Co 0.20602 0.50767 0.04334 0.0
O6 O 0.21397 0.47777 0.09224 0.0
C7 C 0.1568 0.51466 0.11084 0.0
C8 C 0.08859 0.42943 0.01326 0.0
C9 C 0.19323 0.45573 0.12768 0.0
O10 O 0.13686 0.48617 0.10048 0.0
O11 O 0.18458 0.52745 0.08943 0.0
O12 O 0.14709 0.42757 0.98051 0.0
O13 O 0.17267 0.47775 0.9874 0.0
Co14 Co 0.70771 0.13362 0.1928 0.0
O15 O 0.68378 0.11148 0.11295 0.0
O16 O 0.68862 0.08914 0.20713 0.0
C17 C 0.74788 0.16563 0.12543 0.0
O18 O 0.73248 0.15115 0.2844 0.0
Co19 Co 0.73032 0.20311 0.20584 0.0
O20 O 0.76062 0.20231 0.27013 0.0
C21 C 0.66677 0.15719 0.24829 0.0
C22 C 0.67805 0.08636 0.14361 0.0
C23 C 0.75429 0.17802 0.30363 0.0
O24 O 0.6713 0.13468 0.23482 0.0
O25 O 0.68679 0.18539 0.23781 0.0
O26 O 0.74461 0.13952 0.14506 0.0
O27 O 0.72648 0.17098 0.14485 0.0
Co28 Co 0.56566 0.69075 0.35786 0.0
O29 O 0.56707 0.66575 0.28306 0.0
O30 O 0.58809 0.67024 0.38669 0.0
C31 C 0.57834 0.73064 0.28552 0.0
O32 O 0.56974 0.71627 0.4466 0.0
Co33 Co 0.52143 0.71689 0.35069 0.0
O34 O 0.5484 0.74535 0.42401 0.0
C35 C 0.49766 0.65064 0.37927 0.0
C36 C 0.58342 0.65904 0.32341 0.0
C37 C 0.56469 0.73844 0.46232 0.0
O38 O 0.52493 0.65532 0.39057 0.0
O39 O 0.49236 0.67162 0.35762 0.0
O40 O 0.59981 0.72706 0.3136 0.0
O41 O 0.55074 0.71014 0.30116 0.0
Co42 Co 0.87191 0.56776 0.53699 0.0
O43 O 0.9014 0.57306 0.46673 0.0
O44 O 0.91296 0.60012 0.5643 0.0
C45 C 0.83802 0.56676 0.45906 0.0
O46 O 0.84534 0.56852 0.61887 0.0
Co47 Co 0.8079 0.5081 0.53148 0.0
O48 O 0.79662 0.53264 0.59305 0.0
C49 C 0.86257 0.50561 0.5766 0.0
C50 C 0.922 0.59504 0.50428 0.0
C51 C 0.81599 0.5556 0.6289 0.0
O52 O 0.87782 0.53501 0.58398 0.0
O53 O 0.83571 0.49111 0.54976 0.0
O54 O 0.86013 0.59292 0.48127 0.0
O55 O 0.83864 0.54291 0.48083 0.0
Co56 Co 0.31567 0.87869 0.69415 0.0
O57 O 0.34273 0.90473 0.62151 0.0
O58 O 0.33089 0.92178 0.71624 0.0
C59 C 0.28008 0.84634 0.61727 0.0
O60 O 0.28719 0.85799 0.77897 0.0
Co61 Co 0.29597 0.80955 0.70311 0.0
O62 O 0.26278 0.80684 0.76357 0.0
C63 C 0.35653 0.8571 0.75899 0.0
C64 C 0.3451 0.9279 0.6563 0.0
C65 C 0.2663 0.83045 0.79622 0.0
O66 O 0.35105 0.87895 0.74518 0.0
O67 O 0.33829 0.82889 0.74361 0.0
O68 O 0.28048 0.87132 0.63628 0.0
O69 O 0.30155 0.8425 0.64284 0.0
Co70 Co 0.44056 0.30782 0.83451 0.0
O71 O 0.44047 0.33085 0.75486 0.0
O72 O 0.41419 0.32553 0.8512 0.0
C73 C 0.43297 0.26762 0.76779 0.0
O74 O 0.43517 0.2838 0.92631 0.0
Co75 Co 0.48964 0.28836 0.84474 0.0
O76 O 0.45984 0.25739 0.91017 0.0
C77 C 0.50543 0.35159 0.88498 0.0
C78 C 0.42107 0.33604 0.78741 0.0
C79 C 0.44137 0.26271 0.94466 0.0
O80 O 0.47773 0.34546 0.87368 0.0
O81 O 0.51469 0.33242 0.87423 0.0
O82 O 0.40984 0.27007 0.78908 0.0
O83 O 0.45968 0.28989 0.78506 0.0
Co84 Co 0.5686 0.87084 0.9204 0.0
O85 O 0.56944 0.89371 1.00166 0.0
O86 O 0.59827 0.91465 0.90851 0.0
C87 C 0.57055 0.83426 0.98405 0.0
O88 O 0.57365 0.85205 0.82825 0.0
Co89 Co 0.51393 0.80412 0.90392 0.0
O90 O 0.54217 0.80087 0.83677 0.0
C91 C 0.50502 0.85716 0.8792 0.0
C92 C 0.59083 0.91805 0.97199 0.0
C93 C 0.56401 0.8242 0.80686 0.0
O94 O 0.53423 0.87568 0.87902 0.0
O95 O 0.49268 0.82865 0.89454 0.0
O96 O 0.5957 0.85927 0.96839 0.0
O97 O 0.54562 0.83323 0.96447 0.0
Co98 Co 0.69278 0.55917 0.08363 0.0
O99 O 0.66615 0.56015 0.15447 0.0
O100 O 0.67333 0.58226 0.0514 0.0
C101 C 0.73112 0.5715 0.16044 0.0
O102 O 0.72084 0.56373 0.99953 0.0
Co103 Co 0.71734 0.51364 0.09939 0.0
O104 O 0.74871 0.54221 0.03293 0.0
C105 C 0.65265 0.49106 0.05767 0.0
C106 C 0.66084 0.57726 0.11337 0.0
C107 C 0.74373 0.55901 0.99146 0.0
O108 O 0.65801 0.51865 0.0469 0.0
O109 O 0.6726 0.48514 0.08331 0.0
O110 O 0.728 0.59309 0.13155 0.0
O111 O 0.71065 0.54396 0.14408 0.0
Co112 Co 0.12853 0.70682 0.25115 0.0
O113 O 0.10198 0.68466 0.32806 0.0
O114 O 0.08572 0.69104 0.22568 0.0
C115 C 0.16118 0.74632 0.31963 0.0
O116 O 0.15033 0.72998 0.16086 0.0
Co117 Co 0.19634 0.72225 0.25222 0.0
O118 O 0.20123 0.7519 0.17811 0.0
C119 C 0.14655 0.65874 0.22372 0.0
C120 C 0.07915 0.68025 0.2892 0.0
C121 C 0.17842 0.7486 0.14246 0.0
O122 O 0.12707 0.66804 0.21665 0.0
O123 O 0.17426 0.67628 0.24383 0.0
O124 O 0.13683 0.74558 0.29479 0.0
O125 O 0.16406 0.72294 0.30469 0.0
Co126 Co 0.44715 0.13188 0.3913 0.0
O127 O 0.44572 0.10572 0.46653 0.0
O128 O 0.41829 0.08898 0.36979 0.0
C129 C 0.44475 0.16587 0.46421 0.0
O130 O 0.44165 0.1529 0.30403 0.0
Co131 Co 0.49943 0.20001 0.38184 0.0
O132 O 0.47088 0.20404 0.31753 0.0
C133 C 0.51142 0.14919 0.34962 0.0
C134 C 0.42503 0.08274 0.43114 0.0
C135 C 0.44978 0.18075 0.28591 0.0
O136 O 0.48247 0.12956 0.3466 0.0
O137 O 0.52218 0.17715 0.36865 0.0
O138 O 0.41966 0.14138 0.44514 0.0
O139 O 0.46976 0.16811 0.44113 0.0
Co140 Co 0.30684 0.44065 0.58759 0.0
O141 O 0.33017 0.43928 0.6651 0.0
O142 O 0.32169 0.41199 0.56872 0.0
C143 C 0.26867 0.43613 0.65683 0.0
O144 O 0.28127 0.43606 0.4987 0.0
Co145 Co 0.29275 0.49382 0.58087 0.0
O146 O 0.25883 0.46425 0.52084 0.0
C147 C 0.35364 0.50463 0.5365 0.0
C148 C 0.33316 0.41864 0.63175 0.0
C149 C 0.26081 0.44382 0.4856 0.0
O150 O 0.34515 0.47614 0.54581 0.0
O151 O 0.33662 0.5162 0.54981 0.0
O152 O 0.2692 0.4119 0.63581 0.0
O153 O 0.29189 0.46209 0.63871 0.0
Co154 Co 0.88479 0.31481 0.74994 0.0
O155 O 0.91076 0.3411 0.82371 0.0
O156 O 0.92768 0.32823 0.7303 0.0
C157 C 0.8506 0.27998 0.82482 0.0
O158 O 0.8638 0.28659 0.66475 0.0
Co159 Co 0.81718 0.29985 0.73699 0.0
O160 O 0.81276 0.26579 0.67664 0.0
C161 C 0.86797 0.36021 0.69068 0.0
C162 C 0.93376 0.3426 0.79012 0.0
C163 C 0.83593 0.26705 0.64646 0.0
O164 O 0.88771 0.35133 0.69883 0.0
O165 O 0.83962 0.34399 0.70715 0.0
O166 O 0.87507 0.279 0.80776 0.0
O167 O 0.84849 0.30243 0.79892 0.0
H168 H 0.16786 0.43243 0.25647 0.0
H169 H 0.24463 0.45117 0.12404 0.0
H170 H 0.27065 0.4431 0.22196 0.0
H171 H 0.27578 0.44005 0.34976 0.0
H172 H 0.20006 0.42352 0.48303 0.0
H173 H 0.16949 0.42058 0.38127 0.0
C174 C 0.18982 0.43377 0.2486 0.0
C175 C 0.20437 0.44286 0.18307 0.0
C176 C 0.20518 0.42978 0.30597 0.0
C177 C 0.233 0.44464 0.17411 0.0
C178 C 0.24803 0.44009 0.23025 0.0
C179 C 0.25217 0.43453 0.35614 0.0
C180 C 0.24023 0.43196 0.42387 0.0
C181 C 0.23498 0.43398 0.29719 0.0
C182 C 0.20975 0.42548 0.43136 0.0
C183 C 0.19232 0.4241 0.37314 0.0
H184 H 0.78618 0.21104 0.61895 0.0
H185 H 0.87101 0.28084 0.52817 0.0
H186 H 0.8549 0.25595 0.41374 0.0
H187 H 0.81322 0.21936 0.33673 0.0
H188 H 0.72855 0.14933 0.42723 0.0
H189 H 0.7483 0.16878 0.54458 0.0
C190 C 0.80147 0.22041 0.57442 0.0
C191 C 0.82965 0.24807 0.58207 0.0
C192 C 0.79195 0.20599 0.5086 0.0
C193 C 0.84929 0.25965 0.524 0.0
C194 C 0.83995 0.24552 0.45833 0.0
C195 C 0.79947 0.20774 0.38233 0.0
C196 C 0.76934 0.18299 0.37314 0.0
C197 C 0.81085 0.21938 0.44956 0.0
C198 C 0.75184 0.16817 0.43268 0.0
C199 C 0.76302 0.17959 0.49983 0.0
H200 H 0.57854 0.7968 0.4934 0.0
H201 H 0.57123 0.71552 0.58695 0.0
H202 H 0.57477 0.73727 0.70359 0.0
H203 H 0.57204 0.77589 0.77833 0.0
H204 H 0.57975 0.85736 0.68518 0.0
H205 H 0.58455 0.83936 0.5691 0.0
C206 C 0.5784 0.78411 0.53931 0.0
C207 C 0.57422 0.75433 0.53133 0.0
C208 C 0.58027 0.79674 0.60627 0.0
C209 C 0.57446 0.73841 0.59135 0.0
C210 C 0.57623 0.75078 0.65816 0.0
C211 C 0.57557 0.79009 0.73275 0.0
C212 C 0.57527 0.81786 0.74038 0.0
C213 C 0.578 0.7794 0.6662 0.0
C214 C 0.58008 0.83607 0.68095 0.0
C215 C 0.58248 0.82557 0.61445 0.0
H216 H 0.83963 0.57713 0.75992 0.0
H217 H 0.76206 0.55517 0.62771 0.0
H218 H 0.73404 0.55947 0.72701 0.0
H219 H 0.72828 0.56121 0.85497 0.0
H220 H 0.80487 0.5807 0.98804 0.0
H221 H 0.8364 0.58623 0.88602 0.0
C222 C 0.81697 0.57419 0.75258 0.0
C223 C 0.80292 0.56552 0.6865 0.0
C224 C 0.80048 0.5759 0.81071 0.0
C225 C 0.77335 0.56153 0.67816 0.0
C226 C 0.7572 0.56391 0.73506 0.0
C227 C 0.75215 0.5677 0.86138 0.0
C228 C 0.7641 0.57041 0.92909 0.0
C229 C 0.77001 0.56988 0.80221 0.0
C230 C 0.79504 0.57836 0.93646 0.0
C231 C 0.81309 0.58135 0.87806 0.0
H232 H 0.20878 0.7838 0.82576 0.0
H233 H 0.28558 0.86342 0.91767 0.0
H234 H 0.2631 0.84662 0.03404 0.0
H235 H 0.2255 0.80538 0.11056 0.0
H236 H 0.14793 0.72649 0.0188 0.0
H237 H 0.16653 0.74706 0.90159 0.0
C238 C 0.22021 0.79788 0.87112 0.0
C239 C 0.24902 0.82473 0.86297 0.0
C240 C 0.20715 0.78798 0.93801 0.0
C241 C 0.26339 0.8428 0.92222 0.0
C242 C 0.25066 0.83301 0.98895 0.0
C243 C 0.21229 0.79305 0.06488 0.0
C244 C 0.1855 0.76426 0.0734 0.0
C245 C 0.22315 0.80507 0.99765 0.0
C246 C 0.16851 0.74869 0.01381 0.0
C247 C 0.17931 0.76035 0.94671 0.0
H248 H 0.44192 0.22947 0.25925 0.0
H249 H 0.43092 0.1465 0.16582 0.0
H250 H 0.42234 0.16277 0.05154 0.0
H251 H 0.42624 0.20427 0.97591 0.0
H252 H 0.43678 0.28703 0.06917 0.0
H253 H 0.43657 0.26691 0.18591 0.0
C254 C 0.43697 0.21462 0.21412 0.0
C255 C 0.43751 0.18695 0.22096 0.0
C256 C 0.43216 0.22422 0.14848 0.0
C257 C 0.43066 0.16784 0.16218 0.0
C258 C 0.42597 0.17728 0.09666 0.0
C259 C 0.42756 0.21751 0.02195 0.0
C260 C 0.43173 0.24724 0.01378 0.0
C261 C 0.42783 0.20593 0.08879 0.0
C262 C 0.4333 0.26406 0.07386 0.0
C263 C 0.43357 0.25268 0.14064 0.0
H264 H 0.11789 0.53535 0.07571 0.0
H265 H 0.17981 0.53936 0.23601 0.0
H266 H 0.17887 0.58265 0.29114 0.0
H267 H 0.16702 0.62394 0.28314 0.0
H268 H 0.1065 0.62211 0.12176 0.0
H269 H 0.09989 0.57328 0.07801 0.0
C270 C 0.13022 0.54512 0.12407 0.0
C271 C 0.14874 0.53424 0.15233 0.0
C272 C 0.1303 0.57074 0.15433 0.0
C273 C 0.16523 0.54734 0.21402 0.0
C274 C 0.16491 0.57222 0.24511 0.0
C275 C 0.15199 0.6126 0.23903 0.0
C276 C 0.1377 0.62681 0.20494 0.0
C277 C 0.14859 0.58488 0.21405 0.0
C278 C 0.11784 0.61164 0.1487 0.0
C279 C 0.1142 0.58382 0.12349 0.0
H280 H 0.60706 0.12017 0.20616 0.0
H281 H 0.66343 0.18232 0.36869 0.0
H282 H 0.61887 0.18175 0.41992 0.0
H283 H 0.56592 0.16922 0.41026 0.0
H284 H 0.50835 0.10924 0.24647 0.0
H285 H 0.55099 0.1028 0.20442 0.0
C286 C 0.60924 0.13293 0.25365 0.0
C287 C 0.63838 0.15142 0.28365 0.0
C288 C 0.58344 0.13317 0.28195 0.0
C289 C 0.64118 0.16812 0.34472 0.0
C290 C 0.61577 0.16786 0.3739 0.0
C291 C 0.56255 0.1544 0.3658 0.0
C292 C 0.53428 0.14013 0.33075 0.0
C293 C 0.5871 0.15138 0.34159 0.0
C294 C 0.52999 0.12053 0.27417 0.0
C295 C 0.55443 0.11704 0.24992 0.0
H296 H 0.36507 0.53997 0.42409 0.0
H297 H 0.40997 0.51627 0.58301 0.0
H298 H 0.46017 0.55816 0.54402 0.0
H299 H 0.49032 0.6055 0.47237 0.0
H300 H 0.44327 0.62709 0.31335 0.0
H301 H 0.39514 0.58188 0.34374 0.0
C302 C 0.38595 0.54369 0.44928 0.0
C303 C 0.38405 0.52547 0.50642 0.0
C304 C 0.41435 0.56761 0.42678 0.0
C305 C 0.41109 0.53013 0.5386 0.0
C306 C 0.43969 0.55416 0.51659 0.0
C307 C 0.46962 0.59991 0.44365 0.0
C308 C 0.47033 0.6201 0.39173 0.0
C309 C 0.44155 0.57367 0.46185 0.0
C310 C 0.44331 0.61241 0.35463 0.0
C311 C 0.41569 0.58649 0.37183 0.0
H312 H 0.86364 0.45959 0.50824 0.0
H313 H 0.8887 0.50876 0.70382 0.0
H314 H 0.89754 0.46924 0.75554 0.0
H315 H 0.8895 0.41638 0.7494 0.0
H316 H 0.86407 0.36783 0.55303 0.0
H317 H 0.86449 0.41157 0.49651 0.0
C318 C 0.87181 0.46198 0.56166 0.0
C319 C 0.87523 0.48669 0.60259 0.0
C320 C 0.87656 0.43917 0.59078 0.0
C321 C 0.88602 0.48988 0.67147 0.0
C322 C 0.8908 0.46717 0.70109 0.0
C323 C 0.88519 0.41601 0.69373 0.0
C324 C 0.87699 0.38926 0.65492 0.0
C325 C 0.88497 0.44111 0.66198 0.0
C326 C 0.8708 0.38848 0.58327 0.0
C327 C 0.87077 0.41332 0.55124 0.0
H328 H 0.41706 0.89228 0.72294 0.0
H329 H 0.35627 0.83417 0.88498 0.0
H330 H 0.3986 0.8326 0.94253 0.0
H331 H 0.45051 0.84099 0.93695 0.0
H332 H 0.51222 0.89766 0.77477 0.0
H333 H 0.4723 0.90701 0.72744 0.0
C334 C 0.41349 0.88016 0.77199 0.0
C335 C 0.38375 0.86334 0.79999 0.0
C336 C 0.43795 0.87867 0.80397 0.0
C337 C 0.37907 0.84727 0.86287 0.0
C338 C 0.40319 0.84621 0.8955 0.0
C339 C 0.45539 0.85586 0.89197 0.0
C340 C 0.48398 0.86826 0.85869 0.0
C341 C 0.43237 0.86075 0.86498 0.0
C342 C 0.49028 0.88784 0.80115 0.0
C343 C 0.46739 0.89299 0.77388 0.0
H344 H 0.54187 0.36001 0.99365 0.0
H345 H 0.51907 0.40968 0.84542 0.0
H346 H 0.56167 0.45856 0.88917 0.0
H347 H 0.60867 0.48646 0.96355 0.0
H348 H 0.62853 0.43435 0.11273 0.0
H349 H 0.58375 0.38741 0.07531 0.0
C350 C 0.54606 0.3816 0.97142 0.0
C351 C 0.52781 0.3814 0.916 0.0
C352 C 0.57022 0.40922 0.99688 0.0
C353 C 0.53299 0.40941 0.88823 0.0
C354 C 0.5574 0.43727 0.91302 0.0
C355 C 0.60287 0.46489 0.98845 0.0
C356 C 0.62249 0.46401 0.03981 0.0
C357 C 0.57668 0.43743 0.96646 0.0
C358 C 0.6144 0.4358 0.07196 0.0
C359 C 0.58868 0.4088 0.05076 0.0
H360 H 0.27008 0.48295 0.72875 0.0
H361 H 0.21603 0.38504 0.69789 0.0
H362 H 0.18066 0.38154 0.78996 0.0
H363 H 0.16626 0.40626 0.88184 0.0
H364 H 0.22135 0.5041 0.9134 0.0
H365 H 0.25545 0.50761 0.81886 0.0
C366 C 0.25038 0.46088 0.74168 0.0
C367 C 0.2456 0.4343 0.70678 0.0
C368 C 0.23062 0.45898 0.79536 0.0
C369 C 0.22013 0.40583 0.72421 0.0
C370 C 0.20001 0.4038 0.77698 0.0
C371 C 0.18582 0.4283 0.86817 0.0
C372 C 0.19139 0.45484 0.90462 0.0
C373 C 0.20528 0.43019 0.81353 0.0
C374 C 0.21665 0.48331 0.88618 0.0
C375 C 0.23611 0.48537 0.832 0.0
H376 H 0.74761 0.21 0.0484 0.0
H377 H 0.79985 0.16493 0.08625 0.0
H378 H 0.8362 0.19577 0.99418 0.0
H379 H 0.85263 0.23549 0.90219 0.0
H380 H 0.79816 0.2783 0.86373 0.0
H381 H 0.76283 0.24793 0.95613 0.0
C382 C 0.7671 0.20708 0.03703 0.0
C383 C 0.77127 0.18548 0.07429 0.0
C384 C 0.78723 0.22418 0.98329 0.0
C385 C 0.79634 0.18161 0.05832 0.0
C386 C 0.81699 0.1991 1.00556 0.0
C387 C 0.83286 0.23791 0.91374 0.0
C388 C 0.82805 0.25913 0.87629 0.0
C389 C 0.81253 0.22034 0.96733 0.0
C390 C 0.80241 0.26214 0.89181 0.0
C391 C 0.78223 0.24489 0.94486 0.0
H392 H 0.53738 0.72684 0.19208 0.0
H393 H 0.63166 0.78435 0.25427 0.0
H394 H 0.63867 0.82101 0.16115 0.0
H395 H 0.61652 0.83736 0.06564 0.0
H396 H 0.52206 0.77783 1.00602 0.0
H397 H 0.51676 0.74082 0.09423 0.0
C398 C 0.55953 0.74745 0.18566 0.0
C399 C 0.58385 0.75325 0.23055 0.0
C400 C 0.56336 0.76781 0.13211 0.0
C401 C 0.61254 0.77964 0.22054 0.0
C402 C 0.61652 0.80047 0.16732 0.0
C403 C 0.595 0.81603 0.07133 0.0
C404 C 0.56964 0.81038 0.0298 0.0
C405 C 0.59194 0.79486 0.12308 0.0
C406 C 0.54183 0.78276 0.03766 0.0
C407 C 0.53872 0.76163 0.08824 0.0
H408 H 0.83663 0.61234 0.3847 0.0
H409 H 0.78743 0.51443 0.4196 0.0
H410 H 0.75085 0.50774 0.32911 0.0
H411 H 0.73351 0.5289 0.23889 0.0
H412 H 0.78066 0.62646 0.20166 0.0
H413 H 0.81774 0.63412 0.29401 0.0
C414 C 0.8177 0.58964 0.37279 0.0
C415 C 0.81475 0.56391 0.40862 0.0
C416 C 0.7967 0.58585 0.31995 0.0
C417 C 0.79025 0.53459 0.39268 0.0
C418 C 0.76935 0.53069 0.34078 0.0
C419 C 0.75195 0.55191 0.25055 0.0
C420 C 0.75455 0.57707 0.21333 0.0
C421 C 0.77258 0.55605 0.30372 0.0
C422 C 0.77836 0.60672 0.22958 0.0
C423 C 0.79943 0.61108 0.28242 0.0
H424 H 0.20437 0.74381 0.39627 0.0
H425 H 0.16391 0.80033 0.35836 0.0
H426 H 0.1967 0.83638 0.44925 0.0
H427 H 0.23686 0.85128 0.54042 0.0
H428 H 0.27487 0.7924 0.57776 0.0
H429 H 0.2426 0.75755 0.48674 0.0
C430 C 0.20278 0.76411 0.40738 0.0
C431 C 0.18193 0.76954 0.37042 0.0
C432 C 0.22103 0.78411 0.46023 0.0
C433 C 0.17996 0.79578 0.386 0.0
C434 C 0.19858 0.81627 0.43811 0.0
C435 C 0.23782 0.83068 0.52888 0.0
C436 C 0.25826 0.82448 0.5658 0.0
C437 C 0.2191 0.81055 0.47593 0.0
C438 C 0.25938 0.79777 0.55021 0.0
C439 C 0.24101 0.77783 0.49793 0.0
H440 H 0.47697 0.26997 0.68443 0.0
H441 H 0.38097 0.21387 0.73379 0.0
H442 H 0.37532 0.17758 0.64113 0.0
H443 H 0.39826 0.16205 0.5458 0.0
H444 H 0.49415 0.22047 0.49651 0.0
H445 H 0.49905 0.25591 0.58856 0.0
C446 C 0.45483 0.24967 0.67543 0.0
C447 C 0.4295 0.24436 0.71617 0.0
C448 C 0.45165 0.22956 0.62135 0.0
C449 C 0.40086 0.21825 0.70318 0.0
C450 C 0.3976 0.19763 0.65006 0.0
C451 C 0.42006 0.18274 0.5548 0.0
C452 C 0.44578 0.18857 0.51452 0.0
C453 C 0.42286 0.20316 0.60848 0.0
C454 C 0.47398 0.21538 0.52685 0.0
C455 C 0.4769 0.23564 0.57973 0.0
H456 H 0.0733 0.42023 0.8768 0.0
H457 H 0.03377 0.3976 0.08338 0.0
H458 H 0.98223 0.3691 0.03197 0.0
H459 H 0.9486 0.35137 0.9278 0.0
H460 H 0.98883 0.37045 0.7217 0.0
H461 H 0.04012 0.3996 0.77332 0.0
C462 C 0.05337 0.40914 0.91064 0.0
C463 C 0.05724 0.4114 0.98389 0.0
C464 C 0.02407 0.39217 0.88066 0.0
C465 C 0.03133 0.39632 0.02699 0.0
C466 C 1.00192 0.38008 0.99753 0.0
C467 C 0.96863 0.36193 0.8942 0.0
C468 C 0.96496 0.35908 0.82089 0.0
C469 C 0.99803 0.37798 0.92442 0.0
C470 C 0.99108 0.37237 0.7781 0.0
C471 C 0.02036 0.38908 0.80765 0.0
H472 H 0.62208 0.97737 0.92353 0.0
H473 H 0.59521 0.92374 0.11283 0.0
H474 H 0.62015 0.97027 0.1834 0.0
H475 H 0.64937 0.02687 0.19238 0.0
H476 H 0.67319 0.08036 1.00288 0.0
H477 H 0.64993 0.03385 0.93256 0.0
C478 C 0.62182 0.97595 0.98015 0.0
C479 C 0.60682 0.9471 0.0126 0.0
C480 C 0.63566 1.00299 0.02096 0.0
C481 C 0.60645 0.94567 0.08625 0.0
C482 C 0.62078 0.97231 0.12691 0.0
C483 C 0.64942 0.02827 0.13578 0.0
C484 C 0.66299 0.05714 0.10332 0.0
C485 C 0.63538 1.0012 0.09501 0.0
C486 C 0.66271 0.05849 0.02967 0.0
C487 C 0.64949 0.03184 0.98905 0.0
H488 H 0.64938 0.58375 0.24879 0.0
H489 H 0.63505 0.60544 0.03901 0.0
H490 H 0.6087 0.63149 0.0861 0.0
H491 H 0.59082 0.64892 0.18706 0.0
H492 H 0.60837 0.63005 0.39673 0.0
H493 H 0.63247 0.60195 0.34938 0.0
C494 C 0.64029 0.59394 0.21312 0.0
C495 C 0.64392 0.59236 0.14021 0.0
C496 C 0.62587 0.60944 0.24069 0.0
C497 C 0.63246 0.6062 0.09511 0.0
C498 C 0.61743 0.6211 0.12212 0.0
C499 C 0.59972 0.63848 0.22253 0.0
C500 C 0.59754 0.64137 0.29557 0.0
C501 C 0.61412 0.62296 0.19483 0.0
C502 C 0.60965 0.62812 0.34054 0.0
C503 C 0.62343 0.61206 0.31339 0.0
H504 H 0.06259 0.67431 0.42578 0.0
H505 H 0.02489 0.65066 0.21754 0.0
H506 H 0.97304 0.62231 0.26659 0.0
H507 H 0.93876 0.60329 0.36846 0.0
H508 H 0.97586 0.62925 0.57669 0.0
H509 H 0.02786 0.65793 0.52781 0.0
C510 C 0.04301 0.66296 0.39108 0.0
C511 C 0.04757 0.6643 0.318 0.0
C512 C 0.0133 0.64719 0.41971 0.0
C513 C 0.02198 0.64992 0.27379 0.0
C514 C 0.99238 0.63368 0.30189 0.0
C515 C 0.95823 0.61522 0.40329 0.0
C516 C 0.95353 0.61386 0.47628 0.0
C517 C 0.98782 0.63199 0.37471 0.0
C518 C 0.9789 0.6299 0.52049 0.0
C519 C 0.00858 0.6462 0.49249 0.0
H520 H 0.41756 0.06794 0.5688 0.0
H521 H 0.39625 0.02746 0.36283 0.0
H522 H 0.37065 0.97606 0.4148 0.0
H523 H 0.35434 0.94274 0.51887 0.0
H524 H 0.37189 0.98319 0.72477 0.0
H525 H 0.399 0.03461 0.67287 0.0
C526 C 0.40741 0.04785 0.53525 0.0
C527 C 0.40909 0.05149 0.46192 0.0
C528 C 0.39208 0.01844 0.5656 0.0
C529 C 0.39533 0.02527 0.41926 0.0
C530 C 0.38074 0.99591 0.44902 0.0
C531 C 0.36424 0.96283 0.55245 0.0
C532 C 0.36145 0.95918 0.62572 0.0
C533 C 0.37902 0.99223 0.52211 0.0
C534 C 0.37383 0.9854 0.66838 0.0
C535 C 0.38933 0.01476 0.63866 0.0
H536 H 0.36653 0.39384 0.57749 0.0
H537 H 0.32992 0.40705 0.76996 0.0
H538 H 0.35303 0.38245 0.83586 0.0
H539 H 0.38475 0.35783 0.83998 0.0
H540 H 0.424 0.34749 0.64824 0.0
H541 H 0.39923 0.37019 0.58201 0.0
C542 C 0.36351 0.39109 0.6337 0.0
C543 C 0.34653 0.40221 0.66861 0.0
C544 C 0.37762 0.37756 0.67197 0.0
C545 C 0.34306 0.39883 0.74174 0.0
C546 C 0.35626 0.38473 0.77967 0.0
C547 C 0.38789 0.36061 0.7838 0.0
C548 C 0.40628 0.35096 0.74953 0.0
C549 C 0.37384 0.37419 0.74555 0.0
C550 C 0.41013 0.35484 0.67646 0.0
C551 C 0.39585 0.36776 0.63815 0.0
loop_
_geom_bond_atom_site_label_1
_geom_bond_atom_site_label_2
_geom_bond_distance
_geom_bond_site_symmetry_2
_ccdc_geom_bond_type
Co0 O1 2.216 1_554 S
Co0 O2 2.091 . S
Co0 O4 2.004 . S
Co0 O10 2.021 . S
Co0 O12 2.137 1_554 S
Co0 O13 2.244 1_554 S
O1 Co0 2.216 1_556 S
O1 C8 1.247 . S
O2 Co0 2.091 . S
O2 C8 1.261 1_554 S
C3 O12 1.247 . S
C3 O13 1.272 . S
O4 Co0 2.004 . S
O4 C9 1.259 . S
Co5 O6 2.061 . S
Co5 O11 2.052 . S
Co5 O13 2.135 1_554 S
O6 Co5 2.061 . S
O6 C9 1.235 . S
C7 O10 1.238 . S
C7 O11 1.241 . S
C8 O1 1.247 . S
C8 O2 1.261 1_556 S
C9 O4 1.259 . S
C9 O6 1.235 . S
O10 Co0 2.021 . S
O10 C7 1.238 . S
O11 Co5 2.052 . S
O11 C7 1.241 . S
O12 Co0 2.137 1_556 S
O12 C3 1.247 . S
O13 Co0 2.244 1_556 S
O13 C3 1.272 . S
O13 Co5 2.135 1_556 S
Co14 O15 2.216 . S
Co14 O16 2.091 . S
Co14 O18 2.004 . S
Co14 O24 2.021 . S
Co14 O26 2.137 . S
Co14 O27 2.244 . S
O15 Co14 2.216 . S
O15 C22 1.247 . S
O16 Co14 2.091 . S
O16 C22 1.261 . S
C17 O26 1.247 . S
C17 O27 1.272 . S
O18 Co14 2.004 . S
O18 C23 1.259 . S
Co19 O20 2.061 . S
Co19 O25 2.052 . S
Co19 O27 2.135 . S
O20 Co19 2.061 . S
O20 C23 1.235 . S
C21 O24 1.238 . S
C21 O25 1.241 . S
C22 O15 1.247 . S
C22 O16 1.261 . S
C23 O18 1.259 . S
C23 O20 1.235 . S
O24 Co14 2.021 . S
O24 C21 1.238 . S
O25 Co19 2.052 . S
O25 C21 1.241 . S
O26 Co14 2.137 . S
O26 C17 1.247 . S
O27 Co14 2.244 . S
O27 C17 1.272 . S
O27 Co19 2.135 . S
Co28 O29 2.216 . S
Co28 O30 2.091 . S
Co28 O32 2.004 . S
Co28 O38 2.021 . S
Co28 O40 2.137 . S
Co28 O41 2.244 . S
O29 Co28 2.216 . S
O29 C36 1.247 . S
O30 Co28 2.091 . S
O30 C36 1.261 . S
C31 O40 1.247 . S
C31 O41 1.272 . S
O32 Co28 2.004 . S
O32 C37 1.259 . S
Co33 O34 2.061 . S
Co33 O39 2.052 . S
Co33 O41 2.135 . S
O34 Co33 2.061 . S
O34 C37 1.235 . S
C35 O38 1.238 . S
C35 O39 1.241 . S
C36 O29 1.247 . S
C36 O30 1.261 . S
C37 O32 1.259 . S
C37 O34 1.235 . S
O38 Co28 2.021 . S
O38 C35 1.238 . S
O39 Co33 2.052 . S
O39 C35 1.241 . S
O40 Co28 2.137 . S
O40 C31 1.247 . S
O41 Co28 2.244 . S
O41 C31 1.272 . S
O41 Co33 2.135 . S
Co42 O43 2.216 . S
Co42 O44 2.091 . S
Co42 O46 2.004 . S
Co42 O52 2.021 . S
Co42 O54 2.137 . S
Co42 O55 2.244 . S
O43 Co42 2.216 . S
O43 C50 1.247 . S
O44 Co42 2.091 . S
O44 C50 1.261 . S
C45 O54 1.247 . S
C45 O55 1.272 . S
O46 Co42 2.004 . S
O46 C51 1.259 . S
Co47 O48 2.061 . S
Co47 O53 2.052 . S
Co47 O55 2.135 . S
O48 Co47 2.061 . S
O48 C51 1.235 . S
C49 O52 1.238 . S
C49 O53 1.241 . S
C50 O43 1.247 . S
C50 O44 1.261 . S
C51 O46 1.259 . S
C51 O48 1.235 . S
O52 Co42 2.021 . S
O52 C49 1.238 . S
O53 Co47 2.052 . S
O53 C49 1.241 . S
O54 Co42 2.137 . S
O54 C45 1.247 . S
O55 Co42 2.244 . S
O55 C45 1.272 . S
O55 Co47 2.135 . S
Co56 O57 2.216 . S
Co56 O58 2.091 . S
Co56 O60 2.004 . S
Co56 O66 2.021 . S
Co56 O68 2.137 . S
Co56 O69 2.244 . S
O57 Co56 2.216 . S
O57 C64 1.247 . S
O58 Co56 2.091 . S
O58 C64 1.261 . S
C59 O68 1.247 . S
C59 O69 1.272 . S
O60 Co56 2.004 . S
O60 C65 1.259 . S
Co61 O62 2.061 . S
Co61 O67 2.052 . S
Co61 O69 2.135 . S
O62 Co61 2.061 . S
O62 C65 1.235 . S
C63 O66 1.238 . S
C63 O67 1.241 . S
C64 O57 1.247 . S
C64 O58 1.261 . S
C65 O60 1.259 . S
C65 O62 1.235 . S
O66 Co56 2.021 . S
O66 C63 1.238 . S
O67 Co61 2.052 . S
O67 C63 1.241 . S
O68 Co56 2.137 . S
O68 C59 1.247 . S
O69 Co56 2.244 . S
O69 C59 1.272 . S
O69 Co61 2.135 . S
Co70 O71 2.216 . S
Co70 O72 2.091 . S
Co70 O74 2.004 . S
Co70 O80 2.021 . S
Co70 O82 2.137 . S
Co70 O83 2.244 . S
O71 Co70 2.216 . S
O71 C78 1.247 . S
O72 Co70 2.091 . S
O72 C78 1.261 . S
C73 O82 1.247 . S
C73 O83 1.272 . S
O74 Co70 2.004 . S
O74 C79 1.259 . S
Co75 O76 2.061 . S
Co75 O81 2.052 . S
Co75 O83 2.135 . S
O76 Co75 2.061 . S
O76 C79 1.235 . S
C77 O80 1.238 . S
C77 O81 1.241 . S
C78 O71 1.247 . S
C78 O72 1.261 . S
C79 O74 1.259 . S
C79 O76 1.235 . S
O80 Co70 2.021 . S
O80 C77 1.238 . S
O81 Co75 2.052 . S
O81 C77 1.241 . S
O82 Co70 2.137 . S
O82 C73 1.247 . S
O83 Co70 2.244 . S
O83 C73 1.272 . S
O83 Co75 2.135 . S
Co84 O85 2.216 . S
Co84 O86 2.091 . S
Co84 O88 2.004 . S
Co84 O94 2.021 . S
Co84 O96 2.137 . S
Co84 O97 2.244 . S
O85 Co84 2.216 . S
O85 C92 1.247 . S
O86 Co84 2.091 . S
O86 C92 1.261 . S
C87 O96 1.247 . S
C87 O97 1.272 . S
O88 Co84 2.004 . S
O88 C93 1.259 . S
Co89 O90 2.061 . S
Co89 O95 2.052 . S
Co89 O97 2.135 . S
O90 Co89 2.061 . S
O90 C93 1.235 . S
C91 O94 1.238 . S
C91 O95 1.241 . S
C92 O85 1.247 . S
C92 O86 1.261 . S
C93 O88 1.259 . S
C93 O90 1.235 . S
O94 Co84 2.021 . S
O94 C91 1.238 . S
O95 Co89 2.052 . S
O95 C91 1.241 . S
O96 Co84 2.137 . S
O96 C87 1.247 . S
O97 Co84 2.244 . S
O97 C87 1.272 . S
O97 Co89 2.135 . S
Co98 O99 2.216 . S
Co98 O100 2.091 . S
Co98 O102 2.004 1_554 S
Co98 O108 2.021 . S
Co98 O110 2.137 . S
Co98 O111 2.244 . S
O99 Co98 2.216 . S
O99 C106 1.247 . S
O100 Co98 2.091 . S
O100 C106 1.261 . S
C101 O110 1.247 . S
C101 O111 1.272 . S
O102 Co98 2.004 1_556 S
O102 C107 1.259 . S
Co103 O104 2.061 1_554 S
Co103 O109 2.052 . S
Co103 O111 2.135 . S
O104 Co103 2.061 1_556 S
O104 C107 1.235 . S
C105 O108 1.238 . S
C105 O109 1.241 . S
C106 O99 1.247 . S
C106 O100 1.261 . S
C107 O102 1.259 . S
C107 O104 1.235 . S
O108 Co98 2.021 . S
O108 C105 1.238 . S
O109 Co103 2.052 . S
O109 C105 1.241 . S
O110 Co98 2.137 . S
O110 C101 1.247 . S
O111 Co98 2.244 . S
O111 C101 1.272 . S
O111 Co103 2.135 . S
Co112 O113 2.216 . S
Co112 O114 2.091 . S
Co112 O116 2.004 . S
Co112 O122 2.021 . S
Co112 O124 2.137 . S
Co112 O125 2.244 . S
O113 Co112 2.216 . S
O113 C120 1.247 . S
O114 Co112 2.091 . S
O114 C120 1.261 . S
C115 O124 1.247 . S
C115 O125 1.272 . S
O116 Co112 2.004 . S
O116 C121 1.259 . S
Co117 O118 2.061 . S
Co117 O123 2.052 . S
Co117 O125 2.135 . S
O118 Co117 2.061 . S
O118 C121 1.235 . S
C119 O122 1.238 . S
C119 O123 1.241 . S
C120 O113 1.247 . S
C120 O114 1.261 . S
C121 O116 1.259 . S
C121 O118 1.235 . S
O122 Co112 2.021 . S
O122 C119 1.238 . S
O123 Co117 2.052 . S
O123 C119 1.241 . S
O124 Co112 2.137 . S
O124 C115 1.247 . S
O125 Co112 2.244 . S
O125 C115 1.272 . S
O125 Co117 2.135 . S
Co126 O127 2.216 . S
Co126 O128 2.091 . S
Co126 O130 2.004 . S
Co126 O136 2.021 . S
Co126 O138 2.137 . S
Co126 O139 2.244 . S
O127 Co126 2.216 . S
O127 C134 1.247 . S
O128 Co126 2.091 . S
O128 C134 1.261 . S
C129 O138 1.247 . S
C129 O139 1.272 . S
O130 Co126 2.004 . S
O130 C135 1.259 . S
Co131 O132 2.061 . S
Co131 O137 2.052 . S
Co131 O139 2.135 . S
O132 Co131 2.061 . S
O132 C135 1.235 . S
C133 O136 1.238 . S
C133 O137 1.241 . S
C134 O127 1.247 . S
C134 O128 1.261 . S
C135 O130 1.259 . S
C135 O132 1.235 . S
O136 Co126 2.021 . S
O136 C133 1.238 . S
O137 Co131 2.052 . S
O137 C133 1.241 . S
O138 Co126 2.137 . S
O138 C129 1.247 . S
O139 Co126 2.244 . S
O139 C129 1.272 . S
O139 Co131 2.135 . S
Co140 O141 2.216 . S
Co140 O142 2.091 . S
Co140 O144 2.004 . S
Co140 O150 2.021 . S
Co140 O152 2.137 . S
Co140 O153 2.244 . S
O141 Co140 2.216 . S
O141 C148 1.247 . S
O142 Co140 2.091 . S
O142 C148 1.261 . S
C143 O152 1.247 . S
C143 O153 1.272 . S
O144 Co140 2.004 . S
O144 C149 1.259 . S
Co145 O146 2.061 . S
Co145 O151 2.052 . S
Co145 O153 2.135 . S
O146 Co145 2.061 . S
O146 C149 1.235 . S
C147 O150 1.238 . S
C147 O151 1.241 . S
C148 O141 1.247 . S
C148 O142 1.261 . S
C149 O144 1.259 . S
C149 O146 1.235 . S
O150 Co140 2.021 . S
O150 C147 1.238 . S
O151 Co145 2.052 . S
O151 C147 1.241 . S
O152 Co140 2.137 . S
O152 C143 1.247 . S
O153 Co140 2.244 . S
O153 C143 1.272 . S
O153 Co145 2.135 . S
Co154 O155 2.216 . S
Co154 O156 2.091 . S
Co154 O158 2.004 . S
Co154 O164 2.021 . S
Co154 O166 2.137 . S
Co154 O167 2.244 . S
O155 Co154 2.216 . S
O155 C162 1.247 . S
O156 Co154 2.091 . S
O156 C162 1.261 . S
C157 O166 1.247 . S
C157 O167 1.272 . S
O158 Co154 2.004 . S
O158 C163 1.259 . S
Co159 O160 2.061 . S
Co159 O165 2.052 . S
Co159 O167 2.135 . S
O160 Co159 2.061 . S
O160 C163 1.235 . S
C161 O164 1.238 . S
C161 O165 1.241 . S
C162 O155 1.247 . S
C162 O156 1.261 . S
C163 O158 1.259 . S
C163 O160 1.235 . S
O164 Co154 2.021 . S
O164 C161 1.238 . S
O165 Co159 2.052 . S
O165 C161 1.241 . S
O166 Co154 2.137 . S
O166 C157 1.247 . S
O167 Co154 2.244 . S
O167 C157 1.272 . S
O167 Co159 2.135 . S
H168 C174 0.930 . S
H169 C177 0.930 . S
H170 C178 0.930 . S
H171 C179 0.930 . S
H172 C182 0.930 . S
H173 C183 0.930 . S
C174 H168 0.930 . S
C174 C175 1.355 . S
C174 C176 1.415 . S
C175 C174 1.355 . S
C175 C177 1.419 . S
C176 C174 1.415 . S
C176 C181 1.425 . S
C176 C183 1.409 . S
C177 H169 0.930 . S
C177 C175 1.419 . S
C177 C178 1.362 . S
C178 H170 0.930 . S
C178 C177 1.362 . S
C178 C181 1.409 . S
C179 H171 0.930 . S
C179 C180 1.355 . S
C179 C181 1.415 . S
C180 C179 1.355 . S
C180 C182 1.419 . S
C181 C176 1.425 . S
C181 C178 1.409 . S
C181 C179 1.415 . S
C182 H172 0.930 . S
C182 C180 1.419 . S
C182 C183 1.362 . S
C183 H173 0.930 . S
C183 C176 1.409 . S
C183 C182 1.362 . S
H184 C190 0.930 . S
H185 C193 0.930 . S
H186 C194 0.930 . S
H187 C195 0.930 . S
H188 C198 0.930 . S
H189 C199 0.930 . S
C190 H184 0.930 . S
C190 C191 1.355 . S
C190 C192 1.415 . S
C191 C190 1.355 . S
C191 C193 1.419 . S
C192 C190 1.415 . S
C192 C197 1.425 . S
C192 C199 1.409 . S
C193 H185 0.930 . S
C193 C191 1.419 . S
C193 C194 1.362 . S
C194 H186 0.930 . S
C194 C193 1.362 . S
C194 C197 1.409 . S
C195 H187 0.930 . S
C195 C196 1.355 . S
C195 C197 1.415 . S
C196 C195 1.355 . S
C196 C198 1.419 . S
C197 C192 1.425 . S
C197 C194 1.409 . S
C197 C195 1.415 . S
C198 H188 0.930 . S
C198 C196 1.419 . S
C198 C199 1.362 . S
C199 H189 0.930 . S
C199 C192 1.409 . S
C199 C198 1.362 . S
H200 C206 0.930 . S
H201 C209 0.930 . S
H202 C210 0.930 . S
H203 C211 0.930 . S
H204 C214 0.930 . S
H205 C215 0.930 . S
C206 H200 0.930 . S
C206 C207 1.355 . S
C206 C208 1.415 . S
C207 C206 1.355 . S
C207 C209 1.419 . S
C208 C206 1.415 . S
C208 C213 1.425 . S
C208 C215 1.409 . S
C209 H201 0.930 . S
C209 C207 1.419 . S
C209 C210 1.362 . S
C210 H202 0.930 . S
C210 C209 1.362 . S
C210 C213 1.409 . S
C211 H203 0.930 . S
C211 C212 1.355 . S
C211 C213 1.415 . S
C212 C211 1.355 . S
C212 C214 1.419 . S
C213 C208 1.425 . S
C213 C210 1.409 . S
C213 C211 1.415 . S
C214 H204 0.930 . S
C214 C212 1.419 . S
C214 C215 1.362 . S
C215 H205 0.930 . S
C215 C208 1.409 . S
C215 C214 1.362 . S
H216 C222 0.930 . S
H217 C225 0.930 . S
H218 C226 0.930 . S
H219 C227 0.930 . S
H220 C230 0.930 . S
H221 C231 0.930 . S
C222 H216 0.930 . S
C222 C223 1.355 . S
C222 C224 1.415 . S
C223 C222 1.355 . S
C223 C225 1.419 . S
C224 C222 1.415 . S
C224 C229 1.425 . S
C224 C231 1.409 . S
C225 H217 0.930 . S
C225 C223 1.419 . S
C225 C226 1.362 . S
C226 H218 0.930 . S
C226 C225 1.362 . S
C226 C229 1.409 . S
C227 H219 0.930 . S
C227 C228 1.355 . S
C227 C229 1.415 . S
C228 C227 1.355 . S
C228 C230 1.419 . S
C229 C224 1.425 . S
C229 C226 1.409 . S
C229 C227 1.415 . S
C230 H220 0.930 . S
C230 C228 1.419 . S
C230 C231 1.362 . S
C231 H221 0.930 . S
C231 C224 1.409 . S
C231 C230 1.362 . S
H232 C238 0.930 . S
H233 C241 0.930 . S
H234 C242 0.930 . S
H235 C243 0.930 . S
H236 C246 0.930 . S
H237 C247 0.930 . S
C238 H232 0.930 . S
C238 C239 1.355 . S
C238 C240 1.415 . S
C239 C238 1.355 . S
C239 C241 1.419 . S
C240 C238 1.415 . S
C240 C245 1.425 . S
C240 C247 1.409 . S
C241 H233 0.930 . S
C241 C239 1.419 . S
C241 C242 1.362 . S
C242 H234 0.930 . S
C242 C241 1.362 . S
C242 C245 1.409 . S
C243 H235 0.930 . S
C243 C244 1.355 . S
C243 C245 1.415 1_554 S
C244 C243 1.355 . S
C244 C246 1.419 . S
C245 C240 1.425 . S
C245 C242 1.409 . S
C245 C243 1.415 1_556 S
C246 H236 0.930 . S
C246 C244 1.419 . S
C246 C247 1.362 1_554 S
C247 H237 0.930 . S
C247 C240 1.409 . S
C247 C246 1.362 1_556 S
H248 C254 0.930 . S
H249 C257 0.930 . S
H250 C258 0.930 . S
H251 C259 0.930 . S
H252 C262 0.930 . S
H253 C263 0.930 . S
C254 H248 0.930 . S
C254 C255 1.355 . S
C254 C256 1.415 . S
C255 C254 1.355 . S
C255 C257 1.419 . S
C256 C254 1.415 . S
C256 C261 1.425 . S
C256 C263 1.409 . S
C257 H249 0.930 . S
C257 C255 1.419 . S
C257 C258 1.362 . S
C258 H250 0.930 . S
C258 C257 1.362 . S
C258 C261 1.409 . S
C259 H251 0.930 . S
C259 C260 1.355 . S
C259 C261 1.415 . S
C260 C259 1.355 . S
C260 C262 1.419 . S
C261 C256 1.425 . S
C261 C258 1.409 . S
C261 C259 1.415 . S
C262 H252 0.930 . S
C262 C260 1.419 . S
C262 C263 1.362 . S
C263 H253 0.930 . S
C263 C256 1.409 . S
C263 C262 1.362 . S
H264 C270 0.930 . S
H265 C273 0.930 . S
H266 C274 0.930 . S
H267 C275 0.930 . S
H268 C278 0.930 . S
H269 C279 0.930 . S
C270 H264 0.930 . S
C270 C271 1.355 . S
C270 C272 1.415 . S
C271 C270 1.355 . S
C271 C273 1.419 . S
C272 C270 1.415 . S
C272 C277 1.425 . S
C272 C279 1.409 . S
C273 H265 0.930 . S
C273 C271 1.419 . S
C273 C274 1.362 . S
C274 H266 0.930 . S
C274 C273 1.362 . S
C274 C277 1.409 . S
C275 H267 0.930 . S
C275 C276 1.355 . S
C275 C277 1.415 . S
C276 C275 1.355 . S
C276 C278 1.419 . S
C277 C272 1.425 . S
C277 C274 1.409 . S
C277 C275 1.415 . S
C278 H268 0.930 . S
C278 C276 1.419 . S
C278 C279 1.362 . S
C279 H269 0.930 . S
C279 C272 1.409 . S
C279 C278 1.362 . S
H280 C286 0.930 . S
H281 C289 0.930 . S
H282 C290 0.930 . S
H283 C291 0.930 . S
H284 C294 0.930 . S
H285 C295 0.930 . S
C286 H280 0.930 . S
C286 C287 1.355 . S
C286 C288 1.415 . S
C287 C286 1.355 . S
C287 C289 1.419 . S
C288 C286 1.415 . S
C288 C293 1.425 . S
C288 C295 1.409 . S
C289 H281 0.930 . S
C289 C287 1.419 . S
C289 C290 1.362 . S
C290 H282 0.930 . S
C290 C289 1.362 . S
C290 C293 1.409 . S
C291 H283 0.930 . S
C291 C292 1.355 . S
C291 C293 1.415 . S
C292 C291 1.355 . S
C292 C294 1.419 . S
C293 C288 1.425 . S
C293 C290 1.409 . S
C293 C291 1.415 . S
C294 H284 0.930 . S
C294 C292 1.419 . S
C294 C295 1.362 . S
C295 H285 0.930 . S
C295 C288 1.409 . S
C295 C294 1.362 . S
H296 C302 0.930 . S
H297 C305 0.930 . S
H298 C306 0.930 . S
H299 C307 0.930 . S
H300 C310 0.930 . S
H301 C311 0.930 . S
C302 H296 0.930 . S
C302 C303 1.355 . S
C302 C304 1.415 . S
C303 C302 1.355 . S
C303 C305 1.419 . S
C304 C302 1.415 . S
C304 C309 1.425 . S
C304 C311 1.409 . S
C305 H297 0.930 . S
C305 C303 1.419 . S
C305 C306 1.362 . S
C306 H298 0.930 . S
C306 C305 1.362 . S
C306 C309 1.409 . S
C307 H299 0.930 . S
C307 C308 1.355 . S
C307 C309 1.415 . S
C308 C307 1.355 . S
C308 C310 1.419 . S
C309 C304 1.425 . S
C309 C306 1.409 . S
C309 C307 1.415 . S
C310 H300 0.930 . S
C310 C308 1.419 . S
C310 C311 1.362 . S
C311 H301 0.930 . S
C311 C304 1.409 . S
C311 C310 1.362 . S
H312 C318 0.930 . S
H313 C321 0.930 . S
H314 C322 0.930 . S
H315 C323 0.930 . S
H316 C326 0.930 . S
H317 C327 0.930 . S
C318 H312 0.930 . S
C318 C319 1.355 . S
C318 C320 1.415 . S
C319 C318 1.355 . S
C319 C321 1.419 . S
C320 C318 1.415 . S
C320 C325 1.425 . S
C320 C327 1.409 . S
C321 H313 0.930 . S
C321 C319 1.419 . S
C321 C322 1.362 . S
C322 H314 0.930 . S
C322 C321 1.362 . S
C322 C325 1.409 . S
C323 H315 0.930 . S
C323 C324 1.355 . S
C323 C325 1.415 . S
C324 C323 1.355 . S
C324 C326 1.419 . S
C325 C320 1.425 . S
C325 C322 1.409 . S
C325 C323 1.415 . S
C326 H316 0.930 . S
C326 C324 1.419 . S
C326 C327 1.362 . S
C327 H317 0.930 . S
C327 C320 1.409 . S
C327 C326 1.362 . S
H328 C334 0.930 . S
H329 C337 0.930 . S
H330 C338 0.930 . S
H331 C339 0.930 . S
H332 C342 0.930 . S
H333 C343 0.930 . S
C334 H328 0.930 . S
C334 C335 1.355 . S
C334 C336 1.415 . S
C335 C334 1.355 . S
C335 C337 1.419 . S
C336 C334 1.415 . S
C336 C341 1.425 . S
C336 C343 1.409 . S
C337 H329 0.930 . S
C337 C335 1.419 . S
C337 C338 1.362 . S
C338 H330 0.930 . S
C338 C337 1.362 . S
C338 C341 1.409 . S
C339 H331 0.930 . S
C339 C340 1.355 . S
C339 C341 1.415 . S
C340 C339 1.355 . S
C340 C342 1.419 . S
C341 C336 1.425 . S
C341 C338 1.409 . S
C341 C339 1.415 . S
C342 H332 0.930 . S
C342 C340 1.419 . S
C342 C343 1.362 . S
C343 H333 0.930 . S
C343 C336 1.409 . S
C343 C342 1.362 . S
H344 C350 0.930 . S
H345 C353 0.930 . S
H346 C354 0.930 . S
H347 C355 0.930 . S
H348 C358 0.930 . S
H349 C359 0.930 . S
C350 H344 0.930 . S
C350 C351 1.355 . S
C350 C352 1.415 . S
C351 C350 1.355 . S
C351 C353 1.419 . S
C352 C350 1.415 . S
C352 C357 1.425 . S
C352 C359 1.409 1_556 S
C353 H345 0.930 . S
C353 C351 1.419 . S
C353 C354 1.362 . S
C354 H346 0.930 . S
C354 C353 1.362 . S
C354 C357 1.409 . S
C355 H347 0.930 . S
C355 C356 1.355 . S
C355 C357 1.415 . S
C356 C355 1.355 . S
C356 C358 1.419 1_556 S
C357 C352 1.425 . S
C357 C354 1.409 . S
C357 C355 1.415 . S
C358 H348 0.930 . S
C358 C356 1.419 1_554 S
C358 C359 1.362 . S
C359 H349 0.930 . S
C359 C352 1.409 1_554 S
C359 C358 1.362 . S
H360 C366 0.930 . S
H361 C369 0.930 . S
H362 C370 0.930 . S
H363 C371 0.930 . S
H364 C374 0.930 . S
H365 C375 0.930 . S
C366 H360 0.930 . S
C366 C367 1.355 . S
C366 C368 1.415 . S
C367 C366 1.355 . S
C367 C369 1.419 . S
C368 C366 1.415 . S
C368 C373 1.425 . S
C368 C375 1.409 . S
C369 H361 0.930 . S
C369 C367 1.419 . S
C369 C370 1.362 . S
C370 H362 0.930 . S
C370 C369 1.362 . S
C370 C373 1.409 . S
C371 H363 0.930 . S
C371 C372 1.355 . S
C371 C373 1.415 . S
C372 C371 1.355 . S
C372 C374 1.419 . S
C373 C368 1.425 . S
C373 C370 1.409 . S
C373 C371 1.415 . S
C374 H364 0.930 . S
C374 C372 1.419 . S
C374 C375 1.362 . S
C375 H365 0.930 . S
C375 C368 1.409 . S
C375 C374 1.362 . S
H376 C382 0.930 . S
H377 C385 0.930 . S
H378 C386 0.930 . S
H379 C387 0.930 . S
H380 C390 0.930 . S
H381 C391 0.930 1_554 S
C382 H376 0.930 . S
C382 C383 1.355 . S
C382 C384 1.415 1_554 S
C383 C382 1.355 . S
C383 C385 1.419 1_554 S
C384 C382 1.415 1_556 S
C384 C389 1.425 . S
C384 C391 1.409 . S
C385 H377 0.930 . S
C385 C383 1.419 1_556 S
C385 C386 1.362 . S
C386 H378 0.930 . S
C386 C385 1.362 . S
C386 C389 1.409 . S
C387 H379 0.930 . S
C387 C388 1.355 . S
C387 C389 1.415 . S
C388 C387 1.355 . S
C388 C390 1.419 . S
C389 C384 1.425 . S
C389 C386 1.409 . S
C389 C387 1.415 . S
C390 H380 0.930 . S
C390 C388 1.419 . S
C390 C391 1.362 . S
C391 H381 0.930 1_556 S
C391 C384 1.409 . S
C391 C390 1.362 . S
H392 C398 0.930 . S
H393 C401 0.930 . S
H394 C402 0.930 . S
H395 C403 0.930 . S
H396 C406 0.930 . S
H397 C407 0.930 . S
C398 H392 0.930 . S
C398 C399 1.355 . S
C398 C400 1.415 . S
C399 C398 1.355 . S
C399 C401 1.419 . S
C400 C398 1.415 . S
C400 C405 1.425 . S
C400 C407 1.409 . S
C401 H393 0.930 . S
C401 C399 1.419 . S
C401 C402 1.362 . S
C402 H394 0.930 . S
C402 C401 1.362 . S
C402 C405 1.409 . S
C403 H395 0.930 . S
C403 C404 1.355 . S
C403 C405 1.415 . S
C404 C403 1.355 . S
C404 C406 1.419 . S
C405 C400 1.425 . S
C405 C402 1.409 . S
C405 C403 1.415 . S
C406 H396 0.930 . S
C406 C404 1.419 . S
C406 C407 1.362 . S
C407 H397 0.930 . S
C407 C400 1.409 . S
C407 C406 1.362 . S
H408 C414 0.930 . S
H409 C417 0.930 . S
H410 C418 0.930 . S
H411 C419 0.930 . S
H412 C422 0.930 . S
H413 C423 0.930 . S
C414 H408 0.930 . S
C414 C415 1.355 . S
C414 C416 1.415 . S
C415 C414 1.355 . S
C415 C417 1.419 . S
C416 C414 1.415 . S
C416 C421 1.425 . S
C416 C423 1.409 . S
C417 H409 0.930 . S
C417 C415 1.419 . S
C417 C418 1.362 . S
C418 H410 0.930 . S
C418 C417 1.362 . S
C418 C421 1.409 . S
C419 H411 0.930 . S
C419 C420 1.355 . S
C419 C421 1.415 . S
C420 C419 1.355 . S
C420 C422 1.419 . S
C421 C416 1.425 . S
C421 C418 1.409 . S
C421 C419 1.415 . S
C422 H412 0.930 . S
C422 C420 1.419 . S
C422 C423 1.362 . S
C423 H413 0.930 . S
C423 C416 1.409 . S
C423 C422 1.362 . S
H424 C430 0.930 . S
H425 C433 0.930 . S
H426 C434 0.930 . S
H427 C435 0.930 . S
H428 C438 0.930 . S
H429 C439 0.930 . S
C430 H424 0.930 . S
C430 C431 1.355 . S
C430 C432 1.415 . S
C431 C430 1.355 . S
C431 C433 1.419 . S
C432 C430 1.415 . S
C432 C437 1.425 . S
C432 C439 1.409 . S
C433 H425 0.930 . S
C433 C431 1.419 . S
C433 C434 1.362 . S
C434 H426 0.930 . S
C434 C433 1.362 . S
C434 C437 1.409 . S
C435 H427 0.930 . S
C435 C436 1.355 . S
C435 C437 1.415 . S
C436 C435 1.355 . S
C436 C438 1.419 . S
C437 C432 1.425 . S
C437 C434 1.409 . S
C437 C435 1.415 . S
C438 H428 0.930 . S
C438 C436 1.419 . S
C438 C439 1.362 . S
C439 H429 0.930 . S
C439 C432 1.409 . S
C439 C438 1.362 . S
H440 C446 0.930 . S
H441 C449 0.930 . S
H442 C450 0.930 . S
H443 C451 0.930 . S
H444 C454 0.930 . S
H445 C455 0.930 . S
C446 H440 0.930 . S
C446 C447 1.355 . S
C446 C448 1.415 . S
C447 C446 1.355 . S
C447 C449 1.419 . S
C448 C446 1.415 . S
C448 C453 1.425 . S
C448 C455 1.409 . S
C449 H441 0.930 . S
C449 C447 1.419 . S
C449 C450 1.362 . S
C450 H442 0.930 . S
C450 C449 1.362 . S
C450 C453 1.409 . S
C451 H443 0.930 . S
C451 C452 1.355 . S
C451 C453 1.415 . S
C452 C451 1.355 . S
C452 C454 1.419 . S
C453 C448 1.425 . S
C453 C450 1.409 . S
C453 C451 1.415 . S
C454 H444 0.930 . S
C454 C452 1.419 . S
C454 C455 1.362 . S
C455 H445 0.930 . S
C455 C448 1.409 . S
C455 C454 1.362 . S
H456 C462 0.930 . S
H457 C465 0.930 1_554 S
H458 C466 0.965 . S
H459 C467 0.930 . S
H460 C470 0.930 . S
H461 C471 0.965 . S
C462 H456 0.930 . S
C462 C463 1.355 . S
C462 C464 1.415 . S
C463 C462 1.355 . S
C463 C465 1.419 . S
C464 C462 1.415 . S
C464 C469 1.425 1_455 S
C464 C471 1.409 . S
C465 H457 0.930 1_556 S
C465 C463 1.419 . S
C465 C466 1.330 1_455 S
C466 H458 0.965 . S
C466 C465 1.330 1_655 S
C466 C469 1.409 . S
C467 H459 0.930 . S
C467 C468 1.355 . S
C467 C469 1.415 . S
C468 C467 1.355 . S
C468 C470 1.419 . S
C469 C464 1.425 1_655 S
C469 C466 1.409 . S
C469 C467 1.415 . S
C470 H460 0.930 . S
C470 C468 1.419 . S
C470 C471 1.330 1_655 S
C471 H461 0.965 . S
C471 C464 1.409 . S
C471 C470 1.330 1_455 S
H472 C478 0.930 . S
H473 C481 0.930 . S
H474 C482 0.930 . S
H475 C483 0.930 . S
H476 C486 0.930 . S
H477 C487 0.927 1_556 S
C478 H472 0.930 . S
C478 C479 1.355 . S
C478 C480 1.415 1_566 S
C479 C478 1.355 . S
C479 C481 1.419 1_556 S
C480 C478 1.415 1_544 S
C480 C485 1.425 1_545 S
C480 C487 1.410 . S
C481 H473 0.930 . S
C481 C479 1.419 1_554 S
C481 C482 1.362 . S
C482 H474 0.930 . S
C482 C481 1.362 . S
C482 C485 1.409 . S
C483 H475 0.930 . S
C483 C484 1.355 . S
C483 C485 1.415 1_545 S
C484 C483 1.355 . S
C484 C486 1.419 . S
C485 C480 1.425 1_565 S
C485 C482 1.409 . S
C485 C483 1.415 1_565 S
C486 H476 0.930 . S
C486 C484 1.419 . S
C486 C487 1.364 . S
C487 H477 0.927 1_554 S
C487 C480 1.410 . S
C487 C486 1.364 . S
H488 C494 0.930 . S
H489 C497 0.930 . S
H490 C498 0.930 . S
H491 C499 0.930 . S
H492 C502 0.930 . S
H493 C503 0.930 . S
C494 H488 0.930 . S
C494 C495 1.355 . S
C494 C496 1.415 . S
C495 C494 1.355 . S
C495 C497 1.419 . S
C496 C494 1.415 . S
C496 C501 1.425 . S
C496 C503 1.409 . S
C497 H489 0.930 . S
C497 C495 1.419 . S
C497 C498 1.362 . S
C498 H490 0.930 . S
C498 C497 1.362 . S
C498 C501 1.409 . S
C499 H491 0.930 . S
C499 C500 1.355 . S
C499 C501 1.415 . S
C500 C499 1.355 . S
C500 C502 1.419 . S
C501 C496 1.425 . S
C501 C498 1.409 . S
C501 C499 1.415 . S
C502 H492 0.930 . S
C502 C500 1.419 . S
C502 C503 1.362 . S
C503 H493 0.930 . S
C503 C496 1.409 . S
C503 C502 1.362 . S
H504 C510 0.930 . S
H505 C513 0.930 . S
H506 C514 0.930 . S
H507 C515 0.930 . S
H508 C518 0.930 . S
H509 C519 0.930 . S
C510 H504 0.930 . S
C510 C511 1.355 . S
C510 C512 1.415 . S
C511 C510 1.355 . S
C511 C513 1.419 . S
C512 C510 1.415 . S
C512 C517 1.425 1_455 S
C512 C519 1.409 1_455 S
C513 H505 0.930 . S
C513 C511 1.419 . S
C513 C514 1.362 . S
C514 H506 0.930 . S
C514 C513 1.362 . S
C514 C517 1.409 1_455 S
C515 H507 0.930 . S
C515 C516 1.355 . S
C515 C517 1.415 . S
C516 C515 1.355 . S
C516 C518 1.419 . S
C517 C512 1.425 1_655 S
C517 C514 1.409 1_655 S
C517 C515 1.415 . S
C518 H508 0.930 . S
C518 C516 1.419 . S
C518 C519 1.362 . S
C519 H509 0.930 . S
C519 C512 1.409 1_655 S
C519 C518 1.362 . S
H520 C526 0.930 . S
H521 C529 0.930 . S
H522 C530 0.930 . S
H523 C531 0.930 . S
H524 C534 0.930 . S
H525 C535 0.930 . S
C526 H520 0.930 . S
C526 C527 1.355 . S
C526 C528 1.430 . S
C527 C526 1.355 . S
C527 C529 1.419 . S
C528 C526 1.430 . S
C528 C533 1.445 1_545 S
C528 C535 1.384 1_545 S
C529 H521 0.930 . S
C529 C527 1.419 . S
C529 C530 1.362 . S
C530 H522 0.930 . S
C530 C529 1.362 . S
C530 C533 1.385 1_545 S
C531 H523 0.930 . S
C531 C532 1.355 . S
C531 C533 1.430 . S
C532 C531 1.355 . S
C532 C534 1.419 . S
C533 C528 1.445 1_565 S
C533 C530 1.385 1_565 S
C533 C531 1.430 . S
C534 H524 0.930 . S
C534 C532 1.419 . S
C534 C535 1.362 . S
C535 H525 0.930 . S
C535 C528 1.384 1_565 S
C535 C534 1.362 . S
H536 C542 0.930 . S
H537 C545 0.930 . S
H538 C546 0.930 . S
H539 C547 0.930 . S
H540 C550 0.930 . S
H541 C551 0.930 . S
C542 H536 0.930 . S
C542 C543 1.355 . S
C542 C544 1.415 . S
C543 C542 1.355 . S
C543 C545 1.419 . S
C544 C542 1.415 . S
C544 C549 1.425 . S
C544 C551 1.409 . S
C545 H537 0.930 . S
C545 C543 1.419 . S
C545 C546 1.362 . S
C546 H538 0.930 . S
C546 C545 1.362 . S
C546 C549 1.409 . S
C547 H539 0.930 . S
C547 C548 1.355 . S
C547 C549 1.415 . S
C548 C547 1.355 . S
C548 C550 1.419 . S
C549 C544 1.425 . S
C549 C546 1.409 . S
C549 C547 1.415 . S
C550 H540 0.930 . S
C550 C548 1.419 . S
C550 C551 1.362 . S
C551 H541 0.930 . S
C551 C544 1.409 . S
C551 C550 1.362 . S
C175 C9 1.393 . S
C180 C149 1.433 . S
C191 C163 1.447 . S
C196 C23 1.441 . S
C207 C37 1.454 . S
C212 C93 1.410 . S
C223 C51 1.418 . S
C228 C107 1.395 . S
C239 C65 1.413 . S
C244 C121 1.455 . S
C255 C135 1.432 . S
C260 C79 1.393 1_554 S
C271 C7 1.534 . S
C276 C119 1.584 . S
C287 C21 1.538 . S
C292 C133 1.581 . S
C303 C147 1.567 . S
C308 C35 1.545 . S
C319 C49 1.578 . S
C324 C161 1.542 . S
C335 C63 1.549 . S
C340 C91 1.572 . S
C351 C77 1.584 . S
C356 C105 1.532 1_556 S
C367 C143 1.407 . S
C372 C3 1.414 . S
C383 C17 1.408 . S
C388 C157 1.407 . S
C399 C31 1.406 . S
C404 C87 1.413 1_554 S
C415 C45 1.412 . S
C420 C101 1.411 . S
C431 C115 1.406 . S
C436 C59 1.411 . S
C447 C73 1.406 . S
C452 C129 1.412 . S
C463 C8 1.414 . S
C468 C162 1.415 . S
C479 C92 1.395 . S
C484 C22 1.395 . S
C495 C106 1.403 . S
C500 C36 1.405 . S
C511 C120 1.409 . S
C516 C50 1.407 . S
C527 C134 1.408 . S
C532 C64 1.406 . S
C543 C148 1.402 . S
C548 C78 1.400 . S
