# Generated by pormake.
# Topology rob, (6)-cn, num edge types: 1
# Building blocks:
#     Node 0, Type 0, BuildingBlock: KUMBUR_clean_sbu_0, # of connection points: 6
#     Node 1, Type 0, BuildingBlock: KUMBUR_clean_sbu_0, # of connection points: 6
#     Node 2, Type 0, BuildingBlock: KUMBUR_clean_sbu_0, # of connection points: 6
#     Node 3, Type 0, BuildingBlock: KUMBUR_clean_sbu_0, # of connection points: 6
#     Edge 4, Type (0, 0), BuildingBlock: TEMPAE_clean_linker_10, # of connection points: 2
#     Edge 5, Type (0, 0), BuildingBlock: TEMPAE_clean_linker_10, # of connection points: 2
#     Edge 6, Type (0, 0), BuildingBlock: TEMPAE_clean_linker_10, # of connection points: 2
#     Edge 7, Type (0, 0), BuildingBlock: TEMPAE_clean_linker_10, # of connection points: 2
#     Edge 8, Type (0, 0), BuildingBlock: TEMPAE_clean_linker_10, # of connection points: 2
#     Edge 9, Type (0, 0), BuildingBlock: TEMPAE_clean_linker_10, # of connection points: 2
#     Edge 10, Type (0, 0), BuildingBlock: TEMPAE_clean_linker_10, # of connection points: 2
#     Edge 11, Type (0, 0), BuildingBlock: TEMPAE_clean_linker_10, # of connection points: 2
#     Edge 12, Type (0, 0), BuildingBlock: TEMPAE_clean_linker_10, # of connection points: 2
#     Edge 13, Type (0, 0), BuildingBlock: TEMPAE_clean_linker_10, # of connection points: 2
#     Edge 14, Type (0, 0), BuildingBlock: TEMPAE_clean_linker_10, # of connection points: 2
#     Edge 15, Type (0, 0), BuildingBlock: TEMPAE_clean_linker_10, # of connection points: 2
# Relax obj value: 0.035
# Max RMSD: 0.159
# Mean RMSD: 0.159
data_MOF--net-rob--node1-KUMBUR_clean_sbu_0--edge1-TEMPAE_clean_linker_10
_symmetry_space_group_name_H-M    P1
_symmetry_Int_Tables_number       1
_symmetry_cell_setting            triclinic
loop_
_symmetry_equiv_pos_as_xyz
'x, y, z'
_cell_length_a     16.302414
_cell_length_b     25.992406
_cell_length_c     33.90421
_cell_angle_alpha  118.56638
_cell_angle_beta   89.950521
_cell_angle_gamma 89.924828
loop_
_atom_site_label
_atom_site_type_symbol
_atom_site_fract_x
_atom_site_fract_y
_atom_site_fract_z
_atom_type_partial_charge
Tb0 Tb 0.18318 0.31158 0.0622 0.0
C1 C 0.40226 0.09408 0.98366 0.0
C2 C 0.52231 0.12359 0.0317 0.0
C3 C 0.48396 0.02109 0.99132 0.0
C4 C 0.4547 0.138 1.01272 0.0
C5 C 0.41684 0.03518 0.97255 0.0
C6 C 0.53612 0.06511 0.02115 0.0
C7 C 0.30167 1.00707 0.92187 0.0
N8 N 0.33912 0.10861 0.96474 0.0
C9 C 0.29056 0.06573 0.93296 0.0
C10 C 0.36469 0.99179 0.94203 0.0
Tb11 Tb 0.32782 0.20621 0.98576 0.0
N12 N 0.44123 0.19417 0.02124 0.0
C13 C 0.49611 0.23712 0.04711 0.0
C14 C 0.57555 0.16805 0.05983 0.0
C15 C 0.56265 0.22491 0.06728 0.0
H16 H 0.24074 0.07686 0.9175 0.0
H17 H 0.60418 0.25957 0.08858 0.0
H18 H 0.58785 0.0533 0.03526 0.0
H19 H 0.26161 0.97368 0.89777 0.0
H20 H 0.48885 0.28176 0.05428 0.0
H21 H 0.90818 0.27318 0.96259 0.0
H22 H 0.62765 0.15874 0.07525 0.0
H23 H 0.27673 0.43497 0.13318 0.0
H24 H 0.0243 0.24562 0.99441 0.0
H25 H 0.26411 0.54031 0.15791 0.0
H26 H 0.49632 0.97604 0.9826 0.0
H27 H 0.88678 0.37677 0.98176 0.0
H28 H 0.93035 0.4819 0.0267 0.0
H29 H 0.37321 0.94634 0.93345 0.0
H30 H 0.02768 0.55443 0.07981 0.0
N31 N 0.07259 0.33228 0.03012 0.0
C32 C 0.01717 0.29097 1.00303 0.0
C33 C 0.93877 0.36483 0.99561 0.0
C34 C 0.99327 0.40733 0.02498 0.0
C35 C 0.95061 0.3064 0.98479 0.0
C36 C 0.06042 0.38934 0.04167 0.0
H37 H 0.15407 0.57629 0.1272 0.0
N38 N 0.17616 0.41059 0.08753 0.0
C39 C 0.22144 0.50973 0.13359 0.0
C40 C 0.11425 0.42998 0.07146 0.0
C41 C 0.22825 0.44978 0.11941 0.0
C42 C 0.15915 0.52994 0.11629 0.0
C43 C 0.10355 0.49007 0.08553 0.0
O44 O 0.17349 0.34291 0.13198 0.0
O45 O 0.28346 0.25255 0.05347 0.0
O46 O 0.24122 0.15915 1.00647 0.0
O47 O 0.12986 0.22327 0.03216 0.0
O48 O 0.28531 0.33162 0.1093 0.0
O49 O 0.07722 0.29092 0.08724 0.0
O50 O 0.41042 0.15942 0.93245 0.0
O51 O 0.22477 0.26139 0.99357 0.0
O52 O 0.26529 0.35656 0.03773 0.0
O53 O 0.37987 0.29506 1.01853 0.0
O54 O 0.22365 0.18033 0.93931 0.0
O55 O 0.35787 0.23948 0.94145 0.0
C56 C 0.32272 0.28223 0.08923 0.0
C57 C 0.04142 0.35263 0.1635 0.0
C58 C 0.97009 0.36958 0.23213 0.0
C59 C 0.03053 0.34026 0.19926 0.0
C60 C 0.92141 0.41226 0.22914 0.0
C61 C 0.99301 0.39573 0.16122 0.0
C62 C 0.93341 0.42553 0.1941 0.0
C63 C 0.16368 0.1713 1.01917 0.0
C64 C 0.10239 0.31864 0.12872 0.0
C65 C 0.03708 0.50841 0.06908 0.0
C66 C 0.98185 0.46713 0.03888 0.0
C67 C 0.18523 0.22976 0.9581 0.0
C68 C 0.38222 0.16663 0.86675 0.0
C69 C 0.41529 0.18951 0.83996 0.0
C70 C 0.39933 0.16233 0.79329 0.0
C71 C 0.34902 0.11223 0.77433 0.0
C72 C 0.33152 0.11713 0.84679 0.0
C73 C 0.315 0.09028 0.80096 0.0
C74 C 0.34451 0.34591 0.02835 0.0
C75 C 0.40141 0.19421 0.91524 0.0
H76 H 0.06769 0.30665 0.20087 0.0
H77 H 0.87447 0.4355 0.25405 0.0
H78 H 0.00086 0.40593 0.13398 0.0
H79 H 0.89591 0.45869 0.19223 0.0
H80 H 0.45312 0.22842 0.8556 0.0
H81 H 0.33698 0.08902 0.73865 0.0
H82 H 0.30523 0.09873 0.86643 0.0
H83 H 0.27646 0.05174 0.78586 0.0
Tb84 Tb 0.67734 0.80629 0.06378 0.0
C85 C 0.93266 0.60564 0.97904 0.0
C86 C 0.04936 0.64539 0.02842 0.0
C87 C 0.03329 0.54011 0.98409 0.0
C88 C 0.97607 0.65331 1.00984 0.0
C89 C 0.96131 0.54835 0.96515 0.0
C90 C 0.07723 0.5885 1.01575 0.0
C91 C 0.85108 0.51216 0.91116 0.0
N92 N 0.8653 0.61562 0.96034 0.0
C93 C 0.82621 0.56995 0.92542 0.0
C94 C 0.91856 0.50128 0.93142 0.0
Tb95 Tb 0.8303 0.71142 0.98434 0.0
N96 N 0.94896 0.70741 1.01957 0.0
C97 C 0.99549 0.75557 0.04607 0.0
C98 C 0.09397 0.69479 0.05786 0.0
C99 C 0.06726 0.75012 0.06637 0.0
H100 H 0.77457 0.57814 0.90923 0.0
H101 H 0.1023 0.78864 0.08827 0.0
H102 H 0.13337 0.58142 0.02961 0.0
H103 H 0.81872 0.47614 0.88428 0.0
H104 H 0.97701 0.79886 0.05293 0.0
H105 H 0.40668 0.71926 0.95967 0.0
H106 H 0.15019 0.69058 0.07312 0.0
H107 H 0.72871 0.94159 0.13585 0.0
H108 H 0.53372 0.71347 0.99542 0.0
H109 H 0.67883 0.04195 0.15906 0.0
H110 H 0.05601 0.49657 0.97414 0.0
H111 H 0.35299 0.81528 0.97314 0.0
H112 H 0.36445 0.92486 1.01494 0.0
H113 H 0.93857 0.45665 0.91998 0.0
H114 H 0.43784 0.01228 0.06975 0.0
N115 N 0.55719 0.80568 0.02777 0.0
C116 C 0.51281 0.75605 1.00177 0.0
C117 C 0.41004 0.81309 0.98865 0.0
C118 C 0.45261 0.86394 1.01741 0.0
C119 C 0.43999 0.75891 0.98112 0.0
C120 C 0.52713 0.85866 0.03637 0.0
H121 H 0.55544 0.0566 0.12296 0.0
N122 N 0.63803 0.90052 0.08519 0.0
C123 C 0.6476 1.00464 0.13271 0.0
C124 C 0.569 0.90788 0.06628 0.0
C125 C 0.67579 0.94782 0.1194 0.0
C126 C 0.57815 0.01281 0.11228 0.0
C127 C 0.53695 0.96408 0.07932 0.0
O128 O 0.67332 0.84197 0.13414 0.0
O129 O 0.78619 0.75431 0.05246 0.0
O130 O 0.75993 0.65387 1.00183 0.0
O131 O 0.64618 0.71344 0.0381 0.0
O132 O 0.78366 0.83388 0.10845 0.0
O133 O 0.58383 0.77866 0.09207 0.0
O134 O 0.83576 0.67957 0.91441 0.0
O135 O 0.72152 0.76347 0.99577 0.0
O136 O 0.74784 0.86321 0.04552 0.0
O137 O 0.86344 0.80437 1.01192 0.0
O138 O 0.7246 0.68469 0.93918 0.0
O139 O 0.92662 0.73977 0.95828 0.0
C140 C 0.82551 0.78624 0.08778 0.0
C141 C 0.54434 0.84452 0.16647 0.0
C142 C 0.47138 0.86058 0.23424 0.0
C143 C 0.53375 0.83263 0.20239 0.0
C144 C 0.42043 0.90144 0.23014 0.0
C145 C 0.49319 0.88543 0.16282 0.0
C146 C 0.43177 0.91399 0.19474 0.0
C147 C 0.68543 0.66251 1.01947 0.0
C148 C 0.60816 0.81258 0.13304 0.0
C149 C 0.46325 0.96965 0.06038 0.0
C150 C 0.42152 0.91976 0.0291 0.0
C151 C 0.68228 0.73199 0.96033 0.0
C152 C 0.96612 0.67675 0.88339 0.0
C153 C 0.97732 0.69016 0.84833 0.0
C154 C 0.03964 0.66279 0.81637 0.0
C155 C 0.09016 0.62107 0.81957 0.0
C156 C 0.01668 0.63493 0.88618 0.0
C157 C 0.07825 0.60704 0.85418 0.0
C158 C 0.82326 0.85491 0.02897 0.0
C159 C 0.90245 0.70831 0.91694 0.0
H160 H 0.57274 0.80045 0.20489 0.0
H161 H 0.37212 0.92372 0.25438 0.0
H162 H 0.50021 0.89496 0.13531 0.0
H163 H 0.3924 0.94557 0.19183 0.0
H164 H 0.93874 0.72306 0.84658 0.0
H165 H 0.13846 0.59921 0.79522 0.0
H166 H 0.00909 0.62424 0.91308 0.0
H167 H 0.11723 0.57477 0.8564 0.0
Tb168 Tb 0.17565 0.71612 0.48677 0.0
C169 C 0.42739 0.9175 0.56761 0.0
C170 C 0.54325 0.87656 0.51757 0.0
C171 C 0.52285 0.98186 0.55753 0.0
C172 C 0.47163 0.86947 0.53786 0.0
C173 C 0.45302 0.97445 0.57851 0.0
C174 C 0.56801 0.93302 0.52712 0.0
C175 C 0.3435 0.01231 0.63312 0.0
N176 N 0.36154 0.9084 0.58779 0.0
C177 C 0.32179 0.95488 0.62185 0.0
C178 C 0.40903 0.02211 0.61105 0.0
Tb179 Tb 0.32731 0.81315 0.56598 0.0
N180 N 0.44647 0.81594 0.53045 0.0
C181 C 0.49406 0.76771 0.50508 0.0
C182 C 0.58899 0.82691 0.48938 0.0
C183 C 0.56476 0.77231 0.48356 0.0
H184 H 0.27125 0.94751 0.63917 0.0
H185 H 0.60061 0.73366 0.46256 0.0
H186 H 0.62264 0.93946 0.51177 0.0
H187 H 0.30973 0.0489 0.65874 0.0
H188 H 0.47714 0.72489 0.49987 0.0
H189 H 0.90397 0.80091 0.59099 0.0
H190 H 0.64405 0.83045 0.47291 0.0
H191 H 0.22939 0.58075 0.41513 0.0
H192 H 0.02864 0.80735 0.55358 0.0
H193 H 0.18561 0.48015 0.39503 0.0
H194 H 0.54306 0.02509 0.56497 0.0
H195 H 0.85626 0.70501 0.58065 0.0
H196 H 0.87337 0.59569 0.54168 0.0
H197 H 0.42631 0.06648 0.62008 0.0
H198 H 0.95 0.50862 0.48826 0.0
N199 N 0.05625 0.71578 0.52313 0.0
C200 C 0.0101 0.76486 0.54846 0.0
C201 C 0.91206 0.70751 0.56426 0.0
C202 C 0.95635 0.65705 0.53614 0.0
C203 C 0.93867 0.76161 0.57005 0.0
C204 C 0.02907 0.66277 0.51596 0.0
H205 H 0.06686 0.46492 0.43397 0.0
N206 N 0.13936 0.62165 0.4664 0.0
C207 C 0.15334 0.51738 0.42098 0.0
C208 C 0.07224 0.6139 0.48647 0.0
C209 C 0.17799 0.57435 0.43246 0.0
C210 C 0.08645 0.50891 0.44298 0.0
C211 C 0.04384 0.55748 0.47542 0.0
O212 O 0.17172 0.67979 0.41637 0.0
O213 O 0.28382 0.76841 0.49788 0.0
O214 O 0.2554 0.86893 0.5472 0.0
O215 O 0.1423 0.80853 0.51177 0.0
O216 O 0.28218 0.68866 0.44203 0.0
O217 O 0.08119 0.74262 0.45825 0.0
O218 O 0.33153 0.84792 0.63627 0.0
O219 O 0.21921 0.76092 0.55481 0.0
O220 O 0.24792 0.66049 0.50557 0.0
O221 O 0.36181 0.72069 0.53971 0.0
O222 O 0.2207 0.84058 0.6106 0.0
O223 O 0.42143 0.7852 0.59365 0.0
C224 C 0.32368 0.73634 0.46271 0.0
C225 C 0.04272 0.67644 0.38385 0.0
C226 C 0.96975 0.66017 0.31606 0.0
C227 C 0.03168 0.68843 0.34801 0.0
C228 C 0.91957 0.61899 0.32012 0.0
C229 C 0.99245 0.63513 0.38741 0.0
C230 C 0.93133 0.60636 0.35547 0.0
C231 C 0.18087 0.8596 0.52966 0.0
C232 C 0.10604 0.70875 0.41732 0.0
C233 C 0.97246 0.55145 0.49598 0.0
C234 C 0.92891 0.60111 0.52646 0.0
C235 C 0.17935 0.79285 0.59 0.0
C236 C 0.4603 0.84927 0.66833 0.0
C237 C 0.47097 0.83574 0.70343 0.0
C238 C 0.53367 0.86237 0.73519 0.0
C239 C 0.58501 0.90344 0.73168 0.0
C240 C 0.51156 0.89054 0.66538 0.0
C241 C 0.57352 0.91765 0.69712 0.0
C242 C 0.32293 0.66979 0.52252 0.0
C243 C 0.39672 0.81822 0.63473 0.0
H244 H 0.07007 0.7209 0.34561 0.0
H245 H 0.8716 0.59643 0.29584 0.0
H246 H 0.0 0.62547 0.41487 0.0
H247 H 0.89258 0.57448 0.35828 0.0
H248 H 0.43176 0.80328 0.70531 0.0
H249 H 0.63369 0.92469 0.75578 0.0
H250 H 0.50416 0.90136 0.63848 0.0
H251 H 0.61317 0.94942 0.69475 0.0
Tb252 Tb 0.68476 0.21303 0.48589 0.0
C253 C 0.89913 0.43678 0.57785 0.0
C254 C 0.02082 0.41428 0.53172 0.0
C255 C 0.97744 0.51544 0.57675 0.0
C256 C 0.95282 0.39616 0.54772 0.0
C257 C 0.91051 0.49697 0.59277 0.0
C258 C 0.03281 0.47419 0.54637 0.0
C259 C 0.79218 0.51639 0.64066 0.0
N260 N 0.83659 0.41722 0.59337 0.0
C261 C 0.78463 0.4563 0.62561 0.0
C262 C 0.85498 0.53678 0.62383 0.0
Tb263 Tb 0.82698 0.31786 0.56558 0.0
N264 N 0.9398 0.33896 0.53527 0.0
C265 C 0.99546 0.29759 0.50824 0.0
C266 C 0.0755 0.37176 0.50227 0.0
C267 C 0.06302 0.31316 0.49074 0.0
H268 H 0.73558 0.44137 0.63892 0.0
H269 H 0.10563 0.27991 0.46853 0.0
H270 H 0.08469 0.48906 0.53454 0.0
H271 H 0.74959 0.54693 0.66524 0.0
H272 H 0.98756 0.25211 0.49906 0.0
H273 H 0.39299 0.24765 0.57109 0.0
H274 H 0.12818 0.38379 0.48894 0.0
H275 H 0.78539 0.09064 0.41831 0.0
H276 H 0.51764 0.2771 0.54664 0.0
H277 H 0.77334 0.98511 0.39296 0.0
H278 H 0.98686 0.56151 0.58783 0.0
H279 H 0.37035 0.14357 0.54986 0.0
H280 H 0.42042 0.03952 0.5094 0.0
H281 H 0.86049 0.5832 0.63532 0.0
H282 H 0.52488 0.96831 0.4614 0.0
N283 N 0.56891 0.19112 0.5134 0.0
C284 C 0.50996 0.23163 0.53746 0.0
C285 C 0.42631 0.15643 0.53967 0.0
C286 C 0.48553 0.11487 0.51404 0.0
C287 C 0.43867 0.21512 0.55148 0.0
C288 C 0.5568 0.13385 0.50119 0.0
H289 H 0.6577 0.94787 0.41917 0.0
N290 N 0.67906 0.11388 0.46015 0.0
C291 C 0.72805 0.01522 0.41567 0.0
C292 C 0.6142 0.09382 0.47375 0.0
C293 C 0.7345 0.07525 0.43014 0.0
C294 C 0.66267 0.99432 0.43047 0.0
C295 C 0.60368 0.03357 0.45904 0.0
O296 O 0.67851 0.1809 0.41597 0.0
O297 O 0.78536 0.27233 0.49703 0.0
O298 O 0.74795 0.36606 0.5425 0.0
O299 O 0.63499 0.30311 0.51798 0.0
O300 O 0.78993 0.19387 0.44072 0.0
O301 O 0.58306 0.23648 0.45978 0.0
O302 O 0.83723 0.34596 0.63492 0.0
O303 O 0.72417 0.26063 0.55445 0.0
O304 O 0.75979 0.16755 0.51296 0.0
O305 O 0.87493 0.22743 0.53197 0.0
O306 O 0.72366 0.33799 0.61221 0.0
O307 O 0.93015 0.29133 0.58851 0.0
C308 C 0.82654 0.2434 0.46164 0.0
C309 C 0.54707 0.17224 0.38438 0.0
C310 C 0.47329 0.15464 0.31651 0.0
C311 C 0.53435 0.18428 0.34866 0.0
C312 C 0.42579 0.11198 0.32009 0.0
C313 C 0.49982 0.12918 0.38734 0.0
C314 C 0.4396 0.09904 0.35514 0.0
C315 C 0.6698 0.35487 0.53065 0.0
C316 C 0.6086 0.20648 0.41845 0.0
C317 C 0.53391 0.01442 0.47247 0.0
C318 C 0.47464 0.05496 0.49978 0.0
C319 C 0.68351 0.2903 0.58989 0.0
C320 C 0.97006 0.34984 0.6642 0.0
C321 C 0.98292 0.33427 0.69813 0.0
C322 C 0.04612 0.36037 0.72974 0.0
C323 C 0.09569 0.40298 0.72731 0.0
C324 C 0.01949 0.39281 0.66247 0.0
C325 C 0.0819 0.41935 0.69407 0.0
C326 C 0.83881 0.17722 0.52264 0.0
C327 C 0.9066 0.31886 0.63031 0.0
H328 H 0.57051 0.21789 0.34653 0.0
H329 H 0.37833 0.0886 0.2957 0.0
H330 H 0.50897 0.11924 0.41457 0.0
H331 H 0.40304 0.06593 0.35756 0.0
H332 H 0.94504 0.30071 0.69924 0.0
H333 H 0.14462 0.42389 0.75132 0.0
H334 H 0.0103 0.40534 0.63658 0.0
H335 H 0.12012 0.45243 0.69262 0.0
C336 C 0.62909 0.56125 0.98109 0.0
C337 C 0.64294 0.61356 0.0206 0.0
C338 C 0.58047 0.51699 0.98161 0.0
C339 C 0.54719 0.52503 0.02284 0.0
C340 C 0.56376 0.57721 0.06305 0.0
C341 C 0.61048 0.62127 0.06129 0.0
C342 C 0.56268 0.46248 0.93794 0.0
C343 C 0.53169 0.58672 0.10786 0.0
C344 C 0.35992 0.43852 0.02357 0.0
C345 C 0.39601 0.39234 0.02774 0.0
C346 C 0.40842 0.48158 0.02124 0.0
C347 C 0.49492 0.47899 0.02407 0.0
C348 C 0.53156 0.43294 0.02887 0.0
C349 C 0.48171 0.38982 0.03009 0.0
C350 C 0.3671 0.5295 1.01536 0.0
C351 C 0.62341 0.42947 0.03311 0.0
H352 H 0.65335 0.55602 0.94961 0.0
H353 H 0.62175 0.66196 0.09181 0.0
H354 H 0.58312 0.42302 0.93985 0.0
H355 H 0.49554 0.45832 0.93182 0.0
H356 H 0.59347 0.46295 0.90886 0.0
H357 H 0.55358 0.62856 0.13618 0.0
H358 H 0.46366 0.58715 0.10782 0.0
H359 H 0.55129 0.55012 0.11383 0.0
H360 H 0.29375 0.44047 0.02128 0.0
H361 H 0.51019 0.35439 0.0333 0.0
H362 H 0.39142 0.52998 0.98496 0.0
H363 H 0.38087 0.57279 0.04449 0.0
H364 H 0.29941 0.52405 1.01216 0.0
H365 H 0.65429 0.42577 1.0027 0.0
H366 H 0.64206 0.39151 0.03766 0.0
H367 H 0.64602 0.47021 0.06217 0.0
C368 C 0.3998 0.63014 0.56484 0.0
C369 C 0.36684 0.62154 0.52404 0.0
C370 C 0.44769 0.58672 0.56695 0.0
C371 C 0.46495 0.53432 0.52697 0.0
C372 C 0.43124 0.52541 0.48563 0.0
C373 C 0.38143 0.56902 0.48478 0.0
C374 C 0.4801 0.5971 0.61188 0.0
C375 C 0.44965 0.47063 0.44219 0.0
C376 C 0.65364 0.44835 0.52727 0.0
C377 C 0.61816 0.40196 0.53125 0.0
C378 C 0.60448 0.49149 0.52533 0.0
C379 C 0.51803 0.48878 0.52853 0.0
C380 C 0.48214 0.44275 0.53359 0.0
C381 C 0.5326 0.39956 0.53438 0.0
C382 C 0.64499 0.53941 0.5192 0.0
C383 C 0.39044 0.4392 0.53832 0.0
H384 H 0.38792 0.67099 0.59517 0.0
H385 H 0.35672 0.5631 0.45322 0.0
H386 H 0.46118 0.56077 0.61831 0.0
H387 H 0.54812 0.59776 0.6117 0.0
H388 H 0.45782 0.63908 0.63999 0.0
H389 H 0.41895 0.47061 0.41294 0.0
H390 H 0.51684 0.46653 0.43612 0.0
H391 H 0.4295 0.43137 0.44443 0.0
H392 H 0.71975 0.45018 0.52456 0.0
H393 H 0.50484 0.36408 0.53782 0.0
H394 H 0.6304 0.58278 0.54811 0.0
H395 H 0.6207 0.53933 0.4886 0.0
H396 H 0.71277 0.53437 0.51614 0.0
H397 H 0.36764 0.48018 0.56718 0.0
H398 H 0.37255 0.40159 0.54346 0.0
H399 H 0.35909 0.43477 0.50784 0.0
C400 C 0.14746 0.0803 0.02584 0.0
C401 C 0.11203 0.12472 1.01922 0.0
C402 C 0.09858 0.03752 0.02834 0.0
C403 C 0.01247 0.03833 0.02283 0.0
C404 C 0.97666 0.08244 1.0152 0.0
C405 C 0.02679 0.1256 1.01413 0.0
C406 C 0.13903 0.99194 0.03744 0.0
C407 C 0.88549 0.08375 1.00778 0.0
C408 C 0.90213 0.89431 0.98699 0.0
C409 C 0.86576 0.90364 0.0273 0.0
C410 C 0.94813 0.93839 0.98479 0.0
C411 C 0.96002 0.99242 0.02426 0.0
C412 C 0.92269 1.00215 0.06507 0.0
C413 C 0.87488 0.95773 0.06595 0.0
C414 C 0.98453 0.9269 0.94032 0.0
C415 C 0.93545 0.05866 0.10806 0.0
H416 H 0.21331 0.0798 0.0302 0.0
H417 H -0.00075 0.15969 1.00872 0.0
H418 H 0.11146 0.99291 0.06773 0.0
H419 H 0.12832 0.9476 1.00889 0.0
H420 H 0.20627 0.99883 0.04266 0.0
H421 H 0.86766 0.12005 1.001 0.0
H422 H 0.86592 0.04166 0.97898 0.0
H423 H 0.85133 0.08881 0.03773 0.0
H424 H 0.89437 0.85236 0.95707 0.0
H425 H 0.84757 0.96438 0.09719 0.0
H426 H 0.05245 0.92785 0.94238 0.0
H427 H 0.96551 0.96181 0.93225 0.0
H428 H 0.96551 0.88382 0.91235 0.0
H429 H 0.00178 0.06473 0.11637 0.0
H430 H 0.90154 0.05952 0.1368 0.0
H431 H 0.91515 0.09643 0.10377 0.0
C432 C 0.85406 0.08553 0.52863 0.0
C433 C 0.8898 0.13012 0.5224 0.0
C434 C 0.90274 0.04213 0.53046 0.0
C435 C 0.98886 0.04275 0.5249 0.0
C436 C 0.02497 0.08702 0.51769 0.0
C437 C 0.97507 0.13055 0.51703 0.0
C438 C 0.86213 0.99613 0.53892 0.0
C439 C 0.11625 0.08822 0.51037 0.0
C440 C 0.12693 0.96171 0.56724 0.0
C441 C 0.13728 0.9081 0.52828 0.0
C442 C 0.07834 1.00605 0.56674 0.0
C443 C 0.04124 0.99665 0.52602 0.0
C444 C 0.05405 0.94305 0.48627 0.0
C445 C 0.10103 0.89905 0.48806 0.0
C446 C 0.06481 0.0622 0.60998 0.0
C447 C 0.01787 0.93204 0.44191 0.0
H448 H 0.78819 0.08526 0.53304 0.0
H449 H 0.00296 0.16466 0.51184 0.0
H450 H 0.8738 0.95194 0.51031 0.0
H451 H 0.88884 0.9969 0.5693 0.0
H452 H 0.79473 1.00273 0.54367 0.0
H453 H 0.13427 0.1247 0.50388 0.0
H454 H 0.15011 0.09291 0.54027 0.0
H455 H 0.13606 0.04625 0.48143 0.0
H456 H 0.15395 0.96805 0.59842 0.0
H457 H 0.10968 0.85741 0.45793 0.0
H458 H 0.99836 0.06809 0.61814 0.0
H459 H 0.08505 0.10027 0.60612 0.0
H460 H 0.09839 0.06268 0.63866 0.0
H461 H 0.94994 0.93335 0.44402 0.0
H462 H 0.03682 0.88899 0.4138 0.0
H463 H 0.03721 0.96704 0.43402 0.0
C464 C 0.37894 0.18926 0.27615 0.0
C465 C 0.45708 0.17009 0.28045 0.0
C466 C 0.36315 0.20684 0.24365 0.0
C467 C 0.4265 0.20338 0.21379 0.0
C468 C 0.50541 0.18325 0.21764 0.0
C469 C 0.52005 0.16764 0.25142 0.0
C470 C 0.27918 0.23045 0.24203 0.0
C471 C 0.57491 0.17917 0.18678 0.0
C472 C 0.34869 0.2006 0.10712 0.0
C473 C 0.36178 0.25856 0.11653 0.0
C474 C 0.37317 0.18126 0.13752 0.0
C475 C 0.40971 0.22126 0.17884 0.0
C476 C 0.42513 0.27948 0.1879 0.0
C477 C 0.40155 0.29723 0.15644 0.0
C478 C 0.35572 0.11881 0.1263 0.0
C479 C 0.46163 0.32407 0.23202 0.0
H480 H 0.33068 0.19197 0.29911 0.0
H481 H 0.58062 0.15303 0.25492 0.0
H482 H 0.28483 0.27473 0.24502 0.0
H483 H 0.24963 0.20189 0.2093 0.0
H484 H 0.23824 0.23337 0.26925 0.0
H485 H 0.62481 0.15004 0.18679 0.0
H486 H 0.55302 0.16286 0.15183 0.0
H487 H 0.60137 0.22331 0.19822 0.0
H488 H 0.31634 0.17085 0.07693 0.0
H489 H 0.41078 0.34233 0.16399 0.0
H490 H 0.30075 0.11751 0.14508 0.0
H491 H 0.4078 0.10022 0.13644 0.0
H492 H 0.34347 0.09084 0.08989 0.0
H493 H 0.42026 0.33031 0.25999 0.0
H494 H 0.47132 0.36721 0.2334 0.0
H495 H 0.52126 0.30825 0.23775 0.0
C496 C 0.37935 0.82863 0.2773 0.0
C497 C 0.45762 0.8453 0.27061 0.0
C498 C 0.36557 0.81176 0.31034 0.0
C499 C 0.43139 0.81274 0.33795 0.0
C500 C 0.51035 0.83038 0.33179 0.0
C501 C 0.52278 0.84589 0.29781 0.0
C502 C 0.28066 0.79244 0.31546 0.0
C503 C 0.58128 0.83327 0.36136 0.0
C504 C 0.36006 0.81763 0.44615 0.0
C505 C 0.36682 0.7587 0.43559 0.0
C506 C 0.38551 0.83667 0.4158 0.0
C507 C 0.41694 0.79543 0.37333 0.0
C508 C 0.42755 0.73631 0.36331 0.0
C509 C 0.40283 0.71879 0.39474 0.0
C510 C 0.37219 0.90016 0.42841 0.0
C511 C 0.45891 0.69058 0.31806 0.0
H512 H 0.3292 0.82756 0.25593 0.0
H513 H 0.58324 0.85914 0.29279 0.0
H514 H 0.28344 0.74837 0.31309 0.0
H515 H 0.25569 0.82312 0.34909 0.0
H516 H 0.23743 0.79079 0.28956 0.0
H517 H 0.63826 0.84958 0.35313 0.0
H518 H 0.5652 0.86234 0.39712 0.0
H519 H 0.59376 0.78923 0.35765 0.0
H520 H 0.33116 0.84867 0.47716 0.0
H521 H 0.40745 0.67304 0.38632 0.0
H522 H 0.30829 0.90597 0.41996 0.0
H523 H 0.41437 0.91514 0.41032 0.0
H524 H 0.38008 0.92865 0.46516 0.0
H525 H 0.41295 0.68387 0.2919 0.0
H526 H 0.47053 0.64785 0.31707 0.0
H527 H 0.51643 0.70539 0.3092 0.0
C528 C 0.64302 0.81432 0.9452 0.0
C529 C 0.63837 0.75497 0.93374 0.0
C530 C 0.61728 0.83393 0.91518 0.0
C531 C 0.58738 0.79301 0.8723 0.0
C532 C 0.57831 0.73354 0.86151 0.0
C533 C 0.60354 0.71535 0.89249 0.0
C534 C 0.62777 0.8978 0.92834 0.0
C535 C 0.54775 0.68829 0.816 0.0
C536 C 0.48165 0.84519 0.7976 0.0
C537 C 0.54714 0.84573 0.77092 0.0
C538 C 0.49383 0.82888 0.83118 0.0
C539 C 0.57293 0.81132 0.8374 0.0
C540 C 0.63902 0.8112 0.81015 0.0
C541 C 0.62545 0.82902 0.7776 0.0
C542 C 0.42193 0.82996 0.85966 0.0
C543 C 0.72394 0.79147 0.81493 0.0
H544 H 0.67055 0.84521 0.97663 0.0
H545 H 0.6002 0.66934 0.88342 0.0
H546 H 0.63232 0.92546 0.96537 0.0
H547 H 0.68511 0.90341 0.91318 0.0
H548 H 0.57617 0.91375 0.91575 0.0
H549 H 0.53801 0.64493 0.81421 0.0
H550 H 0.4893 0.70277 0.80773 0.0
H551 H 0.59313 0.68304 0.78991 0.0
H552 H 0.42103 0.85819 0.79252 0.0
H553 H 0.67586 0.82863 0.75657 0.0
H554 H 0.43966 0.85002 0.89558 0.0
H555 H 0.40192 0.78447 0.84916 0.0
H556 H 0.36885 0.8544 0.85625 0.0
H557 H 0.7481 0.82066 0.84903 0.0
H558 H 0.76777 0.79158 0.78986 0.0
H559 H 0.72138 0.74654 0.8109 0.0
C560 C 0.57904 0.3079 0.64805 0.0
C561 C 0.63022 0.26819 0.61371 0.0
C562 C 0.53819 0.2921 0.67712 0.0
C563 C 0.54897 0.23507 0.6718 0.0
C564 C 0.5993 0.19433 0.63643 0.0
C565 C 0.63959 0.21148 0.60792 0.0
C566 C 0.48709 0.33746 0.715 0.0
C567 C 0.61457 0.1336 0.63 0.0
C568 C 0.51605 0.20752 0.7715 0.0
C569 C 0.43621 0.18449 0.76382 0.0
C570 C 0.55278 0.22531 0.74243 0.0
C571 C 0.50955 0.21876 0.70406 0.0
C572 C 0.42867 0.1964 0.69643 0.0
C573 C 0.39276 0.18028 0.72657 0.0
C574 C 0.63828 0.2506 0.75258 0.0
C575 C 0.38054 0.18846 0.65591 0.0
H576 H 0.57309 0.3522 0.65305 0.0
H577 H 0.6811 0.18123 0.58246 0.0
H578 H 0.42437 0.32061 0.7143 0.0
H579 H 0.51485 0.34698 0.74767 0.0
H580 H 0.4823 0.37908 0.71343 0.0
H581 H 0.63924 0.10392 0.59598 0.0
H582 H 0.6603 0.13585 0.65496 0.0
H583 H 0.55765 0.11461 0.63545 0.0
H584 H 0.55088 0.21048 0.7997 0.0
H585 H 0.33031 0.16414 0.72074 0.0
H586 H 0.63977 0.29306 0.75223 0.0
H587 H 0.68135 0.22057 0.72628 0.0
H588 H 0.66072 0.25762 0.78572 0.0
H589 H 0.36843 0.23162 0.65789 0.0
H590 H 0.32101 0.16604 0.6527 0.0
H591 H 0.41715 0.16236 0.6251 0.0
C592 C 0.90142 0.80343 0.15656 0.0
C593 C 0.86787 0.7636 0.115 0.0
C594 C 0.92512 0.78547 0.18789 0.0
C595 C 0.91602 0.72599 0.17711 0.0
C596 C 0.88723 0.68488 0.134 0.0
C597 C 0.86285 0.70431 0.10367 0.0
C598 C 0.954 0.831 0.23372 0.0
C599 C 0.876 0.62102 0.12071 0.0
C600 C 0.02153 0.67566 0.25286 0.0
C601 C 0.95597 0.67525 0.27954 0.0
C602 C 0.00929 0.69121 0.21889 0.0
C603 C 0.93003 0.70792 0.21216 0.0
C604 C 0.86373 0.70781 0.23918 0.0
C605 C 0.87739 0.6909 0.27224 0.0
C606 C 0.08097 0.68983 0.1902 0.0
C607 C 0.77853 0.72634 0.2336 0.0
H608 H 0.9049 0.8494 0.16555 0.0
H609 H 0.83612 0.67327 0.07203 0.0
H610 H 0.90725 0.83639 0.25924 0.0
H611 H 0.01172 0.81678 0.24291 0.0
H612 H 0.96439 0.87427 0.23544 0.0
H613 H 0.88003 0.59313 0.08369 0.0
H614 H 0.92204 0.60573 0.13689 0.0
H615 H 0.81419 0.61475 0.13144 0.0
H616 H 0.08228 0.66326 0.25834 0.0
H617 H 0.82688 0.69126 0.2932 0.0
H618 H 0.09451 0.73477 0.19613 0.0
H619 H 0.06533 0.66318 0.1541 0.0
H620 H 0.13725 0.67172 0.19746 0.0
H621 H 0.78023 0.77097 0.23699 0.0
H622 H 0.73453 0.72639 0.25867 0.0
H623 H 0.75521 0.69626 0.19948 0.0
C624 C 0.85498 0.3259 0.4445 0.0
C625 C 0.86682 0.26762 0.43481 0.0
C626 C 0.8786 0.34501 0.41373 0.0
C627 C 0.91358 0.30467 0.37191 0.0
C628 C 0.92878 0.24639 0.36282 0.0
C629 C 0.9059 0.22881 0.39453 0.0
C630 C 0.86207 0.40766 0.42507 0.0
C631 C 0.96431 0.20152 0.31841 0.0
C632 C 0.87807 0.33602 0.27438 0.0
C633 C 0.95593 0.35412 0.26851 0.0
C634 C 0.86396 0.31909 0.30745 0.0
C635 C 0.92867 0.32222 0.33647 0.0
C636 C 0.00738 0.34114 0.33095 0.0
C637 C 0.0203 0.35601 0.29658 0.0
C638 C 0.78025 0.29631 0.31049 0.0
C639 C 0.07877 0.34448 0.36042 0.0
H640 H 0.82395 0.35606 0.47508 0.0
H641 H 0.91472 0.18357 0.38675 0.0
H642 H 0.91627 0.42638 0.41668 0.0
H643 H 0.80996 0.40935 0.40473 0.0
H644 H 0.84622 0.43529 0.4611 0.0
H645 H 0.97236 0.15799 0.3166 0.0
H646 H 0.92337 0.19647 0.29064 0.0
H647 H 0.0247 0.21643 0.31276 0.0
H648 H 0.82863 0.33363 0.25219 0.0
H649 H 0.0807 0.36973 0.29193 0.0
H650 H 0.75241 0.32491 0.34379 0.0
H651 H 0.78604 0.25184 0.30714 0.0
H652 H 0.73776 0.29405 0.2841 0.0
H653 H 0.12592 0.3759 0.36147 0.0
H654 H 0.10837 0.30082 0.3465 0.0
H655 H 0.0588 0.35742 0.39524 0.0
C656 C 0.99759 0.34258 0.79246 0.0
C657 C 0.0614 0.34216 0.76453 0.0
C658 C 0.01147 0.3256 0.82557 0.0
C659 C 0.09057 0.30633 0.83007 0.0
C660 C 0.15498 0.3052 0.80153 0.0
C661 C 0.13978 0.3237 0.76944 0.0
C662 C 0.94139 0.32803 0.85557 0.0
C663 C 0.23976 0.28375 0.8045 0.0
C664 C 0.15838 0.31037 0.93889 0.0
C665 C 0.14876 0.25181 0.92892 0.0
C666 C 0.13679 0.32911 0.90772 0.0
C667 C 0.10648 0.28806 0.86497 0.0
C668 C 0.0949 0.22908 0.85503 0.0
C669 C 0.11571 0.2118 0.88722 0.0
C670 C 0.15046 0.39234 0.91985 0.0
C671 C 0.06457 0.18355 0.80959 0.0
H672 H 0.93701 0.35703 0.78881 0.0
H673 H 0.18893 0.3227 0.74751 0.0
H674 H 0.92221 0.28285 0.84667 0.0
H675 H 0.96096 0.34967 0.89126 0.0
H676 H 0.8874 0.35181 0.85227 0.0
H677 H 0.28324 0.28622 0.78021 0.0
H678 H 0.26474 0.31004 0.83885 0.0
H679 H 0.23653 0.23763 0.79782 0.0
H680 H 0.1857 0.34138 0.97034 0.0
H681 H 0.10941 0.16623 0.87901 0.0
H682 H 0.09778 0.40945 0.9089 0.0
H683 H 0.20585 0.39575 0.90223 0.0
H684 H 0.15978 0.4204 0.95655 0.0
H685 H 0.00638 0.19814 0.80112 0.0
H686 H 0.05434 0.14038 0.80806 0.0
H687 H 0.11019 0.17785 0.78348 0.0
C688 C 0.10402 0.81011 0.65897 0.0
C689 C 0.13779 0.77026 0.61741 0.0
C690 C 0.08191 0.79239 0.69065 0.0
C691 C 0.09266 0.73311 0.68011 0.0
C692 C 0.12212 0.692 0.6371 0.0
C693 C 0.14488 0.71123 0.60648 0.0
C694 C 0.05336 0.83806 0.7366 0.0
C695 C 0.13614 0.62846 0.62415 0.0
C696 C 0.13168 0.69582 0.77394 0.0
C697 C 0.0533 0.67941 0.78072 0.0
C698 C 0.14508 0.71424 0.74174 0.0
C699 C 0.07871 0.71503 0.71507 0.0
C700 C -0.00043 0.69793 0.72148 0.0
C701 C 0.9876 0.68079 0.75456 0.0
C702 C 0.23007 0.73337 0.73657 0.0
C703 C 0.92782 0.6976 0.69325 0.0
H704 H 0.09933 0.85597 0.66772 0.0
H705 H 0.17211 0.68025 0.57493 0.0
H706 H 0.99678 0.82358 0.74655 0.0
H707 H 0.1012 0.84421 0.76175 0.0
H708 H 0.04127 0.88102 0.73807 0.0
H709 H 0.09362 0.613 0.64179 0.0
H710 H 0.12934 0.60013 0.58731 0.0
H711 H 0.19981 0.62299 0.63309 0.0
H712 H 0.18221 0.69552 0.7946 0.0
H713 H 0.927 0.66789 0.75971 0.0
H714 H 0.22766 0.77765 0.73932 0.0
H715 H 0.25466 0.70292 0.70279 0.0
H716 H 0.27346 0.73443 0.7622 0.0
H717 H 0.9154 0.74263 0.69904 0.0
H718 H 0.87105 0.68055 0.70099 0.0
H719 H 0.94286 0.67055 0.65707 0.0
loop_
_geom_bond_atom_site_label_1
_geom_bond_atom_site_label_2
_geom_bond_distance
_geom_bond_site_symmetry_2
_ccdc_geom_bond_type
Tb0 N31 2.660 . S
Tb0 N38 2.600 . S
Tb0 O44 2.546 . S
Tb0 O45 2.610 . S
Tb0 O47 2.320 . S
Tb0 O48 2.552 . S
Tb0 O49 2.413 . S
Tb0 O51 2.362 1_554 S
Tb0 O52 2.421 . S
Tb0 C64 2.833 . S
C1 C4 1.432 . S
C1 C5 1.414 . S
C1 N8 1.359 . S
C2 C4 1.417 1_554 S
C2 C6 1.432 . S
C2 C14 1.410 . S
C3 C5 1.444 . S
C3 C6 1.317 1_556 S
C3 H26 0.929 . S
C4 C1 1.432 . S
C4 C2 1.417 1_556 S
C4 N12 1.360 . S
C5 C1 1.414 . S
C5 C3 1.444 . S
C5 C10 1.385 . S
C6 C2 1.432 . S
C6 C3 1.317 1_554 S
C6 H18 0.930 . S
C7 C9 1.376 1_565 S
C7 C10 1.373 1_565 S
C7 H19 0.943 . S
N8 C1 1.359 . S
N8 C9 1.327 . S
N8 Tb11 2.600 . S
C9 C7 1.376 1_545 S
C9 N8 1.327 . S
C9 H16 0.930 . S
C10 C5 1.385 . S
C10 C7 1.373 1_545 S
C10 H29 0.930 1_545 S
Tb11 N8 2.600 . S
Tb11 N12 2.660 . S
Tb11 O45 2.362 1_556 S
Tb11 O46 2.421 . S
Tb11 O50 2.546 . S
Tb11 O51 2.610 . S
Tb11 O53 2.320 . S
Tb11 O54 2.552 . S
Tb11 O55 2.413 . S
Tb11 C75 2.833 . S
N12 C4 1.360 . S
N12 Tb11 2.660 . S
N12 C13 1.305 1_556 S
C13 N12 1.305 1_554 S
C13 C15 1.407 . S
C13 H20 0.930 . S
C14 C2 1.410 . S
C14 C15 1.345 . S
C14 H22 0.930 . S
C15 C13 1.407 . S
C15 C14 1.345 . S
C15 H17 0.930 . S
H16 C9 0.930 . S
H17 C15 0.930 . S
H18 C6 0.930 . S
H19 C7 0.943 . S
H20 C13 0.930 . S
H21 C35 0.930 . S
H22 C14 0.930 . S
H23 C41 0.930 . S
H24 C32 0.930 1_455 S
H25 C39 0.931 . S
H26 C3 0.929 . S
H27 C33 0.930 . S
H28 C66 0.930 1_556 S
H29 C10 0.930 1_565 S
H30 C65 0.929 . S
N31 Tb0 2.660 . S
N31 C32 1.305 1_454 S
N31 C36 1.360 1_455 S
C32 H24 0.930 1_655 S
C32 N31 1.305 1_656 S
C32 C35 1.407 . S
C33 H27 0.930 . S
C33 C34 1.410 . S
C33 C35 1.345 . S
C34 C33 1.410 . S
C34 C36 1.417 1_556 S
C34 C66 1.432 1_556 S
C35 H21 0.930 . S
C35 C32 1.407 . S
C35 C33 1.345 . S
C36 N31 1.360 1_655 S
C36 C34 1.417 1_554 S
C36 C40 1.432 1_655 S
H37 C42 0.930 1_655 S
N38 Tb0 2.600 . S
N38 C40 1.359 . S
N38 C41 1.327 . S
C39 H25 0.931 . S
C39 C41 1.392 . S
C39 C42 1.370 . S
C40 C36 1.432 1_455 S
C40 N38 1.359 . S
C40 C43 1.414 1_455 S
C41 H23 0.930 . S
C41 N38 1.327 . S
C41 C39 1.392 . S
C42 H37 0.930 1_455 S
C42 C39 1.370 . S
C42 C43 1.385 1_455 S
C43 C40 1.414 1_655 S
C43 C42 1.385 1_655 S
C43 C65 1.444 . S
O44 Tb0 2.546 . S
O44 C64 1.251 . S
O45 Tb0 2.610 . S
O45 Tb11 2.362 1_554 S
O45 C56 1.283 . S
O46 Tb11 2.421 . S
O46 C63 1.262 . S
O47 Tb0 2.320 . S
O47 C63 1.260 1_554 S
O48 Tb0 2.552 . S
O48 C56 1.243 . S
O49 Tb0 2.413 . S
O49 C64 1.256 . S
O50 Tb11 2.546 . S
O50 C75 1.251 . S
O51 Tb0 2.362 1_556 S
O51 Tb11 2.610 . S
O51 C67 1.283 . S
O52 Tb0 2.421 . S
O52 C74 1.262 . S
O53 Tb11 2.320 . S
O53 C74 1.260 1_556 S
O54 Tb11 2.552 . S
O54 C67 1.243 . S
O55 Tb11 2.413 . S
O55 C75 1.256 . S
C56 O45 1.283 . S
C56 O48 1.243 . S
C57 C59 1.382 . S
C57 C61 1.393 . S
C57 C64 1.500 . S
C58 C59 1.400 1_655 S
C58 C60 1.384 . S
C59 C57 1.382 . S
C59 C58 1.400 1_455 S
C59 H76 0.930 . S
C60 C58 1.384 . S
C60 C62 1.392 . S
C60 H77 0.931 . S
C61 C57 1.393 . S
C61 C62 1.401 1_455 S
C61 H78 0.930 . S
C62 C60 1.392 . S
C62 C61 1.401 1_655 S
C62 H79 0.930 . S
C63 O46 1.262 . S
C63 O47 1.260 1_556 S
C64 Tb0 2.833 . S
C64 O44 1.251 . S
C64 O49 1.256 . S
C64 C57 1.500 . S
C65 H30 0.929 . S
C65 C43 1.444 . S
C65 C66 1.317 . S
C66 H28 0.930 1_554 S
C66 C34 1.432 1_554 S
C66 C65 1.317 . S
C67 O51 1.283 . S
C67 O54 1.243 . S
C68 C69 1.382 . S
C68 C72 1.393 . S
C68 C75 1.500 . S
C69 C68 1.382 . S
C69 C70 1.400 . S
C69 H80 0.930 . S
C70 C69 1.400 . S
C70 C71 1.384 . S
C71 C70 1.384 . S
C71 C73 1.392 . S
C71 H81 0.931 . S
C72 C68 1.393 . S
C72 C73 1.401 . S
C72 H82 0.930 . S
C73 C71 1.392 . S
C73 C72 1.401 . S
C73 H83 0.930 . S
C74 O52 1.262 . S
C74 O53 1.260 1_554 S
C75 Tb11 2.833 . S
C75 O50 1.251 . S
C75 O55 1.256 . S
C75 C68 1.500 . S
H76 C59 0.930 . S
H77 C60 0.931 . S
H78 C61 0.930 . S
H79 C62 0.930 . S
H80 C69 0.930 . S
H81 C71 0.931 . S
H82 C72 0.930 . S
H83 C73 0.930 . S
Tb84 N115 2.660 . S
Tb84 N122 2.600 . S
Tb84 O128 2.546 . S
Tb84 O129 2.610 . S
Tb84 O131 2.320 . S
Tb84 O132 2.552 . S
Tb84 O133 2.413 . S
Tb84 O135 2.362 1_554 S
Tb84 O136 2.421 . S
Tb84 C148 2.833 . S
C85 C88 1.432 1_655 S
C85 C89 1.414 1_655 S
C85 N92 1.359 . S
C86 C88 1.417 1_554 S
C86 C90 1.432 . S
C86 C98 1.410 . S
C87 C89 1.444 . S
C87 C90 1.317 1_556 S
C87 H110 0.929 . S
C88 C85 1.432 1_455 S
C88 C86 1.417 1_556 S
C88 N96 1.360 1_455 S
C89 C85 1.414 1_455 S
C89 C87 1.444 . S
C89 C94 1.385 1_455 S
C90 C86 1.432 . S
C90 C87 1.317 1_554 S
C90 H102 0.930 . S
C91 C93 1.392 . S
C91 C94 1.370 . S
C91 H103 0.931 . S
N92 C85 1.359 . S
N92 C93 1.327 . S
N92 Tb95 2.600 . S
C93 C91 1.392 . S
C93 N92 1.327 . S
C93 H100 0.930 . S
C94 C89 1.385 1_655 S
C94 C91 1.370 . S
C94 H113 0.930 1_655 S
Tb95 N92 2.600 . S
Tb95 N96 2.660 . S
Tb95 O129 2.362 1_556 S
Tb95 O130 2.421 . S
Tb95 O134 2.546 . S
Tb95 O135 2.610 . S
Tb95 O137 2.320 . S
Tb95 O138 2.552 . S
Tb95 O139 2.413 . S
Tb95 C159 2.833 . S
N96 C88 1.360 1_655 S
N96 Tb95 2.660 . S
N96 C97 1.305 1_656 S
C97 N96 1.305 1_454 S
C97 C99 1.407 . S
C97 H104 0.930 1_455 S
C98 C86 1.410 . S
C98 C99 1.345 . S
C98 H106 0.930 . S
C99 C97 1.407 . S
C99 C98 1.345 . S
C99 H101 0.930 . S
H100 C93 0.930 . S
H101 C99 0.930 . S
H102 C90 0.930 . S
H103 C91 0.931 . S
H104 C97 0.930 1_655 S
H105 C119 0.930 . S
H106 C98 0.930 . S
H107 C125 0.930 . S
H108 C116 0.930 . S
H109 C123 0.943 . S
H110 C87 0.929 . S
H111 C117 0.930 . S
H112 C150 0.930 1_556 S
H113 C94 0.930 1_455 S
H114 C149 0.929 . S
N115 Tb84 2.660 . S
N115 C116 1.305 1_554 S
N115 C120 1.360 . S
C116 H108 0.930 . S
C116 N115 1.305 1_556 S
C116 C119 1.407 . S
C117 H111 0.930 . S
C117 C118 1.410 . S
C117 C119 1.345 . S
C118 C117 1.410 . S
C118 C120 1.417 1_556 S
C118 C150 1.432 1_556 S
C119 H105 0.930 . S
C119 C116 1.407 . S
C119 C117 1.345 . S
C120 N115 1.360 . S
C120 C118 1.417 1_554 S
C120 C124 1.432 . S
H121 C126 0.930 1_545 S
N122 Tb84 2.600 . S
N122 C124 1.359 . S
N122 C125 1.327 . S
C123 H109 0.943 . S
C123 C125 1.377 1_545 S
C123 C126 1.373 1_545 S
C124 C120 1.432 . S
C124 N122 1.359 . S
C124 C127 1.414 . S
C125 H107 0.930 . S
C125 N122 1.327 . S
C125 C123 1.377 1_565 S
C126 H121 0.930 1_565 S
C126 C123 1.373 1_565 S
C126 C127 1.385 . S
C127 C124 1.414 . S
C127 C126 1.385 . S
C127 C149 1.444 . S
O128 Tb84 2.546 . S
O128 C148 1.251 . S
O129 Tb84 2.610 . S
O129 Tb95 2.362 1_554 S
O129 C140 1.283 . S
O130 Tb95 2.421 . S
O130 C147 1.262 . S
O131 Tb84 2.320 . S
O131 C147 1.260 1_554 S
O132 Tb84 2.552 . S
O132 C140 1.243 . S
O133 Tb84 2.413 . S
O133 C148 1.256 . S
O134 Tb95 2.546 . S
O134 C159 1.251 . S
O135 Tb84 2.362 1_556 S
O135 Tb95 2.610 . S
O135 C151 1.283 . S
O136 Tb84 2.421 . S
O136 C158 1.262 . S
O137 Tb95 2.320 . S
O137 C158 1.260 1_556 S
O138 Tb95 2.552 . S
O138 C151 1.243 . S
O139 Tb95 2.413 . S
O139 C159 1.256 . S
C140 O129 1.283 . S
C140 O132 1.243 . S
C141 C143 1.382 . S
C141 C145 1.393 . S
C141 C148 1.500 . S
C142 C143 1.400 . S
C142 C144 1.384 . S
C143 C141 1.382 . S
C143 C142 1.400 . S
C143 H160 0.930 . S
C144 C142 1.384 . S
C144 C146 1.392 . S
C144 H161 0.931 . S
C145 C141 1.393 . S
C145 C146 1.401 . S
C145 H162 0.930 . S
C146 C144 1.392 . S
C146 C145 1.401 . S
C146 H163 0.930 . S
C147 O130 1.262 . S
C147 O131 1.260 1_556 S
C148 Tb84 2.833 . S
C148 O128 1.251 . S
C148 O133 1.256 . S
C148 C141 1.500 . S
C149 H114 0.929 . S
C149 C127 1.444 . S
C149 C150 1.317 . S
C150 H112 0.930 1_554 S
C150 C118 1.432 1_554 S
C150 C149 1.317 . S
C151 O135 1.283 . S
C151 O138 1.243 . S
C152 C153 1.382 . S
C152 C156 1.393 . S
C152 C159 1.500 . S
C153 C152 1.382 . S
C153 C154 1.400 1_655 S
C153 H164 0.930 . S
C154 C153 1.400 1_455 S
C154 C155 1.384 . S
C155 C154 1.384 . S
C155 C157 1.392 . S
C155 H165 0.931 . S
C156 C152 1.393 . S
C156 C157 1.401 1_655 S
C156 H166 0.930 . S
C157 C155 1.392 . S
C157 C156 1.401 1_455 S
C157 H167 0.930 . S
C158 O136 1.262 . S
C158 O137 1.260 1_554 S
C159 Tb95 2.833 . S
C159 O134 1.251 . S
C159 O139 1.256 . S
C159 C152 1.500 . S
H160 C143 0.930 . S
H161 C144 0.931 . S
H162 C145 0.930 . S
H163 C146 0.930 . S
H164 C153 0.930 . S
H165 C155 0.931 . S
H166 C156 0.930 . S
H167 C157 0.930 . S
Tb168 N199 2.660 . S
Tb168 N206 2.600 . S
Tb168 O212 2.546 . S
Tb168 O213 2.610 . S
Tb168 O215 2.320 . S
Tb168 O216 2.552 . S
Tb168 O217 2.413 . S
Tb168 O219 2.362 . S
Tb168 O220 2.421 . S
Tb168 C232 2.833 . S
C169 C172 1.432 . S
C169 C173 1.414 . S
C169 N176 1.359 . S
C170 C172 1.417 . S
C170 C174 1.432 . S
C170 C182 1.410 . S
C171 C173 1.444 . S
C171 C174 1.317 . S
C171 H194 0.929 . S
C172 C169 1.432 . S
C172 C170 1.417 . S
C172 N180 1.360 . S
C173 C169 1.414 . S
C173 C171 1.444 . S
C173 C178 1.385 . S
C174 C170 1.432 . S
C174 C171 1.317 . S
C174 H186 0.930 . S
C175 C177 1.376 1_545 S
C175 C178 1.373 1_545 S
C175 H187 0.943 . S
N176 C169 1.359 . S
N176 C177 1.327 . S
N176 Tb179 2.600 . S
C177 C175 1.376 1_565 S
C177 N176 1.327 . S
C177 H184 0.930 . S
C178 C173 1.385 . S
C178 C175 1.373 1_565 S
C178 H197 0.930 1_565 S
Tb179 N176 2.600 . S
Tb179 N180 2.660 . S
Tb179 O213 2.362 . S
Tb179 O214 2.421 . S
Tb179 O218 2.546 . S
Tb179 O219 2.610 . S
Tb179 O221 2.320 . S
Tb179 O222 2.552 . S
Tb179 O223 2.413 . S
Tb179 C243 2.833 . S
N180 C172 1.360 . S
N180 Tb179 2.660 . S
N180 C181 1.305 . S
C181 N180 1.305 . S
C181 C183 1.407 . S
C181 H188 0.930 . S
C182 C170 1.410 . S
C182 C183 1.345 . S
C182 H190 0.930 . S
C183 C181 1.407 . S
C183 C182 1.345 . S
C183 H185 0.930 . S
H184 C177 0.930 . S
H185 C183 0.930 . S
H186 C174 0.930 . S
H187 C175 0.943 . S
H188 C181 0.930 . S
H189 C203 0.930 . S
H190 C182 0.930 . S
H191 C209 0.930 . S
H192 C200 0.930 1_455 S
H193 C207 0.931 . S
H194 C171 0.929 . S
H195 C201 0.930 . S
H196 C234 0.930 . S
H197 C178 0.930 1_545 S
H198 C233 0.929 . S
N199 Tb168 2.660 . S
N199 C200 1.305 1_455 S
N199 C204 1.360 1_455 S
C200 H192 0.930 1_655 S
C200 N199 1.305 1_655 S
C200 C203 1.407 . S
C201 H195 0.930 . S
C201 C202 1.410 . S
C201 C203 1.345 . S
C202 C201 1.410 . S
C202 C204 1.417 . S
C202 C234 1.432 . S
C203 H189 0.930 . S
C203 C200 1.407 . S
C203 C201 1.345 . S
C204 N199 1.360 1_655 S
C204 C202 1.417 . S
C204 C208 1.432 1_655 S
H205 C210 0.930 1_655 S
N206 Tb168 2.600 . S
N206 C208 1.359 . S
N206 C209 1.327 . S
C207 H193 0.931 . S
C207 C209 1.392 . S
C207 C210 1.370 . S
C208 C204 1.432 1_455 S
C208 N206 1.359 . S
C208 C211 1.414 1_455 S
C209 H191 0.930 . S
C209 N206 1.327 . S
C209 C207 1.392 . S
C210 H205 0.930 1_455 S
C210 C207 1.370 . S
C210 C211 1.385 1_455 S
C211 C208 1.414 1_655 S
C211 C210 1.385 1_655 S
C211 C233 1.444 . S
O212 Tb168 2.546 . S
O212 C232 1.251 . S
O213 Tb168 2.610 . S
O213 Tb179 2.362 . S
O213 C224 1.283 . S
O214 Tb179 2.421 . S
O214 C231 1.262 . S
O215 Tb168 2.320 . S
O215 C231 1.260 . S
O216 Tb168 2.552 . S
O216 C224 1.243 . S
O217 Tb168 2.413 . S
O217 C232 1.256 . S
O218 Tb179 2.546 . S
O218 C243 1.251 . S
O219 Tb168 2.362 . S
O219 Tb179 2.610 . S
O219 C235 1.283 . S
O220 Tb168 2.421 . S
O220 C242 1.262 . S
O221 Tb179 2.320 . S
O221 C242 1.260 . S
O222 Tb179 2.552 . S
O222 C235 1.243 . S
O223 Tb179 2.413 . S
O223 C243 1.256 . S
C224 O213 1.283 . S
C224 O216 1.243 . S
C225 C227 1.382 . S
C225 C229 1.393 . S
C225 C232 1.500 . S
C226 C227 1.400 1_655 S
C226 C228 1.384 . S
C227 C225 1.382 . S
C227 C226 1.400 1_455 S
C227 H244 0.930 . S
C228 C226 1.384 . S
C228 C230 1.392 . S
C228 H245 0.931 . S
C229 C225 1.393 . S
C229 C230 1.401 1_455 S
C229 H246 0.930 . S
C230 C228 1.392 . S
C230 C229 1.401 1_655 S
C230 H247 0.930 . S
C231 O214 1.262 . S
C231 O215 1.260 . S
C232 Tb168 2.833 . S
C232 O212 1.251 . S
C232 O217 1.256 . S
C232 C225 1.500 . S
C233 H198 0.929 . S
C233 C211 1.444 . S
C233 C234 1.317 . S
C234 H196 0.930 . S
C234 C202 1.432 . S
C234 C233 1.317 . S
C235 O219 1.283 . S
C235 O222 1.243 . S
C236 C237 1.382 . S
C236 C240 1.393 . S
C236 C243 1.500 . S
C237 C236 1.382 . S
C237 C238 1.400 . S
C237 H248 0.930 . S
C238 C237 1.400 . S
C238 C239 1.384 . S
C239 C238 1.384 . S
C239 C241 1.392 . S
C239 H249 0.931 . S
C240 C236 1.393 . S
C240 C241 1.401 . S
C240 H250 0.930 . S
C241 C239 1.392 . S
C241 C240 1.401 . S
C241 H251 0.930 . S
C242 O220 1.262 . S
C242 O221 1.260 . S
C243 Tb179 2.833 . S
C243 O218 1.251 . S
C243 O223 1.256 . S
C243 C236 1.500 . S
H244 C227 0.930 . S
H245 C228 0.931 . S
H246 C229 0.930 . S
H247 C230 0.930 . S
H248 C237 0.930 . S
H249 C239 0.931 . S
H250 C240 0.930 . S
H251 C241 0.930 . S
Tb252 N283 2.660 . S
Tb252 N290 2.600 . S
Tb252 O296 2.546 . S
Tb252 O297 2.610 . S
Tb252 O299 2.320 . S
Tb252 O300 2.552 . S
Tb252 O301 2.413 . S
Tb252 O303 2.362 . S
Tb252 O304 2.421 . S
Tb252 C316 2.833 . S
C253 C256 1.432 1_655 S
C253 C257 1.414 1_655 S
C253 N260 1.359 . S
C254 C256 1.417 . S
C254 C258 1.432 . S
C254 C266 1.410 . S
C255 C257 1.444 . S
C255 C258 1.317 . S
C255 H278 0.929 . S
C256 C253 1.432 1_455 S
C256 C254 1.417 . S
C256 N264 1.360 1_455 S
C257 C253 1.414 1_455 S
C257 C255 1.444 . S
C257 C262 1.385 1_455 S
C258 C254 1.432 . S
C258 C255 1.317 . S
C258 H270 0.930 . S
C259 C261 1.392 . S
C259 C262 1.370 . S
C259 H271 0.931 . S
N260 C253 1.359 . S
N260 C261 1.327 . S
N260 Tb263 2.600 . S
C261 C259 1.392 . S
C261 N260 1.327 . S
C261 H268 0.930 . S
C262 C257 1.385 1_655 S
C262 C259 1.370 . S
C262 H281 0.930 1_655 S
Tb263 N260 2.600 . S
Tb263 N264 2.660 . S
Tb263 O297 2.362 . S
Tb263 O298 2.421 . S
Tb263 O302 2.546 . S
Tb263 O303 2.610 . S
Tb263 O305 2.320 . S
Tb263 O306 2.552 . S
Tb263 O307 2.413 . S
Tb263 C327 2.833 . S
N264 C256 1.360 1_655 S
N264 Tb263 2.660 . S
N264 C265 1.305 1_655 S
C265 N264 1.305 1_455 S
C265 C267 1.407 . S
C265 H272 0.930 1_455 S
C266 C254 1.410 . S
C266 C267 1.345 . S
C266 H274 0.930 . S
C267 C265 1.407 . S
C267 C266 1.345 . S
C267 H269 0.930 . S
H268 C261 0.930 . S
H269 C267 0.930 . S
H270 C258 0.930 . S
H271 C259 0.931 . S
H272 C265 0.930 1_655 S
H273 C287 0.930 . S
H274 C266 0.930 . S
H275 C293 0.930 . S
H276 C284 0.930 . S
H277 C291 0.943 . S
H278 C255 0.929 . S
H279 C285 0.930 . S
H280 C318 0.930 . S
H281 C262 0.930 1_455 S
H282 C317 0.929 . S
N283 Tb252 2.660 . S
N283 C284 1.305 . S
N283 C288 1.360 . S
C284 H276 0.930 . S
C284 N283 1.305 . S
C284 C287 1.407 . S
C285 H279 0.930 . S
C285 C286 1.410 . S
C285 C287 1.345 . S
C286 C285 1.410 . S
C286 C288 1.417 . S
C286 C318 1.432 . S
C287 H273 0.930 . S
C287 C284 1.407 . S
C287 C285 1.345 . S
C288 N283 1.360 . S
C288 C286 1.417 . S
C288 C292 1.432 . S
H289 C294 0.930 1_565 S
N290 Tb252 2.600 . S
N290 C292 1.359 . S
N290 C293 1.327 . S
C291 H277 0.943 . S
C291 C293 1.377 1_565 S
C291 C294 1.373 1_565 S
C292 C288 1.432 . S
C292 N290 1.359 . S
C292 C295 1.414 . S
C293 H275 0.930 . S
C293 N290 1.327 . S
C293 C291 1.377 1_545 S
C294 H289 0.930 1_545 S
C294 C291 1.373 1_545 S
C294 C295 1.385 . S
C295 C292 1.414 . S
C295 C294 1.385 . S
C295 C317 1.444 . S
O296 Tb252 2.546 . S
O296 C316 1.251 . S
O297 Tb252 2.610 . S
O297 Tb263 2.362 . S
O297 C308 1.283 . S
O298 Tb263 2.421 . S
O298 C315 1.262 . S
O299 Tb252 2.320 . S
O299 C315 1.260 . S
O300 Tb252 2.552 . S
O300 C308 1.243 . S
O301 Tb252 2.413 . S
O301 C316 1.256 . S
O302 Tb263 2.546 . S
O302 C327 1.251 . S
O303 Tb252 2.362 . S
O303 Tb263 2.610 . S
O303 C319 1.283 . S
O304 Tb252 2.421 . S
O304 C326 1.262 . S
O305 Tb263 2.320 . S
O305 C326 1.260 . S
O306 Tb263 2.552 . S
O306 C319 1.243 . S
O307 Tb263 2.413 . S
O307 C327 1.256 . S
C308 O297 1.283 . S
C308 O300 1.243 . S
C309 C311 1.382 . S
C309 C313 1.393 . S
C309 C316 1.500 . S
C310 C311 1.400 . S
C310 C312 1.384 . S
C311 C309 1.382 . S
C311 C310 1.400 . S
C311 H328 0.930 . S
C312 C310 1.384 . S
C312 C314 1.392 . S
C312 H329 0.931 . S
C313 C309 1.393 . S
C313 C314 1.401 . S
C313 H330 0.930 . S
C314 C312 1.392 . S
C314 C313 1.401 . S
C314 H331 0.930 . S
C315 O298 1.262 . S
C315 O299 1.260 . S
C316 Tb252 2.833 . S
C316 O296 1.251 . S
C316 O301 1.256 . S
C316 C309 1.500 . S
C317 H282 0.929 . S
C317 C295 1.444 . S
C317 C318 1.317 . S
C318 H280 0.930 . S
C318 C286 1.432 . S
C318 C317 1.317 . S
C319 O303 1.283 . S
C319 O306 1.243 . S
C320 C321 1.382 . S
C320 C324 1.393 . S
C320 C327 1.500 . S
C321 C320 1.382 . S
C321 C322 1.400 1_655 S
C321 H332 0.930 . S
C322 C321 1.400 1_455 S
C322 C323 1.384 . S
C323 C322 1.384 . S
C323 C325 1.392 . S
C323 H333 0.931 . S
C324 C320 1.393 . S
C324 C325 1.401 1_655 S
C324 H334 0.930 . S
C325 C323 1.392 . S
C325 C324 1.401 1_455 S
C325 H335 0.930 . S
C326 O304 1.262 . S
C326 O305 1.260 . S
C327 Tb263 2.833 . S
C327 O302 1.251 . S
C327 O307 1.256 . S
C327 C320 1.500 . S
H328 C311 0.930 . S
H329 C312 0.931 . S
H330 C313 0.930 . S
H331 C314 0.930 . S
H332 C321 0.930 . S
H333 C323 0.931 . S
H334 C324 0.930 . S
H335 C325 0.930 . S
C336 C337 1.393 1_556 S
C336 C338 1.394 . S
C336 H352 0.931 . S
C337 C336 1.393 1_554 S
C337 C341 1.373 . S
C338 C336 1.394 . S
C338 C339 1.392 . S
C338 C342 1.531 . S
C339 C338 1.392 . S
C339 C340 1.395 1_556 S
C339 C347 1.494 1_556 S
C340 C339 1.395 1_554 S
C340 C341 1.392 . S
C340 C343 1.511 . S
C341 C337 1.373 . S
C341 C340 1.392 . S
C341 H353 0.929 . S
C342 C338 1.531 . S
C342 H354 0.960 . S
C342 H355 0.962 . S
C342 H356 0.960 . S
C343 C340 1.511 . S
C343 H357 0.961 . S
C343 H358 0.961 . S
C343 H359 0.961 . S
C344 C345 1.370 . S
C344 C346 1.363 . S
C344 H360 0.931 . S
C345 C344 1.370 . S
C345 C349 1.408 1_554 S
C346 C344 1.363 . S
C346 C347 1.370 . S
C346 C350 1.524 . S
C347 C339 1.494 1_554 S
C347 C346 1.370 . S
C347 C348 1.403 1_554 S
C348 C347 1.403 1_556 S
C348 C349 1.404 . S
C348 C351 1.539 . S
C349 C345 1.408 1_556 S
C349 C348 1.404 . S
C349 H361 0.930 . S
C350 C346 1.524 . S
C350 H362 0.956 . S
C350 H363 0.961 . S
C350 H364 0.961 . S
C351 C348 1.539 . S
C351 H365 0.958 . S
C351 H366 0.961 . S
C351 H367 0.960 . S
H352 C336 0.931 . S
H353 C341 0.929 . S
H354 C342 0.960 . S
H355 C342 0.962 . S
H356 C342 0.960 . S
H357 C343 0.961 . S
H358 C343 0.961 . S
H359 C343 0.961 . S
H360 C344 0.931 . S
H361 C349 0.930 . S
H362 C350 0.956 . S
H363 C350 0.961 . S
H364 C350 0.961 . S
H365 C351 0.958 . S
H366 C351 0.961 . S
H367 C351 0.960 . S
C368 C369 1.391 . S
C368 C370 1.394 . S
C368 H384 0.931 . S
C369 C368 1.391 . S
C369 C373 1.376 . S
C370 C368 1.394 . S
C370 C371 1.369 . S
C370 C374 1.531 . S
C371 C370 1.369 . S
C371 C372 1.410 . S
C371 C379 1.503 . S
C372 C371 1.410 . S
C372 C373 1.392 . S
C372 C375 1.511 . S
C373 C369 1.376 . S
C373 C372 1.392 . S
C373 H385 0.929 . S
C374 C370 1.531 . S
C374 H386 0.960 . S
C374 H387 0.962 . S
C374 H388 0.960 . S
C375 C372 1.511 . S
C375 H389 0.961 . S
C375 H390 0.961 . S
C375 H391 0.961 . S
C376 C377 1.370 . S
C376 C378 1.363 . S
C376 H392 0.931 . S
C377 C376 1.370 . S
C377 C381 1.408 . S
C378 C376 1.363 . S
C378 C379 1.370 . S
C378 C382 1.524 . S
C379 C371 1.503 . S
C379 C378 1.370 . S
C379 C380 1.403 . S
C380 C379 1.403 . S
C380 C381 1.404 . S
C380 C383 1.539 . S
C381 C377 1.408 . S
C381 C380 1.404 . S
C381 H393 0.930 . S
C382 C378 1.524 . S
C382 H394 0.956 . S
C382 H395 0.961 . S
C382 H396 0.961 . S
C383 C380 1.539 . S
C383 H397 0.958 . S
C383 H398 0.961 . S
C383 H399 0.960 . S
H384 C368 0.931 . S
H385 C373 0.929 . S
H386 C374 0.960 . S
H387 C374 0.962 . S
H388 C374 0.960 . S
H389 C375 0.961 . S
H390 C375 0.961 . S
H391 C375 0.961 . S
H392 C376 0.931 . S
H393 C381 0.930 . S
H394 C382 0.956 . S
H395 C382 0.961 . S
H396 C382 0.961 . S
H397 C383 0.958 . S
H398 C383 0.961 . S
H399 C383 0.960 . S
C400 C401 1.391 . S
C400 C402 1.394 . S
C400 H416 0.931 . S
C401 C400 1.391 . S
C401 C405 1.376 1_554 S
C402 C400 1.394 . S
C402 C403 1.369 . S
C402 C406 1.531 1_545 S
C403 C402 1.369 . S
C403 C404 1.410 1_454 S
C403 C411 1.503 1_445 S
C404 C403 1.410 1_656 S
C404 C405 1.392 1_655 S
C404 C407 1.511 . S
C405 C401 1.376 1_556 S
C405 C404 1.392 1_455 S
C405 H417 0.929 . S
C406 C402 1.531 1_565 S
C406 H418 0.960 . S
C406 H419 0.962 . S
C406 H420 0.960 1_565 S
C407 C404 1.511 . S
C407 H421 0.961 . S
C407 H422 0.961 . S
C407 H423 0.961 1_556 S
C408 C409 1.370 1_556 S
C408 C410 1.363 . S
C408 H424 0.931 . S
C409 C408 1.370 1_554 S
C409 C413 1.408 . S
C410 C408 1.363 . S
C410 C411 1.370 1_556 S
C410 C414 1.524 1_655 S
C411 C403 1.503 1_665 S
C411 C410 1.370 1_554 S
C411 C412 1.403 . S
C412 C411 1.403 . S
C412 C413 1.404 . S
C412 C415 1.539 1_565 S
C413 C409 1.408 . S
C413 C412 1.404 . S
C413 H425 0.930 . S
C414 C410 1.524 1_455 S
C414 H426 0.956 . S
C414 H427 0.961 . S
C414 H428 0.961 . S
C415 C412 1.539 1_545 S
C415 H429 0.958 . S
C415 H430 0.961 . S
C415 H431 0.960 . S
H416 C400 0.931 . S
H417 C405 0.929 . S
H418 C406 0.960 . S
H419 C406 0.962 . S
H420 C406 0.960 1_545 S
H421 C407 0.961 . S
H422 C407 0.961 . S
H423 C407 0.961 1_554 S
H424 C408 0.931 . S
H425 C413 0.930 . S
H426 C414 0.956 . S
H427 C414 0.961 . S
H428 C414 0.961 . S
H429 C415 0.958 . S
H430 C415 0.961 . S
H431 C415 0.960 . S
C432 C433 1.391 . S
C432 C434 1.394 . S
C432 H448 0.931 . S
C433 C432 1.391 . S
C433 C437 1.376 . S
C434 C432 1.394 . S
C434 C435 1.369 . S
C434 C438 1.531 1_545 S
C435 C434 1.369 . S
C435 C436 1.410 1_655 S
C435 C443 1.503 1_645 S
C436 C435 1.410 1_455 S
C436 C437 1.392 1_455 S
C436 C439 1.511 . S
C437 C433 1.376 . S
C437 C436 1.392 1_655 S
C437 H449 0.929 . S
C438 C434 1.531 1_565 S
C438 H450 0.960 . S
C438 H451 0.962 . S
C438 H452 0.960 . S
C439 C436 1.511 . S
C439 H453 0.961 . S
C439 H454 0.961 . S
C439 H455 0.961 . S
C440 C441 1.370 . S
C440 C442 1.363 . S
C440 H456 0.931 . S
C441 C440 1.370 . S
C441 C445 1.408 . S
C442 C440 1.363 . S
C442 C443 1.370 . S
C442 C446 1.524 1_565 S
C443 C435 1.503 1_465 S
C443 C442 1.370 . S
C443 C444 1.403 . S
C444 C443 1.403 . S
C444 C445 1.404 . S
C444 C447 1.539 . S
C445 C441 1.408 . S
C445 C444 1.404 . S
C445 H457 0.930 . S
C446 C442 1.524 1_545 S
C446 H458 0.956 1_455 S
C446 H459 0.961 . S
C446 H460 0.961 . S
C447 C444 1.539 . S
C447 H461 0.958 . S
C447 H462 0.961 . S
C447 H463 0.960 . S
H448 C432 0.931 . S
H449 C437 0.929 . S
H450 C438 0.960 . S
H451 C438 0.962 . S
H452 C438 0.960 . S
H453 C439 0.961 . S
H454 C439 0.961 . S
H455 C439 0.961 . S
H456 C440 0.931 . S
H457 C445 0.930 . S
H458 C446 0.956 1_655 S
H459 C446 0.961 . S
H460 C446 0.961 . S
H461 C447 0.958 . S
H462 C447 0.961 . S
H463 C447 0.960 . S
C464 C465 1.391 . S
C464 C466 1.394 . S
C464 H480 0.931 . S
C465 C464 1.391 . S
C465 C469 1.376 . S
C466 C464 1.394 . S
C466 C467 1.369 . S
C466 C470 1.531 . S
C467 C466 1.369 . S
C467 C468 1.410 . S
C467 C475 1.503 . S
C468 C467 1.410 . S
C468 C469 1.392 . S
C468 C471 1.511 . S
C469 C465 1.376 . S
C469 C468 1.392 . S
C469 H481 0.929 . S
C470 C466 1.531 . S
C470 H482 0.960 . S
C470 H483 0.962 . S
C470 H484 0.960 . S
C471 C468 1.511 . S
C471 H485 0.961 . S
C471 H486 0.961 . S
C471 H487 0.961 . S
C472 C473 1.370 . S
C472 C474 1.363 . S
C472 H488 0.931 . S
C473 C472 1.370 . S
C473 C477 1.408 . S
C474 C472 1.363 . S
C474 C475 1.370 . S
C474 C478 1.524 . S
C475 C467 1.503 . S
C475 C474 1.370 . S
C475 C476 1.403 . S
C476 C475 1.403 . S
C476 C477 1.404 . S
C476 C479 1.539 . S
C477 C473 1.408 . S
C477 C476 1.404 . S
C477 H489 0.930 . S
C478 C474 1.524 . S
C478 H490 0.956 . S
C478 H491 0.961 . S
C478 H492 0.961 . S
C479 C476 1.539 . S
C479 H493 0.958 . S
C479 H494 0.961 . S
C479 H495 0.960 . S
H480 C464 0.931 . S
H481 C469 0.929 . S
H482 C470 0.960 . S
H483 C470 0.962 . S
H484 C470 0.960 . S
H485 C471 0.961 . S
H486 C471 0.961 . S
H487 C471 0.961 . S
H488 C472 0.931 . S
H489 C477 0.930 . S
H490 C478 0.956 . S
H491 C478 0.961 . S
H492 C478 0.961 . S
H493 C479 0.958 . S
H494 C479 0.961 . S
H495 C479 0.960 . S
C496 C497 1.391 . S
C496 C498 1.394 . S
C496 H512 0.931 . S
C497 C496 1.391 . S
C497 C501 1.376 . S
C498 C496 1.394 . S
C498 C499 1.369 . S
C498 C502 1.531 . S
C499 C498 1.369 . S
C499 C500 1.410 . S
C499 C507 1.503 . S
C500 C499 1.410 . S
C500 C501 1.392 . S
C500 C503 1.511 . S
C501 C497 1.376 . S
C501 C500 1.392 . S
C501 H513 0.929 . S
C502 C498 1.531 . S
C502 H514 0.960 . S
C502 H515 0.962 . S
C502 H516 0.960 . S
C503 C500 1.511 . S
C503 H517 0.961 . S
C503 H518 0.961 . S
C503 H519 0.961 . S
C504 C505 1.370 . S
C504 C506 1.363 . S
C504 H520 0.931 . S
C505 C504 1.370 . S
C505 C509 1.408 . S
C506 C504 1.363 . S
C506 C507 1.370 . S
C506 C510 1.524 . S
C507 C499 1.503 . S
C507 C506 1.370 . S
C507 C508 1.403 . S
C508 C507 1.403 . S
C508 C509 1.404 . S
C508 C511 1.539 . S
C509 C505 1.408 . S
C509 C508 1.404 . S
C509 H521 0.930 . S
C510 C506 1.524 . S
C510 H522 0.956 . S
C510 H523 0.961 . S
C510 H524 0.961 . S
C511 C508 1.539 . S
C511 H525 0.958 . S
C511 H526 0.961 . S
C511 H527 0.960 . S
H512 C496 0.931 . S
H513 C501 0.929 . S
H514 C502 0.960 . S
H515 C502 0.962 . S
H516 C502 0.960 . S
H517 C503 0.961 . S
H518 C503 0.961 . S
H519 C503 0.961 . S
H520 C504 0.931 . S
H521 C509 0.930 . S
H522 C510 0.956 . S
H523 C510 0.961 . S
H524 C510 0.961 . S
H525 C511 0.958 . S
H526 C511 0.961 . S
H527 C511 0.960 . S
C528 C529 1.391 . S
C528 C530 1.394 . S
C528 H544 0.931 . S
C529 C528 1.391 . S
C529 C533 1.376 . S
C530 C528 1.394 . S
C530 C531 1.369 . S
C530 C534 1.531 . S
C531 C530 1.369 . S
C531 C532 1.410 . S
C531 C539 1.503 . S
C532 C531 1.410 . S
C532 C533 1.392 . S
C532 C535 1.511 . S
C533 C529 1.376 . S
C533 C532 1.392 . S
C533 H545 0.929 . S
C534 C530 1.531 . S
C534 H546 0.960 . S
C534 H547 0.962 . S
C534 H548 0.960 . S
C535 C532 1.511 . S
C535 H549 0.961 . S
C535 H550 0.961 . S
C535 H551 0.961 . S
C536 C537 1.370 . S
C536 C538 1.363 . S
C536 H552 0.931 . S
C537 C536 1.370 . S
C537 C541 1.408 . S
C538 C536 1.363 . S
C538 C539 1.370 . S
C538 C542 1.524 . S
C539 C531 1.503 . S
C539 C538 1.370 . S
C539 C540 1.403 . S
C540 C539 1.403 . S
C540 C541 1.404 . S
C540 C543 1.539 . S
C541 C537 1.408 . S
C541 C540 1.404 . S
C541 H553 0.930 . S
C542 C538 1.524 . S
C542 H554 0.956 . S
C542 H555 0.961 . S
C542 H556 0.961 . S
C543 C540 1.539 . S
C543 H557 0.958 . S
C543 H558 0.961 . S
C543 H559 0.960 . S
H544 C528 0.931 . S
H545 C533 0.929 . S
H546 C534 0.960 . S
H547 C534 0.962 . S
H548 C534 0.960 . S
H549 C535 0.961 . S
H550 C535 0.961 . S
H551 C535 0.961 . S
H552 C536 0.931 . S
H553 C541 0.930 . S
H554 C542 0.956 . S
H555 C542 0.961 . S
H556 C542 0.961 . S
H557 C543 0.958 . S
H558 C543 0.961 . S
H559 C543 0.960 . S
C560 C561 1.391 . S
C560 C562 1.394 . S
C560 H576 0.931 . S
C561 C560 1.391 . S
C561 C565 1.376 . S
C562 C560 1.394 . S
C562 C563 1.369 . S
C562 C566 1.531 . S
C563 C562 1.369 . S
C563 C564 1.410 . S
C563 C571 1.503 . S
C564 C563 1.410 . S
C564 C565 1.392 . S
C564 C567 1.511 . S
C565 C561 1.376 . S
C565 C564 1.392 . S
C565 H577 0.929 . S
C566 C562 1.531 . S
C566 H578 0.960 . S
C566 H579 0.962 . S
C566 H580 0.960 . S
C567 C564 1.511 . S
C567 H581 0.961 . S
C567 H582 0.961 . S
C567 H583 0.961 . S
C568 C569 1.370 . S
C568 C570 1.363 . S
C568 H584 0.931 . S
C569 C568 1.370 . S
C569 C573 1.408 . S
C570 C568 1.363 . S
C570 C571 1.370 . S
C570 C574 1.524 . S
C571 C563 1.503 . S
C571 C570 1.370 . S
C571 C572 1.403 . S
C572 C571 1.403 . S
C572 C573 1.404 . S
C572 C575 1.539 . S
C573 C569 1.408 . S
C573 C572 1.404 . S
C573 H585 0.930 . S
C574 C570 1.524 . S
C574 H586 0.956 . S
C574 H587 0.961 . S
C574 H588 0.961 . S
C575 C572 1.539 . S
C575 H589 0.958 . S
C575 H590 0.961 . S
C575 H591 0.960 . S
H576 C560 0.931 . S
H577 C565 0.929 . S
H578 C566 0.960 . S
H579 C566 0.962 . S
H580 C566 0.960 . S
H581 C567 0.961 . S
H582 C567 0.961 . S
H583 C567 0.961 . S
H584 C568 0.931 . S
H585 C573 0.930 . S
H586 C574 0.956 . S
H587 C574 0.961 . S
H588 C574 0.961 . S
H589 C575 0.958 . S
H590 C575 0.961 . S
H591 C575 0.960 . S
C592 C593 1.391 . S
C592 C594 1.394 . S
C592 H608 0.931 . S
C593 C592 1.391 . S
C593 C597 1.376 . S
C594 C592 1.394 . S
C594 C595 1.369 . S
C594 C598 1.531 1_655 S
C595 C594 1.369 . S
C595 C596 1.410 . S
C595 C603 1.503 . S
C596 C595 1.410 . S
C596 C597 1.392 . S
C596 C599 1.511 . S
C597 C593 1.376 . S
C597 C596 1.392 . S
C597 H609 0.929 . S
C598 C594 1.531 1_455 S
C598 H610 0.960 . S
C598 H611 0.962 . S
C598 H612 0.960 . S
C599 C596 1.511 . S
C599 H613 0.961 . S
C599 H614 0.961 . S
C599 H615 0.961 . S
C600 C601 1.370 . S
C600 C602 1.363 . S
C600 H616 0.931 1_655 S
C601 C600 1.370 . S
C601 C605 1.408 . S
C602 C600 1.363 . S
C602 C603 1.370 . S
C602 C606 1.524 . S
C603 C595 1.503 . S
C603 C602 1.370 . S
C603 C604 1.403 . S
C604 C603 1.403 . S
C604 C605 1.404 . S
C604 C607 1.539 . S
C605 C601 1.408 . S
C605 C604 1.404 . S
C605 H617 0.930 . S
C606 C602 1.524 . S
C606 H618 0.956 1_655 S
C606 H619 0.961 . S
C606 H620 0.961 1_655 S
C607 C604 1.539 . S
C607 H621 0.958 . S
C607 H622 0.961 . S
C607 H623 0.960 . S
H608 C592 0.931 . S
H609 C597 0.929 . S
H610 C598 0.960 . S
H611 C598 0.962 . S
H612 C598 0.960 . S
H613 C599 0.961 . S
H614 C599 0.961 . S
H615 C599 0.961 . S
H616 C600 0.931 1_455 S
H617 C605 0.930 . S
H618 C606 0.956 1_455 S
H619 C606 0.961 . S
H620 C606 0.961 1_455 S
H621 C607 0.958 . S
H622 C607 0.961 . S
H623 C607 0.960 . S
C624 C625 1.391 . S
C624 C626 1.394 . S
C624 H640 0.931 . S
C625 C624 1.391 . S
C625 C629 1.376 . S
C626 C624 1.394 . S
C626 C627 1.369 . S
C626 C630 1.531 . S
C627 C626 1.369 . S
C627 C628 1.410 . S
C627 C635 1.503 . S
C628 C627 1.410 . S
C628 C629 1.392 . S
C628 C631 1.511 1_655 S
C629 C625 1.376 . S
C629 C628 1.392 . S
C629 H641 0.929 . S
C630 C626 1.531 . S
C630 H642 0.960 . S
C630 H643 0.962 . S
C630 H644 0.960 . S
C631 C628 1.511 1_455 S
C631 H645 0.961 . S
C631 H646 0.961 . S
C631 H647 0.961 . S
C632 C633 1.370 . S
C632 C634 1.363 . S
C632 H648 0.931 . S
C633 C632 1.370 . S
C633 C637 1.408 1_655 S
C634 C632 1.363 . S
C634 C635 1.370 . S
C634 C638 1.524 . S
C635 C627 1.503 . S
C635 C634 1.370 . S
C635 C636 1.403 . S
C636 C635 1.403 . S
C636 C637 1.404 1_655 S
C636 C639 1.539 1_655 S
C637 C633 1.408 1_455 S
C637 C636 1.404 1_455 S
C637 H649 0.930 . S
C638 C634 1.524 . S
C638 H650 0.956 . S
C638 H651 0.961 . S
C638 H652 0.961 . S
C639 C636 1.539 1_455 S
C639 H653 0.958 1_455 S
C639 H654 0.961 . S
C639 H655 0.960 . S
H640 C624 0.931 . S
H641 C629 0.929 . S
H642 C630 0.960 . S
H643 C630 0.962 . S
H644 C630 0.960 . S
H645 C631 0.961 . S
H646 C631 0.961 . S
H647 C631 0.961 . S
H648 C632 0.931 . S
H649 C637 0.930 . S
H650 C638 0.956 . S
H651 C638 0.961 . S
H652 C638 0.961 . S
H653 C639 0.958 1_655 S
H654 C639 0.961 . S
H655 C639 0.960 . S
C656 C657 1.391 1_655 S
C656 C658 1.394 . S
C656 H672 0.931 . S
C657 C656 1.391 1_455 S
C657 C661 1.376 . S
C658 C656 1.394 . S
C658 C659 1.369 1_655 S
C658 C662 1.531 . S
C659 C658 1.369 1_455 S
C659 C660 1.410 . S
C659 C667 1.503 . S
C660 C659 1.410 . S
C660 C661 1.392 . S
C660 C663 1.511 . S
C661 C657 1.376 . S
C661 C660 1.392 . S
C661 H673 0.929 . S
C662 C658 1.531 . S
C662 H674 0.960 . S
C662 H675 0.962 . S
C662 H676 0.960 . S
C663 C660 1.511 . S
C663 H677 0.961 . S
C663 H678 0.961 . S
C663 H679 0.961 . S
C664 C665 1.370 . S
C664 C666 1.363 . S
C664 H680 0.931 . S
C665 C664 1.370 . S
C665 C669 1.408 . S
C666 C664 1.363 . S
C666 C667 1.370 . S
C666 C670 1.524 . S
C667 C659 1.503 . S
C667 C666 1.370 . S
C667 C668 1.403 . S
C668 C667 1.403 . S
C668 C669 1.404 . S
C668 C671 1.539 . S
C669 C665 1.408 . S
C669 C668 1.404 . S
C669 H681 0.930 . S
C670 C666 1.524 . S
C670 H682 0.956 . S
C670 H683 0.961 . S
C670 H684 0.961 . S
C671 C668 1.539 . S
C671 H685 0.958 . S
C671 H686 0.961 . S
C671 H687 0.960 . S
H672 C656 0.931 . S
H673 C661 0.929 . S
H674 C662 0.960 . S
H675 C662 0.962 . S
H676 C662 0.960 . S
H677 C663 0.961 . S
H678 C663 0.961 . S
H679 C663 0.961 . S
H680 C664 0.931 . S
H681 C669 0.930 . S
H682 C670 0.956 . S
H683 C670 0.961 . S
H684 C670 0.961 . S
H685 C671 0.958 . S
H686 C671 0.961 . S
H687 C671 0.960 . S
C688 C689 1.391 . S
C688 C690 1.394 . S
C688 H704 0.931 . S
C689 C688 1.391 . S
C689 C693 1.376 . S
C690 C688 1.394 . S
C690 C691 1.369 . S
C690 C694 1.531 . S
C691 C690 1.369 . S
C691 C692 1.410 . S
C691 C699 1.503 . S
C692 C691 1.410 . S
C692 C693 1.392 . S
C692 C695 1.511 1_455 S
C693 C689 1.376 . S
C693 C692 1.392 . S
C693 H705 0.929 . S
C694 C690 1.531 . S
C694 H706 0.960 . S
C694 H707 0.962 . S
C694 H708 0.960 . S
C695 C692 1.511 1_655 S
C695 H709 0.961 . S
C695 H710 0.961 . S
C695 H711 0.961 . S
C696 C697 1.370 . S
C696 C698 1.363 . S
C696 H712 0.931 . S
C697 C696 1.370 . S
C697 C701 1.408 1_455 S
C698 C696 1.363 . S
C698 C699 1.370 . S
C698 C702 1.524 . S
C699 C691 1.503 . S
C699 C698 1.370 . S
C699 C700 1.403 . S
C700 C699 1.403 . S
C700 C701 1.404 1_455 S
C700 C703 1.539 1_455 S
C701 C697 1.408 1_655 S
C701 C700 1.404 1_655 S
C701 H713 0.930 . S
C702 C698 1.524 . S
C702 H714 0.956 . S
C702 H715 0.961 . S
C702 H716 0.961 . S
C703 C700 1.539 1_655 S
C703 H717 0.958 1_655 S
C703 H718 0.961 . S
C703 H719 0.960 . S
H704 C688 0.931 . S
H705 C693 0.929 . S
H706 C694 0.960 . S
H707 C694 0.962 . S
H708 C694 0.960 . S
H709 C695 0.961 . S
H710 C695 0.961 . S
H711 C695 0.961 . S
H712 C696 0.931 . S
H713 C701 0.930 . S
H714 C702 0.956 . S
H715 C702 0.961 . S
H716 C702 0.961 . S
H717 C703 0.958 1_455 S
H718 C703 0.961 . S
H719 C703 0.960 . S
C337 C147 1.519 1_554 S
C345 C74 1.494 . S
C369 C242 1.517 . S
C377 C315 1.497 . S
C401 C63 1.505 1_554 S
C409 C158 1.503 . S
C433 C326 1.481 . S
C441 C231 1.512 . S
C465 C310 1.256 . S
C473 C56 1.197 . S
C497 C142 1.239 . S
C505 C224 1.212 . S
C529 C151 1.204 . S
C537 C238 1.199 . S
C561 C319 1.196 . S
C569 C70 1.229 . S
C593 C140 1.153 . S
C601 C226 1.228 . S
C625 C308 1.247 . S
C633 C58 1.203 . S
C657 C322 1.254 . S
C665 C67 1.184 . S
C689 C235 1.191 . S
C697 C154 1.230 . S
