# Generated by pormake.
# Topology wfa, (4)-cn, num edge types: 1
# Building blocks:
#     Node 0, Type 0, BuildingBlock: QUQFOY_clean_sbu_1, # of connection points: 4
#     Node 1, Type 0, BuildingBlock: QUQFOY_clean_sbu_1, # of connection points: 4
#     Node 2, Type 0, BuildingBlock: QUQFOY_clean_sbu_1, # of connection points: 4
#     Node 3, Type 0, BuildingBlock: QUQFOY_clean_sbu_1, # of connection points: 4
#     Node 4, Type 0, BuildingBlock: QUQFOY_clean_sbu_1, # of connection points: 4
#     Node 5, Type 0, BuildingBlock: QUQFOY_clean_sbu_1, # of connection points: 4
#     Node 6, Type 0, BuildingBlock: QUQFOY_clean_sbu_1, # of connection points: 4
#     Node 7, Type 0, BuildingBlock: QUQFOY_clean_sbu_1, # of connection points: 4
#     Node 8, Type 0, BuildingBlock: QUQFOY_clean_sbu_1, # of connection points: 4
#     Node 9, Type 0, BuildingBlock: QUQFOY_clean_sbu_1, # of connection points: 4
#     Node 10, Type 0, BuildingBlock: QUQFOY_clean_sbu_1, # of connection points: 4
#     Node 11, Type 0, BuildingBlock: QUQFOY_clean_sbu_1, # of connection points: 4
#     Node 12, Type 0, BuildingBlock: QUQFOY_clean_sbu_1, # of connection points: 4
#     Node 13, Type 0, BuildingBlock: QUQFOY_clean_sbu_1, # of connection points: 4
#     Node 14, Type 0, BuildingBlock: QUQFOY_clean_sbu_1, # of connection points: 4
#     Node 15, Type 0, BuildingBlock: QUQFOY_clean_sbu_1, # of connection points: 4
#     Edge 16, Type (0, 0), BuildingBlock: TEMPAE_clean_linker_10, # of connection points: 2
#     Edge 17, Type (0, 0), BuildingBlock: TEMPAE_clean_linker_10, # of connection points: 2
#     Edge 18, Type (0, 0), BuildingBlock: TEMPAE_clean_linker_10, # of connection points: 2
#     Edge 19, Type (0, 0), BuildingBlock: TEMPAE_clean_linker_10, # of connection points: 2
#     Edge 20, Type (0, 0), BuildingBlock: TEMPAE_clean_linker_10, # of connection points: 2
#     Edge 21, Type (0, 0), BuildingBlock: TEMPAE_clean_linker_10, # of connection points: 2
#     Edge 22, Type (0, 0), BuildingBlock: TEMPAE_clean_linker_10, # of connection points: 2
#     Edge 23, Type (0, 0), BuildingBlock: TEMPAE_clean_linker_10, # of connection points: 2
#     Edge 24, Type (0, 0), BuildingBlock: TEMPAE_clean_linker_10, # of connection points: 2
#     Edge 25, Type (0, 0), BuildingBlock: TEMPAE_clean_linker_10, # of connection points: 2
#     Edge 26, Type (0, 0), BuildingBlock: TEMPAE_clean_linker_10, # of connection points: 2
#     Edge 27, Type (0, 0), BuildingBlock: TEMPAE_clean_linker_10, # of connection points: 2
#     Edge 28, Type (0, 0), BuildingBlock: TEMPAE_clean_linker_10, # of connection points: 2
#     Edge 29, Type (0, 0), BuildingBlock: TEMPAE_clean_linker_10, # of connection points: 2
#     Edge 30, Type (0, 0), BuildingBlock: TEMPAE_clean_linker_10, # of connection points: 2
#     Edge 31, Type (0, 0), BuildingBlock: TEMPAE_clean_linker_10, # of connection points: 2
#     Edge 32, Type (0, 0), BuildingBlock: TEMPAE_clean_linker_10, # of connection points: 2
#     Edge 33, Type (0, 0), BuildingBlock: TEMPAE_clean_linker_10, # of connection points: 2
#     Edge 34, Type (0, 0), BuildingBlock: TEMPAE_clean_linker_10, # of connection points: 2
#     Edge 35, Type (0, 0), BuildingBlock: TEMPAE_clean_linker_10, # of connection points: 2
#     Edge 36, Type (0, 0), BuildingBlock: TEMPAE_clean_linker_10, # of connection points: 2
#     Edge 37, Type (0, 0), BuildingBlock: TEMPAE_clean_linker_10, # of connection points: 2
#     Edge 38, Type (0, 0), BuildingBlock: TEMPAE_clean_linker_10, # of connection points: 2
#     Edge 39, Type (0, 0), BuildingBlock: TEMPAE_clean_linker_10, # of connection points: 2
#     Edge 40, Type (0, 0), BuildingBlock: TEMPAE_clean_linker_10, # of connection points: 2
#     Edge 41, Type (0, 0), BuildingBlock: TEMPAE_clean_linker_10, # of connection points: 2
#     Edge 42, Type (0, 0), BuildingBlock: TEMPAE_clean_linker_10, # of connection points: 2
#     Edge 43, Type (0, 0), BuildingBlock: TEMPAE_clean_linker_10, # of connection points: 2
#     Edge 44, Type (0, 0), BuildingBlock: TEMPAE_clean_linker_10, # of connection points: 2
#     Edge 45, Type (0, 0), BuildingBlock: TEMPAE_clean_linker_10, # of connection points: 2
#     Edge 46, Type (0, 0), BuildingBlock: TEMPAE_clean_linker_10, # of connection points: 2
#     Edge 47, Type (0, 0), BuildingBlock: TEMPAE_clean_linker_10, # of connection points: 2
# Relax obj value: 0.082
# Max RMSD: 0.147
# Mean RMSD: 0.147
data_MOF--net-wfa--node1-QUQFOY_clean_sbu_1--edge1-TEMPAE_clean_linker_10
_symmetry_space_group_name_H-M    P1
_symmetry_Int_Tables_number       1
_symmetry_cell_setting            triclinic
loop_
_symmetry_equiv_pos_as_xyz
'x, y, z'
_cell_length_a     51.397465
_cell_length_b     51.328892
_cell_length_c     24.455888
_cell_angle_alpha  90.036838
_cell_angle_beta   90.035629
_cell_angle_gamma 89.9652
loop_
_atom_site_label
_atom_site_type_symbol
_atom_site_fract_x
_atom_site_fract_y
_atom_site_fract_z
_atom_type_partial_charge
O0 O 0.69984 0.02992 0.09268 0.0
Cd1 Cd 0.68436 0.05116 0.03029 0.0
Cd2 Cd 0.63904 0.03642 0.089 0.0
O3 O 0.66532 0.01522 0.13687 0.0
O4 O 0.71508 0.05627 0.98155 0.0
O5 O 0.68061 0.03352 0.95658 0.0
C6 C 0.70378 0.04177 0.94582 0.0
C7 C 0.59602 0.02365 0.0684 0.0
C8 C 0.68998 0.01698 0.13173 0.0
C9 C 0.65665 0.0936 0.08744 0.0
O10 O 0.64138 0.0757 0.10326 0.0
O11 O 0.67514 0.08867 0.05454 0.0
O12 O 0.60297 0.02978 0.11733 0.0
O13 O 0.61394 0.02271 0.03143 0.0
O14 O 0.49491 0.70209 0.08741 0.0
Cd15 Cd 0.47456 0.68598 0.0244 0.0
Cd16 Cd 0.4893 0.64119 0.08396 0.0
O17 O 0.50977 0.66783 0.1324 0.0
O18 O 0.46965 0.71631 0.97451 0.0
O19 O 0.49293 0.68181 0.95169 0.0
C20 C 0.48457 0.70484 0.93979 0.0
C21 C 0.50267 0.59828 0.06386 0.0
C22 C 0.50767 0.69248 0.12703 0.0
C23 C 0.43199 0.65801 0.0798 0.0
O24 O 0.44994 0.64304 0.09671 0.0
O25 O 0.43696 0.67648 0.04687 0.0
O26 O 0.49617 0.60519 0.1126 0.0
O27 O 0.50368 0.61621 0.0269 0.0
O28 O 0.83249 0.51516 0.10607 0.0
Cd29 Cd 0.8359 0.49049 0.04103 0.0
Cd30 Cd 0.88834 0.48691 0.07747 0.0
O31 O 0.86868 0.50158 0.14568 0.0
O32 O 0.80079 0.4916 0.00574 0.0
O33 O 0.83651 0.50476 0.96385 0.0
C34 C 0.81162 0.50147 0.96316 0.0
C35 C 0.93246 0.49747 0.06045 0.0
C36 C 0.84658 0.51284 0.14846 0.0
C37 C 0.85833 0.43835 0.0728 0.0
O38 O 0.88052 0.44825 0.06349 0.0
O39 O 0.83803 0.45222 0.06737 0.0
O40 O 0.92557 0.48368 0.10186 0.0
O41 O 0.91418 0.50665 0.02978 0.0
O42 O 0.03149 0.82505 0.0994 0.0
Cd43 Cd 0.05175 0.83957 0.03472 0.0
Cd44 Cd 0.03591 0.88589 0.09132 0.0
O45 O 0.01496 0.85978 0.14015 0.0
O46 O 0.05745 0.80779 0.98899 0.0
O47 O 0.03296 0.84076 0.962 0.0
C48 C 0.04191 0.81762 0.95328 0.0
C49 C 0.02276 0.92875 0.06956 0.0
C50 C 0.01782 0.8351 0.13713 0.0
C51 C 0.09358 0.86937 0.08851 0.0
O52 O 0.07526 0.88405 0.10484 0.0
O53 O 0.0891 0.85056 0.05606 0.0
O54 O 0.0291 0.9222 0.11861 0.0
O55 O 0.0218 0.91051 0.03319 0.0
O56 O 0.20006 0.99605 0.40148 0.0
Cd57 Cd 0.18441 0.97495 0.46381 0.0
Cd58 Cd 0.13926 0.98978 0.40503 0.0
O59 O 0.16561 1.01075 0.35695 0.0
O60 O 0.21499 0.9698 0.51298 0.0
O61 O 0.18047 0.99261 0.53744 0.0
C62 C 0.2036 0.98432 0.54855 0.0
C63 C 0.09634 1.00275 0.426 0.0
C64 C 0.19026 1.00891 0.36221 0.0
C65 C 0.15665 0.93255 0.40677 0.0
O66 O 0.1414 0.95048 0.3909 0.0
O67 O 0.17518 0.93744 0.43961 0.0
O68 O 0.10315 0.99659 0.377 0.0
O69 O 0.11436 1.00363 0.4628 0.0
O70 O 0.53365 0.20157 0.40131 0.0
Cd71 Cd 0.55405 0.18516 0.46391 0.0
Cd72 Cd 0.53808 0.14062 0.40466 0.0
O73 O 0.51748 0.16759 0.35734 0.0
O74 O 0.55949 0.21536 0.51404 0.0
O75 O 0.53564 0.18124 0.53661 0.0
C76 C 0.54434 0.20414 0.54861 0.0
C77 C 0.52444 0.09781 0.42458 0.0
C78 C 0.5202 0.19219 0.36245 0.0
C79 C 0.59574 0.1564 0.40733 0.0
O80 O 0.57735 0.14193 0.39059 0.0
O81 O 0.59138 0.17484 0.44077 0.0
O82 O 0.53057 0.10481 0.3757 0.0
O83 O 0.52393 0.11565 0.46186 0.0
O84 O 0.32376 0.53362 0.39454 0.0
Cd85 Cd 0.3409 0.55422 0.45597 0.0
Cd86 Cd 0.38447 0.53776 0.39753 0.0
O87 O 0.35747 0.51719 0.35034 0.0
O88 O 0.31146 0.5599 0.50753 0.0
O89 O 0.34588 0.53614 0.52869 0.0
C90 C 0.32317 0.5449 0.54178 0.0
C91 C 0.42656 0.52333 0.42049 0.0
C92 C 0.33293 0.52001 0.35572 0.0
C93 C 0.36946 0.59555 0.39822 0.0
O94 O 0.38385 0.577 0.38198 0.0
O95 O 0.35106 0.59143 0.43177 0.0
O96 O 0.42039 0.52924 0.37098 0.0
O97 O 0.40828 0.52354 0.45673 0.0
O98 O 0.9828 0.31723 0.40748 0.0
Cd99 Cd 0.96295 0.33851 0.46402 0.0
Cd100 Cd 0.98846 0.37712 0.41408 0.0
O101 O 1.00984 0.34723 0.37692 0.0
O102 O 0.9531 0.31237 0.52068 0.0
O103 O 0.98148 0.34401 0.53566 0.0
C104 C 0.9701 0.32302 0.55242 0.0
C105 C 1.00319 0.41561 0.45544 0.0
C106 C 1.00175 0.32373 0.37719 0.0
C107 C 0.93064 0.37199 0.3939 0.0
O108 O 0.95235 0.38182 0.38018 0.0
O109 O 0.92937 0.35519 0.4321 0.0
O110 O 1.00616 0.41163 0.40369 0.0
O111 O 0.994 0.39673 0.48461 0.0
O112 O 0.30851 0.99178 0.90514 0.0
Cd113 Cd 0.32825 0.97311 0.96567 0.0
Cd114 Cd 0.36836 0.99613 0.91308 0.0
O115 O 0.33936 0.0171 0.87202 0.0
O116 O 0.30029 0.9638 0.01861 0.0
O117 O 0.33115 0.99256 0.03702 0.0
C118 C 0.3098 0.98111 0.05112 0.0
C119 C 0.40733 1.01112 0.95173 0.0
C120 C 0.31571 1.00954 0.87244 0.0
C121 C 0.36148 0.93785 0.90197 0.0
O122 O 0.37198 0.95872 0.88504 0.0
O123 O 0.34439 0.93832 0.93953 0.0
O124 O 0.40332 1.01235 0.8997 0.0
O125 O 0.38829 1.00359 0.98243 0.0
O126 O 0.53481 0.30997 0.90295 0.0
Cd127 Cd 0.55383 0.32942 0.96347 0.0
Cd128 Cd 0.53178 0.37018 0.91003 0.0
O129 O 0.51076 0.34149 0.86816 0.0
O130 O 0.56291 0.30113 0.01584 0.0
O131 O 0.53484 0.33248 0.03532 0.0
C132 C 0.54606 0.31091 0.04897 0.0
C133 C 0.51669 0.40938 0.94774 0.0
C134 C 0.51758 0.31759 0.86939 0.0
C135 C 0.58998 0.36225 0.90088 0.0
O136 O 0.56946 0.37337 0.88373 0.0
O137 O 0.58892 0.34487 0.93782 0.0
O138 O 0.51605 0.40534 0.89568 0.0
O139 O 0.52374 0.39029 0.9789 0.0
O140 O 0.21873 0.53725 0.89693 0.0
Cd141 Cd 0.19822 0.55632 0.95575 0.0
Cd142 Cd 0.15881 0.53247 0.90384 0.0
O143 O 0.1881 0.51171 0.86353 0.0
O144 O 0.22524 0.56574 0.01062 0.0
O145 O 0.19394 0.53714 0.02692 0.0
C146 C 0.21509 0.54855 0.04253 0.0
C147 C 0.12025 0.51624 0.94198 0.0
C148 C 0.21175 0.51925 0.86455 0.0
C149 C 0.16483 0.59084 0.89083 0.0
O150 O 0.15432 0.56972 0.87517 0.0
O151 O 0.18216 0.59082 0.92794 0.0
O152 O 0.12428 0.51557 0.88993 0.0
O153 O 0.13907 0.52412 0.97294 0.0
O154 O 0.98665 0.21596 0.9085 0.0
Cd155 Cd 0.96898 0.19477 0.96828 0.0
Cd156 Cd 0.99115 0.15581 0.91184 0.0
O157 O 1.01059 0.18548 0.86959 0.0
O158 O 0.9603 0.22152 0.02441 0.0
O159 O 0.98866 0.18987 0.03903 0.0
C160 C 0.9774 0.21091 0.05586 0.0
C161 C 1.00721 0.11708 0.94981 0.0
C162 C 1.0032 0.20918 0.87273 0.0
C163 C 0.93289 0.16237 0.90444 0.0
O164 O 0.95349 0.15179 0.88629 0.0
O165 O 0.93388 0.17931 0.94233 0.0
O166 O 1.00775 0.12101 0.89769 0.0
O167 O 0.99979 0.13611 0.98081 0.0
O168 O 0.8086 0.03329 0.58927 0.0
Cd169 Cd 0.82793 0.05219 0.52858 0.0
Cd170 Cd 0.86858 0.03012 0.58178 0.0
O171 O 0.84 1.00894 0.6235 0.0
O172 O 0.79961 0.06115 0.47614 0.0
O173 O 0.83087 0.03292 0.45699 0.0
C174 C 0.8093 0.0441 0.44328 0.0
C175 C 0.90781 0.01542 0.54371 0.0
C176 C 0.81618 0.01596 0.62266 0.0
C177 C 0.86038 0.08832 0.59194 0.0
O178 O 0.87148 0.06775 0.60891 0.0
O179 O 0.84321 0.08735 0.55455 0.0
O180 O 0.90382 0.01453 0.59576 0.0
O181 O 0.88867 0.02249 0.51272 0.0
O182 O 0.49267 0.80983 0.58562 0.0
Cd183 Cd 0.47332 0.82971 0.52624 0.0
Cd184 Cd 0.49644 0.86984 0.57868 0.0
O185 O 0.51786 0.84085 0.61866 0.0
O186 O 0.46374 0.80186 0.47315 0.0
O187 O 0.49206 0.83304 0.45425 0.0
C188 C 0.48065 0.81163 0.44018 0.0
C189 C 0.51113 0.9089 0.53997 0.0
C190 C 0.51057 0.81709 0.61792 0.0
C191 C 0.43839 0.8626 0.59161 0.0
O192 O 0.45928 0.87329 0.6079 0.0
O193 O 0.43871 0.84552 0.55394 0.0
O194 O 0.51268 0.90483 0.59194 0.0
O195 O 0.50338 0.88988 0.50931 0.0
O196 O 0.71335 0.49879 0.59842 0.0
Cd197 Cd 0.70039 0.47551 0.53683 0.0
Cd198 Cd 0.65366 0.49433 0.58367 0.0
O199 O 0.67817 0.51786 0.63083 0.0
O200 O 0.73438 0.46948 0.49969 0.0
O201 O 0.70111 0.4887 0.45887 0.0
C202 C 0.72517 0.48151 0.45787 0.0
C203 C 0.61356 0.5072 0.54607 0.0
C204 C 0.70273 0.51446 0.63169 0.0
C205 C 0.66855 0.43674 0.59541 0.0
O206 O 0.65389 0.4559 0.60716 0.0
O207 O 0.68817 0.4395 0.56427 0.0
O208 O 0.61706 0.50623 0.5982 0.0
O209 O 0.63333 0.50255 0.51493 0.0
O210 O 0.02487 0.7082 0.60178 0.0
Cd211 Cd 0.04461 0.69396 0.53599 0.0
Cd212 Cd 0.03012 0.647 0.59475 0.0
O213 O 1.0106 0.67335 0.6457 0.0
O214 O 0.05077 0.72636 0.49267 0.0
O215 O 0.0263 0.6941 0.46251 0.0
C216 C 0.03565 0.71718 0.45549 0.0
C217 C 0.01651 0.60401 0.57557 0.0
C218 C 0.01262 0.69807 0.64151 0.0
C219 C 0.08749 0.66366 0.58604 0.0
O220 O 0.06973 0.64865 0.60351 0.0
O221 O 0.08215 0.68288 0.55534 0.0
O222 O 0.02395 0.61091 0.62373 0.0
O223 O 0.01465 0.62202 0.53889 0.0
C224 C 0.62911 0.13046 0.35979 0.0
C225 C 0.62024 0.15499 0.37631 0.0
C226 C 0.64304 0.12747 0.31098 0.0
C227 C 0.64796 0.14963 0.27793 0.0
C228 C 0.6428 0.17479 0.29907 0.0
C229 C 0.62891 0.17722 0.34838 0.0
C230 C 0.64904 0.10022 0.29127 0.0
C231 C 0.64891 0.199 0.26669 0.0
C232 C 0.67863 0.1257 0.14737 0.0
C233 C 0.65612 0.11797 0.11924 0.0
C234 C 0.67676 0.13949 0.19697 0.0
C235 C 0.65185 0.14555 0.21816 0.0
C236 C 0.62952 0.14151 0.18508 0.0
C237 C 0.63196 0.12765 0.136 0.0
C238 C 0.70118 0.14456 0.22942 0.0
C239 C 0.60255 0.14844 0.20493 0.0
H240 H 0.62256 0.1133 0.38171 0.0
H241 H 0.62212 0.19629 0.36111 0.0
H242 H 0.63549 0.09495 0.25767 0.0
H243 H 0.66913 0.0991 0.27493 0.0
H244 H 0.64698 0.08555 0.32439 0.0
H245 H 0.65243 0.21583 0.2943 0.0
H246 H 0.66618 0.19617 0.24013 0.0
H247 H 0.63207 0.20391 0.24023 0.0
H248 H 0.69741 0.11827 0.1345 0.0
H249 H 0.61459 0.12181 0.11396 0.0
H250 H 0.70568 0.12725 0.25492 0.0
H251 H 0.69896 0.16163 0.2569 0.0
H252 H 0.71801 0.14789 0.2018 0.0
H253 H 0.59687 0.13502 0.23844 0.0
H254 H 0.5878 0.14693 0.17185 0.0
H255 H 0.60216 0.16855 0.22143 0.0
C256 C 0.34855 0.62872 0.33918 0.0
C257 C 0.37085 0.61993 0.36667 0.0
C258 C 0.35077 0.64272 0.28996 0.0
C259 C 0.37581 0.64791 0.26851 0.0
C260 C 0.39809 0.64277 0.30106 0.0
C261 C 0.3953 0.62869 0.34973 0.0
C262 C 0.32644 0.64896 0.25808 0.0
C263 C 0.42523 0.64878 0.28097 0.0
C264 C 0.39767 0.63296 0.12625 0.0
C265 C 0.40739 0.65726 0.1105 0.0
C266 C 0.38369 0.63016 0.17503 0.0
C267 C 0.37963 0.65226 0.20883 0.0
C268 C 0.38563 0.67735 0.1885 0.0
C269 C 0.3995 0.6796 0.13915 0.0
C270 C 0.37675 0.60302 0.19391 0.0
C271 C 0.38051 0.70155 0.22177 0.0
H272 H 0.32954 0.62199 0.35223 0.0
H273 H 0.41251 0.62203 0.37129 0.0
H274 H 0.32919 0.66618 0.23129 0.0
H275 H 0.32127 0.63207 0.23193 0.0
H276 H 0.30982 0.65266 0.28607 0.0
H277 H 0.44002 0.64649 0.31376 0.0
H278 H 0.43029 0.63537 0.24696 0.0
H279 H 0.42631 0.66897 0.26509 0.0
H280 H 0.40363 0.61572 0.1038 0.0
H281 H 0.40696 0.69849 0.12701 0.0
H282 H 0.35673 0.60257 0.21071 0.0
H283 H 0.39027 0.59696 0.22697 0.0
H284 H 0.37808 0.58855 0.16022 0.0
H285 H 0.36327 0.69918 0.2486 0.0
H286 H 0.37747 0.71869 0.19477 0.0
H287 H 0.39764 0.70566 0.24803 0.0
C288 C 0.87984 0.39977 0.11456 0.0
C289 C 0.85749 0.41519 0.10897 0.0
C290 C 0.88497 0.38654 0.16358 0.0
C291 C 0.86731 0.38891 0.20778 0.0
C292 C 0.84275 0.40062 0.19884 0.0
C293 C 0.83801 0.41355 0.14917 0.0
C294 C 0.91099 0.37329 0.17052 0.0
C295 C 0.823 0.40275 0.24422 0.0
C296 C 0.89265 0.35741 0.33801 0.0
C297 C 0.90807 0.37771 0.35859 0.0
C298 C 0.87724 0.36112 0.29098 0.0
C299 C 0.87738 0.38567 0.26453 0.0
C300 C 0.89075 0.40686 0.28896 0.0
C301 C 0.906 0.40255 0.3355 0.0
C302 C 0.86292 0.33812 0.26721 0.0
C303 C 0.89121 0.43356 0.26292 0.0
H304 H 0.89471 0.40044 0.08315 0.0
H305 H 0.82041 0.42503 0.14501 0.0
H306 H 0.9241 0.38611 0.19459 0.0
H307 H 0.90882 0.35472 0.1932 0.0
H308 H 0.92039 0.36919 0.13053 0.0
H309 H 0.80328 0.40721 0.22815 0.0
H310 H 0.82219 0.38446 0.26833 0.0
H311 H 0.82879 0.41868 0.27238 0.0
H312 H 0.89438 0.33809 0.35555 0.0
H313 H 0.91788 0.41826 0.35155 0.0
H314 H 0.87585 0.32784 0.23795 0.0
H315 H 0.84515 0.34423 0.24487 0.0
H316 H 0.8574 0.32405 0.29969 0.0
H317 H 0.90343 0.43296 0.22553 0.0
H318 H 0.89927 0.44859 0.29089 0.0
H319 H 0.87136 0.4396 0.2505 0.0
C320 C 0.12691 0.89568 0.13544 0.0
C321 C 0.11822 0.87105 0.1191 0.0
C322 C 0.14122 0.89878 0.18376 0.0
C323 C 0.14672 0.87664 0.2165 0.0
C324 C 0.14172 0.85144 0.19542 0.0
C325 C 0.12743 0.8489 0.1466 0.0
C326 C 0.14705 0.92607 0.2034 0.0
C327 C 0.14846 0.82728 0.22744 0.0
C328 C 0.17837 0.90067 0.346 0.0
C329 C 0.15604 0.90817 0.37503 0.0
C330 C 0.17617 0.88695 0.29638 0.0
C331 C 0.15113 0.88069 0.27612 0.0
C332 C 0.12908 0.88449 0.31009 0.0
C333 C 0.13183 0.89832 0.35913 0.0
C334 C 0.20034 0.88221 0.26292 0.0
C335 C 0.102 0.87734 0.29124 0.0
H336 H 0.11998 0.91277 0.11382 0.0
H337 H 0.12081 0.82976 0.13398 0.0
H338 H 0.13372 0.93116 0.23749 0.0
H339 H 0.16726 0.92739 0.21905 0.0
H340 H 0.14453 0.94074 0.17043 0.0
H341 H 0.1517 0.81044 0.19969 0.0
H342 H 0.16608 0.83024 0.25292 0.0
H343 H 0.13205 0.82231 0.25497 0.0
H344 H 0.19718 0.90827 0.35819 0.0
H345 H 0.11461 0.90401 0.38183 0.0
H346 H 0.20444 0.89966 0.23758 0.0
H347 H 0.19803 0.86523 0.23523 0.0
H348 H 0.21744 0.87892 0.28985 0.0
H349 H 0.09583 0.89082 0.25818 0.0
H350 H 0.08757 0.87859 0.32495 0.0
H351 H 0.10167 0.85728 0.27445 0.0
C352 C 0.39174 0.90661 0.85947 0.0
C353 C 0.36611 0.91426 0.86955 0.0
C354 C 0.39794 0.89172 0.81327 0.0
C355 C 0.37803 0.88516 0.7755 0.0
C356 C 0.35174 0.89038 0.78881 0.0
C357 C 0.34604 0.9048 0.8362 0.0
C358 C 0.42619 0.88579 0.80168 0.0
C359 C 0.32992 0.8836 0.75009 0.0
C360 C 0.40756 0.89269 0.636 0.0
C361 C 0.415 0.86708 0.62463 0.0
C362 C 0.39253 0.89848 0.68219 0.0
C363 C 0.38561 0.87816 0.71866 0.0
C364 C 0.39073 0.85196 0.70413 0.0
C365 C 0.4053 0.84669 0.65677 0.0
C366 C 0.38674 0.92667 0.6951 0.0
C367 C 0.38359 0.82972 0.74148 0.0
H368 H 0.40721 0.91414 0.8852 0.0
H369 H 0.32621 0.91111 0.84368 0.0
H370 H 0.42848 0.86553 0.7866 0.0
H371 H 0.43341 0.8991 0.76933 0.0
H372 H 0.43855 0.88837 0.83858 0.0
H373 H 0.31098 0.88239 0.77183 0.0
H374 H 0.32833 0.89901 0.71846 0.0
H375 H 0.33365 0.86485 0.72892 0.0
H376 H 0.41526 0.90841 0.61119 0.0
H377 H 0.41145 0.82687 0.6483 0.0
H378 H 0.39975 0.93339 0.7285 0.0
H379 H 0.36638 0.92897 0.70933 0.0
H380 H 0.3898 0.93948 0.65907 0.0
H381 H 0.39882 0.8276 0.77334 0.0
H382 H 0.3823 0.81104 0.71866 0.0
H383 H 0.3648 0.83337 0.76244 0.0
C384 C 0.63979 0.40349 0.63574 0.0
C385 C 0.66502 0.41288 0.62765 0.0
C386 C 0.63375 0.3885 0.68181 0.0
C387 C 0.65334 0.38347 0.72126 0.0
C388 C 0.6795 0.39005 0.70958 0.0
C389 C 0.68509 0.40464 0.66241 0.0
C390 C 0.6057 0.38106 0.69156 0.0
C391 C 0.70105 0.38461 0.74985 0.0
C392 C 0.62096 0.3924 0.85735 0.0
C393 C 0.61396 0.36679 0.86978 0.0
C394 C 0.6368 0.39787 0.81226 0.0
C395 C 0.64515 0.37717 0.77805 0.0
C396 C 0.64059 0.35108 0.79415 0.0
C397 C 0.62507 0.34616 0.84033 0.0
C398 C 0.64189 0.42601 0.79771 0.0
C399 C 0.64942 0.32844 0.75948 0.0
H400 H 0.62432 0.40989 0.60869 0.0
H401 H 0.70462 0.41209 0.65632 0.0
H402 H 0.60432 0.36084 0.70723 0.0
H403 H 0.59718 0.39421 0.72283 0.0
H404 H 0.59385 0.38261 0.65369 0.0
H405 H 0.72028 0.38387 0.72917 0.0
H406 H 0.70165 0.40047 0.78068 0.0
H407 H 0.69779 0.36599 0.7718 0.0
H408 H 0.61225 0.40829 0.8802 0.0
H409 H 0.61938 0.32632 0.84968 0.0
H410 H 0.62951 0.43163 0.76243 0.0
H411 H 0.66248 0.4288 0.78556 0.0
H412 H 0.63747 0.43935 0.83228 0.0
H413 H 0.63469 0.32469 0.72724 0.0
H414 H 0.65145 0.31044 0.78432 0.0
H415 H 0.66822 0.33261 0.73903 0.0
C416 C 0.12371 0.63722 0.62166 0.0
C417 C 0.11274 0.66187 0.61391 0.0
C418 C 0.13925 0.63205 0.66747 0.0
C419 C 0.14321 0.65193 0.70689 0.0
C420 C 0.13539 0.67775 0.69493 0.0
C421 C 0.12031 0.68249 0.64801 0.0
C422 C 0.14812 0.60441 0.67743 0.0
C423 C 0.13973 0.69965 0.73504 0.0
C424 C 0.134 0.61994 0.84353 0.0
C425 C 0.15969 0.6142 0.85788 0.0
C426 C 0.12845 0.63509 0.7974 0.0
C427 C 0.14918 0.64408 0.76411 0.0
C428 C 0.17519 0.64076 0.78193 0.0
C429 C 0.18016 0.62588 0.82908 0.0
C430 C 0.10035 0.63886 0.78105 0.0
C431 C 0.19785 0.65033 0.74838 0.0
H432 H 0.11783 0.6213 0.59519 0.0
H433 H 0.11167 0.70158 0.64221 0.0
H434 H 0.16822 0.60408 0.69396 0.0
H435 H 0.13517 0.59514 0.70808 0.0
H436 H 0.14753 0.59255 0.63943 0.0
H437 H 0.13968 0.71885 0.7141 0.0
H438 H 0.12376 0.69967 0.76556 0.0
H439 H 0.15837 0.69725 0.75736 0.0
H440 H 0.11823 0.6108 0.86588 0.0
H441 H 0.20008 0.62117 0.83991 0.0
H442 H 0.09581 0.62623 0.74545 0.0
H443 H 0.09675 0.65934 0.76868 0.0
H444 H 0.08676 0.63384 0.81475 0.0
H445 H 0.2029 0.63538 0.71735 0.0
H446 H 0.21527 0.65362 0.77438 0.0
H447 H 0.19305 0.66865 0.72651 0.0
C448 C 0.90129 0.13292 0.86081 0.0
C449 C 0.90909 0.15839 0.87247 0.0
C450 C 0.88658 0.12743 0.81399 0.0
C451 C 0.88034 0.14789 0.77729 0.0
C452 C 0.88552 0.174 0.7924 0.0
C453 C 0.89977 0.17898 0.84035 0.0
C454 C 0.88065 0.09933 0.8005 0.0
C455 C 0.87898 0.19641 0.75499 0.0
C456 C 0.88955 0.11976 0.63706 0.0
C457 C 0.86418 0.112 0.62456 0.0
C458 C 0.89469 0.13462 0.68386 0.0
C459 C 0.87398 0.14108 0.71969 0.0
C460 C 0.84801 0.13587 0.70379 0.0
C461 C 0.84339 0.12146 0.65587 0.0
C462 C 0.92266 0.14057 0.6982 0.0
C463 C 0.82536 0.14265 0.74027 0.0
H464 H 0.9087 0.11704 0.88562 0.0
H465 H 0.90615 0.19869 0.84908 0.0
H466 H 0.86051 0.09731 0.78479 0.0
H467 H 0.89412 0.09248 0.76805 0.0
H468 H 0.88299 0.08645 0.83667 0.0
H469 H 0.87722 0.21496 0.77816 0.0
H470 H 0.8948 0.19876 0.72452 0.0
H471 H 0.8606 0.19285 0.73238 0.0
H472 H 0.90558 0.11228 0.61284 0.0
H473 H 0.82375 0.11512 0.64648 0.0
H474 H 0.92918 0.12731 0.73134 0.0
H475 H 0.9246 0.16085 0.71333 0.0
H476 H 0.93582 0.13793 0.66261 0.0
H477 H 0.82279 0.12701 0.7711 0.0
H478 H 0.80701 0.14427 0.71647 0.0
H479 H 0.82875 0.16119 0.76249 0.0
C480 C 0.73673 0.0504 0.87359 0.0
C481 C 0.71787 0.03384 0.89584 0.0
C482 C 0.75174 0.0427 0.82853 0.0
C483 C 0.74841 0.01744 0.80612 0.0
C484 C 0.72956 1.00048 0.82883 0.0
C485 C 0.7142 1.00904 0.87299 0.0
C486 C 0.77109 0.06173 0.80471 0.0
C487 C 0.726 0.97317 0.80717 0.0
C488 C 0.77116 0.01432 0.65956 0.0
C489 C 0.79762 1.00815 0.66613 0.0
C490 C 0.7543 0.0155 0.70446 0.0
C491 C 0.76392 1.00969 0.75724 0.0
C492 C 0.78976 1.00036 0.76322 0.0
C493 C 0.80644 0.99987 0.71753 0.0
C494 C 0.72703 0.02574 0.69597 0.0
C495 C 0.80049 0.99308 0.81857 0.0
H496 H 0.73963 0.06955 0.89132 0.0
H497 H 0.69995 0.99602 0.89086 0.0
H498 H 0.79103 0.05358 0.80739 0.0
H499 H 0.76678 0.06503 0.76078 0.0
H500 H 0.77082 0.08084 0.82608 0.0
H501 H 0.71072 0.96229 0.82972 0.0
H502 H 0.72068 0.97372 0.76324 0.0
H503 H 0.74461 0.96231 0.81041 0.0
H504 H 0.76404 0.02035 0.61978 0.0
H505 H 0.82678 0.99494 0.72303 0.0
H506 H 0.72579 0.04593 0.71205 0.0
H507 H 0.71266 0.01383 0.71866 0.0
H508 H 0.72146 0.02602 0.65207 0.0
H509 H 0.80508 1.01106 0.84185 0.0
H510 H 0.81857 0.98133 0.81503 0.0
H511 H 0.78593 0.98192 0.84248 0.0
C512 C 0.51276 0.77183 0.65356 0.0
C513 C 0.51883 0.7983 0.6606 0.0
C514 C 0.51179 0.75476 0.69816 0.0
C515 C 0.51765 0.76422 0.75107 0.0
C516 C 0.52699 0.79005 0.75739 0.0
C517 C 0.52733 0.80692 0.712 0.0
C518 C 0.50161 0.72748 0.68929 0.0
C519 C 0.53428 0.80062 0.81288 0.0
C520 C 0.47637 0.7375 0.86671 0.0
C521 C 0.49275 0.71863 0.88964 0.0
C522 C 0.48431 0.75232 0.8216 0.0
C523 C 0.5096 0.74873 0.79974 0.0
C524 C 0.52634 0.7298 0.82298 0.0
C525 C 0.51756 0.71467 0.86728 0.0
C526 C 0.46552 0.77179 0.79723 0.0
C527 C 0.55365 0.72595 0.80183 0.0
H528 H 0.50658 0.76488 0.61373 0.0
H529 H 0.5322 0.82728 0.71782 0.0
H530 H 0.51331 0.71305 0.71237 0.0
H531 H 0.48132 0.72629 0.70461 0.0
H532 H 0.50166 0.72193 0.64537 0.0
H533 H 0.54611 0.81866 0.80956 0.0
H534 H 0.51633 0.80528 0.8361 0.0
H535 H 0.54535 0.78593 0.83671 0.0
H536 H 0.4572 0.7406 0.88402 0.0
H537 H 0.53043 0.7004 0.88565 0.0
H538 H 0.46239 0.76744 0.75326 0.0
H539 H 0.47377 0.79171 0.8 0.0
H540 H 0.44635 0.77168 0.81817 0.0
H541 H 0.55326 0.72099 0.7577 0.0
H542 H 0.56419 0.71031 0.82412 0.0
H543 H 0.56476 0.74438 0.806 0.0
C544 C 0.79847 0.53283 0.88996 0.0
C545 C 0.79572 0.5085 0.91522 0.0
C546 C 0.78247 0.53992 0.84564 0.0
C547 C 0.76428 0.52171 0.8247 0.0
C548 C 0.76157 0.49708 0.85033 0.0
C549 C 0.77693 0.49105 0.89603 0.0
C550 C 0.78507 0.56677 0.82116 0.0
C551 C 0.74309 0.47671 0.8284 0.0
C552 C 0.70823 0.53327 0.72627 0.0
C553 C 0.71919 0.52428 0.67724 0.0
C554 C 0.72341 0.53509 0.77415 0.0
C555 C 0.74982 0.52704 0.77303 0.0
C556 C 0.76143 0.5203 0.72256 0.0
C557 C 0.74612 0.51959 0.67524 0.0
C558 C 0.71066 0.5437 0.82666 0.0
C559 C 0.78931 0.51101 0.71926 0.0
H560 H 0.8127 0.54651 0.90566 0.0
H561 H 0.7748 0.47228 0.91588 0.0
H562 H 0.79367 0.56539 0.7797 0.0
H563 H 0.7656 0.57591 0.81672 0.0
H564 H 0.79756 0.57969 0.84645 0.0
H565 H 0.74361 0.45842 0.85263 0.0
H566 H 0.72289 0.4843 0.82861 0.0
H567 H 0.74812 0.47202 0.78536 0.0
H568 H 0.68753 0.5372 0.72826 0.0
H569 H 0.75497 0.51313 0.63735 0.0
H570 H 0.72416 0.55573 0.85151 0.0
H571 H 0.70535 0.52633 0.8512 0.0
H572 H 0.69264 0.55506 0.81872 0.0
H573 H 0.80254 0.52478 0.74031 0.0
H574 H 0.79601 0.50865 0.67636 0.0
H575 H 0.79107 0.49192 0.74023 0.0
C576 C 0.05122 0.78527 0.88009 0.0
C577 C 0.03347 0.80183 0.90607 0.0
C578 C 0.04325 0.76857 0.83786 0.0
C579 C 0.01662 0.76765 0.82273 0.0
C580 C 0.9985 0.78406 0.84957 0.0
C581 C 1.00725 0.80135 0.89031 0.0
C582 C 0.0634 0.75205 0.80918 0.0
C583 C 0.96986 0.78292 0.83611 0.0
C584 C 1.00681 0.74279 0.67879 0.0
C585 C 1.00542 0.71574 0.68721 0.0
C586 C 1.00873 0.76017 0.72278 0.0
C587 C 1.00836 0.7504 0.7768 0.0
C588 C 1.00375 0.72348 0.78572 0.0
C589 C 1.00257 0.70636 0.74073 0.0
C590 C 0.01395 0.78859 0.71106 0.0
C591 C 1.00216 0.71245 0.84277 0.0
H592 H 0.07147 0.78556 0.89259 0.0
H593 H 0.99342 0.81376 0.91136 0.0
H594 H 0.0589 0.7311 0.81493 0.0
H595 H 0.063 0.756 0.76456 0.0
H596 H 0.0834 0.75576 0.82457 0.0
H597 H 0.95823 0.79665 0.86134 0.0
H598 H 0.96665 0.78757 0.79235 0.0
H599 H 0.96249 0.76287 0.84291 0.0
H600 H 1.00858 0.75033 0.63755 0.0
H601 H 1.00133 0.68555 0.74777 0.0
H602 H 0.03449 0.79314 0.72139 0.0
H603 H 1.00146 0.80129 0.73664 0.0
H604 H 1.01064 0.79356 0.6674 0.0
H605 H 0.02203 0.71088 0.8602 0.0
H606 H 0.99322 0.69275 0.843 0.0
H607 H 0.9907 0.72546 0.86985 0.0
C608 C 0.23657 0.9757 0.62084 0.0
C609 C 0.21754 0.99217 0.59881 0.0
C610 C 0.25145 0.98333 0.66616 0.0
C611 C 0.24778 1.00843 0.68913 0.0
C612 C 0.22873 0.0253 0.66671 0.0
C613 C 0.21354 0.0168 0.62221 0.0
C614 C 0.27103 0.96441 0.68963 0.0
C615 C 0.22478 0.05243 0.68903 0.0
C616 C 0.27064 1.01085 0.8357 0.0
C617 C 0.297 0.01739 0.82925 0.0
C618 C 0.25372 1.00982 0.79082 0.0
C619 C 0.26321 0.01611 0.7382 0.0
C620 C 0.28891 0.02578 0.73245 0.0
C621 C 0.30564 0.02616 0.7781 0.0
C622 C 0.22659 0.99924 0.79907 0.0
C623 C 0.29949 0.03353 0.67729 0.0
H624 H 0.23972 0.95667 0.60272 0.0
H625 H 0.19914 0.02975 0.60455 0.0
H626 H 0.29087 0.97283 0.68728 0.0
H627 H 0.26673 0.9608 0.73344 0.0
H628 H 0.27104 0.94543 0.66778 0.0
H629 H 0.20931 0.06322 0.66679 0.0
H630 H 0.21954 0.05156 0.73297 0.0
H631 H 0.24322 0.06357 0.68598 0.0
H632 H 0.26365 1.00444 0.8753 0.0
H633 H 0.32591 0.03137 0.77272 0.0
H634 H 0.22559 0.97911 0.7826 0.0
H635 H 0.21206 1.01109 0.77661 0.0
H636 H 0.22104 0.9987 0.84296 0.0
H637 H 0.30426 0.01575 0.65349 0.0
H638 H 0.31744 0.04545 0.68112 0.0
H639 H 0.28478 0.0447 0.65374 0.0
C640 C 0.5528 0.23658 0.6221 0.0
C641 C 0.53615 0.21812 0.59857 0.0
C642 C 0.54484 0.25168 0.66686 0.0
C643 C 0.51926 0.24883 0.6877 0.0
C644 C 0.50226 0.23031 0.66386 0.0
C645 C 0.51105 0.21487 0.61997 0.0
C646 C 0.56389 0.27067 0.69192 0.0
C647 C 0.47466 0.22725 0.68386 0.0
C648 C 0.51504 0.27233 0.83362 0.0
C649 C 0.50959 0.29892 0.82619 0.0
C650 C 0.51617 0.25516 0.78914 0.0
C651 C 0.51114 0.26466 0.7359 0.0
C652 C 0.50247 0.2907 0.72899 0.0
C653 C 0.50194 0.30764 0.7743 0.0
C654 C 0.52559 0.22765 0.79865 0.0
C655 C 0.49606 0.30133 0.67309 0.0
H656 H 0.57219 0.23915 0.6055 0.0
H657 H 0.49798 0.20094 0.60112 0.0
H658 H 0.55621 0.2908 0.68864 0.0
H659 H 0.56646 0.26634 0.73606 0.0
H660 H 0.58327 0.26996 0.67184 0.0
H661 H 0.46398 0.21177 0.66139 0.0
H662 H 0.47449 0.22251 0.72809 0.0
H663 H 0.46405 0.24593 0.67884 0.0
H664 H 0.52057 0.2653 0.87379 0.0
H665 H 0.49757 0.3281 0.76816 0.0
H666 H 0.54599 0.2259 0.78418 0.0
H667 H 0.51376 0.21347 0.77519 0.0
H668 H 0.525 0.22222 0.8426 0.0
H669 H 0.51438 0.30542 0.65069 0.0
H670 H 0.4847 0.31971 0.67571 0.0
H671 H 0.48486 0.2869 0.64886 0.0
C672 C 0.3141 0.51222 0.61537 0.0
C673 C 0.30988 0.53695 0.59265 0.0
C674 C 0.29926 0.50352 0.66015 0.0
C675 C 0.28033 0.52025 0.68339 0.0
C676 C 0.27654 0.54549 0.66126 0.0
C677 C 0.29111 0.55336 0.61578 0.0
C678 C 0.30337 0.47628 0.6817 0.0
C679 C 0.25703 0.56425 0.68558 0.0
C680 C 0.22226 0.50228 0.77086 0.0
C681 C 0.23069 0.51108 0.82218 0.0
C682 C 0.23918 0.50261 0.72562 0.0
C683 C 0.26489 0.51218 0.73205 0.0
C684 C 0.27419 0.5183 0.78493 0.0
C685 C 0.25705 0.51741 0.82938 0.0
C686 C 0.22878 0.49508 0.67014 0.0
C687 C 0.30136 0.52868 0.79388 0.0
H688 H 0.32831 0.49932 0.59689 0.0
H689 H 0.28781 0.57247 0.59821 0.0
H690 H 0.30802 0.47684 0.72598 0.0
H691 H 0.28516 0.4649 0.67706 0.0
H692 H 0.31928 0.46592 0.65997 0.0
H693 H 0.25701 0.58341 0.66447 0.0
H694 H 0.23718 0.55588 0.683 0.0
H695 H 0.26141 0.5675 0.7295 0.0
H696 H 0.20198 0.49721 0.76494 0.0
H697 H 0.26385 0.52381 0.86917 0.0
H698 H 0.24354 0.48397 0.64662 0.0
H699 H 0.22412 0.51296 0.64661 0.0
H700 H 0.2108 0.48318 0.67344 0.0
H701 H 0.31587 0.51706 0.77086 0.0
H702 H 0.30686 0.52869 0.83783 0.0
H703 H 0.30242 0.54901 0.77854 0.0
C704 C 1.00338 0.31301 0.62437 0.0
C705 C 0.97812 0.30978 0.60357 0.0
C706 C 0.01241 0.29778 0.66835 0.0
C707 C 0.99558 0.27932 0.6928 0.0
C708 C 0.96979 0.27662 0.67296 0.0
C709 C 0.96151 0.29165 0.62827 0.0
C710 C 0.04015 0.30089 0.68755 0.0
C711 C 0.95096 0.25762 0.69862 0.0
C712 C 0.01578 0.22018 0.77619 0.0
C713 C 1.00928 0.22839 0.82915 0.0
C714 C 0.01353 0.23731 0.73143 0.0
C715 C 1.00437 0.26308 0.73996 0.0
C716 C 1.00026 0.27209 0.79393 0.0
C717 C 1.003 0.25473 0.83779 0.0
C718 C 0.01885 0.22716 0.67463 0.0
C719 C 0.99045 0.29932 0.80514 0.0
H720 H 0.01647 0.32669 0.60482 0.0
H721 H 0.942 0.28903 0.61228 0.0
H722 H 0.04065 0.30527 0.73195 0.0
H723 H 0.05085 0.28233 0.68141 0.0
H724 H 0.05053 0.31663 0.66534 0.0
H725 H 0.93137 0.25846 0.67949 0.0
H726 H 0.95854 0.23747 0.6946 0.0
H727 H 0.94894 0.26179 0.74295 0.0
H728 H 0.02067 0.19992 0.76902 0.0
H729 H 0.99825 0.26137 0.87868 0.0
H730 H 0.02975 0.24174 0.65027 0.0
H731 H 1.00012 0.2235 0.6534 0.0
H732 H 0.03009 0.20866 0.67546 0.0
H733 H 1.00169 0.3139 0.78153 0.0
H734 H 0.99158 0.30441 0.84924 0.0
H735 H 0.96984 0.30082 0.79194 0.0
C736 C 0.23519 0.01571 0.32731 0.0
C737 C 0.20824 0.01676 0.31767 0.0
C738 C 0.25297 0.01398 0.28408 0.0
C739 C 0.2437 0.0141 0.22965 0.0
C740 C 0.21686 0.01843 0.21954 0.0
C741 C 0.19935 0.01952 0.26376 0.0
C742 C 0.28132 1.00917 0.297 0.0
C743 C 0.20632 0.01967 0.16202 0.0
C744 C 0.29435 0.01549 0.11582 0.0
C745 C 0.29499 0.98923 0.10001 0.0
C746 C 0.27739 0.02409 0.15724 0.0
C747 C 0.26134 1.00582 0.18448 0.0
C748 C 0.26259 0.97913 0.1697 0.0
C749 C 0.27908 0.97126 0.12705 0.0
C750 C 0.27602 0.05277 0.17058 0.0
C751 C 0.24639 0.95884 0.19873 0.0
H752 H 0.24233 0.01399 0.36889 0.0
H753 H 0.17862 0.02047 0.25579 0.0
H754 H 0.28614 0.98853 0.28794 0.0
H755 H 0.29407 0.02148 0.2712 0.0
H756 H 0.28591 0.01304 0.34066 0.0
H757 H 0.18647 0.02824 0.16084 0.0
H758 H 0.21931 0.03134 0.13537 0.0
H759 H 0.20533 0.9997 0.14475 0.0
H760 H 0.30625 0.02951 0.0941 0.0
H761 H 0.27947 0.95097 0.11465 0.0
H762 H 0.2797 0.05602 0.21474 0.0
H763 H 0.25616 0.06016 0.16177 0.0
H764 H 0.29025 0.06438 0.14664 0.0
H765 H 0.25018 0.95958 0.24339 0.0
H766 H 0.25052 0.93879 0.18394 0.0
H767 H 0.22541 0.96294 0.1925 0.0
C768 C 0.50823 0.20161 0.26477 0.0
C769 C 0.51238 0.21045 0.31833 0.0
C770 C 0.50894 0.21907 0.22041 0.0
C771 C 0.51434 0.24579 0.22998 0.0
C772 C 0.51593 0.2551 0.28429 0.0
C773 C 0.51455 0.23739 0.32773 0.0
C774 C 0.50616 0.20854 0.16311 0.0
C775 C 0.5219 0.28332 0.29661 0.0
C776 C 0.55623 0.27974 0.12394 0.0
C777 C 0.5383 0.29626 0.0983 0.0
C778 C 0.54865 0.26348 0.16715 0.0
C779 C 0.52227 0.26313 0.18406 0.0
C780 C 0.50404 0.2798 0.15828 0.0
C781 C 0.51238 0.29648 0.11615 0.0
C782 C 0.56891 0.24658 0.19454 0.0
C783 C 0.47566 0.27942 0.17402 0.0
H784 H 0.50639 0.1809 0.25702 0.0
H785 H 0.51735 0.24451 0.36907 0.0
H786 H 0.49435 0.2219 0.1375 0.0
H787 H 0.52568 0.20692 0.14403 0.0
H788 H 0.497 0.18894 0.1628 0.0
H789 H 0.51911 0.28807 0.34055 0.0
H790 H 0.54244 0.28745 0.28566 0.0
H791 H 0.50948 0.29647 0.27188 0.0
H792 H 0.57625 0.27948 0.11001 0.0
H793 H 0.49837 0.30887 0.09556 0.0
H794 H 0.56395 0.22572 0.1889 0.0
H795 H 0.56922 0.25048 0.23918 0.0
H796 H 0.58874 0.24995 0.17796 0.0
H797 H 0.46747 0.25977 0.16617 0.0
H798 H 0.46406 0.29398 0.15086 0.0
H799 H 0.47341 0.28335 0.21836 0.0
C800 C 0.28769 0.51434 0.32158 0.0
C801 C 0.31456 0.51229 0.31177 0.0
C802 C 0.26986 0.51608 0.2784 0.0
C803 C 0.279 0.51503 0.22395 0.0
C804 C 0.30565 0.5097 0.21385 0.0
C805 C 0.32323 0.50856 0.25798 0.0
C806 C 0.2417 0.5219 0.29126 0.0
C807 C 0.31602 0.50751 0.15633 0.0
C808 C 0.22869 0.51433 0.10935 0.0
C809 C 0.22908 0.54044 0.09248 0.0
C810 C 0.24506 0.50557 0.15165 0.0
C811 C 0.26162 0.52352 0.17854 0.0
C812 C 0.26133 0.55011 0.16282 0.0
C813 C 0.24536 0.55814 0.11946 0.0
C814 C 0.24533 0.47699 0.16619 0.0
C815 C 0.27812 0.57008 0.19141 0.0
H816 H 0.28073 0.51682 0.36311 0.0
H817 H 0.34389 0.50681 0.24991 0.0
H818 H 0.23757 0.54264 0.28175 0.0
H819 H 0.22852 0.50987 0.26576 0.0
H820 H 0.23705 0.51843 0.33501 0.0
H821 H 0.33563 0.49841 0.15541 0.0
H822 H 0.30264 0.49588 0.13037 0.0
H823 H 0.31747 0.52724 0.13809 0.0
H824 H 0.21649 0.50051 0.08776 0.0
H825 H 0.24574 0.5783 0.10631 0.0
H826 H 0.24187 0.47432 0.21058 0.0
H827 H 0.2648 0.4687 0.15706 0.0
H828 H 0.23045 0.46576 0.14315 0.0
H829 H 0.27422 0.56983 0.23604 0.0
H830 H 0.2747 0.59014 0.17592 0.0
H831 H 0.29897 0.56524 0.18556 0.0
C832 C 1.01003 0.2203 0.12966 0.0
C833 C 0.98512 0.22395 0.10739 0.0
C834 C 0.01851 0.23512 0.17475 0.0
C835 C 1.00148 0.25362 0.19857 0.0
C836 C 0.97606 0.25678 0.17707 0.0
C837 C 0.96831 0.2421 0.13154 0.0
C838 C 0.04587 0.23152 0.19588 0.0
C839 C 0.95702 0.27588 0.20186 0.0
C840 C 1.0045 0.27807 0.34389 0.0
C841 C 1.01042 0.3045 0.33579 0.0
C842 C 1.00383 0.26051 0.3 0.0
C843 C 1.00956 0.26952 0.24672 0.0
C844 C 0.01869 0.29536 0.2394 0.0
C845 C 0.01896 0.31265 0.28414 0.0
C846 C 0.99411 0.23317 0.30996 0.0
C847 C 0.02569 0.30553 0.18345 0.0
H848 H 0.02323 0.20655 0.1106 0.0
H849 H 0.94904 0.24499 0.1145 0.0
H850 H 0.05704 0.24979 0.18995 0.0
H851 H 0.04563 0.22743 0.24041 0.0
H852 H 0.05624 0.21541 0.17473 0.0
H853 H 0.93778 0.27547 0.18117 0.0
H854 H 0.95413 0.27143 0.24584 0.0
H855 H 0.96493 0.29595 0.19914 0.0
H856 H 0.99825 0.27153 0.38394 0.0
H857 H 0.02364 0.33299 0.27751 0.0
H858 H 1.00578 0.21875 0.28675 0.0
H859 H 0.97369 0.23162 0.29555 0.0
H860 H 0.99467 0.22793 0.35402 0.0
H861 H 0.03709 0.32387 0.18592 0.0
H862 H 1.0076 0.3095 0.16009 0.0
H863 H 0.03706 0.29086 0.16024 0.0
C864 C 0.69898 1.00603 0.23005 0.0
C865 C 0.70792 1.00892 0.17623 0.0
C866 C 0.71647 1.00694 0.27437 0.0
C867 C 0.74332 1.01125 0.26444 0.0
C868 C 0.75263 1.01147 0.21007 0.0
C869 C 0.73487 1.0099 0.16672 0.0
C870 C 0.70589 1.00557 0.33182 0.0
C871 C 0.78099 0.01627 0.19734 0.0
C872 C 0.77854 0.05399 0.3674 0.0
C873 C 0.79451 0.03601 0.39436 0.0
C874 C 0.76209 0.04615 0.32466 0.0
C875 C 0.76091 0.01948 0.30974 0.0
C876 C 0.777 1.00119 0.33694 0.0
C877 C 0.79394 1.00976 0.37844 0.0
C878 C 0.74585 0.06646 0.29568 0.0
C879 C 0.77569 0.97252 0.32347 0.0
H880 H 0.67825 1.00512 0.23791 0.0
H881 H 0.74204 1.01172 0.12521 0.0
H882 H 0.71891 0.99388 0.35845 0.0
H883 H 0.70483 0.02551 0.34923 0.0
H884 H 0.68607 0.99697 0.33281 0.0
H885 H 0.78561 1.01245 0.15369 0.0
H886 H 0.7858 0.03689 0.20655 0.0
H887 H 0.79372 1.0039 0.22314 0.0
H888 H 0.77889 0.07426 0.37991 0.0
H889 H 0.80588 0.99574 0.40012 0.0
H890 H 0.72487 0.06234 0.30185 0.0
H891 H 0.74964 0.06576 0.25103 0.0
H892 H 0.74993 0.0865 0.31057 0.0
H893 H 0.75585 0.9651 0.33228 0.0
H894 H 0.78997 0.96091 0.34734 0.0
H895 H 0.77934 0.96931 0.27929 0.0
C896 C 0.51452 0.7967 0.37394 0.0
C897 C 0.48844 0.79702 0.39076 0.0
C898 C 0.5229 0.77987 0.33204 0.0
C899 C 0.50458 0.76363 0.30539 0.0
C900 C 0.47805 0.76457 0.32118 0.0
C901 C 0.47041 0.78094 0.36426 0.0
C902 C 0.55143 0.77884 0.31756 0.0
C903 C 0.45771 0.74816 0.2928 0.0
C904 C 0.51362 0.7376 0.16213 0.0
C905 C 0.51522 0.71063 0.17162 0.0
C906 C 0.51193 0.75536 0.20549 0.0
C907 C 0.51263 0.74606 0.25987 0.0
C908 C 0.51742 0.71925 0.26973 0.0
C909 C 0.51845 0.70175 0.22541 0.0
C910 C 0.50663 0.78368 0.19285 0.0
C911 C 0.51925 0.7087 0.32717 0.0
H912 H 0.5286 0.80873 0.39523 0.0
H913 H 0.45027 0.78109 0.37744 0.0
H914 H 0.55912 0.75904 0.32595 0.0
H915 H 0.55421 0.7826 0.27331 0.0
H916 H 0.56308 0.79321 0.34113 0.0
H917 H 0.43778 0.75205 0.30839 0.0
H918 H 0.458 0.75201 0.24816 0.0
H919 H 0.4621 0.72719 0.29871 0.0
H920 H 0.51152 0.74474 0.12065 0.0
H921 H 0.51983 0.68101 0.23325 0.0
H922 H 0.51901 0.7966 0.21819 0.0
H923 H 0.48605 0.78824 0.20278 0.0
H924 H 0.51001 0.78833 0.14907 0.0
H925 H 0.53104 0.72181 0.3534 0.0
H926 H 0.52796 0.68889 0.328 0.0
H927 H 0.49947 0.70757 0.34518 0.0
C928 C 0.76224 0.50799 0.42558 0.0
C929 C 0.74281 0.48971 0.41389 0.0
C930 C 0.78033 0.51547 0.38563 0.0
C931 C 0.7794 0.5037 0.33334 0.0
C932 C 0.75966 0.48519 0.3214 0.0
C933 C 0.74131 0.47866 0.36177 0.0
C934 C 0.80057 0.53573 0.39955 0.0
C935 C 0.75839 0.47176 0.26652 0.0
C936 C 0.81151 0.53188 0.20679 0.0
C937 C 0.83373 0.51613 0.2022 0.0
C938 C 0.79447 0.52927 0.25133 0.0
C939 C 0.79948 0.51005 0.29149 0.0
C940 C 0.82284 0.49544 0.28914 0.0
C941 C 0.83987 0.49894 0.2449 0.0
C942 C 0.77023 0.54585 0.25337 0.0
C943 C 0.82883 0.47463 0.33093 0.0
H944 H 0.76323 0.51647 0.46616 0.0
H945 H 0.72633 0.46436 0.35322 0.0
H946 H 0.82026 0.52691 0.39808 0.0
H947 H 0.80016 0.55167 0.36893 0.0
H948 H 0.79754 0.54424 0.44084 0.0
H949 H 0.74186 0.45789 0.26373 0.0
H950 H 0.7564 0.4864 0.23345 0.0
H951 H 0.77675 0.46093 0.25906 0.0
H952 H 0.80667 0.54521 0.17396 0.0
H953 H 0.85686 0.48653 0.24147 0.0
H954 H 0.76727 0.55382 0.29509 0.0
H955 H 0.75302 0.5337 0.24337 0.0
H956 H 0.77106 0.56229 0.2239 0.0
H957 H 0.82726 0.48261 0.37292 0.0
H958 H 0.8486 0.46626 0.32558 0.0
H959 H 0.81437 0.45867 0.32734 0.0
C960 C 1.00313 0.82719 0.23401 0.0
C961 C 1.0094 0.81752 0.18201 0.0
C962 C 1.00239 0.81047 0.27967 0.0
C963 C 1.00862 0.78372 0.27311 0.0
C964 C 0.01262 0.77357 0.22003 0.0
C965 C 0.01249 0.79049 0.17518 0.0
C966 C 0.99694 0.82183 0.33539 0.0
C967 C 0.01977 0.74533 0.21094 0.0
C968 C 0.04693 0.75084 0.38644 0.0
C969 C 0.02868 0.73336 0.40778 0.0
C970 C 0.04051 0.76741 0.3429 0.0
C971 C 0.01489 0.76717 0.32142 0.0
C972 C 0.99617 0.74995 0.34374 0.0
C973 C 1.00344 0.73286 0.38609 0.0
C974 C 0.06135 0.78487 0.31931 0.0
C975 C 0.96845 0.7498 0.32331 0.0
H976 H 1.00051 0.84797 0.23975 0.0
H977 H 0.01689 0.78268 0.13503 0.0
H978 H 0.98465 0.80846 0.35991 0.0
H979 H 0.01554 0.82456 0.35768 0.0
H980 H 0.98707 0.84105 0.33245 0.0
H981 H 0.01953 0.73994 0.16694 0.0
H982 H 0.03962 0.74174 0.22718 0.0
H983 H 1.00629 0.73226 0.23319 0.0
H984 H 0.06643 0.75128 0.40338 0.0
H985 H 0.98917 0.71969 0.40341 0.0
H986 H 0.05545 0.80557 0.3231 0.0
H987 H 0.06386 0.78067 0.27509 0.0
H988 H 0.08042 0.7823 0.34001 0.0
H989 H 0.96015 0.76973 0.32581 0.0
H990 H 0.9559 0.73633 0.34708 0.0
H991 H 0.9679 0.74389 0.27971 0.0
C992 C 0.45133 0.0322 0.94859 0.0
C993 C 0.43388 0.01514 0.9742 0.0
C994 C 0.47744 0.03395 0.96573 0.0
C995 C 0.48665 0.01746 0.00806 0.0
C996 C 0.46903 1.00026 0.03418 0.0
C997 C 0.44279 0.99965 0.01759 0.0
C998 C 0.49524 0.05326 0.93809 0.0
C999 C 0.4781 0.98178 0.07825 0.0
C1000 C 0.56001 1.00488 0.01066 0.0
C1001 C 0.56804 0.02054 0.0545 0.0
C1002 C 0.53351 1.00308 0.99613 0.0
C1003 C 0.51472 0.01811 0.02471 0.0
C1004 C 0.52284 0.03408 0.06876 0.0
C1005 C 0.54926 0.03473 0.08369 0.0
C1006 C 0.52564 0.98513 0.95012 0.0
C1007 C 0.50373 0.05111 0.09917 0.0
H1008 H 0.44456 0.04415 0.91492 0.0
H1009 H 0.42951 0.98606 0.03685 0.0
H1010 H 0.50494 0.06568 0.96916 0.0
H1011 H 0.51073 0.04276 0.9155 0.0
H1012 H 0.48465 0.06602 0.9089 0.0
H1013 H 0.46204 0.96951 0.09433 0.0
H1014 H 0.49351 0.96882 0.06173 0.0
H1015 H 0.48678 0.99281 0.11273 0.0
H1016 H 0.57444 0.99388 0.98801 0.0
H1017 H 0.55538 0.04718 0.11712 0.0
H1018 H 0.51754 0.99665 0.91575 0.0
H1019 H 0.51013 0.97167 0.96415 0.0
H1020 H 0.54225 0.97341 0.93461 0.0
H1021 H 0.49411 0.06467 0.07017 0.0
H1022 H 0.51321 0.06273 0.13193 0.0
H1023 H 0.48826 0.039 0.11785 0.0
C1024 C 0.52759 0.44493 0.01389 0.0
C1025 C 0.5125 0.43599 0.96991 0.0
C1026 C 0.5268 0.47121 0.0304 0.0
C1027 C 0.50981 0.48883 0.00357 0.0
C1028 C 0.49373 0.47959 0.96058 0.0
C1029 C 0.49566 0.45345 0.94356 0.0
C1030 C 0.54486 0.48032 0.0752 0.0
C1031 C 0.47464 0.49739 0.93217 0.0
C1032 C 0.49171 0.55142 0.07865 0.0
C1033 C 0.50605 0.57028 0.05007 0.0
C1034 C 0.49257 0.52498 0.06368 0.0
C1035 C 0.50893 0.51692 0.02025 0.0
C1036 C 0.5241 0.5358 0.99232 0.0
C1037 C 0.52208 0.56232 0.00683 0.0
C1038 C 0.47537 0.50579 0.09333 0.0
C1039 C 0.54245 0.52798 0.94702 0.0
H1040 H 0.541 0.43164 0.03373 0.0
H1041 H 0.48403 0.44664 0.90943 0.0
H1042 H 0.55786 0.4958 0.05922 0.0
H1043 H 0.53353 0.48894 0.10927 0.0
H1044 H 0.55705 0.46426 0.09169 0.0
H1045 H 0.46219 0.48678 0.90243 0.0
H1046 H 0.46193 0.50707 0.96273 0.0
H1047 H 0.48528 0.51293 0.91005 0.0
H1048 H 0.47896 0.5575 0.11158 0.0
H1049 H 0.53319 0.5768 0.98465 0.0
H1050 H 0.48735 0.49031 0.11247 0.0
H1051 H 0.46211 0.49614 0.06376 0.0
H1052 H 0.46345 0.51524 0.12565 0.0
H1053 H 0.5558 0.51245 0.96152 0.0
H1054 H 0.55423 0.54465 0.93206 0.0
H1055 H 0.53126 0.51989 0.91215 0.0
C1056 C 0.96874 0.52056 0.01115 0.0
C1057 C 0.96046 0.50092 0.04696 0.0
C1058 C 0.99515 0.52302 0.99662 0.0
C1059 C 0.01366 0.50498 0.01721 0.0
C1060 C 1.00536 0.48515 0.05343 0.0
C1061 C 0.97899 0.48357 0.06834 0.0
C1062 C 1.00324 0.54482 0.9589 0.0
C1063 C 0.02423 0.46515 0.07536 0.0
C1064 C 0.0758 0.49649 0.93381 0.0
C1065 C 0.0939 0.51087 0.96436 0.0
C1066 C 0.04985 0.49384 0.9513 0.0
C1067 C 0.04155 0.50645 -0.00016 0.0
C1068 C 0.05986 0.52068 0.03129 0.0
C1069 C 0.08586 0.52245 0.01353 0.0
C1070 C 0.03121 0.47789 0.91728 0.0
C1071 C 0.05178 0.53482 0.0827 0.0
H1072 H 0.95456 0.53407 0.99458 0.0
H1073 H 0.97276 0.46816 0.09563 0.0
H1074 H 0.0191 0.55636 0.97795 0.0
H1075 H 1.01097 0.53662 0.92021 0.0
H1076 H 0.98684 0.5581 0.94899 0.0
H1077 H 0.01473 0.45103 0.10338 0.0
H1078 H 0.03309 0.45421 0.04092 0.0
H1079 H 0.04029 0.47492 0.09766 0.0
H1080 H 0.08186 0.4875 0.89576 0.0
H1081 H 0.09963 0.5339 0.03699 0.0
H1082 H 0.01567 0.49064 0.90067 0.0
H1083 H 0.02165 0.46293 0.94309 0.0
H1084 H 0.04106 0.468 0.88257 0.0
H1085 H 0.03678 0.54963 0.07267 0.0
H1086 H 0.0684 0.54471 0.10301 0.0
H1087 H 0.0429 0.52099 0.11209 0.0
C1088 C 0.02866 0.07317 0.94586 0.0
C1089 C 1.01178 0.09057 0.97225 0.0
C1090 C 0.03092 0.0471 0.96323 0.0
C1091 C 0.01512 0.03786 0.00663 0.0
C1092 C 0.9981 0.05544 0.03351 0.0
C1093 C 0.99699 0.08165 0.01665 0.0
C1094 C 0.05004 0.02936 0.93474 0.0
C1095 C 0.98033 0.04635 0.07877 0.0
C1096 C 1.00325 0.9643 0.01155 0.0
C1097 C 0.01941 0.95665 0.05484 0.0
C1098 C 1.00111 0.99073 0.9964 0.0
C1099 C 0.0163 1.00983 0.0237 0.0
C1100 C 0.03285 1.00207 0.06708 0.0
C1101 C 0.03383 0.97572 0.08271 0.0
C1102 C 0.98256 0.99822 0.95119 0.0
C1103 C 0.05009 0.02149 0.09607 0.0
H1104 H 0.04007 0.07994 0.91142 0.0
H1105 H 0.98355 0.09489 0.03655 0.0
H1106 H 0.06295 0.01989 0.96521 0.0
H1107 H 0.03944 0.01366 0.91297 0.0
H1108 H 0.06227 0.03998 0.90468 0.0
H1109 H 0.96806 0.06236 0.09521 0.0
H1110 H 0.96741 0.03067 0.06327 0.0
H1111 H 0.9919 0.03799 0.11279 0.0
H1112 H 0.99208 0.94965 0.9899 0.0
H1113 H 0.04668 0.96988 0.11568 0.0
H1114 H 0.99356 1.00631 0.91611 0.0
H1115 H 0.9691 0.01367 0.96567 0.0
H1116 H 0.97089 0.98139 0.93655 0.0
H1117 H 0.06307 0.03116 0.06606 0.0
H1118 H 0.06229 1.01224 0.12817 0.0
H1119 H 0.03809 0.03692 0.11536 0.0
C1120 C 0.06048 0.02174 0.48381 0.0
C1121 C 0.0684 1.0059 0.44018 0.0
C1122 C 0.03402 0.02359 0.49859 0.0
C1123 C 0.01516 1.00842 0.47053 0.0
C1124 C 0.02318 0.99224 0.42673 0.0
C1125 C 0.04956 0.99155 0.41151 0.0
C1126 C 0.02625 0.04177 0.54429 0.0
C1127 C 1.00402 0.97503 0.39691 0.0
C1128 C 0.95196 0.9946 0.54737 0.0
C1129 C 0.9344 1.01147 0.52141 0.0
C1130 C 0.97805 0.99285 0.53018 0.0
C1131 C 0.98714 1.00914 0.48743 0.0
C1132 C 0.96941 0.02616 0.46101 0.0
C1133 C 0.94319 0.02677 0.47766 0.0
C1134 C 0.99596 0.97371 0.55814 0.0
C1135 C 0.97834 0.04445 0.41649 0.0
H1136 H 0.07495 0.03286 0.50607 0.0
H1137 H 0.0556 0.97895 0.37826 0.0
H1138 H 1.01067 0.05515 0.53013 0.0
H1139 H 0.01827 0.03041 0.57899 0.0
H1140 H 0.04289 0.05356 0.55938 0.0
H1141 H 0.01344 0.96323 0.36437 0.0
H1142 H 0.99448 0.96165 0.42633 0.0
H1143 H 0.9885 0.98704 0.37804 0.0
H1144 H 0.94528 0.9828 0.58131 0.0
H1145 H 0.92982 0.04021 0.45812 0.0
H1146 H 1.01149 0.98435 0.58033 0.0
H1147 H 1.00561 0.96112 0.5273 0.0
H1148 H 0.98548 0.96111 0.58774 0.0
H1149 H 0.99381 0.05745 0.43258 0.0
H1150 H 0.96223 0.05667 0.40037 0.0
H1151 H 0.9869 0.03326 0.38212 0.0
C1152 C 0.49939 0.94451 0.47468 0.0
C1153 C 0.51509 0.93548 0.51761 0.0
C1154 C 0.50003 0.97079 0.45823 0.0
C1155 C 0.51747 0.98832 0.48401 0.0
C1156 C 0.53416 0.97898 0.52586 0.0
C1157 C 0.53239 0.95284 0.54288 0.0
C1158 C 0.48135 0.98001 0.41467 0.0
C1159 C 0.55371 0.99668 0.5531 0.0
C1160 C 0.5348 0.05091 0.40839 0.0
C1161 C 0.52099 0.06981 0.43808 0.0
C1162 C 0.53397 0.02444 0.42308 0.0
C1163 C 0.5182 0.01641 0.46745 0.0
C1164 C 0.50353 0.03533 0.4965 0.0
C1165 C 0.50551 0.06186 0.48218 0.0
C1166 C 0.55063 1.00519 0.39215 0.0
C1167 C 0.4858 0.02756 0.54287 0.0
H1168 H 0.48563 0.9313 0.45569 0.0
H1169 H 0.5445 0.94597 0.5762 0.0
H1170 H 0.46861 0.99551 0.4316 0.0
H1171 H 0.49219 0.98864 0.37996 0.0
H1172 H 0.4689 0.964 0.39884 0.0
H1173 H 0.56656 0.986 0.58197 0.0
H1174 H 0.566 1.00632 0.52177 0.0
H1175 H 0.54346 1.01226 0.57598 0.0
H1176 H 0.54713 0.05696 0.37477 0.0
H1177 H 0.49481 0.07638 0.50523 0.0
H1178 H 0.53831 0.98976 0.37381 0.0
H1179 H 0.56432 0.99548 0.42075 0.0
H1180 H 0.56206 0.01459 0.35906 0.0
H1181 H 0.4722 1.01209 0.5291 0.0
H1182 H 0.47428 0.04426 0.55865 0.0
H1183 H 0.49744 0.01939 0.57698 0.0
C1184 C 0.56931 0.52758 0.54968 0.0
C1185 C 0.58708 0.51109 0.52334 0.0
C1186 C 0.54343 0.52968 0.53138 0.0
C1187 C 0.53476 0.51405 0.48714 0.0
C1188 C 0.55267 0.49727 0.46057 0.0
C1189 C 0.57873 0.49638 0.47832 0.0
C1190 C 0.52533 0.54858 0.55955 0.0
C1191 C 0.54412 0.47962 0.41454 0.0
C1192 C 0.46132 0.50281 0.47888 0.0
C1193 C 0.45423 0.51936 0.43583 0.0
C1194 C 0.48757 0.50019 0.49479 0.0
C1195 C 0.507 0.51536 0.46863 0.0
C1196 C 0.4998 0.53226 0.42542 0.0
C1197 C 0.47364 0.53365 0.4089 0.0
C1198 C 0.49449 0.48125 0.53968 0.0
C1199 C 0.51959 0.54952 0.39774 0.0
H1200 H 0.57572 0.53893 0.58459 0.0
H1201 H 0.5923 0.48325 0.45851 0.0
H1202 H 0.51627 0.56175 0.529 0.0
H1203 H 0.50938 0.5378 0.57997 0.0
H1204 H 0.53553 0.56061 0.59068 0.0
H1205 H 0.56027 0.46732 0.39891 0.0
H1206 H 0.5282 0.46672 0.42888 0.0
H1207 H 0.53627 0.49133 0.3802 0.0
H1208 H 0.44638 0.49173 0.49974 0.0
H1209 H 0.46819 0.54679 0.37614 0.0
H1210 H 0.50207 0.49198 0.57567 0.0
H1211 H 0.51013 0.46791 0.52563 0.0
H1212 H 0.47751 0.46943 0.55282 0.0
H1213 H 0.52896 0.56237 0.42849 0.0
H1214 H 0.51078 0.56189 0.3654 0.0
H1215 H 0.53517 0.53751 0.37905 0.0
C1216 C 0.02696 0.55701 0.5911 0.0
C1217 C 0.01302 0.57599 0.56187 0.0
C1218 C 0.02613 0.53058 0.576 0.0
C1219 C 1.01031 0.52265 0.53159 0.0
C1220 C 0.9955 0.54163 0.50301 0.0
C1221 C 0.99741 0.56812 0.51784 0.0
C1222 C 0.04287 0.51126 0.60654 0.0
C1223 C 0.97777 0.53397 0.4565 0.0
C1224 C 0.02462 0.45952 0.45446 0.0
C1225 C 1.00721 0.44202 0.47889 0.0
C1226 C 0.02639 0.48555 0.47233 0.0
C1227 C 1.00968 0.49462 0.51436 0.0
C1228 C 0.99221 0.47693 0.53947 0.0
C1229 C 0.99149 0.45078 0.52204 0.0
C1230 C 0.04594 0.50343 0.44569 0.0
C1231 C 0.97356 0.48585 0.58334 0.0
H1232 H 0.03938 0.56297 0.62469 0.0
H1233 H 0.9866 0.58267 0.4951 0.0
H1234 H 0.03062 0.49563 0.62428 0.0
H1235 H 0.05668 0.50182 0.5778 0.0
H1236 H 0.05417 0.52054 0.64002 0.0
H1237 H 0.96619 0.5507 0.44102 0.0
H1238 H 0.98942 0.52595 0.42225 0.0
H1239 H 0.96421 0.51842 0.46998 0.0
H1240 H 0.03678 0.45288 0.42103 0.0
H1241 H 0.97768 0.43748 0.54049 0.0
H1242 H 0.05821 0.5129 0.47733 0.0
H1243 H 0.03566 0.51913 0.42323 0.0
H1244 H 0.0588 0.49294 0.41656 0.0
H1245 H 0.98442 0.49444 0.61814 0.0
H1246 H 0.96126 0.4697 0.59895 0.0
H1247 H 0.96068 0.50132 0.56678 0.0
loop_
_geom_bond_atom_site_label_1
_geom_bond_atom_site_label_2
_geom_bond_distance
_geom_bond_site_symmetry_2
_ccdc_geom_bond_type
O0 Cd1 2.223 . S
O0 C8 1.315 . S
Cd1 O0 2.223 . S
Cd1 O4 2.297 1_554 S
Cd1 O5 2.439 1_554 S
Cd1 O11 2.240 . S
Cd2 O3 2.240 . S
Cd2 O10 2.223 . S
Cd2 O12 2.297 . S
Cd2 O13 2.439 . S
O3 Cd2 2.240 . S
O3 C8 1.279 . S
O4 Cd1 2.297 1_556 S
O4 C6 1.247 . S
O5 Cd1 2.439 1_556 S
O5 C6 1.208 . S
C6 O4 1.247 . S
C6 O5 1.208 . S
C7 O12 1.247 . S
C7 O13 1.208 . S
C8 O0 1.315 . S
C8 O3 1.279 . S
C9 O10 1.315 . S
C9 O11 1.279 . S
O10 Cd2 2.223 . S
O10 C9 1.315 . S
O11 Cd1 2.240 . S
O11 C9 1.279 . S
O12 Cd2 2.297 . S
O12 C7 1.247 . S
O13 Cd2 2.439 . S
O13 C7 1.208 . S
O14 Cd15 2.223 . S
O14 C22 1.315 . S
Cd15 O14 2.223 . S
Cd15 O18 2.297 1_554 S
Cd15 O19 2.439 1_554 S
Cd15 O25 2.240 . S
Cd16 O17 2.240 . S
Cd16 O24 2.223 . S
Cd16 O26 2.297 . S
Cd16 O27 2.439 . S
O17 Cd16 2.240 . S
O17 C22 1.279 . S
O18 Cd15 2.297 1_556 S
O18 C20 1.247 . S
O19 Cd15 2.439 1_556 S
O19 C20 1.208 . S
C20 O18 1.247 . S
C20 O19 1.208 . S
C21 O26 1.247 . S
C21 O27 1.208 . S
C22 O14 1.315 . S
C22 O17 1.279 . S
C23 O24 1.315 . S
C23 O25 1.279 . S
O24 Cd16 2.223 . S
O24 C23 1.315 . S
O25 Cd15 2.240 . S
O25 C23 1.279 . S
O26 Cd16 2.297 . S
O26 C21 1.247 . S
O27 Cd16 2.439 . S
O27 C21 1.208 . S
O28 Cd29 2.223 . S
O28 C36 1.315 . S
Cd29 O28 2.223 . S
Cd29 O32 2.297 1_554 S
Cd29 O33 2.439 1_554 S
Cd29 O39 2.240 . S
Cd30 O31 2.240 . S
Cd30 O38 2.223 . S
Cd30 O40 2.297 . S
Cd30 O41 2.439 . S
O31 Cd30 2.240 . S
O31 C36 1.279 . S
O32 Cd29 2.297 1_556 S
O32 C34 1.247 . S
O33 Cd29 2.439 1_556 S
O33 C34 1.208 . S
C34 O32 1.247 . S
C34 O33 1.208 . S
C35 O40 1.247 . S
C35 O41 1.208 . S
C36 O28 1.315 . S
C36 O31 1.279 . S
C37 O38 1.315 . S
C37 O39 1.279 . S
O38 Cd30 2.223 . S
O38 C37 1.315 . S
O39 Cd29 2.240 . S
O39 C37 1.279 . S
O40 Cd30 2.297 . S
O40 C35 1.247 . S
O41 Cd30 2.439 . S
O41 C35 1.208 . S
O42 Cd43 2.223 . S
O42 C50 1.315 . S
Cd43 O42 2.223 . S
Cd43 O46 2.297 1_554 S
Cd43 O47 2.439 1_554 S
Cd43 O53 2.240 . S
Cd44 O45 2.240 . S
Cd44 O52 2.223 . S
Cd44 O54 2.297 . S
Cd44 O55 2.439 . S
O45 Cd44 2.240 . S
O45 C50 1.279 . S
O46 Cd43 2.297 1_556 S
O46 C48 1.247 . S
O47 Cd43 2.439 1_556 S
O47 C48 1.208 . S
C48 O46 1.247 . S
C48 O47 1.208 . S
C49 O54 1.247 . S
C49 O55 1.208 . S
C50 O42 1.315 . S
C50 O45 1.279 . S
C51 O52 1.315 . S
C51 O53 1.279 . S
O52 Cd44 2.223 . S
O52 C51 1.315 . S
O53 Cd43 2.240 . S
O53 C51 1.279 . S
O54 Cd44 2.297 . S
O54 C49 1.247 . S
O55 Cd44 2.439 . S
O55 C49 1.208 . S
O56 Cd57 2.223 . S
O56 C64 1.315 . S
Cd57 O56 2.223 . S
Cd57 O60 2.297 . S
Cd57 O61 2.439 . S
Cd57 O67 2.240 . S
Cd58 O59 2.240 . S
Cd58 O66 2.223 . S
Cd58 O68 2.297 . S
Cd58 O69 2.439 . S
O59 Cd58 2.240 . S
O59 C64 1.279 . S
O60 Cd57 2.297 . S
O60 C62 1.247 . S
O61 Cd57 2.439 . S
O61 C62 1.208 . S
C62 O60 1.247 . S
C62 O61 1.208 . S
C63 O68 1.247 . S
C63 O69 1.208 . S
C64 O56 1.315 . S
C64 O59 1.279 . S
C65 O66 1.315 . S
C65 O67 1.279 . S
O66 Cd58 2.223 . S
O66 C65 1.315 . S
O67 Cd57 2.240 . S
O67 C65 1.279 . S
O68 Cd58 2.297 . S
O68 C63 1.247 . S
O69 Cd58 2.439 . S
O69 C63 1.208 . S
O70 Cd71 2.223 . S
O70 C78 1.315 . S
Cd71 O70 2.223 . S
Cd71 O74 2.297 . S
Cd71 O75 2.439 . S
Cd71 O81 2.240 . S
Cd72 O73 2.240 . S
Cd72 O80 2.223 . S
Cd72 O82 2.297 . S
Cd72 O83 2.439 . S
O73 Cd72 2.240 . S
O73 C78 1.279 . S
O74 Cd71 2.297 . S
O74 C76 1.247 . S
O75 Cd71 2.439 . S
O75 C76 1.208 . S
C76 O74 1.247 . S
C76 O75 1.208 . S
C77 O82 1.247 . S
C77 O83 1.208 . S
C78 O70 1.315 . S
C78 O73 1.279 . S
C79 O80 1.315 . S
C79 O81 1.279 . S
O80 Cd72 2.223 . S
O80 C79 1.315 . S
O81 Cd71 2.240 . S
O81 C79 1.279 . S
O82 Cd72 2.297 . S
O82 C77 1.247 . S
O83 Cd72 2.439 . S
O83 C77 1.208 . S
O84 Cd85 2.223 . S
O84 C92 1.315 . S
Cd85 O84 2.223 . S
Cd85 O88 2.297 . S
Cd85 O89 2.439 . S
Cd85 O95 2.240 . S
Cd86 O87 2.240 . S
Cd86 O94 2.223 . S
Cd86 O96 2.297 . S
Cd86 O97 2.439 . S
O87 Cd86 2.240 . S
O87 C92 1.279 . S
O88 Cd85 2.297 . S
O88 C90 1.247 . S
O89 Cd85 2.439 . S
O89 C90 1.208 . S
C90 O88 1.247 . S
C90 O89 1.208 . S
C91 O96 1.247 . S
C91 O97 1.208 . S
C92 O84 1.315 . S
C92 O87 1.279 . S
C93 O94 1.315 . S
C93 O95 1.279 . S
O94 Cd86 2.223 . S
O94 C93 1.315 . S
O95 Cd85 2.240 . S
O95 C93 1.279 . S
O96 Cd86 2.297 . S
O96 C91 1.247 . S
O97 Cd86 2.439 . S
O97 C91 1.208 . S
O98 Cd99 2.223 . S
O98 C106 1.315 . S
Cd99 O98 2.223 . S
Cd99 O102 2.297 . S
Cd99 O103 2.439 . S
Cd99 O109 2.240 . S
Cd100 O101 2.240 . S
Cd100 O108 2.223 . S
Cd100 O110 2.297 . S
Cd100 O111 2.439 . S
O101 Cd100 2.240 . S
O101 C106 1.279 . S
O102 Cd99 2.297 . S
O102 C104 1.247 . S
O103 Cd99 2.439 . S
O103 C104 1.208 . S
C104 O102 1.247 . S
C104 O103 1.208 . S
C105 O110 1.247 . S
C105 O111 1.208 . S
C106 O98 1.315 . S
C106 O101 1.279 . S
C107 O108 1.315 . S
C107 O109 1.279 . S
O108 Cd100 2.223 . S
O108 C107 1.315 . S
O109 Cd99 2.240 . S
O109 C107 1.279 . S
O110 Cd100 2.297 . S
O110 C105 1.247 . S
O111 Cd100 2.439 . S
O111 C105 1.208 . S
O112 Cd113 2.223 . S
O112 C120 1.315 . S
Cd113 O112 2.223 . S
Cd113 O116 2.297 1_556 S
Cd113 O117 2.439 1_556 S
Cd113 O123 2.240 . S
Cd114 O115 2.240 . S
Cd114 O122 2.223 . S
Cd114 O124 2.297 . S
Cd114 O125 2.439 . S
O115 Cd114 2.240 . S
O115 C120 1.279 . S
O116 Cd113 2.297 1_554 S
O116 C118 1.247 . S
O117 Cd113 2.439 1_554 S
O117 C118 1.208 . S
C118 O116 1.247 . S
C118 O117 1.208 . S
C119 O124 1.247 . S
C119 O125 1.208 . S
C120 O112 1.315 . S
C120 O115 1.279 . S
C121 O122 1.315 . S
C121 O123 1.279 . S
O122 Cd114 2.223 . S
O122 C121 1.315 . S
O123 Cd113 2.240 . S
O123 C121 1.279 . S
O124 Cd114 2.297 . S
O124 C119 1.247 . S
O125 Cd114 2.439 . S
O125 C119 1.208 . S
O126 Cd127 2.223 . S
O126 C134 1.315 . S
Cd127 O126 2.223 . S
Cd127 O130 2.297 1_556 S
Cd127 O131 2.439 1_556 S
Cd127 O137 2.240 . S
Cd128 O129 2.240 . S
Cd128 O136 2.223 . S
Cd128 O138 2.297 . S
Cd128 O139 2.439 . S
O129 Cd128 2.240 . S
O129 C134 1.279 . S
O130 Cd127 2.297 1_554 S
O130 C132 1.247 . S
O131 Cd127 2.439 1_554 S
O131 C132 1.208 . S
C132 O130 1.247 . S
C132 O131 1.208 . S
C133 O138 1.247 . S
C133 O139 1.208 . S
C134 O126 1.315 . S
C134 O129 1.279 . S
C135 O136 1.315 . S
C135 O137 1.279 . S
O136 Cd128 2.223 . S
O136 C135 1.315 . S
O137 Cd127 2.240 . S
O137 C135 1.279 . S
O138 Cd128 2.297 . S
O138 C133 1.247 . S
O139 Cd128 2.439 . S
O139 C133 1.208 . S
O140 Cd141 2.223 . S
O140 C148 1.315 . S
Cd141 O140 2.223 . S
Cd141 O144 2.297 1_556 S
Cd141 O145 2.439 1_556 S
Cd141 O151 2.240 . S
Cd142 O143 2.240 . S
Cd142 O150 2.223 . S
Cd142 O152 2.297 . S
Cd142 O153 2.439 . S
O143 Cd142 2.240 . S
O143 C148 1.279 . S
O144 Cd141 2.297 1_554 S
O144 C146 1.247 . S
O145 Cd141 2.439 1_554 S
O145 C146 1.208 . S
C146 O144 1.247 . S
C146 O145 1.208 . S
C147 O152 1.247 . S
C147 O153 1.208 . S
C148 O140 1.315 . S
C148 O143 1.279 . S
C149 O150 1.315 . S
C149 O151 1.279 . S
O150 Cd142 2.223 . S
O150 C149 1.315 . S
O151 Cd141 2.240 . S
O151 C149 1.279 . S
O152 Cd142 2.297 . S
O152 C147 1.247 . S
O153 Cd142 2.439 . S
O153 C147 1.208 . S
O154 Cd155 2.223 . S
O154 C162 1.315 . S
Cd155 O154 2.223 . S
Cd155 O158 2.297 1_556 S
Cd155 O159 2.439 1_556 S
Cd155 O165 2.240 . S
Cd156 O157 2.240 . S
Cd156 O164 2.223 . S
Cd156 O166 2.297 . S
Cd156 O167 2.439 . S
O157 Cd156 2.240 . S
O157 C162 1.279 . S
O158 Cd155 2.297 1_554 S
O158 C160 1.247 . S
O159 Cd155 2.439 1_554 S
O159 C160 1.208 . S
C160 O158 1.247 . S
C160 O159 1.208 . S
C161 O166 1.247 . S
C161 O167 1.208 . S
C162 O154 1.315 . S
C162 O157 1.279 . S
C163 O164 1.315 . S
C163 O165 1.279 . S
O164 Cd156 2.223 . S
O164 C163 1.315 . S
O165 Cd155 2.240 . S
O165 C163 1.279 . S
O166 Cd156 2.297 . S
O166 C161 1.247 . S
O167 Cd156 2.439 . S
O167 C161 1.208 . S
O168 Cd169 2.223 . S
O168 C176 1.315 . S
Cd169 O168 2.223 . S
Cd169 O172 2.297 . S
Cd169 O173 2.439 . S
Cd169 O179 2.240 . S
Cd170 O171 2.240 . S
Cd170 O178 2.223 . S
Cd170 O180 2.297 . S
Cd170 O181 2.439 . S
O171 Cd170 2.240 . S
O171 C176 1.279 . S
O172 Cd169 2.297 . S
O172 C174 1.247 . S
O173 Cd169 2.439 . S
O173 C174 1.208 . S
C174 O172 1.247 . S
C174 O173 1.208 . S
C175 O180 1.247 . S
C175 O181 1.208 . S
C176 O168 1.315 . S
C176 O171 1.279 . S
C177 O178 1.315 . S
C177 O179 1.279 . S
O178 Cd170 2.223 . S
O178 C177 1.315 . S
O179 Cd169 2.240 . S
O179 C177 1.279 . S
O180 Cd170 2.297 . S
O180 C175 1.247 . S
O181 Cd170 2.439 . S
O181 C175 1.208 . S
O182 Cd183 2.223 . S
O182 C190 1.315 . S
Cd183 O182 2.223 . S
Cd183 O186 2.297 . S
Cd183 O187 2.439 . S
Cd183 O193 2.240 . S
Cd184 O185 2.240 . S
Cd184 O192 2.223 . S
Cd184 O194 2.297 . S
Cd184 O195 2.439 . S
O185 Cd184 2.240 . S
O185 C190 1.279 . S
O186 Cd183 2.297 . S
O186 C188 1.247 . S
O187 Cd183 2.439 . S
O187 C188 1.208 . S
C188 O186 1.247 . S
C188 O187 1.208 . S
C189 O194 1.247 . S
C189 O195 1.208 . S
C190 O182 1.315 . S
C190 O185 1.279 . S
C191 O192 1.315 . S
C191 O193 1.279 . S
O192 Cd184 2.223 . S
O192 C191 1.315 . S
O193 Cd183 2.240 . S
O193 C191 1.279 . S
O194 Cd184 2.297 . S
O194 C189 1.247 . S
O195 Cd184 2.439 . S
O195 C189 1.208 . S
O196 Cd197 2.223 . S
O196 C204 1.315 . S
Cd197 O196 2.223 . S
Cd197 O200 2.297 . S
Cd197 O201 2.439 . S
Cd197 O207 2.240 . S
Cd198 O199 2.240 . S
Cd198 O206 2.223 . S
Cd198 O208 2.297 . S
Cd198 O209 2.439 . S
O199 Cd198 2.240 . S
O199 C204 1.279 . S
O200 Cd197 2.297 . S
O200 C202 1.247 . S
O201 Cd197 2.439 . S
O201 C202 1.208 . S
C202 O200 1.247 . S
C202 O201 1.208 . S
C203 O208 1.247 . S
C203 O209 1.208 . S
C204 O196 1.315 . S
C204 O199 1.279 . S
C205 O206 1.315 . S
C205 O207 1.279 . S
O206 Cd198 2.223 . S
O206 C205 1.315 . S
O207 Cd197 2.240 . S
O207 C205 1.279 . S
O208 Cd198 2.297 . S
O208 C203 1.247 . S
O209 Cd198 2.439 . S
O209 C203 1.208 . S
O210 Cd211 2.223 . S
O210 C218 1.315 . S
Cd211 O210 2.223 . S
Cd211 O214 2.297 . S
Cd211 O215 2.439 . S
Cd211 O221 2.240 . S
Cd212 O213 2.240 . S
Cd212 O220 2.223 . S
Cd212 O222 2.297 . S
Cd212 O223 2.439 . S
O213 Cd212 2.240 . S
O213 C218 1.279 . S
O214 Cd211 2.297 . S
O214 C216 1.247 . S
O215 Cd211 2.439 . S
O215 C216 1.208 . S
C216 O214 1.247 . S
C216 O215 1.208 . S
C217 O222 1.247 . S
C217 O223 1.208 . S
C218 O210 1.315 . S
C218 O213 1.279 . S
C219 O220 1.315 . S
C219 O221 1.279 . S
O220 Cd212 2.223 . S
O220 C219 1.315 . S
O221 Cd211 2.240 . S
O221 C219 1.279 . S
O222 Cd212 2.297 . S
O222 C217 1.247 . S
O223 Cd212 2.439 . S
O223 C217 1.208 . S
C224 C225 1.391 . S
C224 C226 1.394 . S
C224 H240 0.931 . S
C225 C224 1.391 . S
C225 C229 1.376 . S
C226 C224 1.394 . S
C226 C227 1.369 . S
C226 C230 1.531 . S
C227 C226 1.369 . S
C227 C228 1.410 . S
C227 C235 1.503 . S
C228 C227 1.410 . S
C228 C229 1.392 . S
C228 C231 1.511 . S
C229 C225 1.376 . S
C229 C228 1.392 . S
C229 H241 0.929 . S
C230 C226 1.531 . S
C230 H242 0.960 . S
C230 H243 0.962 . S
C230 H244 0.960 . S
C231 C228 1.511 . S
C231 H245 0.961 . S
C231 H246 0.961 . S
C231 H247 0.961 . S
C232 C233 1.370 . S
C232 C234 1.363 . S
C232 H248 0.931 . S
C233 C232 1.370 . S
C233 C237 1.408 . S
C234 C232 1.363 . S
C234 C235 1.370 . S
C234 C238 1.524 . S
C235 C227 1.503 . S
C235 C234 1.370 . S
C235 C236 1.403 . S
C236 C235 1.403 . S
C236 C237 1.404 . S
C236 C239 1.539 . S
C237 C233 1.408 . S
C237 C236 1.404 . S
C237 H249 0.930 . S
C238 C234 1.524 . S
C238 H250 0.956 . S
C238 H251 0.961 . S
C238 H252 0.961 . S
C239 C236 1.539 . S
C239 H253 0.958 . S
C239 H254 0.961 . S
C239 H255 0.960 . S
H240 C224 0.931 . S
H241 C229 0.929 . S
H242 C230 0.960 . S
H243 C230 0.962 . S
H244 C230 0.960 . S
H245 C231 0.961 . S
H246 C231 0.961 . S
H247 C231 0.961 . S
H248 C232 0.931 . S
H249 C237 0.930 . S
H250 C238 0.956 . S
H251 C238 0.961 . S
H252 C238 0.961 . S
H253 C239 0.958 . S
H254 C239 0.961 . S
H255 C239 0.960 . S
C256 C257 1.391 . S
C256 C258 1.394 . S
C256 H272 0.931 . S
C257 C256 1.391 . S
C257 C261 1.376 . S
C258 C256 1.394 . S
C258 C259 1.369 . S
C258 C262 1.531 . S
C259 C258 1.369 . S
C259 C260 1.410 . S
C259 C267 1.503 . S
C260 C259 1.410 . S
C260 C261 1.392 . S
C260 C263 1.511 . S
C261 C257 1.376 . S
C261 C260 1.392 . S
C261 H273 0.929 . S
C262 C258 1.531 . S
C262 H274 0.960 . S
C262 H275 0.962 . S
C262 H276 0.960 . S
C263 C260 1.511 . S
C263 H277 0.961 . S
C263 H278 0.961 . S
C263 H279 0.961 . S
C264 C265 1.370 . S
C264 C266 1.363 . S
C264 H280 0.931 . S
C265 C264 1.370 . S
C265 C269 1.408 . S
C266 C264 1.363 . S
C266 C267 1.370 . S
C266 C270 1.524 . S
C267 C259 1.503 . S
C267 C266 1.370 . S
C267 C268 1.403 . S
C268 C267 1.403 . S
C268 C269 1.404 . S
C268 C271 1.539 . S
C269 C265 1.408 . S
C269 C268 1.404 . S
C269 H281 0.930 . S
C270 C266 1.524 . S
C270 H282 0.956 . S
C270 H283 0.961 . S
C270 H284 0.961 . S
C271 C268 1.539 . S
C271 H285 0.958 . S
C271 H286 0.961 . S
C271 H287 0.960 . S
H272 C256 0.931 . S
H273 C261 0.929 . S
H274 C262 0.960 . S
H275 C262 0.962 . S
H276 C262 0.960 . S
H277 C263 0.961 . S
H278 C263 0.961 . S
H279 C263 0.961 . S
H280 C264 0.931 . S
H281 C269 0.930 . S
H282 C270 0.956 . S
H283 C270 0.961 . S
H284 C270 0.961 . S
H285 C271 0.958 . S
H286 C271 0.961 . S
H287 C271 0.960 . S
C288 C289 1.391 . S
C288 C290 1.394 . S
C288 H304 0.931 . S
C289 C288 1.391 . S
C289 C293 1.376 . S
C290 C288 1.394 . S
C290 C291 1.369 . S
C290 C294 1.531 . S
C291 C290 1.369 . S
C291 C292 1.410 . S
C291 C299 1.503 . S
C292 C291 1.410 . S
C292 C293 1.392 . S
C292 C295 1.511 . S
C293 C289 1.376 . S
C293 C292 1.392 . S
C293 H305 0.929 . S
C294 C290 1.531 . S
C294 H306 0.960 . S
C294 H307 0.962 . S
C294 H308 0.960 . S
C295 C292 1.511 . S
C295 H309 0.961 . S
C295 H310 0.961 . S
C295 H311 0.961 . S
C296 C297 1.370 . S
C296 C298 1.363 . S
C296 H312 0.931 . S
C297 C296 1.370 . S
C297 C301 1.408 . S
C298 C296 1.363 . S
C298 C299 1.370 . S
C298 C302 1.524 . S
C299 C291 1.503 . S
C299 C298 1.370 . S
C299 C300 1.403 . S
C300 C299 1.403 . S
C300 C301 1.404 . S
C300 C303 1.539 . S
C301 C297 1.408 . S
C301 C300 1.404 . S
C301 H313 0.930 . S
C302 C298 1.524 . S
C302 H314 0.956 . S
C302 H315 0.961 . S
C302 H316 0.961 . S
C303 C300 1.539 . S
C303 H317 0.958 . S
C303 H318 0.961 . S
C303 H319 0.960 . S
H304 C288 0.931 . S
H305 C293 0.929 . S
H306 C294 0.960 . S
H307 C294 0.962 . S
H308 C294 0.960 . S
H309 C295 0.961 . S
H310 C295 0.961 . S
H311 C295 0.961 . S
H312 C296 0.931 . S
H313 C301 0.930 . S
H314 C302 0.956 . S
H315 C302 0.961 . S
H316 C302 0.961 . S
H317 C303 0.958 . S
H318 C303 0.961 . S
H319 C303 0.960 . S
C320 C321 1.391 . S
C320 C322 1.394 . S
C320 H336 0.931 . S
C321 C320 1.391 . S
C321 C325 1.376 . S
C322 C320 1.394 . S
C322 C323 1.369 . S
C322 C326 1.531 . S
C323 C322 1.369 . S
C323 C324 1.410 . S
C323 C331 1.503 . S
C324 C323 1.410 . S
C324 C325 1.392 . S
C324 C327 1.511 . S
C325 C321 1.376 . S
C325 C324 1.392 . S
C325 H337 0.929 . S
C326 C322 1.531 . S
C326 H338 0.960 . S
C326 H339 0.962 . S
C326 H340 0.960 . S
C327 C324 1.511 . S
C327 H341 0.961 . S
C327 H342 0.961 . S
C327 H343 0.961 . S
C328 C329 1.370 . S
C328 C330 1.363 . S
C328 H344 0.931 . S
C329 C328 1.370 . S
C329 C333 1.408 . S
C330 C328 1.363 . S
C330 C331 1.370 . S
C330 C334 1.524 . S
C331 C323 1.503 . S
C331 C330 1.370 . S
C331 C332 1.403 . S
C332 C331 1.403 . S
C332 C333 1.404 . S
C332 C335 1.539 . S
C333 C329 1.408 . S
C333 C332 1.404 . S
C333 H345 0.930 . S
C334 C330 1.524 . S
C334 H346 0.956 . S
C334 H347 0.961 . S
C334 H348 0.961 . S
C335 C332 1.539 . S
C335 H349 0.958 . S
C335 H350 0.961 . S
C335 H351 0.960 . S
H336 C320 0.931 . S
H337 C325 0.929 . S
H338 C326 0.960 . S
H339 C326 0.962 . S
H340 C326 0.960 . S
H341 C327 0.961 . S
H342 C327 0.961 . S
H343 C327 0.961 . S
H344 C328 0.931 . S
H345 C333 0.930 . S
H346 C334 0.956 . S
H347 C334 0.961 . S
H348 C334 0.961 . S
H349 C335 0.958 . S
H350 C335 0.961 . S
H351 C335 0.960 . S
C352 C353 1.391 . S
C352 C354 1.394 . S
C352 H368 0.931 . S
C353 C352 1.391 . S
C353 C357 1.376 . S
C354 C352 1.394 . S
C354 C355 1.369 . S
C354 C358 1.531 . S
C355 C354 1.369 . S
C355 C356 1.410 . S
C355 C363 1.503 . S
C356 C355 1.410 . S
C356 C357 1.392 . S
C356 C359 1.511 . S
C357 C353 1.376 . S
C357 C356 1.392 . S
C357 H369 0.929 . S
C358 C354 1.531 . S
C358 H370 0.960 . S
C358 H371 0.962 . S
C358 H372 0.960 . S
C359 C356 1.511 . S
C359 H373 0.961 . S
C359 H374 0.961 . S
C359 H375 0.961 . S
C360 C361 1.370 . S
C360 C362 1.363 . S
C360 H376 0.931 . S
C361 C360 1.370 . S
C361 C365 1.408 . S
C362 C360 1.363 . S
C362 C363 1.370 . S
C362 C366 1.524 . S
C363 C355 1.503 . S
C363 C362 1.370 . S
C363 C364 1.403 . S
C364 C363 1.403 . S
C364 C365 1.404 . S
C364 C367 1.539 . S
C365 C361 1.408 . S
C365 C364 1.404 . S
C365 H377 0.930 . S
C366 C362 1.524 . S
C366 H378 0.956 . S
C366 H379 0.961 . S
C366 H380 0.961 . S
C367 C364 1.539 . S
C367 H381 0.958 . S
C367 H382 0.961 . S
C367 H383 0.960 . S
H368 C352 0.931 . S
H369 C357 0.929 . S
H370 C358 0.960 . S
H371 C358 0.962 . S
H372 C358 0.960 . S
H373 C359 0.961 . S
H374 C359 0.961 . S
H375 C359 0.961 . S
H376 C360 0.931 . S
H377 C365 0.930 . S
H378 C366 0.956 . S
H379 C366 0.961 . S
H380 C366 0.961 . S
H381 C367 0.958 . S
H382 C367 0.961 . S
H383 C367 0.960 . S
C384 C385 1.391 . S
C384 C386 1.394 . S
C384 H400 0.931 . S
C385 C384 1.391 . S
C385 C389 1.376 . S
C386 C384 1.394 . S
C386 C387 1.369 . S
C386 C390 1.531 . S
C387 C386 1.369 . S
C387 C388 1.410 . S
C387 C395 1.503 . S
C388 C387 1.410 . S
C388 C389 1.392 . S
C388 C391 1.511 . S
C389 C385 1.376 . S
C389 C388 1.392 . S
C389 H401 0.929 . S
C390 C386 1.531 . S
C390 H402 0.960 . S
C390 H403 0.962 . S
C390 H404 0.960 . S
C391 C388 1.511 . S
C391 H405 0.961 . S
C391 H406 0.961 . S
C391 H407 0.961 . S
C392 C393 1.370 . S
C392 C394 1.363 . S
C392 H408 0.931 . S
C393 C392 1.370 . S
C393 C397 1.408 . S
C394 C392 1.363 . S
C394 C395 1.370 . S
C394 C398 1.524 . S
C395 C387 1.503 . S
C395 C394 1.370 . S
C395 C396 1.403 . S
C396 C395 1.403 . S
C396 C397 1.404 . S
C396 C399 1.539 . S
C397 C393 1.408 . S
C397 C396 1.404 . S
C397 H409 0.930 . S
C398 C394 1.524 . S
C398 H410 0.956 . S
C398 H411 0.961 . S
C398 H412 0.961 . S
C399 C396 1.539 . S
C399 H413 0.958 . S
C399 H414 0.961 . S
C399 H415 0.960 . S
H400 C384 0.931 . S
H401 C389 0.929 . S
H402 C390 0.960 . S
H403 C390 0.962 . S
H404 C390 0.960 . S
H405 C391 0.961 . S
H406 C391 0.961 . S
H407 C391 0.961 . S
H408 C392 0.931 . S
H409 C397 0.930 . S
H410 C398 0.956 . S
H411 C398 0.961 . S
H412 C398 0.961 . S
H413 C399 0.958 . S
H414 C399 0.961 . S
H415 C399 0.960 . S
C416 C417 1.391 . S
C416 C418 1.394 . S
C416 H432 0.931 . S
C417 C416 1.391 . S
C417 C421 1.376 . S
C418 C416 1.394 . S
C418 C419 1.369 . S
C418 C422 1.531 . S
C419 C418 1.369 . S
C419 C420 1.410 . S
C419 C427 1.503 . S
C420 C419 1.410 . S
C420 C421 1.392 . S
C420 C423 1.511 . S
C421 C417 1.376 . S
C421 C420 1.392 . S
C421 H433 0.929 . S
C422 C418 1.531 . S
C422 H434 0.960 . S
C422 H435 0.962 . S
C422 H436 0.960 . S
C423 C420 1.511 . S
C423 H437 0.961 . S
C423 H438 0.961 . S
C423 H439 0.961 . S
C424 C425 1.370 . S
C424 C426 1.363 . S
C424 H440 0.931 . S
C425 C424 1.370 . S
C425 C429 1.408 . S
C426 C424 1.363 . S
C426 C427 1.370 . S
C426 C430 1.524 . S
C427 C419 1.503 . S
C427 C426 1.370 . S
C427 C428 1.403 . S
C428 C427 1.403 . S
C428 C429 1.404 . S
C428 C431 1.539 . S
C429 C425 1.408 . S
C429 C428 1.404 . S
C429 H441 0.930 . S
C430 C426 1.524 . S
C430 H442 0.956 . S
C430 H443 0.961 . S
C430 H444 0.961 . S
C431 C428 1.539 . S
C431 H445 0.958 . S
C431 H446 0.961 . S
C431 H447 0.960 . S
H432 C416 0.931 . S
H433 C421 0.929 . S
H434 C422 0.960 . S
H435 C422 0.962 . S
H436 C422 0.960 . S
H437 C423 0.961 . S
H438 C423 0.961 . S
H439 C423 0.961 . S
H440 C424 0.931 . S
H441 C429 0.930 . S
H442 C430 0.956 . S
H443 C430 0.961 . S
H444 C430 0.961 . S
H445 C431 0.958 . S
H446 C431 0.961 . S
H447 C431 0.960 . S
C448 C449 1.391 . S
C448 C450 1.394 . S
C448 H464 0.931 . S
C449 C448 1.391 . S
C449 C453 1.376 . S
C450 C448 1.394 . S
C450 C451 1.369 . S
C450 C454 1.531 . S
C451 C450 1.369 . S
C451 C452 1.410 . S
C451 C459 1.503 . S
C452 C451 1.410 . S
C452 C453 1.392 . S
C452 C455 1.511 . S
C453 C449 1.376 . S
C453 C452 1.392 . S
C453 H465 0.929 . S
C454 C450 1.531 . S
C454 H466 0.960 . S
C454 H467 0.962 . S
C454 H468 0.960 . S
C455 C452 1.511 . S
C455 H469 0.961 . S
C455 H470 0.961 . S
C455 H471 0.961 . S
C456 C457 1.370 . S
C456 C458 1.363 . S
C456 H472 0.931 . S
C457 C456 1.370 . S
C457 C461 1.408 . S
C458 C456 1.363 . S
C458 C459 1.370 . S
C458 C462 1.524 . S
C459 C451 1.503 . S
C459 C458 1.370 . S
C459 C460 1.403 . S
C460 C459 1.403 . S
C460 C461 1.404 . S
C460 C463 1.539 . S
C461 C457 1.408 . S
C461 C460 1.404 . S
C461 H473 0.930 . S
C462 C458 1.524 . S
C462 H474 0.956 . S
C462 H475 0.961 . S
C462 H476 0.961 . S
C463 C460 1.539 . S
C463 H477 0.958 . S
C463 H478 0.961 . S
C463 H479 0.960 . S
H464 C448 0.931 . S
H465 C453 0.929 . S
H466 C454 0.960 . S
H467 C454 0.962 . S
H468 C454 0.960 . S
H469 C455 0.961 . S
H470 C455 0.961 . S
H471 C455 0.961 . S
H472 C456 0.931 . S
H473 C461 0.930 . S
H474 C462 0.956 . S
H475 C462 0.961 . S
H476 C462 0.961 . S
H477 C463 0.958 . S
H478 C463 0.961 . S
H479 C463 0.960 . S
C480 C481 1.391 . S
C480 C482 1.394 . S
C480 H496 0.931 . S
C481 C480 1.391 . S
C481 C485 1.376 . S
C482 C480 1.394 . S
C482 C483 1.369 . S
C482 C486 1.531 . S
C483 C482 1.369 . S
C483 C484 1.410 . S
C483 C491 1.503 . S
C484 C483 1.410 . S
C484 C485 1.392 . S
C484 C487 1.511 . S
C485 C481 1.376 . S
C485 C484 1.392 . S
C485 H497 0.929 . S
C486 C482 1.531 . S
C486 H498 0.960 . S
C486 H499 0.962 . S
C486 H500 0.960 . S
C487 C484 1.511 . S
C487 H501 0.961 . S
C487 H502 0.961 . S
C487 H503 0.993 . S
C488 C489 1.370 . S
C488 C490 1.363 . S
C488 H504 0.931 . S
C489 C488 1.370 . S
C489 C493 1.442 . S
C490 C488 1.363 . S
C490 C491 1.370 . S
C490 C494 1.524 . S
C491 C483 1.503 . S
C491 C490 1.370 . S
C491 C492 1.403 . S
C492 C491 1.403 . S
C492 C493 1.406 . S
C492 C495 1.539 1_545 S
C493 C489 1.442 . S
C493 C492 1.406 . S
C493 H505 0.896 1_545 S
C494 C490 1.524 . S
C494 H506 0.956 . S
C494 H507 0.961 . S
C494 H508 0.961 . S
C495 C492 1.539 1_565 S
C495 H509 0.958 . S
C495 H510 0.961 . S
C495 H511 0.960 . S
H496 C480 0.931 . S
H497 C485 0.929 . S
H498 C486 0.960 . S
H499 C486 0.962 . S
H500 C486 0.960 . S
H501 C487 0.961 . S
H502 C487 0.961 . S
H503 C487 0.993 . S
H504 C488 0.931 . S
H505 C493 0.896 1_565 S
H506 C494 0.956 . S
H507 C494 0.961 . S
H508 C494 0.961 . S
H509 C495 0.958 . S
H510 C495 0.961 . S
H511 C495 0.960 . S
C512 C513 1.391 . S
C512 C514 1.394 . S
C512 H528 0.931 . S
C513 C512 1.391 . S
C513 C517 1.376 . S
C514 C512 1.394 . S
C514 C515 1.369 . S
C514 C518 1.531 . S
C515 C514 1.369 . S
C515 C516 1.410 . S
C515 C523 1.503 . S
C516 C515 1.410 . S
C516 C517 1.392 . S
C516 C519 1.511 . S
C517 C513 1.376 . S
C517 C516 1.392 . S
C517 H529 0.929 . S
C518 C514 1.531 . S
C518 H530 0.960 . S
C518 H531 0.962 . S
C518 H532 0.960 . S
C519 C516 1.511 . S
C519 H533 0.961 . S
C519 H534 0.961 . S
C519 H535 0.961 . S
C520 C521 1.370 . S
C520 C522 1.363 . S
C520 H536 0.931 . S
C521 C520 1.370 . S
C521 C525 1.408 . S
C522 C520 1.363 . S
C522 C523 1.370 . S
C522 C526 1.524 . S
C523 C515 1.503 . S
C523 C522 1.370 . S
C523 C524 1.403 . S
C524 C523 1.403 . S
C524 C525 1.404 . S
C524 C527 1.539 . S
C525 C521 1.408 . S
C525 C524 1.404 . S
C525 H537 0.930 . S
C526 C522 1.524 . S
C526 H538 0.956 . S
C526 H539 0.961 . S
C526 H540 0.961 . S
C527 C524 1.539 . S
C527 H541 0.958 . S
C527 H542 0.961 . S
C527 H543 0.960 . S
H528 C512 0.931 . S
H529 C517 0.929 . S
H530 C518 0.960 . S
H531 C518 0.962 . S
H532 C518 0.960 . S
H533 C519 0.961 . S
H534 C519 0.961 . S
H535 C519 0.961 . S
H536 C520 0.931 . S
H537 C525 0.930 . S
H538 C526 0.956 . S
H539 C526 0.961 . S
H540 C526 0.961 . S
H541 C527 0.958 . S
H542 C527 0.961 . S
H543 C527 0.960 . S
C544 C545 1.391 . S
C544 C546 1.394 . S
C544 H560 0.931 . S
C545 C544 1.391 . S
C545 C549 1.376 . S
C546 C544 1.394 . S
C546 C547 1.369 . S
C546 C550 1.531 . S
C547 C546 1.369 . S
C547 C548 1.410 . S
C547 C555 1.503 . S
C548 C547 1.410 . S
C548 C549 1.392 . S
C548 C551 1.511 . S
C549 C545 1.376 . S
C549 C548 1.392 . S
C549 H561 0.929 . S
C550 C546 1.531 . S
C550 H562 0.960 . S
C550 H563 0.962 . S
C550 H564 0.960 . S
C551 C548 1.511 . S
C551 H565 0.961 . S
C551 H566 0.961 . S
C551 H567 0.961 . S
C552 C553 1.370 . S
C552 C554 1.363 . S
C552 H568 0.931 . S
C553 C552 1.370 . S
C553 C557 1.408 . S
C554 C552 1.363 . S
C554 C555 1.370 . S
C554 C558 1.524 . S
C555 C547 1.503 . S
C555 C554 1.370 . S
C555 C556 1.403 . S
C556 C555 1.403 . S
C556 C557 1.404 . S
C556 C559 1.539 . S
C557 C553 1.408 . S
C557 C556 1.404 . S
C557 H569 0.930 . S
C558 C554 1.524 . S
C558 H570 0.956 . S
C558 H571 0.961 . S
C558 H572 0.961 . S
C559 C556 1.539 . S
C559 H573 0.958 . S
C559 H574 0.961 . S
C559 H575 0.960 . S
H560 C544 0.931 . S
H561 C549 0.929 . S
H562 C550 0.960 . S
H563 C550 0.962 . S
H564 C550 0.960 . S
H565 C551 0.961 . S
H566 C551 0.961 . S
H567 C551 0.961 . S
H568 C552 0.931 . S
H569 C557 0.930 . S
H570 C558 0.956 . S
H571 C558 0.961 . S
H572 C558 0.961 . S
H573 C559 0.958 . S
H574 C559 0.961 . S
H575 C559 0.960 . S
C576 C577 1.391 . S
C576 C578 1.394 . S
C576 H592 0.931 . S
C577 C576 1.391 . S
C577 C581 1.376 . S
C578 C576 1.394 . S
C578 C579 1.369 . S
C578 C582 1.531 . S
C579 C578 1.369 . S
C579 C580 1.410 . S
C579 C587 1.503 . S
C580 C579 1.410 . S
C580 C581 1.392 . S
C580 C583 1.511 1_455 S
C581 C577 1.376 . S
C581 C580 1.392 . S
C581 H593 0.929 . S
C582 C578 1.531 . S
C582 H594 0.960 . S
C582 H595 0.962 . S
C582 H596 0.960 . S
C583 C580 1.511 1_655 S
C583 H597 0.961 . S
C583 H598 0.961 . S
C583 H599 0.961 . S
C584 C585 1.370 . S
C584 C586 1.363 . S
C584 H600 0.931 . S
C585 C584 1.370 . S
C585 C589 1.408 . S
C586 C584 1.363 . S
C586 C587 1.370 . S
C586 C590 1.524 . S
C587 C579 1.503 . S
C587 C586 1.370 . S
C587 C588 1.403 . S
C588 C587 1.403 . S
C588 C589 1.404 . S
C588 C591 1.539 . S
C589 C585 1.408 . S
C589 C588 1.404 . S
C589 H601 0.930 . S
C590 C586 1.524 . S
C590 H602 0.956 . S
C590 H603 0.961 1_455 S
C590 H604 0.961 1_455 S
C591 C588 1.539 . S
C591 H605 0.958 . S
C591 H606 0.961 . S
C591 H607 0.960 . S
H592 C576 0.931 . S
H593 C581 0.929 . S
H594 C582 0.960 . S
H595 C582 0.962 . S
H596 C582 0.960 . S
H597 C583 0.961 . S
H598 C583 0.961 . S
H599 C583 0.961 . S
H600 C584 0.931 . S
H601 C589 0.930 . S
H602 C590 0.956 . S
H603 C590 0.961 1_655 S
H604 C590 0.961 1_655 S
H605 C591 0.958 . S
H606 C591 0.961 . S
H607 C591 0.960 . S
C608 C609 1.391 . S
C608 C610 1.394 . S
C608 H624 0.931 . S
C609 C608 1.391 . S
C609 C613 1.376 . S
C610 C608 1.394 . S
C610 C611 1.369 . S
C610 C614 1.531 . S
C611 C610 1.369 . S
C611 C612 1.410 . S
C611 C619 1.503 . S
C612 C611 1.410 . S
C612 C613 1.392 . S
C612 C615 1.511 . S
C613 C609 1.376 . S
C613 C612 1.392 . S
C613 H625 0.929 . S
C614 C610 1.531 . S
C614 H626 0.960 . S
C614 H627 0.962 . S
C614 H628 0.960 . S
C615 C612 1.511 . S
C615 H629 0.961 1_565 S
C615 H630 0.961 1_565 S
C615 H631 0.961 . S
C616 C617 1.370 . S
C616 C618 1.363 . S
C616 H632 0.931 . S
C617 C616 1.370 . S
C617 C621 1.408 . S
C618 C616 1.363 . S
C618 C619 1.370 . S
C618 C622 1.529 . S
C619 C611 1.503 . S
C619 C618 1.370 . S
C619 C620 1.403 . S
C620 C619 1.403 . S
C620 C621 1.404 . S
C620 C623 1.539 . S
C621 C617 1.408 . S
C621 C620 1.404 . S
C621 H633 0.930 . S
C622 C618 1.529 . S
C622 H634 0.962 . S
C622 H635 0.956 1_565 S
C622 H636 0.954 1_565 S
C623 C620 1.539 . S
C623 H637 0.958 . S
C623 H638 0.961 . S
C623 H639 0.960 . S
H624 C608 0.931 . S
H625 C613 0.929 . S
H626 C614 0.960 . S
H627 C614 0.962 . S
H628 C614 0.960 . S
H629 C615 0.961 1_545 S
H630 C615 0.961 1_545 S
H631 C615 0.961 . S
H632 C616 0.931 . S
H633 C621 0.930 . S
H634 C622 0.962 . S
H635 C622 0.956 1_545 S
H636 C622 0.954 1_545 S
H637 C623 0.958 . S
H638 C623 0.961 . S
H639 C623 0.960 . S
C640 C641 1.391 . S
C640 C642 1.394 . S
C640 H656 0.931 . S
C641 C640 1.391 . S
C641 C645 1.376 . S
C642 C640 1.394 . S
C642 C643 1.369 . S
C642 C646 1.531 . S
C643 C642 1.369 . S
C643 C644 1.410 . S
C643 C651 1.503 . S
C644 C643 1.410 . S
C644 C645 1.392 . S
C644 C647 1.511 . S
C645 C641 1.376 . S
C645 C644 1.392 . S
C645 H657 0.929 . S
C646 C642 1.531 . S
C646 H658 0.960 . S
C646 H659 0.962 . S
C646 H660 0.960 . S
C647 C644 1.511 . S
C647 H661 0.961 . S
C647 H662 0.961 . S
C647 H663 0.961 . S
C648 C649 1.370 . S
C648 C650 1.363 . S
C648 H664 0.931 . S
C649 C648 1.370 . S
C649 C653 1.408 . S
C650 C648 1.363 . S
C650 C651 1.370 . S
C650 C654 1.524 . S
C651 C643 1.503 . S
C651 C650 1.370 . S
C651 C652 1.403 . S
C652 C651 1.403 . S
C652 C653 1.404 . S
C652 C655 1.539 . S
C653 C649 1.408 . S
C653 C652 1.404 . S
C653 H665 0.930 . S
C654 C650 1.524 . S
C654 H666 0.956 . S
C654 H667 0.961 . S
C654 H668 0.961 . S
C655 C652 1.539 . S
C655 H669 0.958 . S
C655 H670 0.961 . S
C655 H671 0.960 . S
H656 C640 0.931 . S
H657 C645 0.929 . S
H658 C646 0.960 . S
H659 C646 0.962 . S
H660 C646 0.960 . S
H661 C647 0.961 . S
H662 C647 0.961 . S
H663 C647 0.961 . S
H664 C648 0.931 . S
H665 C653 0.930 . S
H666 C654 0.956 . S
H667 C654 0.961 . S
H668 C654 0.961 . S
H669 C655 0.958 . S
H670 C655 0.961 . S
H671 C655 0.960 . S
C672 C673 1.391 . S
C672 C674 1.394 . S
C672 H688 0.931 . S
C673 C672 1.391 . S
C673 C677 1.376 . S
C674 C672 1.394 . S
C674 C675 1.369 . S
C674 C678 1.531 . S
C675 C674 1.369 . S
C675 C676 1.410 . S
C675 C683 1.503 . S
C676 C675 1.410 . S
C676 C677 1.392 . S
C676 C679 1.511 . S
C677 C673 1.376 . S
C677 C676 1.392 . S
C677 H689 0.929 . S
C678 C674 1.531 . S
C678 H690 0.960 . S
C678 H691 0.962 . S
C678 H692 0.960 . S
C679 C676 1.511 . S
C679 H693 0.961 . S
C679 H694 0.961 . S
C679 H695 0.961 . S
C680 C681 1.370 . S
C680 C682 1.363 . S
C680 H696 0.931 . S
C681 C680 1.370 . S
C681 C685 1.408 . S
C682 C680 1.363 . S
C682 C683 1.370 . S
C682 C686 1.524 . S
C683 C675 1.503 . S
C683 C682 1.370 . S
C683 C684 1.403 . S
C684 C683 1.403 . S
C684 C685 1.404 . S
C684 C687 1.539 . S
C685 C681 1.408 . S
C685 C684 1.404 . S
C685 H697 0.930 . S
C686 C682 1.524 . S
C686 H698 0.956 . S
C686 H699 0.961 . S
C686 H700 0.961 . S
C687 C684 1.539 . S
C687 H701 0.958 . S
C687 H702 0.961 . S
C687 H703 0.960 . S
H688 C672 0.931 . S
H689 C677 0.929 . S
H690 C678 0.960 . S
H691 C678 0.962 . S
H692 C678 0.960 . S
H693 C679 0.961 . S
H694 C679 0.961 . S
H695 C679 0.961 . S
H696 C680 0.931 . S
H697 C685 0.930 . S
H698 C686 0.956 . S
H699 C686 0.961 . S
H700 C686 0.961 . S
H701 C687 0.958 . S
H702 C687 0.961 . S
H703 C687 0.960 . S
C704 C705 1.391 . S
C704 C706 1.394 . S
C704 H720 0.931 . S
C705 C704 1.391 . S
C705 C709 1.376 . S
C706 C704 1.394 . S
C706 C707 1.369 . S
C706 C710 1.531 1_655 S
C707 C706 1.369 . S
C707 C708 1.410 . S
C707 C715 1.503 . S
C708 C707 1.410 . S
C708 C709 1.392 . S
C708 C711 1.511 . S
C709 C705 1.376 . S
C709 C708 1.392 . S
C709 H721 0.929 . S
C710 C706 1.531 1_455 S
C710 H722 0.960 . S
C710 H723 0.962 . S
C710 H724 0.960 . S
C711 C708 1.511 . S
C711 H725 0.961 . S
C711 H726 0.961 . S
C711 H727 0.961 . S
C712 C713 1.370 . S
C712 C714 1.363 . S
C712 H728 0.931 . S
C713 C712 1.370 . S
C713 C717 1.408 . S
C714 C712 1.363 . S
C714 C715 1.370 . S
C714 C718 1.524 . S
C715 C707 1.503 . S
C715 C714 1.370 . S
C715 C716 1.403 . S
C716 C715 1.403 . S
C716 C717 1.404 . S
C716 C719 1.539 . S
C717 C713 1.408 . S
C717 C716 1.404 . S
C717 H729 0.930 . S
C718 C714 1.524 . S
C718 H730 0.956 1_655 S
C718 H731 0.961 . S
C718 H732 0.961 . S
C719 C716 1.539 . S
C719 H733 0.958 . S
C719 H734 0.961 . S
C719 H735 0.960 . S
H720 C704 0.931 . S
H721 C709 0.929 . S
H722 C710 0.960 . S
H723 C710 0.962 . S
H724 C710 0.960 . S
H725 C711 0.961 . S
H726 C711 0.961 . S
H727 C711 0.961 . S
H728 C712 0.931 . S
H729 C717 0.930 . S
H730 C718 0.956 1_455 S
H731 C718 0.961 . S
H732 C718 0.961 . S
H733 C719 0.958 . S
H734 C719 0.961 . S
H735 C719 0.960 . S
C736 C737 1.391 . S
C736 C738 1.394 . S
C736 H752 0.931 . S
C737 C736 1.391 . S
C737 C741 1.376 . S
C738 C736 1.394 . S
C738 C739 1.369 . S
C738 C742 1.531 . S
C739 C738 1.369 . S
C739 C740 1.410 . S
C739 C747 1.503 . S
C740 C739 1.410 . S
C740 C741 1.392 . S
C740 C743 1.511 . S
C741 C737 1.376 . S
C741 C740 1.392 . S
C741 H753 0.929 . S
C742 C738 1.531 . S
C742 H754 0.960 . S
C742 H755 0.962 . S
C742 H756 0.960 . S
C743 C740 1.511 . S
C743 H757 0.961 . S
C743 H758 0.961 . S
C743 H759 0.961 . S
C744 C745 1.370 . S
C744 C746 1.363 . S
C744 H760 0.905 1_565 S
C745 C744 1.370 . S
C745 C749 1.408 . S
C746 C744 1.363 . S
C746 C747 1.370 . S
C746 C750 1.524 1_565 S
C747 C739 1.503 . S
C747 C746 1.370 . S
C747 C748 1.403 . S
C748 C747 1.403 . S
C748 C749 1.404 . S
C748 C751 1.539 . S
C749 C745 1.408 . S
C749 C748 1.404 . S
C749 H761 0.930 . S
C750 C746 1.524 1_545 S
C750 H762 0.956 . S
C750 H763 0.961 . S
C750 H764 0.961 . S
C751 C748 1.539 . S
C751 H765 0.958 . S
C751 H766 0.961 . S
C751 H767 0.960 . S
H752 C736 0.931 . S
H753 C741 0.929 . S
H754 C742 0.960 . S
H755 C742 0.962 . S
H756 C742 0.960 . S
H757 C743 0.961 . S
H758 C743 0.961 . S
H759 C743 0.961 . S
H760 C744 0.905 1_545 S
H761 C749 0.930 . S
H762 C750 0.956 . S
H763 C750 0.961 . S
H764 C750 0.961 . S
H765 C751 0.958 . S
H766 C751 0.961 . S
H767 C751 0.960 . S
C768 C769 1.391 . S
C768 C770 1.394 . S
C768 H784 0.931 . S
C769 C768 1.391 . S
C769 C773 1.376 . S
C770 C768 1.394 . S
C770 C771 1.369 . S
C770 C774 1.531 . S
C771 C770 1.369 . S
C771 C772 1.410 . S
C771 C779 1.503 . S
C772 C771 1.410 . S
C772 C773 1.392 . S
C772 C775 1.511 . S
C773 C769 1.376 . S
C773 C772 1.392 . S
C773 H785 0.929 . S
C774 C770 1.531 . S
C774 H786 0.960 . S
C774 H787 0.962 . S
C774 H788 0.960 . S
C775 C772 1.511 . S
C775 H789 0.961 . S
C775 H790 0.961 . S
C775 H791 0.961 . S
C776 C777 1.370 . S
C776 C778 1.363 . S
C776 H792 0.931 . S
C777 C776 1.370 . S
C777 C781 1.408 . S
C778 C776 1.363 . S
C778 C779 1.370 . S
C778 C782 1.524 . S
C779 C771 1.503 . S
C779 C778 1.370 . S
C779 C780 1.403 . S
C780 C779 1.403 . S
C780 C781 1.404 . S
C780 C783 1.539 . S
C781 C777 1.408 . S
C781 C780 1.404 . S
C781 H793 0.930 . S
C782 C778 1.524 . S
C782 H794 0.956 . S
C782 H795 0.961 . S
C782 H796 0.961 . S
C783 C780 1.539 . S
C783 H797 0.958 . S
C783 H798 0.961 . S
C783 H799 0.960 . S
H784 C768 0.931 . S
H785 C773 0.929 . S
H786 C774 0.960 . S
H787 C774 0.962 . S
H788 C774 0.960 . S
H789 C775 0.961 . S
H790 C775 0.961 . S
H791 C775 0.961 . S
H792 C776 0.931 . S
H793 C781 0.930 . S
H794 C782 0.956 . S
H795 C782 0.961 . S
H796 C782 0.961 . S
H797 C783 0.958 . S
H798 C783 0.961 . S
H799 C783 0.960 . S
C800 C801 1.391 . S
C800 C802 1.394 . S
C800 H816 0.931 . S
C801 C800 1.391 . S
C801 C805 1.376 . S
C802 C800 1.394 . S
C802 C803 1.369 . S
C802 C806 1.531 . S
C803 C802 1.369 . S
C803 C804 1.410 . S
C803 C811 1.503 . S
C804 C803 1.410 . S
C804 C805 1.392 . S
C804 C807 1.511 . S
C805 C801 1.376 . S
C805 C804 1.392 . S
C805 H817 0.929 . S
C806 C802 1.531 . S
C806 H818 0.960 . S
C806 H819 0.962 . S
C806 H820 0.960 . S
C807 C804 1.511 . S
C807 H821 0.961 . S
C807 H822 0.961 . S
C807 H823 0.961 . S
C808 C809 1.370 . S
C808 C810 1.363 . S
C808 H824 0.931 . S
C809 C808 1.370 . S
C809 C813 1.408 . S
C810 C808 1.363 . S
C810 C811 1.370 . S
C810 C814 1.524 . S
C811 C803 1.503 . S
C811 C810 1.370 . S
C811 C812 1.403 . S
C812 C811 1.403 . S
C812 C813 1.404 . S
C812 C815 1.539 . S
C813 C809 1.408 . S
C813 C812 1.404 . S
C813 H825 0.930 . S
C814 C810 1.524 . S
C814 H826 0.956 . S
C814 H827 0.961 . S
C814 H828 0.961 . S
C815 C812 1.539 . S
C815 H829 0.958 . S
C815 H830 0.961 . S
C815 H831 0.960 . S
H816 C800 0.931 . S
H817 C805 0.929 . S
H818 C806 0.960 . S
H819 C806 0.962 . S
H820 C806 0.960 . S
H821 C807 0.961 . S
H822 C807 0.961 . S
H823 C807 0.961 . S
H824 C808 0.931 . S
H825 C813 0.930 . S
H826 C814 0.956 . S
H827 C814 0.961 . S
H828 C814 0.961 . S
H829 C815 0.958 . S
H830 C815 0.961 . S
H831 C815 0.960 . S
C832 C833 1.391 . S
C832 C834 1.394 . S
C832 H848 0.933 . S
C833 C832 1.391 . S
C833 C837 1.376 . S
C834 C832 1.394 . S
C834 C835 1.369 . S
C834 C838 1.531 1_655 S
C835 C834 1.369 . S
C835 C836 1.410 . S
C835 C843 1.503 . S
C836 C835 1.410 . S
C836 C837 1.392 . S
C836 C839 1.511 . S
C837 C833 1.376 . S
C837 C836 1.392 . S
C837 H849 0.929 . S
C838 C834 1.531 1_455 S
C838 H850 0.960 . S
C838 H851 0.962 . S
C838 H852 0.960 . S
C839 C836 1.511 . S
C839 H853 0.961 . S
C839 H854 0.961 . S
C839 H855 0.961 . S
C840 C841 1.370 . S
C840 C842 1.363 . S
C840 H856 0.931 . S
C841 C840 1.370 . S
C841 C845 1.408 . S
C842 C840 1.363 . S
C842 C843 1.370 . S
C842 C846 1.524 . S
C843 C835 1.503 . S
C843 C842 1.370 . S
C843 C844 1.403 . S
C844 C843 1.403 . S
C844 C845 1.404 . S
C844 C847 1.539 . S
C845 C841 1.408 . S
C845 C844 1.404 . S
C845 H857 0.930 . S
C846 C842 1.524 . S
C846 H858 0.956 . S
C846 H859 0.961 . S
C846 H860 0.961 . S
C847 C844 1.539 . S
C847 H861 0.958 . S
C847 H862 0.961 . S
C847 H863 0.960 . S
H848 C832 0.933 . S
H849 C837 0.929 . S
H850 C838 0.960 . S
H851 C838 0.962 . S
H852 C838 0.960 . S
H853 C839 0.961 . S
H854 C839 0.961 . S
H855 C839 0.961 . S
H856 C840 0.931 . S
H857 C845 0.930 . S
H858 C846 0.956 . S
H859 C846 0.961 . S
H860 C846 0.961 . S
H861 C847 0.958 . S
H862 C847 0.961 . S
H863 C847 0.960 . S
C864 C865 1.391 . S
C864 C866 1.394 . S
C864 H880 0.931 1_545 S
C865 C864 1.391 . S
C865 C869 1.376 . S
C866 C864 1.394 . S
C866 C867 1.369 . S
C866 C870 1.531 1_545 S
C867 C866 1.369 . S
C867 C868 1.410 . S
C867 C875 1.503 . S
C868 C867 1.410 . S
C868 C869 1.392 . S
C868 C871 1.511 . S
C869 C865 1.376 . S
C869 C868 1.392 . S
C869 H881 0.929 . S
C870 C866 1.531 1_565 S
C870 H882 0.960 . S
C870 H883 0.962 . S
C870 H884 0.960 . S
C871 C868 1.511 . S
C871 H885 0.961 . S
C871 H886 0.961 . S
C871 H887 0.961 . S
C872 C873 1.370 . S
C872 C874 1.363 . S
C872 H888 0.931 . S
C873 C872 1.370 . S
C873 C877 1.408 . S
C874 C872 1.363 . S
C874 C875 1.370 . S
C874 C878 1.524 . S
C875 C867 1.503 . S
C875 C874 1.370 . S
C875 C876 1.403 . S
C876 C875 1.403 . S
C876 C877 1.404 . S
C876 C879 1.539 . S
C877 C873 1.408 . S
C877 C876 1.404 . S
C877 H889 0.930 . S
C878 C874 1.524 . S
C878 H890 0.956 . S
C878 H891 0.961 . S
C878 H892 0.961 . S
C879 C876 1.539 . S
C879 H893 0.958 . S
C879 H894 0.961 . S
C879 H895 0.960 . S
H880 C864 0.931 1_565 S
H881 C869 0.929 . S
H882 C870 0.960 . S
H883 C870 0.962 . S
H884 C870 0.960 . S
H885 C871 0.961 . S
H886 C871 0.961 . S
H887 C871 0.961 . S
H888 C872 0.931 . S
H889 C877 0.930 . S
H890 C878 0.956 . S
H891 C878 0.961 . S
H892 C878 0.961 . S
H893 C879 0.958 . S
H894 C879 0.961 . S
H895 C879 0.960 . S
C896 C897 1.391 . S
C896 C898 1.394 . S
C896 H912 0.931 . S
C897 C896 1.391 . S
C897 C901 1.376 . S
C898 C896 1.394 . S
C898 C899 1.369 . S
C898 C902 1.531 . S
C899 C898 1.369 . S
C899 C900 1.410 . S
C899 C907 1.503 . S
C900 C899 1.410 . S
C900 C901 1.392 . S
C900 C903 1.511 . S
C901 C897 1.376 . S
C901 C900 1.392 . S
C901 H913 0.929 . S
C902 C898 1.531 . S
C902 H914 0.960 . S
C902 H915 0.962 . S
C902 H916 0.960 . S
C903 C900 1.511 . S
C903 H917 0.961 . S
C903 H918 0.961 . S
C903 H919 0.961 . S
C904 C905 1.370 . S
C904 C906 1.363 . S
C904 H920 0.931 . S
C905 C904 1.370 . S
C905 C909 1.408 . S
C906 C904 1.363 . S
C906 C907 1.370 . S
C906 C910 1.524 . S
C907 C899 1.503 . S
C907 C906 1.370 . S
C907 C908 1.403 . S
C908 C907 1.403 . S
C908 C909 1.404 . S
C908 C911 1.539 . S
C909 C905 1.408 . S
C909 C908 1.404 . S
C909 H921 0.930 . S
C910 C906 1.524 . S
C910 H922 0.956 . S
C910 H923 0.961 . S
C910 H924 0.961 . S
C911 C908 1.539 . S
C911 H925 0.958 . S
C911 H926 0.961 . S
C911 H927 0.960 . S
H912 C896 0.931 . S
H913 C901 0.929 . S
H914 C902 0.960 . S
H915 C902 0.962 . S
H916 C902 0.960 . S
H917 C903 0.961 . S
H918 C903 0.961 . S
H919 C903 0.961 . S
H920 C904 0.931 . S
H921 C909 0.930 . S
H922 C910 0.956 . S
H923 C910 0.961 . S
H924 C910 0.961 . S
H925 C911 0.958 . S
H926 C911 0.961 . S
H927 C911 0.960 . S
C928 C929 1.391 . S
C928 C930 1.394 . S
C928 H944 0.931 . S
C929 C928 1.391 . S
C929 C933 1.376 . S
C930 C928 1.394 . S
C930 C931 1.369 . S
C930 C934 1.531 . S
C931 C930 1.369 . S
C931 C932 1.410 . S
C931 C939 1.503 . S
C932 C931 1.410 . S
C932 C933 1.392 . S
C932 C935 1.511 . S
C933 C929 1.376 . S
C933 C932 1.392 . S
C933 H945 0.929 . S
C934 C930 1.531 . S
C934 H946 0.960 . S
C934 H947 0.962 . S
C934 H948 0.960 . S
C935 C932 1.511 . S
C935 H949 0.961 . S
C935 H950 0.961 . S
C935 H951 0.961 . S
C936 C937 1.370 . S
C936 C938 1.363 . S
C936 H952 0.931 . S
C937 C936 1.370 . S
C937 C941 1.408 . S
C938 C936 1.363 . S
C938 C939 1.370 . S
C938 C942 1.524 . S
C939 C931 1.503 . S
C939 C938 1.370 . S
C939 C940 1.403 . S
C940 C939 1.403 . S
C940 C941 1.404 . S
C940 C943 1.539 . S
C941 C937 1.408 . S
C941 C940 1.404 . S
C941 H953 0.930 . S
C942 C938 1.524 . S
C942 H954 0.956 . S
C942 H955 0.961 . S
C942 H956 0.961 . S
C943 C940 1.539 . S
C943 H957 0.958 . S
C943 H958 0.961 . S
C943 H959 0.960 . S
H944 C928 0.931 . S
H945 C933 0.929 . S
H946 C934 0.960 . S
H947 C934 0.962 . S
H948 C934 0.960 . S
H949 C935 0.961 . S
H950 C935 0.961 . S
H951 C935 0.961 . S
H952 C936 0.931 . S
H953 C941 0.930 . S
H954 C942 0.956 . S
H955 C942 0.961 . S
H956 C942 0.961 . S
H957 C943 0.958 . S
H958 C943 0.961 . S
H959 C943 0.960 . S
C960 C961 1.391 . S
C960 C962 1.394 . S
C960 H976 0.931 1_455 S
C961 C960 1.391 . S
C961 C965 1.376 . S
C962 C960 1.394 . S
C962 C963 1.369 . S
C962 C966 1.531 1_455 S
C963 C962 1.369 . S
C963 C964 1.410 . S
C963 C971 1.503 . S
C964 C963 1.410 . S
C964 C965 1.392 . S
C964 C967 1.511 . S
C965 C961 1.376 . S
C965 C964 1.392 . S
C965 H977 0.929 . S
C966 C962 1.531 1_655 S
C966 H978 0.960 . S
C966 H979 0.962 . S
C966 H980 0.960 . S
C967 C964 1.511 . S
C967 H981 0.961 . S
C967 H982 0.961 . S
C967 H983 0.961 . S
C968 C969 1.370 . S
C968 C970 1.363 . S
C968 H984 0.931 . S
C969 C968 1.370 . S
C969 C973 1.408 . S
C970 C968 1.363 . S
C970 C971 1.370 . S
C970 C974 1.524 . S
C971 C963 1.503 . S
C971 C970 1.370 . S
C971 C972 1.403 . S
C972 C971 1.403 . S
C972 C973 1.404 . S
C972 C975 1.539 . S
C973 C969 1.408 . S
C973 C972 1.404 . S
C973 H985 0.930 . S
C974 C970 1.524 . S
C974 H986 0.956 . S
C974 H987 0.961 . S
C974 H988 0.961 . S
C975 C972 1.539 . S
C975 H989 0.958 . S
C975 H990 0.961 . S
C975 H991 0.960 . S
H976 C960 0.931 1_655 S
H977 C965 0.929 . S
H978 C966 0.960 . S
H979 C966 0.962 . S
H980 C966 0.960 . S
H981 C967 0.961 . S
H982 C967 0.961 . S
H983 C967 0.961 . S
H984 C968 0.931 . S
H985 C973 0.930 . S
H986 C974 0.956 . S
H987 C974 0.961 . S
H988 C974 0.961 . S
H989 C975 0.958 . S
H990 C975 0.961 . S
H991 C975 0.960 . S
C992 C993 1.407 . S
C992 C994 1.394 . S
C992 H1008 0.931 . S
C993 C992 1.407 . S
C993 C997 1.362 1_546 S
C994 C992 1.394 . S
C994 C995 1.369 1_556 S
C994 C998 1.531 . S
C995 C994 1.369 1_554 S
C995 C996 1.410 1_545 S
C995 C1003 1.503 . S
C996 C995 1.410 1_565 S
C996 C997 1.392 . S
C996 C999 1.511 . S
C997 C993 1.362 1_564 S
C997 C996 1.392 . S
C997 H1009 0.929 . S
C998 C994 1.531 . S
C998 H1010 0.960 . S
C998 H1011 0.962 . S
C998 H1012 0.960 . S
C999 C996 1.511 . S
C999 H1013 0.961 . S
C999 H1014 0.961 . S
C999 H1015 0.961 . S
C1000 C1001 1.370 1_566 S
C1000 C1002 1.363 . S
C1000 H1016 0.931 . S
C1001 C1000 1.370 1_544 S
C1001 C1005 1.408 . S
C1002 C1000 1.363 . S
C1002 C1003 1.370 1_566 S
C1002 C1006 1.524 . S
C1003 C995 1.503 . S
C1003 C1002 1.370 1_544 S
C1003 C1004 1.403 . S
C1004 C1003 1.403 . S
C1004 C1005 1.404 . S
C1004 C1007 1.539 . S
C1005 C1001 1.408 . S
C1005 C1004 1.404 . S
C1005 H1017 0.930 . S
C1006 C1002 1.524 . S
C1006 H1018 0.956 . S
C1006 H1019 0.961 . S
C1006 H1020 0.961 . S
C1007 C1004 1.539 . S
C1007 H1021 0.958 . S
C1007 H1022 0.961 . S
C1007 H1023 0.960 . S
H1008 C992 0.931 . S
H1009 C997 0.929 . S
H1010 C998 0.960 . S
H1011 C998 0.962 . S
H1012 C998 0.960 . S
H1013 C999 0.961 . S
H1014 C999 0.961 . S
H1015 C999 0.961 . S
H1016 C1000 0.931 . S
H1017 C1005 0.930 . S
H1018 C1006 0.956 . S
H1019 C1006 0.961 . S
H1020 C1006 0.961 . S
H1021 C1007 0.958 . S
H1022 C1007 0.961 . S
H1023 C1007 0.960 . S
C1024 C1025 1.391 . S
C1024 C1026 1.394 . S
C1024 H1040 0.931 . S
C1025 C1024 1.391 . S
C1025 C1029 1.376 . S
C1026 C1024 1.394 . S
C1026 C1027 1.369 . S
C1026 C1030 1.531 1_556 S
C1027 C1026 1.369 . S
C1027 C1028 1.410 . S
C1027 C1035 1.503 . S
C1028 C1027 1.410 . S
C1028 C1029 1.392 . S
C1028 C1031 1.511 . S
C1029 C1025 1.376 . S
C1029 C1028 1.392 . S
C1029 H1041 0.929 . S
C1030 C1026 1.531 1_554 S
C1030 H1042 0.960 1_554 S
C1030 H1043 0.962 . S
C1030 H1044 0.960 1_554 S
C1031 C1028 1.511 . S
C1031 H1045 0.961 . S
C1031 H1046 0.961 . S
C1031 H1047 0.961 . S
C1032 C1033 1.370 . S
C1032 C1034 1.363 . S
C1032 H1048 0.931 . S
C1033 C1032 1.370 . S
C1033 C1037 1.408 1_554 S
C1034 C1032 1.363 . S
C1034 C1035 1.370 1_554 S
C1034 C1038 1.524 . S
C1035 C1027 1.503 . S
C1035 C1034 1.370 1_556 S
C1035 C1036 1.403 . S
C1036 C1035 1.403 . S
C1036 C1037 1.404 . S
C1036 C1039 1.539 . S
C1037 C1033 1.408 1_556 S
C1037 C1036 1.404 . S
C1037 H1049 0.930 . S
C1038 C1034 1.524 . S
C1038 H1050 0.956 . S
C1038 H1051 0.961 . S
C1038 H1052 0.961 . S
C1039 C1036 1.539 . S
C1039 H1053 0.958 . S
C1039 H1054 0.961 . S
C1039 H1055 0.960 . S
H1040 C1024 0.931 . S
H1041 C1029 0.929 . S
H1042 C1030 0.960 1_556 S
H1043 C1030 0.962 . S
H1044 C1030 0.960 1_556 S
H1045 C1031 0.961 . S
H1046 C1031 0.961 . S
H1047 C1031 0.961 . S
H1048 C1032 0.931 . S
H1049 C1037 0.930 . S
H1050 C1038 0.956 . S
H1051 C1038 0.961 . S
H1052 C1038 0.961 . S
H1053 C1039 0.958 . S
H1054 C1039 0.961 . S
H1055 C1039 0.960 . S
C1056 C1057 1.391 1_556 S
C1056 C1058 1.394 . S
C1056 H1072 0.931 . S
C1057 C1056 1.391 1_554 S
C1057 C1061 1.376 . S
C1058 C1056 1.394 . S
C1058 C1059 1.369 1_556 S
C1058 C1062 1.531 . S
C1059 C1058 1.369 1_554 S
C1059 C1060 1.410 . S
C1059 C1067 1.503 1_655 S
C1060 C1059 1.410 . S
C1060 C1061 1.392 . S
C1060 C1063 1.511 . S
C1061 C1057 1.376 . S
C1061 C1060 1.392 . S
C1061 H1073 0.929 . S
C1062 C1058 1.531 . S
C1062 H1074 0.960 1_655 S
C1062 H1075 0.962 . S
C1062 H1076 0.960 . S
C1063 C1060 1.511 . S
C1063 H1077 0.961 . S
C1063 H1078 0.961 1_655 S
C1063 H1079 0.961 . S
C1064 C1065 1.370 . S
C1064 C1066 1.363 . S
C1064 H1080 0.931 . S
C1065 C1064 1.370 . S
C1065 C1069 1.408 1_556 S
C1066 C1064 1.363 . S
C1066 C1067 1.370 1_556 S
C1066 C1070 1.524 . S
C1067 C1059 1.503 1_455 S
C1067 C1066 1.370 1_554 S
C1067 C1068 1.403 . S
C1068 C1067 1.403 . S
C1068 C1069 1.404 . S
C1068 C1071 1.539 . S
C1069 C1065 1.408 1_554 S
C1069 C1068 1.404 . S
C1069 H1081 0.930 . S
C1070 C1066 1.524 . S
C1070 H1082 0.956 1_455 S
C1070 H1083 0.961 1_455 S
C1070 H1084 0.961 . S
C1071 C1068 1.539 . S
C1071 H1085 0.958 . S
C1071 H1086 0.961 . S
C1071 H1087 0.960 . S
H1072 C1056 0.931 . S
H1073 C1061 0.929 . S
H1074 C1062 0.960 1_455 S
H1075 C1062 0.962 . S
H1076 C1062 0.960 . S
H1077 C1063 0.961 . S
H1078 C1063 0.961 1_455 S
H1079 C1063 0.961 . S
H1080 C1064 0.931 . S
H1081 C1069 0.930 . S
H1082 C1070 0.956 1_655 S
H1083 C1070 0.961 1_655 S
H1084 C1070 0.961 . S
H1085 C1071 0.958 . S
H1086 C1071 0.961 . S
H1087 C1071 0.960 . S
C1088 C1089 1.391 . S
C1088 C1090 1.394 . S
C1088 H1104 0.931 . S
C1089 C1088 1.391 . S
C1089 C1093 1.376 1_456 S
C1090 C1088 1.394 . S
C1090 C1091 1.369 1_556 S
C1090 C1094 1.531 . S
C1091 C1090 1.369 1_554 S
C1091 C1092 1.410 1_455 S
C1091 C1099 1.503 1_545 S
C1092 C1091 1.410 1_655 S
C1092 C1093 1.392 . S
C1092 C1095 1.511 . S
C1093 C1089 1.376 1_654 S
C1093 C1092 1.392 . S
C1093 H1105 0.929 . S
C1094 C1090 1.531 . S
C1094 H1106 0.960 1_545 S
C1094 H1107 0.962 . S
C1094 H1108 0.960 . S
C1095 C1092 1.511 . S
C1095 H1109 0.961 . S
C1095 H1110 0.991 . S
C1095 H1111 0.961 . S
C1096 C1097 1.370 1_656 S
C1096 C1098 1.363 . S
C1096 H1112 0.931 . S
C1097 C1096 1.370 1_454 S
C1097 C1101 1.408 . S
C1098 C1096 1.363 . S
C1098 C1099 1.370 1_656 S
C1098 C1102 1.524 . S
C1099 C1091 1.503 1_565 S
C1099 C1098 1.370 1_454 S
C1099 C1100 1.403 . S
C1100 C1099 1.403 . S
C1100 C1101 1.404 . S
C1100 C1103 1.539 . S
C1101 C1097 1.408 . S
C1101 C1100 1.404 . S
C1101 H1113 0.930 . S
C1102 C1098 1.524 . S
C1102 H1114 0.956 . S
C1102 H1115 0.956 1_565 S
C1102 H1116 0.961 . S
C1103 C1100 1.539 . S
C1103 H1117 0.958 . S
C1103 H1118 0.961 . S
C1103 H1119 0.960 1_565 S
H1104 C1088 0.931 . S
H1105 C1093 0.929 . S
H1106 C1094 0.960 1_565 S
H1107 C1094 0.962 . S
H1108 C1094 0.960 . S
H1109 C1095 0.961 . S
H1110 C1095 0.991 . S
H1111 C1095 0.961 . S
H1112 C1096 0.931 . S
H1113 C1101 0.930 . S
H1114 C1102 0.956 . S
H1115 C1102 0.956 1_545 S
H1116 C1102 0.961 . S
H1117 C1103 0.958 . S
H1118 C1103 0.961 . S
H1119 C1103 0.960 1_545 S
C1120 C1121 1.415 . S
C1120 C1122 1.394 . S
C1120 H1136 0.931 . S
C1121 C1120 1.415 . S
C1121 C1125 1.356 1_545 S
C1122 C1120 1.394 . S
C1122 C1123 1.369 . S
C1122 C1126 1.531 . S
C1123 C1122 1.369 . S
C1123 C1124 1.410 1_545 S
C1123 C1131 1.503 1_455 S
C1124 C1123 1.410 1_565 S
C1124 C1125 1.392 . S
C1124 C1127 1.511 . S
C1125 C1121 1.356 1_565 S
C1125 C1124 1.392 . S
C1125 H1137 0.929 . S
C1126 C1122 1.531 . S
C1126 H1138 0.975 . S
C1126 H1139 0.962 . S
C1126 H1140 0.960 . S
C1127 C1124 1.511 . S
C1127 H1141 0.961 . S
C1127 H1142 0.961 1_455 S
C1127 H1143 0.961 . S
C1128 C1129 1.370 1_565 S
C1128 C1130 1.363 . S
C1128 H1144 0.931 . S
C1129 C1128 1.370 1_545 S
C1129 C1133 1.408 . S
C1130 C1128 1.363 . S
C1130 C1131 1.370 1_565 S
C1130 C1134 1.524 . S
C1131 C1123 1.503 1_655 S
C1131 C1130 1.370 1_545 S
C1131 C1132 1.403 . S
C1132 C1131 1.403 . S
C1132 C1133 1.404 . S
C1132 C1135 1.539 . S
C1133 C1129 1.408 . S
C1133 C1132 1.404 . S
C1133 H1145 0.930 . S
C1134 C1130 1.524 . S
C1134 H1146 0.956 1_655 S
C1134 H1147 0.961 1_655 S
C1134 H1148 0.961 . S
C1135 C1132 1.539 . S
C1135 H1149 0.958 . S
C1135 H1150 0.961 . S
C1135 H1151 0.960 . S
H1136 C1120 0.931 . S
H1137 C1125 0.929 . S
H1138 C1126 0.975 . S
H1139 C1126 0.962 . S
H1140 C1126 0.960 . S
H1141 C1127 0.961 . S
H1142 C1127 0.961 1_655 S
H1143 C1127 0.961 . S
H1144 C1128 0.931 . S
H1145 C1133 0.930 . S
H1146 C1134 0.956 1_455 S
H1147 C1134 0.961 1_455 S
H1148 C1134 0.961 . S
H1149 C1135 0.958 . S
H1150 C1135 0.961 . S
H1151 C1135 0.960 . S
C1152 C1153 1.391 . S
C1152 C1154 1.394 . S
C1152 H1168 0.931 . S
C1153 C1152 1.391 . S
C1153 C1157 1.376 . S
C1154 C1152 1.394 . S
C1154 C1155 1.369 . S
C1154 C1158 1.531 . S
C1155 C1154 1.369 . S
C1155 C1156 1.410 . S
C1155 C1163 1.503 1_565 S
C1156 C1155 1.410 . S
C1156 C1157 1.392 . S
C1156 C1159 1.511 . S
C1157 C1153 1.376 . S
C1157 C1156 1.392 . S
C1157 H1169 0.929 . S
C1158 C1154 1.531 . S
C1158 H1170 0.960 1_565 S
C1158 H1171 0.962 . S
C1158 H1172 0.960 . S
C1159 C1156 1.511 . S
C1159 H1173 0.961 . S
C1159 H1174 0.961 1_565 S
C1159 H1175 0.961 . S
C1160 C1161 1.370 . S
C1160 C1162 1.363 . S
C1160 H1176 0.931 . S
C1161 C1160 1.370 . S
C1161 C1165 1.408 . S
C1162 C1160 1.363 . S
C1162 C1163 1.370 . S
C1162 C1166 1.524 . S
C1163 C1155 1.503 1_545 S
C1163 C1162 1.370 . S
C1163 C1164 1.403 . S
C1164 C1163 1.403 . S
C1164 C1165 1.404 . S
C1164 C1167 1.539 . S
C1165 C1161 1.408 . S
C1165 C1164 1.404 . S
C1165 H1177 0.930 . S
C1166 C1162 1.524 . S
C1166 H1178 0.956 1_545 S
C1166 H1179 0.961 1_545 S
C1166 H1180 0.961 . S
C1167 C1164 1.539 . S
C1167 H1181 0.958 . S
C1167 H1182 0.961 . S
C1167 H1183 0.960 . S
H1168 C1152 0.931 . S
H1169 C1157 0.929 . S
H1170 C1158 0.960 1_545 S
H1171 C1158 0.962 . S
H1172 C1158 0.960 . S
H1173 C1159 0.961 . S
H1174 C1159 0.961 1_545 S
H1175 C1159 0.961 . S
H1176 C1160 0.931 . S
H1177 C1165 0.930 . S
H1178 C1166 0.956 1_565 S
H1179 C1166 0.961 1_565 S
H1180 C1166 0.961 . S
H1181 C1167 0.958 . S
H1182 C1167 0.961 . S
H1183 C1167 0.960 . S
C1184 C1185 1.391 . S
C1184 C1186 1.394 . S
C1184 H1200 0.931 . S
C1185 C1184 1.391 . S
C1185 C1189 1.376 . S
C1186 C1184 1.394 . S
C1186 C1187 1.369 . S
C1186 C1190 1.531 . S
C1187 C1186 1.369 . S
C1187 C1188 1.410 . S
C1187 C1195 1.503 . S
C1188 C1187 1.410 . S
C1188 C1189 1.392 . S
C1188 C1191 1.511 . S
C1189 C1185 1.376 . S
C1189 C1188 1.392 . S
C1189 H1201 0.929 . S
C1190 C1186 1.531 . S
C1190 H1202 0.960 . S
C1190 H1203 0.962 . S
C1190 H1204 0.960 . S
C1191 C1188 1.511 . S
C1191 H1205 0.961 . S
C1191 H1206 0.961 . S
C1191 H1207 0.961 . S
C1192 C1193 1.370 . S
C1192 C1194 1.363 . S
C1192 H1208 0.931 . S
C1193 C1192 1.370 . S
C1193 C1197 1.408 . S
C1194 C1192 1.363 . S
C1194 C1195 1.370 . S
C1194 C1198 1.524 . S
C1195 C1187 1.503 . S
C1195 C1194 1.370 . S
C1195 C1196 1.403 . S
C1196 C1195 1.403 . S
C1196 C1197 1.404 . S
C1196 C1199 1.539 . S
C1197 C1193 1.408 . S
C1197 C1196 1.404 . S
C1197 H1209 0.930 . S
C1198 C1194 1.524 . S
C1198 H1210 0.956 . S
C1198 H1211 0.961 . S
C1198 H1212 0.961 . S
C1199 C1196 1.539 . S
C1199 H1213 0.958 . S
C1199 H1214 0.961 . S
C1199 H1215 0.960 . S
H1200 C1184 0.931 . S
H1201 C1189 0.929 . S
H1202 C1190 0.960 . S
H1203 C1190 0.962 . S
H1204 C1190 0.960 . S
H1205 C1191 0.961 . S
H1206 C1191 0.961 . S
H1207 C1191 0.961 . S
H1208 C1192 0.931 . S
H1209 C1197 0.930 . S
H1210 C1198 0.956 . S
H1211 C1198 0.961 . S
H1212 C1198 0.961 . S
H1213 C1199 0.958 . S
H1214 C1199 0.961 . S
H1215 C1199 0.960 . S
C1216 C1217 1.382 1_455 S
C1216 C1218 1.394 . S
C1216 H1232 0.931 . S
C1217 C1216 1.382 1_655 S
C1217 C1221 1.385 . S
C1218 C1216 1.394 . S
C1218 C1219 1.369 1_455 S
C1218 C1222 1.531 . S
C1219 C1218 1.369 1_655 S
C1219 C1220 1.410 . S
C1219 C1227 1.503 . S
C1220 C1219 1.410 . S
C1220 C1221 1.392 . S
C1220 C1223 1.511 . S
C1221 C1217 1.385 . S
C1221 C1220 1.392 . S
C1221 H1233 0.929 . S
C1222 C1218 1.531 . S
C1222 H1234 0.960 . S
C1222 H1235 0.962 . S
C1222 H1236 0.960 . S
C1223 C1220 1.511 . S
C1223 H1237 0.961 . S
C1223 H1238 0.961 . S
C1223 H1239 0.961 . S
C1224 C1225 1.370 1_455 S
C1224 C1226 1.363 . S
C1224 H1240 0.931 . S
C1225 C1224 1.370 1_655 S
C1225 C1229 1.408 . S
C1226 C1224 1.363 . S
C1226 C1227 1.370 1_455 S
C1226 C1230 1.524 . S
C1227 C1219 1.503 . S
C1227 C1226 1.370 1_655 S
C1227 C1228 1.403 . S
C1228 C1227 1.403 . S
C1228 C1229 1.404 . S
C1228 C1231 1.539 . S
C1229 C1225 1.408 . S
C1229 C1228 1.404 . S
C1229 H1241 0.930 . S
C1230 C1226 1.524 . S
C1230 H1242 0.956 . S
C1230 H1243 0.961 . S
C1230 H1244 0.961 . S
C1231 C1228 1.539 . S
C1231 H1245 0.958 . S
C1231 H1246 0.961 . S
C1231 H1247 0.960 . S
H1232 C1216 0.931 . S
H1233 C1221 0.929 . S
H1234 C1222 0.960 . S
H1235 C1222 0.962 . S
H1236 C1222 0.960 . S
H1237 C1223 0.961 . S
H1238 C1223 0.961 . S
H1239 C1223 0.961 . S
H1240 C1224 0.931 . S
H1241 C1229 0.930 . S
H1242 C1230 0.956 . S
H1243 C1230 0.961 . S
H1244 C1230 0.961 . S
H1245 C1231 0.958 . S
H1246 C1231 0.961 . S
H1247 C1231 0.960 . S
C225 C79 0.481 . S
C233 C9 0.482 . S
C257 C93 0.591 . S
C265 C23 0.557 . S
C289 C37 0.507 . S
C297 C107 0.552 . S
C321 C51 0.473 . S
C329 C65 0.482 . S
C353 C121 0.566 . S
C361 C191 0.558 . S
C385 C205 0.592 . S
C393 C135 0.560 . S
C417 C219 0.604 . S
C425 C149 0.531 . S
C449 C163 0.610 . S
C457 C177 0.555 . S
C481 C6 1.587 . S
C489 C176 1.548 . S
C513 C190 1.562 . S
C521 C20 1.584 . S
C545 C34 1.564 . S
C553 C204 1.526 . S
C577 C48 1.564 . S
C585 C218 1.536 . S
C609 C62 1.563 . S
C617 C120 1.533 . S
C641 C76 1.576 . S
C649 C134 1.547 . S
C673 C90 1.590 . S
C681 C148 1.540 . S
C705 C104 1.578 . S
C713 C162 1.527 . S
C737 C64 1.504 . S
C745 C118 1.575 . S
C769 C78 1.518 . S
C777 C132 1.581 . S
C801 C92 1.520 . S
C809 C146 1.575 . S
C833 C160 1.565 . S
C841 C106 1.534 . S
C865 C8 1.525 . S
C873 C174 1.583 . S
C897 C188 1.568 . S
C905 C22 1.537 . S
C929 C202 1.563 . S
C937 C36 1.526 . S
C961 C50 1.516 . S
C969 C216 1.581 . S
C993 C119 1.552 1_545 S
C1001 C7 1.515 . S
C1025 C133 1.493 . S
C1033 C21 1.542 . S
C1057 C35 1.502 . S
C1065 C147 1.539 . S
C1089 C161 1.550 1_455 S
C1097 C49 1.518 . S
C1121 C63 1.507 1_545 S
C1129 C175 1.535 . S
C1153 C189 1.494 . S
C1161 C77 1.541 . S
C1185 C203 1.546 . S
C1193 C91 1.517 . S
C1217 C217 1.503 1_655 S
C1225 C105 1.535 . S
