# Generated by pormake.
# Topology sma, (6)-cn, num edge types: 1
# Building blocks:
#     Node 0, Type 0, BuildingBlock: PAMTUU_clean_sbu_0, # of connection points: 6
#     Node 1, Type 0, BuildingBlock: PAMTUU_clean_sbu_0, # of connection points: 6
#     Node 2, Type 0, BuildingBlock: PAMTUU_clean_sbu_0, # of connection points: 6
#     Edge 3, Type (0, 0), BuildingBlock: UVAHIK_clean_linker_0, # of connection points: 2
#     Edge 4, Type (0, 0), BuildingBlock: UVAHIK_clean_linker_0, # of connection points: 2
#     Edge 5, Type (0, 0), BuildingBlock: UVAHIK_clean_linker_0, # of connection points: 2
#     Edge 6, Type (0, 0), BuildingBlock: UVAHIK_clean_linker_0, # of connection points: 2
#     Edge 7, Type (0, 0), BuildingBlock: UVAHIK_clean_linker_0, # of connection points: 2
#     Edge 8, Type (0, 0), BuildingBlock: UVAHIK_clean_linker_0, # of connection points: 2
#     Edge 9, Type (0, 0), BuildingBlock: UVAHIK_clean_linker_0, # of connection points: 2
#     Edge 10, Type (0, 0), BuildingBlock: UVAHIK_clean_linker_0, # of connection points: 2
#     Edge 11, Type (0, 0), BuildingBlock: UVAHIK_clean_linker_0, # of connection points: 2
# Relax obj value: 0.081
# Max RMSD: 0.186
# Mean RMSD: 0.182
data_MOF--net-sma--node1-PAMTUU_clean_sbu_0--edge1-UVAHIK_clean_linker_0
_symmetry_space_group_name_H-M    P1
_symmetry_Int_Tables_number       1
_symmetry_cell_setting            triclinic
loop_
_symmetry_equiv_pos_as_xyz
'x, y, z'
_cell_length_a     48.400334
_cell_length_b     48.449819
_cell_length_c     17.564622
_cell_angle_alpha  97.19718
_cell_angle_beta   91.016802
_cell_angle_gamma 119.99575
loop_
_atom_site_label
_atom_site_type_symbol
_atom_site_fract_x
_atom_site_fract_y
_atom_site_fract_z
_atom_type_partial_charge
Tb0 Tb 0.03829 0.53298 0.15861 0.0
Tb1 Tb 0.08459 0.49997 0.18161 0.0
C2 C 0.05674 0.50221 0.02579 0.0
C3 C 0.96932 0.54652 0.10516 0.0
C4 C 0.91034 0.53957 0.05078 0.0
C5 C 0.92883 0.5325 -0.0003 0.0
C6 C 0.95811 0.53609 0.02652 0.0
C7 C 0.95022 0.55233 0.15642 0.0
C8 C 0.9211 0.54884 0.12969 0.0
C9 C 1.00216 0.55533 0.13387 0.0
O10 O 1.01008 0.49094 0.21449 0.0
O11 O 1.03493 0.46169 0.18059 0.0
O12 O 0.07755 0.51831 0.29458 0.0
O13 O 0.06835 0.55813 0.26407 0.0
O14 O 0.09527 0.46408 0.14047 0.0
O15 O 0.12088 0.49793 0.24393 0.0
O16 O 0.11877 0.55015 0.17596 0.0
O17 O 0.08661 0.57012 0.13875 0.0
O18 O 1.03197 0.49713 0.06312 0.0
O19 O 0.08293 0.50807 0.06427 0.0
C20 C 1.01058 0.4638 0.20655 0.0
O21 O 1.00568 0.54678 0.19932 0.0
O22 O 1.02086 0.55275 0.08436 0.0
C23 C 0.07817 0.54585 0.31294 0.0
C24 C 0.15025 0.48096 0.16497 0.0
C25 C 0.20964 0.49184 0.11482 0.0
C26 C 0.20028 0.48139 0.18615 0.0
C27 C 0.17086 0.47595 0.21081 0.0
C28 C 0.15956 0.49169 0.094 0.0
C29 C 0.1889 0.4969 0.06899 0.0
C30 C 0.11943 0.47522 0.19262 0.0
C31 C 0.11498 0.57333 0.15506 0.0
H32 H 0.92135 0.52551 0.93852 0.0
H33 H 0.97237 0.53171 -0.01474 0.0
H34 H 0.95833 0.56066 0.21717 0.0
H35 H 0.90724 0.55398 0.17083 0.0
H36 H 0.2155 0.47695 0.22249 0.0
H37 H 0.16417 0.46776 0.2658 0.0
H38 H 0.1442 0.49607 0.05795 0.0
H39 H 0.19554 0.50531 0.01422 0.0
Tb40 Tb 0.53695 1.00237 0.51266 0.0
Tb41 Tb 0.61415 0.04579 0.47381 0.0
C42 C 0.5591 1.01108 0.35094 0.0
C43 C 0.45153 0.93541 0.49873 0.0
C44 C 0.39775 0.87755 0.42497 0.0
C45 C 0.42859 0.88739 0.40146 0.0
C46 C 0.45525 0.91615 0.43792 0.0
C47 C 0.42099 0.92551 0.52301 0.0
C48 C 0.39436 0.89689 0.48659 0.0
C49 C 0.47885 0.96649 0.53538 0.0
O50 O 0.55512 0.96972 0.48381 0.0
O51 O 0.60876 1.00396 0.52098 0.0
O52 O 0.61499 0.06595 0.59063 0.0
O53 O 0.5654 0.02675 0.62296 0.0
O54 O 0.64254 0.06507 0.38452 0.0
O55 O 0.66427 0.06708 0.49527 0.0
O56 O 0.5939 0.07727 0.46973 0.0
O57 O 0.54852 0.05218 0.53526 0.0
O58 O 0.5376 1.01075 0.39494 0.0
O59 O 0.58245 1.00876 0.38135 0.0
C60 C 0.58329 0.97479 0.50897 0.0
O61 O 0.50267 0.96568 0.56868 0.0
O62 O 0.48884 0.98989 0.49476 0.0
C63 C 0.59398 0.05289 0.64028 0.0
C64 C 0.69466 0.10965 0.42378 0.0
C65 C 0.74447 0.1715 0.40257 0.0
C66 C 0.75149 0.14899 0.42746 0.0
C67 C 0.72684 0.1184 0.43771 0.0
C68 C 0.68748 0.13238 0.4012 0.0
C69 C 0.71214 0.16295 0.39048 0.0
C70 C 0.66928 0.0761 0.42744 0.0
C71 C 0.57012 0.07722 0.50589 0.0
H72 H 0.43202 0.87325 0.35382 0.0
H73 H 0.47868 0.92355 0.41809 0.0
H74 H 0.41768 0.9401 0.56986 0.0
H75 H 0.3711 0.88981 0.507 0.0
H76 H 0.77606 0.1546 0.43654 0.0
H77 H 0.73295 0.10121 0.45468 0.0
H78 H 0.66283 0.12633 0.39033 0.0
H79 H 0.70589 0.17984 0.37229 0.0
Tb80 Tb 0.55145 0.49849 0.82625 0.0
Tb81 Tb 0.58365 0.57852 0.85118 0.0
C82 C 0.54 0.53386 0.70464 0.0
C83 C 0.54113 0.41496 0.78696 0.0
C84 C 0.55433 0.36426 0.75236 0.0
C85 C 0.56801 0.39095 0.7127 0.0
C86 C 0.56154 0.41605 0.72989 0.0
C87 C 0.52861 0.3891 0.82884 0.0
C88 C 0.53525 0.36412 0.81209 0.0
C89 C 0.52987 0.43839 0.79799 0.0
O90 O 0.59949 0.52023 0.78818 0.0
O91 O 0.62154 0.56779 0.87042 0.0
O92 O 0.57633 0.56464 0.96431 0.0
O93 O 0.57555 0.51638 0.94132 0.0
O94 O 0.61902 0.62163 0.81763 0.0
O95 O 0.58813 0.62216 0.90421 0.0
O96 O 0.53229 0.55953 0.85591 0.0
O97 O 0.51553 0.50751 0.87902 0.0
O98 O 0.5271 0.50908 0.74123 0.0
O99 O 0.56764 0.55968 0.73012 0.0
C100 C 0.62443 0.54498 0.82932 0.0
O101 O 0.53396 0.45404 0.86723 0.0
O102 O 0.53553 0.45685 0.74535 0.0
C103 C 0.57525 0.53953 -0.0118 0.0
C104 C 0.60692 0.66353 0.82708 0.0
C105 C 0.60236 0.7117 0.76158 0.0
C106 C 0.62043 0.71929 0.83261 0.0
C107 C 0.62269 0.69547 0.86485 0.0
C108 C 0.58847 0.65555 0.7567 0.0
C109 C 0.58621 0.67945 0.7242 0.0
C110 C 0.61053 0.63927 0.86198 0.0
C111 C 0.51088 0.53216 0.87793 0.0
H112 H 0.58261 0.39186 0.66602 0.0
H113 H 0.57161 0.4357 0.69651 0.0
H114 H 0.51283 0.38769 0.8731 0.0
H115 H 0.52488 0.34437 0.84508 0.0
H116 H 0.63266 0.74367 0.86383 0.0
H117 H 0.63689 0.70204 0.91944 0.0
H118 H 0.57606 0.63096 0.72671 0.0
H119 H 0.57228 0.67275 0.66921 0.0
C120 C 0.26872 0.51287 0.14 0.0
C121 C 0.24084 0.49725 0.08841 0.0
C122 C 0.2979 0.51742 0.1157 0.0
C123 C 0.33174 0.48516 0.96708 0.0
H124 H 0.41081 0.56583 0.03416 0.0
C125 C 0.45644 0.4998 0.92429 0.0
C126 C 0.4799 0.52855 0.90073 0.0
C127 C 0.42731 0.49634 0.94588 0.0
C128 C 0.38893 0.54322 0.01448 0.0
H129 H 0.22186 0.47407 0.97069 0.0
H130 H 0.27282 0.48212 0.92816 0.0
H131 H 0.36001 0.55955 0.0729 0.0
H132 H 0.49092 0.5763 0.8819 0.0
H133 H 0.44009 0.57019 0.91936 0.0
H134 H 0.36061 0.46888 0.90829 0.0
C135 C 0.27206 0.49075 -0.01241 0.0
C136 C 0.35984 0.5395 0.03734 0.0
C137 C 0.24292 0.48642 0.01176 0.0
C138 C 0.47348 0.55381 0.89971 0.0
C139 C 0.44437 0.55038 0.92161 0.0
C140 C 0.36085 0.4888 0.94462 0.0
C141 C 0.29992 0.50625 0.03929 0.0
C142 C 0.33087 0.51041 0.01401 0.0
C143 C 0.42088 0.52158 0.94484 0.0
C144 C 0.38983 0.51785 0.96811 0.0
H145 H 0.26804 0.52179 0.19924 0.0
H146 H 0.3188 0.52921 0.15721 0.0
H147 H 0.30994 0.46233 0.94864 0.0
H148 H 0.46054 0.47987 0.92635 0.0
H149 H 0.40997 0.474 0.96449 0.0
C150 C 0.79935 0.2208 0.43569 0.0
C151 C 0.77079 0.20321 0.38654 0.0
C152 C 0.82467 0.24974 0.41849 0.0
C153 C 0.84467 0.31421 0.29787 0.0
H154 H 0.93119 0.33089 0.33647 0.0
C155 C 0.95662 0.43559 0.25858 0.0
C156 C 0.98262 0.43436 0.2273 0.0
C157 C 0.93054 0.40788 0.27891 0.0
C158 C 0.90719 0.32655 0.32469 0.0
H159 H 0.74657 0.20244 0.28057 0.0
H160 H 0.79072 0.2527 0.25024 0.0
H161 H 0.88625 0.28195 0.36941 0.0
H162 H 1.0012 0.40265 0.19222 0.0
H163 H 0.95572 0.35449 0.22647 0.0
H164 H 0.86563 0.35842 0.2511 0.0
C165 C 0.7934 0.24446 0.30293 0.0
C166 C 0.88137 0.29862 0.34463 0.0
C167 C 0.76803 0.21558 0.32032 0.0
C168 C 0.98174 0.40465 0.21648 0.0
C169 C 0.95567 0.37698 0.23665 0.0
C170 C 0.87052 0.34215 0.27781 0.0
C171 C 0.82219 0.26184 0.35146 0.0
C172 C 0.84973 0.292 0.33139 0.0
C173 C 0.92975 0.3782 0.26843 0.0
C174 C 0.90214 0.34866 0.29071 0.0
H175 H 0.80212 0.21223 0.48776 0.0
H176 H 0.84618 0.26272 0.45805 0.0
H177 H 0.82071 0.31015 0.2875 0.0
H178 H 0.95644 0.45802 0.26797 0.0
H179 H 0.91123 0.40989 0.30405 0.0
C180 C 0.61515 0.95114 0.55638 0.0
C181 C 0.58605 0.9468 0.52504 0.0
C182 C 0.61704 0.92493 0.57598 0.0
C183 C 0.56606 0.84303 0.62503 0.0
H184 H 0.64082 0.83493 0.5919 0.0
C185 C 0.57157 0.73163 0.69078 0.0
C186 C 0.60053 0.73747 0.72719 0.0
C187 C 0.56973 0.7563 0.66133 0.0
C188 C 0.61988 0.83697 0.60223 0.0
H189 H 0.53625 0.91113 0.48811 0.0
H190 H 0.53968 0.8656 0.52133 0.0
H191 H 0.638 0.87957 0.54934 0.0
H192 H 0.65052 0.77377 0.75868 0.0
H193 H 0.64714 0.81679 0.70908 0.0
H194 H 0.54805 0.80067 0.67858 0.0
C195 C 0.56096 0.88933 0.53196 0.0
C196 C 0.61827 0.8626 0.57779 0.0
C197 C 0.55907 0.91549 0.51237 0.0
C198 C 0.6277 0.76847 0.73206 0.0
C199 C 0.62586 0.79309 0.70266 0.0
C200 C 0.56768 0.81744 0.64951 0.0
C201 C 0.58986 0.89373 0.56481 0.0
C202 C 0.59139 0.86605 0.58913 0.0
C203 C 0.59681 0.78743 0.66738 0.0
C204 C 0.59466 0.81412 0.63877 0.0
H205 H 0.6364 0.9749 0.56722 0.0
H206 H 0.63961 0.9293 0.60187 0.0
H207 H 0.54521 0.84519 0.63593 0.0
H208 H 0.55011 0.70816 0.68641 0.0
H209 H 0.54704 0.75093 0.63371 0.0
C210 C 0.65784 0.51861 0.80597 0.0
C211 C 0.65513 0.54515 0.83847 0.0
C212 C 0.68565 0.51743 0.82287 0.0
C213 C 0.7524 0.5499 -0.02533 0.0
H214 H 0.79322 0.52033 0.82397 0.0
C215 C 0.87514 0.56394 0.05136 0.0
C216 C 0.88087 0.53907 0.02201 0.0
C217 C 0.84758 0.56377 0.02556 0.0
C218 C 0.78188 0.52825 0.867 0.0
H219 H 0.68029 0.59187 0.91145 0.0
H220 H 0.72849 0.58982 0.94031 0.0
H221 H 0.74545 0.52192 0.78335 0.0
H222 H 0.86202 0.49459 0.94164 0.0
H223 H 0.8135 0.49402 0.89708 0.0
H224 H 0.78826 0.55592 0.05852 0.0
C225 C 0.70898 0.56969 0.90278 0.0
C226 C 0.75453 0.52923 0.84361 0.0
C227 C 0.68135 0.57094 0.88573 0.0
C228 C 0.85842 0.51419 0.96519 0.0
C229 C 0.83064 0.51392 0.93953 0.0
C230 C 0.7795 0.54876 -0.00194 0.0
C231 C 0.71125 0.54266 0.87295 0.0
C232 C 0.73972 0.54047 0.89708 0.0
C233 C 0.82474 0.53863 0.96983 0.0
C234 C 0.79492 0.53832 0.94451 0.0
H235 H 0.6381 0.49827 0.7695 0.0
H236 H 0.6866 0.49622 0.79911 0.0
H237 H 0.74116 0.55797 0.01774 0.0
H238 H 0.89226 0.58389 0.09379 0.0
H239 H 0.84437 0.58364 0.04891 0.0
C240 C 0.37029 0.81913 0.36387 0.0
C241 C 0.36911 0.84745 0.38528 0.0
C242 C 0.34302 0.79065 0.32882 0.0
C243 C 0.25444 0.75107 0.30616 0.0
H244 H 0.26078 0.69183 0.14716 0.0
C245 C 0.14192 0.6336 0.16309 0.0
C246 C 0.14417 0.60561 0.15884 0.0
C247 C 0.16945 0.66422 0.1799 0.0
C248 C 0.25862 0.70807 0.19171 0.0
H249 H 0.33853 0.86825 0.38379 0.0
H250 H 0.29114 0.81878 0.32251 0.0
H251 H 0.30869 0.74303 0.19873 0.0
H252 H 0.17745 0.58804 0.16417 0.0
H253 H 0.22519 0.64121 0.19324 0.0
H254 H 0.20449 0.716 0.29986 0.0
C255 C 0.31293 0.81832 0.33426 0.0
C256 C 0.28612 0.7374 0.22148 0.0
C257 C 0.34014 0.84673 0.36945 0.0
C258 C 0.17475 0.60903 0.16733 0.0
C259 C 0.20223 0.6396 0.18366 0.0
C260 C 0.22697 0.72181 0.27627 0.0
C261 C 0.3139 0.78981 0.31404 0.0
C262 C 0.28445 0.75916 0.27967 0.0
C263 C 0.19987 0.66757 0.19225 0.0
C264 C 0.22874 0.69978 0.21921 0.0
H265 H 0.3921 0.81873 0.37595 0.0
H266 H 0.34458 0.76908 0.3151 0.0
H267 H 0.25226 0.76692 0.35176 0.0
H268 H 0.1188 0.63191 0.15696 0.0
H269 H 0.16685 0.68529 0.18495 0.0
C270 C 0.58736 0.33972 0.70357 0.0
C271 C 0.55832 0.33585 0.7286 0.0
C272 C 0.59038 0.31279 0.67854 0.0
C273 C 0.55435 0.22624 0.69234 0.0
H274 H 0.5936 0.2216 0.50421 0.0
C275 C 0.54203 0.10696 0.55088 0.0
C276 C 0.56904 0.1075 0.5211 0.0
C277 C 0.54193 0.13556 0.57351 0.0
C278 C 0.58293 0.22266 0.55735 0.0
H279 H 0.50951 0.3003 0.74522 0.0
H280 H 0.51499 0.2537 0.70315 0.0
H281 H 0.59199 0.27043 0.55145 0.0
H282 H 0.61686 0.13873 0.48959 0.0
H283 H 0.61678 0.18885 0.52992 0.0
H284 H 0.54536 0.17875 0.6989 0.0
C285 C 0.53558 0.27755 0.70377 0.0
C286 C 0.58201 0.25065 0.58442 0.0
C287 C 0.53249 0.30436 0.72825 0.0
C288 C 0.59559 0.1374 0.51201 0.0
C289 C 0.59554 0.16616 0.53508 0.0
C290 C 0.55539 0.19842 0.66559 0.0
C291 C 0.5645 0.28139 0.67845 0.0
C292 C 0.56732 0.25257 0.6517 0.0
C293 C 0.5689 0.1656 0.56753 0.0
C294 C 0.56925 0.19602 0.59714 0.0
H295 H 0.60789 0.36356 0.70382 0.0
H296 H 0.61309 0.31657 0.66013 0.0
H297 H 0.54343 0.22717 0.74517 0.0
H298 H 0.52101 0.08439 0.55805 0.0
H299 H 0.52067 0.1341 0.59634 0.0
C300 C 0.08754 0.52214 0.91415 0.0
C301 C 0.06019 0.51489 0.95283 0.0
C302 C 0.09492 0.54085 0.85554 0.0
C303 C 0.05869 0.56845 0.71994 0.0
H304 H 0.14696 0.61355 0.67064 0.0
C305 C 0.08112 0.58694 0.41822 0.0
C306 C 0.08899 0.56332 0.39182 0.0
C307 C 0.08741 0.60038 0.49573 0.0
C308 C 0.12238 0.60209 0.68508 0.0
H309 H 1.01776 0.51927 0.95661 0.0
H310 H 1.03163 0.55366 0.85819 0.0
H311 H 0.13506 0.59703 0.79732 0.0
H312 H 0.11332 0.53841 0.42269 0.0
H313 H 0.12397 0.56161 0.55849 0.0
H314 H 0.04599 0.5726 0.6071 0.0
C315 C 0.04732 0.54474 0.87212 0.0
C316 C 0.11541 0.59201 0.75673 0.0
C317 C 0.03939 0.52508 0.92893 0.0
C318 C 0.1063 0.55594 0.4421 0.0
C319 C 0.113 0.56975 0.51937 0.0
C320 C 0.06573 0.57935 0.64946 0.0
C321 C 0.07548 0.55329 0.83552 0.0
C322 C 0.08334 0.5727 0.77211 0.0
C323 C 0.10201 0.59067 0.54732 0.0
C324 C 0.09735 0.59386 0.62941 0.0
H325 H 0.10379 0.5142 0.93077 0.0
H326 H 0.11597 0.54553 0.82619 0.0
H327 H 1.03372 0.55387 0.72941 0.0
H328 H 0.06822 0.59352 0.38027 0.0
H329 H 0.07858 0.61629 0.51648 0.0
C330 C 0.54752 0.04287 0.26789 0.0
C331 C 0.5644 0.02714 0.28262 0.0
C332 C 0.55598 0.06236 0.21056 0.0
C333 C 0.62022 0.10311 0.08383 0.0
H334 H 0.54923 0.07749 0.93257 0.0
C335 C 0.62373 0.0728 0.76963 0.0
C336 C 0.60067 0.07101 0.71724 0.0
C337 C 0.62637 0.086 0.84644 0.0
C338 C 0.5695 0.08613 -0.02526 0.0
H339 H 0.6027 1.01878 0.24788 0.0
H340 H 0.61673 0.05191 0.14597 0.0
H341 H 0.53851 0.06327 0.05971 0.0
H342 H 0.56526 0.08488 0.6986 0.0
H343 H 0.57036 0.10885 0.83276 0.0
H344 H 0.65113 0.12393 -0.00363 0.0
C345 C 0.59774 0.05009 0.18053 0.0
C346 C 0.56324 0.07776 0.04792 0.0
C347 C 0.58931 0.03063 0.2378 0.0
C348 C 0.58263 0.08546 0.73954 0.0
C349 C 0.5857 0.09927 0.81586 0.0
C350 C 0.62652 0.11164 0.01051 0.0
C351 C 0.58133 0.06634 0.16683 0.0
C352 C 0.58845 0.08417 0.10102 0.0
C353 C 0.60616 0.09786 0.87103 0.0
C354 C 0.60108 0.10103 0.95363 0.0
H355 H 0.5284 0.04095 0.30205 0.0
H356 H 0.54282 0.07445 0.20066 0.0
H357 H 0.64009 0.10911 0.12493 0.0
H358 H 0.63808 0.06205 0.7524 0.0
H359 H 0.64222 0.08425 0.88733 0.0
C360 C 0.53544 0.55802 0.59132 0.0
C361 C 0.52258 0.53226 0.63341 0.0
C362 C 0.52107 0.55446 0.51865 0.0
C363 C 0.48919 0.49059 0.36626 0.0
H364 H 0.50206 0.55939 0.25399 0.0
C365 C 0.53921 0.50121 0.07039 0.0
C366 C 0.56312 0.53273 0.06322 0.0
C367 C 0.52013 0.49576 0.13153 0.0
C368 C 0.49811 0.53978 0.28441 0.0
H369 H 0.48221 0.48429 0.63774 0.0
H370 H 0.45782 0.47786 0.50961 0.0
H371 H 0.48731 0.56056 0.38601 0.0
H372 H 0.58735 0.58289 0.11592 0.0
H373 H 0.55567 0.57318 0.22592 0.0
H374 H 0.50356 0.47173 0.26891 0.0
C375 C 0.47894 0.50067 0.53273 0.0
C376 C 0.48922 0.54024 0.35931 0.0
C377 C 0.49324 0.50426 0.6055 0.0
C378 C 0.56915 0.55837 0.12065 0.0
C379 C 0.55044 0.55287 0.18234 0.0
C380 C 0.49846 0.49035 0.29189 0.0
C381 C 0.49379 0.52501 0.48704 0.0
C382 C 0.48734 0.51706 0.40271 0.0
C383 C 0.52504 0.52169 0.18699 0.0
C384 C 0.50545 0.51632 0.25289 0.0
H385 H 0.55758 0.58018 0.61227 0.0
H386 H 0.53321 0.57359 0.48443 0.0
H387 H 0.48781 0.4723 0.39832 0.0
H388 H 0.5336 0.48108 0.02585 0.0
H389 H 0.50087 0.47146 0.13386 0.0
loop_
_geom_bond_atom_site_label_1
_geom_bond_atom_site_label_2
_geom_bond_distance
_geom_bond_site_symmetry_2
_ccdc_geom_bond_type
Tb0 C9 2.764 1_455 S
Tb0 O10 2.325 1_455 S
Tb0 O13 2.303 . S
Tb0 O17 2.322 . S
Tb0 O18 2.349 . S
Tb0 O21 2.415 1_455 S
Tb0 O22 2.399 1_455 S
Tb1 O11 2.309 1_455 S
Tb1 O12 2.349 . S
Tb1 O14 2.415 . S
Tb1 O15 2.399 . S
Tb1 O16 2.325 . S
Tb1 O19 2.303 . S
Tb1 C30 2.764 . S
C2 O18 1.261 . S
C2 O19 1.257 . S
C3 C6 1.358 . S
C3 C7 1.332 . S
C3 C9 1.504 . S
C4 C5 1.373 . S
C4 C8 1.308 . S
C5 C4 1.373 . S
C5 C6 1.429 . S
C5 H32 0.932 . S
C6 C3 1.358 . S
C6 C5 1.429 . S
C6 H33 0.930 . S
C7 C3 1.332 . S
C7 C8 1.394 . S
C7 H34 0.932 . S
C8 C4 1.308 . S
C8 C7 1.394 . S
C8 H35 0.929 . S
C9 Tb0 2.764 1_655 S
C9 C3 1.504 . S
C9 O21 1.239 . S
C9 O22 1.263 . S
O10 Tb0 2.325 1_655 S
O10 C20 1.236 . S
O11 Tb1 2.309 1_655 S
O11 C20 1.274 . S
O12 Tb1 2.349 . S
O12 C23 1.261 . S
O13 Tb0 2.303 . S
O13 C23 1.257 . S
O14 Tb1 2.415 . S
O14 C30 1.239 . S
O15 Tb1 2.399 . S
O15 C30 1.263 . S
O16 Tb1 2.325 . S
O16 C31 1.236 . S
O17 Tb0 2.322 . S
O17 C31 1.257 . S
O18 Tb0 2.349 . S
O18 C2 1.261 . S
O19 Tb1 2.303 . S
O19 C2 1.257 . S
C20 O10 1.236 . S
C20 O11 1.274 . S
O21 Tb0 2.415 1_655 S
O21 C9 1.239 . S
O22 Tb0 2.399 1_655 S
O22 C9 1.263 . S
C23 O12 1.261 . S
C23 O13 1.257 . S
C24 C27 1.358 . S
C24 C28 1.332 . S
C24 C30 1.504 . S
C25 C26 1.373 . S
C25 C29 1.308 . S
C26 C25 1.373 . S
C26 C27 1.429 . S
C26 H36 0.932 . S
C27 C24 1.358 . S
C27 C26 1.429 . S
C27 H37 0.930 . S
C28 C24 1.332 . S
C28 C29 1.394 . S
C28 H38 0.932 . S
C29 C25 1.308 . S
C29 C28 1.394 . S
C29 H39 0.929 . S
C30 Tb1 2.764 . S
C30 O14 1.239 . S
C30 O15 1.263 . S
C30 C24 1.504 . S
C31 O16 1.236 . S
C31 O17 1.257 . S
H32 C5 0.932 . S
H33 C6 0.930 . S
H34 C7 0.932 . S
H35 C8 0.929 . S
H36 C26 0.932 . S
H37 C27 0.930 . S
H38 C28 0.932 . S
H39 C29 0.929 . S
Tb40 C49 2.764 . S
Tb40 O50 2.325 . S
Tb40 O53 2.303 1_565 S
Tb40 O57 2.322 1_565 S
Tb40 O58 2.349 . S
Tb40 O61 2.415 . S
Tb40 O62 2.399 . S
Tb41 O51 2.322 1_545 S
Tb41 O52 2.349 . S
Tb41 O54 2.415 . S
Tb41 O55 2.399 . S
Tb41 O56 2.325 . S
Tb41 O59 2.303 . S
Tb41 C70 2.764 . S
C42 O58 1.261 1_545 S
C42 O59 1.257 . S
C43 C46 1.358 . S
C43 C47 1.332 . S
C43 C49 1.504 . S
C44 C45 1.373 . S
C44 C48 1.308 . S
C45 C44 1.373 . S
C45 C46 1.429 . S
C45 H72 0.932 . S
C46 C43 1.358 . S
C46 C45 1.429 . S
C46 H73 0.930 . S
C47 C43 1.332 . S
C47 C48 1.394 . S
C47 H74 0.932 . S
C48 C44 1.308 . S
C48 C47 1.394 . S
C48 H75 0.929 . S
C49 Tb40 2.764 . S
C49 C43 1.504 . S
C49 O61 1.239 . S
C49 O62 1.263 . S
O50 Tb40 2.325 . S
O50 C60 1.236 . S
O51 Tb41 2.322 1_565 S
O51 C60 1.257 . S
O52 Tb41 2.349 . S
O52 C63 1.261 . S
O53 Tb40 2.303 1_545 S
O53 C63 1.257 . S
O54 Tb41 2.415 . S
O54 C70 1.239 . S
O55 Tb41 2.399 . S
O55 C70 1.263 . S
O56 Tb41 2.325 . S
O56 C71 1.236 . S
O57 Tb40 2.322 1_545 S
O57 C71 1.257 . S
O58 Tb40 2.349 . S
O58 C42 1.261 1_565 S
O59 Tb41 2.303 . S
O59 C42 1.257 . S
C60 O50 1.236 . S
C60 O51 1.257 . S
O61 Tb40 2.415 . S
O61 C49 1.239 . S
O62 Tb40 2.399 . S
O62 C49 1.263 . S
C63 O52 1.261 . S
C63 O53 1.257 . S
C64 C67 1.358 . S
C64 C68 1.332 . S
C64 C70 1.504 . S
C65 C66 1.373 . S
C65 C69 1.308 . S
C66 C65 1.373 . S
C66 C67 1.429 . S
C66 H76 0.932 . S
C67 C64 1.358 . S
C67 C66 1.429 . S
C67 H77 0.930 . S
C68 C64 1.332 . S
C68 C69 1.394 . S
C68 H78 0.932 . S
C69 C65 1.308 . S
C69 C68 1.394 . S
C69 H79 0.929 . S
C70 Tb41 2.764 . S
C70 O54 1.239 . S
C70 O55 1.263 . S
C70 C64 1.504 . S
C71 O56 1.236 . S
C71 O57 1.257 . S
H72 C45 0.932 . S
H73 C46 0.930 . S
H74 C47 0.932 . S
H75 C48 0.929 . S
H76 C66 0.932 . S
H77 C67 0.930 . S
H78 C68 0.932 . S
H79 C69 0.929 . S
Tb80 C89 2.764 . S
Tb80 O90 2.325 . S
Tb80 O93 2.303 . S
Tb80 O97 2.322 . S
Tb80 O98 2.349 . S
Tb80 O101 2.415 . S
Tb80 O102 2.399 . S
Tb81 O91 2.322 . S
Tb81 O92 2.349 . S
Tb81 O94 2.415 . S
Tb81 O95 2.399 . S
Tb81 O96 2.325 . S
Tb81 O99 2.303 . S
Tb81 C110 2.764 . S
C82 O98 1.261 . S
C82 O99 1.257 . S
C83 C86 1.358 . S
C83 C87 1.332 . S
C83 C89 1.504 . S
C84 C85 1.373 . S
C84 C88 1.308 . S
C85 C84 1.373 . S
C85 C86 1.429 . S
C85 H112 0.932 . S
C86 C83 1.358 . S
C86 C85 1.429 . S
C86 H113 0.930 . S
C87 C83 1.332 . S
C87 C88 1.394 . S
C87 H114 0.932 . S
C88 C84 1.308 . S
C88 C87 1.394 . S
C88 H115 0.929 . S
C89 Tb80 2.764 . S
C89 C83 1.504 . S
C89 O101 1.239 . S
C89 O102 1.263 . S
O90 Tb80 2.325 . S
O90 C100 1.236 . S
O91 Tb81 2.322 . S
O91 C100 1.257 . S
O92 Tb81 2.349 . S
O92 C103 1.261 . S
O93 Tb80 2.303 . S
O93 C103 1.257 . S
O94 Tb81 2.415 . S
O94 C110 1.239 . S
O95 Tb81 2.399 . S
O95 C110 1.263 . S
O96 Tb81 2.325 . S
O96 C111 1.236 . S
O97 Tb80 2.322 . S
O97 C111 1.257 . S
O98 Tb80 2.349 . S
O98 C82 1.261 . S
O99 Tb81 2.303 . S
O99 C82 1.257 . S
C100 O90 1.236 . S
C100 O91 1.257 . S
O101 Tb80 2.415 . S
O101 C89 1.239 . S
O102 Tb80 2.399 . S
O102 C89 1.263 . S
C103 O92 1.261 . S
C103 O93 1.257 . S
C104 C107 1.358 . S
C104 C108 1.332 . S
C104 C110 1.504 . S
C105 C106 1.373 . S
C105 C109 1.308 . S
C106 C105 1.373 . S
C106 C107 1.429 . S
C106 H116 0.932 . S
C107 C104 1.358 . S
C107 C106 1.429 . S
C107 H117 0.930 . S
C108 C104 1.332 . S
C108 C109 1.394 . S
C108 H118 0.932 . S
C109 C105 1.308 . S
C109 C108 1.394 . S
C109 H119 0.929 . S
C110 Tb81 2.764 . S
C110 O94 1.239 . S
C110 O95 1.263 . S
C110 C104 1.504 . S
C111 O96 1.236 . S
C111 O97 1.257 . S
H112 C85 0.932 . S
H113 C86 0.930 . S
H114 C87 0.932 . S
H115 C88 0.929 . S
H116 C106 0.932 . S
H117 C107 0.930 . S
H118 C108 0.932 . S
H119 C109 0.929 . S
C120 C121 1.349 . S
C120 C122 1.327 . S
C120 H145 0.950 . S
C121 C120 1.349 . S
C121 C137 1.349 . S
C122 C120 1.327 . S
C122 C141 1.429 . S
C122 H146 0.950 . S
C123 C140 1.574 . S
C123 C142 1.368 . S
C123 H147 0.949 . S
H124 C128 0.949 . S
C125 C126 1.349 . S
C125 C127 1.327 . S
C125 H148 0.950 . S
C126 C125 1.349 . S
C126 C138 1.349 . S
C127 C125 1.327 . S
C127 C143 1.429 . S
C127 H149 0.950 . S
C128 H124 0.949 . S
C128 C136 1.574 . S
C128 C144 1.368 1_554 S
H129 C137 0.945 1_556 S
H130 C135 0.950 . S
H131 C136 0.949 . S
H132 C138 0.950 . S
H133 C139 0.950 . S
H134 C140 0.949 . S
C135 H130 0.950 . S
C135 C137 1.327 1_556 S
C135 C141 1.429 1_556 S
C136 C128 1.574 . S
C136 H131 0.949 . S
C136 C142 1.368 1_554 S
C137 C121 1.349 . S
C137 H129 0.945 1_554 S
C137 C135 1.327 1_554 S
C138 C126 1.349 . S
C138 H132 0.950 . S
C138 C139 1.327 . S
C139 H133 0.950 . S
C139 C138 1.327 . S
C139 C143 1.429 . S
C140 C123 1.574 . S
C140 H134 0.949 . S
C140 C144 1.368 . S
C141 C122 1.429 . S
C141 C135 1.429 1_554 S
C141 C142 1.523 1_554 S
C142 C123 1.368 . S
C142 C136 1.368 1_556 S
C142 C141 1.523 1_556 S
C143 C127 1.429 . S
C143 C139 1.429 . S
C143 C144 1.523 . S
C144 C128 1.368 1_556 S
C144 C140 1.368 . S
C144 C143 1.523 . S
H145 C120 0.950 . S
H146 C122 0.950 . S
H147 C123 0.949 . S
H148 C125 0.950 . S
H149 C127 0.950 . S
C150 C151 1.349 . S
C150 C152 1.327 . S
C150 H175 0.950 . S
C151 C150 1.349 . S
C151 C167 1.349 . S
C152 C150 1.327 . S
C152 C171 1.429 . S
C152 H176 0.950 . S
C153 C170 1.574 . S
C153 C172 1.368 . S
C153 H177 0.949 . S
H154 C158 0.949 . S
C155 C156 1.349 . S
C155 C157 1.327 . S
C155 H178 0.950 . S
C156 C155 1.349 . S
C156 C168 1.349 . S
C157 C155 1.327 . S
C157 C173 1.429 . S
C157 H179 0.950 . S
C158 H154 0.949 . S
C158 C166 1.574 . S
C158 C174 1.368 . S
H159 C167 0.950 . S
H160 C165 0.950 . S
H161 C166 0.949 . S
H162 C168 0.950 . S
H163 C169 0.950 . S
H164 C170 0.949 . S
C165 H160 0.950 . S
C165 C167 1.327 . S
C165 C171 1.429 . S
C166 C158 1.574 . S
C166 H161 0.949 . S
C166 C172 1.368 . S
C167 C151 1.349 . S
C167 H159 0.950 . S
C167 C165 1.327 . S
C168 C156 1.349 . S
C168 H162 0.950 . S
C168 C169 1.327 . S
C169 H163 0.950 . S
C169 C168 1.327 . S
C169 C173 1.429 . S
C170 C153 1.574 . S
C170 H164 0.949 . S
C170 C174 1.368 . S
C171 C152 1.429 . S
C171 C165 1.429 . S
C171 C172 1.523 . S
C172 C153 1.368 . S
C172 C166 1.368 . S
C172 C171 1.523 . S
C173 C157 1.429 . S
C173 C169 1.429 . S
C173 C174 1.523 . S
C174 C158 1.368 . S
C174 C170 1.368 . S
C174 C173 1.523 . S
H175 C150 0.950 . S
H176 C152 0.950 . S
H177 C153 0.949 . S
H178 C155 0.950 . S
H179 C157 0.950 . S
C180 C181 1.349 . S
C180 C182 1.327 . S
C180 H205 0.950 . S
C181 C180 1.349 . S
C181 C197 1.349 . S
C182 C180 1.327 . S
C182 C201 1.429 . S
C182 H206 0.950 . S
C183 C200 1.574 . S
C183 C202 1.368 . S
C183 H207 0.949 . S
H184 C188 0.949 . S
C185 C186 1.349 . S
C185 C187 1.327 . S
C185 H208 0.950 . S
C186 C185 1.349 . S
C186 C198 1.349 . S
C187 C185 1.327 . S
C187 C203 1.429 . S
C187 H209 0.950 . S
C188 H184 0.949 . S
C188 C196 1.574 . S
C188 C204 1.368 . S
H189 C197 0.950 . S
H190 C195 0.950 . S
H191 C196 0.949 . S
H192 C198 0.950 . S
H193 C199 0.950 . S
H194 C200 0.949 . S
C195 H190 0.950 . S
C195 C197 1.327 . S
C195 C201 1.429 . S
C196 C188 1.574 . S
C196 H191 0.949 . S
C196 C202 1.368 . S
C197 C181 1.349 . S
C197 H189 0.950 . S
C197 C195 1.327 . S
C198 C186 1.349 . S
C198 H192 0.950 . S
C198 C199 1.327 . S
C199 H193 0.950 . S
C199 C198 1.327 . S
C199 C203 1.429 . S
C200 C183 1.574 . S
C200 H194 0.949 . S
C200 C204 1.368 . S
C201 C182 1.429 . S
C201 C195 1.429 . S
C201 C202 1.523 . S
C202 C183 1.368 . S
C202 C196 1.368 . S
C202 C201 1.523 . S
C203 C187 1.429 . S
C203 C199 1.429 . S
C203 C204 1.523 . S
C204 C188 1.368 . S
C204 C200 1.368 . S
C204 C203 1.523 . S
H205 C180 0.950 . S
H206 C182 0.950 . S
H207 C183 0.949 . S
H208 C185 0.950 . S
H209 C187 0.950 . S
C210 C211 1.349 . S
C210 C212 1.327 . S
C210 H235 0.950 . S
C211 C210 1.349 . S
C211 C227 1.349 . S
C212 C210 1.327 . S
C212 C231 1.429 . S
C212 H236 0.950 . S
C213 C230 1.574 . S
C213 C232 1.368 1_554 S
C213 H237 0.949 . S
H214 C218 0.949 1_556 S
C215 C216 1.349 . S
C215 C217 1.327 . S
C215 H238 0.950 . S
C216 C215 1.349 . S
C216 C228 1.349 . S
C217 C215 1.327 . S
C217 C233 1.429 . S
C217 H239 0.950 . S
C218 H214 0.949 1_554 S
C218 C226 1.574 1_554 S
C218 C234 1.368 . S
H219 C227 0.950 . S
H220 C225 0.950 1_554 S
H221 C226 0.949 . S
H222 C228 0.950 . S
H223 C229 0.950 . S
H224 C230 0.949 . S
C225 H220 0.950 1_556 S
C225 C227 1.327 . S
C225 C231 1.429 . S
C226 C218 1.574 1_556 S
C226 H221 0.949 . S
C226 C232 1.368 . S
C227 C211 1.349 . S
C227 H219 0.950 . S
C227 C225 1.327 . S
C228 C216 1.349 . S
C228 H222 0.950 . S
C228 C229 1.327 . S
C229 H223 0.950 . S
C229 C228 1.327 . S
C229 C233 1.429 . S
C230 C213 1.574 . S
C230 H224 0.949 . S
C230 C234 1.368 . S
C231 C212 1.429 . S
C231 C225 1.429 . S
C231 C232 1.523 . S
C232 C213 1.368 1_556 S
C232 C226 1.368 . S
C232 C231 1.523 . S
C233 C217 1.429 . S
C233 C229 1.429 . S
C233 C234 1.523 . S
C234 C218 1.368 . S
C234 C230 1.368 . S
C234 C233 1.523 . S
H235 C210 0.950 . S
H236 C212 0.950 . S
H237 C213 0.949 . S
H238 C215 0.950 . S
H239 C217 0.950 . S
C240 C241 1.349 . S
C240 C242 1.327 . S
C240 H265 0.950 . S
C241 C240 1.349 . S
C241 C257 1.349 . S
C242 C240 1.327 . S
C242 C261 1.429 . S
C242 H266 0.950 . S
C243 C260 1.574 . S
C243 C262 1.368 . S
C243 H267 0.949 . S
H244 C248 0.949 . S
C245 C246 1.349 . S
C245 C247 1.327 . S
C245 H268 0.950 . S
C246 C245 1.349 . S
C246 C258 1.349 . S
C247 C245 1.327 . S
C247 C263 1.429 . S
C247 H269 0.950 . S
C248 H244 0.949 . S
C248 C256 1.574 . S
C248 C264 1.368 . S
H249 C257 0.950 . S
H250 C255 0.950 . S
H251 C256 0.949 . S
H252 C258 0.950 . S
H253 C259 0.950 . S
H254 C260 0.949 . S
C255 H250 0.950 . S
C255 C257 1.327 . S
C255 C261 1.429 . S
C256 C248 1.574 . S
C256 H251 0.949 . S
C256 C262 1.368 . S
C257 C241 1.349 . S
C257 H249 0.950 . S
C257 C255 1.327 . S
C258 C246 1.349 . S
C258 H252 0.950 . S
C258 C259 1.327 . S
C259 H253 0.950 . S
C259 C258 1.327 . S
C259 C263 1.429 . S
C260 C243 1.574 . S
C260 H254 0.949 . S
C260 C264 1.368 . S
C261 C242 1.429 . S
C261 C255 1.429 . S
C261 C262 1.523 . S
C262 C243 1.368 . S
C262 C256 1.368 . S
C262 C261 1.523 . S
C263 C247 1.429 . S
C263 C259 1.429 . S
C263 C264 1.523 . S
C264 C248 1.368 . S
C264 C260 1.368 . S
C264 C263 1.523 . S
H265 C240 0.950 . S
H266 C242 0.950 . S
H267 C243 0.949 . S
H268 C245 0.950 . S
H269 C247 0.950 . S
C270 C271 1.349 . S
C270 C272 1.327 . S
C270 H295 0.950 . S
C271 C270 1.349 . S
C271 C287 1.349 . S
C272 C270 1.327 . S
C272 C291 1.429 . S
C272 H296 0.950 . S
C273 C290 1.574 . S
C273 C292 1.368 . S
C273 H297 0.949 . S
H274 C278 0.949 . S
C275 C276 1.349 . S
C275 C277 1.327 . S
C275 H298 0.950 . S
C276 C275 1.349 . S
C276 C288 1.349 . S
C277 C275 1.327 . S
C277 C293 1.429 . S
C277 H299 0.950 . S
C278 H274 0.949 . S
C278 C286 1.574 . S
C278 C294 1.368 . S
H279 C287 0.950 . S
H280 C285 0.950 . S
H281 C286 0.949 . S
H282 C288 0.950 . S
H283 C289 0.950 . S
H284 C290 0.949 . S
C285 H280 0.950 . S
C285 C287 1.327 . S
C285 C291 1.429 . S
C286 C278 1.574 . S
C286 H281 0.949 . S
C286 C292 1.368 . S
C287 C271 1.349 . S
C287 H279 0.950 . S
C287 C285 1.327 . S
C288 C276 1.349 . S
C288 H282 0.950 . S
C288 C289 1.327 . S
C289 H283 0.950 . S
C289 C288 1.327 . S
C289 C293 1.429 . S
C290 C273 1.574 . S
C290 H284 0.949 . S
C290 C294 1.368 . S
C291 C272 1.429 . S
C291 C285 1.429 . S
C291 C292 1.523 . S
C292 C273 1.368 . S
C292 C286 1.368 . S
C292 C291 1.523 . S
C293 C277 1.429 . S
C293 C289 1.429 . S
C293 C294 1.523 . S
C294 C278 1.368 . S
C294 C290 1.368 . S
C294 C293 1.523 . S
H295 C270 0.950 . S
H296 C272 0.950 . S
H297 C273 0.949 . S
H298 C275 0.950 . S
H299 C277 0.950 . S
C300 C301 1.343 1_556 S
C300 C302 1.327 . S
C300 H325 0.950 1_556 S
C301 C300 1.343 1_554 S
C301 C317 1.343 1_554 S
C302 C300 1.327 . S
C302 C321 1.429 . S
C302 H326 0.950 . S
C303 C320 1.574 . S
C303 C322 1.368 . S
C303 H327 0.949 1_455 S
H304 C308 0.949 . S
C305 C306 1.349 . S
C305 C307 1.327 . S
C305 H328 0.950 1_455 S
C306 C305 1.349 . S
C306 C318 1.349 . S
C307 C305 1.327 . S
C307 C323 1.429 . S
C307 H329 0.950 1_455 S
C308 H304 0.949 . S
C308 C316 1.574 . S
C308 C324 1.368 . S
H309 C317 0.950 1_655 S
H310 C315 0.950 1_655 S
H311 C316 0.949 . S
H312 C318 0.950 . S
H313 C319 0.950 . S
H314 C320 0.949 1_655 S
C315 H310 0.950 1_455 S
C315 C317 1.327 . S
C315 C321 1.429 . S
C316 C308 1.574 . S
C316 H311 0.949 . S
C316 C322 1.368 . S
C317 C301 1.343 1_556 S
C317 H309 0.950 1_455 S
C317 C315 1.327 . S
C318 C306 1.349 . S
C318 H312 0.950 . S
C318 C319 1.327 . S
C319 H313 0.950 . S
C319 C318 1.327 . S
C319 C323 1.429 . S
C320 C303 1.574 . S
C320 H314 0.949 1_455 S
C320 C324 1.368 . S
C321 C302 1.429 . S
C321 C315 1.429 . S
C321 C322 1.523 . S
C322 C303 1.368 . S
C322 C316 1.368 . S
C322 C321 1.523 . S
C323 C307 1.429 . S
C323 C319 1.429 . S
C323 C324 1.523 . S
C324 C308 1.368 . S
C324 C320 1.368 . S
C324 C323 1.523 . S
H325 C300 0.950 1_554 S
H326 C302 0.950 . S
H327 C303 0.949 1_655 S
H328 C305 0.950 1_655 S
H329 C307 0.950 1_655 S
C330 C331 1.349 . S
C330 C332 1.329 1_545 S
C330 H355 0.950 1_545 S
C331 C330 1.349 . S
C331 C347 1.349 . S
C332 C330 1.329 1_565 S
C332 C351 1.428 1_565 S
C332 H356 0.948 . S
C333 C350 1.574 1_554 S
C333 C352 1.368 . S
C333 H357 0.949 . S
H334 C338 0.949 . S
C335 C336 1.349 . S
C335 C337 1.327 . S
C335 H358 0.950 . S
C336 C335 1.349 . S
C336 C348 1.349 1_545 S
C337 C335 1.327 . S
C337 C353 1.429 . S
C337 H359 0.950 . S
C338 H334 0.949 . S
C338 C346 1.574 1_556 S
C338 C354 1.368 1_565 S
H339 C347 0.950 . S
H340 C345 0.950 . S
H341 C346 0.949 . S
H342 C348 0.950 . S
H343 C349 0.950 . S
H344 C350 0.949 . S
C345 H340 0.950 . S
C345 C347 1.327 . S
C345 C351 1.429 . S
C346 C338 1.574 1_554 S
C346 H341 0.949 . S
C346 C352 1.368 1_565 S
C347 C331 1.349 . S
C347 H339 0.950 . S
C347 C345 1.327 . S
C348 C336 1.349 1_565 S
C348 H342 0.950 . S
C348 C349 1.327 . S
C349 H343 0.950 . S
C349 C348 1.327 . S
C349 C353 1.429 1_565 S
C350 C333 1.574 1_556 S
C350 H344 0.949 . S
C350 C354 1.368 . S
C351 C332 1.428 1_545 S
C351 C345 1.429 . S
C351 C352 1.523 . S
C352 C333 1.368 . S
C352 C346 1.368 1_545 S
C352 C351 1.523 . S
C353 C337 1.429 . S
C353 C349 1.429 1_545 S
C353 C354 1.523 . S
C354 C338 1.368 1_545 S
C354 C350 1.368 . S
C354 C353 1.523 . S
H355 C330 0.950 1_565 S
H356 C332 0.948 . S
H357 C333 0.949 . S
H358 C335 0.950 . S
H359 C337 0.950 . S
C360 C361 1.349 . S
C360 C362 1.327 . S
C360 H385 0.950 . S
C361 C360 1.349 . S
C361 C377 1.349 . S
C362 C360 1.327 . S
C362 C381 1.429 . S
C362 H386 0.950 . S
C363 C380 1.574 . S
C363 C382 1.368 . S
C363 H387 0.949 . S
H364 C368 0.949 . S
C365 C366 1.349 1_554 S
C365 C367 1.327 . S
C365 H388 0.950 1_554 S
C366 C365 1.349 1_556 S
C366 C378 1.349 1_556 S
C367 C365 1.327 . S
C367 C383 1.429 . S
C367 H389 0.950 . S
C368 H364 0.949 . S
C368 C376 1.574 . S
C368 C384 1.368 . S
H369 C377 0.950 . S
H370 C375 0.950 . S
H371 C376 0.949 . S
H372 C378 0.950 . S
H373 C379 0.950 . S
H374 C380 0.949 . S
C375 H370 0.950 . S
C375 C377 1.327 . S
C375 C381 1.429 . S
C376 C368 1.574 . S
C376 H371 0.949 . S
C376 C382 1.368 . S
C377 C361 1.349 . S
C377 H369 0.950 . S
C377 C375 1.327 . S
C378 C366 1.349 1_554 S
C378 H372 0.950 . S
C378 C379 1.327 . S
C379 H373 0.950 . S
C379 C378 1.327 . S
C379 C383 1.429 . S
C380 C363 1.574 . S
C380 H374 0.949 . S
C380 C384 1.368 . S
C381 C362 1.429 . S
C381 C375 1.429 . S
C381 C382 1.523 . S
C382 C363 1.368 . S
C382 C376 1.368 . S
C382 C381 1.523 . S
C383 C367 1.429 . S
C383 C379 1.429 . S
C383 C384 1.523 . S
C384 C368 1.368 . S
C384 C380 1.368 . S
C384 C383 1.523 . S
H385 C360 0.950 . S
H386 C362 0.950 . S
H387 C363 0.949 . S
H388 C365 0.950 1_556 S
H389 C367 0.950 . S
C121 C25 1.893 . S
C126 C111 1.847 . S
C151 C65 2.124 . S
C156 C20 2.145 . S
C181 C60 2.143 . S
C186 C105 2.116 . S
C211 C100 2.090 . S
C216 C4 2.048 . S
C241 C44 1.769 . S
C246 C31 1.747 . S
C271 C84 1.775 . S
C276 C71 1.747 . S
C301 C2 0.408 . S
C306 C23 0.404 . S
C331 C42 0.351 . S
C336 C63 0.351 . S
C361 C82 0.366 . S
C366 C103 0.366 . S
