# Generated by pormake.
# Topology lcy-e, (6)-cn, num edge types: 1
# Building blocks:
#     Node 0, Type 0, BuildingBlock: KUMBUR_clean_sbu_1, # of connection points: 6
#     Node 1, Type 0, BuildingBlock: KUMBUR_clean_sbu_1, # of connection points: 6
#     Node 2, Type 0, BuildingBlock: KUMBUR_clean_sbu_1, # of connection points: 6
#     Node 3, Type 0, BuildingBlock: KUMBUR_clean_sbu_1, # of connection points: 6
#     Node 4, Type 0, BuildingBlock: KUMBUR_clean_sbu_1, # of connection points: 6
#     Node 5, Type 0, BuildingBlock: KUMBUR_clean_sbu_1, # of connection points: 6
#     Node 6, Type 0, BuildingBlock: KUMBUR_clean_sbu_1, # of connection points: 6
#     Node 7, Type 0, BuildingBlock: KUMBUR_clean_sbu_1, # of connection points: 6
#     Node 8, Type 0, BuildingBlock: KUMBUR_clean_sbu_1, # of connection points: 6
#     Node 9, Type 0, BuildingBlock: KUMBUR_clean_sbu_1, # of connection points: 6
#     Node 10, Type 0, BuildingBlock: KUMBUR_clean_sbu_1, # of connection points: 6
#     Node 11, Type 0, BuildingBlock: KUMBUR_clean_sbu_1, # of connection points: 6
#     Edge 12, Type (0, 0), BuildingBlock: XIVTED_clean_linker_0, # of connection points: 2
#     Edge 13, Type (0, 0), BuildingBlock: XIVTED_clean_linker_0, # of connection points: 2
#     Edge 14, Type (0, 0), BuildingBlock: XIVTED_clean_linker_0, # of connection points: 2
#     Edge 15, Type (0, 0), BuildingBlock: XIVTED_clean_linker_0, # of connection points: 2
#     Edge 16, Type (0, 0), BuildingBlock: XIVTED_clean_linker_0, # of connection points: 2
#     Edge 17, Type (0, 0), BuildingBlock: XIVTED_clean_linker_0, # of connection points: 2
#     Edge 18, Type (0, 0), BuildingBlock: XIVTED_clean_linker_0, # of connection points: 2
#     Edge 19, Type (0, 0), BuildingBlock: XIVTED_clean_linker_0, # of connection points: 2
#     Edge 20, Type (0, 0), BuildingBlock: XIVTED_clean_linker_0, # of connection points: 2
#     Edge 21, Type (0, 0), BuildingBlock: XIVTED_clean_linker_0, # of connection points: 2
#     Edge 22, Type (0, 0), BuildingBlock: XIVTED_clean_linker_0, # of connection points: 2
#     Edge 23, Type (0, 0), BuildingBlock: XIVTED_clean_linker_0, # of connection points: 2
#     Edge 24, Type (0, 0), BuildingBlock: XIVTED_clean_linker_0, # of connection points: 2
#     Edge 25, Type (0, 0), BuildingBlock: XIVTED_clean_linker_0, # of connection points: 2
#     Edge 26, Type (0, 0), BuildingBlock: XIVTED_clean_linker_0, # of connection points: 2
#     Edge 27, Type (0, 0), BuildingBlock: XIVTED_clean_linker_0, # of connection points: 2
#     Edge 28, Type (0, 0), BuildingBlock: XIVTED_clean_linker_0, # of connection points: 2
#     Edge 29, Type (0, 0), BuildingBlock: XIVTED_clean_linker_0, # of connection points: 2
#     Edge 30, Type (0, 0), BuildingBlock: XIVTED_clean_linker_0, # of connection points: 2
#     Edge 31, Type (0, 0), BuildingBlock: XIVTED_clean_linker_0, # of connection points: 2
#     Edge 32, Type (0, 0), BuildingBlock: XIVTED_clean_linker_0, # of connection points: 2
#     Edge 33, Type (0, 0), BuildingBlock: XIVTED_clean_linker_0, # of connection points: 2
#     Edge 34, Type (0, 0), BuildingBlock: XIVTED_clean_linker_0, # of connection points: 2
#     Edge 35, Type (0, 0), BuildingBlock: XIVTED_clean_linker_0, # of connection points: 2
#     Edge 36, Type (0, 0), BuildingBlock: XIVTED_clean_linker_0, # of connection points: 2
#     Edge 37, Type (0, 0), BuildingBlock: XIVTED_clean_linker_0, # of connection points: 2
#     Edge 38, Type (0, 0), BuildingBlock: XIVTED_clean_linker_0, # of connection points: 2
#     Edge 39, Type (0, 0), BuildingBlock: XIVTED_clean_linker_0, # of connection points: 2
#     Edge 40, Type (0, 0), BuildingBlock: XIVTED_clean_linker_0, # of connection points: 2
#     Edge 41, Type (0, 0), BuildingBlock: XIVTED_clean_linker_0, # of connection points: 2
#     Edge 42, Type (0, 0), BuildingBlock: XIVTED_clean_linker_0, # of connection points: 2
#     Edge 43, Type (0, 0), BuildingBlock: XIVTED_clean_linker_0, # of connection points: 2
#     Edge 44, Type (0, 0), BuildingBlock: XIVTED_clean_linker_0, # of connection points: 2
#     Edge 45, Type (0, 0), BuildingBlock: XIVTED_clean_linker_0, # of connection points: 2
#     Edge 46, Type (0, 0), BuildingBlock: XIVTED_clean_linker_0, # of connection points: 2
#     Edge 47, Type (0, 0), BuildingBlock: XIVTED_clean_linker_0, # of connection points: 2
# Relax obj value: 0.093
# Max RMSD: 0.241
# Mean RMSD: 0.240
data_MOF--net-lcy-e--node1-KUMBUR_clean_sbu_1--edge1-XIVTED_clean_linker_0
_symmetry_space_group_name_H-M    P1
_symmetry_Int_Tables_number       1
_symmetry_cell_setting            triclinic
loop_
_symmetry_equiv_pos_as_xyz
'x, y, z'
_cell_length_a     43.971941
_cell_length_b     43.786189
_cell_length_c     44.083393
_cell_angle_alpha  89.993606
_cell_angle_beta   89.743145
_cell_angle_gamma 89.807356
loop_
_atom_site_label
_atom_site_type_symbol
_atom_site_fract_x
_atom_site_fract_y
_atom_site_fract_z
_atom_type_partial_charge
Tb0 Tb 0.1488 0.20598 0.51423 0.0
C1 C 0.05593 0.3058 0.4747 0.0
N2 N 0.06975 0.28379 0.45776 0.0
C3 C 0.02225 0.2725 0.43369 0.0
C4 C 0.02432 0.3109 0.47294 0.0
C5 C 0.0537 0.26843 0.4362 0.0
C6 C 1.00739 0.29347 0.45251 0.0
C7 C 0.06045 0.34729 0.51086 0.0
C8 C 0.0738 0.32408 0.49305 0.0
C9 C 0.02881 0.35176 0.51 0.0
C10 C 0.0108 0.33368 0.491 0.0
Tb11 Tb 0.12109 0.27908 0.46421 0.0
N12 N 0.10432 0.31889 0.49349 0.0
C13 C 0.07933 0.36539 0.52887 0.0
C14 C 0.12289 0.33734 0.50997 0.0
C15 C 0.11074 0.36056 0.52818 0.0
H16 H 0.06511 0.25363 0.4203 0.0
H17 H 0.12564 0.37489 0.54146 0.0
H18 H 0.20663 0.23005 0.55812 0.0
H19 H 0.14146 0.11041 0.43787 0.0
H20 H 0.14703 0.33468 0.50873 0.0
H21 H 0.06998 0.38343 0.54295 0.0
H22 H 0.12138 0.15241 0.46992 0.0
H23 H 0.00959 0.25982 0.41691 0.0
H24 H 0.01811 0.36941 0.52362 0.0
H25 H 0.98651 0.33778 0.49013 0.0
H26 H 0.2621 0.22372 0.55922 0.0
H27 H 0.98305 0.29673 0.45039 0.0
H28 H 0.197 0.10128 0.43471 0.0
N29 N 0.20044 0.20067 0.51994 0.0
C30 C 0.21382 0.17932 0.50182 0.0
C31 C 0.24884 0.21144 0.54261 0.0
C32 C 0.24546 0.17406 0.50255 0.0
C33 C 0.2173 0.21545 0.54141 0.0
C34 C 0.26307 0.19104 0.52274 0.0
N35 N 0.16516 0.1676 0.48326 0.0
C36 C 0.14562 0.14874 0.46826 0.0
C37 C 0.208 0.13797 0.46569 0.0
C38 C 0.19547 0.16164 0.48348 0.0
C39 C 0.18829 0.11972 0.44869 0.0
C40 C 0.15693 0.12487 0.45032 0.0
H41 H 0.28747 0.18775 0.52396 0.0
H42 H 0.28264 0.14731 0.48381 0.0
H43 H 0.24978 0.11556 0.45166 0.0
O44 O 0.11551 0.17645 0.53248 0.0
O45 O 0.15827 0.20959 0.46541 0.0
O46 O 0.16696 0.25994 0.45653 0.0
O47 O 0.16031 0.17725 0.55093 0.0
O48 O 0.10252 0.20759 0.49473 0.0
O49 O 0.10781 0.23321 0.44938 0.0
O50 O 0.13242 0.32097 0.44369 0.0
O51 O 0.09726 0.26835 0.50834 0.0
O52 O 0.13169 0.24444 0.54043 0.0
O53 O 0.11878 0.28281 0.41642 0.0
O54 O 0.16476 0.28469 0.48698 0.0
O55 O 0.16768 0.25157 0.52861 0.0
C56 C 0.17503 0.23119 0.45362 0.0
C57 C 0.12076 0.15989 0.58343 0.0
C58 C 0.09938 0.12518 0.62208 0.0
C59 C 0.09744 0.15032 0.64202 0.0
C60 C 0.118 0.18433 0.60373 0.0
C61 C 0.1065 0.17949 0.63286 0.0
C62 C 0.11142 0.13031 0.59263 0.0
C63 C 0.09488 0.2119 0.46611 0.0
C64 C 0.13356 0.16487 0.55273 0.0
C65 C 0.25833 0.15144 0.4838 0.0
C66 C 0.23962 0.13331 0.46554 0.0
C67 C 0.10813 0.2625 0.53585 0.0
C68 C 0.11325 0.33253 0.39478 0.0
C69 C 0.11647 0.36436 0.3487 0.0
C70 C 0.08703 0.37543 0.35535 0.0
C71 C 0.08399 0.34389 0.40046 0.0
C72 C 0.12943 0.34276 0.36886 0.0
C73 C 0.07101 0.36517 0.38082 0.0
C74 C 0.17536 0.27716 0.51392 0.0
C75 C 0.12785 0.31112 0.41625 0.0
H76 H 0.0892 0.14751 0.66502 0.0
H77 H 0.12495 0.2071 0.5971 0.0
H78 H 0.10471 0.19845 0.64853 0.0
H79 H 0.11321 0.11153 0.57671 0.0
H80 H 0.07639 0.39257 0.34119 0.0
H81 H 0.07134 0.33665 0.42025 0.0
H82 H 0.15201 0.33377 0.36446 0.0
H83 H 0.04848 0.37406 0.38554 0.0
Tb84 Tb 0.05527 0.89201 0.78047 0.0
C85 C 0.97493 0.80137 0.71343 0.0
N86 N 0.99625 0.82001 0.70102 0.0
C87 C 0.01621 0.7779 0.67223 0.0
C88 C 0.97454 0.76982 0.70713 0.0
C89 C 0.01502 0.80917 0.67872 0.0
C90 C 0.99638 0.75797 0.68712 0.0
C91 C 0.92704 0.79693 0.7405 0.0
C92 C 0.95148 0.81462 0.72972 0.0
C93 C 0.92759 0.76514 0.7362 0.0
C94 C 0.95135 0.75158 0.71956 0.0
Tb95 Tb 0.99357 0.87029 0.71525 0.0
N96 N 0.95181 0.84538 0.73335 0.0
C97 C 0.9023 0.81196 0.75406 0.0
C98 C 0.92677 0.86039 0.74423 0.0
C99 C 0.90186 0.8439 0.7553 0.0
H100 H 0.02873 0.82473 0.66558 0.0
H101 H 0.88241 0.8558 0.76477 0.0
H102 H 0.02788 0.95503 0.8111 0.0
H103 H 0.15957 0.86999 0.71725 0.0
H104 H 0.92637 0.88501 0.74482 0.0
H105 H 0.88298 0.79923 0.76259 0.0
H106 H 0.11577 0.85581 0.74869 0.0
H107 H 0.03194 0.76931 0.65528 0.0
H108 H 0.90922 0.75101 0.74464 0.0
H109 H 0.95086 0.72721 0.71532 0.0
H110 H 0.03916 0.01037 0.80963 0.0
H111 H 0.99692 0.73385 0.68165 0.0
H112 H 0.1708 0.92442 0.70751 0.0
N113 N 0.06394 0.94325 0.78099 0.0
C114 C 0.0888 0.95302 0.76536 0.0
C115 C 0.05314 0.99448 0.79689 0.0
C116 C 0.09595 0.98429 0.76366 0.0
C117 C 0.04673 0.96321 0.7976 0.0
C118 C 0.07764 1.00512 0.77957 0.0
N119 N 0.09885 0.90139 0.75293 0.0
C120 C 0.11874 0.8795 0.74286 0.0
C121 C 0.13218 0.94072 0.73355 0.0
C122 C 0.1064 0.93145 0.75028 0.0
C123 C 0.15077 0.91827 0.72052 0.0
C124 C 0.14438 0.88753 0.72578 0.0
H125 H 0.08238 0.02938 0.77887 0.0
H126 H 0.12666 0.01768 0.74424 0.0
H127 H 0.15854 0.97951 0.71804 0.0
O128 O 0.09514 0.88726 0.80656 0.0
O129 O 0.03863 0.92502 0.7466 0.0
O130 O 0.03406 0.89736 0.70306 0.0
O131 O 0.05208 0.89338 0.82833 0.0
O132 O 0.06249 0.84888 0.75473 0.0
O133 O 0.04201 0.85948 0.70761 0.0
O134 O 0.96818 0.9056 0.6945 0.0
O135 O 0.98594 0.8538 0.76256 0.0
O136 O 0.03384 0.84694 0.78148 0.0
O137 O 0.9738 0.86272 0.6724 0.0
O138 O 0.98368 0.90973 0.74459 0.0
O139 O 1.00701 0.9044 0.79202 0.0
C140 C 0.04117 0.92293 0.71697 0.0
C141 C 0.09077 0.86598 0.85595 0.0
C142 C 0.13125 0.83938 0.88438 0.0
C143 C 0.10864 0.82425 0.90122 0.0
C144 C 0.069 0.85122 0.87411 0.0
C145 C 0.07788 0.8303 0.89625 0.0
C146 C 0.12211 0.86042 0.8617 0.0
C147 C 0.06016 0.84337 0.72526 0.0
C148 C 0.08103 0.88842 0.83237 0.0
C149 C 0.12094 0.9937 0.7461 0.0
C150 C 0.13901 0.97196 0.73108 0.0
C151 C 1.00437 0.84279 0.78354 0.0
C152 C 0.96939 0.90584 0.64076 0.0
C153 C 0.95223 0.92563 0.59151 0.0
C154 C 0.98257 0.93304 0.58452 0.0
C155 C 0.99939 0.91334 0.63294 0.0
C156 C 0.94571 0.91227 0.62005 0.0
C157 C 1.00585 0.92707 0.60512 0.0
C158 C 0.98379 0.91298 0.77444 0.0
C159 C 0.96308 0.8902 0.66988 0.0
H160 H 0.11481 0.80812 0.9188 0.0
H161 H 0.04501 0.85595 0.87138 0.0
H162 H 0.0608 0.81889 0.90985 0.0
H163 H 0.13928 0.87222 0.8485 0.0
H164 H 0.98831 0.94366 0.56306 0.0
H165 H 0.01789 0.90827 0.64819 0.0
H166 H 0.92252 0.90619 0.62578 0.0
H167 H 0.02909 0.93287 0.59938 0.0
Tb168 Tb 0.39761 0.74156 0.9571 0.0
C169 C 0.3308 0.77822 0.0822 0.0
N170 N 0.33037 0.78918 0.0534 0.0
C171 C 0.27598 0.79285 0.05547 0.0
C172 C 0.30369 0.77291 0.09844 0.0
C173 C 0.30357 0.79772 0.04031 0.0
C174 C 0.276 0.77999 0.08451 0.0
C175 C 0.36047 0.76296 0.12579 0.0
C176 C 0.35869 0.77314 0.09554 0.0
C177 C 0.33356 0.75641 0.14182 0.0
C178 C 0.3052 0.76136 0.12815 0.0
Tb179 Tb 0.37659 0.79457 0.03024 0.0
N180 N 0.38406 0.77993 0.07934 0.0
C181 C 0.38916 0.76072 0.13927 0.0
C182 C 0.41192 0.7795 0.09285 0.0
C183 C 0.41492 0.76971 0.12293 0.0
H184 H 0.30338 0.80799 0.01812 0.0
H185 H 0.4371 0.76906 0.13347 0.0
H186 H 0.4585 0.70667 0.99041 0.0
H187 H 0.38901 0.81553 0.86021 0.0
H188 H 0.43182 0.78693 0.08042 0.0
H189 H 0.39156 0.75306 0.16251 0.0
H190 H 0.36932 0.7856 0.90375 0.0
H191 H 0.25473 0.79911 0.0448 0.0
H192 H 0.33442 0.74825 0.165 0.0
H193 H 0.28462 0.75685 0.14096 0.0
H194 H 0.51366 0.70895 0.98559 0.0
H195 H 0.2546 0.7763 0.09621 0.0
H196 H 0.44446 0.81804 0.85058 0.0
N197 N 0.44988 0.74018 0.95606 0.0
C198 C 0.4626 0.75638 0.93284 0.0
C199 C 0.49957 0.7228 0.97091 0.0
C200 C 0.49441 0.75715 0.92847 0.0
C201 C 0.46792 0.72228 0.97407 0.0
C202 C 0.5129 0.74056 0.94826 0.0
N203 N 0.41328 0.77231 0.91874 0.0
C204 C 0.39355 0.78687 0.89971 0.0
C205 C 0.4559 0.78907 0.88872 0.0
C206 C 0.44368 0.77234 0.91319 0.0
C207 C 0.43594 0.80488 0.8696 0.0
C208 C 0.40462 0.80365 0.87505 0.0
H209 H 0.53743 0.74066 0.94574 0.0
H210 H 0.53112 0.77511 0.90082 0.0
H211 H 0.49741 0.80287 0.86594 0.0
O212 O 0.37159 0.72464 0.92078 0.0
O213 O 0.40633 0.79127 0.96097 0.0
O214 O 0.42165 0.7952 0.00943 0.0
O215 O 0.41231 0.70175 0.93438 0.0
O216 O 0.35136 0.76024 0.95719 0.0
O217 O 0.35146 0.80389 0.98772 0.0
O218 O 0.38622 0.82964 0.06155 0.0
O219 O 0.34768 0.75308 0.02659 0.0
O220 O 0.36812 0.71925 0.99021 0.0
O221 O 0.37351 0.84031 0.01569 0.0
O222 O 0.41733 0.76564 0.02807 0.0
O223 O 0.40918 0.72134 1.00199 0.0
C224 C 0.42527 0.80258 0.98091 0.0
C225 C 0.3737 0.67162 0.91189 0.0
C226 C 0.34862 0.63489 0.87816 0.0
C227 C 0.34403 0.61565 0.9034 0.0
C228 C 0.36859 0.65208 0.93655 0.0
C229 C 0.35386 0.62426 0.93226 0.0
C230 C 0.36371 0.66297 0.88273 0.0
C231 C 0.33919 0.78615 0.96673 0.0
C232 C 0.38911 0.70121 0.9162 0.0
C233 C 0.50674 0.77415 0.90437 0.0
C234 C 0.48755 0.78991 0.88445 0.0
C235 C 0.34916 0.72627 0.01256 0.0
C236 C 0.36616 0.87922 0.05314 0.0
C237 C 0.36979 0.9286 0.07972 0.0
C238 C 0.33965 0.93488 0.07064 0.0
C239 C 0.33609 0.88595 0.04515 0.0
C240 C 0.38276 0.90036 0.0707 0.0
C241 C 0.323 0.91365 0.05389 0.0
C242 C 0.41705 0.73572 0.02715 0.0
C243 C 0.38145 0.85126 0.04203 0.0
H244 H 0.33311 0.59368 0.90086 0.0
H245 H 0.37601 0.65832 0.95911 0.0
H246 H 0.35008 0.60923 0.9514 0.0
H247 H 0.3673 0.67834 0.8638 0.0
H248 H 0.32884 0.95647 0.07591 0.0
H249 H 0.32293 0.87005 0.03176 0.0
H250 H 0.4058 0.89462 0.07719 0.0
H251 H 0.2999 0.91894 0.04725 0.0
Tb252 Tb 0.45931 0.1135 0.26477 0.0
C253 C 0.55153 0.20916 0.21176 0.0
N254 N 0.52934 0.19316 0.19741 0.0
C255 C 0.5148 0.23825 0.16996 0.0
C256 C 0.55511 0.24078 0.20688 0.0
C257 C 0.5124 0.20686 0.17528 0.0
C258 C 0.53587 0.2554 0.18623 0.0
C259 C 0.59551 0.2091 0.24493 0.0
C260 C 0.57186 0.19347 0.23014 0.0
C261 C 0.59841 0.24079 0.24102 0.0
C262 C 0.57831 0.25657 0.222 0.0
Tb263 Tb 0.52787 0.14217 0.20872 0.0
N264 N 0.56813 0.16284 0.23381 0.0
C265 C 0.61555 0.19237 0.26315 0.0
C266 C 0.58821 0.14631 0.25065 0.0
C267 C 0.612 0.16079 0.26583 0.0
H268 H 0.49719 0.19363 0.16136 0.0
H269 H 0.62766 0.14757 0.27947 0.0
H270 H 0.48905 0.05377 0.30325 0.0
H271 H 0.35644 0.12163 0.19957 0.0
H272 H 0.58598 0.12206 0.25229 0.0
H273 H 0.63399 0.20354 0.27495 0.0
H274 H 0.40101 0.1415 0.22756 0.0
H275 H 0.50071 0.24909 0.15298 0.0
H276 H 0.61637 0.25324 0.2523 0.0
H277 H 0.58124 0.28091 0.21871 0.0
H278 H 0.48511 0.99795 0.30175 0.0
H279 H 0.53788 0.27966 0.18184 0.0
H280 H 0.34933 0.06582 0.19403 0.0
N281 N 0.4568 0.06114 0.2678 0.0
C282 C 0.43454 0.04798 0.25098 0.0
C283 C 0.47111 0.01173 0.28692 0.0
C284 C 0.43054 0.01603 0.25049 0.0
C285 C 0.47377 0.04355 0.28711 0.0
C286 C 0.44979 0.99785 0.26811 0.0
N287 N 0.41899 0.09736 0.23679 0.0
C288 C 0.39791 0.11713 0.22515 0.0
C289 C 0.38958 0.05437 0.21985 0.0
C290 C 0.41444 0.06675 0.23567 0.0
C291 C 0.36875 0.07442 0.20638 0.0
C292 C 0.37272 0.10595 0.2094 0.0
H293 H 0.4475 0.97322 0.26835 0.0
H294 H 0.40354 0.97888 0.23255 0.0
H295 H 0.3675 0.01251 0.20591 0.0
O296 O 0.42747 0.14403 0.28391 0.0
O297 O 0.45792 0.1084 0.21538 0.0
O298 O 0.50643 0.09728 0.20139 0.0
O299 O 0.43616 0.10096 0.30504 0.0
O300 O 0.46139 0.1612 0.24927 0.0
O301 O 0.48115 0.1584 0.20081 0.0
O302 O 0.56912 0.13006 0.18719 0.0
O303 O 0.52411 0.16416 0.25475 0.0
O304 O 0.49833 0.13194 0.28845 0.0
O305 O 0.52996 0.14229 0.16086 0.0
O306 O 0.53484 0.09791 0.23076 0.0
O307 O 0.50605 0.09582 0.27533 0.0
C308 C 0.47718 0.09201 0.19961 0.0
C309 C 0.4156 0.14078 0.33607 0.0
C310 C 0.38076 0.16488 0.37293 0.0
C311 C 0.40589 0.17002 0.39198 0.0
C312 C 0.4401 0.14647 0.35541 0.0
C313 C 0.43518 0.16092 0.38324 0.0
C314 C 0.38598 0.14997 0.3449 0.0
C315 C 0.46379 0.17178 0.2214 0.0
C316 C 0.42037 0.1261 0.30623 0.0
C317 C 0.40677 1.00339 0.23342 0.0
C318 C 0.38621 0.02253 0.21829 0.0
C319 C 0.51663 0.15503 0.28258 0.0
C320 C 0.57852 0.1483 0.13727 0.0
C321 C 0.61275 0.14378 0.0931 0.0
C322 C 0.61675 0.17568 0.09399 0.0
C323 C 0.58347 0.17986 0.13771 0.0
C324 C 0.5932 0.13028 0.11489 0.0
C325 C 0.60233 0.19343 0.11612 0.0
C326 C 0.53074 0.08886 0.25896 0.0
C327 C 0.55836 0.13368 0.15998 0.0
H328 H 0.40293 0.18081 0.41389 0.0
H329 H 0.46297 0.13978 0.34895 0.0
H330 H 0.4542 0.16512 0.39817 0.0
H331 H 0.36716 0.146 0.32962 0.0
H332 H 0.63085 0.18713 0.07734 0.0
H333 H 0.57282 0.19412 0.15463 0.0
H334 H 0.58977 0.10578 0.11482 0.0
H335 H 0.60578 0.21789 0.1165 0.0
Tb336 Tb 0.64975 0.30891 0.48558 0.0
C337 C 0.55999 0.21127 0.54157 0.0
N338 N 0.57422 0.23599 0.5536 0.0
C339 C 0.52788 0.25053 0.57891 0.0
C340 C 0.52861 0.20641 0.54615 0.0
C341 C 0.55916 0.2539 0.5742 0.0
C342 C 0.51235 0.22712 0.5642 0.0
C343 C 0.56406 0.1623 0.51597 0.0
C344 C 0.57751 0.18922 0.52709 0.0
C345 C 0.53252 0.15825 0.51889 0.0
C346 C 0.51483 0.18025 0.53397 0.0
Tb347 Tb 0.62531 0.23912 0.5434 0.0
N348 N 0.60796 0.19395 0.52453 0.0
C349 C 0.58285 0.14007 0.50271 0.0
C350 C 0.6265 0.17177 0.513 0.0
C351 C 0.61426 0.1447 0.50153 0.0
H352 H 0.57123 0.27052 0.58755 0.0
H353 H 0.62909 0.1273 0.49211 0.0
H354 H 0.71279 0.27143 0.45872 0.0
H355 H 0.63657 0.41319 0.5489 0.0
H356 H 0.65072 0.17462 0.51355 0.0
H357 H 0.57342 0.11905 0.49391 0.0
H358 H 0.61869 0.36613 0.52351 0.0
H359 H 0.51593 0.26554 0.59445 0.0
H360 H 0.5217 0.13785 0.51026 0.0
H361 H 0.49068 0.17632 0.53698 0.0
H362 H 0.76763 0.27687 0.46347 0.0
H363 H 0.48822 0.22421 0.5683 0.0
H364 H 0.6917 0.42388 0.55204 0.0
N365 N 0.70196 0.3095 0.48742 0.0
C366 C 0.71358 0.33467 0.50148 0.0
C367 C 0.75267 0.29302 0.4747 0.0
C368 C 0.74526 0.33937 0.50336 0.0
C369 C 0.72113 0.28958 0.47282 0.0
C370 C 0.7648 0.31781 0.49028 0.0
N371 N 0.66334 0.35031 0.51327 0.0
C372 C 0.64279 0.3706 0.52512 0.0
C373 C 0.70484 0.3826 0.52821 0.0
C374 C 0.69368 0.35611 0.51397 0.0
C375 C 0.68399 0.40329 0.54088 0.0
C376 C 0.65284 0.39726 0.5393 0.0
H377 H 0.78926 0.32055 0.49133 0.0
H378 H 0.78073 0.36955 0.51936 0.0
H379 H 0.74534 0.40752 0.54074 0.0
O380 O 0.62774 0.34681 0.46598 0.0
O381 O 0.65756 0.30994 0.53503 0.0
O382 O 0.67014 0.26098 0.5464 0.0
O383 O 0.66531 0.32558 0.44327 0.0
O384 O 0.60291 0.30897 0.50266 0.0
O385 O 0.60768 0.28606 0.54979 0.0
O386 O 0.64288 0.20178 0.56795 0.0
O387 O 0.60531 0.23515 0.49709 0.0
O388 O 0.61649 0.27766 0.46627 0.0
O389 O 0.62549 0.24121 0.59122 0.0
O390 O 0.66742 0.238 0.51659 0.0
O391 O 0.66243 0.26201 0.47048 0.0
C392 C 0.67428 0.29036 0.55014 0.0
C393 C 0.62944 0.35308 0.41296 0.0
C394 C 0.6042 0.38937 0.37861 0.0
C395 C 0.59944 0.36518 0.35814 0.0
C396 C 0.62428 0.32949 0.39214 0.0
C397 C 0.60939 0.33559 0.36489 0.0
C398 C 0.61948 0.383 0.40605 0.0
C399 C 0.59242 0.30276 0.53 0.0
C400 C 0.64494 0.34719 0.44209 0.0
C401 C 0.75647 0.36564 0.51773 0.0
C402 C 0.73633 0.38731 0.52987 0.0
C403 C 0.60253 0.25151 0.47179 0.0
C404 C 0.62361 0.19379 0.61744 0.0
C405 C 0.62916 0.1633 0.66381 0.0
C406 C 0.59814 0.15577 0.66203 0.0
C407 C 0.59282 0.18577 0.61622 0.0
C408 C 0.64182 0.18228 0.64115 0.0
C409 C 0.58021 0.16686 0.63838 0.0
C410 C 0.66929 0.23756 0.48687 0.0
C411 C 0.63717 0.21398 0.59422 0.0
H412 H 0.58829 0.36915 0.33664 0.0
H413 H 0.63173 0.30639 0.39694 0.0
H414 H 0.60556 0.31728 0.34887 0.0
H415 H 0.6232 0.40117 0.4223 0.0
H416 H 0.58776 0.14093 0.67876 0.0
H417 H 0.57847 0.19405 0.59824 0.0
H418 H 0.66563 0.18849 0.64222 0.0
H419 H 0.55641 0.16076 0.63721 0.0
Tb420 Tb 0.02757 0.36758 0.80322 0.0
C421 C 0.97078 0.46039 0.71773 0.0
N422 N 0.95636 0.44323 0.73909 0.0
C423 C 0.9291 0.48776 0.75614 0.0
C424 C 0.96679 0.49236 0.71651 0.0
C425 C 0.93354 0.45611 0.75606 0.0
C426 C 0.94651 0.50609 0.73693 0.0
C427 C 1.00055 0.46227 0.67124 0.0
C428 C 0.9869 0.44557 0.69497 0.0
C429 C 0.99861 0.49428 0.6713 0.0
C430 C 0.98168 0.5093 0.69384 0.0
Tb431 Tb 0.96697 0.39186 0.73733 0.0
N432 N 0.9882 0.41454 0.69553 0.0
C433 C 0.01496 0.44622 0.64772 0.0
C434 C 1.00047 0.39875 0.67163 0.0
C435 C 0.01446 0.41432 0.64767 0.0
H436 H 0.91874 0.44204 0.76977 0.0
H437 H 0.02485 0.40171 0.6292 0.0
H438 H 0.05482 0.30404 0.76696 0.0
H439 H 0.97126 0.38087 0.91137 0.0
H440 H 0.99995 0.37421 0.67148 0.0
H441 H 0.02576 0.45823 0.62909 0.0
H442 H 0.99457 0.39874 0.86338 0.0
H443 H 0.91192 0.4979 0.77066 0.0
H444 H 0.00921 0.50757 0.65343 0.0
H445 H 0.97925 0.53392 0.69285 0.0
H446 H 0.0499 0.249 0.77254 0.0
H447 H 0.94276 0.53056 0.73673 0.0
H448 H 0.96755 0.32552 0.92198 0.0
N449 N 0.02609 0.31501 0.8049 0.0
C450 C 0.01326 0.30336 0.83068 0.0
C451 C 0.03886 0.26404 0.78871 0.0
C452 C 0.0113 0.27155 0.83549 0.0
C453 C 0.04068 0.2957 0.78511 0.0
C454 C 0.02364 0.25188 0.8137 0.0
N455 N 1.00371 0.35387 0.84713 0.0
C456 C 0.9929 0.37453 0.86784 0.0
C457 C 0.98917 0.31222 0.87973 0.0
C458 C 1.00247 0.32337 0.85277 0.0
C459 C 0.97795 0.33322 0.90101 0.0
C460 C 0.97986 0.3645 0.89504 0.0
H461 H 0.02259 0.22732 0.81655 0.0
H462 H 0.9959 0.23596 0.86606 0.0
H463 H 0.97641 0.27156 0.90469 0.0
O464 O 0.051 0.38085 0.84266 0.0
O465 O 0.97856 0.35818 0.80821 0.0
O466 O 0.9618 0.34745 0.7604 0.0
O467 O 0.07479 0.35875 0.80658 0.0
O468 O 1.00813 0.41388 0.80645 0.0
O469 O 0.96035 0.40897 0.78463 0.0
O470 O 0.94448 0.37747 0.69747 0.0
O471 O 0.01579 0.40426 0.73042 0.0
O472 O 0.03397 0.41056 0.77876 0.0
O473 O 0.91912 0.38948 0.7371 0.0
O474 O 0.99075 0.34783 0.73436 0.0
O475 O 0.03823 0.35262 0.75579 0.0
C476 C 0.96125 0.34248 0.78979 0.0
C477 C 0.10329 0.3921 0.83909 0.0
C478 C 0.13539 0.41957 0.87576 0.0
C479 C 0.15361 0.42951 0.85132 0.0
C480 C 0.12201 0.4024 0.8154 0.0
C481 C 0.1469 0.42104 0.82154 0.0
C482 C 0.11018 0.40068 0.86927 0.0
C483 C 0.97977 0.42332 0.80258 0.0
C484 C 0.07721 0.37154 0.83312 0.0
C485 C 0.99774 0.26032 0.86215 0.0
C486 C 0.9868 0.28059 0.88425 0.0
C487 C 0.03697 0.41377 0.74936 0.0
C488 C 0.89414 0.39563 0.69003 0.0
C489 C 0.84793 0.39222 0.65871 0.0
C490 C 0.84715 0.42447 0.65803 0.0
C491 C 0.89316 0.42749 0.68771 0.0
C492 C 0.87175 0.378 0.67518 0.0
C493 C 0.86972 0.44176 0.67197 0.0
C494 C 0.02034 0.3435 0.73332 0.0
C495 C 0.9175 0.38064 0.709 0.0
H496 H 0.17351 0.44344 0.85518 0.0
H497 H 0.11758 0.39588 0.79215 0.0
H498 H 0.16128 0.42877 0.8031 0.0
H499 H 0.09572 0.39277 0.88761 0.0
H500 H 0.82885 0.43673 0.64707 0.0
H501 H 0.91022 0.44142 0.69844 0.0
H502 H 0.87312 0.35335 0.67651 0.0
H503 H 0.8688 0.46645 0.67088 0.0
Tb504 Tb 0.86822 0.70956 0.9985 0.0
C505 C 0.96267 0.80384 0.04531 0.0
N506 N 0.94724 0.78173 0.06059 0.0
C507 C 0.99313 0.767 0.08609 0.0
C508 C 0.99433 0.8073 0.0487 0.0
C509 C 0.96171 0.76454 0.08204 0.0
C510 C 0.00961 0.78814 0.06901 0.0
C511 C 0.96162 0.84673 0.0104 0.0
C512 C 0.94647 0.82364 0.02676 0.0
C513 C 0.9933 0.84968 0.01304 0.0
C514 C 0.0096 0.83009 0.03222 0.0
Tb515 Tb 0.89612 0.78013 0.05158 0.0
N516 N 0.91587 0.81981 0.02437 0.0
C517 C 0.94446 0.86613 0.99188 0.0
C518 C 0.89894 0.83934 1.00722 0.0
C519 C 0.91294 0.86255 0.99048 0.0
H520 H 0.94911 0.74939 0.09667 0.0
H521 H 0.89938 0.87779 0.97667 0.0
H522 H 0.81291 0.73681 0.95321 0.0
H523 H 0.86882 0.61238 0.07344 0.0
H524 H 0.8747 0.83742 1.0067 0.0
H525 H 0.95524 0.88412 0.97888 0.0
H526 H 0.89182 0.65332 0.04208 0.0
H527 H 1.00453 0.75289 0.10272 0.0
H528 H 1.00537 0.86722 1.00056 0.0
H529 H 0.03396 0.83295 0.03437 0.0
H530 H 0.7572 0.73373 0.95065 0.0
H531 H 0.03392 0.79011 0.07233 0.0
H532 H 0.81279 0.60724 0.07612 0.0
N533 N 0.81654 0.70717 0.99153 0.0
C534 C 0.80162 0.68669 0.00934 0.0
C535 C 0.76937 0.72073 0.96762 0.0
C536 C 0.76978 0.68337 1.00788 0.0
C537 C 0.80104 0.72288 0.96962 0.0
C538 C 0.7536 0.70129 0.9872 0.0
N539 N 0.84918 0.67159 0.02843 0.0
C540 C 0.86738 0.6512 0.04336 0.0
C541 C 0.80442 0.6449 0.04538 0.0
C542 C 0.81857 0.66775 0.02787 0.0
C543 C 0.82277 0.62513 0.06237 0.0
C544 C 0.85442 0.62801 0.06098 0.0
H545 H 0.72911 0.69945 0.98537 0.0
H546 H 0.73082 0.65893 0.02579 0.0
H547 H 0.7612 0.6252 0.05862 0.0
O548 O 0.89982 0.67716 0.98209 0.0
O549 O 0.85755 0.71198 0.04716 0.0
O550 O 0.84956 0.76229 0.05745 0.0
O551 O 0.85741 0.68359 0.95958 0.0
O552 O 0.91402 0.70986 0.01872 0.0
O553 O 0.90743 0.73336 0.06499 0.0
O554 O 0.88597 0.8222 0.07275 0.0
O555 O 0.92147 0.77029 1.00808 0.0
O556 O 0.88817 0.74773 0.97396 0.0
O557 O 0.89615 0.78244 0.09939 0.0
O558 O 0.85362 0.78784 0.02729 0.0
O559 O 0.85174 0.75609 0.98459 0.0
C560 C 0.84142 0.73359 0.05998 0.0
C561 C 0.89839 0.66337 0.93028 0.0
C562 C 0.9216 0.62819 0.89312 0.0
C563 C 0.92977 0.65373 0.87547 0.0
C564 C 0.907 0.68822 0.91223 0.0
C565 C 0.92248 0.68336 0.88493 0.0
C566 C 0.90553 0.63332 0.92057 0.0
C567 C 0.92062 0.71265 0.04771 0.0
C568 C 0.88286 0.66843 0.9597 0.0
C569 C 0.75529 0.6616 0.02636 0.0
C570 C 0.77259 0.64234 0.04501 0.0
C571 C 0.91203 0.7648 0.98 0.0
C572 C 0.90328 0.8308 0.12307 0.0
C573 C 0.89889 0.86393 0.16809 0.0
C574 C 0.93073 0.86754 0.16732 0.0
C575 C 0.93478 0.83533 0.12277 0.0
C576 C 0.88537 0.84513 0.14577 0.0
C577 C 0.94837 0.85347 0.14486 0.0
C578 C 0.84414 0.78145 0.99968 0.0
C579 C 0.88862 0.81124 0.10004 0.0
H580 H 0.94168 0.65081 0.8541 0.0
H581 H 0.90186 0.71137 0.91932 0.0
H582 H 0.929 0.70268 0.87106 0.0
H583 H 0.89924 0.61409 0.93472 0.0
H584 H 0.94221 0.88104 0.18433 0.0
H585 H 0.94891 0.82486 0.10557 0.0
H586 H 0.86094 0.84198 0.14571 0.0
H587 H 0.97278 0.85662 0.14462 0.0
Tb588 Tb 0.47904 0.6486 0.3046 0.0
C589 C 0.54935 0.55698 0.22298 0.0
N590 N 0.56101 0.57569 0.24454 0.0
C591 C 0.59141 0.53434 0.26353 0.0
C592 C 0.55698 0.52572 0.2219 0.0
C593 C 0.58355 0.56535 0.26315 0.0
C594 C 0.57746 0.51426 0.24332 0.0
C595 C 0.52271 0.5524 0.17519 0.0
C596 C 0.53249 0.57002 0.19998 0.0
C597 C 0.52831 0.52078 0.17506 0.0
C598 C 0.54538 0.50744 0.19844 0.0
Tb599 Tb 0.54461 0.62533 0.24296 0.0
N600 N 0.52766 0.60061 0.2009 0.0
C601 C 0.50895 0.56738 0.1507 0.0
C602 C 0.51661 0.61569 0.17613 0.0
C603 C 0.50657 0.59926 0.15086 0.0
H604 H 0.59537 0.58102 0.2779 0.0
H605 H 0.49698 0.61116 0.13161 0.0
H606 H 0.4495 0.71218 0.27766 0.0
H607 H 0.54741 0.62528 0.40457 0.0
H608 H 0.5151 0.6403 0.1762 0.0
H609 H 0.50121 0.5547 0.13112 0.0
H610 H 0.51476 0.6114 0.362 0.0
H611 H 0.60849 0.52605 0.27913 0.0
H612 H 0.52062 0.50669 0.15643 0.0
H613 H 0.55065 0.48327 0.19742 0.0
H614 H 0.45188 0.76747 0.28921 0.0
H615 H 0.58391 0.49035 0.24335 0.0
H616 H 0.55653 0.6796 0.41663 0.0
N617 N 0.4796 0.69976 0.3132 0.0
C618 C 0.49574 0.70915 0.33771 0.0
C619 C 0.46448 0.7513 0.30288 0.0
C620 C 0.49797 0.74037 0.34497 0.0
C621 C 0.46325 0.72007 0.29631 0.0
C622 C 0.48213 0.76153 0.32714 0.0
N623 N 0.50851 0.65729 0.34668 0.0
C624 C 0.52002 0.63515 0.36532 0.0
C625 C 0.5288 0.69628 0.37968 0.0
C626 C 0.51114 0.68728 0.35462 0.0
C627 C 0.5428 0.67366 0.39717 0.0
C628 C 0.5379 0.64297 0.39029 0.0
H629 H 0.48325 0.78576 0.33198 0.0
H630 H 0.51839 0.77336 0.37527 0.0
H631 H 0.54522 0.73477 0.40577 0.0
O632 O 0.45434 0.64356 0.34542 0.0
O633 O 0.5141 0.68012 0.28748 0.0
O634 O 0.55669 0.6507 0.28421 0.0
O635 O 0.43111 0.6526 0.3039 0.0
O636 O 0.5018 0.60389 0.31006 0.0
O637 O 0.55002 0.61215 0.29094 0.0
O638 O 0.56573 0.6622 0.22023 0.0
O639 O 0.49734 0.60865 0.235 0.0
O640 O 0.47524 0.60403 0.28235 0.0
O641 O 0.58733 0.61864 0.22197 0.0
O642 O 0.51469 0.66444 0.23267 0.0
O643 O 0.46712 0.66045 0.25674 0.0
C644 C 0.54361 0.67692 0.2907 0.0
C645 C 0.40437 0.62371 0.34215 0.0
C646 C 0.37644 0.59594 0.38226 0.0
C647 C 0.35994 0.58084 0.35955 0.0
C648 C 0.38669 0.60877 0.32028 0.0
C649 C 0.36489 0.58737 0.32894 0.0
C650 C 0.39866 0.61761 0.37336 0.0
C651 C 0.53052 0.59553 0.30652 0.0
C652 C 0.428 0.64625 0.33266 0.0
C653 C 0.51615 0.74943 0.36946 0.0
C654 C 0.53152 0.72745 0.38676 0.0
C655 C 0.4752 0.59882 0.25298 0.0
C656 C 0.61971 0.66133 0.21979 0.0
C657 C 0.66971 0.67977 0.20275 0.0
C658 C 0.6771 0.68579 0.23317 0.0
C659 C 0.62792 0.66747 0.24986 0.0
C660 C 0.64061 0.66781 0.19613 0.0
C661 C 0.6563 0.67987 0.25644 0.0
C662 C 0.48475 0.66801 0.23317 0.0
C663 C 0.59009 0.64677 0.2133 0.0
H664 H 0.3427 0.56425 0.36553 0.0
H665 H 0.38966 0.61358 0.29637 0.0
H666 H 0.35165 0.57584 0.31179 0.0
H667 H 0.41167 0.62935 0.39058 0.0
H668 H 0.69909 0.69518 0.23897 0.0
H669 H 0.61253 0.66228 0.26832 0.0
H670 H 0.63462 0.66274 0.17285 0.0
H671 H 0.66236 0.68457 0.27974 0.0
Tb672 Tb 0.26739 0.45645 0.11397 0.0
C673 C 0.23589 0.57543 0.18756 0.0
N674 N 0.223 0.54745 0.18472 0.0
C675 C 0.21794 0.54382 0.23881 0.0
C676 C 0.24151 0.58825 0.21629 0.0
C677 C 0.21283 0.53209 0.20975 0.0
C678 C 0.23269 0.57185 0.24212 0.0
C679 C 0.25519 0.62094 0.16314 0.0
C680 C 0.24277 0.59136 0.16142 0.0
C681 C 0.26199 0.63347 0.19166 0.0
C682 C 0.25517 0.61714 0.2182 0.0
Tb683 Tb 0.21578 0.53026 0.13638 0.0
N684 N 0.23558 0.57854 0.13438 0.0
C685 C 0.25933 0.63741 0.13624 0.0
C686 C 0.23789 0.59522 0.10826 0.0
C687 C 0.25 0.62473 0.10876 0.0
H688 H 0.20082 0.51084 0.2073 0.0
H689 H 0.25202 0.63773 0.08797 0.0
H690 H 0.30895 0.48491 0.05537 0.0
H691 H 0.19167 0.3605 0.1206 0.0
H692 H 0.23002 0.58594 0.08699 0.0
H693 H 0.2687 0.66026 0.13655 0.0
H694 H 0.22188 0.40353 0.14084 0.0
H695 H 0.21032 0.53133 0.25861 0.0
H696 H 0.27181 0.65606 0.19346 0.0
H697 H 0.25994 0.62732 0.24006 0.0
H698 H 0.31018 0.47911 1.00025 0.0
H699 H 0.23655 0.58091 0.26464 0.0
H700 H 0.19108 0.35042 0.06533 0.0
N701 N 0.27286 0.45288 0.06218 0.0
C702 C 0.2562 0.43042 0.04892 0.0
C703 C 0.29452 0.46559 0.01363 0.0
C704 C 0.25729 0.42542 0.01731 0.0
C705 C 0.2931 0.46934 0.04511 0.0
C706 C 0.27623 0.44384 0.9996 0.0
N707 N 0.23707 0.41803 0.09735 0.0
C708 C 0.22142 0.39936 0.11669 0.0
C709 C 0.22155 0.38769 0.05462 0.0
C710 C 0.23838 0.41188 0.06719 0.0
C711 C 0.20434 0.36924 0.0741 0.0
C712 C 0.2045 0.37495 0.10531 0.0
H713 H 0.27763 0.44081 0.97524 0.0
H714 H 0.24027 0.39789 0.98024 0.0
H715 H 0.20915 0.36472 0.01294 0.0
O716 O 0.28318 0.42293 0.14436 0.0
O717 O 0.21866 0.46053 0.10237 0.0
O718 O 0.21237 0.51058 0.0907 0.0
O719 O 0.30659 0.43087 0.1025 0.0
O720 O 0.24667 0.45735 0.15961 0.0
O721 O 0.20226 0.48503 0.15324 0.0
O722 O 0.18413 0.56424 0.12452 0.0
O723 O 0.25622 0.52027 0.1657 0.0
O724 O 0.29155 0.49334 0.13652 0.0
O725 O 0.16916 0.52301 0.1459 0.0
O726 O 0.24183 0.5307 0.09383 0.0
O727 O 0.28556 0.50189 0.09948 0.0
C728 C 0.20776 0.48168 0.08435 0.0
C729 C 0.3354 0.41088 0.14338 0.0
C730 C 0.3729 0.37647 0.16655 0.0
C731 C 0.38965 0.40225 0.1756 0.0
C732 C 0.3525 0.43609 0.15273 0.0
C733 C 0.37953 0.43173 0.16867 0.0
C734 C 0.34572 0.38111 0.15018 0.0
C735 C 0.21859 0.46439 0.16772 0.0
C736 C 0.30624 0.41519 0.12752 0.0
C737 C 0.23989 0.40189 1.00449 0.0
C738 C 0.22221 0.38295 0.02311 0.0
C739 C 0.28455 0.51221 0.15885 0.0
C740 C 0.13797 0.56749 0.15128 0.0
C741 C 0.09158 0.59887 0.14983 0.0
C742 C 0.09533 0.60487 0.181 0.0
C743 C 0.14109 0.57383 0.18223 0.0
C744 C 0.11323 0.57998 0.13519 0.0
C745 C 0.11979 0.59236 0.19698 0.0
C746 C 0.27129 0.52709 0.09052 0.0
C747 C 0.16091 0.54929 0.13473 0.0
H748 H 0.41082 0.39963 0.18781 0.0
H749 H 0.34487 0.45908 0.1478 0.0
H750 H 0.39267 0.45131 0.17578 0.0
H751 H 0.33223 0.36165 0.14331 0.0
H752 H 0.0797 0.61973 0.19304 0.0
H753 H 0.16006 0.56474 0.19491 0.0
H754 H 0.11089 0.57485 0.11127 0.0
H755 H 0.12242 0.59735 0.22087 0.0
Tb756 Tb 0.70762 0.99412 0.8609 0.0
C757 C 0.83935 0.01942 0.91887 0.0
N758 N 0.81139 0.03212 0.9225 0.0
C759 C 0.81811 0.0327 0.97648 0.0
C760 C 0.85746 0.01176 0.94403 0.0
C761 C 0.80113 0.04014 0.95073 0.0
C762 C 0.84621 0.01802 0.97315 0.0
C763 C 0.88025 1.00512 0.88476 0.0
C764 C 0.85041 0.01587 0.88973 0.0
C765 C 0.89795 0.99593 0.90963 0.0
C766 C 0.88654 0.99917 0.93924 0.0
Tb767 Tb 0.78518 0.04218 0.87903 0.0
N768 N 0.83271 0.02528 0.8664 0.0
C769 C 0.8918 1.00527 0.85511 0.0
C770 C 0.84426 0.02675 0.83762 0.0
C771 C 0.87394 0.01678 0.83156 0.0
H772 H 0.77953 0.05158 0.95341 0.0
H773 H 0.88294 0.01772 0.80868 0.0
H774 H 0.73631 0.95604 0.79952 0.0
H775 H 0.61329 0.07176 0.87105 0.0
H776 H 0.83057 0.03584 0.81939 0.0
H777 H 0.9147 0.99736 0.85031 0.0
H778 H 0.65482 0.03847 0.88985 0.0
H779 H 0.80957 0.03837 0.99885 0.0
H780 H 0.92081 0.98721 0.90627 0.0
H781 H 0.90074 0.99283 0.95826 0.0
H782 H 0.73255 0.96005 0.74452 0.0
H783 H 0.85941 0.01247 0.99311 0.0
H784 H 0.60541 0.07783 0.81579 0.0
N785 N 0.70594 0.99335 0.80865 0.0
C786 C 0.68445 0.01197 0.79621 0.0
C787 C 0.71929 0.97523 0.75878 0.0
C788 C 0.68052 0.01387 0.76451 0.0
C789 C 0.72197 0.97372 0.79035 0.0
C790 C 0.69884 0.99574 0.74577 0.0
N791 N 0.6704 0.0267 0.84568 0.0
C792 C 0.65147 0.04117 0.86573 0.0
C793 C 0.64234 0.04729 0.8036 0.0
C794 C 0.66561 0.02858 0.81537 0.0
C795 C 0.6235 0.06316 0.82394 0.0
C796 C 0.62796 0.05989 0.85515 0.0
H797 H 0.69658 0.99657 0.72131 0.0
H798 H 0.65486 0.03516 0.72826 0.0
H799 H 0.62138 0.06437 0.76253 0.0
O800 O 0.67369 0.97762 0.89057 0.0
O801 O 0.71347 0.04382 0.85531 0.0
O802 O 0.76097 0.04649 0.83603 0.0
O803 O 0.68019 0.95722 0.84708 0.0
O804 O 0.70899 0.01424 0.90657 0.0
O805 O 0.74527 0.05349 0.90725 0.0
O806 O 0.81818 0.07593 0.86999 0.0
O807 O 0.77749 1.00138 0.90885 0.0
O808 O 0.74208 0.96886 0.88568 0.0
O809 O 0.77319 0.08855 0.88441 0.0
O810 O 0.77883 0.01534 0.83771 0.0
O811 O 0.75146 0.97217 0.84691 0.0
C812 C 0.73263 0.05564 0.83578 0.0
C813 C 0.66038 0.92573 0.8862 0.0
C814 C 0.62664 0.88812 0.91037 0.0
C815 C 0.65185 0.86841 0.91339 0.0
C816 C 0.68498 0.90567 0.88977 0.0
C817 C 0.68067 0.87717 0.9032 0.0
C818 C 0.63119 0.91688 0.89645 0.0
C819 C 0.7211 0.03922 0.9183 0.0
C820 C 0.66499 0.95613 0.87239 0.0
C821 C 0.65799 0.03322 0.75255 0.0
C822 C 0.63884 0.04977 0.77206 0.0
C823 C 0.76395 0.97449 0.90534 0.0
C824 C 0.81288 0.12486 0.89241 0.0
C825 C 0.84129 0.17331 0.89045 0.0
C826 C 0.83442 0.17746 0.9215 0.0
C827 C 0.8071 0.12945 0.92333 0.0
C828 C 0.83023 0.14661 0.87616 0.0
C829 C 0.81782 0.15563 0.93771 0.0
C830 C 0.7768 0.98556 0.8376 0.0
C831 C 0.79994 0.09841 0.87617 0.0
H832 H 0.64929 0.84597 0.92339 0.0
H833 H 0.7075 0.91207 0.88211 0.0
H834 H 0.69978 0.86174 0.90575 0.0
H835 H 0.61225 0.93259 0.89407 0.0
H836 H 0.84133 0.19785 0.93343 0.0
H837 H 0.79396 0.11304 0.93623 0.0
H838 H 0.83502 0.14252 0.85238 0.0
H839 H 0.8129 0.15928 0.96152 0.0
Tb840 Tb 0.74661 0.95917 0.39972 0.0
C841 C 0.77 0.08838 0.33615 0.0
N842 N 0.78328 0.06042 0.33429 0.0
C843 C 0.78436 0.06414 0.28 0.0
C844 C 0.76227 0.10494 0.30988 0.0
C845 C 0.79181 0.04873 0.30678 0.0
C846 C 0.76911 0.09217 0.28153 0.0
C847 C 0.75449 0.131 0.36763 0.0
C848 C 0.76587 0.10103 0.36455 0.0
C849 C 0.74522 0.14711 0.34167 0.0
C850 C 0.74903 0.13406 0.31283 0.0
Tb851 Tb 0.79332 0.03683 0.37937 0.0
N852 N 0.77539 0.08485 0.38897 0.0
C853 C 0.75419 0.14433 0.39649 0.0
C854 C 0.7765 0.09819 0.41695 0.0
C855 C 0.76597 0.12811 0.42111 0.0
H856 H 0.80371 0.02721 0.30545 0.0
H857 H 0.76671 0.13854 0.44335 0.0
H858 H 0.70614 0.98694 0.45972 0.0
H859 H 0.82718 0.86684 0.39254 0.0
H860 H 0.78584 0.0858 0.43599 0.0
H861 H 0.74583 0.16739 0.39984 0.0
H862 H 0.79237 0.90656 0.3724 0.0
H863 H 0.79047 0.05446 0.25821 0.0
H864 H 0.73603 0.17002 0.34357 0.0
H865 H 0.74263 0.14706 0.29293 0.0
H866 H 0.70933 0.98441 0.51497 0.0
H867 H 0.76354 0.10415 0.26077 0.0
H868 H 0.83344 0.86093 0.44804 0.0
N869 N 0.74478 0.95804 0.45191 0.0
C870 C 0.76416 0.93767 0.46507 0.0
C871 C 0.7253 0.97156 0.5012 0.0
C872 C 0.76582 0.93456 0.49687 0.0
C873 C 0.72418 0.97354 0.46955 0.0
C874 C 0.74656 0.9524 0.51495 0.0
N875 N 0.77997 0.92306 0.41607 0.0
C876 C 0.79511 0.904 0.39662 0.0
C877 C 0.80138 0.89697 0.45904 0.0
C878 C 0.78177 0.91909 0.44653 0.0
C879 C 0.8181 0.8782 0.43931 0.0
C880 C 0.8147 0.88154 0.40796 0.0
H881 H 0.74714 0.95073 0.53946 0.0
H882 H 0.78787 0.91078 0.53395 0.0
H883 H 0.81899 0.87785 0.5008 0.0
O884 O 0.73031 0.92516 0.36999 0.0
O885 O 0.79595 0.96595 0.40626 0.0
O886 O 0.79765 0.0144 0.42352 0.0
O887 O 0.71109 0.93021 0.41417 0.0
O888 O 0.76682 0.95994 0.35393 0.0
O889 O 0.80635 0.99569 0.35373 0.0
O890 O 0.82616 0.07105 0.38703 0.0
O891 O 0.75278 0.02728 0.34985 0.0
O892 O 0.72039 0.99357 0.37561 0.0
O893 O 0.83984 0.02571 0.37463 0.0
O894 O 0.76701 0.03222 0.42144 0.0
O895 O 0.72453 1.00345 0.41321 0.0
C896 C 0.80685 0.98601 0.42536 0.0
C897 C 0.67904 0.91005 0.37598 0.0
C898 C 0.64097 0.87564 0.35353 0.0
C899 C 0.62066 0.90061 0.35232 0.0
C900 C 0.65831 0.9343 0.37401 0.0
C901 C 0.62931 0.92954 0.36233 0.0
C902 C 0.67032 0.88065 0.36576 0.0
C903 C 0.79222 0.97153 0.34259 0.0
C904 C 0.7097 0.91536 0.3887 0.0
C905 C 0.78609 0.91326 0.50956 0.0
C906 C 0.80374 0.89443 0.49069 0.0
C907 C 0.72581 0.01426 0.35447 0.0
C908 C 0.87536 0.06591 0.3654 0.0
C909 C 0.92395 0.09389 0.36659 0.0
C910 C 0.92694 0.08841 0.33517 0.0
C911 C 0.87888 0.06138 0.33415 0.0
C912 C 0.89783 0.08228 0.38152 0.0
C913 C 0.90458 0.07255 0.31921 0.0
C914 C 0.73742 0.02917 0.42248 0.0
C915 C 0.84902 0.05301 0.38192 0.0
H916 H 0.59775 0.89778 0.3439 0.0
H917 H 0.66451 0.95689 0.38172 0.0
H918 H 0.61337 0.94839 0.36113 0.0
H919 H 0.68647 0.86195 0.36696 0.0
H920 H 0.94684 0.09597 0.32278 0.0
H921 H 0.86196 0.04894 0.32139 0.0
H922 H 0.89473 0.08608 0.40562 0.0
H923 H 0.90734 0.06865 0.2951 0.0
Tb924 Tb 0.30859 0.49417 0.64808 0.0
C925 C 0.18434 0.51728 0.57998 0.0
N926 N 0.21154 0.53184 0.57986 0.0
C927 C 0.21094 0.53367 0.52551 0.0
C928 C 0.16986 0.50916 0.55274 0.0
C929 C 0.22435 0.5413 0.55321 0.0
C930 C 0.1838 0.51712 0.52524 0.0
C931 C 0.14157 0.49817 0.60895 0.0
C932 C 0.1706 0.51166 0.60762 0.0
C933 C 0.12753 0.48868 0.58197 0.0
C934 C 0.14168 0.49414 0.5539 0.0
Tb935 Tb 0.23229 0.5415 0.6262 0.0
N936 N 0.18478 0.52147 0.63306 0.0
C937 C 0.12706 0.49582 0.63717 0.0
C938 C 0.16992 0.52107 0.66035 0.0
C939 C 0.14101 0.50802 0.66286 0.0
H940 H 0.24498 0.55449 0.55327 0.0
H941 H 0.12948 0.5074 0.68459 0.0
H942 H 0.28328 0.45624 0.71044 0.0
H943 H 0.39946 0.57456 0.63263 0.0
H944 H 0.18028 0.53105 0.68019 0.0
H945 H 0.10469 0.4857 0.6392 0.0
H946 H 0.35729 0.5411 0.6162 0.0
H947 H 0.22147 0.54066 0.5044 0.0
H948 H 0.10537 0.47794 0.58251 0.0
H949 H 0.13027 0.48742 0.53322 0.0
H950 H 0.29141 0.45883 0.76515 0.0
H951 H 0.17341 0.51134 0.50377 0.0
H952 H 0.41197 0.57875 0.68717 0.0
N953 N 0.31386 0.49272 0.69989 0.0
C954 C 0.33615 0.51104 0.71105 0.0
C955 C 0.30383 0.47399 0.75022 0.0
C956 C 0.34248 0.51218 0.74237 0.0
C957 C 0.29874 0.47321 0.71893 0.0
C958 C 0.32553 0.4938 0.76205 0.0
N959 N 0.3456 0.52772 0.66108 0.0
C960 C 0.36249 0.54316 0.64004 0.0
C961 C 0.37686 0.54717 0.70133 0.0
C962 C 0.35302 0.52852 0.69091 0.0
C963 C 0.39351 0.56411 0.68008 0.0
C964 C 0.38642 0.56192 0.64927 0.0
H965 H 0.3296 0.4941 0.78627 0.0
H966 H 0.37082 0.53251 0.77702 0.0
H967 H 0.40108 0.56296 0.74104 0.0
O968 O 0.34255 0.47834 0.6181 0.0
O969 O 0.30185 0.5436 0.65577 0.0
O970 O 0.25291 0.54656 0.67091 0.0
O971 O 0.33577 0.45651 0.66095 0.0
O972 O 0.30541 0.51063 0.60109 0.0
O973 O 0.27486 0.55404 0.6024 0.0
O974 O 0.19684 0.57364 0.63281 0.0
O975 O 0.24226 0.49962 0.59826 0.0
O976 O 0.27272 0.46728 0.62746 0.0
O977 O 0.24205 0.58841 0.62183 0.0
O978 O 0.23423 0.51669 0.66953 0.0
O979 O 0.26475 0.47401 0.66459 0.0
C980 C 0.28139 0.55412 0.67481 0.0
C981 C 0.35568 0.42631 0.62072 0.0
C982 C 0.38961 0.38938 0.59566 0.0
C983 C 0.36416 0.37088 0.58981 0.0
C984 C 0.33082 0.40742 0.61455 0.0
C985 C 0.33509 0.37984 0.59925 0.0
C986 C 0.3851 0.41715 0.61141 0.0
C987 C 0.29622 0.53693 0.58964 0.0
C988 C 0.35108 0.45616 0.63565 0.0
C989 C 0.36578 0.53123 0.75301 0.0
C990 C 0.38306 0.54853 0.73253 0.0
C991 C 0.25278 0.4721 0.60568 0.0
C992 C 0.20172 0.6242 0.61352 0.0
C993 C 0.17496 0.67374 0.61743 0.0
C994 C 0.18118 0.67836 0.58631 0.0
C995 C 0.2069 0.62937 0.58262 0.0
C996 C 0.18552 0.64623 0.63077 0.0
C997 C 0.19665 0.65632 0.56916 0.0
C998 C 0.239 0.48734 0.67344 0.0
C999 C 0.21447 0.59698 0.6288 0.0
H1000 H 0.36676 0.34924 0.57816 0.0
H1001 H 0.30813 0.41411 0.62147 0.0
H1002 H 0.31576 0.36536 0.5946 0.0
H1003 H 0.40428 0.43196 0.61581 0.0
H1004 H 0.17464 0.69931 0.57505 0.0
H1005 H 0.21928 0.61283 0.56903 0.0
H1006 H 0.18127 0.64177 0.65457 0.0
H1007 H 0.20111 0.6604 0.54534 0.0
H1008 H 0.18545 0.2879 0.57514 0.0
H1009 H 0.22674 0.46337 0.54858 0.0
H1010 H 0.20717 0.32287 0.4862 0.0
H1011 H 0.25203 0.41515 0.63014 0.0
H1012 H 0.21113 0.41402 0.52625 0.0
H1013 H 0.2038 0.33601 0.59721 0.0
C1014 C 0.19442 0.30536 0.56029 0.0
C1015 C 0.19395 0.30145 0.52872 0.0
C1016 C 0.22014 0.4145 0.54907 0.0
C1017 C 0.21423 0.3569 0.55368 0.0
C1018 C 0.22879 0.44266 0.56185 0.0
C1019 C 0.2409 0.44363 0.59124 0.0
C1020 C 0.223 0.38732 0.56608 0.0
C1021 C 0.2432 0.41579 0.60727 0.0
C1022 C 0.20467 0.33296 0.57285 0.0
C1023 C 0.2065 0.32495 0.51066 0.0
N1024 N 0.2342 0.38904 0.59466 0.0
N1025 N 0.21542 0.35182 0.52328 0.0
H1026 H 0.80084 0.98367 0.78074 0.0
H1027 H 0.95682 0.90094 0.83023 0.0
H1028 H 0.81533 0.94977 0.87109 0.0
H1029 H 0.94427 0.9523 0.74774 0.0
H1030 H 0.9041 0.91374 0.84511 0.0
H1031 H 0.85133 0.96464 0.7662 0.0
C1032 C 0.81425 0.97126 0.79725 0.0
C1033 C 0.8035 0.96762 0.82698 0.0
C1034 C 0.91305 0.9223 0.82384 0.0
C1035 C 0.86197 0.94673 0.81098 0.0
C1036 C 0.94327 0.91536 0.81557 0.0
C1037 C 0.95504 0.92545 0.78764 0.0
C1038 C 0.89451 0.93931 0.80396 0.0
C1039 C 0.93622 0.94381 0.76939 0.0
C1040 C 0.84324 0.96066 0.78909 0.0
C1041 C 0.82215 0.95205 0.84772 0.0
N1042 N 0.90703 0.94986 0.77771 0.0
N1043 N 0.85055 0.94242 0.83946 0.0
H1044 H 0.33628 0.71106 0.07206 0.0
H1045 H 0.26408 0.54869 0.03328 0.0
H1046 H 0.32377 0.68027 0.98011 0.0
H1047 H 0.31305 0.56517 0.11592 0.0
H1048 H 0.28067 0.59862 0.01416 0.0
H1049 H 0.31991 0.66053 0.09028 0.0
C1050 C 0.32925 0.69405 0.05575 0.0
C1051 C 0.33165 0.69984 0.02449 0.0
C1052 C 0.28837 0.59105 0.03623 0.0
C1053 C 0.31344 0.64193 0.04508 0.0
C1054 C 0.27922 0.56242 0.04695 0.0
C1055 C 0.28795 0.55244 0.07586 0.0
C1056 C 0.30568 0.61027 0.0549 0.0
C1057 C 0.30678 0.57152 0.09311 0.0
C1058 C 0.32052 0.66501 0.06612 0.0
C1059 C 0.32264 0.67667 1.00439 0.0
N1060 N 0.3147 0.5997 0.08256 0.0
N1061 N 0.31407 0.64881 0.01497 0.0
H1062 H 0.54233 0.07915 0.31982 0.0
H1063 H 0.71916 0.04233 0.29769 0.0
H1064 H 0.58019 0.06254 0.23083 0.0
H1065 H 0.66785 0.01258 0.37594 0.0
H1066 H 0.67074 0.05826 0.27378 0.0
H1067 H 0.59032 0.06154 0.34217 0.0
C1068 C 0.56043 0.0714 0.30496 0.0
C1069 C 0.55706 0.07266 0.27334 0.0
C1070 C 0.67034 0.04811 0.29618 0.0
C1071 C 0.6126 0.0534 0.29882 0.0
C1072 C 0.69796 0.03921 0.30986 0.0
C1073 C 0.69781 0.0257 0.33877 0.0
C1074 C 0.64257 0.04416 0.31188 0.0
C1075 C 0.66938 0.02222 0.35339 0.0
C1076 C 0.58798 0.06161 0.31773 0.0
C1077 C 0.58166 0.06224 0.25533 0.0
N1078 N 0.64321 0.03155 0.34 0.0
N1079 N 0.60846 0.05361 0.26825 0.0
H1080 H 0.64876 0.21011 0.43479 0.0
H1081 H 0.69791 0.06379 0.38921 0.0
H1082 H 0.71362 0.19887 0.50687 0.0
H1083 H 0.73862 0.05773 0.47743 0.0
H1084 H 0.67909 0.11456 0.4013 0.0
H1085 H 0.65871 0.15755 0.41866 0.0
C1086 C 0.66574 0.19681 0.44668 0.0
C1087 C 0.68028 0.2089 0.47226 0.0
C1088 C 0.69105 0.10199 0.41866 0.0
C1089 C 0.69199 0.14823 0.45408 0.0
C1090 C 0.70153 0.0725 0.41174 0.0
C1091 C 0.71914 0.05598 0.43255 0.0
C1092 C 0.69851 0.11538 0.4467 0.0
C1093 C 0.72468 0.06943 0.46088 0.0
C1094 C 0.67135 0.16653 0.43761 0.0
C1095 C 0.70187 0.19048 0.48703 0.0
N1096 N 0.71469 0.09833 0.46698 0.0
N1097 N 0.7068 0.16114 0.47794 0.0
H1098 H 0.07782 0.44963 0.77902 0.0
H1099 H 0.20532 0.44163 0.64859 0.0
H1100 H 0.06467 0.40293 0.694 0.0
H1101 H 0.21389 0.49582 0.72939 0.0
H1102 H 0.15661 0.42213 0.66725 0.0
H1103 H 0.12905 0.46362 0.76274 0.0
C1104 C 0.08561 0.44251 0.75676 0.0
C1105 C 0.06675 0.42513 0.73783 0.0
C1106 C 0.16945 0.43769 0.68131 0.0
C1107 C 0.12602 0.44067 0.71917 0.0
C1108 C 0.19766 0.44831 0.67089 0.0
C1109 C 0.21417 0.46963 0.68784 0.0
C1110 C 0.15747 0.4487 0.70886 0.0
C1111 C 0.20213 0.47895 0.71589 0.0
C1112 C 0.11501 0.4504 0.74753 0.0
C1113 C 0.07822 0.41659 0.70924 0.0
N1114 N 0.17451 0.46859 0.72543 0.0
N1115 N 0.10713 0.42429 0.70085 0.0
H1116 H 0.79258 0.9678 0.96139 0.0
H1117 H 0.83495 0.79209 0.93842 0.0
H1118 H 0.76387 0.91694 0.88272 0.0
H1119 H 0.81412 0.82882 0.02699 0.0
H1120 H 0.816 0.83977 0.9157 0.0
H1121 H 0.80982 0.91923 0.98446 0.0
C1122 C 0.78999 0.94664 0.94898 0.0
C1123 C 0.7763 0.94654 0.92029 0.0
C1124 C 0.81549 0.83718 0.94013 0.0
C1125 C 0.79627 0.8913 0.94611 0.0
C1126 C 0.82603 0.80985 0.95306 0.0
C1127 C 0.82666 0.80646 0.98469 0.0
C1128 C 0.80594 0.86141 0.95897 0.0
C1129 C 0.81456 0.83044 1.00249 0.0
C1130 C 0.79963 0.91897 0.96215 0.0
C1131 C 0.77359 0.91825 0.90519 0.0
N1132 N 0.8053 0.85703 0.98948 0.0
N1133 N 0.78361 0.892 0.91811 0.0
H1134 H 0.45973 0.59361 0.19284 0.0
H1135 H 0.28866 0.53727 0.21709 0.0
H1136 H 0.42657 0.57204 0.28237 0.0
H1137 H 0.34182 0.51859 0.13665 0.0
H1138 H 0.33492 0.55809 0.24126 0.0
H1139 H 0.41292 0.57352 0.1714 0.0
C1140 C 0.44287 0.58435 0.20805 0.0
C1141 C 0.44747 0.58453 0.23951 0.0
C1142 C 0.33621 0.54939 0.2183 0.0
C1143 C 0.39273 0.56223 0.21503 0.0
C1144 C 0.30979 0.53777 0.20443 0.0
C1145 C 0.31112 0.52616 0.17471 0.0
C1146 C 0.3639 0.54992 0.20205 0.0
C1147 C 0.33942 0.52704 0.15961 0.0
C1148 C 0.41586 0.5731 0.19578 0.0
C1149 C 0.42402 0.57274 0.25798 0.0
N1150 N 0.36437 0.53881 0.17327 0.0
N1151 N 0.3976 0.5623 0.24555 0.0
H1152 H 0.52368 0.12985 0.33854 0.0
H1153 H 0.58444 0.2807 0.41976 0.0
H1154 H 0.54127 0.21315 0.28926 0.0
H1155 H 0.58509 0.19174 0.46162 0.0
H1156 H 0.56522 0.25786 0.37316 0.0
H1157 H 0.54302 0.15335 0.38434 0.0
C1158 C 0.53176 0.15314 0.3372 0.0
C1159 C 0.53074 0.16949 0.30973 0.0
C1160 C 0.56937 0.24334 0.39261 0.0
C1161 C 0.55297 0.19686 0.36294 0.0
C1162 C 0.58031 0.25635 0.4194 0.0
C1163 C 0.58651 0.23815 0.44505 0.0
C1164 C 0.56415 0.2118 0.39127 0.0
C1165 C 0.58029 0.20682 0.44293 0.0
C1166 C 0.54287 0.16656 0.36357 0.0
C1167 C 0.54177 0.19957 0.30976 0.0
N1168 N 0.56955 0.19468 0.4166 0.0
N1169 N 0.55224 0.21236 0.33601 0.0
H1170 H 0.13661 0.27265 0.58944 0.0
H1171 H 0.99008 0.3146 0.68711 0.0
H1172 H 0.04912 0.28418 0.54709 0.0
H1173 H 0.0804 0.34101 0.71417 0.0
H1174 H 0.0105 0.29743 0.63821 0.0
H1175 H 0.11584 0.2924 0.63667 0.0
C1176 C 0.113 0.27961 0.58986 0.0
C1177 C 0.09476 0.27681 0.56383 0.0
C1178 C 0.02584 0.30694 0.65484 0.0
C1179 C 0.07036 0.29896 0.61902 0.0
C1180 C 0.01429 0.31655 0.68299 0.0
C1181 C 0.03346 0.3296 0.705 0.0
C1182 C 0.05704 0.30951 0.64866 0.0
C1183 C 0.06465 0.3312 0.69811 0.0
C1184 C 0.10114 0.29089 0.61708 0.0
C1185 C 0.06418 0.28605 0.56635 0.0
N1186 N 0.07542 0.32126 0.67068 0.0
N1187 N 0.05285 0.29636 0.59354 0.0
H1188 H 0.94482 0.84347 0.80268 0.0
H1189 H 0.97247 0.78336 0.97228 0.0
H1190 H 0.03387 0.81447 0.83134 0.0
H1191 H 0.88684 0.77755 0.92536 0.0
H1192 H 0.99623 0.80218 0.92477 0.0
H1193 H 0.92389 0.82617 0.85089 0.0
C1194 C 0.96003 0.83315 0.81888 0.0
C1195 C 0.99124 0.83042 0.81253 0.0
C1196 C 0.97222 0.79679 0.92508 0.0
C1197 C 0.9673 0.81108 0.86897 0.0
C1198 C 0.95861 0.78628 0.95224 0.0
C1199 C 0.92754 0.77868 0.95297 0.0
C1200 C 0.95447 0.80029 0.89871 0.0
C1201 C 0.91082 0.78288 0.92611 0.0
C1202 C 0.94804 0.82346 0.84671 0.0
C1203 C 0.0097 0.81732 0.83518 0.0
N1204 N 0.92437 0.79338 0.9004 0.0
N1205 N 0.99756 0.80833 0.8624 0.0
H1206 H 0.50934 0.71071 0.19608 0.0
H1207 H 0.39065 0.68942 0.05991 0.0
H1208 H 0.43116 0.65217 0.20438 0.0
H1209 H 0.47107 0.74483 0.05537 0.0
H1210 H 0.40506 0.67306 0.11138 0.0
H1211 H 0.49447 0.72317 0.14444 0.0
C1212 C 0.48864 0.70087 0.18717 0.0
C1213 C 0.47143 0.68045 0.20473 0.0
C1214 C 0.41979 0.68844 0.09896 0.0
C1215 C 0.45453 0.69403 0.14468 0.0
C1216 C 0.41161 0.69762 0.06953 0.0
C1217 C 0.42936 0.71892 0.05366 0.0
C1218 C 0.44619 0.7004 0.11235 0.0
C1219 C 0.45662 0.72852 0.06693 0.0
C1220 C 0.48032 0.70774 0.15744 0.0
C1221 C 0.44492 0.66829 0.1918 0.0
N1222 N 0.46403 0.71942 0.09548 0.0
N1223 N 0.43737 0.67508 0.16246 0.0
H1224 H 0.17836 0.37505 0.34087 0.0
H1225 H 0.15792 0.46026 0.18164 0.0
H1226 H 0.09313 0.38033 0.29286 0.0
H1227 H 0.24592 0.43048 0.21309 0.0
H1228 H 0.13422 0.43416 0.22454 0.0
H1229 H 0.20396 0.39729 0.29648 0.0
C1230 C 0.16496 0.38055 0.32105 0.0
C1231 C 0.13325 0.37597 0.32111 0.0
C1232 C 0.15871 0.43317 0.22207 0.0
C1233 C 0.1626 0.40217 0.2702 0.0
C1234 C 0.17234 0.4482 0.19753 0.0
C1235 C 0.20406 0.44764 0.19356 0.0
C1236 C 0.17681 0.41765 0.24333 0.0
C1237 C 0.22139 0.43147 0.21507 0.0
C1238 C 0.17966 0.39345 0.29572 0.0
C1239 C 0.11737 0.38404 0.29457 0.0
N1240 N 0.20759 0.41734 0.23911 0.0
N1241 N 0.13208 0.39687 0.27052 0.0
H1242 H 0.89678 0.95456 0.59896 0.0
H1243 H 0.85136 0.94237 0.42291 0.0
H1244 H 0.95296 0.91085 0.53125 0.0
H1245 H 0.80986 1.00742 0.48374 0.0
H1246 H 0.88474 0.92543 0.46408 0.0
H1247 H 0.86028 0.96853 0.559 0.0
C1248 C 0.90124 0.94757 0.57579 0.0
C1249 C 0.92809 0.93167 0.56844 0.0
C1250 C 0.86841 0.94348 0.46847 0.0
C1251 C 0.88652 0.94762 0.52261 0.0
C1252 C 0.84934 0.95311 0.44496 0.0
C1253 C 0.82787 0.97635 0.44991 0.0
C1254 C 0.86593 0.95701 0.49732 0.0
C1255 C 0.82629 0.98959 0.47891 0.0
C1256 C 0.88055 0.95576 0.55296 0.0
C1257 C 0.93277 0.9234 0.53794 0.0
N1258 N 0.84492 0.97963 0.50156 0.0
N1259 N 0.9123 0.93144 0.51627 0.0
H1260 H 0.3277 0.59488 0.68472 0.0
H1261 H 0.29572 0.6049 0.864 0.0
H1262 H 0.25568 0.54678 0.73072 0.0
H1263 H 0.37582 0.64316 0.82194 0.0
H1264 H 0.27904 0.58686 0.81454 0.0
H1265 H 0.34382 0.61632 0.73366 0.0
C1266 C 0.31527 0.58892 0.70513 0.0
C1267 C 0.2906 0.56873 0.70374 0.0
C1268 C 0.30027 0.59923 0.81604 0.0
C1269 C 0.30857 0.59338 0.75971 0.0
C1270 C 0.30995 0.60945 0.84441 0.0
C1271 C 0.33748 0.6254 0.84746 0.0
C1272 C 0.31804 0.605 0.79012 0.0
C1273 C 0.35437 0.63118 0.82086 0.0
C1274 C 0.32442 0.60117 0.73303 0.0
C1275 C 0.2749 0.56219 0.73074 0.0
N1276 N 0.34445 0.62091 0.7934 0.0
N1277 N 0.28424 0.57429 0.75755 0.0
H1278 H 0.59243 0.09352 0.06071 0.0
H1279 H 0.73792 0.09035 0.95034 0.0
H1280 H 0.67081 0.15159 0.0711 0.0
H1281 H 0.66889 0.02045 0.94826 0.0
H1282 H 0.71243 0.11345 0.9938 0.0
H1283 H 0.61898 0.06649 0.01948 0.0
C1284 C 0.61526 0.10047 0.0546 0.0
C1285 C 0.62912 0.12526 0.06937 0.0
C1286 C 0.70287 0.09297 0.98399 0.0
C1287 C 0.65954 0.09456 0.02173 0.0
C1288 C 0.7175 0.07964 0.95903 0.0
C1289 C 0.70581 0.05313 0.94543 0.0
C1290 C 0.67598 0.08008 0.99557 0.0
C1291 C 0.67895 0.04077 0.95789 0.0
C1292 C 0.63035 0.0851 0.03089 0.0
C1293 C 0.65873 0.13321 0.06008 0.0
N1294 N 0.66493 0.05438 0.98209 0.0
N1295 N 0.67274 0.11812 0.0369 0.0
H1296 H 0.68659 0.13781 0.66195 0.0
H1297 H 0.68729 0.09795 0.83984 0.0
H1298 H 0.61409 0.16101 0.72409 0.0
H1299 H 0.75214 0.05988 0.77669 0.0
H1300 H 0.66445 0.12723 0.79847 0.0
H1301 H 0.71481 0.11479 0.70426 0.0
C1302 C 0.67676 0.13838 0.68452 0.0
C1303 C 0.64782 0.15122 0.6894 0.0
C1304 C 0.68384 0.11271 0.7936 0.0
C1305 C 0.67996 0.12492 0.7379 0.0
C1306 C 0.69689 0.09602 0.81725 0.0
C1307 C 0.72133 0.07619 0.81157 0.0
C1308 C 0.69534 0.10963 0.76394 0.0
C1309 C 0.73322 0.07487 0.78198 0.0
C1310 C 0.6928 0.12508 0.70862 0.0
C1311 C 0.63611 0.15103 0.71913 0.0
N1312 N 0.71991 0.0911 0.75918 0.0
N1313 N 0.65215 0.1381 0.74212 0.0
H1314 H 0.21487 0.51181 0.03065 0.0
H1315 H 0.13109 0.38586 0.9289 0.0
H1316 H 0.17136 0.43287 0.06951 0.0
H1317 H 0.15785 0.47462 0.89582 0.0
H1318 H 0.14695 0.40109 0.98003 0.0
H1319 H 0.19585 0.49708 0.9807 0.0
C1320 C 0.2011 0.49144 0.02869 0.0
C1321 C 0.19497 0.47336 0.05426 0.0
C1322 C 0.1492 0.41724 0.96155 0.0
C1323 C 0.17304 0.45617 0.99687 0.0
C1324 C 0.13998 0.40862 0.9323 0.0
C1325 C 0.14324 0.42882 0.90764 0.0
C1326 C 0.16187 0.44629 0.96636 0.0
C1327 C 0.15539 0.4579 0.91373 0.0
C1328 C 0.19031 0.48295 1.0001 0.0
C1329 C 0.17703 0.44718 0.05029 0.0
N1330 N 0.16432 0.46562 0.94225 0.0
N1331 N 0.16686 0.43925 0.02215 0.0
H1332 H 0.84453 0.98749 0.31216 0.0
H1333 H 0.84785 0.84358 0.19942 0.0
H1334 H 0.77369 0.91943 0.31207 0.0
H1335 H 0.90752 0.9213 0.19197 0.0
H1336 H 0.82056 0.86962 0.24083 0.0
H1337 H 0.86837 0.962 0.26914 0.0
C1338 C 0.83379 0.96725 0.3031 0.0
C1339 C 0.80675 0.95588 0.31593 0.0
C1340 C 0.8396 0.88094 0.23004 0.0
C1341 C 0.83456 0.92604 0.26621 0.0
C1342 C 0.85513 0.86615 0.20621 0.0
C1343 C 0.88042 0.87996 0.19216 0.0
C1344 C 0.84938 0.9098 0.24004 0.0
C1345 C 0.88875 0.90922 0.20238 0.0
C1346 C 0.84754 0.95262 0.27837 0.0
C1347 C 0.79438 0.92924 0.30302 0.0
N1348 N 0.87348 0.92294 0.22561 0.0
N1349 N 0.8084 0.91522 0.279 0.0
H1350 H 0.29358 0.59394 0.56249 0.0
H1351 H 0.37579 0.5397 0.40906 0.0
H1352 H 0.33154 0.50384 0.54976 0.0
H1353 H 0.36061 0.63477 0.42932 0.0
H1354 H 0.35843 0.52636 0.46017 0.0
H1355 H 0.31606 0.60953 0.51375 0.0
C1356 C 0.30668 0.57742 0.54958 0.0
C1357 C 0.3105 0.54742 0.56047 0.0
C1358 C 0.35912 0.5502 0.45367 0.0
C1359 C 0.33628 0.56522 0.50429 0.0
C1360 C 0.36911 0.55784 0.42444 0.0
C1361 C 0.3698 0.58843 0.41482 0.0
C1362 C 0.3491 0.57321 0.47363 0.0
C1363 C 0.36075 0.61093 0.43582 0.0
C1364 C 0.31961 0.58641 0.52174 0.0
C1365 C 0.32788 0.52719 0.54255 0.0
N1366 N 0.35046 0.60288 0.46406 0.0
N1367 N 0.33982 0.53636 0.51545 0.0
H1368 H 0.22919 0.2612 0.45876 0.0
H1369 H 0.3254 0.13607 0.36471 0.0
H1370 H 0.18839 0.18321 0.41579 0.0
H1371 H 0.36439 0.21753 0.40327 0.0
H1372 H 0.27513 0.1529 0.38248 0.0
H1373 H 0.27877 0.24577 0.43798 0.0
C1374 C 0.23065 0.24097 0.44466 0.0
C1375 C 0.20469 0.2233 0.43919 0.0
C1376 C 0.29469 0.16713 0.38697 0.0
C1377 C 0.2615 0.20532 0.4153 0.0
C1378 C 0.32347 0.1576 0.37666 0.0
C1379 C 0.34949 0.17524 0.38253 0.0
C1380 C 0.29166 0.19463 0.40325 0.0
C1381 C 0.34529 0.20278 0.39856 0.0
C1382 C 0.259 0.23204 0.43292 0.0
C1383 C 0.20793 0.19724 0.42087 0.0
N1384 N 0.31713 0.21151 0.40833 0.0
N1385 N 0.23576 0.18897 0.40971 0.0
H1386 H 0.05082 0.11156 0.65926 0.0
H1387 H 0.07378 0.92949 0.66348 0.0
H1388 H 0.12294 0.06743 0.60883 0.0
H1389 H 0.02453 0.98116 0.73093 0.0
H1390 H 0.08731 0.97782 0.63784 0.0
H1391 H 0.03618 0.0623 0.68007 0.0
C1392 C 0.0638 0.09159 0.65257 0.0
C1393 C 0.0887 0.09416 0.63255 0.0
C1394 C 0.07344 0.97849 0.65818 0.0
C1395 C 0.07126 0.03673 0.6562 0.0
C1396 C 0.06553 0.95093 0.67267 0.0
C1397 C 0.04797 0.95126 0.6994 0.0
C1398 C 0.06327 1.00654 0.67023 0.0
C1399 C 0.0382 0.97974 0.71049 0.0
C1400 C 0.05522 0.06327 0.66445 0.0
C1401 C 0.10364 0.06685 0.62411 0.0
N1402 N 0.04588 1.00602 0.69591 0.0
N1403 N 0.09479 0.03938 0.63604 0.0
H1404 H 0.15948 0.78379 0.88644 0.0
H1405 H 0.3108 0.84286 0.96797 0.0
H1406 H 0.17715 0.87958 0.89951 0.0
H1407 H 0.30033 0.75177 0.93225 0.0
H1408 H 0.26188 0.85709 0.94497 0.0
H1409 H 0.21074 0.77196 0.90439 0.0
C1410 C 0.17433 0.8024 0.89278 0.0
C1411 C 0.16395 0.83274 0.89132 0.0
C1412 C 0.27043 0.83405 0.94204 0.0
C1413 C 0.22291 0.81928 0.9127 0.0
C1414 C 0.29836 0.82585 0.95526 0.0
C1415 C 0.30994 0.79597 0.95221 0.0
C1416 C 0.25362 0.8122 0.92584 0.0
C1417 C 0.29262 0.77507 0.9353 0.0
C1418 C 0.20365 0.79563 0.90311 0.0
C1419 C 0.18427 0.85589 0.89996 0.0
N1420 N 0.26544 0.78349 0.92305 0.0
N1421 N 0.21261 0.84869 0.91059 0.0
H1422 H 0.50247 0.03641 0.18357 0.0
H1423 H 0.34787 0.97129 0.12075 0.0
H1424 H 0.42445 0.09388 0.16767 0.0
H1425 H 0.43236 0.9392 0.08134 0.0
H1426 H 0.3758 0.01109 0.14697 0.0
H1427 H 0.47796 0.99557 0.15375 0.0
C1428 C 0.48037 0.04054 0.17359 0.0
C1429 C 0.46514 0.06835 0.17866 0.0
C1430 C 0.38817 0.99524 0.13259 0.0
C1431 C 0.4369 0.02177 0.14531 0.0
C1432 C 0.3722 0.9725 0.11725 0.0
C1433 C 0.38737 0.95175 0.09793 0.0
C1434 C 0.41986 0.99708 0.12959 0.0
C1435 C 0.41936 0.95424 0.09593 0.0
C1436 C 0.46638 0.01723 0.15675 0.0
C1437 C 0.4366 0.0725 0.16512 0.0
N1438 N 0.4345 0.97637 0.1116 0.0
N1439 N 0.42322 0.04939 0.14956 0.0
H1440 H 0.81513 0.40842 0.60769 0.0
H1441 H 0.72749 0.26113 0.56653 0.0
H1442 H 0.82493 0.33404 0.67155 0.0
H1443 H 0.67808 0.34538 0.57909 0.0
H1444 H 0.77067 0.28332 0.5945 0.0
H1445 H 0.77249 0.38201 0.58497 0.0
C1446 C 0.80842 0.38672 0.61731 0.0
C1447 C 0.82362 0.37421 0.64255 0.0
C1448 C 0.75024 0.29676 0.59115 0.0
C1449 C 0.77531 0.34284 0.61467 0.0
C1450 C 0.72561 0.28417 0.57528 0.0
C1451 C 0.6994 0.30177 0.56969 0.0
C1452 C 0.74873 0.32722 0.60098 0.0
C1453 C 0.69819 0.33139 0.58184 0.0
C1454 C 0.78413 0.37151 0.60388 0.0
C1455 C 0.81429 0.34493 0.65229 0.0
N1456 N 0.72268 0.34341 0.59628 0.0
N1457 N 0.79083 0.33019 0.63828 0.0
H1458 H 0.92355 0.43919 0.82662 0.0
H1459 H 0.97617 0.60954 0.86904 0.0
H1460 H 0.01475 0.47302 0.81489 0.0
H1461 H 0.88766 0.57485 0.89314 0.0
H1462 H 0.98986 0.55951 0.84875 0.0
H1463 H 0.90911 0.48807 0.85046 0.0
C1464 C 0.94052 0.45688 0.82904 0.0
C1465 C 0.97035 0.45205 0.81841 0.0
C1466 C 0.96744 0.56266 0.85854 0.0
C1467 C 0.95407 0.50805 0.8459 0.0
C1468 C 0.95953 0.59139 0.87007 0.0
C1469 C 0.93056 0.59671 0.88271 0.0
C1470 C 0.94629 0.53867 0.85929 0.0
C1471 C 0.91027 0.5719 0.88378 0.0
C1472 C 0.9323 0.48474 0.84277 0.0
C1473 C 0.9915 0.47563 0.82267 0.0
N1474 N 0.9184 0.5441 0.87203 0.0
N1475 N 0.98293 0.5025 0.8358 0.0
H1476 H 0.83776 0.6849 0.0984 0.0
H1477 H 0.66475 0.7139 0.15029 0.0
H1478 H 0.78647 0.76287 0.06767 0.0
H1479 H 0.72827 0.659 0.2009 0.0
H1480 H 0.70588 0.72682 0.11428 0.0
H1481 H 0.79485 0.66998 0.13066 0.0
C1482 C 0.81738 0.69884 0.0984 0.0
C1483 C 0.81568 0.72514 0.0803 0.0
C1484 C 0.71071 0.71181 0.13319 0.0
C1485 C 0.76624 0.7082 0.11731 0.0
C1486 C 0.68721 0.70424 0.15357 0.0
C1487 C 0.6931 0.6854 0.17869 0.0
C1488 C 0.74018 0.70002 0.13767 0.0
C1489 C 0.72273 0.67375 0.18198 0.0
C1490 C 0.7929 0.69038 0.11692 0.0
C1491 C 0.78879 0.74254 0.08145 0.0
N1492 N 0.74502 0.68116 0.16178 0.0
N1493 N 0.76506 0.7337 0.09951 0.0
H1494 H 0.63248 0.44494 0.38799 0.0
H1495 H 0.49909 0.54229 0.30903 0.0
H1496 H 0.55022 0.40593 0.35203 0.0
H1497 H 0.58435 0.58208 0.3357 0.0
H1498 H 0.51627 0.49295 0.32866 0.0
H1499 H 0.61424 0.49583 0.37301 0.0
C1500 C 0.6105 0.44702 0.37719 0.0
C1501 C 0.59302 0.42088 0.37112 0.0
C1502 C 0.53128 0.51241 0.33037 0.0
C1503 C 0.57202 0.47925 0.35374 0.0
C1504 C 0.52138 0.54066 0.3193 0.0
C1505 C 0.54046 0.56622 0.32042 0.0
C1506 C 0.56045 0.50959 0.34306 0.0
C1507 C 0.56912 0.56279 0.33402 0.0
C1508 C 0.60018 0.47611 0.36847 0.0
C1509 C 0.56481 0.42518 0.35677 0.0
N1510 N 0.57831 0.53499 0.34469 0.0
N1511 N 0.55529 0.45363 0.34861 0.0
H1512 H 0.37383 0.32455 0.13102 0.0
H1513 H 0.45099 0.21956 0.25919 0.0
H1514 H 0.39712 0.35665 0.22042 0.0
H1515 H 0.44059 0.19033 0.16646 0.0
H1516 H 0.42728 0.26845 0.24622 0.0
H1517 H 0.39412 0.27401 0.14432 0.0
C1518 C 0.38297 0.32095 0.15351 0.0
C1519 C 0.38387 0.34508 0.17454 0.0
C1520 C 0.43014 0.2514 0.22865 0.0
C1521 C 0.40729 0.28716 0.18992 0.0
C1522 C 0.44356 0.22338 0.23609 0.0
C1523 C 0.44811 0.20094 0.2138 0.0
C1524 C 0.4208 0.25705 0.19869 0.0
C1525 C 0.43798 0.20719 0.18424 0.0
C1526 C 0.39474 0.29212 0.16103 0.0
C1527 C 0.3963 0.33899 0.20327 0.0
N1528 N 0.42487 0.23464 0.17753 0.0
N1529 N 0.40745 0.31078 0.21006 0.0
H1530 H 0.93687 0.33997 0.84677 0.0
H1531 H 0.8389 0.18943 0.82926 0.0
H1532 H 0.93869 0.29051 0.7623 0.0
H1533 H 0.88581 0.21209 0.9122 0.0
H1534 H 0.86738 0.22984 0.80326 0.0
H1535 H 0.90897 0.29787 0.87022 0.0
C1536 C 0.93154 0.32016 0.83316 0.0
C1537 C 0.94108 0.31841 0.80279 0.0
C1538 C 0.87131 0.2258 0.82716 0.0
C1539 C 0.90774 0.27048 0.82922 0.0
C1540 C 0.85519 0.20253 0.84213 0.0
C1541 C 0.85938 0.1971 0.87339 0.0
C1542 C 0.89137 0.24434 0.84357 0.0
C1543 C 0.88072 0.21562 0.88849 0.0
C1544 C 0.91544 0.29619 0.84654 0.0
C1545 C 0.93213 0.29272 0.78589 0.0
N1546 N 0.8955 0.23845 0.87359 0.0
N1547 N 0.91595 0.26973 0.79932 0.0
H1548 H 0.09032 0.62056 0.09085 0.0
H1549 H 0.92411 0.69356 0.10644 0.0
H1550 H 0.03296 0.60918 0.16977 0.0
H1551 H 0.9707 0.68629 0.02049 0.0
H1552 H 0.9647 0.66385 0.13014 0.0
H1553 H 0.04787 0.64535 0.0647 0.0
C1554 C 0.0688 0.62293 0.10266 0.0
C1555 C 0.06551 0.6128 0.13281 0.0
C1556 C 0.96605 0.66854 0.10606 0.0
C1557 C 0.0168 0.64181 0.10295 0.0
C1558 C 0.94288 0.68557 0.09252 0.0
C1559 C 0.94412 0.6926 0.06148 0.0
C1560 C 0.99096 0.65856 0.08857 0.0
C1561 C 0.96885 0.68138 0.0445 0.0
C1562 C 0.04458 0.63728 0.08769 0.0
C1563 C 0.03702 0.6171 0.14687 0.0
N1564 N 0.99146 0.66518 0.05831 0.0
N1565 N 0.01397 0.63137 0.13194 0.0
H1566 H 0.60596 0.86345 0.30358 0.0
H1567 H 0.59606 0.6815 0.32487 0.0
H1568 H 0.65288 0.81745 0.37629 0.0
H1569 H 0.53236 0.73549 0.27357 0.0
H1570 H 0.62276 0.72887 0.33932 0.0
H1571 H 0.58488 0.81482 0.28753 0.0
C1572 C 0.61185 0.84316 0.31633 0.0
C1573 C 0.63089 0.84498 0.34184 0.0
C1574 C 0.60305 0.73025 0.32475 0.0
C1575 C 0.60687 0.78836 0.32292 0.0
C1576 C 0.58797 0.70323 0.31632 0.0
C1577 C 0.562 0.70452 0.29788 0.0
C1578 C 0.59232 0.75869 0.31427 0.0
C1579 C 0.55224 0.73335 0.28782 0.0
C1580 C 0.59981 0.81522 0.30699 0.0
C1581 C 0.63834 0.81737 0.35656 0.0
N1582 N 0.56735 0.75909 0.29605 0.0
N1583 N 0.6262 0.79028 0.34702 0.0
H1584 H 0.57826 0.32768 0.58561 0.0
H1585 H 0.40537 0.36439 0.54072 0.0
H1586 H 0.5417 0.31346 0.49622 0.0
H1587 H 0.4443 0.39158 0.62613 0.0
H1588 H 0.45507 0.34526 0.5245 0.0
H1589 H 0.52967 0.35073 0.60135 0.0
C1590 C 0.55997 0.32943 0.56931 0.0
C1591 C 0.56386 0.31828 0.53967 0.0
C1592 C 0.45287 0.35551 0.54676 0.0
C1593 C 0.50824 0.34483 0.55742 0.0
C1594 C 0.42439 0.36634 0.55612 0.0
C1595 C 0.42047 0.37949 0.58497 0.0
C1596 C 0.47787 0.35752 0.56639 0.0
C1597 C 0.44621 0.3818 0.60366 0.0
C1598 C 0.53228 0.34269 0.57826 0.0
C1599 C 0.53963 0.32166 0.51932 0.0
N1600 N 0.4737 0.37072 0.59416 0.0
N1601 N 0.51285 0.33436 0.52861 0.0
H1602 H 0.17935 0.6884 0.67892 0.0
H1603 H 0.08145 0.8412 0.6668 0.0
H1604 H 0.13121 0.71478 0.5977 0.0
H1605 H 0.08504 0.79146 0.7511 0.0
H1606 H 0.10897 0.7995 0.64185 0.0
H1607 H 0.15276 0.72928 0.70651 0.0
C1608 C 0.16319 0.70244 0.66675 0.0
C1609 C 0.15808 0.69786 0.63549 0.0
C1610 C 0.10378 0.79767 0.66582 0.0
C1611 C 0.12824 0.74564 0.66715 0.0
C1612 C 0.08802 0.82148 0.68012 0.0
C1613 C 0.08003 0.81951 0.71095 0.0
C1614 C 0.11263 0.77186 0.68254 0.0
C1615 C 0.09029 0.79381 0.7272 0.0
C1616 C 0.14816 0.72598 0.68262 0.0
C1617 C 0.13699 0.71755 0.62135 0.0
N1618 N 0.10599 0.77095 0.71282 0.0
N1619 N 0.12324 0.74055 0.63711 0.0
H1620 H 0.43421 0.84119 0.93239 0.0
H1621 H 0.61352 0.85718 0.96296 0.0
H1622 H 0.48114 0.79951 1.00742 0.0
H1623 H 0.56978 0.89665 0.88473 0.0
H1624 H 0.56446 0.83821 0.9804 0.0
H1625 H 0.48249 0.864 0.91551 0.0
C1626 C 0.45466 0.83694 0.94534 0.0
C1627 C 0.45372 0.81813 0.97112 0.0
C1628 C 0.56545 0.85106 0.95943 0.0
C1629 C 0.50899 0.84436 0.9522 0.0
C1630 C 0.59361 0.86184 0.94933 0.0
C1631 C 0.59608 0.87836 0.92207 0.0
C1632 C 0.53916 0.85674 0.94232 0.0
C1633 C 0.56911 0.88418 0.90592 0.0
C1634 C 0.4822 0.85 0.93575 0.0
C1635 C 0.48078 0.81379 0.98737 0.0
N1636 N 0.54187 0.87326 0.91618 0.0
N1637 N 0.50722 0.82657 0.97755 0.0
H1638 H 0.94433 0.08701 0.42596 0.0
H1639 H 0.08312 0.20327 0.40572 0.0
H1640 H 0.95947 0.14136 0.34557 0.0
H1641 H 0.05141 0.17592 0.49434 0.0
H1642 H 0.04126 0.17518 0.38285 0.0
H1643 H 0.98562 0.11474 0.45111 0.0
C1644 C 0.95603 0.1048 0.41355 0.0
C1645 C 0.94824 0.11139 0.38324 0.0
C1646 C 0.04333 0.17533 0.40732 0.0
C1647 C 0.99628 0.14284 0.41196 0.0
C1648 C 0.06728 0.19147 0.42047 0.0
C1649 C 0.07052 0.19273 0.45215 0.0
C1650 C 0.02251 0.15955 0.42577 0.0
C1651 C 0.0497 0.17596 0.46985 0.0
C1652 C 0.97981 0.12051 0.42796 0.0
C1653 C 0.96485 0.13461 0.36854 0.0
N1654 N 0.02658 0.16014 0.45647 0.0
N1655 N 0.98801 0.14918 0.38288 0.0
loop_
_geom_bond_atom_site_label_1
_geom_bond_atom_site_label_2
_geom_bond_distance
_geom_bond_site_symmetry_2
_ccdc_geom_bond_type
Tb0 N29 2.617 . S
Tb0 N35 2.572 . S
Tb0 O44 2.465 . S
Tb0 O45 2.387 . S
Tb0 O47 2.428 . S
Tb0 O48 2.308 . S
Tb0 O52 2.349 . S
Tb0 O55 2.393 . S
Tb0 C64 2.802 . S
C1 N2 1.379 . S
C1 C4 1.416 . S
C1 C8 1.424 . S
N2 C1 1.379 . S
N2 C5 1.334 . S
N2 Tb11 2.617 . S
C3 C5 1.390 . S
C3 C6 1.339 1_455 S
C3 H23 0.930 1_455 S
C4 C1 1.416 . S
C4 C6 1.416 1_455 S
C4 C10 1.448 1_455 S
C5 N2 1.334 . S
C5 C3 1.390 . S
C5 H16 0.930 . S
C6 C3 1.339 1_655 S
C6 C4 1.416 1_655 S
C6 H27 0.930 . S
C7 C8 1.413 . S
C7 C9 1.427 . S
C7 C13 1.416 . S
C8 C1 1.424 . S
C8 C7 1.413 . S
C8 N12 1.361 . S
C9 C7 1.427 . S
C9 C10 1.328 1_455 S
C9 H24 0.921 1_455 S
C10 C4 1.448 1_655 S
C10 C9 1.328 1_655 S
C10 H25 0.930 . S
Tb11 N2 2.617 . S
Tb11 N12 2.572 . S
Tb11 O46 2.349 . S
Tb11 O49 2.393 . S
Tb11 O50 2.465 . S
Tb11 O51 2.387 . S
Tb11 O53 2.428 . S
Tb11 O54 2.308 . S
Tb11 C75 2.802 . S
N12 C8 1.361 . S
N12 Tb11 2.572 . S
N12 C14 1.340 . S
C13 C7 1.416 . S
C13 C15 1.332 . S
C13 H21 0.931 . S
C14 N12 1.340 . S
C14 C15 1.407 . S
C14 H20 0.930 . S
C15 C13 1.332 . S
C15 C14 1.407 . S
C15 H17 0.929 . S
H16 C5 0.930 . S
H17 C15 0.929 . S
H18 C33 0.930 . S
H19 C40 0.929 . S
H20 C14 0.930 . S
H21 C13 0.931 . S
H22 C36 0.930 . S
H23 C3 0.930 1_655 S
H24 C9 0.921 1_655 S
H25 C10 0.930 . S
H26 C31 0.930 . S
H27 C6 0.930 . S
H28 C39 0.931 . S
N29 Tb0 2.617 . S
N29 C30 1.379 . S
N29 C33 1.334 . S
C30 N29 1.379 . S
C30 C32 1.416 . S
C30 C38 1.424 . S
C31 H26 0.930 . S
C31 C33 1.390 . S
C31 C34 1.339 . S
C32 C30 1.416 . S
C32 C34 1.416 . S
C32 C65 1.448 . S
C33 H18 0.930 . S
C33 N29 1.334 . S
C33 C31 1.390 . S
C34 C31 1.339 . S
C34 C32 1.416 . S
C34 H41 0.930 . S
N35 Tb0 2.572 . S
N35 C36 1.340 . S
N35 C38 1.361 . S
C36 H22 0.930 . S
C36 N35 1.340 . S
C36 C40 1.407 . S
C37 C38 1.413 . S
C37 C39 1.416 . S
C37 C66 1.427 . S
C38 C30 1.424 . S
C38 N35 1.361 . S
C38 C37 1.413 . S
C39 H28 0.931 . S
C39 C37 1.416 . S
C39 C40 1.332 . S
C40 H19 0.929 . S
C40 C36 1.407 . S
C40 C39 1.332 . S
H41 C34 0.930 . S
H42 C65 0.930 . S
H43 C66 0.929 . S
O44 Tb0 2.465 . S
O44 C64 1.264 . S
O45 Tb0 2.387 . S
O45 C56 1.264 . S
O46 Tb11 2.349 . S
O46 C56 1.243 . S
O47 Tb0 2.428 . S
O47 C64 1.256 . S
O48 Tb0 2.308 . S
O48 C63 1.266 . S
O49 Tb11 2.393 . S
O49 C63 1.248 . S
O50 Tb11 2.465 . S
O50 C75 1.264 . S
O51 Tb11 2.387 . S
O51 C67 1.264 . S
O52 Tb0 2.349 . S
O52 C67 1.243 . S
O53 Tb11 2.428 . S
O53 C75 1.256 . S
O54 Tb11 2.308 . S
O54 C74 1.266 . S
O55 Tb0 2.393 . S
O55 C74 1.248 . S
C56 O45 1.264 . S
C56 O46 1.243 . S
C57 C60 1.399 . S
C57 C62 1.383 . S
C57 C64 1.496 . S
C58 C59 1.399 . S
C58 C62 1.389 . S
C59 C58 1.399 . S
C59 C61 1.380 . S
C59 H76 0.929 . S
C60 C57 1.399 . S
C60 C61 1.392 . S
C60 H77 0.929 . S
C61 C59 1.380 . S
C61 C60 1.392 . S
C61 H78 0.929 . S
C62 C57 1.383 . S
C62 C58 1.389 . S
C62 H79 0.931 . S
C63 O48 1.266 . S
C63 O49 1.248 . S
C64 Tb0 2.802 . S
C64 O44 1.264 . S
C64 O47 1.256 . S
C64 C57 1.496 . S
C65 C32 1.448 . S
C65 H42 0.930 . S
C65 C66 1.328 . S
C66 C37 1.427 . S
C66 H43 0.929 . S
C66 C65 1.328 . S
C67 O51 1.264 . S
C67 O52 1.243 . S
C68 C71 1.399 . S
C68 C72 1.383 . S
C68 C75 1.496 . S
C69 C70 1.399 . S
C69 C72 1.389 . S
C70 C69 1.399 . S
C70 C73 1.380 . S
C70 H80 0.929 . S
C71 C68 1.399 . S
C71 C73 1.392 . S
C71 H81 0.929 . S
C72 C68 1.383 . S
C72 C69 1.389 . S
C72 H82 0.931 . S
C73 C70 1.380 . S
C73 C71 1.392 . S
C73 H83 0.929 . S
C74 O54 1.266 . S
C74 O55 1.248 . S
C75 Tb11 2.802 . S
C75 O50 1.264 . S
C75 O53 1.256 . S
C75 C68 1.496 . S
H76 C59 0.929 . S
H77 C60 0.929 . S
H78 C61 0.929 . S
H79 C62 0.931 . S
H80 C70 0.929 . S
H81 C71 0.929 . S
H82 C72 0.931 . S
H83 C73 0.929 . S
Tb84 N113 2.617 . S
Tb84 N119 2.572 . S
Tb84 O128 2.465 . S
Tb84 O129 2.387 . S
Tb84 O131 2.428 . S
Tb84 O132 2.308 . S
Tb84 O136 2.349 . S
Tb84 O139 2.393 1_455 S
Tb84 C148 2.802 . S
C85 N86 1.379 . S
C85 C88 1.416 . S
C85 C92 1.424 . S
N86 C85 1.379 . S
N86 C89 1.334 . S
N86 Tb95 2.617 . S
C87 C89 1.390 . S
C87 C90 1.339 . S
C87 H107 0.930 1_655 S
C88 C85 1.416 . S
C88 C90 1.416 . S
C88 C94 1.448 . S
C89 N86 1.334 . S
C89 C87 1.390 . S
C89 H100 0.930 1_655 S
C90 C87 1.339 . S
C90 C88 1.416 . S
C90 H111 0.930 . S
C91 C92 1.413 . S
C91 C93 1.427 . S
C91 C97 1.416 . S
C92 C85 1.424 . S
C92 C91 1.413 . S
C92 N96 1.361 . S
C93 C91 1.427 . S
C93 C94 1.328 . S
C93 H108 0.929 . S
C94 C88 1.448 . S
C94 C93 1.328 . S
C94 H109 0.930 . S
Tb95 N86 2.617 . S
Tb95 N96 2.572 . S
Tb95 O130 2.349 1_655 S
Tb95 O133 2.393 1_655 S
Tb95 O134 2.465 . S
Tb95 O135 2.387 . S
Tb95 O137 2.428 . S
Tb95 O138 2.308 . S
Tb95 C159 2.802 . S
N96 C92 1.361 . S
N96 Tb95 2.572 . S
N96 C98 1.340 . S
C97 C91 1.416 . S
C97 C99 1.332 . S
C97 H105 0.931 . S
C98 N96 1.340 . S
C98 C99 1.407 . S
C98 H104 0.930 . S
C99 C97 1.332 . S
C99 C98 1.407 . S
C99 H101 0.929 . S
H100 C89 0.930 1_455 S
H101 C99 0.929 . S
H102 C117 0.930 . S
H103 C124 0.929 . S
H104 C98 0.930 . S
H105 C97 0.931 . S
H106 C120 0.930 . S
H107 C87 0.930 1_455 S
H108 C93 0.929 . S
H109 C94 0.930 . S
H110 C115 0.930 1_545 S
H111 C90 0.930 . S
H112 C123 0.931 . S
N113 Tb84 2.617 . S
N113 C114 1.379 . S
N113 C117 1.334 . S
C114 N113 1.379 . S
C114 C116 1.416 . S
C114 C122 1.424 . S
C115 H110 0.930 1_565 S
C115 C117 1.390 . S
C115 C118 1.339 1_565 S
C116 C114 1.416 . S
C116 C118 1.416 1_565 S
C116 C149 1.448 1_565 S
C117 H102 0.930 . S
C117 N113 1.334 . S
C117 C115 1.390 . S
C118 C115 1.339 1_545 S
C118 C116 1.416 1_545 S
C118 H125 0.930 . S
N119 Tb84 2.572 . S
N119 C120 1.340 . S
N119 C122 1.361 . S
C120 H106 0.930 . S
C120 N119 1.340 . S
C120 C124 1.407 . S
C121 C122 1.413 . S
C121 C123 1.416 . S
C121 C150 1.427 . S
C122 C114 1.424 . S
C122 N119 1.361 . S
C122 C121 1.413 . S
C123 H112 0.931 . S
C123 C121 1.416 . S
C123 C124 1.332 . S
C124 H103 0.929 . S
C124 C120 1.407 . S
C124 C123 1.332 . S
H125 C118 0.930 . S
H126 C149 0.930 . S
H127 C150 0.921 1_545 S
O128 Tb84 2.465 . S
O128 C148 1.264 . S
O129 Tb84 2.387 . S
O129 C140 1.264 . S
O130 Tb95 2.349 1_455 S
O130 C140 1.243 . S
O131 Tb84 2.428 . S
O131 C148 1.256 . S
O132 Tb84 2.308 . S
O132 C147 1.266 . S
O133 Tb95 2.393 1_455 S
O133 C147 1.248 . S
O134 Tb95 2.465 . S
O134 C159 1.264 . S
O135 Tb95 2.387 . S
O135 C151 1.264 . S
O136 Tb84 2.349 . S
O136 C151 1.243 1_455 S
O137 Tb95 2.428 . S
O137 C159 1.256 . S
O138 Tb95 2.308 . S
O138 C158 1.266 . S
O139 Tb84 2.393 1_655 S
O139 C158 1.248 . S
C140 O129 1.264 . S
C140 O130 1.243 . S
C141 C144 1.399 . S
C141 C146 1.383 . S
C141 C148 1.496 . S
C142 C143 1.399 . S
C142 C146 1.389 . S
C143 C142 1.399 . S
C143 C145 1.380 . S
C143 H160 0.929 . S
C144 C141 1.399 . S
C144 C145 1.392 . S
C144 H161 0.929 . S
C145 C143 1.380 . S
C145 C144 1.392 . S
C145 H162 0.929 . S
C146 C141 1.383 . S
C146 C142 1.389 . S
C146 H163 0.931 . S
C147 O132 1.266 . S
C147 O133 1.248 . S
C148 Tb84 2.802 . S
C148 O128 1.264 . S
C148 O131 1.256 . S
C148 C141 1.496 . S
C149 C116 1.448 1_545 S
C149 H126 0.930 . S
C149 C150 1.328 1_545 S
C150 C121 1.427 . S
C150 H127 0.921 1_565 S
C150 C149 1.328 1_565 S
C151 O135 1.264 . S
C151 O136 1.243 1_655 S
C152 C155 1.399 . S
C152 C156 1.383 . S
C152 C159 1.496 . S
C153 C154 1.399 . S
C153 C156 1.389 . S
C154 C153 1.399 . S
C154 C157 1.380 . S
C154 H164 0.929 . S
C155 C152 1.399 . S
C155 C157 1.392 . S
C155 H165 0.929 . S
C156 C152 1.383 . S
C156 C153 1.389 . S
C156 H166 0.931 . S
C157 C154 1.380 . S
C157 C155 1.392 . S
C157 H167 0.929 . S
C158 O138 1.266 . S
C158 O139 1.248 . S
C159 Tb95 2.802 . S
C159 O134 1.264 . S
C159 O137 1.256 . S
C159 C152 1.496 . S
H160 C143 0.929 . S
H161 C144 0.929 . S
H162 C145 0.929 . S
H163 C146 0.931 . S
H164 C154 0.929 . S
H165 C155 0.929 . S
H166 C156 0.931 . S
H167 C157 0.929 . S
Tb168 N197 2.617 . S
Tb168 N203 2.572 . S
Tb168 O212 2.465 . S
Tb168 O213 2.387 . S
Tb168 O215 2.428 . S
Tb168 O216 2.308 . S
Tb168 O220 2.349 . S
Tb168 O223 2.393 1_556 S
Tb168 C232 2.802 . S
C169 N170 1.379 . S
C169 C172 1.416 . S
C169 C176 1.424 . S
N170 C169 1.379 . S
N170 C173 1.334 . S
N170 Tb179 2.617 . S
C171 C173 1.390 . S
C171 C174 1.339 . S
C171 H191 0.930 1_554 S
C172 C169 1.416 . S
C172 C174 1.416 . S
C172 C178 1.448 . S
C173 N170 1.334 . S
C173 C171 1.390 . S
C173 H184 0.930 1_554 S
C174 C171 1.339 . S
C174 C172 1.416 . S
C174 H195 0.930 . S
C175 C176 1.413 . S
C175 C177 1.427 . S
C175 C181 1.416 . S
C176 C169 1.424 . S
C176 C175 1.413 . S
C176 N180 1.361 . S
C177 C175 1.427 . S
C177 C178 1.328 . S
C177 H192 0.929 . S
C178 C172 1.448 . S
C178 C177 1.328 . S
C178 H193 0.930 . S
Tb179 N170 2.617 . S
Tb179 N180 2.572 . S
Tb179 O214 2.349 1_554 S
Tb179 O217 2.393 1_554 S
Tb179 O218 2.465 . S
Tb179 O219 2.387 . S
Tb179 O221 2.428 . S
Tb179 O222 2.308 . S
Tb179 C243 2.802 . S
N180 C176 1.361 . S
N180 Tb179 2.572 . S
N180 C182 1.340 . S
C181 C175 1.416 . S
C181 C183 1.332 . S
C181 H189 0.931 . S
C182 N180 1.340 . S
C182 C183 1.407 . S
C182 H188 0.930 . S
C183 C181 1.332 . S
C183 C182 1.407 . S
C183 H185 0.929 . S
H184 C173 0.930 1_556 S
H185 C183 0.929 . S
H186 C201 0.930 . S
H187 C208 0.929 . S
H188 C182 0.930 . S
H189 C181 0.931 . S
H190 C204 0.930 . S
H191 C171 0.930 1_556 S
H192 C177 0.929 . S
H193 C178 0.930 . S
H194 C199 0.930 . S
H195 C174 0.930 . S
H196 C207 0.931 . S
N197 Tb168 2.617 . S
N197 C198 1.379 . S
N197 C201 1.334 . S
C198 N197 1.379 . S
C198 C200 1.416 . S
C198 C206 1.424 . S
C199 H194 0.930 . S
C199 C201 1.390 . S
C199 C202 1.339 . S
C200 C198 1.416 . S
C200 C202 1.416 . S
C200 C233 1.448 . S
C201 H186 0.930 . S
C201 N197 1.334 . S
C201 C199 1.390 . S
C202 C199 1.339 . S
C202 C200 1.416 . S
C202 H209 0.930 . S
N203 Tb168 2.572 . S
N203 C204 1.340 . S
N203 C206 1.361 . S
C204 H190 0.930 . S
C204 N203 1.340 . S
C204 C208 1.407 . S
C205 C206 1.413 . S
C205 C207 1.416 . S
C205 C234 1.427 . S
C206 C198 1.424 . S
C206 N203 1.361 . S
C206 C205 1.413 . S
C207 H196 0.931 . S
C207 C205 1.416 . S
C207 C208 1.332 . S
C208 H187 0.929 . S
C208 C204 1.407 . S
C208 C207 1.332 . S
H209 C202 0.930 . S
H210 C233 0.930 . S
H211 C234 0.929 . S
O212 Tb168 2.465 . S
O212 C232 1.264 . S
O213 Tb168 2.387 . S
O213 C224 1.264 . S
O214 Tb179 2.349 1_556 S
O214 C224 1.243 . S
O215 Tb168 2.428 . S
O215 C232 1.256 . S
O216 Tb168 2.308 . S
O216 C231 1.266 . S
O217 Tb179 2.393 1_556 S
O217 C231 1.248 . S
O218 Tb179 2.465 . S
O218 C243 1.264 . S
O219 Tb179 2.387 . S
O219 C235 1.264 . S
O220 Tb168 2.349 . S
O220 C235 1.243 1_556 S
O221 Tb179 2.428 . S
O221 C243 1.256 . S
O222 Tb179 2.308 . S
O222 C242 1.266 . S
O223 Tb168 2.393 1_554 S
O223 C242 1.248 . S
C224 O213 1.264 . S
C224 O214 1.243 . S
C225 C228 1.399 . S
C225 C230 1.383 . S
C225 C232 1.496 . S
C226 C227 1.399 . S
C226 C230 1.389 . S
C227 C226 1.399 . S
C227 C229 1.380 . S
C227 H244 0.929 . S
C228 C225 1.399 . S
C228 C229 1.392 . S
C228 H245 0.929 . S
C229 C227 1.380 . S
C229 C228 1.392 . S
C229 H246 0.929 . S
C230 C225 1.383 . S
C230 C226 1.389 . S
C230 H247 0.931 . S
C231 O216 1.266 . S
C231 O217 1.248 . S
C232 Tb168 2.802 . S
C232 O212 1.264 . S
C232 O215 1.256 . S
C232 C225 1.496 . S
C233 C200 1.448 . S
C233 H210 0.930 . S
C233 C234 1.328 . S
C234 C205 1.427 . S
C234 H211 0.929 . S
C234 C233 1.328 . S
C235 O219 1.264 . S
C235 O220 1.243 1_554 S
C236 C239 1.399 . S
C236 C240 1.383 . S
C236 C243 1.496 . S
C237 C238 1.399 . S
C237 C240 1.389 . S
C238 C237 1.399 . S
C238 C241 1.380 . S
C238 H248 0.929 . S
C239 C236 1.399 . S
C239 C241 1.392 . S
C239 H249 0.929 . S
C240 C236 1.383 . S
C240 C237 1.389 . S
C240 H250 0.931 . S
C241 C238 1.380 . S
C241 C239 1.392 . S
C241 H251 0.929 . S
C242 O222 1.266 . S
C242 O223 1.248 . S
C243 Tb179 2.802 . S
C243 O218 1.264 . S
C243 O221 1.256 . S
C243 C236 1.496 . S
H244 C227 0.929 . S
H245 C228 0.929 . S
H246 C229 0.929 . S
H247 C230 0.931 . S
H248 C238 0.929 . S
H249 C239 0.929 . S
H250 C240 0.931 . S
H251 C241 0.929 . S
Tb252 N281 2.617 . S
Tb252 N287 2.572 . S
Tb252 O296 2.465 . S
Tb252 O297 2.387 . S
Tb252 O299 2.428 . S
Tb252 O300 2.308 . S
Tb252 O304 2.349 . S
Tb252 O307 2.393 . S
Tb252 C316 2.802 . S
C253 N254 1.379 . S
C253 C256 1.416 . S
C253 C260 1.424 . S
N254 C253 1.379 . S
N254 C257 1.334 . S
N254 Tb263 2.617 . S
C255 C257 1.390 . S
C255 C258 1.339 . S
C255 H275 0.930 . S
C256 C253 1.416 . S
C256 C258 1.416 . S
C256 C262 1.448 . S
C257 N254 1.334 . S
C257 C255 1.390 . S
C257 H268 0.930 . S
C258 C255 1.339 . S
C258 C256 1.416 . S
C258 H279 0.930 . S
C259 C260 1.413 . S
C259 C261 1.427 . S
C259 C265 1.416 . S
C260 C253 1.424 . S
C260 C259 1.413 . S
C260 N264 1.361 . S
C261 C259 1.427 . S
C261 C262 1.328 . S
C261 H276 0.929 . S
C262 C256 1.448 . S
C262 C261 1.328 . S
C262 H277 0.930 . S
Tb263 N254 2.617 . S
Tb263 N264 2.572 . S
Tb263 O298 2.349 . S
Tb263 O301 2.393 . S
Tb263 O302 2.465 . S
Tb263 O303 2.387 . S
Tb263 O305 2.428 . S
Tb263 O306 2.308 . S
Tb263 C327 2.802 . S
N264 C260 1.361 . S
N264 Tb263 2.572 . S
N264 C266 1.340 . S
C265 C259 1.416 . S
C265 C267 1.332 . S
C265 H273 0.931 . S
C266 N264 1.340 . S
C266 C267 1.407 . S
C266 H272 0.930 . S
C267 C265 1.332 . S
C267 C266 1.407 . S
C267 H269 0.929 . S
H268 C257 0.930 . S
H269 C267 0.929 . S
H270 C285 0.930 . S
H271 C292 0.929 . S
H272 C266 0.930 . S
H273 C265 0.931 . S
H274 C288 0.930 . S
H275 C255 0.930 . S
H276 C261 0.929 . S
H277 C262 0.930 . S
H278 C283 0.930 1_565 S
H279 C258 0.930 . S
H280 C291 0.931 . S
N281 Tb252 2.617 . S
N281 C282 1.379 . S
N281 C285 1.334 . S
C282 N281 1.379 . S
C282 C284 1.416 . S
C282 C290 1.424 . S
C283 H278 0.930 1_545 S
C283 C285 1.390 . S
C283 C286 1.339 1_545 S
C284 C282 1.416 . S
C284 C286 1.416 1_545 S
C284 C317 1.448 1_545 S
C285 H270 0.930 . S
C285 N281 1.334 . S
C285 C283 1.390 . S
C286 C283 1.339 1_565 S
C286 C284 1.416 1_565 S
C286 H293 0.930 . S
N287 Tb252 2.572 . S
N287 C288 1.340 . S
N287 C290 1.361 . S
C288 H274 0.930 . S
C288 N287 1.340 . S
C288 C292 1.407 . S
C289 C290 1.413 . S
C289 C291 1.416 . S
C289 C318 1.427 . S
C290 C282 1.424 . S
C290 N287 1.361 . S
C290 C289 1.413 . S
C291 H280 0.931 . S
C291 C289 1.416 . S
C291 C292 1.332 . S
C292 H271 0.929 . S
C292 C288 1.407 . S
C292 C291 1.332 . S
H293 C286 0.930 . S
H294 C317 0.930 . S
H295 C318 0.937 . S
O296 Tb252 2.465 . S
O296 C316 1.264 . S
O297 Tb252 2.387 . S
O297 C308 1.264 . S
O298 Tb263 2.349 . S
O298 C308 1.243 . S
O299 Tb252 2.428 . S
O299 C316 1.256 . S
O300 Tb252 2.308 . S
O300 C315 1.266 . S
O301 Tb263 2.393 . S
O301 C315 1.248 . S
O302 Tb263 2.465 . S
O302 C327 1.264 . S
O303 Tb263 2.387 . S
O303 C319 1.264 . S
O304 Tb252 2.349 . S
O304 C319 1.243 . S
O305 Tb263 2.428 . S
O305 C327 1.256 . S
O306 Tb263 2.308 . S
O306 C326 1.266 . S
O307 Tb252 2.393 . S
O307 C326 1.248 . S
C308 O297 1.264 . S
C308 O298 1.243 . S
C309 C312 1.399 . S
C309 C314 1.383 . S
C309 C316 1.496 . S
C310 C311 1.399 . S
C310 C314 1.389 . S
C311 C310 1.399 . S
C311 C313 1.380 . S
C311 H328 0.929 . S
C312 C309 1.399 . S
C312 C313 1.392 . S
C312 H329 0.929 . S
C313 C311 1.380 . S
C313 C312 1.392 . S
C313 H330 0.929 . S
C314 C309 1.383 . S
C314 C310 1.389 . S
C314 H331 0.931 . S
C315 O300 1.266 . S
C315 O301 1.248 . S
C316 Tb252 2.802 . S
C316 O296 1.264 . S
C316 O299 1.256 . S
C316 C309 1.496 . S
C317 C284 1.448 1_565 S
C317 H294 0.930 . S
C317 C318 1.328 1_565 S
C318 C289 1.427 . S
C318 H295 0.937 . S
C318 C317 1.328 1_545 S
C319 O303 1.264 . S
C319 O304 1.243 . S
C320 C323 1.399 . S
C320 C324 1.383 . S
C320 C327 1.496 . S
C321 C322 1.399 . S
C321 C324 1.389 . S
C322 C321 1.399 . S
C322 C325 1.380 . S
C322 H332 0.929 . S
C323 C320 1.399 . S
C323 C325 1.392 . S
C323 H333 0.929 . S
C324 C320 1.383 . S
C324 C321 1.389 . S
C324 H334 0.931 . S
C325 C322 1.380 . S
C325 C323 1.392 . S
C325 H335 0.929 . S
C326 O306 1.266 . S
C326 O307 1.248 . S
C327 Tb263 2.802 . S
C327 O302 1.264 . S
C327 O305 1.256 . S
C327 C320 1.496 . S
H328 C311 0.929 . S
H329 C312 0.929 . S
H330 C313 0.929 . S
H331 C314 0.931 . S
H332 C322 0.929 . S
H333 C323 0.929 . S
H334 C324 0.931 . S
H335 C325 0.929 . S
Tb336 N365 2.617 . S
Tb336 N371 2.572 . S
Tb336 O380 2.465 . S
Tb336 O381 2.387 . S
Tb336 O383 2.428 . S
Tb336 O384 2.308 . S
Tb336 O388 2.349 . S
Tb336 O391 2.393 . S
Tb336 C400 2.802 . S
C337 N338 1.379 . S
C337 C340 1.416 . S
C337 C344 1.424 . S
N338 C337 1.379 . S
N338 C341 1.334 . S
N338 Tb347 2.617 . S
C339 C341 1.390 . S
C339 C342 1.339 . S
C339 H359 0.930 . S
C340 C337 1.416 . S
C340 C342 1.416 . S
C340 C346 1.448 . S
C341 N338 1.334 . S
C341 C339 1.390 . S
C341 H352 0.930 . S
C342 C339 1.339 . S
C342 C340 1.416 . S
C342 H363 0.930 . S
C343 C344 1.413 . S
C343 C345 1.427 . S
C343 C349 1.416 . S
C344 C337 1.424 . S
C344 C343 1.413 . S
C344 N348 1.361 . S
C345 C343 1.427 . S
C345 C346 1.328 . S
C345 H360 0.929 . S
C346 C340 1.448 . S
C346 C345 1.328 . S
C346 H361 0.930 . S
Tb347 N338 2.617 . S
Tb347 N348 2.572 . S
Tb347 O382 2.349 . S
Tb347 O385 2.393 . S
Tb347 O386 2.465 . S
Tb347 O387 2.387 . S
Tb347 O389 2.428 . S
Tb347 O390 2.308 . S
Tb347 C411 2.802 . S
N348 C344 1.361 . S
N348 Tb347 2.572 . S
N348 C350 1.340 . S
C349 C343 1.416 . S
C349 C351 1.332 . S
C349 H357 0.931 . S
C350 N348 1.340 . S
C350 C351 1.407 . S
C350 H356 0.930 . S
C351 C349 1.332 . S
C351 C350 1.407 . S
C351 H353 0.929 . S
H352 C341 0.930 . S
H353 C351 0.929 . S
H354 C369 0.930 . S
H355 C376 0.929 . S
H356 C350 0.930 . S
H357 C349 0.931 . S
H358 C372 0.930 . S
H359 C339 0.930 . S
H360 C345 0.929 . S
H361 C346 0.930 . S
H362 C367 0.930 . S
H363 C342 0.930 . S
H364 C375 0.931 . S
N365 Tb336 2.617 . S
N365 C366 1.379 . S
N365 C369 1.334 . S
C366 N365 1.379 . S
C366 C368 1.416 . S
C366 C374 1.424 . S
C367 H362 0.930 . S
C367 C369 1.390 . S
C367 C370 1.339 . S
C368 C366 1.416 . S
C368 C370 1.416 . S
C368 C401 1.448 . S
C369 H354 0.930 . S
C369 N365 1.334 . S
C369 C367 1.390 . S
C370 C367 1.339 . S
C370 C368 1.416 . S
C370 H377 0.930 . S
N371 Tb336 2.572 . S
N371 C372 1.340 . S
N371 C374 1.361 . S
C372 H358 0.930 . S
C372 N371 1.340 . S
C372 C376 1.407 . S
C373 C374 1.413 . S
C373 C375 1.416 . S
C373 C402 1.427 . S
C374 C366 1.424 . S
C374 N371 1.361 . S
C374 C373 1.413 . S
C375 H364 0.931 . S
C375 C373 1.416 . S
C375 C376 1.332 . S
C376 H355 0.929 . S
C376 C372 1.407 . S
C376 C375 1.332 . S
H377 C370 0.930 . S
H378 C401 0.930 . S
H379 C402 0.929 . S
O380 Tb336 2.465 . S
O380 C400 1.264 . S
O381 Tb336 2.387 . S
O381 C392 1.264 . S
O382 Tb347 2.349 . S
O382 C392 1.243 . S
O383 Tb336 2.428 . S
O383 C400 1.256 . S
O384 Tb336 2.308 . S
O384 C399 1.266 . S
O385 Tb347 2.393 . S
O385 C399 1.248 . S
O386 Tb347 2.465 . S
O386 C411 1.264 . S
O387 Tb347 2.387 . S
O387 C403 1.264 . S
O388 Tb336 2.349 . S
O388 C403 1.243 . S
O389 Tb347 2.428 . S
O389 C411 1.256 . S
O390 Tb347 2.308 . S
O390 C410 1.266 . S
O391 Tb336 2.393 . S
O391 C410 1.248 . S
C392 O381 1.264 . S
C392 O382 1.243 . S
C393 C396 1.399 . S
C393 C398 1.383 . S
C393 C400 1.496 . S
C394 C395 1.399 . S
C394 C398 1.389 . S
C395 C394 1.399 . S
C395 C397 1.380 . S
C395 H412 0.929 . S
C396 C393 1.399 . S
C396 C397 1.392 . S
C396 H413 0.929 . S
C397 C395 1.380 . S
C397 C396 1.392 . S
C397 H414 0.929 . S
C398 C393 1.383 . S
C398 C394 1.389 . S
C398 H415 0.931 . S
C399 O384 1.266 . S
C399 O385 1.248 . S
C400 Tb336 2.802 . S
C400 O380 1.264 . S
C400 O383 1.256 . S
C400 C393 1.496 . S
C401 C368 1.448 . S
C401 H378 0.930 . S
C401 C402 1.328 . S
C402 C373 1.427 . S
C402 H379 0.929 . S
C402 C401 1.328 . S
C403 O387 1.264 . S
C403 O388 1.243 . S
C404 C407 1.399 . S
C404 C408 1.383 . S
C404 C411 1.496 . S
C405 C406 1.399 . S
C405 C408 1.389 . S
C406 C405 1.399 . S
C406 C409 1.380 . S
C406 H416 0.929 . S
C407 C404 1.399 . S
C407 C409 1.392 . S
C407 H417 0.929 . S
C408 C404 1.383 . S
C408 C405 1.389 . S
C408 H418 0.931 . S
C409 C406 1.380 . S
C409 C407 1.392 . S
C409 H419 0.929 . S
C410 O390 1.266 . S
C410 O391 1.248 . S
C411 Tb347 2.802 . S
C411 O386 1.264 . S
C411 O389 1.256 . S
C411 C404 1.496 . S
H412 C395 0.929 . S
H413 C396 0.929 . S
H414 C397 0.929 . S
H415 C398 0.931 . S
H416 C406 0.929 . S
H417 C407 0.929 . S
H418 C408 0.931 . S
H419 C409 0.929 . S
Tb420 N449 2.617 . S
Tb420 N455 2.572 . S
Tb420 O464 2.465 . S
Tb420 O465 2.387 1_455 S
Tb420 O467 2.428 . S
Tb420 O468 2.308 1_455 S
Tb420 O472 2.349 . S
Tb420 O475 2.393 . S
Tb420 C484 2.802 . S
C421 N422 1.379 . S
C421 C424 1.416 . S
C421 C428 1.424 . S
N422 C421 1.379 . S
N422 C425 1.334 . S
N422 Tb431 2.617 . S
C423 C425 1.390 . S
C423 C426 1.339 . S
C423 H443 0.930 . S
C424 C421 1.416 . S
C424 C426 1.416 . S
C424 C430 1.448 . S
C425 N422 1.334 . S
C425 C423 1.390 . S
C425 H436 0.930 . S
C426 C423 1.339 . S
C426 C424 1.416 . S
C426 H447 0.930 . S
C427 C428 1.413 . S
C427 C429 1.427 . S
C427 C433 1.416 . S
C428 C421 1.424 . S
C428 C427 1.413 . S
C428 N432 1.361 . S
C429 C427 1.427 . S
C429 C430 1.328 . S
C429 H444 0.929 . S
C430 C424 1.448 . S
C430 C429 1.328 . S
C430 H445 0.930 . S
Tb431 N422 2.617 . S
Tb431 N432 2.572 . S
Tb431 O466 2.349 . S
Tb431 O469 2.393 . S
Tb431 O470 2.465 . S
Tb431 O471 2.387 . S
Tb431 O473 2.428 . S
Tb431 O474 2.308 . S
Tb431 C495 2.802 . S
N432 C428 1.361 . S
N432 Tb431 2.572 . S
N432 C434 1.340 . S
C433 C427 1.416 . S
C433 C435 1.332 . S
C433 H441 0.931 1_655 S
C434 N432 1.340 . S
C434 C435 1.407 . S
C434 H440 0.930 . S
C435 C433 1.332 . S
C435 C434 1.407 . S
C435 H437 0.929 1_655 S
H436 C425 0.930 . S
H437 C435 0.929 1_455 S
H438 C453 0.930 . S
H439 C460 0.929 . S
H440 C434 0.930 . S
H441 C433 0.931 1_455 S
H442 C456 0.930 . S
H443 C423 0.930 . S
H444 C429 0.929 . S
H445 C430 0.930 . S
H446 C451 0.930 . S
H447 C426 0.930 . S
H448 C459 0.931 . S
N449 Tb420 2.617 . S
N449 C450 1.379 . S
N449 C453 1.334 . S
C450 N449 1.379 . S
C450 C452 1.416 . S
C450 C458 1.424 . S
C451 H446 0.930 . S
C451 C453 1.390 . S
C451 C454 1.339 . S
C452 C450 1.416 . S
C452 C454 1.416 . S
C452 C485 1.448 . S
C453 H438 0.930 . S
C453 N449 1.334 . S
C453 C451 1.390 . S
C454 C451 1.339 . S
C454 C452 1.416 . S
C454 H461 0.930 . S
N455 Tb420 2.572 . S
N455 C456 1.340 1_455 S
N455 C458 1.361 . S
C456 H442 0.930 . S
C456 N455 1.340 1_655 S
C456 C460 1.407 . S
C457 C458 1.413 1_655 S
C457 C459 1.416 . S
C457 C486 1.427 . S
C458 C450 1.424 . S
C458 N455 1.361 . S
C458 C457 1.413 1_455 S
C459 H448 0.931 . S
C459 C457 1.416 . S
C459 C460 1.332 . S
C460 H439 0.929 . S
C460 C456 1.407 . S
C460 C459 1.332 . S
H461 C454 0.930 . S
H462 C485 0.930 . S
H463 C486 0.929 . S
O464 Tb420 2.465 . S
O464 C484 1.264 . S
O465 Tb420 2.387 1_655 S
O465 C476 1.264 . S
O466 Tb431 2.349 . S
O466 C476 1.243 . S
O467 Tb420 2.428 . S
O467 C484 1.256 . S
O468 Tb420 2.308 1_655 S
O468 C483 1.266 . S
O469 Tb431 2.393 . S
O469 C483 1.248 . S
O470 Tb431 2.465 . S
O470 C495 1.264 . S
O471 Tb431 2.387 . S
O471 C487 1.263 1_655 S
O472 Tb420 2.349 . S
O472 C487 1.243 . S
O473 Tb431 2.428 . S
O473 C495 1.256 . S
O474 Tb431 2.308 . S
O474 C494 1.266 1_655 S
O475 Tb420 2.393 . S
O475 C494 1.248 . S
C476 O465 1.264 . S
C476 O466 1.243 . S
C477 C480 1.399 . S
C477 C482 1.383 . S
C477 C484 1.496 . S
C478 C479 1.399 . S
C478 C482 1.389 . S
C479 C478 1.399 . S
C479 C481 1.380 . S
C479 H496 0.929 . S
C480 C477 1.399 . S
C480 C481 1.392 . S
C480 H497 0.929 . S
C481 C479 1.380 . S
C481 C480 1.392 . S
C481 H498 0.929 . S
C482 C477 1.383 . S
C482 C478 1.389 . S
C482 H499 0.931 . S
C483 O468 1.266 . S
C483 O469 1.248 . S
C484 Tb420 2.802 . S
C484 O464 1.264 . S
C484 O467 1.256 . S
C484 C477 1.496 . S
C485 C452 1.448 . S
C485 H462 0.930 . S
C485 C486 1.328 1_455 S
C486 C457 1.427 . S
C486 H463 0.929 . S
C486 C485 1.328 1_655 S
C487 O471 1.263 1_455 S
C487 O472 1.243 . S
C488 C491 1.399 . S
C488 C492 1.383 . S
C488 C495 1.496 . S
C489 C490 1.399 . S
C489 C492 1.389 . S
C490 C489 1.399 . S
C490 C493 1.380 . S
C490 H500 0.929 . S
C491 C488 1.399 . S
C491 C493 1.392 . S
C491 H501 0.929 . S
C492 C488 1.383 . S
C492 C489 1.389 . S
C492 H502 0.931 . S
C493 C490 1.380 . S
C493 C491 1.392 . S
C493 H503 0.929 . S
C494 O474 1.266 1_455 S
C494 O475 1.248 . S
C495 Tb431 2.802 . S
C495 O470 1.264 . S
C495 O473 1.256 . S
C495 C488 1.496 . S
H496 C479 0.929 . S
H497 C480 0.929 . S
H498 C481 0.929 . S
H499 C482 0.931 . S
H500 C490 0.929 . S
H501 C491 0.929 . S
H502 C492 0.931 . S
H503 C493 0.929 . S
Tb504 N533 2.617 . S
Tb504 N539 2.572 . S
Tb504 O548 2.465 . S
Tb504 O549 2.387 1_556 S
Tb504 O551 2.428 . S
Tb504 O552 2.308 1_556 S
Tb504 O556 2.349 . S
Tb504 O559 2.393 . S
Tb504 C568 2.802 . S
C505 N506 1.379 . S
C505 C508 1.416 . S
C505 C512 1.424 . S
N506 C505 1.379 . S
N506 C509 1.334 . S
N506 Tb515 2.617 . S
C507 C509 1.390 . S
C507 C510 1.339 1_655 S
C507 H527 0.930 1_655 S
C508 C505 1.416 . S
C508 C510 1.416 1_655 S
C508 C514 1.448 1_655 S
C509 N506 1.334 . S
C509 C507 1.390 . S
C509 H520 0.930 . S
C510 C507 1.339 1_455 S
C510 C508 1.416 1_455 S
C510 H531 0.930 . S
C511 C512 1.413 . S
C511 C513 1.427 . S
C511 C517 1.416 . S
C512 C505 1.424 . S
C512 C511 1.413 . S
C512 N516 1.361 . S
C513 C511 1.427 . S
C513 C514 1.328 1_655 S
C513 H528 0.929 . S
C514 C508 1.448 1_455 S
C514 C513 1.328 1_455 S
C514 H529 0.930 . S
Tb515 N506 2.617 . S
Tb515 N516 2.572 . S
Tb515 O550 2.349 . S
Tb515 O553 2.393 . S
Tb515 O554 2.465 . S
Tb515 O555 2.387 1_554 S
Tb515 O557 2.428 . S
Tb515 O558 2.308 . S
Tb515 C579 2.802 . S
N516 C512 1.361 . S
N516 Tb515 2.572 . S
N516 C518 1.340 . S
C517 C511 1.416 . S
C517 C519 1.333 . S
C517 H525 0.931 1_554 S
C518 N516 1.340 . S
C518 C519 1.412 . S
C518 H524 0.930 . S
C519 C517 1.333 . S
C519 C518 1.412 . S
C519 H521 0.925 1_554 S
H520 C509 0.930 . S
H521 C519 0.925 1_556 S
H522 C537 0.930 . S
H523 C544 0.929 . S
H524 C518 0.930 . S
H525 C517 0.931 1_556 S
H526 C540 0.930 . S
H527 C507 0.930 1_455 S
H528 C513 0.929 . S
H529 C514 0.930 . S
H530 C535 0.930 . S
H531 C510 0.930 . S
H532 C543 0.931 . S
N533 Tb504 2.617 . S
N533 C534 1.379 . S
N533 C537 1.334 . S
C534 N533 1.379 . S
C534 C536 1.416 . S
C534 C542 1.424 . S
C535 H530 0.930 . S
C535 C537 1.390 . S
C535 C538 1.339 . S
C536 C534 1.416 . S
C536 C538 1.416 . S
C536 C569 1.448 . S
C537 H522 0.930 . S
C537 N533 1.334 . S
C537 C535 1.390 . S
C538 C535 1.339 . S
C538 C536 1.416 . S
C538 H545 0.930 . S
N539 Tb504 2.572 . S
N539 C540 1.340 1_556 S
N539 C542 1.361 . S
C540 H526 0.930 . S
C540 N539 1.340 1_554 S
C540 C544 1.407 . S
C541 C542 1.413 1_554 S
C541 C543 1.416 . S
C541 C570 1.427 . S
C542 C534 1.424 . S
C542 N539 1.361 . S
C542 C541 1.413 1_556 S
C543 H532 0.931 . S
C543 C541 1.416 . S
C543 C544 1.332 . S
C544 H523 0.929 . S
C544 C540 1.407 . S
C544 C543 1.332 . S
H545 C538 0.930 . S
H546 C569 0.930 . S
H547 C570 0.929 . S
O548 Tb504 2.465 . S
O548 C568 1.264 . S
O549 Tb504 2.387 1_554 S
O549 C560 1.264 . S
O550 Tb515 2.349 . S
O550 C560 1.243 . S
O551 Tb504 2.428 . S
O551 C568 1.256 . S
O552 Tb504 2.308 1_554 S
O552 C567 1.266 . S
O553 Tb515 2.393 . S
O553 C567 1.248 . S
O554 Tb515 2.465 . S
O554 C579 1.264 . S
O555 Tb515 2.387 1_556 S
O555 C571 1.264 . S
O556 Tb504 2.349 . S
O556 C571 1.243 . S
O557 Tb515 2.428 . S
O557 C579 1.256 . S
O558 Tb515 2.308 . S
O558 C578 1.266 1_554 S
O559 Tb504 2.393 . S
O559 C578 1.248 . S
C560 O549 1.264 . S
C560 O550 1.243 . S
C561 C564 1.399 . S
C561 C566 1.383 . S
C561 C568 1.496 . S
C562 C563 1.399 . S
C562 C566 1.389 . S
C563 C562 1.399 . S
C563 C565 1.380 . S
C563 H580 0.929 . S
C564 C561 1.399 . S
C564 C565 1.392 . S
C564 H581 0.929 . S
C565 C563 1.380 . S
C565 C564 1.392 . S
C565 H582 0.929 . S
C566 C561 1.383 . S
C566 C562 1.389 . S
C566 H583 0.931 . S
C567 O552 1.266 . S
C567 O553 1.248 . S
C568 Tb504 2.802 . S
C568 O548 1.264 . S
C568 O551 1.256 . S
C568 C561 1.496 . S
C569 C536 1.448 . S
C569 H546 0.930 . S
C569 C570 1.328 1_556 S
C570 C541 1.427 . S
C570 H547 0.929 . S
C570 C569 1.328 1_554 S
C571 O555 1.264 . S
C571 O556 1.243 . S
C572 C575 1.399 . S
C572 C576 1.383 . S
C572 C579 1.496 . S
C573 C574 1.399 . S
C573 C576 1.389 . S
C574 C573 1.399 . S
C574 C577 1.380 . S
C574 H584 0.929 . S
C575 C572 1.399 . S
C575 C577 1.392 . S
C575 H585 0.929 . S
C576 C572 1.383 . S
C576 C573 1.389 . S
C576 H586 0.931 . S
C577 C574 1.380 . S
C577 C575 1.392 . S
C577 H587 0.929 . S
C578 O558 1.266 1_556 S
C578 O559 1.248 . S
C579 Tb515 2.802 . S
C579 O554 1.264 . S
C579 O557 1.256 . S
C579 C572 1.496 . S
H580 C563 0.929 . S
H581 C564 0.929 . S
H582 C565 0.929 . S
H583 C566 0.931 . S
H584 C574 0.929 . S
H585 C575 0.929 . S
H586 C576 0.931 . S
H587 C577 0.929 . S
Tb588 N617 2.617 . S
Tb588 N623 2.572 . S
Tb588 O632 2.465 . S
Tb588 O633 2.387 . S
Tb588 O635 2.428 . S
Tb588 O636 2.308 . S
Tb588 O640 2.349 . S
Tb588 O643 2.393 . S
Tb588 C652 2.802 . S
C589 N590 1.379 . S
C589 C592 1.416 . S
C589 C596 1.424 . S
N590 C589 1.379 . S
N590 C593 1.334 . S
N590 Tb599 2.617 . S
C591 C593 1.390 . S
C591 C594 1.339 . S
C591 H611 0.930 . S
C592 C589 1.416 . S
C592 C594 1.416 . S
C592 C598 1.448 . S
C593 N590 1.334 . S
C593 C591 1.390 . S
C593 H604 0.930 . S
C594 C591 1.339 . S
C594 C592 1.416 . S
C594 H615 0.930 . S
C595 C596 1.413 . S
C595 C597 1.427 . S
C595 C601 1.416 . S
C596 C589 1.424 . S
C596 C595 1.413 . S
C596 N600 1.361 . S
C597 C595 1.427 . S
C597 C598 1.328 . S
C597 H612 0.929 . S
C598 C592 1.448 . S
C598 C597 1.328 . S
C598 H613 0.930 . S
Tb599 N590 2.617 . S
Tb599 N600 2.572 . S
Tb599 O634 2.349 . S
Tb599 O637 2.393 . S
Tb599 O638 2.465 . S
Tb599 O639 2.387 . S
Tb599 O641 2.428 . S
Tb599 O642 2.308 . S
Tb599 C663 2.802 . S
N600 C596 1.361 . S
N600 Tb599 2.572 . S
N600 C602 1.340 . S
C601 C595 1.416 . S
C601 C603 1.332 . S
C601 H609 0.931 . S
C602 N600 1.340 . S
C602 C603 1.407 . S
C602 H608 0.930 . S
C603 C601 1.332 . S
C603 C602 1.407 . S
C603 H605 0.929 . S
H604 C593 0.930 . S
H605 C603 0.929 . S
H606 C621 0.930 . S
H607 C628 0.929 . S
H608 C602 0.930 . S
H609 C601 0.931 . S
H610 C624 0.930 . S
H611 C591 0.930 . S
H612 C597 0.929 . S
H613 C598 0.930 . S
H614 C619 0.930 . S
H615 C594 0.930 . S
H616 C627 0.931 . S
N617 Tb588 2.617 . S
N617 C618 1.379 . S
N617 C621 1.334 . S
C618 N617 1.379 . S
C618 C620 1.416 . S
C618 C626 1.424 . S
C619 H614 0.930 . S
C619 C621 1.390 . S
C619 C622 1.339 . S
C620 C618 1.416 . S
C620 C622 1.416 . S
C620 C653 1.448 . S
C621 H606 0.930 . S
C621 N617 1.334 . S
C621 C619 1.390 . S
C622 C619 1.339 . S
C622 C620 1.416 . S
C622 H629 0.930 . S
N623 Tb588 2.572 . S
N623 C624 1.340 . S
N623 C626 1.361 . S
C624 H610 0.930 . S
C624 N623 1.340 . S
C624 C628 1.407 . S
C625 C626 1.413 . S
C625 C627 1.416 . S
C625 C654 1.427 . S
C626 C618 1.424 . S
C626 N623 1.361 . S
C626 C625 1.413 . S
C627 H616 0.931 . S
C627 C625 1.416 . S
C627 C628 1.332 . S
C628 H607 0.929 . S
C628 C624 1.407 . S
C628 C627 1.332 . S
H629 C622 0.930 . S
H630 C653 0.930 . S
H631 C654 0.929 . S
O632 Tb588 2.465 . S
O632 C652 1.264 . S
O633 Tb588 2.387 . S
O633 C644 1.264 . S
O634 Tb599 2.349 . S
O634 C644 1.243 . S
O635 Tb588 2.428 . S
O635 C652 1.256 . S
O636 Tb588 2.308 . S
O636 C651 1.266 . S
O637 Tb599 2.393 . S
O637 C651 1.248 . S
O638 Tb599 2.465 . S
O638 C663 1.264 . S
O639 Tb599 2.387 . S
O639 C655 1.264 . S
O640 Tb588 2.349 . S
O640 C655 1.243 . S
O641 Tb599 2.428 . S
O641 C663 1.256 . S
O642 Tb599 2.308 . S
O642 C662 1.266 . S
O643 Tb588 2.393 . S
O643 C662 1.248 . S
C644 O633 1.264 . S
C644 O634 1.243 . S
C645 C648 1.399 . S
C645 C650 1.383 . S
C645 C652 1.496 . S
C646 C647 1.399 . S
C646 C650 1.389 . S
C647 C646 1.399 . S
C647 C649 1.380 . S
C647 H664 0.929 . S
C648 C645 1.399 . S
C648 C649 1.392 . S
C648 H665 0.929 . S
C649 C647 1.380 . S
C649 C648 1.392 . S
C649 H666 0.929 . S
C650 C645 1.383 . S
C650 C646 1.389 . S
C650 H667 0.931 . S
C651 O636 1.266 . S
C651 O637 1.248 . S
C652 Tb588 2.802 . S
C652 O632 1.264 . S
C652 O635 1.256 . S
C652 C645 1.496 . S
C653 C620 1.448 . S
C653 H630 0.930 . S
C653 C654 1.328 . S
C654 C625 1.427 . S
C654 H631 0.929 . S
C654 C653 1.328 . S
C655 O639 1.264 . S
C655 O640 1.243 . S
C656 C659 1.399 . S
C656 C660 1.383 . S
C656 C663 1.496 . S
C657 C658 1.399 . S
C657 C660 1.389 . S
C658 C657 1.399 . S
C658 C661 1.380 . S
C658 H668 0.929 . S
C659 C656 1.399 . S
C659 C661 1.392 . S
C659 H669 0.929 . S
C660 C656 1.383 . S
C660 C657 1.389 . S
C660 H670 0.931 . S
C661 C658 1.380 . S
C661 C659 1.392 . S
C661 H671 0.929 . S
C662 O642 1.266 . S
C662 O643 1.248 . S
C663 Tb599 2.802 . S
C663 O638 1.264 . S
C663 O641 1.256 . S
C663 C656 1.496 . S
H664 C647 0.929 . S
H665 C648 0.929 . S
H666 C649 0.929 . S
H667 C650 0.931 . S
H668 C658 0.929 . S
H669 C659 0.929 . S
H670 C660 0.931 . S
H671 C661 0.929 . S
Tb672 N701 2.617 . S
Tb672 N707 2.572 . S
Tb672 O716 2.465 . S
Tb672 O717 2.387 . S
Tb672 O719 2.428 . S
Tb672 O720 2.308 . S
Tb672 O724 2.349 . S
Tb672 O727 2.393 . S
Tb672 C736 2.802 . S
C673 N674 1.379 . S
C673 C676 1.416 . S
C673 C680 1.424 . S
N674 C673 1.379 . S
N674 C677 1.334 . S
N674 Tb683 2.617 . S
C675 C677 1.390 . S
C675 C678 1.339 . S
C675 H695 0.930 . S
C676 C673 1.416 . S
C676 C678 1.416 . S
C676 C682 1.448 . S
C677 N674 1.334 . S
C677 C675 1.390 . S
C677 H688 0.930 . S
C678 C675 1.339 . S
C678 C676 1.416 . S
C678 H699 0.930 . S
C679 C680 1.413 . S
C679 C681 1.427 . S
C679 C685 1.416 . S
C680 C673 1.424 . S
C680 C679 1.413 . S
C680 N684 1.361 . S
C681 C679 1.427 . S
C681 C682 1.328 . S
C681 H696 0.929 . S
C682 C676 1.448 . S
C682 C681 1.328 . S
C682 H697 0.930 . S
Tb683 N674 2.617 . S
Tb683 N684 2.572 . S
Tb683 O718 2.349 . S
Tb683 O721 2.393 . S
Tb683 O722 2.465 . S
Tb683 O723 2.387 . S
Tb683 O725 2.428 . S
Tb683 O726 2.308 . S
Tb683 C747 2.802 . S
N684 C680 1.361 . S
N684 Tb683 2.572 . S
N684 C686 1.340 . S
C685 C679 1.416 . S
C685 C687 1.332 . S
C685 H693 0.931 . S
C686 N684 1.340 . S
C686 C687 1.407 . S
C686 H692 0.930 . S
C687 C685 1.332 . S
C687 C686 1.407 . S
C687 H689 0.929 . S
H688 C677 0.930 . S
H689 C687 0.929 . S
H690 C705 0.930 . S
H691 C712 0.929 . S
H692 C686 0.930 . S
H693 C685 0.931 . S
H694 C708 0.930 . S
H695 C675 0.930 . S
H696 C681 0.929 . S
H697 C682 0.930 . S
H698 C703 0.931 . S
H699 C678 0.930 . S
H700 C711 0.931 . S
N701 Tb672 2.617 . S
N701 C702 1.379 . S
N701 C705 1.334 . S
C702 N701 1.379 . S
C702 C704 1.416 . S
C702 C710 1.424 . S
C703 H698 0.931 . S
C703 C705 1.388 1_556 S
C703 C706 1.340 . S
C704 C702 1.416 . S
C704 C706 1.416 1_554 S
C704 C737 1.448 1_554 S
C705 H690 0.930 . S
C705 N701 1.334 . S
C705 C703 1.388 1_554 S
C706 C703 1.340 . S
C706 C704 1.416 1_556 S
C706 H713 0.930 . S
N707 Tb672 2.572 . S
N707 C708 1.340 . S
N707 C710 1.361 . S
C708 H694 0.930 . S
C708 N707 1.340 . S
C708 C712 1.407 . S
C709 C710 1.413 . S
C709 C711 1.416 . S
C709 C738 1.427 . S
C710 C702 1.424 . S
C710 N707 1.361 . S
C710 C709 1.413 . S
C711 H700 0.931 . S
C711 C709 1.416 . S
C711 C712 1.332 . S
C712 H691 0.929 . S
C712 C708 1.407 . S
C712 C711 1.332 . S
H713 C706 0.930 . S
H714 C737 0.930 . S
H715 C738 0.929 1_556 S
O716 Tb672 2.465 . S
O716 C736 1.264 . S
O717 Tb672 2.387 . S
O717 C728 1.264 . S
O718 Tb683 2.349 . S
O718 C728 1.243 . S
O719 Tb672 2.428 . S
O719 C736 1.256 . S
O720 Tb672 2.308 . S
O720 C735 1.266 . S
O721 Tb683 2.393 . S
O721 C735 1.248 . S
O722 Tb683 2.465 . S
O722 C747 1.264 . S
O723 Tb683 2.387 . S
O723 C739 1.264 . S
O724 Tb672 2.349 . S
O724 C739 1.243 . S
O725 Tb683 2.428 . S
O725 C747 1.256 . S
O726 Tb683 2.308 . S
O726 C746 1.266 . S
O727 Tb672 2.393 . S
O727 C746 1.248 . S
C728 O717 1.264 . S
C728 O718 1.243 . S
C729 C732 1.399 . S
C729 C734 1.383 . S
C729 C736 1.496 . S
C730 C731 1.399 . S
C730 C734 1.389 . S
C731 C730 1.399 . S
C731 C733 1.380 . S
C731 H748 0.929 . S
C732 C729 1.399 . S
C732 C733 1.392 . S
C732 H749 0.929 . S
C733 C731 1.380 . S
C733 C732 1.392 . S
C733 H750 0.929 . S
C734 C729 1.383 . S
C734 C730 1.389 . S
C734 H751 0.931 . S
C735 O720 1.266 . S
C735 O721 1.248 . S
C736 Tb672 2.802 . S
C736 O716 1.264 . S
C736 O719 1.256 . S
C736 C729 1.496 . S
C737 C704 1.448 1_556 S
C737 H714 0.930 . S
C737 C738 1.328 1_556 S
C738 C709 1.427 . S
C738 H715 0.929 1_554 S
C738 C737 1.328 1_554 S
C739 O723 1.264 . S
C739 O724 1.243 . S
C740 C743 1.399 . S
C740 C744 1.383 . S
C740 C747 1.496 . S
C741 C742 1.399 . S
C741 C744 1.389 . S
C742 C741 1.399 . S
C742 C745 1.380 . S
C742 H752 0.929 . S
C743 C740 1.399 . S
C743 C745 1.392 . S
C743 H753 0.929 . S
C744 C740 1.383 . S
C744 C741 1.389 . S
C744 H754 0.931 . S
C745 C742 1.380 . S
C745 C743 1.392 . S
C745 H755 0.929 . S
C746 O726 1.266 . S
C746 O727 1.248 . S
C747 Tb683 2.802 . S
C747 O722 1.264 . S
C747 O725 1.256 . S
C747 C740 1.496 . S
H748 C731 0.929 . S
H749 C732 0.929 . S
H750 C733 0.929 . S
H751 C734 0.931 . S
H752 C742 0.929 . S
H753 C743 0.929 . S
H754 C744 0.931 . S
H755 C745 0.929 . S
Tb756 N785 2.617 . S
Tb756 N791 2.572 . S
Tb756 O800 2.465 . S
Tb756 O801 2.387 1_565 S
Tb756 O803 2.428 . S
Tb756 O804 2.308 1_565 S
Tb756 O808 2.349 . S
Tb756 O811 2.393 . S
Tb756 C820 2.802 . S
C757 N758 1.379 . S
C757 C760 1.416 . S
C757 C764 1.424 . S
N758 C757 1.379 . S
N758 C761 1.334 . S
N758 Tb767 2.617 . S
C759 C761 1.390 . S
C759 C762 1.339 1_556 S
C759 H779 0.930 1_556 S
C760 C757 1.416 . S
C760 C762 1.416 1_556 S
C760 C766 1.448 1_556 S
C761 N758 1.334 . S
C761 C759 1.390 . S
C761 H772 0.930 . S
C762 C759 1.339 1_554 S
C762 C760 1.416 1_554 S
C762 H783 0.930 . S
C763 C764 1.413 . S
C763 C765 1.427 . S
C763 C769 1.416 . S
C764 C757 1.424 . S
C764 C763 1.413 . S
C764 N768 1.361 . S
C765 C763 1.427 . S
C765 C766 1.328 1_556 S
C765 H780 0.929 . S
C766 C760 1.448 1_554 S
C766 C765 1.328 1_554 S
C766 H781 0.930 . S
Tb767 N758 2.617 . S
Tb767 N768 2.572 . S
Tb767 O802 2.349 . S
Tb767 O805 2.393 . S
Tb767 O806 2.465 . S
Tb767 O807 2.387 1_545 S
Tb767 O809 2.428 . S
Tb767 O810 2.308 . S
Tb767 C831 2.802 . S
N768 C764 1.361 . S
N768 Tb767 2.572 . S
N768 C770 1.340 . S
C769 C763 1.416 . S
C769 C771 1.332 1_545 S
C769 H777 0.931 1_545 S
C770 N768 1.340 . S
C770 C771 1.408 1_545 S
C770 H776 0.930 . S
C771 C769 1.332 1_565 S
C771 C770 1.408 1_565 S
C771 H773 0.929 . S
H772 C761 0.930 . S
H773 C771 0.929 . S
H774 C789 0.930 . S
H775 C796 0.929 . S
H776 C770 0.930 . S
H777 C769 0.931 1_565 S
H778 C792 0.930 . S
H779 C759 0.930 1_554 S
H780 C765 0.929 . S
H781 C766 0.930 . S
H782 C787 0.930 . S
H783 C762 0.930 . S
H784 C795 0.931 . S
N785 Tb756 2.617 . S
N785 C786 1.379 . S
N785 C789 1.334 . S
C786 N785 1.379 . S
C786 C788 1.416 . S
C786 C794 1.424 . S
C787 H782 0.930 . S
C787 C789 1.390 . S
C787 C790 1.339 . S
C788 C786 1.416 . S
C788 C790 1.416 . S
C788 C821 1.448 . S
C789 H774 0.930 . S
C789 N785 1.334 . S
C789 C787 1.390 . S
C790 C787 1.339 . S
C790 C788 1.416 . S
C790 H797 0.930 . S
N791 Tb756 2.572 . S
N791 C792 1.340 1_565 S
N791 C794 1.361 . S
C792 H778 0.930 . S
C792 N791 1.340 1_545 S
C792 C796 1.407 . S
C793 C794 1.413 1_545 S
C793 C795 1.416 . S
C793 C822 1.427 . S
C794 C786 1.424 . S
C794 N791 1.361 . S
C794 C793 1.413 1_565 S
C795 H784 0.931 . S
C795 C793 1.416 . S
C795 C796 1.332 . S
C796 H775 0.929 . S
C796 C792 1.407 . S
C796 C795 1.332 . S
H797 C790 0.930 . S
H798 C821 0.930 . S
H799 C822 0.929 . S
O800 Tb756 2.465 . S
O800 C820 1.264 . S
O801 Tb756 2.387 1_545 S
O801 C812 1.264 . S
O802 Tb767 2.349 . S
O802 C812 1.243 . S
O803 Tb756 2.428 . S
O803 C820 1.256 . S
O804 Tb756 2.308 1_545 S
O804 C819 1.266 . S
O805 Tb767 2.393 . S
O805 C819 1.248 . S
O806 Tb767 2.465 . S
O806 C831 1.264 . S
O807 Tb767 2.387 1_565 S
O807 C823 1.264 . S
O808 Tb756 2.349 . S
O808 C823 1.243 . S
O809 Tb767 2.428 . S
O809 C831 1.256 . S
O810 Tb767 2.308 . S
O810 C830 1.266 1_545 S
O811 Tb756 2.393 . S
O811 C830 1.248 . S
C812 O801 1.264 . S
C812 O802 1.243 . S
C813 C816 1.399 . S
C813 C818 1.383 . S
C813 C820 1.496 . S
C814 C815 1.399 . S
C814 C818 1.389 . S
C815 C814 1.399 . S
C815 C817 1.380 . S
C815 H832 0.929 . S
C816 C813 1.399 . S
C816 C817 1.392 . S
C816 H833 0.929 . S
C817 C815 1.380 . S
C817 C816 1.392 . S
C817 H834 0.929 . S
C818 C813 1.383 . S
C818 C814 1.389 . S
C818 H835 0.931 . S
C819 O804 1.266 . S
C819 O805 1.248 . S
C820 Tb756 2.802 . S
C820 O800 1.264 . S
C820 O803 1.256 . S
C820 C813 1.496 . S
C821 C788 1.448 . S
C821 H798 0.930 . S
C821 C822 1.328 1_565 S
C822 C793 1.427 . S
C822 H799 0.929 . S
C822 C821 1.328 1_545 S
C823 O807 1.264 . S
C823 O808 1.243 . S
C824 C827 1.399 . S
C824 C828 1.383 . S
C824 C831 1.496 . S
C825 C826 1.399 . S
C825 C828 1.389 . S
C826 C825 1.399 . S
C826 C829 1.380 . S
C826 H836 0.929 . S
C827 C824 1.399 . S
C827 C829 1.392 . S
C827 H837 0.929 . S
C828 C824 1.383 . S
C828 C825 1.389 . S
C828 H838 0.931 . S
C829 C826 1.380 . S
C829 C827 1.392 . S
C829 H839 0.929 . S
C830 O810 1.266 1_565 S
C830 O811 1.248 . S
C831 Tb767 2.802 . S
C831 O806 1.264 . S
C831 O809 1.256 . S
C831 C824 1.496 . S
H832 C815 0.929 . S
H833 C816 0.929 . S
H834 C817 0.929 . S
H835 C818 0.931 . S
H836 C826 0.929 . S
H837 C827 0.929 . S
H838 C828 0.931 . S
H839 C829 0.929 . S
Tb840 N869 2.617 . S
Tb840 N875 2.572 . S
Tb840 O884 2.465 . S
Tb840 O885 2.387 . S
Tb840 O887 2.428 . S
Tb840 O888 2.308 . S
Tb840 O892 2.349 . S
Tb840 O895 2.393 1_565 S
Tb840 C904 2.802 . S
C841 N842 1.379 . S
C841 C844 1.416 . S
C841 C848 1.424 . S
N842 C841 1.379 . S
N842 C845 1.334 . S
N842 Tb851 2.617 . S
C843 C845 1.390 . S
C843 C846 1.339 . S
C843 H863 0.930 1_545 S
C844 C841 1.416 . S
C844 C846 1.416 . S
C844 C850 1.448 . S
C845 N842 1.334 . S
C845 C843 1.390 . S
C845 H856 0.930 1_545 S
C846 C843 1.339 . S
C846 C844 1.416 . S
C846 H867 0.930 . S
C847 C848 1.413 . S
C847 C849 1.427 . S
C847 C853 1.416 . S
C848 C841 1.424 . S
C848 C847 1.413 . S
C848 N852 1.361 . S
C849 C847 1.427 . S
C849 C850 1.328 . S
C849 H864 0.929 . S
C850 C844 1.448 . S
C850 C849 1.328 . S
C850 H865 0.930 . S
Tb851 N842 2.617 . S
Tb851 N852 2.572 . S
Tb851 O886 2.349 1_545 S
Tb851 O889 2.393 1_545 S
Tb851 O890 2.465 . S
Tb851 O891 2.387 . S
Tb851 O893 2.428 . S
Tb851 O894 2.308 . S
Tb851 C915 2.802 . S
N852 C848 1.361 . S
N852 Tb851 2.572 . S
N852 C854 1.340 . S
C853 C847 1.416 . S
C853 C855 1.332 . S
C853 H861 0.931 . S
C854 N852 1.340 . S
C854 C855 1.407 . S
C854 H860 0.930 . S
C855 C853 1.332 . S
C855 C854 1.407 . S
C855 H857 0.929 . S
H856 C845 0.930 1_565 S
H857 C855 0.929 . S
H858 C873 0.930 . S
H859 C880 0.929 . S
H860 C854 0.930 . S
H861 C853 0.931 . S
H862 C876 0.930 . S
H863 C843 0.930 1_565 S
H864 C849 0.929 . S
H865 C850 0.930 . S
H866 C871 0.930 . S
H867 C846 0.930 . S
H868 C879 0.931 . S
N869 Tb840 2.617 . S
N869 C870 1.379 . S
N869 C873 1.334 . S
C870 N869 1.379 . S
C870 C872 1.416 . S
C870 C878 1.424 . S
C871 H866 0.930 . S
C871 C873 1.390 . S
C871 C874 1.339 . S
C872 C870 1.416 . S
C872 C874 1.416 . S
C872 C905 1.448 . S
C873 H858 0.930 . S
C873 N869 1.334 . S
C873 C871 1.390 . S
C874 C871 1.339 . S
C874 C872 1.416 . S
C874 H881 0.930 . S
N875 Tb840 2.572 . S
N875 C876 1.340 . S
N875 C878 1.361 . S
C876 H862 0.930 . S
C876 N875 1.340 . S
C876 C880 1.407 . S
C877 C878 1.413 . S
C877 C879 1.416 . S
C877 C906 1.427 . S
C878 C870 1.424 . S
C878 N875 1.361 . S
C878 C877 1.413 . S
C879 H868 0.931 . S
C879 C877 1.416 . S
C879 C880 1.332 . S
C880 H859 0.929 . S
C880 C876 1.407 . S
C880 C879 1.332 . S
H881 C874 0.930 . S
H882 C905 0.930 . S
H883 C906 0.929 . S
O884 Tb840 2.465 . S
O884 C904 1.264 . S
O885 Tb840 2.387 . S
O885 C896 1.264 . S
O886 Tb851 2.349 1_565 S
O886 C896 1.243 . S
O887 Tb840 2.428 . S
O887 C904 1.256 . S
O888 Tb840 2.308 . S
O888 C903 1.266 . S
O889 Tb851 2.393 1_565 S
O889 C903 1.248 . S
O890 Tb851 2.465 . S
O890 C915 1.264 . S
O891 Tb851 2.387 . S
O891 C907 1.264 . S
O892 Tb840 2.349 . S
O892 C907 1.243 1_565 S
O893 Tb851 2.428 . S
O893 C915 1.256 . S
O894 Tb851 2.308 . S
O894 C914 1.266 . S
O895 Tb840 2.393 1_545 S
O895 C914 1.248 . S
C896 O885 1.264 . S
C896 O886 1.243 . S
C897 C900 1.399 . S
C897 C902 1.383 . S
C897 C904 1.496 . S
C898 C899 1.399 . S
C898 C902 1.389 . S
C899 C898 1.399 . S
C899 C901 1.380 . S
C899 H916 0.929 . S
C900 C897 1.399 . S
C900 C901 1.392 . S
C900 H917 0.929 . S
C901 C899 1.380 . S
C901 C900 1.392 . S
C901 H918 0.929 . S
C902 C897 1.383 . S
C902 C898 1.389 . S
C902 H919 0.931 . S
C903 O888 1.266 . S
C903 O889 1.248 . S
C904 Tb840 2.802 . S
C904 O884 1.264 . S
C904 O887 1.256 . S
C904 C897 1.496 . S
C905 C872 1.448 . S
C905 H882 0.930 . S
C905 C906 1.328 . S
C906 C877 1.427 . S
C906 H883 0.929 . S
C906 C905 1.328 . S
C907 O891 1.264 . S
C907 O892 1.243 1_545 S
C908 C911 1.399 . S
C908 C912 1.383 . S
C908 C915 1.496 . S
C909 C910 1.399 . S
C909 C912 1.389 . S
C910 C909 1.399 . S
C910 C913 1.380 . S
C910 H920 0.929 . S
C911 C908 1.399 . S
C911 C913 1.392 . S
C911 H921 0.929 . S
C912 C908 1.383 . S
C912 C909 1.389 . S
C912 H922 0.931 . S
C913 C910 1.380 . S
C913 C911 1.392 . S
C913 H923 0.929 . S
C914 O894 1.266 . S
C914 O895 1.248 . S
C915 Tb851 2.802 . S
C915 O890 1.264 . S
C915 O893 1.256 . S
C915 C908 1.496 . S
H916 C899 0.929 . S
H917 C900 0.929 . S
H918 C901 0.929 . S
H919 C902 0.931 . S
H920 C910 0.929 . S
H921 C911 0.929 . S
H922 C912 0.931 . S
H923 C913 0.929 . S
Tb924 N953 2.617 . S
Tb924 N959 2.572 . S
Tb924 O968 2.465 . S
Tb924 O969 2.387 . S
Tb924 O971 2.428 . S
Tb924 O972 2.308 . S
Tb924 O976 2.349 . S
Tb924 O979 2.393 . S
Tb924 C988 2.802 . S
C925 N926 1.379 . S
C925 C928 1.416 . S
C925 C932 1.424 . S
N926 C925 1.379 . S
N926 C929 1.334 . S
N926 Tb935 2.617 . S
C927 C929 1.390 . S
C927 C930 1.339 . S
C927 H947 0.930 . S
C928 C925 1.416 . S
C928 C930 1.416 . S
C928 C934 1.448 . S
C929 N926 1.334 . S
C929 C927 1.390 . S
C929 H940 0.930 . S
C930 C927 1.339 . S
C930 C928 1.416 . S
C930 H951 0.930 . S
C931 C932 1.413 . S
C931 C933 1.427 . S
C931 C937 1.416 . S
C932 C925 1.424 . S
C932 C931 1.413 . S
C932 N936 1.361 . S
C933 C931 1.427 . S
C933 C934 1.328 . S
C933 H948 0.929 . S
C934 C928 1.448 . S
C934 C933 1.328 . S
C934 H949 0.930 . S
Tb935 N926 2.617 . S
Tb935 N936 2.572 . S
Tb935 O970 2.349 . S
Tb935 O973 2.393 . S
Tb935 O974 2.465 . S
Tb935 O975 2.387 . S
Tb935 O977 2.428 . S
Tb935 O978 2.308 . S
Tb935 C999 2.802 . S
N936 C932 1.361 . S
N936 Tb935 2.572 . S
N936 C938 1.340 . S
C937 C931 1.416 . S
C937 C939 1.332 . S
C937 H945 0.931 . S
C938 N936 1.340 . S
C938 C939 1.407 . S
C938 H944 0.930 . S
C939 C937 1.332 . S
C939 C938 1.407 . S
C939 H941 0.929 . S
H940 C929 0.930 . S
H941 C939 0.929 . S
H942 C957 0.930 . S
H943 C964 0.929 . S
H944 C938 0.930 . S
H945 C937 0.931 . S
H946 C960 0.930 . S
H947 C927 0.930 . S
H948 C933 0.929 . S
H949 C934 0.930 . S
H950 C955 0.930 . S
H951 C930 0.930 . S
H952 C963 0.931 . S
N953 Tb924 2.617 . S
N953 C954 1.379 . S
N953 C957 1.334 . S
C954 N953 1.379 . S
C954 C956 1.416 . S
C954 C962 1.424 . S
C955 H950 0.930 . S
C955 C957 1.390 . S
C955 C958 1.339 . S
C956 C954 1.416 . S
C956 C958 1.416 . S
C956 C989 1.448 . S
C957 H942 0.930 . S
C957 N953 1.334 . S
C957 C955 1.390 . S
C958 C955 1.339 . S
C958 C956 1.416 . S
C958 H965 0.930 . S
N959 Tb924 2.572 . S
N959 C960 1.340 . S
N959 C962 1.361 . S
C960 H946 0.930 . S
C960 N959 1.340 . S
C960 C964 1.407 . S
C961 C962 1.413 . S
C961 C963 1.416 . S
C961 C990 1.427 . S
C962 C954 1.424 . S
C962 N959 1.361 . S
C962 C961 1.413 . S
C963 H952 0.931 . S
C963 C961 1.416 . S
C963 C964 1.332 . S
C964 H943 0.929 . S
C964 C960 1.407 . S
C964 C963 1.332 . S
H965 C958 0.930 . S
H966 C989 0.930 . S
H967 C990 0.929 . S
O968 Tb924 2.465 . S
O968 C988 1.264 . S
O969 Tb924 2.387 . S
O969 C980 1.264 . S
O970 Tb935 2.349 . S
O970 C980 1.243 . S
O971 Tb924 2.428 . S
O971 C988 1.256 . S
O972 Tb924 2.308 . S
O972 C987 1.266 . S
O973 Tb935 2.393 . S
O973 C987 1.248 . S
O974 Tb935 2.465 . S
O974 C999 1.264 . S
O975 Tb935 2.387 . S
O975 C991 1.264 . S
O976 Tb924 2.349 . S
O976 C991 1.243 . S
O977 Tb935 2.428 . S
O977 C999 1.256 . S
O978 Tb935 2.308 . S
O978 C998 1.266 . S
O979 Tb924 2.393 . S
O979 C998 1.248 . S
C980 O969 1.264 . S
C980 O970 1.243 . S
C981 C984 1.399 . S
C981 C986 1.383 . S
C981 C988 1.496 . S
C982 C983 1.399 . S
C982 C986 1.389 . S
C983 C982 1.399 . S
C983 C985 1.380 . S
C983 H1000 0.929 . S
C984 C981 1.399 . S
C984 C985 1.392 . S
C984 H1001 0.929 . S
C985 C983 1.380 . S
C985 C984 1.392 . S
C985 H1002 0.929 . S
C986 C981 1.383 . S
C986 C982 1.389 . S
C986 H1003 0.931 . S
C987 O972 1.266 . S
C987 O973 1.248 . S
C988 Tb924 2.802 . S
C988 O968 1.264 . S
C988 O971 1.256 . S
C988 C981 1.496 . S
C989 C956 1.448 . S
C989 H966 0.930 . S
C989 C990 1.328 . S
C990 C961 1.427 . S
C990 H967 0.929 . S
C990 C989 1.328 . S
C991 O975 1.264 . S
C991 O976 1.243 . S
C992 C995 1.399 . S
C992 C996 1.383 . S
C992 C999 1.496 . S
C993 C994 1.399 . S
C993 C996 1.389 . S
C994 C993 1.399 . S
C994 C997 1.380 . S
C994 H1004 0.929 . S
C995 C992 1.399 . S
C995 C997 1.392 . S
C995 H1005 0.929 . S
C996 C992 1.383 . S
C996 C993 1.389 . S
C996 H1006 0.931 . S
C997 C994 1.380 . S
C997 C995 1.392 . S
C997 H1007 0.929 . S
C998 O978 1.266 . S
C998 O979 1.248 . S
C999 Tb935 2.802 . S
C999 O974 1.264 . S
C999 O977 1.256 . S
C999 C992 1.496 . S
H1000 C983 0.929 . S
H1001 C984 0.929 . S
H1002 C985 0.929 . S
H1003 C986 0.931 . S
H1004 C994 0.929 . S
H1005 C995 0.929 . S
H1006 C996 0.931 . S
H1007 C997 0.929 . S
H1008 C1014 0.930 . S
H1009 C1018 0.930 . S
H1010 C1023 0.929 . S
H1011 C1021 0.929 . S
H1012 C1016 0.929 . S
H1013 C1022 0.929 . S
C1014 H1008 0.930 . S
C1014 C1015 1.367 . S
C1014 C1022 1.378 . S
C1015 C1014 1.367 . S
C1015 C1023 1.433 . S
C1016 H1012 0.929 . S
C1016 C1018 1.378 . S
C1016 C1020 1.350 . S
C1017 C1020 1.463 . S
C1017 C1022 1.350 . S
C1017 N1025 1.427 . S
C1018 H1009 0.930 . S
C1018 C1016 1.378 . S
C1018 C1019 1.367 . S
C1019 C1018 1.367 . S
C1019 C1021 1.433 . S
C1020 C1016 1.350 . S
C1020 C1017 1.463 . S
C1020 N1024 1.427 . S
C1021 H1011 0.929 . S
C1021 C1019 1.433 . S
C1021 N1024 1.384 . S
C1022 H1013 0.929 . S
C1022 C1014 1.378 . S
C1022 C1017 1.350 . S
C1023 H1010 0.929 . S
C1023 C1015 1.433 . S
C1023 N1025 1.384 . S
N1024 C1020 1.427 . S
N1024 C1021 1.384 . S
N1025 C1017 1.427 . S
N1025 C1023 1.384 . S
H1026 C1032 0.930 . S
H1027 C1036 0.930 . S
H1028 C1041 0.929 . S
H1029 C1039 0.929 . S
H1030 C1034 0.929 . S
H1031 C1040 0.929 1_545 S
C1032 H1026 0.930 . S
C1032 C1033 1.367 1_545 S
C1032 C1040 1.378 1_545 S
C1033 C1032 1.367 1_565 S
C1033 C1041 1.433 . S
C1034 H1030 0.929 . S
C1034 C1036 1.378 . S
C1034 C1038 1.350 . S
C1035 C1038 1.463 . S
C1035 C1040 1.350 . S
C1035 N1043 1.427 . S
C1036 H1027 0.930 . S
C1036 C1034 1.378 . S
C1036 C1037 1.367 . S
C1037 C1036 1.367 . S
C1037 C1039 1.433 . S
C1038 C1034 1.350 . S
C1038 C1035 1.463 . S
C1038 N1042 1.427 . S
C1039 H1029 0.929 . S
C1039 C1037 1.433 . S
C1039 N1042 1.384 . S
C1040 H1031 0.929 1_565 S
C1040 C1032 1.378 1_565 S
C1040 C1035 1.350 . S
C1041 H1028 0.929 . S
C1041 C1033 1.433 . S
C1041 N1043 1.384 . S
N1042 C1038 1.427 . S
N1042 C1039 1.384 . S
N1043 C1035 1.427 . S
N1043 C1041 1.384 . S
H1044 C1050 0.930 . S
H1045 C1054 0.930 . S
H1046 C1059 0.929 . S
H1047 C1057 0.929 . S
H1048 C1052 0.929 . S
H1049 C1058 0.929 . S
C1050 H1044 0.930 . S
C1050 C1051 1.367 . S
C1050 C1058 1.378 . S
C1051 C1050 1.367 . S
C1051 C1059 1.433 1_554 S
C1052 H1048 0.929 . S
C1052 C1054 1.378 . S
C1052 C1056 1.350 . S
C1053 C1056 1.463 . S
C1053 C1058 1.350 . S
C1053 N1061 1.427 . S
C1054 H1045 0.930 . S
C1054 C1052 1.378 . S
C1054 C1055 1.367 . S
C1055 C1054 1.367 . S
C1055 C1057 1.433 . S
C1056 C1052 1.350 . S
C1056 C1053 1.463 . S
C1056 N1060 1.427 . S
C1057 H1047 0.929 . S
C1057 C1055 1.433 . S
C1057 N1060 1.384 . S
C1058 H1049 0.929 . S
C1058 C1050 1.378 . S
C1058 C1053 1.350 . S
C1059 H1046 0.929 . S
C1059 C1051 1.433 1_556 S
C1059 N1061 1.384 1_556 S
N1060 C1056 1.427 . S
N1060 C1057 1.384 . S
N1061 C1053 1.427 . S
N1061 C1059 1.384 1_554 S
H1062 C1068 0.930 . S
H1063 C1072 0.930 . S
H1064 C1077 0.929 . S
H1065 C1075 0.929 . S
H1066 C1070 0.929 . S
H1067 C1076 0.929 . S
C1068 H1062 0.930 . S
C1068 C1069 1.367 . S
C1068 C1076 1.378 . S
C1069 C1068 1.367 . S
C1069 C1077 1.433 . S
C1070 H1066 0.929 . S
C1070 C1072 1.378 . S
C1070 C1074 1.350 . S
C1071 C1074 1.463 . S
C1071 C1076 1.350 . S
C1071 N1079 1.427 . S
C1072 H1063 0.930 . S
C1072 C1070 1.378 . S
C1072 C1073 1.367 . S
C1073 C1072 1.367 . S
C1073 C1075 1.433 . S
C1074 C1070 1.350 . S
C1074 C1071 1.463 . S
C1074 N1078 1.427 . S
C1075 H1065 0.929 . S
C1075 C1073 1.433 . S
C1075 N1078 1.384 . S
C1076 H1067 0.929 . S
C1076 C1068 1.378 . S
C1076 C1071 1.350 . S
C1077 H1064 0.929 . S
C1077 C1069 1.433 . S
C1077 N1079 1.384 . S
N1078 C1074 1.427 . S
N1078 C1075 1.384 . S
N1079 C1071 1.427 . S
N1079 C1077 1.384 . S
H1080 C1086 0.930 . S
H1081 C1090 0.930 . S
H1082 C1095 0.929 . S
H1083 C1093 0.929 . S
H1084 C1088 0.929 . S
H1085 C1094 0.929 . S
C1086 H1080 0.930 . S
C1086 C1087 1.367 . S
C1086 C1094 1.378 . S
C1087 C1086 1.367 . S
C1087 C1095 1.433 . S
C1088 H1084 0.929 . S
C1088 C1090 1.378 . S
C1088 C1092 1.350 . S
C1089 C1092 1.463 . S
C1089 C1094 1.350 . S
C1089 N1097 1.427 . S
C1090 H1081 0.930 . S
C1090 C1088 1.378 . S
C1090 C1091 1.367 . S
C1091 C1090 1.367 . S
C1091 C1093 1.433 . S
C1092 C1088 1.350 . S
C1092 C1089 1.463 . S
C1092 N1096 1.427 . S
C1093 H1083 0.929 . S
C1093 C1091 1.433 . S
C1093 N1096 1.384 . S
C1094 H1085 0.929 . S
C1094 C1086 1.378 . S
C1094 C1089 1.350 . S
C1095 H1082 0.929 . S
C1095 C1087 1.433 . S
C1095 N1097 1.384 . S
N1096 C1092 1.427 . S
N1096 C1093 1.384 . S
N1097 C1089 1.427 . S
N1097 C1095 1.384 . S
H1098 C1104 0.930 . S
H1099 C1108 0.930 . S
H1100 C1113 0.929 . S
H1101 C1111 0.929 . S
H1102 C1106 0.929 . S
H1103 C1112 0.929 . S
C1104 H1098 0.930 . S
C1104 C1105 1.367 . S
C1104 C1112 1.378 . S
C1105 C1104 1.367 . S
C1105 C1113 1.433 . S
C1106 H1102 0.929 . S
C1106 C1108 1.378 . S
C1106 C1110 1.350 . S
C1107 C1110 1.463 . S
C1107 C1112 1.350 . S
C1107 N1115 1.427 . S
C1108 H1099 0.930 . S
C1108 C1106 1.378 . S
C1108 C1109 1.367 . S
C1109 C1108 1.367 . S
C1109 C1111 1.433 . S
C1110 C1106 1.350 . S
C1110 C1107 1.463 . S
C1110 N1114 1.427 . S
C1111 H1101 0.929 . S
C1111 C1109 1.433 . S
C1111 N1114 1.384 . S
C1112 H1103 0.929 . S
C1112 C1104 1.378 . S
C1112 C1107 1.350 . S
C1113 H1100 0.929 . S
C1113 C1105 1.433 . S
C1113 N1115 1.384 . S
N1114 C1110 1.427 . S
N1114 C1111 1.384 . S
N1115 C1107 1.427 . S
N1115 C1113 1.384 . S
H1116 C1122 0.930 . S
H1117 C1126 0.930 . S
H1118 C1131 0.929 . S
H1119 C1129 0.929 . S
H1120 C1124 0.929 . S
H1121 C1130 0.929 . S
C1122 H1116 0.930 . S
C1122 C1123 1.367 . S
C1122 C1130 1.378 . S
C1123 C1122 1.367 . S
C1123 C1131 1.433 . S
C1124 H1120 0.929 . S
C1124 C1126 1.378 . S
C1124 C1128 1.350 . S
C1125 C1128 1.463 . S
C1125 C1130 1.350 . S
C1125 N1133 1.427 . S
C1126 H1117 0.930 . S
C1126 C1124 1.378 . S
C1126 C1127 1.367 . S
C1127 C1126 1.367 . S
C1127 C1129 1.433 1_556 S
C1128 C1124 1.350 . S
C1128 C1125 1.463 . S
C1128 N1132 1.427 . S
C1129 H1119 0.929 . S
C1129 C1127 1.433 1_554 S
C1129 N1132 1.384 1_554 S
C1130 H1121 0.929 . S
C1130 C1122 1.378 . S
C1130 C1125 1.350 . S
C1131 H1118 0.929 . S
C1131 C1123 1.433 . S
C1131 N1133 1.384 . S
N1132 C1128 1.427 . S
N1132 C1129 1.384 1_556 S
N1133 C1125 1.427 . S
N1133 C1131 1.384 . S
H1134 C1140 0.930 . S
H1135 C1144 0.930 . S
H1136 C1149 0.929 . S
H1137 C1147 0.929 . S
H1138 C1142 0.929 . S
H1139 C1148 0.929 . S
C1140 H1134 0.930 . S
C1140 C1141 1.367 . S
C1140 C1148 1.378 . S
C1141 C1140 1.367 . S
C1141 C1149 1.433 . S
C1142 H1138 0.929 . S
C1142 C1144 1.378 . S
C1142 C1146 1.350 . S
C1143 C1146 1.463 . S
C1143 C1148 1.350 . S
C1143 N1151 1.427 . S
C1144 H1135 0.930 . S
C1144 C1142 1.378 . S
C1144 C1145 1.367 . S
C1145 C1144 1.367 . S
C1145 C1147 1.433 . S
C1146 C1142 1.350 . S
C1146 C1143 1.463 . S
C1146 N1150 1.427 . S
C1147 H1137 0.929 . S
C1147 C1145 1.433 . S
C1147 N1150 1.384 . S
C1148 H1139 0.929 . S
C1148 C1140 1.378 . S
C1148 C1143 1.350 . S
C1149 H1136 0.929 . S
C1149 C1141 1.433 . S
C1149 N1151 1.384 . S
N1150 C1146 1.427 . S
N1150 C1147 1.384 . S
N1151 C1143 1.427 . S
N1151 C1149 1.384 . S
H1152 C1158 0.930 . S
H1153 C1162 0.930 . S
H1154 C1167 0.929 . S
H1155 C1165 0.929 . S
H1156 C1160 0.929 . S
H1157 C1166 0.929 . S
C1158 H1152 0.930 . S
C1158 C1159 1.367 . S
C1158 C1166 1.378 . S
C1159 C1158 1.367 . S
C1159 C1167 1.433 . S
C1160 H1156 0.929 . S
C1160 C1162 1.378 . S
C1160 C1164 1.350 . S
C1161 C1164 1.463 . S
C1161 C1166 1.350 . S
C1161 N1169 1.427 . S
C1162 H1153 0.930 . S
C1162 C1160 1.378 . S
C1162 C1163 1.367 . S
C1163 C1162 1.367 . S
C1163 C1165 1.433 . S
C1164 C1160 1.350 . S
C1164 C1161 1.463 . S
C1164 N1168 1.427 . S
C1165 H1155 0.929 . S
C1165 C1163 1.433 . S
C1165 N1168 1.384 . S
C1166 H1157 0.929 . S
C1166 C1158 1.378 . S
C1166 C1161 1.350 . S
C1167 H1154 0.929 . S
C1167 C1159 1.433 . S
C1167 N1169 1.384 . S
N1168 C1164 1.427 . S
N1168 C1165 1.384 . S
N1169 C1161 1.427 . S
N1169 C1167 1.384 . S
H1170 C1176 0.930 . S
H1171 C1180 0.930 . S
H1172 C1185 0.929 . S
H1173 C1183 0.929 . S
H1174 C1178 0.929 1_655 S
H1175 C1184 0.929 . S
C1176 H1170 0.930 . S
C1176 C1177 1.367 . S
C1176 C1184 1.378 . S
C1177 C1176 1.367 . S
C1177 C1185 1.433 . S
C1178 H1174 0.929 1_455 S
C1178 C1180 1.378 1_455 S
C1178 C1182 1.350 . S
C1179 C1182 1.463 . S
C1179 C1184 1.350 . S
C1179 N1187 1.427 . S
C1180 H1171 0.930 . S
C1180 C1178 1.378 1_655 S
C1180 C1181 1.367 1_655 S
C1181 C1180 1.367 1_455 S
C1181 C1183 1.433 . S
C1182 C1178 1.350 . S
C1182 C1179 1.463 . S
C1182 N1186 1.427 . S
C1183 H1173 0.929 . S
C1183 C1181 1.433 . S
C1183 N1186 1.384 . S
C1184 H1175 0.929 . S
C1184 C1176 1.378 . S
C1184 C1179 1.350 . S
C1185 H1172 0.929 . S
C1185 C1177 1.433 . S
C1185 N1187 1.384 . S
N1186 C1182 1.427 . S
N1186 C1183 1.384 . S
N1187 C1179 1.427 . S
N1187 C1185 1.384 . S
H1188 C1194 0.930 . S
H1189 C1198 0.930 . S
H1190 C1203 0.929 . S
H1191 C1201 0.929 . S
H1192 C1196 0.929 . S
H1193 C1202 0.929 . S
C1194 H1188 0.930 . S
C1194 C1195 1.367 . S
C1194 C1202 1.378 . S
C1195 C1194 1.367 . S
C1195 C1203 1.433 1_655 S
C1196 H1192 0.929 . S
C1196 C1198 1.378 . S
C1196 C1200 1.350 . S
C1197 C1200 1.463 . S
C1197 C1202 1.350 . S
C1197 N1205 1.427 . S
C1198 H1189 0.930 . S
C1198 C1196 1.378 . S
C1198 C1199 1.367 . S
C1199 C1198 1.367 . S
C1199 C1201 1.433 . S
C1200 C1196 1.350 . S
C1200 C1197 1.463 . S
C1200 N1204 1.427 . S
C1201 H1191 0.929 . S
C1201 C1199 1.433 . S
C1201 N1204 1.384 . S
C1202 H1193 0.929 . S
C1202 C1194 1.378 . S
C1202 C1197 1.350 . S
C1203 H1190 0.929 . S
C1203 C1195 1.433 1_455 S
C1203 N1205 1.384 1_455 S
N1204 C1200 1.427 . S
N1204 C1201 1.384 . S
N1205 C1197 1.427 . S
N1205 C1203 1.384 1_655 S
H1206 C1212 0.930 . S
H1207 C1216 0.930 . S
H1208 C1221 0.929 . S
H1209 C1219 0.929 . S
H1210 C1214 0.929 . S
H1211 C1220 0.929 . S
C1212 H1206 0.930 . S
C1212 C1213 1.367 . S
C1212 C1220 1.378 . S
C1213 C1212 1.367 . S
C1213 C1221 1.433 . S
C1214 H1210 0.929 . S
C1214 C1216 1.378 . S
C1214 C1218 1.350 . S
C1215 C1218 1.463 . S
C1215 C1220 1.350 . S
C1215 N1223 1.427 . S
C1216 H1207 0.930 . S
C1216 C1214 1.378 . S
C1216 C1217 1.367 . S
C1217 C1216 1.367 . S
C1217 C1219 1.433 . S
C1218 C1214 1.350 . S
C1218 C1215 1.463 . S
C1218 N1222 1.427 . S
C1219 H1209 0.929 . S
C1219 C1217 1.433 . S
C1219 N1222 1.384 . S
C1220 H1211 0.929 . S
C1220 C1212 1.378 . S
C1220 C1215 1.350 . S
C1221 H1208 0.929 . S
C1221 C1213 1.433 . S
C1221 N1223 1.384 . S
N1222 C1218 1.427 . S
N1222 C1219 1.384 . S
N1223 C1215 1.427 . S
N1223 C1221 1.384 . S
H1224 C1230 0.930 . S
H1225 C1234 0.930 . S
H1226 C1239 0.929 . S
H1227 C1237 0.929 . S
H1228 C1232 0.929 . S
H1229 C1238 0.929 . S
C1230 H1224 0.930 . S
C1230 C1231 1.367 . S
C1230 C1238 1.378 . S
C1231 C1230 1.367 . S
C1231 C1239 1.433 . S
C1232 H1228 0.929 . S
C1232 C1234 1.378 . S
C1232 C1236 1.350 . S
C1233 C1236 1.463 . S
C1233 C1238 1.350 . S
C1233 N1241 1.427 . S
C1234 H1225 0.930 . S
C1234 C1232 1.378 . S
C1234 C1235 1.367 . S
C1235 C1234 1.367 . S
C1235 C1237 1.433 . S
C1236 C1232 1.350 . S
C1236 C1233 1.463 . S
C1236 N1240 1.427 . S
C1237 H1227 0.929 . S
C1237 C1235 1.433 . S
C1237 N1240 1.384 . S
C1238 H1229 0.929 . S
C1238 C1230 1.378 . S
C1238 C1233 1.350 . S
C1239 H1226 0.929 . S
C1239 C1231 1.433 . S
C1239 N1241 1.384 . S
N1240 C1236 1.427 . S
N1240 C1237 1.384 . S
N1241 C1233 1.427 . S
N1241 C1239 1.384 . S
H1242 C1248 0.930 . S
H1243 C1252 0.930 . S
H1244 C1257 0.929 . S
H1245 C1255 0.929 . S
H1246 C1250 0.929 . S
H1247 C1256 0.929 . S
C1248 H1242 0.930 . S
C1248 C1249 1.367 . S
C1248 C1256 1.378 . S
C1249 C1248 1.367 . S
C1249 C1257 1.433 . S
C1250 H1246 0.929 . S
C1250 C1252 1.378 . S
C1250 C1254 1.350 . S
C1251 C1254 1.463 . S
C1251 C1256 1.350 . S
C1251 N1259 1.427 . S
C1252 H1243 0.930 . S
C1252 C1250 1.378 . S
C1252 C1253 1.367 . S
C1253 C1252 1.367 . S
C1253 C1255 1.433 . S
C1254 C1250 1.350 . S
C1254 C1251 1.463 . S
C1254 N1258 1.427 . S
C1255 H1245 0.929 . S
C1255 C1253 1.433 . S
C1255 N1258 1.384 . S
C1256 H1247 0.929 . S
C1256 C1248 1.378 . S
C1256 C1251 1.350 . S
C1257 H1244 0.929 . S
C1257 C1249 1.433 . S
C1257 N1259 1.384 . S
N1258 C1254 1.427 . S
N1258 C1255 1.384 . S
N1259 C1251 1.427 . S
N1259 C1257 1.384 . S
H1260 C1266 0.930 . S
H1261 C1270 0.930 . S
H1262 C1275 0.929 . S
H1263 C1273 0.929 . S
H1264 C1268 0.929 . S
H1265 C1274 0.929 . S
C1266 H1260 0.930 . S
C1266 C1267 1.367 . S
C1266 C1274 1.378 . S
C1267 C1266 1.367 . S
C1267 C1275 1.433 . S
C1268 H1264 0.929 . S
C1268 C1270 1.378 . S
C1268 C1272 1.350 . S
C1269 C1272 1.463 . S
C1269 C1274 1.350 . S
C1269 N1277 1.427 . S
C1270 H1261 0.930 . S
C1270 C1268 1.378 . S
C1270 C1271 1.367 . S
C1271 C1270 1.367 . S
C1271 C1273 1.433 . S
C1272 C1268 1.350 . S
C1272 C1269 1.463 . S
C1272 N1276 1.427 . S
C1273 H1263 0.929 . S
C1273 C1271 1.433 . S
C1273 N1276 1.384 . S
C1274 H1265 0.929 . S
C1274 C1266 1.378 . S
C1274 C1269 1.350 . S
C1275 H1262 0.929 . S
C1275 C1267 1.433 . S
C1275 N1277 1.384 . S
N1276 C1272 1.427 . S
N1276 C1273 1.384 . S
N1277 C1269 1.427 . S
N1277 C1275 1.384 . S
H1278 C1284 0.930 . S
H1279 C1288 0.930 . S
H1280 C1293 0.929 . S
H1281 C1291 0.929 . S
H1282 C1286 0.929 . S
H1283 C1292 0.929 . S
C1284 H1278 0.930 . S
C1284 C1285 1.367 . S
C1284 C1292 1.378 . S
C1285 C1284 1.367 . S
C1285 C1293 1.433 . S
C1286 H1282 0.929 . S
C1286 C1288 1.378 . S
C1286 C1290 1.350 . S
C1287 C1290 1.463 1_554 S
C1287 C1292 1.350 . S
C1287 N1295 1.427 . S
C1288 H1279 0.930 . S
C1288 C1286 1.378 . S
C1288 C1289 1.367 . S
C1289 C1288 1.367 . S
C1289 C1291 1.433 . S
C1290 C1286 1.350 . S
C1290 C1287 1.463 1_556 S
C1290 N1294 1.427 . S
C1291 H1281 0.929 . S
C1291 C1289 1.433 . S
C1291 N1294 1.384 . S
C1292 H1283 0.929 . S
C1292 C1284 1.378 . S
C1292 C1287 1.350 . S
C1293 H1280 0.929 . S
C1293 C1285 1.433 . S
C1293 N1295 1.384 . S
N1294 C1290 1.427 . S
N1294 C1291 1.384 . S
N1295 C1287 1.427 . S
N1295 C1293 1.384 . S
H1296 C1302 0.930 . S
H1297 C1306 0.930 . S
H1298 C1311 0.929 . S
H1299 C1309 0.929 . S
H1300 C1304 0.929 . S
H1301 C1310 0.929 . S
C1302 H1296 0.930 . S
C1302 C1303 1.367 . S
C1302 C1310 1.378 . S
C1303 C1302 1.367 . S
C1303 C1311 1.433 . S
C1304 H1300 0.929 . S
C1304 C1306 1.378 . S
C1304 C1308 1.350 . S
C1305 C1308 1.463 . S
C1305 C1310 1.350 . S
C1305 N1313 1.427 . S
C1306 H1297 0.930 . S
C1306 C1304 1.378 . S
C1306 C1307 1.367 . S
C1307 C1306 1.367 . S
C1307 C1309 1.433 . S
C1308 C1304 1.350 . S
C1308 C1305 1.463 . S
C1308 N1312 1.427 . S
C1309 H1299 0.929 . S
C1309 C1307 1.433 . S
C1309 N1312 1.384 . S
C1310 H1301 0.929 . S
C1310 C1302 1.378 . S
C1310 C1305 1.350 . S
C1311 H1298 0.929 . S
C1311 C1303 1.433 . S
C1311 N1313 1.384 . S
N1312 C1308 1.427 . S
N1312 C1309 1.384 . S
N1313 C1305 1.427 . S
N1313 C1311 1.384 . S
H1314 C1320 0.930 . S
H1315 C1324 0.930 . S
H1316 C1329 0.929 . S
H1317 C1327 0.929 . S
H1318 C1322 0.929 . S
H1319 C1328 0.930 . S
C1320 H1314 0.930 . S
C1320 C1321 1.367 . S
C1320 C1328 1.376 1_554 S
C1321 C1320 1.367 . S
C1321 C1329 1.433 . S
C1322 H1318 0.929 . S
C1322 C1324 1.378 . S
C1322 C1326 1.350 . S
C1323 C1326 1.463 . S
C1323 C1328 1.350 . S
C1323 N1331 1.427 1_556 S
C1324 H1315 0.930 . S
C1324 C1322 1.378 . S
C1324 C1325 1.367 . S
C1325 C1324 1.367 . S
C1325 C1327 1.433 . S
C1326 C1322 1.350 . S
C1326 C1323 1.463 . S
C1326 N1330 1.427 . S
C1327 H1317 0.929 . S
C1327 C1325 1.433 . S
C1327 N1330 1.384 . S
C1328 H1319 0.930 . S
C1328 C1320 1.376 1_556 S
C1328 C1323 1.350 . S
C1329 H1316 0.929 . S
C1329 C1321 1.433 . S
C1329 N1331 1.384 . S
N1330 C1326 1.427 . S
N1330 C1327 1.384 . S
N1331 C1323 1.427 1_554 S
N1331 C1329 1.384 . S
H1332 C1338 0.930 . S
H1333 C1342 0.930 . S
H1334 C1347 0.929 . S
H1335 C1345 0.929 . S
H1336 C1340 0.929 . S
H1337 C1346 0.929 . S
C1338 H1332 0.930 . S
C1338 C1339 1.367 . S
C1338 C1346 1.378 . S
C1339 C1338 1.367 . S
C1339 C1347 1.433 . S
C1340 H1336 0.929 . S
C1340 C1342 1.378 . S
C1340 C1344 1.350 . S
C1341 C1344 1.463 . S
C1341 C1346 1.350 . S
C1341 N1349 1.427 . S
C1342 H1333 0.930 . S
C1342 C1340 1.378 . S
C1342 C1343 1.367 . S
C1343 C1342 1.367 . S
C1343 C1345 1.433 . S
C1344 C1340 1.350 . S
C1344 C1341 1.463 . S
C1344 N1348 1.427 . S
C1345 H1335 0.929 . S
C1345 C1343 1.433 . S
C1345 N1348 1.384 . S
C1346 H1337 0.929 . S
C1346 C1338 1.378 . S
C1346 C1341 1.350 . S
C1347 H1334 0.929 . S
C1347 C1339 1.433 . S
C1347 N1349 1.384 . S
N1348 C1344 1.427 . S
N1348 C1345 1.384 . S
N1349 C1341 1.427 . S
N1349 C1347 1.384 . S
H1350 C1356 0.930 . S
H1351 C1360 0.930 . S
H1352 C1365 0.929 . S
H1353 C1363 0.929 . S
H1354 C1358 0.929 . S
H1355 C1364 0.929 . S
C1356 H1350 0.930 . S
C1356 C1357 1.367 . S
C1356 C1364 1.378 . S
C1357 C1356 1.367 . S
C1357 C1365 1.433 . S
C1358 H1354 0.929 . S
C1358 C1360 1.378 . S
C1358 C1362 1.350 . S
C1359 C1362 1.463 . S
C1359 C1364 1.350 . S
C1359 N1367 1.427 . S
C1360 H1351 0.930 . S
C1360 C1358 1.378 . S
C1360 C1361 1.367 . S
C1361 C1360 1.367 . S
C1361 C1363 1.433 . S
C1362 C1358 1.350 . S
C1362 C1359 1.463 . S
C1362 N1366 1.427 . S
C1363 H1353 0.929 . S
C1363 C1361 1.433 . S
C1363 N1366 1.384 . S
C1364 H1355 0.929 . S
C1364 C1356 1.378 . S
C1364 C1359 1.350 . S
C1365 H1352 0.929 . S
C1365 C1357 1.433 . S
C1365 N1367 1.384 . S
N1366 C1362 1.427 . S
N1366 C1363 1.384 . S
N1367 C1359 1.427 . S
N1367 C1365 1.384 . S
H1368 C1374 0.930 . S
H1369 C1378 0.930 . S
H1370 C1383 0.929 . S
H1371 C1381 0.929 . S
H1372 C1376 0.929 . S
H1373 C1382 0.929 . S
C1374 H1368 0.930 . S
C1374 C1375 1.367 . S
C1374 C1382 1.378 . S
C1375 C1374 1.367 . S
C1375 C1383 1.433 . S
C1376 H1372 0.929 . S
C1376 C1378 1.378 . S
C1376 C1380 1.350 . S
C1377 C1380 1.463 . S
C1377 C1382 1.350 . S
C1377 N1385 1.427 . S
C1378 H1369 0.930 . S
C1378 C1376 1.378 . S
C1378 C1379 1.367 . S
C1379 C1378 1.367 . S
C1379 C1381 1.433 . S
C1380 C1376 1.350 . S
C1380 C1377 1.463 . S
C1380 N1384 1.427 . S
C1381 H1371 0.929 . S
C1381 C1379 1.433 . S
C1381 N1384 1.384 . S
C1382 H1373 0.929 . S
C1382 C1374 1.378 . S
C1382 C1377 1.350 . S
C1383 H1370 0.929 . S
C1383 C1375 1.433 . S
C1383 N1385 1.384 . S
N1384 C1380 1.427 . S
N1384 C1381 1.384 . S
N1385 C1377 1.427 . S
N1385 C1383 1.384 . S
H1386 C1392 0.930 . S
H1387 C1396 0.930 . S
H1388 C1401 0.929 . S
H1389 C1399 0.929 . S
H1390 C1394 0.929 . S
H1391 C1400 0.929 . S
C1392 H1386 0.930 . S
C1392 C1393 1.367 . S
C1392 C1400 1.378 . S
C1393 C1392 1.367 . S
C1393 C1401 1.433 . S
C1394 H1390 0.929 . S
C1394 C1396 1.378 . S
C1394 C1398 1.343 1_565 S
C1395 C1398 1.470 . S
C1395 C1400 1.350 . S
C1395 N1403 1.427 . S
C1396 H1387 0.930 . S
C1396 C1394 1.378 . S
C1396 C1397 1.367 . S
C1397 C1396 1.367 . S
C1397 C1399 1.433 . S
C1398 C1394 1.343 1_545 S
C1398 C1395 1.470 . S
C1398 N1402 1.427 1_545 S
C1399 H1389 0.929 . S
C1399 C1397 1.433 . S
C1399 N1402 1.384 . S
C1400 H1391 0.929 . S
C1400 C1392 1.378 . S
C1400 C1395 1.350 . S
C1401 H1388 0.929 . S
C1401 C1393 1.433 . S
C1401 N1403 1.384 . S
N1402 C1398 1.427 1_565 S
N1402 C1399 1.384 . S
N1403 C1395 1.427 . S
N1403 C1401 1.384 . S
H1404 C1410 0.930 . S
H1405 C1414 0.930 . S
H1406 C1419 0.929 . S
H1407 C1417 0.929 . S
H1408 C1412 0.929 . S
H1409 C1418 0.929 . S
C1410 H1404 0.930 . S
C1410 C1411 1.367 . S
C1410 C1418 1.378 . S
C1411 C1410 1.367 . S
C1411 C1419 1.433 . S
C1412 H1408 0.929 . S
C1412 C1414 1.378 . S
C1412 C1416 1.350 . S
C1413 C1416 1.463 . S
C1413 C1418 1.350 . S
C1413 N1421 1.427 . S
C1414 H1405 0.930 . S
C1414 C1412 1.378 . S
C1414 C1415 1.367 . S
C1415 C1414 1.367 . S
C1415 C1417 1.433 . S
C1416 C1412 1.350 . S
C1416 C1413 1.463 . S
C1416 N1420 1.427 . S
C1417 H1407 0.929 . S
C1417 C1415 1.433 . S
C1417 N1420 1.384 . S
C1418 H1409 0.929 . S
C1418 C1410 1.378 . S
C1418 C1413 1.350 . S
C1419 H1406 0.929 . S
C1419 C1411 1.433 . S
C1419 N1421 1.384 . S
N1420 C1416 1.427 . S
N1420 C1417 1.384 . S
N1421 C1413 1.427 . S
N1421 C1419 1.384 . S
H1422 C1428 0.930 . S
H1423 C1432 0.930 . S
H1424 C1437 0.929 . S
H1425 C1435 0.929 . S
H1426 C1430 0.929 . S
H1427 C1436 0.929 1_565 S
C1428 H1422 0.930 . S
C1428 C1429 1.367 . S
C1428 C1436 1.378 . S
C1429 C1428 1.367 . S
C1429 C1437 1.433 . S
C1430 H1426 0.929 . S
C1430 C1432 1.378 . S
C1430 C1434 1.350 . S
C1431 C1434 1.463 1_545 S
C1431 C1436 1.350 . S
C1431 N1439 1.427 . S
C1432 H1423 0.930 . S
C1432 C1430 1.378 . S
C1432 C1433 1.367 . S
C1433 C1432 1.367 . S
C1433 C1435 1.433 . S
C1434 C1430 1.350 . S
C1434 C1431 1.463 1_565 S
C1434 N1438 1.427 . S
C1435 H1425 0.929 . S
C1435 C1433 1.433 . S
C1435 N1438 1.384 . S
C1436 H1427 0.929 1_545 S
C1436 C1428 1.378 . S
C1436 C1431 1.350 . S
C1437 H1424 0.929 . S
C1437 C1429 1.433 . S
C1437 N1439 1.384 . S
N1438 C1434 1.427 . S
N1438 C1435 1.384 . S
N1439 C1431 1.427 . S
N1439 C1437 1.384 . S
H1440 C1446 0.930 . S
H1441 C1450 0.930 . S
H1442 C1455 0.929 . S
H1443 C1453 0.929 . S
H1444 C1448 0.929 . S
H1445 C1454 0.929 . S
C1446 H1440 0.930 . S
C1446 C1447 1.367 . S
C1446 C1454 1.378 . S
C1447 C1446 1.367 . S
C1447 C1455 1.433 . S
C1448 H1444 0.929 . S
C1448 C1450 1.378 . S
C1448 C1452 1.350 . S
C1449 C1452 1.463 . S
C1449 C1454 1.350 . S
C1449 N1457 1.427 . S
C1450 H1441 0.930 . S
C1450 C1448 1.378 . S
C1450 C1451 1.367 . S
C1451 C1450 1.367 . S
C1451 C1453 1.433 . S
C1452 C1448 1.350 . S
C1452 C1449 1.463 . S
C1452 N1456 1.427 . S
C1453 H1443 0.929 . S
C1453 C1451 1.433 . S
C1453 N1456 1.384 . S
C1454 H1445 0.929 . S
C1454 C1446 1.378 . S
C1454 C1449 1.350 . S
C1455 H1442 0.929 . S
C1455 C1447 1.433 . S
C1455 N1457 1.384 . S
N1456 C1452 1.427 . S
N1456 C1453 1.384 . S
N1457 C1449 1.427 . S
N1457 C1455 1.384 . S
H1458 C1464 0.930 . S
H1459 C1468 0.930 . S
H1460 C1473 0.929 . S
H1461 C1471 0.929 . S
H1462 C1466 0.929 . S
H1463 C1472 0.929 . S
C1464 H1458 0.930 . S
C1464 C1465 1.367 . S
C1464 C1472 1.378 . S
C1465 C1464 1.367 . S
C1465 C1473 1.433 . S
C1466 H1462 0.929 . S
C1466 C1468 1.378 . S
C1466 C1470 1.350 . S
C1467 C1470 1.463 . S
C1467 C1472 1.350 . S
C1467 N1475 1.427 . S
C1468 H1459 0.930 . S
C1468 C1466 1.378 . S
C1468 C1469 1.367 . S
C1469 C1468 1.367 . S
C1469 C1471 1.433 . S
C1470 C1466 1.350 . S
C1470 C1467 1.463 . S
C1470 N1474 1.427 . S
C1471 H1461 0.929 . S
C1471 C1469 1.433 . S
C1471 N1474 1.384 . S
C1472 H1463 0.929 . S
C1472 C1464 1.378 . S
C1472 C1467 1.350 . S
C1473 H1460 0.929 . S
C1473 C1465 1.433 . S
C1473 N1475 1.384 . S
N1474 C1470 1.427 . S
N1474 C1471 1.384 . S
N1475 C1467 1.427 . S
N1475 C1473 1.384 . S
H1476 C1482 0.930 . S
H1477 C1486 0.930 . S
H1478 C1491 0.929 . S
H1479 C1489 0.929 . S
H1480 C1484 0.929 . S
H1481 C1490 0.929 . S
C1482 H1476 0.930 . S
C1482 C1483 1.367 . S
C1482 C1490 1.378 . S
C1483 C1482 1.367 . S
C1483 C1491 1.433 . S
C1484 H1480 0.929 . S
C1484 C1486 1.378 . S
C1484 C1488 1.350 . S
C1485 C1488 1.463 . S
C1485 C1490 1.350 . S
C1485 N1493 1.427 . S
C1486 H1477 0.930 . S
C1486 C1484 1.378 . S
C1486 C1487 1.367 . S
C1487 C1486 1.367 . S
C1487 C1489 1.433 . S
C1488 C1484 1.350 . S
C1488 C1485 1.463 . S
C1488 N1492 1.427 . S
C1489 H1479 0.929 . S
C1489 C1487 1.433 . S
C1489 N1492 1.384 . S
C1490 H1481 0.929 . S
C1490 C1482 1.378 . S
C1490 C1485 1.350 . S
C1491 H1478 0.929 . S
C1491 C1483 1.433 . S
C1491 N1493 1.384 . S
N1492 C1488 1.427 . S
N1492 C1489 1.384 . S
N1493 C1485 1.427 . S
N1493 C1491 1.384 . S
H1494 C1500 0.930 . S
H1495 C1504 0.930 . S
H1496 C1509 0.929 . S
H1497 C1507 0.929 . S
H1498 C1502 0.929 . S
H1499 C1508 0.929 . S
C1500 H1494 0.930 . S
C1500 C1501 1.367 . S
C1500 C1508 1.378 . S
C1501 C1500 1.367 . S
C1501 C1509 1.433 . S
C1502 H1498 0.929 . S
C1502 C1504 1.378 . S
C1502 C1506 1.350 . S
C1503 C1506 1.463 . S
C1503 C1508 1.350 . S
C1503 N1511 1.427 . S
C1504 H1495 0.930 . S
C1504 C1502 1.378 . S
C1504 C1505 1.367 . S
C1505 C1504 1.367 . S
C1505 C1507 1.433 . S
C1506 C1502 1.350 . S
C1506 C1503 1.463 . S
C1506 N1510 1.427 . S
C1507 H1497 0.929 . S
C1507 C1505 1.433 . S
C1507 N1510 1.384 . S
C1508 H1499 0.929 . S
C1508 C1500 1.378 . S
C1508 C1503 1.350 . S
C1509 H1496 0.929 . S
C1509 C1501 1.433 . S
C1509 N1511 1.384 . S
N1510 C1506 1.427 . S
N1510 C1507 1.384 . S
N1511 C1503 1.427 . S
N1511 C1509 1.384 . S
H1512 C1518 0.930 . S
H1513 C1522 0.930 . S
H1514 C1527 0.929 . S
H1515 C1525 0.929 . S
H1516 C1520 0.929 . S
H1517 C1526 0.929 . S
C1518 H1512 0.930 . S
C1518 C1519 1.367 . S
C1518 C1526 1.378 . S
C1519 C1518 1.367 . S
C1519 C1527 1.433 . S
C1520 H1516 0.929 . S
C1520 C1522 1.378 . S
C1520 C1524 1.350 . S
C1521 C1524 1.463 . S
C1521 C1526 1.350 . S
C1521 N1529 1.427 . S
C1522 H1513 0.930 . S
C1522 C1520 1.378 . S
C1522 C1523 1.367 . S
C1523 C1522 1.367 . S
C1523 C1525 1.433 . S
C1524 C1520 1.350 . S
C1524 C1521 1.463 . S
C1524 N1528 1.427 . S
C1525 H1515 0.929 . S
C1525 C1523 1.433 . S
C1525 N1528 1.384 . S
C1526 H1517 0.929 . S
C1526 C1518 1.378 . S
C1526 C1521 1.350 . S
C1527 H1514 0.929 . S
C1527 C1519 1.433 . S
C1527 N1529 1.384 . S
N1528 C1524 1.427 . S
N1528 C1525 1.384 . S
N1529 C1521 1.427 . S
N1529 C1527 1.384 . S
H1530 C1536 0.930 . S
H1531 C1540 0.930 . S
H1532 C1545 0.929 . S
H1533 C1543 0.929 . S
H1534 C1538 0.929 . S
H1535 C1544 0.929 . S
C1536 H1530 0.930 . S
C1536 C1537 1.367 . S
C1536 C1544 1.378 . S
C1537 C1536 1.367 . S
C1537 C1545 1.433 . S
C1538 H1534 0.929 . S
C1538 C1540 1.378 . S
C1538 C1542 1.350 . S
C1539 C1542 1.463 . S
C1539 C1544 1.350 . S
C1539 N1547 1.427 . S
C1540 H1531 0.930 . S
C1540 C1538 1.378 . S
C1540 C1541 1.367 . S
C1541 C1540 1.367 . S
C1541 C1543 1.433 . S
C1542 C1538 1.350 . S
C1542 C1539 1.463 . S
C1542 N1546 1.427 . S
C1543 H1533 0.929 . S
C1543 C1541 1.433 . S
C1543 N1546 1.384 . S
C1544 H1535 0.929 . S
C1544 C1536 1.378 . S
C1544 C1539 1.350 . S
C1545 H1532 0.929 . S
C1545 C1537 1.433 . S
C1545 N1547 1.384 . S
N1546 C1542 1.427 . S
N1546 C1543 1.384 . S
N1547 C1539 1.427 . S
N1547 C1545 1.384 . S
H1548 C1554 0.930 . S
H1549 C1558 0.930 . S
H1550 C1563 0.929 . S
H1551 C1561 0.929 . S
H1552 C1556 0.929 . S
H1553 C1562 0.929 . S
C1554 H1548 0.930 . S
C1554 C1555 1.367 . S
C1554 C1562 1.378 . S
C1555 C1554 1.367 . S
C1555 C1563 1.433 . S
C1556 H1552 0.929 . S
C1556 C1558 1.378 . S
C1556 C1560 1.350 . S
C1557 C1560 1.463 1_455 S
C1557 C1562 1.350 . S
C1557 N1565 1.427 . S
C1558 H1549 0.930 . S
C1558 C1556 1.378 . S
C1558 C1559 1.367 . S
C1559 C1558 1.367 . S
C1559 C1561 1.433 . S
C1560 C1556 1.350 . S
C1560 C1557 1.463 1_655 S
C1560 N1564 1.427 . S
C1561 H1551 0.929 . S
C1561 C1559 1.433 . S
C1561 N1564 1.384 . S
C1562 H1553 0.929 . S
C1562 C1554 1.378 . S
C1562 C1557 1.350 . S
C1563 H1550 0.929 . S
C1563 C1555 1.433 . S
C1563 N1565 1.384 . S
N1564 C1560 1.427 . S
N1564 C1561 1.384 . S
N1565 C1557 1.427 . S
N1565 C1563 1.384 . S
H1566 C1572 0.930 . S
H1567 C1576 0.930 . S
H1568 C1581 0.929 . S
H1569 C1579 0.929 . S
H1570 C1574 0.929 . S
H1571 C1580 0.929 . S
C1572 H1566 0.930 . S
C1572 C1573 1.367 . S
C1572 C1580 1.378 . S
C1573 C1572 1.367 . S
C1573 C1581 1.433 . S
C1574 H1570 0.929 . S
C1574 C1576 1.378 . S
C1574 C1578 1.350 . S
C1575 C1578 1.463 . S
C1575 C1580 1.350 . S
C1575 N1583 1.427 . S
C1576 H1567 0.930 . S
C1576 C1574 1.378 . S
C1576 C1577 1.367 . S
C1577 C1576 1.367 . S
C1577 C1579 1.433 . S
C1578 C1574 1.350 . S
C1578 C1575 1.463 . S
C1578 N1582 1.427 . S
C1579 H1569 0.929 . S
C1579 C1577 1.433 . S
C1579 N1582 1.384 . S
C1580 H1571 0.929 . S
C1580 C1572 1.378 . S
C1580 C1575 1.350 . S
C1581 H1568 0.929 . S
C1581 C1573 1.433 . S
C1581 N1583 1.384 . S
N1582 C1578 1.427 . S
N1582 C1579 1.384 . S
N1583 C1575 1.427 . S
N1583 C1581 1.384 . S
H1584 C1590 0.930 . S
H1585 C1594 0.930 . S
H1586 C1599 0.929 . S
H1587 C1597 0.929 . S
H1588 C1592 0.929 . S
H1589 C1598 0.929 . S
C1590 H1584 0.930 . S
C1590 C1591 1.367 . S
C1590 C1598 1.378 . S
C1591 C1590 1.367 . S
C1591 C1599 1.433 . S
C1592 H1588 0.929 . S
C1592 C1594 1.378 . S
C1592 C1596 1.350 . S
C1593 C1596 1.463 . S
C1593 C1598 1.350 . S
C1593 N1601 1.427 . S
C1594 H1585 0.930 . S
C1594 C1592 1.378 . S
C1594 C1595 1.367 . S
C1595 C1594 1.367 . S
C1595 C1597 1.433 . S
C1596 C1592 1.350 . S
C1596 C1593 1.463 . S
C1596 N1600 1.427 . S
C1597 H1587 0.929 . S
C1597 C1595 1.433 . S
C1597 N1600 1.384 . S
C1598 H1589 0.929 . S
C1598 C1590 1.378 . S
C1598 C1593 1.350 . S
C1599 H1586 0.929 . S
C1599 C1591 1.433 . S
C1599 N1601 1.384 . S
N1600 C1596 1.427 . S
N1600 C1597 1.384 . S
N1601 C1593 1.427 . S
N1601 C1599 1.384 . S
H1602 C1608 0.930 . S
H1603 C1612 0.930 . S
H1604 C1617 0.929 . S
H1605 C1615 0.929 . S
H1606 C1610 0.929 . S
H1607 C1616 0.929 . S
C1608 H1602 0.930 . S
C1608 C1609 1.367 . S
C1608 C1616 1.378 . S
C1609 C1608 1.367 . S
C1609 C1617 1.433 . S
C1610 H1606 0.929 . S
C1610 C1612 1.378 . S
C1610 C1614 1.350 . S
C1611 C1614 1.463 . S
C1611 C1616 1.350 . S
C1611 N1619 1.427 . S
C1612 H1603 0.930 . S
C1612 C1610 1.378 . S
C1612 C1613 1.367 . S
C1613 C1612 1.367 . S
C1613 C1615 1.433 . S
C1614 C1610 1.350 . S
C1614 C1611 1.463 . S
C1614 N1618 1.427 . S
C1615 H1605 0.929 . S
C1615 C1613 1.433 . S
C1615 N1618 1.384 . S
C1616 H1607 0.929 . S
C1616 C1608 1.378 . S
C1616 C1611 1.350 . S
C1617 H1604 0.929 . S
C1617 C1609 1.433 . S
C1617 N1619 1.384 . S
N1618 C1614 1.427 . S
N1618 C1615 1.384 . S
N1619 C1611 1.427 . S
N1619 C1617 1.384 . S
H1620 C1626 0.930 . S
H1621 C1630 0.930 . S
H1622 C1635 0.929 . S
H1623 C1633 0.929 . S
H1624 C1628 0.929 . S
H1625 C1634 0.929 . S
C1626 H1620 0.930 . S
C1626 C1627 1.367 . S
C1626 C1634 1.378 . S
C1627 C1626 1.367 . S
C1627 C1635 1.433 . S
C1628 H1624 0.929 . S
C1628 C1630 1.378 . S
C1628 C1632 1.350 . S
C1629 C1632 1.463 . S
C1629 C1634 1.350 . S
C1629 N1637 1.427 . S
C1630 H1621 0.930 . S
C1630 C1628 1.378 . S
C1630 C1631 1.367 . S
C1631 C1630 1.367 . S
C1631 C1633 1.433 . S
C1632 C1628 1.350 . S
C1632 C1629 1.463 . S
C1632 N1636 1.427 . S
C1633 H1623 0.929 . S
C1633 C1631 1.433 . S
C1633 N1636 1.384 . S
C1634 H1625 0.929 . S
C1634 C1626 1.378 . S
C1634 C1629 1.350 . S
C1635 H1622 0.929 . S
C1635 C1627 1.433 . S
C1635 N1637 1.384 . S
N1636 C1632 1.427 . S
N1636 C1633 1.384 . S
N1637 C1629 1.427 . S
N1637 C1635 1.384 . S
H1638 C1644 0.930 . S
H1639 C1648 0.930 . S
H1640 C1653 0.929 . S
H1641 C1651 0.929 . S
H1642 C1646 0.929 . S
H1643 C1652 0.929 . S
C1644 H1638 0.930 . S
C1644 C1645 1.367 . S
C1644 C1652 1.378 . S
C1645 C1644 1.367 . S
C1645 C1653 1.433 . S
C1646 H1642 0.929 . S
C1646 C1648 1.378 . S
C1646 C1650 1.350 . S
C1647 C1650 1.463 1_655 S
C1647 C1652 1.350 . S
C1647 N1655 1.427 . S
C1648 H1639 0.930 . S
C1648 C1646 1.378 . S
C1648 C1649 1.367 . S
C1649 C1648 1.367 . S
C1649 C1651 1.433 . S
C1650 C1646 1.350 . S
C1650 C1647 1.463 1_455 S
C1650 N1654 1.427 . S
C1651 H1641 0.929 . S
C1651 C1649 1.433 . S
C1651 N1654 1.384 . S
C1652 H1643 0.929 . S
C1652 C1644 1.378 . S
C1652 C1647 1.350 . S
C1653 H1640 0.929 . S
C1653 C1645 1.433 . S
C1653 N1655 1.384 . S
N1654 C1650 1.427 . S
N1654 C1651 1.384 . S
N1655 C1647 1.427 . S
N1655 C1653 1.384 . S
C1015 C74 1.633 . S
C1019 C991 1.678 . S
C1033 C830 1.684 . S
C1037 C158 1.674 . S
C1051 C235 1.680 . S
C1055 C746 1.643 . S
C1069 C326 1.653 . S
C1073 C907 1.700 . S
C1087 C410 1.673 . S
C1091 C914 1.676 . S
C1105 C487 1.685 . S
C1109 C998 1.639 . S
C1123 C823 1.696 . S
C1127 C578 1.647 . S
C1141 C655 1.662 . S
C1145 C739 1.664 . S
C1159 C319 1.664 . S
C1163 C403 1.665 . S
C1177 C67 1.701 . S
C1181 C494 1.668 . S
C1195 C151 1.675 . S
C1199 C571 1.677 . S
C1213 C662 1.678 . S
C1217 C242 1.671 . S
C1231 C69 1.421 . S
C1235 C735 1.658 . S
C1249 C153 1.434 . S
C1253 C896 1.654 . S
C1267 C980 1.657 . S
C1271 C226 1.627 . S
C1285 C321 1.395 . S
C1289 C819 1.612 . S
C1303 C405 1.418 . S
C1307 C812 1.631 . S
C1321 C728 1.631 . S
C1325 C478 1.615 . S
C1339 C903 1.623 . S
C1343 C573 1.392 . S
C1357 C987 1.679 . S
C1361 C646 1.657 . S
C1375 C56 1.634 . S
C1379 C310 1.607 . S
C1393 C58 1.598 . S
C1397 C140 1.629 . S
C1411 C142 1.634 . S
C1415 C231 1.665 . S
C1429 C308 1.628 . S
C1433 C237 1.402 . S
C1447 C489 1.398 . S
C1451 C392 1.619 . S
C1465 C483 1.652 . S
C1469 C562 1.605 . S
C1483 C560 1.626 . S
C1487 C657 1.414 . S
C1501 C394 1.624 . S
C1505 C651 1.652 . S
C1519 C730 1.573 . S
C1523 C315 1.602 . S
C1537 C476 1.615 . S
C1541 C825 1.405 . S
C1555 C741 1.399 . S
C1559 C567 1.623 . S
C1573 C898 1.637 . S
C1577 C644 1.655 . S
C1591 C399 1.647 . S
C1595 C982 1.623 . S
C1609 C993 1.408 . S
C1613 C147 1.636 . S
C1627 C224 1.655 . S
C1631 C814 1.632 . S
C1645 C909 1.427 . S
C1649 C63 1.646 . S
