# Generated by pormake.
# Topology fcq, (5)-cn, num edge types: 1
# Building blocks:
#     Node 0, Type 0, BuildingBlock: XOMCOT_clean_sbu_1, # of connection points: 5
#     Node 1, Type 0, BuildingBlock: XOMCOT_clean_sbu_1, # of connection points: 5
#     Node 2, Type 0, BuildingBlock: XOMCOT_clean_sbu_1, # of connection points: 5
#     Node 3, Type 0, BuildingBlock: XOMCOT_clean_sbu_1, # of connection points: 5
#     Node 4, Type 0, BuildingBlock: XOMCOT_clean_sbu_1, # of connection points: 5
#     Node 5, Type 0, BuildingBlock: XOMCOT_clean_sbu_1, # of connection points: 5
#     Node 6, Type 0, BuildingBlock: XOMCOT_clean_sbu_1, # of connection points: 5
#     Node 7, Type 0, BuildingBlock: XOMCOT_clean_sbu_1, # of connection points: 5
#     Node 8, Type 0, BuildingBlock: XOMCOT_clean_sbu_1, # of connection points: 5
#     Node 9, Type 0, BuildingBlock: XOMCOT_clean_sbu_1, # of connection points: 5
#     Node 10, Type 0, BuildingBlock: XOMCOT_clean_sbu_1, # of connection points: 5
#     Node 11, Type 0, BuildingBlock: XOMCOT_clean_sbu_1, # of connection points: 5
#     Node 12, Type 0, BuildingBlock: XOMCOT_clean_sbu_1, # of connection points: 5
#     Node 13, Type 0, BuildingBlock: XOMCOT_clean_sbu_1, # of connection points: 5
#     Node 14, Type 0, BuildingBlock: XOMCOT_clean_sbu_1, # of connection points: 5
#     Node 15, Type 0, BuildingBlock: XOMCOT_clean_sbu_1, # of connection points: 5
#     Node 16, Type 0, BuildingBlock: XOMCOT_clean_sbu_1, # of connection points: 5
#     Node 17, Type 0, BuildingBlock: XOMCOT_clean_sbu_1, # of connection points: 5
#     Node 18, Type 0, BuildingBlock: XOMCOT_clean_sbu_1, # of connection points: 5
#     Node 19, Type 0, BuildingBlock: XOMCOT_clean_sbu_1, # of connection points: 5
#     Node 20, Type 0, BuildingBlock: XOMCOT_clean_sbu_1, # of connection points: 5
#     Node 21, Type 0, BuildingBlock: XOMCOT_clean_sbu_1, # of connection points: 5
#     Node 22, Type 0, BuildingBlock: XOMCOT_clean_sbu_1, # of connection points: 5
#     Node 23, Type 0, BuildingBlock: XOMCOT_clean_sbu_1, # of connection points: 5
#     Node 24, Type 0, BuildingBlock: XOMCOT_clean_sbu_1, # of connection points: 5
#     Node 25, Type 0, BuildingBlock: XOMCOT_clean_sbu_1, # of connection points: 5
#     Node 26, Type 0, BuildingBlock: XOMCOT_clean_sbu_1, # of connection points: 5
#     Node 27, Type 0, BuildingBlock: XOMCOT_clean_sbu_1, # of connection points: 5
#     Node 28, Type 0, BuildingBlock: XOMCOT_clean_sbu_1, # of connection points: 5
#     Node 29, Type 0, BuildingBlock: XOMCOT_clean_sbu_1, # of connection points: 5
#     Node 30, Type 0, BuildingBlock: XOMCOT_clean_sbu_1, # of connection points: 5
#     Node 31, Type 0, BuildingBlock: XOMCOT_clean_sbu_1, # of connection points: 5
#     Node 32, Type 0, BuildingBlock: XOMCOT_clean_sbu_1, # of connection points: 5
#     Node 33, Type 0, BuildingBlock: XOMCOT_clean_sbu_1, # of connection points: 5
#     Node 34, Type 0, BuildingBlock: XOMCOT_clean_sbu_1, # of connection points: 5
#     Node 35, Type 0, BuildingBlock: XOMCOT_clean_sbu_1, # of connection points: 5
#     Node 36, Type 0, BuildingBlock: XOMCOT_clean_sbu_1, # of connection points: 5
#     Node 37, Type 0, BuildingBlock: XOMCOT_clean_sbu_1, # of connection points: 5
#     Node 38, Type 0, BuildingBlock: XOMCOT_clean_sbu_1, # of connection points: 5
#     Node 39, Type 0, BuildingBlock: XOMCOT_clean_sbu_1, # of connection points: 5
#     Node 40, Type 0, BuildingBlock: XOMCOT_clean_sbu_1, # of connection points: 5
#     Node 41, Type 0, BuildingBlock: XOMCOT_clean_sbu_1, # of connection points: 5
#     Node 42, Type 0, BuildingBlock: XOMCOT_clean_sbu_1, # of connection points: 5
#     Node 43, Type 0, BuildingBlock: XOMCOT_clean_sbu_1, # of connection points: 5
#     Node 44, Type 0, BuildingBlock: XOMCOT_clean_sbu_1, # of connection points: 5
#     Node 45, Type 0, BuildingBlock: XOMCOT_clean_sbu_1, # of connection points: 5
#     Node 46, Type 0, BuildingBlock: XOMCOT_clean_sbu_1, # of connection points: 5
#     Node 47, Type 0, BuildingBlock: XOMCOT_clean_sbu_1, # of connection points: 5
#     Edge 48, Type (0, 0), BuildingBlock: OJICUG_clean_linker_0, # of connection points: 2
#     Edge 49, Type (0, 0), BuildingBlock: OJICUG_clean_linker_0, # of connection points: 2
#     Edge 50, Type (0, 0), BuildingBlock: OJICUG_clean_linker_0, # of connection points: 2
#     Edge 51, Type (0, 0), BuildingBlock: OJICUG_clean_linker_0, # of connection points: 2
#     Edge 52, Type (0, 0), BuildingBlock: OJICUG_clean_linker_0, # of connection points: 2
#     Edge 53, Type (0, 0), BuildingBlock: OJICUG_clean_linker_0, # of connection points: 2
#     Edge 54, Type (0, 0), BuildingBlock: OJICUG_clean_linker_0, # of connection points: 2
#     Edge 55, Type (0, 0), BuildingBlock: OJICUG_clean_linker_0, # of connection points: 2
#     Edge 56, Type (0, 0), BuildingBlock: OJICUG_clean_linker_0, # of connection points: 2
#     Edge 57, Type (0, 0), BuildingBlock: OJICUG_clean_linker_0, # of connection points: 2
#     Edge 58, Type (0, 0), BuildingBlock: OJICUG_clean_linker_0, # of connection points: 2
#     Edge 59, Type (0, 0), BuildingBlock: OJICUG_clean_linker_0, # of connection points: 2
#     Edge 60, Type (0, 0), BuildingBlock: OJICUG_clean_linker_0, # of connection points: 2
#     Edge 61, Type (0, 0), BuildingBlock: OJICUG_clean_linker_0, # of connection points: 2
#     Edge 62, Type (0, 0), BuildingBlock: OJICUG_clean_linker_0, # of connection points: 2
#     Edge 63, Type (0, 0), BuildingBlock: OJICUG_clean_linker_0, # of connection points: 2
#     Edge 64, Type (0, 0), BuildingBlock: OJICUG_clean_linker_0, # of connection points: 2
#     Edge 65, Type (0, 0), BuildingBlock: OJICUG_clean_linker_0, # of connection points: 2
#     Edge 66, Type (0, 0), BuildingBlock: OJICUG_clean_linker_0, # of connection points: 2
#     Edge 67, Type (0, 0), BuildingBlock: OJICUG_clean_linker_0, # of connection points: 2
#     Edge 68, Type (0, 0), BuildingBlock: OJICUG_clean_linker_0, # of connection points: 2
#     Edge 69, Type (0, 0), BuildingBlock: OJICUG_clean_linker_0, # of connection points: 2
#     Edge 70, Type (0, 0), BuildingBlock: OJICUG_clean_linker_0, # of connection points: 2
#     Edge 71, Type (0, 0), BuildingBlock: OJICUG_clean_linker_0, # of connection points: 2
#     Edge 72, Type (0, 0), BuildingBlock: OJICUG_clean_linker_0, # of connection points: 2
#     Edge 73, Type (0, 0), BuildingBlock: OJICUG_clean_linker_0, # of connection points: 2
#     Edge 74, Type (0, 0), BuildingBlock: OJICUG_clean_linker_0, # of connection points: 2
#     Edge 75, Type (0, 0), BuildingBlock: OJICUG_clean_linker_0, # of connection points: 2
#     Edge 76, Type (0, 0), BuildingBlock: OJICUG_clean_linker_0, # of connection points: 2
#     Edge 77, Type (0, 0), BuildingBlock: OJICUG_clean_linker_0, # of connection points: 2
#     Edge 78, Type (0, 0), BuildingBlock: OJICUG_clean_linker_0, # of connection points: 2
#     Edge 79, Type (0, 0), BuildingBlock: OJICUG_clean_linker_0, # of connection points: 2
#     Edge 80, Type (0, 0), BuildingBlock: OJICUG_clean_linker_0, # of connection points: 2
#     Edge 81, Type (0, 0), BuildingBlock: OJICUG_clean_linker_0, # of connection points: 2
#     Edge 82, Type (0, 0), BuildingBlock: OJICUG_clean_linker_0, # of connection points: 2
#     Edge 83, Type (0, 0), BuildingBlock: OJICUG_clean_linker_0, # of connection points: 2
#     Edge 84, Type (0, 0), BuildingBlock: OJICUG_clean_linker_0, # of connection points: 2
#     Edge 85, Type (0, 0), BuildingBlock: OJICUG_clean_linker_0, # of connection points: 2
#     Edge 86, Type (0, 0), BuildingBlock: OJICUG_clean_linker_0, # of connection points: 2
#     Edge 87, Type (0, 0), BuildingBlock: OJICUG_clean_linker_0, # of connection points: 2
#     Edge 88, Type (0, 0), BuildingBlock: OJICUG_clean_linker_0, # of connection points: 2
#     Edge 89, Type (0, 0), BuildingBlock: OJICUG_clean_linker_0, # of connection points: 2
#     Edge 90, Type (0, 0), BuildingBlock: OJICUG_clean_linker_0, # of connection points: 2
#     Edge 91, Type (0, 0), BuildingBlock: OJICUG_clean_linker_0, # of connection points: 2
#     Edge 92, Type (0, 0), BuildingBlock: OJICUG_clean_linker_0, # of connection points: 2
#     Edge 93, Type (0, 0), BuildingBlock: OJICUG_clean_linker_0, # of connection points: 2
#     Edge 94, Type (0, 0), BuildingBlock: OJICUG_clean_linker_0, # of connection points: 2
#     Edge 95, Type (0, 0), BuildingBlock: OJICUG_clean_linker_0, # of connection points: 2
#     Edge 96, Type (0, 0), BuildingBlock: OJICUG_clean_linker_0, # of connection points: 2
#     Edge 97, Type (0, 0), BuildingBlock: OJICUG_clean_linker_0, # of connection points: 2
#     Edge 98, Type (0, 0), BuildingBlock: OJICUG_clean_linker_0, # of connection points: 2
#     Edge 99, Type (0, 0), BuildingBlock: OJICUG_clean_linker_0, # of connection points: 2
#     Edge 100, Type (0, 0), BuildingBlock: OJICUG_clean_linker_0, # of connection points: 2
#     Edge 101, Type (0, 0), BuildingBlock: OJICUG_clean_linker_0, # of connection points: 2
#     Edge 102, Type (0, 0), BuildingBlock: OJICUG_clean_linker_0, # of connection points: 2
#     Edge 103, Type (0, 0), BuildingBlock: OJICUG_clean_linker_0, # of connection points: 2
#     Edge 104, Type (0, 0), BuildingBlock: OJICUG_clean_linker_0, # of connection points: 2
#     Edge 105, Type (0, 0), BuildingBlock: OJICUG_clean_linker_0, # of connection points: 2
#     Edge 106, Type (0, 0), BuildingBlock: OJICUG_clean_linker_0, # of connection points: 2
#     Edge 107, Type (0, 0), BuildingBlock: OJICUG_clean_linker_0, # of connection points: 2
#     Edge 108, Type (0, 0), BuildingBlock: OJICUG_clean_linker_0, # of connection points: 2
#     Edge 109, Type (0, 0), BuildingBlock: OJICUG_clean_linker_0, # of connection points: 2
#     Edge 110, Type (0, 0), BuildingBlock: OJICUG_clean_linker_0, # of connection points: 2
#     Edge 111, Type (0, 0), BuildingBlock: OJICUG_clean_linker_0, # of connection points: 2
#     Edge 112, Type (0, 0), BuildingBlock: OJICUG_clean_linker_0, # of connection points: 2
#     Edge 113, Type (0, 0), BuildingBlock: OJICUG_clean_linker_0, # of connection points: 2
#     Edge 114, Type (0, 0), BuildingBlock: OJICUG_clean_linker_0, # of connection points: 2
#     Edge 115, Type (0, 0), BuildingBlock: OJICUG_clean_linker_0, # of connection points: 2
#     Edge 116, Type (0, 0), BuildingBlock: OJICUG_clean_linker_0, # of connection points: 2
#     Edge 117, Type (0, 0), BuildingBlock: OJICUG_clean_linker_0, # of connection points: 2
#     Edge 118, Type (0, 0), BuildingBlock: OJICUG_clean_linker_0, # of connection points: 2
#     Edge 119, Type (0, 0), BuildingBlock: OJICUG_clean_linker_0, # of connection points: 2
#     Edge 120, Type (0, 0), BuildingBlock: OJICUG_clean_linker_0, # of connection points: 2
#     Edge 121, Type (0, 0), BuildingBlock: OJICUG_clean_linker_0, # of connection points: 2
#     Edge 122, Type (0, 0), BuildingBlock: OJICUG_clean_linker_0, # of connection points: 2
#     Edge 123, Type (0, 0), BuildingBlock: OJICUG_clean_linker_0, # of connection points: 2
#     Edge 124, Type (0, 0), BuildingBlock: OJICUG_clean_linker_0, # of connection points: 2
#     Edge 125, Type (0, 0), BuildingBlock: OJICUG_clean_linker_0, # of connection points: 2
#     Edge 126, Type (0, 0), BuildingBlock: OJICUG_clean_linker_0, # of connection points: 2
#     Edge 127, Type (0, 0), BuildingBlock: OJICUG_clean_linker_0, # of connection points: 2
#     Edge 128, Type (0, 0), BuildingBlock: OJICUG_clean_linker_0, # of connection points: 2
#     Edge 129, Type (0, 0), BuildingBlock: OJICUG_clean_linker_0, # of connection points: 2
#     Edge 130, Type (0, 0), BuildingBlock: OJICUG_clean_linker_0, # of connection points: 2
#     Edge 131, Type (0, 0), BuildingBlock: OJICUG_clean_linker_0, # of connection points: 2
#     Edge 132, Type (0, 0), BuildingBlock: OJICUG_clean_linker_0, # of connection points: 2
#     Edge 133, Type (0, 0), BuildingBlock: OJICUG_clean_linker_0, # of connection points: 2
#     Edge 134, Type (0, 0), BuildingBlock: OJICUG_clean_linker_0, # of connection points: 2
#     Edge 135, Type (0, 0), BuildingBlock: OJICUG_clean_linker_0, # of connection points: 2
#     Edge 136, Type (0, 0), BuildingBlock: OJICUG_clean_linker_0, # of connection points: 2
#     Edge 137, Type (0, 0), BuildingBlock: OJICUG_clean_linker_0, # of connection points: 2
#     Edge 138, Type (0, 0), BuildingBlock: OJICUG_clean_linker_0, # of connection points: 2
#     Edge 139, Type (0, 0), BuildingBlock: OJICUG_clean_linker_0, # of connection points: 2
#     Edge 140, Type (0, 0), BuildingBlock: OJICUG_clean_linker_0, # of connection points: 2
#     Edge 141, Type (0, 0), BuildingBlock: OJICUG_clean_linker_0, # of connection points: 2
#     Edge 142, Type (0, 0), BuildingBlock: OJICUG_clean_linker_0, # of connection points: 2
#     Edge 143, Type (0, 0), BuildingBlock: OJICUG_clean_linker_0, # of connection points: 2
#     Edge 144, Type (0, 0), BuildingBlock: OJICUG_clean_linker_0, # of connection points: 2
#     Edge 145, Type (0, 0), BuildingBlock: OJICUG_clean_linker_0, # of connection points: 2
#     Edge 146, Type (0, 0), BuildingBlock: OJICUG_clean_linker_0, # of connection points: 2
#     Edge 147, Type (0, 0), BuildingBlock: OJICUG_clean_linker_0, # of connection points: 2
#     Edge 148, Type (0, 0), BuildingBlock: OJICUG_clean_linker_0, # of connection points: 2
#     Edge 149, Type (0, 0), BuildingBlock: OJICUG_clean_linker_0, # of connection points: 2
#     Edge 150, Type (0, 0), BuildingBlock: OJICUG_clean_linker_0, # of connection points: 2
#     Edge 151, Type (0, 0), BuildingBlock: OJICUG_clean_linker_0, # of connection points: 2
#     Edge 152, Type (0, 0), BuildingBlock: OJICUG_clean_linker_0, # of connection points: 2
#     Edge 153, Type (0, 0), BuildingBlock: OJICUG_clean_linker_0, # of connection points: 2
#     Edge 154, Type (0, 0), BuildingBlock: OJICUG_clean_linker_0, # of connection points: 2
#     Edge 155, Type (0, 0), BuildingBlock: OJICUG_clean_linker_0, # of connection points: 2
#     Edge 156, Type (0, 0), BuildingBlock: OJICUG_clean_linker_0, # of connection points: 2
#     Edge 157, Type (0, 0), BuildingBlock: OJICUG_clean_linker_0, # of connection points: 2
#     Edge 158, Type (0, 0), BuildingBlock: OJICUG_clean_linker_0, # of connection points: 2
#     Edge 159, Type (0, 0), BuildingBlock: OJICUG_clean_linker_0, # of connection points: 2
#     Edge 160, Type (0, 0), BuildingBlock: OJICUG_clean_linker_0, # of connection points: 2
#     Edge 161, Type (0, 0), BuildingBlock: OJICUG_clean_linker_0, # of connection points: 2
#     Edge 162, Type (0, 0), BuildingBlock: OJICUG_clean_linker_0, # of connection points: 2
#     Edge 163, Type (0, 0), BuildingBlock: OJICUG_clean_linker_0, # of connection points: 2
#     Edge 164, Type (0, 0), BuildingBlock: OJICUG_clean_linker_0, # of connection points: 2
#     Edge 165, Type (0, 0), BuildingBlock: OJICUG_clean_linker_0, # of connection points: 2
#     Edge 166, Type (0, 0), BuildingBlock: OJICUG_clean_linker_0, # of connection points: 2
#     Edge 167, Type (0, 0), BuildingBlock: OJICUG_clean_linker_0, # of connection points: 2
# Relax obj value: 0.453
# Max RMSD: 0.267
# Mean RMSD: 0.267
data_MOF--net-fcq--node1-XOMCOT_clean_sbu_1--edge1-OJICUG_clean_linker_0
_symmetry_space_group_name_H-M    P1
_symmetry_Int_Tables_number       1
_symmetry_cell_setting            triclinic
loop_
_symmetry_equiv_pos_as_xyz
'x, y, z'
_cell_length_a     50.376503
_cell_length_b     50.386558
_cell_length_c     50.38108
_cell_angle_alpha  90.020885
_cell_angle_beta   90.010033
_cell_angle_gamma 90.013909
loop_
_atom_site_label
_atom_site_type_symbol
_atom_site_fract_x
_atom_site_fract_y
_atom_site_fract_z
_atom_type_partial_charge
C0 C 0.20488 0.24462 0.41137 0.0
C1 C 0.22351 0.25108 0.43024 0.0
N2 N 0.22467 0.23132 0.44822 0.0
N3 N 0.194 0.22096 0.41738 0.0
C4 C 0.20676 0.21311 0.43978 0.0
H5 H 0.19953 0.25652 0.39435 0.0
Co6 Co 0.16712 0.2048 0.39717 0.0
C7 C 0.14458 0.19661 0.45105 0.0
O8 O 0.14447 0.2221 0.45653 0.0
N9 N 0.14057 0.18899 0.3768 0.0
C10 C 0.11899 0.17179 0.34241 0.0
C11 C 0.14196 0.18424 0.35052 0.0
C12 C 0.11663 0.17947 0.38425 0.0
N13 N 0.1031 0.16869 0.36372 0.0
O14 O 0.14497 0.23535 0.40186 0.0
H15 H 0.15882 0.18915 0.33817 0.0
H16 H 0.10924 0.18041 0.40438 0.0
O17 O 0.153 0.1885 0.42865 0.0
C18 C 0.14342 0.25083 0.38193 0.0
O19 O 0.15694 0.24487 0.36042 0.0
N20 N 0.18892 0.17539 0.39129 0.0
C21 C 0.22345 0.13315 0.38179 0.0
C22 C 0.19891 0.12897 0.39429 0.0
C23 C 0.18178 0.15027 0.39847 0.0
C24 C 0.21203 0.17977 0.37799 0.0
C25 C 0.22961 0.15893 0.37302 0.0
H26 H 0.16276 0.14648 0.40744 0.0
H27 H 0.21692 0.1996 0.3714 0.0
H28 H 0.20258 0.1947 0.45002 0.0
H29 H 0.23535 0.26901 0.43062 0.0
H30 H 0.11472 0.16482 0.32254 0.0
H31 H 0.19315 0.10957 0.40148 0.0
H32 H 0.24793 0.16307 0.36259 0.0
C33 C 0.49786 0.554 0.83453 0.0
C34 C 0.50421 0.53562 0.81539 0.0
N35 N 0.4843 0.53457 0.79751 0.0
N36 N 0.47409 0.56479 0.82886 0.0
C37 C 0.46609 0.5523 0.80634 0.0
H38 H 0.50983 0.5592 0.85157 0.0
Co39 Co 0.4581 0.59091 0.84999 0.0
C40 C 0.44846 0.61488 0.79703 0.0
O41 O 0.47382 0.61552 0.79099 0.0
N42 N 0.44241 0.6166 0.8714 0.0
C43 C 0.42603 0.63699 0.9069 0.0
C44 C 0.43833 0.61436 0.89774 0.0
C45 C 0.4326 0.64069 0.86495 0.0
N46 N 0.42235 0.6535 0.88619 0.0
O47 O 0.48825 0.61379 0.84492 0.0
H48 H 0.44368 0.59717 0.90943 0.0
H49 H 0.43299 0.64873 0.84505 0.0
O50 O 0.44096 0.60562 0.81929 0.0
C51 C 0.50372 0.61708 0.86466 0.0
O52 O 0.49849 0.60448 0.88689 0.0
N53 N 0.4291 0.56846 0.85612 0.0
C54 C 0.3876 0.53316 0.86689 0.0
C55 C 0.3831 0.5567 0.85268 0.0
C56 C 0.40393 0.57428 0.84802 0.0
C57 C 0.4339 0.54627 0.87074 0.0
C58 C 0.41343 0.52843 0.87652 0.0
H59 H 0.39961 0.59261 0.83798 0.0
H60 H 0.45375 0.54241 0.87796 0.0
H61 H 0.44752 0.55648 0.79639 0.0
H62 H 0.52213 0.52378 0.81485 0.0
H63 H 0.41959 0.64064 0.92706 0.0
H64 H 0.36379 0.56147 0.84458 0.0
H65 H 0.41797 0.51111 0.88836 0.0
C66 C 0.80033 0.25802 0.41815 0.0
C67 C 0.78309 0.25181 0.43835 0.0
N68 N 0.78679 0.26917 0.45836 0.0
N69 N 0.81513 0.27911 0.42526 0.0
C70 C 0.80639 0.28555 0.44994 0.0
H71 H 0.80172 0.24806 0.3992 0.0
Co72 Co 0.83985 0.29426 0.40197 0.0
C73 C 0.86643 0.33702 0.43186 0.0
O74 O 0.86545 0.35159 0.41024 0.0
N75 N 0.86504 0.30854 0.37763 0.0
C76 C 0.88564 0.32719 0.34317 0.0
C77 C 0.8619 0.31741 0.35249 0.0
C78 C 0.89135 0.31172 0.38232 0.0
N79 N 0.90409 0.32402 0.36219 0.0
O80 O 0.86302 0.26462 0.40729 0.0
H81 H 0.84363 0.31748 0.34141 0.0
H82 H 0.90072 0.30631 0.40087 0.0
O83 O 0.8568 0.31345 0.43157 0.0
C84 C 0.8626 0.2481 0.38813 0.0
O85 O 0.84711 0.25311 0.36774 0.0
N86 N 0.81558 0.32217 0.39576 0.0
C87 C 0.77556 0.3588 0.38417 0.0
C88 C 0.78872 0.35937 0.40864 0.0
C89 C 0.80814 0.34058 0.41428 0.0
C90 C 0.80183 0.32028 0.37254 0.0
C91 C 0.78226 0.33879 0.36598 0.0
H92 H 0.81608 0.34036 0.4341 0.0
H93 H 0.80556 0.30382 0.3593 0.0
H94 H 0.81417 0.30186 0.46154 0.0
H95 H 0.76845 0.23608 0.43804 0.0
H96 H 0.88865 0.33723 0.32442 0.0
H97 H 0.78306 0.37328 0.42403 0.0
H98 H 0.772 0.33696 0.34718 0.0
C99 C 0.50799 0.94928 0.83702 0.0
C100 C 0.50116 0.96798 0.81837 0.0
N101 N 0.52041 0.96902 0.79978 0.0
N102 N 0.5314 0.93828 0.83034 0.0
C103 C 0.53871 0.95095 0.80771 0.0
H104 H 0.49661 0.94403 0.85444 0.0
Co105 Co 0.54796 0.91176 0.85051 0.0
C106 C 0.55607 0.88841 0.797 0.0
O107 O 0.53058 0.88784 0.7915 0.0
N108 N 0.56431 0.88568 0.87093 0.0
C109 C 0.58178 0.86473 0.90555 0.0
C110 C 0.56886 0.88733 0.89723 0.0
C111 C 0.57448 0.86196 0.86366 0.0
N112 N 0.5854 0.84882 0.88434 0.0
O113 O 0.51772 0.88904 0.84591 0.0
H114 H 0.56343 0.90412 0.90947 0.0
H115 H 0.57385 0.8544 0.84358 0.0
O116 O 0.56409 0.89753 0.81914 0.0
C117 C 0.50258 0.88598 0.86592 0.0
O118 O 0.50828 0.89869 0.88798 0.0
N119 N 0.57708 0.93409 0.85628 0.0
C120 C 0.61874 0.96891 0.86787 0.0
C121 C 0.62279 0.94655 0.85172 0.0
C122 C 0.60189 0.92918 0.84661 0.0
C123 C 0.57273 0.9552 0.87258 0.0
C124 C 0.5933 0.97277 0.87878 0.0
H125 H 0.60593 0.91176 0.83498 0.0
H126 H 0.55318 0.95831 0.88088 0.0
H127 H 0.55687 0.94671 0.79707 0.0
H128 H 0.48341 0.98006 0.81868 0.0
H129 H 0.58865 0.86071 0.9255 0.0
H130 H 0.64178 0.9426 0.84252 0.0
H131 H 0.58917 0.98921 0.89198 0.0
C132 C 0.2069 0.75672 0.08965 0.0
C133 C 0.22548 0.75071 0.0706 0.0
N134 N 0.22624 0.77066 0.0528 0.0
N135 N 0.19562 0.78026 0.08393 0.0
C136 C 0.20812 0.78853 0.06153 0.0
H137 H 0.20191 0.74461 0.10663 0.0
Co138 Co 0.16885 0.79591 0.10472 0.0
C139 C 0.14539 0.80272 0.05119 0.0
O140 O 0.1479 0.77748 0.04513 0.0
N141 N 0.14252 0.81126 0.1257 0.0
C142 C 0.12162 0.82877 0.16036 0.0
C143 C 0.14437 0.81613 0.15193 0.0
C144 C 0.11848 0.82082 0.11863 0.0
N145 N 0.10541 0.83186 0.13929 0.0
O146 O 0.14733 0.76476 0.10098 0.0
H147 H 0.16149 0.81135 0.16398 0.0
H148 H 0.11074 0.81989 0.09864 0.0
O149 O 0.15318 0.81124 0.07362 0.0
C150 C 0.1464 0.74921 0.12088 0.0
O151 O 0.16041 0.75518 0.14207 0.0
N152 N 0.18993 0.82605 0.10951 0.0
C153 C 0.22311 0.8694 0.11807 0.0
C154 C 0.19859 0.87264 0.10537 0.0
C155 C 0.18212 0.85075 0.10154 0.0
C156 C 0.21324 0.82264 0.12281 0.0
C157 C 0.23023 0.84412 0.12729 0.0
H158 H 0.16304 0.85383 0.09229 0.0
H159 H 0.21878 0.80309 0.12971 0.0
H160 H 0.20362 0.80699 0.05152 0.0
H161 H 0.23761 0.73299 0.06999 0.0
H162 H 0.11778 0.83602 0.18022 0.0
H163 H 0.1922 0.89196 0.09844 0.0
H164 H 0.24905 0.84085 0.13716 0.0
C165 C 0.00445 0.55579 0.17156 0.0
C166 C 0.99799 0.53716 0.19041 0.0
N167 N 0.01739 0.53652 0.20885 0.0
N168 N 0.02776 0.56715 0.17798 0.0
C169 C 0.03535 0.55482 0.2007 0.0
H170 H 0.99299 0.56056 0.15406 0.0
Co171 Co 0.04428 0.59292 0.15691 0.0
C172 C 0.05276 0.61848 0.20957 0.0
O173 O 0.02747 0.61911 0.2159 0.0
N174 N 0.06072 0.61831 0.13542 0.0
C175 C 0.07658 0.63888 0.09975 0.0
C176 C 0.06283 0.61706 0.10877 0.0
C177 C 0.07318 0.64112 0.14215 0.0
N178 N 0.08319 0.65397 0.12083 0.0
O179 O 0.01396 0.61581 0.16047 0.0
H180 H 0.05505 0.60114 0.09666 0.0
H181 H 0.07477 0.64834 0.16228 0.0
O182 O 0.06007 0.6087 0.1875 0.0
C183 C 0.9986 0.61808 0.14051 0.0
O184 O 0.00378 0.60416 0.11906 0.0
N185 N 0.07357 0.57035 0.15227 0.0
C186 C 0.11631 0.53748 0.13959 0.0
C187 C 0.11663 0.55294 0.16269 0.0
C188 C 0.09509 0.56912 0.16876 0.0
C189 C 0.07257 0.55501 0.13002 0.0
C190 C 0.09377 0.53842 0.12323 0.0
H191 H 0.09601 0.58024 0.18693 0.0
H192 H 0.05527 0.55588 0.11733 0.0
H193 H 0.05358 0.5593 0.21115 0.0
H194 H 0.9805 0.52469 0.19022 0.0
H195 H 0.08186 0.64293 0.07933 0.0
H196 H 0.1332 0.55212 0.17638 0.0
H197 H 0.09261 0.52662 0.1053 0.0
C198 C 0.80053 0.7478 0.08558 0.0
C199 C 0.78263 0.75354 0.06579 0.0
N200 N 0.78491 0.73503 0.04664 0.0
N201 N 0.81435 0.72588 0.07901 0.0
C202 C 0.80438 0.7185 0.05507 0.0
H203 H 0.80293 0.75862 0.10395 0.0
Co204 Co 0.83916 0.71073 0.10227 0.0
C205 C 0.86519 0.66747 0.07264 0.0
O206 O 0.86428 0.65313 0.09443 0.0
N207 N 0.86438 0.69647 0.12663 0.0
C208 C 0.88465 0.67814 0.16145 0.0
C209 C 0.86112 0.68823 0.15196 0.0
C210 C 0.89061 0.69263 0.12195 0.0
N211 N 0.90312 0.68047 0.14233 0.0
O212 O 0.86265 0.73998 0.0964 0.0
H213 H 0.84288 0.68884 0.16307 0.0
H214 H 0.90007 0.69742 0.10328 0.0
O215 O 0.85567 0.69108 0.07274 0.0
C216 C 0.86269 0.75672 0.11536 0.0
O217 O 0.84726 0.75225 0.13592 0.0
N218 N 0.81467 0.68315 0.10901 0.0
C219 C 0.77478 0.64673 0.12145 0.0
C220 C 0.78796 0.64556 0.09703 0.0
C221 C 0.80727 0.66428 0.09095 0.0
C222 C 0.80085 0.68562 0.13214 0.0
C223 C 0.78124 0.66728 0.13909 0.0
H224 H 0.81518 0.66397 0.07114 0.0
H225 H 0.80461 0.70238 0.14502 0.0
H226 H 0.81113 0.70139 0.04401 0.0
H227 H 0.76848 0.7697 0.06586 0.0
H228 H 0.8875 0.66845 0.1804 0.0
H229 H 0.7824 0.63118 0.08204 0.0
H230 H 0.77084 0.66956 0.15775 0.0
C231 C 0.99955 0.9535 0.16545 0.0
C232 C 0.00527 0.97175 0.18492 0.0
N233 N 0.98557 0.9714 0.20303 0.0
N234 N 0.97642 0.94141 0.17119 0.0
C235 C 0.96812 0.95302 0.19403 0.0
H236 H 0.01155 0.94928 0.14817 0.0
Co237 Co 0.96133 0.9148 0.15002 0.0
C238 C 0.95159 0.89023 0.20296 0.0
O239 O 0.97687 0.88968 0.20932 0.0
N240 N 0.94649 0.88862 0.12861 0.0
C241 C 0.93068 0.86766 0.09317 0.0
C242 C 0.94346 0.89014 0.10208 0.0
C243 C 0.93563 0.86508 0.13541 0.0
N244 N 0.92563 0.85198 0.11424 0.0
O245 O 0.99204 0.89289 0.15528 0.0
H246 H 0.94963 0.90686 0.0901 0.0
H247 H 0.93488 0.85771 0.15554 0.0
O248 O 0.94431 0.89972 0.18071 0.0
C249 C 0.00828 0.89199 0.13591 0.0
O250 O 0.003 0.906 0.11456 0.0
N251 N 0.93188 0.93642 0.14352 0.0
C252 C 0.88985 0.97065 0.13172 0.0
C253 C 0.88569 0.94741 0.14651 0.0
C254 C 0.9068 0.93034 0.1517 0.0
C255 C 0.93634 0.9583 0.12833 0.0
C256 C 0.9156 0.97561 0.12204 0.0
H257 H 0.90277 0.91224 0.16223 0.0
H258 H 0.95615 0.9623 0.12106 0.0
H259 H 0.94992 0.94774 0.20413 0.0
H260 H 0.02262 0.9844 0.18557 0.0
H261 H 0.9247 0.86365 0.07293 0.0
H262 H 0.86643 0.94253 0.15467 0.0
H263 H 0.91986 0.99273 0.10981 0.0
C264 C 0.41565 0.2056 0.253 0.0
C265 C 0.43528 0.2234 0.25945 0.0
N266 N 0.45514 0.22095 0.24173 0.0
N267 N 0.42299 0.19165 0.23141 0.0
C268 C 0.44724 0.20148 0.22491 0.0
H269 H 0.39685 0.20338 0.26308 0.0
Co270 Co 0.39988 0.16702 0.21577 0.0
C271 C 0.43001 0.14064 0.17292 0.0
O272 O 0.40861 0.14198 0.15803 0.0
N273 N 0.37557 0.14204 0.20113 0.0
C274 C 0.34103 0.12204 0.18197 0.0
C275 C 0.35035 0.14542 0.19259 0.0
C276 C 0.38026 0.11586 0.19708 0.0
N277 N 0.36012 0.10356 0.18432 0.0
O278 O 0.40526 0.14332 0.24501 0.0
H279 H 0.33925 0.16365 0.19326 0.0
H280 H 0.39887 0.10633 0.20199 0.0
O281 O 0.42959 0.15025 0.19651 0.0
C282 C 0.38668 0.14327 0.26217 0.0
O283 O 0.36622 0.159 0.2584 0.0
N284 N 0.3938 0.19161 0.18802 0.0
C285 C 0.38233 0.23087 0.15054 0.0
C286 C 0.40687 0.21786 0.15046 0.0
C287 C 0.41244 0.19886 0.16966 0.0
C288 C 0.37059 0.20543 0.18959 0.0
C289 C 0.36412 0.22467 0.17068 0.0
H290 H 0.43226 0.19094 0.17007 0.0
H291 H 0.35723 0.20192 0.206 0.0
H292 H 0.45886 0.19466 0.20821 0.0
H293 H 0.43461 0.23765 0.27552 0.0
H294 H 0.3223 0.11939 0.17177 0.0
H295 H 0.42229 0.22323 0.13646 0.0
H296 H 0.34529 0.23493 0.17218 0.0
C297 C 0.45284 0.33721 0.00727 0.0
C298 C 0.47079 0.31764 1.00113 0.0
N299 N 0.46876 0.29817 0.01934 0.0
N300 N 0.43916 0.33028 0.02916 0.0
C301 C 0.44936 0.30629 0.03616 0.0
H302 H 0.45027 0.3557 0.99671 0.0
Co303 Co 0.41432 0.35363 0.04432 0.0
C304 C 0.3869 0.32406 0.08675 0.0
O305 O 0.38791 0.34566 0.10136 0.0
N306 N 0.38916 0.37812 0.05853 0.0
C307 C 0.36901 0.4127 0.07746 0.0
C308 C 0.39264 0.40312 0.06768 0.0
C309 C 0.36276 0.37379 0.06156 0.0
N310 N 0.35027 0.39399 0.07405 0.0
O311 O 0.39118 0.34837 0.0146 0.0
H312 H 0.4111 0.41388 0.06798 0.0
H313 H 0.35313 0.35541 0.056 0.0
O314 O 0.3971 0.32412 0.06341 0.0
C315 C 0.39118 0.36756 0.99812 0.0
O316 O 0.40634 0.38821 0.00308 0.0
N317 N 0.43848 0.35973 0.07235 0.0
C318 C 0.47845 0.37104 0.1091 0.0
C319 C 0.46473 0.34689 0.10998 0.0
C320 C 0.44534 0.34138 0.09113 0.0
C321 C 0.45271 0.38263 0.07023 0.0
C322 C 0.47234 0.38903 0.08875 0.0
H323 H 0.43699 0.32174 0.0912 0.0
H324 H 0.44925 0.39576 0.05361 0.0
H325 H 0.44281 0.295 0.05319 0.0
H326 H 0.48482 0.31805 0.98485 0.0
H327 H 0.36626 0.43137 0.08773 0.0
H328 H 0.46993 0.33165 0.12423 0.0
H329 H 0.48305 0.40755 0.08673 0.0
C330 C 0.58739 0.30276 0.2524 0.0
C331 C 0.56794 0.28492 0.25926 0.0
N332 N 0.54837 0.28623 0.24107 0.0
N333 N 0.58025 0.31556 0.23006 0.0
C334 C 0.55627 0.30507 0.22357 0.0
H335 H 0.60592 0.30591 0.26277 0.0
Co336 Co 0.60316 0.34 0.214 0.0
C337 C 0.57316 0.36561 0.17076 0.0
O338 O 0.59464 0.36426 0.156 0.0
N339 N 0.62725 0.36487 0.19892 0.0
C340 C 0.6613 0.38513 0.17921 0.0
C341 C 0.65225 0.3616 0.18969 0.0
C342 C 0.62241 0.39106 0.19526 0.0
N343 N 0.64224 0.40355 0.18229 0.0
O344 O 0.59727 0.36424 0.24273 0.0
H345 H 0.66335 0.34335 0.1898 0.0
H346 H 0.60387 0.40047 0.20067 0.0
O347 O 0.57346 0.35616 0.19439 0.0
C348 C 0.61648 0.36734 0.25887 0.0
O349 O 0.6385 0.35394 0.25486 0.0
N350 N 0.60952 0.31492 0.18673 0.0
C351 C 0.62122 0.27504 0.14996 0.0
C352 C 0.59668 0.28803 0.14953 0.0
C353 C 0.591 0.30735 0.16837 0.0
C354 C 0.63277 0.3012 0.18863 0.0
C355 C 0.63935 0.28162 0.17008 0.0
H356 H 0.57119 0.31527 0.1685 0.0
H357 H 0.64612 0.30516 0.20496 0.0
H358 H 0.54479 0.31105 0.20645 0.0
H359 H 0.5685 0.27147 0.27601 0.0
H360 H 0.6798 0.38798 0.16865 0.0
H361 H 0.58134 0.2824 0.13554 0.0
H362 H 0.65819 0.27143 0.17182 0.0
C363 C 0.55019 0.16567 0.00897 0.0
C364 C 0.53215 0.18505 0.00249 0.0
N365 N 0.53427 0.20496 0.02023 0.0
N366 N 0.564 0.17316 0.03059 0.0
C367 C 0.55381 0.19729 0.0371 0.0
H368 H 0.55274 0.14694 0.99882 0.0
Co369 Co 0.58902 0.15025 0.0461 0.0
C370 C 0.6165 0.1807 0.08788 0.0
O371 O 0.61559 0.15934 0.10284 0.0
N372 N 0.61439 0.12623 0.06066 0.0
C373 C 0.63507 0.09242 0.08037 0.0
C374 C 0.61121 0.10153 0.07065 0.0
C375 C 0.6408 0.13083 0.06317 0.0
N376 N 0.65362 0.11113 0.07609 0.0
O377 O 0.61206 0.15506 0.01613 0.0
H378 H 0.59281 0.0907 0.07163 0.0
H379 H 0.65019 0.14912 0.05695 0.0
O380 O 0.60619 0.18021 0.06458 0.0
C381 C 0.61232 0.13564 0.99991 0.0
O382 O 0.59736 0.1149 0.0051 0.0
N383 N 0.56496 0.1446 0.0744 0.0
C384 C 0.5249 0.13416 0.11137 0.0
C385 C 0.53863 0.15831 0.1117 0.0
C386 C 0.55805 0.16338 0.09275 0.0
C387 C 0.5508 0.12159 0.07286 0.0
C388 C 0.53111 0.11566 0.09149 0.0
H389 H 0.56636 0.18303 0.09236 0.0
H390 H 0.55434 0.10802 0.05662 0.0
H391 H 0.56047 0.20901 0.05381 0.0
H392 H 0.51802 0.18423 0.98632 0.0
H393 H 0.63811 0.07412 0.0912 0.0
H394 H 0.5334 0.17389 0.12556 0.0
H395 H 0.52042 0.09707 0.0899 0.0
C396 C 0.41696 0.7961 0.25018 0.0
C397 C 0.43659 0.778 0.24454 0.0
N398 N 0.45572 0.7801 0.26313 0.0
N399 N 0.4236 0.80991 0.2721 0.0
C400 C 0.44727 0.79949 0.27972 0.0
H401 H 0.39879 0.79875 0.23912 0.0
Co402 Co 0.40192 0.83616 0.28735 0.0
C403 C 0.45376 0.86255 0.29814 0.0
O404 O 0.46027 0.86499 0.27301 0.0
N405 N 0.37992 0.86212 0.30249 0.0
C406 C 0.34396 0.88514 0.31383 0.0
C407 C 0.35333 0.86364 0.29976 0.0
C408 C 0.38624 0.88292 0.31825 0.0
N409 N 0.36474 0.89722 0.32554 0.0
O410 O 0.40685 0.85841 0.25701 0.0
H411 H 0.3414 0.84986 0.28843 0.0
H412 H 0.40627 0.88779 0.32413 0.0
O413 O 0.43192 0.85169 0.3046 0.0
C414 C 0.38843 0.85722 0.23972 0.0
O415 O 0.36855 0.84082 0.24375 0.0
N416 N 0.39567 0.81398 0.31634 0.0
C417 C 0.38268 0.77696 0.35535 0.0
C418 C 0.40706 0.79043 0.35606 0.0
C419 C 0.4132 0.80886 0.33638 0.0
C420 C 0.37173 0.8015 0.31554 0.0
C421 C 0.36466 0.78314 0.33502 0.0
H422 H 0.43253 0.81799 0.33692 0.0
H423 H 0.35826 0.80538 0.29929 0.0
H424 H 0.45823 0.80603 0.29697 0.0
H425 H 0.43651 0.76401 0.22824 0.0
H426 H 0.32339 0.89102 0.3157 0.0
H427 H 0.42193 0.78584 0.37088 0.0
H428 H 0.34556 0.77337 0.3337 0.0
C429 C 0.04887 0.34148 0.99383 0.0
C430 C 0.03074 0.32207 1.0001 0.0
N431 N 0.03102 0.30352 0.9808 0.0
N432 N 0.06085 0.33525 0.97077 0.0
C433 C 0.04926 0.31219 0.96306 0.0
H434 H 0.05314 0.35902 0.00543 0.0
Co435 Co 0.08745 0.35585 0.95488 0.0
C436 C 0.11218 0.30266 0.94918 0.0
O437 O 0.11127 0.29762 0.97474 0.0
N438 N 0.11365 0.37661 0.93913 0.0
C439 C 0.13465 0.41122 0.92166 0.0
C440 C 0.11189 0.40286 0.93431 0.0
C441 C 0.13761 0.36946 0.92946 0.0
N442 N 0.15077 0.3901 0.9185 0.0
O443 O 0.10895 0.35272 0.98609 0.0
H444 H 0.09489 0.41499 0.93927 0.0
H445 H 0.14531 0.34945 0.93038 0.0
O446 O 0.10325 0.32451 0.94022 0.0
C447 C 0.1099 0.37283 1.00139 0.0
O448 O 0.09604 0.394 0.9951 0.0
N449 N 0.0662 0.36021 0.92478 0.0
C450 C 0.03198 0.36951 0.88213 0.0
C451 C 0.05439 0.35319 0.87921 0.0
C452 C 0.07146 0.34916 0.90061 0.0
C453 C 0.04508 0.37674 0.92794 0.0
C454 C 0.02779 0.3818 0.90685 0.0
H455 H 0.08879 0.33709 0.89749 0.0
H456 H 0.04166 0.38602 0.947 0.0
H457 H 0.05452 0.30166 0.94508 0.0
H458 H 0.01822 0.32175 0.01755 0.0
H459 H 0.13861 0.43111 0.91457 0.0
H460 H 0.05853 0.34299 0.86077 0.0
H461 H 0.01126 0.39514 0.91004 0.0
C462 C 0.5883 0.69804 0.25426 0.0
C463 C 0.56934 0.71626 0.24696 0.0
N464 N 0.55108 0.71789 0.26646 0.0
N465 N 0.58208 0.68793 0.27818 0.0
C466 C 0.55947 0.70069 0.28535 0.0
H467 H 0.60554 0.69241 0.24277 0.0
Co468 Co 0.60234 0.66197 0.29544 0.0
C469 C 0.54898 0.63858 0.30156 0.0
O470 O 0.54377 0.63997 0.27604 0.0
N471 N 0.62286 0.63647 0.31248 0.0
C472 C 0.65725 0.61642 0.3314 0.0
C473 C 0.649 0.63861 0.31773 0.0
C474 C 0.61563 0.61288 0.32292 0.0
N475 N 0.63614 0.60033 0.33477 0.0
O476 O 0.59886 0.63901 0.26543 0.0
H477 H 0.66113 0.65549 0.31236 0.0
H478 H 0.5957 0.60499 0.32191 0.0
O479 O 0.57099 0.647 0.31057 0.0
C480 C 0.61888 0.63509 0.25057 0.0
O481 O 0.64128 0.64726 0.25613 0.0
N482 N 0.60665 0.68448 0.32458 0.0
C483 C 0.61571 0.72031 0.3659 0.0
C484 C 0.5998 0.69775 0.36977 0.0
C485 C 0.59584 0.67988 0.34901 0.0
C486 C 0.62281 0.70573 0.32054 0.0
C487 C 0.62772 0.72385 0.34095 0.0
H488 H 0.58403 0.66243 0.35281 0.0
H489 H 0.6319 0.70861 0.3013 0.0
H490 H 0.54906 0.69698 0.30377 0.0
H491 H 0.56913 0.72753 0.22868 0.0
H492 H 0.67701 0.61285 0.33903 0.0
H493 H 0.58988 0.69411 0.38847 0.0
H494 H 0.64074 0.74049 0.33708 0.0
C495 C 0.95458 0.16809 0.99466 0.0
C496 C 0.97241 0.18785 1.00069 0.0
N497 N 0.97157 0.20632 0.98135 0.0
N498 N 0.94222 0.17401 0.97172 0.0
C499 C 0.95329 0.19726 0.96382 0.0
H500 H 0.95081 0.15049 0.00634 0.0
Co501 Co 0.91601 0.15257 0.95634 0.0
C502 C 0.88999 0.20504 0.9483 0.0
O503 O 0.89006 0.21124 0.97363 0.0
N504 N 0.89023 0.13088 0.94109 0.0
C505 C 0.86984 0.09535 0.92474 0.0
C506 C 0.89233 0.10448 0.93736 0.0
C507 C 0.86633 0.13736 0.93081 0.0
N508 N 0.85356 0.11613 0.92051 0.0
O509 O 0.89434 0.15639 0.98729 0.0
H510 H 0.90937 0.09274 0.94305 0.0
H511 H 0.85838 0.15728 0.93083 0.0
O512 O 0.89978 0.18309 0.94056 0.0
C513 C 0.89403 0.13665 0.00305 0.0
O514 O 0.90849 0.11574 0.99719 0.0
N515 N 0.93752 0.14747 0.92657 0.0
C516 C 0.9718 0.13596 0.88458 0.0
C517 C 0.95075 0.1539 0.88134 0.0
C518 C 0.93367 0.15912 0.90242 0.0
C519 C 0.95743 0.12956 0.93008 0.0
C520 C 0.97473 0.12337 0.90932 0.0
H521 H 0.91752 0.17262 0.89902 0.0
H522 H 0.95981 0.12 0.94916 0.0
H523 H 0.9477 0.20759 0.94584 0.0
H524 H 0.98516 0.18844 0.01798 0.0
H525 H 0.86619 0.07514 0.91842 0.0
H526 H 0.94777 0.16448 0.86288 0.0
H527 H 0.99029 0.10896 0.91273 0.0
C528 C 0.24857 0.42261 0.19724 0.0
C529 C 0.25487 0.44122 0.21618 0.0
N530 N 0.23482 0.45889 0.21791 0.0
N531 N 0.2247 0.42839 0.18675 0.0
C532 C 0.21659 0.45042 0.2 0.0
H533 H 0.26061 0.40579 0.19154 0.0
Co534 Co 0.20826 0.40777 0.1604 0.0
C535 C 0.20051 0.4614 0.13786 0.0
O536 O 0.22585 0.46738 0.13939 0.0
N537 N 0.19196 0.38688 0.13464 0.0
C538 C 0.17445 0.35177 0.11452 0.0
C539 C 0.1876 0.36058 0.1368 0.0
C540 C 0.18142 0.39366 0.11094 0.0
N541 N 0.17047 0.37266 0.09829 0.0
O542 O 0.23865 0.41192 0.13763 0.0
H543 H 0.19329 0.34868 0.15374 0.0
H544 H 0.18176 0.41362 0.10306 0.0
O545 O 0.19232 0.43882 0.14556 0.0
C546 C 0.25359 0.39174 0.13462 0.0
O547 O 0.24782 0.36987 0.14761 0.0
N548 N 0.17904 0.40247 0.18267 0.0
C549 C 0.13751 0.39049 0.21742 0.0
C550 C 0.1336 0.40771 0.19586 0.0
C551 C 0.15446 0.41311 0.1785 0.0
C552 C 0.18323 0.38534 0.20311 0.0
C553 C 0.16272 0.37894 0.22065 0.0
H554 H 0.15054 0.42578 0.16172 0.0
H555 H 0.20261 0.37645 0.20566 0.0
H556 H 0.19785 0.46025 0.1963 0.0
H557 H 0.27282 0.44147 0.22798 0.0
H558 H 0.16763 0.33172 0.11096 0.0
H559 H 0.11474 0.41743 0.19255 0.0
H560 H 0.16669 0.36501 0.23651 0.0
C561 C 0.24705 0.58766 0.30586 0.0
C562 C 0.25357 0.56921 0.28684 0.0
N563 N 0.23397 0.55102 0.28539 0.0
N564 N 0.22348 0.58127 0.31666 0.0
C565 C 0.21577 0.559 0.30355 0.0
H566 H 0.25875 0.60477 0.31144 0.0
Co567 Co 0.20721 0.60149 0.34342 0.0
C568 C 0.19779 0.54792 0.36592 0.0
O569 O 0.2232 0.54215 0.36684 0.0
N570 N 0.19118 0.62194 0.36974 0.0
C571 C 0.17409 0.65666 0.39086 0.0
C572 C 0.18718 0.64834 0.36835 0.0
C573 C 0.1805 0.6146 0.39323 0.0
N574 N 0.16979 0.63536 0.40645 0.0
O575 O 0.23723 0.59594 0.36624 0.0
H576 H 0.19302 0.66064 0.35176 0.0
H577 H 0.18051 0.59441 0.40049 0.0
O578 O 0.19017 0.57027 0.35699 0.0
C579 C 0.25254 0.6158 0.36957 0.0
O580 O 0.24712 0.63799 0.35699 0.0
N581 N 0.17837 0.60826 0.32107 0.0
C582 C 0.13684 0.6212 0.28667 0.0
C583 C 0.13219 0.60634 0.30978 0.0
C584 C 0.15309 0.60054 0.32691 0.0
C585 C 0.18332 0.62342 0.29927 0.0
C586 C 0.16284 0.63022 0.28184 0.0
H587 H 0.14873 0.59007 0.34499 0.0
H588 H 0.20329 0.63034 0.29547 0.0
H589 H 0.19736 0.54866 0.30751 0.0
H590 H 0.27136 0.56942 0.27481 0.0
H591 H 0.16751 0.67668 0.39498 0.0
H592 H 0.11268 0.59869 0.3145 0.0
H593 H 0.16745 0.64241 0.26477 0.0
C594 C 0.83588 0.49847 0.95339 0.0
C595 C 0.81704 0.4924 0.97216 0.0
N596 N 0.79927 0.51238 0.97325 0.0
N597 N 0.83008 0.52208 0.94231 0.0
C598 C 0.8078 0.53028 0.95507 0.0
H599 H 0.85293 0.48648 0.94833 0.0
Co600 Co 0.85122 0.53838 0.91628 0.0
C601 C 0.79836 0.54697 0.89249 0.0
O602 O 0.79203 0.52171 0.89389 0.0
N603 N 0.87272 0.55455 0.89071 0.0
C604 C 0.90824 0.57036 0.8698 0.0
C605 C 0.8994 0.55653 0.89167 0.0
C606 C 0.86583 0.56704 0.868 0.0
N607 N 0.88702 0.57709 0.85499 0.0
O608 O 0.8469 0.50841 0.89339 0.0
H609 H 0.91166 0.54868 0.90743 0.0
H610 H 0.84565 0.56863 0.86093 0.0
O611 O 0.82075 0.55496 0.90095 0.0
C612 C 0.86638 0.49235 0.89253 0.0
O613 O 0.8873 0.49727 0.90734 0.0
N614 N 0.85677 0.56703 0.93899 0.0
C615 C 0.86853 0.60487 0.97764 0.0
C616 C 0.84648 0.60801 0.96086 0.0
C617 C 0.84102 0.58896 0.94151 0.0
C618 C 0.87863 0.56397 0.95453 0.0
C619 C 0.88512 0.58282 0.97372 0.0
H620 H 0.8236 0.59166 0.92938 0.0
H621 H 0.89084 0.54646 0.95229 0.0
H622 H 0.79784 0.54884 0.95091 0.0
H623 H 0.8167 0.47473 0.98436 0.0
H624 H 0.92862 0.57567 0.86559 0.0
H625 H 0.83278 0.62437 0.96335 0.0
H626 H 0.90263 0.57971 0.98578 0.0
C627 C 0.75656 0.91401 0.29666 0.0
C628 C 0.75046 0.93323 0.2783 0.0
N629 N 0.76965 0.95189 0.27873 0.0
N630 N 0.77943 0.92041 0.30891 0.0
C631 C 0.78719 0.94344 0.2973 0.0
H632 H 0.74501 0.89641 0.30083 0.0
Co633 Co 0.79479 0.89956 0.33562 0.0
C634 C 0.80327 0.95264 0.36032 0.0
O635 O 0.77786 0.95849 0.36066 0.0
N636 N 0.80988 0.87846 0.36194 0.0
C637 C 0.82599 0.84331 0.38312 0.0
C638 C 0.81361 0.85203 0.36034 0.0
C639 C 0.81992 0.88539 0.38581 0.0
N640 N 0.83007 0.8644 0.39908 0.0
O641 O 0.76381 0.90422 0.35736 0.0
H642 H 0.80811 0.83999 0.34343 0.0
H643 H 0.81989 0.90548 0.39335 0.0
O644 O 0.81107 0.93056 0.35085 0.0
C645 C 0.74778 0.88468 0.35844 0.0
O646 O 0.75336 0.86319 0.34474 0.0
N647 N 0.82458 0.89372 0.31416 0.0
C648 C 0.8671 0.88351 0.27994 0.0
C649 C 0.87079 0.89792 0.30353 0.0
C650 C 0.84945 0.90231 0.32057 0.0
C651 C 0.8206 0.87884 0.29196 0.0
C652 C 0.84159 0.87335 0.27465 0.0
H653 H 0.85312 0.91258 0.3389 0.0
H654 H 0.80098 0.87124 0.28766 0.0
H655 H 0.8051 0.95403 0.30266 0.0
H656 H 0.73323 0.9333 0.26547 0.0
H657 H 0.8323 0.82319 0.38719 0.0
H658 H 0.88983 0.9064 0.3087 0.0
H659 H 0.83769 0.86135 0.25728 0.0
C660 C 0.66259 0.49321 0.4597 0.0
C661 C 0.68264 0.5006 0.47664 0.0
N662 N 0.7038 0.48493 0.47209 0.0
N663 N 0.67095 0.47305 0.44427 0.0
C664 C 0.69624 0.46835 0.4523 0.0
H665 H 0.64295 0.5018 0.45881 0.0
Co666 Co 0.64819 0.45766 0.41937 0.0
C667 C 0.67952 0.41789 0.38987 0.0
O668 O 0.65868 0.40218 0.39059 0.0
N669 N 0.62412 0.44338 0.39401 0.0
C670 C 0.59056 0.42346 0.37312 0.0
C671 C 0.59959 0.43292 0.39712 0.0
C672 C 0.62853 0.44165 0.36754 0.0
N673 N 0.60909 0.4285 0.35459 0.0
O674 O 0.65192 0.4883 0.39733 0.0
H675 H 0.58886 0.43143 0.41552 0.0
H676 H 0.64662 0.44846 0.35817 0.0
O677 O 0.67838 0.44084 0.40089 0.0
C678 C 0.63264 0.50462 0.39685 0.0
O679 O 0.61153 0.49954 0.4113 0.0
N680 N 0.64414 0.4281 0.4424 0.0
C681 C 0.6356 0.3853 0.47647 0.0
C682 C 0.66011 0.38875 0.46399 0.0
C683 C 0.66426 0.41069 0.44783 0.0
C684 C 0.62106 0.42647 0.45648 0.0
C685 C 0.61614 0.40493 0.47336 0.0
H686 H 0.68397 0.41358 0.44015 0.0
H687 H 0.60643 0.44207 0.45477 0.0
H688 H 0.70891 0.45326 0.44381 0.0
H689 H 0.68151 0.51598 0.49162 0.0
H690 H 0.57254 0.41219 0.36997 0.0
H691 H 0.67632 0.37503 0.46739 0.0
H692 H 0.59741 0.40366 0.48384 0.0
C693 C 0.25514 0.58478 0.69796 0.0
C694 C 0.24895 0.56557 0.71631 0.0
N695 N 0.26904 0.54791 0.71735 0.0
N696 N 0.27896 0.57934 0.68719 0.0
C697 C 0.28717 0.55692 0.69965 0.0
H698 H 0.24301 0.6017 0.69275 0.0
Co699 Co 0.29504 0.60033 0.66109 0.0
C700 C 0.30431 0.54725 0.63717 0.0
O701 O 0.27894 0.54122 0.63676 0.0
N702 N 0.31093 0.62158 0.63544 0.0
C703 C 0.32785 0.65692 0.61527 0.0
C704 C 0.31468 0.64798 0.63749 0.0
C705 C 0.32183 0.61486 0.61189 0.0
N706 N 0.33244 0.63599 0.59925 0.0
O707 O 0.2649 0.59542 0.63826 0.0
H708 H 0.30864 0.65984 0.65433 0.0
H709 H 0.32206 0.59485 0.60415 0.0
O710 O 0.31191 0.56951 0.64636 0.0
C711 C 0.24947 0.61522 0.63532 0.0
O712 O 0.25483 0.6373 0.64814 0.0
N713 N 0.32401 0.60635 0.68351 0.0
C714 C 0.36542 0.61806 0.71853 0.0
C715 C 0.3699 0.60286 0.6956 0.0
C716 C 0.3491 0.59768 0.67814 0.0
C717 C 0.31924 0.62177 0.70517 0.0
C718 C 0.33968 0.62801 0.72287 0.0
H719 H 0.3534 0.58681 0.66028 0.0
H720 H 0.29945 0.62934 0.70864 0.0
H721 H 0.30583 0.54715 0.69547 0.0
H722 H 0.23102 0.56482 0.72812 0.0
H723 H 0.33431 0.67708 0.61163 0.0
H724 H 0.38918 0.59445 0.69125 0.0
H725 H 0.33521 0.64048 0.73978 0.0
C726 C 0.83593 0.50443 0.55297 0.0
C727 C 0.81671 0.51026 0.53447 0.0
N728 N 0.79947 0.48983 0.53336 0.0
N729 N 0.83081 0.48055 0.56384 0.0
C730 C 0.8086 0.47198 0.55124 0.0
H731 H 0.85269 0.51683 0.55806 0.0
Co732 Co 0.85195 0.4641 0.58968 0.0
C733 C 0.79898 0.45378 0.61348 0.0
O734 O 0.79229 0.47896 0.61428 0.0
N735 N 0.87336 0.44767 0.61518 0.0
C736 C 0.9089 0.43259 0.63658 0.0
C737 C 0.90011 0.44681 0.61495 0.0
C738 C 0.86635 0.43402 0.6372 0.0
N739 N 0.88758 0.42445 0.65052 0.0
O740 O 0.84721 0.49377 0.61304 0.0
H741 H 0.91247 0.45574 0.59985 0.0
H742 H 0.84606 0.43127 0.64356 0.0
O743 O 0.82147 0.44691 0.60431 0.0
C744 C 0.8665 0.51012 0.61367 0.0
O745 O 0.88722 0.50552 0.59851 0.0
N746 N 0.85799 0.43582 0.56645 0.0
C747 C 0.87025 0.39846 0.52745 0.0
C748 C 0.84771 0.3954 0.54352 0.0
C749 C 0.84196 0.41422 0.56297 0.0
C750 C 0.88031 0.43883 0.55154 0.0
C751 C 0.887 0.42025 0.53212 0.0
H752 H 0.82402 0.41166 0.57428 0.0
H753 H 0.89271 0.45613 0.55442 0.0
H754 H 0.79903 0.45321 0.55536 0.0
H755 H 0.81569 0.52809 0.52253 0.0
H756 H 0.92937 0.42809 0.64128 0.0
H757 H 0.83382 0.37931 0.54034 0.0
H758 H 0.90479 0.42334 0.52047 0.0
C759 C 0.16636 0.00398 0.55544 0.0
C760 C 0.18531 0.99651 0.53729 0.0
N761 N 0.20347 0.01608 0.53532 0.0
N762 N 0.17248 0.02809 0.56518 0.0
C763 C 0.19502 0.03518 0.55226 0.0
H764 H 0.14918 0.9925 0.56127 0.0
Co765 Co 0.15208 0.04563 0.59085 0.0
C766 C 0.20548 0.05247 0.6142 0.0
O767 O 0.21099 0.02701 0.61304 0.0
N768 N 0.13143 0.06287 0.61606 0.0
C769 C 0.09711 0.0821 0.6359 0.0
C770 C 0.1055 0.06887 0.61349 0.0
C771 C 0.13839 0.07241 0.64012 0.0
N772 N 0.11791 0.08441 0.65257 0.0
O773 O 0.15547 0.01583 0.6142 0.0
H774 H 0.09359 0.06423 0.59624 0.0
H775 H 0.15809 0.07052 0.64842 0.0
O776 O 0.18333 0.0611 0.60577 0.0
C777 C 0.13524 1.00124 0.61819 0.0
O778 O 0.11298 0.00691 0.60583 0.0
N779 N 0.14784 0.07454 0.56798 0.0
C780 C 0.13898 0.11561 0.53182 0.0
C781 C 0.15438 0.11976 0.55468 0.0
C782 C 0.15823 0.09913 0.5727 0.0
C783 C 0.13218 0.0702 0.54641 0.0
C784 C 0.12738 0.09047 0.52812 0.0
H785 H 0.16959 0.10316 0.5904 0.0
H786 H 0.12338 0.05084 0.54341 0.0
H787 H 0.20533 0.05373 0.55565 0.0
H788 H 0.18557 0.97807 0.52627 0.0
H789 H 0.07745 0.09008 0.63929 0.0
H790 H 0.16397 0.13861 0.55847 0.0
H791 H 0.11474 0.08637 0.51124 0.0
C792 C 0.7065 0.74038 0.91231 0.0
C793 C 0.72422 0.74746 0.93178 0.0
N794 N 0.72115 0.73086 0.95249 0.0
N795 N 0.69198 0.71952 0.92058 0.0
C796 C 0.70141 0.71405 0.94524 0.0
H797 H 0.70451 0.74966 0.89307 0.0
Co798 Co 0.66667 0.70415 0.89804 0.0
C799 C 0.6367 0.66504 0.92982 0.0
O800 O 0.63691 0.64924 0.90904 0.0
N801 N 0.64105 0.68986 0.87415 0.0
C802 C 0.62022 0.66998 0.84053 0.0
C803 C 0.64424 0.6792 0.84973 0.0
C804 C 0.61451 0.68841 0.87838 0.0
N805 N 0.60157 0.67532 0.85885 0.0
O806 O 0.64491 0.73514 0.90155 0.0
H807 H 0.66273 0.67748 0.83917 0.0
H808 H 0.60505 0.69544 0.89634 0.0
O809 O 0.6482 0.68775 0.9285 0.0
C810 C 0.64454 0.75112 0.88196 0.0
O811 O 0.65877 0.74539 0.86086 0.0
N812 N 0.68942 0.67436 0.89404 0.0
C813 C 0.72354 0.63168 0.88522 0.0
C814 C 0.71062 0.63462 0.90956 0.0
C815 C 0.69444 0.65652 0.91389 0.0
C816 C 0.70379 0.6731 0.87112 0.0
C817 C 0.72076 0.65165 0.86608 0.0
H818 H 0.68655 0.65905 0.93354 0.0
H819 H 0.70221 0.68891 0.85671 0.0
H820 H 0.69397 0.69826 0.95772 0.0
H821 H 0.73871 0.76329 0.93055 0.0
H822 H 0.6171 0.65873 0.82249 0.0
H823 H 0.71374 0.62054 0.92552 0.0
H824 H 0.73156 0.65071 0.84752 0.0
C825 C 0.99641 0.04929 0.33787 0.0
C826 C 0.00286 0.03124 0.31847 0.0
N827 N 0.98376 0.03163 0.29972 0.0
N828 N 0.97342 0.06131 0.33148 0.0
C829 C 0.96592 0.04984 0.30828 0.0
H830 H 0.00783 0.05344 0.35556 0.0
Co831 Co 0.9578 0.08778 0.35244 0.0
C832 C 0.94897 0.11242 0.2994 0.0
O833 O 0.97439 0.11312 0.29361 0.0
N834 N 0.94251 0.11382 0.3737 0.0
C835 C 0.92657 0.13468 0.40912 0.0
C836 C 0.93893 0.112 0.40013 0.0
C837 C 0.93236 0.13771 0.36702 0.0
N838 N 0.92235 0.15079 0.3882 0.0
O839 O 0.98858 0.1098 0.34785 0.0
H840 H 0.9446 0.09504 0.41201 0.0
H841 H 0.93229 0.14541 0.34699 0.0
O842 O 0.94127 0.10292 0.3215 0.0
C843 C 0.00459 0.11076 0.36741 0.0
O844 O 0.999 0.09692 0.3888 0.0
N845 N 0.92826 0.066 0.35824 0.0
C846 C 0.88623 0.03113 0.3682 0.0
C847 C 0.88222 0.05472 0.35391 0.0
C848 C 0.90332 0.07209 0.34965 0.0
C849 C 0.93252 0.04383 0.37306 0.0
C850 C 0.91177 0.02621 0.37845 0.0
H851 H 0.89941 0.09041 0.33946 0.0
H852 H 0.95219 0.03979 0.38067 0.0
H853 H 0.94804 0.05511 0.29762 0.0
H854 H 0.02029 0.01869 0.31829 0.0
H855 H 0.92043 0.13859 0.42933 0.0
H856 H 0.86313 0.05964 0.34539 0.0
H857 H 0.9159 0.00886 0.3904 0.0
C858 C 0.30054 0.76125 0.91627 0.0
C859 C 0.28338 0.75478 0.93646 0.0
N860 N 0.28753 0.77157 0.95686 0.0
N861 N 0.31572 0.78192 0.92378 0.0
C862 C 0.30732 0.78786 0.9487 0.0
H863 H 0.30162 0.75174 0.89706 0.0
Co864 Co 0.34049 0.79713 0.9006 0.0
C865 C 0.36595 0.84073 0.92997 0.0
O866 O 0.36469 0.85472 0.90798 0.0
N867 N 0.36582 0.81143 0.8764 0.0
C868 C 0.38694 0.82995 0.84219 0.0
C869 C 0.36306 0.82019 0.85117 0.0
C870 C 0.39204 0.81471 0.8815 0.0
N871 N 0.40509 0.82691 0.86152 0.0
O872 O 0.36382 0.76766 0.90623 0.0
H873 H 0.34499 0.82015 0.83979 0.0
H874 H 0.40113 0.80939 0.90023 0.0
O875 O 0.35704 0.81687 0.93018 0.0
C876 C 0.36329 0.7512 0.88702 0.0
O877 O 0.34769 0.75631 0.86673 0.0
N878 N 0.316 0.82479 0.89404 0.0
C879 C 0.27598 0.86132 0.88224 0.0
C880 C 0.28858 0.86154 0.90701 0.0
C881 C 0.30795 0.84275 0.91274 0.0
C882 C 0.30271 0.82316 0.87053 0.0
C883 C 0.28311 0.84163 0.86389 0.0
H884 H 0.31544 0.8422 0.93274 0.0
H885 H 0.30676 0.80689 0.85714 0.0
H886 H 0.31546 0.80374 0.96064 0.0
H887 H 0.2685 0.73929 0.93589 0.0
H888 H 0.39026 0.83987 0.82342 0.0
H889 H 0.28249 0.87516 0.9225 0.0
H890 H 0.27317 0.84001 0.84491 0.0
C891 C 0.00494 0.44744 0.33669 0.0
C892 C 0.99824 0.46655 0.31842 0.0
N893 N 0.01809 0.46873 0.30057 0.0
N894 N 0.02886 0.43729 0.33049 0.0
C895 C 0.03659 0.4509 0.30857 0.0
H896 H 0.99314 0.44138 0.35355 0.0
Co897 Co 0.04567 0.41077 0.35051 0.0
C898 C 0.05474 0.38935 0.29635 0.0
O899 O 0.02934 0.38928 0.29044 0.0
N900 N 0.0622 0.38475 0.37083 0.0
C901 C 0.0799 0.36399 0.40543 0.0
C902 C 0.06686 0.3865 0.3971 0.0
C903 C 0.07241 0.36105 0.36358 0.0
N904 N 0.08347 0.34801 0.38427 0.0
O905 O 0.01583 0.3876 0.34541 0.0
H906 H 0.06144 0.40331 0.40931 0.0
H907 H 0.07173 0.35347 0.3435 0.0
O908 O 0.06244 0.39728 0.31906 0.0
C909 C 1.00084 0.3843 0.3655 0.0
O910 O 0.00646 0.39713 0.38752 0.0
N911 N 0.07435 0.43342 0.35678 0.0
C912 C 0.11548 0.46865 0.36867 0.0
C913 C 0.12018 0.44577 0.35349 0.0
C914 C 0.0995 0.42819 0.34822 0.0
C915 C 0.0694 0.45498 0.37228 0.0
C916 C 0.08969 0.47281 0.37859 0.0
H917 H 0.10394 0.41033 0.33739 0.0
H918 H 0.04956 0.4583 0.37981 0.0
H919 H 0.05525 0.44754 0.29848 0.0
H920 H 0.98017 0.47816 0.31852 0.0
H921 H 0.0869 0.36009 0.42536 0.0
H922 H 0.13952 0.44156 0.34516 0.0
H923 H 0.08508 0.48967 0.39107 0.0
C924 C 0.70576 0.2565 0.59117 0.0
C925 C 0.72437 0.2502 0.57223 0.0
N926 N 0.72505 0.2698 0.55405 0.0
N927 N 0.6944 0.27988 0.585 0.0
C928 C 0.70686 0.28776 0.56244 0.0
H929 H 0.70079 0.2447 0.60838 0.0
Co930 Co 0.66762 0.29575 0.60554 0.0
C931 C 0.64382 0.30167 0.55218 0.0
O932 O 0.64626 0.27634 0.54648 0.0
N933 N 0.64131 0.31138 0.62629 0.0
C934 C 0.62039 0.32921 0.66077 0.0
C935 C 0.64321 0.31662 0.65245 0.0
C936 C 0.6172 0.3207 0.61916 0.0
N937 N 0.60411 0.33189 0.63972 0.0
O938 O 0.64611 0.26463 0.60204 0.0
H939 H 0.66036 0.31205 0.66453 0.0
H940 H 0.60937 0.31938 0.59922 0.0
O941 O 0.6519 0.31058 0.57435 0.0
C942 C 0.64463 0.24924 0.62202 0.0
O943 O 0.65809 0.25531 0.64354 0.0
N944 N 0.68875 0.32585 0.61006 0.0
C945 C 0.72272 0.36864 0.61924 0.0
C946 C 0.69945 0.37185 0.60424 0.0
C947 C 0.68254 0.35031 0.60018 0.0
C948 C 0.71069 0.32244 0.62543 0.0
C949 C 0.72794 0.34358 0.63034 0.0
H950 H 0.66451 0.3535 0.58908 0.0
H951 H 0.71484 0.30313 0.63384 0.0
H952 H 0.70228 0.30601 0.55208 0.0
H953 H 0.73656 0.23251 0.57197 0.0
H954 H 0.61654 0.33664 0.68056 0.0
H955 H 0.69454 0.39065 0.59509 0.0
H956 H 0.74524 0.3402 0.64263 0.0
C957 C 0.50427 0.0546 0.66993 0.0
C958 C 0.49814 0.03595 0.68888 0.0
N959 N 0.51828 0.03464 0.70649 0.0
N960 N 0.52811 0.0653 0.67547 0.0
C961 C 0.53637 0.05251 0.69769 0.0
H962 H 0.49213 0.05998 0.65307 0.0
Co963 Co 0.54446 0.09144 0.65468 0.0
C964 C 0.5528 0.1154 0.70783 0.0
O965 O 0.52741 0.11539 0.71379 0.0
N966 N 0.56073 0.11712 0.6337 0.0
C967 C 0.57873 0.13723 0.59886 0.0
C968 C 0.56525 0.11505 0.60742 0.0
C969 C 0.57144 0.14068 0.64069 0.0
N970 N 0.58274 0.15328 0.61989 0.0
O971 O 0.51429 0.11428 0.65901 0.0
H972 H 0.55955 0.09819 0.5954 0.0
H973 H 0.57107 0.14845 0.66069 0.0
O974 O 0.56065 0.1063 0.68564 0.0
C975 C 0.49932 0.1173 0.63887 0.0
O976 O 0.50492 0.1042 0.61702 0.0
N977 N 0.57352 0.06907 0.64913 0.0
C978 C 0.61522 0.03481 0.6364 0.0
C979 C 0.61918 0.05643 0.65353 0.0
C980 C 0.59825 0.07353 0.65928 0.0
C981 C 0.56922 0.04852 0.63214 0.0
C982 C 0.58981 0.03121 0.62537 0.0
H983 H 0.60225 0.0904 0.67172 0.0
H984 H 0.54971 0.04574 0.62359 0.0
H985 H 0.5551 0.05652 0.70742 0.0
H986 H 0.48026 0.02405 0.68942 0.0
H987 H 0.58582 0.14079 0.5789 0.0
H988 H 0.63817 0.06002 0.66292 0.0
H989 H 0.58578 0.01525 0.61156 0.0
C990 C 0.2991 0.24292 0.58453 0.0
C991 C 0.28188 0.24909 0.5643 0.0
N992 N 0.28601 0.23205 0.5441 0.0
N993 N 0.3143 0.22218 0.57725 0.0
C994 C 0.30583 0.21591 0.55244 0.0
H995 H 0.30022 0.25268 0.60361 0.0
Co996 Co 0.33916 0.20741 0.60055 0.0
C997 C 0.36831 0.16665 0.56984 0.0
O998 O 0.368 0.15149 0.59107 0.0
N999 N 0.36437 0.19362 0.62508 0.0
C1000 C 0.38454 0.17515 0.65987 0.0
C1001 C 0.36087 0.18464 0.65012 0.0
C1002 C 0.39083 0.191 0.62097 0.0
N1003 N 0.40332 0.17867 0.64125 0.0
O1004 O 0.3614 0.23802 0.59626 0.0
H1005 H 0.34239 0.18436 0.66084 0.0
H1006 H 0.40052 0.19669 0.60267 0.0
O1007 O 0.35743 0.18967 0.57069 0.0
C1008 C 0.36108 0.25447 0.61548 0.0
O1009 O 0.34582 0.24934 0.63601 0.0
N1010 N 0.31595 0.17815 0.60553 0.0
C1011 C 0.28164 0.13608 0.61644 0.0
C1012 C 0.29425 0.13801 0.59182 0.0
C1013 C 0.31056 0.1596 0.58645 0.0
C1014 C 0.30174 0.17798 0.62858 0.0
C1015 C 0.28477 0.15684 0.63471 0.0
H1016 H 0.31833 0.16128 0.56664 0.0
H1017 H 0.30347 0.19441 0.64226 0.0
H1018 H 0.31397 0.19992 0.54067 0.0
H1019 H 0.26698 0.26456 0.5647 0.0
H1020 H 0.3873 0.16497 0.67858 0.0
H1021 H 0.29084 0.12335 0.57644 0.0
H1022 H 0.27425 0.15673 0.65345 0.0
C1023 C 0.49753 0.45254 0.66519 0.0
C1024 C 0.50355 0.47114 0.68421 0.0
N1025 N 0.48435 0.4709 0.70286 0.0
N1026 N 0.47469 0.44028 0.6717 0.0
C1027 C 0.46688 0.45216 0.6946 0.0
H1028 H 0.50906 0.44826 0.64762 0.0
Co1029 Co 0.4593 0.41349 0.65089 0.0
C1030 C 0.45086 0.38894 0.7039 0.0
O1031 O 0.47626 0.3887 0.70983 0.0
N1032 N 0.44408 0.38716 0.62979 0.0
C1033 C 0.42835 0.36616 0.59434 0.0
C1034 C 0.44122 0.38858 0.60324 0.0
C1035 C 0.43294 0.36374 0.63662 0.0
N1036 N 0.42303 0.35058 0.61542 0.0
O1037 O 0.49017 0.39173 0.65563 0.0
H1038 H 0.44765 0.40516 0.59121 0.0
H1039 H 0.43201 0.35644 0.65678 0.0
O1040 O 0.44306 0.39837 0.68181 0.0
C1041 C 0.50623 0.39076 0.63612 0.0
O1042 O 0.5007 0.40457 0.6147 0.0
N1043 N 0.42968 0.43501 0.64488 0.0
C1044 C 0.38767 0.46927 0.63325 0.0
C1045 C 0.38378 0.44675 0.64919 0.0
C1046 C 0.40488 0.42966 0.65436 0.0
C1047 C 0.43383 0.45621 0.62869 0.0
C1048 C 0.41309 0.47354 0.62248 0.0
H1049 H 0.40104 0.41218 0.66594 0.0
H1050 H 0.4534 0.45966 0.62056 0.0
H1051 H 0.44895 0.4469 0.70521 0.0
H1052 H 0.52072 0.48406 0.68411 0.0
H1053 H 0.42258 0.36209 0.57404 0.0
H1054 H 0.36476 0.44252 0.65822 0.0
H1055 H 0.41707 0.49013 0.60945 0.0
C1056 C 0.9162 0.70393 0.75532 0.0
C1057 C 0.93495 0.72278 0.76145 0.0
N1058 N 0.95279 0.72393 0.74154 0.0
N1059 N 0.92212 0.69285 0.73173 0.0
C1060 C 0.94439 0.7057 0.72361 0.0
H1061 H 0.89912 0.69882 0.76724 0.0
Co1062 Co 0.90102 0.66679 0.71541 0.0
C1063 C 0.95394 0.64306 0.70686 0.0
O1064 O 0.96032 0.6446 0.73211 0.0
N1065 N 0.87954 0.64117 0.69926 0.0
C1066 C 0.84405 0.62 0.68371 0.0
C1067 C 0.85287 0.64215 0.6971 0.0
C1068 C 0.88644 0.61816 0.68732 0.0
N1069 N 0.86526 0.60496 0.67745 0.0
O1070 O 0.90526 0.6439 0.74548 0.0
H1071 H 0.84062 0.65808 0.70461 0.0
H1072 H 0.9066 0.61098 0.68608 0.0
O1073 O 0.93151 0.65141 0.6989 0.0
C1074 C 0.88578 0.64284 0.76155 0.0
O1075 O 0.86479 0.65755 0.75673 0.0
N1076 N 0.89558 0.68949 0.68663 0.0
C1077 C 0.88425 0.72816 0.64862 0.0
C1078 C 0.90627 0.71131 0.6457 0.0
C1079 C 0.91151 0.69197 0.66482 0.0
C1080 C 0.87375 0.70511 0.68949 0.0
C1081 C 0.86748 0.7243 0.67057 0.0
H1082 H 0.92894 0.67982 0.66225 0.0
H1083 H 0.86139 0.70293 0.70691 0.0
H1084 H 0.95442 0.70158 0.70507 0.0
H1085 H 0.93515 0.73501 0.77912 0.0
H1086 H 0.82368 0.61568 0.67841 0.0
H1087 H 0.92011 0.71374 0.62945 0.0
H1088 H 0.84997 0.73639 0.67353 0.0
C1089 C 0.95246 0.83659 0.50551 0.0
C1090 C 0.97043 0.81688 0.49979 0.0
N1091 N 0.96802 0.79762 0.51816 0.0
N1092 N 0.93847 0.82986 0.52727 0.0
C1093 C 0.94841 0.80591 0.53458 0.0
H1094 H 0.9501 0.85502 0.49479 0.0
Co1095 Co 0.91348 0.85288 0.54236 0.0
C1096 C 0.88742 0.82298 0.5855 0.0
O1097 O 0.88808 0.84482 0.59979 0.0
N1098 N 0.88806 0.877 0.55656 0.0
C1099 C 0.86738 0.91148 0.57506 0.0
C1100 C 0.89109 0.90226 0.56513 0.0
C1101 C 0.86183 0.87212 0.56004 0.0
N1102 N 0.84906 0.89227 0.5723 0.0
O1103 O 0.89021 0.84698 0.51285 0.0
H1104 H 0.90927 0.91348 0.56488 0.0
H1105 H 0.85256 0.85342 0.55495 0.0
O1106 O 0.89701 0.82312 0.56191 0.0
C1107 C 0.89019 0.86604 0.49622 0.0
O1108 O 0.90536 0.88673 0.50104 0.0
N1109 N 0.93779 0.85968 0.57015 0.0
C1110 C 0.97736 0.87224 0.60691 0.0
C1111 C 0.96436 0.84772 0.60784 0.0
C1112 C 0.94521 0.84158 0.58896 0.0
C1113 C 0.95146 0.88291 0.56788 0.0
C1114 C 0.9709 0.88993 0.5864 0.0
H1115 H 0.93745 0.82171 0.58911 0.0
H1116 H 0.94771 0.89584 0.55118 0.0
H1117 H 0.94153 0.79473 0.55156 0.0
H1118 H 0.98472 0.81706 0.48374 0.0
H1119 H 0.86433 0.9303 0.58497 0.0
H1120 H 0.96993 0.83271 0.62218 0.0
H1121 H 0.98117 0.90869 0.58429 0.0
C1122 C 0.08567 0.80492 0.75047 0.0
C1123 C 0.06599 0.78739 0.75747 0.0
N1124 N 0.04602 0.78945 0.73979 0.0
N1125 N 0.07831 0.81825 0.72853 0.0
C1126 C 0.05396 0.8084 0.72241 0.0
H1127 H 0.10449 0.80751 0.76048 0.0
Co1128 Co 0.10133 0.84257 0.71246 0.0
C1129 C 0.07153 0.86801 0.66906 0.0
O1130 O 0.09304 0.86645 0.65436 0.0
N1131 N 0.12547 0.86738 0.69731 0.0
C1132 C 0.1594 0.88764 0.6774 0.0
C1133 C 0.15041 0.86411 0.68793 0.0
C1134 C 0.1206 0.89357 0.69367 0.0
N1135 N 0.14037 0.90608 0.6806 0.0
O1136 O 0.09557 0.86688 0.74122 0.0
H1137 H 0.16152 0.84587 0.68796 0.0
H1138 H 0.10211 0.90299 0.69922 0.0
O1139 O 0.07173 0.85875 0.69277 0.0
C1140 C 0.11487 0.86963 0.75733 0.0
O1141 O 0.13669 0.85596 0.75315 0.0
N1142 N 0.10765 0.81738 0.68527 0.0
C1143 C 0.11928 0.777 0.64896 0.0
C1144 C 0.09468 0.78992 0.64849 0.0
C1145 C 0.08905 0.80954 0.66709 0.0
C1146 C 0.13095 0.80378 0.68719 0.0
C1147 C 0.13751 0.78402 0.66884 0.0
H1148 H 0.06922 0.81745 0.66725 0.0
H1149 H 0.14435 0.80793 0.70343 0.0
H1150 H 0.04228 0.81489 0.70562 0.0
H1151 H 0.06668 0.77364 0.77396 0.0
H1152 H 0.17787 0.8905 0.66681 0.0
H1153 H 0.07925 0.78404 0.63472 0.0
H1154 H 0.15644 0.77399 0.6706 0.0
C1155 C 0.04636 0.66336 0.51315 0.0
C1156 C 0.02873 0.68283 0.5059 0.0
N1157 N 0.03168 0.70354 0.52254 0.0
N1158 N 0.06069 0.67163 0.53415 0.0
C1159 C 0.05125 0.6963 0.53953 0.0
H1160 H 0.04842 0.64411 0.50388 0.0
Co1161 Co 0.08585 0.64918 0.54972 0.0
C1162 C 0.11546 0.68104 0.58916 0.0
O1163 O 0.11532 0.66018 0.60484 0.0
N1164 N 0.11135 0.62536 0.56417 0.0
C1165 C 0.13222 0.59166 0.58383 0.0
C1166 C 0.10817 0.60091 0.57475 0.0
C1167 C 0.13788 0.62959 0.56556 0.0
N1168 N 0.15086 0.61 0.57846 0.0
O1169 O 0.10792 0.65273 0.51891 0.0
H1170 H 0.08969 0.59032 0.57645 0.0
H1171 H 0.14732 0.64756 0.55853 0.0
O1172 O 0.10414 0.6797 0.56635 0.0
C1173 C 0.10851 0.63316 0.50289 0.0
O1174 O 0.09418 0.61206 0.50838 0.0
N1175 N 0.06285 0.64513 0.57934 0.0
C1176 C 0.02862 0.63624 0.62194 0.0
C1177 C 0.04144 0.66062 0.619 0.0
C1178 C 0.05768 0.66498 0.59714 0.0
C1179 C 0.04854 0.62217 0.58057 0.0
C1180 C 0.03152 0.61709 0.60197 0.0
H1181 H 0.06552 0.68466 0.59463 0.0
H1182 H 0.05023 0.60773 0.56478 0.0
H1183 H 0.05856 0.70878 0.55539 0.0
H1184 H 0.01438 0.68161 0.48995 0.0
H1185 H 0.1354 0.57355 0.59493 0.0
H1186 H 0.03824 0.67659 0.63306 0.0
H1187 H 0.02081 0.59847 0.60291 0.0
C1188 C 0.91711 0.29788 0.75264 0.0
C1189 C 0.93694 0.28002 0.74697 0.0
N1190 N 0.95485 0.28054 0.76686 0.0
N1191 N 0.92245 0.3099 0.77591 0.0
C1192 C 0.94538 0.29862 0.78434 0.0
H1193 H 0.8999 0.30193 0.74049 0.0
Co1194 Co 0.90116 0.33623 0.79119 0.0
C1195 C 0.954 0.36145 0.799 0.0
O1196 O 0.95991 0.361 0.77361 0.0
N1197 N 0.87965 0.3621 0.80631 0.0
C1198 C 0.84415 0.38251 0.82264 0.0
C1199 C 0.85313 0.36039 0.80929 0.0
C1200 C 0.88638 0.38538 0.81775 0.0
N1201 N 0.86518 0.39813 0.82809 0.0
O1202 O 0.90532 0.35801 0.76029 0.0
H1203 H 0.84121 0.34376 0.80276 0.0
H1204 H 0.90647 0.39283 0.81869 0.0
O1205 O 0.93195 0.35215 0.80706 0.0
C1206 C 0.88604 0.35859 0.74394 0.0
O1207 O 0.865 0.34397 0.74887 0.0
N1208 N 0.89581 0.31482 0.82105 0.0
C1209 C 0.88439 0.28132 0.86378 0.0
C1210 C 0.90082 0.30359 0.86702 0.0
C1211 C 0.90589 0.3203 0.8456 0.0
C1212 C 0.87931 0.29374 0.81747 0.0
C1213 C 0.87318 0.2768 0.83858 0.0
H1214 H 0.91785 0.33762 0.84906 0.0
H1215 H 0.87076 0.29015 0.79809 0.0
H1216 H 0.95525 0.30397 0.80266 0.0
H1217 H 0.93801 0.26753 0.72952 0.0
H1218 H 0.8239 0.38627 0.82874 0.0
H1219 H 0.91029 0.30796 0.8858 0.0
H1220 H 0.85982 0.26036 0.83506 0.0
C1221 C 0.54907 0.83996 0.49459 0.0
C1222 C 0.53056 0.82091 0.50088 0.0
N1223 N 0.5294 0.80318 0.48087 0.0
N1224 N 0.55988 0.83429 0.47081 0.0
C1225 C 0.5472 0.81193 0.46271 0.0
H1226 H 0.55439 0.85685 0.5067 0.0
Co1227 Co 0.58662 0.85468 0.45465 0.0
C1228 C 0.60951 0.801 0.4468 0.0
O1229 O 0.60943 0.79563 0.47232 0.0
N1230 N 0.61303 0.87519 0.43876 0.0
C1231 C 0.63434 0.90966 0.4214 0.0
C1232 C 0.61159 0.9015 0.43419 0.0
C1233 C 0.6368 0.86779 0.42879 0.0
N1234 N 0.65016 0.88836 0.41789 0.0
O1235 O 0.60881 0.85026 0.48523 0.0
H1236 H 0.5948 0.91382 0.4394 0.0
H1237 H 0.64419 0.84765 0.42944 0.0
O1238 O 0.60101 0.82329 0.43852 0.0
C1239 C 0.61014 0.87021 0.50071 0.0
O1240 O 0.59639 0.89156 0.49476 0.0
N1241 N 0.56477 0.86032 0.42523 0.0
C1242 C 0.53003 0.86979 0.38315 0.0
C1243 C 0.5544 0.85697 0.37891 0.0
C1244 C 0.57164 0.85278 0.40014 0.0
C1245 C 0.54182 0.87388 0.42965 0.0
C1246 C 0.52414 0.87883 0.40889 0.0
H1247 H 0.59051 0.84352 0.39629 0.0
H1248 H 0.53715 0.88069 0.44947 0.0
H1249 H 0.55136 0.80193 0.44416 0.0
H1250 H 0.51881 0.82023 0.51885 0.0
H1251 H 0.63849 0.92956 0.41446 0.0
H1252 H 0.55993 0.84954 0.35952 0.0
H1253 H 0.50595 0.88949 0.41307 0.0
C1254 C 0.09093 0.20456 0.7578 0.0
C1255 C 0.07157 0.22255 0.751 0.0
N1256 N 0.0525 0.22208 0.76978 0.0
N1257 N 0.08415 0.19252 0.78066 0.0
C1258 C 0.06081 0.20391 0.78774 0.0
H1259 H 0.10879 0.20039 0.74665 0.0
Co1260 Co 0.10433 0.16589 0.79686 0.0
C1261 C 0.05107 0.14129 0.80304 0.0
O1262 O 0.04593 0.14138 0.77748 0.0
N1263 N 0.1247 0.13962 0.81294 0.0
C1264 C 0.15902 0.11834 0.83063 0.0
C1265 C 0.15104 0.14089 0.81739 0.0
C1266 C 0.11708 0.11616 0.82345 0.0
N1267 N 0.13754 0.10287 0.83456 0.0
O1268 O 0.10077 0.14415 0.76598 0.0
H1269 H 0.16353 0.15744 0.81179 0.0
H1270 H 0.0969 0.10889 0.82304 0.0
O1271 O 0.07286 0.15067 0.81169 0.0
C1272 C 0.12072 0.14292 0.75053 0.0
O1273 O 0.14219 0.15642 0.75666 0.0
N1274 N 0.10906 0.18747 0.82664 0.0
C1275 C 0.11929 0.22228 0.86857 0.0
C1276 C 0.10175 0.20085 0.87172 0.0
C1277 C 0.0972 0.18348 0.85068 0.0
C1278 C 0.12673 0.20762 0.8233 0.0
C1279 C 0.13227 0.22519 0.84402 0.0
H1280 H 0.08404 0.167 0.85395 0.0
H1281 H 0.13653 0.21005 0.80435 0.0
H1282 H 0.04982 0.19854 0.80539 0.0
H1283 H 0.0716 0.23506 0.73355 0.0
H1284 H 0.17889 0.1141 0.8376 0.0
H1285 H 0.09096 0.19779 0.89004 0.0
H1286 H 0.14647 0.24096 0.84071 0.0
C1287 C 0.45613 0.66614 0.4909 0.0
C1288 C 0.47336 0.68635 0.49713 0.0
N1289 N 0.46886 0.70678 0.48048 0.0
N1290 N 0.44057 0.67366 0.47052 0.0
C1291 C 0.44884 0.69859 0.46449 0.0
H1292 H 0.45518 0.64694 0.50043 0.0
Co1293 Co 0.41531 0.6506 0.45601 0.0
C1294 C 0.38557 0.68159 0.41606 0.0
O1295 O 0.38549 0.66046 0.40074 0.0
N1296 N 0.38964 0.62634 0.44246 0.0
C1297 C 0.36865 0.59221 0.42363 0.0
C1298 C 0.39269 0.60154 0.43265 0.0
C1299 C 0.36315 0.63069 0.44076 0.0
N1300 N 0.35012 0.61084 0.42827 0.0
O1301 O 0.39367 0.65494 0.48684 0.0
H1302 H 0.41109 0.59077 0.43138 0.0
H1303 H 0.3538 0.64893 0.44718 0.0
O1304 O 0.39695 0.68058 0.43882 0.0
C1305 C 0.39406 0.63567 0.50318 0.0
O1306 O 0.40907 0.61502 0.49779 0.0
N1307 N 0.43795 0.64561 0.42643 0.0
C1308 C 0.47203 0.63486 0.38419 0.0
C1309 C 0.45943 0.65947 0.38626 0.0
C1310 C 0.44322 0.66476 0.40793 0.0
C1311 C 0.45206 0.62252 0.42604 0.0
C1312 C 0.46892 0.61647 0.40482 0.0
H1313 H 0.43552 0.68458 0.40979 0.0
H1314 H 0.45033 0.60874 0.4424 0.0
H1315 H 0.44037 0.71057 0.44884 0.0
H1316 H 0.48846 0.68582 0.51241 0.0
H1317 H 0.36545 0.57383 0.41298 0.0
H1318 H 0.46283 0.67493 0.37169 0.0
H1319 H 0.47943 0.59772 0.40458 0.0
C1320 C 0.74823 0.91923 0.69667 0.0
C1321 C 0.75453 0.93817 0.71529 0.0
N1322 N 0.73443 0.9558 0.71677 0.0
N1323 N 0.72432 0.92479 0.68614 0.0
C1324 C 0.71618 0.94702 0.69904 0.0
H1325 H 0.76034 0.90239 0.69116 0.0
Co1326 Co 0.70799 0.90395 0.65994 0.0
C1327 C 0.6988 0.95722 0.63661 0.0
O1328 O 0.72416 0.9633 0.63633 0.0
N1329 N 0.69183 0.88291 0.63421 0.0
C1330 C 0.67435 0.84792 0.61387 0.0
C1331 C 0.68739 0.85662 0.63627 0.0
C1332 C 0.68151 0.88978 0.61044 0.0
N1333 N 0.67056 0.86886 0.59767 0.0
O1334 O 0.73797 0.90877 0.63692 0.0
H1335 H 0.69292 0.84467 0.65322 0.0
H1336 H 0.68199 0.90975 0.60262 0.0
O1337 O 0.69121 0.93485 0.64549 0.0
C1338 C 0.75319 0.88881 0.63392 0.0
O1339 O 0.74783 0.86693 0.64707 0.0
N1340 N 0.67917 0.89794 0.68248 0.0
C1341 C 0.63801 0.88573 0.71758 0.0
C1342 C 0.63349 0.90173 0.69522 0.0
C1343 C 0.65416 0.90716 0.6777 0.0
C1344 C 0.68397 0.88181 0.7036 0.0
C1345 C 0.66365 0.8753 0.72133 0.0
H1346 H 0.64978 0.91867 0.66027 0.0
H1347 H 0.70369 0.87387 0.7066 0.0
H1348 H 0.69745 0.95679 0.69517 0.0
H1349 H 0.77253 0.93874 0.727 0.0
H1350 H 0.66747 0.8279 0.61021 0.0
H1351 H 0.61429 0.91056 0.69138 0.0
H1352 H 0.66813 0.86225 0.73778 0.0
C1353 C 0.74663 0.08753 0.79986 0.0
C1354 C 0.75268 0.0687 0.78108 0.0
N1355 N 0.73378 0.04975 0.78151 0.0
N1356 N 0.72409 0.08061 0.81243 0.0
C1357 C 0.71645 0.05763 0.80054 0.0
H1358 H 0.75795 0.10527 0.80402 0.0
Co1359 Co 0.70887 0.10113 0.83959 0.0
C1360 C 0.7012 0.04783 0.86377 0.0
O1361 O 0.72664 0.04213 0.86355 0.0
N1362 N 0.69384 0.12197 0.86623 0.0
C1363 C 0.67823 0.15725 0.88759 0.0
C1364 C 0.69074 0.1485 0.86491 0.0
C1365 C 0.6832 0.115 0.88985 0.0
N1366 N 0.67338 0.13611 0.90324 0.0
O1367 O 0.74004 0.09661 0.8609 0.0
H1368 H 0.69678 0.16061 0.84825 0.0
H1369 H 0.68259 0.09483 0.89711 0.0
O1370 O 0.69309 0.06997 0.85475 0.0
C1371 C 0.75581 0.11638 0.86132 0.0
O1372 O 0.74973 0.13748 0.84726 0.0
N1373 N 0.67897 0.10702 0.81852 0.0
C1374 C 0.63647 0.11932 0.78512 0.0
C1375 C 0.63306 0.10237 0.80696 0.0
C1376 C 0.6544 0.09685 0.82364 0.0
C1377 C 0.68267 0.1241 0.79794 0.0
C1378 C 0.66167 0.13067 0.78106 0.0
H1379 H 0.65089 0.08444 0.84062 0.0
H1380 H 0.70207 0.13272 0.79469 0.0
H1381 H 0.69877 0.04672 0.80598 0.0
H1382 H 0.76964 0.06914 0.76791 0.0
H1383 H 0.67237 0.17749 0.89178 0.0
H1384 H 0.61423 0.09282 0.81095 0.0
H1385 H 0.66528 0.14443 0.76498 0.0
C1386 C 0.33658 0.99942 0.45536 0.0
C1387 C 0.3172 0.99378 0.47374 0.0
N1388 N 0.29808 0.01241 0.47196 0.0
N1389 N 0.32978 0.02137 0.44172 0.0
C1390 C 0.30628 0.029 0.45248 0.0
H1391 H 0.35471 0.98836 0.45243 0.0
Co1392 Co 0.35118 0.0368 0.41539 0.0
C1393 C 0.29917 0.04773 0.38938 0.0
O1394 O 0.29259 0.02263 0.38671 0.0
N1395 N 0.3729 0.05214 0.38934 0.0
C1396 C 0.40859 0.06392 0.36614 0.0
C1397 C 0.39952 0.04982 0.38774 0.0
C1398 C 0.36625 0.06764 0.36846 0.0
N1399 N 0.38758 0.07521 0.35405 0.0
O1400 O 0.34603 0.00655 0.39288 0.0
H1401 H 0.41165 0.03874 0.40154 0.0
H1402 H 0.34611 0.0731 0.3636 0.0
O1403 O 0.32105 0.05406 0.40024 0.0
C1404 C 0.36437 0.98916 0.39355 0.0
O1405 O 0.38454 0.99292 0.40965 0.0
N1406 N 0.35756 0.06574 0.43779 0.0
C1407 C 0.37052 0.10476 0.47496 0.0
C1408 C 0.34618 0.10547 0.46143 0.0
C1409 C 0.34005 0.0858 0.44296 0.0
C1410 C 0.38147 0.06492 0.45036 0.0
C1411 C 0.3885 0.08436 0.46882 0.0
H1412 H 0.32074 0.08638 0.43382 0.0
H1413 H 0.39494 0.04868 0.44646 0.0
H1414 H 0.29529 0.0463 0.44615 0.0
H1415 H 0.31748 0.97748 0.48771 0.0
H1416 H 0.42911 0.0661 0.36016 0.0
H1417 H 0.33133 0.12032 0.46598 0.0
H1418 H 0.40756 0.08302 0.47865 0.0
C1419 C 0.2577 0.41479 0.79806 0.0
C1420 C 0.25142 0.43382 0.77958 0.0
N1421 N 0.27033 0.45276 0.78002 0.0
N1422 N 0.2804 0.42159 0.81042 0.0
C1423 C 0.28789 0.44468 0.79873 0.0
H1424 H 0.24639 0.39705 0.80224 0.0
Co1425 Co 0.29575 0.40103 0.83736 0.0
C1426 C 0.30473 0.4543 0.86154 0.0
O1427 O 0.27933 0.46016 0.86229 0.0
N1428 N 0.3108 0.38016 0.86386 0.0
C1429 C 0.32657 0.34501 0.88528 0.0
C1430 C 0.31419 0.35367 0.86249 0.0
C1431 C 0.32107 0.3872 0.88761 0.0
N1432 N 0.33099 0.36619 0.90102 0.0
O1433 O 0.26493 0.40616 0.85908 0.0
H1434 H 0.30844 0.34154 0.84573 0.0
H1435 H 0.32132 0.40736 0.89495 0.0
O1436 O 0.31235 0.43214 0.85211 0.0
C1437 C 0.24888 0.38663 0.86002 0.0
O1438 O 0.25453 0.36517 0.84631 0.0
N1439 N 0.32532 0.39464 0.81588 0.0
C1440 C 0.3675 0.38304 0.78174 0.0
C1441 C 0.37145 0.39825 0.80477 0.0
C1442 C 0.35027 0.40332 0.82181 0.0
C1443 C 0.32109 0.37902 0.79424 0.0
C1444 C 0.34192 0.37281 0.777 0.0
H1445 H 0.35415 0.41416 0.83975 0.0
H1446 H 0.30141 0.37136 0.79038 0.0
H1447 H 0.3056 0.45557 0.80412 0.0
H1448 H 0.23426 0.43358 0.76665 0.0
H1449 H 0.33261 0.32484 0.8895 0.0
H1450 H 0.39056 0.40683 0.8095 0.0
H1451 H 0.33783 0.36023 0.76008 0.0
C1452 C 0.16238 0.99487 0.95862 0.0
C1453 C 0.18239 0.00283 0.97532 0.0
N1454 N 0.20404 0.98796 0.97032 0.0
N1455 N 0.17119 0.97513 0.94292 0.0
C1456 C 0.19674 0.97125 0.95053 0.0
H1457 H 0.14243 0.00279 0.95809 0.0
Co1458 Co 0.14845 0.95942 0.9182 0.0
C1459 C 0.17986 0.91983 0.88864 0.0
O1460 O 0.15918 0.90393 0.88965 0.0
N1461 N 0.12432 0.94485 0.89303 0.0
C1462 C 0.09056 0.92494 0.87245 0.0
C1463 C 0.09982 0.93442 0.89635 0.0
C1464 C 0.12853 0.94305 0.86652 0.0
N1465 N 0.10893 0.92993 0.85375 0.0
O1466 O 0.15186 0.99002 0.89602 0.0
H1467 H 0.08921 0.93304 0.91484 0.0
H1468 H 0.14651 0.94987 0.85696 0.0
O1469 O 0.17864 0.94281 0.89958 0.0
C1470 C 0.13273 0.00652 0.89565 0.0
O1471 O 0.11164 1.00162 0.91019 0.0
N1472 N 0.14483 0.92986 0.94141 0.0
C1473 C 0.13729 0.88709 0.97584 0.0
C1474 C 0.16165 0.89093 0.96318 0.0
C1475 C 0.16531 0.91286 0.94685 0.0
C1476 C 0.12187 0.92788 0.95563 0.0
C1477 C 0.11745 0.90635 0.97269 0.0
H1478 H 0.18493 0.91609 0.93906 0.0
H1479 H 0.10697 0.94322 0.95397 0.0
H1480 H 0.20976 0.95661 0.94177 0.0
H1481 H 0.18091 0.01802 0.99045 0.0
H1482 H 0.07246 0.91376 0.86945 0.0
H1483 H 0.17812 0.87751 0.96655 0.0
H1484 H 0.0988 0.9048 0.98328 0.0
C1485 C 0.75618 0.0849 0.19794 0.0
C1486 C 0.74968 0.06547 0.21596 0.0
N1487 N 0.7696 0.0476 0.21685 0.0
N1488 N 0.78002 0.0794 0.18725 0.0
C1489 C 0.78793 0.05671 0.1994 0.0
H1490 H 0.74425 0.10202 0.19292 0.0
Co1491 Co 0.79641 0.1007 0.1616 0.0
C1492 C 0.80596 0.04802 0.13674 0.0
O1493 O 0.78062 0.04194 0.13573 0.0
N1494 N 0.8126 0.12221 0.13635 0.0
C1495 C 0.83012 0.15752 0.11663 0.0
C1496 C 0.81704 0.14847 0.13886 0.0
C1497 C 0.82294 0.11572 0.1125 0.0
N1498 N 0.83393 0.13681 0.10012 0.0
O1499 O 0.76641 0.09618 0.13838 0.0
H1500 H 0.8115 0.16014 0.15601 0.0
H1501 H 0.82247 0.09588 0.10433 0.0
O1502 O 0.81336 0.07007 0.14659 0.0
C1503 C 0.75105 0.11603 0.13527 0.0
O1504 O 0.75633 0.13807 0.14819 0.0
N1505 N 0.82526 0.1063 0.18443 0.0
C1506 C 0.86648 0.11695 0.22011 0.0
C1507 C 0.87105 0.10227 0.19686 0.0
C1508 C 0.85036 0.09764 0.17909 0.0
C1509 C 0.82041 0.12125 0.20641 0.0
C1510 C 0.84074 0.12696 0.22444 0.0
H1511 H 0.85477 0.08718 0.16102 0.0
H1512 H 0.80063 0.12883 0.2099 0.0
H1513 H 0.80653 0.04683 0.19519 0.0
H1514 H 0.73168 0.06473 0.22766 0.0
H1515 H 0.83702 0.17758 0.11328 0.0
H1516 H 0.8903 0.09383 0.19247 0.0
H1517 H 0.83619 0.13909 0.24156 0.0
C1518 C 0.33333 0.01046 0.05528 0.0
C1519 C 0.31448 0.01652 0.03642 0.0
N1520 N 0.29906 0.99498 0.03249 0.0
N1521 N 0.32974 0.98529 0.06352 0.0
C1522 C 0.30894 0.97628 0.04902 0.0
H1523 H 0.34865 0.02363 0.06253 0.0
Co1524 Co 0.34988 0.96733 0.08906 0.0
C1525 C 0.30249 0.95137 0.12131 0.0
O1526 O 0.30844 0.96595 0.14209 0.0
N1527 N 0.37064 0.94938 0.11405 0.0
C1528 C 0.40714 0.93551 0.1347 0.0
C1529 C 0.39739 0.9505 0.11408 0.0
C1530 C 0.3646 0.93319 0.13458 0.0
N1531 N 0.38644 0.92462 0.1476 0.0
O1532 O 0.34489 0.99595 0.11372 0.0
H1533 H 0.40911 0.96141 0.09979 0.0
H1534 H 0.34468 0.92769 0.14006 0.0
O1535 O 0.31777 0.95072 0.10121 0.0
C1536 C 0.36425 0.01193 0.11676 0.0
O1537 O 0.3856 0.00866 0.10216 0.0
N1538 N 0.35608 0.94001 0.06492 0.0
C1539 C 0.36848 0.90357 0.02514 0.0
C1540 C 0.34829 0.8982 0.04361 0.0
C1541 C 0.34262 0.91651 0.0636 0.0
C1542 C 0.3764 0.94518 0.04794 0.0
C1543 C 0.38314 0.92713 0.02807 0.0
H1544 H 0.32702 0.91178 0.07746 0.0
H1545 H 0.38722 0.96365 0.04971 0.0
H1546 H 0.30102 0.95644 0.05078 0.0
H1547 H 0.31243 0.03535 0.02629 0.0
H1548 H 0.42787 0.9325 0.13947 0.0
H1549 H 0.3362 0.8805 0.04216 0.0
H1550 H 0.39939 0.93192 0.01486 0.0
C1551 C 0.66573 0.50413 0.05311 0.0
C1552 C 0.68547 0.49705 0.03569 0.0
N1553 N 0.70558 0.51455 0.03801 0.0
N1554 N 0.6732 0.52593 0.06663 0.0
C1555 C 0.69766 0.53189 0.057 0.0
H1556 H 0.64681 0.49427 0.05552 0.0
Co1557 Co 0.65027 0.54204 0.09099 0.0
C1558 C 0.68016 0.58538 0.11642 0.0
O1559 O 0.6587 0.60014 0.11486 0.0
N1560 N 0.62627 0.55724 0.11587 0.0
C1561 C 0.59278 0.57747 0.13653 0.0
C1562 C 0.60145 0.56702 0.11283 0.0
C1563 C 0.63137 0.56058 0.14205 0.0
N1564 N 0.61189 0.57383 0.1548 0.0
O1565 O 0.65606 0.51342 0.11526 0.0
H1566 H 0.59024 0.56737 0.09464 0.0
H1567 H 0.64985 0.55471 0.1513 0.0
O1568 O 0.67991 0.56168 0.10712 0.0
C1569 C 0.63679 0.49728 0.11794 0.0
O1570 O 0.6151 0.50124 0.10398 0.0
N1571 N 0.64392 0.56919 0.06587 0.0
C1572 C 0.63217 0.60562 0.02571 0.0
C1573 C 0.65688 0.60594 0.03845 0.0
C1574 C 0.66256 0.58727 0.05796 0.0
C1575 C 0.62051 0.5674 0.05243 0.0
C1576 C 0.61389 0.58582 0.03278 0.0
H1577 H 0.68244 0.587 0.06575 0.0
H1578 H 0.60704 0.55124 0.05668 0.0
H1579 H 0.70945 0.54854 0.0637 0.0
H1580 H 0.68475 0.48064 0.02184 0.0
H1581 H 0.57451 0.58834 0.1396 0.0
H1582 H 0.67233 0.61965 0.03249 0.0
H1583 H 0.59488 0.58418 0.02288 0.0
C1584 C 0.11042 0.31478 0.36027 0.0
C1585 C 0.09768 0.32314 0.38361 0.0
H1586 H 0.13479 0.28562 0.3415 0.0
C1587 C 0.09966 0.30715 0.40645 0.0
H1588 H 0.10966 0.32672 0.34244 0.0
C1589 C 0.11425 0.28348 0.40597 0.0
C1590 C 0.12725 0.27538 0.38267 0.0
H1591 H 0.08985 0.31286 0.42468 0.0
H1592 H 0.1155 0.27167 0.42389 0.0
C1593 C 0.12504 0.29124 0.35981 0.0
C1594 C 0.54144 0.64105 0.88616 0.0
C1595 C 0.52759 0.63422 0.86291 0.0
H1596 H 0.57559 0.65955 0.90313 0.0
C1597 C 0.53738 0.64307 0.83834 0.0
H1598 H 0.53439 0.6347 0.90544 0.0
C1599 C 0.56119 0.65746 0.83702 0.0
C1600 C 0.57546 0.66357 0.86026 0.0
H1601 H 0.52712 0.6382 0.82008 0.0
H1602 H 0.56871 0.66342 0.8178 0.0
C1603 C 0.56499 0.65561 0.88486 0.0
C1604 C 0.87974 0.20746 0.36554 0.0
C1605 C 0.87888 0.22361 0.3883 0.0
H1606 H 0.89397 0.17173 0.34773 0.0
C1607 C 0.89319 0.21576 0.41091 0.0
H1608 H 0.86898 0.21288 0.34774 0.0
C1609 C 0.90766 0.19199 0.41086 0.0
C1610 C 0.90827 0.17574 0.38812 0.0
H1611 H 0.89296 0.22779 0.42873 0.0
H1612 H 0.91844 0.18639 0.42857 0.0
C1613 C 0.89427 0.18389 0.36544 0.0
C1614 C 0.44555 0.84422 0.83944 0.0
C1615 C 0.4309 0.83931 0.86271 0.0
H1616 H 0.47986 0.86264 0.82211 0.0
C1617 C 0.44082 0.84876 0.88702 0.0
H1618 H 0.43849 0.83708 0.82044 0.0
C1619 C 0.4643 0.86344 0.88796 0.0
C1620 C 0.4786 0.86898 0.86465 0.0
H1621 H 0.4299 0.84578 0.90527 0.0
H1622 H 0.47098 0.87087 0.90701 0.0
C1623 C 0.46925 0.8588 0.8404 0.0
C1624 C 0.129 0.7084 0.14312 0.0
C1625 C 0.12994 0.72482 0.12059 0.0
H1626 H 0.11376 0.67301 0.16078 0.0
C1627 C 0.11504 0.71766 0.09811 0.0
H1628 H 0.14026 0.71325 0.16078 0.0
C1629 C 0.09963 0.69451 0.09818 0.0
C1630 C 0.09872 0.67807 0.12076 0.0
H1631 H 0.11528 0.72993 0.08045 0.0
H1632 H 0.08822 0.68964 0.08065 0.0
C1633 C 0.1136 0.68535 0.14321 0.0
C1634 C 0.94291 0.66265 0.16519 0.0
C1635 C 0.92854 0.66726 0.14167 0.0
H1636 H 0.97648 0.64368 0.18335 0.0
C1637 C 0.93821 0.65662 0.11777 0.0
H1638 H 0.93601 0.67068 0.18388 0.0
C1639 C 0.96113 0.64105 0.11749 0.0
C1640 C 0.97514 0.63584 0.14106 0.0
H1641 H 0.92746 0.65936 0.09937 0.0
H1642 H 0.96762 0.63273 0.09875 0.0
C1643 C 0.96607 0.64722 0.16487 0.0
C1644 C 0.90975 0.81094 0.0921 0.0
C1645 C 0.9106 0.8276 0.11452 0.0
H1646 H 0.89412 0.77527 0.07473 0.0
C1647 C 0.89593 0.82044 0.13711 0.0
H1648 H 0.92101 0.8158 0.07446 0.0
C1649 C 0.88061 0.79738 0.13726 0.0
C1650 C 0.87959 0.78078 0.11485 0.0
H1651 H 0.89574 0.83297 0.15456 0.0
H1652 H 0.86941 0.79271 0.155 0.0
C1653 C 0.89446 0.78768 0.09229 0.0
C1654 C 0.04896 0.87356 0.11434 0.0
C1655 C 0.03283 0.8758 0.13701 0.0
H1656 H 0.08457 0.85812 0.09733 0.0
C1657 C 0.04068 0.86279 0.16041 0.0
H1658 H 0.04356 0.8833 0.09596 0.0
C1659 C 0.06436 0.84817 0.16115 0.0
C1660 C 0.08056 0.84611 0.13846 0.0
H1661 H 0.02868 0.86408 0.1782 0.0
H1662 H 0.06993 0.83839 0.17944 0.0
C1663 C 0.07245 0.85889 0.11504 0.0
C1664 C 0.36689 0.12704 0.30464 0.0
C1665 C 0.38747 0.12579 0.28583 0.0
H1666 H 0.351 0.11246 0.34107 0.0
C1667 C 0.40831 0.10771 0.28992 0.0
H1668 H 0.35057 0.14082 0.30225 0.0
C1669 C 0.40844 0.09116 0.31229 0.0
C1670 C 0.38772 0.09232 0.33102 0.0
H1671 H 0.42443 0.10622 0.27577 0.0
H1672 H 0.42458 0.07719 0.31468 0.0
C1673 C 0.36703 0.11058 0.32691 0.0
C1674 C 0.37385 0.38961 0.95725 0.0
C1675 C 0.37481 0.36707 0.97367 0.0
H1676 H 0.35945 0.40695 0.92136 0.0
C1677 C 0.3605 0.34434 0.96614 0.0
H1678 H 0.38462 0.40749 0.96241 0.0
C1679 C 0.3459 0.34409 0.94245 0.0
C1680 C 0.34518 0.36661 0.92591 0.0
H1681 H 0.36079 0.32668 0.97838 0.0
H1682 H 0.3351 0.3263 0.93712 0.0
C1683 C 0.35921 0.3894 0.93373 0.0
C1684 C 0.5897 0.39476 0.29092 0.0
C1685 C 0.6144 0.38533 0.28202 0.0
H1686 H 0.56866 0.41622 0.32115 0.0
C1687 C 0.6374 0.39233 0.29616 0.0
H1688 H 0.57163 0.38975 0.28038 0.0
C1689 C 0.63572 0.40761 0.3192 0.0
C1690 C 0.61096 0.41611 0.32884 0.0
H1691 H 0.65677 0.38554 0.28976 0.0
H1692 H 0.65378 0.41165 0.3301 0.0
C1693 C 0.58798 0.40986 0.31424 0.0
C1694 C 0.64475 0.11321 0.93586 0.0
C1695 C 0.65896 0.13588 0.92803 0.0
H1696 H 0.619 0.09543 0.96442 0.0
C1697 C 0.65817 0.15851 0.94444 0.0
H1698 H 0.64455 0.09557 0.92361 0.0
C1699 C 0.64334 0.1585 0.96799 0.0
C1700 C 0.62885 0.13589 0.97554 0.0
H1701 H 0.66911 0.17622 0.93913 0.0
H1702 H 0.64303 0.17625 0.98012 0.0
C1703 C 0.62989 0.11323 0.95925 0.0
C1704 C 0.36676 0.8893 0.17536 0.0
C1705 C 0.38738 0.90742 0.17049 0.0
H1706 H 0.35103 0.85929 0.20078 0.0
C1707 C 0.40876 0.90861 0.18846 0.0
H1708 H 0.35021 0.88752 0.16179 0.0
C1709 C 0.40933 0.89223 0.21092 0.0
C1710 C 0.38856 0.87428 0.2158 0.0
H1711 H 0.42484 0.92253 0.18546 0.0
H1712 H 0.42592 0.89377 0.22451 0.0
C1713 C 0.36735 0.87295 0.1977 0.0
C1714 C 0.1543 0.34974 0.05782 0.0
C1715 C 0.15601 0.37278 0.07355 0.0
H1716 H 0.13857 0.33163 0.02263 0.0
C1717 C 0.14276 0.3958 0.06505 0.0
H1718 H 0.16449 0.33176 0.06365 0.0
C1719 C 0.12795 0.39573 0.0416 0.0
C1720 C 0.12607 0.37267 0.02598 0.0
H1721 H 0.1433 0.41377 0.0768 0.0
H1722 H 0.11783 0.41379 0.03584 0.0
C1723 C 0.13955 0.3497 0.03425 0.0
C1724 C 0.64004 0.61122 0.21261 0.0
C1725 C 0.61704 0.61765 0.227 0.0
H1726 H 0.65645 0.59223 0.17847 0.0
C1727 C 0.59243 0.60786 0.2182 0.0
H1728 H 0.65933 0.61836 0.21887 0.0
C1729 C 0.59079 0.59271 0.19495 0.0
C1730 C 0.61375 0.58685 0.18021 0.0
H1731 H 0.57435 0.6124 0.22892 0.0
H1732 H 0.57154 0.58588 0.18828 0.0
C1733 C 0.63843 0.59595 0.18955 0.0
C1734 C 0.86443 0.15981 0.03594 0.0
C1735 C 0.878 0.13688 0.02769 0.0
H1736 H 0.83955 0.17771 0.06546 0.0
C1737 C 0.87641 0.1139 0.04343 0.0
H1738 H 0.86523 0.17782 0.02423 0.0
C1739 C 0.86174 0.11384 0.06693 0.0
C1740 C 0.84836 0.13679 0.07539 0.0
H1741 H 0.88661 0.09587 0.03769 0.0
H1742 H 0.86139 0.09592 0.07875 0.0
C1743 C 0.84983 0.15979 0.05961 0.0
C1744 C 0.31418 0.36926 0.0962 0.0
C1745 C 0.32454 0.39335 0.08668 0.0
H1746 H 0.28394 0.34996 0.11879 0.0
C1747 C 0.31053 0.41695 0.09192 0.0
H1748 H 0.32461 0.35077 0.09297 0.0
C1749 C 0.28707 0.41652 0.1069 0.0
C1750 C 0.27732 0.39249 0.11719 0.0
H1751 H 0.31796 0.43579 0.08476 0.0
H1752 H 0.27697 0.43506 0.11099 0.0
C1753 C 0.29095 0.36886 0.11131 0.0
C1754 C 0.31372 0.63654 0.40788 0.0
C1755 C 0.32408 0.61207 0.41636 0.0
H1756 H 0.28327 0.65679 0.38648 0.0
C1757 C 0.30978 0.58875 0.41065 0.0
H1758 H 0.32434 0.65486 0.41149 0.0
C1759 C 0.28605 0.58985 0.39611 0.0
C1760 C 0.27636 0.61428 0.38676 0.0
H1761 H 0.3172 0.56963 0.41702 0.0
H1762 H 0.27575 0.57153 0.39155 0.0
C1763 C 0.29024 0.63761 0.39322 0.0
C1764 C 0.84291 0.43861 0.84508 0.0
C1765 C 0.86543 0.42214 0.8437 0.0
H1766 H 0.82551 0.47387 0.86146 0.0
C1767 C 0.88812 0.42917 0.85831 0.0
H1768 H 0.8252 0.43385 0.8339 0.0
C1769 C 0.88831 0.45198 0.87401 0.0
C1770 C 0.86583 0.46842 0.87549 0.0
H1771 H 0.90565 0.41676 0.85812 0.0
H1772 H 0.90614 0.45661 0.88511 0.0
C1773 C 0.84313 0.46158 0.86077 0.0
C1774 C 0.69146 0.91001 0.4019 0.0
C1775 C 0.6751 0.88742 0.40376 0.0
H1776 H 0.72734 0.92693 0.38633 0.0
C1777 C 0.68318 0.86399 0.39097 0.0
H1778 H 0.68596 0.9283 0.41173 0.0
C1779 C 0.70681 0.86321 0.37648 0.0
C1780 C 0.72308 0.8858 0.37443 0.0
H1781 H 0.67096 0.84633 0.3916 0.0
H1782 H 0.71219 0.84483 0.36671 0.0
C1783 C 0.71524 0.90919 0.38746 0.0
C1784 C 0.65699 0.53631 0.36697 0.0
C1785 C 0.63363 0.52889 0.38029 0.0
H1786 H 0.67606 0.56488 0.34185 0.0
C1787 C 0.61104 0.54508 0.37792 0.0
H1788 H 0.67472 0.52423 0.36836 0.0
C1789 C 0.6118 0.56824 0.36273 0.0
C1790 C 0.63521 0.57589 0.34965 0.0
H1791 H 0.5927 0.53997 0.3879 0.0
H1792 H 0.59417 0.58047 0.36175 0.0
C1793 C 0.6578 0.55964 0.35189 0.0
C1794 C 0.21153 0.63696 0.61201 0.0
C1795 C 0.2254 0.61365 0.61848 0.0
H1796 H 0.17715 0.65411 0.59415 0.0
C1797 C 0.21541 0.58914 0.60963 0.0
H1798 H 0.21873 0.65619 0.61838 0.0
C1799 C 0.19139 0.58796 0.5956 0.0
C1800 C 0.17711 0.61127 0.58987 0.0
H1801 H 0.22569 0.57084 0.61424 0.0
H1802 H 0.18373 0.5688 0.58963 0.0
C1803 C 0.18776 0.6358 0.59781 0.0
C1804 C 0.88806 0.57384 0.64717 0.0
C1805 C 0.86553 0.58077 0.66206 0.0
H1806 H 0.90596 0.54636 0.62036 0.0
C1807 C 0.84319 0.56398 0.66118 0.0
H1808 H 0.90545 0.58644 0.64699 0.0
C1809 C 0.84342 0.54085 0.64569 0.0
C1810 C 0.86594 0.53414 0.63066 0.0
H1811 H 0.8256 0.5686 0.67259 0.0
H1812 H 0.82592 0.52835 0.64537 0.0
C1813 C 0.88826 0.55087 0.63169 0.0
C1814 C 0.16101 0.96889 0.64612 0.0
C1815 C 0.13662 0.97788 0.63597 0.0
H1816 H 0.18127 0.93897 0.66865 0.0
C1817 C 0.11337 0.96387 0.64237 0.0
H1818 H 0.17928 0.97931 0.64163 0.0
C1819 C 0.11451 0.94098 0.65792 0.0
C1820 C 0.13897 0.93141 0.66736 0.0
H1821 H 0.09423 0.97029 0.63498 0.0
H1822 H 0.0963 0.93018 0.66159 0.0
C1823 C 0.16218 0.9458 0.66156 0.0
C1824 C 0.62702 0.79203 0.85996 0.0
C1825 C 0.62861 0.77584 0.88263 0.0
H1826 H 0.61226 0.82789 0.84276 0.0
C1827 C 0.6152 0.78377 0.90577 0.0
H1828 H 0.6371 0.78655 0.84178 0.0
C1829 C 0.60084 0.80757 0.90629 0.0
C1830 C 0.59945 0.82387 0.88364 0.0
H1831 H 0.61597 0.77172 0.92356 0.0
H1832 H 0.59072 0.81315 0.9244 0.0
C1833 C 0.61259 0.8157 0.86044 0.0
C1834 C 0.03752 0.13932 0.34291 0.0
C1835 C 0.02944 0.12653 0.36633 0.0
H1836 H 0.06724 0.163 0.32376 0.0
C1837 C 0.04567 0.12845 0.38897 0.0
H1838 H 0.02545 0.13828 0.32514 0.0
C1839 C 0.06953 0.14254 0.38818 0.0
C1840 C 0.07789 0.15505 0.3647 0.0
H1841 H 0.0401 0.11885 0.40737 0.0
H1842 H 0.08173 0.14306 0.40585 0.0
C1843 C 0.06154 0.15337 0.34208 0.0
C1844 C 0.39491 0.68724 0.86362 0.0
C1845 C 0.40855 0.6786 0.88633 0.0
H1846 H 0.37004 0.71669 0.84611 0.0
C1847 C 0.40781 0.6945 0.90932 0.0
H1848 H 0.39473 0.67537 0.84571 0.0
C1849 C 0.39352 0.71838 0.9096 0.0
C1850 C 0.37952 0.72668 0.88696 0.0
H1851 H 0.41833 0.68852 0.92706 0.0
H1852 H 0.39315 0.73012 0.92761 0.0
C1853 C 0.38055 0.7109 0.86395 0.0
C1854 C 0.94002 0.34598 0.38729 0.0
C1855 C 0.92984 0.33658 0.36308 0.0
H1856 H 0.97017 0.36838 0.40695 0.0
C1857 C 0.94409 0.3418 0.33961 0.0
H1858 H 0.92942 0.34277 0.40569 0.0
C1859 C 0.96759 0.3567 0.3403 0.0
C1860 C 0.97715 0.36688 0.36446 0.0
H1861 H 0.93682 0.3347 0.32068 0.0
H1862 H 0.97787 0.36081 0.32187 0.0
C1863 C 0.96331 0.36098 0.38796 0.0
C1864 C 0.59987 0.19367 0.59762 0.0
C1865 C 0.59767 0.17772 0.62044 0.0
H1866 H 0.61628 0.22886 0.58017 0.0
C1867 C 0.61082 0.18572 0.6437 0.0
H1868 H 0.58978 0.18821 0.57945 0.0
C1869 C 0.62594 0.20894 0.64413 0.0
C1870 C 0.62826 0.22483 0.62132 0.0
H1871 H 0.60993 0.17375 0.66151 0.0
H1872 H 0.63594 0.21433 0.66238 0.0
C1873 C 0.61495 0.21702 0.59806 0.0
C1874 C 0.43924 0.15639 0.61646 0.0
C1875 C 0.42899 0.16598 0.64057 0.0
H1876 H 0.4692 0.13349 0.59711 0.0
C1877 C 0.44296 0.16061 0.66416 0.0
H1878 H 0.42884 0.15972 0.59796 0.0
C1879 C 0.46624 0.14538 0.6637 0.0
C1880 C 0.47583 0.13498 0.63965 0.0
H1881 H 0.43561 0.16782 0.68302 0.0
H1882 H 0.47631 0.14117 0.68223 0.0
C1883 C 0.46228 0.14103 0.61602 0.0
C1884 C 0.39254 0.28611 0.59289 0.0
C1885 C 0.3776 0.27885 0.6153 0.0
H1886 H 0.41893 0.31457 0.57543 0.0
C1887 C 0.37833 0.29532 0.63784 0.0
H1888 H 0.39247 0.27383 0.57524 0.0
C1889 C 0.39345 0.31856 0.63796 0.0
C1890 C 0.40819 0.32605 0.6155 0.0
H1891 H 0.36708 0.29037 0.65547 0.0
H1892 H 0.39309 0.33095 0.6555 0.0
C1893 C 0.4076 0.30951 0.59297 0.0
C1894 C 0.53909 0.36223 0.66075 0.0
C1895 C 0.53095 0.37484 0.63723 0.0
H1896 H 0.56874 0.33847 0.67994 0.0
C1897 C 0.54697 0.3725 0.6145 0.0
H1898 H 0.52717 0.36361 0.67859 0.0
C1899 C 0.57066 0.35815 0.61527 0.0
C1900 C 0.57906 0.3458 0.63882 0.0
H1901 H 0.54134 0.38194 0.59603 0.0
H1902 H 0.58269 0.3573 0.5975 0.0
C1903 C 0.56295 0.34794 0.66155 0.0
C1904 C 0.86408 0.62426 0.80209 0.0
C1905 C 0.88636 0.62557 0.78535 0.0
H1906 H 0.84691 0.6082 0.83732 0.0
C1907 C 0.90887 0.61035 0.7917 0.0
H1908 H 0.84641 0.63574 0.79786 0.0
C1909 C 0.90908 0.59433 0.81444 0.0
C1910 C 0.88677 0.59311 0.83122 0.0
H1911 H 0.92633 0.61087 0.77917 0.0
H1912 H 0.92664 0.58275 0.81875 0.0
C1913 C 0.86427 0.60826 0.8247 0.0
C1914 C 0.85801 0.88775 0.43191 0.0
C1915 C 0.84424 0.86484 0.42398 0.0
H1916 H 0.88319 0.90601 0.46068 0.0
C1917 C 0.8452 0.84225 0.44042 0.0
H1918 H 0.85808 0.90535 0.41962 0.0
C1919 C 0.85976 0.84258 0.46415 0.0
C1920 C 0.87382 0.86544 0.47178 0.0
H1921 H 0.83461 0.82437 0.435 0.0
H1922 H 0.86025 0.82487 0.47632 0.0
C1923 C 0.87262 0.88802 0.45544 0.0
C1924 C 0.08723 0.91172 0.81349 0.0
C1925 C 0.11041 0.91773 0.82787 0.0
H1926 H 0.07036 0.89203 0.77962 0.0
C1927 C 0.13501 0.90924 0.81782 0.0
H1928 H 0.06802 0.91808 0.82072 0.0
C1929 C 0.13633 0.8942 0.7946 0.0
C1930 C 0.11313 0.88744 0.78066 0.0
H1931 H 0.15322 0.9131 0.82854 0.0
H1932 H 0.15559 0.8874 0.78788 0.0
C1933 C 0.08858 0.89687 0.78998 0.0
C1934 C 0.12653 0.61121 0.46213 0.0
C1935 C 0.12493 0.63379 0.47847 0.0
H1936 H 0.14182 0.59403 0.42648 0.0
C1937 C 0.13888 0.65677 0.47103 0.0
H1938 H 0.11605 0.59315 0.46724 0.0
C1939 C 0.15379 0.65722 0.44756 0.0
C1940 C 0.1552 0.63467 0.43111 0.0
H1941 H 0.13814 0.67447 0.48321 0.0
H1942 H 0.16433 0.6752 0.44237 0.0
C1943 C 0.14151 0.61163 0.4388 0.0
C1944 C 0.90926 0.40751 0.6914 0.0
C1945 C 0.88736 0.40806 0.67405 0.0
H1946 H 0.92609 0.39158 0.72714 0.0
C1947 C 0.86525 0.39208 0.67991 0.0
H1948 H 0.92652 0.41974 0.68764 0.0
C1949 C 0.86498 0.37605 0.70252 0.0
C1950 C 0.8868 0.37554 0.71991 0.0
H1951 H 0.84822 0.3916 0.66683 0.0
H1952 H 0.84758 0.364 0.7063 0.0
C1953 C 0.90898 0.39146 0.71411 0.0
C1954 C 0.63959 0.84652 0.5334 0.0
C1955 C 0.62637 0.86968 0.52524 0.0
H1956 H 0.66426 0.82816 0.5628 0.0
C1957 C 0.62844 0.89262 0.54102 0.0
H1958 H 0.63843 0.82854 0.52167 0.0
C1959 C 0.64316 0.8924 0.56449 0.0
C1960 C 0.65616 0.86921 0.5729 0.0
H1961 H 0.61851 0.91083 0.53536 0.0
H1962 H 0.64381 0.91029 0.57636 0.0
C1963 C 0.65427 0.84628 0.55703 0.0
C1964 C 0.09628 0.11499 0.71716 0.0
C1965 C 0.11989 0.12713 0.72576 0.0
H1966 H 0.07719 0.09168 0.68711 0.0
C1967 C 0.14288 0.12445 0.71018 0.0
H1968 H 0.07824 0.11665 0.72873 0.0
C1969 C 0.14227 0.11019 0.68643 0.0
C1970 C 0.11863 0.09832 0.67759 0.0
H1971 H 0.16141 0.13354 0.71621 0.0
H1972 H 0.16023 0.109 0.67471 0.0
C1973 C 0.09564 0.10081 0.69325 0.0
C1974 C 0.36161 0.61322 0.5671 0.0
C1975 C 0.3473 0.63588 0.57478 0.0
H1976 H 0.3876 0.59548 0.53871 0.0
C1977 C 0.34825 0.65855 0.55851 0.0
H1978 H 0.36164 0.59558 0.57934 0.0
C1979 C 0.36325 0.65855 0.5351 0.0
C1980 C 0.37775 0.63593 0.52762 0.0
H1981 H 0.33725 0.67623 0.56377 0.0
H1982 H 0.36361 0.67629 0.52298 0.0
C1983 C 0.37669 0.61327 0.54386 0.0
C1984 C 0.81383 0.8671 0.59526 0.0
C1985 C 0.82353 0.89126 0.58525 0.0
H1986 H 0.78428 0.84748 0.61845 0.0
C1987 C 0.80907 0.91463 0.59029 0.0
H1988 H 0.82463 0.84879 0.59219 0.0
C1989 C 0.7858 0.91391 0.60554 0.0
C1990 C 0.77671 0.88983 0.61629 0.0
H1991 H 0.81598 0.93352 0.58274 0.0
H1992 H 0.77533 0.93228 0.60945 0.0
C1993 C 0.79078 0.86641 0.61062 0.0
C1994 C 0.82027 0.13895 0.89267 0.0
C1995 C 0.82869 0.11611 0.90625 0.0
H1996 H 0.79094 0.15687 0.86791 0.0
C1997 C 0.81271 0.09321 0.90517 0.0
H1998 H 0.83223 0.1568 0.89267 0.0
C1999 C 0.78889 0.09319 0.89079 0.0
C2000 C 0.78066 0.11603 0.87707 0.0
H2001 H 0.81852 0.07536 0.91561 0.0
H2002 H 0.77702 0.07526 0.8903 0.0
C2003 C 0.79662 0.1389 0.87825 0.0
C2004 C 0.38429 0.94651 0.37795 0.0
C2005 C 0.36377 0.96534 0.37626 0.0
H2006 H 0.40049 0.91009 0.36364 0.0
C2007 C 0.34329 0.96126 0.35777 0.0
H2008 H 0.40034 0.94891 0.39206 0.0
C2009 C 0.3435 0.9389 0.34119 0.0
C2010 C 0.36421 0.92018 0.34275 0.0
H2011 H 0.32723 0.97543 0.35593 0.0
H2012 H 0.32766 0.93653 0.32688 0.0
C2013 C 0.3845 0.92425 0.36146 0.0
C2014 C 0.18412 0.36583 0.89197 0.0
C2015 C 0.1758 0.38928 0.90456 0.0
H2016 H 0.21344 0.34669 0.86812 0.0
C2017 C 0.19204 0.41195 0.90276 0.0
H2018 H 0.17198 0.34811 0.89256 0.0
C2019 C 0.21597 0.41118 0.88857 0.0
C2020 C 0.22405 0.38775 0.87576 0.0
H2021 H 0.18632 0.43026 0.91243 0.0
H2022 H 0.228 0.42897 0.88747 0.0
C2023 C 0.20787 0.36509 0.87774 0.0
C2024 C 0.11182 0.04775 0.87756 0.0
C2025 C 0.13401 0.03094 0.87931 0.0
H2026 H 0.09559 0.08378 0.8622 0.0
C2027 C 0.15731 0.03794 0.86564 0.0
H2028 H 0.09355 0.04299 0.88784 0.0
C2029 C 0.15845 0.06143 0.85084 0.0
C2030 C 0.13627 0.07831 0.84922 0.0
H2031 H 0.17475 0.02539 0.86655 0.0
H2032 H 0.17665 0.06631 0.84051 0.0
C2033 C 0.11291 0.0711 0.86267 0.0
C2034 C 0.71321 0.1379 0.11179 0.0
C2035 C 0.72721 0.11459 0.11804 0.0
H2036 H 0.67905 0.15512 0.09353 0.0
C2037 C 0.71761 0.09019 0.10848 0.0
H2038 H 0.7201 0.15706 0.11871 0.0
C2039 C 0.69391 0.0891 0.09389 0.0
C2040 C 0.67953 0.1124 0.0883 0.0
H2041 H 0.72797 0.07188 0.11288 0.0
H2042 H 0.68658 0.07 0.08732 0.0
C2043 C 0.68976 0.13684 0.09705 0.0
C2044 C 0.38555 0.07001 0.15929 0.0
C2045 C 0.36135 0.07875 0.17006 0.0
H2046 H 0.40532 0.04234 0.13401 0.0
C2047 C 0.33812 0.06432 0.16435 0.0
H2048 H 0.40376 0.08084 0.16287 0.0
C2049 C 0.339 0.04207 0.14763 0.0
C2050 C 0.36309 0.03409 0.13604 0.0
H2051 H 0.31921 0.07054 0.17244 0.0
H2052 H 0.32073 0.03163 0.14319 0.0
C2053 C 0.38638 0.04806 0.14243 0.0
C2054 C 0.61633 0.43765 0.15859 0.0
C2055 C 0.64073 0.42869 0.16871 0.0
H2056 H 0.59607 0.4661 0.13461 0.0
C2057 C 0.66382 0.44338 0.16316 0.0
H2058 H 0.59823 0.42661 0.16207 0.0
C2059 C 0.6626 0.46618 0.14727 0.0
C2060 C 0.63829 0.47446 0.13636 0.0
H2061 H 0.68287 0.43697 0.17076 0.0
H2062 H 0.68075 0.47684 0.14293 0.0
C2063 C 0.61515 0.46017 0.14255 0.0
C2064 C 0.25328 0.06383 0.37819 0.0
C2065 C 0.28014 0.06922 0.38328 0.0
H2066 H 0.21429 0.07983 0.37289 0.0
C2067 C 0.28853 0.0958 0.3848 0.0
H2068 H 0.24625 0.04358 0.37665 0.0
C2069 C 0.27027 0.11647 0.38327 0.0
C2070 C 0.24312 0.11119 0.37971 0.0
H2071 H 0.30917 0.10073 0.38823 0.0
H2072 H 0.27741 0.13652 0.38621 0.0
C2073 C 0.23495 0.08463 0.37632 0.0
C2074 C 0.35185 0.4669 0.87013 0.0
C2075 C 0.32514 0.47451 0.86776 0.0
H2076 H 0.3923 0.4789 0.87062 0.0
C2077 C 0.31878 0.5016 0.86888 0.0
H2078 H 0.3574 0.4462 0.87055 0.0
C2079 C 0.33896 0.52068 0.87027 0.0
C2080 C 0.36594 0.5131 0.87004 0.0
H2081 H 0.29834 0.50812 0.86758 0.0
H2082 H 0.33329 0.54139 0.87074 0.0
C2083 C 0.37199 0.48586 0.8708 0.0
C2084 C 0.72921 0.41747 0.39081 0.0
C2085 C 0.70523 0.40615 0.38229 0.0
H2086 H 0.77074 0.41141 0.39751 0.0
C2087 C 0.70565 0.38117 0.36988 0.0
H2088 H 0.72957 0.43683 0.40015 0.0
C2089 C 0.72906 0.36652 0.36866 0.0
C2090 C 0.75259 0.37666 0.37963 0.0
H2091 H 0.68751 0.3721 0.3627 0.0
H2092 H 0.72813 0.34648 0.36096 0.0
C2093 C 0.75273 0.40282 0.38948 0.0
C2094 C 0.65452 0.03488 0.87383 0.0
C2095 C 0.68113 0.02739 0.87015 0.0
H2096 H 0.61409 0.02279 0.87501 0.0
C2097 C 0.68752 1.0003 0.86975 0.0
H2098 H 0.64902 0.05557 0.87537 0.0
C2099 C 0.66739 0.98116 0.87076 0.0
C2100 C 0.64044 0.98875 0.87172 0.0
H2101 H 0.7079 0.99387 0.86739 0.0
H2102 H 0.67302 0.96046 0.86989 0.0
C2103 C 0.63441 0.01589 0.87419 0.0
C2104 C 0.25519 0.89769 0.1439 0.0
C2105 C 0.2418 0.89197 0.12007 0.0
H2106 H 0.28469 0.92176 0.1632 0.0
C2107 C 0.24712 0.90736 0.09748 0.0
H2108 H 0.25131 0.88616 0.16162 0.0
C2109 C 0.26614 0.92739 0.09836 0.0
C2110 C 0.28001 0.93273 0.12191 0.0
H2111 H 0.23724 0.90328 0.07881 0.0
H2112 H 0.27032 0.93842 0.08043 0.0
C2113 C 0.27401 0.91815 0.14488 0.0
C2114 C 0.18578 0.50879 0.13799 0.0
C2115 C 0.18042 0.48201 0.13256 0.0
H2116 H 0.16955 0.54757 0.14417 0.0
C2117 C 0.15444 0.47448 0.12564 0.0
H2118 H 0.20562 0.51516 0.14333 0.0
C2119 C 0.13379 0.49292 0.12632 0.0
C2120 C 0.13873 0.51926 0.13393 0.0
H2121 H 0.1498 0.45401 0.12099 0.0
H2122 H 0.11375 0.48612 0.12251 0.0
C2123 C 0.16509 0.52725 0.13873 0.0
C2124 C 0.7049 0.62396 0.13468 0.0
C2125 C 0.70535 0.59834 0.12366 0.0
H2126 H 0.7266 0.65946 0.14258 0.0
C2127 C 0.72977 0.58704 0.11651 0.0
H2128 H 0.68639 0.63302 0.1408 0.0
C2129 C 0.75297 0.60216 0.11785 0.0
C2130 C 0.75205 0.62875 0.12635 0.0
H2131 H 0.73077 0.56722 0.10825 0.0
H2132 H 0.77137 0.59354 0.11081 0.0
C2133 C 0.72803 0.63906 0.13596 0.0
C2134 C 0.84109 0.98225 0.12784 0.0
C2135 C 0.86794 0.99029 0.12816 0.0
H2136 H 0.80029 0.99416 0.13044 0.0
C2137 C 0.87359 0.01761 0.12732 0.0
H2138 H 0.83578 0.96144 0.12746 0.0
C2139 C 0.85318 0.03623 0.12795 0.0
C2140 C 0.82659 0.02817 0.1303 0.0
H2141 H 0.8938 0.02487 0.12756 0.0
H2142 H 0.8584 0.05705 0.12765 0.0
C2143 C 0.82063 1.001 0.12913 0.0
C2144 C 0.38729 0.2517 0.10553 0.0
C2145 C 0.37766 0.25304 0.13175 0.0
H2146 H 0.39751 0.27324 0.07034 0.0
C2147 C 0.36676 0.27699 0.14089 0.0
H2148 H 0.3953 0.23334 0.09773 0.0
C2149 C 0.36776 0.29968 0.12513 0.0
C2150 C 0.37981 0.29894 0.09998 0.0
H2151 H 0.35924 0.27879 0.16095 0.0
H2152 H 0.36059 0.3182 0.13338 0.0
C2153 C 0.38837 0.27448 0.08976 0.0
C2154 C 0.54837 0.38398 0.13227 0.0
C2155 C 0.54793 0.37265 0.15775 0.0
H2156 H 0.52677 0.39223 0.09682 0.0
C2157 C 0.52352 0.36504 0.16881 0.0
H2158 H 0.56686 0.39041 0.12337 0.0
C2159 C 0.50035 0.36641 0.15362 0.0
C2160 C 0.50127 0.37539 0.12717 0.0
H2161 H 0.52253 0.35649 0.1885 0.0
H2162 H 0.48197 0.35916 0.1621 0.0
C2163 C 0.52529 0.38527 0.1171 0.0
C2164 C 0.61521 0.23033 0.08996 0.0
C2165 C 0.62366 0.20604 0.10065 0.0
H2166 H 0.60844 0.27164 0.09715 0.0
C2167 C 0.63571 0.20575 0.12582 0.0
H2168 H 0.60609 0.23122 0.07051 0.0
C2169 C 0.63679 0.22874 0.14116 0.0
C2170 C 0.62596 0.25254 0.13156 0.0
H2171 H 0.64281 0.18737 0.13442 0.0
H2172 H 0.64427 0.2273 0.16126 0.0
C2173 C 0.61638 0.25341 0.1053 0.0
C2174 C 0.47969 0.14138 0.17093 0.0
C2175 C 0.4553 0.13345 0.16004 0.0
H2176 H 0.52122 0.14729 0.1641 0.0
C2177 C 0.45491 0.12164 0.13477 0.0
H2178 H 0.48065 0.15033 0.19045 0.0
C2179 C 0.47801 0.1201 0.11962 0.0
C2180 C 0.50202 0.13025 0.1295 0.0
H2181 H 0.43644 0.11497 0.12599 0.0
H2182 H 0.47657 0.1127 0.09949 0.0
C2183 C 0.50287 0.1398 0.15576 0.0
C2184 C 0.36669 0.70772 0.3788 0.0
C2185 C 0.37887 0.70734 0.40387 0.0
H2186 H 0.35868 0.7298 0.3437 0.0
C2187 C 0.38808 0.73126 0.41483 0.0
H2188 H 0.35904 0.68967 0.36996 0.0
C2189 C 0.38754 0.75458 0.39979 0.0
C2190 C 0.3778 0.75432 0.37359 0.0
H2191 H 0.39724 0.73167 0.43427 0.0
H2192 H 0.39596 0.77249 0.4082 0.0
C2193 C 0.36628 0.7309 0.36377 0.0
C2194 C 1.00132 0.36835 0.81303 0.0
C2195 C 0.97415 0.36854 0.81913 0.0
H2196 H 0.04103 0.36948 0.82797 0.0
C2197 C 0.96631 0.37279 0.84555 0.0
H2198 H 0.00799 0.36546 0.7928 0.0
C2199 C 0.98509 0.37418 0.86581 0.0
C2200 C 0.01233 0.37206 0.86011 0.0
H2201 H 0.94552 0.374 0.85081 0.0
H2202 H 0.97799 0.37554 0.88603 0.0
C2203 C 0.02023 0.37026 0.8333 0.0
C2204 C 0.61844 0.78722 0.40013 0.0
C2205 C 0.61554 0.78023 0.42696 0.0
H2206 H 0.61994 0.77418 0.35998 0.0
C2207 C 0.61597 0.75327 0.43395 0.0
H2208 H 0.61899 0.80781 0.3941 0.0
C2209 C 0.61742 0.73371 0.41425 0.0
C2210 C 0.61822 0.74074 0.38716 0.0
H2211 H 0.61408 0.74723 0.45449 0.0
H2212 H 0.61722 0.71309 0.42027 0.0
C2213 C 0.61946 0.7678 0.38048 0.0
C2214 C 0.0186 0.12903 0.86911 0.0
C2215 C 0.99158 0.13218 0.86294 0.0
H2216 H 0.0584 0.12813 0.85478 0.0
C2217 C 0.98413 0.13418 0.83602 0.0
H2218 H 0.02527 0.12746 0.88947 0.0
C2219 C 0.0034 0.13544 0.81606 0.0
C2220 C 0.03043 0.13444 0.82266 0.0
H2221 H 0.96345 0.13578 0.8304 0.0
H2222 H 0.99717 0.13862 0.79573 0.0
C2223 C 0.03773 0.12986 0.84918 0.0
C2224 C 0.10182 0.38176 0.28312 0.0
C2225 C 0.0751 0.38479 0.2757 0.0
H2226 H 0.14229 0.38206 0.27101 0.0
C2227 C 0.06875 0.38627 0.24863 0.0
H2228 H 0.10735 0.37967 0.30375 0.0
C2229 C 0.08892 0.38668 0.22951 0.0
C2230 C 0.11586 0.38594 0.23713 0.0
H2231 H 0.04832 0.38831 0.24224 0.0
H2232 H 0.08334 0.38833 0.20883 0.0
C2233 C 0.12194 0.38266 0.26416 0.0
C2234 C 0.12072 0.6259 0.23974 0.0
C2235 C 0.11508 0.62556 0.26706 0.0
H2236 H 0.10547 0.62528 0.20029 0.0
C2237 C 0.0883 0.62708 0.27516 0.0
H2238 H 0.1409 0.62468 0.23249 0.0
C2239 C 0.06775 0.62643 0.25645 0.0
C2240 C 0.0736 0.62468 0.22929 0.0
H2241 H 0.0831 0.62783 0.29598 0.0
H2242 H 0.04739 0.626 0.26335 0.0
C2243 C 0.10026 0.62584 0.22114 0.0
C2244 C 0.88061 0.62762 0.04809 0.0
C2245 C 0.87116 0.65382 0.04742 0.0
H2246 H 0.88659 0.59157 0.02701 0.0
C2247 C 0.86435 0.66511 0.02286 0.0
H2248 H 0.8863 0.61838 0.06666 0.0
C2249 C 0.86504 0.64973 0.99973 0.0
C2250 C 0.87239 0.62278 1.00081 0.0
H2251 H 0.85719 0.68535 0.02169 0.0
H2252 H 0.85887 0.65871 0.98121 0.0
C2253 C 0.88104 0.61223 0.02515 0.0
C2254 C 0.90432 0.881 0.21449 0.0
C2255 C 0.93083 0.8837 0.22271 0.0
H2256 H 0.86364 0.87986 0.2256 0.0
C2257 C 0.93661 0.88262 0.24993 0.0
H2258 H 0.89923 0.88059 0.19366 0.0
C2259 C 0.91605 0.88092 0.26856 0.0
C2260 C 0.88924 0.88074 0.26037 0.0
H2261 H 0.95689 0.88421 0.25691 0.0
H2262 H 0.92125 0.88052 0.28939 0.0
C2263 C 0.8838 0.87996 0.233 0.0
C2264 C 0.62434 0.36667 0.52094 0.0
C2265 C 0.63195 0.36247 0.49451 0.0
H2266 H 0.62201 0.35036 0.56004 0.0
C2267 C 0.63961 0.33686 0.48641 0.0
H2268 H 0.61849 0.38623 0.5277 0.0
C2269 C 0.64146 0.31625 0.50486 0.0
C2270 C 0.63606 0.32108 0.53174 0.0
H2271 H 0.64542 0.33316 0.46604 0.0
H2272 H 0.64889 0.29713 0.49841 0.0
C2273 C 0.62653 0.34617 0.53944 0.0
C2274 C 0.43422 0.62155 0.74974 0.0
C2275 C 0.42795 0.62073 0.77685 0.0
H2276 H 0.41952 0.62248 0.70996 0.0
C2277 C 0.40123 0.62284 0.78455 0.0
H2278 H 0.45465 0.62038 0.74316 0.0
C2279 C 0.38104 0.62303 0.76565 0.0
C2280 C 0.38705 0.6219 0.73843 0.0
H2281 H 0.39575 0.62334 0.80528 0.0
H2282 H 0.36073 0.6227 0.77263 0.0
C2283 C 0.41398 0.62235 0.73071 0.0
C2284 C 0.88309 0.39156 0.47997 0.0
C2285 C 0.87438 0.38078 0.50416 0.0
H2286 H 0.88809 0.38589 0.43834 0.0
C2287 C 0.86692 0.35385 0.50495 0.0
H2288 H 0.8888 0.41222 0.47841 0.0
C2289 C 0.86606 0.33875 0.48165 0.0
C2290 C 0.87276 0.35032 0.4572 0.0
H2291 H 0.86069 0.34472 0.52338 0.0
H2292 H 0.8588 0.31854 0.48263 0.0
C2293 C 0.88244 0.37647 0.45682 0.0
C2294 C 0.13566 0.1301 0.48425 0.0
C2295 C 0.13649 0.13682 0.51132 0.0
H2296 H 0.13624 0.14368 0.44424 0.0
C2297 C 0.1368 0.16392 0.51833 0.0
H2298 H 0.13557 0.10959 0.47786 0.0
C2299 C 0.13812 0.18363 0.49877 0.0
C2300 C 0.13887 0.17664 0.47181 0.0
H2301 H 0.13667 0.16998 0.53895 0.0
H2302 H 0.13958 0.20421 0.50482 0.0
C2303 C 0.13653 0.14974 0.46482 0.0
C2304 C 0.7513 0.56226 0.88911 0.0
C2305 C 0.77844 0.56715 0.88527 0.0
H2306 H 0.7124 0.57926 0.89204 0.0
C2307 C 0.78674 0.59269 0.87763 0.0
H2308 H 0.74436 0.54281 0.89509 0.0
C2309 C 0.76846 0.61339 0.87553 0.0
C2310 C 0.74165 0.60896 0.88145 0.0
H2311 H 0.80757 0.59702 0.87448 0.0
H2312 H 0.77557 0.63319 0.87107 0.0
C2313 C 0.73306 0.58309 0.88744 0.0
C2314 C 0.8502 0.96502 0.37007 0.0
C2315 C 0.82357 0.97274 0.36716 0.0
H2316 H 0.89065 0.97687 0.37162 0.0
C2317 C 0.81727 0.99984 0.36834 0.0
H2318 H 0.85567 0.94429 0.3704 0.0
C2319 C 0.83747 0.01885 0.37035 0.0
C2320 C 0.86442 0.01116 0.37072 0.0
H2321 H 0.79689 0.00644 0.36661 0.0
H2322 H 0.83188 0.03957 0.37082 0.0
C2323 C 0.87036 0.9839 0.37139 0.0
C2324 C 0.25311 0.90525 0.8876 0.0
C2325 C 0.25304 0.87916 0.87759 0.0
H2326 H 0.22983 0.93905 0.89863 0.0
C2327 C 0.22954 0.86898 0.8666 0.0
H2328 H 0.2711 0.91384 0.89567 0.0
C2329 C 0.20605 0.88348 0.86808 0.0
C2330 C 0.20556 0.90835 0.8807 0.0
H2331 H 0.22873 0.84898 0.85877 0.0
H2332 H 0.18792 0.87436 0.86095 0.0
C2333 C 0.22953 0.91977 0.88914 0.0
C2334 C 0.13062 0.5159 0.37344 0.0
C2335 C 0.1369 0.48874 0.37251 0.0
H2336 H 0.14491 0.55565 0.37367 0.0
C2337 C 0.16389 0.48127 0.37313 0.0
H2338 H 0.11024 0.52268 0.37294 0.0
C2339 C 0.18395 0.50049 0.37239 0.0
C2340 C 0.17742 0.52753 0.37144 0.0
H2341 H 0.16962 0.46058 0.37338 0.0
H2342 H 0.20446 0.4941 0.37142 0.0
C2343 C 0.15062 0.53498 0.3733 0.0
C2344 C 0.75224 0.4382 0.62127 0.0
C2345 C 0.77946 0.43264 0.6193 0.0
H2346 H 0.71287 0.42239 0.62356 0.0
C2347 C 0.78791 0.40607 0.62038 0.0
H2348 H 0.74512 0.45847 0.62073 0.0
C2349 C 0.76954 0.38544 0.62133 0.0
C2350 C 0.74217 0.39079 0.62173 0.0
H2351 H 0.8088 0.40106 0.61941 0.0
H2352 H 0.77691 0.36528 0.62045 0.0
C2353 C 0.73376 0.41747 0.62257 0.0
C2354 C 0.65172 0.96962 0.62797 0.0
C2355 C 0.6783 0.97746 0.63114 0.0
H2356 H 0.61109 0.98115 0.62803 0.0
C2357 C 0.68432 0.00462 0.63207 0.0
H2358 H 0.64649 0.94887 0.62618 0.0
C2359 C 0.6639 0.02344 0.63208 0.0
C2360 C 0.63706 0.01543 0.63156 0.0
H2361 H 0.70465 0.01131 0.63412 0.0
H2362 H 0.66919 0.04422 0.63342 0.0
C2363 C 0.63134 0.98829 0.62854 0.0
C2364 C 0.25287 0.06691 0.61483 0.0
C2365 C 0.22614 0.07213 0.62058 0.0
H2366 H 0.29164 0.08343 0.6091 0.0
C2367 C 0.21871 0.09773 0.62888 0.0
H2368 H 0.25909 0.04739 0.60832 0.0
C2369 C 0.23729 0.11826 0.62948 0.0
C2370 C 0.26354 0.11356 0.6215 0.0
H2371 H 0.19822 0.1022 0.63363 0.0
H2372 H 0.23071 0.13812 0.6344 0.0
C2373 C 0.27141 0.08754 0.61511 0.0
C2374 C 0.33896 0.48105 0.62988 0.0
C2375 C 0.36584 0.48894 0.62954 0.0
H2376 H 0.29827 0.49328 0.63264 0.0
C2377 C 0.37166 0.51618 0.62782 0.0
H2378 H 0.33356 0.46026 0.63027 0.0
C2379 C 0.35137 0.53495 0.62822 0.0
C2380 C 0.32476 0.52712 0.63109 0.0
H2381 H 0.39193 0.52327 0.62754 0.0
H2382 H 0.35671 0.55572 0.62731 0.0
C2383 C 0.31863 0.49996 0.63085 0.0
C2384 C 0.88817 0.75013 0.60369 0.0
C2385 C 0.88053 0.75128 0.63058 0.0
H2386 H 0.89615 0.77196 0.56801 0.0
C2387 C 0.87162 0.77562 0.64091 0.0
H2388 H 0.89456 0.73162 0.59485 0.0
C2389 C 0.87198 0.79847 0.62539 0.0
C2390 C 0.88165 0.79774 0.59926 0.0
H2391 H 0.86585 0.77755 0.66151 0.0
H2392 H 0.86604 0.81703 0.63448 0.0
C2393 C 0.88881 0.77319 0.58818 0.0
C2394 C 0.0469 0.8862 0.63039 0.0
C2395 C 0.04636 0.87506 0.65596 0.0
H2396 H 0.02543 0.89399 0.59473 0.0
C2397 C 0.02193 0.86753 0.66699 0.0
H2398 H 0.06542 0.89259 0.62153 0.0
C2399 C 0.99885 0.86864 0.65166 0.0
C2400 C 0.99989 0.87728 0.62511 0.0
H2401 H 0.02086 0.85916 0.68675 0.0
H2402 H 0.98046 0.86133 0.66007 0.0
C2403 C 0.02389 0.88725 0.61508 0.0
C2404 C 0.11387 0.75415 0.60487 0.0
C2405 C 0.12404 0.75414 0.63093 0.0
H2406 H 0.10343 0.73092 0.5708 0.0
C2407 C 0.13577 0.73085 0.64074 0.0
H2408 H 0.10527 0.77197 0.59648 0.0
C2409 C 0.13507 0.70753 0.62589 0.0
C2410 C 0.12243 0.7069 0.60102 0.0
H2411 H 0.14374 0.73 0.66068 0.0
H2412 H 0.14288 0.68955 0.63473 0.0
C2413 C 0.11303 0.73071 0.59004 0.0
C2414 C 0.01918 0.63848 0.67056 0.0
C2415 C 0.01057 0.63237 0.64471 0.0
H2416 H 0.00793 0.64611 0.71086 0.0
C2417 C 0.9838 0.62619 0.64037 0.0
H2418 H 0.03981 0.64326 0.67432 0.0
C2419 C 0.96556 0.62815 0.66113 0.0
C2420 C 0.97387 0.63593 0.68665 0.0
H2421 H 0.97668 0.62162 0.6206 0.0
H2422 H 0.94475 0.62479 0.65689 0.0
C2423 C 1.00099 0.64002 0.69144 0.0
C2424 C 0.87825 0.23485 0.88084 0.0
C2425 C 0.88064 0.26216 0.88606 0.0
H2426 H 0.87771 0.19559 0.89661 0.0
C2427 C 0.88177 0.27057 0.91277 0.0
H2428 H 0.8773 0.22736 0.86074 0.0
C2429 C 0.88311 0.25206 0.93343 0.0
C2430 C 0.88291 0.2248 0.92782 0.0
H2431 H 0.88261 0.29145 0.91775 0.0
H2432 H 0.88569 0.2591 0.95359 0.0
C2433 C 0.87898 0.21647 0.90149 0.0
C2434 C 0.49981 0.87346 0.31398 0.0
C2435 C 0.47294 0.86863 0.31952 0.0
H2436 H 0.53896 0.87841 0.32976 0.0
C2437 C 0.4647 0.86724 0.34615 0.0
H2438 H 0.50675 0.87488 0.29368 0.0
C2439 C 0.4831 0.86865 0.36673 0.0
C2440 C 0.51025 0.87195 0.36129 0.0
H2441 H 0.44406 0.86396 0.3512 0.0
H2442 H 0.47606 0.86583 0.38683 0.0
C2443 C 0.51829 0.8752 0.33468 0.0
C2444 C 0.12415 0.28876 0.90329 0.0
C2445 C 0.11925 0.28179 0.92984 0.0
H2446 H 0.12724 0.27582 0.86321 0.0
C2447 C 0.11821 0.25484 0.93672 0.0
H2448 H 0.12592 0.30936 0.89747 0.0
C2449 C 0.11987 0.23531 0.91702 0.0
C2450 C 0.12232 0.24241 0.89005 0.0
H2451 H 0.11477 0.24883 0.95707 0.0
H2452 H 0.11832 0.2147 0.92288 0.0
C2453 C 0.12537 0.26938 0.88361 0.0
C2454 C 0.50143 0.63731 0.31537 0.0
C2455 C 0.52815 0.63179 0.32086 0.0
H2456 H 0.46242 0.64249 0.3315 0.0
C2457 C 0.53537 0.62327 0.34644 0.0
H2458 H 0.49538 0.64397 0.29584 0.0
C2459 C 0.51657 0.62226 0.36673 0.0
C2460 C 0.49032 0.63003 0.3618 0.0
H2461 H 0.55585 0.6187 0.35113 0.0
H2462 H 0.52299 0.61722 0.38662 0.0
C2463 C 0.48267 0.63661 0.33576 0.0
C2464 C 0.56954 0.8825 0.74941 0.0
C2465 C 0.57615 0.88251 0.77646 0.0
H2466 H 0.58376 0.88237 0.70947 0.0
C2467 C 0.60289 0.8796 0.7838 0.0
H2468 H 0.54906 0.88428 0.74312 0.0
C2469 C 0.62285 0.87955 0.76468 0.0
C2470 C 0.61655 0.88158 0.73758 0.0
H2471 H 0.60858 0.87842 0.80446 0.0
H2472 H 0.64324 0.87931 0.77144 0.0
C2473 C 0.58954 0.88182 0.73015 0.0
C2474 C 0.56718 0.12132 0.75513 0.0
C2475 C 0.57312 0.12187 0.72794 0.0
H2476 H 0.58244 0.12115 0.79472 0.0
C2477 C 0.59956 0.12569 0.71997 0.0
H2478 H 0.54693 0.1188 0.7619 0.0
C2479 C 0.61999 0.12609 0.73859 0.0
C2480 C 0.61443 0.1234 0.7658 0.0
H2481 H 0.6047 0.1272 0.69917 0.0
H2482 H 0.64019 0.127 0.73136 0.0
C2483 C 0.58764 0.12228 0.7739 0.0
C2484 C 0.38694 0.11355 0.521 0.0
C2485 C 0.37545 0.12318 0.49749 0.0
H2486 H 0.39434 0.12018 0.56216 0.0
C2487 C 0.36588 0.14944 0.49699 0.0
H2488 H 0.39441 0.09344 0.52227 0.0
C2489 C 0.36555 0.16477 0.52015 0.0
C2490 C 0.37477 0.15406 0.54417 0.0
H2491 H 0.35748 0.1577 0.47901 0.0
H2492 H 0.35654 0.18427 0.51955 0.0
C2493 C 0.3867 0.12886 0.54403 0.0
C2494 C 0.38368 0.37811 0.73479 0.0
C2495 C 0.38942 0.37963 0.76207 0.0
H2496 H 0.39869 0.37807 0.69528 0.0
C2497 C 0.4163 0.38015 0.76998 0.0
H2498 H 0.36345 0.37768 0.72761 0.0
C2499 C 0.43664 0.38167 0.7511 0.0
C2500 C 0.43053 0.38219 0.72395 0.0
H2501 H 0.42172 0.38028 0.79076 0.0
H2502 H 0.45697 0.38366 0.75782 0.0
C2503 C 0.40399 0.37893 0.71606 0.0
C2504 C 0.14188 0.83866 0.98569 0.0
C2505 C 0.13405 0.86417 0.9939 0.0
H2506 H 0.15109 0.79883 0.99743 0.0
C2507 C 0.12638 0.86817 0.02035 0.0
H2508 H 0.14775 0.8351 0.96531 0.0
C2509 C 0.12852 0.84753 0.03873 0.0
C2510 C 0.13803 0.82247 0.03088 0.0
H2511 H 0.1204 0.88766 0.0272 0.0
H2512 H 0.12385 0.85153 0.05933 0.0
C2513 C 0.14365 0.8179 0.004 0.0
C2514 C 0.88183 0.12129 0.26746 0.0
C2515 C 0.88802 0.12029 0.24027 0.0
H2516 H 0.89623 0.12133 0.30722 0.0
C2517 C 0.91504 0.12049 0.2328 0.0
H2518 H 0.86147 0.12115 0.27429 0.0
C2519 C 0.93512 0.11937 0.252 0.0
C2520 C 0.92864 0.11849 0.27906 0.0
H2521 H 0.92078 0.12073 0.21211 0.0
H2522 H 0.95559 0.11805 0.24557 0.0
C2523 C 0.90188 0.12082 0.28653 0.0
C2524 C 0.37886 0.89727 0.97693 0.0
C2525 C 0.37241 0.88605 1.00164 0.0
H2526 H 0.38272 0.89158 0.93525 0.0
C2527 C 0.36741 0.85854 0.00294 0.0
H2528 H 0.38252 0.91833 0.97485 0.0
C2529 C 0.36687 0.84314 0.97981 0.0
C2530 C 0.3716 0.85493 0.955 0.0
H2531 H 0.36304 0.84903 0.0217 0.0
H2532 H 0.36158 0.82236 0.98125 0.0
C2533 C 0.3787 0.88187 0.954 0.0
C2534 C 0.63872 0.66442 0.97948 0.0
C2535 C 0.62939 0.6534 0.95566 0.0
H2536 H 0.64629 0.65804 0.02079 0.0
C2537 C 0.61652 0.62865 0.95628 0.0
H2538 H 0.64848 0.68358 0.97969 0.0
C2539 C 0.61562 0.61388 0.97963 0.0
C2540 C 0.62737 0.62368 0.00293 0.0
H2541 H 0.60873 0.61982 0.93828 0.0
H2542 H 0.60753 0.59399 0.97879 0.0
C2543 C 0.63768 0.64967 0.00295 0.0
C2544 C 0.24682 0.25503 0.48503 0.0
C2545 C 0.24054 0.23106 0.47218 0.0
H2546 H 0.26627 0.27409 0.5176 0.0
C2547 C 0.25013 0.20719 0.48312 0.0
H2548 H 0.23958 0.27375 0.47739 0.0
C2549 C 0.2657 0.20742 0.50633 0.0
C2550 C 0.27157 0.23149 0.51929 0.0
H2551 H 0.24578 0.18841 0.47362 0.0
H2552 H 0.27262 0.18879 0.51447 0.0
C2553 C 0.26198 0.25523 0.50825 0.0
C2554 C 0.50769 0.51117 0.76123 0.0
C2555 C 0.48378 0.51864 0.77354 0.0
H2556 H 0.52662 0.4901 0.72975 0.0
C2557 C 0.45974 0.50996 0.76215 0.0
H2558 H 0.52658 0.51768 0.76911 0.0
C2559 C 0.45976 0.49401 0.73918 0.0
C2560 C 0.48381 0.48672 0.7269 0.0
H2561 H 0.44096 0.5152 0.77118 0.0
H2562 H 0.44099 0.48772 0.73082 0.0
C2563 C 0.50771 0.49553 0.73834 0.0
C2564 C 0.75009 0.29406 0.51889 0.0
C2565 C 0.74088 0.27014 0.53005 0.0
H2566 H 0.77243 0.31253 0.48745 0.0
C2567 C 0.74762 0.24615 0.51746 0.0
H2568 H 0.74539 0.31285 0.52818 0.0
C2569 C 0.7629 0.24598 0.49432 0.0
C2570 C 0.77216 0.26976 0.48308 0.0
H2571 H 0.74069 0.22738 0.52526 0.0
H2572 H 0.76756 0.22709 0.4852 0.0
C2573 C 0.76579 0.29386 0.49575 0.0
C2574 C 0.54361 0.00989 0.74118 0.0
C2575 C 0.5193 0.01819 0.7301 0.0
H2576 H 0.56312 0.98759 0.77193 0.0
C2577 C 0.49566 0.00987 0.74239 0.0
H2578 H 0.56221 0.01575 0.73216 0.0
C2579 C 0.49618 0.99377 0.76495 0.0
C2580 C 0.52036 0.98537 0.77609 0.0
H2581 H 0.47656 0.01604 0.73475 0.0
H2582 H 0.47745 0.98769 0.77351 0.0
C2583 C 0.54413 0.99353 0.76383 0.0
C2584 C 0.24857 0.7476 0.0157 0.0
C2585 C 0.24202 0.77138 0.02878 0.0
H2586 H 0.26824 0.72908 0.98296 0.0
C2587 C 0.25135 0.79546 0.01808 0.0
H2588 H 0.24154 0.72873 0.02314 0.0
C2589 C 0.26696 0.79563 0.99488 0.0
C2590 C 0.2731 0.77175 0.9817 0.0
H2591 H 0.2468 0.81409 0.02776 0.0
H2592 H 0.27368 0.81441 0.98692 0.0
C2593 C 0.26375 0.74781 0.99249 0.0
C2594 C 0.04237 0.49482 0.26613 0.0
C2595 C 0.01841 0.48585 0.27744 0.0
H2596 H 0.06092 0.51816 0.23555 0.0
C2597 C 0.9944 0.49412 0.26583 0.0
H2598 H 0.06122 0.48901 0.27462 0.0
C2599 C 0.99423 0.51079 0.24368 0.0
C2600 C 0.01806 0.51982 0.23228 0.0
H2601 H 0.97555 0.48745 0.27364 0.0
H2602 H 0.97526 0.51677 0.2356 0.0
C2603 C 0.04219 0.51175 0.24389 0.0
C2604 C 0.74457 0.70792 0.98948 0.0
C2605 C 0.73644 0.73144 0.97679 0.0
H2606 H 0.76698 0.69058 0.02151 0.0
C2607 C 0.74472 0.75587 0.98741 0.0
H2608 H 0.73869 0.68881 0.9816 0.0
C2609 C 0.76064 0.75689 0.01011 0.0
C2610 C 0.76912 0.73349 0.02269 0.0
H2611 H 0.73872 0.77432 0.97818 0.0
H2612 H 0.76662 0.77609 0.01769 0.0
C2613 C 0.76099 0.70893 0.01208 0.0
C2614 C 0.95989 0.00901 0.2627 0.0
C2615 C 0.98372 0.01666 0.27518 0.0
H2616 H 0.94172 0.98834 0.23001 0.0
C2617 C 0.00787 0.00915 0.26339 0.0
H2618 H 0.94095 0.01434 0.27132 0.0
C2619 C 0.00832 0.9944 0.23994 0.0
C2620 C 0.98462 0.98654 0.22746 0.0
H2621 H 0.02661 0.01493 0.27217 0.0
H2622 H 0.02738 0.98885 0.23174 0.0
C2623 C 0.96033 0.99392 0.23918 0.0
C2624 C 0.49078 0.24464 0.21694 0.0
C2625 C 0.4791 0.23678 0.24108 0.0
H2626 H 0.52182 0.26709 0.19795 0.0
C2627 C 0.4905 0.24573 0.26493 0.0
H2628 H 0.4823 0.23828 0.19825 0.0
C2629 C 0.51294 0.26203 0.26476 0.0
C2630 C 0.52457 0.27016 0.24075 0.0
H2631 H 0.48211 0.23995 0.28384 0.0
H2632 H 0.52109 0.26852 0.28356 0.0
C2633 C 0.51316 0.26138 0.21677 0.0
C2634 C 0.49317 0.26304 0.04431 0.0
C2635 C 0.48471 0.27426 0.02014 0.0
H2636 H 0.51618 0.23238 0.06335 0.0
C2637 C 0.49321 0.26245 0.99633 0.0
H2638 H 0.48717 0.27183 0.06298 0.0
C2639 C 0.5096 0.24007 0.99654 0.0
C2640 C 0.5183 0.22887 0.02056 0.0
H2641 H 0.48699 0.27045 0.97739 0.0
H2642 H 0.51567 0.23159 0.97776 0.0
C2643 C 0.51002 0.24069 0.04452 0.0
C2644 C 0.51487 0.73999 0.24174 0.0
C2645 C 0.52704 0.73366 0.26606 0.0
H2646 H 0.48309 0.75974 0.22178 0.0
C2647 C 0.51539 0.74315 0.28963 0.0
H2648 H 0.52302 0.73282 0.22322 0.0
C2649 C 0.49223 0.75875 0.28878 0.0
C2650 C 0.48004 0.76484 0.26437 0.0
H2651 H 0.52432 0.73878 0.30867 0.0
H2652 H 0.48364 0.76565 0.30722 0.0
C2653 C 0.49173 0.75525 0.24092 0.0
C2654 C 0.00846 0.26692 0.00447 0.0
C2655 C 0.01603 0.27898 0.98048 0.0
H2656 H 0.98838 0.23485 0.02354 0.0
C2657 C 0.00854 0.26671 0.95649 0.0
H2658 H 0.01409 0.27555 0.02332 0.0
C2659 C 0.99365 0.24306 0.95662 0.0
C2660 C 0.9863 0.231 0.98074 0.0
H2661 H 0.0139 0.27554 0.93766 0.0
H2662 H 0.98824 0.23402 0.93789 0.0
C2663 C 0.99391 0.24332 0.0046 0.0
C2664 C 0.25787 0.49411 0.24331 0.0
C2665 C 0.23407 0.48224 0.23478 0.0
H2666 H 0.27652 0.52453 0.2661 0.0
C2667 C 0.20992 0.49346 0.24335 0.0
H2668 H 0.27687 0.48639 0.23695 0.0
C2669 C 0.20971 0.51582 0.26017 0.0
C2670 C 0.23365 0.52763 0.26856 0.0
H2671 H 0.1912 0.4848 0.23734 0.0
H2672 H 0.19084 0.52404 0.26631 0.0
C2673 C 0.25767 0.51634 0.25987 0.0
C2674 C 0.74056 0.49029 0.01368 0.0
C2675 C 0.72987 0.51444 0.02264 0.0
H2676 H 0.7705 0.47072 0.99095 0.0
C2677 C 0.74261 0.5382 0.01523 0.0
H2678 H 0.73142 0.47163 0.01915 0.0
C2679 C 0.76523 0.53769 0.99882 0.0
C2680 C 0.77581 0.5134 0.98985 0.0
H2681 H 0.73474 0.55714 0.02161 0.0
H2682 H 0.77458 0.55625 0.99337 0.0
C2683 C 0.76317 0.48977 0.99764 0.0
C2684 C 0.79415 0.01188 0.24082 0.0
C2685 C 0.7701 0.02339 0.23238 0.0
H2686 H 0.81294 0.98018 0.26241 0.0
C2687 C 0.7462 0.01092 0.23959 0.0
H2688 H 0.81292 0.02103 0.23577 0.0
C2689 C 0.74621 0.98773 0.25476 0.0
C2690 C 0.77012 0.97617 0.26333 0.0
H2691 H 0.7273 0.01891 0.23324 0.0
H2692 H 0.7273 0.97901 0.26003 0.0
C2693 C 0.79416 0.98861 0.25629 0.0
C2694 C 0.74293 0.46261 0.4923 0.0
C2695 C 0.72876 0.48589 0.48621 0.0
H2696 H 0.77648 0.44553 0.51245 0.0
C2697 C 0.73861 0.5103 0.49544 0.0
H2698 H 0.73571 0.44349 0.48563 0.0
C2699 C 0.76181 0.5115 0.51059 0.0
C2700 C 0.77576 0.48827 0.51723 0.0
H2701 H 0.72827 0.52859 0.49095 0.0
H2702 H 0.76852 0.53066 0.51761 0.0
C2703 C 0.76608 0.46376 0.50787 0.0
C2704 C 0.29405 0.51274 0.74162 0.0
C2705 C 0.26985 0.5239 0.73315 0.0
H2706 H 0.31325 0.48142 0.76342 0.0
C2707 C 0.2461 0.51125 0.74057 0.0
H2708 H 0.31271 0.52204 0.73643 0.0
C2709 C 0.24642 0.4882 0.75594 0.0
C2710 C 0.27049 0.47696 0.7645 0.0
H2711 H 0.22711 0.51898 0.73421 0.0
H2712 H 0.22763 0.4793 0.76133 0.0
C2713 C 0.29436 0.48961 0.7573 0.0
C2714 C 0.23886 0.0391 0.50951 0.0
C2715 C 0.22739 0.01559 0.51937 0.0
H2716 H 0.27026 0.05656 0.48645 0.0
C2717 C 0.23959 0.99126 0.51318 0.0
H2718 H 0.2299 0.05815 0.51377 0.0
C2719 C 0.26254 0.99036 0.49763 0.0
C2720 C 0.27401 0.01373 0.48763 0.0
H2721 H 0.2316 0.97279 0.52065 0.0
H2722 H 0.27117 0.97119 0.49322 0.0
C2723 C 0.26182 0.03816 0.49365 0.0
C2724 C 0.00932 0.76627 0.71595 0.0
C2725 C 0.02186 0.77386 0.73977 0.0
H2726 H 0.97762 0.7441 0.69775 0.0
C2727 C 0.01109 0.76488 0.76388 0.0
H2728 H 0.01725 0.77267 0.69704 0.0
C2729 C 0.98861 0.74864 0.7643 0.0
C2730 C 0.97617 0.74068 0.74061 0.0
H2731 H 0.02006 0.77048 0.78259 0.0
H2732 H 0.98122 0.74195 0.78332 0.0
C2733 C 0.98682 0.74967 0.71636 0.0
C2734 C 0.00811 0.74045 0.54539 0.0
C2735 C 0.01642 0.72782 0.52189 0.0
H2736 H 0.98557 0.77241 0.56265 0.0
C2737 C 0.00838 0.73851 0.49742 0.0
H2738 H 0.0138 0.7325 0.56452 0.0
C2739 C 0.9925 0.76122 0.49634 0.0
C2740 C 0.98383 0.77372 0.51972 0.0
H2741 H 0.01454 0.72933 0.47899 0.0
H2742 H 0.98669 0.76886 0.47712 0.0
C2743 C 0.99172 0.76304 0.54432 0.0
C2744 C 0.01483 0.24401 0.79314 0.0
C2745 C 0.02782 0.23678 0.76946 0.0
H2746 H 0.98147 0.26383 0.81093 0.0
C2747 C 0.0163 0.24425 0.74517 0.0
H2748 H 0.02324 0.23871 0.81218 0.0
C2749 C 0.99254 0.2585 0.74446 0.0
C2750 C 0.97954 0.26589 0.76802 0.0
H2751 H 0.02549 0.23879 0.72654 0.0
H2752 H 0.9845 0.26402 0.72532 0.0
C2753 C 0.99104 0.25859 0.79242 0.0
C2754 C 0.48865 0.74511 0.45632 0.0
C2755 C 0.48307 0.73174 0.48022 0.0
H2756 H 0.50818 0.77827 0.43771 0.0
C2757 C 0.49271 0.74251 0.50407 0.0
H2758 H 0.48167 0.73719 0.43761 0.0
C2759 C 0.50766 0.76587 0.50415 0.0
C2760 C 0.51368 0.77912 0.48034 0.0
H2761 H 0.48863 0.73284 0.52282 0.0
H2762 H 0.51495 0.7733 0.52295 0.0
C2763 C 0.50403 0.76845 0.45636 0.0
C2764 C 0.70962 0.99052 0.74202 0.0
C2765 C 0.73373 0.97952 0.73307 0.0
H2766 H 0.69064 0.02139 0.76473 0.0
C2767 C 0.75755 0.99201 0.74059 0.0
H2768 H 0.69091 0.98135 0.73677 0.0
C2769 C 0.75739 0.01471 0.7565 0.0
C2770 C 0.73342 0.0258 0.76554 0.0
H2771 H 0.77649 0.98442 0.7339 0.0
H2772 H 0.77624 0.02348 0.76192 0.0
C2773 C 0.70947 0.01331 0.75825 0.0
C2774 C 0.26746 0.96854 0.00507 0.0
C2775 C 0.27591 0.99309 0.01553 0.0
H2776 H 0.23809 0.94768 0.98208 0.0
C2777 C 0.26093 0.01587 0.00961 0.0
H2778 H 0.27864 0.95063 0.00901 0.0
C2779 C 0.23787 0.01415 0.99428 0.0
C2780 C 0.22911 0.98964 0.98423 0.0
H2781 H 0.2666 0.03505 0.01743 0.0
H2782 H 0.22671 0.0321 0.99045 0.0
C2783 C 0.2444 0.96687 0.98942 0.0
loop_
_geom_bond_atom_site_label_1
_geom_bond_atom_site_label_2
_geom_bond_distance
_geom_bond_site_symmetry_2
_ccdc_geom_bond_type
C0 C1 1.351 . S
C0 N3 1.368 . S
C0 H5 0.931 . S
C1 C0 1.351 . S
C1 N2 1.373 . S
C1 H29 0.930 . S
N2 C1 1.373 . S
N2 C4 1.340 . S
N3 C0 1.368 . S
N3 C4 1.321 . S
N3 Co6 2.135 . S
C4 N2 1.340 . S
C4 N3 1.321 . S
C4 H28 0.930 . S
H5 C0 0.931 . S
Co6 N3 2.135 . S
Co6 N9 2.121 . S
Co6 O14 2.055 . S
Co6 O17 2.039 . S
Co6 N20 2.140 . S
C7 O8 1.227 . S
C7 O17 1.265 . S
O8 C7 1.227 . S
N9 Co6 2.121 . S
N9 C11 1.375 . S
N9 C12 1.313 . S
C10 C11 1.338 . S
C10 N13 1.377 . S
C10 H30 0.930 . S
C11 N9 1.375 . S
C11 C10 1.338 . S
C11 H15 0.931 . S
C12 N9 1.313 . S
C12 N13 1.344 . S
C12 H16 0.930 . S
N13 C10 1.377 . S
N13 C12 1.344 . S
O14 Co6 2.055 . S
O14 C18 1.253 . S
H15 C11 0.931 . S
H16 C12 0.930 . S
O17 Co6 2.039 . S
O17 C7 1.265 . S
C18 O14 1.253 . S
C18 O19 1.227 . S
O19 C18 1.227 . S
N20 Co6 2.140 . S
N20 C23 1.346 . S
N20 C24 1.345 . S
C21 C22 1.387 . S
C21 C25 1.391 . S
C22 C21 1.387 . S
C22 C23 1.369 . S
C22 H31 0.929 . S
C23 N20 1.346 . S
C23 C22 1.369 . S
C23 H26 0.928 . S
C24 N20 1.345 . S
C24 C25 1.371 . S
C24 H27 0.931 . S
C25 C21 1.391 . S
C25 C24 1.371 . S
C25 H32 0.930 . S
H26 C23 0.928 . S
H27 C24 0.931 . S
H28 C4 0.930 . S
H29 C1 0.930 . S
H30 C10 0.930 . S
H31 C22 0.929 . S
H32 C25 0.930 . S
C33 C34 1.351 . S
C33 N36 1.368 . S
C33 H38 0.931 . S
C34 C33 1.351 . S
C34 N35 1.373 . S
C34 H62 0.930 . S
N35 C34 1.373 . S
N35 C37 1.340 . S
N36 C33 1.368 . S
N36 C37 1.321 . S
N36 Co39 2.135 . S
C37 N35 1.340 . S
C37 N36 1.321 . S
C37 H61 0.930 . S
H38 C33 0.931 . S
Co39 N36 2.135 . S
Co39 N42 2.121 . S
Co39 O47 2.055 . S
Co39 O50 2.039 . S
Co39 N53 2.140 . S
C40 O41 1.227 . S
C40 O50 1.265 . S
O41 C40 1.227 . S
N42 Co39 2.121 . S
N42 C44 1.375 . S
N42 C45 1.313 . S
C43 C44 1.338 . S
C43 N46 1.377 . S
C43 H63 0.930 . S
C44 N42 1.375 . S
C44 C43 1.338 . S
C44 H48 0.931 . S
C45 N42 1.313 . S
C45 N46 1.344 . S
C45 H49 0.930 . S
N46 C43 1.377 . S
N46 C45 1.344 . S
O47 Co39 2.055 . S
O47 C51 1.253 . S
H48 C44 0.931 . S
H49 C45 0.930 . S
O50 Co39 2.039 . S
O50 C40 1.265 . S
C51 O47 1.253 . S
C51 O52 1.227 . S
O52 C51 1.227 . S
N53 Co39 2.140 . S
N53 C56 1.346 . S
N53 C57 1.345 . S
C54 C55 1.387 . S
C54 C58 1.391 . S
C55 C54 1.387 . S
C55 C56 1.369 . S
C55 H64 0.929 . S
C56 N53 1.346 . S
C56 C55 1.369 . S
C56 H59 0.928 . S
C57 N53 1.345 . S
C57 C58 1.371 . S
C57 H60 0.931 . S
C58 C54 1.391 . S
C58 C57 1.371 . S
C58 H65 0.930 . S
H59 C56 0.928 . S
H60 C57 0.931 . S
H61 C37 0.930 . S
H62 C34 0.930 . S
H63 C43 0.930 . S
H64 C55 0.929 . S
H65 C58 0.930 . S
C66 C67 1.351 . S
C66 N69 1.368 . S
C66 H71 0.931 . S
C67 C66 1.351 . S
C67 N68 1.373 . S
C67 H95 0.930 . S
N68 C67 1.373 . S
N68 C70 1.340 . S
N69 C66 1.368 . S
N69 C70 1.321 . S
N69 Co72 2.135 . S
C70 N68 1.340 . S
C70 N69 1.321 . S
C70 H94 0.930 . S
H71 C66 0.931 . S
Co72 N69 2.135 . S
Co72 N75 2.121 . S
Co72 O80 2.055 . S
Co72 O83 2.039 . S
Co72 N86 2.140 . S
C73 O74 1.227 . S
C73 O83 1.265 . S
O74 C73 1.227 . S
N75 Co72 2.121 . S
N75 C77 1.375 . S
N75 C78 1.313 . S
C76 C77 1.338 . S
C76 N79 1.377 . S
C76 H96 0.930 . S
C77 N75 1.375 . S
C77 C76 1.338 . S
C77 H81 0.931 . S
C78 N75 1.313 . S
C78 N79 1.344 . S
C78 H82 0.930 . S
N79 C76 1.377 . S
N79 C78 1.344 . S
O80 Co72 2.055 . S
O80 C84 1.253 . S
H81 C77 0.931 . S
H82 C78 0.930 . S
O83 Co72 2.039 . S
O83 C73 1.265 . S
C84 O80 1.253 . S
C84 O85 1.227 . S
O85 C84 1.227 . S
N86 Co72 2.140 . S
N86 C89 1.346 . S
N86 C90 1.345 . S
C87 C88 1.387 . S
C87 C91 1.391 . S
C88 C87 1.387 . S
C88 C89 1.369 . S
C88 H97 0.929 . S
C89 N86 1.346 . S
C89 C88 1.369 . S
C89 H92 0.928 . S
C90 N86 1.345 . S
C90 C91 1.371 . S
C90 H93 0.931 . S
C91 C87 1.391 . S
C91 C90 1.371 . S
C91 H98 0.930 . S
H92 C89 0.928 . S
H93 C90 0.931 . S
H94 C70 0.930 . S
H95 C67 0.930 . S
H96 C76 0.930 . S
H97 C88 0.929 . S
H98 C91 0.930 . S
C99 C100 1.351 . S
C99 N102 1.368 . S
C99 H104 0.931 . S
C100 C99 1.351 . S
C100 N101 1.373 . S
C100 H128 0.930 . S
N101 C100 1.373 . S
N101 C103 1.340 . S
N102 C99 1.368 . S
N102 C103 1.321 . S
N102 Co105 2.135 . S
C103 N101 1.340 . S
C103 N102 1.321 . S
C103 H127 0.930 . S
H104 C99 0.931 . S
Co105 N102 2.135 . S
Co105 N108 2.121 . S
Co105 O113 2.055 . S
Co105 O116 2.039 . S
Co105 N119 2.140 . S
C106 O107 1.227 . S
C106 O116 1.265 . S
O107 C106 1.227 . S
N108 Co105 2.121 . S
N108 C110 1.375 . S
N108 C111 1.313 . S
C109 C110 1.338 . S
C109 N112 1.377 . S
C109 H129 0.930 . S
C110 N108 1.375 . S
C110 C109 1.338 . S
C110 H114 0.931 . S
C111 N108 1.313 . S
C111 N112 1.344 . S
C111 H115 0.930 . S
N112 C109 1.377 . S
N112 C111 1.344 . S
O113 Co105 2.055 . S
O113 C117 1.253 . S
H114 C110 0.931 . S
H115 C111 0.930 . S
O116 Co105 2.039 . S
O116 C106 1.265 . S
C117 O113 1.253 . S
C117 O118 1.227 . S
O118 C117 1.227 . S
N119 Co105 2.140 . S
N119 C122 1.346 . S
N119 C123 1.345 . S
C120 C121 1.387 . S
C120 C124 1.391 . S
C121 C120 1.387 . S
C121 C122 1.369 . S
C121 H130 0.929 . S
C122 N119 1.346 . S
C122 C121 1.369 . S
C122 H125 0.928 . S
C123 N119 1.345 . S
C123 C124 1.371 . S
C123 H126 0.931 . S
C124 C120 1.391 . S
C124 C123 1.371 . S
C124 H131 0.930 . S
H125 C122 0.928 . S
H126 C123 0.931 . S
H127 C103 0.930 . S
H128 C100 0.930 . S
H129 C109 0.930 . S
H130 C121 0.929 . S
H131 C124 0.930 . S
C132 C133 1.351 . S
C132 N135 1.368 . S
C132 H137 0.931 . S
C133 C132 1.351 . S
C133 N134 1.373 . S
C133 H161 0.930 . S
N134 C133 1.373 . S
N134 C136 1.340 . S
N135 C132 1.368 . S
N135 C136 1.321 . S
N135 Co138 2.135 . S
C136 N134 1.340 . S
C136 N135 1.321 . S
C136 H160 0.930 . S
H137 C132 0.931 . S
Co138 N135 2.135 . S
Co138 N141 2.121 . S
Co138 O146 2.055 . S
Co138 O149 2.039 . S
Co138 N152 2.140 . S
C139 O140 1.227 . S
C139 O149 1.265 . S
O140 C139 1.227 . S
N141 Co138 2.121 . S
N141 C143 1.375 . S
N141 C144 1.313 . S
C142 C143 1.338 . S
C142 N145 1.377 . S
C142 H162 0.930 . S
C143 N141 1.375 . S
C143 C142 1.338 . S
C143 H147 0.931 . S
C144 N141 1.313 . S
C144 N145 1.344 . S
C144 H148 0.930 . S
N145 C142 1.377 . S
N145 C144 1.344 . S
O146 Co138 2.055 . S
O146 C150 1.253 . S
H147 C143 0.931 . S
H148 C144 0.930 . S
O149 Co138 2.039 . S
O149 C139 1.265 . S
C150 O146 1.253 . S
C150 O151 1.227 . S
O151 C150 1.227 . S
N152 Co138 2.140 . S
N152 C155 1.346 . S
N152 C156 1.345 . S
C153 C154 1.387 . S
C153 C157 1.391 . S
C154 C153 1.387 . S
C154 C155 1.369 . S
C154 H163 0.929 . S
C155 N152 1.346 . S
C155 C154 1.369 . S
C155 H158 0.928 . S
C156 N152 1.345 . S
C156 C157 1.371 . S
C156 H159 0.931 . S
C157 C153 1.391 . S
C157 C156 1.371 . S
C157 H164 0.930 . S
H158 C155 0.928 . S
H159 C156 0.931 . S
H160 C136 0.930 . S
H161 C133 0.930 . S
H162 C142 0.930 . S
H163 C154 0.929 . S
H164 C157 0.930 . S
C165 C166 1.351 . S
C165 N168 1.368 . S
C165 H170 0.931 . S
C166 C165 1.351 . S
C166 N167 1.373 . S
C166 H194 0.930 . S
N167 C166 1.373 . S
N167 C169 1.340 . S
N168 C165 1.368 . S
N168 C169 1.321 . S
N168 Co171 2.135 . S
C169 N167 1.340 . S
C169 N168 1.321 . S
C169 H193 0.930 . S
H170 C165 0.931 . S
Co171 N168 2.135 . S
Co171 N174 2.121 . S
Co171 O179 2.055 . S
Co171 O182 2.039 . S
Co171 N185 2.140 . S
C172 O173 1.227 . S
C172 O182 1.265 . S
O173 C172 1.227 . S
N174 Co171 2.121 . S
N174 C176 1.375 . S
N174 C177 1.313 . S
C175 C176 1.338 . S
C175 N178 1.377 . S
C175 H195 0.930 . S
C176 N174 1.375 . S
C176 C175 1.338 . S
C176 H180 0.931 . S
C177 N174 1.313 . S
C177 N178 1.344 . S
C177 H181 0.930 . S
N178 C175 1.377 . S
N178 C177 1.344 . S
O179 Co171 2.055 . S
O179 C183 1.253 . S
H180 C176 0.931 . S
H181 C177 0.930 . S
O182 Co171 2.039 . S
O182 C172 1.265 . S
C183 O179 1.253 . S
C183 O184 1.227 . S
O184 C183 1.227 . S
N185 Co171 2.140 . S
N185 C188 1.346 . S
N185 C189 1.345 . S
C186 C187 1.387 . S
C186 C190 1.391 . S
C187 C186 1.387 . S
C187 C188 1.369 . S
C187 H196 0.929 . S
C188 N185 1.346 . S
C188 C187 1.369 . S
C188 H191 0.928 . S
C189 N185 1.345 . S
C189 C190 1.371 . S
C189 H192 0.931 . S
C190 C186 1.391 . S
C190 C189 1.371 . S
C190 H197 0.930 . S
H191 C188 0.928 . S
H192 C189 0.931 . S
H193 C169 0.930 . S
H194 C166 0.930 . S
H195 C175 0.930 . S
H196 C187 0.929 . S
H197 C190 0.930 . S
C198 C199 1.351 . S
C198 N201 1.368 . S
C198 H203 0.931 . S
C199 C198 1.351 . S
C199 N200 1.373 . S
C199 H227 0.930 . S
N200 C199 1.373 . S
N200 C202 1.340 . S
N201 C198 1.368 . S
N201 C202 1.321 . S
N201 Co204 2.135 . S
C202 N200 1.340 . S
C202 N201 1.321 . S
C202 H226 0.930 . S
H203 C198 0.931 . S
Co204 N201 2.135 . S
Co204 N207 2.121 . S
Co204 O212 2.055 . S
Co204 O215 2.039 . S
Co204 N218 2.140 . S
C205 O206 1.227 . S
C205 O215 1.265 . S
O206 C205 1.227 . S
N207 Co204 2.121 . S
N207 C209 1.375 . S
N207 C210 1.313 . S
C208 C209 1.338 . S
C208 N211 1.377 . S
C208 H228 0.930 . S
C209 N207 1.375 . S
C209 C208 1.338 . S
C209 H213 0.931 . S
C210 N207 1.313 . S
C210 N211 1.344 . S
C210 H214 0.930 . S
N211 C208 1.377 . S
N211 C210 1.344 . S
O212 Co204 2.055 . S
O212 C216 1.253 . S
H213 C209 0.931 . S
H214 C210 0.930 . S
O215 Co204 2.039 . S
O215 C205 1.265 . S
C216 O212 1.253 . S
C216 O217 1.227 . S
O217 C216 1.227 . S
N218 Co204 2.140 . S
N218 C221 1.346 . S
N218 C222 1.345 . S
C219 C220 1.387 . S
C219 C223 1.391 . S
C220 C219 1.387 . S
C220 C221 1.369 . S
C220 H229 0.929 . S
C221 N218 1.346 . S
C221 C220 1.369 . S
C221 H224 0.928 . S
C222 N218 1.345 . S
C222 C223 1.371 . S
C222 H225 0.931 . S
C223 C219 1.391 . S
C223 C222 1.371 . S
C223 H230 0.930 . S
H224 C221 0.928 . S
H225 C222 0.931 . S
H226 C202 0.930 . S
H227 C199 0.930 . S
H228 C208 0.930 . S
H229 C220 0.929 . S
H230 C223 0.930 . S
C231 C232 1.351 . S
C231 N234 1.368 . S
C231 H236 0.931 . S
C232 C231 1.351 . S
C232 N233 1.373 . S
C232 H260 0.930 . S
N233 C232 1.373 . S
N233 C235 1.340 . S
N234 C231 1.368 . S
N234 C235 1.321 . S
N234 Co237 2.135 . S
C235 N233 1.340 . S
C235 N234 1.321 . S
C235 H259 0.930 . S
H236 C231 0.931 . S
Co237 N234 2.135 . S
Co237 N240 2.121 . S
Co237 O245 2.055 . S
Co237 O248 2.039 . S
Co237 N251 2.140 . S
C238 O239 1.227 . S
C238 O248 1.265 . S
O239 C238 1.227 . S
N240 Co237 2.121 . S
N240 C242 1.375 . S
N240 C243 1.313 . S
C241 C242 1.338 . S
C241 N244 1.377 . S
C241 H261 0.930 . S
C242 N240 1.375 . S
C242 C241 1.338 . S
C242 H246 0.931 . S
C243 N240 1.313 . S
C243 N244 1.344 . S
C243 H247 0.930 . S
N244 C241 1.377 . S
N244 C243 1.344 . S
O245 Co237 2.055 . S
O245 C249 1.253 . S
H246 C242 0.931 . S
H247 C243 0.930 . S
O248 Co237 2.039 . S
O248 C238 1.265 . S
C249 O245 1.253 . S
C249 O250 1.227 . S
O250 C249 1.227 . S
N251 Co237 2.140 . S
N251 C254 1.346 . S
N251 C255 1.345 . S
C252 C253 1.387 . S
C252 C256 1.391 . S
C253 C252 1.387 . S
C253 C254 1.369 . S
C253 H262 0.929 . S
C254 N251 1.346 . S
C254 C253 1.369 . S
C254 H257 0.928 . S
C255 N251 1.345 . S
C255 C256 1.371 . S
C255 H258 0.931 . S
C256 C252 1.391 . S
C256 C255 1.371 . S
C256 H263 0.930 . S
H257 C254 0.928 . S
H258 C255 0.931 . S
H259 C235 0.930 . S
H260 C232 0.930 . S
H261 C241 0.930 . S
H262 C253 0.929 . S
H263 C256 0.930 . S
C264 C265 1.351 . S
C264 N267 1.368 . S
C264 H269 0.931 . S
C265 C264 1.351 . S
C265 N266 1.373 . S
C265 H293 0.930 . S
N266 C265 1.373 . S
N266 C268 1.340 . S
N267 C264 1.368 . S
N267 C268 1.321 . S
N267 Co270 2.135 . S
C268 N266 1.340 . S
C268 N267 1.321 . S
C268 H292 0.930 . S
H269 C264 0.931 . S
Co270 N267 2.135 . S
Co270 N273 2.121 . S
Co270 O278 2.055 . S
Co270 O281 2.039 . S
Co270 N284 2.140 . S
C271 O272 1.227 . S
C271 O281 1.265 . S
O272 C271 1.227 . S
N273 Co270 2.121 . S
N273 C275 1.375 . S
N273 C276 1.313 . S
C274 C275 1.338 . S
C274 N277 1.377 . S
C274 H294 0.930 . S
C275 N273 1.375 . S
C275 C274 1.338 . S
C275 H279 0.931 . S
C276 N273 1.313 . S
C276 N277 1.344 . S
C276 H280 0.930 . S
N277 C274 1.377 . S
N277 C276 1.344 . S
O278 Co270 2.055 . S
O278 C282 1.253 . S
H279 C275 0.931 . S
H280 C276 0.930 . S
O281 Co270 2.039 . S
O281 C271 1.265 . S
C282 O278 1.253 . S
C282 O283 1.227 . S
O283 C282 1.227 . S
N284 Co270 2.140 . S
N284 C287 1.346 . S
N284 C288 1.345 . S
C285 C286 1.387 . S
C285 C289 1.391 . S
C286 C285 1.387 . S
C286 C287 1.369 . S
C286 H295 0.929 . S
C287 N284 1.346 . S
C287 C286 1.369 . S
C287 H290 0.928 . S
C288 N284 1.345 . S
C288 C289 1.371 . S
C288 H291 0.931 . S
C289 C285 1.391 . S
C289 C288 1.371 . S
C289 H296 0.930 . S
H290 C287 0.928 . S
H291 C288 0.931 . S
H292 C268 0.930 . S
H293 C265 0.930 . S
H294 C274 0.930 . S
H295 C286 0.929 . S
H296 C289 0.930 . S
C297 C298 1.351 . S
C297 N300 1.368 . S
C297 H302 0.931 . S
C298 C297 1.351 . S
C298 N299 1.373 . S
C298 H326 0.930 . S
N299 C298 1.373 . S
N299 C301 1.340 . S
N300 C297 1.368 . S
N300 C301 1.321 . S
N300 Co303 2.135 . S
C301 N299 1.340 . S
C301 N300 1.321 . S
C301 H325 0.930 . S
H302 C297 0.931 . S
Co303 N300 2.135 . S
Co303 N306 2.121 . S
Co303 O311 2.055 . S
Co303 O314 2.039 . S
Co303 N317 2.140 . S
C304 O305 1.227 . S
C304 O314 1.265 . S
O305 C304 1.227 . S
N306 Co303 2.121 . S
N306 C308 1.375 . S
N306 C309 1.313 . S
C307 C308 1.338 . S
C307 N310 1.377 . S
C307 H327 0.930 . S
C308 N306 1.375 . S
C308 C307 1.338 . S
C308 H312 0.931 . S
C309 N306 1.313 . S
C309 N310 1.344 . S
C309 H313 0.930 . S
N310 C307 1.377 . S
N310 C309 1.344 . S
O311 Co303 2.055 . S
O311 C315 1.253 . S
H312 C308 0.931 . S
H313 C309 0.930 . S
O314 Co303 2.039 . S
O314 C304 1.265 . S
C315 O311 1.253 . S
C315 O316 1.227 . S
O316 C315 1.227 . S
N317 Co303 2.140 . S
N317 C320 1.346 . S
N317 C321 1.345 . S
C318 C319 1.387 . S
C318 C322 1.391 . S
C319 C318 1.387 . S
C319 C320 1.369 . S
C319 H328 0.929 . S
C320 N317 1.346 . S
C320 C319 1.369 . S
C320 H323 0.928 . S
C321 N317 1.345 . S
C321 C322 1.371 . S
C321 H324 0.931 . S
C322 C318 1.391 . S
C322 C321 1.371 . S
C322 H329 0.930 . S
H323 C320 0.928 . S
H324 C321 0.931 . S
H325 C301 0.930 . S
H326 C298 0.930 . S
H327 C307 0.930 . S
H328 C319 0.929 . S
H329 C322 0.930 . S
C330 C331 1.351 . S
C330 N333 1.368 . S
C330 H335 0.931 . S
C331 C330 1.351 . S
C331 N332 1.373 . S
C331 H359 0.930 . S
N332 C331 1.373 . S
N332 C334 1.340 . S
N333 C330 1.368 . S
N333 C334 1.321 . S
N333 Co336 2.135 . S
C334 N332 1.340 . S
C334 N333 1.321 . S
C334 H358 0.930 . S
H335 C330 0.931 . S
Co336 N333 2.135 . S
Co336 N339 2.121 . S
Co336 O344 2.055 . S
Co336 O347 2.039 . S
Co336 N350 2.140 . S
C337 O338 1.227 . S
C337 O347 1.265 . S
O338 C337 1.227 . S
N339 Co336 2.121 . S
N339 C341 1.375 . S
N339 C342 1.313 . S
C340 C341 1.338 . S
C340 N343 1.377 . S
C340 H360 0.930 . S
C341 N339 1.375 . S
C341 C340 1.338 . S
C341 H345 0.931 . S
C342 N339 1.313 . S
C342 N343 1.344 . S
C342 H346 0.930 . S
N343 C340 1.377 . S
N343 C342 1.344 . S
O344 Co336 2.055 . S
O344 C348 1.253 . S
H345 C341 0.931 . S
H346 C342 0.930 . S
O347 Co336 2.039 . S
O347 C337 1.265 . S
C348 O344 1.253 . S
C348 O349 1.227 . S
O349 C348 1.227 . S
N350 Co336 2.140 . S
N350 C353 1.346 . S
N350 C354 1.345 . S
C351 C352 1.387 . S
C351 C355 1.391 . S
C352 C351 1.387 . S
C352 C353 1.369 . S
C352 H361 0.929 . S
C353 N350 1.346 . S
C353 C352 1.369 . S
C353 H356 0.928 . S
C354 N350 1.345 . S
C354 C355 1.371 . S
C354 H357 0.931 . S
C355 C351 1.391 . S
C355 C354 1.371 . S
C355 H362 0.930 . S
H356 C353 0.928 . S
H357 C354 0.931 . S
H358 C334 0.930 . S
H359 C331 0.930 . S
H360 C340 0.930 . S
H361 C352 0.929 . S
H362 C355 0.930 . S
C363 C364 1.351 . S
C363 N366 1.368 . S
C363 H368 0.931 . S
C364 C363 1.351 . S
C364 N365 1.373 . S
C364 H392 0.930 . S
N365 C364 1.373 . S
N365 C367 1.340 . S
N366 C363 1.368 . S
N366 C367 1.321 . S
N366 Co369 2.135 . S
C367 N365 1.340 . S
C367 N366 1.321 . S
C367 H391 0.930 . S
H368 C363 0.931 . S
Co369 N366 2.135 . S
Co369 N372 2.121 . S
Co369 O377 2.055 . S
Co369 O380 2.039 . S
Co369 N383 2.140 . S
C370 O371 1.227 . S
C370 O380 1.265 . S
O371 C370 1.227 . S
N372 Co369 2.121 . S
N372 C374 1.375 . S
N372 C375 1.313 . S
C373 C374 1.338 . S
C373 N376 1.377 . S
C373 H393 0.930 . S
C374 N372 1.375 . S
C374 C373 1.338 . S
C374 H378 0.931 . S
C375 N372 1.313 . S
C375 N376 1.344 . S
C375 H379 0.930 . S
N376 C373 1.377 . S
N376 C375 1.344 . S
O377 Co369 2.055 . S
O377 C381 1.253 . S
H378 C374 0.931 . S
H379 C375 0.930 . S
O380 Co369 2.039 . S
O380 C370 1.265 . S
C381 O377 1.253 . S
C381 O382 1.227 . S
O382 C381 1.227 . S
N383 Co369 2.140 . S
N383 C386 1.346 . S
N383 C387 1.345 . S
C384 C385 1.387 . S
C384 C388 1.391 . S
C385 C384 1.387 . S
C385 C386 1.369 . S
C385 H394 0.929 . S
C386 N383 1.346 . S
C386 C385 1.369 . S
C386 H389 0.928 . S
C387 N383 1.345 . S
C387 C388 1.371 . S
C387 H390 0.931 . S
C388 C384 1.391 . S
C388 C387 1.371 . S
C388 H395 0.930 . S
H389 C386 0.928 . S
H390 C387 0.931 . S
H391 C367 0.930 . S
H392 C364 0.930 . S
H393 C373 0.930 . S
H394 C385 0.929 . S
H395 C388 0.930 . S
C396 C397 1.351 . S
C396 N399 1.368 . S
C396 H401 0.931 . S
C397 C396 1.351 . S
C397 N398 1.373 . S
C397 H425 0.930 . S
N398 C397 1.373 . S
N398 C400 1.340 . S
N399 C396 1.368 . S
N399 C400 1.321 . S
N399 Co402 2.135 . S
C400 N398 1.340 . S
C400 N399 1.321 . S
C400 H424 0.930 . S
H401 C396 0.931 . S
Co402 N399 2.135 . S
Co402 N405 2.121 . S
Co402 O410 2.055 . S
Co402 O413 2.039 . S
Co402 N416 2.140 . S
C403 O404 1.227 . S
C403 O413 1.265 . S
O404 C403 1.227 . S
N405 Co402 2.121 . S
N405 C407 1.375 . S
N405 C408 1.313 . S
C406 C407 1.338 . S
C406 N409 1.377 . S
C406 H426 0.930 . S
C407 N405 1.375 . S
C407 C406 1.338 . S
C407 H411 0.931 . S
C408 N405 1.313 . S
C408 N409 1.344 . S
C408 H412 0.930 . S
N409 C406 1.377 . S
N409 C408 1.344 . S
O410 Co402 2.055 . S
O410 C414 1.253 . S
H411 C407 0.931 . S
H412 C408 0.930 . S
O413 Co402 2.039 . S
O413 C403 1.265 . S
C414 O410 1.253 . S
C414 O415 1.227 . S
O415 C414 1.227 . S
N416 Co402 2.140 . S
N416 C419 1.346 . S
N416 C420 1.345 . S
C417 C418 1.387 . S
C417 C421 1.391 . S
C418 C417 1.387 . S
C418 C419 1.369 . S
C418 H427 0.929 . S
C419 N416 1.346 . S
C419 C418 1.369 . S
C419 H422 0.928 . S
C420 N416 1.345 . S
C420 C421 1.371 . S
C420 H423 0.931 . S
C421 C417 1.391 . S
C421 C420 1.371 . S
C421 H428 0.930 . S
H422 C419 0.928 . S
H423 C420 0.931 . S
H424 C400 0.930 . S
H425 C397 0.930 . S
H426 C406 0.930 . S
H427 C418 0.929 . S
H428 C421 0.930 . S
C429 C430 1.351 . S
C429 N432 1.368 . S
C429 H434 0.931 . S
C430 C429 1.351 . S
C430 N431 1.373 . S
C430 H458 0.930 . S
N431 C430 1.373 . S
N431 C433 1.340 . S
N432 C429 1.368 . S
N432 C433 1.321 . S
N432 Co435 2.135 . S
C433 N431 1.340 . S
C433 N432 1.321 . S
C433 H457 0.930 . S
H434 C429 0.931 . S
Co435 N432 2.135 . S
Co435 N438 2.121 . S
Co435 O443 2.055 . S
Co435 O446 2.039 . S
Co435 N449 2.140 . S
C436 O437 1.227 . S
C436 O446 1.265 . S
O437 C436 1.227 . S
N438 Co435 2.121 . S
N438 C440 1.375 . S
N438 C441 1.313 . S
C439 C440 1.338 . S
C439 N442 1.377 . S
C439 H459 0.930 . S
C440 N438 1.375 . S
C440 C439 1.338 . S
C440 H444 0.931 . S
C441 N438 1.313 . S
C441 N442 1.344 . S
C441 H445 0.930 . S
N442 C439 1.377 . S
N442 C441 1.344 . S
O443 Co435 2.055 . S
O443 C447 1.253 . S
H444 C440 0.931 . S
H445 C441 0.930 . S
O446 Co435 2.039 . S
O446 C436 1.265 . S
C447 O443 1.253 . S
C447 O448 1.227 . S
O448 C447 1.227 . S
N449 Co435 2.140 . S
N449 C452 1.346 . S
N449 C453 1.345 . S
C450 C451 1.387 . S
C450 C454 1.391 . S
C451 C450 1.387 . S
C451 C452 1.369 . S
C451 H460 0.929 . S
C452 N449 1.346 . S
C452 C451 1.369 . S
C452 H455 0.928 . S
C453 N449 1.345 . S
C453 C454 1.371 . S
C453 H456 0.931 . S
C454 C450 1.391 . S
C454 C453 1.371 . S
C454 H461 0.930 . S
H455 C452 0.928 . S
H456 C453 0.931 . S
H457 C433 0.930 . S
H458 C430 0.930 . S
H459 C439 0.930 . S
H460 C451 0.929 . S
H461 C454 0.930 . S
C462 C463 1.351 . S
C462 N465 1.368 . S
C462 H467 0.931 . S
C463 C462 1.351 . S
C463 N464 1.373 . S
C463 H491 0.930 . S
N464 C463 1.373 . S
N464 C466 1.340 . S
N465 C462 1.368 . S
N465 C466 1.321 . S
N465 Co468 2.135 . S
C466 N464 1.340 . S
C466 N465 1.321 . S
C466 H490 0.930 . S
H467 C462 0.931 . S
Co468 N465 2.135 . S
Co468 N471 2.121 . S
Co468 O476 2.055 . S
Co468 O479 2.039 . S
Co468 N482 2.140 . S
C469 O470 1.227 . S
C469 O479 1.265 . S
O470 C469 1.227 . S
N471 Co468 2.121 . S
N471 C473 1.375 . S
N471 C474 1.313 . S
C472 C473 1.338 . S
C472 N475 1.377 . S
C472 H492 0.930 . S
C473 N471 1.375 . S
C473 C472 1.338 . S
C473 H477 0.931 . S
C474 N471 1.313 . S
C474 N475 1.344 . S
C474 H478 0.930 . S
N475 C472 1.377 . S
N475 C474 1.344 . S
O476 Co468 2.055 . S
O476 C480 1.253 . S
H477 C473 0.931 . S
H478 C474 0.930 . S
O479 Co468 2.039 . S
O479 C469 1.265 . S
C480 O476 1.253 . S
C480 O481 1.227 . S
O481 C480 1.227 . S
N482 Co468 2.140 . S
N482 C485 1.346 . S
N482 C486 1.345 . S
C483 C484 1.387 . S
C483 C487 1.391 . S
C484 C483 1.387 . S
C484 C485 1.369 . S
C484 H493 0.929 . S
C485 N482 1.346 . S
C485 C484 1.369 . S
C485 H488 0.928 . S
C486 N482 1.345 . S
C486 C487 1.371 . S
C486 H489 0.931 . S
C487 C483 1.391 . S
C487 C486 1.371 . S
C487 H494 0.930 . S
H488 C485 0.928 . S
H489 C486 0.931 . S
H490 C466 0.930 . S
H491 C463 0.930 . S
H492 C472 0.930 . S
H493 C484 0.929 . S
H494 C487 0.930 . S
C495 C496 1.351 . S
C495 N498 1.368 . S
C495 H500 0.931 . S
C496 C495 1.351 . S
C496 N497 1.373 . S
C496 H524 0.930 . S
N497 C496 1.373 . S
N497 C499 1.340 . S
N498 C495 1.368 . S
N498 C499 1.321 . S
N498 Co501 2.135 . S
C499 N497 1.340 . S
C499 N498 1.321 . S
C499 H523 0.930 . S
H500 C495 0.931 . S
Co501 N498 2.135 . S
Co501 N504 2.121 . S
Co501 O509 2.055 . S
Co501 O512 2.039 . S
Co501 N515 2.140 . S
C502 O503 1.227 . S
C502 O512 1.265 . S
O503 C502 1.227 . S
N504 Co501 2.121 . S
N504 C506 1.375 . S
N504 C507 1.313 . S
C505 C506 1.338 . S
C505 N508 1.377 . S
C505 H525 0.930 . S
C506 N504 1.375 . S
C506 C505 1.338 . S
C506 H510 0.931 . S
C507 N504 1.313 . S
C507 N508 1.344 . S
C507 H511 0.930 . S
N508 C505 1.377 . S
N508 C507 1.344 . S
O509 Co501 2.055 . S
O509 C513 1.253 . S
H510 C506 0.931 . S
H511 C507 0.930 . S
O512 Co501 2.039 . S
O512 C502 1.265 . S
C513 O509 1.253 . S
C513 O514 1.227 . S
O514 C513 1.227 . S
N515 Co501 2.140 . S
N515 C518 1.346 . S
N515 C519 1.345 . S
C516 C517 1.387 . S
C516 C520 1.391 . S
C517 C516 1.387 . S
C517 C518 1.369 . S
C517 H526 0.929 . S
C518 N515 1.346 . S
C518 C517 1.369 . S
C518 H521 0.928 . S
C519 N515 1.345 . S
C519 C520 1.371 . S
C519 H522 0.931 . S
C520 C516 1.391 . S
C520 C519 1.371 . S
C520 H527 0.930 . S
H521 C518 0.928 . S
H522 C519 0.931 . S
H523 C499 0.930 . S
H524 C496 0.930 . S
H525 C505 0.930 . S
H526 C517 0.929 . S
H527 C520 0.930 . S
C528 C529 1.351 . S
C528 N531 1.368 . S
C528 H533 0.931 . S
C529 C528 1.351 . S
C529 N530 1.373 . S
C529 H557 0.930 . S
N530 C529 1.373 . S
N530 C532 1.340 . S
N531 C528 1.368 . S
N531 C532 1.321 . S
N531 Co534 2.135 . S
C532 N530 1.340 . S
C532 N531 1.321 . S
C532 H556 0.930 . S
H533 C528 0.931 . S
Co534 N531 2.135 . S
Co534 N537 2.121 . S
Co534 O542 2.055 . S
Co534 O545 2.039 . S
Co534 N548 2.140 . S
C535 O536 1.227 . S
C535 O545 1.265 . S
O536 C535 1.227 . S
N537 Co534 2.121 . S
N537 C539 1.375 . S
N537 C540 1.313 . S
C538 C539 1.338 . S
C538 N541 1.377 . S
C538 H558 0.930 . S
C539 N537 1.375 . S
C539 C538 1.338 . S
C539 H543 0.931 . S
C540 N537 1.313 . S
C540 N541 1.344 . S
C540 H544 0.930 . S
N541 C538 1.377 . S
N541 C540 1.344 . S
O542 Co534 2.055 . S
O542 C546 1.253 . S
H543 C539 0.931 . S
H544 C540 0.930 . S
O545 Co534 2.039 . S
O545 C535 1.265 . S
C546 O542 1.253 . S
C546 O547 1.227 . S
O547 C546 1.227 . S
N548 Co534 2.140 . S
N548 C551 1.346 . S
N548 C552 1.345 . S
C549 C550 1.387 . S
C549 C553 1.391 . S
C550 C549 1.387 . S
C550 C551 1.369 . S
C550 H559 0.929 . S
C551 N548 1.346 . S
C551 C550 1.369 . S
C551 H554 0.928 . S
C552 N548 1.345 . S
C552 C553 1.371 . S
C552 H555 0.931 . S
C553 C549 1.391 . S
C553 C552 1.371 . S
C553 H560 0.930 . S
H554 C551 0.928 . S
H555 C552 0.931 . S
H556 C532 0.930 . S
H557 C529 0.930 . S
H558 C538 0.930 . S
H559 C550 0.929 . S
H560 C553 0.930 . S
C561 C562 1.351 . S
C561 N564 1.368 . S
C561 H566 0.931 . S
C562 C561 1.351 . S
C562 N563 1.373 . S
C562 H590 0.930 . S
N563 C562 1.373 . S
N563 C565 1.340 . S
N564 C561 1.368 . S
N564 C565 1.321 . S
N564 Co567 2.135 . S
C565 N563 1.340 . S
C565 N564 1.321 . S
C565 H589 0.930 . S
H566 C561 0.931 . S
Co567 N564 2.135 . S
Co567 N570 2.121 . S
Co567 O575 2.055 . S
Co567 O578 2.039 . S
Co567 N581 2.140 . S
C568 O569 1.227 . S
C568 O578 1.265 . S
O569 C568 1.227 . S
N570 Co567 2.121 . S
N570 C572 1.375 . S
N570 C573 1.313 . S
C571 C572 1.338 . S
C571 N574 1.377 . S
C571 H591 0.930 . S
C572 N570 1.375 . S
C572 C571 1.338 . S
C572 H576 0.931 . S
C573 N570 1.313 . S
C573 N574 1.344 . S
C573 H577 0.930 . S
N574 C571 1.377 . S
N574 C573 1.344 . S
O575 Co567 2.055 . S
O575 C579 1.253 . S
H576 C572 0.931 . S
H577 C573 0.930 . S
O578 Co567 2.039 . S
O578 C568 1.265 . S
C579 O575 1.253 . S
C579 O580 1.227 . S
O580 C579 1.227 . S
N581 Co567 2.140 . S
N581 C584 1.346 . S
N581 C585 1.345 . S
C582 C583 1.387 . S
C582 C586 1.391 . S
C583 C582 1.387 . S
C583 C584 1.369 . S
C583 H592 0.929 . S
C584 N581 1.346 . S
C584 C583 1.369 . S
C584 H587 0.928 . S
C585 N581 1.345 . S
C585 C586 1.371 . S
C585 H588 0.931 . S
C586 C582 1.391 . S
C586 C585 1.371 . S
C586 H593 0.930 . S
H587 C584 0.928 . S
H588 C585 0.931 . S
H589 C565 0.930 . S
H590 C562 0.930 . S
H591 C571 0.930 . S
H592 C583 0.929 . S
H593 C586 0.930 . S
C594 C595 1.351 . S
C594 N597 1.368 . S
C594 H599 0.931 . S
C595 C594 1.351 . S
C595 N596 1.373 . S
C595 H623 0.930 . S
N596 C595 1.373 . S
N596 C598 1.340 . S
N597 C594 1.368 . S
N597 C598 1.321 . S
N597 Co600 2.135 . S
C598 N596 1.340 . S
C598 N597 1.321 . S
C598 H622 0.930 . S
H599 C594 0.931 . S
Co600 N597 2.135 . S
Co600 N603 2.121 . S
Co600 O608 2.055 . S
Co600 O611 2.039 . S
Co600 N614 2.140 . S
C601 O602 1.227 . S
C601 O611 1.265 . S
O602 C601 1.227 . S
N603 Co600 2.121 . S
N603 C605 1.375 . S
N603 C606 1.313 . S
C604 C605 1.338 . S
C604 N607 1.377 . S
C604 H624 0.930 . S
C605 N603 1.375 . S
C605 C604 1.338 . S
C605 H609 0.931 . S
C606 N603 1.313 . S
C606 N607 1.344 . S
C606 H610 0.930 . S
N607 C604 1.377 . S
N607 C606 1.344 . S
O608 Co600 2.055 . S
O608 C612 1.253 . S
H609 C605 0.931 . S
H610 C606 0.930 . S
O611 Co600 2.039 . S
O611 C601 1.265 . S
C612 O608 1.253 . S
C612 O613 1.227 . S
O613 C612 1.227 . S
N614 Co600 2.140 . S
N614 C617 1.346 . S
N614 C618 1.345 . S
C615 C616 1.387 . S
C615 C619 1.391 . S
C616 C615 1.387 . S
C616 C617 1.369 . S
C616 H625 0.929 . S
C617 N614 1.346 . S
C617 C616 1.369 . S
C617 H620 0.928 . S
C618 N614 1.345 . S
C618 C619 1.371 . S
C618 H621 0.931 . S
C619 C615 1.391 . S
C619 C618 1.371 . S
C619 H626 0.930 . S
H620 C617 0.928 . S
H621 C618 0.931 . S
H622 C598 0.930 . S
H623 C595 0.930 . S
H624 C604 0.930 . S
H625 C616 0.929 . S
H626 C619 0.930 . S
C627 C628 1.351 . S
C627 N630 1.368 . S
C627 H632 0.931 . S
C628 C627 1.351 . S
C628 N629 1.373 . S
C628 H656 0.930 . S
N629 C628 1.373 . S
N629 C631 1.340 . S
N630 C627 1.368 . S
N630 C631 1.321 . S
N630 Co633 2.135 . S
C631 N629 1.340 . S
C631 N630 1.321 . S
C631 H655 0.930 . S
H632 C627 0.931 . S
Co633 N630 2.135 . S
Co633 N636 2.121 . S
Co633 O641 2.055 . S
Co633 O644 2.039 . S
Co633 N647 2.140 . S
C634 O635 1.227 . S
C634 O644 1.265 . S
O635 C634 1.227 . S
N636 Co633 2.121 . S
N636 C638 1.375 . S
N636 C639 1.313 . S
C637 C638 1.338 . S
C637 N640 1.377 . S
C637 H657 0.930 . S
C638 N636 1.375 . S
C638 C637 1.338 . S
C638 H642 0.931 . S
C639 N636 1.313 . S
C639 N640 1.344 . S
C639 H643 0.930 . S
N640 C637 1.377 . S
N640 C639 1.344 . S
O641 Co633 2.055 . S
O641 C645 1.253 . S
H642 C638 0.931 . S
H643 C639 0.930 . S
O644 Co633 2.039 . S
O644 C634 1.265 . S
C645 O641 1.253 . S
C645 O646 1.227 . S
O646 C645 1.227 . S
N647 Co633 2.140 . S
N647 C650 1.346 . S
N647 C651 1.345 . S
C648 C649 1.387 . S
C648 C652 1.391 . S
C649 C648 1.387 . S
C649 C650 1.369 . S
C649 H658 0.929 . S
C650 N647 1.346 . S
C650 C649 1.369 . S
C650 H653 0.928 . S
C651 N647 1.345 . S
C651 C652 1.371 . S
C651 H654 0.931 . S
C652 C648 1.391 . S
C652 C651 1.371 . S
C652 H659 0.930 . S
H653 C650 0.928 . S
H654 C651 0.931 . S
H655 C631 0.930 . S
H656 C628 0.930 . S
H657 C637 0.930 . S
H658 C649 0.929 . S
H659 C652 0.930 . S
C660 C661 1.351 . S
C660 N663 1.368 . S
C660 H665 0.931 . S
C661 C660 1.351 . S
C661 N662 1.373 . S
C661 H689 0.930 . S
N662 C661 1.373 . S
N662 C664 1.340 . S
N663 C660 1.368 . S
N663 C664 1.321 . S
N663 Co666 2.135 . S
C664 N662 1.340 . S
C664 N663 1.321 . S
C664 H688 0.930 . S
H665 C660 0.931 . S
Co666 N663 2.135 . S
Co666 N669 2.121 . S
Co666 O674 2.055 . S
Co666 O677 2.039 . S
Co666 N680 2.140 . S
C667 O668 1.227 . S
C667 O677 1.265 . S
O668 C667 1.227 . S
N669 Co666 2.121 . S
N669 C671 1.375 . S
N669 C672 1.313 . S
C670 C671 1.338 . S
C670 N673 1.377 . S
C670 H690 0.930 . S
C671 N669 1.375 . S
C671 C670 1.338 . S
C671 H675 0.931 . S
C672 N669 1.313 . S
C672 N673 1.344 . S
C672 H676 0.930 . S
N673 C670 1.377 . S
N673 C672 1.344 . S
O674 Co666 2.055 . S
O674 C678 1.253 . S
H675 C671 0.931 . S
H676 C672 0.930 . S
O677 Co666 2.039 . S
O677 C667 1.265 . S
C678 O674 1.253 . S
C678 O679 1.227 . S
O679 C678 1.227 . S
N680 Co666 2.140 . S
N680 C683 1.346 . S
N680 C684 1.345 . S
C681 C682 1.387 . S
C681 C685 1.391 . S
C682 C681 1.387 . S
C682 C683 1.369 . S
C682 H691 0.929 . S
C683 N680 1.346 . S
C683 C682 1.369 . S
C683 H686 0.928 . S
C684 N680 1.345 . S
C684 C685 1.371 . S
C684 H687 0.931 . S
C685 C681 1.391 . S
C685 C684 1.371 . S
C685 H692 0.930 . S
H686 C683 0.928 . S
H687 C684 0.931 . S
H688 C664 0.930 . S
H689 C661 0.930 . S
H690 C670 0.930 . S
H691 C682 0.929 . S
H692 C685 0.930 . S
C693 C694 1.351 . S
C693 N696 1.368 . S
C693 H698 0.931 . S
C694 C693 1.351 . S
C694 N695 1.373 . S
C694 H722 0.930 . S
N695 C694 1.373 . S
N695 C697 1.340 . S
N696 C693 1.368 . S
N696 C697 1.321 . S
N696 Co699 2.135 . S
C697 N695 1.340 . S
C697 N696 1.321 . S
C697 H721 0.930 . S
H698 C693 0.931 . S
Co699 N696 2.135 . S
Co699 N702 2.121 . S
Co699 O707 2.055 . S
Co699 O710 2.039 . S
Co699 N713 2.140 . S
C700 O701 1.227 . S
C700 O710 1.265 . S
O701 C700 1.227 . S
N702 Co699 2.121 . S
N702 C704 1.375 . S
N702 C705 1.313 . S
C703 C704 1.338 . S
C703 N706 1.377 . S
C703 H723 0.930 . S
C704 N702 1.375 . S
C704 C703 1.338 . S
C704 H708 0.931 . S
C705 N702 1.313 . S
C705 N706 1.344 . S
C705 H709 0.930 . S
N706 C703 1.377 . S
N706 C705 1.344 . S
O707 Co699 2.055 . S
O707 C711 1.253 . S
H708 C704 0.931 . S
H709 C705 0.930 . S
O710 Co699 2.039 . S
O710 C700 1.265 . S
C711 O707 1.253 . S
C711 O712 1.227 . S
O712 C711 1.227 . S
N713 Co699 2.140 . S
N713 C716 1.346 . S
N713 C717 1.345 . S
C714 C715 1.387 . S
C714 C718 1.391 . S
C715 C714 1.387 . S
C715 C716 1.369 . S
C715 H724 0.929 . S
C716 N713 1.346 . S
C716 C715 1.369 . S
C716 H719 0.928 . S
C717 N713 1.345 . S
C717 C718 1.371 . S
C717 H720 0.931 . S
C718 C714 1.391 . S
C718 C717 1.371 . S
C718 H725 0.930 . S
H719 C716 0.928 . S
H720 C717 0.931 . S
H721 C697 0.930 . S
H722 C694 0.930 . S
H723 C703 0.930 . S
H724 C715 0.929 . S
H725 C718 0.930 . S
C726 C727 1.351 . S
C726 N729 1.368 . S
C726 H731 0.931 . S
C727 C726 1.351 . S
C727 N728 1.373 . S
C727 H755 0.930 . S
N728 C727 1.373 . S
N728 C730 1.340 . S
N729 C726 1.368 . S
N729 C730 1.321 . S
N729 Co732 2.135 . S
C730 N728 1.340 . S
C730 N729 1.321 . S
C730 H754 0.930 . S
H731 C726 0.931 . S
Co732 N729 2.135 . S
Co732 N735 2.121 . S
Co732 O740 2.055 . S
Co732 O743 2.039 . S
Co732 N746 2.140 . S
C733 O734 1.227 . S
C733 O743 1.265 . S
O734 C733 1.227 . S
N735 Co732 2.121 . S
N735 C737 1.375 . S
N735 C738 1.313 . S
C736 C737 1.338 . S
C736 N739 1.377 . S
C736 H756 0.930 . S
C737 N735 1.375 . S
C737 C736 1.338 . S
C737 H741 0.931 . S
C738 N735 1.313 . S
C738 N739 1.344 . S
C738 H742 0.930 . S
N739 C736 1.377 . S
N739 C738 1.344 . S
O740 Co732 2.055 . S
O740 C744 1.253 . S
H741 C737 0.931 . S
H742 C738 0.930 . S
O743 Co732 2.039 . S
O743 C733 1.265 . S
C744 O740 1.253 . S
C744 O745 1.227 . S
O745 C744 1.227 . S
N746 Co732 2.140 . S
N746 C749 1.346 . S
N746 C750 1.345 . S
C747 C748 1.387 . S
C747 C751 1.391 . S
C748 C747 1.387 . S
C748 C749 1.369 . S
C748 H757 0.929 . S
C749 N746 1.346 . S
C749 C748 1.369 . S
C749 H752 0.928 . S
C750 N746 1.345 . S
C750 C751 1.371 . S
C750 H753 0.931 . S
C751 C747 1.391 . S
C751 C750 1.371 . S
C751 H758 0.930 . S
H752 C749 0.928 . S
H753 C750 0.931 . S
H754 C730 0.930 . S
H755 C727 0.930 . S
H756 C736 0.930 . S
H757 C748 0.929 . S
H758 C751 0.930 . S
C759 C760 1.351 . S
C759 N762 1.368 . S
C759 H764 0.931 . S
C760 C759 1.351 . S
C760 N761 1.373 . S
C760 H788 0.930 . S
N761 C760 1.373 . S
N761 C763 1.340 . S
N762 C759 1.368 . S
N762 C763 1.321 . S
N762 Co765 2.135 . S
C763 N761 1.340 . S
C763 N762 1.321 . S
C763 H787 0.930 . S
H764 C759 0.931 . S
Co765 N762 2.135 . S
Co765 N768 2.121 . S
Co765 O773 2.055 . S
Co765 O776 2.039 . S
Co765 N779 2.140 . S
C766 O767 1.227 . S
C766 O776 1.265 . S
O767 C766 1.227 . S
N768 Co765 2.121 . S
N768 C770 1.375 . S
N768 C771 1.313 . S
C769 C770 1.338 . S
C769 N772 1.377 . S
C769 H789 0.930 . S
C770 N768 1.375 . S
C770 C769 1.338 . S
C770 H774 0.931 . S
C771 N768 1.313 . S
C771 N772 1.344 . S
C771 H775 0.930 . S
N772 C769 1.377 . S
N772 C771 1.344 . S
O773 Co765 2.055 . S
O773 C777 1.253 . S
H774 C770 0.931 . S
H775 C771 0.930 . S
O776 Co765 2.039 . S
O776 C766 1.265 . S
C777 O773 1.253 . S
C777 O778 1.227 . S
O778 C777 1.227 . S
N779 Co765 2.140 . S
N779 C782 1.346 . S
N779 C783 1.345 . S
C780 C781 1.387 . S
C780 C784 1.391 . S
C781 C780 1.387 . S
C781 C782 1.369 . S
C781 H790 0.929 . S
C782 N779 1.346 . S
C782 C781 1.369 . S
C782 H785 0.928 . S
C783 N779 1.345 . S
C783 C784 1.371 . S
C783 H786 0.931 . S
C784 C780 1.391 . S
C784 C783 1.371 . S
C784 H791 0.930 . S
H785 C782 0.928 . S
H786 C783 0.931 . S
H787 C763 0.930 . S
H788 C760 0.930 . S
H789 C769 0.930 . S
H790 C781 0.929 . S
H791 C784 0.930 . S
C792 C793 1.351 . S
C792 N795 1.368 . S
C792 H797 0.931 . S
C793 C792 1.351 . S
C793 N794 1.373 . S
C793 H821 0.930 . S
N794 C793 1.373 . S
N794 C796 1.340 . S
N795 C792 1.368 . S
N795 C796 1.321 . S
N795 Co798 2.135 . S
C796 N794 1.340 . S
C796 N795 1.321 . S
C796 H820 0.930 . S
H797 C792 0.931 . S
Co798 N795 2.135 . S
Co798 N801 2.121 . S
Co798 O806 2.055 . S
Co798 O809 2.039 . S
Co798 N812 2.140 . S
C799 O800 1.227 . S
C799 O809 1.265 . S
O800 C799 1.227 . S
N801 Co798 2.121 . S
N801 C803 1.375 . S
N801 C804 1.313 . S
C802 C803 1.338 . S
C802 N805 1.377 . S
C802 H822 0.930 . S
C803 N801 1.375 . S
C803 C802 1.338 . S
C803 H807 0.931 . S
C804 N801 1.313 . S
C804 N805 1.344 . S
C804 H808 0.930 . S
N805 C802 1.377 . S
N805 C804 1.344 . S
O806 Co798 2.055 . S
O806 C810 1.253 . S
H807 C803 0.931 . S
H808 C804 0.930 . S
O809 Co798 2.039 . S
O809 C799 1.265 . S
C810 O806 1.253 . S
C810 O811 1.227 . S
O811 C810 1.227 . S
N812 Co798 2.140 . S
N812 C815 1.346 . S
N812 C816 1.345 . S
C813 C814 1.387 . S
C813 C817 1.391 . S
C814 C813 1.387 . S
C814 C815 1.369 . S
C814 H823 0.929 . S
C815 N812 1.346 . S
C815 C814 1.369 . S
C815 H818 0.928 . S
C816 N812 1.345 . S
C816 C817 1.371 . S
C816 H819 0.931 . S
C817 C813 1.391 . S
C817 C816 1.371 . S
C817 H824 0.930 . S
H818 C815 0.928 . S
H819 C816 0.931 . S
H820 C796 0.930 . S
H821 C793 0.930 . S
H822 C802 0.930 . S
H823 C814 0.929 . S
H824 C817 0.930 . S
C825 C826 1.351 . S
C825 N828 1.368 . S
C825 H830 0.931 . S
C826 C825 1.351 . S
C826 N827 1.373 . S
C826 H854 0.930 . S
N827 C826 1.373 . S
N827 C829 1.340 . S
N828 C825 1.368 . S
N828 C829 1.321 . S
N828 Co831 2.135 . S
C829 N827 1.340 . S
C829 N828 1.321 . S
C829 H853 0.930 . S
H830 C825 0.931 . S
Co831 N828 2.135 . S
Co831 N834 2.121 . S
Co831 O839 2.055 . S
Co831 O842 2.039 . S
Co831 N845 2.140 . S
C832 O833 1.227 . S
C832 O842 1.265 . S
O833 C832 1.227 . S
N834 Co831 2.121 . S
N834 C836 1.375 . S
N834 C837 1.313 . S
C835 C836 1.338 . S
C835 N838 1.377 . S
C835 H855 0.930 . S
C836 N834 1.375 . S
C836 C835 1.338 . S
C836 H840 0.931 . S
C837 N834 1.313 . S
C837 N838 1.344 . S
C837 H841 0.930 . S
N838 C835 1.377 . S
N838 C837 1.344 . S
O839 Co831 2.055 . S
O839 C843 1.253 . S
H840 C836 0.931 . S
H841 C837 0.930 . S
O842 Co831 2.039 . S
O842 C832 1.265 . S
C843 O839 1.253 . S
C843 O844 1.227 . S
O844 C843 1.227 . S
N845 Co831 2.140 . S
N845 C848 1.346 . S
N845 C849 1.345 . S
C846 C847 1.387 . S
C846 C850 1.391 . S
C847 C846 1.387 . S
C847 C848 1.369 . S
C847 H856 0.929 . S
C848 N845 1.346 . S
C848 C847 1.369 . S
C848 H851 0.928 . S
C849 N845 1.345 . S
C849 C850 1.371 . S
C849 H852 0.931 . S
C850 C846 1.391 . S
C850 C849 1.371 . S
C850 H857 0.930 . S
H851 C848 0.928 . S
H852 C849 0.931 . S
H853 C829 0.930 . S
H854 C826 0.930 . S
H855 C835 0.930 . S
H856 C847 0.929 . S
H857 C850 0.930 . S
C858 C859 1.351 . S
C858 N861 1.368 . S
C858 H863 0.931 . S
C859 C858 1.351 . S
C859 N860 1.373 . S
C859 H887 0.930 . S
N860 C859 1.373 . S
N860 C862 1.340 . S
N861 C858 1.368 . S
N861 C862 1.321 . S
N861 Co864 2.135 . S
C862 N860 1.340 . S
C862 N861 1.321 . S
C862 H886 0.930 . S
H863 C858 0.931 . S
Co864 N861 2.135 . S
Co864 N867 2.121 . S
Co864 O872 2.055 . S
Co864 O875 2.039 . S
Co864 N878 2.140 . S
C865 O866 1.227 . S
C865 O875 1.265 . S
O866 C865 1.227 . S
N867 Co864 2.121 . S
N867 C869 1.375 . S
N867 C870 1.313 . S
C868 C869 1.338 . S
C868 N871 1.377 . S
C868 H888 0.930 . S
C869 N867 1.375 . S
C869 C868 1.338 . S
C869 H873 0.931 . S
C870 N867 1.313 . S
C870 N871 1.344 . S
C870 H874 0.930 . S
N871 C868 1.377 . S
N871 C870 1.344 . S
O872 Co864 2.055 . S
O872 C876 1.253 . S
H873 C869 0.931 . S
H874 C870 0.930 . S
O875 Co864 2.039 . S
O875 C865 1.265 . S
C876 O872 1.253 . S
C876 O877 1.227 . S
O877 C876 1.227 . S
N878 Co864 2.140 . S
N878 C881 1.346 . S
N878 C882 1.345 . S
C879 C880 1.387 . S
C879 C883 1.391 . S
C880 C879 1.387 . S
C880 C881 1.369 . S
C880 H889 0.929 . S
C881 N878 1.346 . S
C881 C880 1.369 . S
C881 H884 0.928 . S
C882 N878 1.345 . S
C882 C883 1.371 . S
C882 H885 0.931 . S
C883 C879 1.391 . S
C883 C882 1.371 . S
C883 H890 0.930 . S
H884 C881 0.928 . S
H885 C882 0.931 . S
H886 C862 0.930 . S
H887 C859 0.930 . S
H888 C868 0.930 . S
H889 C880 0.929 . S
H890 C883 0.930 . S
C891 C892 1.351 . S
C891 N894 1.368 . S
C891 H896 0.931 . S
C892 C891 1.351 . S
C892 N893 1.373 . S
C892 H920 0.930 . S
N893 C892 1.373 . S
N893 C895 1.340 . S
N894 C891 1.368 . S
N894 C895 1.321 . S
N894 Co897 2.135 . S
C895 N893 1.340 . S
C895 N894 1.321 . S
C895 H919 0.930 . S
H896 C891 0.931 . S
Co897 N894 2.135 . S
Co897 N900 2.121 . S
Co897 O905 2.055 . S
Co897 O908 2.039 . S
Co897 N911 2.140 . S
C898 O899 1.227 . S
C898 O908 1.265 . S
O899 C898 1.227 . S
N900 Co897 2.121 . S
N900 C902 1.375 . S
N900 C903 1.313 . S
C901 C902 1.338 . S
C901 N904 1.377 . S
C901 H921 0.930 . S
C902 N900 1.375 . S
C902 C901 1.338 . S
C902 H906 0.931 . S
C903 N900 1.313 . S
C903 N904 1.344 . S
C903 H907 0.930 . S
N904 C901 1.377 . S
N904 C903 1.344 . S
O905 Co897 2.055 . S
O905 C909 1.253 . S
H906 C902 0.931 . S
H907 C903 0.930 . S
O908 Co897 2.039 . S
O908 C898 1.265 . S
C909 O905 1.253 . S
C909 O910 1.227 . S
O910 C909 1.227 . S
N911 Co897 2.140 . S
N911 C914 1.346 . S
N911 C915 1.345 . S
C912 C913 1.387 . S
C912 C916 1.391 . S
C913 C912 1.387 . S
C913 C914 1.369 . S
C913 H922 0.929 . S
C914 N911 1.346 . S
C914 C913 1.369 . S
C914 H917 0.928 . S
C915 N911 1.345 . S
C915 C916 1.371 . S
C915 H918 0.931 . S
C916 C912 1.391 . S
C916 C915 1.371 . S
C916 H923 0.930 . S
H917 C914 0.928 . S
H918 C915 0.931 . S
H919 C895 0.930 . S
H920 C892 0.930 . S
H921 C901 0.930 . S
H922 C913 0.929 . S
H923 C916 0.930 . S
C924 C925 1.351 . S
C924 N927 1.368 . S
C924 H929 0.931 . S
C925 C924 1.351 . S
C925 N926 1.373 . S
C925 H953 0.930 . S
N926 C925 1.373 . S
N926 C928 1.340 . S
N927 C924 1.368 . S
N927 C928 1.321 . S
N927 Co930 2.135 . S
C928 N926 1.340 . S
C928 N927 1.321 . S
C928 H952 0.930 . S
H929 C924 0.931 . S
Co930 N927 2.135 . S
Co930 N933 2.121 . S
Co930 O938 2.055 . S
Co930 O941 2.039 . S
Co930 N944 2.140 . S
C931 O932 1.227 . S
C931 O941 1.265 . S
O932 C931 1.227 . S
N933 Co930 2.121 . S
N933 C935 1.375 . S
N933 C936 1.313 . S
C934 C935 1.338 . S
C934 N937 1.377 . S
C934 H954 0.930 . S
C935 N933 1.375 . S
C935 C934 1.338 . S
C935 H939 0.931 . S
C936 N933 1.313 . S
C936 N937 1.344 . S
C936 H940 0.930 . S
N937 C934 1.377 . S
N937 C936 1.344 . S
O938 Co930 2.055 . S
O938 C942 1.253 . S
H939 C935 0.931 . S
H940 C936 0.930 . S
O941 Co930 2.039 . S
O941 C931 1.265 . S
C942 O938 1.253 . S
C942 O943 1.227 . S
O943 C942 1.227 . S
N944 Co930 2.140 . S
N944 C947 1.346 . S
N944 C948 1.345 . S
C945 C946 1.387 . S
C945 C949 1.391 . S
C946 C945 1.387 . S
C946 C947 1.369 . S
C946 H955 0.929 . S
C947 N944 1.346 . S
C947 C946 1.369 . S
C947 H950 0.928 . S
C948 N944 1.345 . S
C948 C949 1.371 . S
C948 H951 0.931 . S
C949 C945 1.391 . S
C949 C948 1.371 . S
C949 H956 0.930 . S
H950 C947 0.928 . S
H951 C948 0.931 . S
H952 C928 0.930 . S
H953 C925 0.930 . S
H954 C934 0.930 . S
H955 C946 0.929 . S
H956 C949 0.930 . S
C957 C958 1.351 . S
C957 N960 1.368 . S
C957 H962 0.931 . S
C958 C957 1.351 . S
C958 N959 1.373 . S
C958 H986 0.930 . S
N959 C958 1.373 . S
N959 C961 1.340 . S
N960 C957 1.368 . S
N960 C961 1.321 . S
N960 Co963 2.135 . S
C961 N959 1.340 . S
C961 N960 1.321 . S
C961 H985 0.930 . S
H962 C957 0.931 . S
Co963 N960 2.135 . S
Co963 N966 2.121 . S
Co963 O971 2.055 . S
Co963 O974 2.039 . S
Co963 N977 2.140 . S
C964 O965 1.227 . S
C964 O974 1.265 . S
O965 C964 1.227 . S
N966 Co963 2.121 . S
N966 C968 1.375 . S
N966 C969 1.313 . S
C967 C968 1.338 . S
C967 N970 1.377 . S
C967 H987 0.930 . S
C968 N966 1.375 . S
C968 C967 1.338 . S
C968 H972 0.931 . S
C969 N966 1.313 . S
C969 N970 1.344 . S
C969 H973 0.930 . S
N970 C967 1.377 . S
N970 C969 1.344 . S
O971 Co963 2.055 . S
O971 C975 1.253 . S
H972 C968 0.931 . S
H973 C969 0.930 . S
O974 Co963 2.039 . S
O974 C964 1.265 . S
C975 O971 1.253 . S
C975 O976 1.227 . S
O976 C975 1.227 . S
N977 Co963 2.140 . S
N977 C980 1.346 . S
N977 C981 1.345 . S
C978 C979 1.387 . S
C978 C982 1.391 . S
C979 C978 1.387 . S
C979 C980 1.369 . S
C979 H988 0.929 . S
C980 N977 1.346 . S
C980 C979 1.369 . S
C980 H983 0.928 . S
C981 N977 1.345 . S
C981 C982 1.371 . S
C981 H984 0.931 . S
C982 C978 1.391 . S
C982 C981 1.371 . S
C982 H989 0.930 . S
H983 C980 0.928 . S
H984 C981 0.931 . S
H985 C961 0.930 . S
H986 C958 0.930 . S
H987 C967 0.930 . S
H988 C979 0.929 . S
H989 C982 0.930 . S
C990 C991 1.351 . S
C990 N993 1.368 . S
C990 H995 0.931 . S
C991 C990 1.351 . S
C991 N992 1.373 . S
C991 H1019 0.930 . S
N992 C991 1.373 . S
N992 C994 1.340 . S
N993 C990 1.368 . S
N993 C994 1.321 . S
N993 Co996 2.135 . S
C994 N992 1.340 . S
C994 N993 1.321 . S
C994 H1018 0.930 . S
H995 C990 0.931 . S
Co996 N993 2.135 . S
Co996 N999 2.121 . S
Co996 O1004 2.055 . S
Co996 O1007 2.039 . S
Co996 N1010 2.140 . S
C997 O998 1.227 . S
C997 O1007 1.265 . S
O998 C997 1.227 . S
N999 Co996 2.121 . S
N999 C1001 1.375 . S
N999 C1002 1.313 . S
C1000 C1001 1.338 . S
C1000 N1003 1.377 . S
C1000 H1020 0.930 . S
C1001 N999 1.375 . S
C1001 C1000 1.338 . S
C1001 H1005 0.931 . S
C1002 N999 1.313 . S
C1002 N1003 1.344 . S
C1002 H1006 0.930 . S
N1003 C1000 1.377 . S
N1003 C1002 1.344 . S
O1004 Co996 2.055 . S
O1004 C1008 1.253 . S
H1005 C1001 0.931 . S
H1006 C1002 0.930 . S
O1007 Co996 2.039 . S
O1007 C997 1.265 . S
C1008 O1004 1.253 . S
C1008 O1009 1.227 . S
O1009 C1008 1.227 . S
N1010 Co996 2.140 . S
N1010 C1013 1.346 . S
N1010 C1014 1.345 . S
C1011 C1012 1.387 . S
C1011 C1015 1.391 . S
C1012 C1011 1.387 . S
C1012 C1013 1.369 . S
C1012 H1021 0.929 . S
C1013 N1010 1.346 . S
C1013 C1012 1.369 . S
C1013 H1016 0.928 . S
C1014 N1010 1.345 . S
C1014 C1015 1.371 . S
C1014 H1017 0.931 . S
C1015 C1011 1.391 . S
C1015 C1014 1.371 . S
C1015 H1022 0.930 . S
H1016 C1013 0.928 . S
H1017 C1014 0.931 . S
H1018 C994 0.930 . S
H1019 C991 0.930 . S
H1020 C1000 0.930 . S
H1021 C1012 0.929 . S
H1022 C1015 0.930 . S
C1023 C1024 1.351 . S
C1023 N1026 1.368 . S
C1023 H1028 0.931 . S
C1024 C1023 1.351 . S
C1024 N1025 1.373 . S
C1024 H1052 0.930 . S
N1025 C1024 1.373 . S
N1025 C1027 1.340 . S
N1026 C1023 1.368 . S
N1026 C1027 1.321 . S
N1026 Co1029 2.135 . S
C1027 N1025 1.340 . S
C1027 N1026 1.321 . S
C1027 H1051 0.930 . S
H1028 C1023 0.931 . S
Co1029 N1026 2.135 . S
Co1029 N1032 2.121 . S
Co1029 O1037 2.055 . S
Co1029 O1040 2.039 . S
Co1029 N1043 2.140 . S
C1030 O1031 1.227 . S
C1030 O1040 1.265 . S
O1031 C1030 1.227 . S
N1032 Co1029 2.121 . S
N1032 C1034 1.375 . S
N1032 C1035 1.313 . S
C1033 C1034 1.338 . S
C1033 N1036 1.377 . S
C1033 H1053 0.930 . S
C1034 N1032 1.375 . S
C1034 C1033 1.338 . S
C1034 H1038 0.931 . S
C1035 N1032 1.313 . S
C1035 N1036 1.344 . S
C1035 H1039 0.930 . S
N1036 C1033 1.377 . S
N1036 C1035 1.344 . S
O1037 Co1029 2.055 . S
O1037 C1041 1.253 . S
H1038 C1034 0.931 . S
H1039 C1035 0.930 . S
O1040 Co1029 2.039 . S
O1040 C1030 1.265 . S
C1041 O1037 1.253 . S
C1041 O1042 1.227 . S
O1042 C1041 1.227 . S
N1043 Co1029 2.140 . S
N1043 C1046 1.346 . S
N1043 C1047 1.345 . S
C1044 C1045 1.387 . S
C1044 C1048 1.391 . S
C1045 C1044 1.387 . S
C1045 C1046 1.369 . S
C1045 H1054 0.929 . S
C1046 N1043 1.346 . S
C1046 C1045 1.369 . S
C1046 H1049 0.928 . S
C1047 N1043 1.345 . S
C1047 C1048 1.371 . S
C1047 H1050 0.931 . S
C1048 C1044 1.391 . S
C1048 C1047 1.371 . S
C1048 H1055 0.930 . S
H1049 C1046 0.928 . S
H1050 C1047 0.931 . S
H1051 C1027 0.930 . S
H1052 C1024 0.930 . S
H1053 C1033 0.930 . S
H1054 C1045 0.929 . S
H1055 C1048 0.930 . S
C1056 C1057 1.351 . S
C1056 N1059 1.368 . S
C1056 H1061 0.931 . S
C1057 C1056 1.351 . S
C1057 N1058 1.373 . S
C1057 H1085 0.930 . S
N1058 C1057 1.373 . S
N1058 C1060 1.340 . S
N1059 C1056 1.368 . S
N1059 C1060 1.321 . S
N1059 Co1062 2.135 . S
C1060 N1058 1.340 . S
C1060 N1059 1.321 . S
C1060 H1084 0.930 . S
H1061 C1056 0.931 . S
Co1062 N1059 2.135 . S
Co1062 N1065 2.121 . S
Co1062 O1070 2.055 . S
Co1062 O1073 2.039 . S
Co1062 N1076 2.140 . S
C1063 O1064 1.227 . S
C1063 O1073 1.265 . S
O1064 C1063 1.227 . S
N1065 Co1062 2.121 . S
N1065 C1067 1.375 . S
N1065 C1068 1.313 . S
C1066 C1067 1.338 . S
C1066 N1069 1.377 . S
C1066 H1086 0.930 . S
C1067 N1065 1.375 . S
C1067 C1066 1.338 . S
C1067 H1071 0.931 . S
C1068 N1065 1.313 . S
C1068 N1069 1.344 . S
C1068 H1072 0.930 . S
N1069 C1066 1.377 . S
N1069 C1068 1.344 . S
O1070 Co1062 2.055 . S
O1070 C1074 1.253 . S
H1071 C1067 0.931 . S
H1072 C1068 0.930 . S
O1073 Co1062 2.039 . S
O1073 C1063 1.265 . S
C1074 O1070 1.253 . S
C1074 O1075 1.227 . S
O1075 C1074 1.227 . S
N1076 Co1062 2.140 . S
N1076 C1079 1.346 . S
N1076 C1080 1.345 . S
C1077 C1078 1.387 . S
C1077 C1081 1.391 . S
C1078 C1077 1.387 . S
C1078 C1079 1.369 . S
C1078 H1087 0.929 . S
C1079 N1076 1.346 . S
C1079 C1078 1.369 . S
C1079 H1082 0.928 . S
C1080 N1076 1.345 . S
C1080 C1081 1.371 . S
C1080 H1083 0.931 . S
C1081 C1077 1.391 . S
C1081 C1080 1.371 . S
C1081 H1088 0.930 . S
H1082 C1079 0.928 . S
H1083 C1080 0.931 . S
H1084 C1060 0.930 . S
H1085 C1057 0.930 . S
H1086 C1066 0.930 . S
H1087 C1078 0.929 . S
H1088 C1081 0.930 . S
C1089 C1090 1.351 . S
C1089 N1092 1.368 . S
C1089 H1094 0.931 . S
C1090 C1089 1.351 . S
C1090 N1091 1.373 . S
C1090 H1118 0.930 . S
N1091 C1090 1.373 . S
N1091 C1093 1.340 . S
N1092 C1089 1.368 . S
N1092 C1093 1.321 . S
N1092 Co1095 2.135 . S
C1093 N1091 1.340 . S
C1093 N1092 1.321 . S
C1093 H1117 0.930 . S
H1094 C1089 0.931 . S
Co1095 N1092 2.135 . S
Co1095 N1098 2.121 . S
Co1095 O1103 2.055 . S
Co1095 O1106 2.039 . S
Co1095 N1109 2.140 . S
C1096 O1097 1.227 . S
C1096 O1106 1.265 . S
O1097 C1096 1.227 . S
N1098 Co1095 2.121 . S
N1098 C1100 1.375 . S
N1098 C1101 1.313 . S
C1099 C1100 1.338 . S
C1099 N1102 1.377 . S
C1099 H1119 0.930 . S
C1100 N1098 1.375 . S
C1100 C1099 1.338 . S
C1100 H1104 0.931 . S
C1101 N1098 1.313 . S
C1101 N1102 1.344 . S
C1101 H1105 0.930 . S
N1102 C1099 1.377 . S
N1102 C1101 1.344 . S
O1103 Co1095 2.055 . S
O1103 C1107 1.253 . S
H1104 C1100 0.931 . S
H1105 C1101 0.930 . S
O1106 Co1095 2.039 . S
O1106 C1096 1.265 . S
C1107 O1103 1.253 . S
C1107 O1108 1.227 . S
O1108 C1107 1.227 . S
N1109 Co1095 2.140 . S
N1109 C1112 1.346 . S
N1109 C1113 1.345 . S
C1110 C1111 1.387 . S
C1110 C1114 1.391 . S
C1111 C1110 1.387 . S
C1111 C1112 1.369 . S
C1111 H1120 0.929 . S
C1112 N1109 1.346 . S
C1112 C1111 1.369 . S
C1112 H1115 0.928 . S
C1113 N1109 1.345 . S
C1113 C1114 1.371 . S
C1113 H1116 0.931 . S
C1114 C1110 1.391 . S
C1114 C1113 1.371 . S
C1114 H1121 0.930 . S
H1115 C1112 0.928 . S
H1116 C1113 0.931 . S
H1117 C1093 0.930 . S
H1118 C1090 0.930 . S
H1119 C1099 0.930 . S
H1120 C1111 0.929 . S
H1121 C1114 0.930 . S
C1122 C1123 1.351 . S
C1122 N1125 1.368 . S
C1122 H1127 0.931 . S
C1123 C1122 1.351 . S
C1123 N1124 1.373 . S
C1123 H1151 0.930 . S
N1124 C1123 1.373 . S
N1124 C1126 1.340 . S
N1125 C1122 1.368 . S
N1125 C1126 1.321 . S
N1125 Co1128 2.135 . S
C1126 N1124 1.340 . S
C1126 N1125 1.321 . S
C1126 H1150 0.930 . S
H1127 C1122 0.931 . S
Co1128 N1125 2.135 . S
Co1128 N1131 2.121 . S
Co1128 O1136 2.055 . S
Co1128 O1139 2.039 . S
Co1128 N1142 2.140 . S
C1129 O1130 1.227 . S
C1129 O1139 1.265 . S
O1130 C1129 1.227 . S
N1131 Co1128 2.121 . S
N1131 C1133 1.375 . S
N1131 C1134 1.313 . S
C1132 C1133 1.338 . S
C1132 N1135 1.377 . S
C1132 H1152 0.930 . S
C1133 N1131 1.375 . S
C1133 C1132 1.338 . S
C1133 H1137 0.931 . S
C1134 N1131 1.313 . S
C1134 N1135 1.344 . S
C1134 H1138 0.930 . S
N1135 C1132 1.377 . S
N1135 C1134 1.344 . S
O1136 Co1128 2.055 . S
O1136 C1140 1.253 . S
H1137 C1133 0.931 . S
H1138 C1134 0.930 . S
O1139 Co1128 2.039 . S
O1139 C1129 1.265 . S
C1140 O1136 1.253 . S
C1140 O1141 1.227 . S
O1141 C1140 1.227 . S
N1142 Co1128 2.140 . S
N1142 C1145 1.346 . S
N1142 C1146 1.345 . S
C1143 C1144 1.387 . S
C1143 C1147 1.391 . S
C1144 C1143 1.387 . S
C1144 C1145 1.369 . S
C1144 H1153 0.929 . S
C1145 N1142 1.346 . S
C1145 C1144 1.369 . S
C1145 H1148 0.928 . S
C1146 N1142 1.345 . S
C1146 C1147 1.371 . S
C1146 H1149 0.931 . S
C1147 C1143 1.391 . S
C1147 C1146 1.371 . S
C1147 H1154 0.930 . S
H1148 C1145 0.928 . S
H1149 C1146 0.931 . S
H1150 C1126 0.930 . S
H1151 C1123 0.930 . S
H1152 C1132 0.930 . S
H1153 C1144 0.929 . S
H1154 C1147 0.930 . S
C1155 C1156 1.351 . S
C1155 N1158 1.368 . S
C1155 H1160 0.931 . S
C1156 C1155 1.351 . S
C1156 N1157 1.373 . S
C1156 H1184 0.930 . S
N1157 C1156 1.373 . S
N1157 C1159 1.340 . S
N1158 C1155 1.368 . S
N1158 C1159 1.321 . S
N1158 Co1161 2.135 . S
C1159 N1157 1.340 . S
C1159 N1158 1.321 . S
C1159 H1183 0.930 . S
H1160 C1155 0.931 . S
Co1161 N1158 2.135 . S
Co1161 N1164 2.121 . S
Co1161 O1169 2.055 . S
Co1161 O1172 2.039 . S
Co1161 N1175 2.140 . S
C1162 O1163 1.227 . S
C1162 O1172 1.265 . S
O1163 C1162 1.227 . S
N1164 Co1161 2.121 . S
N1164 C1166 1.375 . S
N1164 C1167 1.313 . S
C1165 C1166 1.338 . S
C1165 N1168 1.377 . S
C1165 H1185 0.930 . S
C1166 N1164 1.375 . S
C1166 C1165 1.338 . S
C1166 H1170 0.931 . S
C1167 N1164 1.313 . S
C1167 N1168 1.344 . S
C1167 H1171 0.930 . S
N1168 C1165 1.377 . S
N1168 C1167 1.344 . S
O1169 Co1161 2.055 . S
O1169 C1173 1.253 . S
H1170 C1166 0.931 . S
H1171 C1167 0.930 . S
O1172 Co1161 2.039 . S
O1172 C1162 1.265 . S
C1173 O1169 1.253 . S
C1173 O1174 1.227 . S
O1174 C1173 1.227 . S
N1175 Co1161 2.140 . S
N1175 C1178 1.346 . S
N1175 C1179 1.345 . S
C1176 C1177 1.387 . S
C1176 C1180 1.391 . S
C1177 C1176 1.387 . S
C1177 C1178 1.369 . S
C1177 H1186 0.929 . S
C1178 N1175 1.346 . S
C1178 C1177 1.369 . S
C1178 H1181 0.928 . S
C1179 N1175 1.345 . S
C1179 C1180 1.371 . S
C1179 H1182 0.931 . S
C1180 C1176 1.391 . S
C1180 C1179 1.371 . S
C1180 H1187 0.930 . S
H1181 C1178 0.928 . S
H1182 C1179 0.931 . S
H1183 C1159 0.930 . S
H1184 C1156 0.930 . S
H1185 C1165 0.930 . S
H1186 C1177 0.929 . S
H1187 C1180 0.930 . S
C1188 C1189 1.351 . S
C1188 N1191 1.368 . S
C1188 H1193 0.931 . S
C1189 C1188 1.351 . S
C1189 N1190 1.373 . S
C1189 H1217 0.930 . S
N1190 C1189 1.373 . S
N1190 C1192 1.340 . S
N1191 C1188 1.368 . S
N1191 C1192 1.321 . S
N1191 Co1194 2.135 . S
C1192 N1190 1.340 . S
C1192 N1191 1.321 . S
C1192 H1216 0.930 . S
H1193 C1188 0.931 . S
Co1194 N1191 2.135 . S
Co1194 N1197 2.121 . S
Co1194 O1202 2.055 . S
Co1194 O1205 2.039 . S
Co1194 N1208 2.140 . S
C1195 O1196 1.227 . S
C1195 O1205 1.265 . S
O1196 C1195 1.227 . S
N1197 Co1194 2.121 . S
N1197 C1199 1.375 . S
N1197 C1200 1.313 . S
C1198 C1199 1.338 . S
C1198 N1201 1.377 . S
C1198 H1218 0.930 . S
C1199 N1197 1.375 . S
C1199 C1198 1.338 . S
C1199 H1203 0.931 . S
C1200 N1197 1.313 . S
C1200 N1201 1.344 . S
C1200 H1204 0.930 . S
N1201 C1198 1.377 . S
N1201 C1200 1.344 . S
O1202 Co1194 2.055 . S
O1202 C1206 1.253 . S
H1203 C1199 0.931 . S
H1204 C1200 0.930 . S
O1205 Co1194 2.039 . S
O1205 C1195 1.265 . S
C1206 O1202 1.253 . S
C1206 O1207 1.227 . S
O1207 C1206 1.227 . S
N1208 Co1194 2.140 . S
N1208 C1211 1.346 . S
N1208 C1212 1.345 . S
C1209 C1210 1.387 . S
C1209 C1213 1.391 . S
C1210 C1209 1.387 . S
C1210 C1211 1.369 . S
C1210 H1219 0.929 . S
C1211 N1208 1.346 . S
C1211 C1210 1.369 . S
C1211 H1214 0.928 . S
C1212 N1208 1.345 . S
C1212 C1213 1.371 . S
C1212 H1215 0.931 . S
C1213 C1209 1.391 . S
C1213 C1212 1.371 . S
C1213 H1220 0.930 . S
H1214 C1211 0.928 . S
H1215 C1212 0.931 . S
H1216 C1192 0.930 . S
H1217 C1189 0.930 . S
H1218 C1198 0.930 . S
H1219 C1210 0.929 . S
H1220 C1213 0.930 . S
C1221 C1222 1.351 . S
C1221 N1224 1.368 . S
C1221 H1226 0.931 . S
C1222 C1221 1.351 . S
C1222 N1223 1.373 . S
C1222 H1250 0.930 . S
N1223 C1222 1.373 . S
N1223 C1225 1.340 . S
N1224 C1221 1.368 . S
N1224 C1225 1.321 . S
N1224 Co1227 2.135 . S
C1225 N1223 1.340 . S
C1225 N1224 1.321 . S
C1225 H1249 0.930 . S
H1226 C1221 0.931 . S
Co1227 N1224 2.135 . S
Co1227 N1230 2.121 . S
Co1227 O1235 2.055 . S
Co1227 O1238 2.039 . S
Co1227 N1241 2.140 . S
C1228 O1229 1.227 . S
C1228 O1238 1.265 . S
O1229 C1228 1.227 . S
N1230 Co1227 2.121 . S
N1230 C1232 1.375 . S
N1230 C1233 1.313 . S
C1231 C1232 1.338 . S
C1231 N1234 1.377 . S
C1231 H1251 0.930 . S
C1232 N1230 1.375 . S
C1232 C1231 1.338 . S
C1232 H1236 0.931 . S
C1233 N1230 1.313 . S
C1233 N1234 1.344 . S
C1233 H1237 0.930 . S
N1234 C1231 1.377 . S
N1234 C1233 1.344 . S
O1235 Co1227 2.055 . S
O1235 C1239 1.253 . S
H1236 C1232 0.931 . S
H1237 C1233 0.930 . S
O1238 Co1227 2.039 . S
O1238 C1228 1.265 . S
C1239 O1235 1.253 . S
C1239 O1240 1.227 . S
O1240 C1239 1.227 . S
N1241 Co1227 2.140 . S
N1241 C1244 1.346 . S
N1241 C1245 1.345 . S
C1242 C1243 1.387 . S
C1242 C1246 1.391 . S
C1243 C1242 1.387 . S
C1243 C1244 1.369 . S
C1243 H1252 0.929 . S
C1244 N1241 1.346 . S
C1244 C1243 1.369 . S
C1244 H1247 0.928 . S
C1245 N1241 1.345 . S
C1245 C1246 1.371 . S
C1245 H1248 0.931 . S
C1246 C1242 1.391 . S
C1246 C1245 1.371 . S
C1246 H1253 0.930 . S
H1247 C1244 0.928 . S
H1248 C1245 0.931 . S
H1249 C1225 0.930 . S
H1250 C1222 0.930 . S
H1251 C1231 0.930 . S
H1252 C1243 0.929 . S
H1253 C1246 0.930 . S
C1254 C1255 1.351 . S
C1254 N1257 1.368 . S
C1254 H1259 0.931 . S
C1255 C1254 1.351 . S
C1255 N1256 1.373 . S
C1255 H1283 0.930 . S
N1256 C1255 1.373 . S
N1256 C1258 1.340 . S
N1257 C1254 1.368 . S
N1257 C1258 1.321 . S
N1257 Co1260 2.135 . S
C1258 N1256 1.340 . S
C1258 N1257 1.321 . S
C1258 H1282 0.930 . S
H1259 C1254 0.931 . S
Co1260 N1257 2.135 . S
Co1260 N1263 2.121 . S
Co1260 O1268 2.055 . S
Co1260 O1271 2.039 . S
Co1260 N1274 2.140 . S
C1261 O1262 1.227 . S
C1261 O1271 1.265 . S
O1262 C1261 1.227 . S
N1263 Co1260 2.121 . S
N1263 C1265 1.375 . S
N1263 C1266 1.313 . S
C1264 C1265 1.338 . S
C1264 N1267 1.377 . S
C1264 H1284 0.930 . S
C1265 N1263 1.375 . S
C1265 C1264 1.338 . S
C1265 H1269 0.931 . S
C1266 N1263 1.313 . S
C1266 N1267 1.344 . S
C1266 H1270 0.930 . S
N1267 C1264 1.377 . S
N1267 C1266 1.344 . S
O1268 Co1260 2.055 . S
O1268 C1272 1.253 . S
H1269 C1265 0.931 . S
H1270 C1266 0.930 . S
O1271 Co1260 2.039 . S
O1271 C1261 1.265 . S
C1272 O1268 1.253 . S
C1272 O1273 1.227 . S
O1273 C1272 1.227 . S
N1274 Co1260 2.140 . S
N1274 C1277 1.346 . S
N1274 C1278 1.345 . S
C1275 C1276 1.387 . S
C1275 C1279 1.391 . S
C1276 C1275 1.387 . S
C1276 C1277 1.369 . S
C1276 H1285 0.929 . S
C1277 N1274 1.346 . S
C1277 C1276 1.369 . S
C1277 H1280 0.928 . S
C1278 N1274 1.345 . S
C1278 C1279 1.371 . S
C1278 H1281 0.931 . S
C1279 C1275 1.391 . S
C1279 C1278 1.371 . S
C1279 H1286 0.930 . S
H1280 C1277 0.928 . S
H1281 C1278 0.931 . S
H1282 C1258 0.930 . S
H1283 C1255 0.930 . S
H1284 C1264 0.930 . S
H1285 C1276 0.929 . S
H1286 C1279 0.930 . S
C1287 C1288 1.351 . S
C1287 N1290 1.368 . S
C1287 H1292 0.931 . S
C1288 C1287 1.351 . S
C1288 N1289 1.373 . S
C1288 H1316 0.930 . S
N1289 C1288 1.373 . S
N1289 C1291 1.340 . S
N1290 C1287 1.368 . S
N1290 C1291 1.321 . S
N1290 Co1293 2.135 . S
C1291 N1289 1.340 . S
C1291 N1290 1.321 . S
C1291 H1315 0.930 . S
H1292 C1287 0.931 . S
Co1293 N1290 2.135 . S
Co1293 N1296 2.121 . S
Co1293 O1301 2.055 . S
Co1293 O1304 2.039 . S
Co1293 N1307 2.140 . S
C1294 O1295 1.227 . S
C1294 O1304 1.265 . S
O1295 C1294 1.227 . S
N1296 Co1293 2.121 . S
N1296 C1298 1.375 . S
N1296 C1299 1.313 . S
C1297 C1298 1.338 . S
C1297 N1300 1.377 . S
C1297 H1317 0.930 . S
C1298 N1296 1.375 . S
C1298 C1297 1.338 . S
C1298 H1302 0.931 . S
C1299 N1296 1.313 . S
C1299 N1300 1.344 . S
C1299 H1303 0.930 . S
N1300 C1297 1.377 . S
N1300 C1299 1.344 . S
O1301 Co1293 2.055 . S
O1301 C1305 1.253 . S
H1302 C1298 0.931 . S
H1303 C1299 0.930 . S
O1304 Co1293 2.039 . S
O1304 C1294 1.265 . S
C1305 O1301 1.253 . S
C1305 O1306 1.227 . S
O1306 C1305 1.227 . S
N1307 Co1293 2.140 . S
N1307 C1310 1.346 . S
N1307 C1311 1.345 . S
C1308 C1309 1.387 . S
C1308 C1312 1.391 . S
C1309 C1308 1.387 . S
C1309 C1310 1.369 . S
C1309 H1318 0.929 . S
C1310 N1307 1.346 . S
C1310 C1309 1.369 . S
C1310 H1313 0.928 . S
C1311 N1307 1.345 . S
C1311 C1312 1.371 . S
C1311 H1314 0.931 . S
C1312 C1308 1.391 . S
C1312 C1311 1.371 . S
C1312 H1319 0.930 . S
H1313 C1310 0.928 . S
H1314 C1311 0.931 . S
H1315 C1291 0.930 . S
H1316 C1288 0.930 . S
H1317 C1297 0.930 . S
H1318 C1309 0.929 . S
H1319 C1312 0.930 . S
C1320 C1321 1.351 . S
C1320 N1323 1.368 . S
C1320 H1325 0.931 . S
C1321 C1320 1.351 . S
C1321 N1322 1.373 . S
C1321 H1349 0.930 . S
N1322 C1321 1.373 . S
N1322 C1324 1.340 . S
N1323 C1320 1.368 . S
N1323 C1324 1.321 . S
N1323 Co1326 2.135 . S
C1324 N1322 1.340 . S
C1324 N1323 1.321 . S
C1324 H1348 0.930 . S
H1325 C1320 0.931 . S
Co1326 N1323 2.135 . S
Co1326 N1329 2.121 . S
Co1326 O1334 2.055 . S
Co1326 O1337 2.039 . S
Co1326 N1340 2.140 . S
C1327 O1328 1.227 . S
C1327 O1337 1.265 . S
O1328 C1327 1.227 . S
N1329 Co1326 2.121 . S
N1329 C1331 1.375 . S
N1329 C1332 1.313 . S
C1330 C1331 1.338 . S
C1330 N1333 1.377 . S
C1330 H1350 0.930 . S
C1331 N1329 1.375 . S
C1331 C1330 1.338 . S
C1331 H1335 0.931 . S
C1332 N1329 1.313 . S
C1332 N1333 1.344 . S
C1332 H1336 0.930 . S
N1333 C1330 1.377 . S
N1333 C1332 1.344 . S
O1334 Co1326 2.055 . S
O1334 C1338 1.253 . S
H1335 C1331 0.931 . S
H1336 C1332 0.930 . S
O1337 Co1326 2.039 . S
O1337 C1327 1.265 . S
C1338 O1334 1.253 . S
C1338 O1339 1.227 . S
O1339 C1338 1.227 . S
N1340 Co1326 2.140 . S
N1340 C1343 1.346 . S
N1340 C1344 1.345 . S
C1341 C1342 1.387 . S
C1341 C1345 1.391 . S
C1342 C1341 1.387 . S
C1342 C1343 1.369 . S
C1342 H1351 0.929 . S
C1343 N1340 1.346 . S
C1343 C1342 1.369 . S
C1343 H1346 0.928 . S
C1344 N1340 1.345 . S
C1344 C1345 1.371 . S
C1344 H1347 0.931 . S
C1345 C1341 1.391 . S
C1345 C1344 1.371 . S
C1345 H1352 0.930 . S
H1346 C1343 0.928 . S
H1347 C1344 0.931 . S
H1348 C1324 0.930 . S
H1349 C1321 0.930 . S
H1350 C1330 0.930 . S
H1351 C1342 0.929 . S
H1352 C1345 0.930 . S
C1353 C1354 1.351 . S
C1353 N1356 1.368 . S
C1353 H1358 0.931 . S
C1354 C1353 1.351 . S
C1354 N1355 1.373 . S
C1354 H1382 0.930 . S
N1355 C1354 1.373 . S
N1355 C1357 1.340 . S
N1356 C1353 1.368 . S
N1356 C1357 1.321 . S
N1356 Co1359 2.135 . S
C1357 N1355 1.340 . S
C1357 N1356 1.321 . S
C1357 H1381 0.930 . S
H1358 C1353 0.931 . S
Co1359 N1356 2.135 . S
Co1359 N1362 2.121 . S
Co1359 O1367 2.055 . S
Co1359 O1370 2.039 . S
Co1359 N1373 2.140 . S
C1360 O1361 1.227 . S
C1360 O1370 1.265 . S
O1361 C1360 1.227 . S
N1362 Co1359 2.121 . S
N1362 C1364 1.375 . S
N1362 C1365 1.313 . S
C1363 C1364 1.338 . S
C1363 N1366 1.377 . S
C1363 H1383 0.930 . S
C1364 N1362 1.375 . S
C1364 C1363 1.338 . S
C1364 H1368 0.931 . S
C1365 N1362 1.313 . S
C1365 N1366 1.344 . S
C1365 H1369 0.930 . S
N1366 C1363 1.377 . S
N1366 C1365 1.344 . S
O1367 Co1359 2.055 . S
O1367 C1371 1.253 . S
H1368 C1364 0.931 . S
H1369 C1365 0.930 . S
O1370 Co1359 2.039 . S
O1370 C1360 1.265 . S
C1371 O1367 1.253 . S
C1371 O1372 1.227 . S
O1372 C1371 1.227 . S
N1373 Co1359 2.140 . S
N1373 C1376 1.346 . S
N1373 C1377 1.345 . S
C1374 C1375 1.387 . S
C1374 C1378 1.391 . S
C1375 C1374 1.387 . S
C1375 C1376 1.369 . S
C1375 H1384 0.929 . S
C1376 N1373 1.346 . S
C1376 C1375 1.369 . S
C1376 H1379 0.928 . S
C1377 N1373 1.345 . S
C1377 C1378 1.371 . S
C1377 H1380 0.931 . S
C1378 C1374 1.391 . S
C1378 C1377 1.371 . S
C1378 H1385 0.930 . S
H1379 C1376 0.928 . S
H1380 C1377 0.931 . S
H1381 C1357 0.930 . S
H1382 C1354 0.930 . S
H1383 C1363 0.930 . S
H1384 C1375 0.929 . S
H1385 C1378 0.930 . S
C1386 C1387 1.351 . S
C1386 N1389 1.368 . S
C1386 H1391 0.931 . S
C1387 C1386 1.351 . S
C1387 N1388 1.373 . S
C1387 H1415 0.930 . S
N1388 C1387 1.373 . S
N1388 C1390 1.340 . S
N1389 C1386 1.368 . S
N1389 C1390 1.321 . S
N1389 Co1392 2.135 . S
C1390 N1388 1.340 . S
C1390 N1389 1.321 . S
C1390 H1414 0.930 . S
H1391 C1386 0.931 . S
Co1392 N1389 2.135 . S
Co1392 N1395 2.121 . S
Co1392 O1400 2.055 . S
Co1392 O1403 2.039 . S
Co1392 N1406 2.140 . S
C1393 O1394 1.227 . S
C1393 O1403 1.265 . S
O1394 C1393 1.227 . S
N1395 Co1392 2.121 . S
N1395 C1397 1.375 . S
N1395 C1398 1.313 . S
C1396 C1397 1.338 . S
C1396 N1399 1.377 . S
C1396 H1416 0.930 . S
C1397 N1395 1.375 . S
C1397 C1396 1.338 . S
C1397 H1401 0.931 . S
C1398 N1395 1.313 . S
C1398 N1399 1.344 . S
C1398 H1402 0.930 . S
N1399 C1396 1.377 . S
N1399 C1398 1.344 . S
O1400 Co1392 2.055 . S
O1400 C1404 1.253 . S
H1401 C1397 0.931 . S
H1402 C1398 0.930 . S
O1403 Co1392 2.039 . S
O1403 C1393 1.265 . S
C1404 O1400 1.253 . S
C1404 O1405 1.227 . S
O1405 C1404 1.227 . S
N1406 Co1392 2.140 . S
N1406 C1409 1.346 . S
N1406 C1410 1.345 . S
C1407 C1408 1.387 . S
C1407 C1411 1.391 . S
C1408 C1407 1.387 . S
C1408 C1409 1.369 . S
C1408 H1417 0.929 . S
C1409 N1406 1.346 . S
C1409 C1408 1.369 . S
C1409 H1412 0.928 . S
C1410 N1406 1.345 . S
C1410 C1411 1.371 . S
C1410 H1413 0.931 . S
C1411 C1407 1.391 . S
C1411 C1410 1.371 . S
C1411 H1418 0.930 . S
H1412 C1409 0.928 . S
H1413 C1410 0.931 . S
H1414 C1390 0.930 . S
H1415 C1387 0.930 . S
H1416 C1396 0.930 . S
H1417 C1408 0.929 . S
H1418 C1411 0.930 . S
C1419 C1420 1.351 . S
C1419 N1422 1.368 . S
C1419 H1424 0.931 . S
C1420 C1419 1.351 . S
C1420 N1421 1.373 . S
C1420 H1448 0.930 . S
N1421 C1420 1.373 . S
N1421 C1423 1.340 . S
N1422 C1419 1.368 . S
N1422 C1423 1.321 . S
N1422 Co1425 2.135 . S
C1423 N1421 1.340 . S
C1423 N1422 1.321 . S
C1423 H1447 0.930 . S
H1424 C1419 0.931 . S
Co1425 N1422 2.135 . S
Co1425 N1428 2.121 . S
Co1425 O1433 2.055 . S
Co1425 O1436 2.039 . S
Co1425 N1439 2.140 . S
C1426 O1427 1.227 . S
C1426 O1436 1.265 . S
O1427 C1426 1.227 . S
N1428 Co1425 2.121 . S
N1428 C1430 1.375 . S
N1428 C1431 1.313 . S
C1429 C1430 1.338 . S
C1429 N1432 1.377 . S
C1429 H1449 0.930 . S
C1430 N1428 1.375 . S
C1430 C1429 1.338 . S
C1430 H1434 0.931 . S
C1431 N1428 1.313 . S
C1431 N1432 1.344 . S
C1431 H1435 0.930 . S
N1432 C1429 1.377 . S
N1432 C1431 1.344 . S
O1433 Co1425 2.055 . S
O1433 C1437 1.253 . S
H1434 C1430 0.931 . S
H1435 C1431 0.930 . S
O1436 Co1425 2.039 . S
O1436 C1426 1.265 . S
C1437 O1433 1.253 . S
C1437 O1438 1.227 . S
O1438 C1437 1.227 . S
N1439 Co1425 2.140 . S
N1439 C1442 1.346 . S
N1439 C1443 1.345 . S
C1440 C1441 1.387 . S
C1440 C1444 1.391 . S
C1441 C1440 1.387 . S
C1441 C1442 1.369 . S
C1441 H1450 0.929 . S
C1442 N1439 1.346 . S
C1442 C1441 1.369 . S
C1442 H1445 0.928 . S
C1443 N1439 1.345 . S
C1443 C1444 1.371 . S
C1443 H1446 0.931 . S
C1444 C1440 1.391 . S
C1444 C1443 1.371 . S
C1444 H1451 0.930 . S
H1445 C1442 0.928 . S
H1446 C1443 0.931 . S
H1447 C1423 0.930 . S
H1448 C1420 0.930 . S
H1449 C1429 0.930 . S
H1450 C1441 0.929 . S
H1451 C1444 0.930 . S
C1452 C1453 1.351 . S
C1452 N1455 1.368 . S
C1452 H1457 0.931 . S
C1453 C1452 1.351 . S
C1453 N1454 1.373 . S
C1453 H1481 0.930 . S
N1454 C1453 1.373 . S
N1454 C1456 1.340 . S
N1455 C1452 1.368 . S
N1455 C1456 1.321 . S
N1455 Co1458 2.135 . S
C1456 N1454 1.340 . S
C1456 N1455 1.321 . S
C1456 H1480 0.930 . S
H1457 C1452 0.931 . S
Co1458 N1455 2.135 . S
Co1458 N1461 2.121 . S
Co1458 O1466 2.055 . S
Co1458 O1469 2.039 . S
Co1458 N1472 2.140 . S
C1459 O1460 1.227 . S
C1459 O1469 1.265 . S
O1460 C1459 1.227 . S
N1461 Co1458 2.121 . S
N1461 C1463 1.375 . S
N1461 C1464 1.313 . S
C1462 C1463 1.338 . S
C1462 N1465 1.377 . S
C1462 H1482 0.930 . S
C1463 N1461 1.375 . S
C1463 C1462 1.338 . S
C1463 H1467 0.931 . S
C1464 N1461 1.313 . S
C1464 N1465 1.344 . S
C1464 H1468 0.930 . S
N1465 C1462 1.377 . S
N1465 C1464 1.344 . S
O1466 Co1458 2.055 . S
O1466 C1470 1.253 . S
H1467 C1463 0.931 . S
H1468 C1464 0.930 . S
O1469 Co1458 2.039 . S
O1469 C1459 1.265 . S
C1470 O1466 1.253 . S
C1470 O1471 1.227 . S
O1471 C1470 1.227 . S
N1472 Co1458 2.140 . S
N1472 C1475 1.346 . S
N1472 C1476 1.345 . S
C1473 C1474 1.387 . S
C1473 C1477 1.391 . S
C1474 C1473 1.387 . S
C1474 C1475 1.369 . S
C1474 H1483 0.929 . S
C1475 N1472 1.346 . S
C1475 C1474 1.369 . S
C1475 H1478 0.928 . S
C1476 N1472 1.345 . S
C1476 C1477 1.371 . S
C1476 H1479 0.931 . S
C1477 C1473 1.391 . S
C1477 C1476 1.371 . S
C1477 H1484 0.930 . S
H1478 C1475 0.928 . S
H1479 C1476 0.931 . S
H1480 C1456 0.930 . S
H1481 C1453 0.930 . S
H1482 C1462 0.930 . S
H1483 C1474 0.929 . S
H1484 C1477 0.930 . S
C1485 C1486 1.351 . S
C1485 N1488 1.368 . S
C1485 H1490 0.931 . S
C1486 C1485 1.351 . S
C1486 N1487 1.373 . S
C1486 H1514 0.930 . S
N1487 C1486 1.373 . S
N1487 C1489 1.340 . S
N1488 C1485 1.368 . S
N1488 C1489 1.321 . S
N1488 Co1491 2.135 . S
C1489 N1487 1.340 . S
C1489 N1488 1.321 . S
C1489 H1513 0.930 . S
H1490 C1485 0.931 . S
Co1491 N1488 2.135 . S
Co1491 N1494 2.121 . S
Co1491 O1499 2.055 . S
Co1491 O1502 2.039 . S
Co1491 N1505 2.140 . S
C1492 O1493 1.227 . S
C1492 O1502 1.265 . S
O1493 C1492 1.227 . S
N1494 Co1491 2.121 . S
N1494 C1496 1.375 . S
N1494 C1497 1.313 . S
C1495 C1496 1.338 . S
C1495 N1498 1.377 . S
C1495 H1515 0.930 . S
C1496 N1494 1.375 . S
C1496 C1495 1.338 . S
C1496 H1500 0.931 . S
C1497 N1494 1.313 . S
C1497 N1498 1.344 . S
C1497 H1501 0.930 . S
N1498 C1495 1.377 . S
N1498 C1497 1.344 . S
O1499 Co1491 2.055 . S
O1499 C1503 1.253 . S
H1500 C1496 0.931 . S
H1501 C1497 0.930 . S
O1502 Co1491 2.039 . S
O1502 C1492 1.265 . S
C1503 O1499 1.253 . S
C1503 O1504 1.227 . S
O1504 C1503 1.227 . S
N1505 Co1491 2.140 . S
N1505 C1508 1.346 . S
N1505 C1509 1.345 . S
C1506 C1507 1.387 . S
C1506 C1510 1.391 . S
C1507 C1506 1.387 . S
C1507 C1508 1.369 . S
C1507 H1516 0.929 . S
C1508 N1505 1.346 . S
C1508 C1507 1.369 . S
C1508 H1511 0.928 . S
C1509 N1505 1.345 . S
C1509 C1510 1.371 . S
C1509 H1512 0.931 . S
C1510 C1506 1.391 . S
C1510 C1509 1.371 . S
C1510 H1517 0.930 . S
H1511 C1508 0.928 . S
H1512 C1509 0.931 . S
H1513 C1489 0.930 . S
H1514 C1486 0.930 . S
H1515 C1495 0.930 . S
H1516 C1507 0.929 . S
H1517 C1510 0.930 . S
C1518 C1519 1.351 . S
C1518 N1521 1.368 . S
C1518 H1523 0.931 . S
C1519 C1518 1.351 . S
C1519 N1520 1.373 . S
C1519 H1547 0.930 . S
N1520 C1519 1.373 . S
N1520 C1522 1.340 . S
N1521 C1518 1.368 . S
N1521 C1522 1.321 . S
N1521 Co1524 2.135 . S
C1522 N1520 1.340 . S
C1522 N1521 1.321 . S
C1522 H1546 0.930 . S
H1523 C1518 0.931 . S
Co1524 N1521 2.135 . S
Co1524 N1527 2.121 . S
Co1524 O1532 2.055 . S
Co1524 O1535 2.039 . S
Co1524 N1538 2.140 . S
C1525 O1526 1.227 . S
C1525 O1535 1.265 . S
O1526 C1525 1.227 . S
N1527 Co1524 2.121 . S
N1527 C1529 1.375 . S
N1527 C1530 1.313 . S
C1528 C1529 1.338 . S
C1528 N1531 1.377 . S
C1528 H1548 0.930 . S
C1529 N1527 1.375 . S
C1529 C1528 1.338 . S
C1529 H1533 0.931 . S
C1530 N1527 1.313 . S
C1530 N1531 1.344 . S
C1530 H1534 0.930 . S
N1531 C1528 1.377 . S
N1531 C1530 1.344 . S
O1532 Co1524 2.055 . S
O1532 C1536 1.253 . S
H1533 C1529 0.931 . S
H1534 C1530 0.930 . S
O1535 Co1524 2.039 . S
O1535 C1525 1.265 . S
C1536 O1532 1.253 . S
C1536 O1537 1.227 . S
O1537 C1536 1.227 . S
N1538 Co1524 2.140 . S
N1538 C1541 1.346 . S
N1538 C1542 1.345 . S
C1539 C1540 1.387 . S
C1539 C1543 1.391 . S
C1540 C1539 1.387 . S
C1540 C1541 1.369 . S
C1540 H1549 0.929 . S
C1541 N1538 1.346 . S
C1541 C1540 1.369 . S
C1541 H1544 0.928 . S
C1542 N1538 1.345 . S
C1542 C1543 1.371 . S
C1542 H1545 0.931 . S
C1543 C1539 1.391 . S
C1543 C1542 1.371 . S
C1543 H1550 0.930 . S
H1544 C1541 0.928 . S
H1545 C1542 0.931 . S
H1546 C1522 0.930 . S
H1547 C1519 0.930 . S
H1548 C1528 0.930 . S
H1549 C1540 0.929 . S
H1550 C1543 0.930 . S
C1551 C1552 1.351 . S
C1551 N1554 1.368 . S
C1551 H1556 0.931 . S
C1552 C1551 1.351 . S
C1552 N1553 1.373 . S
C1552 H1580 0.930 . S
N1553 C1552 1.373 . S
N1553 C1555 1.340 . S
N1554 C1551 1.368 . S
N1554 C1555 1.321 . S
N1554 Co1557 2.135 . S
C1555 N1553 1.340 . S
C1555 N1554 1.321 . S
C1555 H1579 0.930 . S
H1556 C1551 0.931 . S
Co1557 N1554 2.135 . S
Co1557 N1560 2.121 . S
Co1557 O1565 2.055 . S
Co1557 O1568 2.039 . S
Co1557 N1571 2.140 . S
C1558 O1559 1.227 . S
C1558 O1568 1.265 . S
O1559 C1558 1.227 . S
N1560 Co1557 2.121 . S
N1560 C1562 1.375 . S
N1560 C1563 1.313 . S
C1561 C1562 1.338 . S
C1561 N1564 1.377 . S
C1561 H1581 0.930 . S
C1562 N1560 1.375 . S
C1562 C1561 1.338 . S
C1562 H1566 0.931 . S
C1563 N1560 1.313 . S
C1563 N1564 1.344 . S
C1563 H1567 0.930 . S
N1564 C1561 1.377 . S
N1564 C1563 1.344 . S
O1565 Co1557 2.055 . S
O1565 C1569 1.253 . S
H1566 C1562 0.931 . S
H1567 C1563 0.930 . S
O1568 Co1557 2.039 . S
O1568 C1558 1.265 . S
C1569 O1565 1.253 . S
C1569 O1570 1.227 . S
O1570 C1569 1.227 . S
N1571 Co1557 2.140 . S
N1571 C1574 1.346 . S
N1571 C1575 1.345 . S
C1572 C1573 1.387 . S
C1572 C1576 1.391 . S
C1573 C1572 1.387 . S
C1573 C1574 1.369 . S
C1573 H1582 0.929 . S
C1574 N1571 1.346 . S
C1574 C1573 1.369 . S
C1574 H1577 0.928 . S
C1575 N1571 1.345 . S
C1575 C1576 1.371 . S
C1575 H1578 0.931 . S
C1576 C1572 1.391 . S
C1576 C1575 1.371 . S
C1576 H1583 0.930 . S
H1577 C1574 0.928 . S
H1578 C1575 0.931 . S
H1579 C1555 0.930 . S
H1580 C1552 0.930 . S
H1581 C1561 0.930 . S
H1582 C1573 0.929 . S
H1583 C1576 0.930 . S
C1584 C1585 1.387 . S
C1584 H1588 0.950 . S
C1584 C1593 1.390 . S
C1585 C1584 1.387 . S
C1585 C1587 1.387 . S
H1586 C1593 0.950 . S
C1587 C1585 1.387 . S
C1587 C1589 1.390 . S
C1587 H1591 0.950 . S
H1588 C1584 0.950 . S
C1589 C1587 1.390 . S
C1589 C1590 1.387 . S
C1589 H1592 0.950 . S
C1590 C1589 1.387 . S
C1590 C1593 1.387 . S
H1591 C1587 0.950 . S
H1592 C1589 0.950 . S
C1593 C1584 1.390 . S
C1593 H1586 0.950 . S
C1593 C1590 1.387 . S
C1594 C1595 1.387 . S
C1594 H1598 0.950 . S
C1594 C1603 1.390 . S
C1595 C1594 1.387 . S
C1595 C1597 1.387 . S
H1596 C1603 0.950 . S
C1597 C1595 1.387 . S
C1597 C1599 1.390 . S
C1597 H1601 0.950 . S
H1598 C1594 0.950 . S
C1599 C1597 1.390 . S
C1599 C1600 1.387 . S
C1599 H1602 0.950 . S
C1600 C1599 1.387 . S
C1600 C1603 1.387 . S
H1601 C1597 0.950 . S
H1602 C1599 0.950 . S
C1603 C1594 1.390 . S
C1603 H1596 0.950 . S
C1603 C1600 1.387 . S
C1604 C1605 1.387 . S
C1604 H1608 0.950 . S
C1604 C1613 1.390 . S
C1605 C1604 1.387 . S
C1605 C1607 1.387 . S
H1606 C1613 0.950 . S
C1607 C1605 1.387 . S
C1607 C1609 1.390 . S
C1607 H1611 0.950 . S
H1608 C1604 0.950 . S
C1609 C1607 1.390 . S
C1609 C1610 1.387 . S
C1609 H1612 0.950 . S
C1610 C1609 1.387 . S
C1610 C1613 1.387 . S
H1611 C1607 0.950 . S
H1612 C1609 0.950 . S
C1613 C1604 1.390 . S
C1613 H1606 0.950 . S
C1613 C1610 1.387 . S
C1614 C1615 1.387 . S
C1614 H1618 0.950 . S
C1614 C1623 1.390 . S
C1615 C1614 1.387 . S
C1615 C1617 1.387 . S
H1616 C1623 0.950 . S
C1617 C1615 1.387 . S
C1617 C1619 1.390 . S
C1617 H1621 0.950 . S
H1618 C1614 0.950 . S
C1619 C1617 1.390 . S
C1619 C1620 1.387 . S
C1619 H1622 0.950 . S
C1620 C1619 1.387 . S
C1620 C1623 1.387 . S
H1621 C1617 0.950 . S
H1622 C1619 0.950 . S
C1623 C1614 1.390 . S
C1623 H1616 0.950 . S
C1623 C1620 1.387 . S
C1624 C1625 1.387 . S
C1624 H1628 0.950 . S
C1624 C1633 1.390 . S
C1625 C1624 1.387 . S
C1625 C1627 1.387 . S
H1626 C1633 0.950 . S
C1627 C1625 1.387 . S
C1627 C1629 1.390 . S
C1627 H1631 0.950 . S
H1628 C1624 0.950 . S
C1629 C1627 1.390 . S
C1629 C1630 1.387 . S
C1629 H1632 0.950 . S
C1630 C1629 1.387 . S
C1630 C1633 1.387 . S
H1631 C1627 0.950 . S
H1632 C1629 0.950 . S
C1633 C1624 1.390 . S
C1633 H1626 0.950 . S
C1633 C1630 1.387 . S
C1634 C1635 1.387 . S
C1634 H1638 0.950 . S
C1634 C1643 1.390 . S
C1635 C1634 1.387 . S
C1635 C1637 1.387 . S
H1636 C1643 0.950 . S
C1637 C1635 1.387 . S
C1637 C1639 1.390 . S
C1637 H1641 0.950 . S
H1638 C1634 0.950 . S
C1639 C1637 1.390 . S
C1639 C1640 1.387 . S
C1639 H1642 0.950 1_655 S
C1640 C1639 1.387 . S
C1640 C1643 1.387 . S
H1641 C1637 0.950 . S
H1642 C1639 0.950 1_455 S
C1643 C1634 1.390 . S
C1643 H1636 0.950 . S
C1643 C1640 1.387 . S
C1644 C1645 1.387 . S
C1644 H1648 0.950 . S
C1644 C1653 1.390 . S
C1645 C1644 1.387 . S
C1645 C1647 1.387 . S
H1646 C1653 0.950 . S
C1647 C1645 1.387 . S
C1647 C1649 1.390 . S
C1647 H1651 0.950 . S
H1648 C1644 0.950 . S
C1649 C1647 1.390 . S
C1649 C1650 1.387 . S
C1649 H1652 0.950 . S
C1650 C1649 1.387 . S
C1650 C1653 1.387 . S
H1651 C1647 0.950 . S
H1652 C1649 0.950 . S
C1653 C1644 1.390 . S
C1653 H1646 0.950 . S
C1653 C1650 1.387 . S
C1654 C1655 1.387 . S
C1654 H1658 0.950 . S
C1654 C1663 1.390 . S
C1655 C1654 1.387 . S
C1655 C1657 1.387 . S
H1656 C1663 0.950 . S
C1657 C1655 1.387 . S
C1657 C1659 1.390 . S
C1657 H1661 0.950 . S
H1658 C1654 0.950 . S
C1659 C1657 1.390 . S
C1659 C1660 1.387 . S
C1659 H1662 0.950 . S
C1660 C1659 1.387 . S
C1660 C1663 1.387 . S
H1661 C1657 0.950 . S
H1662 C1659 0.950 . S
C1663 C1654 1.390 . S
C1663 H1656 0.950 . S
C1663 C1660 1.387 . S
C1664 C1665 1.387 . S
C1664 H1668 0.950 . S
C1664 C1673 1.390 . S
C1665 C1664 1.387 . S
C1665 C1667 1.387 . S
H1666 C1673 0.950 . S
C1667 C1665 1.387 . S
C1667 C1669 1.390 . S
C1667 H1671 0.950 . S
H1668 C1664 0.950 . S
C1669 C1667 1.390 . S
C1669 C1670 1.387 . S
C1669 H1672 0.950 . S
C1670 C1669 1.387 . S
C1670 C1673 1.387 . S
H1671 C1667 0.950 . S
H1672 C1669 0.950 . S
C1673 C1664 1.390 . S
C1673 H1666 0.950 . S
C1673 C1670 1.387 . S
C1674 C1675 1.387 . S
C1674 H1678 0.950 1_556 S
C1674 C1683 1.390 . S
C1675 C1674 1.387 . S
C1675 C1677 1.387 . S
H1676 C1683 0.950 . S
C1677 C1675 1.387 . S
C1677 C1679 1.390 . S
C1677 H1681 0.950 . S
H1678 C1674 0.950 1_554 S
C1679 C1677 1.390 . S
C1679 C1680 1.387 . S
C1679 H1682 0.950 . S
C1680 C1679 1.387 . S
C1680 C1683 1.387 . S
H1681 C1677 0.950 . S
H1682 C1679 0.950 . S
C1683 C1674 1.390 . S
C1683 H1676 0.950 . S
C1683 C1680 1.387 . S
C1684 C1685 1.387 . S
C1684 H1688 0.950 . S
C1684 C1693 1.390 . S
C1685 C1684 1.387 . S
C1685 C1687 1.387 . S
H1686 C1693 0.950 . S
C1687 C1685 1.387 . S
C1687 C1689 1.390 . S
C1687 H1691 0.950 . S
H1688 C1684 0.950 . S
C1689 C1687 1.390 . S
C1689 C1690 1.387 . S
C1689 H1692 0.950 . S
C1690 C1689 1.387 . S
C1690 C1693 1.387 . S
H1691 C1687 0.950 . S
H1692 C1689 0.950 . S
C1693 C1684 1.390 . S
C1693 H1686 0.950 . S
C1693 C1690 1.387 . S
C1694 C1695 1.387 . S
C1694 H1698 0.950 . S
C1694 C1703 1.390 . S
C1695 C1694 1.387 . S
C1695 C1697 1.387 . S
H1696 C1703 0.950 1_554 S
C1697 C1695 1.387 . S
C1697 C1699 1.390 . S
C1697 H1701 0.950 . S
H1698 C1694 0.950 . S
C1699 C1697 1.390 . S
C1699 C1700 1.387 . S
C1699 H1702 0.950 . S
C1700 C1699 1.387 . S
C1700 C1703 1.387 . S
H1701 C1697 0.950 . S
H1702 C1699 0.950 . S
C1703 C1694 1.390 . S
C1703 H1696 0.950 1_556 S
C1703 C1700 1.387 . S
C1704 C1705 1.387 . S
C1704 H1708 0.950 . S
C1704 C1713 1.390 . S
C1705 C1704 1.387 . S
C1705 C1707 1.387 . S
H1706 C1713 0.950 . S
C1707 C1705 1.387 . S
C1707 C1709 1.390 . S
C1707 H1711 0.950 . S
H1708 C1704 0.950 . S
C1709 C1707 1.390 . S
C1709 C1710 1.387 . S
C1709 H1712 0.950 . S
C1710 C1709 1.387 . S
C1710 C1713 1.387 . S
H1711 C1707 0.950 . S
H1712 C1709 0.950 . S
C1713 C1704 1.390 . S
C1713 H1706 0.950 . S
C1713 C1710 1.387 . S
C1714 C1715 1.387 . S
C1714 H1718 0.950 . S
C1714 C1723 1.390 . S
C1715 C1714 1.387 . S
C1715 C1717 1.387 . S
H1716 C1723 0.950 . S
C1717 C1715 1.387 . S
C1717 C1719 1.390 . S
C1717 H1721 0.950 . S
H1718 C1714 0.950 . S
C1719 C1717 1.390 . S
C1719 C1720 1.387 . S
C1719 H1722 0.950 1_554 S
C1720 C1719 1.387 . S
C1720 C1723 1.387 . S
H1721 C1717 0.950 . S
H1722 C1719 0.950 1_556 S
C1723 C1714 1.390 . S
C1723 H1716 0.950 . S
C1723 C1720 1.387 . S
C1724 C1725 1.387 . S
C1724 H1728 0.950 . S
C1724 C1733 1.390 . S
C1725 C1724 1.387 . S
C1725 C1727 1.387 . S
H1726 C1733 0.950 . S
C1727 C1725 1.387 . S
C1727 C1729 1.390 . S
C1727 H1731 0.950 . S
H1728 C1724 0.950 . S
C1729 C1727 1.390 . S
C1729 C1730 1.387 . S
C1729 H1732 0.950 . S
C1730 C1729 1.387 . S
C1730 C1733 1.387 . S
H1731 C1727 0.950 . S
H1732 C1729 0.950 . S
C1733 C1724 1.390 . S
C1733 H1726 0.950 . S
C1733 C1730 1.387 . S
C1734 C1735 1.387 . S
C1734 H1738 0.950 . S
C1734 C1743 1.390 . S
C1735 C1734 1.387 . S
C1735 C1737 1.387 . S
H1736 C1743 0.950 . S
C1737 C1735 1.387 . S
C1737 C1739 1.390 . S
C1737 H1741 0.950 1_554 S
H1738 C1734 0.950 . S
C1739 C1737 1.390 . S
C1739 C1740 1.387 . S
C1739 H1742 0.950 . S
C1740 C1739 1.387 . S
C1740 C1743 1.387 . S
H1741 C1737 0.950 1_556 S
H1742 C1739 0.950 . S
C1743 C1734 1.390 . S
C1743 H1736 0.950 . S
C1743 C1740 1.387 . S
C1744 C1745 1.387 . S
C1744 H1748 0.950 . S
C1744 C1753 1.390 . S
C1745 C1744 1.387 . S
C1745 C1747 1.387 . S
H1746 C1753 0.950 . S
C1747 C1745 1.387 . S
C1747 C1749 1.390 . S
C1747 H1751 0.950 . S
H1748 C1744 0.950 . S
C1749 C1747 1.390 . S
C1749 C1750 1.387 . S
C1749 H1752 0.950 . S
C1750 C1749 1.387 . S
C1750 C1753 1.387 . S
H1751 C1747 0.950 . S
H1752 C1749 0.950 . S
C1753 C1744 1.390 . S
C1753 H1746 0.950 . S
C1753 C1750 1.387 . S
C1754 C1755 1.387 . S
C1754 H1758 0.950 . S
C1754 C1763 1.390 . S
C1755 C1754 1.387 . S
C1755 C1757 1.387 . S
H1756 C1763 0.950 . S
C1757 C1755 1.387 . S
C1757 C1759 1.390 . S
C1757 H1761 0.950 . S
H1758 C1754 0.950 . S
C1759 C1757 1.390 . S
C1759 C1760 1.387 . S
C1759 H1762 0.950 . S
C1760 C1759 1.387 . S
C1760 C1763 1.387 . S
H1761 C1757 0.950 . S
H1762 C1759 0.950 . S
C1763 C1754 1.390 . S
C1763 H1756 0.950 . S
C1763 C1760 1.387 . S
C1764 C1765 1.387 . S
C1764 H1768 0.950 . S
C1764 C1773 1.390 . S
C1765 C1764 1.387 . S
C1765 C1767 1.387 . S
H1766 C1773 0.950 . S
C1767 C1765 1.387 . S
C1767 C1769 1.390 . S
C1767 H1771 0.950 . S
H1768 C1764 0.950 . S
C1769 C1767 1.390 . S
C1769 C1770 1.387 . S
C1769 H1772 0.950 . S
C1770 C1769 1.387 . S
C1770 C1773 1.387 . S
H1771 C1767 0.950 . S
H1772 C1769 0.950 . S
C1773 C1764 1.390 . S
C1773 H1766 0.950 . S
C1773 C1770 1.387 . S
C1774 C1775 1.387 . S
C1774 H1778 0.950 . S
C1774 C1783 1.390 . S
C1775 C1774 1.387 . S
C1775 C1777 1.387 . S
H1776 C1783 0.950 . S
C1777 C1775 1.387 . S
C1777 C1779 1.390 . S
C1777 H1781 0.950 . S
H1778 C1774 0.950 . S
C1779 C1777 1.390 . S
C1779 C1780 1.387 . S
C1779 H1782 0.950 . S
C1780 C1779 1.387 . S
C1780 C1783 1.387 . S
H1781 C1777 0.950 . S
H1782 C1779 0.950 . S
C1783 C1774 1.390 . S
C1783 H1776 0.950 . S
C1783 C1780 1.387 . S
C1784 C1785 1.387 . S
C1784 H1788 0.950 . S
C1784 C1793 1.390 . S
C1785 C1784 1.387 . S
C1785 C1787 1.387 . S
H1786 C1793 0.950 . S
C1787 C1785 1.387 . S
C1787 C1789 1.390 . S
C1787 H1791 0.950 . S
H1788 C1784 0.950 . S
C1789 C1787 1.390 . S
C1789 C1790 1.387 . S
C1789 H1792 0.950 . S
C1790 C1789 1.387 . S
C1790 C1793 1.387 . S
H1791 C1787 0.950 . S
H1792 C1789 0.950 . S
C1793 C1784 1.390 . S
C1793 H1786 0.950 . S
C1793 C1790 1.387 . S
C1794 C1795 1.387 . S
C1794 H1798 0.950 . S
C1794 C1803 1.390 . S
C1795 C1794 1.387 . S
C1795 C1797 1.387 . S
H1796 C1803 0.950 . S
C1797 C1795 1.387 . S
C1797 C1799 1.390 . S
C1797 H1801 0.950 . S
H1798 C1794 0.950 . S
C1799 C1797 1.390 . S
C1799 C1800 1.387 . S
C1799 H1802 0.950 . S
C1800 C1799 1.387 . S
C1800 C1803 1.387 . S
H1801 C1797 0.950 . S
H1802 C1799 0.950 . S
C1803 C1794 1.390 . S
C1803 H1796 0.950 . S
C1803 C1800 1.387 . S
C1804 C1805 1.387 . S
C1804 H1808 0.950 . S
C1804 C1813 1.390 . S
C1805 C1804 1.387 . S
C1805 C1807 1.387 . S
H1806 C1813 0.950 . S
C1807 C1805 1.387 . S
C1807 C1809 1.390 . S
C1807 H1811 0.950 . S
H1808 C1804 0.950 . S
C1809 C1807 1.390 . S
C1809 C1810 1.387 . S
C1809 H1812 0.950 . S
C1810 C1809 1.387 . S
C1810 C1813 1.387 . S
H1811 C1807 0.950 . S
H1812 C1809 0.950 . S
C1813 C1804 1.390 . S
C1813 H1806 0.950 . S
C1813 C1810 1.387 . S
C1814 C1815 1.387 . S
C1814 H1818 0.950 . S
C1814 C1823 1.390 . S
C1815 C1814 1.387 . S
C1815 C1817 1.387 . S
H1816 C1823 0.950 . S
C1817 C1815 1.387 . S
C1817 C1819 1.390 . S
C1817 H1821 0.950 . S
H1818 C1814 0.950 . S
C1819 C1817 1.390 . S
C1819 C1820 1.387 . S
C1819 H1822 0.950 . S
C1820 C1819 1.387 . S
C1820 C1823 1.387 . S
H1821 C1817 0.950 . S
H1822 C1819 0.950 . S
C1823 C1814 1.390 . S
C1823 H1816 0.950 . S
C1823 C1820 1.387 . S
C1824 C1825 1.387 . S
C1824 H1828 0.950 . S
C1824 C1833 1.390 . S
C1825 C1824 1.387 . S
C1825 C1827 1.387 . S
H1826 C1833 0.950 . S
C1827 C1825 1.387 . S
C1827 C1829 1.390 . S
C1827 H1831 0.950 . S
H1828 C1824 0.950 . S
C1829 C1827 1.390 . S
C1829 C1830 1.387 . S
C1829 H1832 0.950 . S
C1830 C1829 1.387 . S
C1830 C1833 1.387 . S
H1831 C1827 0.950 . S
H1832 C1829 0.950 . S
C1833 C1824 1.390 . S
C1833 H1826 0.950 . S
C1833 C1830 1.387 . S
C1834 C1835 1.387 . S
C1834 H1838 0.950 . S
C1834 C1843 1.390 . S
C1835 C1834 1.387 . S
C1835 C1837 1.387 . S
H1836 C1843 0.950 . S
C1837 C1835 1.387 . S
C1837 C1839 1.390 . S
C1837 H1841 0.964 . S
H1838 C1834 0.950 . S
C1839 C1837 1.390 . S
C1839 C1840 1.387 . S
C1839 H1842 0.950 . S
C1840 C1839 1.387 . S
C1840 C1843 1.387 . S
H1841 C1837 0.964 . S
H1842 C1839 0.950 . S
C1843 C1834 1.390 . S
C1843 H1836 0.950 . S
C1843 C1840 1.387 . S
C1844 C1845 1.387 . S
C1844 H1848 0.950 . S
C1844 C1853 1.390 . S
C1845 C1844 1.387 . S
C1845 C1847 1.387 . S
H1846 C1853 0.950 . S
C1847 C1845 1.387 . S
C1847 C1849 1.390 . S
C1847 H1851 0.950 . S
H1848 C1844 0.950 . S
C1849 C1847 1.390 . S
C1849 C1850 1.387 . S
C1849 H1852 0.950 . S
C1850 C1849 1.387 . S
C1850 C1853 1.387 . S
H1851 C1847 0.950 . S
H1852 C1849 0.950 . S
C1853 C1844 1.390 . S
C1853 H1846 0.950 . S
C1853 C1850 1.387 . S
C1854 C1855 1.387 . S
C1854 H1858 0.950 . S
C1854 C1863 1.390 . S
C1855 C1854 1.387 . S
C1855 C1857 1.387 . S
H1856 C1863 0.950 . S
C1857 C1855 1.387 . S
C1857 C1859 1.390 . S
C1857 H1861 0.950 . S
H1858 C1854 0.950 . S
C1859 C1857 1.390 . S
C1859 C1860 1.387 . S
C1859 H1862 0.950 . S
C1860 C1859 1.387 . S
C1860 C1863 1.387 . S
H1861 C1857 0.950 . S
H1862 C1859 0.950 . S
C1863 C1854 1.390 . S
C1863 H1856 0.950 . S
C1863 C1860 1.387 . S
C1864 C1865 1.387 . S
C1864 H1868 0.950 . S
C1864 C1873 1.390 . S
C1865 C1864 1.387 . S
C1865 C1867 1.387 . S
H1866 C1873 0.950 . S
C1867 C1865 1.387 . S
C1867 C1869 1.390 . S
C1867 H1871 0.950 . S
H1868 C1864 0.950 . S
C1869 C1867 1.390 . S
C1869 C1870 1.387 . S
C1869 H1872 0.950 . S
C1870 C1869 1.387 . S
C1870 C1873 1.387 . S
H1871 C1867 0.950 . S
H1872 C1869 0.950 . S
C1873 C1864 1.390 . S
C1873 H1866 0.950 . S
C1873 C1870 1.387 . S
C1874 C1875 1.387 . S
C1874 H1878 0.950 . S
C1874 C1883 1.390 . S
C1875 C1874 1.387 . S
C1875 C1877 1.387 . S
H1876 C1883 0.950 . S
C1877 C1875 1.387 . S
C1877 C1879 1.390 . S
C1877 H1881 0.950 . S
H1878 C1874 0.950 . S
C1879 C1877 1.390 . S
C1879 C1880 1.387 . S
C1879 H1882 0.950 . S
C1880 C1879 1.387 . S
C1880 C1883 1.387 . S
H1881 C1877 0.950 . S
H1882 C1879 0.950 . S
C1883 C1874 1.390 . S
C1883 H1876 0.950 . S
C1883 C1880 1.387 . S
C1884 C1885 1.387 . S
C1884 H1888 0.950 . S
C1884 C1893 1.390 . S
C1885 C1884 1.387 . S
C1885 C1887 1.387 . S
H1886 C1893 0.950 . S
C1887 C1885 1.387 . S
C1887 C1889 1.390 . S
C1887 H1891 0.950 . S
H1888 C1884 0.950 . S
C1889 C1887 1.390 . S
C1889 C1890 1.387 . S
C1889 H1892 0.950 . S
C1890 C1889 1.387 . S
C1890 C1893 1.387 . S
H1891 C1887 0.950 . S
H1892 C1889 0.950 . S
C1893 C1884 1.390 . S
C1893 H1886 0.950 . S
C1893 C1890 1.387 . S
C1894 C1895 1.387 . S
C1894 H1898 0.950 . S
C1894 C1903 1.390 . S
C1895 C1894 1.387 . S
C1895 C1897 1.387 . S
H1896 C1903 0.950 . S
C1897 C1895 1.387 . S
C1897 C1899 1.390 . S
C1897 H1901 0.950 . S
H1898 C1894 0.950 . S
C1899 C1897 1.390 . S
C1899 C1900 1.387 . S
C1899 H1902 0.950 . S
C1900 C1899 1.387 . S
C1900 C1903 1.387 . S
H1901 C1897 0.950 . S
H1902 C1899 0.950 . S
C1903 C1894 1.390 . S
C1903 H1896 0.950 . S
C1903 C1900 1.387 . S
C1904 C1905 1.387 . S
C1904 H1908 0.950 . S
C1904 C1913 1.390 . S
C1905 C1904 1.387 . S
C1905 C1907 1.387 . S
H1906 C1913 0.950 . S
C1907 C1905 1.387 . S
C1907 C1909 1.390 . S
C1907 H1911 0.950 . S
H1908 C1904 0.950 . S
C1909 C1907 1.390 . S
C1909 C1910 1.387 . S
C1909 H1912 0.950 . S
C1910 C1909 1.387 . S
C1910 C1913 1.387 . S
H1911 C1907 0.950 . S
H1912 C1909 0.950 . S
C1913 C1904 1.390 . S
C1913 H1906 0.950 . S
C1913 C1910 1.387 . S
C1914 C1915 1.387 . S
C1914 H1918 0.950 . S
C1914 C1923 1.390 . S
C1915 C1914 1.387 . S
C1915 C1917 1.387 . S
H1916 C1923 0.950 . S
C1917 C1915 1.387 . S
C1917 C1919 1.390 . S
C1917 H1921 0.950 . S
H1918 C1914 0.950 . S
C1919 C1917 1.390 . S
C1919 C1920 1.387 . S
C1919 H1922 0.950 . S
C1920 C1919 1.387 . S
C1920 C1923 1.387 . S
H1921 C1917 0.950 . S
H1922 C1919 0.950 . S
C1923 C1914 1.390 . S
C1923 H1916 0.950 . S
C1923 C1920 1.387 . S
C1924 C1925 1.387 . S
C1924 H1928 0.950 . S
C1924 C1933 1.390 . S
C1925 C1924 1.387 . S
C1925 C1927 1.387 . S
H1926 C1933 0.950 . S
C1927 C1925 1.387 . S
C1927 C1929 1.390 . S
C1927 H1931 0.950 . S
H1928 C1924 0.950 . S
C1929 C1927 1.390 . S
C1929 C1930 1.387 . S
C1929 H1932 0.950 . S
C1930 C1929 1.387 . S
C1930 C1933 1.387 . S
H1931 C1927 0.950 . S
H1932 C1929 0.950 . S
C1933 C1924 1.390 . S
C1933 H1926 0.950 . S
C1933 C1930 1.387 . S
C1934 C1935 1.387 . S
C1934 H1938 0.950 . S
C1934 C1943 1.390 . S
C1935 C1934 1.387 . S
C1935 C1937 1.387 . S
H1936 C1943 0.950 . S
C1937 C1935 1.387 . S
C1937 C1939 1.390 . S
C1937 H1941 0.950 . S
H1938 C1934 0.950 . S
C1939 C1937 1.390 . S
C1939 C1940 1.387 . S
C1939 H1942 0.950 . S
C1940 C1939 1.387 . S
C1940 C1943 1.387 . S
H1941 C1937 0.950 . S
H1942 C1939 0.950 . S
C1943 C1934 1.390 . S
C1943 H1936 0.950 . S
C1943 C1940 1.387 . S
C1944 C1945 1.387 . S
C1944 H1948 0.950 . S
C1944 C1953 1.390 . S
C1945 C1944 1.387 . S
C1945 C1947 1.387 . S
H1946 C1953 0.950 . S
C1947 C1945 1.387 . S
C1947 C1949 1.390 . S
C1947 H1951 0.950 . S
H1948 C1944 0.950 . S
C1949 C1947 1.390 . S
C1949 C1950 1.387 . S
C1949 H1952 0.950 . S
C1950 C1949 1.387 . S
C1950 C1953 1.387 . S
H1951 C1947 0.950 . S
H1952 C1949 0.950 . S
C1953 C1944 1.390 . S
C1953 H1946 0.950 . S
C1953 C1950 1.387 . S
C1954 C1955 1.387 . S
C1954 H1958 0.950 . S
C1954 C1963 1.390 . S
C1955 C1954 1.387 . S
C1955 C1957 1.387 . S
H1956 C1963 0.950 . S
C1957 C1955 1.387 . S
C1957 C1959 1.390 . S
C1957 H1961 0.950 . S
H1958 C1954 0.950 . S
C1959 C1957 1.390 . S
C1959 C1960 1.387 . S
C1959 H1962 0.950 . S
C1960 C1959 1.387 . S
C1960 C1963 1.387 . S
H1961 C1957 0.950 . S
H1962 C1959 0.950 . S
C1963 C1954 1.390 . S
C1963 H1956 0.950 . S
C1963 C1960 1.387 . S
C1964 C1965 1.387 . S
C1964 H1968 0.950 . S
C1964 C1973 1.390 . S
C1965 C1964 1.387 . S
C1965 C1967 1.387 . S
H1966 C1973 0.950 . S
C1967 C1965 1.387 . S
C1967 C1969 1.390 . S
C1967 H1971 0.950 . S
H1968 C1964 0.950 . S
C1969 C1967 1.390 . S
C1969 C1970 1.387 . S
C1969 H1972 0.950 . S
C1970 C1969 1.387 . S
C1970 C1973 1.387 . S
H1971 C1967 0.950 . S
H1972 C1969 0.950 . S
C1973 C1964 1.390 . S
C1973 H1966 0.950 . S
C1973 C1970 1.387 . S
C1974 C1975 1.387 . S
C1974 H1978 0.950 . S
C1974 C1983 1.390 . S
C1975 C1974 1.387 . S
C1975 C1977 1.387 . S
H1976 C1983 0.950 . S
C1977 C1975 1.387 . S
C1977 C1979 1.390 . S
C1977 H1981 0.950 . S
H1978 C1974 0.950 . S
C1979 C1977 1.390 . S
C1979 C1980 1.387 . S
C1979 H1982 0.950 . S
C1980 C1979 1.387 . S
C1980 C1983 1.387 . S
H1981 C1977 0.950 . S
H1982 C1979 0.950 . S
C1983 C1974 1.390 . S
C1983 H1976 0.950 . S
C1983 C1980 1.387 . S
C1984 C1985 1.387 . S
C1984 H1988 0.950 . S
C1984 C1993 1.390 . S
C1985 C1984 1.387 . S
C1985 C1987 1.387 . S
H1986 C1993 0.950 . S
C1987 C1985 1.387 . S
C1987 C1989 1.390 . S
C1987 H1991 0.950 . S
H1988 C1984 0.950 . S
C1989 C1987 1.390 . S
C1989 C1990 1.387 . S
C1989 H1992 0.950 . S
C1990 C1989 1.387 . S
C1990 C1993 1.387 . S
H1991 C1987 0.950 . S
H1992 C1989 0.950 . S
C1993 C1984 1.390 . S
C1993 H1986 0.950 . S
C1993 C1990 1.387 . S
C1994 C1995 1.387 . S
C1994 H1998 0.950 . S
C1994 C2003 1.390 . S
C1995 C1994 1.387 . S
C1995 C1997 1.387 . S
H1996 C2003 0.950 . S
C1997 C1995 1.387 . S
C1997 C1999 1.390 . S
C1997 H2001 0.950 . S
H1998 C1994 0.950 . S
C1999 C1997 1.390 . S
C1999 C2000 1.387 . S
C1999 H2002 0.950 . S
C2000 C1999 1.387 . S
C2000 C2003 1.387 . S
H2001 C1997 0.950 . S
H2002 C1999 0.950 . S
C2003 C1994 1.390 . S
C2003 H1996 0.950 . S
C2003 C2000 1.387 . S
C2004 C2005 1.387 . S
C2004 H2008 0.950 1_565 S
C2004 C2013 1.390 . S
C2005 C2004 1.387 . S
C2005 C2007 1.387 . S
H2006 C2013 0.950 . S
C2007 C2005 1.387 . S
C2007 C2009 1.390 . S
C2007 H2011 0.950 . S
H2008 C2004 0.950 1_545 S
C2009 C2007 1.390 . S
C2009 C2010 1.387 . S
C2009 H2012 0.950 . S
C2010 C2009 1.387 . S
C2010 C2013 1.387 . S
H2011 C2007 0.950 . S
H2012 C2009 0.950 . S
C2013 C2004 1.390 . S
C2013 H2006 0.950 . S
C2013 C2010 1.387 . S
C2014 C2015 1.387 . S
C2014 H2018 0.950 . S
C2014 C2023 1.390 . S
C2015 C2014 1.387 . S
C2015 C2017 1.387 . S
H2016 C2023 0.950 . S
C2017 C2015 1.387 . S
C2017 C2019 1.390 . S
C2017 H2021 0.950 . S
H2018 C2014 0.950 . S
C2019 C2017 1.390 . S
C2019 C2020 1.387 . S
C2019 H2022 0.950 . S
C2020 C2019 1.387 . S
C2020 C2023 1.387 . S
H2021 C2017 0.950 . S
H2022 C2019 0.950 . S
C2023 C2014 1.390 . S
C2023 H2016 0.950 . S
C2023 C2020 1.387 . S
C2024 C2025 1.387 . S
C2024 H2028 0.950 1_545 S
C2024 C2033 1.390 . S
C2025 C2024 1.387 . S
C2025 C2027 1.387 . S
H2026 C2033 0.950 . S
C2027 C2025 1.387 . S
C2027 C2029 1.390 . S
C2027 H2031 0.950 . S
H2028 C2024 0.950 1_565 S
C2029 C2027 1.390 . S
C2029 C2030 1.387 . S
C2029 H2032 0.950 . S
C2030 C2029 1.387 . S
C2030 C2033 1.387 . S
H2031 C2027 0.950 . S
H2032 C2029 0.950 . S
C2033 C2024 1.390 . S
C2033 H2026 0.950 . S
C2033 C2030 1.387 . S
C2034 C2035 1.387 . S
C2034 H2038 0.950 . S
C2034 C2043 1.390 . S
C2035 C2034 1.387 . S
C2035 C2037 1.387 . S
H2036 C2043 0.950 . S
C2037 C2035 1.387 . S
C2037 C2039 1.390 . S
C2037 H2041 0.950 . S
H2038 C2034 0.950 . S
C2039 C2037 1.390 . S
C2039 C2040 1.387 . S
C2039 H2042 0.950 . S
C2040 C2039 1.387 . S
C2040 C2043 1.387 . S
H2041 C2037 0.950 . S
H2042 C2039 0.950 . S
C2043 C2034 1.390 . S
C2043 H2036 0.950 . S
C2043 C2040 1.387 . S
C2044 C2045 1.387 . S
C2044 H2048 0.950 . S
C2044 C2053 1.390 . S
C2045 C2044 1.387 . S
C2045 C2047 1.387 . S
H2046 C2053 0.950 . S
C2047 C2045 1.387 . S
C2047 C2049 1.390 . S
C2047 H2051 0.950 . S
H2048 C2044 0.950 . S
C2049 C2047 1.390 . S
C2049 C2050 1.387 . S
C2049 H2052 0.950 . S
C2050 C2049 1.387 . S
C2050 C2053 1.387 . S
H2051 C2047 0.950 . S
H2052 C2049 0.950 . S
C2053 C2044 1.390 . S
C2053 H2046 0.950 . S
C2053 C2050 1.387 . S
C2054 C2055 1.387 . S
C2054 H2058 0.950 . S
C2054 C2063 1.390 . S
C2055 C2054 1.387 . S
C2055 C2057 1.387 . S
H2056 C2063 0.950 . S
C2057 C2055 1.387 . S
C2057 C2059 1.390 . S
C2057 H2061 0.950 . S
H2058 C2054 0.950 . S
C2059 C2057 1.390 . S
C2059 C2060 1.387 . S
C2059 H2062 0.950 . S
C2060 C2059 1.387 . S
C2060 C2063 1.387 . S
H2061 C2057 0.950 . S
H2062 C2059 0.950 . S
C2063 C2054 1.390 . S
C2063 H2056 0.950 . S
C2063 C2060 1.387 . S
C2064 C2065 1.387 . S
C2064 H2068 0.950 . S
C2064 C2073 1.390 . S
C2065 C2064 1.387 . S
C2065 C2067 1.387 . S
H2066 C2073 0.950 . S
C2067 C2065 1.387 . S
C2067 C2069 1.390 . S
C2067 H2071 0.950 . S
H2068 C2064 0.950 . S
C2069 C2067 1.390 . S
C2069 C2070 1.387 . S
C2069 H2072 0.950 . S
C2070 C2069 1.387 . S
C2070 C2073 1.387 . S
H2071 C2067 0.950 . S
H2072 C2069 0.950 . S
C2073 C2064 1.390 . S
C2073 H2066 0.950 . S
C2073 C2070 1.387 . S
C2074 C2075 1.387 . S
C2074 H2078 0.950 . S
C2074 C2083 1.390 . S
C2075 C2074 1.387 . S
C2075 C2077 1.387 . S
H2076 C2083 0.950 . S
C2077 C2075 1.387 . S
C2077 C2079 1.390 . S
C2077 H2081 0.950 . S
H2078 C2074 0.950 . S
C2079 C2077 1.390 . S
C2079 C2080 1.387 . S
C2079 H2082 0.950 . S
C2080 C2079 1.387 . S
C2080 C2083 1.387 . S
H2081 C2077 0.950 . S
H2082 C2079 0.950 . S
C2083 C2074 1.390 . S
C2083 H2076 0.950 . S
C2083 C2080 1.387 . S
C2084 C2085 1.387 . S
C2084 H2088 0.950 . S
C2084 C2093 1.390 . S
C2085 C2084 1.387 . S
C2085 C2087 1.387 . S
H2086 C2093 0.950 . S
C2087 C2085 1.387 . S
C2087 C2089 1.390 . S
C2087 H2091 0.950 . S
H2088 C2084 0.950 . S
C2089 C2087 1.390 . S
C2089 C2090 1.387 . S
C2089 H2092 0.950 . S
C2090 C2089 1.387 . S
C2090 C2093 1.387 . S
H2091 C2087 0.950 . S
H2092 C2089 0.950 . S
C2093 C2084 1.390 . S
C2093 H2086 0.950 . S
C2093 C2090 1.387 . S
C2094 C2095 1.387 . S
C2094 H2098 0.950 . S
C2094 C2103 1.390 1_545 S
C2095 C2094 1.387 . S
C2095 C2097 1.387 1_545 S
H2096 C2103 0.950 . S
C2097 C2095 1.387 1_565 S
C2097 C2099 1.390 . S
C2097 H2101 0.950 1_565 S
H2098 C2094 0.950 . S
C2099 C2097 1.390 . S
C2099 C2100 1.387 . S
C2099 H2102 0.950 . S
C2100 C2099 1.387 . S
C2100 C2103 1.387 . S
H2101 C2097 0.950 1_545 S
H2102 C2099 0.950 . S
C2103 C2094 1.390 1_565 S
C2103 H2096 0.950 . S
C2103 C2100 1.387 . S
C2104 C2105 1.387 . S
C2104 H2108 0.950 . S
C2104 C2113 1.390 . S
C2105 C2104 1.387 . S
C2105 C2107 1.387 . S
H2106 C2113 0.950 . S
C2107 C2105 1.387 . S
C2107 C2109 1.390 . S
C2107 H2111 0.950 . S
H2108 C2104 0.950 . S
C2109 C2107 1.390 . S
C2109 C2110 1.387 . S
C2109 H2112 0.950 . S
C2110 C2109 1.387 . S
C2110 C2113 1.387 . S
H2111 C2107 0.950 . S
H2112 C2109 0.950 . S
C2113 C2104 1.390 . S
C2113 H2106 0.950 . S
C2113 C2110 1.387 . S
C2114 C2115 1.387 . S
C2114 H2118 0.950 . S
C2114 C2123 1.390 . S
C2115 C2114 1.387 . S
C2115 C2117 1.387 . S
H2116 C2123 0.950 . S
C2117 C2115 1.387 . S
C2117 C2119 1.390 . S
C2117 H2121 0.950 . S
H2118 C2114 0.950 . S
C2119 C2117 1.390 . S
C2119 C2120 1.387 . S
C2119 H2122 0.950 . S
C2120 C2119 1.387 . S
C2120 C2123 1.387 . S
H2121 C2117 0.950 . S
H2122 C2119 0.950 . S
C2123 C2114 1.390 . S
C2123 H2116 0.950 . S
C2123 C2120 1.387 . S
C2124 C2125 1.387 . S
C2124 H2128 0.950 . S
C2124 C2133 1.390 . S
C2125 C2124 1.387 . S
C2125 C2127 1.387 . S
H2126 C2133 0.950 . S
C2127 C2125 1.387 . S
C2127 C2129 1.390 . S
C2127 H2131 0.950 . S
H2128 C2124 0.950 . S
C2129 C2127 1.390 . S
C2129 C2130 1.387 . S
C2129 H2132 0.950 . S
C2130 C2129 1.387 . S
C2130 C2133 1.387 . S
H2131 C2127 0.950 . S
H2132 C2129 0.950 . S
C2133 C2124 1.390 . S
C2133 H2126 0.950 . S
C2133 C2130 1.387 . S
C2134 C2135 1.387 . S
C2134 H2138 0.950 . S
C2134 C2143 1.390 . S
C2135 C2134 1.387 . S
C2135 C2137 1.387 . S
H2136 C2143 0.950 . S
C2137 C2135 1.387 . S
C2137 C2139 1.390 1_565 S
C2137 H2141 0.950 . S
H2138 C2134 0.950 . S
C2139 C2137 1.390 1_545 S
C2139 C2140 1.387 . S
C2139 H2142 0.950 . S
C2140 C2139 1.387 . S
C2140 C2143 1.387 1_545 S
H2141 C2137 0.950 . S
H2142 C2139 0.950 . S
C2143 C2134 1.390 . S
C2143 H2136 0.950 . S
C2143 C2140 1.387 1_565 S
C2144 C2145 1.387 . S
C2144 H2148 0.950 . S
C2144 C2153 1.390 . S
C2145 C2144 1.387 . S
C2145 C2147 1.387 . S
H2146 C2153 0.950 . S
C2147 C2145 1.387 . S
C2147 C2149 1.390 . S
C2147 H2151 0.950 . S
H2148 C2144 0.950 . S
C2149 C2147 1.390 . S
C2149 C2150 1.387 . S
C2149 H2152 0.950 . S
C2150 C2149 1.387 . S
C2150 C2153 1.387 . S
H2151 C2147 0.950 . S
H2152 C2149 0.950 . S
C2153 C2144 1.390 . S
C2153 H2146 0.950 . S
C2153 C2150 1.387 . S
C2154 C2155 1.387 . S
C2154 H2158 0.950 . S
C2154 C2163 1.390 . S
C2155 C2154 1.387 . S
C2155 C2157 1.387 . S
H2156 C2163 0.950 . S
C2157 C2155 1.387 . S
C2157 C2159 1.390 . S
C2157 H2161 0.950 . S
H2158 C2154 0.950 . S
C2159 C2157 1.390 . S
C2159 C2160 1.387 . S
C2159 H2162 0.950 . S
C2160 C2159 1.387 . S
C2160 C2163 1.387 . S
H2161 C2157 0.950 . S
H2162 C2159 0.950 . S
C2163 C2154 1.390 . S
C2163 H2156 0.950 . S
C2163 C2160 1.387 . S
C2164 C2165 1.387 . S
C2164 H2168 0.950 . S
C2164 C2173 1.390 . S
C2165 C2164 1.387 . S
C2165 C2167 1.387 . S
H2166 C2173 0.950 . S
C2167 C2165 1.387 . S
C2167 C2169 1.390 . S
C2167 H2171 0.950 . S
H2168 C2164 0.950 . S
C2169 C2167 1.390 . S
C2169 C2170 1.387 . S
C2169 H2172 0.950 . S
C2170 C2169 1.387 . S
C2170 C2173 1.387 . S
H2171 C2167 0.950 . S
H2172 C2169 0.950 . S
C2173 C2164 1.390 . S
C2173 H2166 0.950 . S
C2173 C2170 1.387 . S
C2174 C2175 1.387 . S
C2174 H2178 0.950 . S
C2174 C2183 1.390 . S
C2175 C2174 1.387 . S
C2175 C2177 1.387 . S
H2176 C2183 0.950 . S
C2177 C2175 1.387 . S
C2177 C2179 1.390 . S
C2177 H2181 0.950 . S
H2178 C2174 0.950 . S
C2179 C2177 1.390 . S
C2179 C2180 1.387 . S
C2179 H2182 0.950 . S
C2180 C2179 1.387 . S
C2180 C2183 1.387 . S
H2181 C2177 0.950 . S
H2182 C2179 0.950 . S
C2183 C2174 1.390 . S
C2183 H2176 0.950 . S
C2183 C2180 1.387 . S
C2184 C2185 1.387 . S
C2184 H2188 0.950 . S
C2184 C2193 1.390 . S
C2185 C2184 1.387 . S
C2185 C2187 1.387 . S
H2186 C2193 0.950 . S
C2187 C2185 1.387 . S
C2187 C2189 1.390 . S
C2187 H2191 0.950 . S
H2188 C2184 0.950 . S
C2189 C2187 1.390 . S
C2189 C2190 1.387 . S
C2189 H2192 0.950 . S
C2190 C2189 1.387 . S
C2190 C2193 1.387 . S
H2191 C2187 0.950 . S
H2192 C2189 0.950 . S
C2193 C2184 1.390 . S
C2193 H2186 0.950 . S
C2193 C2190 1.387 . S
C2194 C2195 1.387 1_455 S
C2194 H2198 0.950 1_455 S
C2194 C2203 1.390 . S
C2195 C2194 1.387 1_655 S
C2195 C2197 1.387 . S
H2196 C2203 0.950 . S
C2197 C2195 1.387 . S
C2197 C2199 1.390 1_655 S
C2197 H2201 0.950 . S
H2198 C2194 0.950 1_655 S
C2199 C2197 1.390 1_455 S
C2199 C2200 1.387 . S
C2199 H2202 0.950 . S
C2200 C2199 1.387 . S
C2200 C2203 1.387 . S
H2201 C2197 0.950 . S
H2202 C2199 0.950 . S
C2203 C2194 1.390 . S
C2203 H2196 0.950 . S
C2203 C2200 1.387 . S
C2204 C2205 1.387 . S
C2204 H2208 0.950 . S
C2204 C2213 1.390 . S
C2205 C2204 1.387 . S
C2205 C2207 1.387 . S
H2206 C2213 0.950 . S
C2207 C2205 1.387 . S
C2207 C2209 1.390 . S
C2207 H2211 0.950 . S
H2208 C2204 0.950 . S
C2209 C2207 1.390 . S
C2209 C2210 1.387 . S
C2209 H2212 0.950 . S
C2210 C2209 1.387 . S
C2210 C2213 1.387 . S
H2211 C2207 0.950 . S
H2212 C2209 0.950 . S
C2213 C2204 1.390 . S
C2213 H2206 0.950 . S
C2213 C2210 1.387 . S
C2214 C2215 1.387 . S
C2214 H2218 0.950 . S
C2214 C2223 1.390 1_655 S
C2215 C2214 1.387 . S
C2215 C2217 1.387 . S
H2216 C2223 0.950 . S
C2217 C2215 1.387 . S
C2217 C2219 1.390 . S
C2217 H2221 0.950 . S
H2218 C2214 0.950 . S
C2219 C2217 1.390 . S
C2219 C2220 1.387 1_655 S
C2219 H2222 0.950 1_655 S
C2220 C2219 1.387 1_455 S
C2220 C2223 1.387 . S
H2221 C2217 0.950 . S
H2222 C2219 0.950 1_455 S
C2223 C2214 1.390 1_455 S
C2223 H2216 0.950 . S
C2223 C2220 1.387 . S
C2224 C2225 1.387 . S
C2224 H2228 0.950 . S
C2224 C2233 1.390 . S
C2225 C2224 1.387 . S
C2225 C2227 1.387 . S
H2226 C2233 0.950 . S
C2227 C2225 1.387 . S
C2227 C2229 1.390 . S
C2227 H2231 0.950 . S
H2228 C2224 0.950 . S
C2229 C2227 1.390 . S
C2229 C2230 1.387 . S
C2229 H2232 0.950 . S
C2230 C2229 1.387 . S
C2230 C2233 1.387 . S
H2231 C2227 0.950 . S
H2232 C2229 0.950 . S
C2233 C2224 1.390 . S
C2233 H2226 0.950 . S
C2233 C2230 1.387 . S
C2234 C2235 1.387 . S
C2234 H2238 0.950 . S
C2234 C2243 1.390 . S
C2235 C2234 1.387 . S
C2235 C2237 1.387 . S
H2236 C2243 0.950 . S
C2237 C2235 1.387 . S
C2237 C2239 1.390 . S
C2237 H2241 0.950 . S
H2238 C2234 0.950 . S
C2239 C2237 1.390 . S
C2239 C2240 1.387 . S
C2239 H2242 0.950 . S
C2240 C2239 1.387 . S
C2240 C2243 1.387 . S
H2241 C2237 0.950 . S
H2242 C2239 0.950 . S
C2243 C2234 1.390 . S
C2243 H2236 0.950 . S
C2243 C2240 1.387 . S
C2244 C2245 1.387 . S
C2244 H2248 0.950 . S
C2244 C2253 1.390 1_554 S
C2245 C2244 1.387 . S
C2245 C2247 1.387 1_554 S
H2246 C2253 0.950 . S
C2247 C2245 1.387 1_556 S
C2247 C2249 1.390 . S
C2247 H2251 0.950 . S
H2248 C2244 0.950 . S
C2249 C2247 1.390 . S
C2249 C2250 1.387 . S
C2249 H2252 0.950 . S
C2250 C2249 1.387 . S
C2250 C2253 1.387 . S
H2251 C2247 0.950 . S
H2252 C2249 0.950 . S
C2253 C2244 1.390 1_556 S
C2253 H2246 0.950 . S
C2253 C2250 1.387 . S
C2254 C2255 1.387 . S
C2254 H2258 0.950 . S
C2254 C2263 1.390 . S
C2255 C2254 1.387 . S
C2255 C2257 1.387 . S
H2256 C2263 0.950 . S
C2257 C2255 1.387 . S
C2257 C2259 1.390 . S
C2257 H2261 0.950 . S
H2258 C2254 0.950 . S
C2259 C2257 1.390 . S
C2259 C2260 1.387 . S
C2259 H2262 0.950 . S
C2260 C2259 1.387 . S
C2260 C2263 1.387 . S
H2261 C2257 0.950 . S
H2262 C2259 0.950 . S
C2263 C2254 1.390 . S
C2263 H2256 0.950 . S
C2263 C2260 1.387 . S
C2264 C2265 1.387 . S
C2264 H2268 0.950 . S
C2264 C2273 1.390 . S
C2265 C2264 1.387 . S
C2265 C2267 1.387 . S
H2266 C2273 0.950 . S
C2267 C2265 1.387 . S
C2267 C2269 1.390 . S
C2267 H2271 0.950 . S
H2268 C2264 0.950 . S
C2269 C2267 1.390 . S
C2269 C2270 1.387 . S
C2269 H2272 0.950 . S
C2270 C2269 1.387 . S
C2270 C2273 1.387 . S
H2271 C2267 0.950 . S
H2272 C2269 0.950 . S
C2273 C2264 1.390 . S
C2273 H2266 0.950 . S
C2273 C2270 1.387 . S
C2274 C2275 1.387 . S
C2274 H2278 0.950 . S
C2274 C2283 1.390 . S
C2275 C2274 1.387 . S
C2275 C2277 1.387 . S
H2276 C2283 0.950 . S
C2277 C2275 1.387 . S
C2277 C2279 1.390 . S
C2277 H2281 0.950 . S
H2278 C2274 0.950 . S
C2279 C2277 1.390 . S
C2279 C2280 1.387 . S
C2279 H2282 0.950 . S
C2280 C2279 1.387 . S
C2280 C2283 1.387 . S
H2281 C2277 0.950 . S
H2282 C2279 0.950 . S
C2283 C2274 1.390 . S
C2283 H2276 0.950 . S
C2283 C2280 1.387 . S
C2284 C2285 1.387 . S
C2284 H2288 0.950 . S
C2284 C2293 1.390 . S
C2285 C2284 1.387 . S
C2285 C2287 1.387 . S
H2286 C2293 0.950 . S
C2287 C2285 1.387 . S
C2287 C2289 1.390 . S
C2287 H2291 0.950 . S
H2288 C2284 0.950 . S
C2289 C2287 1.390 . S
C2289 C2290 1.387 . S
C2289 H2292 0.950 . S
C2290 C2289 1.387 . S
C2290 C2293 1.387 . S
H2291 C2287 0.950 . S
H2292 C2289 0.950 . S
C2293 C2284 1.390 . S
C2293 H2286 0.950 . S
C2293 C2290 1.387 . S
C2294 C2295 1.387 . S
C2294 H2298 0.950 . S
C2294 C2303 1.390 . S
C2295 C2294 1.387 . S
C2295 C2297 1.387 . S
H2296 C2303 0.950 . S
C2297 C2295 1.387 . S
C2297 C2299 1.390 . S
C2297 H2301 0.950 . S
H2298 C2294 0.950 . S
C2299 C2297 1.390 . S
C2299 C2300 1.387 . S
C2299 H2302 0.950 . S
C2300 C2299 1.387 . S
C2300 C2303 1.387 . S
H2301 C2297 0.950 . S
H2302 C2299 0.950 . S
C2303 C2294 1.390 . S
C2303 H2296 0.950 . S
C2303 C2300 1.387 . S
C2304 C2305 1.387 . S
C2304 H2308 0.950 . S
C2304 C2313 1.390 . S
C2305 C2304 1.387 . S
C2305 C2307 1.387 . S
H2306 C2313 0.950 . S
C2307 C2305 1.387 . S
C2307 C2309 1.390 . S
C2307 H2311 0.950 . S
H2308 C2304 0.950 . S
C2309 C2307 1.390 . S
C2309 C2310 1.387 . S
C2309 H2312 0.950 . S
C2310 C2309 1.387 . S
C2310 C2313 1.387 . S
H2311 C2307 0.950 . S
H2312 C2309 0.950 . S
C2313 C2304 1.390 . S
C2313 H2306 0.950 . S
C2313 C2310 1.387 . S
C2314 C2315 1.387 . S
C2314 H2318 0.950 . S
C2314 C2323 1.390 1_565 S
C2315 C2314 1.387 . S
C2315 C2317 1.387 1_565 S
H2316 C2323 0.950 . S
C2317 C2315 1.387 1_545 S
C2317 C2319 1.390 . S
C2317 H2321 0.950 . S
H2318 C2314 0.950 . S
C2319 C2317 1.390 . S
C2319 C2320 1.387 . S
C2319 H2322 0.950 . S
C2320 C2319 1.387 . S
C2320 C2323 1.387 . S
H2321 C2317 0.950 . S
H2322 C2319 0.950 . S
C2323 C2314 1.390 1_545 S
C2323 H2316 0.950 . S
C2323 C2320 1.387 . S
C2324 C2325 1.387 . S
C2324 H2328 0.950 . S
C2324 C2333 1.390 . S
C2325 C2324 1.387 . S
C2325 C2327 1.387 . S
H2326 C2333 0.950 . S
C2327 C2325 1.387 . S
C2327 C2329 1.390 . S
C2327 H2331 0.950 . S
H2328 C2324 0.950 . S
C2329 C2327 1.390 . S
C2329 C2330 1.387 . S
C2329 H2332 0.950 . S
C2330 C2329 1.387 . S
C2330 C2333 1.387 . S
H2331 C2327 0.950 . S
H2332 C2329 0.950 . S
C2333 C2324 1.390 . S
C2333 H2326 0.950 . S
C2333 C2330 1.387 . S
C2334 C2335 1.387 . S
C2334 H2338 0.950 . S
C2334 C2343 1.390 . S
C2335 C2334 1.387 . S
C2335 C2337 1.387 . S
H2336 C2343 0.950 . S
C2337 C2335 1.387 . S
C2337 C2339 1.390 . S
C2337 H2341 0.950 . S
H2338 C2334 0.950 . S
C2339 C2337 1.390 . S
C2339 C2340 1.387 . S
C2339 H2342 0.950 . S
C2340 C2339 1.387 . S
C2340 C2343 1.387 . S
H2341 C2337 0.950 . S
H2342 C2339 0.950 . S
C2343 C2334 1.390 . S
C2343 H2336 0.950 . S
C2343 C2340 1.387 . S
C2344 C2345 1.387 . S
C2344 H2348 0.950 . S
C2344 C2353 1.390 . S
C2345 C2344 1.387 . S
C2345 C2347 1.387 . S
H2346 C2353 0.950 . S
C2347 C2345 1.387 . S
C2347 C2349 1.390 . S
C2347 H2351 0.950 . S
H2348 C2344 0.950 . S
C2349 C2347 1.390 . S
C2349 C2350 1.387 . S
C2349 H2352 0.950 . S
C2350 C2349 1.387 . S
C2350 C2353 1.387 . S
H2351 C2347 0.950 . S
H2352 C2349 0.950 . S
C2353 C2344 1.390 . S
C2353 H2346 0.950 . S
C2353 C2350 1.387 . S
C2354 C2355 1.387 . S
C2354 H2358 0.950 . S
C2354 C2363 1.390 1_565 S
C2355 C2354 1.387 . S
C2355 C2357 1.387 1_565 S
H2356 C2363 0.950 . S
C2357 C2355 1.387 1_545 S
C2357 C2359 1.390 . S
C2357 H2361 0.950 . S
H2358 C2354 0.950 . S
C2359 C2357 1.390 . S
C2359 C2360 1.387 . S
C2359 H2362 0.950 . S
C2360 C2359 1.387 . S
C2360 C2363 1.387 . S
H2361 C2357 0.950 . S
H2362 C2359 0.950 . S
C2363 C2354 1.390 1_545 S
C2363 H2356 0.950 . S
C2363 C2360 1.387 . S
C2364 C2365 1.387 . S
C2364 H2368 0.950 . S
C2364 C2373 1.390 . S
C2365 C2364 1.387 . S
C2365 C2367 1.387 . S
H2366 C2373 0.950 . S
C2367 C2365 1.387 . S
C2367 C2369 1.390 . S
C2367 H2371 0.950 . S
H2368 C2364 0.950 . S
C2369 C2367 1.390 . S
C2369 C2370 1.387 . S
C2369 H2372 0.950 . S
C2370 C2369 1.387 . S
C2370 C2373 1.387 . S
H2371 C2367 0.950 . S
H2372 C2369 0.950 . S
C2373 C2364 1.390 . S
C2373 H2366 0.950 . S
C2373 C2370 1.387 . S
C2374 C2375 1.387 . S
C2374 H2378 0.950 . S
C2374 C2383 1.390 . S
C2375 C2374 1.387 . S
C2375 C2377 1.387 . S
H2376 C2383 0.950 . S
C2377 C2375 1.387 . S
C2377 C2379 1.390 . S
C2377 H2381 0.950 . S
H2378 C2374 0.950 . S
C2379 C2377 1.390 . S
C2379 C2380 1.387 . S
C2379 H2382 0.950 . S
C2380 C2379 1.387 . S
C2380 C2383 1.387 . S
H2381 C2377 0.950 . S
H2382 C2379 0.950 . S
C2383 C2374 1.390 . S
C2383 H2376 0.950 . S
C2383 C2380 1.387 . S
C2384 C2385 1.387 . S
C2384 H2388 0.950 . S
C2384 C2393 1.390 . S
C2385 C2384 1.387 . S
C2385 C2387 1.387 . S
H2386 C2393 0.950 . S
C2387 C2385 1.387 . S
C2387 C2389 1.390 . S
C2387 H2391 0.950 . S
H2388 C2384 0.950 . S
C2389 C2387 1.390 . S
C2389 C2390 1.387 . S
C2389 H2392 0.950 . S
C2390 C2389 1.387 . S
C2390 C2393 1.387 . S
H2391 C2387 0.950 . S
H2392 C2389 0.950 . S
C2393 C2384 1.390 . S
C2393 H2386 0.950 . S
C2393 C2390 1.387 . S
C2394 C2395 1.387 . S
C2394 H2398 0.950 . S
C2394 C2403 1.390 1_455 S
C2395 C2394 1.387 . S
C2395 C2397 1.387 1_455 S
H2396 C2403 0.950 . S
C2397 C2395 1.387 1_655 S
C2397 C2399 1.390 . S
C2397 H2401 0.950 . S
H2398 C2394 0.950 . S
C2399 C2397 1.390 . S
C2399 C2400 1.387 . S
C2399 H2402 0.950 . S
C2400 C2399 1.387 . S
C2400 C2403 1.387 . S
H2401 C2397 0.950 . S
H2402 C2399 0.950 . S
C2403 C2394 1.390 1_655 S
C2403 H2396 0.950 . S
C2403 C2400 1.387 . S
C2404 C2405 1.387 . S
C2404 H2408 0.950 . S
C2404 C2413 1.390 . S
C2405 C2404 1.387 . S
C2405 C2407 1.387 . S
H2406 C2413 0.950 . S
C2407 C2405 1.387 . S
C2407 C2409 1.390 . S
C2407 H2411 0.950 . S
H2408 C2404 0.950 . S
C2409 C2407 1.390 . S
C2409 C2410 1.387 . S
C2409 H2412 0.950 . S
C2410 C2409 1.387 . S
C2410 C2413 1.387 . S
H2411 C2407 0.950 . S
H2412 C2409 0.950 . S
C2413 C2404 1.390 . S
C2413 H2406 0.950 . S
C2413 C2410 1.387 . S
C2414 C2415 1.387 . S
C2414 H2418 0.950 . S
C2414 C2423 1.390 . S
C2415 C2414 1.387 . S
C2415 C2417 1.387 . S
H2416 C2423 0.950 1_655 S
C2417 C2415 1.387 . S
C2417 C2419 1.358 1_455 S
C2417 H2421 0.950 . S
H2418 C2414 0.950 . S
C2419 C2417 1.358 1_655 S
C2419 C2420 1.401 . S
C2419 H2422 0.969 . S
C2420 C2419 1.401 . S
C2420 C2423 1.387 1_655 S
H2421 C2417 0.950 . S
H2422 C2419 0.969 . S
C2423 C2414 1.390 . S
C2423 H2416 0.950 1_455 S
C2423 C2420 1.387 1_455 S
C2424 C2425 1.387 . S
C2424 H2428 0.950 . S
C2424 C2433 1.390 . S
C2425 C2424 1.387 . S
C2425 C2427 1.387 . S
H2426 C2433 0.950 . S
C2427 C2425 1.387 . S
C2427 C2429 1.390 . S
C2427 H2431 0.950 . S
H2428 C2424 0.950 . S
C2429 C2427 1.390 . S
C2429 C2430 1.387 . S
C2429 H2432 0.950 . S
C2430 C2429 1.387 . S
C2430 C2433 1.387 . S
H2431 C2427 0.950 . S
H2432 C2429 0.950 . S
C2433 C2424 1.390 . S
C2433 H2426 0.950 . S
C2433 C2430 1.387 . S
C2434 C2435 1.387 . S
C2434 H2438 0.950 . S
C2434 C2443 1.390 . S
C2435 C2434 1.387 . S
C2435 C2437 1.387 . S
H2436 C2443 0.950 . S
C2437 C2435 1.387 . S
C2437 C2439 1.390 . S
C2437 H2441 0.950 . S
H2438 C2434 0.950 . S
C2439 C2437 1.390 . S
C2439 C2440 1.387 . S
C2439 H2442 0.950 . S
C2440 C2439 1.387 . S
C2440 C2443 1.387 . S
H2441 C2437 0.950 . S
H2442 C2439 0.950 . S
C2443 C2434 1.390 . S
C2443 H2436 0.950 . S
C2443 C2440 1.387 . S
C2444 C2445 1.387 . S
C2444 H2448 0.950 . S
C2444 C2453 1.390 . S
C2445 C2444 1.387 . S
C2445 C2447 1.387 . S
H2446 C2453 0.950 . S
C2447 C2445 1.387 . S
C2447 C2449 1.390 . S
C2447 H2451 0.950 . S
H2448 C2444 0.950 . S
C2449 C2447 1.390 . S
C2449 C2450 1.387 . S
C2449 H2452 0.950 . S
C2450 C2449 1.387 . S
C2450 C2453 1.387 . S
H2451 C2447 0.950 . S
H2452 C2449 0.950 . S
C2453 C2444 1.390 . S
C2453 H2446 0.950 . S
C2453 C2450 1.387 . S
C2454 C2455 1.387 . S
C2454 H2458 0.950 . S
C2454 C2463 1.390 . S
C2455 C2454 1.387 . S
C2455 C2457 1.387 . S
H2456 C2463 0.950 . S
C2457 C2455 1.387 . S
C2457 C2459 1.390 . S
C2457 H2461 0.950 . S
H2458 C2454 0.950 . S
C2459 C2457 1.390 . S
C2459 C2460 1.387 . S
C2459 H2462 0.950 . S
C2460 C2459 1.387 . S
C2460 C2463 1.387 . S
H2461 C2457 0.950 . S
H2462 C2459 0.950 . S
C2463 C2454 1.390 . S
C2463 H2456 0.950 . S
C2463 C2460 1.387 . S
C2464 C2465 1.387 . S
C2464 H2468 0.950 . S
C2464 C2473 1.390 . S
C2465 C2464 1.387 . S
C2465 C2467 1.387 . S
H2466 C2473 0.950 . S
C2467 C2465 1.387 . S
C2467 C2469 1.390 . S
C2467 H2471 0.950 . S
H2468 C2464 0.950 . S
C2469 C2467 1.390 . S
C2469 C2470 1.387 . S
C2469 H2472 0.950 . S
C2470 C2469 1.387 . S
C2470 C2473 1.387 . S
H2471 C2467 0.950 . S
H2472 C2469 0.950 . S
C2473 C2464 1.390 . S
C2473 H2466 0.950 . S
C2473 C2470 1.387 . S
C2474 C2475 1.387 . S
C2474 H2478 0.950 . S
C2474 C2483 1.390 . S
C2475 C2474 1.387 . S
C2475 C2477 1.387 . S
H2476 C2483 0.950 . S
C2477 C2475 1.387 . S
C2477 C2479 1.390 . S
C2477 H2481 0.950 . S
H2478 C2474 0.950 . S
C2479 C2477 1.390 . S
C2479 C2480 1.387 . S
C2479 H2482 0.950 . S
C2480 C2479 1.387 . S
C2480 C2483 1.387 . S
H2481 C2477 0.950 . S
H2482 C2479 0.950 . S
C2483 C2474 1.390 . S
C2483 H2476 0.950 . S
C2483 C2480 1.387 . S
C2484 C2485 1.387 . S
C2484 H2488 0.950 . S
C2484 C2493 1.390 . S
C2485 C2484 1.387 . S
C2485 C2487 1.387 . S
H2486 C2493 0.950 . S
C2487 C2485 1.387 . S
C2487 C2489 1.390 . S
C2487 H2491 0.950 . S
H2488 C2484 0.950 . S
C2489 C2487 1.390 . S
C2489 C2490 1.387 . S
C2489 H2492 0.950 . S
C2490 C2489 1.387 . S
C2490 C2493 1.387 . S
H2491 C2487 0.950 . S
H2492 C2489 0.950 . S
C2493 C2484 1.390 . S
C2493 H2486 0.950 . S
C2493 C2490 1.387 . S
C2494 C2495 1.387 . S
C2494 H2498 0.950 . S
C2494 C2503 1.390 . S
C2495 C2494 1.387 . S
C2495 C2497 1.387 . S
H2496 C2503 0.950 . S
C2497 C2495 1.387 . S
C2497 C2499 1.390 . S
C2497 H2501 0.950 . S
H2498 C2494 0.950 . S
C2499 C2497 1.390 . S
C2499 C2500 1.387 . S
C2499 H2502 0.950 . S
C2500 C2499 1.387 . S
C2500 C2503 1.387 . S
H2501 C2497 0.950 . S
H2502 C2499 0.950 . S
C2503 C2494 1.390 . S
C2503 H2496 0.950 . S
C2503 C2500 1.387 . S
C2504 C2505 1.387 . S
C2504 H2508 0.950 . S
C2504 C2513 1.390 . S
C2505 C2504 1.387 . S
C2505 C2507 1.387 . S
H2506 C2513 0.950 . S
C2507 C2505 1.387 . S
C2507 C2509 1.390 1_556 S
C2507 H2511 0.950 . S
H2508 C2504 0.950 . S
C2509 C2507 1.390 1_554 S
C2509 C2510 1.387 . S
C2509 H2512 0.950 . S
C2510 C2509 1.387 . S
C2510 C2513 1.387 1_554 S
H2511 C2507 0.950 . S
H2512 C2509 0.950 . S
C2513 C2504 1.390 . S
C2513 H2506 0.950 . S
C2513 C2510 1.387 1_556 S
C2514 C2515 1.387 . S
C2514 H2518 0.950 . S
C2514 C2523 1.390 . S
C2515 C2514 1.387 . S
C2515 C2517 1.387 . S
H2516 C2523 0.950 . S
C2517 C2515 1.387 . S
C2517 C2519 1.390 . S
C2517 H2521 0.950 . S
H2518 C2514 0.950 . S
C2519 C2517 1.390 . S
C2519 C2520 1.387 . S
C2519 H2522 0.950 . S
C2520 C2519 1.387 . S
C2520 C2523 1.387 . S
H2521 C2517 0.950 . S
H2522 C2519 0.950 . S
C2523 C2514 1.390 . S
C2523 H2516 0.950 . S
C2523 C2520 1.387 . S
C2524 C2525 1.387 . S
C2524 H2528 0.950 . S
C2524 C2533 1.390 1_554 S
C2525 C2524 1.387 . S
C2525 C2527 1.387 . S
H2526 C2533 0.950 . S
C2527 C2525 1.387 . S
C2527 C2529 1.390 . S
C2527 H2531 0.950 . S
H2528 C2524 0.950 . S
C2529 C2527 1.390 . S
C2529 C2530 1.387 1_554 S
C2529 H2532 0.950 . S
C2530 C2529 1.387 1_556 S
C2530 C2533 1.387 . S
H2531 C2527 0.950 . S
H2532 C2529 0.950 . S
C2533 C2524 1.390 1_556 S
C2533 H2526 0.950 . S
C2533 C2530 1.387 . S
C2534 C2535 1.387 1_554 S
C2534 H2538 0.950 . S
C2534 C2543 1.390 . S
C2535 C2534 1.387 1_556 S
C2535 C2537 1.387 . S
H2536 C2543 0.950 . S
C2537 C2535 1.387 . S
C2537 C2539 1.390 1_556 S
C2537 H2541 0.950 . S
H2538 C2534 0.950 . S
C2539 C2537 1.390 1_554 S
C2539 C2540 1.387 . S
C2539 H2542 0.950 . S
C2540 C2539 1.387 . S
C2540 C2543 1.387 . S
H2541 C2537 0.950 . S
H2542 C2539 0.950 . S
C2543 C2534 1.390 . S
C2543 H2536 0.950 . S
C2543 C2540 1.387 . S
C2544 C2545 1.387 . S
C2544 H2548 0.950 . S
C2544 C2553 1.390 . S
C2545 C2544 1.387 . S
C2545 C2547 1.387 . S
H2546 C2553 0.950 . S
C2547 C2545 1.387 . S
C2547 C2549 1.390 . S
C2547 H2551 0.950 . S
H2548 C2544 0.950 . S
C2549 C2547 1.390 . S
C2549 C2550 1.387 . S
C2549 H2552 0.950 . S
C2550 C2549 1.387 . S
C2550 C2553 1.387 . S
H2551 C2547 0.950 . S
H2552 C2549 0.950 . S
C2553 C2544 1.390 . S
C2553 H2546 0.950 . S
C2553 C2550 1.387 . S
C2554 C2555 1.387 . S
C2554 H2558 0.950 . S
C2554 C2563 1.390 . S
C2555 C2554 1.387 . S
C2555 C2557 1.387 . S
H2556 C2563 0.950 . S
C2557 C2555 1.387 . S
C2557 C2559 1.390 . S
C2557 H2561 0.950 . S
H2558 C2554 0.950 . S
C2559 C2557 1.390 . S
C2559 C2560 1.387 . S
C2559 H2562 0.950 . S
C2560 C2559 1.387 . S
C2560 C2563 1.387 . S
H2561 C2557 0.950 . S
H2562 C2559 0.950 . S
C2563 C2554 1.390 . S
C2563 H2556 0.950 . S
C2563 C2560 1.387 . S
C2564 C2565 1.387 . S
C2564 H2568 0.950 . S
C2564 C2573 1.390 . S
C2565 C2564 1.387 . S
C2565 C2567 1.387 . S
H2566 C2573 0.950 . S
C2567 C2565 1.387 . S
C2567 C2569 1.390 . S
C2567 H2571 0.950 . S
H2568 C2564 0.950 . S
C2569 C2567 1.390 . S
C2569 C2570 1.387 . S
C2569 H2572 0.950 . S
C2570 C2569 1.387 . S
C2570 C2573 1.387 . S
H2571 C2567 0.950 . S
H2572 C2569 0.950 . S
C2573 C2564 1.390 . S
C2573 H2566 0.950 . S
C2573 C2570 1.387 . S
C2574 C2575 1.387 . S
C2574 H2578 0.950 . S
C2574 C2583 1.390 1_545 S
C2575 C2574 1.387 . S
C2575 C2577 1.387 . S
H2576 C2583 0.950 . S
C2577 C2575 1.387 . S
C2577 C2579 1.390 1_545 S
C2577 H2581 0.950 . S
H2578 C2574 0.950 . S
C2579 C2577 1.390 1_565 S
C2579 C2580 1.387 . S
C2579 H2582 0.950 . S
C2580 C2579 1.387 . S
C2580 C2583 1.387 . S
H2581 C2577 0.950 . S
H2582 C2579 0.950 . S
C2583 C2574 1.390 1_565 S
C2583 H2576 0.950 . S
C2583 C2580 1.387 . S
C2584 C2585 1.387 . S
C2584 H2588 0.950 . S
C2584 C2593 1.390 1_554 S
C2585 C2584 1.387 . S
C2585 C2587 1.387 . S
H2586 C2593 0.950 . S
C2587 C2585 1.387 . S
C2587 C2589 1.390 1_554 S
C2587 H2591 0.950 . S
H2588 C2584 0.950 . S
C2589 C2587 1.390 1_556 S
C2589 C2590 1.387 . S
C2589 H2592 0.950 . S
C2590 C2589 1.387 . S
C2590 C2593 1.387 . S
H2591 C2587 0.950 . S
H2592 C2589 0.950 . S
C2593 C2584 1.390 1_556 S
C2593 H2586 0.950 . S
C2593 C2590 1.387 . S
C2594 C2595 1.387 . S
C2594 H2598 0.950 . S
C2594 C2603 1.390 . S
C2595 C2594 1.387 . S
C2595 C2597 1.387 . S
H2596 C2603 0.950 . S
C2597 C2595 1.387 . S
C2597 C2599 1.390 . S
C2597 H2601 0.950 1_455 S
H2598 C2594 0.950 . S
C2599 C2597 1.390 . S
C2599 C2600 1.387 . S
C2599 H2602 0.950 1_455 S
C2600 C2599 1.387 . S
C2600 C2603 1.387 . S
H2601 C2597 0.950 1_655 S
H2602 C2599 0.950 1_655 S
C2603 C2594 1.390 . S
C2603 H2596 0.950 . S
C2603 C2600 1.387 . S
C2604 C2605 1.387 . S
C2604 H2608 0.950 . S
C2604 C2613 1.390 1_556 S
C2605 C2604 1.387 . S
C2605 C2607 1.387 . S
H2606 C2613 0.950 . S
C2607 C2605 1.387 . S
C2607 C2609 1.390 1_556 S
C2607 H2611 0.950 . S
H2608 C2604 0.950 . S
C2609 C2607 1.390 1_554 S
C2609 C2610 1.387 . S
C2609 H2612 0.950 . S
C2610 C2609 1.387 . S
C2610 C2613 1.387 . S
H2611 C2607 0.950 . S
H2612 C2609 0.950 . S
C2613 C2604 1.390 1_554 S
C2613 H2606 0.950 . S
C2613 C2610 1.387 . S
C2614 C2615 1.387 . S
C2614 H2618 0.950 . S
C2614 C2623 1.390 1_545 S
C2615 C2614 1.387 . S
C2615 C2617 1.387 . S
H2616 C2623 0.950 . S
C2617 C2615 1.387 . S
C2617 C2619 1.390 1_545 S
C2617 H2621 0.950 1_655 S
H2618 C2614 0.950 . S
C2619 C2617 1.390 1_565 S
C2619 C2620 1.387 . S
C2619 H2622 0.950 1_655 S
C2620 C2619 1.387 . S
C2620 C2623 1.387 . S
H2621 C2617 0.950 1_455 S
H2622 C2619 0.950 1_455 S
C2623 C2614 1.390 1_565 S
C2623 H2616 0.950 . S
C2623 C2620 1.387 . S
C2624 C2625 1.387 . S
C2624 H2628 0.950 . S
C2624 C2633 1.390 . S
C2625 C2624 1.387 . S
C2625 C2627 1.387 . S
H2626 C2633 0.950 . S
C2627 C2625 1.387 . S
C2627 C2629 1.390 . S
C2627 H2631 0.950 . S
H2628 C2624 0.950 . S
C2629 C2627 1.390 . S
C2629 C2630 1.387 . S
C2629 H2632 0.950 . S
C2630 C2629 1.387 . S
C2630 C2633 1.387 . S
H2631 C2627 0.950 . S
H2632 C2629 0.950 . S
C2633 C2624 1.390 . S
C2633 H2626 0.950 . S
C2633 C2630 1.387 . S
C2634 C2635 1.387 . S
C2634 H2638 0.950 . S
C2634 C2643 1.390 . S
C2635 C2634 1.387 . S
C2635 C2637 1.387 . S
H2636 C2643 0.950 . S
C2637 C2635 1.387 . S
C2637 C2639 1.390 . S
C2637 H2641 0.950 1_554 S
H2638 C2634 0.950 . S
C2639 C2637 1.390 . S
C2639 C2640 1.387 . S
C2639 H2642 0.950 1_554 S
C2640 C2639 1.387 . S
C2640 C2643 1.387 . S
H2641 C2637 0.950 1_556 S
H2642 C2639 0.950 1_556 S
C2643 C2634 1.390 . S
C2643 H2636 0.950 . S
C2643 C2640 1.387 . S
C2644 C2645 1.387 . S
C2644 H2648 0.950 . S
C2644 C2653 1.390 . S
C2645 C2644 1.387 . S
C2645 C2647 1.387 . S
H2646 C2653 0.950 . S
C2647 C2645 1.387 . S
C2647 C2649 1.390 . S
C2647 H2651 0.950 . S
H2648 C2644 0.950 . S
C2649 C2647 1.390 . S
C2649 C2650 1.387 . S
C2649 H2652 0.950 . S
C2650 C2649 1.387 . S
C2650 C2653 1.387 . S
H2651 C2647 0.950 . S
H2652 C2649 0.950 . S
C2653 C2644 1.390 . S
C2653 H2646 0.950 . S
C2653 C2650 1.387 . S
C2654 C2655 1.387 . S
C2654 H2658 0.950 1_556 S
C2654 C2663 1.390 1_455 S
C2655 C2654 1.387 . S
C2655 C2657 1.387 . S
H2656 C2663 0.950 1_554 S
C2657 C2655 1.387 . S
C2657 C2659 1.390 1_455 S
C2657 H2661 0.950 . S
H2658 C2654 0.950 1_554 S
C2659 C2657 1.390 1_655 S
C2659 C2660 1.387 . S
C2659 H2662 0.950 . S
C2660 C2659 1.387 . S
C2660 C2663 1.387 . S
H2661 C2657 0.950 . S
H2662 C2659 0.950 . S
C2663 C2654 1.390 1_655 S
C2663 H2656 0.950 1_556 S
C2663 C2660 1.387 . S
C2664 C2665 1.387 . S
C2664 H2668 0.950 . S
C2664 C2673 1.390 . S
C2665 C2664 1.387 . S
C2665 C2667 1.387 . S
H2666 C2673 0.950 . S
C2667 C2665 1.387 . S
C2667 C2669 1.390 . S
C2667 H2671 0.950 . S
H2668 C2664 0.950 . S
C2669 C2667 1.390 . S
C2669 C2670 1.387 . S
C2669 H2672 0.950 . S
C2670 C2669 1.387 . S
C2670 C2673 1.387 . S
H2671 C2667 0.950 . S
H2672 C2669 0.950 . S
C2673 C2664 1.390 . S
C2673 H2666 0.950 . S
C2673 C2670 1.387 . S
C2674 C2675 1.387 . S
C2674 H2678 0.950 . S
C2674 C2683 1.390 1_554 S
C2675 C2674 1.387 . S
C2675 C2677 1.387 . S
H2676 C2683 0.950 . S
C2677 C2675 1.387 . S
C2677 C2679 1.390 1_554 S
C2677 H2681 0.950 . S
H2678 C2674 0.950 . S
C2679 C2677 1.390 1_556 S
C2679 C2680 1.387 . S
C2679 H2682 0.950 . S
C2680 C2679 1.387 . S
C2680 C2683 1.387 . S
H2681 C2677 0.950 . S
H2682 C2679 0.950 . S
C2683 C2674 1.390 1_556 S
C2683 H2676 0.950 . S
C2683 C2680 1.387 . S
C2684 C2685 1.387 . S
C2684 H2688 0.950 . S
C2684 C2693 1.390 1_545 S
C2685 C2684 1.387 . S
C2685 C2687 1.387 . S
H2686 C2693 0.950 . S
C2687 C2685 1.387 . S
C2687 C2689 1.390 1_545 S
C2687 H2691 0.950 . S
H2688 C2684 0.950 . S
C2689 C2687 1.390 1_565 S
C2689 C2690 1.387 . S
C2689 H2692 0.950 . S
C2690 C2689 1.387 . S
C2690 C2693 1.387 . S
H2691 C2687 0.950 . S
H2692 C2689 0.950 . S
C2693 C2684 1.390 1_565 S
C2693 H2686 0.950 . S
C2693 C2690 1.387 . S
C2694 C2695 1.387 . S
C2694 H2698 0.950 . S
C2694 C2703 1.390 . S
C2695 C2694 1.387 . S
C2695 C2697 1.387 . S
H2696 C2703 0.950 . S
C2697 C2695 1.387 . S
C2697 C2699 1.390 . S
C2697 H2701 0.950 . S
H2698 C2694 0.950 . S
C2699 C2697 1.390 . S
C2699 C2700 1.387 . S
C2699 H2702 0.950 . S
C2700 C2699 1.387 . S
C2700 C2703 1.387 . S
H2701 C2697 0.950 . S
H2702 C2699 0.950 . S
C2703 C2694 1.390 . S
C2703 H2696 0.950 . S
C2703 C2700 1.387 . S
C2704 C2705 1.387 . S
C2704 H2708 0.950 . S
C2704 C2713 1.390 . S
C2705 C2704 1.387 . S
C2705 C2707 1.387 . S
H2706 C2713 0.950 . S
C2707 C2705 1.387 . S
C2707 C2709 1.390 . S
C2707 H2711 0.950 . S
H2708 C2704 0.950 . S
C2709 C2707 1.390 . S
C2709 C2710 1.387 . S
C2709 H2712 0.950 . S
C2710 C2709 1.387 . S
C2710 C2713 1.387 . S
H2711 C2707 0.950 . S
H2712 C2709 0.950 . S
C2713 C2704 1.390 . S
C2713 H2706 0.950 . S
C2713 C2710 1.387 . S
C2714 C2715 1.387 . S
C2714 H2718 0.950 . S
C2714 C2723 1.390 . S
C2715 C2714 1.387 . S
C2715 C2717 1.387 . S
H2716 C2723 0.950 . S
C2717 C2715 1.387 . S
C2717 C2719 1.390 . S
C2717 H2721 0.950 1_545 S
H2718 C2714 0.950 . S
C2719 C2717 1.390 . S
C2719 C2720 1.387 . S
C2719 H2722 0.950 1_545 S
C2720 C2719 1.387 . S
C2720 C2723 1.387 . S
H2721 C2717 0.950 1_565 S
H2722 C2719 0.950 1_565 S
C2723 C2714 1.390 . S
C2723 H2716 0.950 . S
C2723 C2720 1.387 . S
C2724 C2725 1.387 . S
C2724 H2728 0.950 . S
C2724 C2733 1.390 1_455 S
C2725 C2724 1.387 . S
C2725 C2727 1.387 . S
H2726 C2733 0.950 . S
C2727 C2725 1.387 . S
C2727 C2729 1.390 1_455 S
C2727 H2731 0.950 . S
H2728 C2724 0.950 . S
C2729 C2727 1.390 1_655 S
C2729 C2730 1.387 . S
C2729 H2732 0.950 . S
C2730 C2729 1.387 . S
C2730 C2733 1.387 . S
H2731 C2727 0.950 . S
H2732 C2729 0.950 . S
C2733 C2724 1.390 1_655 S
C2733 H2726 0.950 . S
C2733 C2730 1.387 . S
C2734 C2735 1.387 . S
C2734 H2738 0.950 . S
C2734 C2743 1.390 1_455 S
C2735 C2734 1.387 . S
C2735 C2737 1.387 . S
H2736 C2743 0.950 . S
C2737 C2735 1.387 . S
C2737 C2739 1.390 1_455 S
C2737 H2741 0.950 . S
H2738 C2734 0.950 . S
C2739 C2737 1.390 1_655 S
C2739 C2740 1.387 . S
C2739 H2742 0.950 . S
C2740 C2739 1.387 . S
C2740 C2743 1.387 . S
H2741 C2737 0.950 . S
H2742 C2739 0.950 . S
C2743 C2734 1.390 1_655 S
C2743 H2736 0.950 . S
C2743 C2740 1.387 . S
C2744 C2745 1.387 . S
C2744 H2748 0.950 . S
C2744 C2753 1.390 1_455 S
C2745 C2744 1.387 . S
C2745 C2747 1.387 . S
H2746 C2753 0.950 . S
C2747 C2745 1.387 . S
C2747 C2749 1.390 1_455 S
C2747 H2751 0.950 . S
H2748 C2744 0.950 . S
C2749 C2747 1.390 1_655 S
C2749 C2750 1.387 . S
C2749 H2752 0.950 . S
C2750 C2749 1.387 . S
C2750 C2753 1.387 . S
H2751 C2747 0.950 . S
H2752 C2749 0.950 . S
C2753 C2744 1.390 1_655 S
C2753 H2746 0.950 . S
C2753 C2750 1.387 . S
C2754 C2755 1.387 . S
C2754 H2758 0.950 . S
C2754 C2763 1.390 . S
C2755 C2754 1.387 . S
C2755 C2757 1.387 . S
H2756 C2763 0.950 . S
C2757 C2755 1.387 . S
C2757 C2759 1.390 . S
C2757 H2761 0.950 . S
H2758 C2754 0.950 . S
C2759 C2757 1.390 . S
C2759 C2760 1.387 . S
C2759 H2762 0.950 . S
C2760 C2759 1.387 . S
C2760 C2763 1.387 . S
H2761 C2757 0.950 . S
H2762 C2759 0.950 . S
C2763 C2754 1.390 . S
C2763 H2756 0.950 . S
C2763 C2760 1.387 . S
C2764 C2765 1.387 . S
C2764 H2768 0.950 . S
C2764 C2773 1.390 1_565 S
C2765 C2764 1.387 . S
C2765 C2767 1.387 . S
H2766 C2773 0.950 . S
C2767 C2765 1.387 . S
C2767 C2769 1.390 1_565 S
C2767 H2771 0.950 . S
H2768 C2764 0.950 . S
C2769 C2767 1.390 1_545 S
C2769 C2770 1.387 . S
C2769 H2772 0.950 . S
C2770 C2769 1.387 . S
C2770 C2773 1.387 . S
H2771 C2767 0.950 . S
H2772 C2769 0.950 . S
C2773 C2764 1.390 1_545 S
C2773 H2766 0.950 . S
C2773 C2770 1.387 . S
C2774 C2775 1.387 . S
C2774 H2778 0.950 . S
C2774 C2783 1.390 1_554 S
C2775 C2774 1.387 . S
C2775 C2777 1.387 . S
H2776 C2783 0.950 . S
C2777 C2775 1.387 . S
C2777 C2779 1.390 1_554 S
C2777 H2781 0.950 1_565 S
H2778 C2774 0.950 . S
C2779 C2777 1.390 1_556 S
C2779 C2780 1.387 . S
C2779 H2782 0.950 1_565 S
C2780 C2779 1.387 . S
C2780 C2783 1.387 . S
H2781 C2777 0.950 1_545 S
H2782 C2779 0.950 1_545 S
C2783 C2774 1.390 1_556 S
C2783 H2776 0.950 . S
C2783 C2780 1.387 . S
C1585 N904 1.295 . S
C1590 C18 1.345 . S
C1595 C51 1.345 . S
C1600 N805 1.294 . S
C1605 C84 1.345 . S
C1610 N838 1.296 . S
C1615 N871 1.294 . S
C1620 C117 1.345 . S
C1625 C150 1.345 . S
C1630 N178 1.295 . S
C1635 N211 1.296 . S
C1640 C183 1.345 1_655 S
C1645 N244 1.293 . S
C1650 C216 1.345 . S
C1655 C249 1.345 1_455 S
C1660 N145 1.295 . S
C1665 C282 1.345 . S
C1670 N1399 1.296 . S
C1675 C315 1.345 1_556 S
C1680 N1432 1.293 . S
C1685 C348 1.345 . S
C1690 N673 1.293 . S
C1695 N1366 1.293 . S
C1700 C381 1.345 1_556 S
C1705 N1531 1.295 . S
C1710 C414 1.345 . S
C1715 N541 1.296 . S
C1720 C447 1.345 1_554 S
C1725 C480 1.345 . S
C1730 N1564 1.294 . S
C1735 C513 1.345 1_554 S
C1740 N1498 1.295 . S
C1745 N310 1.294 . S
C1750 C546 1.345 . S
C1755 N1300 1.294 . S
C1760 C579 1.345 . S
C1765 N1201 1.296 . S
C1770 C612 1.345 . S
C1775 N1234 1.294 . S
C1780 C645 1.345 . S
C1785 C678 1.345 . S
C1790 N475 1.295 . S
C1795 C711 1.345 . S
C1800 N1168 1.296 . S
C1805 N1069 1.293 . S
C1810 C744 1.345 . S
C1815 C777 1.345 1_565 S
C1820 N1135 1.295 . S
C1825 C810 1.345 . S
C1830 N112 1.295 . S
C1835 C843 1.345 1_455 S
C1840 N13 1.295 . S
C1845 N46 1.295 . S
C1850 C876 1.345 . S
C1855 N79 1.294 . S
C1860 C909 1.345 1_655 S
C1865 N970 1.293 . S
C1870 C942 1.345 . S
C1875 N1003 1.295 . S
C1880 C975 1.345 . S
C1885 C1008 1.345 . S
C1890 N1036 1.293 . S
C1895 C1041 1.345 . S
C1900 N937 1.295 . S
C1905 C1074 1.345 . S
C1910 N607 1.296 . S
C1915 N640 1.293 . S
C1920 C1107 1.345 . S
C1925 N1465 1.293 . S
C1930 C1140 1.345 . S
C1935 C1173 1.345 . S
C1940 N574 1.293 . S
C1945 N739 1.294 . S
C1950 C1206 1.345 . S
C1955 C1239 1.345 . S
C1960 N1333 1.296 . S
C1965 C1272 1.345 . S
C1970 N772 1.293 . S
C1975 N706 1.293 . S
C1980 C1305 1.345 . S
C1985 N1102 1.294 . S
C1990 C1338 1.345 . S
C1995 N508 1.295 . S
C2000 C1371 1.345 . S
C2005 C1404 1.345 1_565 S
C2010 N409 1.293 . S
C2015 N442 1.295 . S
C2020 C1437 1.345 . S
C2025 C1470 1.345 1_545 S
C2030 N1267 1.293 . S
C2035 C1503 1.345 . S
C2040 N376 1.294 . S
C2045 N277 1.294 . S
C2050 C1536 1.345 1_545 S
C2055 N343 1.293 . S
C2060 C1569 1.345 . S
C2065 C1393 0.848 . S
C2070 C21 0.820 . S
C2075 C1426 0.847 . S
C2080 C54 0.820 . S
C2085 C667 0.847 . S
C2090 C87 0.821 . S
C2095 C1360 0.847 . S
C2100 C120 0.820 . S
C2105 C153 0.825 . S
C2110 C1525 0.846 . S
C2115 C535 0.847 . S
C2120 C186 0.823 . S
C2125 C1558 0.846 . S
C2130 C219 0.822 . S
C2135 C252 0.823 . S
C2140 C1492 0.847 . S
C2145 C285 0.817 . S
C2150 C304 0.848 . S
C2155 C337 0.847 . S
C2160 C318 0.821 . S
C2165 C370 0.848 . S
C2170 C351 0.817 . S
C2175 C271 0.846 . S
C2180 C384 0.822 . S
C2185 C1294 0.846 . S
C2190 C417 0.825 . S
C2195 C1195 0.847 . S
C2200 C450 0.822 . S
C2205 C1228 0.846 . S
C2210 C483 0.821 . S
C2215 C516 0.820 . S
C2220 C1261 0.847 . S
C2225 C898 0.846 . S
C2230 C549 0.822 . S
C2235 C582 0.823 . S
C2240 C172 0.847 . S
C2245 C205 0.848 . S
C2250 C615 0.819 . S
C2255 C238 0.846 . S
C2260 C648 0.823 . S
C2265 C681 0.817 . S
C2270 C931 0.848 . S
C2275 C40 0.848 . S
C2280 C714 0.819 . S
C2285 C747 0.818 . S
C2290 C73 0.848 . S
C2295 C780 0.818 . S
C2300 C7 0.848 . S
C2305 C601 0.848 . S
C2310 C813 0.818 . S
C2315 C634 0.847 . S
C2320 C846 0.819 . S
C2325 C879 0.821 . S
C2330 C1459 0.847 . S
C2335 C912 0.820 . S
C2340 C568 0.847 . S
C2345 C733 0.848 . S
C2350 C945 0.819 . S
C2355 C1327 0.848 . S
C2360 C978 0.818 . S
C2365 C766 0.847 . S
C2370 C1011 0.820 . S
C2375 C1044 0.823 . S
C2380 C700 0.847 . S
C2385 C1077 0.817 . S
C2390 C1096 0.848 . S
C2395 C1129 0.848 . S
C2400 C1110 0.818 . S
C2405 C1143 0.818 . S
C2410 C1162 0.848 . S
C2415 C1176 0.822 . S
C2420 C1063 0.846 . S
C2425 C1209 0.823 . S
C2430 C502 0.846 . S
C2435 C403 0.846 . S
C2440 C1242 0.821 . S
C2445 C436 0.846 . S
C2450 C1275 0.823 . S
C2455 C469 0.846 . S
C2460 C1308 0.822 . S
C2465 C106 0.847 . S
C2470 C1341 0.819 . S
C2475 C964 0.847 . S
C2480 C1374 0.819 . S
C2485 C1407 0.819 . S
C2490 C997 0.848 . S
C2495 C1440 0.822 . S
C2500 C1030 0.846 . S
C2505 C1473 0.823 . S
C2510 C139 0.847 . S
C2515 C1506 0.822 . S
C2520 C832 0.847 . S
C2525 C1539 0.818 . S
C2530 C865 0.847 . S
C2535 C799 0.846 . S
C2540 C1572 0.823 . S
C2545 N2 1.225 . S
C2550 N992 1.225 . S
C2555 N35 1.227 . S
C2560 N1025 1.227 . S
C2565 N926 1.227 . S
C2570 N68 1.227 . S
C2575 N959 1.225 . S
C2580 N101 1.225 . S
C2585 N134 1.225 . S
C2590 N860 1.225 . S
C2595 N893 1.225 . S
C2600 N167 1.225 . S
C2605 N794 1.227 . S
C2610 N200 1.227 . S
C2615 N827 1.225 . S
C2620 N233 1.225 . S
C2625 N266 1.227 . S
C2630 N332 1.227 . S
C2635 N299 1.225 . S
C2640 N365 1.225 . S
C2645 N464 1.225 . S
C2650 N398 1.225 . S
C2655 N431 1.227 . S
C2660 N497 1.227 . S
C2665 N530 1.225 . S
C2670 N563 1.225 . S
C2675 N1553 1.227 . S
C2680 N596 1.227 . S
C2685 N1487 1.227 . S
C2690 N629 1.227 . S
C2695 N662 1.225 . S
C2700 N728 1.225 . S
C2705 N695 1.227 . S
C2710 N1421 1.227 . S
C2715 N761 1.225 . S
C2720 N1388 1.225 . S
C2725 N1124 1.227 . S
C2730 N1058 1.227 . S
C2735 N1157 1.225 . S
C2740 N1091 1.225 . S
C2745 N1256 1.227 . S
C2750 N1190 1.227 . S
C2755 N1289 1.225 . S
C2760 N1223 1.225 . S
C2765 N1322 1.227 . S
C2770 N1355 1.227 . S
C2775 N1520 1.225 . S
C2780 N1454 1.225 . S
