# Generated by pormake.
# Topology hjm, (4)-cn, num edge types: 1
# Building blocks:
#     Node 0, Type 0, BuildingBlock: ICAMEG_clean_sbu_1, # of connection points: 4
#     Node 1, Type 0, BuildingBlock: ICAMEG_clean_sbu_1, # of connection points: 4
#     Node 2, Type 0, BuildingBlock: ICAMEG_clean_sbu_1, # of connection points: 4
#     Node 3, Type 0, BuildingBlock: ICAMEG_clean_sbu_1, # of connection points: 4
#     Node 4, Type 0, BuildingBlock: ICAMEG_clean_sbu_1, # of connection points: 4
#     Node 5, Type 0, BuildingBlock: ICAMEG_clean_sbu_1, # of connection points: 4
#     Node 6, Type 0, BuildingBlock: ICAMEG_clean_sbu_1, # of connection points: 4
#     Node 7, Type 0, BuildingBlock: ICAMEG_clean_sbu_1, # of connection points: 4
#     Edge 8, Type (0, 0), BuildingBlock: EYOCIG_clean_linker_4, # of connection points: 2
#     Edge 9, Type (0, 0), BuildingBlock: EYOCIG_clean_linker_4, # of connection points: 2
#     Edge 10, Type (0, 0), BuildingBlock: EYOCIG_clean_linker_4, # of connection points: 2
#     Edge 11, Type (0, 0), BuildingBlock: EYOCIG_clean_linker_4, # of connection points: 2
#     Edge 12, Type (0, 0), BuildingBlock: EYOCIG_clean_linker_4, # of connection points: 2
#     Edge 13, Type (0, 0), BuildingBlock: EYOCIG_clean_linker_4, # of connection points: 2
#     Edge 14, Type (0, 0), BuildingBlock: EYOCIG_clean_linker_4, # of connection points: 2
#     Edge 15, Type (0, 0), BuildingBlock: EYOCIG_clean_linker_4, # of connection points: 2
#     Edge 16, Type (0, 0), BuildingBlock: EYOCIG_clean_linker_4, # of connection points: 2
#     Edge 17, Type (0, 0), BuildingBlock: EYOCIG_clean_linker_4, # of connection points: 2
#     Edge 18, Type (0, 0), BuildingBlock: EYOCIG_clean_linker_4, # of connection points: 2
#     Edge 19, Type (0, 0), BuildingBlock: EYOCIG_clean_linker_4, # of connection points: 2
#     Edge 20, Type (0, 0), BuildingBlock: EYOCIG_clean_linker_4, # of connection points: 2
#     Edge 21, Type (0, 0), BuildingBlock: EYOCIG_clean_linker_4, # of connection points: 2
#     Edge 22, Type (0, 0), BuildingBlock: EYOCIG_clean_linker_4, # of connection points: 2
#     Edge 23, Type (0, 0), BuildingBlock: EYOCIG_clean_linker_4, # of connection points: 2
# Relax obj value: 0.161
# Max RMSD: 0.207
# Mean RMSD: 0.207
data_MOF--net-hjm--node1-ICAMEG_clean_sbu_1--edge1-EYOCIG_clean_linker_4
_symmetry_space_group_name_H-M    P1
_symmetry_Int_Tables_number       1
_symmetry_cell_setting            triclinic
loop_
_symmetry_equiv_pos_as_xyz
'x, y, z'
_cell_length_a     20.519294
_cell_length_b     22.454538
_cell_length_c     19.936859
_cell_angle_alpha  90.000501
_cell_angle_beta   65.787621
_cell_angle_gamma 89.999358
loop_
_atom_site_label
_atom_site_type_symbol
_atom_site_fract_x
_atom_site_fract_y
_atom_site_fract_z
_atom_type_partial_charge
Co0 Co 0.18456 0.30016 0.29231 0.0
Co1 Co 0.214 0.15541 0.32372 0.0
O2 O 0.14718 0.22729 0.35806 0.0
C3 C 0.08152 0.35473 0.43546 0.0
O4 O 0.05476 0.30195 0.45906 0.0
C5 C 0.06646 0.09315 0.41039 0.0
O6 O 0.03015 0.14183 0.41375 0.0
O7 O 0.18869 0.15422 0.2359 0.0
O8 O 0.22721 0.24582 0.20753 0.0
H9 H 0.3927 0.04795 0.10856 0.0
H10 H 0.03478 0.24216 0.36172 0.0
O11 O 0.13691 0.36032 0.37485 0.0
H12 H 0.06396 0.42107 0.13808 0.0
H13 H 0.25176 0.50843 0.17963 0.0
H14 H 0.32436 0.30331 0.16172 0.0
H15 H 0.16404 0.36372 0.16249 0.0
H16 H 0.17957 0.4394 0.2818 0.0
O17 O 0.13488 0.09311 0.3757 0.0
H18 H 0.28691 0.10165 0.17272 0.0
H19 H 0.29837 0.06151 0.37683 0.0
H20 H 0.37722 0.36694 0.05595 0.0
H21 H 0.90179 0.26621 0.36918 0.0
H22 H 0.333 0.47048 0.06189 0.0
H23 H 0.92088 0.39646 0.2166 0.0
O24 O 0.267 0.29757 0.31803 0.0
H25 H 0.14048 0.14146 0.59648 0.0
H26 H 0.34613 0.16933 0.35966 0.0
H27 H 0.36573 0.1637 0.47164 0.0
H28 H 0.26348 0.1461 0.59068 0.0
H29 H 0.12186 0.15439 0.48367 0.0
H30 H 0.41106 0.01036 0.31058 0.0
H31 H 0.46075 0.00276 0.17465 0.0
O32 O 0.30017 0.208 0.27194 0.0
C33 C 0.20286 0.19878 0.19277 0.0
C34 C 0.37327 0.0506 0.16744 0.0
C35 C 0.38357 0.03083 0.28048 0.0
N36 N 0.28493 0.09032 0.28068 0.0
C37 C 0.31071 0.08192 0.20603 0.0
C38 C 0.32026 0.06254 0.31768 0.0
C39 C 0.41101 0.02596 0.20451 0.0
C40 C 0.03163 0.27356 0.32295 0.0
N41 N 0.10071 0.30656 0.26613 0.0
C42 C 0.94793 0.28995 0.32927 0.0
C43 C 0.96031 0.37293 0.23017 0.0
C44 C 0.04806 0.38944 0.18289 0.0
C45 C 0.11132 0.35436 0.20286 0.0
C46 C 0.25967 0.46206 0.17493 0.0
C47 C 0.30029 0.34638 0.16505 0.0
C48 C 0.22261 0.42283 0.23283 0.0
N49 N 0.23904 0.36361 0.22427 0.0
C50 C 0.33332 0.38319 0.10469 0.0
C51 C 0.30983 0.44104 0.10861 0.0
C52 C 0.31411 0.25815 0.29234 0.0
C53 C 0.18582 0.14752 0.54436 0.0
C54 C 0.29986 0.16621 0.41102 0.0
C55 C 0.312 0.16076 0.47458 0.0
C56 C 0.25461 0.15046 0.54137 0.0
N57 N 0.23254 0.15948 0.41303 0.0
C58 C 0.1757 0.15386 0.47966 0.0
Co59 Co 0.77978 0.29958 0.25066 0.0
Co60 Co 0.75031 0.15504 0.2191 0.0
O61 O 0.81718 0.2269 0.18482 0.0
C62 C 0.88249 0.35447 0.1076 0.0
O63 O 0.91026 0.30191 0.08439 0.0
C64 C 0.89783 0.09333 0.13062 0.0
O65 O 0.93391 0.14237 0.12606 0.0
O66 O 0.776 0.15331 0.30669 0.0
O67 O 0.73802 0.24503 0.33531 0.0
H68 H 0.57036 0.04859 0.434 0.0
H69 H 0.92913 0.24079 0.1825 0.0
O70 O 0.82677 0.35972 0.16795 0.0
H71 H 0.9016 0.42282 0.40224 0.0
H72 H 0.70769 0.50855 0.35608 0.0
H73 H 0.64164 0.30212 0.38501 0.0
H74 H 0.80114 0.36583 0.37865 0.0
H75 H 0.78104 0.43856 0.25755 0.0
O76 O 0.82951 0.09295 0.1664 0.0
H77 H 0.67627 0.10231 0.37015 0.0
H78 H 0.66651 0.06111 0.16549 0.0
H79 H 0.58981 0.36767 0.48907 0.0
H80 H 0.06233 0.26473 0.17445 0.0
H81 H 0.63121 0.47247 0.47785 0.0
H82 H 0.04447 0.39708 0.32428 0.0
O83 O 0.6971 0.29677 0.22542 0.0
H84 H 0.82247 0.14278 0.94645 0.0
H85 H 0.61759 0.16906 0.18422 0.0
H86 H 0.59725 0.16369 0.07261 0.0
H87 H 0.69915 0.14694 0.95305 0.0
H88 H 0.84174 0.1553 0.05892 0.0
H89 H 0.5537 0.00994 0.23137 0.0
H90 H 0.50319 0.00278 0.36738 0.0
O91 O 0.66408 0.20738 0.2718 0.0
C92 C 0.76222 0.19783 0.34988 0.0
C93 C 0.59032 0.05083 0.37505 0.0
C94 C 0.58098 0.03046 0.26166 0.0
N95 N 0.6794 0.08997 0.26192 0.0
C96 C 0.653 0.08204 0.33667 0.0
C97 C 0.6444 0.06207 0.22467 0.0
C98 C 0.55304 0.02587 0.33768 0.0
C99 C 0.9326 0.27285 0.22043 0.0
N100 N 0.86382 0.30665 0.27651 0.0
C101 C 0.01643 0.28912 0.21376 0.0
C102 C 0.00484 0.37348 0.31107 0.0
C103 C 0.91724 0.39067 0.358 0.0
C104 C 0.85366 0.35543 0.3387 0.0
C105 C 0.70205 0.46223 0.36413 0.0
C106 C 0.66527 0.34559 0.37975 0.0
C107 C 0.73966 0.42211 0.3078 0.0
N108 N 0.72511 0.36274 0.31883 0.0
C109 C 0.63252 0.3835 0.43907 0.0
C110 C 0.65425 0.44205 0.43217 0.0
C111 C 0.64985 0.25761 0.25196 0.0
C112 C 0.77729 0.14846 0.99876 0.0
C113 C 0.66366 0.16621 0.13266 0.0
C114 C 0.65112 0.16093 0.06932 0.0
C115 C 0.70831 0.15109 1.00223 0.0
N116 N 0.7312 0.15967 0.13014 0.0
C117 C 0.7878 0.15456 0.06327 0.0
Co118 Co 0.7797 0.64995 0.75052 0.0
Co119 Co 0.75003 0.79437 0.71884 0.0
O120 O 0.81704 0.72259 0.68463 0.0
C121 C 0.8825 0.59501 0.60751 0.0
O122 O 0.91017 0.64759 0.58419 0.0
C123 C 0.89746 0.85619 0.63029 0.0
O124 O 0.9336 0.8072 0.62579 0.0
O125 O 0.7757 0.79627 0.80644 0.0
O126 O 0.73781 0.70454 0.83511 0.0
H127 H 0.56962 0.90061 0.93358 0.0
H128 H 0.92906 0.70873 0.68227 0.0
O129 O 0.82681 0.58977 0.66789 0.0
H130 H 0.90133 0.52707 0.90248 0.0
H131 H 0.70809 0.44103 0.85633 0.0
H132 H 0.64147 0.64734 0.88472 0.0
H133 H 0.80093 0.58411 0.87881 0.0
H134 H 0.78128 0.51097 0.75764 0.0
O135 O 0.82914 0.85653 0.66607 0.0
H136 H 0.67533 0.84658 0.86996 0.0
H137 H 0.66652 0.88835 0.66499 0.0
H138 H 0.58977 0.58192 0.98893 0.0
H139 H 0.06225 0.68472 0.67423 0.0
H140 H 0.63149 0.47722 0.97798 0.0
H141 H 0.04422 0.5526 0.82437 0.0
O142 O 0.69708 0.65259 0.72517 0.0
H143 H 0.82218 0.80623 0.44618 0.0
H144 H 0.61731 0.78031 0.68405 0.0
H145 H 0.59694 0.78546 0.57243 0.0
H146 H 0.69885 0.80198 0.45281 0.0
H147 H 0.84146 0.79392 0.55867 0.0
H148 H 0.55383 0.93981 0.73066 0.0
H149 H 0.50301 0.94689 0.86671 0.0
O150 O 0.66389 0.74196 0.77155 0.0
C151 C 0.76198 0.75176 0.84966 0.0
C152 C 0.58976 0.89848 0.87461 0.0
C153 C 0.58091 0.91915 0.76106 0.0
N154 N 0.67902 0.85936 0.76158 0.0
C155 C 0.65236 0.86712 0.83637 0.0
C156 C 0.64426 0.8874 0.72419 0.0
C157 C 0.55279 0.92368 0.83709 0.0
C158 C 0.93249 0.67674 0.72029 0.0
N159 N 0.86368 0.64305 0.77647 0.0
C160 C 0.01632 0.66042 0.71363 0.0
C161 C 0.00462 0.57622 0.81115 0.0
C162 C 0.917 0.55915 0.85815 0.0
C163 C 0.85347 0.59439 0.83879 0.0
C164 C 0.70231 0.48736 0.86425 0.0
C165 C 0.66518 0.60392 0.87957 0.0
C166 C 0.73982 0.52742 0.80782 0.0
N167 N 0.7251 0.58678 0.81872 0.0
C168 C 0.63252 0.56608 0.93898 0.0
C169 C 0.65443 0.50758 0.93224 0.0
C170 C 0.64977 0.6917 0.75166 0.0
C171 C 0.777 0.80063 0.49851 0.0
C172 C 0.66337 0.78309 0.63247 0.0
C173 C 0.65082 0.78824 0.56911 0.0
C174 C 0.70801 0.79797 0.50199 0.0
N175 N 0.73092 0.78961 0.62991 0.0
C176 C 0.78752 0.79464 0.56302 0.0
Co177 Co 0.18446 0.64932 0.79218 0.0
Co178 Co 0.21409 0.79392 0.82381 0.0
O179 O 0.14716 0.72211 0.85804 0.0
C180 C 0.08144 0.5947 0.93528 0.0
O181 O 0.05466 0.64748 0.95887 0.0
C182 C 0.06661 0.85614 0.911 0.0
O183 O 0.03029 0.8074 0.9147 0.0
O184 O 0.18874 0.79544 0.73603 0.0
O185 O 0.22703 0.70379 0.70752 0.0
H186 H 0.39402 0.90073 0.60896 0.0
H187 H 0.03482 0.7076 0.86142 0.0
O188 O 0.13682 0.58911 0.87466 0.0
H189 H 0.06361 0.52835 0.63827 0.0
H190 H 0.25201 0.44105 0.67983 0.0
H191 H 0.32407 0.6463 0.66119 0.0
H192 H 0.16378 0.58565 0.66249 0.0
H193 H 0.1798 0.51011 0.78183 0.0
O194 O 0.13501 0.8562 0.87603 0.0
H195 H 0.28859 0.84632 0.67258 0.0
H196 H 0.29747 0.88811 0.87749 0.0
H197 H 0.37671 0.5826 0.55544 0.0
H198 H 0.90175 0.68364 0.869 0.0
H199 H 0.3327 0.47896 0.56174 0.0
H200 H 0.92058 0.55313 0.71679 0.0
O201 O 0.26691 0.65176 0.81787 0.0
H202 H 0.14099 0.80719 0.09652 0.0
H203 H 0.34639 0.78008 0.85932 0.0
H204 H 0.36624 0.78538 0.9712 0.0
H205 H 0.26409 0.80253 0.09046 0.0
H206 H 0.12215 0.79448 0.98381 0.0
H207 H 0.41006 0.93972 0.81179 0.0
H208 H 0.46066 0.94702 0.67578 0.0
O209 O 0.30018 0.7413 0.77182 0.0
C210 C 0.20269 0.75089 0.69288 0.0
C211 C 0.37403 0.89839 0.66791 0.0
C212 C 0.38302 0.91897 0.78142 0.0
N213 N 0.28511 0.8589 0.78093 0.0
C214 C 0.31162 0.8668 0.70616 0.0
C215 C 0.31978 0.88707 0.81831 0.0
C216 C 0.41101 0.92363 0.7054 0.0
C217 C 0.03159 0.67614 0.82275 0.0
N218 N 0.1006 0.64301 0.76601 0.0
C219 C 0.94785 0.65981 0.82915 0.0
C220 C 0.96006 0.57667 0.73028 0.0
C221 C 0.04777 0.56004 0.68301 0.0
C222 C 0.11111 0.59511 0.70287 0.0
C223 C 0.2597 0.48743 0.6749 0.0
C224 C 0.30001 0.60321 0.66463 0.0
C225 C 0.22265 0.5267 0.73274 0.0
N226 N 0.23892 0.58594 0.72402 0.0
C227 C 0.33295 0.56636 0.6043 0.0
C228 C 0.3096 0.50845 0.60842 0.0
C229 C 0.31409 0.69112 0.79216 0.0
C230 C 0.18628 0.80127 0.04433 0.0
C231 C 0.3002 0.78302 0.91077 0.0
C232 C 0.31246 0.78829 0.97427 0.0
C233 C 0.25514 0.79835 0.04118 0.0
N234 N 0.23278 0.78961 0.913 0.0
C235 C 0.17602 0.79505 0.9797 0.0
Co236 Co 0.68432 0.80013 0.29212 0.0
Co237 Co 0.7136 0.6556 0.32382 0.0
O238 O 0.64683 0.72748 0.35802 0.0
C239 C 0.58144 0.85494 0.43512 0.0
O240 O 0.55422 0.80225 0.45852 0.0
C241 C 0.56592 0.59385 0.41182 0.0
O242 O 0.52975 0.64282 0.41633 0.0
O243 O 0.68827 0.65391 0.23596 0.0
O244 O 0.72652 0.74555 0.20755 0.0
H245 H 0.89556 0.55028 0.10931 0.0
H246 H 0.53488 0.74154 0.36071 0.0
O247 O 0.63697 0.86039 0.37461 0.0
H248 H 0.56293 0.92216 0.13929 0.0
H249 H 0.75453 0.00854 0.1823 0.0
H250 H 0.82345 0.80263 0.15985 0.0
H251 H 0.66332 0.8651 0.16322 0.0
H252 H 0.68154 0.93927 0.28301 0.0
O253 O 0.63425 0.59358 0.37626 0.0
H254 H 0.79027 0.60522 0.17227 0.0
H255 H 0.79496 0.56039 0.37826 0.0
H256 H 0.87594 0.8669 0.05462 0.0
H257 H 0.40179 0.76538 0.3685 0.0
H258 H 0.83321 0.97111 0.06271 0.0
H259 H 0.41998 0.89677 0.2175 0.0
O260 O 0.76679 0.7975 0.31777 0.0
H261 H 0.64089 0.6426 0.59649 0.0
H262 H 0.84615 0.66867 0.3589 0.0
H263 H 0.86629 0.66277 0.47065 0.0
H264 H 0.76413 0.64615 0.59009 0.0
H265 H 0.62186 0.65576 0.48393 0.0
H266 H 0.90786 0.50877 0.31332 0.0
H267 H 0.96019 0.50243 0.17715 0.0
O268 O 0.79985 0.70801 0.27162 0.0
C269 C 0.70209 0.69852 0.19288 0.0
C270 C 0.87459 0.55192 0.16835 0.0
C271 C 0.88142 0.52983 0.28257 0.0
N272 N 0.78448 0.59061 0.28112 0.0
C273 C 0.81218 0.58365 0.20617 0.0
C274 C 0.81807 0.56169 0.31904 0.0
C275 C 0.91046 0.52582 0.20644 0.0
C276 C 0.53155 0.77329 0.3224 0.0
N277 N 0.60042 0.80679 0.26601 0.0
C278 C 0.44776 0.78952 0.32893 0.0
C279 C 0.45956 0.87325 0.23085 0.0
C280 C 0.54722 0.89023 0.18376 0.0
C281 C 0.61072 0.85513 0.20335 0.0
C282 C 0.76115 0.96214 0.17615 0.0
C283 C 0.79963 0.8459 0.1639 0.0
C284 C 0.72371 0.92262 0.23344 0.0
N285 N 0.73905 0.86327 0.22385 0.0
C286 C 0.83262 0.88308 0.1039 0.0
C287 C 0.81008 0.94131 0.10904 0.0
C288 C 0.81392 0.75813 0.29191 0.0
C289 C 0.68615 0.64828 0.54422 0.0
C290 C 0.80003 0.66591 0.41045 0.0
C291 C 0.81242 0.66034 0.47386 0.0
C292 C 0.7551 0.65057 0.54087 0.0
N293 N 0.73247 0.65993 0.4129 0.0
C294 C 0.67577 0.65477 0.47969 0.0
Co295 Co 0.2795 0.79971 0.25053 0.0
Co296 Co 0.24991 0.65496 0.21916 0.0
O297 O 0.31681 0.72684 0.18479 0.0
C298 C 0.38231 0.8544 0.10737 0.0
O299 O 0.40958 0.80172 0.08396 0.0
C300 C 0.39729 0.59272 0.13196 0.0
O301 O 0.43353 0.64146 0.12854 0.0
O302 O 0.27556 0.65367 0.3067 0.0
O303 O 0.23734 0.74535 0.33536 0.0
H304 H 0.07331 0.54621 0.43452 0.0
H305 H 0.42919 0.7415 0.18152 0.0
O306 O 0.32675 0.85982 0.16784 0.0
H307 H 0.4006 0.92186 0.40344 0.0
H308 H 0.21038 0.00852 0.35957 0.0
H309 H 0.14054 0.80271 0.38298 0.0
H310 H 0.30043 0.86452 0.37948 0.0
H311 H 0.28296 0.93888 0.25918 0.0
O312 O 0.32888 0.59259 0.16686 0.0
H313 H 0.17969 0.59878 0.36943 0.0
H314 H 0.1633 0.5623 0.16685 0.0
H315 H 0.08825 0.86736 0.48785 0.0
H316 H 0.56232 0.76567 0.17375 0.0
H317 H 0.13123 0.97153 0.47925 0.0
H318 H 0.5436 0.89687 0.32514 0.0
O319 O 0.19687 0.79696 0.22521 0.0
H320 H 0.32279 0.64182 0.94643 0.0
H321 H 0.11757 0.66978 0.18351 0.0
H322 H 0.09772 0.66467 0.0717 0.0
H323 H 0.19968 0.64701 0.95251 0.0
H324 H 0.34169 0.65411 0.05913 0.0
H325 H 0.05068 0.51159 0.23401 0.0
H326 H 0.00282 0.50307 0.36971 0.0
O327 O 0.16375 0.70747 0.27149 0.0
C328 C 0.26146 0.69812 0.34998 0.0
C329 C 0.09173 0.54952 0.37577 0.0
C330 C 0.079 0.5315 0.26364 0.0
N331 N 0.17901 0.58978 0.26226 0.0
C332 C 0.15452 0.58037 0.33664 0.0
C333 C 0.14236 0.56298 0.22594 0.0
C334 C 0.05264 0.52602 0.33946 0.0
C335 C 0.43249 0.77322 0.21991 0.0
N336 N 0.36351 0.80652 0.27643 0.0
C337 C 0.51625 0.78965 0.21341 0.0
C338 C 0.50412 0.87327 0.31174 0.0
C339 C 0.41642 0.89 0.35888 0.0
C340 C 0.35305 0.85477 0.33923 0.0
C341 C 0.20344 0.96213 0.3659 0.0
C342 C 0.16444 0.84597 0.37866 0.0
C343 C 0.24067 0.92241 0.30877 0.0
N344 N 0.22501 0.86311 0.31857 0.0
C345 C 0.1316 0.88336 0.43848 0.0
C346 C 0.15433 0.94156 0.43307 0.0
C347 C 0.14964 0.75773 0.25153 0.0
C348 C 0.27753 0.64785 0.99862 0.0
C349 C 0.16378 0.66662 0.13213 0.0
C350 C 0.15147 0.66143 0.06865 0.0
C351 C 0.2087 0.65109 1.00176 0.0
N352 N 0.23108 0.65936 0.12999 0.0
C353 C 0.28781 0.65381 0.06327 0.0
Co354 Co 0.27962 0.14988 0.75062 0.0
Co355 Co 0.24985 0.29449 0.71909 0.0
O356 O 0.31686 0.22267 0.68479 0.0
C357 C 0.38241 0.09511 0.6075 0.0
O358 O 0.40979 0.14776 0.5841 0.0
C359 C 0.39716 0.35667 0.63143 0.0
O360 O 0.4334 0.3079 0.62782 0.0
O361 O 0.2756 0.29606 0.80656 0.0
O362 O 0.23756 0.20434 0.83536 0.0
H363 H 0.07256 0.40291 0.93424 0.0
H364 H 0.42919 0.20833 0.68179 0.0
O365 O 0.32683 0.08975 0.66795 0.0
H366 H 0.40095 0.02759 0.90319 0.0
H367 H 0.20989 0.94099 0.85852 0.0
H368 H 0.141 0.14696 0.88378 0.0
H369 H 0.3007 0.08483 0.87936 0.0
H370 H 0.28256 0.01077 0.75871 0.0
O371 O 0.32877 0.35684 0.66655 0.0
H372 H 0.17871 0.34992 0.8695 0.0
H373 H 0.16372 0.38721 0.6664 0.0
H374 H 0.08906 0.08202 0.98843 0.0
H375 H 0.56237 0.18425 0.67394 0.0
H376 H 0.13166 -0.02233 0.97893 0.0
H377 H 0.5439 0.05276 0.82493 0.0
O378 O 0.19695 0.15253 0.72537 0.0
H379 H 0.32234 0.30693 0.44638 0.0
H380 H 0.11737 0.2796 0.6838 0.0
H381 H 0.0973 0.28426 0.57207 0.0
H382 H 0.19917 0.30154 0.45268 0.0
H383 H 0.34144 0.29498 0.559 0.0
H384 H 0.0512 0.43825 0.73323 0.0
H385 H 0.00284 0.44666 0.86898 0.0
O386 O 0.16376 0.24198 0.77166 0.0
C387 C 0.26165 0.25163 0.84987 0.0
C388 C 0.09128 0.39977 0.87545 0.0
C389 C 0.07927 0.4182 0.76302 0.0
N390 N 0.17888 0.35961 0.76206 0.0
C391 C 0.154 0.36876 0.83652 0.0
C392 C 0.14257 0.38658 0.72552 0.0
C393 C 0.05262 0.4236 0.83888 0.0
C394 C 0.43256 0.17654 0.72008 0.0
N395 N 0.36364 0.14311 0.7765 0.0
C396 C 0.51635 0.16016 0.71352 0.0
C397 C 0.50437 0.07637 0.8116 0.0
C398 C 0.41671 0.05952 0.8587 0.0
C399 C 0.35328 0.09473 0.83915 0.0
C400 C 0.20332 -0.01264 0.86542 0.0
C401 C 0.16486 0.10366 0.87914 0.0
C402 C 0.24057 0.02722 0.80853 0.0
N403 N 0.22517 0.08654 0.81873 0.0
C404 C 0.13217 0.06609 0.93882 0.0
C405 C 0.15466 0.00779 0.93291 0.0
C406 C 0.14965 0.19168 0.75181 0.0
C407 C 0.27713 0.30102 0.49863 0.0
C408 C 0.16351 0.28262 0.63234 0.0
C409 C 0.15109 0.28754 0.5689 0.0
C410 C 0.20826 0.2977 0.50191 0.0
N411 N 0.23088 0.28985 0.63003 0.0
C412 C 0.28753 0.29525 0.56323 0.0
Co413 Co 0.68439 0.14946 0.79227 0.0
Co414 Co 0.71383 0.29389 0.82409 0.0
O415 O 0.64695 0.22208 0.85822 0.0
C416 C 0.58144 0.09459 0.93522 0.0
O417 O 0.55428 0.14728 0.95875 0.0
C418 C 0.56622 0.35569 0.91212 0.0
O419 O 0.53005 0.30674 0.91652 0.0
O420 O 0.68852 0.29571 0.73621 0.0
O421 O 0.72671 0.20407 0.70775 0.0
H422 H 0.89594 0.3992 0.6097 0.0
H423 H 0.53492 0.20799 0.86099 0.0
O424 O 0.63694 0.08918 0.87469 0.0
H425 H 0.56326 0.02781 0.639 0.0
H426 H 0.75422 0.94107 0.68239 0.0
H427 H 0.82356 0.14686 0.66005 0.0
H428 H 0.66356 0.08487 0.66309 0.0
H429 H 0.68136 0.01034 0.78309 0.0
O430 O 0.63456 0.35596 0.87659 0.0
H431 H 0.79078 0.3441 0.67256 0.0
H432 H 0.79518 0.38901 0.87865 0.0
H433 H 0.87587 0.08263 0.55473 0.0
H434 H 0.40186 0.1841 0.8687 0.0
H435 H 0.83286 -0.02149 0.56274 0.0
H436 H 0.42027 0.05297 0.71732 0.0
O437 O 0.76681 0.15195 0.818 0.0
H438 H 0.64111 0.30645 0.09679 0.0
H439 H 0.84637 0.28072 0.85913 0.0
H440 H 0.8665 0.28631 0.9709 0.0
H441 H 0.76435 0.30273 0.09039 0.0
H442 H 0.62208 0.29358 0.98419 0.0
H443 H 0.90796 0.44083 0.81381 0.0
H444 H 0.96034 0.44723 0.67762 0.0
O445 O 0.80001 0.24143 0.77188 0.0
C446 C 0.70231 0.25113 0.69311 0.0
C447 C 0.87491 0.39757 0.66874 0.0
C448 C 0.88161 0.41971 0.78301 0.0
N449 N 0.78479 0.35883 0.78145 0.0
C450 C 0.81257 0.36576 0.7065 0.0
C451 C 0.81832 0.38776 0.81943 0.0
C452 C 0.91068 0.42376 0.70688 0.0
C453 C 0.53163 0.17634 0.82256 0.0
N454 N 0.60055 0.14295 0.76606 0.0
C455 C 0.44787 0.16006 0.82904 0.0
C456 C 0.45982 0.07651 0.73071 0.0
C457 C 0.5475 0.05966 0.68356 0.0
C458 C 0.61093 0.09475 0.70325 0.0
C459 C 0.76091 -0.01254 0.67623 0.0
C460 C 0.79966 0.10363 0.66406 0.0
C461 C 0.72356 0.02698 0.73354 0.0
N462 N 0.73904 0.0863 0.724 0.0
C463 C 0.83254 0.06647 0.60402 0.0
C464 C 0.80985 0.00829 0.60911 0.0
C465 C 0.814 0.19127 0.79217 0.0
C466 C 0.68637 0.30084 0.04451 0.0
C467 C 0.80025 0.28342 0.91069 0.0
C468 C 0.81265 0.28881 0.97411 0.0
C469 C 0.75532 0.29847 0.04115 0.0
N470 N 0.73269 0.28944 0.91316 0.0
C471 C 0.67599 0.29451 0.97996 0.0
C472 C -0.001 -0.00039 0.49641 0.0
C473 C 0.02974 0.0421 0.45727 0.0
C474 C 0.96489 0.94972 0.54425 0.0
C475 C 0.93406 0.90728 0.58344 0.0
C476 C -0.00074 0.94977 0.99692 0.0
C477 C 0.02997 0.90724 0.95783 0.0
C478 C 0.96524 -0.00027 0.0447 0.0
C479 C 0.93447 0.04223 0.08381 0.0
C480 C 0.46461 0.45011 0.54521 0.0
C481 C 0.43385 0.40767 0.58445 0.0
C482 C 0.49862 0.50007 0.49744 0.0
C483 C 0.52932 0.54266 0.45847 0.0
C484 C 0.46485 0.49933 0.04568 0.0
C485 C 0.43404 0.54175 0.08494 0.0
C486 C 0.4989 0.44942 0.99786 0.0
C487 C 0.52961 0.40685 0.95884 0.0
C488 C 0.95899 0.45005 0.03963 0.0
C489 C 0.92311 0.40727 0.0716 0.0
C490 C 0.00391 0.4997 1.00362 0.0
C491 C 0.0402 0.54224 0.97152 0.0
C492 C 0.00397 0.44974 0.50376 0.0
C493 C 0.04026 0.40718 0.47169 0.0
C494 C 0.95907 0.49942 0.53969 0.0
C495 C 0.92318 0.54222 0.57157 0.0
C496 C 0.50431 -0.00067 1.00327 0.0
C497 C 0.54044 0.04198 0.97129 0.0
C498 C 0.45935 0.94969 0.03926 0.0
C499 C 0.42326 0.90703 0.07127 0.0
C500 C 0.50432 0.95014 0.50339 0.0
C501 C 0.54046 0.90753 0.47129 0.0
C502 C 0.45933 -0.00025 0.53945 0.0
C503 C 0.42328 0.04244 0.57144 0.0
C504 C 0.24126 0.71088 0.48652 0.0
C505 C 0.25463 0.69422 0.4245 0.0
C506 C 0.22279 0.73796 0.55638 0.0
C507 C 0.20946 0.75468 0.61837 0.0
C508 C 0.74134 0.73893 0.98635 0.0
C509 C 0.75492 0.75571 0.9243 0.0
C510 C 0.7226 0.7117 0.05624 0.0
C511 C 0.70906 0.69483 0.11825 0.0
C512 C 0.74161 0.21076 0.48656 0.0
C513 C 0.75518 0.19395 0.42452 0.0
C514 C 0.72287 0.238 0.55645 0.0
C515 C 0.70931 0.25487 0.61846 0.0
C516 C 0.22297 0.2119 0.05628 0.0
C517 C 0.20962 0.19512 0.11825 0.0
C518 C 0.24144 0.239 0.98642 0.0
C519 C 0.25481 0.25564 0.92439 0.0
C520 C 0.44621 0.2766 0.27656 0.0
C521 C 0.3852 0.27043 0.28483 0.0
C522 C 0.5176 0.27638 0.26838 0.0
C523 C 0.57865 0.26993 0.25987 0.0
C524 C 0.51756 0.67278 0.76808 0.0
C525 C 0.5786 0.67929 0.75957 0.0
C526 C 0.44617 0.67256 0.77631 0.0
C527 C 0.38515 0.67876 0.78461 0.0
C528 C 0.01741 0.7765 0.26793 0.0
C529 C 0.07846 0.7701 0.25941 0.0
C530 C 0.94602 0.77658 0.27611 0.0
C531 C 0.88502 0.77035 0.28436 0.0
C532 C 0.01743 0.17279 0.76827 0.0
C533 C 0.07848 0.17924 0.75973 0.0
C534 C 0.94605 0.1727 0.77645 0.0
C535 C 0.88506 0.17897 0.78467 0.0
loop_
_geom_bond_atom_site_label_1
_geom_bond_atom_site_label_2
_geom_bond_distance
_geom_bond_site_symmetry_2
_ccdc_geom_bond_type
Co0 O2 2.143 . S
Co0 O8 2.074 . S
Co0 O11 2.093 . S
Co0 O24 2.097 . S
Co0 N41 2.151 . S
Co0 N49 2.214 . S
Co1 O2 2.160 . S
Co1 O7 2.058 . S
Co1 O17 2.057 . S
Co1 O32 2.037 . S
Co1 N36 2.145 . S
Co1 N57 2.257 . S
O2 Co0 2.143 . S
O2 Co1 2.160 . S
C3 O4 1.278 . S
C3 O11 1.224 . S
O4 C3 1.278 . S
C5 O6 1.245 . S
C5 O17 1.232 . S
O6 C5 1.245 . S
O7 Co1 2.058 . S
O7 C33 1.269 . S
O8 Co0 2.074 . S
O8 C33 1.257 . S
H9 C34 0.930 . S
H10 C40 0.930 . S
O11 Co0 2.093 . S
O11 C3 1.224 . S
H12 C44 0.929 . S
H13 C46 0.930 . S
H14 C47 0.930 . S
H15 C45 0.929 . S
H16 C48 0.928 . S
O17 Co1 2.057 . S
O17 C5 1.232 . S
H18 C37 0.929 . S
H19 C38 0.929 . S
H20 C50 0.931 . S
H21 C42 0.929 . S
H22 C51 0.930 . S
H23 C43 0.931 . S
O24 Co0 2.097 . S
O24 C52 1.214 . S
H25 C53 0.929 . S
H26 C54 0.929 . S
H27 C55 0.930 . S
H28 C56 0.929 . S
H29 C58 0.930 . S
H30 C35 0.930 1_565 S
H31 C39 0.930 1_565 S
O32 Co1 2.037 . S
O32 C52 1.234 . S
C33 O7 1.269 . S
C33 O8 1.257 . S
C34 H9 0.930 . S
C34 C37 1.388 . S
C34 C39 1.418 . S
C35 H30 0.930 1_545 S
C35 C38 1.404 . S
C35 C39 1.353 . S
N36 Co1 2.145 . S
N36 C37 1.397 . S
N36 C38 1.334 . S
C37 H18 0.929 . S
C37 C34 1.388 . S
C37 N36 1.397 . S
C38 H19 0.929 . S
C38 C35 1.404 . S
C38 N36 1.334 . S
C39 H31 0.930 1_545 S
C39 C34 1.418 . S
C39 C35 1.353 . S
C40 H10 0.930 . S
C40 N41 1.330 . S
C40 C42 1.446 1_455 S
N41 Co0 2.151 . S
N41 C40 1.330 . S
N41 C45 1.418 . S
C42 H21 0.929 . S
C42 C40 1.446 1_655 S
C42 C43 1.332 . S
C43 H23 0.931 . S
C43 C42 1.332 . S
C43 C44 1.267 1_655 S
C44 H12 0.929 . S
C44 C43 1.267 1_455 S
C44 C45 1.251 . S
C45 H15 0.929 . S
C45 N41 1.418 . S
C45 C44 1.251 . S
C46 H13 0.930 . S
C46 C48 1.406 . S
C46 C51 1.261 . S
C47 H14 0.930 . S
C47 N49 1.325 . S
C47 C50 1.357 . S
C48 H16 0.928 . S
C48 C46 1.406 . S
C48 N49 1.261 . S
N49 Co0 2.214 . S
N49 C47 1.325 . S
N49 C48 1.261 . S
C50 H20 0.931 . S
C50 C47 1.357 . S
C50 C51 1.312 . S
C51 H22 0.930 . S
C51 C46 1.261 . S
C51 C50 1.312 . S
C52 O24 1.214 . S
C52 O32 1.234 . S
C53 H25 0.929 . S
C53 C56 1.391 . S
C53 C58 1.391 . S
C54 H26 0.929 . S
C54 C55 1.390 . S
C54 N57 1.391 . S
C55 H27 0.930 . S
C55 C54 1.390 . S
C55 C56 1.392 . S
C56 H28 0.929 . S
C56 C53 1.391 . S
C56 C55 1.392 . S
N57 Co1 2.257 . S
N57 C54 1.391 . S
N57 C58 1.388 . S
C58 H29 0.930 . S
C58 C53 1.391 . S
C58 N57 1.388 . S
Co59 O61 2.143 . S
Co59 O67 2.074 . S
Co59 O70 2.093 . S
Co59 O83 2.097 . S
Co59 N100 2.151 . S
Co59 N108 2.214 . S
Co60 O61 2.160 . S
Co60 O66 2.058 . S
Co60 O76 2.057 . S
Co60 O91 2.037 . S
Co60 N95 2.145 . S
Co60 N116 2.257 . S
O61 Co59 2.143 . S
O61 Co60 2.160 . S
C62 O63 1.278 . S
C62 O70 1.224 . S
O63 C62 1.278 . S
C64 O65 1.245 . S
C64 O76 1.232 . S
O65 C64 1.245 . S
O66 Co60 2.058 . S
O66 C92 1.269 . S
O67 Co59 2.074 . S
O67 C92 1.257 . S
H68 C93 0.930 . S
H69 C99 0.930 . S
O70 Co59 2.093 . S
O70 C62 1.224 . S
H71 C103 0.929 . S
H72 C105 0.930 . S
H73 C106 0.930 . S
H74 C104 0.929 . S
H75 C107 0.928 . S
O76 Co60 2.057 . S
O76 C64 1.232 . S
H77 C96 0.929 . S
H78 C97 0.929 . S
H79 C109 0.931 . S
H80 C101 0.929 . S
H81 C110 0.930 . S
H82 C102 0.931 . S
O83 Co59 2.097 . S
O83 C111 1.214 . S
H84 C112 0.929 . S
H85 C113 0.929 . S
H86 C114 0.924 1_556 S
H87 C115 0.929 . S
H88 C117 0.930 . S
H89 C94 0.930 1_565 S
H90 C98 0.930 1_565 S
O91 Co60 2.037 . S
O91 C111 1.234 . S
C92 O66 1.269 . S
C92 O67 1.257 . S
C93 H68 0.930 . S
C93 C96 1.388 . S
C93 C98 1.418 . S
C94 H89 0.930 1_545 S
C94 C97 1.404 . S
C94 C98 1.353 . S
N95 Co60 2.145 . S
N95 C96 1.397 . S
N95 C97 1.334 . S
C96 H77 0.929 . S
C96 C93 1.388 . S
C96 N95 1.397 . S
C97 H78 0.929 . S
C97 C94 1.404 . S
C97 N95 1.334 . S
C98 H90 0.930 1_545 S
C98 C93 1.418 . S
C98 C94 1.353 . S
C99 H69 0.930 . S
C99 N100 1.330 . S
C99 C101 1.446 1_655 S
N100 Co59 2.151 . S
N100 C99 1.330 . S
N100 C104 1.418 . S
C101 H80 0.929 . S
C101 C99 1.446 1_455 S
C101 C102 1.332 . S
C102 H82 0.931 . S
C102 C101 1.332 . S
C102 C103 1.267 1_455 S
C103 H71 0.929 . S
C103 C102 1.267 1_655 S
C103 C104 1.251 . S
C104 H74 0.929 . S
C104 N100 1.418 . S
C104 C103 1.251 . S
C105 H72 0.930 . S
C105 C107 1.406 . S
C105 C110 1.261 . S
C106 H73 0.930 . S
C106 N108 1.325 . S
C106 C109 1.357 . S
C107 H75 0.928 . S
C107 C105 1.406 . S
C107 N108 1.261 . S
N108 Co59 2.214 . S
N108 C106 1.325 . S
N108 C107 1.261 . S
C109 H79 0.931 . S
C109 C106 1.357 . S
C109 C110 1.312 . S
C110 H81 0.930 . S
C110 C105 1.261 . S
C110 C109 1.312 . S
C111 O83 1.214 . S
C111 O91 1.234 . S
C112 H84 0.929 . S
C112 C115 1.391 . S
C112 C117 1.391 1_556 S
C113 H85 0.929 . S
C113 C114 1.405 . S
C113 N116 1.391 . S
C114 H86 0.924 1_554 S
C114 C113 1.405 . S
C114 C115 1.383 1_554 S
C115 H87 0.929 . S
C115 C112 1.391 . S
C115 C114 1.383 1_556 S
N116 Co60 2.257 . S
N116 C113 1.391 . S
N116 C117 1.388 . S
C117 H88 0.930 . S
C117 C112 1.391 1_554 S
C117 N116 1.388 . S
Co118 O120 2.143 . S
Co118 O126 2.074 . S
Co118 O129 2.093 . S
Co118 O142 2.097 . S
Co118 N159 2.151 . S
Co118 N167 2.214 . S
Co119 O120 2.160 . S
Co119 O125 2.058 . S
Co119 O135 2.057 . S
Co119 O150 2.037 . S
Co119 N154 2.145 . S
Co119 N175 2.257 . S
O120 Co118 2.143 . S
O120 Co119 2.160 . S
C121 O122 1.278 . S
C121 O129 1.224 . S
O122 C121 1.278 . S
C123 O124 1.245 . S
C123 O135 1.232 . S
O124 C123 1.245 . S
O125 Co119 2.058 . S
O125 C151 1.269 . S
O126 Co118 2.074 . S
O126 C151 1.257 . S
H127 C152 0.930 . S
H128 C158 0.930 . S
O129 Co118 2.093 . S
O129 C121 1.224 . S
H130 C162 0.929 . S
H131 C164 0.930 . S
H132 C165 0.930 . S
H133 C163 0.929 . S
H134 C166 0.928 . S
O135 Co119 2.057 . S
O135 C123 1.232 . S
H136 C155 0.929 . S
H137 C156 0.929 . S
H138 C168 0.931 . S
H139 C160 0.929 . S
H140 C169 0.930 . S
H141 C161 0.931 . S
O142 Co118 2.097 . S
O142 C170 1.214 . S
H143 C171 0.929 . S
H144 C172 0.929 . S
H145 C173 0.930 . S
H146 C174 0.929 . S
H147 C176 0.930 . S
H148 C153 0.930 1_545 S
H149 C157 0.930 1_545 S
O150 Co119 2.037 . S
O150 C170 1.234 . S
C151 O125 1.269 . S
C151 O126 1.257 . S
C152 H127 0.930 . S
C152 C155 1.388 . S
C152 C157 1.418 . S
C153 H148 0.930 1_565 S
C153 C156 1.404 . S
C153 C157 1.353 . S
N154 Co119 2.145 . S
N154 C155 1.397 . S
N154 C156 1.334 . S
C155 H136 0.929 . S
C155 C152 1.388 . S
C155 N154 1.397 . S
C156 H137 0.929 . S
C156 C153 1.404 . S
C156 N154 1.334 . S
C157 H149 0.930 1_565 S
C157 C152 1.418 . S
C157 C153 1.353 . S
C158 H128 0.930 . S
C158 N159 1.330 . S
C158 C160 1.446 1_655 S
N159 Co118 2.151 . S
N159 C158 1.330 . S
N159 C163 1.418 . S
C160 H139 0.929 . S
C160 C158 1.446 1_455 S
C160 C161 1.332 . S
C161 H141 0.931 . S
C161 C160 1.332 . S
C161 C162 1.267 1_455 S
C162 H130 0.929 . S
C162 C161 1.267 1_655 S
C162 C163 1.251 . S
C163 H133 0.929 . S
C163 N159 1.418 . S
C163 C162 1.251 . S
C164 H131 0.930 . S
C164 C166 1.406 . S
C164 C169 1.261 . S
C165 H132 0.930 . S
C165 N167 1.325 . S
C165 C168 1.357 . S
C166 H134 0.928 . S
C166 C164 1.406 . S
C166 N167 1.261 . S
N167 Co118 2.214 . S
N167 C165 1.325 . S
N167 C166 1.261 . S
C168 H138 0.931 . S
C168 C165 1.357 . S
C168 C169 1.312 . S
C169 H140 0.930 . S
C169 C164 1.261 . S
C169 C168 1.312 . S
C170 O142 1.214 . S
C170 O150 1.234 . S
C171 H143 0.929 . S
C171 C174 1.391 . S
C171 C176 1.391 . S
C172 H144 0.929 . S
C172 C173 1.390 . S
C172 N175 1.391 . S
C173 H145 0.930 . S
C173 C172 1.390 . S
C173 C174 1.392 . S
C174 H146 0.929 . S
C174 C171 1.391 . S
C174 C173 1.392 . S
N175 Co119 2.257 . S
N175 C172 1.391 . S
N175 C176 1.388 . S
C176 H147 0.930 . S
C176 C171 1.391 . S
C176 N175 1.388 . S
Co177 O179 2.143 . S
Co177 O185 2.074 . S
Co177 O188 2.093 . S
Co177 O201 2.097 . S
Co177 N218 2.151 . S
Co177 N226 2.214 . S
Co178 O179 2.160 . S
Co178 O184 2.058 . S
Co178 O194 2.057 . S
Co178 O209 2.037 . S
Co178 N213 2.145 . S
Co178 N234 2.257 . S
O179 Co177 2.143 . S
O179 Co178 2.160 . S
C180 O181 1.278 . S
C180 O188 1.224 . S
O181 C180 1.278 . S
C182 O183 1.245 . S
C182 O194 1.232 . S
O183 C182 1.245 . S
O184 Co178 2.058 . S
O184 C210 1.269 . S
O185 Co177 2.074 . S
O185 C210 1.257 . S
H186 C211 0.930 . S
H187 C217 0.930 . S
O188 Co177 2.093 . S
O188 C180 1.224 . S
H189 C221 0.929 . S
H190 C223 0.930 . S
H191 C224 0.930 . S
H192 C222 0.929 . S
H193 C225 0.928 . S
O194 Co178 2.057 . S
O194 C182 1.232 . S
H195 C214 0.929 . S
H196 C215 0.929 . S
H197 C227 0.931 . S
H198 C219 0.929 . S
H199 C228 0.930 . S
H200 C220 0.931 . S
O201 Co177 2.097 . S
O201 C229 1.214 . S
H202 C230 0.929 . S
H203 C231 0.929 . S
H204 C232 0.924 1_554 S
H205 C233 0.929 . S
H206 C235 0.930 . S
H207 C212 0.930 1_545 S
H208 C216 0.930 1_545 S
O209 Co178 2.037 . S
O209 C229 1.234 . S
C210 O184 1.269 . S
C210 O185 1.257 . S
C211 H186 0.930 . S
C211 C214 1.388 . S
C211 C216 1.418 . S
C212 H207 0.930 1_565 S
C212 C215 1.404 . S
C212 C216 1.353 . S
N213 Co178 2.145 . S
N213 C214 1.397 . S
N213 C215 1.334 . S
C214 H195 0.929 . S
C214 C211 1.388 . S
C214 N213 1.397 . S
C215 H196 0.929 . S
C215 C212 1.404 . S
C215 N213 1.334 . S
C216 H208 0.930 1_565 S
C216 C211 1.418 . S
C216 C212 1.353 . S
C217 H187 0.930 . S
C217 N218 1.330 . S
C217 C219 1.446 1_455 S
N218 Co177 2.151 . S
N218 C217 1.330 . S
N218 C222 1.418 . S
C219 H198 0.929 . S
C219 C217 1.446 1_655 S
C219 C220 1.332 . S
C220 H200 0.931 . S
C220 C219 1.332 . S
C220 C221 1.267 1_655 S
C221 H189 0.929 . S
C221 C220 1.267 1_455 S
C221 C222 1.251 . S
C222 H192 0.929 . S
C222 N218 1.418 . S
C222 C221 1.251 . S
C223 H190 0.930 . S
C223 C225 1.406 . S
C223 C228 1.261 . S
C224 H191 0.930 . S
C224 N226 1.325 . S
C224 C227 1.357 . S
C225 H193 0.928 . S
C225 C223 1.406 . S
C225 N226 1.261 . S
N226 Co177 2.214 . S
N226 C224 1.325 . S
N226 C225 1.261 . S
C227 H197 0.931 . S
C227 C224 1.357 . S
C227 C228 1.312 . S
C228 H199 0.930 . S
C228 C223 1.261 . S
C228 C227 1.312 . S
C229 O201 1.214 . S
C229 O209 1.234 . S
C230 H202 0.929 . S
C230 C233 1.391 . S
C230 C235 1.391 1_554 S
C231 H203 0.929 . S
C231 C232 1.405 . S
C231 N234 1.391 . S
C232 H204 0.924 1_556 S
C232 C231 1.405 . S
C232 C233 1.383 1_556 S
C233 H205 0.929 . S
C233 C230 1.391 . S
C233 C232 1.383 1_554 S
N234 Co178 2.257 . S
N234 C231 1.391 . S
N234 C235 1.388 . S
C235 H206 0.930 . S
C235 C230 1.391 1_556 S
C235 N234 1.388 . S
Co236 O238 2.143 . S
Co236 O244 2.074 . S
Co236 O247 2.093 . S
Co236 O260 2.097 . S
Co236 N277 2.151 . S
Co236 N285 2.214 . S
Co237 O238 2.160 . S
Co237 O243 2.058 . S
Co237 O253 2.057 . S
Co237 O268 2.037 . S
Co237 N272 2.145 . S
Co237 N293 2.257 . S
O238 Co236 2.143 . S
O238 Co237 2.160 . S
C239 O240 1.278 . S
C239 O247 1.224 . S
O240 C239 1.278 . S
C241 O242 1.245 . S
C241 O253 1.232 . S
O242 C241 1.245 . S
O243 Co237 2.058 . S
O243 C269 1.269 . S
O244 Co236 2.074 . S
O244 C269 1.257 . S
H245 C270 0.930 . S
H246 C276 0.930 . S
O247 Co236 2.093 . S
O247 C239 1.224 . S
H248 C280 0.929 . S
H249 C282 0.930 . S
H250 C283 0.930 . S
H251 C281 0.929 . S
H252 C284 0.928 . S
O253 Co237 2.057 . S
O253 C241 1.232 . S
H254 C273 0.929 . S
H255 C274 0.929 . S
H256 C286 0.931 . S
H257 C278 0.929 . S
H258 C287 0.930 . S
H259 C279 0.931 . S
O260 Co236 2.097 . S
O260 C288 1.214 . S
H261 C289 0.929 . S
H262 C290 0.929 . S
H263 C291 0.930 . S
H264 C292 0.929 . S
H265 C294 0.930 . S
H266 C271 0.930 . S
H267 C275 0.930 . S
O268 Co237 2.037 . S
O268 C288 1.234 . S
C269 O243 1.269 . S
C269 O244 1.257 . S
C270 H245 0.930 . S
C270 C273 1.388 . S
C270 C275 1.418 . S
C271 H266 0.930 . S
C271 C274 1.404 . S
C271 C275 1.353 . S
N272 Co237 2.145 . S
N272 C273 1.397 . S
N272 C274 1.334 . S
C273 H254 0.929 . S
C273 C270 1.388 . S
C273 N272 1.397 . S
C274 H255 0.929 . S
C274 C271 1.404 . S
C274 N272 1.334 . S
C275 H267 0.930 . S
C275 C270 1.418 . S
C275 C271 1.353 . S
C276 H246 0.930 . S
C276 N277 1.330 . S
C276 C278 1.446 . S
N277 Co236 2.151 . S
N277 C276 1.330 . S
N277 C281 1.418 . S
C278 H257 0.929 . S
C278 C276 1.446 . S
C278 C279 1.332 . S
C279 H259 0.931 . S
C279 C278 1.332 . S
C279 C280 1.267 . S
C280 H248 0.929 . S
C280 C279 1.267 . S
C280 C281 1.251 . S
C281 H251 0.929 . S
C281 N277 1.418 . S
C281 C280 1.251 . S
C282 H249 0.930 . S
C282 C284 1.406 1_545 S
C282 C287 1.261 . S
C283 H250 0.930 . S
C283 N285 1.325 . S
C283 C286 1.357 . S
C284 H252 0.928 . S
C284 C282 1.406 1_565 S
C284 N285 1.261 . S
N285 Co236 2.214 . S
N285 C283 1.325 . S
N285 C284 1.261 . S
C286 H256 0.931 . S
C286 C283 1.357 . S
C286 C287 1.312 1_565 S
C287 H258 0.930 . S
C287 C282 1.261 . S
C287 C286 1.312 1_545 S
C288 O260 1.214 . S
C288 O268 1.234 . S
C289 H261 0.929 . S
C289 C292 1.391 . S
C289 C294 1.391 . S
C290 H262 0.929 . S
C290 C291 1.390 . S
C290 N293 1.391 . S
C291 H263 0.930 . S
C291 C290 1.390 . S
C291 C292 1.392 . S
C292 H264 0.929 . S
C292 C289 1.391 . S
C292 C291 1.392 . S
N293 Co237 2.257 . S
N293 C290 1.391 . S
N293 C294 1.388 . S
C294 H265 0.930 . S
C294 C289 1.391 . S
C294 N293 1.388 . S
Co295 O297 2.143 . S
Co295 O303 2.074 . S
Co295 O306 2.093 . S
Co295 O319 2.097 . S
Co295 N336 2.151 . S
Co295 N344 2.214 . S
Co296 O297 2.160 . S
Co296 O302 2.058 . S
Co296 O312 2.057 . S
Co296 O327 2.037 . S
Co296 N331 2.145 . S
Co296 N352 2.257 . S
O297 Co295 2.143 . S
O297 Co296 2.160 . S
C298 O299 1.278 . S
C298 O306 1.224 . S
O299 C298 1.278 . S
C300 O301 1.245 . S
C300 O312 1.232 . S
O301 C300 1.245 . S
O302 Co296 2.058 . S
O302 C328 1.269 . S
O303 Co295 2.074 . S
O303 C328 1.257 . S
H304 C329 0.930 . S
H305 C335 0.930 . S
O306 Co295 2.093 . S
O306 C298 1.224 . S
H307 C339 0.929 . S
H308 C341 0.930 . S
H309 C342 0.930 . S
H310 C340 0.929 . S
H311 C343 0.928 . S
O312 Co296 2.057 . S
O312 C300 1.232 . S
H313 C332 0.929 . S
H314 C333 0.929 . S
H315 C345 0.931 . S
H316 C337 0.929 . S
H317 C346 0.930 . S
H318 C338 0.931 . S
O319 Co295 2.097 . S
O319 C347 1.214 . S
H320 C348 0.929 . S
H321 C349 0.929 . S
H322 C350 0.924 1_556 S
H323 C351 0.929 . S
H324 C353 0.930 . S
H325 C330 0.930 . S
H326 C334 0.930 . S
O327 Co296 2.037 . S
O327 C347 1.234 . S
C328 O302 1.269 . S
C328 O303 1.257 . S
C329 H304 0.930 . S
C329 C332 1.388 . S
C329 C334 1.418 . S
C330 H325 0.930 . S
C330 C333 1.404 . S
C330 C334 1.353 . S
N331 Co296 2.145 . S
N331 C332 1.397 . S
N331 C333 1.334 . S
C332 H313 0.929 . S
C332 C329 1.388 . S
C332 N331 1.397 . S
C333 H314 0.929 . S
C333 C330 1.404 . S
C333 N331 1.334 . S
C334 H326 0.930 . S
C334 C329 1.418 . S
C334 C330 1.353 . S
C335 H305 0.930 . S
C335 N336 1.330 . S
C335 C337 1.446 . S
N336 Co295 2.151 . S
N336 C335 1.330 . S
N336 C340 1.418 . S
C337 H316 0.929 . S
C337 C335 1.446 . S
C337 C338 1.332 . S
C338 H318 0.931 . S
C338 C337 1.332 . S
C338 C339 1.267 . S
C339 H307 0.929 . S
C339 C338 1.267 . S
C339 C340 1.251 . S
C340 H310 0.929 . S
C340 N336 1.418 . S
C340 C339 1.251 . S
C341 H308 0.930 . S
C341 C343 1.406 1_545 S
C341 C346 1.261 . S
C342 H309 0.930 . S
C342 N344 1.325 . S
C342 C345 1.357 . S
C343 H311 0.928 . S
C343 C341 1.406 1_565 S
C343 N344 1.261 . S
N344 Co295 2.214 . S
N344 C342 1.325 . S
N344 C343 1.261 . S
C345 H315 0.931 . S
C345 C342 1.357 . S
C345 C346 1.312 1_565 S
C346 H317 0.930 . S
C346 C341 1.261 . S
C346 C345 1.312 1_545 S
C347 O319 1.214 . S
C347 O327 1.234 . S
C348 H320 0.929 . S
C348 C351 1.391 . S
C348 C353 1.391 1_556 S
C349 H321 0.929 . S
C349 C350 1.405 . S
C349 N352 1.391 . S
C350 H322 0.924 1_554 S
C350 C349 1.405 . S
C350 C351 1.383 1_554 S
C351 H323 0.929 . S
C351 C348 1.391 . S
C351 C350 1.383 1_556 S
N352 Co296 2.257 . S
N352 C349 1.391 . S
N352 C353 1.388 . S
C353 H324 0.930 . S
C353 C348 1.391 1_554 S
C353 N352 1.388 . S
Co354 O356 2.143 . S
Co354 O362 2.074 . S
Co354 O365 2.093 . S
Co354 O378 2.097 . S
Co354 N395 2.151 . S
Co354 N403 2.214 . S
Co355 O356 2.160 . S
Co355 O361 2.058 . S
Co355 O371 2.057 . S
Co355 O386 2.037 . S
Co355 N390 2.145 . S
Co355 N411 2.257 . S
O356 Co354 2.143 . S
O356 Co355 2.160 . S
C357 O358 1.278 . S
C357 O365 1.224 . S
O358 C357 1.278 . S
C359 O360 1.245 . S
C359 O371 1.232 . S
O360 C359 1.245 . S
O361 Co355 2.058 . S
O361 C387 1.269 . S
O362 Co354 2.074 . S
O362 C387 1.257 . S
H363 C388 0.930 . S
H364 C394 0.930 . S
O365 Co354 2.093 . S
O365 C357 1.224 . S
H366 C398 0.929 . S
H367 C400 0.930 . S
H368 C401 0.930 . S
H369 C399 0.929 . S
H370 C402 0.928 . S
O371 Co355 2.057 . S
O371 C359 1.232 . S
H372 C391 0.929 . S
H373 C392 0.929 . S
H374 C404 0.931 . S
H375 C396 0.929 . S
H376 C405 0.930 . S
H377 C397 0.931 . S
O378 Co354 2.097 . S
O378 C406 1.214 . S
H379 C407 0.929 . S
H380 C408 0.929 . S
H381 C409 0.930 . S
H382 C410 0.929 . S
H383 C412 0.930 . S
H384 C389 0.930 . S
H385 C393 0.930 . S
O386 Co355 2.037 . S
O386 C406 1.234 . S
C387 O361 1.269 . S
C387 O362 1.257 . S
C388 H363 0.930 . S
C388 C391 1.388 . S
C388 C393 1.418 . S
C389 H384 0.930 . S
C389 C392 1.404 . S
C389 C393 1.353 . S
N390 Co355 2.145 . S
N390 C391 1.397 . S
N390 C392 1.334 . S
C391 H372 0.929 . S
C391 C388 1.388 . S
C391 N390 1.397 . S
C392 H373 0.929 . S
C392 C389 1.404 . S
C392 N390 1.334 . S
C393 H385 0.930 . S
C393 C388 1.418 . S
C393 C389 1.353 . S
C394 H364 0.930 . S
C394 N395 1.330 . S
C394 C396 1.446 . S
N395 Co354 2.151 . S
N395 C394 1.330 . S
N395 C399 1.418 . S
C396 H375 0.929 . S
C396 C394 1.446 . S
C396 C397 1.332 . S
C397 H377 0.931 . S
C397 C396 1.332 . S
C397 C398 1.267 . S
C398 H366 0.929 . S
C398 C397 1.267 . S
C398 C399 1.251 . S
C399 H369 0.929 . S
C399 N395 1.418 . S
C399 C398 1.251 . S
C400 H367 0.930 . S
C400 C402 1.406 1_565 S
C400 C405 1.261 . S
C401 H368 0.930 . S
C401 N403 1.325 . S
C401 C404 1.357 . S
C402 H370 0.928 . S
C402 C400 1.406 1_545 S
C402 N403 1.261 . S
N403 Co354 2.214 . S
N403 C401 1.325 . S
N403 C402 1.261 . S
C404 H374 0.931 . S
C404 C401 1.357 . S
C404 C405 1.312 1_545 S
C405 H376 0.930 . S
C405 C400 1.261 . S
C405 C404 1.312 1_565 S
C406 O378 1.214 . S
C406 O386 1.234 . S
C407 H379 0.929 . S
C407 C410 1.391 . S
C407 C412 1.391 . S
C408 H380 0.929 . S
C408 C409 1.390 . S
C408 N411 1.391 . S
C409 H381 0.930 . S
C409 C408 1.390 . S
C409 C410 1.392 . S
C410 H382 0.929 . S
C410 C407 1.391 . S
C410 C409 1.392 . S
N411 Co355 2.257 . S
N411 C408 1.391 . S
N411 C412 1.388 . S
C412 H383 0.930 . S
C412 C407 1.391 . S
C412 N411 1.388 . S
Co413 O415 2.143 . S
Co413 O421 2.074 . S
Co413 O424 2.093 . S
Co413 O437 2.097 . S
Co413 N454 2.151 . S
Co413 N462 2.214 . S
Co414 O415 2.160 . S
Co414 O420 2.058 . S
Co414 O430 2.057 . S
Co414 O445 2.037 . S
Co414 N449 2.145 . S
Co414 N470 2.257 . S
O415 Co413 2.143 . S
O415 Co414 2.160 . S
C416 O417 1.278 . S
C416 O424 1.224 . S
O417 C416 1.278 . S
C418 O419 1.245 . S
C418 O430 1.232 . S
O419 C418 1.245 . S
O420 Co414 2.058 . S
O420 C446 1.269 . S
O421 Co413 2.074 . S
O421 C446 1.257 . S
H422 C447 0.930 . S
H423 C453 0.930 . S
O424 Co413 2.093 . S
O424 C416 1.224 . S
H425 C457 0.929 . S
H426 C459 0.930 . S
H427 C460 0.930 . S
H428 C458 0.929 . S
H429 C461 0.928 . S
O430 Co414 2.057 . S
O430 C418 1.232 . S
H431 C450 0.929 . S
H432 C451 0.929 . S
H433 C463 0.931 . S
H434 C455 0.929 . S
H435 C464 0.930 . S
H436 C456 0.931 . S
O437 Co413 2.097 . S
O437 C465 1.214 . S
H438 C466 0.929 . S
H439 C467 0.929 . S
H440 C468 0.924 1_554 S
H441 C469 0.929 . S
H442 C471 0.930 . S
H443 C448 0.930 . S
H444 C452 0.930 . S
O445 Co414 2.037 . S
O445 C465 1.234 . S
C446 O420 1.269 . S
C446 O421 1.257 . S
C447 H422 0.930 . S
C447 C450 1.388 . S
C447 C452 1.418 . S
C448 H443 0.930 . S
C448 C451 1.404 . S
C448 C452 1.353 . S
N449 Co414 2.145 . S
N449 C450 1.397 . S
N449 C451 1.334 . S
C450 H431 0.929 . S
C450 C447 1.388 . S
C450 N449 1.397 . S
C451 H432 0.929 . S
C451 C448 1.404 . S
C451 N449 1.334 . S
C452 H444 0.930 . S
C452 C447 1.418 . S
C452 C448 1.353 . S
C453 H423 0.930 . S
C453 N454 1.330 . S
C453 C455 1.446 . S
N454 Co413 2.151 . S
N454 C453 1.330 . S
N454 C458 1.418 . S
C455 H434 0.929 . S
C455 C453 1.446 . S
C455 C456 1.332 . S
C456 H436 0.931 . S
C456 C455 1.332 . S
C456 C457 1.267 . S
C457 H425 0.929 . S
C457 C456 1.267 . S
C457 C458 1.251 . S
C458 H428 0.929 . S
C458 N454 1.418 . S
C458 C457 1.251 . S
C459 H426 0.930 . S
C459 C461 1.406 1_565 S
C459 C464 1.261 . S
C460 H427 0.930 . S
C460 N462 1.325 . S
C460 C463 1.357 . S
C461 H429 0.928 . S
C461 C459 1.406 1_545 S
C461 N462 1.261 . S
N462 Co413 2.214 . S
N462 C460 1.325 . S
N462 C461 1.261 . S
C463 H433 0.931 . S
C463 C460 1.357 . S
C463 C464 1.312 1_545 S
C464 H435 0.930 . S
C464 C459 1.261 . S
C464 C463 1.312 1_565 S
C465 O437 1.214 . S
C465 O445 1.234 . S
C466 H438 0.929 . S
C466 C469 1.391 . S
C466 C471 1.391 1_554 S
C467 H439 0.929 . S
C467 C468 1.405 . S
C467 N470 1.391 . S
C468 H440 0.924 1_556 S
C468 C467 1.405 . S
C468 C469 1.383 1_556 S
C469 H441 0.929 . S
C469 C466 1.391 . S
C469 C468 1.383 1_554 S
N470 Co414 2.257 . S
N470 C467 1.391 . S
N470 C471 1.388 . S
C471 H442 0.930 . S
C471 C466 1.391 1_556 S
C471 N470 1.388 . S
C472 C473 1.170 . S
C472 C474 1.380 1_445 S
C473 C472 1.170 . S
C474 C472 1.380 1_665 S
C474 C475 1.170 . S
C475 C474 1.170 . S
C476 C477 1.170 . S
C476 C478 1.380 1_466 S
C477 C476 1.170 . S
C478 C476 1.380 1_644 S
C478 C479 1.170 . S
C479 C478 1.170 . S
C480 C481 1.170 . S
C480 C482 1.380 . S
C481 C480 1.170 . S
C482 C480 1.380 . S
C482 C483 1.170 . S
C483 C482 1.170 . S
C484 C485 1.170 . S
C484 C486 1.380 1_554 S
C485 C484 1.170 . S
C486 C484 1.380 1_556 S
C486 C487 1.170 . S
C487 C486 1.170 . S
C488 C489 1.170 . S
C488 C490 1.380 1_654 S
C489 C488 1.170 . S
C490 C488 1.380 1_456 S
C490 C491 1.170 . S
C491 C490 1.170 . S
C492 C493 1.170 . S
C492 C494 1.380 1_455 S
C493 C492 1.170 . S
C494 C492 1.380 1_655 S
C494 C495 1.170 . S
C495 C494 1.170 . S
C496 C497 1.170 . S
C496 C498 1.380 1_546 S
C497 C496 1.170 . S
C498 C496 1.380 1_564 S
C498 C499 1.170 . S
C499 C498 1.170 . S
C500 C501 1.170 . S
C500 C502 1.380 1_565 S
C501 C500 1.170 . S
C502 C500 1.380 1_545 S
C502 C503 1.170 . S
C503 C502 1.170 . S
C504 C505 1.170 . S
C504 C506 1.380 . S
C505 C504 1.170 . S
C506 C504 1.380 . S
C506 C507 1.170 . S
C507 C506 1.170 . S
C508 C509 1.170 . S
C508 C510 1.380 1_556 S
C509 C508 1.170 . S
C510 C508 1.380 1_554 S
C510 C511 1.170 . S
C511 C510 1.170 . S
C512 C513 1.170 . S
C512 C514 1.380 . S
C513 C512 1.170 . S
C514 C512 1.380 . S
C514 C515 1.170 . S
C515 C514 1.170 . S
C516 C517 1.170 . S
C516 C518 1.380 1_554 S
C517 C516 1.170 . S
C518 C516 1.380 1_556 S
C518 C519 1.170 . S
C519 C518 1.170 . S
C520 C521 1.170 . S
C520 C522 1.380 . S
C521 C520 1.170 . S
C522 C520 1.380 . S
C522 C523 1.170 . S
C523 C522 1.170 . S
C524 C525 1.170 . S
C524 C526 1.380 . S
C525 C524 1.170 . S
C526 C524 1.380 . S
C526 C527 1.170 . S
C527 C526 1.170 . S
C528 C529 1.170 . S
C528 C530 1.380 1_455 S
C529 C528 1.170 . S
C530 C528 1.380 1_655 S
C530 C531 1.170 . S
C531 C530 1.170 . S
C532 C533 1.170 . S
C532 C534 1.380 1_455 S
C533 C532 1.170 . S
C534 C532 1.380 1_655 S
C534 C535 1.170 . S
C535 C534 1.170 . S
C473 C5 2.028 . S
C475 C123 2.013 . S
C477 C182 2.018 . S
C479 C64 2.033 . S
C481 C359 2.027 . S
C483 C241 2.013 . S
C485 C300 2.030 . S
C487 C418 2.012 . S
C489 C62 1.290 . S
C491 C180 1.293 . S
C493 C3 1.310 . S
C495 C121 1.291 . S
C497 C416 1.312 . S
C499 C298 1.288 . S
C501 C239 1.291 . S
C503 C357 1.291 . S
C505 C328 1.584 . S
C507 C210 1.587 . S
C509 C151 1.594 . S
C511 C269 1.579 . S
C513 C92 1.580 . S
C515 C446 1.593 . S
C517 C33 1.577 . S
C519 C387 1.598 . S
C521 C52 1.614 . S
C523 C111 1.626 . S
C525 C170 1.613 . S
C527 C229 1.614 . S
C529 C347 1.619 . S
C531 C288 1.631 . S
C533 C406 1.614 . S
C535 C465 1.616 . S
