# Generated by pormake.
# Topology ftb, (5)-cn, num edge types: 1
# Building blocks:
#     Node 0, Type 0, BuildingBlock: XOMCOT_clean_sbu_0, # of connection points: 5
#     Node 1, Type 0, BuildingBlock: XOMCOT_clean_sbu_0, # of connection points: 5
#     Node 2, Type 0, BuildingBlock: XOMCOT_clean_sbu_0, # of connection points: 5
#     Node 3, Type 0, BuildingBlock: XOMCOT_clean_sbu_0, # of connection points: 5
#     Node 4, Type 0, BuildingBlock: XOMCOT_clean_sbu_0, # of connection points: 5
#     Node 5, Type 0, BuildingBlock: XOMCOT_clean_sbu_0, # of connection points: 5
#     Node 6, Type 0, BuildingBlock: XOMCOT_clean_sbu_0, # of connection points: 5
#     Node 7, Type 0, BuildingBlock: XOMCOT_clean_sbu_0, # of connection points: 5
#     Edge 8, Type (0, 0), BuildingBlock: TEMPAE_clean_linker_10, # of connection points: 2
#     Edge 9, Type (0, 0), BuildingBlock: TEMPAE_clean_linker_10, # of connection points: 2
#     Edge 10, Type (0, 0), BuildingBlock: TEMPAE_clean_linker_10, # of connection points: 2
#     Edge 11, Type (0, 0), BuildingBlock: TEMPAE_clean_linker_10, # of connection points: 2
#     Edge 12, Type (0, 0), BuildingBlock: TEMPAE_clean_linker_10, # of connection points: 2
#     Edge 13, Type (0, 0), BuildingBlock: TEMPAE_clean_linker_10, # of connection points: 2
#     Edge 14, Type (0, 0), BuildingBlock: TEMPAE_clean_linker_10, # of connection points: 2
#     Edge 15, Type (0, 0), BuildingBlock: TEMPAE_clean_linker_10, # of connection points: 2
#     Edge 16, Type (0, 0), BuildingBlock: TEMPAE_clean_linker_10, # of connection points: 2
#     Edge 17, Type (0, 0), BuildingBlock: TEMPAE_clean_linker_10, # of connection points: 2
#     Edge 18, Type (0, 0), BuildingBlock: TEMPAE_clean_linker_10, # of connection points: 2
#     Edge 19, Type (0, 0), BuildingBlock: TEMPAE_clean_linker_10, # of connection points: 2
#     Edge 20, Type (0, 0), BuildingBlock: TEMPAE_clean_linker_10, # of connection points: 2
#     Edge 21, Type (0, 0), BuildingBlock: TEMPAE_clean_linker_10, # of connection points: 2
#     Edge 22, Type (0, 0), BuildingBlock: TEMPAE_clean_linker_10, # of connection points: 2
#     Edge 23, Type (0, 0), BuildingBlock: TEMPAE_clean_linker_10, # of connection points: 2
#     Edge 24, Type (0, 0), BuildingBlock: TEMPAE_clean_linker_10, # of connection points: 2
#     Edge 25, Type (0, 0), BuildingBlock: TEMPAE_clean_linker_10, # of connection points: 2
#     Edge 26, Type (0, 0), BuildingBlock: TEMPAE_clean_linker_10, # of connection points: 2
#     Edge 27, Type (0, 0), BuildingBlock: TEMPAE_clean_linker_10, # of connection points: 2
# Relax obj value: 0.116
# Max RMSD: 0.196
# Mean RMSD: 0.196
data_MOF--net-ftb--node1-XOMCOT_clean_sbu_0--edge1-TEMPAE_clean_linker_10
_symmetry_space_group_name_H-M    P1
_symmetry_Int_Tables_number       1
_symmetry_cell_setting            triclinic
loop_
_symmetry_equiv_pos_as_xyz
'x, y, z'
_cell_length_a     57.009674
_cell_length_b     20.873228
_cell_length_c     29.08289
_cell_angle_alpha  89.940199
_cell_angle_beta   92.368877
_cell_angle_gamma 90.252476
loop_
_atom_site_label
_atom_site_type_symbol
_atom_site_fract_x
_atom_site_fract_y
_atom_site_fract_z
_atom_type_partial_charge
Co0 Co 0.31116 0.0103 1.00729 0.0
C1 C 0.31108 0.93201 0.92172 0.0
C2 C 0.29783 0.02676 0.9089 0.0
C3 C 0.29682 0.99318 0.86812 0.0
N4 N 0.30697 0.98871 0.94246 0.0
N5 N 0.30505 0.93356 0.87616 0.0
H6 H 0.31827 0.89054 0.93956 0.0
H7 H 0.29176 0.07513 0.9137 0.0
C8 C 0.32282 0.15245 1.00737 0.0
O9 O 0.3396 0.14552 0.03934 0.0
N10 N 0.31476 0.03122 0.07293 0.0
C11 C 0.32404 0.99328 0.10658 0.0
C12 C 0.32175 0.02262 0.14856 0.0
C13 C 0.30618 0.08234 0.09556 0.0
N14 N 0.31072 0.07886 0.14156 0.0
C15 C 0.35572 0.94661 1.02127 0.0
C16 C 0.38253 0.03923 0.98021 0.0
C17 C 0.39422 0.98809 1.0027 0.0
C18 C 0.38017 0.93995 1.0217 0.0
C19 C 0.35805 0.04248 0.97901 0.0
N20 N 0.34503 0.99948 1.00263 0.0
H21 H 0.34539 0.90892 0.03592 0.0
H22 H 0.34977 0.08028 0.95914 0.0
H23 H 0.33145 0.94652 0.10163 0.0
H24 H 0.29644 0.12095 0.07902 0.0
O25 O 0.30165 0.9237 0.02317 0.0
O26 O 0.27785 0.0068 1.01337 0.0
O27 O 0.31207 0.10367 0.99039 0.0
C28 C 0.28035 0.94645 0.02286 0.0
H29 H 0.28992 0.01074 0.83526 0.0
H30 H 0.32799 0.00439 0.18169 0.0
H31 H 0.39195 0.07765 0.9641 0.0
H32 H 0.3878 0.89711 0.03685 0.0
Co33 Co 0.6562 0.97519 1.00928 0.0
C34 C 0.65492 0.89903 0.09587 0.0
C35 C 0.67909 0.97809 0.10134 0.0
C36 C 0.68198 0.94069 0.1402 0.0
N37 N 0.66216 0.95208 0.07345 0.0
N38 N 0.66685 0.89095 0.13674 0.0
H39 H 0.64243 0.86473 0.08126 0.0
H40 H 0.68969 0.01914 0.09274 0.0
C41 C 0.65505 0.12165 1.00872 0.0
O42 O 0.63774 0.12291 0.97745 0.0
N43 N 0.65085 0.99724 0.9443 0.0
C44 C 0.63553 0.96888 0.91406 0.0
C45 C 0.63706 0.99793 0.87167 0.0
C46 C 0.66209 0.04179 0.91916 0.0
N47 N 0.65355 0.04429 0.87504 0.0
C48 C 0.60958 0.92395 1.00924 0.0
C49 C 0.58678 0.03146 0.03896 0.0
C50 C 0.57313 0.97778 0.02533 0.0
C51 C 0.58525 0.92261 1.01245 0.0
C52 C 0.61133 0.02964 0.03729 0.0
N53 N 0.62239 0.9779 1.01943 0.0
H54 H 0.61797 0.88104 0.9978 0.0
H55 H 0.62111 0.07017 0.05053 0.0
H56 H 0.62389 0.92984 0.92195 0.0
H57 H 0.67594 0.0727 0.93299 0.0
O58 O 0.65903 0.88558 0.99285 0.0
O59 O 0.68843 0.955 0.99749 0.0
O60 O 0.66213 0.06842 0.02609 0.0
C61 C 0.6814 0.89635 0.99046 0.0
H62 H 0.69478 0.94829 0.16823 0.0
H63 H 0.62625 0.98735 0.84111 0.0
H64 H 0.57881 0.07529 0.05025 0.0
H65 H 0.57619 0.87812 1.00448 0.0
Co66 Co 0.31241 0.50268 0.51121 0.0
C67 C 0.31047 0.42354 0.42623 0.0
C68 C 0.29169 0.51195 0.41732 0.0
C69 C 0.28829 0.47579 0.37797 0.0
N70 N 0.30559 0.47925 0.44754 0.0
N71 N 0.30003 0.42009 0.38358 0.0
H72 H 0.32054 0.38522 0.4424 0.0
H73 H 0.28385 0.55791 0.42405 0.0
C74 C 0.32499 0.64253 0.51069 0.0
O75 O 0.34245 0.63282 0.54081 0.0
N76 N 0.31851 0.52605 0.57585 0.0
C77 C 0.33299 0.49696 0.60712 0.0
C78 C 0.3331 0.53072 0.64772 0.0
C79 C 0.30906 0.57544 0.59908 0.0
N80 N 0.31831 0.58067 0.64259 0.0
C81 C 0.35648 0.43505 0.51846 0.0
C82 C 0.38291 0.52762 0.47645 0.0
C83 C 0.39471 0.47602 0.49805 0.0
C84 C 0.38085 0.42765 0.51722 0.0
C85 C 0.35851 0.5318 0.47717 0.0
N86 N 0.34581 0.48917 0.50179 0.0
H87 H 0.34625 0.39787 0.53409 0.0
H88 H 0.35007 0.57037 0.45838 0.0
H89 H 0.3429 0.45409 0.6016 0.0
H90 H 0.2965 0.60867 0.58371 0.0
O91 O 0.3028 0.4174 0.52984 0.0
O92 O 0.27949 0.50184 0.52192 0.0
O93 O 0.31365 0.59535 0.49274 0.0
C94 C 0.28177 0.44148 0.53162 0.0
H95 H 0.27776 0.48924 0.3477 0.0
H96 H 0.34344 0.51938 0.6787 0.0
H97 H 0.39226 0.56595 0.46004 0.0
H98 H 0.38863 0.38459 0.53172 0.0
Co99 Co 0.65633 0.47562 0.50929 0.0
C100 C 0.65571 0.39848 0.5956 0.0
C101 C 0.67957 0.47819 0.60117 0.0
C102 C 0.68255 0.44084 0.64004 0.0
N103 N 0.66275 0.45179 0.57323 0.0
N104 N 0.66761 0.39065 0.63652 0.0
H105 H 0.64333 0.36391 0.58102 0.0
H106 H 0.68998 0.51967 0.59271 0.0
C107 C 0.65614 0.62236 0.50864 0.0
O108 O 0.63934 0.62461 0.47634 0.0
N109 N 0.65046 0.49822 0.44465 0.0
C110 C 0.63398 0.47254 0.41551 0.0
C111 C 0.63536 0.50139 0.37303 0.0
C112 C 0.66218 0.54091 0.41879 0.0
N113 N 0.65289 0.54495 0.37526 0.0
C114 C 0.61018 0.42246 0.51343 0.0
C115 C 0.58645 0.53217 0.53558 0.0
C116 C 0.57331 0.47644 0.52503 0.0
C117 C 0.58585 0.42044 0.51614 0.0
C118 C 0.61104 0.53132 0.53449 0.0
N119 N 0.62258 0.47804 0.52035 0.0
H120 H 0.61886 0.37868 0.50479 0.0
H121 H 0.62038 0.57383 0.54512 0.0
H122 H 0.62159 0.43574 0.42437 0.0
H123 H 0.67678 0.56982 0.43186 0.0
O124 O 0.6589 0.3863 0.49228 0.0
O125 O 0.68847 0.45523 0.49633 0.0
O126 O 0.66245 0.56876 0.52659 0.0
C127 C 0.68122 0.39678 0.48925 0.0
H128 H 0.69523 0.44897 0.66821 0.0
H129 H 0.62372 0.49288 0.34327 0.0
H130 H 0.57802 0.57678 0.5438 0.0
H131 H 0.57709 0.37485 0.51069 0.0
Co132 Co 0.82246 0.99283 0.53957 0.0
C133 C 0.81971 0.91783 0.45178 0.0
C134 C 0.82831 0.01614 0.4394 0.0
C135 C 0.82687 0.98438 0.39783 0.0
N136 N 0.82368 0.97461 0.47352 0.0
N137 N 0.82154 0.9225 0.40567 0.0
H138 H 0.81552 0.87369 0.46913 0.0
H139 H 0.83258 0.06622 0.44377 0.0
C140 C 0.82212 0.13753 0.52153 0.0
O141 O 0.83537 0.18854 0.51673 0.0
N142 N 0.82125 0.00985 0.60534 0.0
C143 C 0.82552 0.96651 0.639 0.0
C144 C 0.82499 0.99675 0.68104 0.0
C145 C 0.81811 0.06591 0.62756 0.0
N146 N 0.82035 0.05937 0.67384 0.0
C147 C 0.86405 0.91462 0.53268 0.0
C148 C 0.89422 0.00152 0.57636 0.0
C149 C 0.90352 0.94505 0.55881 0.0
C150 C 0.88811 0.90098 0.53692 0.0
C151 C 0.87027 0.01367 0.5708 0.0
N152 N 0.85552 0.97121 0.54837 0.0
H153 H 0.85232 0.87984 0.51659 0.0
H154 H 0.86361 0.05772 0.58456 0.0
H155 H 0.82942 0.91654 0.63333 0.0
H156 H 0.81543 0.11109 0.61059 0.0
O157 O 0.80847 0.9099 0.54912 0.0
O158 O 0.78846 0.99871 0.5335 0.0
O159 O 0.83231 0.0838 0.52781 0.0
C160 C 0.78824 0.93727 0.54154 0.0
H161 H 0.83 0.00502 0.36447 0.0
H162 H 0.82804 0.97441 0.71434 0.0
H163 H 0.90548 0.03699 0.59334 0.0
H164 H 0.89457 0.85632 0.52349 0.0
Co165 Co 0.16191 0.00061 0.55908 0.0
C166 C 0.16354 0.92233 0.64483 0.0
C167 C 0.17792 0.01662 0.65585 0.0
C168 C 0.17942 0.98358 0.69686 0.0
N169 N 0.16778 0.97851 0.62333 0.0
N170 N 0.17043 0.9243 0.68996 0.0
H171 H 0.15544 0.88118 0.62792 0.0
H172 H 0.18409 0.06492 0.65015 0.0
C173 C 0.14863 0.13976 0.55758 0.0
O174 O 0.13183 0.12926 0.52616 0.0
N175 N 0.15671 0.02322 0.49401 0.0
C176 C 0.14215 0.99489 0.46234 0.0
C177 C 0.14266 0.02869 0.42178 0.0
C178 C 0.16677 0.07227 0.47108 0.0
N179 N 0.15789 0.07789 0.42733 0.0
C180 C 0.119 0.9276 0.5498 0.0
C181 C 0.0908 0.01402 0.59311 0.0
C182 C 0.08034 0.96009 0.572 0.0
C183 C 0.0949 0.91541 0.55148 0.0
C184 C 0.11497 0.02407 0.59084 0.0
N185 N 0.12853 0.98354 0.56646 0.0
H186 H 0.12991 0.89268 0.53372 0.0
H187 H 0.12259 0.06451 0.60904 0.0
H188 H 0.13165 0.9528 0.46757 0.0
H189 H 0.1794 0.1052 0.48686 0.0
O190 O 0.17245 0.91629 0.54157 0.0
O191 O 0.19507 0.00255 0.5505 0.0
O192 O 0.15949 0.0931 0.57693 0.0
C193 C 0.19332 0.94204 0.54077 0.0
H194 H 0.18697 0.00144 0.72915 0.0
H195 H 0.13235 0.01815 0.3906 0.0
H196 H 0.08039 0.04816 0.61138 0.0
H197 H 0.08768 0.87231 0.53563 0.0
Co198 Co 0.8217 0.49185 0.0394 0.0
C199 C 0.8218 0.41312 0.95314 0.0
C200 C 0.8348 0.50801 0.94194 0.0
C201 C 0.83524 0.47454 0.9012 0.0
N202 N 0.8263 0.46971 0.97482 0.0
N203 N 0.82706 0.41475 0.90817 0.0
H204 H 0.81543 0.37082 0.97004 0.0
H205 H 0.84049 0.55703 0.94666 0.0
C206 C 0.82059 0.63331 1.01684 0.0
O207 O 0.83272 0.68581 1.00996 0.0
N208 N 0.81689 0.51425 0.1039 0.0
C209 C 0.80741 0.47644 0.13608 0.0
C210 C 0.80488 0.51125 0.17577 0.0
C211 C 0.82041 0.57142 0.12534 0.0
N212 N 0.81306 0.57093 0.16896 0.0
C213 C 0.86303 0.41242 0.04253 0.0
C214 C 0.89275 0.50285 0.08335 0.0
C215 C 0.90224 0.44477 0.06908 0.0
C216 C 0.88703 0.39884 0.0488 0.0
C217 C 0.86887 0.5149 0.07573 0.0
N218 N 0.85434 0.47057 0.05475 0.0
H219 H 0.8515 0.37675 0.02685 0.0
H220 H 0.86233 0.5609 0.08579 0.0
H221 H 0.80225 0.42696 0.13133 0.0
H222 H 0.82785 0.61321 0.10951 0.0
O223 O 0.80722 0.40923 0.04835 0.0
O224 O 0.78804 0.49709 0.02653 0.0
O225 O 0.83177 0.58198 0.02633 0.0
C226 C 0.78739 0.4362 0.03623 0.0
H227 H 0.84098 0.49327 0.8688 0.0
H228 H 0.79766 0.4939 0.20733 0.0
H229 H 0.90387 0.5399 0.09877 0.0
H230 H 0.89364 0.35307 0.03769 0.0
Co231 Co 0.16029 0.50325 0.06064 0.0
C232 C 0.16451 0.42454 0.14611 0.0
C233 C 0.17865 0.5193 0.15604 0.0
C234 C 0.18129 0.48613 0.19688 0.0
N235 N 0.16793 0.48098 0.12433 0.0
N236 N 0.17246 0.42656 0.19065 0.0
H237 H 0.15619 0.38319 0.12988 0.0
H238 H 0.18442 0.56786 0.14993 0.0
C239 C 0.14768 0.64279 0.05959 0.0
O240 O 0.1302 0.6328 0.02952 0.0
N241 N 0.1533 0.5258 0.99613 0.0
C242 C 0.13749 0.49858 0.96628 0.0
C243 C 0.13736 0.53158 0.92531 0.0
C244 C 0.16333 0.57337 0.97171 0.0
N245 N 0.15338 0.57922 0.92881 0.0
C246 C 0.11751 0.42916 0.05646 0.0
C247 C 0.08988 0.51724 0.09955 0.0
C248 C 0.07919 0.46236 0.08027 0.0
C249 C 0.09349 0.41687 0.05992 0.0
C250 C 0.11397 0.52733 0.09564 0.0
N251 N 0.1272 0.4858 0.07139 0.0
H252 H 0.12814 0.39395 0.04 0.0
H253 H 0.12175 0.56874 0.11233 0.0
H254 H 0.12659 0.45774 0.97304 0.0
H255 H 0.17682 0.60511 0.98593 0.0
O256 O 0.17052 0.41913 0.04177 0.0
O257 O 0.19306 0.50589 0.04846 0.0
O258 O 0.15832 0.59576 0.07894 0.0
C259 C 0.19117 0.44551 0.03849 0.0
H260 H 0.18946 0.50414 0.22858 0.0
H261 H 0.12614 0.52142 0.89525 0.0
H262 H 0.07969 0.5522 0.11753 0.0
H263 H 0.08608 0.37316 0.04534 0.0
C264 C 0.28085 0.35525 0.32127 0.0
C265 C 0.30034 0.36748 0.35117 0.0
C266 C 0.28122 0.30633 0.28803 0.0
C267 C 0.3017 0.26885 0.28407 0.0
C268 C 0.32128 0.28011 0.31477 0.0
C269 C 0.3203 0.32893 0.34808 0.0
C270 C 0.2598 0.29544 0.25667 0.0
C271 C 0.34356 0.2419 0.31147 0.0
C272 C 0.29898 0.10933 0.21949 0.0
C273 C 0.30673 0.12692 0.17606 0.0
C274 C 0.29672 0.1551 0.25461 0.0
C275 C 0.30302 0.21983 0.2466 0.0
C276 C 0.31095 0.23764 0.20279 0.0
C277 C 0.3123 0.19122 0.16791 0.0
C278 C 0.28786 0.13407 0.30045 0.0
C279 C 0.31842 0.30555 0.19288 0.0
H280 H 0.26519 0.38395 0.32395 0.0
H281 H 0.33546 0.33831 0.3708 0.0
H282 H 0.26405 0.30683 0.22067 0.0
H283 H 0.25439 0.24434 0.25758 0.0
H284 H 0.2447 0.3254 0.26629 0.0
H285 H 0.35694 0.255 0.33873 0.0
H286 H 0.33968 0.18995 0.31418 0.0
H287 H 0.35114 0.25005 0.27739 0.0
H288 H 0.29466 0.05959 0.22586 0.0
H289 H 0.3187 0.20455 0.13476 0.0
H290 H 0.27234 0.16288 0.30912 0.0
H291 H 0.3016 0.14253 0.32794 0.0
H292 H 0.2829 0.08254 0.30069 0.0
H293 H 0.30268 0.33661 0.19014 0.0
H294 H 0.3279 0.30909 0.1604 0.0
H295 H 0.33003 0.32455 0.22127 0.0
C296 C 0.64387 0.81342 0.18121 0.0
C297 C 0.6656 0.83767 0.16839 0.0
C298 C 0.6425 0.76468 0.21463 0.0
C299 C 0.66338 0.73807 0.23479 0.0
C300 C 0.6854 0.76109 0.22072 0.0
C301 C 0.68621 0.81106 0.18824 0.0
C302 C 0.61867 0.7431 0.2295 0.0
C303 C 0.70812 0.7333 0.24021 0.0
C304 C 0.66098 0.65674 0.35246 0.0
C305 C 0.65773 0.59222 0.34046 0.0
C306 C 0.66274 0.70463 0.31858 0.0
C307 C 0.66215 0.68742 0.27135 0.0
C308 C 0.65988 0.62184 0.25917 0.0
C309 C 0.65727 0.57528 0.29376 0.0
C310 C 0.66476 0.77373 0.3335 0.0
C311 C 0.65995 0.60088 0.20952 0.0
H312 H 0.62795 0.83429 0.16621 0.0
H313 H 0.70306 0.8292 0.17799 0.0
H314 H 0.61646 0.69087 0.22377 0.0
H315 H 0.61724 0.75181 0.26693 0.0
H316 H 0.60413 0.76851 0.21068 0.0
H317 H 0.72366 0.75246 0.22282 0.0
H318 H 0.71014 0.74446 0.27744 0.0
H319 H 0.70788 0.68035 0.23679 0.0
H320 H 0.66111 0.67001 0.3884 0.0
H321 H 0.65487 0.52539 0.28437 0.0
H322 H 0.65286 0.80453 0.31204 0.0
H323 H 0.68297 0.79091 0.32916 0.0
H324 H 0.66048 0.77993 0.37011 0.0
H325 H 0.64444 0.62079 0.19027 0.0
H326 H 0.65962 0.5479 0.20593 0.0
H327 H 0.67581 0.61982 0.19315 0.0
C328 C 0.29405 0.66508 0.67759 0.0
C329 C 0.31537 0.63204 0.67533 0.0
C330 C 0.29119 0.71421 0.71024 0.0
C331 C 0.3102 0.73152 0.74083 0.0
C332 C 0.33188 0.69927 0.73784 0.0
C333 C 0.33413 0.64994 0.70551 0.0
C334 C 0.26779 0.74736 0.71219 0.0
C335 C 0.35293 0.71773 0.76829 0.0
C336 C 0.31186 0.89682 0.79713 0.0
C337 C 0.3064 0.88268 0.84264 0.0
C338 C 0.31299 0.84847 0.76366 0.0
C339 C 0.30787 0.78413 0.77547 0.0
C340 C 0.30191 0.7697 0.82127 0.0
C341 C 0.30153 0.81896 0.8544 0.0
C342 C 0.31944 0.86704 0.7156 0.0
C343 C 0.29592 0.70214 0.83526 0.0
H344 H 0.2795 0.65175 0.65439 0.0
H345 H 0.35086 0.62604 0.70326 0.0
H346 H 0.26084 0.74212 0.7471 0.0
H347 H 0.27 0.79936 0.70568 0.0
H348 H 0.25465 0.72788 0.68656 0.0
H349 H 0.3686 0.68826 0.76157 0.0
H350 H 0.35738 0.76889 0.76266 0.0
H351 H 0.34877 0.71225 0.80502 0.0
H352 H 0.31566 0.94594 0.78783 0.0
H353 H 0.29693 0.8079 0.8893 0.0
H354 H 0.30312 0.87217 0.69386 0.0
H355 H 0.33052 0.83018 0.69979 0.0
H356 H 0.32895 0.9136 0.71523 0.0
H357 H 0.28155 0.68296 0.81224 0.0
H358 H 0.29039 0.69928 0.8714 0.0
H359 H 0.31137 0.67073 0.83154 0.0
C360 C 0.64461 0.31085 0.67906 0.0
C361 C 0.66632 0.33754 0.66836 0.0
C362 C 0.6431 0.26199 0.71236 0.0
C363 C 0.66385 0.2379 0.73473 0.0
C364 C 0.68588 0.26346 0.72291 0.0
C365 C 0.68681 0.31329 0.69034 0.0
C366 C 0.61921 0.2376 0.72475 0.0
C367 C 0.70849 0.23855 0.74493 0.0
C368 C 0.65978 0.15697 0.85223 0.0
C369 C 0.65816 0.09201 0.84041 0.0
C370 C 0.66144 0.20485 0.81833 0.0
C371 C 0.66244 0.18733 0.77132 0.0
C372 C 0.66172 0.12145 0.75937 0.0
C373 C 0.65918 0.07477 0.79392 0.0
C374 C 0.66175 0.2742 0.83298 0.0
C375 C 0.66344 0.10029 0.71003 0.0
H376 H 0.62875 0.32982 0.66244 0.0
H377 H 0.70366 0.33315 0.68174 0.0
H378 H 0.61804 0.1851 0.71924 0.0
H379 H 0.61656 0.24648 0.7618 0.0
H380 H 0.60478 0.26098 0.7042 0.0
H381 H 0.72422 0.25973 0.72935 0.0
H382 H 0.70921 0.24981 0.78222 0.0
H383 H 0.70926 0.18565 0.74157 0.0
H384 H 0.65872 0.17041 0.88797 0.0
H385 H 0.658 0.02456 0.78467 0.0
H386 H 0.65018 0.30348 0.80973 0.0
H387 H 0.67985 0.2935 0.83128 0.0
H388 H 0.65595 0.28 0.8687 0.0
H389 H 0.64814 0.11831 0.68914 0.0
H390 H 0.66403 0.04731 0.70671 0.0
H391 H 0.67945 0.12095 0.69524 0.0
C392 C 0.83367 0.1051 0.74904 0.0
C393 C 0.81972 0.10941 0.70824 0.0
C394 C 0.83384 0.15404 0.78228 0.0
C395 C 0.81953 0.20874 0.77498 0.0
C396 C 0.80492 0.21269 0.73439 0.0
C397 C 0.80538 0.1634 0.70135 0.0
C398 C 0.84975 0.14777 0.82484 0.0
C399 C 0.78916 0.26959 0.72521 0.0
C400 C 0.80829 0.314 0.87934 0.0
C401 C 0.82486 0.36338 0.87468 0.0
C402 C 0.80607 0.26399 0.84689 0.0
C403 C 0.82082 0.26293 0.80881 0.0
C404 C 0.83742 0.31285 0.80374 0.0
C405 C 0.83925 0.36221 0.8366 0.0
C406 C 0.78789 0.2123 0.85328 0.0
C407 C 0.85348 0.31382 0.76374 0.0
H408 H 0.845 0.06406 0.75449 0.0
H409 H 0.79435 0.16686 0.67021 0.0
H410 H 0.86294 0.18704 0.82574 0.0
H411 H 0.83941 0.15236 0.85616 0.0
H412 H 0.85915 0.10125 0.82626 0.0
H413 H 0.77531 0.25906 0.69828 0.0
H414 H 0.78056 0.28481 0.75692 0.0
H415 H 0.79986 0.31047 0.71338 0.0
H416 H 0.79681 0.3148 0.90809 0.0
H417 H 0.8523 0.39943 0.8328 0.0
H418 H 0.79659 0.16502 0.85689 0.0
H419 H 0.77578 0.20978 0.82246 0.0
H420 H 0.77741 0.22067 0.88406 0.0
H421 H 0.86449 0.2701 0.76438 0.0
H422 H 0.86521 0.35648 0.76427 0.0
H423 H 0.84293 0.31355 0.73081 0.0
C424 C 0.17887 0.65897 0.89114 0.0
C425 C 0.1569 0.62938 0.89527 0.0
C426 C 0.18228 0.70693 0.85773 0.0
C427 C 0.16318 0.72649 0.82823 0.0
C428 C 0.14088 0.69771 0.83307 0.0
C429 C 0.13807 0.64953 0.86617 0.0
C430 C 0.20631 0.73652 0.85388 0.0
C431 C 0.11981 0.71867 0.80375 0.0
C432 C 0.16427 0.8904 0.76994 0.0
C433 C 0.1687 0.87448 0.72427 0.0
C434 C 0.16261 0.84308 0.8041 0.0
C435 C 0.16611 0.77786 0.79278 0.0
C436 C 0.17101 0.76154 0.74679 0.0
C437 C 0.17197 0.80991 0.71301 0.0
C438 C 0.15733 0.86366 0.8523 0.0
C439 C 0.17517 0.69289 0.73325 0.0
H440 H 0.19349 0.64388 0.9135 0.0
H441 H 0.12088 0.62833 0.86985 0.0
H442 H 0.21254 0.72932 0.81862 0.0
H443 H 0.20538 0.78893 0.85974 0.0
H444 H 0.21939 0.71583 0.87903 0.0
H445 H 0.10364 0.69169 0.81179 0.0
H446 H 0.11662 0.77051 0.80913 0.0
H447 H 0.1232 0.71192 0.76678 0.0
H448 H 0.16164 0.94017 0.77886 0.0
H449 H 0.17573 0.79742 0.67794 0.0
H450 H 0.17404 0.86677 0.87307 0.0
H451 H 0.14566 0.82893 0.86915 0.0
H452 H 0.14895 0.91161 0.85265 0.0
H453 H 0.18941 0.67203 0.75565 0.0
H454 H 0.18002 0.6884 0.69679 0.0
H455 H 0.15909 0.66402 0.73829 0.0
C456 C 0.82648 0.80946 0.38229 0.0
C457 C 0.81905 0.87196 0.37178 0.0
C458 C 0.82516 0.76059 0.34891 0.0
C459 C 0.81579 0.77408 0.30402 0.0
C460 C 0.80776 0.83678 0.29356 0.0
C461 C 0.80968 0.88497 0.32736 0.0
C462 C 0.83418 0.69471 0.36147 0.0
C463 C 0.79715 0.85303 0.24658 0.0
C464 C 0.83255 0.66555 0.20496 0.0
C465 C 0.81339 0.62325 0.20149 0.0
C466 C 0.83356 0.71474 0.23812 0.0
C467 C 0.81471 0.72283 0.26792 0.0
C468 C 0.795 0.68132 0.26357 0.0
C469 C 0.79472 0.63169 0.23082 0.0
C470 C 0.85502 0.75732 0.24184 0.0
C471 C 0.77422 0.68921 0.29358 0.0
H472 H 0.83395 0.79923 0.41635 0.0
H473 H 0.80362 0.93293 0.3192 0.0
H474 H 0.81995 0.65871 0.3562 0.0
H475 H 0.84848 0.68139 0.33861 0.0
H476 H 0.84097 0.69192 0.39778 0.0
H477 H 0.79103 0.90343 0.24435 0.0
H478 H 0.81027 0.84536 0.22002 0.0
H479 H 0.78205 0.82079 0.23814 0.0
H480 H 0.84706 0.6589 0.18256 0.0
H481 H 0.77972 0.59967 0.22775 0.0
H482 H 0.86344 0.75321 0.27681 0.0
H483 H 0.8499 0.80813 0.23684 0.0
H484 H 0.86815 0.74491 0.21615 0.0
H485 H 0.7798 0.68229 0.33023 0.0
H486 H 0.75986 0.65467 0.28465 0.0
H487 H 0.76717 0.73853 0.29012 0.0
C488 C 0.14252 0.14967 0.36578 0.0
C489 C 0.16133 0.12938 0.39481 0.0
C490 C 0.14525 0.19868 0.33328 0.0
C491 C 0.16749 0.22802 0.32887 0.0
C492 C 0.18658 0.20835 0.3584 0.0
C493 C 0.18321 0.15971 0.39136 0.0
C494 C 0.12416 0.2197 0.30401 0.0
C495 C 0.21057 0.23829 0.35486 0.0
C496 C 0.17531 0.31235 0.21369 0.0
C497 C 0.17165 0.37668 0.22511 0.0
C498 C 0.17502 0.26387 0.24748 0.0
C499 C 0.17034 0.27977 0.29366 0.0
C500 C 0.16661 0.34481 0.30521 0.0
C501 C 0.16765 0.39231 0.27102 0.0
C502 C 0.17956 0.1955 0.23372 0.0
C503 C 0.16153 0.36482 0.35363 0.0
H504 H 0.12541 0.12775 0.369 0.0
H505 H 0.19779 0.14445 0.41376 0.0
H506 H 0.12099 0.27155 0.30935 0.0
H507 H 0.12754 0.21286 0.26705 0.0
H508 H 0.108 0.19276 0.3121 0.0
H509 H 0.22372 0.21689 0.37955 0.0
H510 H 0.21676 0.23237 0.31943 0.0
H511 H 0.20962 0.29048 0.36164 0.0
H512 H 0.17879 0.30016 0.17842 0.0
H513 H 0.16479 0.44192 0.28006 0.0
H514 H 0.16362 0.16598 0.23859 0.0
H515 H 0.19388 0.17502 0.25611 0.0
H516 H 0.18446 0.1915 0.19727 0.0
H517 H 0.14944 0.33058 0.3699 0.0
H518 H 0.15369 0.4134 0.35464 0.0
H519 H 0.17822 0.3659 0.37457 0.0
C520 C 0.53364 0.93764 0.99402 0.0
C521 C 0.54667 0.97888 0.02382 0.0
C522 C 0.50899 0.93699 0.99237 0.0
C523 C 0.49673 0.9813 1.01903 0.0
C524 C 0.50952 0.02424 0.04831 0.0
C525 C 0.53421 0.02144 0.05124 0.0
C526 C 0.49609 0.88874 0.96186 0.0
C527 C 0.49714 0.07399 0.07601 0.0
C528 C 0.43446 0.01756 0.97458 0.0
C529 C 0.42064 0.98532 1.00643 0.0
C530 C 0.45909 0.01863 0.97936 0.0
C531 C 0.47053 0.98352 1.01529 0.0
C532 C 0.45695 0.94912 0.04669 0.0
C533 C 0.4323 0.95179 0.04265 0.0
C534 C 0.47286 0.05772 0.94593 0.0
C535 C 0.46845 0.90882 0.08437 0.0
H536 H 0.54253 0.90586 0.97119 0.0
H537 H 0.54359 0.05291 0.07519 0.0
H538 H 0.48274 0.86286 0.98159 0.0
H539 H 0.48668 0.91368 0.93297 0.0
H540 H 0.50811 0.85304 0.94728 0.0
H541 H 0.50963 0.10624 0.09516 0.0
H542 H 0.48558 0.1035 0.05287 0.0
H543 H 0.48578 0.0503 0.10103 0.0
H544 H 0.42622 0.04213 0.94547 0.0
H545 H 0.42229 0.92776 0.06839 0.0
H546 H 0.48315 0.02555 0.92422 0.0
H547 H 0.48552 0.08957 0.96494 0.0
H548 H 0.46132 0.08764 0.92298 0.0
H549 H 0.48074 0.87427 0.06934 0.0
H550 H 0.45544 0.88168 0.10419 0.0
H551 H 0.4789 0.93971 0.10855 0.0
C552 C 0.43282 0.44236 0.53861 0.0
C553 C 0.42107 0.47372 0.50153 0.0
C554 C 0.45746 0.44151 0.54315 0.0
C555 C 0.47087 0.47528 0.51111 0.0
C556 C 0.45929 0.50775 0.47404 0.0
C557 C 0.43469 0.50516 0.46903 0.0
C558 C 0.46915 0.40416 0.58219 0.0
C559 C 0.47289 0.54582 0.43976 0.0
C560 C 0.53385 0.51991 0.54761 0.0
C561 C 0.54691 0.47618 0.52232 0.0
C562 C 0.50916 0.52089 0.54377 0.0
C563 C 0.49704 0.47527 0.51558 0.0
C564 C 0.50994 0.43009 0.49089 0.0
C565 C 0.53456 0.43224 0.49353 0.0
C566 C 0.49605 0.57135 0.56944 0.0
C567 C 0.49774 0.37926 0.46153 0.0
H568 H 0.42286 0.41896 0.56474 0.0
H569 H 0.42627 0.52809 0.43938 0.0
H570 H 0.48187 0.36966 0.56847 0.0
H571 H 0.47918 0.43712 0.60561 0.0
H572 H 0.4563 0.37727 0.60255 0.0
H573 H 0.4612 0.57271 0.41516 0.0
H574 H 0.4848 0.58039 0.45808 0.0
H575 H 0.48399 0.51334 0.4199 0.0
H576 H 0.54279 0.55354 0.57063 0.0
H577 H 0.54401 0.39945 0.47234 0.0
H578 H 0.48465 0.54835 0.59471 0.0
H579 H 0.48445 0.59876 0.54503 0.0
H580 H 0.50806 0.60545 0.58804 0.0
H581 H 0.48472 0.35305 0.48187 0.0
H582 H 0.51026 0.34408 0.44789 0.0
H583 H 0.48802 0.4019 0.43203 0.0
C584 C 0.03977 0.00375 0.55948 0.0
C585 C 0.05438 0.95161 0.57053 0.0
C586 C 0.01524 0.99708 0.55737 0.0
C587 C 0.00498 0.93683 0.56685 0.0
C588 C 0.01961 0.88386 0.5779 0.0
C589 C 0.04416 0.8918 0.57941 0.0
C590 C 0.00031 0.05468 0.54504 0.0
C591 C 0.00933 0.81906 0.58863 0.0
C592 C 0.94198 0.94685 0.60368 0.0
C593 C 0.92929 0.93418 0.5623 0.0
C594 C 0.9666 0.94483 0.60617 0.0
C595 C 0.9789 0.93029 0.5662 0.0
C596 C 0.96616 0.91465 0.52482 0.0
C597 C 0.94149 0.91651 0.52342 0.0
C598 C 0.97947 0.96102 0.65111 0.0
C599 C 0.9786 0.8992 0.4814 0.0
H600 H 0.04756 0.04981 0.55184 0.0
H601 H 0.05535 0.85143 0.58827 0.0
H602 H -0.01131 0.0439 0.51445 0.0
H603 H -0.01116 0.06614 0.57379 0.0
H604 H 0.01103 0.09772 0.53753 0.0
H605 H 0.02309 0.78242 0.59572 0.0
H606 H -0.00169 0.82269 0.61908 0.0
H607 H -0.00225 0.80247 0.5594 0.0
H608 H 0.9326 0.95972 0.63399 0.0
H609 H 0.93177 0.90715 0.49128 0.0
H610 H -0.01097 0.00708 0.64759 0.0
H611 H -0.00729 0.92375 0.66006 0.0
H612 H 0.96739 0.96545 0.67994 0.0
H613 H -0.0121 0.94254 0.46941 0.0
H614 H 0.96627 0.88252 0.4533 0.0
H615 H -0.00797 0.86168 0.4882 0.0
C616 C 0.94063 0.45069 0.11418 0.0
C617 C 0.92805 0.4346 0.07331 0.0
C618 C 0.96528 0.44924 0.11691 0.0
C619 C 0.97772 0.43204 0.07763 0.0
C620 C 0.96508 0.41323 0.03682 0.0
C621 C 0.94039 0.41439 0.03524 0.0
C622 C 0.97802 0.4687 0.16129 0.0
C623 C 0.97764 0.3951 0.99407 0.0
C624 C 0.03849 0.50536 0.06789 0.0
C625 C 0.05323 0.45393 0.08014 0.0
C626 C 0.01397 0.49854 0.06653 0.0
C627 C 0.00381 0.43894 0.07816 0.0
C628 C 0.01857 0.38678 0.0907 0.0
C629 C 0.04311 0.39478 0.09126 0.0
C630 C -0.00108 0.5552 0.05245 0.0
C631 C 0.00842 0.32275 0.10385 0.0
H632 H 0.93115 0.46573 0.14384 0.0
H633 H 0.93076 0.40249 1.00344 0.0
H634 H -0.00861 0.43238 0.17157 0.0
H635 H -0.01259 0.51469 0.15623 0.0
H636 H 0.96588 0.47474 0.18986 0.0
H637 H 0.96539 0.37663 0.96643 0.0
H638 H -0.01308 0.43768 0.98077 0.0
H639 H -0.00892 0.35809 1.0022 0.0
H640 H 0.0462 0.55089 0.05855 0.0
H641 H 0.05441 0.35498 0.10105 0.0
H642 H -0.01257 0.5683 0.08081 0.0
H643 H -0.01269 0.54244 0.02223 0.0
H644 H 0.00955 0.59784 0.04356 0.0
H645 H -0.00275 0.32853 0.1339 0.0
H646 H 0.02226 0.28693 0.11262 0.0
H647 H -0.00297 0.30375 0.07514 0.0
C648 C 0.23062 0.44075 1.00537 0.0
C649 C 0.21194 0.40909 0.02574 0.0
C650 C 0.25137 0.40823 0.99612 0.0
C651 C 0.25362 0.34306 1.0087 0.0
C652 C 0.23469 0.31078 0.02902 0.0
C653 C 0.2139 0.34406 0.03669 0.0
C654 C 0.27107 0.44389 0.97405 0.0
C655 C 0.23668 0.2416 0.04395 0.0
C656 C 0.29545 0.22273 0.96213 0.0
C657 C 0.31116 0.21489 1.00013 0.0
C658 C 0.27781 0.26917 0.9624 0.0
C659 C 0.27583 0.30818 1.00174 0.0
C660 C 0.29354 0.30622 0.03735 0.0
C661 C 0.31125 0.25987 0.03581 0.0
C662 C 0.25993 0.27183 0.92269 0.0
C663 C 0.29256 0.34765 0.07968 0.0
H664 H 0.22903 0.49117 0.99681 0.0
H665 H 0.19953 0.31991 0.05293 0.0
H666 H 0.28643 0.44718 0.99865 0.0
H667 H 0.27678 0.41743 0.94342 0.0
H668 H 0.26589 0.49313 0.96338 0.0
H669 H 0.22047 0.22381 0.05973 0.0
H670 H 0.2403 0.21089 1.01397 0.0
H671 H 0.25162 0.23614 0.06935 0.0
H672 H 0.29575 0.18918 0.93375 0.0
H673 H 0.32375 0.25525 0.06466 0.0
H674 H 0.25549 0.32216 0.91383 0.0
H675 H 0.24355 0.24757 0.93269 0.0
H676 H 0.26631 0.24761 0.89161 0.0
H677 H 0.28271 0.39265 0.07327 0.0
H678 H 0.31055 0.36019 0.09286 0.0
H679 H 0.28377 0.32039 0.10693 0.0
C680 C 0.78292 0.63428 0.97193 0.0
C681 C 0.79493 0.63798 1.01479 0.0
C682 C 0.76087 0.66335 0.96483 0.0
C683 C 0.75092 0.69704 1.00148 0.0
C684 C 0.76185 0.69431 0.04606 0.0
C685 C 0.78393 0.66557 0.05199 0.0
C686 C 0.74963 0.66419 0.91697 0.0
C687 C 0.7517 0.72848 0.0864 0.0
C688 C 0.72199 0.85761 0.97924 0.0
C689 C 0.69836 0.84359 0.98606 0.0
C690 C 0.73903 0.80943 0.98182 0.0
C691 C 0.73231 0.74558 0.99179 0.0
C692 C 0.7083 0.73048 0.99638 0.0
C693 C 0.69156 0.77977 0.99338 0.0
C694 C 0.76444 0.82765 0.97618 0.0
C695 C 0.70042 0.66316 1.00703 0.0
H696 H 0.79168 0.61393 0.94298 0.0
H697 H 0.79346 0.6703 0.08479 0.0
H698 H 0.73029 0.65912 0.91802 0.0
H699 H 0.75343 0.7108 0.90039 0.0
H700 H 0.75654 0.62536 0.89526 0.0
H701 H 0.75994 0.71243 0.11972 0.0
H702 H 0.75473 0.7808 0.08296 0.0
H703 H 0.73247 0.72048 0.08713 0.0
H704 H 0.72731 0.90676 0.97333 0.0
H705 H 0.67329 0.76867 0.9989 0.0
H706 H 0.77236 0.79638 0.95025 0.0
H707 H 0.7745 0.82065 1.00929 0.0
H708 H 0.76652 0.87834 0.96534 0.0
H709 H 0.70962 0.62771 0.98591 0.0
H710 H 0.68117 0.65697 1.00099 0.0
H711 H 0.70486 0.65221 0.0437 0.0
C712 C 0.17523 0.72029 0.09781 0.0
C713 C 0.16078 0.70377 0.05944 0.0
C714 C 0.19336 0.76537 0.09416 0.0
C715 C 0.19736 0.79353 0.05088 0.0
C716 C 0.18178 0.78033 1.01284 0.0
C717 C 0.1634 0.73623 1.01777 0.0
C718 C 0.20927 0.77916 0.13579 0.0
C719 C 0.1856 0.8088 0.96603 0.0
C720 C 0.23858 0.93601 0.04346 0.0
C721 C 0.25961 0.90651 0.03188 0.0
C722 C 0.21824 0.89984 0.05023 0.0
C723 C 0.21885 0.83264 0.0446 0.0
C724 C 0.24006 0.8025 0.03298 0.0
C725 C 0.26029 0.83984 0.02716 0.0
C726 C 0.19609 0.93355 0.06325 0.0
C727 C 0.24126 0.73092 0.02599 0.0
H728 H 0.17325 0.69497 0.13001 0.0
H729 H 0.15249 0.72288 0.98785 0.0
H730 H 0.22669 0.75715 0.13108 0.0
H731 H 0.21206 0.83151 0.13989 0.0
H732 H 0.20208 0.75978 0.16792 0.0
H733 H 0.17152 0.79475 0.94048 0.0
H734 H 0.18633 0.86181 0.96819 0.0
H735 H 0.20268 0.79246 0.95343 0.0
H736 H 0.23802 0.98762 0.04736 0.0
H737 H 0.27647 0.81705 1.01781 0.0
H738 H 0.18982 0.91359 0.09595 0.0
H739 H 0.182 0.92528 0.03644 0.0
H740 H 0.19872 0.98602 0.06745 0.0
H741 H 0.23648 0.70568 0.05788 0.0
H742 H 0.25901 0.71501 1.01662 0.0
H743 H 0.2284 0.71604 0.9983 0.0
C744 C 0.68459 0.18285 0.05756 0.0
C745 C 0.66926 0.18024 1.01862 0.0
C746 C 0.70137 0.23207 0.06299 0.0
C747 C 0.70342 0.27871 0.02792 0.0
C748 C 0.68692 0.27883 0.9901 0.0
C749 C 0.66981 0.23015 0.98633 0.0
C750 C 0.71779 0.23193 0.10505 0.0
C751 C 0.68824 0.32665 0.95131 0.0
C752 C 0.7443 0.42259 0.0475 0.0
C753 C 0.7655 0.3982 0.0324 0.0
C754 C 0.72384 0.38435 0.0465 0.0
C755 C 0.72451 0.32145 0.0282 0.0
C756 C 0.74572 0.29807 1.01098 0.0
C757 C 0.76605 0.33608 1.0144 0.0
C758 C 0.70166 0.41072 0.06556 0.0
C759 C 0.74697 0.23278 0.98887 0.0
H760 H 0.68401 0.14514 0.08315 0.0
H761 H 0.65784 0.22921 0.95645 0.0
H762 H 0.73545 0.21595 0.09537 0.0
H763 H 0.71969 0.28101 0.11943 0.0
H764 H 0.71158 0.19938 0.13228 0.0
H765 H 0.67036 0.33918 0.93771 0.0
H766 H 0.69752 0.37143 0.9617 0.0
H767 H 0.69777 0.30457 0.92285 0.0
H768 H 0.74392 0.47066 0.06155 0.0
H769 H 0.7824 0.31736 1.00236 0.0
H770 H 0.69572 0.37919 0.0936 0.0
H771 H 0.68746 0.41128 0.0383 0.0
H772 H 0.7041 0.46009 0.07924 0.0
H773 H 0.74379 0.19499 1.01474 0.0
H774 H 0.76428 0.22389 0.97391 0.0
H775 H 0.73309 0.2281 0.96115 0.0
C776 C 0.21436 0.83788 0.53649 0.0
C777 C 0.21441 0.90452 0.53135 0.0
C778 C 0.23491 0.80248 0.531 0.0
C779 C 0.25582 0.83457 0.51926 0.0
C780 C 0.25579 0.90172 0.513 0.0
C781 C 0.2351 0.93601 0.51951 0.0
C782 C 0.23438 0.73088 0.53864 0.0
C783 C 0.27762 0.9373 0.49977 0.0
C784 C 0.31066 0.73953 0.54933 0.0
C785 C 0.31307 0.7048 0.50865 0.0
C786 C 0.29281 0.78507 0.55264 0.0
C787 C 0.27762 0.79725 0.51387 0.0
C788 C 0.28173 0.76735 0.47133 0.0
C789 C 0.29929 0.72083 0.46935 0.0
C790 C 0.28883 0.81538 0.59874 0.0
C791 C 0.26624 0.78007 0.42897 0.0
H792 H 0.19844 0.81359 0.54606 0.0
H793 H 0.23514 0.98763 0.51534 0.0
H794 H 0.23949 0.70566 0.50705 0.0
H795 H 0.24729 0.71759 0.56661 0.0
H796 H 0.21676 0.7134 0.54795 0.0
H797 H 0.27442 0.98931 0.4945 0.0
H798 H 0.29164 0.93142 0.52702 0.0
H799 H 0.28432 0.91696 0.46763 0.0
H800 H 0.32112 0.7266 0.57992 0.0
H801 H 0.30116 0.69377 0.4379 0.0
H802 H 0.27183 0.79853 0.61167 0.0
H803 H 0.28783 0.86822 0.59535 0.0
H804 H 0.30295 0.8032 0.62467 0.0
H805 H 0.24892 0.75668 0.43289 0.0
H806 H 0.27399 0.76114 0.39732 0.0
H807 H 0.26313 0.83219 0.42456 0.0
C808 C 0.72032 0.35529 0.46889 0.0
C809 C 0.69792 0.34359 0.48493 0.0
C810 C 0.73767 0.30789 0.47174 0.0
C811 C 0.73265 0.24803 0.49236 0.0
C812 C 0.70963 0.23473 0.50621 0.0
C813 C 0.69243 0.28262 0.50191 0.0
C814 C 0.76188 0.32364 0.45561 0.0
C815 C 0.70361 0.17208 0.52893 0.0
C816 C 0.78244 0.12934 0.48296 0.0
C817 C 0.79658 0.1469 0.52144 0.0
C818 C 0.76035 0.1579 0.4746 0.0
C819 C 0.75242 0.2046 0.50564 0.0
C820 C 0.76573 0.21748 0.54676 0.0
C821 C 0.78786 0.1896 0.55357 0.0
C822 C 0.7467 0.14281 0.43039 0.0
C823 C 0.75773 0.26571 0.58144 0.0
H824 H 0.72451 0.40228 0.45548 0.0
H825 H 0.67512 0.27361 0.5147 0.0
H826 H 0.77419 0.3297 0.48588 0.0
H827 H 0.76854 0.28391 0.43454 0.0
H828 H 0.76206 0.36843 0.43496 0.0
H829 H 0.68433 0.16401 0.52898 0.0
H830 H 0.71184 0.13116 0.51151 0.0
H831 H 0.71052 0.17265 0.56516 0.0
H832 H 0.78942 0.09776 0.45742 0.0
H833 H 0.7991 0.2051 0.58246 0.0
H834 H 0.74949 0.18179 0.4052 0.0
H835 H 0.7276 0.13996 0.43604 0.0
H836 H 0.75246 0.09701 0.41512 0.0
H837 H 0.75896 0.31471 0.56686 0.0
H838 H 0.76861 0.26409 0.61398 0.0
H839 H 0.73913 0.257 0.58946 0.0
C840 C 0.16465 0.23486 0.51838 0.0
C841 C 0.16103 0.20175 0.5594 0.0
C842 C 0.18305 0.27942 0.51568 0.0
C843 C 0.19757 0.29231 0.55532 0.0
C844 C 0.19237 0.26385 0.59791 0.0
C845 C 0.17425 0.21839 0.59934 0.0
C846 C 0.18816 0.30822 0.46954 0.0
C847 C 0.20715 0.27724 0.64113 0.0
C848 C 0.26128 0.33571 0.53679 0.0
C849 C 0.26088 0.40245 0.54118 0.0
C850 C 0.24074 0.29927 0.54142 0.0
C851 C 0.21947 0.33042 0.55132 0.0
C852 C 0.21915 0.39762 0.557 0.0
C853 C 0.23985 0.43287 0.55161 0.0
C854 C 0.24167 0.22759 0.53469 0.0
C855 C 0.19691 0.43235 0.5681 0.0
H856 H 0.15468 0.22142 0.48729 0.0
H857 H 0.17148 0.19255 0.63105 0.0
H858 H 0.1896 0.3611 0.4722 0.0
H859 H 0.20524 0.2902 0.45805 0.0
H860 H 0.17438 0.29595 0.44288 0.0
H861 H 0.19887 0.25842 0.67235 0.0
H862 H 0.22456 0.2543 0.63848 0.0
H863 H 0.21017 0.32947 0.64541 0.0
H864 H 0.27745 0.31217 0.52832 0.0
H865 H 0.23948 0.48455 0.55518 0.0
H866 H 0.22952 0.21326 0.50567 0.0
H867 H 0.23578 0.20269 0.56592 0.0
H868 H 0.25959 0.21074 0.52737 0.0
H869 H 0.18352 0.42564 0.53972 0.0
H870 H 0.19986 0.48454 0.57331 0.0
H871 H 0.18953 0.41199 0.59969 0.0
C872 C 0.67149 0.7309 0.48803 0.0
C873 C 0.67035 0.68053 0.51985 0.0
C874 C 0.68848 0.77967 0.49339 0.0
C875 C 0.70431 0.77907 0.53227 0.0
C876 C 0.70167 0.73185 0.56674 0.0
C877 C 0.685 0.68261 0.5598 0.0
C878 C 0.69046 0.82809 0.45514 0.0
C879 C 0.71738 0.73112 0.6098 0.0
C880 C 0.76712 0.83637 0.52101 0.0
C881 C 0.76644 0.89864 0.53878 0.0
C882 C 0.74686 0.79812 0.51742 0.0
C883 C 0.72551 0.82151 0.53398 0.0
C884 C 0.72472 0.88441 0.55228 0.0
C885 C 0.74514 0.92283 0.55361 0.0
C886 C 0.7483 0.73272 0.49552 0.0
C887 C 0.70237 0.91076 0.57065 0.0
H888 H 0.66009 0.7303 0.45732 0.0
H889 H 0.68397 0.64454 0.58502 0.0
H890 H 0.69935 0.87296 0.4666 0.0
H891 H 0.70069 0.80673 0.42739 0.0
H892 H 0.67281 0.84034 0.44016 0.0
H893 H 0.71064 0.69835 0.63639 0.0
H894 H 0.7352 0.71503 0.60123 0.0
H895 H 0.71911 0.78003 0.62455 0.0
H896 H 0.78351 0.81783 0.50901 0.0
H897 H 0.74462 0.97104 0.56736 0.0
H898 H 0.73474 0.72807 0.46719 0.0
H899 H 0.74476 0.69505 0.52127 0.0
H900 H 0.76579 0.72359 0.48139 0.0
H901 H 0.68849 0.9122 0.54278 0.0
H902 H 0.70479 0.95978 0.58497 0.0
H903 H 0.696 0.87875 0.59801 0.0
loop_
_geom_bond_atom_site_label_1
_geom_bond_atom_site_label_2
_geom_bond_distance
_geom_bond_site_symmetry_2
_ccdc_geom_bond_type
Co0 N4 2.148 1_554 S
Co0 N10 2.128 1_565 S
Co0 N20 2.196 . S
Co0 O25 2.351 . S
Co0 O26 2.155 . S
Co0 O27 2.096 1_564 S
C1 N4 1.301 . S
C1 N5 1.328 . S
C1 H6 0.930 . S
C2 C3 1.333 1_545 S
C2 N4 1.317 1_545 S
C2 H7 0.930 . S
C3 C2 1.333 1_565 S
C3 N5 1.350 . S
C3 H29 0.931 . S
N4 Co0 2.148 1_556 S
N4 C1 1.301 . S
N4 C2 1.317 1_565 S
N5 C1 1.328 . S
N5 C3 1.350 . S
H6 C1 0.930 . S
H7 C2 0.930 . S
C8 O9 1.224 . S
C8 O27 1.247 . S
O9 C8 1.224 . S
N10 Co0 2.128 1_545 S
N10 C11 1.355 . S
N10 C13 1.311 . S
C11 N10 1.355 . S
C11 C12 1.363 . S
C11 H23 0.929 1_545 S
C12 C11 1.363 . S
C12 N14 1.375 . S
C12 H30 0.931 . S
C13 N10 1.311 . S
C13 N14 1.347 . S
C13 H24 0.929 . S
N14 C12 1.375 . S
N14 C13 1.347 . S
C15 C18 1.365 . S
C15 N20 1.331 . S
C15 H21 0.929 . S
C16 C17 1.362 1_556 S
C16 C19 1.378 . S
C16 H31 0.929 . S
C17 C16 1.362 1_554 S
C17 C18 1.366 1_545 S
C18 C15 1.365 . S
C18 C17 1.366 1_565 S
C18 H32 0.930 . S
C19 C16 1.378 . S
C19 N20 1.312 1_546 S
C19 H22 0.930 . S
N20 Co0 2.196 . S
N20 C15 1.331 . S
N20 C19 1.312 1_564 S
H21 C15 0.929 . S
H22 C19 0.930 . S
H23 C11 0.929 1_565 S
H24 C13 0.929 . S
O25 Co0 2.351 . S
O25 C28 1.244 . S
O26 Co0 2.155 . S
O26 C28 1.240 . S
O27 Co0 2.096 1_546 S
O27 C8 1.247 . S
C28 O25 1.244 . S
C28 O26 1.240 . S
H29 C3 0.931 . S
H30 C12 0.931 . S
H31 C16 0.929 . S
H32 C18 0.930 . S
Co33 N37 2.148 . S
Co33 N43 2.128 1_564 S
Co33 N53 2.194 . S
Co33 O58 2.351 1_554 S
Co33 O59 2.155 1_554 S
Co33 O60 2.096 1_565 S
C34 N37 1.301 . S
C34 N38 1.328 . S
C34 H39 0.930 . S
C35 C36 1.333 1_545 S
C35 N37 1.317 1_545 S
C35 H40 0.930 . S
C36 C35 1.333 1_565 S
C36 N38 1.350 . S
C36 H62 0.931 . S
N37 Co33 2.148 . S
N37 C34 1.301 . S
N37 C35 1.317 1_565 S
N38 C34 1.328 . S
N38 C36 1.350 . S
H39 C34 0.930 . S
H40 C35 0.930 . S
C41 O42 1.224 . S
C41 O60 1.247 . S
O42 C41 1.224 . S
N43 Co33 2.128 1_546 S
N43 C44 1.355 . S
N43 C46 1.311 . S
C44 N43 1.355 . S
C44 C45 1.363 . S
C44 H56 0.929 1_545 S
C45 C44 1.363 . S
C45 N47 1.375 . S
C45 H63 0.931 . S
C46 N43 1.311 . S
C46 N47 1.347 . S
C46 H57 0.929 . S
N47 C45 1.375 . S
N47 C46 1.347 . S
C48 C51 1.365 . S
C48 N53 1.328 . S
C48 H54 0.929 . S
C49 C50 1.362 . S
C49 C52 1.378 . S
C49 H64 0.929 . S
C50 C49 1.362 . S
C50 C51 1.366 1_545 S
C51 C48 1.365 . S
C51 C50 1.366 1_565 S
C51 H65 0.930 . S
C52 C49 1.378 . S
C52 N53 1.315 1_545 S
C52 H55 0.930 . S
N53 Co33 2.194 . S
N53 C48 1.328 . S
N53 C52 1.315 1_565 S
H54 C48 0.929 . S
H55 C52 0.930 . S
H56 C44 0.929 1_565 S
H57 C46 0.929 . S
O58 Co33 2.351 1_556 S
O58 C61 1.244 . S
O59 Co33 2.155 1_556 S
O59 C61 1.240 . S
O60 Co33 2.096 1_545 S
O60 C41 1.247 . S
C61 O58 1.244 . S
C61 O59 1.240 . S
H62 C36 0.931 . S
H63 C45 0.931 . S
H64 C49 0.929 . S
H65 C51 0.930 . S
Co66 N70 2.148 . S
Co66 N76 2.128 . S
Co66 N86 2.194 . S
Co66 O91 2.351 . S
Co66 O92 2.155 . S
Co66 O93 2.096 . S
C67 N70 1.301 . S
C67 N71 1.328 . S
C67 H72 0.930 . S
C68 C69 1.333 . S
C68 N70 1.317 . S
C68 H73 0.930 . S
C69 C68 1.333 . S
C69 N71 1.350 . S
C69 H95 0.931 . S
N70 Co66 2.148 . S
N70 C67 1.301 . S
N70 C68 1.317 . S
N71 C67 1.328 . S
N71 C69 1.350 . S
H72 C67 0.930 . S
H73 C68 0.930 . S
C74 O75 1.224 . S
C74 O93 1.247 . S
O75 C74 1.224 . S
N76 Co66 2.128 . S
N76 C77 1.355 . S
N76 C79 1.311 . S
C77 N76 1.355 . S
C77 C78 1.363 . S
C77 H89 0.929 . S
C78 C77 1.363 . S
C78 N80 1.375 . S
C78 H96 0.931 . S
C79 N76 1.311 . S
C79 N80 1.347 . S
C79 H90 0.929 . S
N80 C78 1.375 . S
N80 C79 1.347 . S
C81 C84 1.365 . S
C81 N86 1.328 . S
C81 H87 0.929 . S
C82 C83 1.362 . S
C82 C85 1.378 . S
C82 H97 0.929 . S
C83 C82 1.362 . S
C83 C84 1.366 . S
C84 C81 1.365 . S
C84 C83 1.366 . S
C84 H98 0.930 . S
C85 C82 1.378 . S
C85 N86 1.315 . S
C85 H88 0.930 . S
N86 Co66 2.194 . S
N86 C81 1.328 . S
N86 C85 1.315 . S
H87 C81 0.929 . S
H88 C85 0.930 . S
H89 C77 0.929 . S
H90 C79 0.929 . S
O91 Co66 2.351 . S
O91 C94 1.244 . S
O92 Co66 2.155 . S
O92 C94 1.240 . S
O93 Co66 2.096 . S
O93 C74 1.247 . S
C94 O91 1.244 . S
C94 O92 1.240 . S
H95 C69 0.931 . S
H96 C78 0.931 . S
H97 C82 0.929 . S
H98 C84 0.930 . S
Co99 N103 2.148 . S
Co99 N109 2.128 . S
Co99 N119 2.194 . S
Co99 O124 2.351 . S
Co99 O125 2.155 . S
Co99 O126 2.096 . S
C100 N103 1.301 . S
C100 N104 1.328 . S
C100 H105 0.930 . S
C101 C102 1.333 . S
C101 N103 1.317 . S
C101 H106 0.930 . S
C102 C101 1.333 . S
C102 N104 1.350 . S
C102 H128 0.931 . S
N103 Co99 2.148 . S
N103 C100 1.301 . S
N103 C101 1.317 . S
N104 C100 1.328 . S
N104 C102 1.350 . S
H105 C100 0.930 . S
H106 C101 0.930 . S
C107 O108 1.224 . S
C107 O126 1.247 . S
O108 C107 1.224 . S
N109 Co99 2.128 . S
N109 C110 1.355 . S
N109 C112 1.311 . S
C110 N109 1.355 . S
C110 C111 1.363 . S
C110 H122 0.929 . S
C111 C110 1.363 . S
C111 N113 1.375 . S
C111 H129 0.931 . S
C112 N109 1.311 . S
C112 N113 1.347 . S
C112 H123 0.929 . S
N113 C111 1.375 . S
N113 C112 1.347 . S
C114 C117 1.365 . S
C114 N119 1.328 . S
C114 H120 0.929 . S
C115 C116 1.362 . S
C115 C118 1.378 . S
C115 H130 0.929 . S
C116 C115 1.362 . S
C116 C117 1.366 . S
C117 C114 1.365 . S
C117 C116 1.366 . S
C117 H131 0.930 . S
C118 C115 1.378 . S
C118 N119 1.315 . S
C118 H121 0.930 . S
N119 Co99 2.194 . S
N119 C114 1.328 . S
N119 C118 1.315 . S
H120 C114 0.929 . S
H121 C118 0.930 . S
H122 C110 0.929 . S
H123 C112 0.929 . S
O124 Co99 2.351 . S
O124 C127 1.244 . S
O125 Co99 2.155 . S
O125 C127 1.240 . S
O126 Co99 2.096 . S
O126 C107 1.247 . S
C127 O124 1.244 . S
C127 O125 1.240 . S
H128 C102 0.931 . S
H129 C111 0.931 . S
H130 C115 0.929 . S
H131 C117 0.930 . S
Co132 N136 2.148 . S
Co132 N142 2.128 1_565 S
Co132 N152 2.194 . S
Co132 O157 2.351 . S
Co132 O158 2.155 . S
Co132 O159 2.096 1_565 S
C133 N136 1.301 . S
C133 N137 1.328 . S
C133 H138 0.930 . S
C134 C135 1.333 1_545 S
C134 N136 1.317 1_545 S
C134 H139 0.930 . S
C135 C134 1.333 1_565 S
C135 N137 1.350 . S
C135 H161 0.931 . S
N136 Co132 2.148 . S
N136 C133 1.301 . S
N136 C134 1.317 1_565 S
N137 C133 1.328 . S
N137 C135 1.350 . S
H138 C133 0.930 . S
H139 C134 0.930 . S
C140 O141 1.224 . S
C140 O159 1.247 . S
O141 C140 1.224 . S
N142 Co132 2.128 1_545 S
N142 C143 1.355 . S
N142 C145 1.311 . S
C143 N142 1.355 . S
C143 C144 1.363 . S
C143 H155 0.929 1_545 S
C144 C143 1.363 . S
C144 N146 1.375 . S
C144 H162 0.931 . S
C145 N142 1.311 . S
C145 N146 1.347 . S
C145 H156 0.929 . S
N146 C144 1.375 . S
N146 C145 1.347 . S
C147 C150 1.365 . S
C147 N152 1.328 . S
C147 H153 0.929 . S
C148 C149 1.362 . S
C148 C151 1.378 . S
C148 H163 0.929 . S
C149 C148 1.362 . S
C149 C150 1.366 1_545 S
C150 C147 1.365 . S
C150 C149 1.366 1_565 S
C150 H164 0.930 . S
C151 C148 1.378 . S
C151 N152 1.315 1_545 S
C151 H154 0.930 . S
N152 Co132 2.194 . S
N152 C147 1.328 . S
N152 C151 1.315 1_565 S
H153 C147 0.929 . S
H154 C151 0.930 . S
H155 C143 0.929 1_565 S
H156 C145 0.929 . S
O157 Co132 2.351 . S
O157 C160 1.244 . S
O158 Co132 2.155 . S
O158 C160 1.240 . S
O159 Co132 2.096 1_545 S
O159 C140 1.247 . S
C160 O157 1.244 . S
C160 O158 1.240 . S
H161 C135 0.931 . S
H162 C144 0.931 . S
H163 C148 0.929 . S
H164 C150 0.930 . S
Co165 N169 2.148 . S
Co165 N175 2.128 1_565 S
Co165 N185 2.194 . S
Co165 O190 2.351 . S
Co165 O191 2.155 . S
Co165 O192 2.096 1_565 S
C166 N169 1.301 . S
C166 N170 1.328 . S
C166 H171 0.930 . S
C167 C168 1.333 1_545 S
C167 N169 1.317 1_545 S
C167 H172 0.930 . S
C168 C167 1.333 1_565 S
C168 N170 1.350 . S
C168 H194 0.931 . S
N169 Co165 2.148 . S
N169 C166 1.301 . S
N169 C167 1.317 1_565 S
N170 C166 1.328 . S
N170 C168 1.350 . S
H171 C166 0.930 . S
H172 C167 0.930 . S
C173 O174 1.224 . S
C173 O192 1.247 . S
O174 C173 1.224 . S
N175 Co165 2.128 1_545 S
N175 C176 1.355 . S
N175 C178 1.311 . S
C176 N175 1.355 . S
C176 C177 1.363 . S
C176 H188 0.929 1_545 S
C177 C176 1.363 . S
C177 N179 1.375 . S
C177 H195 0.931 . S
C178 N175 1.311 . S
C178 N179 1.347 . S
C178 H189 0.929 . S
N179 C177 1.375 . S
N179 C178 1.347 . S
C180 C183 1.365 . S
C180 N185 1.328 . S
C180 H186 0.929 . S
C181 C182 1.362 . S
C181 C184 1.378 . S
C181 H196 0.929 . S
C182 C181 1.362 . S
C182 C183 1.366 1_545 S
C183 C180 1.365 . S
C183 C182 1.366 1_565 S
C183 H197 0.930 . S
C184 C181 1.378 . S
C184 N185 1.315 1_545 S
C184 H187 0.930 . S
N185 Co165 2.194 . S
N185 C180 1.328 . S
N185 C184 1.315 1_565 S
H186 C180 0.929 . S
H187 C184 0.930 . S
H188 C176 0.929 1_565 S
H189 C178 0.929 . S
O190 Co165 2.351 . S
O190 C193 1.244 . S
O191 Co165 2.155 . S
O191 C193 1.240 . S
O192 Co165 2.096 1_545 S
O192 C173 1.247 . S
C193 O190 1.244 . S
C193 O191 1.240 . S
H194 C168 0.931 . S
H195 C177 0.931 . S
H196 C181 0.929 . S
H197 C183 0.930 . S
Co198 N202 2.148 1_554 S
Co198 N208 2.128 . S
Co198 N218 2.196 . S
Co198 O223 2.351 . S
Co198 O224 2.155 . S
Co198 O225 2.096 1_554 S
C199 N202 1.301 . S
C199 N203 1.328 . S
C199 H204 0.930 . S
C200 C201 1.333 . S
C200 N202 1.317 . S
C200 H205 0.930 . S
C201 C200 1.333 . S
C201 N203 1.350 . S
C201 H227 0.931 . S
N202 Co198 2.148 1_556 S
N202 C199 1.301 . S
N202 C200 1.317 . S
N203 C199 1.328 . S
N203 C201 1.350 . S
H204 C199 0.930 . S
H205 C200 0.930 . S
C206 O207 1.224 . S
C206 O225 1.247 . S
O207 C206 1.224 . S
N208 Co198 2.128 . S
N208 C209 1.355 . S
N208 C211 1.311 . S
C209 N208 1.355 . S
C209 C210 1.363 . S
C209 H221 0.929 . S
C210 C209 1.363 . S
C210 N212 1.375 . S
C210 H228 0.931 . S
C211 N208 1.311 . S
C211 N212 1.347 . S
C211 H222 0.929 . S
N212 C210 1.375 . S
N212 C211 1.347 . S
C213 C216 1.365 . S
C213 N218 1.331 . S
C213 H219 0.929 . S
C214 C215 1.362 1_556 S
C214 C217 1.378 . S
C214 H229 0.929 . S
C215 C214 1.362 1_554 S
C215 C216 1.366 . S
C216 C213 1.365 . S
C216 C215 1.366 . S
C216 H230 0.930 . S
C217 C214 1.378 . S
C217 N218 1.311 1_556 S
C217 H220 0.930 . S
N218 Co198 2.196 . S
N218 C213 1.331 . S
N218 C217 1.311 1_554 S
H219 C213 0.929 . S
H220 C217 0.930 . S
H221 C209 0.929 . S
H222 C211 0.929 . S
O223 Co198 2.351 . S
O223 C226 1.244 . S
O224 Co198 2.155 . S
O224 C226 1.240 . S
O225 Co198 2.096 1_556 S
O225 C206 1.247 . S
C226 O223 1.244 . S
C226 O224 1.240 . S
H227 C201 0.931 . S
H228 C210 0.931 . S
H229 C214 0.929 . S
H230 C216 0.930 . S
Co231 N235 2.148 . S
Co231 N241 2.128 1_554 S
Co231 N251 2.194 . S
Co231 O256 2.351 1_554 S
Co231 O257 2.155 1_554 S
Co231 O258 2.096 . S
C232 N235 1.301 . S
C232 N236 1.328 . S
C232 H237 0.930 . S
C233 C234 1.333 . S
C233 N235 1.317 . S
C233 H238 0.930 . S
C234 C233 1.333 . S
C234 N236 1.350 . S
C234 H260 0.931 . S
N235 Co231 2.148 . S
N235 C232 1.301 . S
N235 C233 1.317 . S
N236 C232 1.328 . S
N236 C234 1.350 . S
H237 C232 0.930 . S
H238 C233 0.930 . S
C239 O240 1.224 . S
C239 O258 1.247 . S
O240 C239 1.224 . S
N241 Co231 2.128 1_556 S
N241 C242 1.355 . S
N241 C244 1.311 . S
C242 N241 1.355 . S
C242 C243 1.363 . S
C242 H254 0.929 . S
C243 C242 1.363 . S
C243 N245 1.375 . S
C243 H261 0.931 . S
C244 N241 1.311 . S
C244 N245 1.347 . S
C244 H255 0.929 . S
N245 C243 1.375 . S
N245 C244 1.347 . S
C246 C249 1.365 . S
C246 N251 1.328 . S
C246 H252 0.929 . S
C247 C248 1.362 . S
C247 C250 1.378 . S
C247 H262 0.929 . S
C248 C247 1.362 . S
C248 C249 1.366 . S
C249 C246 1.365 . S
C249 C248 1.366 . S
C249 H263 0.930 . S
C250 C247 1.378 . S
C250 N251 1.315 . S
C250 H253 0.930 . S
N251 Co231 2.194 . S
N251 C246 1.328 . S
N251 C250 1.315 . S
H252 C246 0.929 . S
H253 C250 0.930 . S
H254 C242 0.929 . S
H255 C244 0.929 . S
O256 Co231 2.351 1_556 S
O256 C259 1.244 . S
O257 Co231 2.155 1_556 S
O257 C259 1.240 . S
O258 Co231 2.096 . S
O258 C239 1.247 . S
C259 O256 1.244 . S
C259 O257 1.240 . S
H260 C234 0.931 . S
H261 C243 0.931 . S
H262 C247 0.929 . S
H263 C249 0.930 . S
C264 C265 1.391 . S
C264 C266 1.394 . S
C264 H280 0.931 . S
C265 C264 1.391 . S
C265 C269 1.376 . S
C266 C264 1.394 . S
C266 C267 1.369 . S
C266 C270 1.531 . S
C267 C266 1.369 . S
C267 C268 1.410 . S
C267 C275 1.503 . S
C268 C267 1.410 . S
C268 C269 1.392 . S
C268 C271 1.511 . S
C269 C265 1.376 . S
C269 C268 1.392 . S
C269 H281 0.929 . S
C270 C266 1.531 . S
C270 H282 0.960 . S
C270 H283 0.962 . S
C270 H284 0.960 . S
C271 C268 1.511 . S
C271 H285 0.961 . S
C271 H286 0.961 . S
C271 H287 0.961 . S
C272 C273 1.370 . S
C272 C274 1.363 . S
C272 H288 0.931 . S
C273 C272 1.370 . S
C273 C277 1.408 . S
C274 C272 1.363 . S
C274 C275 1.370 . S
C274 C278 1.524 . S
C275 C267 1.503 . S
C275 C274 1.370 . S
C275 C276 1.403 . S
C276 C275 1.403 . S
C276 C277 1.404 . S
C276 C279 1.539 . S
C277 C273 1.408 . S
C277 C276 1.404 . S
C277 H289 0.930 . S
C278 C274 1.524 . S
C278 H290 0.956 . S
C278 H291 0.961 . S
C278 H292 0.961 . S
C279 C276 1.539 . S
C279 H293 0.958 . S
C279 H294 0.961 . S
C279 H295 0.960 . S
H280 C264 0.931 . S
H281 C269 0.929 . S
H282 C270 0.960 . S
H283 C270 0.962 . S
H284 C270 0.960 . S
H285 C271 0.961 . S
H286 C271 0.961 . S
H287 C271 0.961 . S
H288 C272 0.931 . S
H289 C277 0.930 . S
H290 C278 0.956 . S
H291 C278 0.961 . S
H292 C278 0.961 . S
H293 C279 0.958 . S
H294 C279 0.961 . S
H295 C279 0.960 . S
C296 C297 1.391 . S
C296 C298 1.394 . S
C296 H312 0.931 . S
C297 C296 1.391 . S
C297 C301 1.376 . S
C298 C296 1.394 . S
C298 C299 1.369 . S
C298 C302 1.531 . S
C299 C298 1.369 . S
C299 C300 1.410 . S
C299 C307 1.503 . S
C300 C299 1.410 . S
C300 C301 1.392 . S
C300 C303 1.511 . S
C301 C297 1.376 . S
C301 C300 1.392 . S
C301 H313 0.929 . S
C302 C298 1.531 . S
C302 H314 0.960 . S
C302 H315 0.962 . S
C302 H316 0.960 . S
C303 C300 1.511 . S
C303 H317 0.961 . S
C303 H318 0.961 . S
C303 H319 0.961 . S
C304 C305 1.370 . S
C304 C306 1.363 . S
C304 H320 0.931 . S
C305 C304 1.370 . S
C305 C309 1.408 . S
C306 C304 1.363 . S
C306 C307 1.370 . S
C306 C310 1.524 . S
C307 C299 1.503 . S
C307 C306 1.370 . S
C307 C308 1.403 . S
C308 C307 1.403 . S
C308 C309 1.404 . S
C308 C311 1.539 . S
C309 C305 1.408 . S
C309 C308 1.404 . S
C309 H321 0.930 . S
C310 C306 1.524 . S
C310 H322 0.956 . S
C310 H323 0.961 . S
C310 H324 0.961 . S
C311 C308 1.539 . S
C311 H325 0.958 . S
C311 H326 0.961 . S
C311 H327 0.960 . S
H312 C296 0.931 . S
H313 C301 0.929 . S
H314 C302 0.960 . S
H315 C302 0.962 . S
H316 C302 0.960 . S
H317 C303 0.961 . S
H318 C303 0.961 . S
H319 C303 0.961 . S
H320 C304 0.931 . S
H321 C309 0.930 . S
H322 C310 0.956 . S
H323 C310 0.961 . S
H324 C310 0.961 . S
H325 C311 0.958 . S
H326 C311 0.961 . S
H327 C311 0.960 . S
C328 C329 1.391 . S
C328 C330 1.394 . S
C328 H344 0.931 . S
C329 C328 1.391 . S
C329 C333 1.376 . S
C330 C328 1.394 . S
C330 C331 1.369 . S
C330 C334 1.531 . S
C331 C330 1.369 . S
C331 C332 1.410 . S
C331 C339 1.503 . S
C332 C331 1.410 . S
C332 C333 1.392 . S
C332 C335 1.511 . S
C333 C329 1.376 . S
C333 C332 1.392 . S
C333 H345 0.929 . S
C334 C330 1.531 . S
C334 H346 0.960 . S
C334 H347 0.962 . S
C334 H348 0.960 . S
C335 C332 1.511 . S
C335 H349 0.961 . S
C335 H350 0.961 . S
C335 H351 0.961 . S
C336 C337 1.370 . S
C336 C338 1.363 . S
C336 H352 0.931 . S
C337 C336 1.370 . S
C337 C341 1.408 . S
C338 C336 1.363 . S
C338 C339 1.370 . S
C338 C342 1.524 . S
C339 C331 1.503 . S
C339 C338 1.370 . S
C339 C340 1.403 . S
C340 C339 1.403 . S
C340 C341 1.404 . S
C340 C343 1.539 . S
C341 C337 1.408 . S
C341 C340 1.404 . S
C341 H353 0.930 . S
C342 C338 1.524 . S
C342 H354 0.956 . S
C342 H355 0.961 . S
C342 H356 0.961 . S
C343 C340 1.539 . S
C343 H357 0.958 . S
C343 H358 0.961 . S
C343 H359 0.960 . S
H344 C328 0.931 . S
H345 C333 0.929 . S
H346 C334 0.960 . S
H347 C334 0.962 . S
H348 C334 0.960 . S
H349 C335 0.961 . S
H350 C335 0.961 . S
H351 C335 0.961 . S
H352 C336 0.931 . S
H353 C341 0.930 . S
H354 C342 0.956 . S
H355 C342 0.961 . S
H356 C342 0.961 . S
H357 C343 0.958 . S
H358 C343 0.961 . S
H359 C343 0.960 . S
C360 C361 1.391 . S
C360 C362 1.394 . S
C360 H376 0.931 . S
C361 C360 1.391 . S
C361 C365 1.376 . S
C362 C360 1.394 . S
C362 C363 1.369 . S
C362 C366 1.531 . S
C363 C362 1.369 . S
C363 C364 1.410 . S
C363 C371 1.503 . S
C364 C363 1.410 . S
C364 C365 1.392 . S
C364 C367 1.511 . S
C365 C361 1.376 . S
C365 C364 1.392 . S
C365 H377 0.929 . S
C366 C362 1.531 . S
C366 H378 0.960 . S
C366 H379 0.962 . S
C366 H380 0.960 . S
C367 C364 1.511 . S
C367 H381 0.961 . S
C367 H382 0.961 . S
C367 H383 0.961 . S
C368 C369 1.370 . S
C368 C370 1.363 . S
C368 H384 0.931 . S
C369 C368 1.370 . S
C369 C373 1.408 . S
C370 C368 1.363 . S
C370 C371 1.370 . S
C370 C374 1.524 . S
C371 C363 1.503 . S
C371 C370 1.370 . S
C371 C372 1.403 . S
C372 C371 1.403 . S
C372 C373 1.404 . S
C372 C375 1.539 . S
C373 C369 1.408 . S
C373 C372 1.404 . S
C373 H385 0.930 . S
C374 C370 1.524 . S
C374 H386 0.956 . S
C374 H387 0.961 . S
C374 H388 0.961 . S
C375 C372 1.539 . S
C375 H389 0.958 . S
C375 H390 0.961 . S
C375 H391 0.960 . S
H376 C360 0.931 . S
H377 C365 0.929 . S
H378 C366 0.960 . S
H379 C366 0.962 . S
H380 C366 0.960 . S
H381 C367 0.961 . S
H382 C367 0.961 . S
H383 C367 0.961 . S
H384 C368 0.931 . S
H385 C373 0.930 . S
H386 C374 0.956 . S
H387 C374 0.961 . S
H388 C374 0.961 . S
H389 C375 0.958 . S
H390 C375 0.961 . S
H391 C375 0.960 . S
C392 C393 1.391 . S
C392 C394 1.394 . S
C392 H408 0.931 . S
C393 C392 1.391 . S
C393 C397 1.376 . S
C394 C392 1.394 . S
C394 C395 1.369 . S
C394 C398 1.531 . S
C395 C394 1.369 . S
C395 C396 1.410 . S
C395 C403 1.503 . S
C396 C395 1.410 . S
C396 C397 1.392 . S
C396 C399 1.511 . S
C397 C393 1.376 . S
C397 C396 1.392 . S
C397 H409 0.929 . S
C398 C394 1.531 . S
C398 H410 0.960 . S
C398 H411 0.962 . S
C398 H412 0.960 . S
C399 C396 1.511 . S
C399 H413 0.961 . S
C399 H414 0.961 . S
C399 H415 0.961 . S
C400 C401 1.370 . S
C400 C402 1.363 . S
C400 H416 0.931 . S
C401 C400 1.370 . S
C401 C405 1.408 . S
C402 C400 1.363 . S
C402 C403 1.370 . S
C402 C406 1.524 . S
C403 C395 1.503 . S
C403 C402 1.370 . S
C403 C404 1.403 . S
C404 C403 1.403 . S
C404 C405 1.404 . S
C404 C407 1.539 . S
C405 C401 1.408 . S
C405 C404 1.404 . S
C405 H417 0.930 . S
C406 C402 1.524 . S
C406 H418 0.956 . S
C406 H419 0.961 . S
C406 H420 0.961 . S
C407 C404 1.539 . S
C407 H421 0.958 . S
C407 H422 0.961 . S
C407 H423 0.960 . S
H408 C392 0.931 . S
H409 C397 0.929 . S
H410 C398 0.960 . S
H411 C398 0.962 . S
H412 C398 0.960 . S
H413 C399 0.961 . S
H414 C399 0.961 . S
H415 C399 0.961 . S
H416 C400 0.931 . S
H417 C405 0.930 . S
H418 C406 0.956 . S
H419 C406 0.961 . S
H420 C406 0.961 . S
H421 C407 0.958 . S
H422 C407 0.961 . S
H423 C407 0.960 . S
C424 C425 1.391 . S
C424 C426 1.394 . S
C424 H440 0.931 . S
C425 C424 1.391 . S
C425 C429 1.376 . S
C426 C424 1.394 . S
C426 C427 1.369 . S
C426 C430 1.531 . S
C427 C426 1.369 . S
C427 C428 1.410 . S
C427 C435 1.503 . S
C428 C427 1.410 . S
C428 C429 1.392 . S
C428 C431 1.511 . S
C429 C425 1.376 . S
C429 C428 1.392 . S
C429 H441 0.929 . S
C430 C426 1.531 . S
C430 H442 0.960 . S
C430 H443 0.962 . S
C430 H444 0.960 . S
C431 C428 1.511 . S
C431 H445 0.961 . S
C431 H446 0.961 . S
C431 H447 0.961 . S
C432 C433 1.370 . S
C432 C434 1.363 . S
C432 H448 0.931 . S
C433 C432 1.370 . S
C433 C437 1.408 . S
C434 C432 1.363 . S
C434 C435 1.370 . S
C434 C438 1.524 . S
C435 C427 1.503 . S
C435 C434 1.370 . S
C435 C436 1.403 . S
C436 C435 1.403 . S
C436 C437 1.404 . S
C436 C439 1.539 . S
C437 C433 1.408 . S
C437 C436 1.404 . S
C437 H449 0.930 . S
C438 C434 1.524 . S
C438 H450 0.956 . S
C438 H451 0.961 . S
C438 H452 0.961 . S
C439 C436 1.539 . S
C439 H453 0.958 . S
C439 H454 0.961 . S
C439 H455 0.960 . S
H440 C424 0.931 . S
H441 C429 0.929 . S
H442 C430 0.960 . S
H443 C430 0.962 . S
H444 C430 0.960 . S
H445 C431 0.961 . S
H446 C431 0.961 . S
H447 C431 0.961 . S
H448 C432 0.931 . S
H449 C437 0.930 . S
H450 C438 0.956 . S
H451 C438 0.961 . S
H452 C438 0.961 . S
H453 C439 0.958 . S
H454 C439 0.961 . S
H455 C439 0.960 . S
C456 C457 1.391 . S
C456 C458 1.394 . S
C456 H472 0.931 . S
C457 C456 1.391 . S
C457 C461 1.376 . S
C458 C456 1.394 . S
C458 C459 1.369 . S
C458 C462 1.531 . S
C459 C458 1.369 . S
C459 C460 1.410 . S
C459 C467 1.503 . S
C460 C459 1.410 . S
C460 C461 1.392 . S
C460 C463 1.511 . S
C461 C457 1.376 . S
C461 C460 1.392 . S
C461 H473 0.929 . S
C462 C458 1.531 . S
C462 H474 0.960 . S
C462 H475 0.962 . S
C462 H476 0.960 . S
C463 C460 1.511 . S
C463 H477 0.961 . S
C463 H478 0.961 . S
C463 H479 0.961 . S
C464 C465 1.370 . S
C464 C466 1.363 . S
C464 H480 0.931 . S
C465 C464 1.370 . S
C465 C469 1.408 . S
C466 C464 1.363 . S
C466 C467 1.370 . S
C466 C470 1.524 . S
C467 C459 1.503 . S
C467 C466 1.370 . S
C467 C468 1.403 . S
C468 C467 1.403 . S
C468 C469 1.404 . S
C468 C471 1.539 . S
C469 C465 1.408 . S
C469 C468 1.404 . S
C469 H481 0.930 . S
C470 C466 1.524 . S
C470 H482 0.956 . S
C470 H483 0.961 . S
C470 H484 0.961 . S
C471 C468 1.539 . S
C471 H485 0.958 . S
C471 H486 0.961 . S
C471 H487 0.960 . S
H472 C456 0.931 . S
H473 C461 0.929 . S
H474 C462 0.960 . S
H475 C462 0.962 . S
H476 C462 0.960 . S
H477 C463 0.961 . S
H478 C463 0.961 . S
H479 C463 0.961 . S
H480 C464 0.931 . S
H481 C469 0.930 . S
H482 C470 0.956 . S
H483 C470 0.961 . S
H484 C470 0.961 . S
H485 C471 0.958 . S
H486 C471 0.961 . S
H487 C471 0.960 . S
C488 C489 1.391 . S
C488 C490 1.394 . S
C488 H504 0.931 . S
C489 C488 1.391 . S
C489 C493 1.376 . S
C490 C488 1.394 . S
C490 C491 1.369 . S
C490 C494 1.531 . S
C491 C490 1.369 . S
C491 C492 1.410 . S
C491 C499 1.503 . S
C492 C491 1.410 . S
C492 C493 1.392 . S
C492 C495 1.511 . S
C493 C489 1.376 . S
C493 C492 1.392 . S
C493 H505 0.929 . S
C494 C490 1.531 . S
C494 H506 0.960 . S
C494 H507 0.962 . S
C494 H508 0.960 . S
C495 C492 1.511 . S
C495 H509 0.961 . S
C495 H510 0.961 . S
C495 H511 0.961 . S
C496 C497 1.370 . S
C496 C498 1.363 . S
C496 H512 0.931 . S
C497 C496 1.370 . S
C497 C501 1.408 . S
C498 C496 1.363 . S
C498 C499 1.370 . S
C498 C502 1.524 . S
C499 C491 1.503 . S
C499 C498 1.370 . S
C499 C500 1.403 . S
C500 C499 1.403 . S
C500 C501 1.404 . S
C500 C503 1.539 . S
C501 C497 1.408 . S
C501 C500 1.404 . S
C501 H513 0.930 . S
C502 C498 1.524 . S
C502 H514 0.956 . S
C502 H515 0.961 . S
C502 H516 0.961 . S
C503 C500 1.539 . S
C503 H517 0.958 . S
C503 H518 0.961 . S
C503 H519 0.960 . S
H504 C488 0.931 . S
H505 C493 0.929 . S
H506 C494 0.960 . S
H507 C494 0.962 . S
H508 C494 0.960 . S
H509 C495 0.961 . S
H510 C495 0.961 . S
H511 C495 0.961 . S
H512 C496 0.931 . S
H513 C501 0.930 . S
H514 C502 0.956 . S
H515 C502 0.961 . S
H516 C502 0.961 . S
H517 C503 0.958 . S
H518 C503 0.961 . S
H519 C503 0.960 . S
C520 C521 1.391 1_556 S
C520 C522 1.394 . S
C520 H536 0.931 . S
C521 C520 1.391 1_554 S
C521 C525 1.376 1_565 S
C522 C520 1.394 . S
C522 C523 1.369 1_556 S
C522 C526 1.531 . S
C523 C522 1.369 1_554 S
C523 C524 1.410 1_565 S
C523 C531 1.503 . S
C524 C523 1.410 1_545 S
C524 C525 1.392 . S
C524 C527 1.511 . S
C525 C521 1.376 1_545 S
C525 C524 1.392 . S
C525 H537 0.929 . S
C526 C522 1.531 . S
C526 H538 0.960 . S
C526 H539 0.962 . S
C526 H540 0.960 . S
C527 C524 1.511 . S
C527 H541 0.961 . S
C527 H542 0.961 . S
C527 H543 0.961 1_545 S
C528 C529 1.370 1_556 S
C528 C530 1.363 . S
C528 H544 0.931 . S
C529 C528 1.370 1_554 S
C529 C533 1.408 1_545 S
C530 C528 1.363 . S
C530 C531 1.370 1_546 S
C530 C534 1.524 . S
C531 C523 1.503 . S
C531 C530 1.370 1_564 S
C531 C532 1.403 . S
C532 C531 1.403 . S
C532 C533 1.404 . S
C532 C535 1.539 . S
C533 C529 1.408 1_565 S
C533 C532 1.404 . S
C533 H545 0.930 . S
C534 C530 1.524 . S
C534 H546 0.956 . S
C534 H547 0.961 1_556 S
C534 H548 0.961 . S
C535 C532 1.539 . S
C535 H549 0.958 . S
C535 H550 0.961 . S
C535 H551 0.960 . S
H536 C520 0.931 . S
H537 C525 0.929 . S
H538 C526 0.960 . S
H539 C526 0.962 . S
H540 C526 0.960 . S
H541 C527 0.961 . S
H542 C527 0.961 . S
H543 C527 0.961 1_565 S
H544 C528 0.931 . S
H545 C533 0.930 . S
H546 C534 0.956 . S
H547 C534 0.961 1_554 S
H548 C534 0.961 . S
H549 C535 0.958 . S
H550 C535 0.961 . S
H551 C535 0.960 . S
C552 C553 1.391 . S
C552 C554 1.394 . S
C552 H568 0.931 . S
C553 C552 1.391 . S
C553 C557 1.376 . S
C554 C552 1.394 . S
C554 C555 1.369 . S
C554 C558 1.531 . S
C555 C554 1.369 . S
C555 C556 1.410 . S
C555 C563 1.503 . S
C556 C555 1.410 . S
C556 C557 1.392 . S
C556 C559 1.511 . S
C557 C553 1.376 . S
C557 C556 1.392 . S
C557 H569 0.929 . S
C558 C554 1.531 . S
C558 H570 0.960 . S
C558 H571 0.962 . S
C558 H572 0.960 . S
C559 C556 1.511 . S
C559 H573 0.961 . S
C559 H574 0.961 . S
C559 H575 0.961 . S
C560 C561 1.370 . S
C560 C562 1.363 . S
C560 H576 0.931 . S
C561 C560 1.370 . S
C561 C565 1.408 . S
C562 C560 1.363 . S
C562 C563 1.370 . S
C562 C566 1.524 . S
C563 C555 1.503 . S
C563 C562 1.370 . S
C563 C564 1.403 . S
C564 C563 1.403 . S
C564 C565 1.404 . S
C564 C567 1.539 . S
C565 C561 1.408 . S
C565 C564 1.404 . S
C565 H577 0.930 . S
C566 C562 1.524 . S
C566 H578 0.956 . S
C566 H579 0.961 . S
C566 H580 0.961 . S
C567 C564 1.539 . S
C567 H581 0.958 . S
C567 H582 0.961 . S
C567 H583 0.960 . S
H568 C552 0.931 . S
H569 C557 0.929 . S
H570 C558 0.960 . S
H571 C558 0.962 . S
H572 C558 0.960 . S
H573 C559 0.961 . S
H574 C559 0.961 . S
H575 C559 0.961 . S
H576 C560 0.931 . S
H577 C565 0.930 . S
H578 C566 0.956 . S
H579 C566 0.961 . S
H580 C566 0.961 . S
H581 C567 0.958 . S
H582 C567 0.961 . S
H583 C567 0.960 . S
C584 C585 1.391 1_545 S
C584 C586 1.394 . S
C584 H600 0.931 . S
C585 C584 1.391 1_565 S
C585 C589 1.376 . S
C586 C584 1.394 . S
C586 C587 1.369 1_545 S
C586 C590 1.531 . S
C587 C586 1.369 1_565 S
C587 C588 1.410 . S
C587 C595 1.503 1_455 S
C588 C587 1.410 . S
C588 C589 1.392 . S
C588 C591 1.511 . S
C589 C585 1.376 . S
C589 C588 1.392 . S
C589 H601 0.929 . S
C590 C586 1.531 . S
C590 H602 0.960 1_455 S
C590 H603 0.962 . S
C590 H604 0.960 . S
C591 C588 1.511 . S
C591 H605 0.961 . S
C591 H606 0.961 1_455 S
C591 H607 0.961 . S
C592 C593 1.370 . S
C592 C594 1.363 . S
C592 H608 0.931 . S
C593 C592 1.370 . S
C593 C597 1.408 1_545 S
C594 C592 1.363 . S
C594 C595 1.370 1_545 S
C594 C598 1.524 . S
C595 C587 1.503 1_655 S
C595 C594 1.370 1_565 S
C595 C596 1.403 . S
C596 C595 1.403 . S
C596 C597 1.404 . S
C596 C599 1.539 . S
C597 C593 1.408 1_565 S
C597 C596 1.404 . S
C597 H609 0.930 . S
C598 C594 1.524 . S
C598 H610 0.980 . S
C598 H611 0.961 1_655 S
C598 H612 0.961 . S
C599 C596 1.539 . S
C599 H613 0.958 . S
C599 H614 0.961 . S
C599 H615 0.991 . S
H600 C584 0.931 . S
H601 C589 0.929 . S
H602 C590 0.960 1_655 S
H603 C590 0.962 . S
H604 C590 0.960 . S
H605 C591 0.961 . S
H606 C591 0.961 1_655 S
H607 C591 0.961 . S
H608 C592 0.931 . S
H609 C597 0.930 . S
H610 C598 0.980 . S
H611 C598 0.961 1_455 S
H612 C598 0.961 . S
H613 C599 0.958 . S
H614 C599 0.961 . S
H615 C599 0.991 . S
C616 C617 1.391 . S
C616 C618 1.394 . S
C616 H632 0.931 . S
C617 C616 1.391 . S
C617 C621 1.376 1_554 S
C618 C616 1.394 . S
C618 C619 1.369 . S
C618 C622 1.531 . S
C619 C618 1.369 . S
C619 C620 1.410 1_554 S
C619 C627 1.503 1_655 S
C620 C619 1.410 1_556 S
C620 C621 1.392 . S
C620 C623 1.511 . S
C621 C617 1.376 1_556 S
C621 C620 1.392 . S
C621 H633 0.929 . S
C622 C618 1.531 . S
C622 H634 0.960 1_655 S
C622 H635 0.962 . S
C622 H636 0.960 . S
C623 C620 1.511 . S
C623 H637 0.961 . S
C623 H638 0.961 1_655 S
C623 H639 0.961 . S
C624 C625 1.370 1_556 S
C624 C626 1.363 . S
C624 H640 0.931 . S
C625 C624 1.370 1_554 S
C625 C629 1.408 . S
C626 C624 1.363 . S
C626 C627 1.370 1_556 S
C626 C630 1.524 . S
C627 C619 1.503 1_455 S
C627 C626 1.370 1_554 S
C627 C628 1.403 . S
C628 C627 1.403 . S
C628 C629 1.404 . S
C628 C631 1.539 . S
C629 C625 1.408 . S
C629 C628 1.404 . S
C629 H641 0.930 . S
C630 C626 1.524 . S
C630 H642 0.976 . S
C630 H643 0.961 1_455 S
C630 H644 0.961 . S
C631 C628 1.539 . S
C631 H645 0.958 . S
C631 H646 0.961 . S
C631 H647 0.997 . S
H632 C616 0.931 . S
H633 C621 0.929 . S
H634 C622 0.960 1_455 S
H635 C622 0.962 . S
H636 C622 0.960 . S
H637 C623 0.961 . S
H638 C623 0.961 1_455 S
H639 C623 0.961 . S
H640 C624 0.931 . S
H641 C629 0.930 . S
H642 C630 0.976 . S
H643 C630 0.961 1_655 S
H644 C630 0.961 . S
H645 C631 0.958 . S
H646 C631 0.961 . S
H647 C631 0.997 . S
C648 C649 1.391 . S
C648 C650 1.394 . S
C648 H664 0.931 . S
C649 C648 1.391 . S
C649 C653 1.376 1_556 S
C650 C648 1.394 . S
C650 C651 1.369 . S
C650 C654 1.531 . S
C651 C650 1.369 . S
C651 C652 1.410 1_556 S
C651 C659 1.503 . S
C652 C651 1.410 1_554 S
C652 C653 1.392 . S
C652 C655 1.511 . S
C653 C649 1.376 1_554 S
C653 C652 1.392 . S
C653 H665 0.929 . S
C654 C650 1.531 . S
C654 H666 0.960 . S
C654 H667 0.962 . S
C654 H668 0.960 . S
C655 C652 1.511 . S
C655 H669 0.961 . S
C655 H670 0.961 . S
C655 H671 0.961 . S
C656 C657 1.370 . S
C656 C658 1.363 . S
C656 H672 0.927 1_556 S
C657 C656 1.370 . S
C657 C661 1.408 . S
C658 C656 1.363 . S
C658 C659 1.370 . S
C658 C662 1.524 1_556 S
C659 C651 1.503 . S
C659 C658 1.370 . S
C659 C660 1.403 . S
C660 C659 1.403 . S
C660 C661 1.404 . S
C660 C663 1.539 . S
C661 C657 1.408 . S
C661 C660 1.404 . S
C661 H673 0.930 . S
C662 C658 1.524 1_554 S
C662 H674 0.956 1_554 S
C662 H675 0.961 . S
C662 H676 0.961 . S
C663 C660 1.539 . S
C663 H677 0.958 . S
C663 H678 0.961 . S
C663 H679 0.960 . S
H664 C648 0.931 . S
H665 C653 0.929 . S
H666 C654 0.960 . S
H667 C654 0.962 . S
H668 C654 0.960 . S
H669 C655 0.961 . S
H670 C655 0.961 . S
H671 C655 0.961 . S
H672 C656 0.927 1_554 S
H673 C661 0.930 . S
H674 C662 0.956 1_556 S
H675 C662 0.961 . S
H676 C662 0.961 . S
H677 C663 0.958 . S
H678 C663 0.961 . S
H679 C663 0.960 . S
C680 C681 1.391 . S
C680 C682 1.394 . S
C680 H696 0.931 . S
C681 C680 1.391 . S
C681 C685 1.376 1_556 S
C682 C680 1.394 . S
C682 C683 1.369 . S
C682 C686 1.531 . S
C683 C682 1.369 . S
C683 C684 1.410 1_556 S
C683 C691 1.503 . S
C684 C683 1.410 1_554 S
C684 C685 1.392 . S
C684 C687 1.511 . S
C685 C681 1.376 1_554 S
C685 C684 1.392 . S
C685 H697 0.929 . S
C686 C682 1.531 . S
C686 H698 0.960 . S
C686 H699 0.962 . S
C686 H700 0.960 . S
C687 C684 1.511 . S
C687 H701 0.961 . S
C687 H702 0.961 . S
C687 H703 0.961 . S
C688 C689 1.370 . S
C688 C690 1.363 . S
C688 H704 0.931 . S
C689 C688 1.370 . S
C689 C693 1.408 1_556 S
C690 C688 1.363 . S
C690 C691 1.370 . S
C690 C694 1.524 . S
C691 C683 1.503 . S
C691 C690 1.370 . S
C691 C692 1.403 1_556 S
C692 C691 1.403 1_554 S
C692 C693 1.404 . S
C692 C695 1.539 . S
C693 C689 1.408 1_554 S
C693 C692 1.404 . S
C693 H705 0.930 . S
C694 C690 1.524 . S
C694 H706 0.956 . S
C694 H707 0.961 . S
C694 H708 0.961 . S
C695 C692 1.539 . S
C695 H709 0.958 . S
C695 H710 0.961 . S
C695 H711 0.960 . S
H696 C680 0.931 . S
H697 C685 0.929 . S
H698 C686 0.960 . S
H699 C686 0.962 . S
H700 C686 0.960 . S
H701 C687 0.961 . S
H702 C687 0.961 . S
H703 C687 0.961 . S
H704 C688 0.931 . S
H705 C693 0.930 . S
H706 C694 0.956 . S
H707 C694 0.961 . S
H708 C694 0.961 . S
H709 C695 0.958 . S
H710 C695 0.961 . S
H711 C695 0.960 . S
C712 C713 1.391 . S
C712 C714 1.394 . S
C712 H728 0.931 . S
C713 C712 1.391 . S
C713 C717 1.376 1_554 S
C714 C712 1.394 . S
C714 C715 1.369 . S
C714 C718 1.531 . S
C715 C714 1.369 . S
C715 C716 1.410 1_554 S
C715 C723 1.503 . S
C716 C715 1.410 1_556 S
C716 C717 1.392 . S
C716 C719 1.511 . S
C717 C713 1.376 1_556 S
C717 C716 1.392 . S
C717 H729 0.929 . S
C718 C714 1.531 . S
C718 H730 0.960 . S
C718 H731 0.962 . S
C718 H732 0.960 . S
C719 C716 1.511 . S
C719 H733 0.961 . S
C719 H734 0.961 . S
C719 H735 0.961 . S
C720 C721 1.370 . S
C720 C722 1.363 . S
C720 H736 0.931 . S
C721 C720 1.370 . S
C721 C725 1.408 . S
C722 C720 1.363 . S
C722 C723 1.370 . S
C722 C726 1.524 . S
C723 C715 1.503 . S
C723 C722 1.370 . S
C723 C724 1.403 . S
C724 C723 1.403 . S
C724 C725 1.404 . S
C724 C727 1.539 . S
C725 C721 1.408 . S
C725 C724 1.404 . S
C725 H737 0.930 . S
C726 C722 1.524 . S
C726 H738 0.956 . S
C726 H739 0.961 . S
C726 H740 0.961 . S
C727 C724 1.539 . S
C727 H741 0.958 . S
C727 H742 0.961 1_554 S
C727 H743 0.960 . S
H728 C712 0.931 . S
H729 C717 0.929 . S
H730 C718 0.960 . S
H731 C718 0.962 . S
H732 C718 0.960 . S
H733 C719 0.961 . S
H734 C719 0.961 . S
H735 C719 0.961 . S
H736 C720 0.931 . S
H737 C725 0.930 . S
H738 C726 0.956 . S
H739 C726 0.961 . S
H740 C726 0.961 . S
H741 C727 0.958 . S
H742 C727 0.961 1_556 S
H743 C727 0.960 . S
C744 C745 1.391 . S
C744 C746 1.394 . S
C744 H760 0.931 . S
C745 C744 1.391 . S
C745 C749 1.376 . S
C746 C744 1.394 . S
C746 C747 1.369 . S
C746 C750 1.531 . S
C747 C746 1.369 . S
C747 C748 1.410 . S
C747 C755 1.503 . S
C748 C747 1.410 . S
C748 C749 1.392 . S
C748 C751 1.511 1_554 S
C749 C745 1.376 . S
C749 C748 1.392 . S
C749 H761 0.929 1_554 S
C750 C746 1.531 . S
C750 H762 0.960 . S
C750 H763 0.962 . S
C750 H764 0.960 . S
C751 C748 1.511 1_556 S
C751 H765 0.961 . S
C751 H766 0.961 . S
C751 H767 0.961 . S
C752 C753 1.370 . S
C752 C754 1.363 . S
C752 H768 0.926 1_554 S
C753 C752 1.370 . S
C753 C757 1.408 . S
C754 C752 1.363 . S
C754 C755 1.370 . S
C754 C758 1.524 1_554 S
C755 C747 1.503 . S
C755 C754 1.370 . S
C755 C756 1.403 . S
C756 C755 1.403 . S
C756 C757 1.404 . S
C756 C759 1.539 . S
C757 C753 1.408 . S
C757 C756 1.404 . S
C757 H769 0.930 . S
C758 C754 1.524 1_556 S
C758 H770 0.956 1_556 S
C758 H771 0.961 . S
C758 H772 0.961 . S
C759 C756 1.539 . S
C759 H773 0.958 . S
C759 H774 0.961 . S
C759 H775 0.960 . S
H760 C744 0.931 . S
H761 C749 0.929 1_556 S
H762 C750 0.960 . S
H763 C750 0.962 . S
H764 C750 0.960 . S
H765 C751 0.961 . S
H766 C751 0.961 . S
H767 C751 0.961 . S
H768 C752 0.926 1_556 S
H769 C757 0.930 . S
H770 C758 0.956 1_554 S
H771 C758 0.961 . S
H772 C758 0.961 . S
H773 C759 0.958 . S
H774 C759 0.961 . S
H775 C759 0.960 . S
C776 C777 1.391 . S
C776 C778 1.394 . S
C776 H792 0.931 . S
C777 C776 1.391 . S
C777 C781 1.376 . S
C778 C776 1.394 . S
C778 C779 1.369 . S
C778 C782 1.531 . S
C779 C778 1.369 . S
C779 C780 1.410 . S
C779 C787 1.503 . S
C780 C779 1.410 . S
C780 C781 1.392 . S
C780 C783 1.511 . S
C781 C777 1.376 . S
C781 C780 1.392 . S
C781 H793 0.929 . S
C782 C778 1.531 . S
C782 H794 0.960 . S
C782 H795 0.962 . S
C782 H796 0.960 . S
C783 C780 1.511 . S
C783 H797 0.961 . S
C783 H798 0.961 . S
C783 H799 0.961 . S
C784 C785 1.370 . S
C784 C786 1.363 . S
C784 H800 0.931 . S
C785 C784 1.370 . S
C785 C789 1.408 . S
C786 C784 1.363 . S
C786 C787 1.370 . S
C786 C790 1.524 . S
C787 C779 1.503 . S
C787 C786 1.370 . S
C787 C788 1.403 . S
C788 C787 1.403 . S
C788 C789 1.404 . S
C788 C791 1.539 . S
C789 C785 1.408 . S
C789 C788 1.404 . S
C789 H801 0.930 . S
C790 C786 1.524 . S
C790 H802 0.956 . S
C790 H803 0.961 . S
C790 H804 0.961 . S
C791 C788 1.539 . S
C791 H805 0.958 . S
C791 H806 0.961 . S
C791 H807 0.960 . S
H792 C776 0.931 . S
H793 C781 0.929 . S
H794 C782 0.960 . S
H795 C782 0.962 . S
H796 C782 0.960 . S
H797 C783 0.961 . S
H798 C783 0.961 . S
H799 C783 0.961 . S
H800 C784 0.931 . S
H801 C789 0.930 . S
H802 C790 0.956 . S
H803 C790 0.961 . S
H804 C790 0.961 . S
H805 C791 0.958 . S
H806 C791 0.961 . S
H807 C791 0.960 . S
C808 C809 1.391 . S
C808 C810 1.394 . S
C808 H824 0.931 . S
C809 C808 1.391 . S
C809 C813 1.376 . S
C810 C808 1.394 . S
C810 C811 1.369 . S
C810 C814 1.531 . S
C811 C810 1.369 . S
C811 C812 1.410 . S
C811 C819 1.503 . S
C812 C811 1.410 . S
C812 C813 1.392 . S
C812 C815 1.511 . S
C813 C809 1.376 . S
C813 C812 1.392 . S
C813 H825 0.929 . S
C814 C810 1.531 . S
C814 H826 0.960 . S
C814 H827 0.962 . S
C814 H828 0.960 . S
C815 C812 1.511 . S
C815 H829 0.961 . S
C815 H830 0.961 . S
C815 H831 0.961 . S
C816 C817 1.370 . S
C816 C818 1.363 . S
C816 H832 0.931 . S
C817 C816 1.370 . S
C817 C821 1.408 . S
C818 C816 1.363 . S
C818 C819 1.370 . S
C818 C822 1.524 . S
C819 C811 1.503 . S
C819 C818 1.370 . S
C819 C820 1.403 . S
C820 C819 1.403 . S
C820 C821 1.404 . S
C820 C823 1.539 . S
C821 C817 1.408 . S
C821 C820 1.404 . S
C821 H833 0.930 . S
C822 C818 1.524 . S
C822 H834 0.956 . S
C822 H835 0.961 . S
C822 H836 0.961 . S
C823 C820 1.539 . S
C823 H837 0.958 . S
C823 H838 0.961 . S
C823 H839 0.960 . S
H824 C808 0.931 . S
H825 C813 0.929 . S
H826 C814 0.960 . S
H827 C814 0.962 . S
H828 C814 0.960 . S
H829 C815 0.961 . S
H830 C815 0.961 . S
H831 C815 0.961 . S
H832 C816 0.931 . S
H833 C821 0.930 . S
H834 C822 0.956 . S
H835 C822 0.961 . S
H836 C822 0.961 . S
H837 C823 0.958 . S
H838 C823 0.961 . S
H839 C823 0.960 . S
C840 C841 1.391 . S
C840 C842 1.394 . S
C840 H856 0.931 . S
C841 C840 1.391 . S
C841 C845 1.376 . S
C842 C840 1.394 . S
C842 C843 1.369 . S
C842 C846 1.531 . S
C843 C842 1.369 . S
C843 C844 1.410 . S
C843 C851 1.503 . S
C844 C843 1.410 . S
C844 C845 1.392 . S
C844 C847 1.511 . S
C845 C841 1.376 . S
C845 C844 1.392 . S
C845 H857 0.929 . S
C846 C842 1.531 . S
C846 H858 0.960 . S
C846 H859 0.962 . S
C846 H860 0.960 . S
C847 C844 1.511 . S
C847 H861 0.961 . S
C847 H862 0.961 . S
C847 H863 0.961 . S
C848 C849 1.370 . S
C848 C850 1.363 . S
C848 H864 0.931 . S
C849 C848 1.370 . S
C849 C853 1.408 . S
C850 C848 1.363 . S
C850 C851 1.370 . S
C850 C854 1.524 . S
C851 C843 1.503 . S
C851 C850 1.370 . S
C851 C852 1.403 . S
C852 C851 1.403 . S
C852 C853 1.404 . S
C852 C855 1.539 . S
C853 C849 1.408 . S
C853 C852 1.404 . S
C853 H865 0.930 . S
C854 C850 1.524 . S
C854 H866 0.956 . S
C854 H867 0.961 . S
C854 H868 0.961 . S
C855 C852 1.539 . S
C855 H869 0.958 . S
C855 H870 0.961 . S
C855 H871 0.960 . S
H856 C840 0.931 . S
H857 C845 0.929 . S
H858 C846 0.960 . S
H859 C846 0.962 . S
H860 C846 0.960 . S
H861 C847 0.961 . S
H862 C847 0.961 . S
H863 C847 0.961 . S
H864 C848 0.931 . S
H865 C853 0.930 . S
H866 C854 0.956 . S
H867 C854 0.961 . S
H868 C854 0.961 . S
H869 C855 0.958 . S
H870 C855 0.961 . S
H871 C855 0.960 . S
C872 C873 1.391 . S
C872 C874 1.394 . S
C872 H888 0.931 . S
C873 C872 1.391 . S
C873 C877 1.376 . S
C874 C872 1.394 . S
C874 C875 1.369 . S
C874 C878 1.531 . S
C875 C874 1.369 . S
C875 C876 1.410 . S
C875 C883 1.503 . S
C876 C875 1.410 . S
C876 C877 1.392 . S
C876 C879 1.511 . S
C877 C873 1.376 . S
C877 C876 1.392 . S
C877 H889 0.929 . S
C878 C874 1.531 . S
C878 H890 0.960 . S
C878 H891 0.962 . S
C878 H892 0.960 . S
C879 C876 1.511 . S
C879 H893 0.961 . S
C879 H894 0.961 . S
C879 H895 0.961 . S
C880 C881 1.370 . S
C880 C882 1.363 . S
C880 H896 0.931 . S
C881 C880 1.370 . S
C881 C885 1.408 . S
C882 C880 1.363 . S
C882 C883 1.370 . S
C882 C886 1.524 . S
C883 C875 1.503 . S
C883 C882 1.370 . S
C883 C884 1.403 . S
C884 C883 1.403 . S
C884 C885 1.404 . S
C884 C887 1.539 . S
C885 C881 1.408 . S
C885 C884 1.404 . S
C885 H897 0.930 . S
C886 C882 1.524 . S
C886 H898 0.956 . S
C886 H899 0.961 . S
C886 H900 0.961 . S
C887 C884 1.539 . S
C887 H901 0.958 . S
C887 H902 0.961 . S
C887 H903 0.960 . S
H888 C872 0.931 . S
H889 C877 0.929 . S
H890 C878 0.960 . S
H891 C878 0.962 . S
H892 C878 0.960 . S
H893 C879 0.961 . S
H894 C879 0.961 . S
H895 C879 0.961 . S
H896 C880 0.931 . S
H897 C885 0.930 . S
H898 C886 0.956 . S
H899 C886 0.961 . S
H900 C886 0.961 . S
H901 C887 0.958 . S
H902 C887 0.961 . S
H903 C887 0.960 . S
C265 N71 1.596 . S
C273 N14 1.593 . S
C297 N38 1.603 . S
C305 N113 1.591 . S
C329 N80 1.583 . S
C337 N5 1.602 . S
C361 N104 1.593 . S
C369 N47 1.596 . S
C393 N146 1.596 . S
C401 N203 1.597 . S
C425 N245 1.582 . S
C433 N170 1.602 . S
C457 N137 1.596 . S
C465 N212 1.595 . S
C489 N179 1.598 . S
C497 N236 1.596 . S
C521 C50 1.390 1_565 S
C529 C17 1.398 . S
C553 C83 1.390 . S
C561 C116 1.398 . S
C585 C182 1.394 1_565 S
C593 C149 1.396 . S
C617 C215 1.395 . S
C625 C248 1.396 . S
C649 C259 0.633 . S
C657 C8 0.695 . S
C681 C206 0.625 . S
C689 C61 0.687 . S
C713 C239 0.632 . S
C721 C28 0.697 . S
C745 C41 0.658 . S
C753 C226 0.702 . S
C777 C193 0.678 . S
C785 C74 0.696 . S
C809 C127 0.639 . S
C817 C140 0.669 . S
C841 C173 0.721 . S
C849 C94 0.681 . S
C873 C107 0.719 . S
C881 C160 0.682 . S
