# Generated by pormake.
# Topology npo, (4)-cn, num edge types: 1
# Building blocks:
#     Node 0, Type 0, BuildingBlock: QUQFOY_clean_sbu_3, # of connection points: 4
#     Node 1, Type 0, BuildingBlock: QUQFOY_clean_sbu_3, # of connection points: 4
#     Node 2, Type 0, BuildingBlock: QUQFOY_clean_sbu_3, # of connection points: 4
#     Node 3, Type 0, BuildingBlock: QUQFOY_clean_sbu_3, # of connection points: 4
#     Node 4, Type 0, BuildingBlock: QUQFOY_clean_sbu_3, # of connection points: 4
#     Node 5, Type 0, BuildingBlock: QUQFOY_clean_sbu_3, # of connection points: 4
#     Edge 6, Type (0, 0), BuildingBlock: FUNLAD_clean_linker_0, # of connection points: 2
#     Edge 7, Type (0, 0), BuildingBlock: FUNLAD_clean_linker_0, # of connection points: 2
#     Edge 8, Type (0, 0), BuildingBlock: FUNLAD_clean_linker_0, # of connection points: 2
#     Edge 9, Type (0, 0), BuildingBlock: FUNLAD_clean_linker_0, # of connection points: 2
#     Edge 10, Type (0, 0), BuildingBlock: FUNLAD_clean_linker_0, # of connection points: 2
#     Edge 11, Type (0, 0), BuildingBlock: FUNLAD_clean_linker_0, # of connection points: 2
#     Edge 12, Type (0, 0), BuildingBlock: FUNLAD_clean_linker_0, # of connection points: 2
#     Edge 13, Type (0, 0), BuildingBlock: FUNLAD_clean_linker_0, # of connection points: 2
#     Edge 14, Type (0, 0), BuildingBlock: FUNLAD_clean_linker_0, # of connection points: 2
#     Edge 15, Type (0, 0), BuildingBlock: FUNLAD_clean_linker_0, # of connection points: 2
#     Edge 16, Type (0, 0), BuildingBlock: FUNLAD_clean_linker_0, # of connection points: 2
#     Edge 17, Type (0, 0), BuildingBlock: FUNLAD_clean_linker_0, # of connection points: 2
# Relax obj value: 0.289
# Max RMSD: 0.250
# Mean RMSD: 0.240
data_MOF--net-npo--node1-QUQFOY_clean_sbu_3--edge1-FUNLAD_clean_linker_0
_symmetry_space_group_name_H-M    P1
_symmetry_Int_Tables_number       1
_symmetry_cell_setting            triclinic
loop_
_symmetry_equiv_pos_as_xyz
'x, y, z'
_cell_length_a     52.873898
_cell_length_b     51.423318
_cell_length_c     29.006555
_cell_angle_alpha  93.432751
_cell_angle_beta   89.780384
_cell_angle_gamma 120.37975
loop_
_atom_site_label
_atom_site_type_symbol
_atom_site_fract_x
_atom_site_fract_y
_atom_site_fract_z
_atom_type_partial_charge
C0 C 0.50791 0.14767 0.19737 0.0
O1 O 0.51063 0.14159 0.15525 0.0
Cd2 Cd 0.53796 0.11828 0.13299 0.0
O3 O 0.51711 0.13824 0.2294 0.0
Cd4 Cd 0.53856 0.10478 0.23595 0.0
C5 C 0.60071 0.16284 0.20129 0.0
O6 O 0.51504 0.07129 0.16878 0.0
O7 O 0.55422 0.07247 0.19257 0.0
O8 O 0.50102 0.07564 0.29027 0.0
C9 C 0.53129 0.05982 0.16673 0.0
O10 O 0.58777 0.15594 0.16172 0.0
C11 C 0.51853 0.07599 0.3204 0.0
O12 O 0.58778 0.14803 0.23593 0.0
O13 O 0.54568 0.09061 0.31191 0.0
C14 C 0.35478 0.50072 0.71467 0.0
O15 O 0.36547 0.50447 0.67468 0.0
Cd16 Cd 0.41697 0.52829 0.66197 0.0
O17 O 0.3715 0.50928 0.75069 0.0
Cd18 Cd 0.4245 0.53321 0.77034 0.0
C19 C 0.4395 0.59684 0.71833 0.0
O20 O 0.43401 0.5041 0.71216 0.0
O21 O 0.47266 0.5412 0.74645 0.0
O22 O 0.41328 0.50369 0.8383 0.0
C23 C 0.46153 0.51776 0.71896 0.0
O24 O 0.43579 0.5827 0.67908 0.0
C25 C 0.42768 0.52658 0.86644 0.0
O26 O 0.43553 0.58336 0.75526 0.0
O27 O 0.44041 0.55226 0.84966 0.0
C28 C 0.84369 0.48781 0.23796 0.0
O29 O 0.85292 0.48845 0.2786 0.0
Cd30 Cd 0.88203 0.4664 0.29509 0.0
O31 O 0.85126 0.47685 0.20368 0.0
Cd32 Cd 0.88283 0.45504 0.18559 0.0
C33 C 0.83736 0.39466 0.24502 0.0
O34 O 0.9215 0.48616 0.24194 0.0
O35 O 0.92321 0.44804 0.21028 0.0
O36 O 0.90049 0.48564 0.11925 0.0
C37 C 0.93512 0.47183 0.23705 0.0
O38 O 0.84728 0.41192 0.28183 0.0
C39 C 0.89333 0.46356 0.08986 0.0
O40 O 0.84615 0.40475 0.20556 0.0
O41 O 0.8812 0.43739 0.1051 0.0
C42 C 0.34505 0.83327 0.77699 0.0
O43 O 0.35758 0.83699 0.81607 0.0
Cd44 Cd 0.40873 0.86559 0.8336 0.0
O45 O 0.35995 0.84619 0.74205 0.0
Cd46 Cd 0.41317 0.88212 0.72782 0.0
C47 C 0.43134 0.83024 0.75324 0.0
O48 O 0.42359 0.91169 0.79956 0.0
O49 O 0.46219 0.91915 0.76448 0.0
O50 O 0.40217 0.91148 0.67628 0.0
C51 C 0.45121 0.92637 0.79826 0.0
O52 O 0.42927 0.83679 0.79563 0.0
C53 C 0.41803 0.91044 0.64404 0.0
O54 O 0.42472 0.84191 0.72136 0.0
O55 O 0.43049 0.89528 0.6503 0.0
C56 C 0.60777 0.47265 0.21465 0.0
O57 O 0.59668 0.46804 0.17413 0.0
Cd58 Cd 0.54579 0.45057 0.15903 0.0
O59 O 0.59194 0.4683 0.24983 0.0
Cd60 Cd 0.5407 0.45245 0.26838 0.0
C61 C 0.51442 0.38368 0.21134 0.0
O62 O 0.53429 0.48088 0.21119 0.0
O63 O 0.49478 0.45032 0.24478 0.0
O64 O 0.55937 0.48817 0.33617 0.0
C65 C 0.5072 0.47072 0.2165 0.0
O66 O 0.51917 0.39678 0.17371 0.0
C67 C 0.54388 0.46871 0.36451 0.0
O68 O 0.52179 0.39895 0.25005 0.0
O69 O 0.52697 0.44187 0.34791 0.0
C70 C 0.12777 0.50167 0.73699 0.0
O71 O 0.1228 0.5075 0.77808 0.0
Cd72 Cd 0.08976 0.52517 0.7974 0.0
O73 O 0.1149 0.50502 0.70269 0.0
Cd74 Cd 0.07866 0.52097 0.68907 0.0
C75 C 0.12304 0.59072 0.74246 0.0
O76 O 0.04713 0.4922 0.74918 0.0
O77 O 0.03441 0.52086 0.71757 0.0
O78 O 0.06131 0.48701 0.61876 0.0
C79 C 0.02852 0.50053 0.74531 0.0
O80 O 0.11637 0.57892 0.78125 0.0
C81 C 0.0636 0.50727 0.59319 0.0
O82 O 0.11324 0.57429 0.70502 0.0
O83 O 0.0727 0.53341 0.6125 0.0
C84 C 0.48532 0.1774 0.17329 0.0
C85 C 0.49684 0.16852 0.20864 0.0
C86 C 0.47967 0.20096 0.18155 0.0
C87 C 0.48532 0.2162 0.22563 0.0
C88 C 0.49497 0.20591 0.26168 0.0
C89 C 0.5006 0.18226 0.25337 0.0
C90 C 0.48515 0.24498 0.23412 0.0
C91 C 0.47448 0.25615 0.20368 0.0
C92 C 0.4815 0.28806 0.20733 0.0
C93 C 0.48355 0.30224 0.16647 0.0
C94 C 0.49351 0.33314 0.16776 0.0
C95 C 0.50137 0.35048 0.2101 0.0
H96 H 0.48548 0.29471 0.28226 0.0
C97 C 0.4977 0.33594 0.25124 0.0
C98 C 0.48781 0.30504 0.24991 0.0
H99 H 0.50308 0.34852 0.28453 0.0
H100 H 0.48193 0.16711 0.13847 0.0
H101 H 0.47251 0.20794 0.15237 0.0
H102 H 0.49949 0.21712 0.296 0.0
H103 H 0.50937 0.17589 0.28143 0.0
H104 H 0.49687 0.25873 0.26514 0.0
H105 H 0.46288 0.24286 0.17239 0.0
H106 H 0.47856 0.28962 0.13322 0.0
H107 H 0.49575 0.34353 0.13544 0.0
C108 C 0.31099 0.48613 0.76346 0.0
C109 C 0.32291 0.48828 0.7195 0.0
C110 C 0.28161 0.47789 0.7679 0.0
C111 C 0.26364 0.47189 0.72859 0.0
C112 C 0.27499 0.47198 0.68462 0.0
C113 C 0.30436 0.4802 0.68015 0.0
C114 C 0.23402 0.4678 0.73491 0.0
C115 C 0.22127 0.47654 0.70407 0.0
C116 C 0.19503 0.4792 0.7136 0.0
C117 C 0.17957 0.48138 0.67622 0.0
C118 C 0.15707 0.4877 0.6837 0.0
C119 C 0.1497 0.49225 0.72887 0.0
H120 H 0.19882 0.48225 0.78876 0.0
C121 C 0.16456 0.48918 0.76632 0.0
C122 C 0.18703 0.48283 0.75885 0.0
H123 H 0.15947 0.49259 0.80158 0.0
H124 H 0.32457 0.49184 0.79451 0.0
H125 H 0.2733 0.47761 0.80219 0.0
H126 H 0.26147 0.46627 0.65354 0.0
H127 H 0.31271 0.48106 0.64577 0.0
H128 H 0.22401 0.46027 0.76787 0.0
H129 H 0.23144 0.48411 0.67121 0.0
H130 H 0.18541 0.47891 0.64103 0.0
H131 H 0.14603 0.48985 0.65404 0.0
C132 C 0.64992 0.19173 0.24198 0.0
C133 C 0.63017 0.18984 0.20781 0.0
C134 C 0.67712 0.2182 0.24975 0.0
C135 C 0.68458 0.24337 0.22426 0.0
C136 C 0.66485 0.24146 0.19024 0.0
C137 C 0.63809 0.21477 0.18152 0.0
C138 C 0.71206 0.27239 0.23405 0.0
C139 C 0.73805 0.27427 0.24091 0.0
C140 C 0.76514 0.30407 0.24583 0.0
C141 C 0.78767 0.31114 0.21463 0.0
C142 C 0.81164 0.34056 0.215 0.0
C143 C 0.81384 0.36299 0.24763 0.0
H144 H 0.75056 0.32105 0.30389 0.0
C145 C 0.79211 0.35536 0.28066 0.0
C146 C 0.76772 0.3262 0.27936 0.0
H147 H 0.79326 0.37228 0.30605 0.0
H148 H 0.64425 0.17283 0.26279 0.0
H149 H 0.69187 0.21932 0.27664 0.0
H150 H 0.67015 0.26069 0.17039 0.0
H151 H 0.62314 0.21401 0.15531 0.0
H152 H 0.71128 0.29303 0.23191 0.0
H153 H 0.73975 0.25404 0.23797 0.0
H154 H 0.786 0.29431 0.18855 0.0
H155 H 0.82821 0.34591 0.18932 0.0
C156 C 0.453 0.79909 0.77487 0.0
C157 C 0.44036 0.80782 0.74105 0.0
C158 C 0.45947 0.77629 0.76447 0.0
C159 C 0.45288 0.76122 0.72016 0.0
C160 C 0.44168 0.77105 0.68574 0.0
C161 C 0.43547 0.79412 0.69603 0.0
C162 C 0.45626 0.73452 0.70917 0.0
C163 C 0.45487 0.71624 0.74171 0.0
C164 C 0.45444 0.68728 0.73245 0.0
C165 C 0.45842 0.67383 0.7703 0.0
C166 C 0.45473 0.645 0.76513 0.0
C167 C 0.44688 0.62876 0.72185 0.0
H168 H 0.44404 0.68077 0.65852 0.0
C169 C 0.44416 0.64261 0.68336 0.0
C170 C 0.44777 0.67157 0.68857 0.0
H171 H 0.43803 0.63062 0.64958 0.0
H172 H 0.45766 0.8097 0.80961 0.0
H173 H 0.46945 0.77051 0.79147 0.0
H174 H 0.43676 0.76016 0.65118 0.0
H175 H 0.42596 0.80051 0.66907 0.0
H176 H 0.45794 0.7289 0.67309 0.0
H177 H 0.4526 0.72189 0.77754 0.0
H178 H 0.46361 0.68534 0.80446 0.0
H179 H 0.45727 0.63515 0.79549 0.0
C180 C 0.65656 0.48527 0.18295 0.0
C181 C 0.63911 0.48226 0.2212 0.0
C182 C 0.68562 0.49242 0.18922 0.0
C183 C 0.69794 0.49695 0.23403 0.0
C184 C 0.68064 0.49461 0.27215 0.0
C185 C 0.65161 0.48744 0.26588 0.0
C186 C 0.72755 0.50131 0.24269 0.0
C187 C 0.74844 0.50978 0.21088 0.0
C188 C 0.7755 0.50845 0.2182 0.0
C189 C 0.78772 0.50126 0.18002 0.0
C190 C 0.81073 0.49575 0.18619 0.0
C191 C 0.82218 0.49763 0.23073 0.0
H192 H 0.78021 0.51913 0.29245 0.0
C193 C 0.81133 0.50695 0.26861 0.0
C194 C 0.78827 0.51239 0.26242 0.0
H195 H 0.81999 0.50913 0.3033 0.0
H196 H 0.64758 0.48133 0.14805 0.0
H197 H 0.69774 0.49315 0.15877 0.0
H198 H 0.68945 0.49777 0.30703 0.0
H199 H 0.63882 0.48538 0.29615 0.0
H200 H 0.73153 0.49563 0.27633 0.0
H201 H 0.7447 0.51523 0.17696 0.0
H202 H 0.77852 0.49848 0.14552 0.0
H203 H 0.81881 0.48898 0.15617 0.0
C204 C 0.29929 0.79941 0.7287 0.0
C205 C 0.31304 0.81203 0.7722 0.0
C206 C 0.26995 0.77604 0.72535 0.0
C207 C 0.25388 0.76495 0.76554 0.0
C208 C 0.26707 0.7792 0.80862 0.0
C209 C 0.29633 0.80232 0.81199 0.0
C210 C 0.22428 0.73743 0.76478 0.0
C211 C 0.21484 0.71491 0.7314 0.0
C212 C 0.1886 0.68452 0.73546 0.0
C213 C 0.17546 0.66606 0.69502 0.0
C214 C 0.1533 0.63599 0.69736 0.0
C215 C 0.14399 0.62351 0.74034 0.0
H216 H 0.18862 0.68555 0.81062 0.0
C217 C 0.15644 0.64223 0.78091 0.0
C218 C 0.17855 0.6724 0.77856 0.0
H219 H 0.14986 0.63334 0.81457 0.0
H220 H 0.31149 0.80667 0.69739 0.0
H221 H 0.26023 0.76642 0.69135 0.0
H222 H 0.25514 0.77143 0.84009 0.0
H223 H 0.3061 0.8119 0.84604 0.0
H224 H 0.21122 0.73436 0.79513 0.0
H225 H 0.22766 0.71787 0.7008 0.0
H226 H 0.1829 0.67472 0.66142 0.0
H227 H 0.14419 0.62226 0.66535 0.0
C228 C 0.45455 0.94877 0.87774 0.0
C229 C 0.46886 0.94463 0.8396 0.0
C230 C 0.46996 0.96295 0.91899 0.0
C231 C 0.50011 0.97337 0.92327 0.0
C232 C 0.5149 0.97082 0.88455 0.0
C233 C 0.49931 0.95626 0.84299 0.0
C234 C 0.51605 0.98794 0.96779 0.0
C235 C 0.50318 0.97755 0.00803 0.0
C236 C 0.5123 -0.00385 0.05222 0.0
C237 C 0.49012 -0.00683 0.08191 0.0
C238 C 0.49667 0.0133 0.12032 0.0
C239 C 0.52567 0.03616 0.13063 0.0
H240 H 0.55924 0.02054 0.04185 0.0
C241 C 0.54831 0.03785 0.10314 0.0
C242 C 0.54163 0.01812 0.06372 0.0
H243 H 0.57086 0.05543 0.1106 0.0
H244 H 0.43121 0.9405 0.87612 0.0
H245 H 0.45816 0.96579 0.94761 0.0
H246 H 0.53827 0.97931 0.88683 0.0
H247 H 0.51093 0.95356 0.81398 0.0
H248 H 0.53711 0.00869 0.96713 0.0
H249 H 0.48225 0.95647 0.00727 0.0
H250 H 0.46737 0.97633 0.07388 0.0
H251 H 0.47893 0.01156 0.14128 0.0
C252 C 0.52685 0.45494 0.4444 0.0
C253 C 0.54455 0.47703 0.41426 0.0
C254 C 0.52529 0.46296 0.49065 0.0
C255 C 0.54163 0.49337 0.50794 0.0
C256 C 0.56013 0.51528 0.47807 0.0
C257 C 0.56168 0.50721 0.43172 0.0
C258 C 0.53702 0.50352 0.55465 0.0
C259 C 0.52373 0.48474 0.58849 0.0
C260 C 0.51058 0.49294 0.62766 0.0
C261 C 0.48266 0.4711 0.64109 0.0
C262 C 0.46713 0.47906 0.6721 0.0
C263 C 0.4796 0.50887 0.69116 0.0
H264 H 0.54562 0.53955 0.63965 0.0
C265 C 0.50846 0.53026 0.68057 0.0
C266 C 0.52381 0.52242 0.64869 0.0
H267 H 0.5186 0.55336 0.6951 0.0
H268 H 0.51337 0.43148 0.43196 0.0
H269 H 0.51006 0.44533 0.51169 0.0
H270 H 0.57275 0.53888 0.49027 0.0
H271 H 0.5756 0.52475 0.4093 0.0
H272 H 0.54217 0.52684 0.55949 0.0
H273 H 0.51836 0.46138 0.5843 0.0
H274 H 0.47211 0.44821 0.62552 0.0
H275 H 0.44503 0.46207 0.68018 0.0
C276 C -0.0134 0.50378 0.78014 0.0
C277 C 0.00325 0.48948 0.77585 0.0
C278 C 0.96455 0.49482 0.81262 0.0
C279 C 0.95882 0.47136 0.84122 0.0
C280 C 0.97435 0.45602 0.83484 0.0
C281 C -0.00356 0.46509 0.80277 0.0
C282 C 0.93821 0.46316 0.87979 0.0
C283 C 0.93259 0.48308 0.90298 0.0
C284 C 0.91873 0.47734 0.94872 0.0
C285 C 0.92619 0.50209 0.98028 0.0
C286 C 0.91707 0.49764 0.02581 0.0
C287 C 0.90018 0.46828 0.04062 0.0
H288 H 0.89282 0.42831 0.93895 0.0
C289 C 0.89108 0.4435 0.00834 0.0
C290 C 0.90008 0.44796 0.96273 0.0
H291 H 0.87755 0.42061 0.01854 0.0
H292 H -0.00885 0.52242 0.7594 0.0
H293 H 0.95237 0.50653 0.81555 0.0
H294 H 0.9702 0.4377 0.85607 0.0
H295 H 0.00863 0.45335 0.79983 0.0
H296 H 0.93094 0.44134 0.89341 0.0
H297 H 0.94207 0.50583 0.89168 0.0
H298 H 0.94024 0.52497 0.9703 0.0
H299 H 0.92416 0.51722 0.04977 0.0
C300 C 0.47729 0.04111 0.36871 0.0
C301 C 0.50758 0.05859 0.3619 0.0
C302 C 0.46672 0.02255 0.40568 0.0
C303 C 0.48631 0.02124 0.43688 0.0
C304 C 0.51659 0.03918 0.4305 0.0
C305 C 0.52715 0.05773 0.39352 0.0
C306 C 0.47617 0.00016 0.4746 0.0
C307 C 0.44908 0.98752 0.49186 0.0
C308 C 0.43982 0.96613 0.52899 0.0
C309 C 0.41921 0.96499 0.56068 0.0
C310 C 0.41134 0.94619 0.59744 0.0
C311 C 0.4237 0.92789 0.60275 0.0
H312 H 0.46618 0.94616 0.5083 0.0
C313 C 0.4432 0.92793 0.56967 0.0
C314 C 0.45113 0.94678 0.53314 0.0
H315 H 0.45286 0.91385 0.57248 0.0
H316 H 0.46163 0.04112 0.34474 0.0
H317 H 0.44323 0.00858 0.40852 0.0
H318 H 0.53218 0.03853 0.45384 0.0
H319 H 0.55062 0.07087 0.38916 0.0
H320 H 0.49217 -0.00447 0.48959 0.0
H321 H 0.43371 -0.00588 0.48057 0.0
H322 H 0.40984 0.97933 0.5578 0.0
H323 H 0.39613 0.94654 0.62224 0.0
C324 C 0.41994 0.49495 0.93317 0.0
C325 C 0.43083 0.52356 0.91605 0.0
C326 C 0.42576 0.4923 0.97905 0.0
C327 C 0.4424 0.5183 0.00885 0.0
C328 C 0.45206 0.54679 -0.00789 0.0
C329 C 0.44634 0.54943 0.94625 0.0
C330 C 0.45342 0.51701 0.05517 0.0
C331 C 0.44313 0.4916 0.07774 0.0
C332 C 0.45936 0.48927 0.11742 0.0
C333 C 0.44427 0.46644 0.14797 0.0
C334 C 0.45963 0.4612 0.18186 0.0
C335 C 0.4904 0.47844 0.18523 0.0
H336 H 0.50274 0.52438 0.09839 0.0
C337 C 0.50539 0.50188 0.15567 0.0
C338 C 0.4901 0.5072 0.12207 0.0
H339 H 0.5291 0.5155 0.15736 0.0
H340 H 0.40792 0.47461 0.91067 0.0
H341 H 0.41839 0.4699 -0.01003 0.0
H342 H 0.46503 0.5672 0.01413 0.0
H343 H 0.45487 0.57181 0.93414 0.0
H344 H 0.47198 0.53779 0.07011 0.0
H345 H 0.42293 0.47138 0.06591 0.0
H346 H 0.42066 0.45211 0.1448 0.0
H347 H 0.4475 0.44289 0.20414 0.0
C348 C 0.05834 0.52409 0.51687 0.0
C349 C 0.05521 0.50081 0.54357 0.0
C350 C 0.04842 0.51797 0.47089 0.0
C351 C 0.0353 0.48835 0.4503 0.0
C352 C 0.03294 0.46523 0.4767 0.0
C353 C 0.0429 0.47138 0.52286 0.0
C354 C 0.02082 0.48021 0.40364 0.0
C355 C 0.02592 0.50058 0.37244 0.0
C356 C 0.00551 0.49367 0.33279 0.0
C357 C -0.00084 0.51588 0.32119 0.0
C358 C 0.97683 0.509 0.28887 0.0
C359 C 0.96092 0.47994 0.26677 0.0
H360 H -0.00433 0.44769 0.31635 0.0
C361 C 0.96867 0.45829 0.27588 0.0
C362 C -0.0093 0.46504 0.3089 0.0
H363 H 0.95688 0.43577 0.25902 0.0
H364 H 0.0677 0.54701 0.53186 0.0
H365 H 0.04996 0.53643 0.45272 0.0
H366 H 0.02268 0.44217 0.46193 0.0
H367 H 0.04022 0.45297 0.5426 0.0
H368 H 0.00348 0.45689 0.39654 0.0
H369 H 0.0431 0.52396 0.37894 0.0
H370 H 0.01043 0.53817 0.33894 0.0
H371 H 0.97152 0.52621 0.28207 0.0
loop_
_geom_bond_atom_site_label_1
_geom_bond_atom_site_label_2
_geom_bond_distance
_geom_bond_site_symmetry_2
_ccdc_geom_bond_type
C0 O1 1.306 . S
C0 O3 1.160 . S
O1 C0 1.306 . S
O1 Cd2 2.228 . S
Cd2 O1 2.228 . S
Cd2 O6 2.273 . S
Cd2 O10 2.277 . S
O3 C0 1.160 . S
O3 Cd4 2.203 . S
Cd4 O3 2.203 . S
Cd4 O6 2.411 . S
Cd4 O7 2.333 . S
Cd4 O8 2.352 . S
Cd4 O12 2.277 . S
Cd4 O13 2.356 . S
C5 O10 1.209 . S
C5 O12 1.226 . S
O6 Cd2 2.273 . S
O6 Cd4 2.411 . S
O6 C9 1.320 . S
O7 Cd4 2.333 . S
O7 C9 1.214 . S
O8 Cd4 2.352 . S
O8 C11 1.258 . S
C9 O6 1.320 . S
C9 O7 1.214 . S
O10 Cd2 2.277 . S
O10 C5 1.209 . S
C11 O8 1.258 . S
C11 O13 1.282 . S
O12 Cd4 2.277 . S
O12 C5 1.226 . S
O13 Cd4 2.356 . S
O13 C11 1.282 . S
C14 O15 1.306 . S
C14 O17 1.160 . S
O15 C14 1.306 . S
O15 Cd16 2.228 . S
Cd16 O15 2.228 . S
Cd16 O20 2.273 . S
Cd16 O24 2.277 . S
O17 C14 1.160 . S
O17 Cd18 2.203 . S
Cd18 O17 2.203 . S
Cd18 O20 2.411 . S
Cd18 O21 2.333 . S
Cd18 O22 2.352 . S
Cd18 O26 2.277 . S
Cd18 O27 2.356 . S
C19 O24 1.209 . S
C19 O26 1.226 . S
O20 Cd16 2.273 . S
O20 Cd18 2.411 . S
O20 C23 1.320 . S
O21 Cd18 2.333 . S
O21 C23 1.214 . S
O22 Cd18 2.352 . S
O22 C25 1.258 . S
C23 O20 1.320 . S
C23 O21 1.214 . S
O24 Cd16 2.277 . S
O24 C19 1.209 . S
C25 O22 1.258 . S
C25 O27 1.282 . S
O26 Cd18 2.277 . S
O26 C19 1.226 . S
O27 Cd18 2.356 . S
O27 C25 1.282 . S
C28 O29 1.306 . S
C28 O31 1.160 . S
O29 C28 1.306 . S
O29 Cd30 2.228 . S
Cd30 O29 2.228 . S
Cd30 O34 2.273 . S
Cd30 O38 2.277 . S
O31 C28 1.160 . S
O31 Cd32 2.203 . S
Cd32 O31 2.203 . S
Cd32 O34 2.411 . S
Cd32 O35 2.333 . S
Cd32 O36 2.352 . S
Cd32 O40 2.277 . S
Cd32 O41 2.356 . S
C33 O38 1.209 . S
C33 O40 1.226 . S
O34 Cd30 2.273 . S
O34 Cd32 2.411 . S
O34 C37 1.320 . S
O35 Cd32 2.333 . S
O35 C37 1.214 . S
O36 Cd32 2.352 . S
O36 C39 1.258 . S
C37 O34 1.320 . S
C37 O35 1.214 . S
O38 Cd30 2.277 . S
O38 C33 1.209 . S
C39 O36 1.258 . S
C39 O41 1.282 . S
O40 Cd32 2.277 . S
O40 C33 1.226 . S
O41 Cd32 2.356 . S
O41 C39 1.282 . S
C42 O43 1.306 . S
C42 O45 1.160 . S
O43 C42 1.306 . S
O43 Cd44 2.228 . S
Cd44 O43 2.228 . S
Cd44 O48 2.273 . S
Cd44 O52 2.277 . S
O45 C42 1.160 . S
O45 Cd46 2.203 . S
Cd46 O45 2.203 . S
Cd46 O48 2.411 . S
Cd46 O49 2.333 . S
Cd46 O50 2.352 . S
Cd46 O54 2.277 . S
Cd46 O55 2.356 . S
C47 O52 1.209 . S
C47 O54 1.226 . S
O48 Cd44 2.273 . S
O48 Cd46 2.411 . S
O48 C51 1.320 . S
O49 Cd46 2.333 . S
O49 C51 1.214 . S
O50 Cd46 2.352 . S
O50 C53 1.258 . S
C51 O48 1.320 . S
C51 O49 1.214 . S
O52 Cd44 2.277 . S
O52 C47 1.209 . S
C53 O50 1.258 . S
C53 O55 1.282 . S
O54 Cd46 2.277 . S
O54 C47 1.226 . S
O55 Cd46 2.356 . S
O55 C53 1.282 . S
C56 O57 1.306 . S
C56 O59 1.160 . S
O57 C56 1.306 . S
O57 Cd58 2.228 . S
Cd58 O57 2.228 . S
Cd58 O62 2.273 . S
Cd58 O66 2.277 . S
O59 C56 1.160 . S
O59 Cd60 2.203 . S
Cd60 O59 2.203 . S
Cd60 O62 2.411 . S
Cd60 O63 2.333 . S
Cd60 O64 2.352 . S
Cd60 O68 2.277 . S
Cd60 O69 2.356 . S
C61 O66 1.209 . S
C61 O68 1.226 . S
O62 Cd58 2.273 . S
O62 Cd60 2.411 . S
O62 C65 1.320 . S
O63 Cd60 2.333 . S
O63 C65 1.214 . S
O64 Cd60 2.352 . S
O64 C67 1.258 . S
C65 O62 1.320 . S
C65 O63 1.214 . S
O66 Cd58 2.277 . S
O66 C61 1.209 . S
C67 O64 1.258 . S
C67 O69 1.282 . S
O68 Cd60 2.277 . S
O68 C61 1.226 . S
O69 Cd60 2.356 . S
O69 C67 1.282 . S
C70 O71 1.306 . S
C70 O73 1.160 . S
O71 C70 1.306 . S
O71 Cd72 2.228 . S
Cd72 O71 2.228 . S
Cd72 O76 2.273 . S
Cd72 O80 2.277 . S
O73 C70 1.160 . S
O73 Cd74 2.203 . S
Cd74 O73 2.203 . S
Cd74 O76 2.411 . S
Cd74 O77 2.333 . S
Cd74 O78 2.352 . S
Cd74 O82 2.277 . S
Cd74 O83 2.356 . S
C75 O80 1.209 . S
C75 O82 1.226 . S
O76 Cd72 2.273 . S
O76 Cd74 2.411 . S
O76 C79 1.320 . S
O77 Cd74 2.333 . S
O77 C79 1.214 . S
O78 Cd74 2.352 . S
O78 C81 1.258 . S
C79 O76 1.320 . S
C79 O77 1.214 . S
O80 Cd72 2.277 . S
O80 C75 1.209 . S
C81 O78 1.258 . S
C81 O83 1.282 . S
O82 Cd74 2.277 . S
O82 C75 1.226 . S
O83 Cd74 2.356 . S
O83 C81 1.282 . S
C84 C85 1.386 . S
C84 C86 1.383 . S
C84 H100 0.951 . S
C85 C84 1.386 . S
C85 C89 1.383 . S
C86 C84 1.383 . S
C86 C87 1.402 . S
C86 H101 0.951 . S
C87 C86 1.402 . S
C87 C88 1.375 . S
C87 C90 1.481 . S
C88 C87 1.375 . S
C88 C89 1.367 . S
C88 H102 0.951 . S
C89 C85 1.383 . S
C89 C88 1.367 . S
C89 H103 0.950 . S
C90 C87 1.481 . S
C90 C91 1.297 . S
C90 H104 0.950 . S
C91 C90 1.297 . S
C91 C92 1.479 . S
C91 H105 0.950 . S
C92 C91 1.479 . S
C92 C93 1.375 . S
C92 C98 1.404 . S
C93 C92 1.375 . S
C93 C94 1.369 . S
C93 H106 0.950 . S
C94 C93 1.369 . S
C94 C95 1.392 . S
C94 H107 0.951 . S
C95 C94 1.392 . S
C95 C97 1.384 . S
H96 C98 0.949 . S
C97 C95 1.384 . S
C97 C98 1.385 . S
C97 H99 0.950 . S
C98 C92 1.404 . S
C98 H96 0.949 . S
C98 C97 1.385 . S
H99 C97 0.950 . S
H100 C84 0.951 . S
H101 C86 0.951 . S
H102 C88 0.951 . S
H103 C89 0.950 . S
H104 C90 0.950 . S
H105 C91 0.950 . S
H106 C93 0.950 . S
H107 C94 0.951 . S
C108 C109 1.386 . S
C108 C110 1.383 . S
C108 H124 0.951 . S
C109 C108 1.386 . S
C109 C113 1.383 . S
C110 C108 1.383 . S
C110 C111 1.402 . S
C110 H125 0.951 . S
C111 C110 1.402 . S
C111 C112 1.375 . S
C111 C114 1.481 . S
C112 C111 1.375 . S
C112 C113 1.367 . S
C112 H126 0.951 . S
C113 C109 1.383 . S
C113 C112 1.367 . S
C113 H127 0.950 . S
C114 C111 1.481 . S
C114 C115 1.297 . S
C114 H128 0.950 . S
C115 C114 1.297 . S
C115 C116 1.479 . S
C115 H129 0.950 . S
C116 C115 1.479 . S
C116 C117 1.375 . S
C116 C122 1.404 . S
C117 C116 1.375 . S
C117 C118 1.369 . S
C117 H130 0.950 . S
C118 C117 1.369 . S
C118 C119 1.392 . S
C118 H131 0.951 . S
C119 C118 1.392 . S
C119 C121 1.384 . S
H120 C122 0.949 . S
C121 C119 1.384 . S
C121 C122 1.385 . S
C121 H123 0.950 . S
C122 C116 1.404 . S
C122 H120 0.949 . S
C122 C121 1.385 . S
H123 C121 0.950 . S
H124 C108 0.951 . S
H125 C110 0.951 . S
H126 C112 0.951 . S
H127 C113 0.950 . S
H128 C114 0.950 . S
H129 C115 0.950 . S
H130 C117 0.950 . S
H131 C118 0.951 . S
C132 C133 1.386 . S
C132 C134 1.383 . S
C132 H148 0.951 . S
C133 C132 1.386 . S
C133 C137 1.383 . S
C134 C132 1.383 . S
C134 C135 1.402 . S
C134 H149 0.951 . S
C135 C134 1.402 . S
C135 C136 1.375 . S
C135 C138 1.481 . S
C136 C135 1.375 . S
C136 C137 1.367 . S
C136 H150 0.951 . S
C137 C133 1.383 . S
C137 C136 1.367 . S
C137 H151 0.950 . S
C138 C135 1.481 . S
C138 C139 1.297 . S
C138 H152 0.950 . S
C139 C138 1.297 . S
C139 C140 1.479 . S
C139 H153 0.950 . S
C140 C139 1.479 . S
C140 C141 1.375 . S
C140 C146 1.404 . S
C141 C140 1.375 . S
C141 C142 1.369 . S
C141 H154 0.950 . S
C142 C141 1.369 . S
C142 C143 1.392 . S
C142 H155 0.951 . S
C143 C142 1.392 . S
C143 C145 1.384 . S
H144 C146 0.949 . S
C145 C143 1.384 . S
C145 C146 1.385 . S
C145 H147 0.950 . S
C146 C140 1.404 . S
C146 H144 0.949 . S
C146 C145 1.385 . S
H147 C145 0.950 . S
H148 C132 0.951 . S
H149 C134 0.951 . S
H150 C136 0.951 . S
H151 C137 0.950 . S
H152 C138 0.950 . S
H153 C139 0.950 . S
H154 C141 0.950 . S
H155 C142 0.951 . S
C156 C157 1.386 . S
C156 C158 1.383 . S
C156 H172 0.951 . S
C157 C156 1.386 . S
C157 C161 1.383 . S
C158 C156 1.383 . S
C158 C159 1.402 . S
C158 H173 0.951 . S
C159 C158 1.402 . S
C159 C160 1.375 . S
C159 C162 1.481 . S
C160 C159 1.375 . S
C160 C161 1.367 . S
C160 H174 0.951 . S
C161 C157 1.383 . S
C161 C160 1.367 . S
C161 H175 0.950 . S
C162 C159 1.481 . S
C162 C163 1.297 . S
C162 H176 0.950 . S
C163 C162 1.297 . S
C163 C164 1.479 . S
C163 H177 0.950 . S
C164 C163 1.479 . S
C164 C165 1.375 . S
C164 C170 1.404 . S
C165 C164 1.375 . S
C165 C166 1.369 . S
C165 H178 0.950 . S
C166 C165 1.369 . S
C166 C167 1.392 . S
C166 H179 0.951 . S
C167 C166 1.392 . S
C167 C169 1.384 . S
H168 C170 0.949 . S
C169 C167 1.384 . S
C169 C170 1.385 . S
C169 H171 0.950 . S
C170 C164 1.404 . S
C170 H168 0.949 . S
C170 C169 1.385 . S
H171 C169 0.950 . S
H172 C156 0.951 . S
H173 C158 0.951 . S
H174 C160 0.951 . S
H175 C161 0.950 . S
H176 C162 0.950 . S
H177 C163 0.950 . S
H178 C165 0.950 . S
H179 C166 0.951 . S
C180 C181 1.386 . S
C180 C182 1.383 . S
C180 H196 0.951 . S
C181 C180 1.386 . S
C181 C185 1.383 . S
C182 C180 1.383 . S
C182 C183 1.402 . S
C182 H197 0.951 . S
C183 C182 1.402 . S
C183 C184 1.375 . S
C183 C186 1.481 . S
C184 C183 1.375 . S
C184 C185 1.367 . S
C184 H198 0.951 . S
C185 C181 1.383 . S
C185 C184 1.367 . S
C185 H199 0.950 . S
C186 C183 1.481 . S
C186 C187 1.297 . S
C186 H200 0.950 . S
C187 C186 1.297 . S
C187 C188 1.479 . S
C187 H201 0.950 . S
C188 C187 1.479 . S
C188 C189 1.375 . S
C188 C194 1.404 . S
C189 C188 1.375 . S
C189 C190 1.369 . S
C189 H202 0.950 . S
C190 C189 1.369 . S
C190 C191 1.392 . S
C190 H203 0.951 . S
C191 C190 1.392 . S
C191 C193 1.384 . S
H192 C194 0.949 . S
C193 C191 1.384 . S
C193 C194 1.385 . S
C193 H195 0.950 . S
C194 C188 1.404 . S
C194 H192 0.949 . S
C194 C193 1.385 . S
H195 C193 0.950 . S
H196 C180 0.951 . S
H197 C182 0.951 . S
H198 C184 0.951 . S
H199 C185 0.950 . S
H200 C186 0.950 . S
H201 C187 0.950 . S
H202 C189 0.950 . S
H203 C190 0.951 . S
C204 C205 1.386 . S
C204 C206 1.383 . S
C204 H220 0.951 . S
C205 C204 1.386 . S
C205 C209 1.383 . S
C206 C204 1.383 . S
C206 C207 1.402 . S
C206 H221 0.951 . S
C207 C206 1.402 . S
C207 C208 1.375 . S
C207 C210 1.481 . S
C208 C207 1.375 . S
C208 C209 1.367 . S
C208 H222 0.951 . S
C209 C205 1.383 . S
C209 C208 1.367 . S
C209 H223 0.950 . S
C210 C207 1.481 . S
C210 C211 1.297 . S
C210 H224 0.950 . S
C211 C210 1.297 . S
C211 C212 1.479 . S
C211 H225 0.950 . S
C212 C211 1.479 . S
C212 C213 1.375 . S
C212 C218 1.404 . S
C213 C212 1.375 . S
C213 C214 1.369 . S
C213 H226 0.950 . S
C214 C213 1.369 . S
C214 C215 1.392 . S
C214 H227 0.951 . S
C215 C214 1.392 . S
C215 C217 1.384 . S
H216 C218 0.949 . S
C217 C215 1.384 . S
C217 C218 1.385 . S
C217 H219 0.950 . S
C218 C212 1.404 . S
C218 H216 0.949 . S
C218 C217 1.385 . S
H219 C217 0.950 . S
H220 C204 0.951 . S
H221 C206 0.951 . S
H222 C208 0.951 . S
H223 C209 0.950 . S
H224 C210 0.950 . S
H225 C211 0.950 . S
H226 C213 0.950 . S
H227 C214 0.951 . S
C228 C229 1.386 . S
C228 C230 1.383 . S
C228 H244 0.951 . S
C229 C228 1.386 . S
C229 C233 1.383 . S
C230 C228 1.383 . S
C230 C231 1.402 . S
C230 H245 0.951 . S
C231 C230 1.402 . S
C231 C232 1.375 . S
C231 C234 1.481 1_565 S
C232 C231 1.375 . S
C232 C233 1.367 . S
C232 H246 0.951 1_565 S
C233 C229 1.383 . S
C233 C232 1.367 . S
C233 H247 0.950 . S
C234 C231 1.481 1_545 S
C234 C235 1.292 1_546 S
C234 H248 0.950 . S
C235 C234 1.292 1_564 S
C235 C236 1.463 1_565 S
C235 H249 0.975 . S
C236 C235 1.463 1_545 S
C236 C237 1.375 . S
C236 C242 1.404 . S
C237 C236 1.375 . S
C237 C238 1.369 . S
C237 H250 0.950 1_545 S
C238 C237 1.369 . S
C238 C239 1.392 . S
C238 H251 0.951 . S
C239 C238 1.392 . S
C239 C241 1.384 . S
H240 C242 0.949 . S
C241 C239 1.384 . S
C241 C242 1.385 . S
C241 H243 0.950 . S
C242 C236 1.404 . S
C242 H240 0.949 . S
C242 C241 1.385 . S
H243 C241 0.950 . S
H244 C228 0.951 . S
H245 C230 0.951 . S
H246 C232 0.951 1_545 S
H247 C233 0.950 . S
H248 C234 0.950 . S
H249 C235 0.975 . S
H250 C237 0.950 1_565 S
H251 C238 0.951 . S
C252 C253 1.386 . S
C252 C254 1.383 . S
C252 H268 0.951 . S
C253 C252 1.386 . S
C253 C257 1.383 . S
C254 C252 1.383 . S
C254 C255 1.402 . S
C254 H269 0.951 . S
C255 C254 1.402 . S
C255 C256 1.375 . S
C255 C258 1.481 . S
C256 C255 1.375 . S
C256 C257 1.367 . S
C256 H270 0.951 . S
C257 C253 1.383 . S
C257 C256 1.367 . S
C257 H271 0.950 . S
C258 C255 1.481 . S
C258 C259 1.297 . S
C258 H272 0.950 . S
C259 C258 1.297 . S
C259 C260 1.479 . S
C259 H273 0.950 . S
C260 C259 1.479 . S
C260 C261 1.375 . S
C260 C266 1.404 . S
C261 C260 1.375 . S
C261 C262 1.369 . S
C261 H274 0.950 . S
C262 C261 1.369 . S
C262 C263 1.392 . S
C262 H275 0.951 . S
C263 C262 1.392 . S
C263 C265 1.384 . S
H264 C266 0.949 . S
C265 C263 1.384 . S
C265 C266 1.385 . S
C265 H267 0.950 . S
C266 C260 1.404 . S
C266 H264 0.949 . S
C266 C265 1.385 . S
H267 C265 0.950 . S
H268 C252 0.951 . S
H269 C254 0.951 . S
H270 C256 0.951 . S
H271 C257 0.950 . S
H272 C258 0.950 . S
H273 C259 0.950 . S
H274 C261 0.950 . S
H275 C262 0.951 . S
C276 C277 1.386 . S
C276 C278 1.383 . S
C276 H292 0.951 . S
C277 C276 1.386 . S
C277 C281 1.383 . S
C278 C276 1.383 . S
C278 C279 1.402 . S
C278 H293 0.951 . S
C279 C278 1.402 . S
C279 C280 1.375 . S
C279 C282 1.481 . S
C280 C279 1.375 . S
C280 C281 1.367 . S
C280 H294 0.951 . S
C281 C277 1.383 . S
C281 C280 1.367 . S
C281 H295 0.950 . S
C282 C279 1.481 . S
C282 C283 1.297 1_455 S
C282 H296 0.950 . S
C283 C282 1.297 1_655 S
C283 C284 1.479 1_556 S
C283 H297 0.950 . S
C284 C283 1.479 1_554 S
C284 C285 1.375 . S
C284 C290 1.404 . S
C285 C284 1.375 . S
C285 C286 1.369 . S
C285 H298 0.950 . S
C286 C285 1.369 . S
C286 C287 1.392 . S
C286 H299 0.951 . S
C287 C286 1.392 . S
C287 C289 1.384 . S
H288 C290 0.949 . S
C289 C287 1.384 . S
C289 C290 1.385 . S
C289 H291 0.950 . S
C290 C284 1.404 . S
C290 H288 0.949 . S
C290 C289 1.385 . S
H291 C289 0.950 . S
H292 C276 0.951 . S
H293 C278 0.951 . S
H294 C280 0.951 . S
H295 C281 0.950 . S
H296 C282 0.950 . S
H297 C283 0.950 . S
H298 C285 0.950 . S
H299 C286 0.951 . S
C300 C301 1.386 . S
C300 C302 1.383 . S
C300 H316 0.951 . S
C301 C300 1.386 . S
C301 C305 1.383 . S
C302 C300 1.383 . S
C302 C303 1.402 . S
C302 H317 0.951 . S
C303 C302 1.402 . S
C303 C304 1.375 . S
C303 C306 1.481 1_545 S
C304 C303 1.375 . S
C304 C305 1.367 . S
C304 H318 0.951 1_545 S
C305 C301 1.383 . S
C305 C304 1.367 . S
C305 H319 0.950 . S
C306 C303 1.481 1_565 S
C306 C307 1.297 . S
C306 H320 0.950 . S
C307 C306 1.297 . S
C307 C308 1.479 . S
C307 H321 0.950 1_565 S
C308 C307 1.479 . S
C308 C309 1.375 . S
C308 C314 1.404 . S
C309 C308 1.375 . S
C309 C310 1.369 . S
C309 H322 0.950 1_565 S
C310 C309 1.369 . S
C310 C311 1.392 . S
C310 H323 0.951 . S
C311 C310 1.392 . S
C311 C313 1.384 . S
H312 C314 0.949 . S
C313 C311 1.384 . S
C313 C314 1.385 . S
C313 H315 0.950 . S
C314 C308 1.404 . S
C314 H312 0.949 . S
C314 C313 1.385 . S
H315 C313 0.950 . S
H316 C300 0.951 . S
H317 C302 0.951 . S
H318 C304 0.951 1_565 S
H319 C305 0.950 . S
H320 C306 0.950 . S
H321 C307 0.950 1_545 S
H322 C309 0.950 1_545 S
H323 C310 0.951 . S
C324 C325 1.386 . S
C324 C326 1.383 . S
C324 H340 0.951 . S
C325 C324 1.386 . S
C325 C329 1.383 . S
C326 C324 1.383 . S
C326 C327 1.402 . S
C326 H341 0.951 . S
C327 C326 1.402 . S
C327 C328 1.375 . S
C327 C330 1.481 1_556 S
C328 C327 1.375 . S
C328 C329 1.367 . S
C328 H342 0.951 . S
C329 C325 1.383 . S
C329 C328 1.367 . S
C329 H343 0.950 . S
C330 C327 1.481 1_554 S
C330 C331 1.297 . S
C330 H344 0.950 . S
C331 C330 1.297 . S
C331 C332 1.479 . S
C331 H345 0.950 1_554 S
C332 C331 1.479 . S
C332 C333 1.375 . S
C332 C338 1.404 . S
C333 C332 1.375 . S
C333 C334 1.369 . S
C333 H346 0.950 . S
C334 C333 1.369 . S
C334 C335 1.392 . S
C334 H347 0.951 . S
C335 C334 1.392 . S
C335 C337 1.384 . S
H336 C338 0.949 . S
C337 C335 1.384 . S
C337 C338 1.385 . S
C337 H339 0.950 . S
C338 C332 1.404 . S
C338 H336 0.949 . S
C338 C337 1.385 . S
H339 C337 0.950 . S
H340 C324 0.951 . S
H341 C326 0.951 . S
H342 C328 0.951 . S
H343 C329 0.950 . S
H344 C330 0.950 . S
H345 C331 0.950 1_556 S
H346 C333 0.950 . S
H347 C334 0.951 . S
C348 C349 1.386 . S
C348 C350 1.383 . S
C348 H364 0.951 . S
C349 C348 1.386 . S
C349 C353 1.383 . S
C350 C348 1.383 . S
C350 C351 1.402 . S
C350 H365 0.951 . S
C351 C350 1.402 . S
C351 C352 1.375 . S
C351 C354 1.481 1_455 S
C352 C351 1.375 . S
C352 C353 1.367 . S
C352 H366 0.951 1_455 S
C353 C349 1.383 . S
C353 C352 1.367 . S
C353 H367 0.950 . S
C354 C351 1.481 1_655 S
C354 C355 1.297 1_655 S
C354 H368 0.950 . S
C355 C354 1.297 1_455 S
C355 C356 1.479 1_455 S
C355 H369 0.950 . S
C356 C355 1.479 1_655 S
C356 C357 1.375 . S
C356 C362 1.404 . S
C357 C356 1.375 . S
C357 C358 1.369 . S
C357 H370 0.950 1_655 S
C358 C357 1.369 . S
C358 C359 1.392 . S
C358 H371 0.951 . S
C359 C358 1.392 . S
C359 C361 1.384 . S
H360 C362 0.949 . S
C361 C359 1.384 . S
C361 C362 1.385 . S
C361 H363 0.950 . S
C362 C356 1.404 . S
C362 H360 0.949 . S
C362 C361 1.385 . S
H363 C361 0.950 . S
H364 C348 0.951 . S
H365 C350 0.951 . S
H366 C352 0.951 1_655 S
H367 C353 0.950 . S
H368 C354 0.950 . S
H369 C355 0.950 . S
H370 C357 0.950 1_455 S
H371 C358 0.951 . S
C85 C0 0.994 . S
C95 C61 1.001 . S
C109 C14 0.942 . S
C119 C70 0.987 . S
C133 C5 0.934 . S
C143 C33 0.907 . S
C157 C47 0.921 . S
C167 C19 0.913 . S
C181 C56 0.992 . S
C191 C28 0.964 . S
C205 C42 0.897 . S
C215 C75 0.908 . S
C229 C51 1.351 . S
C239 C9 1.348 . S
C253 C67 1.394 . S
C263 C23 1.382 . S
C277 C79 1.373 . S
C287 C39 1.350 . S
C301 C11 1.380 . S
C311 C53 1.383 . S
C325 C25 1.352 . S
C335 C65 1.375 . S
C349 C81 1.396 . S
C359 C37 1.383 . S
