# Generated by pormake.
# Topology smk, (6)-cn, num edge types: 1
# Building blocks:
#     Node 0, Type 0, BuildingBlock: IZENUY_clean_sbu_0, # of connection points: 6
#     Node 1, Type 0, BuildingBlock: IZENUY_clean_sbu_0, # of connection points: 6
#     Node 2, Type 0, BuildingBlock: IZENUY_clean_sbu_0, # of connection points: 6
#     Node 3, Type 0, BuildingBlock: IZENUY_clean_sbu_0, # of connection points: 6
#     Node 4, Type 0, BuildingBlock: IZENUY_clean_sbu_0, # of connection points: 6
#     Node 5, Type 0, BuildingBlock: IZENUY_clean_sbu_0, # of connection points: 6
#     Edge 6, Type (0, 0), BuildingBlock: UVAHIK_clean_linker_0, # of connection points: 2
#     Edge 7, Type (0, 0), BuildingBlock: UVAHIK_clean_linker_0, # of connection points: 2
#     Edge 8, Type (0, 0), BuildingBlock: UVAHIK_clean_linker_0, # of connection points: 2
#     Edge 9, Type (0, 0), BuildingBlock: UVAHIK_clean_linker_0, # of connection points: 2
#     Edge 10, Type (0, 0), BuildingBlock: UVAHIK_clean_linker_0, # of connection points: 2
#     Edge 11, Type (0, 0), BuildingBlock: UVAHIK_clean_linker_0, # of connection points: 2
#     Edge 12, Type (0, 0), BuildingBlock: UVAHIK_clean_linker_0, # of connection points: 2
#     Edge 13, Type (0, 0), BuildingBlock: UVAHIK_clean_linker_0, # of connection points: 2
#     Edge 14, Type (0, 0), BuildingBlock: UVAHIK_clean_linker_0, # of connection points: 2
#     Edge 15, Type (0, 0), BuildingBlock: UVAHIK_clean_linker_0, # of connection points: 2
#     Edge 16, Type (0, 0), BuildingBlock: UVAHIK_clean_linker_0, # of connection points: 2
#     Edge 17, Type (0, 0), BuildingBlock: UVAHIK_clean_linker_0, # of connection points: 2
#     Edge 18, Type (0, 0), BuildingBlock: UVAHIK_clean_linker_0, # of connection points: 2
#     Edge 19, Type (0, 0), BuildingBlock: UVAHIK_clean_linker_0, # of connection points: 2
#     Edge 20, Type (0, 0), BuildingBlock: UVAHIK_clean_linker_0, # of connection points: 2
#     Edge 21, Type (0, 0), BuildingBlock: UVAHIK_clean_linker_0, # of connection points: 2
#     Edge 22, Type (0, 0), BuildingBlock: UVAHIK_clean_linker_0, # of connection points: 2
#     Edge 23, Type (0, 0), BuildingBlock: UVAHIK_clean_linker_0, # of connection points: 2
# Relax obj value: 0.171
# Max RMSD: 0.207
# Mean RMSD: 0.207
data_MOF--net-smk--node1-IZENUY_clean_sbu_0--edge1-UVAHIK_clean_linker_0
_symmetry_space_group_name_H-M    P1
_symmetry_Int_Tables_number       1
_symmetry_cell_setting            triclinic
loop_
_symmetry_equiv_pos_as_xyz
'x, y, z'
_cell_length_a     54.056193
_cell_length_b     54.06138
_cell_length_c     19.566088
_cell_angle_alpha  89.97914
_cell_angle_beta   89.993379
_cell_angle_gamma 120.0158
loop_
_atom_site_label
_atom_site_type_symbol
_atom_site_fract_x
_atom_site_fract_y
_atom_site_fract_z
_atom_type_partial_charge
Fe0 Fe 0.45647 0.247 0.6504 0.0
Fe1 Fe 0.39965 0.20189 0.58726 0.0
O2 O 0.43754 0.22096 0.58719 0.0
Fe3 Fe 0.45658 0.21399 0.52407 0.0
O4 O 0.47389 0.20337 0.58763 0.0
O5 O 0.48709 0.24096 0.65284 0.0
O6 O 0.44062 0.22053 0.71704 0.0
C7 C 0.41415 0.20548 0.72755 0.0
C8 C 0.48906 0.27437 0.53955 0.0
O9 O 0.3963 0.20212 0.68128 0.0
C10 C 0.41408 0.21275 0.44686 0.0
O11 O 0.42933 0.2579 0.65969 0.0
O12 O 0.39829 0.23455 0.57834 0.0
O13 O 0.48693 0.25089 0.52109 0.0
O14 O 0.47366 0.27502 0.58717 0.0
C15 C 0.40995 0.15879 0.55475 0.0
O16 O 0.39627 0.19825 0.49325 0.0
O17 O 0.44055 0.22431 0.45728 0.0
C18 C 0.40959 0.25513 0.61983 0.0
O19 O 0.39851 0.16796 0.59617 0.0
O20 O 0.42969 0.17585 0.51501 0.0
C21 C 0.48929 0.21962 0.63489 0.0
Fe22 Fe 0.21521 0.45373 0.82129 0.0
Fe23 Fe 0.20411 0.39713 0.75837 0.0
O24 O 0.22287 0.43499 0.75859 0.0
Fe25 Fe 0.24934 0.45415 0.69631 0.0
O26 O 0.27677 0.47151 0.76098 0.0
O27 O 0.25181 0.48434 0.82525 0.0
O28 O 0.22523 0.43776 0.88912 0.0
C29 C 0.2134 0.41126 0.89962 0.0
C30 C 0.22122 0.48651 0.71015 0.0
O31 O 0.19962 0.39358 0.85235 0.0
C32 C 0.20915 0.4116 0.61723 0.0
O33 O 0.17712 0.42655 0.82881 0.0
O34 O 0.17013 0.39572 0.74745 0.0
O35 O 0.24266 0.48441 0.6923 0.0
O36 O 0.2049 0.47102 0.75726 0.0
C37 C 0.2578 0.40759 0.72876 0.0
O38 O 0.20523 0.39386 0.66438 0.0
O39 O 0.22363 0.43809 0.62801 0.0
C40 C 0.16049 0.40688 0.78839 0.0
O41 O 0.23687 0.39609 0.76929 0.0
O42 O 0.26081 0.42738 0.68874 0.0
C43 C 0.2755 0.48667 0.80823 0.0
Fe44 Fe 0.8121 0.20107 0.9202 0.0
Fe45 Fe 0.80153 0.24727 0.85921 0.0
O46 O 0.79328 0.22009 0.9201 0.0
Fe47 Fe 0.76612 0.21204 0.9809 0.0
O48 O 0.79121 0.2213 0.05051 0.0
O49 O 0.8104 0.19614 0.01409 0.0
O50 O 0.84604 0.23356 0.93286 0.0
C51 C 0.85597 0.25475 0.8931 0.0
C52 C 0.75833 0.15744 0.94743 0.0
O53 O 0.83963 0.25828 0.85283 0.0
C54 C 0.74109 0.21945 0.86844 0.0
O55 O 0.81707 0.20271 0.82631 0.0
O56 O 0.79216 0.22214 0.78969 0.0
O57 O 0.7549 0.1739 0.98747 0.0
O58 O 0.77949 0.16724 0.90758 0.0
C59 C 0.79427 0.27248 0.97147 0.0
O60 O 0.7649 0.24125 0.85401 0.0
O61 O 0.7394 0.20236 0.91451 0.0
C62 C 0.80373 0.20724 0.77898 0.0
O63 O 0.81133 0.27403 0.9255 0.0
O64 O 0.77237 0.24875 0.9859 0.0
C65 C 0.80596 0.20957 0.06134 0.0
Fe66 Fe 0.61763 0.81012 0.08741 0.0
Fe67 Fe 0.56054 0.79863 0.02639 0.0
O68 O 0.57978 0.79094 0.08759 0.0
Fe69 Fe 0.561 0.76395 0.14895 0.0
O70 O 0.57666 0.78935 0.218 0.0
O71 O 0.62101 0.80876 0.18135 0.0
O72 O 0.61865 0.84388 0.09935 0.0
C73 C 0.60717 0.85346 0.05922 0.0
C74 C 0.60806 0.75662 0.11557 0.0
O75 O 0.58731 0.83681 0.01933 0.0
C76 C 0.5285 0.73819 0.03712 0.0
O77 O 0.62084 0.81482 0.99347 0.0
O78 O 0.5765 0.78932 0.95715 0.0
O79 O 0.58824 0.75321 0.15588 0.0
O80 O 0.61925 0.77769 0.07542 0.0
C81 C 0.52794 0.79127 0.1385 0.0
O82 O 0.53022 0.7618 0.02193 0.0
O83 O 0.54416 0.73695 0.08317 0.0
C84 C 0.603 0.80121 0.94629 0.0
O85 O 0.54333 0.80833 0.09233 0.0
O86 O 0.53022 0.7697 0.15365 0.0
C87 C 0.60314 0.80432 0.22865 0.0
Fe88 Fe 0.81329 0.6148 0.25444 0.0
Fe89 Fe 0.76834 0.55796 0.1916 0.0
O90 O 0.79486 0.57694 0.25392 0.0
Fe91 Fe 0.80281 0.55797 0.3154 0.0
O92 O 0.79332 0.57374 0.38468 0.0
O93 O 0.8179 0.6181 0.3483 0.0
O94 O 0.78034 0.6154 0.26609 0.0
C95 C 0.75965 0.60419 0.22492 0.0
C96 C 0.85736 0.60543 0.28246 0.0
O97 O 0.75701 0.5848 0.18412 0.0
C98 C 0.79608 0.52536 0.20355 0.0
O99 O 0.8121 0.61826 0.16042 0.0
O100 O 0.79417 0.57414 0.12351 0.0
O101 O 0.84105 0.58502 0.3217 0.0
O102 O 0.84744 0.61681 0.24307 0.0
C103 C 0.74221 0.52533 0.30343 0.0
O104 O 0.77452 0.52747 0.18735 0.0
O105 O 0.81279 0.54084 0.24997 0.0
C106 C 0.80853 0.60068 0.11311 0.0
O107 O 0.74106 0.54061 0.25623 0.0
O108 O 0.76591 0.52751 0.32038 0.0
C109 C 0.80474 0.60016 0.39556 0.0
Fe110 Fe 0.20576 0.81154 0.41832 0.0
Fe111 Fe 0.21507 0.76374 0.36154 0.0
O112 O 0.22372 0.79162 0.42066 0.0
Fe113 Fe 0.25059 0.79956 0.48239 0.0
O114 O 0.22531 0.79108 0.55082 0.0
O115 O 0.20685 0.81667 0.51249 0.0
O116 O 0.17122 0.77984 0.43041 0.0
C117 C 0.16102 0.75795 0.39298 0.0
C118 C 0.25977 0.85447 0.44646 0.0
O119 O 0.17706 0.75304 0.35501 0.0
C120 C 0.27555 0.79104 0.37139 0.0
O121 O 0.2014 0.80967 0.32403 0.0
O122 O 0.22451 0.78796 0.29036 0.0
O123 O 0.2625 0.83792 0.48764 0.0
O124 O 0.23893 0.84483 0.40577 0.0
C125 C 0.22181 0.73893 0.47525 0.0
O126 O 0.25161 0.76936 0.35704 0.0
O127 O 0.2774 0.80843 0.41678 0.0
C128 C 0.21341 0.80309 0.2772 0.0
O129 O 0.20499 0.73757 0.429 0.0
O130 O 0.24377 0.76262 0.48971 0.0
C131 C 0.21073 0.80307 0.5605 0.0
C132 C 0.38175 0.18718 0.34828 0.0
C133 C 0.40461 0.21213 0.37599 0.0
C134 C 0.3771 0.18474 0.27752 0.0
C135 C 0.42005 0.21399 0.12235 0.0
H136 H 0.34814 0.17232 0.0253 0.0
C137 C 0.42126 0.18986 0.84144 0.0
C138 C 0.40472 0.19659 0.79845 0.0
C139 C 0.41634 0.18713 0.91165 0.0
C140 C 0.36835 0.18408 0.0518 0.0
H141 H 0.43861 0.25502 0.35327 0.0
H142 H 0.42984 0.25129 0.23069 0.0
H143 H 0.3481 0.17957 0.14915 0.0
H144 H 0.36881 0.20386 0.79403 0.0
H145 H 0.36065 0.19992 0.91769 0.0
H146 H 0.44047 0.21923 0.02611 0.0
C147 C 0.41617 0.23317 0.26272 0.0
C148 C 0.36833 0.18809 0.12265 0.0
C149 C 0.42108 0.23542 0.33292 0.0
C150 C 0.38179 0.19854 0.82623 0.0
C151 C 0.37713 0.19627 0.89699 0.0
C152 C 0.42007 0.21004 0.05214 0.0
C153 C 0.39507 0.20735 0.23381 0.0
C154 C 0.39425 0.20325 0.15857 0.0
C155 C 0.39516 0.19171 0.94064 0.0
C156 C 0.3943 0.19493 0.0159 0.0
H157 H 0.36882 0.16887 0.38054 0.0
H158 H 0.36068 0.16456 0.25687 0.0
H159 H 0.44043 0.22526 0.14839 0.0
H160 H 0.43884 0.18789 0.82104 0.0
H161 H 0.43006 0.18275 0.94364 0.0
C162 C 0.19595 0.41845 0.49942 0.0
C163 C 0.20136 0.40188 0.54582 0.0
C164 C 0.19244 0.41174 0.42987 0.0
C165 C 0.21817 0.38327 0.29999 0.0
H166 H 0.16015 0.38442 0.18553 0.0
C167 C 0.18637 0.37765 0.99536 0.0
C168 C 0.21146 0.40145 0.97095 0.0
C169 C 0.18289 0.37137 0.06538 0.0
C170 C 0.17626 0.38363 0.21689 0.0
H171 H 0.20662 0.36486 0.55617 0.0
H172 H 0.20127 0.35358 0.43367 0.0
H173 H 0.15597 0.38478 0.31017 0.0
H174 H 0.25313 0.43628 0.99967 0.0
H175 H 0.24742 0.42473 0.12147 0.0
H176 H 0.23932 0.38383 0.20669 0.0
C177 C 0.19936 0.37151 0.45162 0.0
C178 C 0.17394 0.38399 0.28806 0.0
C179 C 0.20223 0.37785 0.5216 0.0
C180 C 0.23359 0.41781 0.01715 0.0
C181 C 0.23037 0.41115 0.08675 0.0
C182 C 0.22076 0.38345 0.22881 0.0
C183 C 0.19486 0.38867 0.40503 0.0
C184 C 0.19513 0.38431 0.33025 0.0
C185 C 0.2047 0.38834 0.1118 0.0
C186 C 0.20008 0.38413 0.18662 0.0
H187 H 0.19518 0.4371 0.51673 0.0
H188 H 0.18923 0.42547 0.39502 0.0
H189 H 0.23493 0.38377 0.33134 0.0
H190 H 0.16887 0.36484 0.96092 0.0
H191 H 0.16291 0.35365 0.0835 0.0
C192 C 0.81287 0.18281 0.15722 0.0
C193 C 0.81375 0.20769 0.13277 0.0
C194 C 0.81591 0.17949 0.22721 0.0
C195 C 0.79752 0.17306 0.37927 0.0
H196 H 0.85636 0.23232 0.49196 0.0
C197 C 0.78342 0.19387 0.66155 0.0
C198 C 0.80551 0.19934 0.70761 0.0
C199 C 0.78639 0.19012 0.59202 0.0
C200 C 0.84003 0.21539 0.46109 0.0
H201 H 0.82009 0.24919 0.16136 0.0
H202 H 0.82636 0.24378 0.28307 0.0
H203 H 0.86011 0.23634 0.36718 0.0
H204 H 0.84777 0.20449 0.71748 0.0
H205 H 0.85333 0.19876 0.59492 0.0
H206 H 0.77656 0.15301 0.47319 0.0
C207 C 0.823 0.22675 0.24842 0.0
C208 C 0.8421 0.21778 0.38985 0.0
C209 C 0.81931 0.22979 0.17888 0.0
C210 C 0.83031 0.20007 0.68313 0.0
C211 C 0.83357 0.19696 0.61313 0.0
C212 C 0.79517 0.17096 0.45051 0.0
C213 C 0.82062 0.2013 0.27351 0.0
C214 C 0.82061 0.19689 0.34831 0.0
C215 C 0.81177 0.19237 0.56687 0.0
C216 C 0.81615 0.19237 0.49205 0.0
H217 H 0.80837 0.16535 0.12283 0.0
H218 H 0.81401 0.15968 0.24538 0.0
H219 H 0.78053 0.1568 0.3484 0.0
H220 H 0.76408 0.19321 0.67911 0.0
H221 H 0.76937 0.18684 0.55741 0.0
C222 C 0.6369 0.81148 0.32445 0.0
C223 C 0.61282 0.81222 0.30002 0.0
C224 C 0.64322 0.81449 0.39445 0.0
C225 C 0.63072 0.84021 0.55737 0.0
H226 H 0.63036 0.77477 0.63999 0.0
C227 C 0.63664 0.82808 0.85044 0.0
C228 C 0.61269 0.80313 0.87486 0.0
C229 C 0.64299 0.83146 0.78045 0.0
C230 C 0.63089 0.79335 0.61751 0.0
H231 H 0.5775 0.81829 0.32864 0.0
H232 H 0.58911 0.8245 0.45038 0.0
H233 H 0.63063 0.77896 0.51525 0.0
H234 H 0.5776 0.76159 0.84619 0.0
H235 H 0.58925 0.76712 0.72445 0.0
H236 H 0.63024 0.85422 0.65964 0.0
C237 C 0.60287 0.82128 0.41571 0.0
C238 C 0.6312 0.79583 0.5463 0.0
C239 C 0.59618 0.81763 0.34616 0.0
C240 C 0.59619 0.78104 0.82869 0.0
C241 C 0.60291 0.78415 0.75914 0.0
C242 C 0.63098 0.83801 0.62859 0.0
C243 C 0.626 0.81901 0.44079 0.0
C244 C 0.63033 0.81888 0.5156 0.0
C245 C 0.62591 0.80967 0.73409 0.0
C246 C 0.63028 0.81416 0.65929 0.0
H247 H 0.64994 0.80709 0.29005 0.0
H248 H 0.66118 0.81267 0.41261 0.0
H249 H 0.63006 0.85819 0.53489 0.0
H250 H 0.64958 0.84554 0.88486 0.0
H251 H 0.66086 0.85132 0.76231 0.0
C252 C 0.78469 0.59277 0.51346 0.0
C253 C 0.80648 0.60976 0.46702 0.0
C254 C 0.78773 0.5995 0.58299 0.0
C255 C 0.84173 0.62923 0.71303 0.0
H256 H 0.78167 0.62659 0.82684 0.0
C257 C 0.81458 0.63408 0.01733 0.0
C258 C 0.81637 0.61058 0.04183 0.0
C259 C 0.81741 0.6404 0.94732 0.0
C260 C 0.79881 0.62781 0.79566 0.0
H261 H 0.84825 0.64754 0.45655 0.0
H262 H 0.85393 0.65887 0.57906 0.0
H263 H 0.77725 0.62606 0.70215 0.0
H264 H 0.82413 0.57633 0.01333 0.0
H265 H 0.83003 0.58795 0.89157 0.0
H266 H 0.86246 0.62924 0.80657 0.0
C267 C 0.83435 0.64059 0.56115 0.0
C268 C 0.7962 0.62735 0.72447 0.0
C269 C 0.83102 0.6342 0.49117 0.0
C270 C 0.82266 0.59456 0.99576 0.0
C271 C 0.82613 0.60127 0.92619 0.0
C272 C 0.84407 0.62914 0.78423 0.0
C273 C 0.81288 0.62304 0.60776 0.0
C274 C 0.8174 0.62755 0.68252 0.0
C275 C 0.82278 0.62375 0.90102 0.0
C276 C 0.8224 0.62792 0.82619 0.0
H277 H 0.76555 0.5738 0.4962 0.0
H278 H 0.77096 0.58548 0.61787 0.0
H279 H 0.85825 0.62915 0.68185 0.0
H280 H 0.80948 0.64662 0.05167 0.0
H281 H 0.81476 0.65786 0.9291 0.0
C282 C 0.19775 0.82489 0.18405 0.0
C283 C 0.21074 0.80902 0.20413 0.0
C284 C 0.19307 0.82771 0.11448 0.0
C285 C 0.17544 0.78864 0.95895 0.0
H286 H 0.22026 0.85682 0.85029 0.0
C287 C 0.19882 0.78289 0.67805 0.0
C288 C 0.20166 0.80395 0.63153 0.0
C289 C 0.19395 0.78496 0.74718 0.0
C290 C 0.207 0.83776 0.87996 0.0
H291 H 0.22979 0.78452 0.16606 0.0
H292 H 0.22104 0.78899 0.0463 0.0
H293 H 0.2239 0.85949 0.97546 0.0
H294 H 0.2006 0.84331 0.62084 0.0
H295 H 0.19204 0.84701 0.74284 0.0
H296 H 0.15913 0.76656 0.86448 0.0
C297 C 0.21461 0.79929 0.08423 0.0
C298 C 0.20916 0.83934 0.9515 0.0
C299 C 0.21964 0.79683 0.15302 0.0
C300 C 0.19838 0.82667 0.65546 0.0
C301 C 0.19372 0.82891 0.7253 0.0
C302 C 0.17307 0.7871 0.88785 0.0
C303 C 0.20096 0.81436 0.06435 0.0
C304 C 0.19415 0.81455 0.99122 0.0
C305 C 0.19183 0.80821 0.7721 0.0
C306 C 0.18973 0.81136 0.84726 0.0
H307 H 0.19068 0.83459 0.22199 0.0
H308 H 0.18253 0.83948 0.09999 0.0
H309 H 0.16362 0.76927 0.98873 0.0
H310 H 0.20116 0.76506 0.6613 0.0
H311 H 0.19308 0.76885 0.78159 0.0
C312 C 0.4081 0.11667 0.49555 0.0
C313 C 0.39767 0.12751 0.54634 0.0
C314 C 0.39542 0.08722 0.48483 0.0
C315 C 0.34833 0.01694 0.56582 0.0
H316 H 0.3347 0.98927 0.37902 0.0
C317 C 0.3004 0.89722 0.50289 0.0
C318 C 0.2788 0.88585 0.45293 0.0
C319 C 0.31688 0.92675 0.51271 0.0
C320 C 0.33825 0.99663 0.43148 0.0
H321 H 0.36606 0.11567 0.62678 0.0
H322 H 0.34388 0.0644 0.60775 0.0
H323 H 0.35934 0.04054 0.40095 0.0
H324 H 0.25826 0.89684 0.37268 0.0
H325 H 0.28685 0.94826 0.39016 0.0
H326 H 0.32656 0.97304 0.59638 0.0
C327 C 0.36203 0.07867 0.57652 0.0
C328 C 0.35267 0.02605 0.44408 0.0
C329 C 0.37467 0.10812 0.58719 0.0
C330 C 0.27468 0.9048 0.41167 0.0
C331 C 0.29119 0.93434 0.42146 0.0
C332 C 0.33397 0.98753 0.55323 0.0
C333 C 0.37205 0.06786 0.52475 0.0
C334 C 0.35771 0.03657 0.51142 0.0
C335 C 0.31223 0.94567 0.47273 0.0
C336 C 0.32858 0.977 0.4859 0.0
H337 H 0.42586 0.13094 0.46331 0.0
H338 H 0.40395 0.07961 0.44521 0.0
H339 H 0.35211 0.0243 0.61829 0.0
H340 H 0.3043 0.8833 0.53538 0.0
H341 H 0.33321 0.93476 0.5519 0.0
C342 C 0.40736 0.2952 0.67904 0.0
C343 C 0.39714 0.27399 0.62814 0.0
C344 C 0.39452 0.31183 0.68959 0.0
C345 C 0.34729 0.3347 0.60811 0.0
H346 H 0.33301 0.34822 0.79482 0.0
C347 C 0.29839 0.40566 0.67145 0.0
C348 C 0.27677 0.39522 0.7214 0.0
C349 C 0.31498 0.39276 0.66133 0.0
C350 C 0.33674 0.34455 0.74238 0.0
H351 H 0.36576 0.25418 0.54729 0.0
H352 H 0.3433 0.28301 0.56604 0.0
H353 H 0.35805 0.32198 0.77305 0.0
H354 H 0.25623 0.36341 0.80113 0.0
H355 H 0.28501 0.34084 0.78311 0.0
H356 H 0.32528 0.35657 0.57741 0.0
C357 C 0.3614 0.28696 0.59749 0.0
C358 C 0.35139 0.32978 0.72988 0.0
C359 C 0.3742 0.27029 0.587 0.0
C360 C 0.27267 0.37202 0.76216 0.0
C361 C 0.2893 0.35916 0.75208 0.0
C362 C 0.33269 0.34951 0.6206 0.0
C363 C 0.37121 0.30773 0.64937 0.0
C364 C 0.35666 0.32449 0.66258 0.0
C365 C 0.31044 0.36915 0.70101 0.0
C366 C 0.32705 0.35445 0.68789 0.0
H367 H 0.42507 0.29875 0.7115 0.0
H368 H 0.40288 0.32793 0.72931 0.0
H369 H 0.35124 0.33125 0.55567 0.0
H370 H 0.30226 0.42356 0.63931 0.0
H371 H 0.33138 0.40127 0.62225 0.0
C372 C 0.90615 0.26872 0.92693 0.0
C373 C 0.88737 0.27346 0.88666 0.0
C374 C 0.93571 0.28514 0.91733 0.0
C375 C 0.98917 0.32903 0.78721 0.0
H376 H 0.04185 0.35364 0.94002 0.0
C377 C 0.11015 0.37128 0.75441 0.0
C378 C 0.12914 0.39421 0.79594 0.0
C379 C 0.08064 0.35819 0.76459 0.0
C380 C 0.02743 0.34716 0.89678 0.0
H381 H 0.88512 0.29989 0.80609 0.0
H382 H 0.9366 0.32861 0.78988 0.0
H383 H 0.9905 0.32842 0.96143 0.0
H384 H 0.13181 0.42182 0.87959 0.0
H385 H 0.08038 0.3991 0.89686 0.0
H386 H 0.02609 0.34793 0.72257 0.0
C387 C 0.92844 0.31188 0.82814 0.0
C388 C 0.998 0.33243 0.90906 0.0
C389 C 0.89891 0.29551 0.83779 0.0
C390 C 0.11785 0.40413 0.84683 0.0
C391 C 0.08835 0.39099 0.85708 0.0
C392 C 0.0186 0.34369 0.77493 0.0
C393 C 0.94719 0.30668 0.86722 0.0
C394 C 0.97851 0.32309 0.85441 0.0
C395 C 0.0694 0.36767 0.81657 0.0
C396 C 0.03809 0.35283 0.82955 0.0
H397 H 0.89804 0.25193 0.96506 0.0
H398 H 0.94953 0.2804 0.9479 0.0
H399 H 0.97476 0.32187 0.74392 0.0
H400 H 0.11807 0.36308 0.71471 0.0
H401 H 0.06665 0.34011 0.73287 0.0
C402 C 0.64302 0.90389 0.09209 0.0
C403 C 0.6197 0.88479 0.05169 0.0
C404 C 0.65607 0.93337 0.0814 0.0
C405 C 0.66606 0.98599 0.94866 0.0
H406 H 0.69269 0.03944 0.09997 0.0
C407 C 0.74419 0.10714 0.91435 0.0
C408 C 0.73965 0.12607 0.95458 0.0
C409 C 0.7279 0.07763 0.92483 0.0
C410 C 0.68515 0.0248 0.05712 0.0
H411 H 0.59132 0.8819 0.96968 0.0
H412 H 0.61396 0.93326 0.95154 0.0
H413 H 0.66682 0.98821 0.12286 0.0
H414 H 0.71371 0.12862 0.03597 0.0
H415 H 0.68524 0.07722 0.05373 0.0
H416 H 0.68424 0.02259 0.88292 0.0
C417 C 0.62241 0.9254 0.99079 0.0
C418 C 0.67061 0.99544 0.07027 0.0
C419 C 0.60931 0.89594 1.00155 0.0
C420 C 0.71792 0.11472 1.00426 0.0
C421 C 0.7017 0.08524 0.01481 0.0
C422 C 0.68069 0.01536 0.9355 0.0
C423 C 0.64615 0.94445 0.03003 0.0
C424 C 0.66096 0.97568 0.0162 0.0
C425 C 0.70672 0.06636 0.97581 0.0
C426 C 0.69049 0.03511 0.98958 0.0
H427 H 0.65159 0.89607 0.13117 0.0
H428 H 0.67447 0.94744 0.11215 0.0
H429 H 0.65919 0.97136 0.90582 0.0
H430 H 0.76072 0.11512 0.87561 0.0
H431 H 0.73247 0.06369 0.89426 0.0
C432 C 0.71979 0.60678 0.16594 0.0
C433 C 0.74085 0.6167 0.21718 0.0
C434 C 0.70347 0.61993 0.15523 0.0
C435 C 0.68094 0.66735 0.23629 0.0
H436 H 0.66892 0.6828 0.04929 0.0
C437 C 0.64437 0.74266 0.08265 0.0
C438 C 0.62072 0.73792 0.12244 0.0
C439 C 0.65742 0.72618 0.09269 0.0
C440 C 0.67219 0.67875 0.10179 0.0
H441 H 0.76065 0.64777 0.29864 0.0
H442 H 0.7323 0.67075 0.27967 0.0
H443 H 0.69477 0.65739 0.07166 0.0
H444 H 0.59172 0.71145 0.20253 0.0
H445 H 0.61432 0.68266 0.21948 0.0
H446 H 0.659 0.68933 0.2665 0.0
C447 C 0.72828 0.65268 0.24803 0.0
C448 C 0.68672 0.6639 0.11461 0.0
C449 C 0.74464 0.63957 0.25868 0.0
C450 C 0.61 0.71584 0.17123 0.0
C451 C 0.62306 0.69942 0.1813 0.0
C452 C 0.66635 0.68213 0.22346 0.0
C453 C 0.70774 0.64324 0.19562 0.0
C454 C 0.69141 0.65816 0.18203 0.0
C455 C 0.64713 0.70461 0.14274 0.0
C456 C 0.66192 0.68813 0.15608 0.0
H457 H 0.71618 0.58913 0.1332 0.0
H458 H 0.68752 0.61186 0.11514 0.0
H459 H 0.68397 0.66307 0.28878 0.0
H460 H 0.65319 0.75946 0.0446 0.0
H461 H 0.67607 0.7309 0.06251 0.0
C462 C 0.90108 0.60337 0.31657 0.0
C463 C 0.88873 0.61878 0.28965 0.0
C464 C 0.93069 0.61657 0.32589 0.0
C465 C 0.99923 0.6827 0.27929 0.0
H466 H 0.02885 0.66137 0.43521 0.0
C467 C 0.11171 0.75106 0.40081 0.0
C468 C 0.12964 0.73979 0.38656 0.0
C469 C 0.0823 0.73472 0.38934 0.0
C470 C 0.02074 0.66736 0.39139 0.0
H471 H 0.89772 0.6602 0.25209 0.0
H472 H 0.94882 0.68348 0.27106 0.0
H473 H 0.97742 0.63597 0.41323 0.0
H474 H 0.13067 0.70225 0.35158 0.0
H475 H 0.07885 0.67335 0.33366 0.0
H476 H 0.04268 0.71506 0.26004 0.0
C477 C 0.93605 0.66094 0.28268 0.0
C478 C 0.99134 0.65272 0.37828 0.0
C479 C 0.90659 0.64761 0.27212 0.0
C480 C 0.11739 0.71152 0.36277 0.0
C481 C 0.08785 0.69498 0.35267 0.0
C482 C 0.0285 0.69764 0.29326 0.0
C483 C 0.94861 0.64566 0.30973 0.0
C484 C 0.9801 0.66031 0.32222 0.0
C485 C 0.07022 0.70666 0.36491 0.0
C486 C 0.03941 0.69013 0.34947 0.0
H487 H 0.88785 0.58106 0.33016 0.0
H488 H 0.93948 0.60388 0.34558 0.0
H489 H 0.99168 0.68881 0.23469 0.0
H490 H 0.12051 0.77281 0.41875 0.0
H491 H 0.06897 0.74406 0.39895 0.0
C492 C 0.52894 0.30145 0.45622 0.0
C493 C 0.51269 0.30156 0.51221 0.0
C494 C 0.55251 0.32681 0.4334 0.0
C495 C 0.60614 0.3981 0.49301 0.0
H496 H 0.62104 0.41513 0.29982 0.0
C497 C 0.71557 0.48471 0.3856 0.0
C498 C 0.71519 0.50193 0.33219 0.0
C499 C 0.69013 0.46148 0.40948 0.0
C500 C 0.61707 0.41078 0.35398 0.0
H501 H 0.50815 0.32866 0.58711 0.0
H502 H 0.54939 0.37288 0.5473 0.0
H503 H 0.57736 0.37232 0.33605 0.0
H504 H 0.68755 0.5086 0.26331 0.0
H505 H 0.64331 0.46809 0.30488 0.0
H506 H 0.64597 0.4365 0.51088 0.0
C507 C 0.54394 0.35309 0.52143 0.0
C508 C 0.59219 0.38614 0.37466 0.0
C509 C 0.5202 0.32776 0.5439 0.0
C510 C 0.68871 0.49576 0.30433 0.0
C511 C 0.66333 0.47243 0.32784 0.0
C512 C 0.63116 0.42262 0.47229 0.0
C513 C 0.5605 0.35285 0.46634 0.0
C514 C 0.58648 0.37949 0.44439 0.0
C515 C 0.66377 0.45486 0.38016 0.0
C516 C 0.63692 0.4292 0.40253 0.0
H517 H 0.52372 0.28167 0.43054 0.0
H518 H 0.56497 0.32591 0.39111 0.0
H519 H 0.60246 0.3934 0.5471 0.0
H520 H 0.73557 0.48888 0.40832 0.0
H521 H 0.69117 0.44822 0.44958 0.0
C522 C 0.199 0.51764 0.71436 0.0
C523 C 0.21779 0.51021 0.68283 0.0
C524 C 0.19748 0.54142 0.69213 0.0
C525 C 0.2126 0.58981 0.54611 0.0
H526 H 0.21594 0.64334 0.68293 0.0
C527 C 0.19784 0.68545 0.47776 0.0
C528 C 0.21832 0.71207 0.50465 0.0
C529 C 0.19614 0.66023 0.50118 0.0
C530 C 0.21503 0.6286 0.64418 0.0
H531 H 0.24898 0.52148 0.60167 0.0
H532 H 0.24605 0.56282 0.5625 0.0
H533 H 0.21596 0.59999 0.7186 0.0
H534 H 0.25235 0.73286 0.57917 0.0
H535 H 0.24916 0.68871 0.62046 0.0
H536 H 0.21192 0.61851 0.47166 0.0
C537 C 0.23259 0.55024 0.60455 0.0
C538 C 0.21479 0.60368 0.66458 0.0
C539 C 0.23434 0.52663 0.6272 0.0
C540 C 0.23639 0.71275 0.55722 0.0
C541 C 0.2345 0.68745 0.58108 0.0
C542 C 0.21253 0.61456 0.52574 0.0
C543 C 0.21444 0.55813 0.63741 0.0
C544 C 0.21375 0.58411 0.61574 0.0
C545 C 0.21467 0.66097 0.5525 0.0
C546 C 0.2139 0.6343 0.57453 0.0
H547 H 0.18591 0.50548 0.75731 0.0
H548 H 0.18304 0.54678 0.7179 0.0
H549 H 0.21161 0.57504 0.50735 0.0
H550 H 0.1835 0.68408 0.43737 0.0
H551 H 0.18039 0.6401 0.47884 0.0
C552 C 0.71461 0.2407 0.81194 0.0
C553 C 0.7146 0.21663 0.83895 0.0
C554 C 0.68942 0.2387 0.78753 0.0
C555 C 0.61021 0.1924 0.79484 0.0
H556 H 0.61391 0.24278 0.64908 0.0
C557 C 0.51253 0.19024 0.65821 0.0
C558 C 0.51327 0.2166 0.66129 0.0
C559 C 0.53605 0.18803 0.67987 0.0
C560 C 0.61263 0.22859 0.68979 0.0
H561 H 0.68832 0.17137 0.85985 0.0
H562 H 0.64446 0.1675 0.81435 0.0
H563 H 0.65701 0.24223 0.68261 0.0
H564 H 0.53913 0.26122 0.68973 0.0
H565 H 0.58039 0.25743 0.72553 0.0
H566 H 0.56537 0.17832 0.7999 0.0
C567 C 0.66374 0.1882 0.81402 0.0
C568 C 0.63734 0.22839 0.70952 0.0
C569 C 0.68892 0.19033 0.83967 0.0
C570 C 0.53783 0.24059 0.68703 0.0
C571 C 0.56149 0.2385 0.70717 0.0
C572 C 0.58534 0.1922 0.77401 0.0
C573 C 0.66359 0.21244 0.78813 0.0
C574 C 0.63666 0.21075 0.76336 0.0
C575 C 0.56086 0.21228 0.70339 0.0
C576 C 0.5865 0.2107 0.72223 0.0
H577 H 0.73396 0.26137 0.81142 0.0
H578 H 0.6902 0.25804 0.76972 0.0
H579 H 0.60878 0.17878 0.83703 0.0
H580 H 0.49385 0.1714 0.63877 0.0
H581 H 0.53517 0.16761 0.67651 0.0
C582 C 0.50564 0.68592 0.01026 0.0
C583 C 0.50455 0.71137 0.00998 0.0
C584 C 0.48207 0.66024 0.98862 0.0
C585 C 0.40547 0.6236 0.98465 0.0
H586 H 0.40779 0.57899 0.83228 0.0
C587 C 0.30235 0.53402 0.86623 0.0
C588 C 0.30224 0.51027 0.83686 0.0
C589 C 0.32774 0.55717 0.88988 0.0
C590 C 0.40681 0.5908 0.87587 0.0
H591 H 0.47804 0.72993 0.98644 0.0
H592 H 0.43671 0.68495 0.95062 0.0
H593 H 0.45146 0.62197 0.86811 0.0
H594 H 0.32852 0.49177 0.81098 0.0
H595 H 0.37277 0.5317 0.85507 0.0
H596 H 0.36131 0.59244 0.99445 0.0
C597 C 0.45591 0.68501 0.96677 0.0
C598 C 0.43182 0.61549 0.89596 0.0
C599 C 0.47961 0.71072 0.98689 0.0
C600 C 0.328 0.50989 0.83302 0.0
C601 C 0.3534 0.5329 0.85787 0.0
C602 C 0.38065 0.59867 0.96561 0.0
C603 C 0.45688 0.65957 0.96794 0.0
C604 C 0.43116 0.63234 0.94963 0.0
C605 C 0.35366 0.557 0.8861 0.0
C606 C 0.38078 0.58221 0.90997 0.0
H607 H 0.52463 0.68583 0.02767 0.0
H608 H 0.48319 0.6408 0.98993 0.0
H609 H 0.40462 0.63613 0.02684 0.0
H610 H 0.28292 0.53513 0.86922 0.0
H611 H 0.32703 0.57551 0.90961 0.0
C612 C 0.82517 0.50197 0.1785 0.0
C613 C 0.79885 0.50134 0.17642 0.0
C614 C 0.82712 0.47834 0.15671 0.0
C615 C 0.78606 0.40172 0.1483 0.0
H616 H 0.8355 0.40489 1.00092 0.0
C617 C 0.77327 0.29924 0.02767 0.0
C618 C 0.79725 0.29906 1.00073 0.0
C619 C 0.77541 0.32453 0.05173 0.0
C620 C 0.82198 0.40365 0.04314 0.0
H621 H 0.75404 0.47557 0.14947 0.0
H622 H 0.7574 0.43413 0.11339 0.0
H623 H 0.83627 0.44851 0.03735 0.0
H624 H 0.84253 0.32511 0.97964 0.0
H625 H 0.84665 0.36916 0.0245 0.0
H626 H 0.77222 0.35732 0.15619 0.0
C627 C 0.77649 0.45302 0.1311 0.0
C628 C 0.82235 0.42865 0.06357 0.0
C629 C 0.77465 0.47679 0.15139 0.0
C630 C 0.82363 0.32465 0.99977 0.0
C631 C 0.82591 0.34994 0.02505 0.0
C632 C 0.78609 0.37689 0.12895 0.0
C633 C 0.80267 0.45352 0.13405 0.0
C634 C 0.80399 0.42772 0.11542 0.0
C635 C 0.80175 0.35028 0.05081 0.0
C636 C 0.8036 0.37733 0.0751 0.0
H637 H 0.84417 0.52064 0.19739 0.0
H638 H 0.84752 0.47912 0.15942 0.0
H639 H 0.77199 0.40064 0.18909 0.0
H640 H 0.75254 0.27995 0.02839 0.0
H641 H 0.75614 0.3239 0.06948 0.0
C642 C 0.47988 0.76946 0.19354 0.0
C643 C 0.50389 0.79371 0.16693 0.0
C644 C 0.45632 0.77104 0.21683 0.0
C645 C 0.42245 0.81642 0.2071 0.0
H646 H 0.37585 0.76629 0.35336 0.0
C647 C 0.3277 0.81978 0.34276 0.0
C648 C 0.30204 0.7934 0.3433 0.0
C649 C 0.35308 0.82152 0.32007 0.0
C650 C 0.38869 0.78035 0.31237 0.0
H651 H 0.52237 0.83888 0.14552 0.0
H652 H 0.48172 0.84204 0.18913 0.0
H653 H 0.41967 0.76706 0.32043 0.0
H654 H 0.28282 0.74825 0.31997 0.0
H655 H 0.32733 0.75126 0.2822 0.0
H656 H 0.39152 0.83024 0.20129 0.0
C657 C 0.48065 0.82151 0.18998 0.0
C658 C 0.41372 0.78071 0.29305 0.0
C659 C 0.50408 0.81978 0.16544 0.0
C660 C 0.3022 0.7689 0.31989 0.0
C661 C 0.32765 0.77056 0.29865 0.0
C662 C 0.39765 0.81646 0.22749 0.0
C663 C 0.45631 0.79707 0.21548 0.0
C664 C 0.43072 0.79835 0.23926 0.0
C665 C 0.35332 0.79682 0.29901 0.0
C666 C 0.38035 0.79808 0.27952 0.0
H667 H 0.47889 0.74895 0.19458 0.0
H668 H 0.43783 0.75157 0.23438 0.0
H669 H 0.43466 0.83001 0.16489 0.0
H670 H 0.32817 0.83901 0.36033 0.0
H671 H 0.37267 0.84198 0.32085 0.0
loop_
_geom_bond_atom_site_label_1
_geom_bond_atom_site_label_2
_geom_bond_distance
_geom_bond_site_symmetry_2
_ccdc_geom_bond_type
Fe0 O2 1.918 . S
Fe0 O5 1.997 . S
Fe0 O6 2.002 . S
Fe0 O11 1.976 . S
Fe0 O14 1.996 . S
Fe1 O2 1.918 . S
Fe1 O9 1.997 . S
Fe1 O12 1.996 . S
Fe1 O16 1.976 . S
Fe1 O19 2.002 . S
O2 Fe0 1.918 . S
O2 Fe1 1.918 . S
O2 Fe3 1.918 . S
Fe3 O2 1.918 . S
Fe3 O4 2.002 . S
Fe3 O13 1.976 . S
Fe3 O17 1.996 . S
Fe3 O20 1.997 . S
O4 Fe3 2.002 . S
O4 C21 1.295 . S
O5 Fe0 1.997 . S
O5 C21 1.235 . S
O6 Fe0 2.002 . S
O6 C7 1.295 . S
C7 O6 1.295 . S
C7 O9 1.235 . S
C8 O13 1.287 . S
C8 O14 1.255 . S
O9 Fe1 1.997 . S
O9 C7 1.235 . S
C10 O16 1.287 . S
C10 O17 1.255 . S
O11 Fe0 1.976 . S
O11 C18 1.287 . S
O12 Fe1 1.996 . S
O12 C18 1.255 . S
O13 Fe3 1.976 . S
O13 C8 1.287 . S
O14 Fe0 1.996 . S
O14 C8 1.255 . S
C15 O19 1.295 . S
C15 O20 1.235 . S
O16 Fe1 1.976 . S
O16 C10 1.287 . S
O17 Fe3 1.996 . S
O17 C10 1.255 . S
C18 O11 1.287 . S
C18 O12 1.255 . S
O19 Fe1 2.002 . S
O19 C15 1.295 . S
O20 Fe3 1.997 . S
O20 C15 1.235 . S
C21 O4 1.295 . S
C21 O5 1.235 . S
Fe22 O24 1.918 . S
Fe22 O27 1.997 . S
Fe22 O28 2.002 . S
Fe22 O33 1.976 . S
Fe22 O36 1.996 . S
Fe23 O24 1.918 . S
Fe23 O31 1.997 . S
Fe23 O34 1.996 . S
Fe23 O38 1.976 . S
Fe23 O41 2.002 . S
O24 Fe22 1.918 . S
O24 Fe23 1.918 . S
O24 Fe25 1.918 . S
Fe25 O24 1.918 . S
Fe25 O26 2.002 . S
Fe25 O35 1.976 . S
Fe25 O39 1.996 . S
Fe25 O42 1.997 . S
O26 Fe25 2.002 . S
O26 C43 1.295 . S
O27 Fe22 1.997 . S
O27 C43 1.235 . S
O28 Fe22 2.002 . S
O28 C29 1.295 . S
C29 O28 1.295 . S
C29 O31 1.235 . S
C30 O35 1.287 . S
C30 O36 1.255 . S
O31 Fe23 1.997 . S
O31 C29 1.235 . S
C32 O38 1.287 . S
C32 O39 1.255 . S
O33 Fe22 1.976 . S
O33 C40 1.287 . S
O34 Fe23 1.996 . S
O34 C40 1.255 . S
O35 Fe25 1.976 . S
O35 C30 1.287 . S
O36 Fe22 1.996 . S
O36 C30 1.255 . S
C37 O41 1.295 . S
C37 O42 1.235 . S
O38 Fe23 1.976 . S
O38 C32 1.287 . S
O39 Fe25 1.996 . S
O39 C32 1.255 . S
C40 O33 1.287 . S
C40 O34 1.255 . S
O41 Fe23 2.002 . S
O41 C37 1.295 . S
O42 Fe25 1.997 . S
O42 C37 1.235 . S
C43 O26 1.295 . S
C43 O27 1.235 . S
Fe44 O46 1.918 . S
Fe44 O49 1.997 1_556 S
Fe44 O50 2.002 . S
Fe44 O55 1.976 . S
Fe44 O58 1.996 . S
Fe45 O46 1.918 . S
Fe45 O53 1.997 . S
Fe45 O56 1.996 . S
Fe45 O60 1.976 . S
Fe45 O63 2.002 . S
O46 Fe44 1.918 . S
O46 Fe45 1.918 . S
O46 Fe47 1.918 . S
Fe47 O46 1.918 . S
Fe47 O48 2.002 1_556 S
Fe47 O57 1.976 . S
Fe47 O61 1.996 . S
Fe47 O64 1.996 1_556 S
O48 Fe47 2.002 1_554 S
O48 C65 1.295 . S
O49 Fe44 1.997 1_554 S
O49 C65 1.235 . S
O50 Fe44 2.002 . S
O50 C51 1.295 . S
C51 O50 1.295 . S
C51 O53 1.235 . S
C52 O57 1.287 . S
C52 O58 1.255 . S
O53 Fe45 1.997 . S
O53 C51 1.235 . S
C54 O60 1.287 . S
C54 O61 1.255 . S
O55 Fe44 1.976 . S
O55 C62 1.287 . S
O56 Fe45 1.996 . S
O56 C62 1.255 . S
O57 Fe47 1.976 . S
O57 C52 1.287 . S
O58 Fe44 1.996 . S
O58 C52 1.255 . S
C59 O63 1.295 . S
C59 O64 1.235 1_556 S
O60 Fe45 1.976 . S
O60 C54 1.287 . S
O61 Fe47 1.996 . S
O61 C54 1.255 . S
C62 O55 1.287 . S
C62 O56 1.255 . S
O63 Fe45 2.002 . S
O63 C59 1.295 . S
O64 Fe47 1.996 1_554 S
O64 C59 1.235 1_554 S
C65 O48 1.295 . S
C65 O49 1.235 . S
Fe66 O68 1.918 . S
Fe66 O71 1.997 . S
Fe66 O72 2.002 . S
Fe66 O77 1.976 1_554 S
Fe66 O80 1.996 . S
Fe67 O68 1.918 . S
Fe67 O75 1.997 . S
Fe67 O78 1.996 1_554 S
Fe67 O82 1.976 1_554 S
Fe67 O85 2.002 . S
O68 Fe66 1.918 . S
O68 Fe67 1.918 . S
O68 Fe69 1.918 . S
Fe69 O68 1.918 . S
Fe69 O70 2.002 . S
Fe69 O79 1.976 . S
Fe69 O83 1.996 . S
Fe69 O86 1.997 . S
O70 Fe69 2.002 . S
O70 C87 1.295 . S
O71 Fe66 1.997 . S
O71 C87 1.235 . S
O72 Fe66 2.002 . S
O72 C73 1.295 . S
C73 O72 1.295 . S
C73 O75 1.235 . S
C74 O79 1.287 . S
C74 O80 1.255 . S
O75 Fe67 1.997 . S
O75 C73 1.235 . S
C76 O82 1.287 1_554 S
C76 O83 1.255 . S
O77 Fe66 1.976 1_556 S
O77 C84 1.287 . S
O78 Fe67 1.996 1_556 S
O78 C84 1.255 . S
O79 Fe69 1.976 . S
O79 C74 1.287 . S
O80 Fe66 1.996 . S
O80 C74 1.255 . S
C81 O85 1.295 . S
C81 O86 1.235 . S
O82 Fe67 1.976 1_556 S
O82 C76 1.287 1_556 S
O83 Fe69 1.996 . S
O83 C76 1.255 . S
C84 O77 1.287 . S
C84 O78 1.255 . S
O85 Fe67 2.002 . S
O85 C81 1.295 . S
O86 Fe69 1.997 . S
O86 C81 1.235 . S
C87 O70 1.295 . S
C87 O71 1.235 . S
Fe88 O90 1.918 . S
Fe88 O93 1.997 . S
Fe88 O94 2.002 . S
Fe88 O99 1.976 . S
Fe88 O102 1.996 . S
Fe89 O90 1.918 . S
Fe89 O97 1.997 . S
Fe89 O100 1.996 . S
Fe89 O104 1.976 . S
Fe89 O107 2.002 . S
O90 Fe88 1.918 . S
O90 Fe89 1.918 . S
O90 Fe91 1.918 . S
Fe91 O90 1.918 . S
Fe91 O92 2.002 . S
Fe91 O101 1.976 . S
Fe91 O105 1.996 . S
Fe91 O108 1.997 . S
O92 Fe91 2.002 . S
O92 C109 1.295 . S
O93 Fe88 1.997 . S
O93 C109 1.235 . S
O94 Fe88 2.002 . S
O94 C95 1.295 . S
C95 O94 1.295 . S
C95 O97 1.235 . S
C96 O101 1.287 . S
C96 O102 1.255 . S
O97 Fe89 1.997 . S
O97 C95 1.235 . S
C98 O104 1.287 . S
C98 O105 1.255 . S
O99 Fe88 1.976 . S
O99 C106 1.287 . S
O100 Fe89 1.996 . S
O100 C106 1.255 . S
O101 Fe91 1.976 . S
O101 C96 1.287 . S
O102 Fe88 1.996 . S
O102 C96 1.255 . S
C103 O107 1.295 . S
C103 O108 1.235 . S
O104 Fe89 1.976 . S
O104 C98 1.287 . S
O105 Fe91 1.996 . S
O105 C98 1.255 . S
C106 O99 1.287 . S
C106 O100 1.255 . S
O107 Fe89 2.002 . S
O107 C103 1.295 . S
O108 Fe91 1.997 . S
O108 C103 1.235 . S
C109 O92 1.295 . S
C109 O93 1.235 . S
Fe110 O112 1.918 . S
Fe110 O115 1.997 . S
Fe110 O116 2.002 . S
Fe110 O121 1.976 . S
Fe110 O124 1.996 . S
Fe111 O112 1.918 . S
Fe111 O119 1.997 . S
Fe111 O122 1.996 . S
Fe111 O126 1.976 . S
Fe111 O129 2.002 . S
O112 Fe110 1.918 . S
O112 Fe111 1.918 . S
O112 Fe113 1.918 . S
Fe113 O112 1.918 . S
Fe113 O114 2.002 . S
Fe113 O123 1.976 . S
Fe113 O127 1.996 . S
Fe113 O130 1.997 . S
O114 Fe113 2.002 . S
O114 C131 1.295 . S
O115 Fe110 1.997 . S
O115 C131 1.235 . S
O116 Fe110 2.002 . S
O116 C117 1.295 . S
C117 O116 1.295 . S
C117 O119 1.235 . S
C118 O123 1.287 . S
C118 O124 1.255 . S
O119 Fe111 1.997 . S
O119 C117 1.235 . S
C120 O126 1.287 . S
C120 O127 1.255 . S
O121 Fe110 1.976 . S
O121 C128 1.287 . S
O122 Fe111 1.996 . S
O122 C128 1.255 . S
O123 Fe113 1.976 . S
O123 C118 1.287 . S
O124 Fe110 1.996 . S
O124 C118 1.255 . S
C125 O129 1.295 . S
C125 O130 1.235 . S
O126 Fe111 1.976 . S
O126 C120 1.287 . S
O127 Fe113 1.996 . S
O127 C120 1.255 . S
C128 O121 1.287 . S
C128 O122 1.255 . S
O129 Fe111 2.002 . S
O129 C125 1.295 . S
O130 Fe113 1.997 . S
O130 C125 1.235 . S
C131 O114 1.295 . S
C131 O115 1.235 . S
C132 C133 1.349 . S
C132 C134 1.327 . S
C132 H157 0.950 . S
C133 C132 1.349 . S
C133 C149 1.349 . S
C134 C132 1.327 . S
C134 C153 1.429 . S
C134 H158 0.950 . S
C135 C152 1.574 . S
C135 C154 1.368 . S
C135 H159 0.949 . S
H136 C140 0.949 . S
C137 C138 1.349 . S
C137 C139 1.327 . S
C137 H160 0.950 . S
C138 C137 1.349 . S
C138 C150 1.349 . S
C139 C137 1.327 . S
C139 C155 1.429 . S
C139 H161 0.950 . S
C140 H136 0.949 . S
C140 C148 1.574 . S
C140 C156 1.368 . S
H141 C149 0.950 . S
H142 C147 0.950 . S
H143 C148 0.949 . S
H144 C150 0.950 . S
H145 C151 0.950 . S
H146 C152 0.949 . S
C147 H142 0.950 . S
C147 C149 1.327 . S
C147 C153 1.429 . S
C148 C140 1.574 . S
C148 H143 0.949 . S
C148 C154 1.368 . S
C149 C133 1.349 . S
C149 H141 0.950 . S
C149 C147 1.327 . S
C150 C138 1.349 . S
C150 H144 0.950 . S
C150 C151 1.327 . S
C151 H145 0.950 . S
C151 C150 1.327 . S
C151 C155 1.429 . S
C152 C135 1.574 . S
C152 H146 0.949 . S
C152 C156 1.368 . S
C153 C134 1.429 . S
C153 C147 1.429 . S
C153 C154 1.523 . S
C154 C135 1.368 . S
C154 C148 1.368 . S
C154 C153 1.523 . S
C155 C139 1.429 . S
C155 C151 1.429 . S
C155 C156 1.523 1_556 S
C156 C140 1.368 . S
C156 C152 1.368 . S
C156 C155 1.523 1_554 S
H157 C132 0.950 . S
H158 C134 0.950 . S
H159 C135 0.949 . S
H160 C137 0.950 . S
H161 C139 0.950 . S
C162 C163 1.349 . S
C162 C164 1.327 . S
C162 H187 0.950 . S
C163 C162 1.349 . S
C163 C179 1.349 . S
C164 C162 1.327 . S
C164 C183 1.429 . S
C164 H188 0.950 . S
C165 C182 1.574 . S
C165 C184 1.368 . S
C165 H189 0.949 . S
H166 C170 0.949 . S
C167 C168 1.349 . S
C167 C169 1.327 1_556 S
C167 H190 0.950 . S
C168 C167 1.349 . S
C168 C180 1.349 . S
C169 C167 1.327 1_554 S
C169 C185 1.429 . S
C169 H191 0.950 . S
C170 H166 0.949 . S
C170 C178 1.574 . S
C170 C186 1.368 . S
H171 C179 0.950 . S
H172 C177 0.950 . S
H173 C178 0.949 . S
H174 C180 0.950 . S
H175 C181 0.950 . S
H176 C182 0.949 . S
C177 H172 0.950 . S
C177 C179 1.327 . S
C177 C183 1.429 . S
C178 C170 1.574 . S
C178 H173 0.949 . S
C178 C184 1.368 . S
C179 C163 1.349 . S
C179 H171 0.950 . S
C179 C177 1.327 . S
C180 C168 1.349 . S
C180 H174 0.950 . S
C180 C181 1.327 1_556 S
C181 H175 0.950 . S
C181 C180 1.327 1_554 S
C181 C185 1.429 . S
C182 C165 1.574 . S
C182 H176 0.949 . S
C182 C186 1.368 . S
C183 C164 1.429 . S
C183 C177 1.429 . S
C183 C184 1.523 . S
C184 C165 1.368 . S
C184 C178 1.368 . S
C184 C183 1.523 . S
C185 C169 1.429 . S
C185 C181 1.429 . S
C185 C186 1.523 . S
C186 C170 1.368 . S
C186 C182 1.368 . S
C186 C185 1.523 . S
H187 C162 0.950 . S
H188 C164 0.950 . S
H189 C165 0.949 . S
H190 C167 0.950 . S
H191 C169 0.950 . S
C192 C193 1.349 . S
C192 C194 1.327 . S
C192 H217 0.950 . S
C193 C192 1.349 . S
C193 C209 1.349 . S
C194 C192 1.327 . S
C194 C213 1.429 . S
C194 H218 0.950 . S
C195 C212 1.574 . S
C195 C214 1.368 . S
C195 H219 0.949 . S
H196 C200 0.949 . S
C197 C198 1.349 . S
C197 C199 1.327 . S
C197 H220 0.950 . S
C198 C197 1.349 . S
C198 C210 1.349 . S
C199 C197 1.327 . S
C199 C215 1.429 . S
C199 H221 0.950 . S
C200 H196 0.949 . S
C200 C208 1.574 . S
C200 C216 1.368 . S
H201 C209 0.950 . S
H202 C207 0.950 . S
H203 C208 0.949 . S
H204 C210 0.950 . S
H205 C211 0.950 . S
H206 C212 0.949 . S
C207 H202 0.950 . S
C207 C209 1.327 . S
C207 C213 1.429 . S
C208 C200 1.574 . S
C208 H203 0.949 . S
C208 C214 1.368 . S
C209 C193 1.349 . S
C209 H201 0.950 . S
C209 C207 1.327 . S
C210 C198 1.349 . S
C210 H204 0.950 . S
C210 C211 1.327 . S
C211 H205 0.950 . S
C211 C210 1.327 . S
C211 C215 1.429 . S
C212 C195 1.574 . S
C212 H206 0.949 . S
C212 C216 1.368 . S
C213 C194 1.429 . S
C213 C207 1.429 . S
C213 C214 1.523 . S
C214 C195 1.368 . S
C214 C208 1.368 . S
C214 C213 1.523 . S
C215 C199 1.429 . S
C215 C211 1.429 . S
C215 C216 1.523 . S
C216 C200 1.368 . S
C216 C212 1.368 . S
C216 C215 1.523 . S
H217 C192 0.950 . S
H218 C194 0.950 . S
H219 C195 0.949 . S
H220 C197 0.950 . S
H221 C199 0.950 . S
C222 C223 1.349 . S
C222 C224 1.327 . S
C222 H247 0.950 . S
C223 C222 1.349 . S
C223 C239 1.349 . S
C224 C222 1.327 . S
C224 C243 1.429 . S
C224 H248 0.950 . S
C225 C242 1.574 . S
C225 C244 1.368 . S
C225 H249 0.949 . S
H226 C230 0.949 . S
C227 C228 1.349 . S
C227 C229 1.327 . S
C227 H250 0.950 . S
C228 C227 1.349 . S
C228 C240 1.349 . S
C229 C227 1.327 . S
C229 C245 1.429 . S
C229 H251 0.950 . S
C230 H226 0.949 . S
C230 C238 1.574 . S
C230 C246 1.368 . S
H231 C239 0.950 . S
H232 C237 0.950 . S
H233 C238 0.949 . S
H234 C240 0.950 . S
H235 C241 0.950 . S
H236 C242 0.949 . S
C237 H232 0.950 . S
C237 C239 1.327 . S
C237 C243 1.429 . S
C238 C230 1.574 . S
C238 H233 0.949 . S
C238 C244 1.368 . S
C239 C223 1.349 . S
C239 H231 0.950 . S
C239 C237 1.327 . S
C240 C228 1.349 . S
C240 H234 0.950 . S
C240 C241 1.327 . S
C241 H235 0.950 . S
C241 C240 1.327 . S
C241 C245 1.429 . S
C242 C225 1.574 . S
C242 H236 0.949 . S
C242 C246 1.368 . S
C243 C224 1.429 . S
C243 C237 1.429 . S
C243 C244 1.523 . S
C244 C225 1.368 . S
C244 C238 1.368 . S
C244 C243 1.523 . S
C245 C229 1.429 . S
C245 C241 1.429 . S
C245 C246 1.523 . S
C246 C230 1.368 . S
C246 C242 1.368 . S
C246 C245 1.523 . S
H247 C222 0.950 . S
H248 C224 0.950 . S
H249 C225 0.949 . S
H250 C227 0.950 . S
H251 C229 0.950 . S
C252 C253 1.349 . S
C252 C254 1.327 . S
C252 H277 0.950 . S
C253 C252 1.349 . S
C253 C269 1.349 . S
C254 C252 1.327 . S
C254 C273 1.429 . S
C254 H278 0.950 . S
C255 C272 1.574 . S
C255 C274 1.368 . S
C255 H279 0.949 . S
H256 C260 0.949 . S
C257 C258 1.349 1_556 S
C257 C259 1.327 . S
C257 H280 0.950 1_556 S
C258 C257 1.349 1_554 S
C258 C270 1.349 1_554 S
C259 C257 1.327 . S
C259 C275 1.429 . S
C259 H281 0.950 . S
C260 H256 0.949 . S
C260 C268 1.574 . S
C260 C276 1.368 . S
H261 C269 0.950 . S
H262 C267 0.950 . S
H263 C268 0.949 . S
H264 C270 0.950 1_554 S
H265 C271 0.950 . S
H266 C272 0.949 . S
C267 H262 0.950 . S
C267 C269 1.327 . S
C267 C273 1.429 . S
C268 C260 1.574 . S
C268 H263 0.949 . S
C268 C274 1.368 . S
C269 C253 1.349 . S
C269 H261 0.950 . S
C269 C267 1.327 . S
C270 C258 1.349 1_556 S
C270 H264 0.950 1_556 S
C270 C271 1.327 . S
C271 H265 0.950 . S
C271 C270 1.327 . S
C271 C275 1.429 . S
C272 C255 1.574 . S
C272 H266 0.949 . S
C272 C276 1.368 . S
C273 C254 1.429 . S
C273 C267 1.429 . S
C273 C274 1.523 . S
C274 C255 1.368 . S
C274 C268 1.368 . S
C274 C273 1.523 . S
C275 C259 1.429 . S
C275 C271 1.429 . S
C275 C276 1.523 . S
C276 C260 1.368 . S
C276 C272 1.368 . S
C276 C275 1.523 . S
H277 C252 0.950 . S
H278 C254 0.950 . S
H279 C255 0.949 . S
H280 C257 0.950 1_554 S
H281 C259 0.950 . S
C282 C283 1.349 . S
C282 C284 1.327 . S
C282 H307 0.950 . S
C283 C282 1.349 . S
C283 C299 1.349 . S
C284 C282 1.327 . S
C284 C303 1.429 . S
C284 H308 0.950 . S
C285 C302 1.574 . S
C285 C304 1.368 . S
C285 H309 0.949 . S
H286 C290 0.949 . S
C287 C288 1.349 . S
C287 C289 1.327 . S
C287 H310 0.950 . S
C288 C287 1.349 . S
C288 C300 1.349 . S
C289 C287 1.327 . S
C289 C305 1.429 . S
C289 H311 0.950 . S
C290 H286 0.949 . S
C290 C298 1.574 . S
C290 C306 1.368 . S
H291 C299 0.950 . S
H292 C297 0.950 . S
H293 C298 0.949 . S
H294 C300 0.950 . S
H295 C301 0.950 . S
H296 C302 0.949 . S
C297 H292 0.950 . S
C297 C299 1.327 . S
C297 C303 1.429 . S
C298 C290 1.574 . S
C298 H293 0.949 . S
C298 C304 1.368 . S
C299 C283 1.349 . S
C299 H291 0.950 . S
C299 C297 1.327 . S
C300 C288 1.349 . S
C300 H294 0.950 . S
C300 C301 1.327 . S
C301 H295 0.950 . S
C301 C300 1.327 . S
C301 C305 1.429 . S
C302 C285 1.574 . S
C302 H296 0.949 . S
C302 C306 1.368 . S
C303 C284 1.429 . S
C303 C297 1.429 . S
C303 C304 1.523 1_554 S
C304 C285 1.368 . S
C304 C298 1.368 . S
C304 C303 1.523 1_556 S
C305 C289 1.429 . S
C305 C301 1.429 . S
C305 C306 1.523 . S
C306 C290 1.368 . S
C306 C302 1.368 . S
C306 C305 1.523 . S
H307 C282 0.950 . S
H308 C284 0.950 . S
H309 C285 0.949 . S
H310 C287 0.950 . S
H311 C289 0.950 . S
C312 C313 1.349 . S
C312 C314 1.327 . S
C312 H337 0.950 . S
C313 C312 1.349 . S
C313 C329 1.349 . S
C314 C312 1.327 . S
C314 C333 1.429 . S
C314 H338 0.950 . S
C315 C332 1.574 1_545 S
C315 C334 1.368 . S
C315 H339 0.949 . S
H316 C320 0.949 . S
C317 C318 1.349 . S
C317 C319 1.327 . S
C317 H340 0.950 . S
C318 C317 1.349 . S
C318 C330 1.349 . S
C319 C317 1.327 . S
C319 C335 1.429 . S
C319 H341 0.950 . S
C320 H316 0.949 . S
C320 C328 1.574 1_565 S
C320 C336 1.368 . S
H321 C329 0.950 . S
H322 C327 0.950 . S
H323 C328 0.949 . S
H324 C330 0.950 . S
H325 C331 0.950 . S
H326 C332 0.949 . S
C327 H322 0.950 . S
C327 C329 1.327 . S
C327 C333 1.429 . S
C328 C320 1.574 1_545 S
C328 H323 0.949 . S
C328 C334 1.368 . S
C329 C313 1.349 . S
C329 H321 0.950 . S
C329 C327 1.327 . S
C330 C318 1.349 . S
C330 H324 0.950 . S
C330 C331 1.327 . S
C331 H325 0.950 . S
C331 C330 1.327 . S
C331 C335 1.429 . S
C332 C315 1.574 1_565 S
C332 H326 0.949 . S
C332 C336 1.368 . S
C333 C314 1.429 . S
C333 C327 1.429 . S
C333 C334 1.523 . S
C334 C315 1.368 . S
C334 C328 1.368 . S
C334 C333 1.523 . S
C335 C319 1.429 . S
C335 C331 1.429 . S
C335 C336 1.523 . S
C336 C320 1.368 . S
C336 C332 1.368 . S
C336 C335 1.523 . S
H337 C312 0.950 . S
H338 C314 0.950 . S
H339 C315 0.949 . S
H340 C317 0.950 . S
H341 C319 0.950 . S
C342 C343 1.349 . S
C342 C344 1.327 . S
C342 H367 0.950 . S
C343 C342 1.349 . S
C343 C359 1.349 . S
C344 C342 1.327 . S
C344 C363 1.429 . S
C344 H368 0.950 . S
C345 C362 1.574 . S
C345 C364 1.368 . S
C345 H369 0.949 . S
H346 C350 0.949 . S
C347 C348 1.349 . S
C347 C349 1.327 . S
C347 H370 0.950 . S
C348 C347 1.349 . S
C348 C360 1.349 . S
C349 C347 1.327 . S
C349 C365 1.429 . S
C349 H371 0.950 . S
C350 H346 0.949 . S
C350 C358 1.574 . S
C350 C366 1.368 . S
H351 C359 0.950 . S
H352 C357 0.950 . S
H353 C358 0.949 . S
H354 C360 0.950 . S
H355 C361 0.950 . S
H356 C362 0.949 . S
C357 H352 0.950 . S
C357 C359 1.327 . S
C357 C363 1.429 . S
C358 C350 1.574 . S
C358 H353 0.949 . S
C358 C364 1.368 . S
C359 C343 1.349 . S
C359 H351 0.950 . S
C359 C357 1.327 . S
C360 C348 1.349 . S
C360 H354 0.950 . S
C360 C361 1.327 . S
C361 H355 0.950 . S
C361 C360 1.327 . S
C361 C365 1.429 . S
C362 C345 1.574 . S
C362 H356 0.949 . S
C362 C366 1.368 . S
C363 C344 1.429 . S
C363 C357 1.429 . S
C363 C364 1.523 . S
C364 C345 1.368 . S
C364 C358 1.368 . S
C364 C363 1.523 . S
C365 C349 1.429 . S
C365 C361 1.429 . S
C365 C366 1.523 . S
C366 C350 1.368 . S
C366 C362 1.368 . S
C366 C365 1.523 . S
H367 C342 0.950 . S
H368 C344 0.950 . S
H369 C345 0.949 . S
H370 C347 0.950 . S
H371 C349 0.950 . S
C372 C373 1.349 . S
C372 C374 1.327 . S
C372 H397 0.950 . S
C373 C372 1.349 . S
C373 C389 1.349 . S
C374 C372 1.327 . S
C374 C393 1.429 . S
C374 H398 0.950 . S
C375 C392 1.574 1_655 S
C375 C394 1.368 . S
C375 H399 0.949 . S
H376 C380 0.949 . S
C377 C378 1.349 . S
C377 C379 1.327 . S
C377 H400 0.950 . S
C378 C377 1.349 . S
C378 C390 1.349 . S
C379 C377 1.327 . S
C379 C395 1.429 . S
C379 H401 0.950 . S
C380 H376 0.949 . S
C380 C388 1.574 1_455 S
C380 C396 1.368 . S
H381 C389 0.950 . S
H382 C387 0.950 . S
H383 C388 0.949 . S
H384 C390 0.950 . S
H385 C391 0.950 . S
H386 C392 0.949 . S
C387 H382 0.950 . S
C387 C389 1.327 . S
C387 C393 1.429 . S
C388 C380 1.574 1_655 S
C388 H383 0.949 . S
C388 C394 1.368 . S
C389 C373 1.349 . S
C389 H381 0.950 . S
C389 C387 1.327 . S
C390 C378 1.349 . S
C390 H384 0.950 . S
C390 C391 1.327 . S
C391 H385 0.950 . S
C391 C390 1.327 . S
C391 C395 1.429 . S
C392 C375 1.574 1_455 S
C392 H386 0.949 . S
C392 C396 1.368 . S
C393 C374 1.429 . S
C393 C387 1.429 . S
C393 C394 1.523 . S
C394 C375 1.368 . S
C394 C388 1.368 . S
C394 C393 1.523 . S
C395 C379 1.429 . S
C395 C391 1.429 . S
C395 C396 1.523 . S
C396 C380 1.368 . S
C396 C392 1.368 . S
C396 C395 1.523 . S
H397 C372 0.950 . S
H398 C374 0.950 . S
H399 C375 0.949 . S
H400 C377 0.950 . S
H401 C379 0.950 . S
C402 C403 1.349 . S
C402 C404 1.327 . S
C402 H427 0.950 . S
C403 C402 1.349 . S
C403 C419 1.349 1_554 S
C404 C402 1.327 . S
C404 C423 1.429 . S
C404 H428 0.950 . S
C405 C422 1.574 1_565 S
C405 C424 1.368 1_556 S
C405 H429 0.949 . S
H406 C410 0.949 . S
C407 C408 1.349 . S
C407 C409 1.327 . S
C407 H430 0.950 . S
C408 C407 1.349 . S
C408 C420 1.349 1_556 S
C409 C407 1.327 . S
C409 C425 1.429 . S
C409 H431 0.950 . S
C410 H406 0.949 . S
C410 C418 1.574 1_545 S
C410 C426 1.368 1_554 S
H411 C419 0.950 . S
H412 C417 0.950 . S
H413 C418 0.949 . S
H414 C420 0.950 . S
H415 C421 0.950 . S
H416 C422 0.949 . S
C417 H412 0.950 . S
C417 C419 1.327 . S
C417 C423 1.429 1_556 S
C418 C410 1.574 1_565 S
C418 H413 0.949 . S
C418 C424 1.368 . S
C419 C403 1.349 1_556 S
C419 H411 0.950 . S
C419 C417 1.327 . S
C420 C408 1.349 1_554 S
C420 H414 0.950 . S
C420 C421 1.327 . S
C421 H415 0.950 . S
C421 C420 1.327 . S
C421 C425 1.429 1_554 S
C422 C405 1.574 1_545 S
C422 H416 0.949 . S
C422 C426 1.368 . S
C423 C404 1.429 . S
C423 C417 1.429 1_554 S
C423 C424 1.523 . S
C424 C405 1.368 1_554 S
C424 C418 1.368 . S
C424 C423 1.523 . S
C425 C409 1.429 . S
C425 C421 1.429 1_556 S
C425 C426 1.523 . S
C426 C410 1.368 1_556 S
C426 C422 1.368 . S
C426 C425 1.523 . S
H427 C402 0.950 . S
H428 C404 0.950 . S
H429 C405 0.949 . S
H430 C407 0.950 . S
H431 C409 0.950 . S
C432 C433 1.349 . S
C432 C434 1.327 . S
C432 H457 0.950 . S
C433 C432 1.349 . S
C433 C449 1.349 . S
C434 C432 1.327 . S
C434 C453 1.429 . S
C434 H458 0.950 . S
C435 C452 1.574 . S
C435 C454 1.368 . S
C435 H459 0.949 . S
H436 C440 0.949 . S
C437 C438 1.349 . S
C437 C439 1.327 . S
C437 H460 0.950 . S
C438 C437 1.349 . S
C438 C450 1.349 . S
C439 C437 1.327 . S
C439 C455 1.429 . S
C439 H461 0.950 . S
C440 H436 0.949 . S
C440 C448 1.574 . S
C440 C456 1.368 . S
H441 C449 0.950 . S
H442 C447 0.950 . S
H443 C448 0.949 . S
H444 C450 0.950 . S
H445 C451 0.950 . S
H446 C452 0.949 . S
C447 H442 0.950 . S
C447 C449 1.327 . S
C447 C453 1.429 . S
C448 C440 1.574 . S
C448 H443 0.949 . S
C448 C454 1.368 . S
C449 C433 1.349 . S
C449 H441 0.950 . S
C449 C447 1.327 . S
C450 C438 1.349 . S
C450 H444 0.950 . S
C450 C451 1.327 . S
C451 H445 0.950 . S
C451 C450 1.327 . S
C451 C455 1.429 . S
C452 C435 1.574 . S
C452 H446 0.949 . S
C452 C456 1.368 . S
C453 C434 1.429 . S
C453 C447 1.429 . S
C453 C454 1.523 . S
C454 C435 1.368 . S
C454 C448 1.368 . S
C454 C453 1.523 . S
C455 C439 1.429 . S
C455 C451 1.429 . S
C455 C456 1.523 . S
C456 C440 1.368 . S
C456 C452 1.368 . S
C456 C455 1.523 . S
H457 C432 0.950 . S
H458 C434 0.950 . S
H459 C435 0.949 . S
H460 C437 0.950 . S
H461 C439 0.950 . S
C462 C463 1.349 . S
C462 C464 1.327 . S
C462 H487 0.950 . S
C463 C462 1.349 . S
C463 C479 1.349 . S
C464 C462 1.327 . S
C464 C483 1.429 . S
C464 H488 0.950 . S
C465 C482 1.574 1_655 S
C465 C484 1.368 . S
C465 H489 0.949 . S
H466 C470 0.949 . S
C467 C468 1.349 . S
C467 C469 1.327 . S
C467 H490 0.950 . S
C468 C467 1.349 . S
C468 C480 1.349 . S
C469 C467 1.327 . S
C469 C485 1.429 . S
C469 H491 0.950 . S
C470 H466 0.949 . S
C470 C478 1.574 1_455 S
C470 C486 1.368 . S
H471 C479 0.950 . S
H472 C477 0.950 . S
H473 C478 0.949 . S
H474 C480 0.950 . S
H475 C481 0.950 . S
H476 C482 0.949 . S
C477 H472 0.950 . S
C477 C479 1.327 . S
C477 C483 1.429 . S
C478 C470 1.574 1_655 S
C478 H473 0.949 . S
C478 C484 1.368 . S
C479 C463 1.349 . S
C479 H471 0.950 . S
C479 C477 1.327 . S
C480 C468 1.349 . S
C480 H474 0.950 . S
C480 C481 1.327 . S
C481 H475 0.950 . S
C481 C480 1.327 . S
C481 C485 1.429 . S
C482 C465 1.574 1_455 S
C482 H476 0.949 . S
C482 C486 1.368 . S
C483 C464 1.429 . S
C483 C477 1.429 . S
C483 C484 1.523 . S
C484 C465 1.368 . S
C484 C478 1.368 . S
C484 C483 1.523 . S
C485 C469 1.429 . S
C485 C481 1.429 . S
C485 C486 1.523 . S
C486 C470 1.368 . S
C486 C482 1.368 . S
C486 C485 1.523 . S
H487 C462 0.950 . S
H488 C464 0.950 . S
H489 C465 0.949 . S
H490 C467 0.950 . S
H491 C469 0.950 . S
C492 C493 1.349 . S
C492 C494 1.327 . S
C492 H517 0.950 . S
C493 C492 1.349 . S
C493 C509 1.349 . S
C494 C492 1.327 . S
C494 C513 1.429 . S
C494 H518 0.950 . S
C495 C512 1.574 . S
C495 C514 1.368 . S
C495 H519 0.949 . S
H496 C500 0.949 . S
C497 C498 1.349 . S
C497 C499 1.327 . S
C497 H520 0.950 . S
C498 C497 1.349 . S
C498 C510 1.349 . S
C499 C497 1.327 . S
C499 C515 1.429 . S
C499 H521 0.950 . S
C500 H496 0.949 . S
C500 C508 1.574 . S
C500 C516 1.368 . S
H501 C509 0.950 . S
H502 C507 0.950 . S
H503 C508 0.949 . S
H504 C510 0.950 . S
H505 C511 0.950 . S
H506 C512 0.949 . S
C507 H502 0.950 . S
C507 C509 1.327 . S
C507 C513 1.429 . S
C508 C500 1.574 . S
C508 H503 0.949 . S
C508 C514 1.368 . S
C509 C493 1.349 . S
C509 H501 0.950 . S
C509 C507 1.327 . S
C510 C498 1.349 . S
C510 H504 0.950 . S
C510 C511 1.327 . S
C511 H505 0.950 . S
C511 C510 1.327 . S
C511 C515 1.429 . S
C512 C495 1.574 . S
C512 H506 0.949 . S
C512 C516 1.368 . S
C513 C494 1.429 . S
C513 C507 1.429 . S
C513 C514 1.523 . S
C514 C495 1.368 . S
C514 C508 1.368 . S
C514 C513 1.523 . S
C515 C499 1.429 . S
C515 C511 1.429 . S
C515 C516 1.523 . S
C516 C500 1.368 . S
C516 C512 1.368 . S
C516 C515 1.523 . S
H517 C492 0.950 . S
H518 C494 0.950 . S
H519 C495 0.949 . S
H520 C497 0.950 . S
H521 C499 0.950 . S
C522 C523 1.349 . S
C522 C524 1.327 . S
C522 H547 0.950 . S
C523 C522 1.349 . S
C523 C539 1.349 . S
C524 C522 1.327 . S
C524 C543 1.429 . S
C524 H548 0.950 . S
C525 C542 1.574 . S
C525 C544 1.368 . S
C525 H549 0.949 . S
H526 C530 0.949 . S
C527 C528 1.349 . S
C527 C529 1.327 . S
C527 H550 0.950 . S
C528 C527 1.349 . S
C528 C540 1.349 . S
C529 C527 1.327 . S
C529 C545 1.429 . S
C529 H551 0.950 . S
C530 H526 0.949 . S
C530 C538 1.574 . S
C530 C546 1.368 . S
H531 C539 0.950 . S
H532 C537 0.950 . S
H533 C538 0.949 . S
H534 C540 0.950 . S
H535 C541 0.950 . S
H536 C542 0.949 . S
C537 H532 0.950 . S
C537 C539 1.327 . S
C537 C543 1.429 . S
C538 C530 1.574 . S
C538 H533 0.949 . S
C538 C544 1.368 . S
C539 C523 1.349 . S
C539 H531 0.950 . S
C539 C537 1.327 . S
C540 C528 1.349 . S
C540 H534 0.950 . S
C540 C541 1.327 . S
C541 H535 0.950 . S
C541 C540 1.327 . S
C541 C545 1.429 . S
C542 C525 1.574 . S
C542 H536 0.949 . S
C542 C546 1.368 . S
C543 C524 1.429 . S
C543 C537 1.429 . S
C543 C544 1.523 . S
C544 C525 1.368 . S
C544 C538 1.368 . S
C544 C543 1.523 . S
C545 C529 1.429 . S
C545 C541 1.429 . S
C545 C546 1.523 . S
C546 C530 1.368 . S
C546 C542 1.368 . S
C546 C545 1.523 . S
H547 C522 0.950 . S
H548 C524 0.950 . S
H549 C525 0.949 . S
H550 C527 0.950 . S
H551 C529 0.950 . S
C552 C553 1.349 . S
C552 C554 1.327 . S
C552 H577 0.950 . S
C553 C552 1.349 . S
C553 C569 1.349 . S
C554 C552 1.327 . S
C554 C573 1.429 . S
C554 H578 0.950 . S
C555 C572 1.574 . S
C555 C574 1.368 . S
C555 H579 0.949 . S
H556 C560 0.949 . S
C557 C558 1.349 . S
C557 C559 1.327 . S
C557 H580 0.950 . S
C558 C557 1.349 . S
C558 C570 1.349 . S
C559 C557 1.327 . S
C559 C575 1.429 . S
C559 H581 0.950 . S
C560 H556 0.949 . S
C560 C568 1.574 . S
C560 C576 1.368 . S
H561 C569 0.950 . S
H562 C567 0.950 . S
H563 C568 0.949 . S
H564 C570 0.950 . S
H565 C571 0.950 . S
H566 C572 0.949 . S
C567 H562 0.950 . S
C567 C569 1.327 . S
C567 C573 1.429 . S
C568 C560 1.574 . S
C568 H563 0.949 . S
C568 C574 1.368 . S
C569 C553 1.349 . S
C569 H561 0.950 . S
C569 C567 1.327 . S
C570 C558 1.349 . S
C570 H564 0.950 . S
C570 C571 1.327 . S
C571 H565 0.950 . S
C571 C570 1.327 . S
C571 C575 1.429 . S
C572 C555 1.574 . S
C572 H566 0.949 . S
C572 C576 1.368 . S
C573 C554 1.429 . S
C573 C567 1.429 . S
C573 C574 1.523 . S
C574 C555 1.368 . S
C574 C568 1.368 . S
C574 C573 1.523 . S
C575 C559 1.429 . S
C575 C571 1.429 . S
C575 C576 1.523 . S
C576 C560 1.368 . S
C576 C572 1.368 . S
C576 C575 1.523 . S
H577 C552 0.950 . S
H578 C554 0.950 . S
H579 C555 0.949 . S
H580 C557 0.950 . S
H581 C559 0.950 . S
C582 C583 1.353 . S
C582 C584 1.327 . S
C582 H607 0.950 . S
C583 C582 1.353 . S
C583 C599 1.347 1_556 S
C584 C582 1.327 . S
C584 C603 1.429 . S
C584 H608 0.950 . S
C585 C602 1.574 . S
C585 C604 1.368 . S
C585 H609 0.949 . S
H586 C590 0.949 . S
C587 C588 1.349 . S
C587 C589 1.327 . S
C587 H610 0.950 . S
C588 C587 1.349 . S
C588 C600 1.349 . S
C589 C587 1.327 . S
C589 C605 1.429 . S
C589 H611 0.950 . S
C590 H586 0.949 . S
C590 C598 1.574 . S
C590 C606 1.368 . S
H591 C599 0.950 . S
H592 C597 0.950 1_554 S
H593 C598 0.949 . S
H594 C600 0.950 . S
H595 C601 0.950 . S
H596 C602 0.949 . S
C597 H592 0.950 1_556 S
C597 C599 1.327 1_556 S
C597 C603 1.429 . S
C598 C590 1.574 . S
C598 H593 0.949 . S
C598 C604 1.368 . S
C599 C583 1.347 1_554 S
C599 H591 0.950 . S
C599 C597 1.327 1_554 S
C600 C588 1.349 . S
C600 H594 0.950 . S
C600 C601 1.327 . S
C601 H595 0.950 . S
C601 C600 1.327 . S
C601 C605 1.429 . S
C602 C585 1.574 . S
C602 H596 0.949 . S
C602 C606 1.368 . S
C603 C584 1.429 . S
C603 C597 1.429 . S
C603 C604 1.523 . S
C604 C585 1.368 . S
C604 C598 1.368 . S
C604 C603 1.523 . S
C605 C589 1.429 . S
C605 C601 1.429 . S
C605 C606 1.523 . S
C606 C590 1.368 . S
C606 C602 1.368 . S
C606 C605 1.523 . S
H607 C582 0.950 . S
H608 C584 0.950 . S
H609 C585 0.949 . S
H610 C587 0.950 . S
H611 C589 0.950 . S
C612 C613 1.349 . S
C612 C614 1.327 . S
C612 H637 0.950 . S
C613 C612 1.349 . S
C613 C629 1.349 . S
C614 C612 1.327 . S
C614 C633 1.429 . S
C614 H638 0.950 . S
C615 C632 1.574 . S
C615 C634 1.368 . S
C615 H639 0.949 . S
H616 C620 0.949 1_556 S
C617 C618 1.349 . S
C617 C619 1.327 . S
C617 H640 0.950 . S
C618 C617 1.349 . S
C618 C630 1.349 1_554 S
C619 C617 1.327 . S
C619 C635 1.429 . S
C619 H641 0.950 . S
C620 H616 0.949 1_554 S
C620 C628 1.574 . S
C620 C636 1.368 . S
H621 C629 0.950 . S
H622 C627 0.950 . S
H623 C628 0.949 . S
H624 C630 0.950 . S
H625 C631 0.950 . S
H626 C632 0.949 . S
C627 H622 0.950 . S
C627 C629 1.327 . S
C627 C633 1.429 . S
C628 C620 1.574 . S
C628 H623 0.949 . S
C628 C634 1.368 . S
C629 C613 1.349 . S
C629 H621 0.950 . S
C629 C627 1.327 . S
C630 C618 1.349 1_556 S
C630 H624 0.950 . S
C630 C631 1.327 . S
C631 H625 0.950 . S
C631 C630 1.327 . S
C631 C635 1.429 1_556 S
C632 C615 1.574 . S
C632 H626 0.949 . S
C632 C636 1.368 . S
C633 C614 1.429 . S
C633 C627 1.429 . S
C633 C634 1.523 . S
C634 C615 1.368 . S
C634 C628 1.368 . S
C634 C633 1.523 . S
C635 C619 1.429 . S
C635 C631 1.429 1_554 S
C635 C636 1.523 . S
C636 C620 1.368 . S
C636 C632 1.368 . S
C636 C635 1.523 . S
H637 C612 0.950 . S
H638 C614 0.950 . S
H639 C615 0.949 . S
H640 C617 0.950 . S
H641 C619 0.950 . S
C642 C643 1.349 . S
C642 C644 1.327 . S
C642 H667 0.950 . S
C643 C642 1.349 . S
C643 C659 1.349 . S
C644 C642 1.327 . S
C644 C663 1.429 . S
C644 H668 0.950 . S
C645 C662 1.574 . S
C645 C664 1.368 . S
C645 H669 0.949 . S
H646 C650 0.949 . S
C647 C648 1.349 . S
C647 C649 1.327 . S
C647 H670 0.950 . S
C648 C647 1.349 . S
C648 C660 1.349 . S
C649 C647 1.327 . S
C649 C665 1.429 . S
C649 H671 0.950 . S
C650 H646 0.949 . S
C650 C658 1.574 . S
C650 C666 1.368 . S
H651 C659 0.950 . S
H652 C657 0.950 . S
H653 C658 0.949 . S
H654 C660 0.950 . S
H655 C661 0.950 . S
H656 C662 0.949 . S
C657 H652 0.950 . S
C657 C659 1.327 . S
C657 C663 1.429 . S
C658 C650 1.574 . S
C658 H653 0.949 . S
C658 C664 1.368 . S
C659 C643 1.349 . S
C659 H651 0.950 . S
C659 C657 1.327 . S
C660 C648 1.349 . S
C660 H654 0.950 . S
C660 C661 1.327 . S
C661 H655 0.950 . S
C661 C660 1.327 . S
C661 C665 1.429 . S
C662 C645 1.574 . S
C662 H656 0.949 . S
C662 C666 1.368 . S
C663 C644 1.429 . S
C663 C657 1.429 . S
C663 C664 1.523 . S
C664 C645 1.368 . S
C664 C658 1.368 . S
C664 C663 1.523 . S
C665 C649 1.429 . S
C665 C661 1.429 . S
C665 C666 1.523 . S
C666 C650 1.368 . S
C666 C662 1.368 . S
C666 C665 1.523 . S
H667 C642 0.950 . S
H668 C644 0.950 . S
H669 C645 0.949 . S
H670 C647 0.950 . S
H671 C649 0.950 . S
C133 C10 1.360 . S
C138 C7 1.356 . S
C163 C32 1.360 . S
C168 C29 1.356 . S
C193 C65 1.356 . S
C198 C62 1.360 . S
C223 C87 1.356 . S
C228 C84 1.360 . S
C253 C109 1.356 . S
C258 C106 1.360 . S
C283 C128 1.360 . S
C288 C131 1.356 . S
C313 C15 1.593 . S
C318 C118 1.606 . S
C343 C18 1.606 . S
C348 C37 1.593 . S
C373 C51 1.593 . S
C378 C40 1.606 . S
C403 C73 1.593 . S
C408 C52 1.606 . S
C433 C95 1.593 . S
C438 C74 1.606 . S
C463 C96 1.606 . S
C468 C117 1.593 . S
C493 C8 1.278 . S
C498 C103 1.267 . S
C523 C30 1.278 . S
C528 C125 1.267 . S
C553 C54 1.278 . S
C558 C21 1.267 . S
C583 C76 1.276 1_556 S
C588 C43 1.267 . S
C613 C98 1.278 . S
C618 C59 1.267 1_554 S
C643 C81 1.267 . S
C648 C120 1.278 . S
