# Generated by pormake.
# Topology smt, (6)-cn, num edge types: 1
# Building blocks:
#     Node 0, Type 0, BuildingBlock: CIFDUS_clean_sbu_1, # of connection points: 6
#     Node 1, Type 0, BuildingBlock: CIFDUS_clean_sbu_1, # of connection points: 6
#     Node 2, Type 0, BuildingBlock: CIFDUS_clean_sbu_1, # of connection points: 6
#     Node 3, Type 0, BuildingBlock: CIFDUS_clean_sbu_1, # of connection points: 6
#     Node 4, Type 0, BuildingBlock: CIFDUS_clean_sbu_1, # of connection points: 6
#     Node 5, Type 0, BuildingBlock: CIFDUS_clean_sbu_1, # of connection points: 6
#     Edge 6, Type (0, 0), BuildingBlock: KIFKEQ_clean_linker_1, # of connection points: 2
#     Edge 7, Type (0, 0), BuildingBlock: KIFKEQ_clean_linker_1, # of connection points: 2
#     Edge 8, Type (0, 0), BuildingBlock: KIFKEQ_clean_linker_1, # of connection points: 2
#     Edge 9, Type (0, 0), BuildingBlock: KIFKEQ_clean_linker_1, # of connection points: 2
#     Edge 10, Type (0, 0), BuildingBlock: KIFKEQ_clean_linker_1, # of connection points: 2
#     Edge 11, Type (0, 0), BuildingBlock: KIFKEQ_clean_linker_1, # of connection points: 2
#     Edge 12, Type (0, 0), BuildingBlock: KIFKEQ_clean_linker_1, # of connection points: 2
#     Edge 13, Type (0, 0), BuildingBlock: KIFKEQ_clean_linker_1, # of connection points: 2
#     Edge 14, Type (0, 0), BuildingBlock: KIFKEQ_clean_linker_1, # of connection points: 2
#     Edge 15, Type (0, 0), BuildingBlock: KIFKEQ_clean_linker_1, # of connection points: 2
#     Edge 16, Type (0, 0), BuildingBlock: KIFKEQ_clean_linker_1, # of connection points: 2
#     Edge 17, Type (0, 0), BuildingBlock: KIFKEQ_clean_linker_1, # of connection points: 2
#     Edge 18, Type (0, 0), BuildingBlock: KIFKEQ_clean_linker_1, # of connection points: 2
#     Edge 19, Type (0, 0), BuildingBlock: KIFKEQ_clean_linker_1, # of connection points: 2
#     Edge 20, Type (0, 0), BuildingBlock: KIFKEQ_clean_linker_1, # of connection points: 2
#     Edge 21, Type (0, 0), BuildingBlock: KIFKEQ_clean_linker_1, # of connection points: 2
#     Edge 22, Type (0, 0), BuildingBlock: KIFKEQ_clean_linker_1, # of connection points: 2
#     Edge 23, Type (0, 0), BuildingBlock: KIFKEQ_clean_linker_1, # of connection points: 2
# Relax obj value: 0.309
# Max RMSD: 0.271
# Mean RMSD: 0.271
data_MOF--net-smt--node1-CIFDUS_clean_sbu_1--edge1-KIFKEQ_clean_linker_1
_symmetry_space_group_name_H-M    P1
_symmetry_Int_Tables_number       1
_symmetry_cell_setting            triclinic
loop_
_symmetry_equiv_pos_as_xyz
'x, y, z'
_cell_length_a     36.445938
_cell_length_b     36.438935
_cell_length_c     23.530482
_cell_angle_alpha  89.893238
_cell_angle_beta   89.661133
_cell_angle_gamma 120.1234
loop_
_atom_site_label
_atom_site_type_symbol
_atom_site_fract_x
_atom_site_fract_y
_atom_site_fract_z
_atom_type_partial_charge
O0 O 0.46581 0.15718 0.94453 0.0
Mn1 Mn 0.4597 0.11301 0.00588 0.0
O2 O 0.53205 0.18228 0.9089 0.0
Mn3 Mn 0.54669 0.14728 0.94764 0.0
O4 O 0.4576 0.07157 0.0699 0.0
O5 O 0.41895 0.12682 0.04789 0.0
Mn6 Mn 0.37961 0.07909 0.07965 0.0
O7 O 0.40879 0.06191 0.96341 0.0
O8 O 0.40703 0.06368 0.13159 0.0
O9 O 0.51042 0.1611 0.05318 0.0
O10 O 0.56967 0.16509 0.01774 0.0
O11 O 0.36455 0.11869 0.09772 0.0
O12 O 0.35233 0.04048 0.02179 0.0
C13 C 0.51387 0.08246 0.92548 0.0
C14 C 0.49703 0.18221 0.91207 0.0
C15 C 0.43865 0.05956 0.11838 0.0
C16 C 0.39788 0.14413 0.0682 0.0
C17 C 0.3695 0.03646 0.97658 0.0
C18 C 0.55004 0.17248 0.05652 0.0
O19 O 0.49867 0.09993 0.95902 0.0
O20 O 0.55279 0.10713 0.90939 0.0
O21 O 0.3468 0.40765 0.13033 0.0
Mn22 Mn 0.34846 0.45908 0.17326 0.0
O23 O 0.31618 0.35335 0.19308 0.0
Mn24 Mn 0.30274 0.38067 0.24941 0.0
O25 O 0.35258 0.51008 0.22069 0.0
O26 O 0.40175 0.49742 0.12681 0.0
Mn27 Mn 0.4002 0.54343 0.10946 0.0
O28 O 0.30988 0.46679 0.11395 0.0
O29 O 0.39982 0.56985 0.17525 0.0
O30 O 0.38799 0.45634 0.23636 0.0
O31 O 0.34386 0.41125 0.30227 0.0
O32 O 0.44954 0.55246 0.07789 0.0
O33 O 0.35366 0.52587 0.0641 0.0
C34 C 0.25491 0.397 0.23621 0.0
C35 C 0.33496 0.36926 0.14579 0.0
C36 C 0.37578 0.55072 0.21733 0.0
C37 C 0.43615 0.5141 0.09572 0.0
C38 C 0.31686 0.49533 0.07629 0.0
C39 C 0.37989 0.44187 0.28757 0.0
O40 O 0.29329 0.41848 0.21537 0.0
O41 O 0.24749 0.3642 0.2663 0.0
O42 O 0.8396 0.30051 0.28498 0.0
Mn43 Mn 0.88841 0.34446 0.33974 0.0
O44 O 0.84867 0.33966 0.21079 0.0
Mn45 Mn 0.8552 0.3818 0.25906 0.0
O46 O 0.93132 0.38689 0.39996 0.0
O47 O 0.87418 0.2918 0.3872 0.0
Mn48 Mn 0.92169 0.30275 0.42179 0.0
O49 O 0.93767 0.34033 0.29897 0.0
O50 O 0.93469 0.34715 0.47027 0.0
O51 O 0.84329 0.35278 0.38271 0.0
O52 O 0.81481 0.37296 0.31413 0.0
O53 O 0.88241 0.24836 0.44258 0.0
O54 O 0.96212 0.31337 0.36547 0.0
C55 C 0.91558 0.43181 0.25867 0.0
C56 C 0.82805 0.30438 0.23503 0.0
C57 C 0.94034 0.38223 0.45128 0.0
C58 C 0.85717 0.25412 0.41014 0.0
C59 C 0.9647 0.32993 0.31662 0.0
C60 C 0.8174 0.36452 0.36584 0.0
O61 O 0.90512 0.39801 0.29006 0.0
O62 O 0.88571 0.43447 0.23268 0.0
O63 O 0.59671 0.93305 0.46468 0.0
Mn64 Mn 0.54177 0.88598 0.5054 0.0
O65 O 0.64006 0.96379 0.53732 0.0
Mn66 Mn 0.61109 0.91925 0.5885 0.0
O67 O 0.4845 0.84157 0.54474 0.0
O68 O 0.51012 0.90531 0.45253 0.0
Mn69 Mn 0.47362 0.85772 0.4195 0.0
O70 O 0.537 0.83794 0.44911 0.0
O71 O 0.43903 0.81818 0.47217 0.0
O72 O 0.54174 0.92969 0.56536 0.0
O73 O 0.57826 0.92751 0.64006 0.0
O74 O 0.45896 0.89432 0.39178 0.0
O75 O 0.50477 0.84374 0.37328 0.0
C76 C 0.60529 0.85987 0.56934 0.0
C77 C 0.63067 0.96358 0.48557 0.0
C78 C 0.44698 0.81846 0.52466 0.0
C79 C 0.49253 0.92093 0.41947 0.0
C80 C 0.52323 0.82694 0.39806 0.0
C81 C 0.55058 0.93477 0.61884 0.0
O82 O 0.57424 0.86766 0.56044 0.0
O83 O 0.63725 0.88896 0.59707 0.0
O84 O 0.69552 0.53408 0.61139 0.0
Mn85 Mn 0.65441 0.54116 0.66889 0.0
O86 O 0.65336 0.48784 0.54657 0.0
Mn87 Mn 0.60806 0.46264 0.59545 0.0
O88 O 0.61277 0.54297 0.7302 0.0
O89 O 0.70818 0.57949 0.71435 0.0
Mn90 Mn 0.69783 0.61726 0.74693 0.0
O91 O 0.65851 0.59405 0.62647 0.0
O92 O 0.65423 0.58702 0.79779 0.0
O93 O 0.64699 0.48835 0.71413 0.0
O94 O 0.61155 0.43265 0.65603 0.0
O95 O 0.7513 0.63226 0.76927 0.0
O96 O 0.68816 0.64693 0.69031 0.0
C97 C 0.56735 0.48688 0.59098 0.0
C98 C 0.68995 0.51184 0.56639 0.0
C99 C 0.61869 0.55707 0.78133 0.0
C100 C 0.74482 0.59962 0.73975 0.0
C101 C 0.67052 0.63224 0.64254 0.0
C102 C 0.62892 0.44853 0.70327 0.0
O103 O 0.60192 0.50449 0.62106 0.0
O104 O 0.55697 0.45054 0.56844 0.0
O105 O 0.06242 0.6553 0.79685 0.0
Mn106 Mn 0.11462 0.65635 0.83674 0.0
O107 O 0.04125 0.69187 0.8505 0.0
Mn108 Mn 0.07645 0.69677 0.90982 0.0
O109 O 0.16286 0.64982 0.87906 0.0
O110 O 0.10265 0.60623 0.78609 0.0
Mn111 Mn 0.15499 0.61648 0.7689 0.0
O112 O 0.15672 0.70056 0.77812 0.0
O113 O 0.1626 0.59507 0.83393 0.0
O114 O 0.0741 0.61316 0.89885 0.0
O115 O 0.05508 0.64989 0.95644 0.0
O116 O 0.12357 0.59348 0.70569 0.0
O117 O 0.19685 0.67215 0.7593 0.0
C118 C 0.14114 0.74402 0.91396 0.0
C119 C 0.03717 0.66952 0.80711 0.0
C120 C 0.16899 0.6176 0.87794 0.0
C121 C 0.09337 0.59433 0.73359 0.0
C122 C 0.19128 0.70359 0.76043 0.0
C123 C 0.05563 0.61631 0.9438 0.0
O124 O 0.12769 0.70875 0.8852 0.0
O125 O 0.11202 0.74805 0.9403 0.0
H126 H 0.28558 1.00005 0.95498 0.0
H127 H 0.39276 0.98214 0.92826 0.0
H128 H 0.23746 0.92586 0.93213 0.0
H129 H 0.34393 0.90702 0.90504 0.0
H130 H 0.20329 0.77932 0.82927 0.0
H131 H 0.26582 0.85164 0.83075 0.0
H132 H 0.23843 0.86433 0.0057 0.0
H133 H 0.17779 0.7928 0.00481 0.0
C134 C 0.29896 0.98065 0.94204 0.0
C135 C 0.34303 0.99708 0.94359 0.0
C136 C 0.27133 0.93804 0.92924 0.0
C137 C 0.28689 0.91052 0.91748 0.0
C138 C 0.33108 0.92757 0.91374 0.0
C139 C 0.35902 0.97065 0.92662 0.0
C140 C 0.21198 0.79681 0.86863 0.0
C141 C 0.18555 0.78018 0.91687 0.0
C142 C 0.24744 0.8384 0.86934 0.0
C143 C 0.25645 0.86385 0.91811 0.0
C144 C 0.23208 0.84568 0.96738 0.0
C145 C 0.19738 0.80451 0.96684 0.0
H146 H 0.41301 0.39172 0.10123 0.0
H147 H 0.28552 0.28616 0.11843 0.0
H148 H 0.43701 0.3432 0.06786 0.0
H149 H 0.30896 0.23809 0.08388 0.0
H150 H 0.35263 0.16075 -0.00624 0.0
H151 H 0.34042 0.22073 -0.00168 0.0
H152 H 0.44111 0.2815 0.12033 0.0
H153 H 0.45287 0.22079 0.11604 0.0
C154 C 0.38985 0.35845 0.09573 0.0
C155 C 0.34725 0.34279 0.1117 0.0
C156 C 0.40368 0.33061 0.07734 0.0
C157 C 0.37495 0.28673 0.07315 0.0
C158 C 0.3319 0.27169 0.08593 0.0
C159 C 0.31837 0.29924 0.10558 0.0
C160 C 0.37368 0.18794 0.01925 0.0
C161 C 0.40444 0.18651 0.0534 0.0
C162 C 0.36622 0.22204 0.02257 0.0
C163 C 0.38947 0.25579 0.06007 0.0
C164 C 0.42288 0.25622 0.09059 0.0
C165 C 0.43 0.22167 0.0877 0.0
H166 H -0.00036 0.28129 0.2904 0.0
H167 H 0.02056 0.40821 0.27381 0.0
H168 H 0.07171 0.30571 0.25581 0.0
H169 H 0.09348 0.43318 0.24061 0.0
H170 H 0.23263 0.45077 0.28622 0.0
H171 H 0.15974 0.43778 0.29254 0.0
H172 H 0.12023 0.3382 0.16852 0.0
H173 H 0.19289 0.35166 0.1619 0.0
C174 C 0.0193 0.31419 0.27767 0.0
C175 C 0.0041 0.34259 0.28349 0.0
C176 C 0.06068 0.3283 0.25806 0.0
C177 C 0.08844 0.37145 0.24529 0.0
C178 C 0.07291 0.39976 0.24987 0.0
C179 C 0.031 0.38536 0.26811 0.0
C180 C 0.20886 0.42791 0.25788 0.0
C181 C 0.21874 0.40304 0.22236 0.0
C182 C 0.16694 0.42005 0.26197 0.0
C183 C 0.13401 0.38658 0.23146 0.0
C184 C 0.14471 0.36401 0.19282 0.0
C185 C 0.18652 0.37221 0.18829 0.0
H186 H 0.7761 0.23112 0.44425 0.0
H187 H 0.84857 0.18981 0.34581 0.0
H188 H 0.71635 0.15777 0.44773 0.0
H189 H 0.78957 0.11696 0.34932 0.0
H190 H 0.71525 0.99825 0.46854 0.0
H191 H 0.76501 0.06963 0.43407 0.0
H192 H 0.66052 0.08987 0.39753 0.0
H193 H 0.61052 0.01753 0.43143 0.0
C194 C 0.7784 0.2068 0.42079 0.0
C195 C 0.81666 0.21639 0.39359 0.0
C196 C 0.74435 0.16463 0.42324 0.0
C197 C 0.74831 0.13124 0.39943 0.0
C198 C 0.78547 0.14166 0.36857 0.0
C199 C 0.81909 0.18359 0.36574 0.0
C200 C 0.70285 0.01738 0.45118 0.0
C201 C 0.65899 0.00197 0.45152 0.0
C202 C 0.73135 0.05844 0.43156 0.0
C203 C 0.71688 0.08572 0.41295 0.0
C204 C 0.67278 0.06979 0.41157 0.0
C205 C 0.64411 0.02817 0.43015 0.0
H206 H 0.61837 0.82527 0.66242 0.0
H207 H 0.58291 0.79819 0.48638 0.0
H208 H 0.63086 0.76587 0.66694 0.0
H209 H 0.59351 0.73631 0.49195 0.0
H210 H 0.59421 0.61034 0.59324 0.0
H211 H 0.56906 0.65961 0.56809 0.0
H212 H 0.69429 0.76544 0.59808 0.0
H213 H 0.71927 0.71667 0.62289 0.0
C214 C 0.61164 0.80559 0.62507 0.0
C215 C 0.59939 0.81646 0.57393 0.0
C216 C 0.619 0.77159 0.62775 0.0
C217 C 0.61373 0.74683 0.57964 0.0
C218 C 0.59789 0.75504 0.52964 0.0
C219 C 0.59122 0.79002 0.52661 0.0
C220 C 0.61679 0.64405 0.59164 0.0
C221 C 0.65887 0.65964 0.60954 0.0
C222 C 0.60226 0.67223 0.57777 0.0
C223 C 0.62967 0.71633 0.58156 0.0
C224 C 0.67244 0.73162 0.59503 0.0
C225 C 0.68683 0.70368 0.60886 0.0
H226 H 0.97104 0.59609 0.84108 0.0
H227 H 0.00692 0.69644 0.71827 0.0
H228 H 0.8967 0.56635 0.81614 0.0
H229 H 0.93197 0.66686 0.69281 0.0
H230 H 0.79301 0.60168 0.64819 0.0
H231 H 0.86446 0.61073 0.65449 0.0
H232 H 0.8469 0.58838 0.83562 0.0
H233 H 0.77627 0.57886 0.82866 0.0
C234 C 0.96295 0.61097 0.80727 0.0
C235 C 0.99466 0.64817 0.781 0.0
C236 C 0.92024 0.59423 0.79337 0.0
C237 C 0.90793 0.61427 0.75271 0.0
C238 C 0.94012 0.65026 0.72395 0.0
C239 C 0.98309 0.66733 0.73842 0.0
C240 C 0.80383 0.59662 0.68867 0.0
C241 C 0.77877 0.58868 0.73776 0.0
C242 C 0.84509 0.60267 0.69259 0.0
C243 C 0.86193 0.60078 0.74567 0.0
C244 C 0.83525 0.58957 0.79383 0.0
C245 C 0.79442 0.58379 0.78988 0.0
H246 H 0.51743 0.06655 0.12577 0.0
H247 H 0.39629 0.014 0.21189 0.0
H248 H 0.54631 0.04839 0.20799 0.0
H249 H 0.42408 0.99445 0.29192 0.0
H250 H 0.47415 0.98225 0.44642 0.0
H251 H 0.46882 0.02453 0.37017 0.0
H252 H 0.54513 0.99291 0.26199 0.0
H253 H 0.55324 0.95404 0.34012 0.0
C254 C 0.49687 0.0507 0.16187 0.0
C255 C 0.45486 0.04258 0.16279 0.0
C256 C 0.51343 0.04044 0.20911 0.0
C257 C 0.48809 0.02147 0.2578 0.0
C258 C 0.44533 0.01098 0.25669 0.0
C259 C 0.42909 0.0216 0.21015 0.0
C260 C 0.49258 0.9873 0.4079 0.0
C261 C 0.51373 0.96463 0.39885 0.0
C262 C 0.48834 0.01027 0.36333 0.0
C263 C 0.50458 0.01017 0.30882 0.0
C264 C 0.53174 0.99342 0.30296 0.0
C265 C 0.53706 0.97167 0.34828 0.0
H266 H 0.46601 0.47109 0.28571 0.0
H267 H 0.3643 0.46039 0.39207 0.0
H268 H 0.5143 0.49816 0.36685 0.0
H269 H 0.41236 0.48983 0.47153 0.0
H270 H 0.48686 0.46653 0.61142 0.0
H271 H 0.44229 0.46474 0.5347 0.0
H272 H 0.55383 0.55004 0.43643 0.0
H273 H 0.59833 0.55034 0.51383 0.0
C274 C 0.45433 0.47545 0.32609 0.0
C275 C 0.41136 0.4629 0.33306 0.0
C276 C 0.48198 0.49135 0.37258 0.0
C277 C 0.46726 0.49589 0.4264 0.0
C278 C 0.42478 0.4858 0.43159 0.0
C279 C 0.39717 0.46902 0.38588 0.0
C280 C 0.50176 0.48721 0.57508 0.0
C281 C 0.54594 0.50861 0.56867 0.0
C282 C 0.47617 0.48571 0.53021 0.0
C283 C 0.49431 0.50632 0.47817 0.0
C284 C 0.53867 0.5328 0.47511 0.0
C285 C 0.56426 0.53413 0.52024 0.0
H286 H 0.06076 0.51136 0.75016 0.0
H287 H 0.03401 0.60272 0.67305 0.0
H288 H 0.01714 0.45901 0.67951 0.0
H289 H 0.98792 0.54906 0.60373 0.0
H290 H 0.89514 0.40918 0.5119 0.0
H291 H 0.92029 0.45988 0.59091 0.0
H292 H 0.04657 0.48034 0.56573 0.0
H293 H 0.02164 0.43117 0.48525 0.0
C294 C 0.04298 0.51924 0.72062 0.0
C295 C 0.05083 0.56108 0.71677 0.0
C296 C 0.01864 0.48948 0.6796 0.0
C297 C 0.00023 0.50056 0.63557 0.0
C298 C 0.00239 0.54015 0.63702 0.0
C299 C 0.02814 0.57059 0.67713 0.0
C300 C 0.92861 0.42631 0.52148 0.0
C301 C 0.9569 0.41788 0.4912 0.0
C302 C 0.94277 0.45456 0.56724 0.0
C303 C 0.98519 0.47367 0.58433 0.0
C304 C 0.01362 0.46576 0.55334 0.0
C305 C 0.99957 0.43809 0.50713 0.0
H306 H 0.55363 0.01138 0.6218 0.0
H307 H 0.49921 0.88964 0.70541 0.0
H308 H 0.527 0.03743 0.69871 0.0
H309 H 0.47147 0.91484 0.7813 0.0
H310 H 0.51106 0.00766 0.93847 0.0
H311 H 0.50829 0.9649 0.85755 0.0
H312 H 0.4651 0.03233 0.75143 0.0
H313 H 0.46753 0.07471 0.83328 0.0
C314 C 0.53469 0.98986 0.65567 0.0
C315 C 0.52819 0.94857 0.65788 0.0
C316 C 0.51932 0.00461 0.69965 0.0
C317 C 0.49705 0.97815 0.7463 0.0
C318 C 0.48878 0.93612 0.74642 0.0
C319 C 0.50445 0.92163 0.70292 0.0
C320 C 0.49807 0.01118 0.89887 0.0
C321 C 0.4888 0.0439 0.89236 0.0
C322 C 0.49713 0.98718 0.85203 0.0
C323 C 0.48729 0.99579 0.7976 0.0
C324 C 0.47335 0.0253 0.79257 0.0
C325 C 0.47367 0.04883 0.83978 0.0
H326 H 0.51354 0.52344 0.10907 0.0
H327 H 0.39946 0.45841 0.01053 0.0
H328 H 0.55516 0.52402 0.02797 0.0
H329 H 0.44094 0.45852 0.92843 0.0
H330 H 0.53746 0.54417 0.78462 0.0
H331 H 0.48797 0.51691 0.86577 0.0
H332 H 0.5765 0.49286 0.95696 0.0
H333 H 0.6261 0.52185 0.87737 0.0
C334 C 0.49703 0.50649 0.07116 0.0
C335 C 0.45329 0.49052 0.06634 0.0
C336 C 0.52098 0.50745 0.02398 0.0
C337 C 0.50158 0.49223 0.97091 0.0
C338 C 0.45703 0.47131 0.96824 0.0
C339 C 0.43306 0.47007 0.01581 0.0
C340 C 0.54572 0.53231 0.82177 0.0
C341 C 0.58551 0.53528 0.82518 0.0
C342 C 0.5174 0.51646 0.86817 0.0
C343 C 0.52827 0.50277 0.9183 0.0
C344 C 0.56727 0.50372 0.91974 0.0
C345 C 0.59564 0.52017 0.87406 0.0
H346 H 0.98208 0.58832 0.00185 0.0
H347 H 0.08908 0.56945 0.98413 0.0
H348 H 0.96023 0.54521 0.08816 0.0
H349 H 0.06723 0.52564 0.07085 0.0
H350 H 0.96805 0.41353 0.19918 0.0
H351 H 0.00671 0.45728 0.11682 0.0
H352 H 0.99415 0.56038 0.18483 0.0
H353 H 0.95571 0.5167 0.26655 0.0
C354 C 0.00035 0.57398 0.0158 0.0
C355 C 0.03712 0.58179 0.98622 0.0
C356 C 0.98824 0.54982 0.06559 0.0
C357 C 0.01284 0.53318 0.0872 0.0
C358 C 0.0479 0.53836 0.0554 0.0
C359 C 0.06005 0.56273 0.00535 0.0
C360 C 0.97635 0.44656 0.19854 0.0
C361 C 0.95869 0.46169 0.23899 0.0
C362 C 0.99764 0.47131 0.15066 0.0
C363 C 0.0018 0.51153 0.14342 0.0
C364 C 0.99029 0.52899 0.18857 0.0
C365 C 0.96936 0.50441 0.23629 0.0
H366 H 0.49759 0.19437 0.79882 0.0
H367 H 0.50159 0.25108 0.96087 0.0
H368 H 0.53174 0.26416 0.75388 0.0
H369 H 0.53828 0.32142 0.91715 0.0
H370 H 0.58883 0.44232 0.80279 0.0
H371 H 0.54601 0.37588 0.85471 0.0
H372 H 0.60364 0.31775 0.756 0.0
H373 H 0.64434 0.38344 0.70249 0.0
C374 C 0.50417 0.22176 0.82424 0.0
C375 C 0.49696 0.21763 0.88301 0.0
C376 C 0.52485 0.26187 0.79901 0.0
C377 C 0.53969 0.29858 0.83248 0.0
C378 C 0.52782 0.29395 0.89018 0.0
C379 C 0.50627 0.25361 0.91518 0.0
C380 C 0.59352 0.41575 0.7941 0.0
C381 C 0.61975 0.41773 0.74891 0.0
C382 C 0.56853 0.37746 0.8232 0.0
C383 C 0.57 0.3409 0.80787 0.0
C384 C 0.60019 0.34469 0.76714 0.0
C385 C 0.62448 0.38261 0.73753 0.0
H386 H 0.24774 0.65827 0.92437 0.0
H387 H 0.1256 0.54405 0.93281 0.0
H388 H 0.27792 0.62358 0.98135 0.0
H389 H 0.1548 0.51002 0.99168 0.0
H390 H 0.24744 0.45334 0.0052 0.0
H391 H 0.20615 0.48464 0.96753 0.0
H392 H 0.2737 0.59251 0.07803 0.0
H393 H 0.31336 0.56104 0.1161 0.0
C394 C 0.22693 0.6268 0.9415 0.0
C395 C 0.18397 0.60453 0.92705 0.0
C396 C 0.24413 0.60667 0.97334 0.0
C397 C 0.2185 0.56406 0.99091 0.0
C398 C 0.17519 0.54271 0.97857 0.0
C399 C 0.15825 0.56262 0.94641 0.0
C400 C 0.25206 0.48286 0.02256 0.0
C401 C 0.28335 0.50493 0.06321 0.0
C402 C 0.22885 0.50097 0.00096 0.0
C403 C 0.23751 0.54143 0.0193 0.0
C404 C 0.26685 0.56172 0.06262 0.0
C405 C 0.28915 0.54345 0.08471 0.0
H406 H 0.60718 0.25527 0.05642 0.0
H407 H 0.55612 0.14222 0.15938 0.0
H408 H 0.67255 0.28595 0.10885 0.0
H409 H 0.6214 0.17355 0.21508 0.0
H410 H 0.76681 0.21806 0.23317 0.0
H411 H 0.69233 0.18772 0.20366 0.0
H412 H 0.71136 0.31442 0.18768 0.0
H413 H 0.78421 0.34366 0.21159 0.0
C414 C 0.60905 0.23814 0.09299 0.0
C415 C 0.57641 0.19675 0.1045 0.0
C416 C 0.6469 0.25549 0.12305 0.0
C417 C 0.65286 0.2321 0.16628 0.0
C418 C 0.61841 0.19217 0.18144 0.0
C419 C 0.58053 0.17462 0.15063 0.0
C420 C 0.75475 0.23903 0.22297 0.0
C421 C 0.78191 0.28317 0.22309 0.0
C422 C 0.71202 0.22184 0.20667 0.0
C423 C 0.69582 0.24865 0.1917 0.0
C424 C 0.72259 0.29256 0.19642 0.0
C425 C 0.76478 0.30941 0.21079 0.0
H426 H 0.50454 0.80016 0.28925 0.0
H427 H 0.5099 0.75631 0.45806 0.0
H428 H 0.45868 0.72751 0.25942 0.0
H429 H 0.46531 0.68295 0.42706 0.0
H430 H 0.42184 0.56035 0.31038 0.0
H431 H 0.46093 0.62746 0.3609 0.0
H432 H 0.38445 0.67224 0.28016 0.0
H433 H 0.34653 0.6055 0.22821 0.0
C434 C 0.49743 0.77491 0.31947 0.0
C435 C 0.51135 0.78431 0.37611 0.0
C436 C 0.47028 0.73323 0.30265 0.0
C437 C 0.45726 0.69954 0.34143 0.0
C438 C 0.47438 0.70836 0.39646 0.0
C439 C 0.50088 0.75041 0.41385 0.0
C440 C 0.41177 0.58361 0.30616 0.0
C441 C 0.381 0.57778 0.26602 0.0
C442 C 0.43455 0.6223 0.33448 0.0
C443 C 0.42663 0.65555 0.32322 0.0
C444 C 0.39206 0.64757 0.28849 0.0
C445 C 0.36964 0.60906 0.25975 0.0
H446 H 0.73549 0.34714 0.37579 0.0
H447 H 0.86115 0.42426 0.44287 0.0
H448 H 0.71069 0.38697 0.43294 0.0
H449 H 0.8367 0.46408 0.50003 0.0
H450 H 0.7683 0.55206 0.51079 0.0
H451 H 0.80269 0.51467 0.4684 0.0
H452 H 0.70784 0.39767 0.54664 0.0
H453 H 0.67544 0.43471 0.59063 0.0
C454 C 0.75732 0.37158 0.40433 0.0
C455 C 0.7996 0.38122 0.40767 0.0
C456 C 0.74342 0.39464 0.43639 0.0
C457 C 0.77196 0.42847 0.47082 0.0
C458 C 0.81419 0.43808 0.47401 0.0
C459 C 0.82782 0.41454 0.44275 0.0
C460 C 0.75612 0.51886 0.52055 0.0
C461 C 0.7193 0.49621 0.55372 0.0
C462 C 0.77535 0.4974 0.49604 0.0
C463 C 0.75711 0.45318 0.50352 0.0
C464 C 0.72215 0.43157 0.53977 0.0
C465 C 0.70393 0.45295 0.56526 0.0
H466 H 0.44137 0.80559 0.64185 0.0
H467 H 0.3662 0.78973 0.49282 0.0
H468 H 0.37993 0.78768 0.70121 0.0
H469 H 0.30855 0.77814 0.54896 0.0
H470 H 0.19249 0.7301 0.65407 0.0
H471 H 0.25457 0.7582 0.59688 0.0
H472 H 0.33159 0.79055 0.74931 0.0
H473 H 0.26721 0.75889 0.80543 0.0
C474 C 0.4118 0.79831 0.62182 0.0
C475 C 0.40921 0.79954 0.56253 0.0
C476 C 0.37631 0.78902 0.65593 0.0
C477 C 0.33793 0.78263 0.63157 0.0
C478 C 0.33585 0.7824 0.57186 0.0
C479 C 0.37008 0.78938 0.53841 0.0
C480 C 0.22299 0.74517 0.67507 0.0
C481 C 0.2251 0.74191 0.73377 0.0
C482 C 0.25966 0.76077 0.642 0.0
C483 C 0.29984 0.77457 0.66706 0.0
C484 C 0.30198 0.77785 0.72689 0.0
C485 C 0.26494 0.7612 0.75979 0.0
loop_
_geom_bond_atom_site_label_1
_geom_bond_atom_site_label_2
_geom_bond_distance
_geom_bond_site_symmetry_2
_ccdc_geom_bond_type
O0 Mn1 2.163 1_556 S
O0 C14 1.244 . S
Mn1 O0 2.163 1_554 S
Mn1 O4 2.160 . S
Mn1 O5 2.221 . S
Mn1 O7 2.163 1_554 S
Mn1 O9 2.160 . S
Mn1 O19 2.221 1_554 S
O2 Mn3 2.087 . S
O2 C14 1.256 . S
Mn3 O2 2.087 . S
Mn3 O10 2.089 . S
Mn3 O19 2.290 . S
Mn3 O20 2.251 . S
O4 Mn1 2.160 . S
O4 C15 1.239 . S
O5 Mn1 2.221 . S
O5 Mn6 2.290 . S
O5 C16 1.278 . S
Mn6 O5 2.290 . S
Mn6 O8 2.089 . S
Mn6 O11 2.251 . S
Mn6 O12 2.087 . S
O7 Mn1 2.163 1_556 S
O7 C17 1.244 . S
O8 Mn6 2.089 . S
O8 C15 1.256 . S
O9 Mn1 2.160 . S
O9 C18 1.239 . S
O10 Mn3 2.089 . S
O10 C18 1.256 1_556 S
O11 Mn6 2.251 . S
O11 C16 1.241 . S
O12 Mn6 2.087 . S
O12 C17 1.256 1_554 S
C13 O19 1.278 . S
C13 O20 1.241 . S
C14 O0 1.244 . S
C14 O2 1.256 . S
C15 O4 1.239 . S
C15 O8 1.256 . S
C16 O5 1.278 . S
C16 O11 1.241 . S
C17 O7 1.244 . S
C17 O12 1.256 1_556 S
C18 O9 1.239 . S
C18 O10 1.256 1_554 S
O19 Mn1 2.221 1_556 S
O19 Mn3 2.290 . S
O19 C13 1.278 . S
O20 Mn3 2.251 . S
O20 C13 1.241 . S
O21 Mn22 2.163 . S
O21 C35 1.244 . S
Mn22 O21 2.163 . S
Mn22 O25 2.160 . S
Mn22 O26 2.221 . S
Mn22 O28 2.163 . S
Mn22 O30 2.160 . S
Mn22 O40 2.221 . S
O23 Mn24 2.087 . S
O23 C35 1.256 . S
Mn24 O23 2.087 . S
Mn24 O31 2.089 . S
Mn24 O40 2.290 . S
Mn24 O41 2.251 . S
O25 Mn22 2.160 . S
O25 C36 1.239 . S
O26 Mn22 2.221 . S
O26 Mn27 2.290 . S
O26 C37 1.278 . S
Mn27 O26 2.290 . S
Mn27 O29 2.089 . S
Mn27 O32 2.251 . S
Mn27 O33 2.087 . S
O28 Mn22 2.163 . S
O28 C38 1.244 . S
O29 Mn27 2.089 . S
O29 C36 1.256 . S
O30 Mn22 2.160 . S
O30 C39 1.239 . S
O31 Mn24 2.089 . S
O31 C39 1.256 . S
O32 Mn27 2.251 . S
O32 C37 1.241 . S
O33 Mn27 2.087 . S
O33 C38 1.256 . S
C34 O40 1.278 . S
C34 O41 1.241 . S
C35 O21 1.244 . S
C35 O23 1.256 . S
C36 O25 1.239 . S
C36 O29 1.256 . S
C37 O26 1.278 . S
C37 O32 1.241 . S
C38 O28 1.244 . S
C38 O33 1.256 . S
C39 O30 1.239 . S
C39 O31 1.256 . S
O40 Mn22 2.221 . S
O40 Mn24 2.290 . S
O40 C34 1.278 . S
O41 Mn24 2.251 . S
O41 C34 1.241 . S
O42 Mn43 2.163 . S
O42 C56 1.244 . S
Mn43 O42 2.163 . S
Mn43 O46 2.160 . S
Mn43 O47 2.221 . S
Mn43 O49 2.163 . S
Mn43 O51 2.160 . S
Mn43 O61 2.221 . S
O44 Mn45 2.087 . S
O44 C56 1.256 . S
Mn45 O44 2.087 . S
Mn45 O52 2.089 . S
Mn45 O61 2.290 . S
Mn45 O62 2.251 . S
O46 Mn43 2.160 . S
O46 C57 1.239 . S
O47 Mn43 2.221 . S
O47 Mn48 2.290 . S
O47 C58 1.278 . S
Mn48 O47 2.290 . S
Mn48 O50 2.089 . S
Mn48 O53 2.251 . S
Mn48 O54 2.087 . S
O49 Mn43 2.163 . S
O49 C59 1.244 . S
O50 Mn48 2.089 . S
O50 C57 1.256 . S
O51 Mn43 2.160 . S
O51 C60 1.239 . S
O52 Mn45 2.089 . S
O52 C60 1.256 . S
O53 Mn48 2.251 . S
O53 C58 1.241 . S
O54 Mn48 2.087 . S
O54 C59 1.256 . S
C55 O61 1.278 . S
C55 O62 1.241 . S
C56 O42 1.244 . S
C56 O44 1.256 . S
C57 O46 1.239 . S
C57 O50 1.256 . S
C58 O47 1.278 . S
C58 O53 1.241 . S
C59 O49 1.244 . S
C59 O54 1.256 . S
C60 O51 1.239 . S
C60 O52 1.256 . S
O61 Mn43 2.221 . S
O61 Mn45 2.290 . S
O61 C55 1.278 . S
O62 Mn45 2.251 . S
O62 C55 1.241 . S
O63 Mn64 2.163 . S
O63 C77 1.244 . S
Mn64 O63 2.163 . S
Mn64 O67 2.160 . S
Mn64 O68 2.221 . S
Mn64 O70 2.163 . S
Mn64 O72 2.160 . S
Mn64 O82 2.221 . S
O65 Mn66 2.087 . S
O65 C77 1.256 . S
Mn66 O65 2.087 . S
Mn66 O73 2.089 . S
Mn66 O82 2.290 . S
Mn66 O83 2.251 . S
O67 Mn64 2.160 . S
O67 C78 1.239 . S
O68 Mn64 2.221 . S
O68 Mn69 2.290 . S
O68 C79 1.278 . S
Mn69 O68 2.290 . S
Mn69 O71 2.089 . S
Mn69 O74 2.251 . S
Mn69 O75 2.087 . S
O70 Mn64 2.163 . S
O70 C80 1.244 . S
O71 Mn69 2.089 . S
O71 C78 1.256 . S
O72 Mn64 2.160 . S
O72 C81 1.239 . S
O73 Mn66 2.089 . S
O73 C81 1.256 . S
O74 Mn69 2.251 . S
O74 C79 1.241 . S
O75 Mn69 2.087 . S
O75 C80 1.256 . S
C76 O82 1.278 . S
C76 O83 1.241 . S
C77 O63 1.244 . S
C77 O65 1.256 . S
C78 O67 1.239 . S
C78 O71 1.256 . S
C79 O68 1.278 . S
C79 O74 1.241 . S
C80 O70 1.244 . S
C80 O75 1.256 . S
C81 O72 1.239 . S
C81 O73 1.256 . S
O82 Mn64 2.221 . S
O82 Mn66 2.290 . S
O82 C76 1.278 . S
O83 Mn66 2.251 . S
O83 C76 1.241 . S
O84 Mn85 2.163 . S
O84 C98 1.244 . S
Mn85 O84 2.163 . S
Mn85 O88 2.160 . S
Mn85 O89 2.221 . S
Mn85 O91 2.163 . S
Mn85 O93 2.160 . S
Mn85 O103 2.221 . S
O86 Mn87 2.087 . S
O86 C98 1.256 . S
Mn87 O86 2.087 . S
Mn87 O94 2.089 . S
Mn87 O103 2.290 . S
Mn87 O104 2.251 . S
O88 Mn85 2.160 . S
O88 C99 1.239 . S
O89 Mn85 2.221 . S
O89 Mn90 2.290 . S
O89 C100 1.278 . S
Mn90 O89 2.290 . S
Mn90 O92 2.089 . S
Mn90 O95 2.251 . S
Mn90 O96 2.087 . S
O91 Mn85 2.163 . S
O91 C101 1.244 . S
O92 Mn90 2.089 . S
O92 C99 1.256 . S
O93 Mn85 2.160 . S
O93 C102 1.239 . S
O94 Mn87 2.089 . S
O94 C102 1.256 . S
O95 Mn90 2.251 . S
O95 C100 1.241 . S
O96 Mn90 2.087 . S
O96 C101 1.256 . S
C97 O103 1.278 . S
C97 O104 1.241 . S
C98 O84 1.244 . S
C98 O86 1.256 . S
C99 O88 1.239 . S
C99 O92 1.256 . S
C100 O89 1.278 . S
C100 O95 1.241 . S
C101 O91 1.244 . S
C101 O96 1.256 . S
C102 O93 1.239 . S
C102 O94 1.256 . S
O103 Mn85 2.221 . S
O103 Mn87 2.290 . S
O103 C97 1.278 . S
O104 Mn87 2.251 . S
O104 C97 1.241 . S
O105 Mn106 2.163 . S
O105 C119 1.244 . S
Mn106 O105 2.163 . S
Mn106 O109 2.160 . S
Mn106 O110 2.221 . S
Mn106 O112 2.163 . S
Mn106 O114 2.160 . S
Mn106 O124 2.221 . S
O107 Mn108 2.087 . S
O107 C119 1.256 . S
Mn108 O107 2.087 . S
Mn108 O115 2.089 . S
Mn108 O124 2.290 . S
Mn108 O125 2.251 . S
O109 Mn106 2.160 . S
O109 C120 1.239 . S
O110 Mn106 2.221 . S
O110 Mn111 2.290 . S
O110 C121 1.278 . S
Mn111 O110 2.290 . S
Mn111 O113 2.089 . S
Mn111 O116 2.251 . S
Mn111 O117 2.087 . S
O112 Mn106 2.163 . S
O112 C122 1.244 . S
O113 Mn111 2.089 . S
O113 C120 1.256 . S
O114 Mn106 2.160 . S
O114 C123 1.239 . S
O115 Mn108 2.089 . S
O115 C123 1.256 . S
O116 Mn111 2.251 . S
O116 C121 1.241 . S
O117 Mn111 2.087 . S
O117 C122 1.256 . S
C118 O124 1.278 . S
C118 O125 1.241 . S
C119 O105 1.244 . S
C119 O107 1.256 . S
C120 O109 1.239 . S
C120 O113 1.256 . S
C121 O110 1.278 . S
C121 O116 1.241 . S
C122 O112 1.244 . S
C122 O117 1.256 . S
C123 O114 1.239 . S
C123 O115 1.256 . S
O124 Mn106 2.221 . S
O124 Mn108 2.290 . S
O124 C118 1.278 . S
O125 Mn108 2.251 . S
O125 C118 1.241 . S
H126 C134 0.925 1_544 S
H127 C139 0.950 . S
H128 C136 0.950 . S
H129 C138 0.950 . S
H130 C140 0.950 . S
H131 C142 0.950 . S
H132 C144 0.950 . S
H133 C145 0.950 . S
C134 H126 0.925 1_566 S
C134 C135 1.386 1_565 S
C134 C136 1.391 . S
C135 C134 1.386 1_545 S
C135 C139 1.393 1_545 S
C136 H128 0.950 . S
C136 C134 1.391 . S
C136 C137 1.400 . S
C137 C136 1.400 . S
C137 C138 1.398 . S
C137 C143 1.491 . S
C138 H129 0.950 . S
C138 C137 1.398 . S
C138 C139 1.391 . S
C139 H127 0.950 . S
C139 C135 1.393 1_565 S
C139 C138 1.391 . S
C140 H130 0.950 . S
C140 C141 1.386 . S
C140 C142 1.391 . S
C141 C140 1.386 . S
C141 C145 1.393 . S
C142 H131 0.950 . S
C142 C140 1.391 . S
C142 C143 1.400 . S
C143 C137 1.491 . S
C143 C142 1.400 . S
C143 C144 1.398 . S
C144 H132 0.950 . S
C144 C143 1.398 . S
C144 C145 1.391 . S
C145 H133 0.950 . S
C145 C141 1.393 . S
C145 C144 1.391 . S
H146 C154 0.950 . S
H147 C159 0.950 . S
H148 C156 0.950 . S
H149 C158 0.950 . S
H150 C160 0.950 . S
H151 C162 0.950 . S
H152 C164 0.950 . S
H153 C165 0.950 . S
C154 H146 0.950 . S
C154 C155 1.386 . S
C154 C156 1.391 . S
C155 C154 1.386 . S
C155 C159 1.393 . S
C156 H148 0.950 . S
C156 C154 1.391 . S
C156 C157 1.400 . S
C157 C156 1.400 . S
C157 C158 1.398 . S
C157 C163 1.491 . S
C158 H149 0.950 . S
C158 C157 1.398 . S
C158 C159 1.391 . S
C159 H147 0.950 . S
C159 C155 1.393 . S
C159 C158 1.391 . S
C160 H150 0.950 . S
C160 C161 1.386 . S
C160 C162 1.391 . S
C161 C160 1.386 . S
C161 C165 1.393 . S
C162 H151 0.950 . S
C162 C160 1.391 . S
C162 C163 1.400 . S
C163 C157 1.491 . S
C163 C162 1.400 . S
C163 C164 1.398 . S
C164 H152 0.950 . S
C164 C163 1.398 . S
C164 C165 1.391 . S
C165 H153 0.950 . S
C165 C161 1.393 . S
C165 C164 1.391 . S
H166 C174 0.950 1_655 S
H167 C179 0.950 . S
H168 C176 0.950 . S
H169 C178 0.950 . S
H170 C180 0.950 . S
H171 C182 0.950 . S
H172 C184 0.950 . S
H173 C185 0.950 . S
C174 H166 0.950 1_455 S
C174 C175 1.363 1_455 S
C174 C176 1.391 . S
C175 C174 1.363 1_655 S
C175 C179 1.386 1_655 S
C176 H168 0.950 . S
C176 C174 1.391 . S
C176 C177 1.400 . S
C177 C176 1.400 . S
C177 C178 1.398 . S
C177 C183 1.491 . S
C178 H169 0.950 . S
C178 C177 1.398 . S
C178 C179 1.391 . S
C179 H167 0.950 . S
C179 C175 1.386 1_455 S
C179 C178 1.391 . S
C180 H170 0.950 . S
C180 C181 1.386 . S
C180 C182 1.391 . S
C181 C180 1.386 . S
C181 C185 1.393 . S
C182 H171 0.950 . S
C182 C180 1.391 . S
C182 C183 1.400 . S
C183 C177 1.491 . S
C183 C182 1.400 . S
C183 C184 1.398 . S
C184 H172 0.950 . S
C184 C183 1.398 . S
C184 C185 1.391 . S
C185 H173 0.950 . S
C185 C181 1.393 . S
C185 C184 1.391 . S
H186 C194 0.950 . S
H187 C199 0.950 . S
H188 C196 0.950 . S
H189 C198 0.950 . S
H190 C200 0.950 1_565 S
H191 C202 0.950 . S
H192 C204 0.950 . S
H193 C205 0.950 . S
C194 H186 0.950 . S
C194 C195 1.386 . S
C194 C196 1.391 . S
C195 C194 1.386 . S
C195 C199 1.393 . S
C196 H188 0.950 . S
C196 C194 1.391 . S
C196 C197 1.400 . S
C197 C196 1.400 . S
C197 C198 1.398 . S
C197 C203 1.491 . S
C198 H189 0.950 . S
C198 C197 1.398 . S
C198 C199 1.391 . S
C199 H187 0.950 . S
C199 C195 1.393 . S
C199 C198 1.391 . S
C200 H190 0.950 1_545 S
C200 C201 1.389 1_545 S
C200 C202 1.391 . S
C201 C200 1.389 1_565 S
C201 C205 1.374 1_565 S
C202 H191 0.950 . S
C202 C200 1.391 . S
C202 C203 1.400 . S
C203 C197 1.491 . S
C203 C202 1.400 . S
C203 C204 1.398 . S
C204 H192 0.950 . S
C204 C203 1.398 . S
C204 C205 1.391 . S
C205 H193 0.950 . S
C205 C201 1.374 1_545 S
C205 C204 1.391 . S
H206 C214 0.950 . S
H207 C219 0.950 . S
H208 C216 0.950 . S
H209 C218 0.950 . S
H210 C220 0.950 . S
H211 C222 0.950 . S
H212 C224 0.950 . S
H213 C225 0.950 . S
C214 H206 0.950 . S
C214 C215 1.386 . S
C214 C216 1.391 . S
C215 C214 1.386 . S
C215 C219 1.393 . S
C216 H208 0.950 . S
C216 C214 1.391 . S
C216 C217 1.400 . S
C217 C216 1.400 . S
C217 C218 1.398 . S
C217 C223 1.491 . S
C218 H209 0.950 . S
C218 C217 1.398 . S
C218 C219 1.391 . S
C219 H207 0.950 . S
C219 C215 1.393 . S
C219 C218 1.391 . S
C220 H210 0.950 . S
C220 C221 1.386 . S
C220 C222 1.391 . S
C221 C220 1.386 . S
C221 C225 1.393 . S
C222 H211 0.950 . S
C222 C220 1.391 . S
C222 C223 1.400 . S
C223 C217 1.491 . S
C223 C222 1.400 . S
C223 C224 1.398 . S
C224 H212 0.950 . S
C224 C223 1.398 . S
C224 C225 1.391 . S
C225 H213 0.950 . S
C225 C221 1.393 . S
C225 C224 1.391 . S
H226 C234 0.950 . S
H227 C239 0.950 1_455 S
H228 C236 0.950 . S
H229 C238 0.950 . S
H230 C240 0.950 . S
H231 C242 0.950 . S
H232 C244 0.950 . S
H233 C245 0.950 . S
C234 H226 0.950 . S
C234 C235 1.386 1_655 S
C234 C236 1.391 . S
C235 C234 1.386 1_455 S
C235 C239 1.393 1_455 S
C236 H228 0.950 . S
C236 C234 1.391 . S
C236 C237 1.400 . S
C237 C236 1.400 . S
C237 C238 1.398 . S
C237 C243 1.491 . S
C238 H229 0.950 . S
C238 C237 1.398 . S
C238 C239 1.391 . S
C239 H227 0.950 1_655 S
C239 C235 1.393 1_655 S
C239 C238 1.391 . S
C240 H230 0.950 . S
C240 C241 1.386 . S
C240 C242 1.391 . S
C241 C240 1.386 . S
C241 C245 1.393 . S
C242 H231 0.950 . S
C242 C240 1.391 . S
C242 C243 1.400 . S
C243 C237 1.491 . S
C243 C242 1.400 . S
C243 C244 1.398 . S
C244 H232 0.950 . S
C244 C243 1.398 . S
C244 C245 1.391 . S
C245 H233 0.950 . S
C245 C241 1.393 . S
C245 C244 1.391 . S
H246 C254 0.950 . S
H247 C259 0.950 . S
H248 C256 0.950 . S
H249 C258 0.950 . S
H250 C260 0.950 . S
H251 C262 0.950 . S
H252 C264 0.950 . S
H253 C265 0.950 . S
C254 H246 0.950 . S
C254 C255 1.386 . S
C254 C256 1.391 1_545 S
C255 C254 1.386 . S
C255 C259 1.393 . S
C256 H248 0.950 . S
C256 C254 1.391 1_565 S
C256 C257 1.400 . S
C257 C256 1.400 . S
C257 C258 1.398 1_565 S
C257 C263 1.491 . S
C258 H249 0.950 . S
C258 C257 1.398 1_545 S
C258 C259 1.391 . S
C259 H247 0.950 . S
C259 C255 1.393 . S
C259 C258 1.391 . S
C260 H250 0.950 . S
C260 C261 1.386 . S
C260 C262 1.391 . S
C261 C260 1.386 . S
C261 C265 1.393 . S
C262 H251 0.950 . S
C262 C260 1.391 . S
C262 C263 1.400 . S
C263 C257 1.491 . S
C263 C262 1.400 . S
C263 C264 1.398 . S
C264 H252 0.950 . S
C264 C263 1.398 . S
C264 C265 1.391 . S
C265 H253 0.950 . S
C265 C261 1.393 . S
C265 C264 1.391 . S
H266 C274 0.950 . S
H267 C279 0.950 . S
H268 C276 0.950 . S
H269 C278 0.950 . S
H270 C280 0.950 . S
H271 C282 0.950 . S
H272 C284 0.950 . S
H273 C285 0.950 . S
C274 H266 0.950 . S
C274 C275 1.386 . S
C274 C276 1.391 . S
C275 C274 1.386 . S
C275 C279 1.393 . S
C276 H268 0.950 . S
C276 C274 1.391 . S
C276 C277 1.400 . S
C277 C276 1.400 . S
C277 C278 1.398 . S
C277 C283 1.491 . S
C278 H269 0.950 . S
C278 C277 1.398 . S
C278 C279 1.391 . S
C279 H267 0.950 . S
C279 C275 1.393 . S
C279 C278 1.391 . S
C280 H270 0.950 . S
C280 C281 1.386 . S
C280 C282 1.391 . S
C281 C280 1.386 . S
C281 C285 1.393 . S
C282 H271 0.950 . S
C282 C280 1.391 . S
C282 C283 1.400 . S
C283 C277 1.491 . S
C283 C282 1.400 . S
C283 C284 1.398 . S
C284 H272 0.950 . S
C284 C283 1.398 . S
C284 C285 1.391 . S
C285 H273 0.950 . S
C285 C281 1.393 . S
C285 C284 1.391 . S
H286 C294 0.950 . S
H287 C299 0.950 1_655 S
H288 C296 0.950 . S
H289 C298 0.950 . S
H290 C300 0.950 . S
H291 C302 0.950 . S
H292 C304 0.950 . S
H293 C305 0.950 . S
C294 H286 0.950 . S
C294 C295 1.386 . S
C294 C296 1.391 . S
C295 C294 1.386 . S
C295 C299 1.393 . S
C296 H288 0.950 . S
C296 C294 1.391 . S
C296 C297 1.400 . S
C297 C296 1.400 . S
C297 C298 1.398 1_455 S
C297 C303 1.491 . S
C298 H289 0.950 . S
C298 C297 1.398 1_655 S
C298 C299 1.391 1_655 S
C299 H287 0.950 1_455 S
C299 C295 1.393 . S
C299 C298 1.391 1_455 S
C300 H290 0.950 . S
C300 C301 1.386 . S
C300 C302 1.391 . S
C301 C300 1.386 . S
C301 C305 1.393 1_655 S
C302 H291 0.950 . S
C302 C300 1.391 . S
C302 C303 1.400 1_655 S
C303 C297 1.491 . S
C303 C302 1.400 1_455 S
C303 C304 1.398 . S
C304 H292 0.950 . S
C304 C303 1.398 . S
C304 C305 1.391 . S
C305 H293 0.950 . S
C305 C301 1.393 1_455 S
C305 C304 1.391 . S
H306 C314 0.950 . S
H307 C319 0.950 . S
H308 C316 0.950 . S
H309 C318 0.950 . S
H310 C320 0.950 1_565 S
H311 C322 0.950 . S
H312 C324 0.950 . S
H313 C325 0.950 . S
C314 H306 0.950 . S
C314 C315 1.386 1_545 S
C314 C316 1.391 . S
C315 C314 1.386 1_565 S
C315 C319 1.393 . S
C316 H308 0.950 . S
C316 C314 1.391 . S
C316 C317 1.400 . S
C317 C316 1.400 . S
C317 C318 1.398 1_545 S
C317 C323 1.491 . S
C318 H309 0.950 . S
C318 C317 1.398 1_565 S
C318 C319 1.391 . S
C319 H307 0.950 . S
C319 C315 1.393 . S
C319 C318 1.391 . S
C320 H310 0.950 1_545 S
C320 C321 1.386 . S
C320 C322 1.391 1_545 S
C321 C320 1.386 . S
C321 C325 1.393 . S
C322 H311 0.950 . S
C322 C320 1.391 1_565 S
C322 C323 1.400 1_565 S
C323 C317 1.491 . S
C323 C322 1.400 1_545 S
C323 C324 1.398 . S
C324 H312 0.950 . S
C324 C323 1.398 . S
C324 C325 1.391 . S
C325 H313 0.950 . S
C325 C321 1.393 . S
C325 C324 1.391 . S
H326 C334 0.950 . S
H327 C339 0.950 . S
H328 C336 0.950 . S
H329 C338 0.950 . S
H330 C340 0.950 . S
H331 C342 0.950 . S
H332 C344 0.950 . S
H333 C345 0.950 . S
C334 H326 0.950 . S
C334 C335 1.386 . S
C334 C336 1.391 . S
C335 C334 1.386 . S
C335 C339 1.393 . S
C336 H328 0.950 . S
C336 C334 1.391 . S
C336 C337 1.400 1_554 S
C337 C336 1.400 1_556 S
C337 C338 1.398 . S
C337 C343 1.491 . S
C338 H329 0.950 . S
C338 C337 1.398 . S
C338 C339 1.391 1_556 S
C339 H327 0.950 . S
C339 C335 1.393 . S
C339 C338 1.391 1_554 S
C340 H330 0.950 . S
C340 C341 1.386 . S
C340 C342 1.391 . S
C341 C340 1.386 . S
C341 C345 1.393 . S
C342 H331 0.950 . S
C342 C340 1.391 . S
C342 C343 1.400 . S
C343 C337 1.491 . S
C343 C342 1.400 . S
C343 C344 1.398 . S
C344 H332 0.950 . S
C344 C343 1.398 . S
C344 C345 1.391 . S
C345 H333 0.950 . S
C345 C341 1.393 . S
C345 C344 1.391 . S
H346 C354 0.950 1_556 S
H347 C359 0.950 . S
H348 C356 0.950 . S
H349 C358 0.950 . S
H350 C360 0.950 . S
H351 C362 0.950 1_455 S
H352 C364 0.950 . S
H353 C365 0.950 . S
C354 H346 0.950 1_554 S
C354 C355 1.386 1_654 S
C354 C356 1.391 . S
C355 C354 1.386 1_456 S
C355 C359 1.393 . S
C356 H348 0.950 . S
C356 C354 1.391 . S
C356 C357 1.400 . S
C357 C356 1.400 . S
C357 C358 1.398 1_655 S
C357 C363 1.491 . S
C358 H349 0.950 . S
C358 C357 1.398 1_455 S
C358 C359 1.391 1_554 S
C359 H347 0.950 . S
C359 C355 1.393 . S
C359 C358 1.391 1_556 S
C360 H350 0.950 . S
C360 C361 1.386 . S
C360 C362 1.391 . S
C361 C360 1.386 . S
C361 C365 1.393 . S
C362 H351 0.950 1_655 S
C362 C360 1.391 . S
C362 C363 1.400 . S
C363 C357 1.491 . S
C363 C362 1.400 . S
C363 C364 1.398 . S
C364 H352 0.950 . S
C364 C363 1.398 . S
C364 C365 1.391 . S
C365 H353 0.950 . S
C365 C361 1.393 . S
C365 C364 1.391 . S
H366 C374 0.950 . S
H367 C379 0.950 . S
H368 C376 0.950 . S
H369 C378 0.950 . S
H370 C380 0.950 . S
H371 C382 0.950 . S
H372 C384 0.950 . S
H373 C385 0.950 . S
C374 H366 0.950 . S
C374 C375 1.386 . S
C374 C376 1.391 . S
C375 C374 1.386 . S
C375 C379 1.393 . S
C376 H368 0.950 . S
C376 C374 1.391 . S
C376 C377 1.400 . S
C377 C376 1.400 . S
C377 C378 1.398 . S
C377 C383 1.491 . S
C378 H369 0.950 . S
C378 C377 1.398 . S
C378 C379 1.391 . S
C379 H367 0.950 . S
C379 C375 1.393 . S
C379 C378 1.391 . S
C380 H370 0.950 . S
C380 C381 1.386 . S
C380 C382 1.391 . S
C381 C380 1.386 . S
C381 C385 1.393 . S
C382 H371 0.950 . S
C382 C380 1.391 . S
C382 C383 1.400 . S
C383 C377 1.491 . S
C383 C382 1.400 . S
C383 C384 1.398 . S
C384 H372 0.950 . S
C384 C383 1.398 . S
C384 C385 1.391 . S
C385 H373 0.950 . S
C385 C381 1.393 . S
C385 C384 1.391 . S
H386 C394 0.950 . S
H387 C399 0.950 . S
H388 C396 0.950 . S
H389 C398 0.950 . S
H390 C400 0.950 . S
H391 C402 0.950 . S
H392 C404 0.950 . S
H393 C405 0.950 . S
C394 H386 0.950 . S
C394 C395 1.386 . S
C394 C396 1.391 . S
C395 C394 1.386 . S
C395 C399 1.393 . S
C396 H388 0.950 . S
C396 C394 1.391 . S
C396 C397 1.400 . S
C397 C396 1.400 . S
C397 C398 1.398 . S
C397 C403 1.491 1_556 S
C398 H389 0.950 . S
C398 C397 1.398 . S
C398 C399 1.391 . S
C399 H387 0.950 . S
C399 C395 1.393 . S
C399 C398 1.391 . S
C400 H390 0.950 . S
C400 C401 1.386 . S
C400 C402 1.391 . S
C401 C400 1.386 . S
C401 C405 1.393 . S
C402 H391 0.950 . S
C402 C400 1.391 . S
C402 C403 1.400 . S
C403 C397 1.491 1_554 S
C403 C402 1.400 . S
C403 C404 1.398 . S
C404 H392 0.950 . S
C404 C403 1.398 . S
C404 C405 1.391 . S
C405 H393 0.950 . S
C405 C401 1.393 . S
C405 C404 1.391 . S
H406 C414 0.950 . S
H407 C419 0.950 . S
H408 C416 0.950 . S
H409 C418 0.950 . S
H410 C420 0.950 . S
H411 C422 0.950 . S
H412 C424 0.950 . S
H413 C425 0.950 . S
C414 H406 0.950 . S
C414 C415 1.386 . S
C414 C416 1.391 . S
C415 C414 1.386 . S
C415 C419 1.393 . S
C416 H408 0.950 . S
C416 C414 1.391 . S
C416 C417 1.400 . S
C417 C416 1.400 . S
C417 C418 1.398 . S
C417 C423 1.491 . S
C418 H409 0.950 . S
C418 C417 1.398 . S
C418 C419 1.391 . S
C419 H407 0.950 . S
C419 C415 1.393 . S
C419 C418 1.391 . S
C420 H410 0.950 . S
C420 C421 1.386 . S
C420 C422 1.391 . S
C421 C420 1.386 . S
C421 C425 1.393 . S
C422 H411 0.950 . S
C422 C420 1.391 . S
C422 C423 1.400 . S
C423 C417 1.491 . S
C423 C422 1.400 . S
C423 C424 1.398 . S
C424 H412 0.950 . S
C424 C423 1.398 . S
C424 C425 1.391 . S
C425 H413 0.950 . S
C425 C421 1.393 . S
C425 C424 1.391 . S
H426 C434 0.950 . S
H427 C439 0.950 . S
H428 C436 0.950 . S
H429 C438 0.950 . S
H430 C440 0.950 . S
H431 C442 0.950 . S
H432 C444 0.950 . S
H433 C445 0.950 . S
C434 H426 0.950 . S
C434 C435 1.386 . S
C434 C436 1.391 . S
C435 C434 1.386 . S
C435 C439 1.393 . S
C436 H428 0.950 . S
C436 C434 1.391 . S
C436 C437 1.400 . S
C437 C436 1.400 . S
C437 C438 1.398 . S
C437 C443 1.491 . S
C438 H429 0.950 . S
C438 C437 1.398 . S
C438 C439 1.391 . S
C439 H427 0.950 . S
C439 C435 1.393 . S
C439 C438 1.391 . S
C440 H430 0.950 . S
C440 C441 1.386 . S
C440 C442 1.391 . S
C441 C440 1.386 . S
C441 C445 1.393 . S
C442 H431 0.950 . S
C442 C440 1.391 . S
C442 C443 1.400 . S
C443 C437 1.491 . S
C443 C442 1.400 . S
C443 C444 1.398 . S
C444 H432 0.950 . S
C444 C443 1.398 . S
C444 C445 1.391 . S
C445 H433 0.950 . S
C445 C441 1.393 . S
C445 C444 1.391 . S
H446 C454 0.950 . S
H447 C459 0.950 . S
H448 C456 0.950 . S
H449 C458 0.950 . S
H450 C460 0.950 . S
H451 C462 0.950 . S
H452 C464 0.950 . S
H453 C465 0.950 . S
C454 H446 0.950 . S
C454 C455 1.386 . S
C454 C456 1.391 . S
C455 C454 1.386 . S
C455 C459 1.393 . S
C456 H448 0.950 . S
C456 C454 1.391 . S
C456 C457 1.400 . S
C457 C456 1.400 . S
C457 C458 1.398 . S
C457 C463 1.491 . S
C458 H449 0.950 . S
C458 C457 1.398 . S
C458 C459 1.391 . S
C459 H447 0.950 . S
C459 C455 1.393 . S
C459 C458 1.391 . S
C460 H450 0.950 . S
C460 C461 1.386 . S
C460 C462 1.391 . S
C461 C460 1.386 . S
C461 C465 1.393 . S
C462 H451 0.950 . S
C462 C460 1.391 . S
C462 C463 1.400 . S
C463 C457 1.491 . S
C463 C462 1.400 . S
C463 C464 1.398 . S
C464 H452 0.950 . S
C464 C463 1.398 . S
C464 C465 1.391 . S
C465 H453 0.950 . S
C465 C461 1.393 . S
C465 C464 1.391 . S
H466 C474 0.950 . S
H467 C479 0.950 . S
H468 C476 0.950 . S
H469 C478 0.950 . S
H470 C480 0.950 . S
H471 C482 0.950 . S
H472 C484 0.950 . S
H473 C485 0.950 . S
C474 H466 0.950 . S
C474 C475 1.386 . S
C474 C476 1.391 . S
C475 C474 1.386 . S
C475 C479 1.393 . S
C476 H468 0.950 . S
C476 C474 1.391 . S
C476 C477 1.400 . S
C477 C476 1.400 . S
C477 C478 1.398 . S
C477 C483 1.491 . S
C478 H469 0.950 . S
C478 C477 1.398 . S
C478 C479 1.391 . S
C479 H467 0.950 . S
C479 C475 1.393 . S
C479 C478 1.391 . S
C480 H470 0.950 . S
C480 C481 1.386 . S
C480 C482 1.391 . S
C481 C480 1.386 . S
C481 C485 1.393 . S
C482 H471 0.950 . S
C482 C480 1.391 . S
C482 C483 1.400 . S
C483 C477 1.491 . S
C483 C482 1.400 . S
C483 C484 1.398 . S
C484 H472 0.950 . S
C484 C483 1.398 . S
C484 C485 1.391 . S
C485 H473 0.950 . S
C485 C481 1.393 . S
C485 C484 1.391 . S
C135 C17 1.656 . S
C141 C118 1.563 . S
C155 C35 1.633 . S
C161 C16 1.564 . S
C175 C59 1.683 . S
C181 C34 1.550 . S
C195 C58 1.555 . S
C201 C77 1.646 . S
C215 C76 1.566 . S
C221 C101 1.655 . S
C235 C119 1.643 . S
C241 C100 1.576 . S
C255 C15 1.199 . S
C261 C79 0.993 . S
C275 C39 1.202 . S
C281 C97 0.995 . S
C295 C121 1.035 . S
C301 C57 1.221 . S
C315 C81 1.211 . S
C321 C13 1.009 . S
C335 C37 1.045 . S
C341 C99 1.204 . S
C355 C123 1.223 . S
C361 C55 1.048 . S
C375 C14 1.114 . S
C381 C102 1.139 . S
C395 C120 1.128 . S
C401 C38 1.088 . S
C415 C18 1.135 . S
C421 C56 1.099 . S
C435 C80 1.106 . S
C441 C36 1.138 . S
C455 C60 1.130 . S
C461 C98 1.091 . S
C475 C78 1.108 . S
C481 C122 1.072 . S
