# Generated by pormake.
# Topology lcy-a-x, (5)-cn, num edge types: 1
# Building blocks:
#     Node 0, Type 0, BuildingBlock: XOMCOT_clean_sbu_0, # of connection points: 5
#     Node 1, Type 0, BuildingBlock: XOMCOT_clean_sbu_0, # of connection points: 5
#     Node 2, Type 0, BuildingBlock: XOMCOT_clean_sbu_0, # of connection points: 5
#     Node 3, Type 0, BuildingBlock: XOMCOT_clean_sbu_0, # of connection points: 5
#     Node 4, Type 0, BuildingBlock: XOMCOT_clean_sbu_0, # of connection points: 5
#     Node 5, Type 0, BuildingBlock: XOMCOT_clean_sbu_0, # of connection points: 5
#     Node 6, Type 0, BuildingBlock: XOMCOT_clean_sbu_0, # of connection points: 5
#     Node 7, Type 0, BuildingBlock: XOMCOT_clean_sbu_0, # of connection points: 5
#     Node 8, Type 0, BuildingBlock: XOMCOT_clean_sbu_0, # of connection points: 5
#     Node 9, Type 0, BuildingBlock: XOMCOT_clean_sbu_0, # of connection points: 5
#     Node 10, Type 0, BuildingBlock: XOMCOT_clean_sbu_0, # of connection points: 5
#     Node 11, Type 0, BuildingBlock: XOMCOT_clean_sbu_0, # of connection points: 5
#     Node 12, Type 0, BuildingBlock: XOMCOT_clean_sbu_0, # of connection points: 5
#     Node 13, Type 0, BuildingBlock: XOMCOT_clean_sbu_0, # of connection points: 5
#     Node 14, Type 0, BuildingBlock: XOMCOT_clean_sbu_0, # of connection points: 5
#     Node 15, Type 0, BuildingBlock: XOMCOT_clean_sbu_0, # of connection points: 5
#     Node 16, Type 0, BuildingBlock: XOMCOT_clean_sbu_0, # of connection points: 5
#     Node 17, Type 0, BuildingBlock: XOMCOT_clean_sbu_0, # of connection points: 5
#     Node 18, Type 0, BuildingBlock: XOMCOT_clean_sbu_0, # of connection points: 5
#     Node 19, Type 0, BuildingBlock: XOMCOT_clean_sbu_0, # of connection points: 5
#     Node 20, Type 0, BuildingBlock: XOMCOT_clean_sbu_0, # of connection points: 5
#     Node 21, Type 0, BuildingBlock: XOMCOT_clean_sbu_0, # of connection points: 5
#     Node 22, Type 0, BuildingBlock: XOMCOT_clean_sbu_0, # of connection points: 5
#     Node 23, Type 0, BuildingBlock: XOMCOT_clean_sbu_0, # of connection points: 5
#     Edge 24, Type (0, 0), BuildingBlock: UVAHIK_clean_linker_0, # of connection points: 2
#     Edge 25, Type (0, 0), BuildingBlock: UVAHIK_clean_linker_0, # of connection points: 2
#     Edge 26, Type (0, 0), BuildingBlock: UVAHIK_clean_linker_0, # of connection points: 2
#     Edge 27, Type (0, 0), BuildingBlock: UVAHIK_clean_linker_0, # of connection points: 2
#     Edge 28, Type (0, 0), BuildingBlock: UVAHIK_clean_linker_0, # of connection points: 2
#     Edge 29, Type (0, 0), BuildingBlock: UVAHIK_clean_linker_0, # of connection points: 2
#     Edge 30, Type (0, 0), BuildingBlock: UVAHIK_clean_linker_0, # of connection points: 2
#     Edge 31, Type (0, 0), BuildingBlock: UVAHIK_clean_linker_0, # of connection points: 2
#     Edge 32, Type (0, 0), BuildingBlock: UVAHIK_clean_linker_0, # of connection points: 2
#     Edge 33, Type (0, 0), BuildingBlock: UVAHIK_clean_linker_0, # of connection points: 2
#     Edge 34, Type (0, 0), BuildingBlock: UVAHIK_clean_linker_0, # of connection points: 2
#     Edge 35, Type (0, 0), BuildingBlock: UVAHIK_clean_linker_0, # of connection points: 2
#     Edge 36, Type (0, 0), BuildingBlock: UVAHIK_clean_linker_0, # of connection points: 2
#     Edge 37, Type (0, 0), BuildingBlock: UVAHIK_clean_linker_0, # of connection points: 2
#     Edge 38, Type (0, 0), BuildingBlock: UVAHIK_clean_linker_0, # of connection points: 2
#     Edge 39, Type (0, 0), BuildingBlock: UVAHIK_clean_linker_0, # of connection points: 2
#     Edge 40, Type (0, 0), BuildingBlock: UVAHIK_clean_linker_0, # of connection points: 2
#     Edge 41, Type (0, 0), BuildingBlock: UVAHIK_clean_linker_0, # of connection points: 2
#     Edge 42, Type (0, 0), BuildingBlock: UVAHIK_clean_linker_0, # of connection points: 2
#     Edge 43, Type (0, 0), BuildingBlock: UVAHIK_clean_linker_0, # of connection points: 2
#     Edge 44, Type (0, 0), BuildingBlock: UVAHIK_clean_linker_0, # of connection points: 2
#     Edge 45, Type (0, 0), BuildingBlock: UVAHIK_clean_linker_0, # of connection points: 2
#     Edge 46, Type (0, 0), BuildingBlock: UVAHIK_clean_linker_0, # of connection points: 2
#     Edge 47, Type (0, 0), BuildingBlock: UVAHIK_clean_linker_0, # of connection points: 2
#     Edge 48, Type (0, 0), BuildingBlock: UVAHIK_clean_linker_0, # of connection points: 2
#     Edge 49, Type (0, 0), BuildingBlock: UVAHIK_clean_linker_0, # of connection points: 2
#     Edge 50, Type (0, 0), BuildingBlock: UVAHIK_clean_linker_0, # of connection points: 2
#     Edge 51, Type (0, 0), BuildingBlock: UVAHIK_clean_linker_0, # of connection points: 2
#     Edge 52, Type (0, 0), BuildingBlock: UVAHIK_clean_linker_0, # of connection points: 2
#     Edge 53, Type (0, 0), BuildingBlock: UVAHIK_clean_linker_0, # of connection points: 2
#     Edge 54, Type (0, 0), BuildingBlock: UVAHIK_clean_linker_0, # of connection points: 2
#     Edge 55, Type (0, 0), BuildingBlock: UVAHIK_clean_linker_0, # of connection points: 2
#     Edge 56, Type (0, 0), BuildingBlock: UVAHIK_clean_linker_0, # of connection points: 2
#     Edge 57, Type (0, 0), BuildingBlock: UVAHIK_clean_linker_0, # of connection points: 2
#     Edge 58, Type (0, 0), BuildingBlock: UVAHIK_clean_linker_0, # of connection points: 2
#     Edge 59, Type (0, 0), BuildingBlock: UVAHIK_clean_linker_0, # of connection points: 2
#     Edge 60, Type (0, 0), BuildingBlock: UVAHIK_clean_linker_0, # of connection points: 2
#     Edge 61, Type (0, 0), BuildingBlock: UVAHIK_clean_linker_0, # of connection points: 2
#     Edge 62, Type (0, 0), BuildingBlock: UVAHIK_clean_linker_0, # of connection points: 2
#     Edge 63, Type (0, 0), BuildingBlock: UVAHIK_clean_linker_0, # of connection points: 2
#     Edge 64, Type (0, 0), BuildingBlock: UVAHIK_clean_linker_0, # of connection points: 2
#     Edge 65, Type (0, 0), BuildingBlock: UVAHIK_clean_linker_0, # of connection points: 2
#     Edge 66, Type (0, 0), BuildingBlock: UVAHIK_clean_linker_0, # of connection points: 2
#     Edge 67, Type (0, 0), BuildingBlock: UVAHIK_clean_linker_0, # of connection points: 2
#     Edge 68, Type (0, 0), BuildingBlock: UVAHIK_clean_linker_0, # of connection points: 2
#     Edge 69, Type (0, 0), BuildingBlock: UVAHIK_clean_linker_0, # of connection points: 2
#     Edge 70, Type (0, 0), BuildingBlock: UVAHIK_clean_linker_0, # of connection points: 2
#     Edge 71, Type (0, 0), BuildingBlock: UVAHIK_clean_linker_0, # of connection points: 2
#     Edge 72, Type (0, 0), BuildingBlock: UVAHIK_clean_linker_0, # of connection points: 2
#     Edge 73, Type (0, 0), BuildingBlock: UVAHIK_clean_linker_0, # of connection points: 2
#     Edge 74, Type (0, 0), BuildingBlock: UVAHIK_clean_linker_0, # of connection points: 2
#     Edge 75, Type (0, 0), BuildingBlock: UVAHIK_clean_linker_0, # of connection points: 2
#     Edge 76, Type (0, 0), BuildingBlock: UVAHIK_clean_linker_0, # of connection points: 2
#     Edge 77, Type (0, 0), BuildingBlock: UVAHIK_clean_linker_0, # of connection points: 2
#     Edge 78, Type (0, 0), BuildingBlock: UVAHIK_clean_linker_0, # of connection points: 2
#     Edge 79, Type (0, 0), BuildingBlock: UVAHIK_clean_linker_0, # of connection points: 2
#     Edge 80, Type (0, 0), BuildingBlock: UVAHIK_clean_linker_0, # of connection points: 2
#     Edge 81, Type (0, 0), BuildingBlock: UVAHIK_clean_linker_0, # of connection points: 2
#     Edge 82, Type (0, 0), BuildingBlock: UVAHIK_clean_linker_0, # of connection points: 2
#     Edge 83, Type (0, 0), BuildingBlock: UVAHIK_clean_linker_0, # of connection points: 2
# Relax obj value: 0.823
# Max RMSD: 0.210
# Mean RMSD: 0.210
data_MOF--net-lcy-a-x--node1-XOMCOT_clean_sbu_0--edge1-UVAHIK_clean_linker_0
_symmetry_space_group_name_H-M    P1
_symmetry_Int_Tables_number       1
_symmetry_cell_setting            triclinic
loop_
_symmetry_equiv_pos_as_xyz
'x, y, z'
_cell_length_a     72.411593
_cell_length_b     72.398123
_cell_length_c     72.358254
_cell_angle_alpha  89.982249
_cell_angle_beta   90.039176
_cell_angle_gamma 90.0036
loop_
_atom_site_label
_atom_site_type_symbol
_atom_site_fract_x
_atom_site_fract_y
_atom_site_fract_z
_atom_type_partial_charge
Co0 Co 0.03984 0.07261 0.7165 0.0
C1 C 0.00942 0.06559 0.6902 0.0
C2 C 0.03309 0.04898 0.68389 0.0
C3 C 0.01939 0.045 0.67134 0.0
N4 N 0.02674 0.06172 0.69589 0.0
N5 N 0.00448 0.05544 0.67536 0.0
H6 H 0.00075 0.07595 0.69644 0.0
H7 H 0.04677 0.04309 0.68399 0.0
C8 C 0.00477 0.08868 0.73029 0.0
O9 O 0.00997 0.10441 0.72291 0.0
N10 N 0.05314 0.08319 0.73706 0.0
C11 C 0.07121 0.08087 0.74097 0.0
C12 C 0.07549 0.09101 0.75655 0.0
C13 C 0.04664 0.09442 0.75035 0.0
N14 N 0.05994 0.09934 0.76244 0.0
C15 C 0.05766 0.03735 0.71977 0.0
C16 C 0.03474 0.0234 0.74692 0.0
C17 C 0.04752 0.01165 0.73848 0.0
C18 C 0.05957 0.01895 0.72524 0.0
C19 C 0.03339 0.0417 0.74118 0.0
N20 N 0.04401 0.0482 0.72697 0.0
H21 H 0.06679 0.04266 0.70927 0.0
H22 H 0.02358 0.05035 0.74823 0.0
H23 H 0.08067 0.07257 0.73294 0.0
H24 H 0.03267 0.09949 0.75098 0.0
O25 O 0.06161 0.07506 0.70096 0.0
O26 O 0.0397 0.09609 0.70394 0.0
O27 O 0.01556 0.07476 0.72987 0.0
C28 C 0.05493 0.09099 0.69603 0.0
H29 H 0.02035 0.03505 0.66024 0.0
H30 H 0.08894 0.09226 0.76296 0.0
H31 H 0.02566 0.0184 0.75772 0.0
H32 H 0.06984 0.01034 0.7186 0.0
Co33 Co 0.29032 0.78039 0.96269 0.0
C34 C 0.31554 0.76514 0.93436 0.0
C35 C 0.33022 0.77651 0.95742 0.0
C36 C 0.34277 0.76817 0.94577 0.0
N37 N 0.31317 0.77458 0.95023 0.0
N38 N 0.33345 0.76104 0.93129 0.0
H39 H 0.30436 0.76016 0.92583 0.0
H40 H 0.33322 0.78277 0.97066 0.0
C41 C 0.29254 0.74336 0.97462 0.0
O42 O 0.30292 0.75221 0.98662 0.0
N43 N 0.26769 0.78623 0.97536 0.0
C44 C 0.25824 0.80219 0.97404 0.0
C45 C 0.24216 0.80055 0.984 0.0
C46 C 0.25732 0.77509 0.98605 0.0
N47 N 0.24154 0.78347 0.99147 0.0
C48 C 0.30403 0.81701 0.95534 0.0
C49 C 0.31082 0.82465 0.99224 0.0
C50 C 0.31589 0.83771 0.97882 0.0
C51 C 0.31213 0.83385 0.96016 0.0
C52 C 0.3028 0.80804 0.98683 0.0
N53 N 0.29971 0.80442 0.96867 0.0
H54 H 0.30177 0.81382 0.94093 0.0
H55 H 0.29946 0.79771 0.9971 0.0
H56 H 0.26254 0.81405 0.96604 0.0
H57 H 0.26083 0.76092 0.98912 0.0
O58 O 0.27853 0.78815 0.93896 0.0
O59 O 0.27638 0.76056 0.94863 0.0
O60 O 0.28411 0.7529 0.9621 0.0
C61 C 0.27164 0.77235 0.93613 0.0
H62 H 0.35748 0.76687 0.94811 0.0
H63 H 0.23164 0.81107 0.98537 0.0
H64 H 0.31386 0.82679 0.00674 0.0
H65 H 0.31587 0.84352 0.94937 0.0
Co66 Co 0.53944 0.05409 0.21858 0.0
C67 C 0.54357 0.0834 0.1907 0.0
C68 C 0.552 0.09261 0.21752 0.0
C69 C 0.55658 0.10598 0.20473 0.0
N70 N 0.54418 0.07833 0.20858 0.0
N71 N 0.55149 0.10002 0.18777 0.0
H72 H 0.53922 0.07429 0.17971 0.0
H73 H 0.55539 0.0927 0.23208 0.0
C74 C 0.57514 0.05438 0.23832 0.0
O75 O 0.5651 0.06037 0.25219 0.0
N76 N 0.53473 0.03017 0.22908 0.0
C77 C 0.53265 0.01381 0.22042 0.0
C78 C 0.52778 0.00074 0.2333 0.0
C79 C 0.53122 0.02685 0.24705 0.0
N80 N 0.52684 0.00898 0.24998 0.0
C81 C 0.50136 0.04863 0.20973 0.0
C82 C 0.48941 0.08114 0.22574 0.0
C83 C 0.47709 0.07097 0.21464 0.0
C84 C 0.48307 0.05409 0.20731 0.0
C85 C 0.50754 0.07501 0.22803 0.0
N86 N 0.51344 0.05946 0.21931 0.0
H87 H 0.506 0.03606 0.20318 0.0
H88 H 0.51721 0.08328 0.23586 0.0
H89 H 0.53414 0.01144 0.20576 0.0
H90 H 0.53139 0.03742 0.25763 0.0
O91 O 0.53794 0.04378 0.19286 0.0
O92 O 0.56332 0.0447 0.20715 0.0
O93 O 0.56723 0.05043 0.22276 0.0
C94 C 0.55501 0.04043 0.19205 0.0
H95 H 0.56445 0.11837 0.20755 0.0
H96 H 0.52526 0.98625 0.23062 0.0
H97 H 0.48553 0.09433 0.23162 0.0
H98 H 0.47396 0.04555 0.19907 0.0
Co99 Co 0.28899 0.27513 0.46601 0.0
C100 C 0.29148 0.3062 0.43977 0.0
C101 C 0.28029 0.28194 0.42694 0.0
C102 C 0.27972 0.29623 0.41441 0.0
N103 N 0.28757 0.28828 0.44284 0.0
N104 N 0.28661 0.31155 0.42255 0.0
H105 H 0.29699 0.31533 0.45019 0.0
H106 H 0.27509 0.26809 0.42485 0.0
C107 C 0.29992 0.30499 0.49086 0.0
O108 O 0.31358 0.29412 0.49581 0.0
N109 N 0.2901 0.26199 0.48936 0.0
C110 C 0.27828 0.26371 0.50365 0.0
C111 C 0.2848 0.25344 0.51833 0.0
C112 C 0.30356 0.2507 0.49553 0.0
N113 N 0.30069 0.24525 0.51313 0.0
C114 C 0.25511 0.25588 0.46363 0.0
C115 C 0.23331 0.28681 0.45833 0.0
C116 C 0.22596 0.26932 0.45431 0.0
C117 C 0.23693 0.25368 0.45773 0.0
C118 C 0.25168 0.2884 0.4639 0.0
N119 N 0.26245 0.27305 0.46579 0.0
H120 H 0.26373 0.24379 0.46519 0.0
H121 H 0.25753 0.30204 0.46531 0.0
H122 H 0.26613 0.2724 0.50366 0.0
H123 H 0.31588 0.24742 0.4878 0.0
O124 O 0.29479 0.25286 0.45277 0.0
O125 O 0.31549 0.27319 0.46263 0.0
O126 O 0.28778 0.29916 0.47955 0.0
C127 C 0.31193 0.25811 0.45344 0.0
H128 H 0.27424 0.29542 0.40052 0.0
H129 H 0.27864 0.25257 0.53193 0.0
H130 H 0.22525 0.29925 0.45639 0.0
H131 H 0.232 0.23988 0.45479 0.0
Co132 Co 0.54114 0.51498 0.34683 0.0
C133 C 0.53352 0.52971 0.3848 0.0
C134 C 0.52885 0.54975 0.3635 0.0
C135 C 0.52434 0.55756 0.3802 0.0
N136 N 0.53456 0.53225 0.36632 0.0
N137 N 0.52721 0.54492 0.3936 0.0
H138 H 0.53704 0.517 0.39173 0.0
H139 H 0.52766 0.5563 0.35011 0.0
C140 C 0.5122 0.52264 0.31678 0.0
O141 O 0.52023 0.51202 0.30449 0.0
N142 N 0.54761 0.49773 0.32739 0.0
C143 C 0.5636 0.49671 0.31788 0.0
C144 C 0.56329 0.48108 0.30701 0.0
C145 C 0.53812 0.4824 0.32266 0.0
N146 N 0.54729 0.4721 0.31014 0.0
C147 C 0.5699 0.54155 0.34866 0.0
C148 C 0.56393 0.55683 0.31419 0.0
C149 C 0.57444 0.56672 0.32715 0.0
C150 C 0.57825 0.55833 0.34423 0.0
C151 C 0.5555 0.54032 0.31937 0.0
N152 N 0.55764 0.53353 0.33681 0.0
H153 H 0.57181 0.53589 0.36236 0.0
H154 H 0.54669 0.53347 0.30957 0.0
H155 H 0.57503 0.50622 0.31921 0.0
H156 H 0.52475 0.47886 0.3283 0.0
O157 O 0.55813 0.50196 0.36297 0.0
O158 O 0.5283 0.49562 0.35962 0.0
O159 O 0.51932 0.52514 0.33274 0.0
C160 C 0.54401 0.49168 0.3674 0.0
H161 H 0.51859 0.57121 0.38216 0.0
H162 H 0.57431 0.47627 0.29812 0.0
H163 H 0.56129 0.56233 0.30052 0.0
H164 H 0.5863 0.56531 0.35473 0.0
Co165 Co 0.76636 0.28419 0.61392 0.0
C166 C 0.74565 0.2681 0.64571 0.0
C167 C 0.73376 0.26062 0.61966 0.0
C168 C 0.72461 0.25121 0.63335 0.0
N169 N 0.74683 0.27148 0.62735 0.0
N170 N 0.73218 0.25581 0.64973 0.0
H171 H 0.75505 0.27365 0.65587 0.0
H172 H 0.73183 0.25852 0.605 0.0
C173 C 0.78686 0.25195 0.59511 0.0
O174 O 0.79808 0.26265 0.58576 0.0
N175 N 0.78576 0.29703 0.60069 0.0
C176 C 0.78338 0.31134 0.589 0.0
C177 C 0.80039 0.31771 0.58357 0.0
C178 C 0.80419 0.29561 0.60303 0.0
N179 N 0.8135 0.30771 0.59227 0.0
C180 C 0.73367 0.29603 0.5951 0.0
C181 C 0.74322 0.28249 0.56066 0.0
C182 C 0.72576 0.29052 0.56298 0.0
C183 C 0.72116 0.29759 0.58049 0.0
C184 C 0.75508 0.28081 0.57572 0.0
N185 N 0.75009 0.28713 0.59276 0.0
H186 H 0.72992 0.3013 0.60857 0.0
H187 H 0.76842 0.27477 0.57348 0.0
H188 H 0.77018 0.31685 0.58471 0.0
H189 H 0.81061 0.28566 0.61216 0.0
O190 O 0.76136 0.30722 0.62651 0.0
O191 O 0.78101 0.28557 0.63604 0.0
O192 O 0.77429 0.25876 0.60546 0.0
C193 C 0.7736 0.30175 0.63851 0.0
H194 H 0.71428 0.24061 0.63124 0.0
H195 H 0.80286 0.32847 0.57349 0.0
H196 H 0.74776 0.27747 0.54733 0.0
H197 H 0.70781 0.30376 0.58313 0.0
Co198 Co 0.04582 0.52566 0.82846 0.0
C199 C 0.06359 0.51378 0.8636 0.0
C200 C 0.06848 0.54234 0.8572 0.0
C201 C 0.07771 0.53808 0.87322 0.0
N202 N 0.0598 0.52709 0.8511 0.0
N203 N 0.07476 0.5201 0.87715 0.0
H204 H 0.05882 0.49965 0.86245 0.0
H205 H 0.06856 0.5555 0.85012 0.0
C206 C 0.0753 0.53156 0.80033 0.0
O207 O 0.06767 0.51847 0.79033 0.0
N208 N 0.03137 0.52539 0.80577 0.0
C209 C 0.01464 0.5175 0.80303 0.0
C210 C 0.006 0.52606 0.78838 0.0
C211 C 0.03232 0.53883 0.79288 0.0
N212 N 0.01727 0.53933 0.78197 0.0
C213 C 0.04362 0.48663 0.82142 0.0
C214 C 0.08122 0.47984 0.82329 0.0
C215 C 0.06916 0.46528 0.81953 0.0
C216 C 0.05016 0.46875 0.8187 0.0
C217 C 0.07411 0.49761 0.82554 0.0
N218 N 0.05552 0.50094 0.82413 0.0
H219 H 0.02896 0.48878 0.82188 0.0
H220 H 0.08358 0.50865 0.82886 0.0
H221 H 0.00789 0.5081 0.81242 0.0
H222 H 0.04254 0.54973 0.7931 0.0
O223 O 0.02417 0.51951 0.8427 0.0
O224 O 0.03313 0.54794 0.83547 0.0
O225 O 0.06755 0.53691 0.81526 0.0
C226 C 0.02149 0.53725 0.84405 0.0
H227 H 0.0868 0.54724 0.8808 0.0
H228 H 0.99178 0.52411 0.78416 0.0
H229 H 0.09595 0.47751 0.82445 0.0
H230 H 0.04041 0.45762 0.81648 0.0
Co231 Co 0.75884 0.75252 0.10183 0.0
C232 C 0.77482 0.78511 0.121 0.0
C233 C 0.79501 0.76966 0.10583 0.0
C234 C 0.80304 0.78578 0.11179 0.0
N235 N 0.77731 0.76918 0.11159 0.0
N236 N 0.79029 0.79551 0.12118 0.0
H237 H 0.76166 0.78978 0.12629 0.0
H238 H 0.80135 0.75967 0.09676 0.0
C239 C 0.75293 0.78514 0.07981 0.0
O240 O 0.76726 0.77817 0.07112 0.0
N241 N 0.74067 0.73592 0.09161 0.0
C242 C 0.73704 0.71861 0.09742 0.0
C243 C 0.72113 0.71255 0.08896 0.0
C244 C 0.72703 0.74012 0.07966 0.0
N245 N 0.71479 0.72615 0.07789 0.0
C246 C 0.77968 0.72687 0.12351 0.0
C247 C 0.80176 0.71601 0.09429 0.0
C248 C 0.80745 0.71226 0.11248 0.0
C249 C 0.79554 0.71666 0.12705 0.0
C250 C 0.78551 0.72599 0.09131 0.0
N251 N 0.77546 0.7322 0.10592 0.0
H252 H 0.77184 0.73176 0.13517 0.0
H253 H 0.782 0.7305 0.07749 0.0
H254 H 0.74478 0.71127 0.10788 0.0
H255 H 0.72527 0.75361 0.07347 0.0
O256 O 0.74661 0.75009 0.12649 0.0
O257 O 0.73795 0.77045 0.10746 0.0
O258 O 0.74518 0.77547 0.09268 0.0
C259 C 0.73523 0.76287 0.1233 0.0
H260 H 0.81696 0.79034 0.10878 0.0
H261 H 0.71429 0.69949 0.09146 0.0
H262 H 0.81059 0.71292 0.08262 0.0
H263 H 0.79926 0.71366 0.14125 0.0
Co264 Co 0.69581 0.00203 0.06986 0.0
C265 C 0.68121 0.98017 0.03843 0.0
C266 C 0.67695 0.96706 0.06476 0.0
C267 C 0.6719 0.95493 0.05111 0.0
N268 N 0.68303 0.98272 0.05682 0.0
N269 N 0.67481 0.9631 0.03461 0.0
H270 H 0.68564 0.99001 0.02808 0.0
H271 H 0.67708 0.96432 0.07946 0.0
C272 C 0.72675 0.98001 0.08747 0.0
O273 O 0.73912 0.99238 0.08272 0.0
N274 N 0.70858 0.02139 0.08364 0.0
C275 C 0.70275 0.02886 0.0997 0.0
C276 C 0.71517 0.04196 0.10538 0.0
C277 C 0.72476 0.03005 0.07999 0.0
N278 N 0.72903 0.04277 0.09298 0.0
C279 C 0.71391 0.0188 0.03944 0.0
C280 C 0.73289 0.98779 0.02764 0.0
C281 C 0.73264 0.00357 0.0165 0.0
C282 C 0.72343 0.01937 0.02277 0.0
C283 C 0.72308 0.98776 0.04424 0.0
N284 N 0.71369 0.00315 0.04993 0.0
H285 H 0.7062 0.03083 0.04373 0.0
H286 H 0.72181 0.97489 0.05164 0.0
H287 H 0.69052 0.02488 0.10725 0.0
H288 H 0.73362 0.02676 0.06849 0.0
O289 O 0.67834 0.02007 0.06071 0.0
O290 O 0.6751 0.0037 0.08642 0.0
O291 O 0.70975 0.98237 0.08355 0.0
C292 C 0.66857 0.01624 0.0753 0.0
H293 H 0.66696 0.94096 0.05313 0.0
H294 H 0.71445 0.04957 0.11822 0.0
H295 H 0.73947 0.9752 0.02295 0.0
H296 H 0.72297 0.03182 0.01448 0.0
Co297 Co 0.30504 0.50714 0.31346 0.0
C298 C 0.326 0.47319 0.30429 0.0
C299 C 0.34346 0.49427 0.31574 0.0
C300 C 0.35397 0.47879 0.31266 0.0
N301 N 0.32596 0.49081 0.31034 0.0
N302 N 0.34297 0.46556 0.30558 0.0
H303 H 0.31384 0.46599 0.29941 0.0
H304 H 0.34823 0.5069 0.32211 0.0
C305 C 0.32382 0.54335 0.30549 0.0
O306 O 0.31081 0.54773 0.29361 0.0
N307 N 0.28422 0.52365 0.3176 0.0
C308 C 0.26605 0.51932 0.31734 0.0
C309 C 0.25633 0.53247 0.32705 0.0
C310 C 0.28515 0.53924 0.32778 0.0
N311 N 0.26842 0.54499 0.33356 0.0
C312 C 0.28657 0.50645 0.27817 0.0
C313 C 0.31759 0.51374 0.25713 0.0
C314 C 0.30051 0.51178 0.24828 0.0
C315 C 0.2849 0.5079 0.25901 0.0
C316 C 0.31862 0.51233 0.27633 0.0
N317 N 0.3031 0.50942 0.28671 0.0
H318 H 0.27462 0.50251 0.28599 0.0
H319 H 0.33195 0.51379 0.28287 0.0
H320 H 0.26031 0.5064 0.31258 0.0
H321 H 0.29792 0.54482 0.33315 0.0
O322 O 0.2893 0.48599 0.31703 0.0
O323 O 0.30459 0.50057 0.33929 0.0
O324 O 0.32277 0.52847 0.31489 0.0
C325 C 0.29388 0.48694 0.33441 0.0
H326 H 0.3684 0.4771 0.31619 0.0
H327 H 0.24186 0.53179 0.33074 0.0
H328 H 0.33003 0.51656 0.24931 0.0
H329 H 0.27156 0.50561 0.25262 0.0
Co330 Co 0.81874 0.02521 0.54582 0.0
C331 C 0.84744 0.05232 0.53478 0.0
C332 C 0.82843 0.04646 0.51282 0.0
C333 C 0.84078 0.05962 0.50677 0.0
N334 N 0.83271 0.04182 0.53034 0.0
N335 N 0.85263 0.06332 0.52068 0.0
H336 H 0.85427 0.05215 0.54803 0.0
H337 H 0.81686 0.04098 0.50512 0.0
C338 C 0.79914 0.05805 0.55592 0.0
O339 O 0.79002 0.05305 0.54103 0.0
N340 N 0.80456 0.00866 0.56092 0.0
C341 C 0.80897 0.99116 0.5653 0.0
C342 C 0.79629 0.98472 0.57791 0.0
C343 C 0.78923 0.01261 0.57061 0.0
N344 N 0.78393 0.99828 0.58136 0.0
C345 C 0.83649 0.99744 0.52368 0.0
C346 C 0.80663 0.99312 0.50018 0.0
C347 C 0.82341 0.98435 0.49587 0.0
C348 C 0.8382 0.98603 0.50829 0.0
C349 C 0.8054 0.00411 0.51596 0.0
N350 N 0.82037 0.00656 0.52704 0.0
H351 H 0.84844 -0.0005 0.53233 0.0
H352 H 0.79281 0.01163 0.51883 0.0
H353 H 0.82103 0.98389 0.56035 0.0
H354 H 0.78254 0.02593 0.57026 0.0
O355 O 0.84168 0.01726 0.55898 0.0
O356 O 0.82574 0.03957 0.56895 0.0
O357 O 0.81213 0.04739 0.56197 0.0
C358 C 0.84 0.02926 0.57151 0.0
H359 H 0.84068 0.06637 0.49342 0.0
H360 H 0.79694 0.97151 0.58487 0.0
H361 H 0.79491 0.99248 0.49091 0.0
H362 H 0.85128 0.97926 0.50574 0.0
Co363 Co 0.29314 0.60072 0.79602 0.0
C364 C 0.26791 0.63265 0.79011 0.0
C365 C 0.26591 0.6212 0.81741 0.0
C366 C 0.25299 0.635 0.8157 0.0
N367 N 0.27516 0.61966 0.80134 0.0
N368 N 0.25415 0.64201 0.79848 0.0
H369 H 0.272 0.63476 0.77588 0.0
H370 H 0.26785 0.6123 0.82926 0.0
C371 C 0.26941 0.56692 0.79337 0.0
O372 O 0.27948 0.56138 0.77931 0.0
N373 N 0.31137 0.58151 0.79172 0.0
C374 C 0.32801 0.58285 0.78334 0.0
C375 C 0.33867 0.5678 0.78821 0.0
C376 C 0.31244 0.5659 0.80183 0.0
N377 N 0.32862 0.5571 0.79958 0.0
C378 C 0.29832 0.60669 0.75711 0.0
C379 C 0.26254 0.59844 0.74652 0.0
C380 C 0.27551 0.60308 0.73303 0.0
C381 C 0.29348 0.60765 0.73847 0.0
C382 C 0.26786 0.59803 0.76502 0.0
N383 N 0.28583 0.60114 0.77008 0.0
H384 H 0.31202 0.61083 0.76111 0.0
H385 H 0.25732 0.5957 0.77528 0.0
H386 H 0.33302 0.59476 0.77593 0.0
H387 H 0.30238 0.56202 0.81219 0.0
O388 O 0.31227 0.61926 0.79547 0.0
O389 O 0.30323 0.60398 0.82048 0.0
O390 O 0.27366 0.58173 0.80198 0.0
C391 C 0.31382 0.61656 0.81319 0.0
H392 H 0.24266 0.63871 0.82586 0.0
H393 H 0.3531 0.56568 0.78495 0.0
H394 H 0.24836 0.5954 0.74281 0.0
H395 H 0.30379 0.61161 0.72837 0.0
Co396 Co 0.25126 0.51853 0.9897 0.0
C397 C 0.21742 0.53227 0.00812 0.0
C398 C 0.22943 0.55268 0.9902 0.0
C399 C 0.214 0.56013 0.99827 0.0
N400 N 0.2317 0.53531 0.99653 0.0
N401 N 0.20649 0.54729 0.00946 0.0
H402 H 0.21504 0.51939 0.01534 0.0
H403 H 0.23815 0.55945 0.98015 0.0
C404 C 0.28271 0.54596 0.98698 0.0
O405 O 0.29323 0.53565 0.99761 0.0
N406 N 0.27079 0.50174 0.98204 0.0
C407 C 0.27163 0.48323 0.98444 0.0
C408 C 0.28511 0.47605 0.9731 0.0
C409 C 0.28344 0.50533 0.96882 0.0
N410 N 0.29253 0.49003 0.96335 0.0
C411 C 0.26229 0.50324 0.02471 0.0
C412 C 0.26763 0.53666 0.04239 0.0
C413 C 0.27051 0.52027 0.05224 0.0
C414 C 0.26775 0.5034 0.0432 0.0
C415 C 0.26234 0.53586 0.02386 0.0
N416 N 0.26025 0.51928 0.01505 0.0
H417 H 0.25904 0.49019 0.01847 0.0
H418 H 0.25968 0.54866 0.01666 0.0
H419 H 0.26203 0.47508 0.99242 0.0
H420 H 0.28466 0.51848 0.96186 0.0
O421 O 0.23411 0.49815 0.99175 0.0
O422 O 0.23925 0.51458 0.96635 0.0
O423 O 0.26658 0.54054 0.9824 0.0
C424 C 0.23004 0.50148 0.97452 0.0
H425 H 0.20831 0.57371 0.99563 0.0
H426 H 0.28832 0.46156 0.97127 0.0
H427 H 0.26938 0.55 0.04894 0.0
H428 H 0.26915 0.49043 0.05054 0.0
Co429 Co 0.79504 0.97949 0.24034 0.0
C430 C 0.76321 0.95398 0.24226 0.0
C431 C 0.78788 0.94196 0.25354 0.0
C432 C 0.77372 0.92947 0.25534 0.0
N433 N 0.78123 0.95733 0.24547 0.0
N434 N 0.75819 0.93702 0.24827 0.0
H435 H 0.75404 0.9637 0.23558 0.0
H436 H 0.80199 0.94005 0.25803 0.0
C437 C 0.76868 0.01078 0.24997 0.0
O438 O 0.78223 0.02193 0.25454 0.0
N439 N 0.8092 0.00161 0.23502 0.0
C440 C 0.8263 0.00619 0.24099 0.0
C441 C 0.83243 0.02132 0.23125 0.0
C442 C 0.80526 0.01404 0.22171 0.0
N443 N 0.81914 0.02624 0.21925 0.0
C444 C 0.81918 0.97329 0.27097 0.0
C445 C 0.79378 0.98078 0.29838 0.0
C446 C 0.81125 0.97411 0.30336 0.0
C447 C 0.82408 0.9705 0.28938 0.0
C448 C 0.78942 0.98332 0.27979 0.0
N449 N 0.80217 0.97998 0.26628 0.0
H450 H 0.82894 0.96934 0.26043 0.0
H451 H 0.77539 0.98692 0.2765 0.0
H452 H 0.83443 -0.0013 0.25091 0.0
H453 H 0.79296 0.01348 0.21321 0.0
O454 O 0.81476 0.96443 0.23047 0.0
O455 O 0.79127 0.97548 0.21428 0.0
O456 O 0.77194 0.99428 0.24469 0.0
C457 C 0.80597 0.96519 0.21479 0.0
H458 H 0.77475 0.91606 0.26186 0.0
H459 H 0.84591 0.02772 0.23232 0.0
H460 H 0.78337 0.98364 0.30873 0.0
H461 H 0.83755 0.96482 0.29255 0.0
Co462 Co 0.37019 0.5216 0.5283 0.0
C463 C 0.38432 0.48973 0.54815 0.0
C464 C 0.37787 0.5114 0.56731 0.0
C465 C 0.38568 0.49687 0.57695 0.0
N466 N 0.37701 0.50673 0.54929 0.0
N467 N 0.38985 0.48342 0.56476 0.0
H468 H 0.38616 0.48238 0.53525 0.0
H469 H 0.3738 0.52464 0.57291 0.0
C470 C 0.33891 0.4979 0.51286 0.0
O471 O 0.32719 0.5117 0.51245 0.0
N472 N 0.36359 0.5365 0.50671 0.0
C473 C 0.37483 0.54085 0.49242 0.0
C474 C 0.36565 0.55232 0.48044 0.0
C475 C 0.34753 0.54533 0.50288 0.0
N476 N 0.34854 0.55509 0.48705 0.0
C477 C 0.34971 0.55037 0.54554 0.0
C478 C 0.32265 0.52821 0.56087 0.0
C479 C 0.32197 0.54735 0.56399 0.0
C480 C 0.33588 0.55842 0.55622 0.0
C481 C 0.33698 0.52069 0.55044 0.0
N482 N 0.34986 0.53182 0.54236 0.0
H483 H 0.36038 0.55904 0.53971 0.0
H484 H 0.33786 0.50586 0.54909 0.0
H485 H 0.38879 0.53602 0.49047 0.0
H486 H 0.33532 0.54488 0.51144 0.0
O487 O 0.38928 0.53933 0.53473 0.0
O488 O 0.39304 0.51466 0.51689 0.0
O489 O 0.35538 0.50009 0.51875 0.0
C490 C 0.40028 0.52903 0.52488 0.0
H491 H 0.38894 0.4966 0.59155 0.0
H492 H 0.37091 0.55769 0.46751 0.0
H493 H 0.31236 0.519 0.56659 0.0
H494 H 0.33647 0.57314 0.55875 0.0
Co495 Co 0.77876 0.09042 0.78208 0.0
C496 C 0.79359 0.12775 0.79166 0.0
C497 C 0.80907 0.10567 0.80399 0.0
C498 C 0.81657 0.12215 0.80968 0.0
N499 N 0.79456 0.10915 0.79281 0.0
N500 N 0.80681 0.13595 0.80191 0.0
H501 H 0.78346 0.13527 0.7837 0.0
H502 H 0.81383 0.09204 0.80781 0.0
C503 C 0.80982 0.07923 0.75846 0.0
O504 O 0.80153 0.08838 0.74518 0.0
N505 N 0.763 0.07149 0.77195 0.0
C506 C 0.74683 0.06592 0.7793 0.0
C507 C 0.73917 0.05274 0.76796 0.0
C508 C 0.76503 0.06166 0.75631 0.0
N509 N 0.75066 0.05008 0.75356 0.0
C510 C 0.77179 0.08559 0.82051 0.0
C511 C 0.78474 0.04962 0.82251 0.0
C512 C 0.77733 0.0579 0.83832 0.0
C513 C 0.77085 0.07612 0.83726 0.0
C514 C 0.7852 0.05948 0.80599 0.0
N515 N 0.77887 0.07723 0.80522 0.0
H516 H 0.76674 0.09962 0.81969 0.0
H517 H 0.79021 0.05266 0.7937 0.0
H518 H 0.74096 0.07123 0.79198 0.0
H519 H 0.77642 0.06328 0.74683 0.0
O520 O 0.75709 0.10602 0.78558 0.0
O521 O 0.77458 0.10538 0.76053 0.0
O522 O 0.80187 0.07722 0.77407 0.0
C523 C 0.76022 0.112 0.76891 0.0
H524 H 0.82853 0.12385 0.81851 0.0
H525 H 0.72617 0.04568 0.77011 0.0
H526 H 0.78954 0.03545 0.82276 0.0
H527 H 0.76507 0.08294 0.84926 0.0
Co528 Co 0.03139 0.66716 0.02958 0.0
C529 C 0.01031 0.63947 0.00742 0.0
C530 C 0.99539 0.66468 0.01154 0.0
C531 C 0.98522 0.6535 7e-05 0.0
N532 N 0.01113 0.65591 0.01617 0.0
N533 N 0.99462 0.63763 0.99738 0.0
H534 H 0.0212 0.62933 0.00788 0.0
H535 H 0.99191 0.67865 0.01553 0.0
C536 C 0.03874 0.69059 0.99741 0.0
O537 O 0.0516 0.67851 0.9933 0.0
N538 N 0.05135 0.67879 0.04291 0.0
C539 C 0.05323 0.67997 0.06141 0.0
C540 C 0.06978 0.68849 0.06535 0.0
C541 C 0.06683 0.6863 0.03586 0.0
N542 N 0.07831 0.69236 0.04924 0.0
C543 C 0.00333 0.66628 0.05644 0.0
C544 C 0.00067 0.70399 0.06219 0.0
C545 C 0.98965 0.69194 0.07265 0.0
C546 C 0.99109 0.67289 0.06959 0.0
C547 C 0.01292 0.69673 0.04914 0.0
N548 N 0.01397 0.6781 0.04643 0.0
H549 H 0.0042 0.65156 0.0541 0.0
H550 H 0.02173 0.70599 0.04143 0.0
H551 H 0.04337 0.67475 0.07134 0.0
H552 H 0.06974 0.68725 0.02128 0.0
O553 O 0.03625 0.64455 0.0431 0.0
O554 O 0.04908 0.6521 0.01643 0.0
O555 O 0.02931 0.68882 0.0122 0.0
C556 C 0.04784 0.64046 0.03004 0.0
H557 H 0.9724 0.65733 0.99342 0.0
H558 H 0.07533 0.69118 0.07898 0.0
H559 H -0.00011 0.71879 0.06416 0.0
H560 H 0.98247 0.66314 0.07698 0.0
Co561 Co 0.54746 0.86832 0.03631 0.0
C562 C 0.56059 0.90431 0.04972 0.0
C563 C 0.54406 0.90734 0.02525 0.0
C564 C 0.5497 0.92461 0.03097 0.0
N565 N 0.55082 0.89472 0.03712 0.0
N566 N 0.56008 0.92266 0.04638 0.0
H567 H 0.56751 0.89799 0.06137 0.0
H568 H 0.5355 0.90421 0.01341 0.0
C569 C 0.55956 0.85822 0.07359 0.0
O570 O 0.57237 0.84836 0.06537 0.0
N571 N 0.54431 0.84162 0.03583 0.0
C572 C 0.53106 0.83182 0.04452 0.0
C573 C 0.53559 0.81335 0.04387 0.0
C574 C 0.55672 0.82892 0.03015 0.0
N575 N 0.55183 0.81156 0.03492 0.0
C576 C 0.51071 0.86432 0.02298 0.0
C577 C 0.49416 0.88648 0.04944 0.0
C578 C 0.48333 0.87854 0.03555 0.0
C579 C 0.49171 0.86726 0.02227 0.0
C580 C 0.51308 0.88282 0.04991 0.0
N581 N 0.52105 0.87184 0.0368 0.0
H582 H 0.51721 0.85593 0.01247 0.0
H583 H 0.52141 0.88916 0.06056 0.0
H584 H 0.5195 0.83773 0.0519 0.0
H585 H 0.5699 0.83236 0.02412 0.0
O586 O 0.55108 0.86889 0.00992 0.0
O587 O 0.57342 0.86589 0.03072 0.0
O588 O 0.54807 0.86741 0.06395 0.0
C589 C 0.56862 0.86752 0.01341 0.0
H590 H 0.54633 0.93756 0.02432 0.0
H591 H 0.52797 0.80227 0.05039 0.0
H592 H 0.48805 0.89531 0.05985 0.0
H593 H 0.48368 0.86107 0.01125 0.0
Co594 Co 0.43381 0.26205 0.25541 0.0
C595 C 0.40746 0.244 0.2808 0.0
C596 C 0.42396 0.22455 0.26579 0.0
C597 C 0.41468 0.21523 0.27953 0.0
N598 N 0.41951 0.24261 0.26666 0.0
N599 N 0.40439 0.22754 0.28893 0.0
H600 H 0.40247 0.25692 0.28634 0.0
H601 H 0.43451 0.21881 0.25692 0.0
C602 C 0.45479 0.25847 0.28908 0.0
O603 O 0.46265 0.24552 0.27908 0.0
N604 N 0.44863 0.28121 0.24428 0.0
C605 C 0.44552 0.2898 0.22804 0.0
C606 C 0.4571 0.30487 0.2268 0.0
C607 C 0.46203 0.29107 0.25262 0.0
N608 N 0.4673 0.30574 0.24239 0.0
C609 C 0.413 0.25172 0.22311 0.0
C610 C 0.43979 0.22761 0.21053 0.0
C611 C 0.42208 0.22704 0.20249 0.0
C612 C 0.40897 0.24008 0.20829 0.0
C613 C 0.44338 0.23979 0.22502 0.0
N614 N 0.4298 0.25092 0.23162 0.0
H615 H 0.40216 0.26048 0.22834 0.0
H616 H 0.45653 0.23925 0.2321 0.0
H617 H 0.4348 0.28611 0.21832 0.0
H618 H 0.46721 0.28816 0.26632 0.0
O619 O 0.4118 0.27872 0.25385 0.0
O620 O 0.42952 0.27931 0.27709 0.0
O621 O 0.44241 0.26887 0.28147 0.0
C622 C 0.41535 0.28646 0.26906 0.0
H623 H 0.41631 0.2008 0.28311 0.0
H624 H 0.45703 0.31514 0.21592 0.0
H625 H 0.45038 0.21773 0.20685 0.0
H626 H 0.39529 0.24051 0.20227 0.0
Co627 Co 0.0184 0.22328 0.50497 0.0
C628 C 0.03884 0.19337 0.5242 0.0
C629 C 0.05669 0.21035 0.5078 0.0
C630 C 0.06741 0.19848 0.51808 0.0
N631 N 0.03874 0.20716 0.51161 0.0
N632 N 0.05615 0.1879 0.52848 0.0
H633 H 0.02668 0.18849 0.53134 0.0
H634 H 0.06177 0.22138 0.4991 0.0
C635 C 0.02001 0.23203 0.54358 0.0
O636 O 0.03525 0.24001 0.5378 0.0
N637 N 0.99851 0.23969 0.49863 0.0
C638 C 0.98905 0.24044 0.48263 0.0
C639 C 0.97479 0.25289 0.48465 0.0
C640 C 0.99009 0.25167 0.51005 0.0
N641 N 0.9754 0.25985 0.50198 0.0
C642 C 0.03229 0.21466 0.46878 0.0
C643 C 0.04655 0.24964 0.4628 0.0
C644 C 0.05021 0.2356 0.44992 0.0
C645 C 0.04241 0.21809 0.45276 0.0
C646 C 0.03631 0.24564 0.4786 0.0
N647 N 0.0298 0.22827 0.48155 0.0
H648 H 0.02729 0.20084 0.47134 0.0
H649 H 0.03422 0.25617 0.48899 0.0
H650 H 0.99194 0.23208 0.47059 0.0
H651 H 0.99403 0.25358 0.52432 0.0
O652 O 0.00376 0.20191 0.49551 0.0
O653 O 0.00124 0.21075 0.52328 0.0
O654 O 0.01005 0.2229 0.53192 0.0
C655 C 0.99576 0.19934 0.51078 0.0
H656 H 0.08235 0.19832 0.51856 0.0
H657 H 0.9645 0.25611 0.4743 0.0
H658 H 0.05259 0.26326 0.46138 0.0
H659 H 0.04488 0.20689 0.44315 0.0
Co660 Co 0.0695 0.75624 0.78985 0.0
C661 C 0.10615 0.75997 0.8088 0.0
C662 C 0.08793 0.78255 0.8147 0.0
C663 C 0.10416 0.7853 0.82416 0.0
N664 N 0.08922 0.7668 0.80478 0.0
N665 N 0.11555 0.77108 0.82046 0.0
H666 H 0.1116 0.74712 0.80356 0.0
H667 H 0.07585 0.79129 0.81536 0.0
C668 C 0.0379 0.75185 0.81781 0.0
O669 O 0.02565 0.74702 0.80535 0.0
N670 N 0.04994 0.7458 0.77494 0.0
C671 C 0.04379 0.75239 0.7586 0.0
C672 C 0.03311 0.73907 0.75019 0.0
C673 C 0.04315 0.72849 0.77609 0.0
N674 N 0.03269 0.72416 0.76131 0.0
C675 C 0.07407 0.79134 0.7733 0.0
C676 C 0.04045 0.80632 0.78345 0.0
C677 C 0.05314 0.81723 0.77375 0.0
C678 C 0.07002 0.80948 0.76845 0.0
C679 C 0.04495 0.78807 0.78781 0.0
N680 N 0.06176 0.78096 0.78307 0.0
H681 H 0.08741 0.78575 0.76968 0.0
H682 H 0.0349 0.77981 0.79494 0.0
H683 H 0.04776 0.76547 0.75259 0.0
H684 H 0.04668 0.71888 0.78701 0.0
O685 O 0.08635 0.75169 0.76972 0.0
O686 O 0.08038 0.73199 0.7924 0.0
O687 O 0.05433 0.75627 0.81319 0.0
C688 C 0.08945 0.7357 0.7773 0.0
H689 H 0.10713 0.79657 0.83354 0.0
H690 H 0.02682 0.73994 0.73664 0.0
H691 H 0.02717 0.81184 0.78758 0.0
H692 H 0.08026 0.81757 0.76112 0.0
Co693 Co 0.48923 0.29797 0.51116 0.0
C694 C 0.50429 0.33052 0.49121 0.0
C695 C 0.47811 0.32148 0.48046 0.0
C696 C 0.48451 0.33561 0.46955 0.0
N697 N 0.49059 0.31815 0.49385 0.0
N698 N 0.50095 0.3412 0.47628 0.0
H699 H 0.51675 0.33112 0.49947 0.0
H700 H 0.46544 0.31381 0.47849 0.0
C701 C 0.48408 0.26615 0.48478 0.0
O702 O 0.49657 0.25645 0.49371 0.0
N703 N 0.48696 0.27761 0.52857 0.0
C704 C 0.49422 0.2761 0.54572 0.0
C705 C 0.48523 0.26224 0.55513 0.0
C706 C 0.4733 0.26495 0.52813 0.0
N707 N 0.47204 0.25528 0.54403 0.0
C708 C 0.52744 0.29219 0.51922 0.0
C709 C 0.53887 0.28541 0.48341 0.0
C710 C 0.5518 0.28465 0.49777 0.0
C711 C 0.54593 0.28834 0.51581 0.0
C712 C 0.52036 0.28911 0.4875 0.0
N713 N 0.5147 0.29165 0.50538 0.0
H714 H 0.52361 0.29638 0.53291 0.0
H715 H 0.51069 0.29037 0.47621 0.0
H716 H 0.50383 0.28558 0.55199 0.0
H717 H 0.46312 0.26422 0.51719 0.0
O718 O 0.49348 0.31497 0.53125 0.0
O719 O 0.46598 0.30748 0.51994 0.0
O720 O 0.47948 0.28216 0.4905 0.0
C721 C 0.47564 0.31713 0.53166 0.0
H722 H 0.4777 0.34125 0.45748 0.0
H723 H 0.48724 0.25863 0.56951 0.0
H724 H 0.54302 0.28323 0.46919 0.0
H725 H 0.55569 0.28887 0.52716 0.0
Co726 Co 0.94486 0.28865 0.75992 0.0
C727 C 0.92048 0.3209 0.75296 0.0
C728 C 0.94645 0.32392 0.73925 0.0
C729 C 0.93501 0.3381 0.73374 0.0
N730 N 0.9373 0.31299 0.75126 0.0
N731 N 0.91858 0.33606 0.74226 0.0
H732 H 0.90917 0.31488 0.76054 0.0
H733 H 0.95995 0.32113 0.73363 0.0
C734 C 0.97068 0.2734 0.73135 0.0
O735 O 0.98077 0.26615 0.74458 0.0
N736 N 0.95205 0.26416 0.76839 0.0
C737 C 0.9452 0.24816 0.76174 0.0
C738 C 0.95348 0.23365 0.77075 0.0
C739 C 0.96447 0.25909 0.78141 0.0
N740 N 0.96563 0.24057 0.78305 0.0
C741 C 0.96666 0.30314 0.78956 0.0
C742 C 0.99809 0.31097 0.76947 0.0
C743 C 0.99839 0.31349 0.78866 0.0
C744 C 0.9823 0.30973 0.79869 0.0
C745 C 0.98218 0.3043 0.7609 0.0
N746 N 0.9669 0.29969 0.77099 0.0
H747 H 0.95462 0.3 0.79773 0.0
H748 H 0.9824 0.30317 0.74612 0.0
H749 H 0.93523 0.24703 0.75067 0.0
H750 H 0.97297 0.26847 0.78921 0.0
O751 O 0.92822 0.29018 0.78085 0.0
O752 O 0.92098 0.27884 0.75336 0.0
O753 O 0.95693 0.2838 0.73522 0.0
C754 C 0.91614 0.28199 0.77037 0.0
H755 H 0.93818 0.34832 0.7233 0.0
H756 H 0.95139 0.21914 0.76783 0.0
H757 H 0.00991 0.31454 0.76103 0.0
H758 H 0.98183 0.31163 0.81353 0.0
Co759 Co 0.56805 0.81974 0.29731 0.0
C760 C 0.58792 0.80705 0.26375 0.0
C761 C 0.56642 0.78838 0.27195 0.0
C762 C 0.57499 0.7813 0.25651 0.0
N763 N 0.57469 0.8044 0.27657 0.0
N764 N 0.58839 0.79316 0.25139 0.0
H765 H 0.59735 0.8186 0.26354 0.0
H766 H 0.55504 0.78221 0.27939 0.0
C767 C 0.54502 0.8362 0.26933 0.0
O768 O 0.53411 0.82283 0.27495 0.0
N769 N 0.56103 0.83478 0.31804 0.0
C770 C 0.56871 0.8347 0.33499 0.0
C771 C 0.56106 0.84883 0.34519 0.0
C772 C 0.54879 0.84875 0.31812 0.0
N773 N 0.54857 0.85767 0.33452 0.0
C774 C 0.58703 0.7901 0.31509 0.0
C775 C 0.55516 0.77276 0.32707 0.0
C776 C 0.57202 0.76316 0.3278 0.0
C777 C 0.58818 0.77238 0.32245 0.0
C778 C 0.55464 0.79057 0.31965 0.0
N779 N 0.57035 0.79862 0.31322 0.0
H780 H 0.59939 0.79626 0.30948 0.0
H781 H 0.54152 0.79747 0.31778 0.0
H782 H 0.57962 0.8255 0.33939 0.0
H783 H 0.54108 0.85303 0.30606 0.0
O784 O 0.59435 0.82784 0.30056 0.0
O785 O 0.57583 0.84307 0.28389 0.0
O786 O 0.56008 0.83927 0.27847 0.0
C787 C 0.59227 0.84199 0.29054 0.0
H788 H 0.57167 0.76847 0.24957 0.0
H789 H 0.5649 0.85269 0.35912 0.0
H790 H 0.54237 0.76618 0.33119 0.0
H791 H 0.60143 0.76544 0.32241 0.0
C792 C 0.0307 0.98195 0.74289 0.0
C793 C 0.04747 0.99171 0.74279 0.0
C794 C 0.03045 0.96303 0.74639 0.0
C795 C 0.03681 0.92163 0.74169 0.0
H796 H 0.06284 0.90156 0.78405 0.0
C797 C 0.05256 0.8441 0.75213 0.0
C798 C 0.04936 0.83687 0.76985 0.0
C799 C 0.05081 0.86302 0.74888 0.0
C800 C 0.05542 0.90702 0.77225 0.0
H801 H 0.07708 0.98949 0.74644 0.0
H802 H 0.07662 0.95622 0.75285 0.0
H803 H 0.06341 0.93487 0.7783 0.0
H804 H 0.04153 0.84351 0.79796 0.0
H805 H 0.03863 0.87674 0.7923 0.0
H806 H 0.02903 0.89376 0.73549 0.0
C807 C 0.06371 0.9633 0.75017 0.0
C808 C 0.0559 0.926 0.76888 0.0
C809 C 0.064 0.98223 0.74641 0.0
C810 C 0.04392 0.84877 0.78415 0.0
C811 C 0.04243 0.86774 0.78096 0.0
C812 C 0.03654 0.90263 0.74492 0.0
C813 C 0.04694 0.95354 0.75006 0.0
C814 C 0.04658 0.93345 0.75359 0.0
C815 C 0.04609 0.87502 0.76335 0.0
C816 C 0.04582 0.89518 0.76023 0.0
H817 H 0.01779 0.98892 0.73994 0.0
H818 H 0.01734 0.95582 0.74635 0.0
H819 H 0.0296 0.92707 0.72974 0.0
H820 H 0.05671 0.83515 0.74088 0.0
H821 H 0.05379 0.86833 0.7352 0.0
C822 C 0.45106 0.86699 0.03505 0.0
C823 C 0.46331 0.88195 0.0347 0.0
C824 C 0.4322 0.86986 0.03261 0.0
C825 C 0.39193 0.88081 0.03439 0.0
H826 H 0.3805 0.90175 0.98638 0.0
C827 C 0.32385 0.8631 0.00106 0.0
C828 C 0.32717 0.85394 0.98426 0.0
C829 C 0.33712 0.87497 0.0085 0.0
C830 C 0.38338 0.8962 -1e-05 0.0
H831 H 0.46573 0.91164 0.03197 0.0
H832 H 0.43247 0.91667 0.02708 0.0
H833 H 0.41141 0.90567 -0.00056 0.0
H834 H 0.34611 0.85159 0.96116 0.0
H835 H 0.36912 0.87219 0.97404 0.0
H836 H 0.36453 0.87004 0.0344 0.0
C837 C 0.4375 0.90279 0.02955 0.0
C838 C 0.40102 0.89854 0.0075 0.0
C839 C 0.45641 0.89993 0.03236 0.0
C840 C 0.34306 0.85847 0.97409 0.0
C841 C 0.35628 0.87036 0.9815 0.0
C842 C 0.37431 0.87857 0.02696 0.0
C843 C 0.42529 0.88773 0.02949 0.0
C844 C 0.40569 0.88998 0.02429 0.0
C845 C 0.35391 0.87791 -0.00077 0.0
C846 C 0.37017 0.88535 0.00922 0.0
H847 H 0.45615 0.85302 0.03683 0.0
H848 H 0.42311 0.85797 0.03233 0.0
H849 H 0.3952 0.87423 0.04744 0.0
H850 H 0.31151 0.86021 0.00901 0.0
H851 H 0.33479 0.88086 0.02206 0.0
C852 C 0.39905 0.20281 0.19316 0.0
C853 C 0.41655 0.211 0.19084 0.0
C854 C 0.3957 0.18488 0.1869 0.0
C855 C 0.42017 0.14373 0.16631 0.0
H856 H 0.40092 0.1202 0.21038 0.0
C857 C 0.45319 0.07754 0.19037 0.0
C858 C 0.45917 0.07916 0.20883 0.0
C859 C 0.43888 0.08863 0.18368 0.0
C860 C 0.40627 0.12646 0.19788 0.0
H861 H 0.44303 0.20792 0.17721 0.0
H862 H 0.43782 0.17644 0.16758 0.0
H863 H 0.39266 0.15179 0.2037 0.0
H864 H 0.45319 0.09193 0.23523 0.0
H865 H 0.42912 0.11189 0.2235 0.0
H866 H 0.43566 0.11915 0.16184 0.0
C867 C 0.42648 0.1837 0.17406 0.0
C868 C 0.40128 0.14463 0.19381 0.0
C869 C 0.42967 0.20178 0.17992 0.0
C870 C 0.44928 0.09071 0.22084 0.0
C871 C 0.43518 0.10197 0.2141 0.0
C872 C 0.42551 0.1257 0.17062 0.0
C873 C 0.40992 0.17456 0.17866 0.0
C874 C 0.40932 0.15397 0.17874 0.0
C875 C 0.43045 0.10177 0.1952 0.0
C876 C 0.4197 0.1174 0.18724 0.0
H877 H 0.38842 0.20944 0.2013 0.0
H878 H 0.38251 0.17859 0.19003 0.0
H879 H 0.42599 0.15018 0.15413 0.0
H880 H 0.46042 0.06877 0.18066 0.0
H881 H 0.43531 0.08776 0.16917 0.0
C882 C 0.07863 0.22511 0.43374 0.0
C883 C 0.06467 0.23841 0.43572 0.0
C884 C 0.09504 0.2295 0.42476 0.0
C885 C 0.12273 0.27105 0.42068 0.0
H886 H 0.15938 0.23438 0.40732 0.0
C887 C 0.20138 0.28062 0.43245 0.0
C888 C 0.20756 0.26741 0.44537 0.0
C889 C 0.18432 0.27856 0.42366 0.0
C890 C 0.14926 0.24488 0.41069 0.0
H891 H 0.0558 0.2658 0.42754 0.0
H892 H 0.08449 0.27347 0.41151 0.0
H893 H 0.1267 0.22797 0.40195 0.0
H894 H 0.20045 0.24169 0.45911 0.0
H895 H 0.17105 0.23786 0.44329 0.0
H896 H 0.14537 0.28762 0.43002 0.0
C897 C 0.08297 0.25981 0.41742 0.0
C898 C 0.13057 0.24122 0.4077 0.0
C899 C 0.06654 0.25543 0.42657 0.0
C900 C 0.19637 0.25197 0.44904 0.0
C901 C 0.17954 0.24974 0.43996 0.0
C902 C 0.14144 0.27484 0.42329 0.0
C903 C 0.09785 0.24731 0.41748 0.0
C904 C 0.11704 0.25371 0.41393 0.0
C905 C 0.17336 0.26303 0.42728 0.0
C906 C 0.1547 0.26131 0.41938 0.0
H907 H 0.07773 0.21189 0.44071 0.0
H908 H 0.10612 0.21948 0.42528 0.0
H909 H 0.11281 0.28102 0.42573 0.0
H910 H 0.20977 0.29247 0.42891 0.0
H911 H 0.1797 0.28902 0.41401 0.0
C912 C 0.56587 0.59794 0.31511 0.0
C913 C 0.57884 0.58655 0.32407 0.0
C914 C 0.56822 0.61701 0.31465 0.0
C915 C 0.58819 0.65421 0.34167 0.0
H916 H 0.57391 0.6838 0.29933 0.0
C917 C 0.58751 0.73473 0.34041 0.0
C918 C 0.57257 0.74294 0.33106 0.0
C919 C 0.58983 0.71556 0.34024 0.0
C920 C 0.57781 0.67571 0.31131 0.0
H921 H 0.60505 0.58642 0.33866 0.0
H922 H 0.60893 0.61999 0.33812 0.0
H923 H 0.57697 0.65046 0.29603 0.0
H924 H 0.54787 0.73733 0.31499 0.0
H925 H 0.55163 0.704 0.31518 0.0
H926 H 0.58862 0.67953 0.35704 0.0
C927 C 0.59691 0.61396 0.33156 0.0
C928 C 0.57966 0.65665 0.30938 0.0
C929 C 0.59466 0.59476 0.33187 0.0
C930 C 0.55943 0.7315 0.3225 0.0
C931 C 0.56175 0.7124 0.32233 0.0
C932 C 0.58633 0.67334 0.34361 0.0
C933 C 0.5835 0.62527 0.32325 0.0
C934 C 0.58442 0.64565 0.32464 0.0
C935 C 0.57728 0.70427 0.33067 0.0
C936 C 0.58065 0.6842 0.32855 0.0
H937 H 0.55328 0.5923 0.30934 0.0
H938 H 0.55749 0.62537 0.30839 0.0
H939 H 0.5917 0.64604 0.35371 0.0
H940 H 0.59778 0.74318 0.34726 0.0
H941 H 0.60189 0.70966 0.34685 0.0
C942 C 0.58122 0.26891 0.50584 0.0
C943 C 0.57158 0.2811 0.49428 0.0
C944 C 0.6004 0.268 0.50519 0.0
C945 C 0.64132 0.26561 0.50047 0.0
H946 H 0.66264 0.31465 0.50286 0.0
C947 C 0.71141 0.27587 0.53491 0.0
C948 C 0.71213 0.29063 0.54755 0.0
C949 C 0.69746 0.27492 0.52163 0.0
C950 C 0.65693 0.30084 0.50222 0.0
H951 H 0.57419 0.30087 0.47195 0.0
H952 H 0.60796 0.29914 0.47061 0.0
H953 H 0.63133 0.31073 0.49137 0.0
H954 H 0.6994 0.31671 0.55505 0.0
H955 H 0.67442 0.31443 0.5329 0.0
H956 H 0.66606 0.25586 0.51301 0.0
C957 C 0.60066 0.29046 0.48036 0.0
C958 C 0.63906 0.29854 0.49532 0.0
C959 C 0.58135 0.29134 0.48101 0.0
C960 C 0.69905 0.30488 0.54591 0.0
C961 C 0.68488 0.30375 0.53287 0.0
C962 C 0.65904 0.26792 0.50764 0.0
C963 C 0.61042 0.27925 0.49291 0.0
C964 C 0.63072 0.281 0.49524 0.0
C965 C 0.6836 0.28849 0.52088 0.0
C966 C 0.66674 0.28568 0.50942 0.0
H967 H 0.57396 0.26073 0.51606 0.0
H968 H 0.60738 0.25937 0.51523 0.0
H969 H 0.63545 0.25184 0.50017 0.0
H970 H 0.72112 0.26453 0.53572 0.0
H971 H 0.69718 0.26316 0.51239 0.0
C972 C 0.03284 0.31608 0.79209 0.0
C973 C 0.015 0.32123 0.79782 0.0
C974 C 0.04835 0.32549 0.79872 0.0
C975 C 0.0721 0.35987 0.79955 0.0
H976 H 0.07074 0.38763 0.84529 0.0
C977 C 0.07077 0.43626 0.80145 0.0
C978 C 0.07597 0.44627 0.81716 0.0
C979 C 0.07383 0.41731 0.80061 0.0
C980 C 0.07193 0.37976 0.83262 0.0
H981 H -0.00042 0.33941 0.81594 0.0
H982 H 0.02635 0.35582 0.82731 0.0
H983 H 0.05538 0.35786 0.84353 0.0
H984 H 0.08974 0.44491 0.84369 0.0
H985 H 0.09488 0.41142 0.8424 0.0
H986 H 0.08771 0.3823 0.78833 0.0
C987 C 0.02855 0.34435 0.81796 0.0
C988 C 0.06291 0.36276 0.83156 0.0
C989 C 0.0131 0.33499 0.81134 0.0
C990 C 0.08562 0.43736 0.83143 0.0
C991 C 0.08852 0.41826 0.8307 0.0
C992 C 0.08127 0.37679 0.80067 0.0
C993 C 0.0463 0.34021 0.8112 0.0
C994 C 0.06158 0.35345 0.81456 0.0
C995 C 0.08197 0.40794 0.81559 0.0
C996 C 0.07988 0.3876 0.81673 0.0
H997 H 0.03476 0.30522 0.78198 0.0
H998 H 0.06184 0.32184 0.79341 0.0
H999 H 0.07157 0.353 0.78627 0.0
H1000 H 0.06339 0.44294 0.79026 0.0
H1001 H 0.06834 0.40983 0.78886 0.0
C1002 C 0.97242 0.68955 0.10243 0.0
C1003 C 0.97552 0.69884 0.08565 0.0
C1004 C 0.95624 0.69261 0.11238 0.0
C1005 C 0.91405 0.72121 0.11561 0.0
H1006 H 0.88896 0.67393 0.11907 0.0
C1007 C 0.83647 0.69466 0.10529 0.0
C1008 C 0.82689 0.7073 0.11644 0.0
C1009 C 0.85556 0.69261 0.10718 0.0
C1010 C 0.89585 0.6872 0.11838 0.0
H1011 H 0.96521 0.72004 0.06718 0.0
H1012 H 0.93699 0.72552 0.08464 0.0
H1013 H 0.9221 0.67484 0.1131 0.0
H1014 H 0.82972 0.72718 0.13878 0.0
H1015 H 0.86288 0.72341 0.1421 0.0
H1016 H 0.88758 0.73357 0.11991 0.0
C1017 C 0.94702 0.71584 0.09009 0.0
C1018 C 0.91483 0.68775 0.11517 0.0
C1019 C 0.96318 0.71272 0.08008 0.0
C1020 C 0.83661 0.7171 0.13014 0.0
C1021 C 0.85565 0.71512 0.13195 0.0
C1022 C 0.89509 0.72066 0.119 0.0
C1023 C 0.94299 0.70511 0.10578 0.0
C1024 C 0.92397 0.70477 0.11313 0.0
C1025 C 0.86536 0.70328 0.12013 0.0
C1026 C 0.88575 0.70365 0.11979 0.0
H1027 H 0.98195 0.67905 0.10722 0.0
H1028 H 0.95356 0.6844 0.12461 0.0
H1029 H 0.9208 0.73449 0.11414 0.0
H1030 H 0.82932 0.6869 0.09468 0.0
H1031 H 0.86278 0.68347 0.09779 0.0
C1032 C 0.75795 0.99697 0.99373 0.0
C1033 C 0.73991 0.00302 0.99749 0.0
C1034 C 0.76466 0.99721 0.97559 0.0
C1035 C 0.74922 4e-05 0.92693 0.0
H1036 H 0.79347 0.0291 0.9188 0.0
C1037 C 0.75845 0.04679 0.86479 0.0
C1038 C 0.77547 0.04723 0.85558 0.0
C1039 C 0.75643 0.03657 0.88095 0.0
C1040 C 0.78134 0.02058 0.92083 0.0
H1041 H 0.71444 0.0131 0.98542 0.0
H1042 H 0.72607 0.01361 0.95395 0.0
H1043 H 0.78572 0.01888 0.95006 0.0
H1044 H 0.80375 0.03741 0.85589 0.0
H1045 H 0.80029 0.01973 0.88466 0.0
H1046 H 0.74421 0.00276 0.89792 0.0
C1047 C 0.73508 0.00867 0.96485 0.0
C1048 C 0.77693 0.01471 0.93869 0.0
C1049 C 0.72849 0.00863 0.98288 0.0
C1050 C 0.79047 0.03722 0.86278 0.0
C1051 C 0.78852 0.02717 0.87917 0.0
C1052 C 0.75358 0.00596 0.90915 0.0
C1053 C 0.75326 0.00314 0.96101 0.0
C1054 C 0.76037 0.00514 0.94198 0.0
C1055 C 0.77144 0.02672 0.88832 0.0
C1056 C 0.76922 0.01699 0.9061 0.0
H1057 H 0.76693 0.99251 0.00484 0.0
H1058 H 0.77874 0.9929 0.97295 0.0
H1059 H 0.73655 0.99237 0.92907 0.0
H1060 H 0.74665 0.05425 0.85939 0.0
H1061 H 0.74319 0.03668 0.88792 0.0
C1062 C 0.28937 0.50896 0.07898 0.0
C1063 C 0.27553 0.52068 0.07208 0.0
C1064 C 0.29358 0.50881 0.09781 0.0
C1065 C 0.28719 0.53553 0.14123 0.0
H1066 H 0.29669 0.48817 0.16443 0.0
C1067 C 0.28465 0.52402 0.2201 0.0
C1068 C 0.29896 0.51353 0.22796 0.0
C1069 C 0.28302 0.52555 0.20094 0.0
C1070 C 0.29427 0.50151 0.1581 0.0
H1071 H 0.25522 0.54139 0.07943 0.0
H1072 H 0.26226 0.54088 0.11235 0.0
H1073 H 0.29157 0.48968 0.13118 0.0
H1074 H 0.32272 0.49633 0.22199 0.0
H1075 H 0.31979 0.4989 0.1884 0.0
H1076 H 0.28938 0.54721 0.16835 0.0
C1077 C 0.27021 0.53212 0.1032 0.0
C1078 C 0.29138 0.50241 0.13904 0.0
C1079 C 0.26612 0.53239 0.08434 0.0
C1080 C 0.31164 0.50461 0.21629 0.0
C1081 C 0.30988 0.50597 0.19711 0.0
C1082 C 0.28991 0.53459 0.16032 0.0
C1083 C 0.28392 0.52025 0.11019 0.0
C1084 C 0.28771 0.51942 0.13037 0.0
C1085 C 0.29555 0.51644 0.18926 0.0
C1086 C 0.29337 0.51756 0.16894 0.0
H1087 H 0.29698 0.49995 0.06977 0.0
H1088 H 0.30445 0.49974 0.10266 0.0
H1089 H 0.28473 0.5489 0.13499 0.0
H1090 H 0.27478 0.53115 0.22879 0.0
H1091 H 0.27175 0.53358 0.19524 0.0
C1092 C 0.84289 0.97849 0.46793 0.0
C1093 C 0.82619 0.9757 0.47747 0.0
C1094 C 0.84459 0.97333 0.44948 0.0
C1095 C 0.8219 0.9487 0.4106 0.0
H1096 H 0.84088 0.98998 0.38218 0.0
C1097 C 0.80254 0.96234 0.33473 0.0
C1098 C 0.81578 0.97029 0.32296 0.0
C1099 C 0.8065 0.95946 0.35337 0.0
C1100 C 0.83591 0.97812 0.38984 0.0
H1101 H 0.79877 0.96379 0.47549 0.0
H1102 H 0.80151 0.95544 0.44296 0.0
H1103 H 0.84332 0.9904 0.41555 0.0
H1104 H 0.84377 0.98084 0.32137 0.0
H1105 H 0.85081 0.97548 0.35387 0.0
H1106 H 0.81392 0.93677 0.3847 0.0
C1107 C 0.81335 0.96145 0.44987 0.0
C1108 C 0.83732 0.97835 0.40902 0.0
C1109 C 0.81169 0.96646 0.46844 0.0
C1110 C 0.83329 0.97467 0.33008 0.0
C1111 C 0.83727 0.97173 0.34872 0.0
C1112 C 0.82051 0.94846 0.39133 0.0
C1113 C 0.82958 0.9655 0.44003 0.0
C1114 C 0.83004 0.96382 0.41964 0.0
C1115 C 0.8238 0.96439 0.36063 0.0
C1116 C 0.82718 0.96336 0.38079 0.0
H1117 H 0.85434 0.9857 0.4743 0.0
H1118 H 0.85739 0.97633 0.44233 0.0
H1119 H 0.81633 0.93723 0.41843 0.0
H1120 H 0.78905 0.95845 0.32957 0.0
H1121 H 0.79576 0.95396 0.36221 0.0
C1122 C 0.3016 0.57384 0.57375 0.0
C1123 C 0.30781 0.55558 0.57641 0.0
C1124 C 0.29056 0.58248 0.58702 0.0
C1125 C 0.26161 0.57551 0.62805 0.0
H1126 H 0.29146 0.61374 0.65069 0.0
C1127 C 0.264 0.58576 0.70573 0.0
C1128 C 0.27064 0.60229 0.71327 0.0
C1129 C 0.26205 0.58388 0.68666 0.0
C1130 C 0.28246 0.60358 0.64442 0.0
H1131 H 0.3061 0.53182 0.59474 0.0
H1132 H 0.28634 0.54666 0.61729 0.0
H1133 H 0.29892 0.60302 0.61992 0.0
H1134 H 0.27891 0.63037 0.70727 0.0
H1135 H 0.27465 0.6275 0.67389 0.0
H1136 H 0.24533 0.57574 0.65267 0.0
C1137 C 0.29011 0.55426 0.60495 0.0
C1138 C 0.28684 0.5974 0.62672 0.0
C1139 C 0.30147 0.54575 0.59195 0.0
C1140 C 0.274 0.6174 0.70163 0.0
C1141 C 0.27164 0.61568 0.68254 0.0
C1142 C 0.25694 0.58199 0.64563 0.0
C1143 C 0.28511 0.57286 0.60292 0.0
C1144 C 0.27704 0.58269 0.61882 0.0
C1145 C 0.26639 0.59865 0.67473 0.0
C1146 C 0.26797 0.59536 0.65447 0.0
H1147 H 0.30575 0.58171 0.56172 0.0
H1148 H 0.28683 0.59686 0.5852 0.0
H1149 H 0.25379 0.56422 0.6221 0.0
H1150 H 0.2614 0.57391 0.71451 0.0
H1151 H 0.25828 0.57044 0.68131 0.0
C1152 C 0.07736 0.17961 0.55398 0.0
C1153 C 0.06133 0.17602 0.5436 0.0
C1154 C 0.08125 0.16941 0.56992 0.0
C1155 C 0.07663 0.15601 0.60959 0.0
H1156 H 0.06708 0.10345 0.61354 0.0
C1157 C 0.0564 0.11974 0.67718 0.0
C1158 C 0.0626 0.10166 0.68045 0.0
C1159 C 0.06087 0.12881 0.66076 0.0
C1160 C 0.07012 0.11807 0.61263 0.0
H1161 H 0.03734 0.15832 0.54128 0.0
H1162 H 0.04406 0.14052 0.56915 0.0
H1163 H 0.06613 0.11837 0.58328 0.0
H1164 H 0.07914 0.07921 0.66957 0.0
H1165 H 0.08691 0.09508 0.64071 0.0
H1166 H 0.08009 0.15581 0.639 0.0
C1167 C 0.05365 0.1512 0.56494 0.0
C1168 C 0.06937 0.12664 0.59532 0.0
C1169 C 0.0497 0.16149 0.54908 0.0
C1170 C 0.07422 0.09318 0.66743 0.0
C1171 C 0.07854 0.10219 0.65087 0.0
C1172 C 0.07725 0.14747 0.6269 0.0
C1173 C 0.06927 0.1553 0.57574 0.0
C1174 C 0.07224 0.14577 0.59367 0.0
C1175 C 0.07151 0.11992 0.64718 0.0
C1176 C 0.07361 0.12849 0.62865 0.0
H1177 H 0.08652 0.19082 0.55026 0.0
H1178 H 0.09346 0.17279 0.57789 0.0
H1179 H 0.07878 0.17079 0.6088 0.0
H1180 H 0.04742 0.12662 0.68697 0.0
H1181 H 0.05511 0.14239 0.65827 0.0
C1182 C 0.25093 0.75087 0.9185 0.0
C1183 C 0.25899 0.76837 0.92065 0.0
C1184 C 0.23767 0.74785 0.90472 0.0
C1185 C 0.21712 0.7691 0.86231 0.0
H1186 H 0.17295 0.74292 0.87751 0.0
C1187 C 0.14519 0.7831 0.83204 0.0
C1188 C 0.13359 0.76804 0.82823 0.0
C1189 C 0.16226 0.78038 0.84059 0.0
C1190 C 0.18532 0.74999 0.87293 0.0
H1191 H 0.25999 0.79627 0.90982 0.0
H1192 H 0.23676 0.79121 0.88619 0.0
H1193 H 0.20002 0.74291 0.89757 0.0
H1194 H 0.13082 0.7383 0.8301 0.0
H1195 H 0.16067 0.73355 0.84541 0.0
H1196 H 0.20196 0.77699 0.83812 0.0
C1197 C 0.24079 0.77964 0.89478 0.0
C1198 C 0.20087 0.74995 0.8844 0.0
C1199 C 0.25404 0.78261 0.90846 0.0
C1200 C 0.13956 0.75013 0.83279 0.0
C1201 C 0.15655 0.74743 0.84163 0.0
C1202 C 0.20151 0.7693 0.85096 0.0
C1203 C 0.23222 0.76231 0.89288 0.0
C1204 C 0.21679 0.75995 0.87947 0.0
C1205 C 0.16799 0.76256 0.84573 0.0
C1206 C 0.18531 0.76013 0.85638 0.0
H1207 H 0.25456 0.73964 0.9277 0.0
H1208 H 0.23151 0.73428 0.9035 0.0
H1209 H 0.22928 0.77658 0.85786 0.0
H1210 H 0.14099 0.79701 0.82851 0.0
H1211 H 0.17072 0.79232 0.84375 0.0
C1212 C 0.58252 0.93358 0.06982 0.0
C1213 C 0.56758 0.93711 0.05789 0.0
C1214 C 0.58848 0.94699 0.0824 0.0
C1215 C 0.58315 0.99662 0.09549 0.0
H1216 H 0.58596 0.97763 0.14553 0.0
C1217 C 0.55531 0.0344 0.15834 0.0
C1218 C 0.56396 0.03257 0.17559 0.0
C1219 C 0.56248 0.02552 0.14284 0.0
C1220 C 0.58573 0.9832 0.13163 0.0
H1221 H 0.54773 0.95788 0.04937 0.0
H1222 H 0.55795 0.9811 0.07127 0.0
H1223 H 0.58621 0.95625 0.11964 0.0
H1224 H 0.58733 0.02088 0.19014 0.0
H1225 H 0.59969 0.00476 0.16294 0.0
H1226 H 0.58148 0.02354 0.1077 0.0
C1227 C 0.5653 0.96808 0.07076 0.0
C1228 C 0.58586 0.97092 0.11674 0.0
C1229 C 0.55937 0.9547 0.0582 0.0
C1230 C 0.58042 0.02243 0.17695 0.0
C1231 C 0.58745 0.01323 0.16144 0.0
C1232 C 0.58296 0.00889 0.1104 0.0
C1233 C 0.57963 0.96425 0.08332 0.0
C1234 C 0.58372 0.97744 0.09855 0.0
C1235 C 0.5783 0.01439 0.14431 0.0
C1236 C 0.58341 0.00222 0.12864 0.0
H1237 H 0.58943 0.92033 0.06967 0.0
H1238 H 0.59973 0.94369 0.0917 0.0
H1239 H 0.58194 0.0021 0.08162 0.0
H1240 H 0.54269 0.04232 0.15691 0.0
H1241 H 0.55497 0.02652 0.12992 0.0
C1242 C 0.32191 0.2311 0.43476 0.0
C1243 C 0.32603 0.24843 0.44243 0.0
C1244 C 0.33296 0.22376 0.4208 0.0
C1245 C 0.37619 0.22985 0.39383 0.0
H1246 H 0.34439 0.21782 0.35234 0.0
C1247 C 0.37927 0.2346 0.31057 0.0
C1248 C 0.39549 0.22488 0.30644 0.0
C1249 C 0.37156 0.23359 0.32819 0.0
C1250 C 0.35345 0.22099 0.36384 0.0
H1251 H 0.34582 0.27087 0.44285 0.0
H1252 H 0.36503 0.25816 0.41822 0.0
H1253 H 0.33095 0.22245 0.38279 0.0
H1254 H 0.41645 0.20651 0.31737 0.0
H1255 H 0.40299 0.20488 0.34842 0.0
H1256 H 0.39861 0.22912 0.37447 0.0
C1257 C 0.35336 0.25017 0.42307 0.0
C1258 C 0.34581 0.22346 0.38133 0.0
C1259 C 0.34233 0.25749 0.43715 0.0
C1260 C 0.40375 0.21389 0.32017 0.0
C1261 C 0.39618 0.2131 0.33792 0.0
C1262 C 0.38388 0.22721 0.37629 0.0
C1263 C 0.34825 0.23367 0.41417 0.0
C1264 C 0.35702 0.22834 0.39644 0.0
C1265 C 0.38008 0.22306 0.3421 0.0
C1266 C 0.37248 0.22325 0.36106 0.0
H1267 H 0.30955 0.22369 0.43877 0.0
H1268 H 0.32892 0.21081 0.41447 0.0
H1269 H 0.38516 0.23353 0.40523 0.0
H1270 H 0.37275 0.24319 0.3002 0.0
H1271 H 0.35924 0.24157 0.33112 0.0
C1272 C 0.51413 0.3564 0.44897 0.0
C1273 C 0.51268 0.35503 0.46825 0.0
C1274 C 0.5238 0.37095 0.44089 0.0
C1275 C 0.55016 0.40043 0.42697 0.0
H1276 H 0.53088 0.44779 0.44286 0.0
C1277 C 0.56202 0.4688 0.38629 0.0
C1278 C 0.54514 0.47717 0.38164 0.0
C1279 C 0.56259 0.45465 0.39951 0.0
C1280 C 0.53662 0.43469 0.43845 0.0
H1281 H 0.5208 0.36723 0.4943 0.0
H1282 H 0.53749 0.3932 0.48011 0.0
H1283 H 0.5248 0.42026 0.46138 0.0
H1284 H 0.51579 0.47788 0.38757 0.0
H1285 H 0.51683 0.45353 0.41072 0.0
H1286 H 0.56111 0.41479 0.4035 0.0
C1287 C 0.53124 0.38286 0.47129 0.0
C1288 C 0.53327 0.41897 0.44911 0.0
C1289 C 0.52179 0.36804 0.47939 0.0
C1290 C 0.52898 0.47157 0.39076 0.0
C1291 C 0.5296 0.45776 0.40416 0.0
C1292 C 0.55368 0.41621 0.41641 0.0
C1293 C 0.53203 0.38461 0.45193 0.0
C1294 C 0.53934 0.40156 0.44307 0.0
C1295 C 0.54635 0.44905 0.40856 0.0
C1296 C 0.54627 0.43334 0.42167 0.0
H1297 H 0.50739 0.34639 0.44012 0.0
H1298 H 0.52397 0.37203 0.42596 0.0
H1299 H 0.55511 0.38718 0.42209 0.0
H1300 H 0.57467 0.47291 0.37944 0.0
H1301 H 0.57566 0.44808 0.40265 0.0
C1302 C 0.88594 0.34318 0.74916 0.0
C1303 C 0.90114 0.34426 0.7371 0.0
C1304 C 0.86804 0.34617 0.74262 0.0
C1305 C 0.83967 0.36083 0.70251 0.0
H1306 H 0.81539 0.31373 0.70998 0.0
C1307 C 0.79286 0.32824 0.64789 0.0
C1308 C 0.78073 0.31405 0.65287 0.0
C1309 C 0.80323 0.33732 0.6614 0.0
C1310 C 0.82145 0.32726 0.70805 0.0
H1311 H 0.90952 0.35173 0.70928 0.0
H1312 H 0.8784 0.35719 0.69802 0.0
H1313 H 0.84184 0.3217 0.72862 0.0
H1314 H 0.76864 0.29896 0.67561 0.0
H1315 H 0.78571 0.31564 0.69946 0.0
H1316 H 0.81944 0.36625 0.68164 0.0
C1317 C 0.88032 0.35385 0.71249 0.0
C1318 C 0.83676 0.3318 0.7188 0.0
C1319 C 0.89822 0.35068 0.71898 0.0
C1320 C 0.77797 0.30993 0.67156 0.0
C1321 C 0.78795 0.31936 0.68515 0.0
C1322 C 0.82406 0.35645 0.69195 0.0
C1323 C 0.86502 0.35059 0.72397 0.0
C1324 C 0.84647 0.34827 0.71564 0.0
C1325 C 0.80142 0.33254 0.6802 0.0
C1326 C 0.81523 0.33921 0.69401 0.0
H1327 H 0.88776 0.33881 0.76335 0.0
H1328 H 0.85648 0.34385 0.75183 0.0
H1329 H 0.84685 0.3737 0.69991 0.0
H1330 H 0.79533 0.33137 0.63345 0.0
H1331 H 0.81356 0.34712 0.65687 0.0
C1332 C 0.97228 0.62186 0.97665 0.0
C1333 C 0.99012 0.62314 0.98438 0.0
C1334 C 0.96857 0.60933 0.96242 0.0
C1335 C 0.9721 0.59398 0.92307 0.0
H1336 H 0.99514 0.54569 0.92111 0.0
C1337 C 0.00596 0.56413 0.8589 0.0
C1338 C 0.00765 0.54493 0.85686 0.0
C1339 C 0.99623 0.57151 0.8738 0.0
C1340 C 0.98817 0.55893 0.92145 0.0
H1341 H 0.0177 0.61124 0.98357 0.0
H1342 H 0.01111 0.58946 0.95923 0.0
H1343 H 0.99267 0.5617 0.95055 0.0
H1344 H -0.00114 0.51838 0.86763 0.0
H1345 H 0.98178 0.53131 0.89366 0.0
H1346 H 0.96843 0.59158 0.89378 0.0
C1347 C -1e-05 0.59814 0.9642 0.0
C1348 C 0.98694 0.56817 0.93831 0.0
C1349 C 0.00378 0.61077 0.97823 0.0
C1350 C 0.99795 0.53326 0.86896 0.0
C1351 C 0.98823 0.54064 0.88391 0.0
C1352 C 0.97337 0.58475 0.90616 0.0
C1353 C 0.9825 0.59759 0.95584 0.0
C1354 C 0.97968 0.58612 0.93913 0.0
C1355 C 0.988 0.55982 0.88695 0.0
C1356 C 0.98218 0.56748 0.90505 0.0
H1357 H 0.96123 0.63077 0.98125 0.0
H1358 H 0.9549 0.60906 0.95631 0.0
H1359 H 0.96644 0.60783 0.92329 0.0
H1360 H 0.01317 0.57348 0.8497 0.0
H1361 H 0.99644 0.58634 0.87577 0.0
C1362 C 0.71023 0.78422 0.13405 0.0
C1363 C 0.72027 0.76778 0.13611 0.0
C1364 C 0.69582 0.78841 0.14625 0.0
C1365 C 0.67689 0.77468 0.19213 0.0
H1366 H 0.63196 0.79769 0.17416 0.0
C1367 C 0.60909 0.77349 0.23299 0.0
C1368 C 0.60154 0.79094 0.23674 0.0
C1369 C 0.62319 0.77161 0.22 0.0
C1370 C 0.6445 0.79135 0.17931 0.0
H1371 H 0.72307 0.74267 0.15217 0.0
H1372 H 0.69771 0.74951 0.1729 0.0
H1373 H 0.65786 0.79289 0.15298 0.0
H1374 H 0.60204 0.81992 0.22933 0.0
H1375 H 0.62657 0.81654 0.20618 0.0
H1376 H 0.6632 0.77251 0.21824 0.0
C1377 C 0.70119 0.75957 0.16239 0.0
C1378 C 0.65937 0.78869 0.16726 0.0
C1379 C 0.71567 0.75556 0.15042 0.0
C1380 C 0.6078 0.80636 0.22674 0.0
C1381 C 0.62168 0.80442 0.21348 0.0
C1382 C 0.66195 0.77703 0.20402 0.0
C1383 C 0.69112 0.77608 0.16056 0.0
C1384 C 0.67568 0.78011 0.17349 0.0
C1385 C 0.62974 0.78709 0.21031 0.0
C1386 C 0.6456 0.78521 0.19767 0.0
H1387 H 0.7136 0.7939 0.12316 0.0
H1388 H 0.68852 0.80134 0.14456 0.0
H1389 H 0.68938 0.76851 0.19757 0.0
H1390 H 0.60457 0.76145 0.24062 0.0
H1391 H 0.62918 0.75809 0.21767 0.0
C1392 C 0.64817 0.04387 0.07124 0.0
C1393 C 0.65227 0.02728 0.08049 0.0
C1394 C 0.63513 0.05612 0.07855 0.0
C1395 C 0.62006 0.06988 0.12361 0.0
H1396 H 0.57817 0.09444 0.10096 0.0
C1397 C 0.55137 0.0988 0.15376 0.0
C1398 C 0.55928 0.10544 0.17024 0.0
C1399 C 0.56228 0.09625 0.13806 0.0
C1400 C 0.59 0.08787 0.10734 0.0
H1401 H 0.64474 0.00963 0.10352 0.0
H1402 H 0.62204 0.03097 0.1162 0.0
H1403 H 0.59705 0.07292 0.08262 0.0
H1404 H 0.58358 0.11875 0.18173 0.0
H1405 H 0.60226 0.11512 0.15418 0.0
H1406 H 0.61298 0.0839 0.1484 0.0
C1407 C 0.6291 0.03463 0.10351 0.0
C1408 C 0.60072 0.07558 0.09689 0.0
C1409 C 0.64206 0.02243 0.09623 0.0
C1410 C 0.57711 0.11309 0.16951 0.0
C1411 C 0.58792 0.11086 0.1537 0.0
C1412 C 0.60957 0.08219 0.13393 0.0
C1413 C 0.62611 0.05189 0.09517 0.0
C1414 C 0.61548 0.0661 0.10519 0.0
C1415 C 0.58112 0.10078 0.13854 0.0
C1416 C 0.59414 0.09102 0.1261 0.0
H1417 H 0.6558 0.04791 0.05902 0.0
H1418 H 0.633 0.06936 0.0719 0.0
H1419 H 0.63157 0.06294 0.13022 0.0
H1420 H 0.53739 0.09349 0.15367 0.0
H1421 H 0.55647 0.08874 0.1265 0.0
C1422 C 0.27753 0.45747 0.34156 0.0
C1423 C 0.28928 0.47181 0.34727 0.0
C1424 C 0.27553 0.4416 0.35235 0.0
C1425 C 0.26867 0.41195 0.38139 0.0
H1426 H 0.31519 0.39037 0.39689 0.0
C1427 C 0.27512 0.33512 0.40055 0.0
C1428 C 0.2868 0.33013 0.41527 0.0
C1429 C 0.27475 0.35325 0.39399 0.0
C1430 C 0.30204 0.39631 0.39296 0.0
H1431 H 0.3074 0.48124 0.3692 0.0
H1432 H 0.30388 0.45347 0.38807 0.0
H1433 H 0.31482 0.42114 0.3833 0.0
H1434 H 0.30748 0.3405 0.4344 0.0
H1435 H 0.30646 0.37215 0.42325 0.0
H1436 H 0.25589 0.38705 0.39087 0.0
C1437 C 0.29635 0.45447 0.37518 0.0
C1438 C 0.30183 0.41397 0.38518 0.0
C1439 C 0.29824 0.47041 0.36444 0.0
C1440 C 0.29817 0.34378 0.42318 0.0
C1441 C 0.29772 0.36195 0.41666 0.0
C1442 C 0.26886 0.39433 0.38926 0.0
C1443 C 0.28533 0.43972 0.36901 0.0
C1444 C 0.28518 0.42185 0.37904 0.0
C1445 C 0.28597 0.36692 0.40201 0.0
C1446 C 0.28559 0.38616 0.39485 0.0
H1447 H 0.27045 0.45815 0.32838 0.0
H1448 H 0.26705 0.43042 0.34716 0.0
H1449 H 0.25561 0.41777 0.37697 0.0
H1450 H 0.26599 0.32515 0.39422 0.0
H1451 H 0.26574 0.35651 0.38248 0.0
C1452 C 0.85253 0.04639 0.59897 0.0
C1453 C 0.85473 0.03306 0.58503 0.0
C1454 C 0.86744 0.05108 0.61041 0.0
C1455 C 0.91685 0.05462 0.60917 0.0
H1456 H 0.91855 0.04593 0.66202 0.0
C1457 C 0.98551 0.04915 0.64766 0.0
C1458 C 0.98693 0.05561 0.6659 0.0
C1459 C 0.9685 0.04884 0.63863 0.0
C1460 C 0.91821 0.04883 0.64734 0.0
H1461 H 0.87396 0.01386 0.57239 0.0
H1462 H 0.89991 0.02231 0.59204 0.0
H1463 H 0.88963 0.0411 0.64512 0.0
H1464 H 0.97133 0.06685 0.68895 0.0
H1465 H 0.94176 0.06689 0.67294 0.0
H1466 H 0.94522 0.06235 0.61112 0.0
C1467 C 0.88672 0.02906 0.59417 0.0
C1468 C 0.90167 0.04601 0.63772 0.0
C1469 C 0.87184 0.02418 0.58302 0.0
C1470 C 0.97086 0.06199 0.67482 0.0
C1471 C 0.95382 0.0618 0.66572 0.0
C1472 C 0.93325 0.05768 0.61877 0.0
C1473 C 0.88473 0.0427 0.60776 0.0
C1474 C 0.90107 0.04838 0.6185 0.0
C1475 C 0.95243 0.05517 0.64752 0.0
C1476 C 0.93432 0.05425 0.63787 0.0
H1477 H 0.83945 0.05339 0.6008 0.0
H1478 H 0.86567 0.06162 0.62088 0.0
H1479 H 0.91658 0.05671 0.59434 0.0
H1480 H 0.99755 0.04432 0.64025 0.0
H1481 H 0.96794 0.0433 0.62474 0.0
C1482 C 0.33092 0.74763 0.90014 0.0
C1483 C 0.34027 0.7489 0.91709 0.0
C1484 C 0.33544 0.73388 0.88746 0.0
C1485 C 0.34951 0.70616 0.86002 0.0
H1486 H 0.35395 0.65782 0.88263 0.0
C1487 C 0.3376 0.64137 0.81656 0.0
C1488 C 0.32544 0.62867 0.82475 0.0
C1489 C 0.34622 0.65492 0.82728 0.0
C1490 C 0.35277 0.67121 0.87607 0.0
H1491 H 0.36259 0.73749 0.93349 0.0
H1492 H 0.37081 0.71363 0.9111 0.0
H1493 H 0.35625 0.68533 0.90176 0.0
H1494 H 0.31369 0.61938 0.85067 0.0
H1495 H 0.32813 0.64325 0.86923 0.0
H1496 H 0.34441 0.69212 0.83463 0.0
C1497 C 0.35971 0.7231 0.90779 0.0
C1498 C 0.35437 0.68703 0.88701 0.0
C1499 C 0.35513 0.73689 0.92054 0.0
C1500 C 0.32299 0.62899 0.84397 0.0
C1501 C 0.33143 0.64265 0.85465 0.0
C1502 C 0.34771 0.69036 0.84912 0.0
C1503 C 0.34954 0.72109 0.89134 0.0
C1504 C 0.35198 0.70468 0.87923 0.0
C1505 C 0.34267 0.65618 0.84635 0.0
C1506 C 0.34856 0.67267 0.85714 0.0
H1507 H 0.3196 0.75688 0.89697 0.0
H1508 H 0.32714 0.7327 0.87506 0.0
H1509 H 0.34802 0.71955 0.85351 0.0
H1510 H 0.33991 0.64129 0.80177 0.0
H1511 H 0.35511 0.66485 0.82048 0.0
C1512 C 0.20093 0.48287 0.97572 0.0
C1513 C 0.21412 0.49264 0.96536 0.0
C1514 C 0.18415 0.47763 0.96767 0.0
C1515 C 0.15891 0.47514 0.92269 0.0
H1516 H 0.1174 0.49279 0.95152 0.0
C1517 C 0.09037 0.51798 0.90727 0.0
C1518 C 0.08456 0.50951 0.89083 0.0
C1519 C 0.10305 0.50925 0.91885 0.0
C1520 C 0.1288 0.48762 0.94333 0.0
H1521 H 0.22075 0.50335 0.93819 0.0
H1522 H 0.19162 0.49438 0.92423 0.0
H1523 H 0.14742 0.48908 0.9662 0.0
H1524 H 0.0863 0.48456 0.87437 0.0
H1525 H 0.10831 0.46911 0.89477 0.0
H1526 H 0.14072 0.47519 0.89946 0.0
C1527 C 0.19413 0.49059 0.93849 0.0
C1528 C 0.14599 0.48529 0.9518 0.0
C1529 C 0.21082 0.49589 0.94653 0.0
C1530 C 0.0905 0.49143 0.88697 0.0
C1531 C 0.10325 0.48266 0.89857 0.0
C1532 C 0.14176 0.47757 0.9142 0.0
C1533 C 0.18034 0.48197 0.94911 0.0
C1534 C 0.16144 0.47987 0.94135 0.0
C1535 C 0.11023 0.4918 0.91425 0.0
C1536 C 0.12673 0.48469 0.92423 0.0
H1537 H 0.20311 0.48018 0.99028 0.0
H1538 H 0.17388 0.47083 0.97616 0.0
H1539 H 0.17047 0.4706 0.91435 0.0
H1540 H 0.08579 0.5318 0.9107 0.0
H1541 H 0.10818 0.51681 0.9307 0.0
C1542 C 0.80349 0.82685 0.11876 0.0
C1543 C 0.79218 0.81406 0.12801 0.0
C1544 C 0.80595 0.84464 0.12579 0.0
C1545 C 0.80108 0.88436 0.14002 0.0
H1546 H 0.81167 0.88683 0.1925 0.0
C1547 C 0.79801 0.95072 0.18452 0.0
C1548 C 0.80997 0.95198 0.19978 0.0
C1549 C 0.79848 0.93524 0.17299 0.0
C1550 C 0.80901 0.88638 0.17777 0.0
H1551 H 0.77409 0.80998 0.15144 0.0
H1552 H 0.77849 0.84109 0.16391 0.0
H1553 H 0.80573 0.85705 0.17817 0.0
H1554 H 0.83312 0.93907 0.21374 0.0
H1555 H 0.83412 0.91221 0.19346 0.0
H1556 H 0.80424 0.91383 0.13974 0.0
C1557 C 0.78554 0.83729 0.15127 0.0
C1558 C 0.80532 0.86934 0.16963 0.0
C1559 C 0.78292 0.81957 0.14411 0.0
C1560 C 0.82361 0.93842 0.2022 0.0
C1561 C 0.82409 0.92296 0.19067 0.0
C1562 C 0.80466 0.9015 0.14822 0.0
C1563 C 0.79728 0.84991 0.14231 0.0
C1564 C 0.8012 0.86814 0.15072 0.0
C1565 C 0.81094 0.92079 0.17653 0.0
C1566 C 0.80863 0.90268 0.16721 0.0
H1567 H 0.81048 0.82307 0.10609 0.0
H1568 H 0.81508 0.85408 0.11862 0.0
H1569 H 0.79788 0.88381 0.1254 0.0
H1570 H 0.78738 0.961 0.18225 0.0
H1571 H 0.78817 0.93399 0.16222 0.0
C1572 C 0.52002 0.56408 0.42104 0.0
C1573 C 0.52215 0.54659 0.41283 0.0
C1574 C 0.51271 0.56577 0.43884 0.0
C1575 C 0.49943 0.5391 0.48079 0.0
H1576 H 0.45643 0.571 0.48059 0.0
C1577 C 0.42538 0.55255 0.52122 0.0
C1578 C 0.41961 0.53404 0.5211 0.0
C1579 C 0.4426 0.55738 0.51385 0.0
C1580 C 0.46866 0.56241 0.48124 0.0
H1581 H 0.51916 0.5171 0.4175 0.0
H1582 H 0.50659 0.52004 0.44834 0.0
H1583 H 0.47901 0.57354 0.45593 0.0
H1584 H 0.42776 0.50593 0.51488 0.0
H1585 H 0.45758 0.51424 0.50213 0.0
H1586 H 0.48843 0.52722 0.50555 0.0
C1587 C 0.51071 0.53248 0.44111 0.0
C1588 C 0.48163 0.56384 0.46703 0.0
C1589 C 0.51791 0.5308 0.42332 0.0
C1590 C 0.43184 0.52033 0.51499 0.0
C1591 C 0.44904 0.5251 0.50784 0.0
C1592 C 0.48648 0.53769 0.49503 0.0
C1593 C 0.50752 0.54999 0.44887 0.0
C1594 C 0.49665 0.55158 0.46618 0.0
C1595 C 0.45433 0.54373 0.50649 0.0
C1596 C 0.47048 0.54869 0.49487 0.0
H1597 H 0.52354 0.57653 0.41355 0.0
H1598 H 0.5106 0.57944 0.44454 0.0
H1599 H 0.51108 0.52972 0.48068 0.0
H1600 H 0.41615 0.56337 0.52586 0.0
H1601 H 0.44638 0.57184 0.51311 0.0
C1602 C 0.74372 0.24345 0.67946 0.0
C1603 C 0.7291 0.24632 0.66699 0.0
C1604 C 0.74159 0.23152 0.69449 0.0
C1605 C 0.73289 0.20795 0.72811 0.0
H1606 H 0.71201 0.16129 0.71209 0.0
C1607 C 0.741 0.14074 0.77082 0.0
C1608 C 0.74932 0.1268 0.7602 0.0
C1609 C 0.73337 0.1563 0.76216 0.0
C1610 C 0.71766 0.1743 0.71688 0.0
H1611 H 0.7003 0.2403 0.66153 0.0
H1612 H 0.69657 0.21944 0.68779 0.0
H1613 H 0.70864 0.18852 0.69265 0.0
H1614 H 0.75525 0.1175 0.73239 0.0
H1615 H 0.74167 0.14428 0.71732 0.0
H1616 H 0.74292 0.19329 0.75182 0.0
C1617 C 0.70978 0.22614 0.68572 0.0
C1618 C 0.71561 0.18996 0.70582 0.0
C1619 C 0.71192 0.23806 0.67068 0.0
C1620 C 0.74893 0.12809 0.74087 0.0
C1621 C 0.74105 0.14337 0.73225 0.0
C1622 C 0.73488 0.19226 0.73923 0.0
C1623 C 0.72479 0.22221 0.69741 0.0
C1624 C 0.7238 0.20681 0.71097 0.0
C1625 C 0.73361 0.15786 0.74278 0.0
C1626 C 0.72791 0.17513 0.73334 0.0
H1627 H 0.75718 0.24944 0.67699 0.0
H1628 H 0.75351 0.22866 0.70308 0.0
H1629 H 0.73915 0.22079 0.73256 0.0
H1630 H 0.74129 0.1401 0.78577 0.0
H1631 H 0.7277 0.16728 0.77058 0.0
C1632 C 0.17574 0.53536 0.01783 0.0
C1633 C 0.18931 0.54915 0.01911 0.0
C1634 C 0.15775 0.53887 0.02398 0.0
C1635 C 0.1288 0.57251 0.04992 0.0
H1636 H 0.09475 0.56699 0.0089 0.0
C1637 C 0.06986 0.61851 0.01535 0.0
C1638 C 0.05936 0.6237 0.03078 0.0
C1639 C 0.08223 0.6038 0.01652 0.0
C1640 C 0.104 0.56841 0.02059 0.0
H1641 H 0.19542 0.57661 0.02907 0.0
H1642 H 0.16422 0.58275 0.03999 0.0
H1643 H 0.12425 0.55078 0.00834 0.0
H1644 H 0.05284 0.61709 0.05927 0.0
H1645 H 0.07473 0.59142 0.06138 0.0
H1646 H 0.10915 0.59125 0.0615 0.0
C1647 C 0.16727 0.56926 0.03428 0.0
C1648 C 0.12081 0.55897 0.02037 0.0
C1649 C 0.18509 0.56585 0.02791 0.0
C1650 C 0.06083 0.6134 0.04717 0.0
C1651 C 0.07336 0.59875 0.0484 0.0
C1652 C 0.11196 0.5819 0.05016 0.0
C1653 C 0.15324 0.55609 0.03175 0.0
C1654 C 0.13376 0.56167 0.0346 0.0
C1655 C 0.08445 0.59405 0.03318 0.0
C1656 C 0.0998 0.58064 0.03507 0.0
H1657 H 0.17874 0.52241 0.01097 0.0
H1658 H 0.1472 0.52847 0.02191 0.0
H1659 H 0.13846 0.57468 0.06115 0.0
H1660 H 0.06893 0.62614 0.0025 0.0
H1661 H 0.09076 0.6007 0.00462 0.0
C1662 C 0.67676 0.93561 0.01497 0.0
C1663 C 0.67292 0.95447 0.01685 0.0
C1664 C 0.67148 0.92613 -0.00088 0.0
C1665 C 0.63176 0.92942 0.96962 0.0
H1666 H 0.64587 0.87806 0.96458 0.0
C1667 C 0.60123 0.86695 0.00248 0.0
C1668 C 0.58248 0.86991 0.99869 0.0
C1669 C 0.61469 0.87371 0.99047 0.0
C1670 C 0.64176 0.89243 0.96524 0.0
H1671 H 0.66296 0.97886 0.00275 0.0
H1672 H 0.65353 0.96226 0.97476 0.0
H1673 H 0.66966 0.90158 0.96839 0.0
H1674 H 0.56297 0.88003 0.9783 0.0
H1675 H 0.58656 0.89232 0.95756 0.0
H1676 H 0.60389 0.92023 0.96799 0.0
C1677 C 0.66035 0.95468 0.98571 0.0
C1678 C 0.65537 0.90593 0.96754 0.0
C1679 C 0.66572 0.96421 0.00169 0.0
C1680 C 0.57737 0.87777 0.98167 0.0
C1681 C 0.59085 0.88473 0.96974 0.0
C1682 C 0.61821 0.916 0.967 0.0
C1683 C 0.66209 0.9353 0.98475 0.0
C1684 C 0.65031 0.92417 0.97206 0.0
C1685 C 0.60961 0.88379 0.97461 0.0
C1686 C 0.62303 0.8972 0.96691 0.0
H1687 H 0.68288 0.92793 0.02627 0.0
H1688 H 0.67315 0.91127 -0.00088 0.0
H1689 H 0.62722 0.94336 0.97255 0.0
H1690 H 0.60553 0.86067 0.01537 0.0
H1691 H 0.629 0.87281 0.99475 0.0
C1692 C 0.39084 0.31023 0.2653 0.0
C1693 C 0.40501 0.30252 0.27605 0.0
C1694 C 0.38225 0.32659 0.27074 0.0
C1695 C 0.39135 0.36789 0.29896 0.0
H1696 H 0.34053 0.37932 0.28644 0.0
C1697 C 0.33603 0.43216 0.30619 0.0
C1698 C 0.34817 0.44673 0.30212 0.0
C1699 C 0.34183 0.41381 0.30439 0.0
C1700 C 0.35468 0.37631 0.29026 0.0
H1701 H 0.42082 0.30535 0.3013 0.0
H1702 H 0.40546 0.3337 0.31118 0.0
H1703 H 0.35198 0.34793 0.28249 0.0
H1704 H 0.37549 0.45366 0.29221 0.0
H1705 H 0.38549 0.42177 0.28849 0.0
H1706 H 0.39398 0.39612 0.30708 0.0
C1707 C 0.40123 0.32734 0.29831 0.0
C1708 C 0.36131 0.35835 0.28779 0.0
C1709 C 0.40994 0.31102 0.29276 0.0
C1710 C 0.36598 0.44266 0.29567 0.0
C1711 C 0.37171 0.42439 0.29369 0.0
C1712 C 0.38468 0.38578 0.30157 0.0
C1713 C 0.38756 0.33554 0.28715 0.0
C1714 C 0.37984 0.35401 0.29176 0.0
C1715 C 0.35984 0.40973 0.29832 0.0
C1716 C 0.36639 0.39032 0.29686 0.0
H1717 H 0.38679 0.30398 0.25231 0.0
H1718 H 0.37201 0.3326 0.26164 0.0
H1719 H 0.40573 0.36515 0.302 0.0
H1720 H 0.32231 0.43495 0.31142 0.0
H1721 H 0.33239 0.40288 0.30822 0.0
C1722 C 0.97346 0.18209 0.5309 0.0
C1723 C 0.98184 0.18478 0.51362 0.0
C1724 C 0.96006 0.16832 0.53317 0.0
C1725 C 0.94237 0.1255 0.51124 0.0
H1726 H 0.89749 0.13633 0.53835 0.0
C1727 C 0.87681 0.08109 0.50448 0.0
C1728 C 0.86732 0.07671 0.52082 0.0
C1729 C 0.89127 0.09387 0.50471 0.0
C1730 C 0.91004 0.13304 0.53091 0.0
H1731 H 0.98285 0.17535 0.4852 0.0
H1732 H 0.95944 0.15166 0.48904 0.0
H1733 H 0.9222 0.15927 0.53716 0.0
H1734 H 0.86525 0.08265 0.55014 0.0
H1735 H 0.89057 0.10487 0.55054 0.0
H1736 H 0.93008 0.09943 0.50468 0.0
C1737 C 0.96335 0.15984 0.50095 0.0
C1738 C 0.92421 0.14615 0.53028 0.0
C1739 C 0.97669 0.17351 0.49871 0.0
C1740 C 0.87246 0.08553 0.53737 0.0
C1741 C 0.88683 0.0984 0.53757 0.0
C1742 C 0.9282 0.11246 0.5118 0.0
C1743 C 0.95487 0.15704 0.51819 0.0
C1744 C 0.94042 0.14262 0.5202 0.0
C1745 C 0.89644 0.10263 0.52126 0.0
C1746 C 0.91179 0.11618 0.52144 0.0
H1747 H 0.97723 0.19061 0.54262 0.0
H1748 H 0.95388 0.16641 0.54666 0.0
H1749 H 0.95484 0.12219 0.50368 0.0
H1750 H 0.87323 0.07444 0.49158 0.0
H1751 H 0.89829 0.09702 0.49188 0.0
C1752 C 0.23357 0.64947 0.7724 0.0
C1753 C 0.2407 0.6538 0.78994 0.0
C1754 C 0.21824 0.65897 0.76548 0.0
C1755 C 0.17729 0.67029 0.7654 0.0
H1756 H 0.17081 0.72329 0.76969 0.0
C1757 C 0.10816 0.7068 0.77951 0.0
C1758 C 0.10487 0.72394 0.77106 0.0
C1759 C 0.12472 0.69742 0.77638 0.0
C1760 C 0.17247 0.7085 0.76809 0.0
H1761 H 0.23829 0.67201 0.81348 0.0
H1762 H 0.21174 0.68897 0.80125 0.0
H1763 H 0.20138 0.70979 0.77433 0.0
H1764 H 0.11571 0.74409 0.75168 0.0
H1765 H 0.14472 0.72776 0.74641 0.0
H1766 H 0.14817 0.66893 0.76014 0.0
C1767 C 0.2179 0.67819 0.7929 0.0
C1768 C 0.18993 0.7008 0.77087 0.0
C1769 C 0.23299 0.66848 0.79994 0.0
C1770 C 0.11787 0.73091 0.75843 0.0
C1771 C 0.13451 0.72164 0.75547 0.0
C1772 C 0.15977 0.67798 0.76287 0.0
C1773 C 0.21006 0.67317 0.77585 0.0
C1774 C 0.1924 0.68159 0.76997 0.0
C1775 C 0.13833 0.70511 0.76487 0.0
C1776 C 0.15714 0.69712 0.7646 0.0
H1777 H 0.23916 0.63804 0.76454 0.0
H1778 H 0.21246 0.65489 0.75229 0.0
H1779 H 0.17881 0.65542 0.7648 0.0
H1780 H 0.09837 0.70109 0.78929 0.0
H1781 H 0.12735 0.68475 0.7839 0.0
C1782 C 0.47773 0.3418 0.55575 0.0
C1783 C 0.46694 0.33114 0.54364 0.0
C1784 C 0.47003 0.35691 0.56496 0.0
C1785 C 0.4257 0.3815 0.57468 0.0
H1786 H 0.45568 0.42525 0.56724 0.0
C1787 C 0.41332 0.46102 0.55498 0.0
C1788 C 0.40023 0.46683 0.56802 0.0
C1789 C 0.42282 0.44449 0.55738 0.0
C1790 C 0.44721 0.41315 0.56962 0.0
H1791 H 0.43936 0.3271 0.53268 0.0
H1792 H 0.42603 0.35362 0.54838 0.0
H1793 H 0.46915 0.39492 0.5623 0.0
H1794 H 0.38706 0.46024 0.59403 0.0
H1795 H 0.40361 0.43081 0.59817 0.0
H1796 H 0.4034 0.39999 0.58078 0.0
C1797 C 0.44037 0.35025 0.55101 0.0
C1798 C 0.45497 0.39572 0.56697 0.0
C1799 C 0.44805 0.33511 0.54186 0.0
C1800 C 0.39712 0.45599 0.58382 0.0
C1801 C 0.4065 0.43921 0.58613 0.0
C1802 C 0.41792 0.39899 0.57734 0.0
C1803 C 0.45141 0.3617 0.56218 0.0
C1804 C 0.44412 0.37971 0.56877 0.0
C1805 C 0.41937 0.43328 0.57284 0.0
C1806 C 0.42843 0.41497 0.57409 0.0
H1807 H 0.4923 0.33894 0.55755 0.0
H1808 H 0.47884 0.36526 0.57371 0.0
H1809 H 0.41706 0.36942 0.57645 0.0
H1810 H 0.41615 0.46926 0.54282 0.0
H1811 H 0.43245 0.44019 0.54677 0.0
C1812 C 0.81769 0.16276 0.81981 0.0
C1813 C 0.81066 0.15536 0.80333 0.0
C1814 C 0.82347 0.18113 0.82058 0.0
C1815 C 0.82545 0.22519 0.7934 0.0
H1816 H 0.87385 0.22879 0.81603 0.0
C1817 C 0.88498 0.26836 0.76536 0.0
C1818 C 0.89829 0.27543 0.77756 0.0
C1819 C 0.86966 0.25885 0.77212 0.0
C1820 C 0.86014 0.22829 0.81004 0.0
H1821 H 0.80327 0.16149 0.775 0.0
H1822 H 0.81396 0.19333 0.776 0.0
H1823 H 0.85515 0.20167 0.82149 0.0
H1824 H 0.90527 0.27957 0.8064 0.0
H1825 H 0.8785 0.26275 0.81826 0.0
H1826 H 0.83127 0.25139 0.78085 0.0
C1827 C 0.81461 0.18521 0.78855 0.0
C1828 C 0.84935 0.21267 0.81318 0.0
C1829 C 0.80857 0.16691 0.7879 0.0
C1830 C 0.89527 0.27415 0.79669 0.0
C1831 C 0.87999 0.2645 0.80347 0.0
C1832 C 0.83635 0.24079 0.79012 0.0
C1833 C 0.82263 0.1924 0.80475 0.0
C1834 C 0.83216 0.21059 0.80435 0.0
C1835 C 0.86744 0.25613 0.79122 0.0
C1836 C 0.85409 0.24215 0.79789 0.0
H1837 H 0.81907 0.15419 0.832 0.0
H1838 H 0.82917 0.18632 0.83341 0.0
H1839 H 0.8121 0.22423 0.78671 0.0
H1840 H 0.88689 0.2693 0.75054 0.0
H1841 H 0.86033 0.25245 0.76232 0.0
C1842 C 0.6259 0.84775 0.28703 0.0
C1843 C 0.60767 0.85392 0.28475 0.0
C1844 C 0.64061 0.85821 0.28035 0.0
C1845 C 0.65647 0.90399 0.27051 0.0
H1846 H 0.69166 0.87967 0.23826 0.0
C1847 C 0.72406 0.94002 0.24769 0.0
C1848 C 0.73999 0.9289 0.24826 0.0
C1849 C 0.70649 0.93209 0.24913 0.0
C1850 C 0.68206 0.88665 0.24736 0.0
H1851 H 0.59045 0.87601 0.2742 0.0
H1852 H 0.61647 0.89475 0.26299 0.0
H1853 H 0.66353 0.86359 0.2474 0.0
H1854 H 0.74977 0.90062 0.24986 0.0
H1855 H 0.71948 0.88697 0.25313 0.0
H1856 H 0.67543 0.92663 0.27145 0.0
C1857 C 0.61922 0.88166 0.26971 0.0
C1858 C 0.66592 0.87747 0.25247 0.0
C1859 C 0.60441 0.87098 0.27609 0.0
C1860 C 0.73788 0.90967 0.2497 0.0
C1861 C 0.7204 0.90178 0.25127 0.0
C1862 C 0.6728 0.9131 0.26564 0.0
C1863 C 0.6374 0.87518 0.27156 0.0
C1864 C 0.65321 0.88589 0.2644 0.0
C1865 C 0.70446 0.91287 0.25122 0.0
C1866 C 0.68602 0.90434 0.25438 0.0
H1867 H 0.62879 0.8346 0.29357 0.0
H1868 H 0.65455 0.85304 0.28208 0.0
H1869 H 0.64685 0.9107 0.2798 0.0
H1870 H 0.72512 0.95489 0.24668 0.0
H1871 H 0.69451 0.94104 0.24881 0.0
C1872 C 0.04104 0.11359 0.78669 0.0
C1873 C 0.05785 0.11249 0.77715 0.0
C1874 C 0.03717 0.12873 0.7979 0.0
C1875 C 0.04742 0.17732 0.79614 0.0
H1876 H 0.00843 0.1783 0.83282 0.0
C1877 C 0.97461 0.21222 0.79954 0.0
C1878 C 0.9789 0.23015 0.79355 0.0
C1879 C 0.98834 0.20078 0.80673 0.0
C1880 C 0.01952 0.17836 0.82278 0.0
H1881 H 0.08462 0.12526 0.77336 0.0
H1882 H 0.0779 0.1519 0.79307 0.0
H1883 H 0.02744 0.15064 0.82941 0.0
H1884 H 0.0006 0.25072 0.79182 0.0
H1885 H 0.02466 0.23068 0.8044 0.0
H1886 H 0.03869 0.20439 0.78851 0.0
C1887 C 0.06761 0.14112 0.79171 0.0
C1888 C 0.03041 0.16254 0.82083 0.0
C1889 C 0.07151 0.12586 0.78051 0.0
C1890 C 0.99688 0.23695 0.79632 0.0
C1891 C 0.01067 0.22546 0.80345 0.0
C1892 C 0.0366 0.19313 0.79814 0.0
C1893 C 0.05004 0.14317 0.79977 0.0
C1894 C 0.04358 0.16141 0.8066 0.0
C1895 C 0.0067 0.20701 0.80801 0.0
C1896 C 0.02173 0.19333 0.81061 0.0
H1897 H 0.03044 0.10326 0.78458 0.0
H1898 H 0.02345 0.12982 0.80374 0.0
H1899 H 0.0574 0.177 0.78501 0.0
H1900 H 0.9608 0.20676 0.79784 0.0
H1901 H 0.98479 0.18661 0.80993 0.0
C1902 C 0.10287 0.71376 0.05952 0.0
C1903 C 0.09612 0.70082 0.04671 0.0
C1904 C 0.11985 0.72247 0.05661 0.0
C1905 C 0.16343 0.71848 0.03032 0.0
H1906 H 0.1654 0.77178 0.03527 0.0
C1907 C 0.20831 0.78199 -0.00081 0.0
C1908 C 0.22638 0.77522 0.00141 0.0
C1909 C 0.19344 0.77325 0.00776 0.0
C1910 C 0.16507 0.75689 0.03387 0.0
H1911 H 0.10219 0.68638 0.02118 0.0
H1912 H 0.13163 0.70171 0.01597 0.0
H1913 H 0.13748 0.75521 0.04436 0.0
H1914 H 0.24299 0.75439 0.01516 0.0
H1915 H 0.21694 0.73901 0.03 0.0
H1916 H 0.19071 0.72021 0.01915 0.0
C1917 C 0.12387 0.70508 0.02831 0.0
C1918 C 0.14916 0.74739 0.03925 0.0
C1919 C 0.10688 0.69648 0.03116 0.0
C1920 C 0.22925 0.75978 0.01286 0.0
C1921 C 0.21433 0.75099 0.02141 0.0
C1922 C 0.17935 0.72797 0.02501 0.0
C1923 C 0.13048 0.71828 0.04091 0.0
C1924 C 0.14804 0.72812 0.03715 0.0
C1925 C 0.19625 0.7575 0.01875 0.0
C1926 C 0.18019 0.74732 0.02637 0.0
H1927 H 0.09482 0.71746 0.07157 0.0
H1928 H 0.12466 0.73251 0.06661 0.0
H1929 H 0.16304 0.70361 0.02875 0.0
H1930 H 0.2055 0.79365 0.99028 0.0
H1931 H 0.17964 0.77843 0.00519 0.0
C1932 C 0.53152 0.0055 0.28362 0.0
C1933 C 0.52256 0.00016 0.26725 0.0
C1934 C 0.5295 0.99497 0.29972 0.0
C1935 C 0.50407 0.9549 0.32008 0.0
H1936 H 0.55315 0.93876 0.334 0.0
C1937 C 0.52379 0.88015 0.32828 0.0
C1938 C 0.53972 0.87511 0.33815 0.0
C1939 C 0.51757 0.89837 0.32843 0.0
C1940 C 0.53925 0.94332 0.33089 0.0
H1941 H 0.50306 0.9809 0.25529 0.0
H1942 H 0.49972 0.96241 0.2831 0.0
H1943 H 0.54937 0.96749 0.31744 0.0
H1944 H 0.5603 0.88482 0.35767 0.0
H1945 H 0.54922 0.91657 0.3582 0.0
H1946 H 0.49412 0.92995 0.33248 0.0
C1947 C 0.50827 0.97467 0.28369 0.0
C1948 C 0.53709 0.9599 0.32132 0.0
C1949 C 0.5104 0.98508 0.26764 0.0
C1950 C 0.54808 0.88824 0.34978 0.0
C1951 C 0.5418 0.90649 0.35 0.0
C1952 C 0.50622 0.93831 0.32973 0.0
C1953 C 0.51835 0.97906 0.29971 0.0
C1954 C 0.51962 0.96526 0.31481 0.0
C1955 C 0.52709 0.91197 0.33854 0.0
C1956 C 0.52397 0.93178 0.33419 0.0
H1957 H 0.54094 0.01711 0.28368 0.0
H1958 H 0.53736 -0.00125 0.31189 0.0
H1959 H 0.49038 0.95891 0.31557 0.0
H1960 H 0.51678 0.87023 0.31956 0.0
H1961 H 0.50623 0.90202 0.31937 0.0
C1962 C 0.4478 0.23288 0.53594 0.0
C1963 C 0.45672 0.24377 0.54927 0.0
C1964 C 0.43073 0.2248 0.53976 0.0
C1965 C 0.39043 0.23775 0.56535 0.0
H1966 H 0.36973 0.19443 0.54167 0.0
C1967 C 0.31563 0.23972 0.5434 0.0
C1968 C 0.31385 0.23557 0.52451 0.0
C1969 C 0.33105 0.23359 0.55334 0.0
C1970 C 0.37526 0.20654 0.5485 0.0
H1971 H 0.45554 0.25341 0.57762 0.0
H1972 H 0.42564 0.23934 0.58428 0.0
H1973 H 0.40304 0.19647 0.54663 0.0
H1974 H 0.32541 0.21971 0.50194 0.0
H1975 H 0.3525 0.20975 0.51879 0.0
H1976 H 0.36317 0.24871 0.56576 0.0
C1977 C 0.43186 0.2371 0.57086 0.0
C1978 C 0.39432 0.20765 0.5514 0.0
C1979 C 0.44902 0.24508 0.56706 0.0
C1980 C 0.32669 0.22357 0.51634 0.0
C1981 C 0.34213 0.21759 0.52616 0.0
C1982 C 0.37145 0.23675 0.56229 0.0
C1983 C 0.42218 0.22757 0.55698 0.0
C1984 C 0.40217 0.2237 0.55896 0.0
C1985 C 0.34501 0.22333 0.54451 0.0
C1986 C 0.36375 0.2216 0.55285 0.0
H1987 H 0.45358 0.23149 0.52221 0.0
H1988 H 0.42359 0.21768 0.5287 0.0
H1989 H 0.39602 0.25038 0.57112 0.0
H1990 H 0.30589 0.24879 0.55018 0.0
H1991 H 0.33259 0.23789 0.56759 0.0
C1992 C 0.53102 0.44232 0.31315 0.0
C1993 C 0.54159 0.45464 0.30253 0.0
C1994 C 0.52542 0.4254 0.30581 0.0
C1995 C 0.51514 0.40215 0.26231 0.0
H1996 H 0.51885 0.35756 0.29178 0.0
C1997 C 0.48837 0.33176 0.23551 0.0
C1998 C 0.47864 0.32096 0.24837 0.0
C1999 C 0.4984 0.34724 0.24129 0.0
C2000 C 0.51757 0.3699 0.28342 0.0
H2001 H 0.55452 0.45898 0.2759 0.0
H2002 H 0.54451 0.42935 0.26292 0.0
H2003 H 0.5317 0.38639 0.30352 0.0
H2004 H 0.47169 0.31809 0.27739 0.0
H2005 H 0.48887 0.34501 0.28741 0.0
H2006 H 0.50041 0.38589 0.24251 0.0
C2007 C 0.54066 0.43282 0.27696 0.0
C2008 C 0.52498 0.38639 0.29013 0.0
C2009 C 0.54647 0.44968 0.2844 0.0
C2010 C 0.47935 0.32584 0.26716 0.0
C2011 C 0.48925 0.34133 0.27291 0.0
C2012 C 0.50756 0.38568 0.25565 0.0
C2013 C 0.53011 0.4205 0.28762 0.0
C2014 C 0.52359 0.40274 0.27978 0.0
C2015 C 0.49881 0.35232 0.26006 0.0
C2016 C 0.5084 0.36941 0.26627 0.0
H2017 H 0.52725 0.44569 0.32722 0.0
H2018 H 0.51715 0.41625 0.31428 0.0
H2019 H 0.51375 0.4146 0.25411 0.0
H2020 H 0.48817 0.32823 0.22097 0.0
H2021 H 0.5058 0.35525 0.23105 0.0
C2022 C 0.94354 0.27201 0.50438 0.0
C2023 C 0.96175 0.27115 0.5111 0.0
C2024 C 0.92977 0.28088 0.51454 0.0
C2025 C 0.91773 0.29078 0.56219 0.0
H2026 H 0.87747 0.31817 0.53985 0.0
C2027 C 0.84127 0.32374 0.58053 0.0
C2028 C 0.83302 0.30798 0.58836 0.0
C2029 C 0.8593 0.32301 0.57372 0.0
C2030 C 0.88875 0.31084 0.5464 0.0
H2031 H 0.97993 0.28034 0.53316 0.0
H2032 H 0.95576 0.29543 0.55103 0.0
H2033 H 0.9048 0.31089 0.52155 0.0
H2034 H 0.8378 0.27945 0.59626 0.0
H2035 H 0.86921 0.27826 0.58459 0.0
H2036 H 0.90137 0.29016 0.58685 0.0
C2037 C 0.95218 0.28901 0.53799 0.0
C2038 C 0.90431 0.30653 0.53587 0.0
C2039 C 0.966 0.28028 0.52776 0.0
C2040 C 0.8437 0.2919 0.59046 0.0
C2041 C 0.86175 0.2912 0.58375 0.0
C2042 C 0.9021 0.29498 0.57269 0.0
C2043 C 0.93386 0.28904 0.53167 0.0
C2044 C 0.91873 0.29605 0.54351 0.0
C2045 C 0.86951 0.30656 0.57475 0.0
C2046 C 0.88726 0.30465 0.56476 0.0
H2047 H 0.93964 0.26507 0.49174 0.0
H2048 H 0.91572 0.28051 0.5094 0.0
H2049 H 0.92859 0.28258 0.56842 0.0
H2050 H 0.83359 0.33648 0.57909 0.0
H2051 H 0.86505 0.33514 0.56712 0.0
C2052 C 0.02239 0.5605 0.75605 0.0
C2053 C 0.01195 0.55518 0.77142 0.0
C2054 C 0.02003 0.57802 0.74827 0.0
C2055 C 0.02523 0.61903 0.74618 0.0
H2056 H 0.98244 0.64998 0.75501 0.0
C2057 C 0.01636 0.69606 0.77106 0.0
C2058 C 0.02518 0.7063 0.75718 0.0
C2059 C 0.0108 0.6779 0.76772 0.0
C2060 C 0.99439 0.64142 0.75223 0.0
H2061 H 0.99051 0.56332 0.79045 0.0
H2062 H 0.98691 0.59417 0.77773 0.0
H2063 H 0.97933 0.61641 0.75656 0.0
H2064 H 0.03477 0.70596 0.72886 0.0
H2065 H 0.02565 0.67378 0.72318 0.0
H2066 H 0.0402 0.64416 0.74188 0.0
C2067 C 0.99639 0.58483 0.77094 0.0
C2068 C 0.99271 0.62221 0.75328 0.0
C2069 C 0.99843 0.56714 0.77835 0.0
C2070 C 0.02783 0.69833 0.73969 0.0
C2071 C 0.02267 0.68 0.73647 0.0
C2072 C 0.02677 0.63817 0.74468 0.0
C2073 C 0.00766 0.59079 0.75622 0.0
C2074 C 0.0083 0.61076 0.75108 0.0
C2075 C 0.01435 0.66959 0.75055 0.0
C2076 C 0.01155 0.64952 0.74838 0.0
H2077 H 0.03293 0.55139 0.75063 0.0
H2078 H 0.02858 0.58182 0.73661 0.0
H2079 H 0.03769 0.61091 0.74467 0.0
H2080 H 0.01418 0.70201 0.78461 0.0
H2081 H 0.00461 0.67004 0.77885 0.0
C2082 C 0.57861 0.79496 0.02177 0.0
C2083 C 0.56373 0.79556 0.03424 0.0
C2084 C 0.59238 0.78158 0.02352 0.0
C2085 C 0.61284 0.75324 0.06038 0.0
H2086 H 0.64593 0.7382 0.02104 0.0
C2087 C 0.68164 0.71807 0.07694 0.0
C2088 C 0.69691 0.72723 0.06919 0.0
C2089 C 0.66384 0.72135 0.07025 0.0
C2090 C 0.63674 0.74221 0.03214 0.0
H2091 H 0.55071 0.78111 0.05709 0.0
H2092 H 0.57423 0.75734 0.05958 0.0
H2093 H 0.61626 0.75238 0.01337 0.0
H2094 H 0.70565 0.74587 0.04748 0.0
H2095 H 0.67452 0.75172 0.03584 0.0
H2096 H 0.63344 0.74347 0.07913 0.0
C2097 C 0.57567 0.76773 0.04891 0.0
C2098 C 0.61977 0.75039 0.02778 0.0
C2099 C 0.56201 0.78128 0.04732 0.0
C2100 C 0.69412 0.73881 0.05386 0.0
C2101 C 0.67632 0.742 0.04708 0.0
C2102 C 0.62966 0.7449 0.06471 0.0
C2103 C 0.59146 0.76823 0.0376 0.0
C2104 C 0.60786 0.75654 0.04187 0.0
C2105 C 0.66096 0.73375 0.05559 0.0
C2106 C 0.64201 0.73979 0.05067 0.0
H2107 H 0.58013 0.80538 0.01115 0.0
H2108 H 0.60428 0.7825 0.01452 0.0
H2109 H 0.60429 0.75807 0.07166 0.0
H2110 H 0.68326 0.70916 0.08883 0.0
H2111 H 0.65225 0.7147 0.07698 0.0
C2112 C 0.83649 0.03973 0.1933 0.0
C2113 C 0.82063 0.03934 0.20448 0.0
C2114 C 0.83644 0.04965 0.17672 0.0
C2115 C 0.80951 0.0819 0.14745 0.0
H2116 H 0.80739 0.04068 0.11347 0.0
C2117 C 0.76255 0.04673 0.08701 0.0
C2118 C 0.74603 0.05293 0.09515 0.0
C2119 C 0.77955 0.05377 0.0929 0.0
C2120 C 0.8084 0.05278 0.12219 0.0
H2121 H 0.79316 0.05026 0.20833 0.0
H2122 H 0.79309 0.06791 0.17957 0.0
H2123 H 0.82511 0.03794 0.14141 0.0
H2124 H 0.73434 0.07375 0.1132 0.0
H2125 H 0.76347 0.08487 0.12446 0.0
H2126 H 0.79217 0.09652 0.12856 0.0
C2127 C 0.80555 0.0606 0.18349 0.0
C2128 C 0.81867 0.05111 0.13839 0.0
C2129 C 0.80545 0.05036 0.1998 0.0
C2130 C 0.74681 0.068 0.10732 0.0
C2131 C 0.76374 0.07472 0.11351 0.0
C2132 C 0.79964 0.08379 0.13094 0.0
C2133 C 0.82069 0.05963 0.17137 0.0
C2134 C 0.81785 0.06498 0.15188 0.0
C2135 C 0.7804 0.06674 0.1074 0.0
C2136 C 0.79732 0.06849 0.11911 0.0
H2137 H 0.84832 0.03122 0.19666 0.0
H2138 H 0.84818 0.04854 0.16751 0.0
H2139 H 0.80904 0.09296 0.15752 0.0
H2140 H 0.76255 0.03548 0.07719 0.0
H2141 H 0.79203 0.04787 0.08717 0.0
C2142 C 0.33769 0.58107 0.46812 0.0
C2143 C 0.33394 0.56461 0.47761 0.0
C2144 C 0.32487 0.58829 0.45566 0.0
C2145 C 0.27822 0.58035 0.43437 0.0
H2146 H 0.30608 0.58737 0.38923 0.0
C2147 C 0.2572 0.55068 0.36505 0.0
C2148 C 0.26576 0.55721 0.34893 0.0
C2149 C 0.25981 0.55986 0.38182 0.0
C2150 C 0.29782 0.58607 0.40163 0.0
H2151 H 0.31339 0.54361 0.48289 0.0
H2152 H 0.29121 0.55565 0.46056 0.0
H2153 H 0.32178 0.58852 0.41841 0.0
H2154 H 0.28154 0.57951 0.33699 0.0
H2155 H 0.28536 0.5962 0.36611 0.0
H2156 H 0.25438 0.57674 0.41717 0.0
C2157 C 0.3038 0.56335 0.46296 0.0
C2158 C 0.30694 0.58671 0.41855 0.0
C2159 C 0.31653 0.55635 0.47571 0.0
C2160 C 0.27496 0.57423 0.34935 0.0
C2161 C 0.27725 0.58363 0.36604 0.0
C2162 C 0.26902 0.57976 0.41734 0.0
C2163 C 0.30824 0.57889 0.45211 0.0
C2164 C 0.29746 0.58297 0.43508 0.0
C2165 C 0.27087 0.57583 0.38269 0.0
C2166 C 0.27892 0.58169 0.40071 0.0
H2167 H 0.35095 0.58781 0.46967 0.0
H2168 H 0.32852 0.60056 0.44791 0.0
H2169 H 0.27044 0.57779 0.44689 0.0
H2170 H 0.25015 0.53749 0.36506 0.0
H2171 H 0.25471 0.55333 0.39428 0.0
C2172 C 0.76473 0.98212 0.60467 0.0
C2173 C 0.77054 0.99862 0.59614 0.0
C2174 C 0.75475 0.9826 0.62119 0.0
C2175 C 0.73144 0.01428 0.6545 0.0
H2176 H 0.75961 0.98713 0.69112 0.0
C2177 C 0.7299 0.03487 0.73113 0.0
C2178 C 0.7478 0.0382 0.73791 0.0
C2179 C 0.72733 0.02481 0.71485 0.0
C2180 C 0.75141 0.99461 0.68107 0.0
H2181 H 0.76869 0.02857 0.59761 0.0
H2182 H 0.75145 0.02934 0.62603 0.0
H2183 H 0.76293 0.97946 0.65856 0.0
H2184 H 0.77687 0.03263 0.73374 0.0
H2185 H 0.77248 0.01531 0.70527 0.0
H2186 H 0.72114 0.03048 0.67693 0.0
C2187 C 0.75453 0.016 0.62 0.0
C2188 C 0.75314 0.99009 0.66241 0.0
C2189 C 0.76458 0.01553 0.60361 0.0
C2190 C 0.76297 0.0305 0.72866 0.0
C2191 C 0.7604 0.02034 0.71251 0.0
C2192 C 0.72971 0.01881 0.67317 0.0
C2193 C 0.75021 -0.00042 0.6294 0.0
C2194 C 0.74396 0.00056 0.64887 0.0
C2195 C 0.74259 0.01774 0.7052 0.0
C2196 C 0.74047 0.00968 0.68651 0.0
H2197 H 0.76857 0.96883 0.59905 0.0
H2198 H 0.75135 0.96972 0.628 0.0
H2199 H 0.72397 0.02239 0.64436 0.0
H2200 H 0.71797 0.04072 0.73796 0.0
H2201 H 0.71346 0.02298 0.70953 0.0
C2202 C 0.32757 0.52504 0.81013 0.0
C2203 C 0.33511 0.54278 0.81152 0.0
C2204 C 0.32975 0.5124 0.82456 0.0
C2205 C 0.31977 0.49787 0.86197 0.0
H2206 H 0.35666 0.5016 0.90063 0.0
C2207 C 0.31645 0.50344 0.94331 0.0
C2208 C 0.30448 0.48879 0.94754 0.0
C2209 C 0.32563 0.50398 0.92637 0.0
C2210 C 0.34636 0.50021 0.88986 0.0
H2211 H 0.35153 0.56117 0.82825 0.0
H2212 H 0.35481 0.5396 0.85386 0.0
H2213 H 0.36375 0.51295 0.86962 0.0
H2214 H 0.29365 0.4626 0.93792 0.0
H2215 H 0.30958 0.46361 0.90815 0.0
H2216 H 0.30222 0.4857 0.88229 0.0
C2217 C 0.34778 0.53492 0.84152 0.0
C2218 C 0.35035 0.5068 0.87212 0.0
C2219 C 0.34592 0.54737 0.82689 0.0
C2220 C 0.30286 0.47402 0.93505 0.0
C2221 C 0.31189 0.47464 0.91799 0.0
C2222 C 0.31592 0.49106 0.87957 0.0
C2223 C 0.33897 0.51756 0.84091 0.0
C2224 C 0.33677 0.50653 0.85818 0.0
C2225 C 0.32286 0.48994 0.91325 0.0
C2226 C 0.32885 0.49291 0.8939 0.0
H2227 H 0.31907 0.52141 0.79835 0.0
H2228 H 0.32319 0.49901 0.82335 0.0
H2229 H 0.30879 0.49758 0.85182 0.0
H2230 H 0.31803 0.5149 0.9528 0.0
H2231 H 0.33385 0.51603 0.92305 0.0
C2232 C 0.84095 0.07165 0.77169 0.0
C2233 C 0.82949 0.07421 0.7562 0.0
C2234 C 0.86014 0.07062 0.7696 0.0
C2235 C 0.90089 0.06343 0.76072 0.0
H2236 H 0.91995 0.09882 0.7253 0.0
C2237 C 0.97833 0.06861 0.74023 0.0
C2238 C 0.98547 0.08632 0.73665 0.0
C2239 C 0.95953 0.06617 0.74394 0.0
C2240 C 0.91489 0.08899 0.73538 0.0
H2241 H 0.82901 0.07603 0.72629 0.0
H2242 H 0.86234 0.07371 0.72261 0.0
H2243 H 0.88683 0.09509 0.72874 0.0
H2244 H 0.97865 0.11545 0.73511 0.0
H2245 H 0.94599 0.11124 0.74192 0.0
H2246 H 0.92913 0.05775 0.76765 0.0
C2247 C 0.85661 0.07312 0.73642 0.0
C2248 C 0.89586 0.08661 0.73715 0.0
C2249 C 0.83749 0.07431 0.73852 0.0
C2250 C 0.97358 0.10161 0.73767 0.0
C2251 C 0.95482 0.09917 0.74144 0.0
C2252 C 0.92001 0.06583 0.75895 0.0
C2253 C 0.86822 0.07199 0.75197 0.0
C2254 C 0.88859 0.07381 0.74982 0.0
C2255 C 0.94748 0.08139 0.74419 0.0
C2256 C 0.92722 0.07872 0.74632 0.0
H2257 H 0.83521 0.07155 0.78551 0.0
H2258 H 0.86867 0.06979 0.78187 0.0
H2259 H 0.89575 0.05339 0.77056 0.0
H2260 H 0.9871 0.05651 0.73948 0.0
H2261 H 0.95433 0.05228 0.74587 0.0
C2262 C 0.30248 0.71322 0.98803 0.0
C2263 C 0.2919 0.72291 0.97494 0.0
C2264 C 0.30268 0.69396 0.98822 0.0
C2265 C 0.29284 0.65286 0.95943 0.0
H2266 H 0.29304 0.62777 0.00681 0.0
C2267 C 0.2782 0.57487 0.96873 0.0
C2268 C 0.28793 0.5652 0.9825 0.0
C2269 C 0.28067 0.59386 0.96642 0.0
C2270 C 0.2933 0.63456 0.99346 0.0
H2271 H 0.27315 0.71993 0.95177 0.0
H2272 H 0.2732 0.68612 0.95231 0.0
H2273 H 0.29216 0.66134 0.0058 0.0
H2274 H 0.30864 0.56771 0.00399 0.0
H2275 H 0.31305 0.60097 -0.00011 0.0
H2276 H 0.29359 0.62592 0.94716 0.0
C2277 C 0.28157 0.6935 0.96227 0.0
C2278 C 0.29275 0.65383 0.99287 0.0
C2279 C 0.28142 0.71287 0.96205 0.0
C2280 C 0.30096 0.57475 0.99324 0.0
C2281 C 0.30335 0.59382 0.99101 0.0
C2282 C 0.29331 0.63354 0.96004 0.0
C2283 C 0.29223 0.68382 0.97538 0.0
C2284 C 0.29252 0.66325 0.97586 0.0
C2285 C 0.29287 0.60365 0.97789 0.0
C2286 C 0.29353 0.62417 0.97707 0.0
H2287 H 0.31084 0.72048 0.99809 0.0
H2288 H 0.31131 0.68702 0.99829 0.0
H2289 H 0.29296 0.65966 0.9461 0.0
H2290 H 0.26812 0.56789 0.96015 0.0
H2291 H 0.27231 0.601 0.95626 0.0
C2292 C 0.73511 0.00339 0.25196 0.0
C2293 C 0.74918 0.01676 0.25142 0.0
C2294 C 0.71659 0.00857 0.25181 0.0
C2295 C 0.68421 0.04735 0.25916 0.0
H2296 H 0.6529 0.01819 0.22688 0.0
C2297 C 0.604 0.0533 0.25769 0.0
C2298 C 0.59537 0.05189 0.24033 0.0
C2299 C 0.62303 0.05027 0.25949 0.0
C2300 C 0.66144 0.0266 0.23584 0.0
H2301 H 0.75478 0.04616 0.2511 0.0
H2302 H 0.72216 0.05531 0.25063 0.0
H2303 H 0.68551 0.01084 0.2294 0.0
H2304 H 0.6002 0.04698 0.21113 0.0
H2305 H 0.63316 0.04183 0.21425 0.0
H2306 H 0.65999 0.06329 0.26533 0.0
C2307 C 0.72559 0.04077 0.25127 0.0
C2308 C 0.68013 0.02223 0.23747 0.0
C2309 C 0.74425 0.03554 0.25149 0.0
C2310 C 0.60627 0.04786 0.22477 0.0
C2311 C 0.62522 0.04487 0.22656 0.0
C2312 C 0.66541 0.05172 0.25755 0.0
C2313 C 0.71156 0.02729 0.25104 0.0
C2314 C 0.69174 0.03246 0.24921 0.0
C2315 C 0.63382 0.04578 0.24396 0.0
C2316 C 0.65382 0.04138 0.24584 0.0
H2317 H 0.73839 0.98881 0.25236 0.0
H2318 H 0.70616 0.99784 0.25215 0.0
H2319 H 0.69277 0.05544 0.26839 0.0
H2320 H 0.59601 0.05642 0.26995 0.0
H2321 H 0.6292 0.05095 0.27311 0.0
C2322 C 0.3144 0.47348 0.51301 0.0
C2323 C 0.33259 0.47891 0.50908 0.0
C2324 C 0.30926 0.45487 0.51173 0.0
C2325 C 0.33054 0.40795 0.51048 0.0
H2326 H 0.28111 0.39259 0.49696 0.0
C2327 C 0.29021 0.33774 0.48564 0.0
C2328 C 0.30015 0.32473 0.49609 0.0
C2329 C 0.29254 0.35664 0.48871 0.0
C2330 C 0.29505 0.39658 0.5006 0.0
H2331 H 0.35937 0.46946 0.49972 0.0
H2332 H 0.35025 0.43734 0.49643 0.0
H2333 H 0.28875 0.42528 0.49742 0.0
H2334 H 0.31918 0.32129 0.51895 0.0
H2335 H 0.32244 0.3542 0.52509 0.0
H2336 H 0.33726 0.37938 0.51252 0.0
C2337 C 0.34008 0.44713 0.50134 0.0
C2338 C 0.29937 0.41542 0.50112 0.0
C2339 C 0.34529 0.46561 0.503 0.0
C2340 C 0.31153 0.33099 0.51049 0.0
C2341 C 0.31353 0.3499 0.51387 0.0
C2342 C 0.32634 0.38916 0.50962 0.0
C2343 C 0.32215 0.44139 0.50618 0.0
C2344 C 0.31724 0.42137 0.50593 0.0
C2345 C 0.30454 0.36302 0.50263 0.0
C2346 C 0.30856 0.38316 0.50459 0.0
H2347 H 0.30438 0.48345 0.51791 0.0
H2348 H 0.29539 0.45102 0.51575 0.0
H2349 H 0.34433 0.41189 0.51471 0.0
H2350 H 0.28127 0.33338 0.47446 0.0
H2351 H 0.28551 0.36618 0.47959 0.0
C2352 C 0.48368 0.53925 0.32687 0.0
C2353 C 0.49421 0.53144 0.31256 0.0
C2354 C 0.46606 0.54624 0.3234 0.0
C2355 C 0.42774 0.5418 0.28982 0.0
H2356 H 0.40585 0.5793 0.3212 0.0
C2357 C 0.34998 0.55658 0.28749 0.0
C2358 C 0.34202 0.55239 0.30469 0.0
C2359 C 0.36899 0.5598 0.28613 0.0
C2360 C 0.41185 0.56898 0.31219 0.0
H2361 H 0.49486 0.52576 0.28315 0.0
H2362 H 0.46429 0.53854 0.27694 0.0
H2363 H 0.43912 0.57391 0.3224 0.0
H2364 H 0.34718 0.54977 0.33404 0.0
H2365 H 0.38022 0.55607 0.33178 0.0
H2366 H 0.40037 0.5368 0.27981 0.0
C2367 C 0.46943 0.53876 0.29099 0.0
C2368 C 0.43087 0.56573 0.31298 0.0
C2369 C 0.48701 0.5315 0.29452 0.0
C2370 C 0.353 0.55313 0.32066 0.0
C2371 C 0.37189 0.55673 0.31935 0.0
C2372 C 0.40879 0.54529 0.28882 0.0
C2373 C 0.45855 0.5459 0.30546 0.0
C2374 C 0.43898 0.5516 0.30232 0.0
C2375 C 0.3802 0.55926 0.302 0.0
C2376 C 0.40058 0.55847 0.30043 0.0
H2377 H 0.48875 0.53939 0.34095 0.0
H2378 H 0.45808 0.55124 0.33501 0.0
H2379 H 0.43332 0.53067 0.28156 0.0
H2380 H 0.34185 0.55579 0.27494 0.0
H2381 H 0.37509 0.56172 0.2726 0.0
C2382 C 0.78214 0.08808 0.557 0.0
C2383 C 0.7963 0.0767 0.56384 0.0
C2384 C 0.78064 0.10642 0.56276 0.0
C2385 C 0.8089 0.14426 0.58156 0.0
H2386 H 0.76145 0.16842 0.5872 0.0
C2387 C 0.77639 0.21995 0.60326 0.0
C2388 C 0.78815 0.23162 0.59311 0.0
C2389 C 0.77748 0.20077 0.60132 0.0
C2390 C 0.77483 0.16187 0.58588 0.0
H2391 H 0.81961 0.0755 0.58264 0.0
H2392 H 0.81683 0.10749 0.59293 0.0
H2393 H 0.76269 0.13519 0.58209 0.0
H2394 H 0.81036 0.2322 0.57301 0.0
H2395 H 0.81206 0.19878 0.56941 0.0
H2396 H 0.82104 0.17093 0.5855 0.0
C2397 C 0.80704 0.10227 0.58288 0.0
C2398 C 0.77553 0.14284 0.58275 0.0
C2399 C 0.80853 0.08388 0.57711 0.0
C2400 C 0.80111 0.22364 0.58106 0.0
C2401 C 0.80217 0.20445 0.57909 0.0
C2402 C 0.8082 0.1633 0.58471 0.0
C2403 C 0.79326 0.11385 0.57553 0.0
C2404 C 0.79256 0.13382 0.58033 0.0
C2405 C 0.79033 0.19278 0.58916 0.0
C2406 C 0.79115 0.17238 0.5867 0.0
H2407 H 0.77249 0.083 0.54675 0.0
H2408 H 0.76999 0.11497 0.55665 0.0
H2409 H 0.82224 0.13781 0.57957 0.0
H2410 H 0.7663 0.2256 0.61275 0.0
H2411 H 0.76832 0.1922 0.60947 0.0
C2412 C 0.10365 0.54923 0.80906 0.0
C2413 C 0.09475 0.53687 0.797 0.0
C2414 C 0.12273 0.55175 0.80817 0.0
C2415 C 0.16402 0.54478 0.77917 0.0
H2416 H 0.18936 0.54398 0.82643 0.0
C2417 C 0.24346 0.54615 0.78363 0.0
C2418 C 0.25076 0.55905 0.79619 0.0
C2419 C 0.22474 0.54143 0.78422 0.0
C2420 C 0.18249 0.54433 0.81313 0.0
H2421 H 0.09881 0.5183 0.77383 0.0
H2422 H 0.13217 0.52278 0.77226 0.0
H2423 H 0.15583 0.54127 0.82545 0.0
H2424 H 0.24435 0.5762 0.81995 0.0
H2425 H 0.21185 0.56803 0.82091 0.0
H2426 H 0.19069 0.54809 0.76687 0.0
C2427 C 0.12435 0.53049 0.78241 0.0
C2428 C 0.16328 0.54285 0.81257 0.0
C2429 C 0.10522 0.52793 0.78331 0.0
C2430 C 0.2392 0.56622 0.81005 0.0
C2431 C 0.22053 0.56149 0.81064 0.0
C2432 C 0.18327 0.54631 0.77974 0.0
C2433 C 0.13336 0.54201 0.79519 0.0
C2434 C 0.15381 0.54326 0.7956 0.0
C2435 C 0.21297 0.54944 0.79742 0.0
C2436 C 0.1927 0.54629 0.79674 0.0
H2437 H 0.096 0.55643 0.81971 0.0
H2438 H 0.12923 0.56104 0.81794 0.0
H2439 H 0.15711 0.54525 0.7659 0.0
H2440 H 0.25198 0.54033 0.7728 0.0
H2441 H 0.21939 0.53185 0.77405 0.0
C2442 C 0.71939 0.94931 0.10104 0.0
C2443 C 0.73244 0.96119 0.09296 0.0
C2444 C 0.72279 0.93039 0.10223 0.0
C2445 C 0.75794 0.89351 0.09686 0.0
H2446 H 0.71602 0.86559 0.07847 0.0
C2447 C 0.76373 0.81733 0.0735 0.0
C2448 C 0.74968 0.8053 0.07942 0.0
C2449 C 0.76203 0.83639 0.07601 0.0
C2450 C 0.72779 0.87312 0.08384 0.0
H2451 H 0.75988 0.96278 0.08112 0.0
H2452 H 0.7658 0.92957 0.08309 0.0
H2453 H 0.71313 0.89868 0.08321 0.0
H2454 H 0.72257 0.80385 0.09195 0.0
H2455 H 0.7195 0.83713 0.09624 0.0
H2456 H 0.77262 0.86778 0.09728 0.0
C2457 C 0.75297 0.93494 0.08859 0.0
C2458 C 0.72613 0.8921 0.08662 0.0
C2459 C 0.7496 0.95397 0.08749 0.0
C2460 C 0.73361 0.81277 0.08727 0.0
C2461 C 0.73186 0.83184 0.08968 0.0
C2462 C 0.7596 0.87443 0.09408 0.0
C2463 C 0.73925 0.92288 0.09524 0.0
C2464 C 0.74116 0.90254 0.09316 0.0
C2465 C 0.74617 0.84384 0.08435 0.0
C2466 C 0.74453 0.86405 0.08748 0.0
H2467 H 0.70611 0.95451 0.10557 0.0
H2468 H 0.71214 0.92153 0.10787 0.0
H2469 H 0.76972 0.90115 0.10202 0.0
H2470 H 0.7764 0.812 0.06759 0.0
H2471 H 0.77318 0.84529 0.07152 0.0
C2472 C 0.04658 0.75618 0.85096 0.0
C2473 C 0.03304 0.75182 0.83772 0.0
C2474 C 0.04282 0.75462 0.86979 0.0
C2475 C 0.01238 0.72944 0.9018 0.0
H2476 H 0.03911 0.75858 0.93798 0.0
C2477 C 0.01579 0.70837 0.9787 0.0
C2478 C 0.03422 0.70485 0.98364 0.0
C2479 C 0.01178 0.71871 0.96281 0.0
C2480 C 0.03136 0.75049 0.92806 0.0
H2481 H 0.00459 0.74324 0.834 0.0
H2482 H 0.99789 0.74082 0.86702 0.0
H2483 H 0.03851 0.76845 0.90573 0.0
H2484 H 0.06281 0.71033 0.97688 0.0
H2485 H 0.05585 0.72892 0.94962 0.0
H2486 H 0.00561 0.71128 0.92419 0.0
C2487 C 0.01156 0.74512 0.86276 0.0
C2488 C 0.03112 0.75602 0.90955 0.0
C2489 C 0.01537 0.74659 0.84382 0.0
C2490 C 0.04849 0.71293 0.97334 0.0
C2491 C 0.0445 0.7236 0.9578 0.0
C2492 C 0.0124 0.72406 0.92037 0.0
C2493 C 0.02536 0.7488 0.87599 0.0
C2494 C 0.02234 0.74512 0.89604 0.0
C2495 C 0.02615 0.72605 0.95199 0.0
C2496 C 0.02251 0.73413 0.93352 0.0
H2497 H 0.06036 0.76027 0.84682 0.0
H2498 H 0.05395 0.75723 0.87944 0.0
H2499 H 0.00558 0.72059 0.89184 0.0
H2500 H 0.00456 0.70208 0.98634 0.0
H2501 H 0.99752 0.7204 0.95858 0.0
C2502 C 0.52931 0.83651 0.23854 0.0
C2503 C 0.54303 0.84361 0.25032 0.0
C2504 C 0.52967 0.84033 0.21961 0.0
C2505 C 0.54924 0.87038 0.18339 0.0
H2506 H 0.54634 0.8262 0.15318 0.0
C2507 C 0.54658 0.87099 0.10306 0.0
C2508 C 0.55794 0.8581 0.09399 0.0
C2509 C 0.54456 0.87049 0.12228 0.0
C2510 C 0.54723 0.83865 0.16143 0.0
H2511 H 0.56707 0.86148 0.2516 0.0
H2512 H 0.56755 0.86826 0.21857 0.0
H2513 H 0.54207 0.82392 0.18654 0.0
H2514 H 0.57622 0.83471 0.09801 0.0
H2515 H 0.57252 0.83374 0.13154 0.0
H2516 H 0.55451 0.88506 0.15817 0.0
C2517 C 0.55659 0.85965 0.224 0.0
C2518 C 0.54458 0.83738 0.1805 0.0
C2519 C 0.55631 0.85573 0.24294 0.0
C2520 C 0.56738 0.84484 0.10457 0.0
C2521 C 0.56518 0.84421 0.12375 0.0
C2522 C 0.55166 0.87168 0.16423 0.0
C2523 C 0.54366 0.85146 0.21206 0.0
C2524 C 0.54563 0.85321 0.19171 0.0
C2525 C 0.55368 0.85696 0.1328 0.0
C2526 C 0.55083 0.85579 0.15309 0.0
H2527 H 0.51881 0.82721 0.24373 0.0
H2528 H 0.51934 0.83407 0.21077 0.0
H2529 H 0.5501 0.88279 0.1917 0.0
H2530 H 0.53916 0.88143 0.0953 0.0
H2531 H 0.53552 0.88042 0.12887 0.0
C2532 C 0.46299 0.26981 0.45781 0.0
C2533 C 0.47809 0.26075 0.466 0.0
C2534 C 0.45935 0.26779 0.43899 0.0
C2535 C 0.47018 0.24062 0.39699 0.0
H2536 H 0.46082 0.2873 0.37234 0.0
C2537 C 0.47198 0.24834 0.31738 0.0
C2538 C 0.45816 0.2593 0.30924 0.0
C2539 C 0.47421 0.24794 0.33658 0.0
C2540 C 0.46319 0.27411 0.379 0.0
H2541 H 0.50051 0.24154 0.46111 0.0
H2542 H 0.49419 0.23804 0.42809 0.0
H2543 H 0.46409 0.2865 0.40577 0.0
H2544 H 0.4358 0.27838 0.31496 0.0
H2545 H 0.43965 0.27768 0.34835 0.0
H2546 H 0.46936 0.22828 0.37008 0.0
C2547 C 0.48511 0.24665 0.43629 0.0
C2548 C 0.46504 0.27363 0.39819 0.0
C2549 C 0.48873 0.24863 0.45521 0.0
C2550 C 0.44676 0.27002 0.32072 0.0
C2551 C 0.44897 0.2696 0.3399 0.0
C2552 C 0.4683 0.24109 0.37773 0.0
C2553 C 0.47077 0.25673 0.42786 0.0
C2554 C 0.4685 0.25689 0.40744 0.0
C2555 C 0.46264 0.25847 0.34808 0.0
C2556 C 0.46477 0.25786 0.36852 0.0
H2557 H 0.4544 0.2791 0.46579 0.0
H2558 H 0.44791 0.27537 0.43302 0.0
H2559 H 0.47272 0.2275 0.40371 0.0
H2560 H 0.48099 0.2399 0.30894 0.0
H2561 H 0.48504 0.23943 0.3424 0.0
C2562 C 0.99324 0.26362 0.70714 0.0
C2563 C 0.97546 0.26969 0.71187 0.0
C2564 C 0.99753 0.25919 0.68886 0.0
C2565 C 0.9804 0.26417 0.64042 0.0
H2566 H 0.01532 0.22454 0.6315 0.0
C2567 C 0.99546 0.23336 0.56785 0.0
C2568 C 0.01423 0.23408 0.56299 0.0
C2569 C 0.98998 0.23683 0.58606 0.0
C2570 C 0.00554 0.23562 0.63383 0.0
H2571 H 0.94818 0.27589 0.70121 0.0
H2572 H 0.95538 0.26747 0.66944 0.0
H2573 H 0.00704 0.23256 0.66313 0.0
H2574 H 0.04201 0.23828 0.57334 0.0
H2575 H 0.03246 0.24374 0.60527 0.0
H2576 H 0.97865 0.26675 0.61093 0.0
C2577 C 0.96625 0.26663 0.67968 0.0
C2578 C 0.0009 0.24037 0.65195 0.0
C2579 C 0.96207 0.2714 0.69793 0.0
C2580 C 0.02745 0.2377 0.57672 0.0
C2581 C 0.02201 0.24075 0.59497 0.0
C2582 C 0.98481 0.25917 0.62229 0.0
C2583 C 0.98402 0.26036 0.6749 0.0
C2584 C 0.98845 0.25489 0.65552 0.0
C2585 C 0.00323 0.24061 0.59974 0.0
C2586 C 0.99757 0.24501 0.61887 0.0
H2587 H 0.0039 0.26233 0.71758 0.0
H2588 H 0.0115 0.2549 0.68571 0.0
H2589 H 0.97101 0.27561 0.64254 0.0
H2590 H 0.98499 0.23069 0.55748 0.0
H2591 H 0.97542 0.2366 0.58947 0.0
loop_
_geom_bond_atom_site_label_1
_geom_bond_atom_site_label_2
_geom_bond_distance
_geom_bond_site_symmetry_2
_ccdc_geom_bond_type
Co0 N4 2.148 . S
Co0 N10 2.128 . S
Co0 N20 2.194 . S
Co0 O25 2.351 . S
Co0 O26 2.155 . S
Co0 O27 2.096 . S
C1 N4 1.301 . S
C1 N5 1.328 . S
C1 H6 0.930 . S
C2 C3 1.321 1_455 S
C2 N4 1.368 . S
C2 H7 0.897 1_455 S
C3 C2 1.321 1_655 S
C3 N5 1.350 1_655 S
C3 H29 0.931 . S
N4 Co0 2.148 . S
N4 C1 1.301 . S
N4 C2 1.368 . S
N5 C1 1.328 . S
N5 C3 1.350 1_455 S
H6 C1 0.930 . S
H7 C2 0.897 1_655 S
C8 O9 1.224 . S
C8 O27 1.247 . S
O9 C8 1.224 . S
N10 Co0 2.128 . S
N10 C11 1.355 . S
N10 C13 1.311 . S
C11 N10 1.355 . S
C11 C12 1.363 . S
C11 H23 0.929 . S
C12 C11 1.363 . S
C12 N14 1.375 . S
C12 H30 0.931 . S
C13 N10 1.311 . S
C13 N14 1.347 . S
C13 H24 0.929 . S
N14 C12 1.375 . S
N14 C13 1.347 . S
C15 C18 1.365 . S
C15 N20 1.328 . S
C15 H21 0.929 . S
C16 C17 1.362 . S
C16 C19 1.378 1_565 S
C16 H31 0.929 . S
C17 C16 1.362 . S
C17 C18 1.366 1_565 S
C18 C15 1.365 . S
C18 C17 1.366 1_545 S
C18 H32 0.930 1_545 S
C19 C16 1.378 1_545 S
C19 N20 1.315 . S
C19 H22 0.930 . S
N20 Co0 2.194 . S
N20 C15 1.328 . S
N20 C19 1.315 . S
H21 C15 0.929 . S
H22 C19 0.930 . S
H23 C11 0.929 . S
H24 C13 0.929 . S
O25 Co0 2.351 . S
O25 C28 1.244 . S
O26 Co0 2.155 . S
O26 C28 1.240 . S
O27 Co0 2.096 . S
O27 C8 1.247 . S
C28 O25 1.244 . S
C28 O26 1.240 . S
H29 C3 0.931 . S
H30 C12 0.931 . S
H31 C16 0.929 . S
H32 C18 0.930 1_565 S
Co33 N37 2.148 . S
Co33 N43 2.128 . S
Co33 N53 2.194 . S
Co33 O58 2.351 . S
Co33 O59 2.155 . S
Co33 O60 2.096 . S
C34 N37 1.301 . S
C34 N38 1.328 . S
C34 H39 0.930 . S
C35 C36 1.333 . S
C35 N37 1.317 . S
C35 H40 0.930 . S
C36 C35 1.333 . S
C36 N38 1.350 . S
C36 H62 0.931 . S
N37 Co33 2.148 . S
N37 C34 1.301 . S
N37 C35 1.317 . S
N38 C34 1.328 . S
N38 C36 1.350 . S
H39 C34 0.930 . S
H40 C35 0.930 . S
C41 O42 1.224 . S
C41 O60 1.247 . S
O42 C41 1.224 . S
N43 Co33 2.128 . S
N43 C44 1.355 . S
N43 C46 1.311 . S
C44 N43 1.355 . S
C44 C45 1.363 . S
C44 H56 0.929 . S
C45 C44 1.363 . S
C45 N47 1.375 . S
C45 H63 0.931 . S
C46 N43 1.311 . S
C46 N47 1.347 . S
C46 H57 0.929 . S
N47 C45 1.375 . S
N47 C46 1.347 . S
C48 C51 1.365 . S
C48 N53 1.328 . S
C48 H54 0.929 . S
C49 C50 1.362 . S
C49 C52 1.378 . S
C49 H64 0.929 . S
C50 C49 1.362 . S
C50 C51 1.366 . S
C51 C48 1.365 . S
C51 C50 1.366 . S
C51 H65 0.930 . S
C52 C49 1.378 . S
C52 N53 1.315 . S
C52 H55 0.930 . S
N53 Co33 2.194 . S
N53 C48 1.328 . S
N53 C52 1.315 . S
H54 C48 0.929 . S
H55 C52 0.930 . S
H56 C44 0.929 . S
H57 C46 0.929 . S
O58 Co33 2.351 . S
O58 C61 1.244 . S
O59 Co33 2.155 . S
O59 C61 1.240 . S
O60 Co33 2.096 . S
O60 C41 1.247 . S
C61 O58 1.244 . S
C61 O59 1.240 . S
H62 C36 0.931 . S
H63 C45 0.931 . S
H64 C49 0.929 . S
H65 C51 0.930 . S
Co66 N70 2.148 . S
Co66 N76 2.128 1_545 S
Co66 N86 2.194 . S
Co66 O91 2.351 . S
Co66 O92 2.155 1_545 S
Co66 O93 2.096 . S
C67 N70 1.301 . S
C67 N71 1.328 . S
C67 H72 0.930 . S
C68 C69 1.333 . S
C68 N70 1.317 . S
C68 H73 0.930 . S
C69 C68 1.333 . S
C69 N71 1.350 . S
C69 H95 0.931 . S
N70 Co66 2.148 . S
N70 C67 1.301 . S
N70 C68 1.317 . S
N71 C67 1.328 . S
N71 C69 1.350 . S
H72 C67 0.930 . S
H73 C68 0.930 . S
C74 O75 1.224 . S
C74 O93 1.247 . S
O75 C74 1.224 . S
N76 Co66 2.128 1_565 S
N76 C77 1.350 1_565 S
N76 C79 1.311 . S
C77 N76 1.350 1_545 S
C77 C78 1.337 1_545 S
C77 H89 0.958 . S
C78 C77 1.337 1_565 S
C78 N80 1.375 . S
C78 H96 0.931 . S
C79 N76 1.311 . S
C79 N80 1.347 . S
C79 H90 0.929 . S
N80 C78 1.375 . S
N80 C79 1.347 . S
C81 C84 1.365 . S
C81 N86 1.328 . S
C81 H87 0.929 . S
C82 C83 1.362 . S
C82 C85 1.378 . S
C82 H97 0.929 . S
C83 C82 1.362 . S
C83 C84 1.366 . S
C84 C81 1.365 . S
C84 C83 1.366 . S
C84 H98 0.930 . S
C85 C82 1.378 . S
C85 N86 1.315 . S
C85 H88 0.930 . S
N86 Co66 2.194 . S
N86 C81 1.328 . S
N86 C85 1.315 . S
H87 C81 0.929 . S
H88 C85 0.930 . S
H89 C77 0.958 . S
H90 C79 0.929 . S
O91 Co66 2.351 . S
O91 C94 1.244 1_545 S
O92 Co66 2.155 1_565 S
O92 C94 1.240 . S
O93 Co66 2.096 . S
O93 C74 1.247 . S
C94 O91 1.244 1_565 S
C94 O92 1.240 . S
H95 C69 0.931 . S
H96 C78 0.931 . S
H97 C82 0.929 . S
H98 C84 0.930 . S
Co99 N103 2.148 . S
Co99 N109 2.128 . S
Co99 N119 2.194 . S
Co99 O124 2.351 . S
Co99 O125 2.155 . S
Co99 O126 2.096 . S
C100 N103 1.301 . S
C100 N104 1.328 . S
C100 H105 0.930 . S
C101 C102 1.333 . S
C101 N103 1.317 . S
C101 H106 0.930 . S
C102 C101 1.333 . S
C102 N104 1.350 . S
C102 H128 0.931 . S
N103 Co99 2.148 . S
N103 C100 1.301 . S
N103 C101 1.317 . S
N104 C100 1.328 . S
N104 C102 1.350 . S
H105 C100 0.930 . S
H106 C101 0.930 . S
C107 O108 1.224 . S
C107 O126 1.247 . S
O108 C107 1.224 . S
N109 Co99 2.128 . S
N109 C110 1.355 . S
N109 C112 1.311 . S
C110 N109 1.355 . S
C110 C111 1.363 . S
C110 H122 0.929 . S
C111 C110 1.363 . S
C111 N113 1.375 . S
C111 H129 0.931 . S
C112 N109 1.311 . S
C112 N113 1.347 . S
C112 H123 0.929 . S
N113 C111 1.375 . S
N113 C112 1.347 . S
C114 C117 1.365 . S
C114 N119 1.328 . S
C114 H120 0.929 . S
C115 C116 1.362 . S
C115 C118 1.378 . S
C115 H130 0.929 . S
C116 C115 1.362 . S
C116 C117 1.366 . S
C117 C114 1.365 . S
C117 C116 1.366 . S
C117 H131 0.930 . S
C118 C115 1.378 . S
C118 N119 1.315 . S
C118 H121 0.930 . S
N119 Co99 2.194 . S
N119 C114 1.328 . S
N119 C118 1.315 . S
H120 C114 0.929 . S
H121 C118 0.930 . S
H122 C110 0.929 . S
H123 C112 0.929 . S
O124 Co99 2.351 . S
O124 C127 1.244 . S
O125 Co99 2.155 . S
O125 C127 1.240 . S
O126 Co99 2.096 . S
O126 C107 1.247 . S
C127 O124 1.244 . S
C127 O125 1.240 . S
H128 C102 0.931 . S
H129 C111 0.931 . S
H130 C115 0.929 . S
H131 C117 0.930 . S
Co132 N136 2.148 . S
Co132 N142 2.128 . S
Co132 N152 2.194 . S
Co132 O157 2.351 . S
Co132 O158 2.155 . S
Co132 O159 2.096 . S
C133 N136 1.301 . S
C133 N137 1.328 . S
C133 H138 0.930 . S
C134 C135 1.333 . S
C134 N136 1.317 . S
C134 H139 0.930 . S
C135 C134 1.333 . S
C135 N137 1.350 . S
C135 H161 0.931 . S
N136 Co132 2.148 . S
N136 C133 1.301 . S
N136 C134 1.317 . S
N137 C133 1.328 . S
N137 C135 1.350 . S
H138 C133 0.930 . S
H139 C134 0.930 . S
C140 O141 1.224 . S
C140 O159 1.247 . S
O141 C140 1.224 . S
N142 Co132 2.128 . S
N142 C143 1.355 . S
N142 C145 1.311 . S
C143 N142 1.355 . S
C143 C144 1.363 . S
C143 H155 0.929 . S
C144 C143 1.363 . S
C144 N146 1.375 . S
C144 H162 0.931 . S
C145 N142 1.311 . S
C145 N146 1.347 . S
C145 H156 0.929 . S
N146 C144 1.375 . S
N146 C145 1.347 . S
C147 C150 1.365 . S
C147 N152 1.328 . S
C147 H153 0.929 . S
C148 C149 1.362 . S
C148 C151 1.378 . S
C148 H163 0.929 . S
C149 C148 1.362 . S
C149 C150 1.366 . S
C150 C147 1.365 . S
C150 C149 1.366 . S
C150 H164 0.930 . S
C151 C148 1.378 . S
C151 N152 1.315 . S
C151 H154 0.930 . S
N152 Co132 2.194 . S
N152 C147 1.328 . S
N152 C151 1.315 . S
H153 C147 0.929 . S
H154 C151 0.930 . S
H155 C143 0.929 . S
H156 C145 0.929 . S
O157 Co132 2.351 . S
O157 C160 1.244 . S
O158 Co132 2.155 . S
O158 C160 1.240 . S
O159 Co132 2.096 . S
O159 C140 1.247 . S
C160 O157 1.244 . S
C160 O158 1.240 . S
H161 C135 0.931 . S
H162 C144 0.931 . S
H163 C148 0.929 . S
H164 C150 0.930 . S
Co165 N169 2.148 . S
Co165 N175 2.128 . S
Co165 N185 2.194 . S
Co165 O190 2.351 . S
Co165 O191 2.155 . S
Co165 O192 2.096 . S
C166 N169 1.301 . S
C166 N170 1.328 . S
C166 H171 0.930 . S
C167 C168 1.333 . S
C167 N169 1.317 . S
C167 H172 0.930 . S
C168 C167 1.333 . S
C168 N170 1.350 . S
C168 H194 0.931 . S
N169 Co165 2.148 . S
N169 C166 1.301 . S
N169 C167 1.317 . S
N170 C166 1.328 . S
N170 C168 1.350 . S
H171 C166 0.930 . S
H172 C167 0.930 . S
C173 O174 1.224 . S
C173 O192 1.247 . S
O174 C173 1.224 . S
N175 Co165 2.128 . S
N175 C176 1.355 . S
N175 C178 1.311 . S
C176 N175 1.355 . S
C176 C177 1.363 . S
C176 H188 0.929 . S
C177 C176 1.363 . S
C177 N179 1.375 . S
C177 H195 0.931 . S
C178 N175 1.311 . S
C178 N179 1.347 . S
C178 H189 0.929 . S
N179 C177 1.375 . S
N179 C178 1.347 . S
C180 C183 1.365 . S
C180 N185 1.328 . S
C180 H186 0.929 . S
C181 C182 1.362 . S
C181 C184 1.378 . S
C181 H196 0.929 . S
C182 C181 1.362 . S
C182 C183 1.366 . S
C183 C180 1.365 . S
C183 C182 1.366 . S
C183 H197 0.930 . S
C184 C181 1.378 . S
C184 N185 1.315 . S
C184 H187 0.930 . S
N185 Co165 2.194 . S
N185 C180 1.328 . S
N185 C184 1.315 . S
H186 C180 0.929 . S
H187 C184 0.930 . S
H188 C176 0.929 . S
H189 C178 0.929 . S
O190 Co165 2.351 . S
O190 C193 1.244 . S
O191 Co165 2.155 . S
O191 C193 1.240 . S
O192 Co165 2.096 . S
O192 C173 1.247 . S
C193 O190 1.244 . S
C193 O191 1.240 . S
H194 C168 0.931 . S
H195 C177 0.931 . S
H196 C181 0.929 . S
H197 C183 0.930 . S
Co198 N202 2.148 . S
Co198 N208 2.128 . S
Co198 N218 2.194 . S
Co198 O223 2.351 . S
Co198 O224 2.155 . S
Co198 O225 2.096 . S
C199 N202 1.301 . S
C199 N203 1.328 . S
C199 H204 0.930 . S
C200 C201 1.333 . S
C200 N202 1.317 . S
C200 H205 0.930 . S
C201 C200 1.333 . S
C201 N203 1.350 . S
C201 H227 0.931 . S
N202 Co198 2.148 . S
N202 C199 1.301 . S
N202 C200 1.317 . S
N203 C199 1.328 . S
N203 C201 1.350 . S
H204 C199 0.930 . S
H205 C200 0.930 . S
C206 O207 1.224 . S
C206 O225 1.247 . S
O207 C206 1.224 . S
N208 Co198 2.128 . S
N208 C209 1.355 1_455 S
N208 C211 1.311 . S
C209 N208 1.355 1_655 S
C209 C210 1.363 . S
C209 H221 0.929 . S
C210 C209 1.363 . S
C210 N212 1.375 1_655 S
C210 H228 0.931 . S
C211 N208 1.311 . S
C211 N212 1.347 . S
C211 H222 0.929 . S
N212 C210 1.375 1_455 S
N212 C211 1.347 . S
C213 C216 1.365 . S
C213 N218 1.328 1_655 S
C213 H219 0.929 . S
C214 C215 1.362 1_455 S
C214 C217 1.378 . S
C214 H229 0.929 . S
C215 C214 1.362 1_655 S
C215 C216 1.366 . S
C216 C213 1.365 . S
C216 C215 1.366 . S
C216 H230 0.930 . S
C217 C214 1.378 . S
C217 N218 1.315 . S
C217 H220 0.930 . S
N218 Co198 2.194 . S
N218 C213 1.328 1_455 S
N218 C217 1.315 . S
H219 C213 0.929 . S
H220 C217 0.930 . S
H221 C209 0.929 . S
H222 C211 0.929 . S
O223 Co198 2.351 . S
O223 C226 1.244 . S
O224 Co198 2.155 . S
O224 C226 1.240 . S
O225 Co198 2.096 . S
O225 C206 1.247 . S
C226 O223 1.244 . S
C226 O224 1.240 . S
H227 C201 0.931 . S
H228 C210 0.931 . S
H229 C214 0.929 . S
H230 C216 0.930 . S
Co231 N235 2.148 . S
Co231 N241 2.128 . S
Co231 N251 2.194 . S
Co231 O256 2.351 . S
Co231 O257 2.155 . S
Co231 O258 2.096 . S
C232 N235 1.301 . S
C232 N236 1.328 . S
C232 H237 0.930 . S
C233 C234 1.333 . S
C233 N235 1.317 . S
C233 H238 0.930 . S
C234 C233 1.333 . S
C234 N236 1.350 . S
C234 H260 0.931 . S
N235 Co231 2.148 . S
N235 C232 1.301 . S
N235 C233 1.317 . S
N236 C232 1.328 . S
N236 C234 1.350 . S
H237 C232 0.930 . S
H238 C233 0.930 . S
C239 O240 1.224 . S
C239 O258 1.247 . S
O240 C239 1.224 . S
N241 Co231 2.128 . S
N241 C242 1.355 . S
N241 C244 1.311 . S
C242 N241 1.355 . S
C242 C243 1.363 . S
C242 H254 0.929 . S
C243 C242 1.363 . S
C243 N245 1.375 . S
C243 H261 0.931 . S
C244 N241 1.311 . S
C244 N245 1.347 . S
C244 H255 0.929 . S
N245 C243 1.375 . S
N245 C244 1.347 . S
C246 C249 1.365 . S
C246 N251 1.328 . S
C246 H252 0.929 . S
C247 C248 1.362 . S
C247 C250 1.378 . S
C247 H262 0.929 . S
C248 C247 1.362 . S
C248 C249 1.366 . S
C249 C246 1.365 . S
C249 C248 1.366 . S
C249 H263 0.930 . S
C250 C247 1.378 . S
C250 N251 1.315 . S
C250 H253 0.930 . S
N251 Co231 2.194 . S
N251 C246 1.328 . S
N251 C250 1.315 . S
H252 C246 0.929 . S
H253 C250 0.930 . S
H254 C242 0.929 . S
H255 C244 0.929 . S
O256 Co231 2.351 . S
O256 C259 1.244 . S
O257 Co231 2.155 . S
O257 C259 1.240 . S
O258 Co231 2.096 . S
O258 C239 1.247 . S
C259 O256 1.244 . S
C259 O257 1.240 . S
H260 C234 0.931 . S
H261 C243 0.931 . S
H262 C247 0.929 . S
H263 C249 0.930 . S
Co264 N268 2.148 . S
Co264 N274 2.128 . S
Co264 N284 2.194 . S
Co264 O289 2.351 . S
Co264 O290 2.155 . S
Co264 O291 2.096 . S
C265 N268 1.301 . S
C265 N269 1.328 . S
C265 H270 0.930 . S
C266 C267 1.321 1_545 S
C266 N268 1.368 . S
C266 H271 0.897 1_545 S
C267 C266 1.321 1_565 S
C267 N269 1.350 1_565 S
C267 H293 0.931 . S
N268 Co264 2.148 . S
N268 C265 1.301 . S
N268 C266 1.368 . S
N269 C265 1.328 . S
N269 C267 1.350 1_545 S
H270 C265 0.930 . S
H271 C266 0.897 1_565 S
C272 O273 1.224 . S
C272 O291 1.247 . S
O273 C272 1.224 . S
N274 Co264 2.128 . S
N274 C275 1.355 . S
N274 C277 1.311 . S
C275 N274 1.355 . S
C275 C276 1.363 . S
C275 H287 0.929 . S
C276 C275 1.363 . S
C276 N278 1.375 . S
C276 H294 0.931 . S
C277 N274 1.311 . S
C277 N278 1.347 . S
C277 H288 0.929 . S
N278 C276 1.375 . S
N278 C277 1.347 . S
C279 C282 1.365 . S
C279 N284 1.328 . S
C279 H285 0.929 . S
C280 C281 1.362 . S
C280 C283 1.378 1_556 S
C280 H295 0.929 . S
C281 C280 1.362 . S
C281 C282 1.366 1_556 S
C282 C279 1.365 . S
C282 C281 1.366 1_554 S
C282 H296 0.930 1_554 S
C283 C280 1.378 1_554 S
C283 N284 1.315 . S
C283 H286 0.930 . S
N284 Co264 2.194 . S
N284 C279 1.328 . S
N284 C283 1.315 . S
H285 C279 0.929 . S
H286 C283 0.930 . S
H287 C275 0.929 . S
H288 C277 0.929 . S
O289 Co264 2.351 . S
O289 C292 1.244 . S
O290 Co264 2.155 . S
O290 C292 1.240 . S
O291 Co264 2.096 . S
O291 C272 1.247 . S
C292 O289 1.244 . S
C292 O290 1.240 . S
H293 C267 0.931 . S
H294 C276 0.931 . S
H295 C280 0.929 . S
H296 C282 0.930 1_556 S
Co297 N301 2.148 . S
Co297 N307 2.128 . S
Co297 N317 2.194 . S
Co297 O322 2.351 . S
Co297 O323 2.155 . S
Co297 O324 2.096 . S
C298 N301 1.301 . S
C298 N302 1.328 . S
C298 H303 0.930 . S
C299 C300 1.333 . S
C299 N301 1.317 . S
C299 H304 0.930 . S
C300 C299 1.333 . S
C300 N302 1.350 . S
C300 H326 0.931 . S
N301 Co297 2.148 . S
N301 C298 1.301 . S
N301 C299 1.317 . S
N302 C298 1.328 . S
N302 C300 1.350 . S
H303 C298 0.930 . S
H304 C299 0.930 . S
C305 O306 1.224 . S
C305 O324 1.247 . S
O306 C305 1.224 . S
N307 Co297 2.128 . S
N307 C308 1.355 . S
N307 C310 1.311 . S
C308 N307 1.355 . S
C308 C309 1.363 . S
C308 H320 0.929 . S
C309 C308 1.363 . S
C309 N311 1.375 . S
C309 H327 0.931 . S
C310 N307 1.311 . S
C310 N311 1.347 . S
C310 H321 0.929 . S
N311 C309 1.375 . S
N311 C310 1.347 . S
C312 C315 1.365 . S
C312 N317 1.328 . S
C312 H318 0.929 . S
C313 C314 1.362 . S
C313 C316 1.378 . S
C313 H328 0.929 . S
C314 C313 1.362 . S
C314 C315 1.366 . S
C315 C312 1.365 . S
C315 C314 1.366 . S
C315 H329 0.930 . S
C316 C313 1.378 . S
C316 N317 1.315 . S
C316 H319 0.930 . S
N317 Co297 2.194 . S
N317 C312 1.328 . S
N317 C316 1.315 . S
H318 C312 0.929 . S
H319 C316 0.930 . S
H320 C308 0.929 . S
H321 C310 0.929 . S
O322 Co297 2.351 . S
O322 C325 1.244 . S
O323 Co297 2.155 . S
O323 C325 1.240 . S
O324 Co297 2.096 . S
O324 C305 1.247 . S
C325 O322 1.244 . S
C325 O323 1.240 . S
H326 C300 0.931 . S
H327 C309 0.931 . S
H328 C313 0.929 . S
H329 C315 0.930 . S
Co330 N334 2.148 . S
Co330 N340 2.128 . S
Co330 N350 2.194 . S
Co330 O355 2.351 . S
Co330 O356 2.155 . S
Co330 O357 2.096 . S
C331 N334 1.301 . S
C331 N335 1.328 . S
C331 H336 0.930 . S
C332 C333 1.333 . S
C332 N334 1.317 . S
C332 H337 0.930 . S
C333 C332 1.333 . S
C333 N335 1.350 . S
C333 H359 0.931 . S
N334 Co330 2.148 . S
N334 C331 1.301 . S
N334 C332 1.317 . S
N335 C331 1.328 . S
N335 C333 1.350 . S
H336 C331 0.930 . S
H337 C332 0.930 . S
C338 O339 1.224 . S
C338 O357 1.247 . S
O339 C338 1.224 . S
N340 Co330 2.128 . S
N340 C341 1.355 1_545 S
N340 C343 1.311 . S
C341 N340 1.355 1_565 S
C341 C342 1.363 . S
C341 H353 0.929 . S
C342 C341 1.363 . S
C342 N344 1.375 1_565 S
C342 H360 0.931 . S
C343 N340 1.311 . S
C343 N344 1.347 . S
C343 H354 0.929 . S
N344 C342 1.375 1_545 S
N344 C343 1.347 . S
C345 C348 1.365 . S
C345 N350 1.328 1_565 S
C345 H351 0.929 . S
C346 C347 1.362 1_545 S
C346 C349 1.378 . S
C346 H361 0.929 . S
C347 C346 1.362 1_565 S
C347 C348 1.366 . S
C348 C345 1.365 . S
C348 C347 1.366 . S
C348 H362 0.930 . S
C349 C346 1.378 . S
C349 N350 1.315 . S
C349 H352 0.930 . S
N350 Co330 2.194 . S
N350 C345 1.328 1_545 S
N350 C349 1.315 . S
H351 C345 0.929 . S
H352 C349 0.930 . S
H353 C341 0.929 . S
H354 C343 0.929 . S
O355 Co330 2.351 . S
O355 C358 1.244 . S
O356 Co330 2.155 . S
O356 C358 1.240 . S
O357 Co330 2.096 . S
O357 C338 1.247 . S
C358 O355 1.244 . S
C358 O356 1.240 . S
H359 C333 0.931 . S
H360 C342 0.931 . S
H361 C346 0.929 . S
H362 C348 0.930 . S
Co363 N367 2.148 . S
Co363 N373 2.128 . S
Co363 N383 2.194 . S
Co363 O388 2.351 . S
Co363 O389 2.155 . S
Co363 O390 2.096 . S
C364 N367 1.301 . S
C364 N368 1.328 . S
C364 H369 0.930 . S
C365 C366 1.333 . S
C365 N367 1.317 . S
C365 H370 0.930 . S
C366 C365 1.333 . S
C366 N368 1.350 . S
C366 H392 0.931 . S
N367 Co363 2.148 . S
N367 C364 1.301 . S
N367 C365 1.317 . S
N368 C364 1.328 . S
N368 C366 1.350 . S
H369 C364 0.930 . S
H370 C365 0.930 . S
C371 O372 1.224 . S
C371 O390 1.247 . S
O372 C371 1.224 . S
N373 Co363 2.128 . S
N373 C374 1.355 . S
N373 C376 1.311 . S
C374 N373 1.355 . S
C374 C375 1.363 . S
C374 H386 0.929 . S
C375 C374 1.363 . S
C375 N377 1.375 . S
C375 H393 0.931 . S
C376 N373 1.311 . S
C376 N377 1.347 . S
C376 H387 0.929 . S
N377 C375 1.375 . S
N377 C376 1.347 . S
C378 C381 1.365 . S
C378 N383 1.328 . S
C378 H384 0.929 . S
C379 C380 1.362 . S
C379 C382 1.378 . S
C379 H394 0.929 . S
C380 C379 1.362 . S
C380 C381 1.366 . S
C381 C378 1.365 . S
C381 C380 1.366 . S
C381 H395 0.930 . S
C382 C379 1.378 . S
C382 N383 1.315 . S
C382 H385 0.930 . S
N383 Co363 2.194 . S
N383 C378 1.328 . S
N383 C382 1.315 . S
H384 C378 0.929 . S
H385 C382 0.930 . S
H386 C374 0.929 . S
H387 C376 0.929 . S
O388 Co363 2.351 . S
O388 C391 1.244 . S
O389 Co363 2.155 . S
O389 C391 1.240 . S
O390 Co363 2.096 . S
O390 C371 1.247 . S
C391 O388 1.244 . S
C391 O389 1.240 . S
H392 C366 0.931 . S
H393 C375 0.931 . S
H394 C379 0.929 . S
H395 C381 0.930 . S
Co396 N400 2.148 . S
Co396 N406 2.128 1_554 S
Co396 N416 2.194 . S
Co396 O421 2.351 . S
Co396 O422 2.155 1_554 S
Co396 O423 2.096 . S
C397 N400 1.301 . S
C397 N401 1.328 . S
C397 H402 0.930 . S
C398 C399 1.333 . S
C398 N400 1.317 . S
C398 H403 0.930 . S
C399 C398 1.333 . S
C399 N401 1.350 . S
C399 H425 0.931 . S
N400 Co396 2.148 . S
N400 C397 1.301 . S
N400 C398 1.317 . S
N401 C397 1.328 . S
N401 C399 1.350 . S
H402 C397 0.930 . S
H403 C398 0.930 . S
C404 O405 1.224 . S
C404 O423 1.247 . S
O405 C404 1.224 . S
N406 Co396 2.128 1_556 S
N406 C407 1.350 1_556 S
N406 C409 1.311 . S
C407 N406 1.350 1_554 S
C407 C408 1.337 1_554 S
C407 H419 0.958 . S
C408 C407 1.337 1_556 S
C408 N410 1.375 . S
C408 H426 0.931 . S
C409 N406 1.311 . S
C409 N410 1.347 . S
C409 H420 0.929 . S
N410 C408 1.375 . S
N410 C409 1.347 . S
C411 C414 1.365 . S
C411 N416 1.328 . S
C411 H417 0.929 . S
C412 C413 1.362 . S
C412 C415 1.378 . S
C412 H427 0.929 . S
C413 C412 1.362 . S
C413 C414 1.366 . S
C414 C411 1.365 . S
C414 C413 1.366 . S
C414 H428 0.930 . S
C415 C412 1.378 . S
C415 N416 1.315 . S
C415 H418 0.930 . S
N416 Co396 2.194 . S
N416 C411 1.328 . S
N416 C415 1.315 . S
H417 C411 0.929 . S
H418 C415 0.930 . S
H419 C407 0.958 . S
H420 C409 0.929 . S
O421 Co396 2.351 . S
O421 C424 1.244 1_554 S
O422 Co396 2.155 1_556 S
O422 C424 1.240 . S
O423 Co396 2.096 . S
O423 C404 1.247 . S
C424 O421 1.244 1_556 S
C424 O422 1.240 . S
H425 C399 0.931 . S
H426 C408 0.931 . S
H427 C412 0.929 . S
H428 C414 0.930 . S
Co429 N433 2.148 . S
Co429 N439 2.128 . S
Co429 N449 2.194 . S
Co429 O454 2.351 . S
Co429 O455 2.155 . S
Co429 O456 2.096 . S
C430 N433 1.301 . S
C430 N434 1.328 . S
C430 H435 0.930 . S
C431 C432 1.333 . S
C431 N433 1.317 . S
C431 H436 0.930 . S
C432 C431 1.333 . S
C432 N434 1.350 . S
C432 H458 0.931 . S
N433 Co429 2.148 . S
N433 C430 1.301 . S
N433 C431 1.317 . S
N434 C430 1.328 . S
N434 C432 1.350 . S
H435 C430 0.930 . S
H436 C431 0.930 . S
C437 O438 1.224 . S
C437 O456 1.247 . S
O438 C437 1.224 . S
N439 Co429 2.128 . S
N439 C440 1.355 . S
N439 C442 1.311 . S
C440 N439 1.355 . S
C440 C441 1.363 . S
C440 H452 0.929 . S
C441 C440 1.363 . S
C441 N443 1.375 . S
C441 H459 0.931 . S
C442 N439 1.311 . S
C442 N443 1.347 . S
C442 H453 0.929 . S
N443 C441 1.375 . S
N443 C442 1.347 . S
C444 C447 1.365 . S
C444 N449 1.328 . S
C444 H450 0.929 . S
C445 C446 1.362 . S
C445 C448 1.378 . S
C445 H460 0.929 . S
C446 C445 1.362 . S
C446 C447 1.366 . S
C447 C444 1.365 . S
C447 C446 1.366 . S
C447 H461 0.930 . S
C448 C445 1.378 . S
C448 N449 1.315 . S
C448 H451 0.930 . S
N449 Co429 2.194 . S
N449 C444 1.328 . S
N449 C448 1.315 . S
H450 C444 0.929 . S
H451 C448 0.930 . S
H452 C440 0.929 . S
H453 C442 0.929 . S
O454 Co429 2.351 . S
O454 C457 1.244 . S
O455 Co429 2.155 . S
O455 C457 1.240 . S
O456 Co429 2.096 . S
O456 C437 1.247 . S
C457 O454 1.244 . S
C457 O455 1.240 . S
H458 C432 0.931 . S
H459 C441 0.931 . S
H460 C445 0.929 . S
H461 C447 0.930 . S
Co462 N466 2.148 . S
Co462 N472 2.128 . S
Co462 N482 2.194 . S
Co462 O487 2.351 . S
Co462 O488 2.155 . S
Co462 O489 2.096 . S
C463 N466 1.301 . S
C463 N467 1.328 . S
C463 H468 0.930 . S
C464 C465 1.333 . S
C464 N466 1.317 . S
C464 H469 0.930 . S
C465 C464 1.333 . S
C465 N467 1.350 . S
C465 H491 0.931 . S
N466 Co462 2.148 . S
N466 C463 1.301 . S
N466 C464 1.317 . S
N467 C463 1.328 . S
N467 C465 1.350 . S
H468 C463 0.930 . S
H469 C464 0.930 . S
C470 O471 1.224 . S
C470 O489 1.247 . S
O471 C470 1.224 . S
N472 Co462 2.128 . S
N472 C473 1.355 . S
N472 C475 1.311 . S
C473 N472 1.355 . S
C473 C474 1.363 . S
C473 H485 0.929 . S
C474 C473 1.363 . S
C474 N476 1.375 . S
C474 H492 0.931 . S
C475 N472 1.311 . S
C475 N476 1.347 . S
C475 H486 0.929 . S
N476 C474 1.375 . S
N476 C475 1.347 . S
C477 C480 1.365 . S
C477 N482 1.328 . S
C477 H483 0.929 . S
C478 C479 1.362 . S
C478 C481 1.378 . S
C478 H493 0.929 . S
C479 C478 1.362 . S
C479 C480 1.366 . S
C480 C477 1.365 . S
C480 C479 1.366 . S
C480 H494 0.930 . S
C481 C478 1.378 . S
C481 N482 1.315 . S
C481 H484 0.930 . S
N482 Co462 2.194 . S
N482 C477 1.328 . S
N482 C481 1.315 . S
H483 C477 0.929 . S
H484 C481 0.930 . S
H485 C473 0.929 . S
H486 C475 0.929 . S
O487 Co462 2.351 . S
O487 C490 1.244 . S
O488 Co462 2.155 . S
O488 C490 1.240 . S
O489 Co462 2.096 . S
O489 C470 1.247 . S
C490 O487 1.244 . S
C490 O488 1.240 . S
H491 C465 0.931 . S
H492 C474 0.931 . S
H493 C478 0.929 . S
H494 C480 0.930 . S
Co495 N499 2.148 . S
Co495 N505 2.128 . S
Co495 N515 2.194 . S
Co495 O520 2.351 . S
Co495 O521 2.155 . S
Co495 O522 2.096 . S
C496 N499 1.301 . S
C496 N500 1.328 . S
C496 H501 0.930 . S
C497 C498 1.333 . S
C497 N499 1.317 . S
C497 H502 0.930 . S
C498 C497 1.333 . S
C498 N500 1.350 . S
C498 H524 0.931 . S
N499 Co495 2.148 . S
N499 C496 1.301 . S
N499 C497 1.317 . S
N500 C496 1.328 . S
N500 C498 1.350 . S
H501 C496 0.930 . S
H502 C497 0.930 . S
C503 O504 1.224 . S
C503 O522 1.247 . S
O504 C503 1.224 . S
N505 Co495 2.128 . S
N505 C506 1.355 . S
N505 C508 1.311 . S
C506 N505 1.355 . S
C506 C507 1.363 . S
C506 H518 0.929 . S
C507 C506 1.363 . S
C507 N509 1.375 . S
C507 H525 0.931 . S
C508 N505 1.311 . S
C508 N509 1.347 . S
C508 H519 0.929 . S
N509 C507 1.375 . S
N509 C508 1.347 . S
C510 C513 1.365 . S
C510 N515 1.328 . S
C510 H516 0.929 . S
C511 C512 1.362 . S
C511 C514 1.378 . S
C511 H526 0.929 . S
C512 C511 1.362 . S
C512 C513 1.366 . S
C513 C510 1.365 . S
C513 C512 1.366 . S
C513 H527 0.930 . S
C514 C511 1.378 . S
C514 N515 1.315 . S
C514 H517 0.930 . S
N515 Co495 2.194 . S
N515 C510 1.328 . S
N515 C514 1.315 . S
H516 C510 0.929 . S
H517 C514 0.930 . S
H518 C506 0.929 . S
H519 C508 0.929 . S
O520 Co495 2.351 . S
O520 C523 1.244 . S
O521 Co495 2.155 . S
O521 C523 1.240 . S
O522 Co495 2.096 . S
O522 C503 1.247 . S
C523 O520 1.244 . S
C523 O521 1.240 . S
H524 C498 0.931 . S
H525 C507 0.931 . S
H526 C511 0.929 . S
H527 C513 0.930 . S
Co528 N532 2.148 . S
Co528 N538 2.128 . S
Co528 N548 2.194 . S
Co528 O553 2.351 . S
Co528 O554 2.155 . S
Co528 O555 2.096 . S
C529 N532 1.301 . S
C529 N533 1.328 . S
C529 H534 0.930 . S
C530 C531 1.321 1_554 S
C530 N532 1.368 . S
C530 H535 0.897 1_554 S
C531 C530 1.321 1_556 S
C531 N533 1.350 1_556 S
C531 H557 0.931 . S
N532 Co528 2.148 . S
N532 C529 1.301 . S
N532 C530 1.368 . S
N533 C529 1.328 . S
N533 C531 1.350 1_554 S
H534 C529 0.930 . S
H535 C530 0.897 1_556 S
C536 O537 1.224 . S
C536 O555 1.247 . S
O537 C536 1.224 . S
N538 Co528 2.128 . S
N538 C539 1.355 . S
N538 C541 1.311 . S
C539 N538 1.355 . S
C539 C540 1.363 . S
C539 H551 0.929 . S
C540 C539 1.363 . S
C540 N542 1.375 . S
C540 H558 0.931 . S
C541 N538 1.311 . S
C541 N542 1.347 . S
C541 H552 0.929 . S
N542 C540 1.375 . S
N542 C541 1.347 . S
C543 C546 1.365 . S
C543 N548 1.328 . S
C543 H549 0.929 . S
C544 C545 1.362 . S
C544 C547 1.378 1_655 S
C544 H559 0.929 . S
C545 C544 1.362 . S
C545 C546 1.366 1_655 S
C546 C543 1.365 . S
C546 C545 1.366 1_455 S
C546 H560 0.930 1_455 S
C547 C544 1.378 1_455 S
C547 N548 1.315 . S
C547 H550 0.930 . S
N548 Co528 2.194 . S
N548 C543 1.328 . S
N548 C547 1.315 . S
H549 C543 0.929 . S
H550 C547 0.930 . S
H551 C539 0.929 . S
H552 C541 0.929 . S
O553 Co528 2.351 . S
O553 C556 1.244 . S
O554 Co528 2.155 . S
O554 C556 1.240 . S
O555 Co528 2.096 . S
O555 C536 1.247 . S
C556 O553 1.244 . S
C556 O554 1.240 . S
H557 C531 0.931 . S
H558 C540 0.931 . S
H559 C544 0.929 . S
H560 C546 0.930 1_655 S
Co561 N565 2.148 . S
Co561 N571 2.128 . S
Co561 N581 2.194 . S
Co561 O586 2.351 . S
Co561 O587 2.155 . S
Co561 O588 2.096 . S
C562 N565 1.301 . S
C562 N566 1.328 . S
C562 H567 0.930 . S
C563 C564 1.333 . S
C563 N565 1.317 . S
C563 H568 0.930 . S
C564 C563 1.333 . S
C564 N566 1.350 . S
C564 H590 0.931 . S
N565 Co561 2.148 . S
N565 C562 1.301 . S
N565 C563 1.317 . S
N566 C562 1.328 . S
N566 C564 1.350 . S
H567 C562 0.930 . S
H568 C563 0.930 . S
C569 O570 1.224 . S
C569 O588 1.247 . S
O570 C569 1.224 . S
N571 Co561 2.128 . S
N571 C572 1.355 1_554 S
N571 C574 1.311 . S
C572 N571 1.355 1_556 S
C572 C573 1.363 . S
C572 H584 0.929 . S
C573 C572 1.363 . S
C573 N575 1.375 1_556 S
C573 H591 0.931 . S
C574 N571 1.311 . S
C574 N575 1.347 . S
C574 H585 0.929 . S
N575 C573 1.375 1_554 S
N575 C574 1.347 . S
C576 C579 1.365 . S
C576 N581 1.328 1_556 S
C576 H582 0.929 . S
C577 C578 1.362 1_554 S
C577 C580 1.378 . S
C577 H592 0.929 . S
C578 C577 1.362 1_556 S
C578 C579 1.366 . S
C579 C576 1.365 . S
C579 C578 1.366 . S
C579 H593 0.930 . S
C580 C577 1.378 . S
C580 N581 1.315 . S
C580 H583 0.930 . S
N581 Co561 2.194 . S
N581 C576 1.328 1_554 S
N581 C580 1.315 . S
H582 C576 0.929 . S
H583 C580 0.930 . S
H584 C572 0.929 . S
H585 C574 0.929 . S
O586 Co561 2.351 . S
O586 C589 1.244 . S
O587 Co561 2.155 . S
O587 C589 1.240 . S
O588 Co561 2.096 . S
O588 C569 1.247 . S
C589 O586 1.244 . S
C589 O587 1.240 . S
H590 C564 0.931 . S
H591 C573 0.931 . S
H592 C577 0.929 . S
H593 C579 0.930 . S
Co594 N598 2.148 . S
Co594 N604 2.128 . S
Co594 N614 2.194 . S
Co594 O619 2.351 . S
Co594 O620 2.155 . S
Co594 O621 2.096 . S
C595 N598 1.301 . S
C595 N599 1.328 . S
C595 H600 0.930 . S
C596 C597 1.333 . S
C596 N598 1.317 . S
C596 H601 0.930 . S
C597 C596 1.333 . S
C597 N599 1.350 . S
C597 H623 0.931 . S
N598 Co594 2.148 . S
N598 C595 1.301 . S
N598 C596 1.317 . S
N599 C595 1.328 . S
N599 C597 1.350 . S
H600 C595 0.930 . S
H601 C596 0.930 . S
C602 O603 1.224 . S
C602 O621 1.247 . S
O603 C602 1.224 . S
N604 Co594 2.128 . S
N604 C605 1.355 . S
N604 C607 1.311 . S
C605 N604 1.355 . S
C605 C606 1.363 . S
C605 H617 0.929 . S
C606 C605 1.363 . S
C606 N608 1.375 . S
C606 H624 0.931 . S
C607 N604 1.311 . S
C607 N608 1.347 . S
C607 H618 0.929 . S
N608 C606 1.375 . S
N608 C607 1.347 . S
C609 C612 1.365 . S
C609 N614 1.328 . S
C609 H615 0.929 . S
C610 C611 1.362 . S
C610 C613 1.378 . S
C610 H625 0.929 . S
C611 C610 1.362 . S
C611 C612 1.366 . S
C612 C609 1.365 . S
C612 C611 1.366 . S
C612 H626 0.930 . S
C613 C610 1.378 . S
C613 N614 1.315 . S
C613 H616 0.930 . S
N614 Co594 2.194 . S
N614 C609 1.328 . S
N614 C613 1.315 . S
H615 C609 0.929 . S
H616 C613 0.930 . S
H617 C605 0.929 . S
H618 C607 0.929 . S
O619 Co594 2.351 . S
O619 C622 1.244 . S
O620 Co594 2.155 . S
O620 C622 1.240 . S
O621 Co594 2.096 . S
O621 C602 1.247 . S
C622 O619 1.244 . S
C622 O620 1.240 . S
H623 C597 0.931 . S
H624 C606 0.931 . S
H625 C610 0.929 . S
H626 C612 0.930 . S
Co627 N631 2.148 . S
Co627 N637 2.128 1_455 S
Co627 N647 2.194 . S
Co627 O652 2.351 . S
Co627 O653 2.155 1_455 S
Co627 O654 2.096 . S
C628 N631 1.301 . S
C628 N632 1.328 . S
C628 H633 0.930 . S
C629 C630 1.333 . S
C629 N631 1.317 . S
C629 H634 0.930 . S
C630 C629 1.333 . S
C630 N632 1.350 . S
C630 H656 0.931 . S
N631 Co627 2.148 . S
N631 C628 1.301 . S
N631 C629 1.317 . S
N632 C628 1.328 . S
N632 C630 1.350 . S
H633 C628 0.930 . S
H634 C629 0.930 . S
C635 O636 1.224 . S
C635 O654 1.247 . S
O636 C635 1.224 . S
N637 Co627 2.128 1_655 S
N637 C638 1.350 1_655 S
N637 C640 1.311 . S
C638 N637 1.350 1_455 S
C638 C639 1.337 1_455 S
C638 H650 0.958 . S
C639 C638 1.337 1_655 S
C639 N641 1.375 . S
C639 H657 0.931 . S
C640 N637 1.311 . S
C640 N641 1.347 . S
C640 H651 0.929 . S
N641 C639 1.375 . S
N641 C640 1.347 . S
C642 C645 1.365 . S
C642 N647 1.328 . S
C642 H648 0.929 . S
C643 C644 1.362 . S
C643 C646 1.378 . S
C643 H658 0.929 . S
C644 C643 1.362 . S
C644 C645 1.366 . S
C645 C642 1.365 . S
C645 C644 1.366 . S
C645 H659 0.930 . S
C646 C643 1.378 . S
C646 N647 1.315 . S
C646 H649 0.930 . S
N647 Co627 2.194 . S
N647 C642 1.328 . S
N647 C646 1.315 . S
H648 C642 0.929 . S
H649 C646 0.930 . S
H650 C638 0.958 . S
H651 C640 0.929 . S
O652 Co627 2.351 . S
O652 C655 1.244 1_455 S
O653 Co627 2.155 1_655 S
O653 C655 1.240 . S
O654 Co627 2.096 . S
O654 C635 1.247 . S
C655 O652 1.244 1_655 S
C655 O653 1.240 . S
H656 C630 0.931 . S
H657 C639 0.931 . S
H658 C643 0.929 . S
H659 C645 0.930 . S
Co660 N664 2.148 . S
Co660 N670 2.128 . S
Co660 N680 2.194 . S
Co660 O685 2.351 . S
Co660 O686 2.155 . S
Co660 O687 2.096 . S
C661 N664 1.301 . S
C661 N665 1.328 . S
C661 H666 0.930 . S
C662 C663 1.333 . S
C662 N664 1.317 . S
C662 H667 0.930 . S
C663 C662 1.333 . S
C663 N665 1.350 . S
C663 H689 0.931 . S
N664 Co660 2.148 . S
N664 C661 1.301 . S
N664 C662 1.317 . S
N665 C661 1.328 . S
N665 C663 1.350 . S
H666 C661 0.930 . S
H667 C662 0.930 . S
C668 O669 1.224 . S
C668 O687 1.247 . S
O669 C668 1.224 . S
N670 Co660 2.128 . S
N670 C671 1.355 . S
N670 C673 1.311 . S
C671 N670 1.355 . S
C671 C672 1.363 . S
C671 H683 0.929 . S
C672 C671 1.363 . S
C672 N674 1.375 . S
C672 H690 0.931 . S
C673 N670 1.311 . S
C673 N674 1.347 . S
C673 H684 0.929 . S
N674 C672 1.375 . S
N674 C673 1.347 . S
C675 C678 1.365 . S
C675 N680 1.328 . S
C675 H681 0.929 . S
C676 C677 1.362 . S
C676 C679 1.378 . S
C676 H691 0.929 . S
C677 C676 1.362 . S
C677 C678 1.366 . S
C678 C675 1.365 . S
C678 C677 1.366 . S
C678 H692 0.930 . S
C679 C676 1.378 . S
C679 N680 1.315 . S
C679 H682 0.930 . S
N680 Co660 2.194 . S
N680 C675 1.328 . S
N680 C679 1.315 . S
H681 C675 0.929 . S
H682 C679 0.930 . S
H683 C671 0.929 . S
H684 C673 0.929 . S
O685 Co660 2.351 . S
O685 C688 1.244 . S
O686 Co660 2.155 . S
O686 C688 1.240 . S
O687 Co660 2.096 . S
O687 C668 1.247 . S
C688 O685 1.244 . S
C688 O686 1.240 . S
H689 C663 0.931 . S
H690 C672 0.931 . S
H691 C676 0.929 . S
H692 C678 0.930 . S
Co693 N697 2.148 . S
Co693 N703 2.128 . S
Co693 N713 2.194 . S
Co693 O718 2.351 . S
Co693 O719 2.155 . S
Co693 O720 2.096 . S
C694 N697 1.301 . S
C694 N698 1.328 . S
C694 H699 0.930 . S
C695 C696 1.333 . S
C695 N697 1.317 . S
C695 H700 0.930 . S
C696 C695 1.333 . S
C696 N698 1.350 . S
C696 H722 0.931 . S
N697 Co693 2.148 . S
N697 C694 1.301 . S
N697 C695 1.317 . S
N698 C694 1.328 . S
N698 C696 1.350 . S
H699 C694 0.930 . S
H700 C695 0.930 . S
C701 O702 1.224 . S
C701 O720 1.247 . S
O702 C701 1.224 . S
N703 Co693 2.128 . S
N703 C704 1.355 . S
N703 C706 1.311 . S
C704 N703 1.355 . S
C704 C705 1.363 . S
C704 H716 0.929 . S
C705 C704 1.363 . S
C705 N707 1.375 . S
C705 H723 0.931 . S
C706 N703 1.311 . S
C706 N707 1.347 . S
C706 H717 0.929 . S
N707 C705 1.375 . S
N707 C706 1.347 . S
C708 C711 1.365 . S
C708 N713 1.328 . S
C708 H714 0.929 . S
C709 C710 1.362 . S
C709 C712 1.378 . S
C709 H724 0.929 . S
C710 C709 1.362 . S
C710 C711 1.366 . S
C711 C708 1.365 . S
C711 C710 1.366 . S
C711 H725 0.930 . S
C712 C709 1.378 . S
C712 N713 1.315 . S
C712 H715 0.930 . S
N713 Co693 2.194 . S
N713 C708 1.328 . S
N713 C712 1.315 . S
H714 C708 0.929 . S
H715 C712 0.930 . S
H716 C704 0.929 . S
H717 C706 0.929 . S
O718 Co693 2.351 . S
O718 C721 1.244 . S
O719 Co693 2.155 . S
O719 C721 1.240 . S
O720 Co693 2.096 . S
O720 C701 1.247 . S
C721 O718 1.244 . S
C721 O719 1.240 . S
H722 C696 0.931 . S
H723 C705 0.931 . S
H724 C709 0.929 . S
H725 C711 0.930 . S
Co726 N730 2.148 . S
Co726 N736 2.128 . S
Co726 N746 2.194 . S
Co726 O751 2.351 . S
Co726 O752 2.155 . S
Co726 O753 2.096 . S
C727 N730 1.301 . S
C727 N731 1.328 . S
C727 H732 0.930 . S
C728 C729 1.333 . S
C728 N730 1.317 . S
C728 H733 0.930 . S
C729 C728 1.333 . S
C729 N731 1.350 . S
C729 H755 0.931 . S
N730 Co726 2.148 . S
N730 C727 1.301 . S
N730 C728 1.317 . S
N731 C727 1.328 . S
N731 C729 1.350 . S
H732 C727 0.930 . S
H733 C728 0.930 . S
C734 O735 1.224 . S
C734 O753 1.247 . S
O735 C734 1.224 . S
N736 Co726 2.128 . S
N736 C737 1.355 . S
N736 C739 1.311 . S
C737 N736 1.355 . S
C737 C738 1.363 . S
C737 H749 0.929 . S
C738 C737 1.363 . S
C738 N740 1.375 . S
C738 H756 0.931 . S
C739 N736 1.311 . S
C739 N740 1.347 . S
C739 H750 0.929 . S
N740 C738 1.375 . S
N740 C739 1.347 . S
C741 C744 1.365 . S
C741 N746 1.328 . S
C741 H747 0.929 . S
C742 C743 1.362 . S
C742 C745 1.378 . S
C742 H757 0.929 . S
C743 C742 1.362 . S
C743 C744 1.366 . S
C744 C741 1.365 . S
C744 C743 1.366 . S
C744 H758 0.930 . S
C745 C742 1.378 . S
C745 N746 1.315 . S
C745 H748 0.930 . S
N746 Co726 2.194 . S
N746 C741 1.328 . S
N746 C745 1.315 . S
H747 C741 0.929 . S
H748 C745 0.930 . S
H749 C737 0.929 . S
H750 C739 0.929 . S
O751 Co726 2.351 . S
O751 C754 1.244 . S
O752 Co726 2.155 . S
O752 C754 1.240 . S
O753 Co726 2.096 . S
O753 C734 1.247 . S
C754 O751 1.244 . S
C754 O752 1.240 . S
H755 C729 0.931 . S
H756 C738 0.931 . S
H757 C742 0.929 . S
H758 C744 0.930 . S
Co759 N763 2.148 . S
Co759 N769 2.128 . S
Co759 N779 2.194 . S
Co759 O784 2.351 . S
Co759 O785 2.155 . S
Co759 O786 2.096 . S
C760 N763 1.301 . S
C760 N764 1.328 . S
C760 H765 0.930 . S
C761 C762 1.333 . S
C761 N763 1.317 . S
C761 H766 0.930 . S
C762 C761 1.333 . S
C762 N764 1.350 . S
C762 H788 0.931 . S
N763 Co759 2.148 . S
N763 C760 1.301 . S
N763 C761 1.317 . S
N764 C760 1.328 . S
N764 C762 1.350 . S
H765 C760 0.930 . S
H766 C761 0.930 . S
C767 O768 1.224 . S
C767 O786 1.247 . S
O768 C767 1.224 . S
N769 Co759 2.128 . S
N769 C770 1.355 . S
N769 C772 1.311 . S
C770 N769 1.355 . S
C770 C771 1.363 . S
C770 H782 0.929 . S
C771 C770 1.363 . S
C771 N773 1.375 . S
C771 H789 0.931 . S
C772 N769 1.311 . S
C772 N773 1.347 . S
C772 H783 0.929 . S
N773 C771 1.375 . S
N773 C772 1.347 . S
C774 C777 1.365 . S
C774 N779 1.328 . S
C774 H780 0.929 . S
C775 C776 1.362 . S
C775 C778 1.378 . S
C775 H790 0.929 . S
C776 C775 1.362 . S
C776 C777 1.366 . S
C777 C774 1.365 . S
C777 C776 1.366 . S
C777 H791 0.930 . S
C778 C775 1.378 . S
C778 N779 1.315 . S
C778 H781 0.930 . S
N779 Co759 2.194 . S
N779 C774 1.328 . S
N779 C778 1.315 . S
H780 C774 0.929 . S
H781 C778 0.930 . S
H782 C770 0.929 . S
H783 C772 0.929 . S
O784 Co759 2.351 . S
O784 C787 1.244 . S
O785 Co759 2.155 . S
O785 C787 1.240 . S
O786 Co759 2.096 . S
O786 C767 1.247 . S
C787 O784 1.244 . S
C787 O785 1.240 . S
H788 C762 0.931 . S
H789 C771 0.931 . S
H790 C775 0.929 . S
H791 C777 0.930 . S
C792 C793 1.349 . S
C792 C794 1.327 . S
C792 H817 0.950 . S
C793 C792 1.349 . S
C793 C809 1.349 . S
C794 C792 1.327 . S
C794 C813 1.429 . S
C794 H818 0.950 . S
C795 C812 1.574 . S
C795 C814 1.368 . S
C795 H819 0.949 . S
H796 C800 0.949 . S
C797 C798 1.349 . S
C797 C799 1.327 . S
C797 H820 0.950 . S
C798 C797 1.349 . S
C798 C810 1.349 . S
C799 C797 1.327 . S
C799 C815 1.429 . S
C799 H821 0.950 . S
C800 H796 0.949 . S
C800 C808 1.574 . S
C800 C816 1.368 . S
H801 C809 0.950 . S
H802 C807 0.950 . S
H803 C808 0.949 . S
H804 C810 0.950 . S
H805 C811 0.950 . S
H806 C812 0.949 . S
C807 H802 0.950 . S
C807 C809 1.327 . S
C807 C813 1.429 . S
C808 C800 1.574 . S
C808 H803 0.949 . S
C808 C814 1.368 . S
C809 C793 1.349 . S
C809 H801 0.950 . S
C809 C807 1.327 . S
C810 C798 1.349 . S
C810 H804 0.950 . S
C810 C811 1.327 . S
C811 H805 0.950 . S
C811 C810 1.327 . S
C811 C815 1.429 . S
C812 C795 1.574 . S
C812 H806 0.949 . S
C812 C816 1.368 . S
C813 C794 1.429 . S
C813 C807 1.429 . S
C813 C814 1.523 . S
C814 C795 1.368 . S
C814 C808 1.368 . S
C814 C813 1.523 . S
C815 C799 1.429 . S
C815 C811 1.429 . S
C815 C816 1.523 . S
C816 C800 1.368 . S
C816 C812 1.368 . S
C816 C815 1.523 . S
H817 C792 0.950 . S
H818 C794 0.950 . S
H819 C795 0.949 . S
H820 C797 0.950 . S
H821 C799 0.950 . S
C822 C823 1.349 . S
C822 C824 1.327 . S
C822 H847 0.950 . S
C823 C822 1.349 . S
C823 C839 1.320 1_556 S
C824 C822 1.327 . S
C824 C843 1.429 . S
C824 H848 0.950 . S
C825 C842 1.577 . S
C825 C844 1.420 . S
C825 H849 0.901 1_556 S
H826 C830 0.949 . S
C827 C828 1.349 . S
C827 C829 1.327 . S
C827 H850 0.950 1_556 S
C828 C827 1.349 . S
C828 C840 1.349 . S
C829 C827 1.327 . S
C829 C845 1.429 . S
C829 H851 0.950 1_556 S
C830 H826 0.949 . S
C830 C838 1.574 . S
C830 C846 1.368 . S
H831 C839 0.981 . S
H832 C837 0.951 . S
H833 C838 0.949 . S
H834 C840 0.950 . S
H835 C841 0.950 . S
H836 C842 0.949 1_554 S
C837 H832 0.951 . S
C837 C839 1.327 . S
C837 C843 1.427 1_554 S
C838 C830 1.574 . S
C838 H833 0.949 . S
C838 C844 1.368 . S
C839 C823 1.320 1_554 S
C839 H831 0.981 . S
C839 C837 1.327 . S
C840 C828 1.349 . S
C840 H834 0.950 . S
C840 C841 1.327 . S
C841 H835 0.950 . S
C841 C840 1.327 . S
C841 C845 1.429 . S
C842 C825 1.577 . S
C842 H836 0.949 1_556 S
C842 C846 1.368 . S
C843 C824 1.429 . S
C843 C837 1.427 1_556 S
C843 C844 1.523 . S
C844 C825 1.420 . S
C844 C838 1.368 . S
C844 C843 1.523 . S
C845 C829 1.429 . S
C845 C841 1.429 . S
C845 C846 1.523 . S
C846 C830 1.368 . S
C846 C842 1.368 . S
C846 C845 1.523 . S
H847 C822 0.950 . S
H848 C824 0.950 . S
H849 C825 0.901 1_554 S
H850 C827 0.950 1_554 S
H851 C829 0.950 1_554 S
C852 C853 1.349 . S
C852 C854 1.327 . S
C852 H877 0.950 . S
C853 C852 1.349 . S
C853 C869 1.349 . S
C854 C852 1.327 . S
C854 C873 1.429 . S
C854 H878 0.950 . S
C855 C872 1.574 . S
C855 C874 1.368 . S
C855 H879 0.949 . S
H856 C860 0.949 . S
C857 C858 1.349 . S
C857 C859 1.327 . S
C857 H880 0.950 . S
C858 C857 1.349 . S
C858 C870 1.349 . S
C859 C857 1.327 . S
C859 C875 1.429 . S
C859 H881 0.950 . S
C860 H856 0.949 . S
C860 C868 1.574 . S
C860 C876 1.368 . S
H861 C869 0.950 . S
H862 C867 0.950 . S
H863 C868 0.949 . S
H864 C870 0.950 . S
H865 C871 0.950 . S
H866 C872 0.949 . S
C867 H862 0.950 . S
C867 C869 1.327 . S
C867 C873 1.429 . S
C868 C860 1.574 . S
C868 H863 0.949 . S
C868 C874 1.368 . S
C869 C853 1.349 . S
C869 H861 0.950 . S
C869 C867 1.327 . S
C870 C858 1.349 . S
C870 H864 0.950 . S
C870 C871 1.327 . S
C871 H865 0.950 . S
C871 C870 1.327 . S
C871 C875 1.429 . S
C872 C855 1.574 . S
C872 H866 0.949 . S
C872 C876 1.368 . S
C873 C854 1.429 . S
C873 C867 1.429 . S
C873 C874 1.523 . S
C874 C855 1.368 . S
C874 C868 1.368 . S
C874 C873 1.523 . S
C875 C859 1.429 . S
C875 C871 1.429 . S
C875 C876 1.523 . S
C876 C860 1.368 . S
C876 C872 1.368 . S
C876 C875 1.523 . S
H877 C852 0.950 . S
H878 C854 0.950 . S
H879 C855 0.949 . S
H880 C857 0.950 . S
H881 C859 0.950 . S
C882 C883 1.349 . S
C882 C884 1.327 . S
C882 H907 0.950 . S
C883 C882 1.349 . S
C883 C899 1.349 . S
C884 C882 1.327 . S
C884 C903 1.429 . S
C884 H908 0.950 . S
C885 C902 1.574 . S
C885 C904 1.368 . S
C885 H909 0.949 . S
H886 C890 0.949 . S
C887 C888 1.349 . S
C887 C889 1.327 . S
C887 H910 0.950 . S
C888 C887 1.349 . S
C888 C900 1.349 . S
C889 C887 1.327 . S
C889 C905 1.429 . S
C889 H911 0.950 . S
C890 H886 0.949 . S
C890 C898 1.574 . S
C890 C906 1.368 . S
H891 C899 0.950 . S
H892 C897 0.950 . S
H893 C898 0.949 . S
H894 C900 0.950 . S
H895 C901 0.950 . S
H896 C902 0.949 . S
C897 H892 0.950 . S
C897 C899 1.327 . S
C897 C903 1.429 . S
C898 C890 1.574 . S
C898 H893 0.949 . S
C898 C904 1.368 . S
C899 C883 1.349 . S
C899 H891 0.950 . S
C899 C897 1.327 . S
C900 C888 1.349 . S
C900 H894 0.950 . S
C900 C901 1.327 . S
C901 H895 0.950 . S
C901 C900 1.327 . S
C901 C905 1.429 . S
C902 C885 1.574 . S
C902 H896 0.949 . S
C902 C906 1.368 . S
C903 C884 1.429 . S
C903 C897 1.429 . S
C903 C904 1.523 . S
C904 C885 1.368 . S
C904 C898 1.368 . S
C904 C903 1.523 . S
C905 C889 1.429 . S
C905 C901 1.429 . S
C905 C906 1.523 . S
C906 C890 1.368 . S
C906 C902 1.368 . S
C906 C905 1.523 . S
H907 C882 0.950 . S
H908 C884 0.950 . S
H909 C885 0.949 . S
H910 C887 0.950 . S
H911 C889 0.950 . S
C912 C913 1.349 . S
C912 C914 1.327 . S
C912 H937 0.950 . S
C913 C912 1.349 . S
C913 C929 1.349 . S
C914 C912 1.327 . S
C914 C933 1.429 . S
C914 H938 0.950 . S
C915 C932 1.574 . S
C915 C934 1.368 . S
C915 H939 0.949 . S
H916 C920 0.949 . S
C917 C918 1.349 . S
C917 C919 1.327 . S
C917 H940 0.950 . S
C918 C917 1.349 . S
C918 C930 1.349 . S
C919 C917 1.327 . S
C919 C935 1.429 . S
C919 H941 0.950 . S
C920 H916 0.949 . S
C920 C928 1.574 . S
C920 C936 1.368 . S
H921 C929 0.950 . S
H922 C927 0.950 . S
H923 C928 0.949 . S
H924 C930 0.950 . S
H925 C931 0.950 . S
H926 C932 0.949 . S
C927 H922 0.950 . S
C927 C929 1.327 . S
C927 C933 1.429 . S
C928 C920 1.574 . S
C928 H923 0.949 . S
C928 C934 1.368 . S
C929 C913 1.349 . S
C929 H921 0.950 . S
C929 C927 1.327 . S
C930 C918 1.349 . S
C930 H924 0.950 . S
C930 C931 1.327 . S
C931 H925 0.950 . S
C931 C930 1.327 . S
C931 C935 1.429 . S
C932 C915 1.574 . S
C932 H926 0.949 . S
C932 C936 1.368 . S
C933 C914 1.429 . S
C933 C927 1.429 . S
C933 C934 1.523 . S
C934 C915 1.368 . S
C934 C928 1.368 . S
C934 C933 1.523 . S
C935 C919 1.429 . S
C935 C931 1.429 . S
C935 C936 1.523 . S
C936 C920 1.368 . S
C936 C932 1.368 . S
C936 C935 1.523 . S
H937 C912 0.950 . S
H938 C914 0.950 . S
H939 C915 0.949 . S
H940 C917 0.950 . S
H941 C919 0.950 . S
C942 C943 1.349 . S
C942 C944 1.327 . S
C942 H967 0.950 . S
C943 C942 1.349 . S
C943 C959 1.349 . S
C944 C942 1.327 . S
C944 C963 1.429 . S
C944 H968 0.950 . S
C945 C962 1.574 . S
C945 C964 1.368 . S
C945 H969 0.949 . S
H946 C950 0.949 . S
C947 C948 1.349 . S
C947 C949 1.327 . S
C947 H970 0.950 . S
C948 C947 1.349 . S
C948 C960 1.349 . S
C949 C947 1.327 . S
C949 C965 1.429 . S
C949 H971 0.950 . S
C950 H946 0.949 . S
C950 C958 1.574 . S
C950 C966 1.368 . S
H951 C959 0.950 . S
H952 C957 0.950 . S
H953 C958 0.949 . S
H954 C960 0.950 . S
H955 C961 0.950 . S
H956 C962 0.949 . S
C957 H952 0.950 . S
C957 C959 1.327 . S
C957 C963 1.429 . S
C958 C950 1.574 . S
C958 H953 0.949 . S
C958 C964 1.368 . S
C959 C943 1.349 . S
C959 H951 0.950 . S
C959 C957 1.327 . S
C960 C948 1.349 . S
C960 H954 0.950 . S
C960 C961 1.327 . S
C961 H955 0.950 . S
C961 C960 1.327 . S
C961 C965 1.429 . S
C962 C945 1.574 . S
C962 H956 0.949 . S
C962 C966 1.368 . S
C963 C944 1.429 . S
C963 C957 1.429 . S
C963 C964 1.523 . S
C964 C945 1.368 . S
C964 C958 1.368 . S
C964 C963 1.523 . S
C965 C949 1.429 . S
C965 C961 1.429 . S
C965 C966 1.523 . S
C966 C950 1.368 . S
C966 C962 1.368 . S
C966 C965 1.523 . S
H967 C942 0.950 . S
H968 C944 0.950 . S
H969 C945 0.949 . S
H970 C947 0.950 . S
H971 C949 0.950 . S
C972 C973 1.349 . S
C972 C974 1.327 . S
C972 H997 0.950 . S
C973 C972 1.349 . S
C973 C989 1.349 . S
C974 C972 1.327 . S
C974 C993 1.429 . S
C974 H998 0.950 . S
C975 C992 1.574 . S
C975 C994 1.368 . S
C975 H999 0.949 . S
H976 C980 0.949 1_455 S
C977 C978 1.349 . S
C977 C979 1.327 . S
C977 H1000 0.950 . S
C978 C977 1.349 . S
C978 C990 1.349 . S
C979 C977 1.327 . S
C979 C995 1.429 . S
C979 H1001 0.950 . S
C980 H976 0.949 1_655 S
C980 C988 1.574 . S
C980 C996 1.368 . S
H981 C989 0.950 . S
H982 C987 0.950 . S
H983 C988 0.956 . S
H984 C990 0.950 1_455 S
H985 C991 0.950 1_455 S
H986 C992 0.949 . S
C987 H982 0.950 . S
C987 C989 1.327 . S
C987 C993 1.429 . S
C988 C980 1.574 . S
C988 H983 0.956 . S
C988 C994 1.368 . S
C989 C973 1.349 . S
C989 H981 0.950 . S
C989 C987 1.327 . S
C990 C978 1.349 . S
C990 H984 0.950 1_655 S
C990 C991 1.327 . S
C991 H985 0.950 1_655 S
C991 C990 1.327 . S
C991 C995 1.429 . S
C992 C975 1.574 . S
C992 H986 0.949 . S
C992 C996 1.368 . S
C993 C974 1.429 . S
C993 C987 1.429 . S
C993 C994 1.523 . S
C994 C975 1.368 . S
C994 C988 1.368 . S
C994 C993 1.523 . S
C995 C979 1.429 . S
C995 C991 1.429 . S
C995 C996 1.523 . S
C996 C980 1.368 . S
C996 C992 1.368 . S
C996 C995 1.523 . S
H997 C972 0.950 . S
H998 C974 0.950 . S
H999 C975 0.949 . S
H1000 C977 0.950 . S
H1001 C979 0.950 . S
C1002 C1003 1.349 . S
C1002 C1004 1.327 . S
C1002 H1027 0.950 . S
C1003 C1002 1.349 . S
C1003 C1019 1.349 . S
C1004 C1002 1.327 . S
C1004 C1023 1.429 . S
C1004 H1028 0.950 . S
C1005 C1022 1.574 . S
C1005 C1024 1.368 . S
C1005 H1029 0.949 . S
H1006 C1010 0.949 . S
C1007 C1008 1.349 . S
C1007 C1009 1.327 . S
C1007 H1030 0.950 . S
C1008 C1007 1.349 . S
C1008 C1020 1.349 . S
C1009 C1007 1.327 . S
C1009 C1025 1.429 . S
C1009 H1031 0.950 . S
C1010 H1006 0.949 . S
C1010 C1018 1.574 . S
C1010 C1026 1.368 . S
H1011 C1019 0.950 . S
H1012 C1017 0.950 . S
H1013 C1018 0.949 . S
H1014 C1020 0.950 . S
H1015 C1021 0.950 . S
H1016 C1022 0.949 . S
C1017 H1012 0.950 . S
C1017 C1019 1.327 . S
C1017 C1023 1.429 . S
C1018 C1010 1.574 . S
C1018 H1013 0.949 . S
C1018 C1024 1.368 . S
C1019 C1003 1.349 . S
C1019 H1011 0.950 . S
C1019 C1017 1.327 . S
C1020 C1008 1.349 . S
C1020 H1014 0.950 . S
C1020 C1021 1.327 . S
C1021 H1015 0.950 . S
C1021 C1020 1.327 . S
C1021 C1025 1.429 . S
C1022 C1005 1.574 . S
C1022 H1016 0.949 . S
C1022 C1026 1.368 . S
C1023 C1004 1.429 . S
C1023 C1017 1.429 . S
C1023 C1024 1.523 . S
C1024 C1005 1.368 . S
C1024 C1018 1.368 . S
C1024 C1023 1.523 . S
C1025 C1009 1.429 . S
C1025 C1021 1.429 . S
C1025 C1026 1.523 . S
C1026 C1010 1.368 . S
C1026 C1022 1.368 . S
C1026 C1025 1.523 . S
H1027 C1002 0.950 . S
H1028 C1004 0.950 . S
H1029 C1005 0.949 . S
H1030 C1007 0.950 . S
H1031 C1009 0.950 . S
C1032 C1033 1.349 . S
C1032 C1034 1.327 . S
C1032 H1057 0.950 . S
C1033 C1032 1.349 . S
C1033 C1049 1.349 . S
C1034 C1032 1.327 . S
C1034 C1053 1.429 . S
C1034 H1058 0.950 . S
C1035 C1052 1.574 . S
C1035 C1054 1.368 . S
C1035 H1059 0.949 . S
H1036 C1040 0.949 . S
C1037 C1038 1.349 . S
C1037 C1039 1.327 . S
C1037 H1060 0.950 . S
C1038 C1037 1.349 . S
C1038 C1050 1.349 . S
C1039 C1037 1.327 . S
C1039 C1055 1.429 . S
C1039 H1061 0.950 . S
C1040 H1036 0.949 . S
C1040 C1048 1.574 . S
C1040 C1056 1.368 . S
H1041 C1049 0.950 . S
H1042 C1047 0.950 . S
H1043 C1048 0.949 . S
H1044 C1050 0.950 . S
H1045 C1051 0.950 . S
H1046 C1052 0.949 . S
C1047 H1042 0.950 . S
C1047 C1049 1.327 . S
C1047 C1053 1.429 . S
C1048 C1040 1.574 . S
C1048 H1043 0.949 . S
C1048 C1054 1.368 . S
C1049 C1033 1.349 . S
C1049 H1041 0.950 . S
C1049 C1047 1.327 . S
C1050 C1038 1.349 . S
C1050 H1044 0.950 . S
C1050 C1051 1.327 . S
C1051 H1045 0.950 . S
C1051 C1050 1.327 . S
C1051 C1055 1.429 . S
C1052 C1035 1.574 . S
C1052 H1046 0.949 . S
C1052 C1056 1.368 . S
C1053 C1034 1.429 . S
C1053 C1047 1.429 . S
C1053 C1054 1.523 . S
C1054 C1035 1.368 . S
C1054 C1048 1.368 . S
C1054 C1053 1.523 . S
C1055 C1039 1.429 . S
C1055 C1051 1.429 . S
C1055 C1056 1.523 . S
C1056 C1040 1.368 . S
C1056 C1052 1.368 . S
C1056 C1055 1.523 . S
H1057 C1032 0.950 . S
H1058 C1034 0.950 . S
H1059 C1035 0.949 . S
H1060 C1037 0.950 . S
H1061 C1039 0.950 . S
C1062 C1063 1.349 . S
C1062 C1064 1.327 . S
C1062 H1087 0.950 . S
C1063 C1062 1.349 . S
C1063 C1079 1.349 . S
C1064 C1062 1.327 . S
C1064 C1083 1.429 . S
C1064 H1088 0.950 . S
C1065 C1082 1.574 . S
C1065 C1084 1.368 . S
C1065 H1089 0.949 . S
H1066 C1070 0.949 . S
C1067 C1068 1.349 . S
C1067 C1069 1.327 . S
C1067 H1090 0.950 . S
C1068 C1067 1.349 . S
C1068 C1080 1.349 . S
C1069 C1067 1.327 . S
C1069 C1085 1.429 . S
C1069 H1091 0.950 . S
C1070 H1066 0.949 . S
C1070 C1078 1.574 . S
C1070 C1086 1.368 . S
H1071 C1079 0.950 . S
H1072 C1077 0.950 . S
H1073 C1078 0.949 . S
H1074 C1080 0.950 . S
H1075 C1081 0.950 . S
H1076 C1082 0.949 . S
C1077 H1072 0.950 . S
C1077 C1079 1.327 . S
C1077 C1083 1.429 . S
C1078 C1070 1.574 . S
C1078 H1073 0.949 . S
C1078 C1084 1.368 . S
C1079 C1063 1.349 . S
C1079 H1071 0.950 . S
C1079 C1077 1.327 . S
C1080 C1068 1.349 . S
C1080 H1074 0.950 . S
C1080 C1081 1.327 . S
C1081 H1075 0.950 . S
C1081 C1080 1.327 . S
C1081 C1085 1.429 . S
C1082 C1065 1.574 . S
C1082 H1076 0.949 . S
C1082 C1086 1.368 . S
C1083 C1064 1.429 . S
C1083 C1077 1.429 . S
C1083 C1084 1.523 . S
C1084 C1065 1.368 . S
C1084 C1078 1.368 . S
C1084 C1083 1.523 . S
C1085 C1069 1.429 . S
C1085 C1081 1.429 . S
C1085 C1086 1.523 . S
C1086 C1070 1.368 . S
C1086 C1082 1.368 . S
C1086 C1085 1.523 . S
H1087 C1062 0.950 . S
H1088 C1064 0.950 . S
H1089 C1065 0.949 . S
H1090 C1067 0.950 . S
H1091 C1069 0.950 . S
C1092 C1093 1.349 . S
C1092 C1094 1.327 . S
C1092 H1117 0.950 1_565 S
C1093 C1092 1.349 . S
C1093 C1109 1.349 . S
C1094 C1092 1.327 . S
C1094 C1113 1.429 . S
C1094 H1118 0.950 1_565 S
C1095 C1112 1.574 . S
C1095 C1114 1.368 . S
C1095 H1119 0.949 . S
H1096 C1100 0.949 1_545 S
C1097 C1098 1.349 . S
C1097 C1099 1.327 . S
C1097 H1120 0.950 . S
C1098 C1097 1.349 . S
C1098 C1110 1.349 . S
C1099 C1097 1.327 . S
C1099 C1115 1.429 . S
C1099 H1121 0.950 . S
C1100 H1096 0.949 1_565 S
C1100 C1108 1.574 . S
C1100 C1116 1.368 . S
H1101 C1109 0.950 . S
H1102 C1107 0.950 . S
H1103 C1108 0.949 1_545 S
H1104 C1110 0.947 1_545 S
H1105 C1111 0.950 1_545 S
H1106 C1112 0.949 . S
C1107 H1102 0.950 . S
C1107 C1109 1.327 . S
C1107 C1113 1.429 . S
C1108 C1100 1.574 . S
C1108 H1103 0.949 1_565 S
C1108 C1114 1.368 . S
C1109 C1093 1.349 . S
C1109 H1101 0.950 . S
C1109 C1107 1.327 . S
C1110 C1098 1.349 . S
C1110 H1104 0.947 1_565 S
C1110 C1111 1.327 . S
C1111 H1105 0.950 1_565 S
C1111 C1110 1.327 . S
C1111 C1115 1.429 . S
C1112 C1095 1.574 . S
C1112 H1106 0.949 . S
C1112 C1116 1.368 . S
C1113 C1094 1.429 . S
C1113 C1107 1.429 . S
C1113 C1114 1.523 . S
C1114 C1095 1.368 . S
C1114 C1108 1.368 . S
C1114 C1113 1.523 . S
C1115 C1099 1.429 . S
C1115 C1111 1.429 . S
C1115 C1116 1.523 . S
C1116 C1100 1.368 . S
C1116 C1112 1.368 . S
C1116 C1115 1.523 . S
H1117 C1092 0.950 1_545 S
H1118 C1094 0.950 1_545 S
H1119 C1095 0.949 . S
H1120 C1097 0.950 . S
H1121 C1099 0.950 . S
C1122 C1123 1.349 . S
C1122 C1124 1.327 . S
C1122 H1147 0.950 . S
C1123 C1122 1.349 . S
C1123 C1139 1.349 . S
C1124 C1122 1.327 . S
C1124 C1143 1.429 . S
C1124 H1148 0.950 . S
C1125 C1142 1.574 . S
C1125 C1144 1.368 . S
C1125 H1149 0.949 . S
H1126 C1130 0.949 . S
C1127 C1128 1.349 . S
C1127 C1129 1.327 . S
C1127 H1150 0.950 . S
C1128 C1127 1.349 . S
C1128 C1140 1.349 . S
C1129 C1127 1.327 . S
C1129 C1145 1.429 . S
C1129 H1151 0.950 . S
C1130 H1126 0.949 . S
C1130 C1138 1.574 . S
C1130 C1146 1.368 . S
H1131 C1139 0.950 . S
H1132 C1137 0.950 . S
H1133 C1138 0.949 . S
H1134 C1140 0.950 . S
H1135 C1141 0.950 . S
H1136 C1142 0.949 . S
C1137 H1132 0.950 . S
C1137 C1139 1.327 . S
C1137 C1143 1.429 . S
C1138 C1130 1.574 . S
C1138 H1133 0.949 . S
C1138 C1144 1.368 . S
C1139 C1123 1.349 . S
C1139 H1131 0.950 . S
C1139 C1137 1.327 . S
C1140 C1128 1.349 . S
C1140 H1134 0.950 . S
C1140 C1141 1.327 . S
C1141 H1135 0.950 . S
C1141 C1140 1.327 . S
C1141 C1145 1.429 . S
C1142 C1125 1.574 . S
C1142 H1136 0.949 . S
C1142 C1146 1.368 . S
C1143 C1124 1.429 . S
C1143 C1137 1.429 . S
C1143 C1144 1.523 . S
C1144 C1125 1.368 . S
C1144 C1138 1.368 . S
C1144 C1143 1.523 . S
C1145 C1129 1.429 . S
C1145 C1141 1.429 . S
C1145 C1146 1.523 . S
C1146 C1130 1.368 . S
C1146 C1142 1.368 . S
C1146 C1145 1.523 . S
H1147 C1122 0.950 . S
H1148 C1124 0.950 . S
H1149 C1125 0.949 . S
H1150 C1127 0.950 . S
H1151 C1129 0.950 . S
C1152 C1153 1.349 . S
C1152 C1154 1.327 . S
C1152 H1177 0.950 . S
C1153 C1152 1.349 . S
C1153 C1169 1.349 . S
C1154 C1152 1.327 . S
C1154 C1173 1.429 . S
C1154 H1178 0.950 . S
C1155 C1172 1.574 . S
C1155 C1174 1.368 . S
C1155 H1179 0.949 . S
H1156 C1160 0.949 . S
C1157 C1158 1.349 . S
C1157 C1159 1.327 . S
C1157 H1180 0.950 . S
C1158 C1157 1.349 . S
C1158 C1170 1.349 . S
C1159 C1157 1.327 . S
C1159 C1175 1.429 . S
C1159 H1181 0.950 . S
C1160 H1156 0.949 . S
C1160 C1168 1.574 . S
C1160 C1176 1.368 . S
H1161 C1169 0.950 . S
H1162 C1167 0.950 . S
H1163 C1168 0.949 . S
H1164 C1170 0.950 . S
H1165 C1171 0.950 . S
H1166 C1172 0.949 . S
C1167 H1162 0.950 . S
C1167 C1169 1.327 . S
C1167 C1173 1.429 . S
C1168 C1160 1.574 . S
C1168 H1163 0.949 . S
C1168 C1174 1.368 . S
C1169 C1153 1.349 . S
C1169 H1161 0.950 . S
C1169 C1167 1.327 . S
C1170 C1158 1.349 . S
C1170 H1164 0.950 . S
C1170 C1171 1.327 . S
C1171 H1165 0.950 . S
C1171 C1170 1.327 . S
C1171 C1175 1.429 . S
C1172 C1155 1.574 . S
C1172 H1166 0.949 . S
C1172 C1176 1.368 . S
C1173 C1154 1.429 . S
C1173 C1167 1.429 . S
C1173 C1174 1.523 . S
C1174 C1155 1.368 . S
C1174 C1168 1.368 . S
C1174 C1173 1.523 . S
C1175 C1159 1.429 . S
C1175 C1171 1.429 . S
C1175 C1176 1.523 . S
C1176 C1160 1.368 . S
C1176 C1172 1.368 . S
C1176 C1175 1.523 . S
H1177 C1152 0.950 . S
H1178 C1154 0.950 . S
H1179 C1155 0.949 . S
H1180 C1157 0.950 . S
H1181 C1159 0.950 . S
C1182 C1183 1.349 . S
C1182 C1184 1.327 . S
C1182 H1207 0.950 . S
C1183 C1182 1.349 . S
C1183 C1199 1.349 . S
C1184 C1182 1.327 . S
C1184 C1203 1.429 . S
C1184 H1208 0.950 . S
C1185 C1202 1.574 . S
C1185 C1204 1.368 . S
C1185 H1209 0.949 . S
H1186 C1190 0.949 . S
C1187 C1188 1.349 . S
C1187 C1189 1.327 . S
C1187 H1210 0.950 . S
C1188 C1187 1.349 . S
C1188 C1200 1.349 . S
C1189 C1187 1.327 . S
C1189 C1205 1.429 . S
C1189 H1211 0.950 . S
C1190 H1186 0.949 . S
C1190 C1198 1.574 . S
C1190 C1206 1.368 . S
H1191 C1199 0.950 . S
H1192 C1197 0.950 . S
H1193 C1198 0.949 . S
H1194 C1200 0.950 . S
H1195 C1201 0.950 . S
H1196 C1202 0.949 . S
C1197 H1192 0.950 . S
C1197 C1199 1.327 . S
C1197 C1203 1.429 . S
C1198 C1190 1.574 . S
C1198 H1193 0.949 . S
C1198 C1204 1.368 . S
C1199 C1183 1.349 . S
C1199 H1191 0.950 . S
C1199 C1197 1.327 . S
C1200 C1188 1.349 . S
C1200 H1194 0.950 . S
C1200 C1201 1.327 . S
C1201 H1195 0.950 . S
C1201 C1200 1.327 . S
C1201 C1205 1.429 . S
C1202 C1185 1.574 . S
C1202 H1196 0.949 . S
C1202 C1206 1.368 . S
C1203 C1184 1.429 . S
C1203 C1197 1.429 . S
C1203 C1204 1.523 . S
C1204 C1185 1.368 . S
C1204 C1198 1.368 . S
C1204 C1203 1.523 . S
C1205 C1189 1.429 . S
C1205 C1201 1.429 . S
C1205 C1206 1.523 . S
C1206 C1190 1.368 . S
C1206 C1202 1.368 . S
C1206 C1205 1.523 . S
H1207 C1182 0.950 . S
H1208 C1184 0.950 . S
H1209 C1185 0.949 . S
H1210 C1187 0.950 . S
H1211 C1189 0.950 . S
C1212 C1213 1.349 . S
C1212 C1214 1.327 . S
C1212 H1237 0.950 . S
C1213 C1212 1.349 . S
C1213 C1229 1.349 . S
C1214 C1212 1.327 . S
C1214 C1233 1.429 . S
C1214 H1238 0.950 . S
C1215 C1232 1.574 . S
C1215 C1234 1.368 . S
C1215 H1239 0.949 . S
H1216 C1220 0.949 . S
C1217 C1218 1.349 . S
C1217 C1219 1.327 . S
C1217 H1240 0.950 1_565 S
C1218 C1217 1.349 . S
C1218 C1230 1.349 . S
C1219 C1217 1.327 . S
C1219 C1235 1.429 . S
C1219 H1241 0.950 . S
C1220 H1216 0.949 . S
C1220 C1228 1.574 . S
C1220 C1236 1.368 . S
H1221 C1229 0.950 . S
H1222 C1227 0.950 . S
H1223 C1228 0.949 . S
H1224 C1230 0.950 . S
H1225 C1231 0.950 . S
H1226 C1232 0.949 . S
C1227 H1222 0.950 . S
C1227 C1229 1.327 . S
C1227 C1233 1.429 . S
C1228 C1220 1.574 . S
C1228 H1223 0.949 . S
C1228 C1234 1.368 . S
C1229 C1213 1.349 . S
C1229 H1221 0.950 . S
C1229 C1227 1.327 . S
C1230 C1218 1.349 . S
C1230 H1224 0.950 . S
C1230 C1231 1.327 . S
C1231 H1225 0.950 . S
C1231 C1230 1.327 . S
C1231 C1235 1.429 . S
C1232 C1215 1.574 . S
C1232 H1226 0.949 . S
C1232 C1236 1.368 . S
C1233 C1214 1.429 . S
C1233 C1227 1.429 . S
C1233 C1234 1.523 . S
C1234 C1215 1.368 . S
C1234 C1228 1.368 . S
C1234 C1233 1.523 . S
C1235 C1219 1.429 . S
C1235 C1231 1.429 . S
C1235 C1236 1.523 . S
C1236 C1220 1.368 . S
C1236 C1232 1.368 . S
C1236 C1235 1.523 . S
H1237 C1212 0.950 . S
H1238 C1214 0.950 . S
H1239 C1215 0.949 . S
H1240 C1217 0.950 1_545 S
H1241 C1219 0.950 . S
C1242 C1243 1.349 . S
C1242 C1244 1.327 . S
C1242 H1267 0.950 . S
C1243 C1242 1.349 . S
C1243 C1259 1.349 . S
C1244 C1242 1.327 . S
C1244 C1263 1.429 . S
C1244 H1268 0.950 . S
C1245 C1262 1.574 . S
C1245 C1264 1.368 . S
C1245 H1269 0.949 . S
H1246 C1250 0.949 . S
C1247 C1248 1.349 . S
C1247 C1249 1.327 . S
C1247 H1270 0.950 . S
C1248 C1247 1.349 . S
C1248 C1260 1.349 . S
C1249 C1247 1.327 . S
C1249 C1265 1.429 . S
C1249 H1271 0.950 . S
C1250 H1246 0.949 . S
C1250 C1258 1.574 . S
C1250 C1266 1.368 . S
H1251 C1259 0.950 . S
H1252 C1257 0.950 . S
H1253 C1258 0.949 . S
H1254 C1260 0.950 . S
H1255 C1261 0.950 . S
H1256 C1262 0.949 . S
C1257 H1252 0.950 . S
C1257 C1259 1.327 . S
C1257 C1263 1.429 . S
C1258 C1250 1.574 . S
C1258 H1253 0.949 . S
C1258 C1264 1.368 . S
C1259 C1243 1.349 . S
C1259 H1251 0.950 . S
C1259 C1257 1.327 . S
C1260 C1248 1.349 . S
C1260 H1254 0.950 . S
C1260 C1261 1.327 . S
C1261 H1255 0.950 . S
C1261 C1260 1.327 . S
C1261 C1265 1.429 . S
C1262 C1245 1.574 . S
C1262 H1256 0.949 . S
C1262 C1266 1.368 . S
C1263 C1244 1.429 . S
C1263 C1257 1.429 . S
C1263 C1264 1.523 . S
C1264 C1245 1.368 . S
C1264 C1258 1.368 . S
C1264 C1263 1.523 . S
C1265 C1249 1.429 . S
C1265 C1261 1.429 . S
C1265 C1266 1.523 . S
C1266 C1250 1.368 . S
C1266 C1262 1.368 . S
C1266 C1265 1.523 . S
H1267 C1242 0.950 . S
H1268 C1244 0.950 . S
H1269 C1245 0.949 . S
H1270 C1247 0.950 . S
H1271 C1249 0.950 . S
C1272 C1273 1.349 . S
C1272 C1274 1.327 . S
C1272 H1297 0.950 . S
C1273 C1272 1.349 . S
C1273 C1289 1.349 . S
C1274 C1272 1.327 . S
C1274 C1293 1.429 . S
C1274 H1298 0.950 . S
C1275 C1292 1.574 . S
C1275 C1294 1.368 . S
C1275 H1299 0.949 . S
H1276 C1280 0.949 . S
C1277 C1278 1.349 . S
C1277 C1279 1.327 . S
C1277 H1300 0.950 . S
C1278 C1277 1.349 . S
C1278 C1290 1.349 . S
C1279 C1277 1.327 . S
C1279 C1295 1.429 . S
C1279 H1301 0.950 . S
C1280 H1276 0.949 . S
C1280 C1288 1.574 . S
C1280 C1296 1.368 . S
H1281 C1289 0.950 . S
H1282 C1287 0.950 . S
H1283 C1288 0.949 . S
H1284 C1290 0.950 . S
H1285 C1291 0.950 . S
H1286 C1292 0.949 . S
C1287 H1282 0.950 . S
C1287 C1289 1.327 . S
C1287 C1293 1.429 . S
C1288 C1280 1.574 . S
C1288 H1283 0.949 . S
C1288 C1294 1.368 . S
C1289 C1273 1.349 . S
C1289 H1281 0.950 . S
C1289 C1287 1.327 . S
C1290 C1278 1.349 . S
C1290 H1284 0.950 . S
C1290 C1291 1.327 . S
C1291 H1285 0.950 . S
C1291 C1290 1.327 . S
C1291 C1295 1.429 . S
C1292 C1275 1.574 . S
C1292 H1286 0.949 . S
C1292 C1296 1.368 . S
C1293 C1274 1.429 . S
C1293 C1287 1.429 . S
C1293 C1294 1.523 . S
C1294 C1275 1.368 . S
C1294 C1288 1.368 . S
C1294 C1293 1.523 . S
C1295 C1279 1.429 . S
C1295 C1291 1.429 . S
C1295 C1296 1.523 . S
C1296 C1280 1.368 . S
C1296 C1292 1.368 . S
C1296 C1295 1.523 . S
H1297 C1272 0.950 . S
H1298 C1274 0.950 . S
H1299 C1275 0.949 . S
H1300 C1277 0.950 . S
H1301 C1279 0.950 . S
C1302 C1303 1.349 . S
C1302 C1304 1.327 . S
C1302 H1327 0.950 . S
C1303 C1302 1.349 . S
C1303 C1319 1.349 . S
C1304 C1302 1.327 . S
C1304 C1323 1.429 . S
C1304 H1328 0.950 . S
C1305 C1322 1.574 . S
C1305 C1324 1.368 . S
C1305 H1329 0.949 . S
H1306 C1310 0.949 . S
C1307 C1308 1.349 . S
C1307 C1309 1.327 . S
C1307 H1330 0.950 . S
C1308 C1307 1.349 . S
C1308 C1320 1.349 . S
C1309 C1307 1.327 . S
C1309 C1325 1.429 . S
C1309 H1331 0.950 . S
C1310 H1306 0.949 . S
C1310 C1318 1.574 . S
C1310 C1326 1.368 . S
H1311 C1319 0.950 . S
H1312 C1317 0.950 . S
H1313 C1318 0.949 . S
H1314 C1320 0.950 . S
H1315 C1321 0.950 . S
H1316 C1322 0.949 . S
C1317 H1312 0.950 . S
C1317 C1319 1.327 . S
C1317 C1323 1.429 . S
C1318 C1310 1.574 . S
C1318 H1313 0.949 . S
C1318 C1324 1.368 . S
C1319 C1303 1.349 . S
C1319 H1311 0.950 . S
C1319 C1317 1.327 . S
C1320 C1308 1.349 . S
C1320 H1314 0.950 . S
C1320 C1321 1.327 . S
C1321 H1315 0.950 . S
C1321 C1320 1.327 . S
C1321 C1325 1.429 . S
C1322 C1305 1.574 . S
C1322 H1316 0.949 . S
C1322 C1326 1.368 . S
C1323 C1304 1.429 . S
C1323 C1317 1.429 . S
C1323 C1324 1.523 . S
C1324 C1305 1.368 . S
C1324 C1318 1.368 . S
C1324 C1323 1.523 . S
C1325 C1309 1.429 . S
C1325 C1321 1.429 . S
C1325 C1326 1.523 . S
C1326 C1310 1.368 . S
C1326 C1322 1.368 . S
C1326 C1325 1.523 . S
H1327 C1302 0.950 . S
H1328 C1304 0.950 . S
H1329 C1305 0.949 . S
H1330 C1307 0.950 . S
H1331 C1309 0.950 . S
C1332 C1333 1.349 1_655 S
C1332 C1334 1.327 . S
C1332 H1357 0.950 . S
C1333 C1332 1.349 1_455 S
C1333 C1349 1.349 . S
C1334 C1332 1.327 . S
C1334 C1353 1.429 1_654 S
C1334 H1358 0.950 . S
C1335 C1352 1.574 . S
C1335 C1354 1.368 . S
C1335 H1359 0.949 . S
H1336 C1340 0.949 . S
C1337 C1338 1.349 . S
C1337 C1339 1.327 . S
C1337 H1360 0.950 . S
C1338 C1337 1.349 . S
C1338 C1350 1.349 1_455 S
C1339 C1337 1.327 . S
C1339 C1355 1.429 . S
C1339 H1361 0.950 . S
C1340 H1336 0.949 . S
C1340 C1348 1.574 . S
C1340 C1356 1.368 1_655 S
H1341 C1349 0.950 . S
H1342 C1347 0.950 . S
H1343 C1348 0.949 . S
H1344 C1350 0.950 . S
H1345 C1351 0.950 . S
H1346 C1352 0.949 . S
C1347 H1342 0.950 . S
C1347 C1349 1.327 1_556 S
C1347 C1353 1.429 . S
C1348 C1340 1.574 . S
C1348 H1343 0.949 . S
C1348 C1354 1.368 1_655 S
C1349 C1333 1.349 . S
C1349 H1341 0.950 . S
C1349 C1347 1.327 1_554 S
C1350 C1338 1.349 1_655 S
C1350 H1344 0.950 . S
C1350 C1351 1.327 . S
C1351 H1345 0.950 . S
C1351 C1350 1.327 . S
C1351 C1355 1.429 1_655 S
C1352 C1335 1.574 . S
C1352 H1346 0.949 . S
C1352 C1356 1.368 . S
C1353 C1334 1.429 1_456 S
C1353 C1347 1.429 . S
C1353 C1354 1.523 . S
C1354 C1335 1.368 . S
C1354 C1348 1.368 1_455 S
C1354 C1353 1.523 . S
C1355 C1339 1.429 . S
C1355 C1351 1.429 1_455 S
C1355 C1356 1.523 . S
C1356 C1340 1.368 1_455 S
C1356 C1352 1.368 . S
C1356 C1355 1.523 . S
H1357 C1332 0.950 . S
H1358 C1334 0.950 . S
H1359 C1335 0.949 . S
H1360 C1337 0.950 . S
H1361 C1339 0.950 . S
C1362 C1363 1.349 . S
C1362 C1364 1.327 . S
C1362 H1387 0.950 . S
C1363 C1362 1.349 . S
C1363 C1379 1.349 . S
C1364 C1362 1.327 . S
C1364 C1383 1.429 . S
C1364 H1388 0.950 . S
C1365 C1382 1.574 . S
C1365 C1384 1.368 . S
C1365 H1389 0.949 . S
H1366 C1370 0.949 . S
C1367 C1368 1.349 . S
C1367 C1369 1.327 . S
C1367 H1390 0.950 . S
C1368 C1367 1.349 . S
C1368 C1380 1.349 . S
C1369 C1367 1.327 . S
C1369 C1385 1.429 . S
C1369 H1391 0.950 . S
C1370 H1366 0.949 . S
C1370 C1378 1.574 . S
C1370 C1386 1.368 . S
H1371 C1379 0.950 . S
H1372 C1377 0.950 . S
H1373 C1378 0.949 . S
H1374 C1380 0.950 . S
H1375 C1381 0.950 . S
H1376 C1382 0.949 . S
C1377 H1372 0.950 . S
C1377 C1379 1.327 . S
C1377 C1383 1.429 . S
C1378 C1370 1.574 . S
C1378 H1373 0.949 . S
C1378 C1384 1.368 . S
C1379 C1363 1.349 . S
C1379 H1371 0.950 . S
C1379 C1377 1.327 . S
C1380 C1368 1.349 . S
C1380 H1374 0.950 . S
C1380 C1381 1.327 . S
C1381 H1375 0.950 . S
C1381 C1380 1.327 . S
C1381 C1385 1.429 . S
C1382 C1365 1.574 . S
C1382 H1376 0.949 . S
C1382 C1386 1.368 . S
C1383 C1364 1.429 . S
C1383 C1377 1.429 . S
C1383 C1384 1.523 . S
C1384 C1365 1.368 . S
C1384 C1378 1.368 . S
C1384 C1383 1.523 . S
C1385 C1369 1.429 . S
C1385 C1381 1.429 . S
C1385 C1386 1.523 . S
C1386 C1370 1.368 . S
C1386 C1382 1.368 . S
C1386 C1385 1.523 . S
H1387 C1362 0.950 . S
H1388 C1364 0.950 . S
H1389 C1365 0.949 . S
H1390 C1367 0.950 . S
H1391 C1369 0.950 . S
C1392 C1393 1.349 . S
C1392 C1394 1.327 . S
C1392 H1417 0.950 . S
C1393 C1392 1.349 . S
C1393 C1409 1.349 . S
C1394 C1392 1.327 . S
C1394 C1413 1.429 . S
C1394 H1418 0.950 . S
C1395 C1412 1.574 . S
C1395 C1414 1.368 . S
C1395 H1419 0.949 . S
H1396 C1400 0.949 . S
C1397 C1398 1.349 . S
C1397 C1399 1.327 . S
C1397 H1420 0.950 . S
C1398 C1397 1.349 . S
C1398 C1410 1.349 . S
C1399 C1397 1.327 . S
C1399 C1415 1.429 . S
C1399 H1421 0.950 . S
C1400 H1396 0.949 . S
C1400 C1408 1.574 . S
C1400 C1416 1.368 . S
H1401 C1409 0.950 . S
H1402 C1407 0.950 . S
H1403 C1408 0.949 . S
H1404 C1410 0.950 . S
H1405 C1411 0.950 . S
H1406 C1412 0.949 . S
C1407 H1402 0.950 . S
C1407 C1409 1.327 . S
C1407 C1413 1.429 . S
C1408 C1400 1.574 . S
C1408 H1403 0.949 . S
C1408 C1414 1.368 . S
C1409 C1393 1.349 . S
C1409 H1401 0.950 . S
C1409 C1407 1.327 . S
C1410 C1398 1.349 . S
C1410 H1404 0.950 . S
C1410 C1411 1.327 . S
C1411 H1405 0.950 . S
C1411 C1410 1.327 . S
C1411 C1415 1.429 . S
C1412 C1395 1.574 . S
C1412 H1406 0.949 . S
C1412 C1416 1.368 . S
C1413 C1394 1.429 . S
C1413 C1407 1.429 . S
C1413 C1414 1.523 . S
C1414 C1395 1.368 . S
C1414 C1408 1.368 . S
C1414 C1413 1.523 . S
C1415 C1399 1.429 . S
C1415 C1411 1.429 . S
C1415 C1416 1.523 . S
C1416 C1400 1.368 . S
C1416 C1412 1.368 . S
C1416 C1415 1.523 . S
H1417 C1392 0.950 . S
H1418 C1394 0.950 . S
H1419 C1395 0.949 . S
H1420 C1397 0.950 . S
H1421 C1399 0.950 . S
C1422 C1423 1.349 . S
C1422 C1424 1.327 . S
C1422 H1447 0.950 . S
C1423 C1422 1.349 . S
C1423 C1439 1.349 . S
C1424 C1422 1.327 . S
C1424 C1443 1.429 . S
C1424 H1448 0.950 . S
C1425 C1442 1.574 . S
C1425 C1444 1.368 . S
C1425 H1449 0.949 . S
H1426 C1430 0.949 . S
C1427 C1428 1.349 . S
C1427 C1429 1.327 . S
C1427 H1450 0.950 . S
C1428 C1427 1.349 . S
C1428 C1440 1.349 . S
C1429 C1427 1.327 . S
C1429 C1445 1.429 . S
C1429 H1451 0.950 . S
C1430 H1426 0.949 . S
C1430 C1438 1.574 . S
C1430 C1446 1.368 . S
H1431 C1439 0.950 . S
H1432 C1437 0.950 . S
H1433 C1438 0.949 . S
H1434 C1440 0.950 . S
H1435 C1441 0.950 . S
H1436 C1442 0.949 . S
C1437 H1432 0.950 . S
C1437 C1439 1.327 . S
C1437 C1443 1.429 . S
C1438 C1430 1.574 . S
C1438 H1433 0.949 . S
C1438 C1444 1.368 . S
C1439 C1423 1.349 . S
C1439 H1431 0.950 . S
C1439 C1437 1.327 . S
C1440 C1428 1.349 . S
C1440 H1434 0.950 . S
C1440 C1441 1.327 . S
C1441 H1435 0.950 . S
C1441 C1440 1.327 . S
C1441 C1445 1.429 . S
C1442 C1425 1.574 . S
C1442 H1436 0.949 . S
C1442 C1446 1.368 . S
C1443 C1424 1.429 . S
C1443 C1437 1.429 . S
C1443 C1444 1.523 . S
C1444 C1425 1.368 . S
C1444 C1438 1.368 . S
C1444 C1443 1.523 . S
C1445 C1429 1.429 . S
C1445 C1441 1.429 . S
C1445 C1446 1.523 . S
C1446 C1430 1.368 . S
C1446 C1442 1.368 . S
C1446 C1445 1.523 . S
H1447 C1422 0.950 . S
H1448 C1424 0.950 . S
H1449 C1425 0.949 . S
H1450 C1427 0.950 . S
H1451 C1429 0.950 . S
C1452 C1453 1.349 . S
C1452 C1454 1.327 . S
C1452 H1477 0.950 . S
C1453 C1452 1.349 . S
C1453 C1469 1.349 1_545 S
C1454 C1452 1.327 . S
C1454 C1473 1.429 . S
C1454 H1478 0.950 . S
C1455 C1472 1.574 . S
C1455 C1474 1.368 1_565 S
C1455 H1479 0.949 . S
H1456 C1460 0.949 . S
C1457 C1458 1.349 1_565 S
C1457 C1459 1.327 . S
C1457 H1480 0.950 . S
C1458 C1457 1.349 1_545 S
C1458 C1470 1.349 . S
C1459 C1457 1.327 . S
C1459 C1475 1.429 1_465 S
C1459 H1481 0.948 1_455 S
C1460 H1456 0.949 . S
C1460 C1468 1.574 . S
C1460 C1476 1.368 . S
H1461 C1469 0.950 . S
H1462 C1467 0.950 . S
H1463 C1468 0.949 . S
H1464 C1470 0.950 . S
H1465 C1471 0.950 . S
H1466 C1472 0.949 . S
C1467 H1462 0.950 . S
C1467 C1469 1.327 . S
C1467 C1473 1.429 1_565 S
C1468 C1460 1.574 . S
C1468 H1463 0.949 . S
C1468 C1474 1.368 . S
C1469 C1453 1.349 1_565 S
C1469 H1461 0.950 . S
C1469 C1467 1.327 . S
C1470 C1458 1.349 . S
C1470 H1464 0.950 . S
C1470 C1471 1.327 1_455 S
C1471 H1465 0.950 . S
C1471 C1470 1.327 1_655 S
C1471 C1475 1.429 . S
C1472 C1455 1.574 . S
C1472 H1466 0.949 . S
C1472 C1476 1.368 1_565 S
C1473 C1454 1.429 . S
C1473 C1467 1.429 1_545 S
C1473 C1474 1.523 . S
C1474 C1455 1.368 1_545 S
C1474 C1468 1.368 . S
C1474 C1473 1.523 . S
C1475 C1459 1.429 1_645 S
C1475 C1471 1.429 . S
C1475 C1476 1.523 . S
C1476 C1460 1.368 . S
C1476 C1472 1.368 1_545 S
C1476 C1475 1.523 . S
H1477 C1452 0.950 . S
H1478 C1454 0.950 . S
H1479 C1455 0.949 . S
H1480 C1457 0.950 . S
H1481 C1459 0.948 1_655 S
C1482 C1483 1.349 . S
C1482 C1484 1.327 . S
C1482 H1507 0.950 . S
C1483 C1482 1.349 . S
C1483 C1499 1.349 . S
C1484 C1482 1.327 . S
C1484 C1503 1.429 . S
C1484 H1508 0.950 . S
C1485 C1502 1.574 . S
C1485 C1504 1.368 . S
C1485 H1509 0.949 . S
H1486 C1490 0.949 . S
C1487 C1488 1.349 . S
C1487 C1489 1.327 . S
C1487 H1510 0.950 . S
C1488 C1487 1.349 . S
C1488 C1500 1.349 . S
C1489 C1487 1.327 . S
C1489 C1505 1.429 . S
C1489 H1511 0.950 . S
C1490 H1486 0.949 . S
C1490 C1498 1.574 . S
C1490 C1506 1.368 . S
H1491 C1499 0.950 . S
H1492 C1497 0.950 . S
H1493 C1498 0.949 . S
H1494 C1500 0.950 . S
H1495 C1501 0.950 . S
H1496 C1502 0.949 . S
C1497 H1492 0.950 . S
C1497 C1499 1.327 . S
C1497 C1503 1.429 . S
C1498 C1490 1.574 . S
C1498 H1493 0.949 . S
C1498 C1504 1.368 . S
C1499 C1483 1.349 . S
C1499 H1491 0.950 . S
C1499 C1497 1.327 . S
C1500 C1488 1.349 . S
C1500 H1494 0.950 . S
C1500 C1501 1.327 . S
C1501 H1495 0.950 . S
C1501 C1500 1.327 . S
C1501 C1505 1.429 . S
C1502 C1485 1.574 . S
C1502 H1496 0.949 . S
C1502 C1506 1.368 . S
C1503 C1484 1.429 . S
C1503 C1497 1.429 . S
C1503 C1504 1.523 . S
C1504 C1485 1.368 . S
C1504 C1498 1.368 . S
C1504 C1503 1.523 . S
C1505 C1489 1.429 . S
C1505 C1501 1.429 . S
C1505 C1506 1.523 . S
C1506 C1490 1.368 . S
C1506 C1502 1.368 . S
C1506 C1505 1.523 . S
H1507 C1482 0.950 . S
H1508 C1484 0.950 . S
H1509 C1485 0.949 . S
H1510 C1487 0.950 . S
H1511 C1489 0.950 . S
C1512 C1513 1.349 . S
C1512 C1514 1.327 . S
C1512 H1537 0.950 1_556 S
C1513 C1512 1.349 . S
C1513 C1529 1.349 . S
C1514 C1512 1.327 . S
C1514 C1533 1.429 . S
C1514 H1538 0.950 . S
C1515 C1532 1.574 . S
C1515 C1534 1.368 . S
C1515 H1539 0.949 . S
H1516 C1520 0.949 . S
C1517 C1518 1.349 . S
C1517 C1519 1.327 . S
C1517 H1540 0.950 . S
C1518 C1517 1.349 . S
C1518 C1530 1.349 . S
C1519 C1517 1.327 . S
C1519 C1535 1.429 . S
C1519 H1541 0.950 . S
C1520 H1516 0.949 . S
C1520 C1528 1.574 . S
C1520 C1536 1.368 . S
H1521 C1529 0.950 . S
H1522 C1527 0.950 . S
H1523 C1528 0.949 . S
H1524 C1530 0.950 . S
H1525 C1531 0.950 . S
H1526 C1532 0.949 . S
C1527 H1522 0.950 . S
C1527 C1529 1.327 . S
C1527 C1533 1.429 . S
C1528 C1520 1.574 . S
C1528 H1523 0.949 . S
C1528 C1534 1.368 . S
C1529 C1513 1.349 . S
C1529 H1521 0.950 . S
C1529 C1527 1.327 . S
C1530 C1518 1.349 . S
C1530 H1524 0.950 . S
C1530 C1531 1.327 . S
C1531 H1525 0.950 . S
C1531 C1530 1.327 . S
C1531 C1535 1.429 . S
C1532 C1515 1.574 . S
C1532 H1526 0.949 . S
C1532 C1536 1.368 . S
C1533 C1514 1.429 . S
C1533 C1527 1.429 . S
C1533 C1534 1.523 . S
C1534 C1515 1.368 . S
C1534 C1528 1.368 . S
C1534 C1533 1.523 . S
C1535 C1519 1.429 . S
C1535 C1531 1.429 . S
C1535 C1536 1.523 . S
C1536 C1520 1.368 . S
C1536 C1532 1.368 . S
C1536 C1535 1.523 . S
H1537 C1512 0.950 1_554 S
H1538 C1514 0.950 . S
H1539 C1515 0.949 . S
H1540 C1517 0.950 . S
H1541 C1519 0.950 . S
C1542 C1543 1.349 . S
C1542 C1544 1.327 . S
C1542 H1567 0.950 . S
C1543 C1542 1.349 . S
C1543 C1559 1.349 . S
C1544 C1542 1.327 . S
C1544 C1563 1.429 . S
C1544 H1568 0.950 . S
C1545 C1562 1.574 . S
C1545 C1564 1.368 . S
C1545 H1569 0.949 . S
H1546 C1550 0.949 . S
C1547 C1548 1.349 . S
C1547 C1549 1.327 . S
C1547 H1570 0.950 . S
C1548 C1547 1.349 . S
C1548 C1560 1.349 . S
C1549 C1547 1.327 . S
C1549 C1565 1.429 . S
C1549 H1571 0.950 . S
C1550 H1546 0.949 . S
C1550 C1558 1.574 . S
C1550 C1566 1.368 . S
H1551 C1559 0.950 . S
H1552 C1557 0.950 . S
H1553 C1558 0.949 . S
H1554 C1560 0.950 . S
H1555 C1561 0.950 . S
H1556 C1562 0.949 . S
C1557 H1552 0.950 . S
C1557 C1559 1.327 . S
C1557 C1563 1.429 . S
C1558 C1550 1.574 . S
C1558 H1553 0.949 . S
C1558 C1564 1.368 . S
C1559 C1543 1.349 . S
C1559 H1551 0.950 . S
C1559 C1557 1.327 . S
C1560 C1548 1.349 . S
C1560 H1554 0.950 . S
C1560 C1561 1.327 . S
C1561 H1555 0.950 . S
C1561 C1560 1.327 . S
C1561 C1565 1.429 . S
C1562 C1545 1.574 . S
C1562 H1556 0.949 . S
C1562 C1566 1.368 . S
C1563 C1544 1.429 . S
C1563 C1557 1.429 . S
C1563 C1564 1.523 . S
C1564 C1545 1.368 . S
C1564 C1558 1.368 . S
C1564 C1563 1.523 . S
C1565 C1549 1.429 . S
C1565 C1561 1.429 . S
C1565 C1566 1.523 . S
C1566 C1550 1.368 . S
C1566 C1562 1.368 . S
C1566 C1565 1.523 . S
H1567 C1542 0.950 . S
H1568 C1544 0.950 . S
H1569 C1545 0.949 . S
H1570 C1547 0.950 . S
H1571 C1549 0.950 . S
C1572 C1573 1.349 . S
C1572 C1574 1.327 . S
C1572 H1597 0.950 . S
C1573 C1572 1.349 . S
C1573 C1589 1.349 . S
C1574 C1572 1.327 . S
C1574 C1593 1.429 . S
C1574 H1598 0.950 . S
C1575 C1592 1.574 . S
C1575 C1594 1.368 . S
C1575 H1599 0.949 . S
H1576 C1580 0.949 . S
C1577 C1578 1.349 . S
C1577 C1579 1.327 . S
C1577 H1600 0.950 . S
C1578 C1577 1.349 . S
C1578 C1590 1.349 . S
C1579 C1577 1.327 . S
C1579 C1595 1.429 . S
C1579 H1601 0.950 . S
C1580 H1576 0.949 . S
C1580 C1588 1.574 . S
C1580 C1596 1.368 . S
H1581 C1589 0.950 . S
H1582 C1587 0.950 . S
H1583 C1588 0.949 . S
H1584 C1590 0.950 . S
H1585 C1591 0.950 . S
H1586 C1592 0.949 . S
C1587 H1582 0.950 . S
C1587 C1589 1.327 . S
C1587 C1593 1.429 . S
C1588 C1580 1.574 . S
C1588 H1583 0.949 . S
C1588 C1594 1.368 . S
C1589 C1573 1.349 . S
C1589 H1581 0.950 . S
C1589 C1587 1.327 . S
C1590 C1578 1.349 . S
C1590 H1584 0.950 . S
C1590 C1591 1.327 . S
C1591 H1585 0.950 . S
C1591 C1590 1.327 . S
C1591 C1595 1.429 . S
C1592 C1575 1.574 . S
C1592 H1586 0.949 . S
C1592 C1596 1.368 . S
C1593 C1574 1.429 . S
C1593 C1587 1.429 . S
C1593 C1594 1.523 . S
C1594 C1575 1.368 . S
C1594 C1588 1.368 . S
C1594 C1593 1.523 . S
C1595 C1579 1.429 . S
C1595 C1591 1.429 . S
C1595 C1596 1.523 . S
C1596 C1580 1.368 . S
C1596 C1592 1.368 . S
C1596 C1595 1.523 . S
H1597 C1572 0.950 . S
H1598 C1574 0.950 . S
H1599 C1575 0.949 . S
H1600 C1577 0.950 . S
H1601 C1579 0.950 . S
C1602 C1603 1.349 . S
C1602 C1604 1.327 . S
C1602 H1627 0.950 . S
C1603 C1602 1.349 . S
C1603 C1619 1.349 . S
C1604 C1602 1.327 . S
C1604 C1623 1.429 . S
C1604 H1628 0.950 . S
C1605 C1622 1.574 . S
C1605 C1624 1.368 . S
C1605 H1629 0.949 . S
H1606 C1610 0.949 . S
C1607 C1608 1.349 . S
C1607 C1609 1.327 . S
C1607 H1630 0.950 . S
C1608 C1607 1.349 . S
C1608 C1620 1.349 . S
C1609 C1607 1.327 . S
C1609 C1625 1.429 . S
C1609 H1631 0.950 . S
C1610 H1606 0.949 . S
C1610 C1618 1.574 . S
C1610 C1626 1.368 . S
H1611 C1619 0.950 . S
H1612 C1617 0.950 . S
H1613 C1618 0.949 . S
H1614 C1620 0.950 . S
H1615 C1621 0.950 . S
H1616 C1622 0.949 . S
C1617 H1612 0.950 . S
C1617 C1619 1.327 . S
C1617 C1623 1.429 . S
C1618 C1610 1.574 . S
C1618 H1613 0.949 . S
C1618 C1624 1.368 . S
C1619 C1603 1.349 . S
C1619 H1611 0.950 . S
C1619 C1617 1.327 . S
C1620 C1608 1.349 . S
C1620 H1614 0.950 . S
C1620 C1621 1.327 . S
C1621 H1615 0.950 . S
C1621 C1620 1.327 . S
C1621 C1625 1.429 . S
C1622 C1605 1.574 . S
C1622 H1616 0.949 . S
C1622 C1626 1.368 . S
C1623 C1604 1.429 . S
C1623 C1617 1.429 . S
C1623 C1624 1.523 . S
C1624 C1605 1.368 . S
C1624 C1618 1.368 . S
C1624 C1623 1.523 . S
C1625 C1609 1.429 . S
C1625 C1621 1.429 . S
C1625 C1626 1.523 . S
C1626 C1610 1.368 . S
C1626 C1622 1.368 . S
C1626 C1625 1.523 . S
H1627 C1602 0.950 . S
H1628 C1604 0.950 . S
H1629 C1605 0.949 . S
H1630 C1607 0.950 . S
H1631 C1609 0.950 . S
C1632 C1633 1.349 . S
C1632 C1634 1.327 . S
C1632 H1657 0.950 . S
C1633 C1632 1.349 . S
C1633 C1649 1.349 . S
C1634 C1632 1.327 . S
C1634 C1653 1.429 . S
C1634 H1658 0.950 . S
C1635 C1652 1.574 . S
C1635 C1654 1.368 . S
C1635 H1659 0.949 . S
H1636 C1640 0.949 . S
C1637 C1638 1.349 . S
C1637 C1639 1.327 . S
C1637 H1660 0.950 . S
C1638 C1637 1.349 . S
C1638 C1650 1.349 . S
C1639 C1637 1.327 . S
C1639 C1655 1.429 . S
C1639 H1661 0.950 . S
C1640 H1636 0.949 . S
C1640 C1648 1.574 . S
C1640 C1656 1.368 . S
H1641 C1649 0.950 . S
H1642 C1647 0.950 . S
H1643 C1648 0.949 . S
H1644 C1650 0.950 . S
H1645 C1651 0.950 . S
H1646 C1652 0.949 . S
C1647 H1642 0.950 . S
C1647 C1649 1.327 . S
C1647 C1653 1.429 . S
C1648 C1640 1.574 . S
C1648 H1643 0.949 . S
C1648 C1654 1.368 . S
C1649 C1633 1.349 . S
C1649 H1641 0.950 . S
C1649 C1647 1.327 . S
C1650 C1638 1.349 . S
C1650 H1644 0.950 . S
C1650 C1651 1.327 . S
C1651 H1645 0.950 . S
C1651 C1650 1.327 . S
C1651 C1655 1.429 . S
C1652 C1635 1.574 . S
C1652 H1646 0.949 . S
C1652 C1656 1.368 . S
C1653 C1634 1.429 . S
C1653 C1647 1.429 . S
C1653 C1654 1.523 . S
C1654 C1635 1.368 . S
C1654 C1648 1.368 . S
C1654 C1653 1.523 . S
C1655 C1639 1.429 . S
C1655 C1651 1.429 . S
C1655 C1656 1.523 . S
C1656 C1640 1.368 . S
C1656 C1652 1.368 . S
C1656 C1655 1.523 . S
H1657 C1632 0.950 . S
H1658 C1634 0.950 . S
H1659 C1635 0.949 . S
H1660 C1637 0.950 . S
H1661 C1639 0.950 . S
C1662 C1663 1.349 1_556 S
C1662 C1664 1.327 1_545 S
C1662 H1687 0.950 . S
C1663 C1662 1.349 1_554 S
C1663 C1679 1.349 . S
C1664 C1662 1.327 1_565 S
C1664 C1683 1.429 1_556 S
C1664 H1688 0.950 . S
C1665 C1682 1.574 . S
C1665 C1684 1.368 . S
C1665 H1689 0.949 . S
H1666 C1670 0.949 . S
C1667 C1668 1.349 . S
C1667 C1669 1.327 . S
C1667 H1690 0.950 . S
C1668 C1667 1.349 . S
C1668 C1680 1.349 1_554 S
C1669 C1667 1.327 . S
C1669 C1685 1.429 . S
C1669 H1691 0.950 . S
C1670 H1666 0.949 . S
C1670 C1678 1.574 . S
C1670 C1686 1.368 1_556 S
H1671 C1679 0.950 . S
H1672 C1677 0.950 1_565 S
H1673 C1678 0.949 . S
H1674 C1680 0.950 . S
H1675 C1681 0.950 . S
H1676 C1682 0.949 . S
C1677 H1672 0.950 1_545 S
C1677 C1679 1.327 . S
C1677 C1683 1.429 1_545 S
C1678 C1670 1.574 . S
C1678 H1673 0.949 . S
C1678 C1684 1.368 1_556 S
C1679 C1663 1.349 . S
C1679 H1671 0.950 . S
C1679 C1677 1.327 . S
C1680 C1668 1.349 1_556 S
C1680 H1674 0.950 . S
C1680 C1681 1.327 . S
C1681 H1675 0.950 . S
C1681 C1680 1.327 . S
C1681 C1685 1.429 1_556 S
C1682 C1665 1.574 . S
C1682 H1676 0.949 . S
C1682 C1686 1.368 . S
C1683 C1664 1.429 1_554 S
C1683 C1677 1.429 1_565 S
C1683 C1684 1.523 . S
C1684 C1665 1.368 . S
C1684 C1678 1.368 1_554 S
C1684 C1683 1.523 . S
C1685 C1669 1.429 . S
C1685 C1681 1.429 1_554 S
C1685 C1686 1.523 . S
C1686 C1670 1.368 1_554 S
C1686 C1682 1.368 . S
C1686 C1685 1.523 . S
H1687 C1662 0.950 . S
H1688 C1664 0.950 . S
H1689 C1665 0.949 . S
H1690 C1667 0.950 . S
H1691 C1669 0.950 . S
C1692 C1693 1.349 . S
C1692 C1694 1.327 . S
C1692 H1717 0.950 . S
C1693 C1692 1.349 . S
C1693 C1709 1.349 . S
C1694 C1692 1.327 . S
C1694 C1713 1.429 . S
C1694 H1718 0.950 . S
C1695 C1712 1.574 . S
C1695 C1714 1.368 . S
C1695 H1719 0.949 . S
H1696 C1700 0.949 . S
C1697 C1698 1.349 . S
C1697 C1699 1.327 . S
C1697 H1720 0.950 . S
C1698 C1697 1.349 . S
C1698 C1710 1.349 . S
C1699 C1697 1.327 . S
C1699 C1715 1.429 . S
C1699 H1721 0.950 . S
C1700 H1696 0.949 . S
C1700 C1708 1.574 . S
C1700 C1716 1.368 . S
H1701 C1709 0.950 . S
H1702 C1707 0.950 . S
H1703 C1708 0.949 . S
H1704 C1710 0.950 . S
H1705 C1711 0.950 . S
H1706 C1712 0.949 . S
C1707 H1702 0.950 . S
C1707 C1709 1.327 . S
C1707 C1713 1.429 . S
C1708 C1700 1.574 . S
C1708 H1703 0.949 . S
C1708 C1714 1.368 . S
C1709 C1693 1.349 . S
C1709 H1701 0.950 . S
C1709 C1707 1.327 . S
C1710 C1698 1.349 . S
C1710 H1704 0.950 . S
C1710 C1711 1.327 . S
C1711 H1705 0.950 . S
C1711 C1710 1.327 . S
C1711 C1715 1.429 . S
C1712 C1695 1.574 . S
C1712 H1706 0.949 . S
C1712 C1716 1.368 . S
C1713 C1694 1.429 . S
C1713 C1707 1.429 . S
C1713 C1714 1.523 . S
C1714 C1695 1.368 . S
C1714 C1708 1.368 . S
C1714 C1713 1.523 . S
C1715 C1699 1.429 . S
C1715 C1711 1.429 . S
C1715 C1716 1.523 . S
C1716 C1700 1.368 . S
C1716 C1712 1.368 . S
C1716 C1715 1.523 . S
H1717 C1692 0.950 . S
H1718 C1694 0.950 . S
H1719 C1695 0.949 . S
H1720 C1697 0.950 . S
H1721 C1699 0.950 . S
C1722 C1723 1.349 . S
C1722 C1724 1.327 . S
C1722 H1747 0.950 . S
C1723 C1722 1.349 . S
C1723 C1739 1.349 . S
C1724 C1722 1.327 . S
C1724 C1743 1.429 . S
C1724 H1748 0.950 . S
C1725 C1742 1.574 . S
C1725 C1744 1.368 . S
C1725 H1749 0.949 . S
H1726 C1730 0.949 . S
C1727 C1728 1.349 . S
C1727 C1729 1.327 . S
C1727 H1750 0.950 . S
C1728 C1727 1.349 . S
C1728 C1740 1.349 . S
C1729 C1727 1.327 . S
C1729 C1745 1.429 . S
C1729 H1751 0.950 . S
C1730 H1726 0.949 . S
C1730 C1738 1.574 . S
C1730 C1746 1.368 . S
H1731 C1739 0.950 1_455 S
H1732 C1737 0.950 . S
H1733 C1738 0.949 . S
H1734 C1740 0.950 . S
H1735 C1741 0.950 . S
H1736 C1742 0.949 . S
C1737 H1732 0.950 . S
C1737 C1739 1.327 . S
C1737 C1743 1.429 . S
C1738 C1730 1.574 . S
C1738 H1733 0.949 . S
C1738 C1744 1.368 . S
C1739 C1723 1.349 . S
C1739 H1731 0.950 1_655 S
C1739 C1737 1.327 . S
C1740 C1728 1.349 . S
C1740 H1734 0.950 . S
C1740 C1741 1.327 . S
C1741 H1735 0.950 . S
C1741 C1740 1.327 . S
C1741 C1745 1.429 . S
C1742 C1725 1.574 . S
C1742 H1736 0.949 . S
C1742 C1746 1.368 . S
C1743 C1724 1.429 . S
C1743 C1737 1.429 . S
C1743 C1744 1.523 . S
C1744 C1725 1.368 . S
C1744 C1738 1.368 . S
C1744 C1743 1.523 . S
C1745 C1729 1.429 . S
C1745 C1741 1.429 . S
C1745 C1746 1.523 . S
C1746 C1730 1.368 . S
C1746 C1742 1.368 . S
C1746 C1745 1.523 . S
H1747 C1722 0.950 . S
H1748 C1724 0.950 . S
H1749 C1725 0.949 . S
H1750 C1727 0.950 . S
H1751 C1729 0.950 . S
C1752 C1753 1.349 . S
C1752 C1754 1.327 . S
C1752 H1777 0.950 . S
C1753 C1752 1.349 . S
C1753 C1769 1.349 . S
C1754 C1752 1.327 . S
C1754 C1773 1.429 . S
C1754 H1778 0.950 . S
C1755 C1772 1.574 . S
C1755 C1774 1.368 . S
C1755 H1779 0.949 . S
H1756 C1760 0.949 . S
C1757 C1758 1.349 . S
C1757 C1759 1.327 . S
C1757 H1780 0.950 . S
C1758 C1757 1.349 . S
C1758 C1770 1.349 . S
C1759 C1757 1.327 . S
C1759 C1775 1.429 . S
C1759 H1781 0.950 . S
C1760 H1756 0.949 . S
C1760 C1768 1.574 . S
C1760 C1776 1.368 . S
H1761 C1769 0.950 . S
H1762 C1767 0.950 . S
H1763 C1768 0.949 . S
H1764 C1770 0.950 . S
H1765 C1771 0.950 . S
H1766 C1772 0.949 . S
C1767 H1762 0.950 . S
C1767 C1769 1.327 . S
C1767 C1773 1.429 . S
C1768 C1760 1.574 . S
C1768 H1763 0.949 . S
C1768 C1774 1.368 . S
C1769 C1753 1.349 . S
C1769 H1761 0.950 . S
C1769 C1767 1.327 . S
C1770 C1758 1.349 . S
C1770 H1764 0.950 . S
C1770 C1771 1.327 . S
C1771 H1765 0.950 . S
C1771 C1770 1.327 . S
C1771 C1775 1.429 . S
C1772 C1755 1.574 . S
C1772 H1766 0.949 . S
C1772 C1776 1.368 . S
C1773 C1754 1.429 . S
C1773 C1767 1.429 . S
C1773 C1774 1.523 . S
C1774 C1755 1.368 . S
C1774 C1768 1.368 . S
C1774 C1773 1.523 . S
C1775 C1759 1.429 . S
C1775 C1771 1.429 . S
C1775 C1776 1.523 . S
C1776 C1760 1.368 . S
C1776 C1772 1.368 . S
C1776 C1775 1.523 . S
H1777 C1752 0.950 . S
H1778 C1754 0.950 . S
H1779 C1755 0.949 . S
H1780 C1757 0.950 . S
H1781 C1759 0.950 . S
C1782 C1783 1.349 . S
C1782 C1784 1.327 . S
C1782 H1807 0.950 . S
C1783 C1782 1.349 . S
C1783 C1799 1.349 . S
C1784 C1782 1.327 . S
C1784 C1803 1.429 . S
C1784 H1808 0.950 . S
C1785 C1802 1.574 . S
C1785 C1804 1.368 . S
C1785 H1809 0.949 . S
H1786 C1790 0.949 . S
C1787 C1788 1.349 . S
C1787 C1789 1.327 . S
C1787 H1810 0.950 . S
C1788 C1787 1.349 . S
C1788 C1800 1.349 . S
C1789 C1787 1.327 . S
C1789 C1805 1.429 . S
C1789 H1811 0.950 . S
C1790 H1786 0.949 . S
C1790 C1798 1.574 . S
C1790 C1806 1.368 . S
H1791 C1799 0.950 . S
H1792 C1797 0.950 . S
H1793 C1798 0.949 . S
H1794 C1800 0.950 . S
H1795 C1801 0.950 . S
H1796 C1802 0.949 . S
C1797 H1792 0.950 . S
C1797 C1799 1.327 . S
C1797 C1803 1.429 . S
C1798 C1790 1.574 . S
C1798 H1793 0.949 . S
C1798 C1804 1.368 . S
C1799 C1783 1.349 . S
C1799 H1791 0.950 . S
C1799 C1797 1.327 . S
C1800 C1788 1.349 . S
C1800 H1794 0.950 . S
C1800 C1801 1.327 . S
C1801 H1795 0.950 . S
C1801 C1800 1.327 . S
C1801 C1805 1.429 . S
C1802 C1785 1.574 . S
C1802 H1796 0.949 . S
C1802 C1806 1.368 . S
C1803 C1784 1.429 . S
C1803 C1797 1.429 . S
C1803 C1804 1.523 . S
C1804 C1785 1.368 . S
C1804 C1798 1.368 . S
C1804 C1803 1.523 . S
C1805 C1789 1.429 . S
C1805 C1801 1.429 . S
C1805 C1806 1.523 . S
C1806 C1790 1.368 . S
C1806 C1802 1.368 . S
C1806 C1805 1.523 . S
H1807 C1782 0.950 . S
H1808 C1784 0.950 . S
H1809 C1785 0.949 . S
H1810 C1787 0.950 . S
H1811 C1789 0.950 . S
C1812 C1813 1.349 . S
C1812 C1814 1.327 . S
C1812 H1837 0.950 . S
C1813 C1812 1.349 . S
C1813 C1829 1.349 . S
C1814 C1812 1.327 . S
C1814 C1833 1.429 . S
C1814 H1838 0.950 . S
C1815 C1832 1.574 . S
C1815 C1834 1.368 . S
C1815 H1839 0.949 . S
H1816 C1820 0.949 . S
C1817 C1818 1.349 . S
C1817 C1819 1.327 . S
C1817 H1840 0.950 . S
C1818 C1817 1.349 . S
C1818 C1830 1.349 . S
C1819 C1817 1.327 . S
C1819 C1835 1.429 . S
C1819 H1841 0.950 . S
C1820 H1816 0.949 . S
C1820 C1828 1.574 . S
C1820 C1836 1.368 . S
H1821 C1829 0.950 . S
H1822 C1827 0.950 . S
H1823 C1828 0.949 . S
H1824 C1830 0.950 . S
H1825 C1831 0.950 . S
H1826 C1832 0.949 . S
C1827 H1822 0.950 . S
C1827 C1829 1.327 . S
C1827 C1833 1.429 . S
C1828 C1820 1.574 . S
C1828 H1823 0.949 . S
C1828 C1834 1.368 . S
C1829 C1813 1.349 . S
C1829 H1821 0.950 . S
C1829 C1827 1.327 . S
C1830 C1818 1.349 . S
C1830 H1824 0.950 . S
C1830 C1831 1.327 . S
C1831 H1825 0.950 . S
C1831 C1830 1.327 . S
C1831 C1835 1.429 . S
C1832 C1815 1.574 . S
C1832 H1826 0.949 . S
C1832 C1836 1.368 . S
C1833 C1814 1.429 . S
C1833 C1827 1.429 . S
C1833 C1834 1.523 . S
C1834 C1815 1.368 . S
C1834 C1828 1.368 . S
C1834 C1833 1.523 . S
C1835 C1819 1.429 . S
C1835 C1831 1.429 . S
C1835 C1836 1.523 . S
C1836 C1820 1.368 . S
C1836 C1832 1.368 . S
C1836 C1835 1.523 . S
H1837 C1812 0.950 . S
H1838 C1814 0.950 . S
H1839 C1815 0.949 . S
H1840 C1817 0.950 . S
H1841 C1819 0.950 . S
C1842 C1843 1.349 . S
C1842 C1844 1.327 . S
C1842 H1867 0.950 . S
C1843 C1842 1.349 . S
C1843 C1859 1.349 . S
C1844 C1842 1.327 . S
C1844 C1863 1.429 . S
C1844 H1868 0.950 . S
C1845 C1862 1.574 . S
C1845 C1864 1.368 . S
C1845 H1869 0.949 . S
H1846 C1850 0.949 . S
C1847 C1848 1.349 . S
C1847 C1849 1.327 . S
C1847 H1870 0.950 . S
C1848 C1847 1.349 . S
C1848 C1860 1.349 . S
C1849 C1847 1.327 . S
C1849 C1865 1.429 . S
C1849 H1871 0.950 . S
C1850 H1846 0.949 . S
C1850 C1858 1.574 . S
C1850 C1866 1.368 . S
H1851 C1859 0.950 . S
H1852 C1857 0.950 . S
H1853 C1858 0.949 . S
H1854 C1860 0.950 . S
H1855 C1861 0.950 . S
H1856 C1862 0.949 . S
C1857 H1852 0.950 . S
C1857 C1859 1.327 . S
C1857 C1863 1.429 . S
C1858 C1850 1.574 . S
C1858 H1853 0.949 . S
C1858 C1864 1.368 . S
C1859 C1843 1.349 . S
C1859 H1851 0.950 . S
C1859 C1857 1.327 . S
C1860 C1848 1.349 . S
C1860 H1854 0.950 . S
C1860 C1861 1.327 . S
C1861 H1855 0.950 . S
C1861 C1860 1.327 . S
C1861 C1865 1.429 . S
C1862 C1845 1.574 . S
C1862 H1856 0.949 . S
C1862 C1866 1.368 . S
C1863 C1844 1.429 . S
C1863 C1857 1.429 . S
C1863 C1864 1.523 . S
C1864 C1845 1.368 . S
C1864 C1858 1.368 . S
C1864 C1863 1.523 . S
C1865 C1849 1.429 . S
C1865 C1861 1.429 . S
C1865 C1866 1.523 . S
C1866 C1850 1.368 . S
C1866 C1862 1.368 . S
C1866 C1865 1.523 . S
H1867 C1842 0.950 . S
H1868 C1844 0.950 . S
H1869 C1845 0.949 . S
H1870 C1847 0.950 . S
H1871 C1849 0.950 . S
C1872 C1873 1.349 . S
C1872 C1874 1.327 . S
C1872 H1897 0.950 . S
C1873 C1872 1.349 . S
C1873 C1889 1.349 . S
C1874 C1872 1.327 . S
C1874 C1893 1.429 . S
C1874 H1898 0.950 . S
C1875 C1892 1.574 . S
C1875 C1894 1.368 . S
C1875 H1899 0.949 . S
H1876 C1880 0.949 . S
C1877 C1878 1.349 1_655 S
C1877 C1879 1.327 1_655 S
C1877 H1900 0.950 . S
C1878 C1877 1.349 1_455 S
C1878 C1890 1.349 . S
C1879 C1877 1.327 1_455 S
C1879 C1895 1.429 . S
C1879 H1901 0.950 1_455 S
C1880 H1876 0.949 . S
C1880 C1888 1.574 . S
C1880 C1896 1.368 . S
H1881 C1889 0.950 . S
H1882 C1887 0.950 . S
H1883 C1888 0.949 . S
H1884 C1890 0.950 . S
H1885 C1891 0.950 . S
H1886 C1892 0.949 . S
C1887 H1882 0.950 . S
C1887 C1889 1.327 . S
C1887 C1893 1.429 . S
C1888 C1880 1.574 . S
C1888 H1883 0.949 . S
C1888 C1894 1.368 . S
C1889 C1873 1.349 . S
C1889 H1881 0.950 . S
C1889 C1887 1.327 . S
C1890 C1878 1.349 . S
C1890 H1884 0.950 . S
C1890 C1891 1.327 . S
C1891 H1885 0.950 . S
C1891 C1890 1.327 . S
C1891 C1895 1.429 . S
C1892 C1875 1.574 . S
C1892 H1886 0.949 . S
C1892 C1896 1.368 . S
C1893 C1874 1.429 . S
C1893 C1887 1.429 . S
C1893 C1894 1.523 . S
C1894 C1875 1.368 . S
C1894 C1888 1.368 . S
C1894 C1893 1.523 . S
C1895 C1879 1.429 . S
C1895 C1891 1.429 . S
C1895 C1896 1.523 . S
C1896 C1880 1.368 . S
C1896 C1892 1.368 . S
C1896 C1895 1.523 . S
H1897 C1872 0.950 . S
H1898 C1874 0.950 . S
H1899 C1875 0.949 . S
H1900 C1877 0.950 . S
H1901 C1879 0.950 1_655 S
C1902 C1903 1.349 . S
C1902 C1904 1.327 . S
C1902 H1927 0.950 . S
C1903 C1902 1.349 . S
C1903 C1919 1.349 . S
C1904 C1902 1.327 . S
C1904 C1923 1.429 . S
C1904 H1928 0.950 . S
C1905 C1922 1.574 . S
C1905 C1924 1.368 . S
C1905 H1929 0.949 . S
H1906 C1910 0.949 . S
C1907 C1908 1.349 1_556 S
C1907 C1909 1.327 . S
C1907 H1930 0.950 . S
C1908 C1907 1.349 1_554 S
C1908 C1920 1.349 . S
C1909 C1907 1.327 . S
C1909 C1925 1.429 1_556 S
C1909 H1931 0.950 . S
C1910 H1906 0.949 . S
C1910 C1918 1.574 . S
C1910 C1926 1.368 . S
H1911 C1919 0.950 . S
H1912 C1917 0.950 . S
H1913 C1918 0.949 . S
H1914 C1920 0.950 . S
H1915 C1921 0.950 . S
H1916 C1922 0.949 1_556 S
C1917 H1912 0.950 . S
C1917 C1919 1.327 . S
C1917 C1923 1.429 . S
C1918 C1910 1.574 . S
C1918 H1913 0.949 . S
C1918 C1924 1.368 . S
C1919 C1903 1.349 . S
C1919 H1911 0.950 . S
C1919 C1917 1.327 . S
C1920 C1908 1.349 . S
C1920 H1914 0.950 . S
C1920 C1921 1.327 . S
C1921 H1915 0.950 . S
C1921 C1920 1.327 . S
C1921 C1925 1.429 . S
C1922 C1905 1.574 . S
C1922 H1916 0.949 1_554 S
C1922 C1926 1.368 . S
C1923 C1904 1.429 . S
C1923 C1917 1.429 . S
C1923 C1924 1.523 . S
C1924 C1905 1.368 . S
C1924 C1918 1.368 . S
C1924 C1923 1.523 . S
C1925 C1909 1.429 1_554 S
C1925 C1921 1.429 . S
C1925 C1926 1.523 . S
C1926 C1910 1.368 . S
C1926 C1922 1.368 . S
C1926 C1925 1.523 . S
H1927 C1902 0.950 . S
H1928 C1904 0.950 . S
H1929 C1905 0.949 . S
H1930 C1907 0.950 . S
H1931 C1909 0.950 . S
C1932 C1933 1.349 . S
C1932 C1934 1.327 . S
C1932 H1957 0.950 . S
C1933 C1932 1.349 . S
C1933 C1949 1.349 . S
C1934 C1932 1.327 . S
C1934 C1953 1.429 . S
C1934 H1958 0.950 . S
C1935 C1952 1.574 . S
C1935 C1954 1.368 . S
C1935 H1959 0.949 . S
H1936 C1940 0.949 . S
C1937 C1938 1.349 . S
C1937 C1939 1.327 . S
C1937 H1960 0.950 . S
C1938 C1937 1.349 . S
C1938 C1950 1.349 . S
C1939 C1937 1.327 . S
C1939 C1955 1.429 . S
C1939 H1961 0.950 . S
C1940 H1936 0.949 . S
C1940 C1948 1.574 . S
C1940 C1956 1.368 . S
H1941 C1949 0.950 . S
H1942 C1947 0.950 . S
H1943 C1948 0.949 . S
H1944 C1950 0.950 . S
H1945 C1951 0.950 . S
H1946 C1952 0.949 . S
C1947 H1942 0.950 . S
C1947 C1949 1.327 . S
C1947 C1953 1.429 . S
C1948 C1940 1.574 . S
C1948 H1943 0.949 . S
C1948 C1954 1.368 . S
C1949 C1933 1.349 . S
C1949 H1941 0.950 . S
C1949 C1947 1.327 . S
C1950 C1938 1.349 . S
C1950 H1944 0.950 . S
C1950 C1951 1.327 . S
C1951 H1945 0.950 . S
C1951 C1950 1.327 . S
C1951 C1955 1.429 . S
C1952 C1935 1.574 . S
C1952 H1946 0.949 . S
C1952 C1956 1.368 . S
C1953 C1934 1.429 . S
C1953 C1947 1.429 . S
C1953 C1954 1.523 . S
C1954 C1935 1.368 . S
C1954 C1948 1.368 . S
C1954 C1953 1.523 . S
C1955 C1939 1.429 . S
C1955 C1951 1.429 . S
C1955 C1956 1.523 . S
C1956 C1940 1.368 . S
C1956 C1952 1.368 . S
C1956 C1955 1.523 . S
H1957 C1932 0.950 . S
H1958 C1934 0.950 . S
H1959 C1935 0.949 . S
H1960 C1937 0.950 . S
H1961 C1939 0.950 . S
C1962 C1963 1.349 . S
C1962 C1964 1.327 . S
C1962 H1987 0.950 . S
C1963 C1962 1.349 . S
C1963 C1979 1.349 . S
C1964 C1962 1.327 . S
C1964 C1983 1.429 . S
C1964 H1988 0.950 . S
C1965 C1982 1.574 . S
C1965 C1984 1.368 . S
C1965 H1989 0.949 . S
H1966 C1970 0.949 . S
C1967 C1968 1.349 . S
C1967 C1969 1.327 . S
C1967 H1990 0.950 . S
C1968 C1967 1.349 . S
C1968 C1980 1.349 . S
C1969 C1967 1.327 . S
C1969 C1985 1.429 . S
C1969 H1991 0.950 . S
C1970 H1966 0.949 . S
C1970 C1978 1.574 . S
C1970 C1986 1.368 . S
H1971 C1979 0.950 . S
H1972 C1977 0.950 . S
H1973 C1978 0.949 . S
H1974 C1980 0.950 . S
H1975 C1981 0.950 . S
H1976 C1982 0.949 . S
C1977 H1972 0.950 . S
C1977 C1979 1.327 . S
C1977 C1983 1.429 . S
C1978 C1970 1.574 . S
C1978 H1973 0.949 . S
C1978 C1984 1.368 . S
C1979 C1963 1.349 . S
C1979 H1971 0.950 . S
C1979 C1977 1.327 . S
C1980 C1968 1.349 . S
C1980 H1974 0.950 . S
C1980 C1981 1.327 . S
C1981 H1975 0.950 . S
C1981 C1980 1.327 . S
C1981 C1985 1.429 . S
C1982 C1965 1.574 . S
C1982 H1976 0.949 . S
C1982 C1986 1.368 . S
C1983 C1964 1.429 . S
C1983 C1977 1.429 . S
C1983 C1984 1.523 . S
C1984 C1965 1.368 . S
C1984 C1978 1.368 . S
C1984 C1983 1.523 . S
C1985 C1969 1.429 . S
C1985 C1981 1.429 . S
C1985 C1986 1.523 . S
C1986 C1970 1.368 . S
C1986 C1982 1.368 . S
C1986 C1985 1.523 . S
H1987 C1962 0.950 . S
H1988 C1964 0.950 . S
H1989 C1965 0.949 . S
H1990 C1967 0.950 . S
H1991 C1969 0.950 . S
C1992 C1993 1.349 . S
C1992 C1994 1.327 . S
C1992 H2017 0.950 . S
C1993 C1992 1.349 . S
C1993 C2009 1.349 . S
C1994 C1992 1.327 . S
C1994 C2013 1.429 . S
C1994 H2018 0.950 . S
C1995 C2012 1.574 . S
C1995 C2014 1.368 . S
C1995 H2019 0.949 . S
H1996 C2000 0.949 . S
C1997 C1998 1.349 . S
C1997 C1999 1.327 . S
C1997 H2020 0.950 . S
C1998 C1997 1.349 . S
C1998 C2010 1.349 . S
C1999 C1997 1.327 . S
C1999 C2015 1.429 . S
C1999 H2021 0.950 . S
C2000 H1996 0.949 . S
C2000 C2008 1.574 . S
C2000 C2016 1.368 . S
H2001 C2009 0.950 . S
H2002 C2007 0.950 . S
H2003 C2008 0.949 . S
H2004 C2010 0.950 . S
H2005 C2011 0.950 . S
H2006 C2012 0.949 . S
C2007 H2002 0.950 . S
C2007 C2009 1.327 . S
C2007 C2013 1.429 . S
C2008 C2000 1.574 . S
C2008 H2003 0.949 . S
C2008 C2014 1.368 . S
C2009 C1993 1.349 . S
C2009 H2001 0.950 . S
C2009 C2007 1.327 . S
C2010 C1998 1.349 . S
C2010 H2004 0.950 . S
C2010 C2011 1.327 . S
C2011 H2005 0.950 . S
C2011 C2010 1.327 . S
C2011 C2015 1.429 . S
C2012 C1995 1.574 . S
C2012 H2006 0.949 . S
C2012 C2016 1.368 . S
C2013 C1994 1.429 . S
C2013 C2007 1.429 . S
C2013 C2014 1.523 . S
C2014 C1995 1.368 . S
C2014 C2008 1.368 . S
C2014 C2013 1.523 . S
C2015 C1999 1.429 . S
C2015 C2011 1.429 . S
C2015 C2016 1.523 . S
C2016 C2000 1.368 . S
C2016 C2012 1.368 . S
C2016 C2015 1.523 . S
H2017 C1992 0.950 . S
H2018 C1994 0.950 . S
H2019 C1995 0.949 . S
H2020 C1997 0.950 . S
H2021 C1999 0.950 . S
C2022 C2023 1.349 . S
C2022 C2024 1.327 . S
C2022 H2047 0.950 . S
C2023 C2022 1.349 . S
C2023 C2039 1.349 . S
C2024 C2022 1.327 . S
C2024 C2043 1.429 . S
C2024 H2048 0.950 . S
C2025 C2042 1.574 . S
C2025 C2044 1.368 . S
C2025 H2049 0.949 . S
H2026 C2030 0.949 . S
C2027 C2028 1.349 . S
C2027 C2029 1.327 . S
C2027 H2050 0.950 . S
C2028 C2027 1.349 . S
C2028 C2040 1.349 . S
C2029 C2027 1.327 . S
C2029 C2045 1.429 . S
C2029 H2051 0.950 . S
C2030 H2026 0.949 . S
C2030 C2038 1.574 . S
C2030 C2046 1.368 . S
H2031 C2039 0.950 . S
H2032 C2037 0.950 . S
H2033 C2038 0.949 . S
H2034 C2040 0.950 . S
H2035 C2041 0.950 . S
H2036 C2042 0.949 . S
C2037 H2032 0.950 . S
C2037 C2039 1.327 . S
C2037 C2043 1.429 . S
C2038 C2030 1.574 . S
C2038 H2033 0.949 . S
C2038 C2044 1.368 . S
C2039 C2023 1.349 . S
C2039 H2031 0.950 . S
C2039 C2037 1.327 . S
C2040 C2028 1.349 . S
C2040 H2034 0.950 . S
C2040 C2041 1.327 . S
C2041 H2035 0.950 . S
C2041 C2040 1.327 . S
C2041 C2045 1.429 . S
C2042 C2025 1.574 . S
C2042 H2036 0.949 . S
C2042 C2046 1.368 . S
C2043 C2024 1.429 . S
C2043 C2037 1.429 . S
C2043 C2044 1.523 . S
C2044 C2025 1.368 . S
C2044 C2038 1.368 . S
C2044 C2043 1.523 . S
C2045 C2029 1.429 . S
C2045 C2041 1.429 . S
C2045 C2046 1.523 . S
C2046 C2030 1.368 . S
C2046 C2042 1.368 . S
C2046 C2045 1.523 . S
H2047 C2022 0.950 . S
H2048 C2024 0.950 . S
H2049 C2025 0.949 . S
H2050 C2027 0.950 . S
H2051 C2029 0.950 . S
C2052 C2053 1.370 . S
C2052 C2054 1.348 . S
C2052 H2077 0.911 1_455 S
C2053 C2052 1.370 . S
C2053 C2069 1.349 . S
C2054 C2052 1.348 . S
C2054 C2073 1.429 . S
C2054 H2078 0.950 . S
C2055 C2072 1.574 . S
C2055 C2074 1.368 . S
C2055 H2079 0.949 . S
H2056 C2060 0.949 . S
C2057 C2058 1.349 . S
C2057 C2059 1.327 . S
C2057 H2080 0.950 . S
C2058 C2057 1.349 . S
C2058 C2070 1.349 . S
C2059 C2057 1.327 . S
C2059 C2075 1.429 . S
C2059 H2081 0.950 . S
C2060 H2056 0.949 . S
C2060 C2068 1.574 . S
C2060 C2076 1.368 . S
H2061 C2069 0.950 . S
H2062 C2067 0.950 . S
H2063 C2068 0.949 . S
H2064 C2070 0.950 . S
H2065 C2071 0.950 . S
H2066 C2072 0.949 . S
C2067 H2062 0.950 . S
C2067 C2069 1.327 . S
C2067 C2073 1.429 . S
C2068 C2060 1.574 . S
C2068 H2063 0.949 . S
C2068 C2074 1.368 . S
C2069 C2053 1.349 . S
C2069 H2061 0.950 . S
C2069 C2067 1.327 . S
C2070 C2058 1.349 . S
C2070 H2064 0.950 . S
C2070 C2071 1.327 . S
C2071 H2065 0.950 . S
C2071 C2070 1.327 . S
C2071 C2075 1.429 . S
C2072 C2055 1.574 . S
C2072 H2066 0.949 . S
C2072 C2076 1.368 . S
C2073 C2054 1.429 . S
C2073 C2067 1.429 . S
C2073 C2074 1.523 . S
C2074 C2055 1.368 . S
C2074 C2068 1.368 . S
C2074 C2073 1.523 . S
C2075 C2059 1.429 . S
C2075 C2071 1.429 . S
C2075 C2076 1.523 . S
C2076 C2060 1.368 . S
C2076 C2072 1.368 . S
C2076 C2075 1.523 . S
H2077 C2052 0.911 1_655 S
H2078 C2054 0.950 . S
H2079 C2055 0.949 . S
H2080 C2057 0.950 . S
H2081 C2059 0.950 . S
C2082 C2083 1.349 1_556 S
C2082 C2084 1.334 . S
C2082 H2107 0.950 . S
C2083 C2082 1.349 1_554 S
C2083 C2099 1.349 . S
C2084 C2082 1.334 . S
C2084 C2103 1.408 1_556 S
C2084 H2108 0.964 . S
C2085 C2102 1.574 . S
C2085 C2104 1.368 . S
C2085 H2109 0.949 . S
H2086 C2090 0.949 . S
C2087 C2088 1.349 . S
C2087 C2089 1.327 . S
C2087 H2110 0.950 . S
C2088 C2087 1.349 . S
C2088 C2100 1.349 . S
C2089 C2087 1.327 . S
C2089 C2105 1.429 . S
C2089 H2111 0.950 . S
C2090 H2086 0.949 . S
C2090 C2098 1.574 . S
C2090 C2106 1.368 . S
H2091 C2099 0.950 . S
H2092 C2097 0.950 . S
H2093 C2098 0.949 1_556 S
H2094 C2100 0.950 . S
H2095 C2101 0.950 . S
H2096 C2102 0.949 . S
C2097 H2092 0.950 . S
C2097 C2099 1.327 . S
C2097 C2103 1.429 . S
C2098 C2090 1.574 . S
C2098 H2093 0.949 1_554 S
C2098 C2104 1.368 . S
C2099 C2083 1.349 . S
C2099 H2091 0.950 . S
C2099 C2097 1.327 . S
C2100 C2088 1.349 . S
C2100 H2094 0.950 . S
C2100 C2101 1.327 . S
C2101 H2095 0.950 . S
C2101 C2100 1.327 . S
C2101 C2105 1.429 . S
C2102 C2085 1.574 . S
C2102 H2096 0.949 . S
C2102 C2106 1.368 . S
C2103 C2084 1.408 1_554 S
C2103 C2097 1.429 . S
C2103 C2104 1.523 . S
C2104 C2085 1.368 . S
C2104 C2098 1.368 . S
C2104 C2103 1.523 . S
C2105 C2089 1.429 . S
C2105 C2101 1.429 . S
C2105 C2106 1.523 . S
C2106 C2090 1.368 . S
C2106 C2102 1.368 . S
C2106 C2105 1.523 . S
H2107 C2082 0.950 . S
H2108 C2084 0.964 . S
H2109 C2085 0.949 . S
H2110 C2087 0.950 . S
H2111 C2089 0.950 . S
C2112 C2113 1.349 1_565 S
C2112 C2114 1.314 1_565 S
C2112 H2137 0.950 . S
C2113 C2112 1.349 1_545 S
C2113 C2129 1.349 . S
C2114 C2112 1.314 1_545 S
C2114 C2133 1.465 . S
C2114 H2138 0.927 1_545 S
C2115 C2132 1.574 . S
C2115 C2134 1.368 . S
C2115 H2139 0.949 . S
H2116 C2120 0.949 . S
C2117 C2118 1.349 . S
C2117 C2119 1.327 . S
C2117 H2140 0.950 . S
C2118 C2117 1.349 . S
C2118 C2130 1.349 . S
C2119 C2117 1.327 . S
C2119 C2135 1.429 . S
C2119 H2141 0.950 . S
C2120 H2116 0.949 . S
C2120 C2128 1.574 . S
C2120 C2136 1.368 . S
H2121 C2129 0.950 . S
H2122 C2127 0.950 . S
H2123 C2128 0.949 . S
H2124 C2130 0.950 . S
H2125 C2131 0.950 . S
H2126 C2132 0.949 . S
C2127 H2122 0.950 . S
C2127 C2129 1.327 . S
C2127 C2133 1.429 . S
C2128 C2120 1.574 . S
C2128 H2123 0.949 . S
C2128 C2134 1.368 . S
C2129 C2113 1.349 . S
C2129 H2121 0.950 . S
C2129 C2127 1.327 . S
C2130 C2118 1.349 . S
C2130 H2124 0.950 . S
C2130 C2131 1.327 . S
C2131 H2125 0.950 . S
C2131 C2130 1.327 . S
C2131 C2135 1.429 . S
C2132 C2115 1.574 . S
C2132 H2126 0.949 . S
C2132 C2136 1.368 . S
C2133 C2114 1.465 . S
C2133 C2127 1.429 . S
C2133 C2134 1.523 . S
C2134 C2115 1.368 . S
C2134 C2128 1.368 . S
C2134 C2133 1.523 . S
C2135 C2119 1.429 . S
C2135 C2131 1.429 . S
C2135 C2136 1.523 . S
C2136 C2120 1.368 . S
C2136 C2132 1.368 . S
C2136 C2135 1.523 . S
H2137 C2112 0.950 . S
H2138 C2114 0.927 1_565 S
H2139 C2115 0.949 . S
H2140 C2117 0.950 . S
H2141 C2119 0.950 . S
C2142 C2143 1.349 . S
C2142 C2144 1.327 . S
C2142 H2167 0.950 . S
C2143 C2142 1.349 . S
C2143 C2159 1.349 . S
C2144 C2142 1.327 . S
C2144 C2163 1.429 . S
C2144 H2168 0.950 . S
C2145 C2162 1.574 . S
C2145 C2164 1.368 . S
C2145 H2169 0.949 . S
H2146 C2150 0.949 . S
C2147 C2148 1.349 . S
C2147 C2149 1.327 . S
C2147 H2170 0.950 . S
C2148 C2147 1.349 . S
C2148 C2160 1.349 . S
C2149 C2147 1.327 . S
C2149 C2165 1.429 . S
C2149 H2171 0.950 . S
C2150 H2146 0.949 . S
C2150 C2158 1.574 . S
C2150 C2166 1.368 . S
H2151 C2159 0.950 . S
H2152 C2157 0.950 . S
H2153 C2158 0.949 . S
H2154 C2160 0.950 . S
H2155 C2161 0.950 . S
H2156 C2162 0.949 . S
C2157 H2152 0.950 . S
C2157 C2159 1.327 . S
C2157 C2163 1.429 . S
C2158 C2150 1.574 . S
C2158 H2153 0.949 . S
C2158 C2164 1.368 . S
C2159 C2143 1.349 . S
C2159 H2151 0.950 . S
C2159 C2157 1.327 . S
C2160 C2148 1.349 . S
C2160 H2154 0.950 . S
C2160 C2161 1.327 . S
C2161 H2155 0.950 . S
C2161 C2160 1.327 . S
C2161 C2165 1.429 . S
C2162 C2145 1.574 . S
C2162 H2156 0.949 . S
C2162 C2166 1.368 . S
C2163 C2144 1.429 . S
C2163 C2157 1.429 . S
C2163 C2164 1.523 . S
C2164 C2145 1.368 . S
C2164 C2158 1.368 . S
C2164 C2163 1.523 . S
C2165 C2149 1.429 . S
C2165 C2161 1.429 . S
C2165 C2166 1.523 . S
C2166 C2150 1.368 . S
C2166 C2162 1.368 . S
C2166 C2165 1.523 . S
H2167 C2142 0.950 . S
H2168 C2144 0.950 . S
H2169 C2145 0.949 . S
H2170 C2147 0.950 . S
H2171 C2149 0.950 . S
C2172 C2173 1.349 1_565 S
C2172 C2174 1.327 1_565 S
C2172 H2197 0.950 . S
C2173 C2172 1.349 1_545 S
C2173 C2189 1.349 . S
C2174 C2172 1.327 1_545 S
C2174 C2193 1.429 . S
C2174 H2198 0.950 1_545 S
C2175 C2192 1.574 . S
C2175 C2194 1.368 . S
C2175 H2199 0.949 . S
H2176 C2180 0.949 . S
C2177 C2178 1.349 . S
C2177 C2179 1.327 . S
C2177 H2200 0.950 . S
C2178 C2177 1.349 . S
C2178 C2190 1.349 . S
C2179 C2177 1.327 . S
C2179 C2195 1.429 . S
C2179 H2201 0.950 . S
C2180 H2176 0.949 . S
C2180 C2188 1.574 . S
C2180 C2196 1.368 . S
H2181 C2189 0.950 . S
H2182 C2187 0.950 . S
H2183 C2188 0.949 . S
H2184 C2190 0.950 . S
H2185 C2191 0.950 . S
H2186 C2192 0.949 . S
C2187 H2182 0.950 . S
C2187 C2189 1.327 . S
C2187 C2193 1.429 . S
C2188 C2180 1.574 . S
C2188 H2183 0.949 . S
C2188 C2194 1.368 . S
C2189 C2173 1.349 . S
C2189 H2181 0.950 . S
C2189 C2187 1.327 . S
C2190 C2178 1.349 . S
C2190 H2184 0.950 . S
C2190 C2191 1.327 . S
C2191 H2185 0.950 . S
C2191 C2190 1.327 . S
C2191 C2195 1.429 . S
C2192 C2175 1.574 . S
C2192 H2186 0.949 . S
C2192 C2196 1.368 . S
C2193 C2174 1.429 . S
C2193 C2187 1.429 . S
C2193 C2194 1.523 . S
C2194 C2175 1.368 . S
C2194 C2188 1.368 . S
C2194 C2193 1.523 . S
C2195 C2179 1.429 . S
C2195 C2191 1.429 . S
C2195 C2196 1.523 . S
C2196 C2180 1.368 . S
C2196 C2192 1.368 . S
C2196 C2195 1.523 . S
H2197 C2172 0.950 . S
H2198 C2174 0.950 1_565 S
H2199 C2175 0.949 . S
H2200 C2177 0.950 . S
H2201 C2179 0.950 . S
C2202 C2203 1.349 . S
C2202 C2204 1.327 . S
C2202 H2227 0.950 . S
C2203 C2202 1.349 . S
C2203 C2219 1.349 . S
C2204 C2202 1.327 . S
C2204 C2223 1.429 . S
C2204 H2228 0.950 . S
C2205 C2222 1.574 . S
C2205 C2224 1.368 . S
C2205 H2229 0.949 . S
H2206 C2210 0.949 . S
C2207 C2208 1.349 . S
C2207 C2209 1.327 . S
C2207 H2230 0.950 . S
C2208 C2207 1.349 . S
C2208 C2220 1.349 . S
C2209 C2207 1.327 . S
C2209 C2225 1.429 . S
C2209 H2231 0.950 . S
C2210 H2206 0.949 . S
C2210 C2218 1.574 . S
C2210 C2226 1.368 . S
H2211 C2219 0.950 . S
H2212 C2217 0.950 . S
H2213 C2218 0.949 . S
H2214 C2220 0.950 . S
H2215 C2221 0.950 . S
H2216 C2222 0.949 . S
C2217 H2212 0.950 . S
C2217 C2219 1.327 . S
C2217 C2223 1.429 . S
C2218 C2210 1.574 . S
C2218 H2213 0.949 . S
C2218 C2224 1.368 . S
C2219 C2203 1.349 . S
C2219 H2211 0.950 . S
C2219 C2217 1.327 . S
C2220 C2208 1.349 . S
C2220 H2214 0.950 . S
C2220 C2221 1.327 . S
C2221 H2215 0.950 . S
C2221 C2220 1.327 . S
C2221 C2225 1.429 . S
C2222 C2205 1.574 . S
C2222 H2216 0.949 . S
C2222 C2226 1.368 . S
C2223 C2204 1.429 . S
C2223 C2217 1.429 . S
C2223 C2224 1.523 . S
C2224 C2205 1.368 . S
C2224 C2218 1.368 . S
C2224 C2223 1.523 . S
C2225 C2209 1.429 . S
C2225 C2221 1.429 . S
C2225 C2226 1.523 . S
C2226 C2210 1.368 . S
C2226 C2222 1.368 . S
C2226 C2225 1.523 . S
H2227 C2202 0.950 . S
H2228 C2204 0.950 . S
H2229 C2205 0.949 . S
H2230 C2207 0.950 . S
H2231 C2209 0.950 . S
C2232 C2233 1.349 . S
C2232 C2234 1.327 . S
C2232 H2257 0.950 . S
C2233 C2232 1.349 . S
C2233 C2249 1.349 . S
C2234 C2232 1.327 . S
C2234 C2253 1.429 . S
C2234 H2258 0.950 . S
C2235 C2252 1.574 . S
C2235 C2254 1.368 . S
C2235 H2259 0.949 . S
H2236 C2240 0.949 . S
C2237 C2238 1.349 . S
C2237 C2239 1.327 . S
C2237 H2260 0.950 . S
C2238 C2237 1.349 . S
C2238 C2250 1.349 . S
C2239 C2237 1.327 . S
C2239 C2255 1.429 . S
C2239 H2261 0.950 . S
C2240 H2236 0.949 . S
C2240 C2248 1.574 . S
C2240 C2256 1.368 . S
H2241 C2249 0.950 . S
H2242 C2247 0.950 . S
H2243 C2248 0.949 . S
H2244 C2250 0.950 . S
H2245 C2251 0.950 . S
H2246 C2252 0.949 . S
C2247 H2242 0.950 . S
C2247 C2249 1.327 . S
C2247 C2253 1.429 . S
C2248 C2240 1.574 . S
C2248 H2243 0.949 . S
C2248 C2254 1.368 . S
C2249 C2233 1.349 . S
C2249 H2241 0.950 . S
C2249 C2247 1.327 . S
C2250 C2238 1.349 . S
C2250 H2244 0.950 . S
C2250 C2251 1.327 . S
C2251 H2245 0.950 . S
C2251 C2250 1.327 . S
C2251 C2255 1.429 . S
C2252 C2235 1.574 . S
C2252 H2246 0.949 . S
C2252 C2256 1.368 . S
C2253 C2234 1.429 . S
C2253 C2247 1.429 . S
C2253 C2254 1.523 . S
C2254 C2235 1.368 . S
C2254 C2248 1.368 . S
C2254 C2253 1.523 . S
C2255 C2239 1.429 . S
C2255 C2251 1.429 . S
C2255 C2256 1.523 . S
C2256 C2240 1.368 . S
C2256 C2252 1.368 . S
C2256 C2255 1.523 . S
H2257 C2232 0.950 . S
H2258 C2234 0.950 . S
H2259 C2235 0.949 . S
H2260 C2237 0.950 . S
H2261 C2239 0.950 . S
C2262 C2263 1.349 . S
C2262 C2264 1.327 . S
C2262 H2287 0.941 1_556 S
C2263 C2262 1.349 . S
C2263 C2279 1.349 . S
C2264 C2262 1.327 . S
C2264 C2283 1.429 . S
C2264 H2288 0.950 1_556 S
C2265 C2282 1.574 . S
C2265 C2284 1.368 . S
C2265 H2289 0.949 . S
H2266 C2270 0.949 . S
C2267 C2268 1.349 1_556 S
C2267 C2269 1.327 . S
C2267 H2290 0.950 . S
C2268 C2267 1.349 1_554 S
C2268 C2280 1.349 . S
C2269 C2267 1.327 . S
C2269 C2285 1.456 . S
C2269 H2291 0.950 . S
C2270 H2266 0.949 . S
C2270 C2278 1.574 . S
C2270 C2286 1.368 1_554 S
H2271 C2279 0.950 . S
H2272 C2277 0.950 . S
H2273 C2278 0.949 . S
H2274 C2280 0.950 . S
H2275 C2281 0.950 . S
H2276 C2282 0.949 . S
C2277 H2272 0.950 . S
C2277 C2279 1.327 . S
C2277 C2283 1.429 . S
C2278 C2270 1.574 . S
C2278 H2273 0.949 . S
C2278 C2284 1.368 1_554 S
C2279 C2263 1.349 . S
C2279 H2271 0.950 . S
C2279 C2277 1.327 . S
C2280 C2268 1.349 . S
C2280 H2274 0.950 . S
C2280 C2281 1.327 . S
C2281 H2275 0.950 . S
C2281 C2280 1.327 . S
C2281 C2285 1.393 1_554 S
C2282 C2265 1.574 . S
C2282 H2276 0.949 . S
C2282 C2286 1.368 . S
C2283 C2264 1.429 . S
C2283 C2277 1.429 . S
C2283 C2284 1.523 . S
C2284 C2265 1.368 . S
C2284 C2278 1.368 1_556 S
C2284 C2283 1.523 . S
C2285 C2269 1.456 . S
C2285 C2281 1.393 1_556 S
C2285 C2286 1.532 . S
C2286 C2270 1.368 1_556 S
C2286 C2282 1.368 . S
C2286 C2285 1.532 . S
H2287 C2262 0.941 1_554 S
H2288 C2264 0.950 1_554 S
H2289 C2265 0.949 . S
H2290 C2267 0.950 . S
H2291 C2269 0.950 . S
C2292 C2293 1.349 . S
C2292 C2294 1.327 . S
C2292 H2317 0.950 . S
C2293 C2292 1.349 . S
C2293 C2309 1.349 . S
C2294 C2292 1.327 . S
C2294 C2313 1.429 . S
C2294 H2318 0.950 . S
C2295 C2312 1.574 . S
C2295 C2314 1.368 1_545 S
C2295 H2319 0.949 . S
H2296 C2300 0.949 . S
C2297 C2298 1.349 . S
C2297 C2299 1.327 . S
C2297 H2320 0.950 . S
C2298 C2297 1.349 . S
C2298 C2310 1.349 1_545 S
C2299 C2297 1.327 . S
C2299 C2315 1.397 1_545 S
C2299 H2321 0.950 . S
C2300 H2296 0.949 . S
C2300 C2308 1.574 . S
C2300 C2316 1.368 . S
H2301 C2309 0.950 . S
H2302 C2307 0.950 1_545 S
H2303 C2308 0.949 . S
H2304 C2310 0.950 . S
H2305 C2311 0.950 . S
H2306 C2312 0.949 . S
C2307 H2302 0.950 1_565 S
C2307 C2309 1.327 . S
C2307 C2313 1.429 . S
C2308 C2300 1.574 . S
C2308 H2303 0.949 . S
C2308 C2314 1.368 . S
C2309 C2293 1.349 . S
C2309 H2301 0.950 . S
C2309 C2307 1.327 . S
C2310 C2298 1.349 1_565 S
C2310 H2304 0.950 . S
C2310 C2311 1.327 . S
C2311 H2305 0.950 . S
C2311 C2310 1.327 . S
C2311 C2315 1.452 . S
C2312 C2295 1.574 . S
C2312 H2306 0.949 . S
C2312 C2316 1.368 1_545 S
C2313 C2294 1.429 . S
C2313 C2307 1.429 . S
C2313 C2314 1.523 . S
C2314 C2295 1.368 1_565 S
C2314 C2308 1.368 . S
C2314 C2313 1.523 . S
C2315 C2299 1.397 1_565 S
C2315 C2311 1.452 . S
C2315 C2316 1.532 . S
C2316 C2300 1.368 . S
C2316 C2312 1.368 1_565 S
C2316 C2315 1.532 . S
H2317 C2292 0.950 . S
H2318 C2294 0.950 . S
H2319 C2295 0.949 . S
H2320 C2297 0.950 . S
H2321 C2299 0.950 . S
C2322 C2323 1.349 . S
C2322 C2324 1.327 . S
C2322 H2347 0.950 . S
C2323 C2322 1.349 . S
C2323 C2339 1.349 . S
C2324 C2322 1.327 . S
C2324 C2343 1.429 . S
C2324 H2348 0.950 . S
C2325 C2342 1.574 . S
C2325 C2344 1.368 . S
C2325 H2349 0.949 . S
H2326 C2330 0.949 . S
C2327 C2328 1.349 . S
C2327 C2329 1.327 . S
C2327 H2350 0.950 . S
C2328 C2327 1.349 . S
C2328 C2340 1.349 . S
C2329 C2327 1.327 . S
C2329 C2345 1.429 . S
C2329 H2351 0.950 . S
C2330 H2326 0.949 . S
C2330 C2338 1.574 . S
C2330 C2346 1.368 . S
H2331 C2339 0.950 . S
H2332 C2337 0.950 . S
H2333 C2338 0.949 . S
H2334 C2340 0.950 . S
H2335 C2341 0.950 . S
H2336 C2342 0.949 . S
C2337 H2332 0.950 . S
C2337 C2339 1.327 . S
C2337 C2343 1.429 . S
C2338 C2330 1.574 . S
C2338 H2333 0.949 . S
C2338 C2344 1.368 . S
C2339 C2323 1.349 . S
C2339 H2331 0.950 . S
C2339 C2337 1.327 . S
C2340 C2328 1.349 . S
C2340 H2334 0.950 . S
C2340 C2341 1.327 . S
C2341 H2335 0.950 . S
C2341 C2340 1.327 . S
C2341 C2345 1.429 . S
C2342 C2325 1.574 . S
C2342 H2336 0.949 . S
C2342 C2346 1.368 . S
C2343 C2324 1.429 . S
C2343 C2337 1.429 . S
C2343 C2344 1.523 . S
C2344 C2325 1.368 . S
C2344 C2338 1.368 . S
C2344 C2343 1.523 . S
C2345 C2329 1.429 . S
C2345 C2341 1.429 . S
C2345 C2346 1.523 . S
C2346 C2330 1.368 . S
C2346 C2342 1.368 . S
C2346 C2345 1.523 . S
H2347 C2322 0.950 . S
H2348 C2324 0.950 . S
H2349 C2325 0.949 . S
H2350 C2327 0.950 . S
H2351 C2329 0.950 . S
C2352 C2353 1.349 . S
C2352 C2354 1.327 . S
C2352 H2377 0.950 . S
C2353 C2352 1.349 . S
C2353 C2369 1.349 . S
C2354 C2352 1.327 . S
C2354 C2373 1.429 . S
C2354 H2378 0.950 . S
C2355 C2372 1.574 . S
C2355 C2374 1.368 . S
C2355 H2379 0.949 . S
H2356 C2360 0.949 . S
C2357 C2358 1.349 . S
C2357 C2359 1.327 . S
C2357 H2380 0.950 . S
C2358 C2357 1.349 . S
C2358 C2370 1.349 . S
C2359 C2357 1.327 . S
C2359 C2375 1.429 . S
C2359 H2381 0.950 . S
C2360 H2356 0.949 . S
C2360 C2368 1.574 . S
C2360 C2376 1.368 . S
H2361 C2369 0.950 . S
H2362 C2367 0.950 . S
H2363 C2368 0.949 . S
H2364 C2370 0.950 . S
H2365 C2371 0.950 . S
H2366 C2372 0.949 . S
C2367 H2362 0.950 . S
C2367 C2369 1.327 . S
C2367 C2373 1.429 . S
C2368 C2360 1.574 . S
C2368 H2363 0.949 . S
C2368 C2374 1.368 . S
C2369 C2353 1.349 . S
C2369 H2361 0.950 . S
C2369 C2367 1.327 . S
C2370 C2358 1.349 . S
C2370 H2364 0.950 . S
C2370 C2371 1.327 . S
C2371 H2365 0.950 . S
C2371 C2370 1.327 . S
C2371 C2375 1.429 . S
C2372 C2355 1.574 . S
C2372 H2366 0.949 . S
C2372 C2376 1.368 . S
C2373 C2354 1.429 . S
C2373 C2367 1.429 . S
C2373 C2374 1.523 . S
C2374 C2355 1.368 . S
C2374 C2368 1.368 . S
C2374 C2373 1.523 . S
C2375 C2359 1.429 . S
C2375 C2371 1.429 . S
C2375 C2376 1.523 . S
C2376 C2360 1.368 . S
C2376 C2372 1.368 . S
C2376 C2375 1.523 . S
H2377 C2352 0.950 . S
H2378 C2354 0.950 . S
H2379 C2355 0.949 . S
H2380 C2357 0.950 . S
H2381 C2359 0.950 . S
C2382 C2383 1.349 . S
C2382 C2384 1.327 . S
C2382 H2407 0.950 . S
C2383 C2382 1.349 . S
C2383 C2399 1.349 . S
C2384 C2382 1.327 . S
C2384 C2403 1.429 . S
C2384 H2408 0.950 . S
C2385 C2402 1.574 . S
C2385 C2404 1.368 . S
C2385 H2409 0.949 . S
H2386 C2390 0.949 . S
C2387 C2388 1.349 . S
C2387 C2389 1.327 . S
C2387 H2410 0.950 . S
C2388 C2387 1.349 . S
C2388 C2400 1.349 . S
C2389 C2387 1.327 . S
C2389 C2405 1.429 . S
C2389 H2411 0.950 . S
C2390 H2386 0.949 . S
C2390 C2398 1.574 . S
C2390 C2406 1.368 . S
H2391 C2399 0.950 . S
H2392 C2397 0.950 . S
H2393 C2398 0.949 . S
H2394 C2400 0.950 . S
H2395 C2401 0.950 . S
H2396 C2402 0.949 . S
C2397 H2392 0.950 . S
C2397 C2399 1.327 . S
C2397 C2403 1.429 . S
C2398 C2390 1.574 . S
C2398 H2393 0.949 . S
C2398 C2404 1.368 . S
C2399 C2383 1.349 . S
C2399 H2391 0.950 . S
C2399 C2397 1.327 . S
C2400 C2388 1.349 . S
C2400 H2394 0.950 . S
C2400 C2401 1.327 . S
C2401 H2395 0.950 . S
C2401 C2400 1.327 . S
C2401 C2405 1.429 . S
C2402 C2385 1.574 . S
C2402 H2396 0.949 . S
C2402 C2406 1.368 . S
C2403 C2384 1.429 . S
C2403 C2397 1.429 . S
C2403 C2404 1.523 . S
C2404 C2385 1.368 . S
C2404 C2398 1.368 . S
C2404 C2403 1.523 . S
C2405 C2389 1.429 . S
C2405 C2401 1.429 . S
C2405 C2406 1.523 . S
C2406 C2390 1.368 . S
C2406 C2402 1.368 . S
C2406 C2405 1.523 . S
H2407 C2382 0.950 . S
H2408 C2384 0.950 . S
H2409 C2385 0.949 . S
H2410 C2387 0.950 . S
H2411 C2389 0.950 . S
C2412 C2413 1.349 . S
C2412 C2414 1.327 . S
C2412 H2437 0.950 . S
C2413 C2412 1.349 . S
C2413 C2429 1.349 . S
C2414 C2412 1.327 . S
C2414 C2433 1.429 . S
C2414 H2438 0.950 . S
C2415 C2432 1.574 . S
C2415 C2434 1.368 . S
C2415 H2439 0.949 . S
H2416 C2420 0.949 . S
C2417 C2418 1.349 . S
C2417 C2419 1.327 . S
C2417 H2440 0.950 . S
C2418 C2417 1.349 . S
C2418 C2430 1.349 . S
C2419 C2417 1.327 . S
C2419 C2435 1.429 . S
C2419 H2441 0.950 . S
C2420 H2416 0.949 . S
C2420 C2428 1.574 . S
C2420 C2436 1.368 . S
H2421 C2429 0.950 . S
H2422 C2427 0.950 . S
H2423 C2428 0.949 . S
H2424 C2430 0.950 . S
H2425 C2431 0.950 . S
H2426 C2432 0.949 . S
C2427 H2422 0.950 . S
C2427 C2429 1.327 . S
C2427 C2433 1.429 . S
C2428 C2420 1.574 . S
C2428 H2423 0.949 . S
C2428 C2434 1.368 . S
C2429 C2413 1.349 . S
C2429 H2421 0.950 . S
C2429 C2427 1.327 . S
C2430 C2418 1.349 . S
C2430 H2424 0.950 . S
C2430 C2431 1.327 . S
C2431 H2425 0.950 . S
C2431 C2430 1.327 . S
C2431 C2435 1.429 . S
C2432 C2415 1.574 . S
C2432 H2426 0.949 . S
C2432 C2436 1.368 . S
C2433 C2414 1.429 . S
C2433 C2427 1.429 . S
C2433 C2434 1.523 . S
C2434 C2415 1.368 . S
C2434 C2428 1.368 . S
C2434 C2433 1.523 . S
C2435 C2419 1.429 . S
C2435 C2431 1.429 . S
C2435 C2436 1.523 . S
C2436 C2420 1.368 . S
C2436 C2432 1.368 . S
C2436 C2435 1.523 . S
H2437 C2412 0.950 . S
H2438 C2414 0.950 . S
H2439 C2415 0.949 . S
H2440 C2417 0.950 . S
H2441 C2419 0.950 . S
C2442 C2443 1.349 . S
C2442 C2444 1.327 . S
C2442 H2467 0.950 . S
C2443 C2442 1.349 . S
C2443 C2459 1.349 . S
C2444 C2442 1.327 . S
C2444 C2463 1.429 . S
C2444 H2468 0.950 . S
C2445 C2462 1.574 . S
C2445 C2464 1.368 . S
C2445 H2469 0.949 . S
H2446 C2450 0.949 . S
C2447 C2448 1.349 . S
C2447 C2449 1.327 . S
C2447 H2470 0.950 . S
C2448 C2447 1.349 . S
C2448 C2460 1.349 . S
C2449 C2447 1.327 . S
C2449 C2465 1.429 . S
C2449 H2471 0.950 . S
C2450 H2446 0.949 . S
C2450 C2458 1.574 . S
C2450 C2466 1.368 . S
H2451 C2459 0.950 . S
H2452 C2457 0.950 . S
H2453 C2458 0.949 . S
H2454 C2460 0.950 . S
H2455 C2461 0.950 . S
H2456 C2462 0.949 . S
C2457 H2452 0.950 . S
C2457 C2459 1.327 . S
C2457 C2463 1.429 . S
C2458 C2450 1.574 . S
C2458 H2453 0.949 . S
C2458 C2464 1.368 . S
C2459 C2443 1.349 . S
C2459 H2451 0.950 . S
C2459 C2457 1.327 . S
C2460 C2448 1.349 . S
C2460 H2454 0.950 . S
C2460 C2461 1.327 . S
C2461 H2455 0.950 . S
C2461 C2460 1.327 . S
C2461 C2465 1.429 . S
C2462 C2445 1.574 . S
C2462 H2456 0.949 . S
C2462 C2466 1.368 . S
C2463 C2444 1.429 . S
C2463 C2457 1.429 . S
C2463 C2464 1.523 . S
C2464 C2445 1.368 . S
C2464 C2458 1.368 . S
C2464 C2463 1.523 . S
C2465 C2449 1.429 . S
C2465 C2461 1.429 . S
C2465 C2466 1.523 . S
C2466 C2450 1.368 . S
C2466 C2462 1.368 . S
C2466 C2465 1.523 . S
H2467 C2442 0.950 . S
H2468 C2444 0.950 . S
H2469 C2445 0.949 . S
H2470 C2447 0.950 . S
H2471 C2449 0.950 . S
C2472 C2473 1.349 . S
C2472 C2474 1.327 . S
C2472 H2497 0.950 . S
C2473 C2472 1.349 . S
C2473 C2489 1.349 . S
C2474 C2472 1.327 . S
C2474 C2493 1.429 . S
C2474 H2498 0.950 . S
C2475 C2492 1.574 . S
C2475 C2494 1.368 . S
C2475 H2499 0.949 . S
H2476 C2480 0.949 . S
C2477 C2478 1.349 . S
C2477 C2479 1.327 . S
C2477 H2500 0.950 . S
C2478 C2477 1.349 . S
C2478 C2490 1.349 . S
C2479 C2477 1.327 . S
C2479 C2495 1.429 . S
C2479 H2501 0.950 . S
C2480 H2476 0.949 . S
C2480 C2488 1.574 . S
C2480 C2496 1.368 . S
H2481 C2489 0.950 . S
H2482 C2487 0.950 . S
H2483 C2488 0.949 . S
H2484 C2490 0.950 . S
H2485 C2491 0.950 . S
H2486 C2492 0.949 . S
C2487 H2482 0.950 . S
C2487 C2489 1.327 . S
C2487 C2493 1.429 . S
C2488 C2480 1.574 . S
C2488 H2483 0.949 . S
C2488 C2494 1.368 . S
C2489 C2473 1.349 . S
C2489 H2481 0.950 . S
C2489 C2487 1.327 . S
C2490 C2478 1.349 . S
C2490 H2484 0.950 . S
C2490 C2491 1.327 . S
C2491 H2485 0.950 . S
C2491 C2490 1.327 . S
C2491 C2495 1.429 . S
C2492 C2475 1.574 . S
C2492 H2486 0.949 . S
C2492 C2496 1.368 . S
C2493 C2474 1.429 . S
C2493 C2487 1.429 . S
C2493 C2494 1.523 . S
C2494 C2475 1.368 . S
C2494 C2488 1.368 . S
C2494 C2493 1.523 . S
C2495 C2479 1.429 . S
C2495 C2491 1.429 . S
C2495 C2496 1.523 . S
C2496 C2480 1.368 . S
C2496 C2492 1.368 . S
C2496 C2495 1.523 . S
H2497 C2472 0.950 . S
H2498 C2474 0.950 . S
H2499 C2475 0.949 . S
H2500 C2477 0.950 . S
H2501 C2479 0.950 . S
C2502 C2503 1.349 . S
C2502 C2504 1.327 . S
C2502 H2527 0.950 . S
C2503 C2502 1.349 . S
C2503 C2519 1.349 . S
C2504 C2502 1.327 . S
C2504 C2523 1.429 . S
C2504 H2528 0.950 . S
C2505 C2522 1.574 . S
C2505 C2524 1.368 . S
C2505 H2529 0.949 . S
H2506 C2510 0.949 . S
C2507 C2508 1.349 . S
C2507 C2509 1.327 . S
C2507 H2530 0.950 . S
C2508 C2507 1.349 . S
C2508 C2520 1.349 . S
C2509 C2507 1.327 . S
C2509 C2525 1.429 . S
C2509 H2531 0.950 . S
C2510 H2506 0.949 . S
C2510 C2518 1.574 . S
C2510 C2526 1.368 . S
H2511 C2519 0.950 . S
H2512 C2517 0.950 . S
H2513 C2518 0.949 . S
H2514 C2520 0.950 . S
H2515 C2521 0.950 . S
H2516 C2522 0.949 . S
C2517 H2512 0.950 . S
C2517 C2519 1.327 . S
C2517 C2523 1.429 . S
C2518 C2510 1.574 . S
C2518 H2513 0.949 . S
C2518 C2524 1.368 . S
C2519 C2503 1.349 . S
C2519 H2511 0.950 . S
C2519 C2517 1.327 . S
C2520 C2508 1.349 . S
C2520 H2514 0.950 . S
C2520 C2521 1.327 . S
C2521 H2515 0.950 . S
C2521 C2520 1.327 . S
C2521 C2525 1.429 . S
C2522 C2505 1.574 . S
C2522 H2516 0.949 . S
C2522 C2526 1.368 . S
C2523 C2504 1.429 . S
C2523 C2517 1.429 . S
C2523 C2524 1.523 . S
C2524 C2505 1.368 . S
C2524 C2518 1.368 . S
C2524 C2523 1.523 . S
C2525 C2509 1.429 . S
C2525 C2521 1.429 . S
C2525 C2526 1.523 . S
C2526 C2510 1.368 . S
C2526 C2522 1.368 . S
C2526 C2525 1.523 . S
H2527 C2502 0.950 . S
H2528 C2504 0.950 . S
H2529 C2505 0.949 . S
H2530 C2507 0.950 . S
H2531 C2509 0.950 . S
C2532 C2533 1.349 . S
C2532 C2534 1.327 . S
C2532 H2557 0.950 . S
C2533 C2532 1.349 . S
C2533 C2549 1.349 . S
C2534 C2532 1.327 . S
C2534 C2553 1.429 . S
C2534 H2558 0.950 . S
C2535 C2552 1.574 . S
C2535 C2554 1.368 . S
C2535 H2559 0.949 . S
H2536 C2540 0.949 . S
C2537 C2538 1.349 . S
C2537 C2539 1.327 . S
C2537 H2560 0.950 . S
C2538 C2537 1.349 . S
C2538 C2550 1.349 . S
C2539 C2537 1.327 . S
C2539 C2555 1.429 . S
C2539 H2561 0.950 . S
C2540 H2536 0.949 . S
C2540 C2548 1.574 . S
C2540 C2556 1.368 . S
H2541 C2549 0.950 . S
H2542 C2547 0.950 . S
H2543 C2548 0.949 . S
H2544 C2550 0.950 . S
H2545 C2551 0.950 . S
H2546 C2552 0.949 . S
C2547 H2542 0.950 . S
C2547 C2549 1.327 . S
C2547 C2553 1.429 . S
C2548 C2540 1.574 . S
C2548 H2543 0.949 . S
C2548 C2554 1.368 . S
C2549 C2533 1.349 . S
C2549 H2541 0.950 . S
C2549 C2547 1.327 . S
C2550 C2538 1.349 . S
C2550 H2544 0.950 . S
C2550 C2551 1.327 . S
C2551 H2545 0.950 . S
C2551 C2550 1.327 . S
C2551 C2555 1.429 . S
C2552 C2535 1.574 . S
C2552 H2546 0.949 . S
C2552 C2556 1.368 . S
C2553 C2534 1.429 . S
C2553 C2547 1.429 . S
C2553 C2554 1.523 . S
C2554 C2535 1.368 . S
C2554 C2548 1.368 . S
C2554 C2553 1.523 . S
C2555 C2539 1.429 . S
C2555 C2551 1.429 . S
C2555 C2556 1.523 . S
C2556 C2540 1.368 . S
C2556 C2552 1.368 . S
C2556 C2555 1.523 . S
H2557 C2532 0.950 . S
H2558 C2534 0.950 . S
H2559 C2535 0.949 . S
H2560 C2537 0.950 . S
H2561 C2539 0.950 . S
C2562 C2563 1.349 . S
C2562 C2564 1.327 . S
C2562 H2587 0.950 . S
C2563 C2562 1.349 . S
C2563 C2579 1.349 . S
C2564 C2562 1.327 . S
C2564 C2583 1.429 . S
C2564 H2588 0.954 . S
C2565 C2582 1.574 . S
C2565 C2584 1.368 . S
C2565 H2589 0.949 . S
H2566 C2570 0.949 . S
C2567 C2568 1.349 1_655 S
C2567 C2569 1.327 . S
C2567 H2590 0.950 . S
C2568 C2567 1.349 1_455 S
C2568 C2580 1.349 . S
C2569 C2567 1.327 . S
C2569 C2585 1.447 . S
C2569 H2591 0.950 . S
C2570 H2566 0.949 . S
C2570 C2578 1.572 1_455 S
C2570 C2586 1.368 1_455 S
H2571 C2579 0.950 . S
H2572 C2577 0.950 . S
H2573 C2578 0.946 1_455 S
H2574 C2580 0.950 . S
H2575 C2581 0.950 . S
H2576 C2582 0.949 . S
C2577 H2572 0.950 . S
C2577 C2579 1.327 . S
C2577 C2583 1.429 . S
C2578 C2570 1.572 1_655 S
C2578 H2573 0.946 1_655 S
C2578 C2584 1.373 . S
C2579 C2563 1.349 . S
C2579 H2571 0.950 . S
C2579 C2577 1.327 . S
C2580 C2568 1.349 . S
C2580 H2574 0.950 . S
C2580 C2581 1.327 . S
C2581 H2575 0.950 . S
C2581 C2580 1.327 . S
C2581 C2585 1.403 1_455 S
C2582 C2565 1.574 . S
C2582 H2576 0.949 . S
C2582 C2586 1.368 . S
C2583 C2564 1.429 . S
C2583 C2577 1.429 . S
C2583 C2584 1.523 . S
C2584 C2565 1.368 . S
C2584 C2578 1.373 . S
C2584 C2583 1.523 . S
C2585 C2569 1.447 . S
C2585 C2581 1.403 1_655 S
C2585 C2586 1.532 . S
C2586 C2570 1.368 1_655 S
C2586 C2582 1.368 . S
C2586 C2585 1.532 . S
H2587 C2562 0.950 . S
H2588 C2564 0.954 . S
H2589 C2565 0.949 . S
H2590 C2567 0.950 . S
H2591 C2569 0.950 . S
C793 C17 0.879 . S
C798 C677 0.879 . S
C823 C578 0.878 . S
C828 C50 0.878 . S
C853 C611 0.879 . S
C858 C83 0.879 . S
C883 C644 0.879 . S
C888 C116 0.879 . S
C913 C149 0.878 . S
C918 C776 0.878 . S
C943 C710 0.878 . S
C948 C182 0.879 . S
C973 C743 0.878 . S
C978 C215 0.878 . S
C1003 C545 0.879 . S
C1008 C248 0.879 . S
C1033 C281 0.879 . S
C1038 C512 0.879 . S
C1063 C413 0.879 . S
C1068 C314 0.879 . S
C1093 C347 0.878 . S
C1098 C446 0.878 . S
C1123 C479 0.878 . S
C1128 C380 0.878 . S
C1153 N632 0.713 . S
C1158 C28 0.326 . S
C1183 C61 0.326 . S
C1188 N665 0.713 . S
C1213 N566 0.713 . S
C1218 C94 0.326 . S
C1243 C127 0.326 . S
C1248 N599 0.713 . S
C1273 N698 0.713 . S
C1278 C160 0.326 . S
C1303 N731 0.713 . S
C1308 C193 0.326 . S
C1333 N533 0.713 . S
C1338 C226 0.326 . S
C1363 C259 0.326 . S
C1368 N764 0.713 . S
C1393 C292 0.326 . S
C1398 N71 0.713 . S
C1423 C325 0.326 . S
C1428 N104 0.713 . S
C1453 C358 0.326 . S
C1458 N5 0.713 . S
C1483 N38 0.713 . S
C1488 C391 0.326 . S
C1513 C424 0.326 . S
C1518 N203 0.713 . S
C1543 N236 0.713 . S
C1548 C457 0.326 . S
C1573 N137 0.713 . S
C1578 C490 0.326 . S
C1603 N170 0.713 . S
C1608 C523 0.327 . S
C1633 N401 0.713 . S
C1638 C556 0.326 . S
C1663 N269 0.713 . S
C1668 C589 0.326 . S
C1693 C622 0.326 . S
C1698 N302 0.713 . S
C1723 C655 0.326 . S
C1728 N335 0.713 . S
C1753 N368 0.713 . S
C1758 C688 0.327 . S
C1783 C721 0.326 . S
C1788 N467 0.713 . S
C1813 N500 0.713 . S
C1818 C754 0.326 . S
C1843 C787 0.326 . S
C1848 N434 0.713 . S
C1873 N14 0.862 . S
C1878 N740 0.862 1_455 S
C1903 N542 0.862 . S
C1908 N47 0.862 1_554 S
C1933 N80 0.862 . S
C1938 N773 0.862 . S
C1963 N707 0.862 . S
C1968 N113 0.862 . S
C1993 N146 0.862 . S
C1998 N608 0.862 . S
C2023 N641 0.862 . S
C2028 N179 0.862 . S
C2053 N212 0.862 . S
C2058 N674 0.862 . S
C2083 N575 0.862 . S
C2088 N245 0.862 . S
C2113 N443 0.862 1_545 S
C2118 N278 0.862 . S
C2143 N476 0.862 . S
C2148 N311 0.862 . S
C2173 N344 0.862 . S
C2178 N509 0.862 . S
C2203 N377 0.862 . S
C2208 N410 0.862 . S
C2233 C503 1.717 . S
C2238 C8 1.717 1_655 S
C2263 C41 1.716 . S
C2268 C404 1.716 . S
C2293 C437 1.716 . S
C2298 C74 1.716 . S
C2323 C470 1.716 . S
C2328 C107 1.716 . S
C2353 C140 1.716 . S
C2358 C305 1.716 . S
C2383 C338 1.716 . S
C2388 C173 1.716 . S
C2413 C206 1.716 . S
C2418 C371 1.716 . S
C2443 C272 1.716 1_565 S
C2448 C239 1.716 . S
C2473 C668 1.716 . S
C2478 C536 1.716 1_556 S
C2503 C767 1.716 . S
C2508 C569 1.716 . S
C2533 C701 1.716 . S
C2538 C602 1.716 . S
C2563 C734 1.716 . S
C2568 C635 1.716 . S
